# Generated by pormake.
# Topology eea, (3,6)-cn, num edge types: 1
# Building blocks:
#     Node 0, Type 0, BuildingBlock: QEWDON_clean_linker_0, # of connection points: 3
#     Node 1, Type 0, BuildingBlock: QEWDON_clean_linker_0, # of connection points: 3
#     Node 2, Type 0, BuildingBlock: QEWDON_clean_linker_0, # of connection points: 3
#     Node 3, Type 0, BuildingBlock: QEWDON_clean_linker_0, # of connection points: 3
#     Node 4, Type 0, BuildingBlock: QEWDON_clean_linker_0, # of connection points: 3
#     Node 5, Type 0, BuildingBlock: QEWDON_clean_linker_0, # of connection points: 3
#     Node 6, Type 0, BuildingBlock: QEWDON_clean_linker_0, # of connection points: 3
#     Node 7, Type 0, BuildingBlock: QEWDON_clean_linker_0, # of connection points: 3
#     Node 8, Type 0, BuildingBlock: QEWDON_clean_linker_0, # of connection points: 3
#     Node 9, Type 0, BuildingBlock: QEWDON_clean_linker_0, # of connection points: 3
#     Node 10, Type 0, BuildingBlock: QEWDON_clean_linker_0, # of connection points: 3
#     Node 11, Type 0, BuildingBlock: QEWDON_clean_linker_0, # of connection points: 3
#     Node 12, Type 0, BuildingBlock: QEWDON_clean_linker_0, # of connection points: 3
#     Node 13, Type 0, BuildingBlock: QEWDON_clean_linker_0, # of connection points: 3
#     Node 14, Type 0, BuildingBlock: QEWDON_clean_linker_0, # of connection points: 3
#     Node 15, Type 0, BuildingBlock: QEWDON_clean_linker_0, # of connection points: 3
#     Node 16, Type 0, BuildingBlock: QEWDON_clean_linker_0, # of connection points: 3
#     Node 17, Type 0, BuildingBlock: QEWDON_clean_linker_0, # of connection points: 3
#     Node 18, Type 1, BuildingBlock: HISSIN_clean_sbu_0, # of connection points: 6
#     Node 19, Type 1, BuildingBlock: HISSIN_clean_sbu_0, # of connection points: 6
#     Node 20, Type 1, BuildingBlock: HISSIN_clean_sbu_0, # of connection points: 6
#     Node 21, Type 1, BuildingBlock: HISSIN_clean_sbu_0, # of connection points: 6
#     Node 22, Type 1, BuildingBlock: HISSIN_clean_sbu_0, # of connection points: 6
#     Node 23, Type 1, BuildingBlock: HISSIN_clean_sbu_0, # of connection points: 6
#     Node 24, Type 1, BuildingBlock: HISSIN_clean_sbu_0, # of connection points: 6
#     Node 25, Type 1, BuildingBlock: HISSIN_clean_sbu_0, # of connection points: 6
#     Node 26, Type 1, BuildingBlock: HISSIN_clean_sbu_0, # of connection points: 6
#     Edge 27, Type (0, 1), BuildingBlock: CIFDUS_clean_linker_0, # of connection points: 2
#     Edge 28, Type (0, 1), BuildingBlock: CIFDUS_clean_linker_0, # of connection points: 2
#     Edge 29, Type (0, 1), BuildingBlock: CIFDUS_clean_linker_0, # of connection points: 2
#     Edge 30, Type (0, 1), BuildingBlock: CIFDUS_clean_linker_0, # of connection points: 2
#     Edge 31, Type (0, 1), BuildingBlock: CIFDUS_clean_linker_0, # of connection points: 2
#     Edge 32, Type (0, 1), BuildingBlock: CIFDUS_clean_linker_0, # of connection points: 2
#     Edge 33, Type (0, 1), BuildingBlock: CIFDUS_clean_linker_0, # of connection points: 2
#     Edge 34, Type (0, 1), BuildingBlock: CIFDUS_clean_linker_0, # of connection points: 2
#     Edge 35, Type (0, 1), BuildingBlock: CIFDUS_clean_linker_0, # of connection points: 2
#     Edge 36, Type (0, 1), BuildingBlock: CIFDUS_clean_linker_0, # of connection points: 2
#     Edge 37, Type (0, 1), BuildingBlock: CIFDUS_clean_linker_0, # of connection points: 2
#     Edge 38, Type (0, 1), BuildingBlock: CIFDUS_clean_linker_0, # of connection points: 2
#     Edge 39, Type (0, 1), BuildingBlock: CIFDUS_clean_linker_0, # of connection points: 2
#     Edge 40, Type (0, 1), BuildingBlock: CIFDUS_clean_linker_0, # of connection points: 2
#     Edge 41, Type (0, 1), BuildingBlock: CIFDUS_clean_linker_0, # of connection points: 2
#     Edge 42, Type (0, 1), BuildingBlock: CIFDUS_clean_linker_0, # of connection points: 2
#     Edge 43, Type (0, 1), BuildingBlock: CIFDUS_clean_linker_0, # of connection points: 2
#     Edge 44, Type (0, 1), BuildingBlock: CIFDUS_clean_linker_0, # of connection points: 2
#     Edge 45, Type (0, 1), BuildingBlock: CIFDUS_clean_linker_0, # of connection points: 2
#     Edge 46, Type (0, 1), BuildingBlock: CIFDUS_clean_linker_0, # of connection points: 2
#     Edge 47, Type (0, 1), BuildingBlock: CIFDUS_clean_linker_0, # of connection points: 2
#     Edge 48, Type (0, 1), BuildingBlock: CIFDUS_clean_linker_0, # of connection points: 2
#     Edge 49, Type (0, 1), BuildingBlock: CIFDUS_clean_linker_0, # of connection points: 2
#     Edge 50, Type (0, 1), BuildingBlock: CIFDUS_clean_linker_0, # of connection points: 2
#     Edge 51, Type (0, 1), BuildingBlock: CIFDUS_clean_linker_0, # of connection points: 2
#     Edge 52, Type (0, 1), BuildingBlock: CIFDUS_clean_linker_0, # of connection points: 2
#     Edge 53, Type (0, 1), BuildingBlock: CIFDUS_clean_linker_0, # of connection points: 2
#     Edge 54, Type (0, 1), BuildingBlock: CIFDUS_clean_linker_0, # of connection points: 2
#     Edge 55, Type (0, 1), BuildingBlock: CIFDUS_clean_linker_0, # of connection points: 2
#     Edge 56, Type (0, 1), BuildingBlock: CIFDUS_clean_linker_0, # of connection points: 2
#     Edge 57, Type (0, 1), BuildingBlock: CIFDUS_clean_linker_0, # of connection points: 2
#     Edge 58, Type (0, 1), BuildingBlock: CIFDUS_clean_linker_0, # of connection points: 2
#     Edge 59, Type (0, 1), BuildingBlock: CIFDUS_clean_linker_0, # of connection points: 2
#     Edge 60, Type (0, 1), BuildingBlock: CIFDUS_clean_linker_0, # of connection points: 2
#     Edge 61, Type (0, 1), BuildingBlock: CIFDUS_clean_linker_0, # of connection points: 2
#     Edge 62, Type (0, 1), BuildingBlock: CIFDUS_clean_linker_0, # of connection points: 2
#     Edge 63, Type (0, 1), BuildingBlock: CIFDUS_clean_linker_0, # of connection points: 2
#     Edge 64, Type (0, 1), BuildingBlock: CIFDUS_clean_linker_0, # of connection points: 2
#     Edge 65, Type (0, 1), BuildingBlock: CIFDUS_clean_linker_0, # of connection points: 2
#     Edge 66, Type (0, 1), BuildingBlock: CIFDUS_clean_linker_0, # of connection points: 2
#     Edge 67, Type (0, 1), BuildingBlock: CIFDUS_clean_linker_0, # of connection points: 2
#     Edge 68, Type (0, 1), BuildingBlock: CIFDUS_clean_linker_0, # of connection points: 2
#     Edge 69, Type (0, 1), BuildingBlock: CIFDUS_clean_linker_0, # of connection points: 2
#     Edge 70, Type (0, 1), BuildingBlock: CIFDUS_clean_linker_0, # of connection points: 2
#     Edge 71, Type (0, 1), BuildingBlock: CIFDUS_clean_linker_0, # of connection points: 2
#     Edge 72, Type (0, 1), BuildingBlock: CIFDUS_clean_linker_0, # of connection points: 2
#     Edge 73, Type (0, 1), BuildingBlock: CIFDUS_clean_linker_0, # of connection points: 2
#     Edge 74, Type (0, 1), BuildingBlock: CIFDUS_clean_linker_0, # of connection points: 2
#     Edge 75, Type (0, 1), BuildingBlock: CIFDUS_clean_linker_0, # of connection points: 2
#     Edge 76, Type (0, 1), BuildingBlock: CIFDUS_clean_linker_0, # of connection points: 2
#     Edge 77, Type (0, 1), BuildingBlock: CIFDUS_clean_linker_0, # of connection points: 2
#     Edge 78, Type (0, 1), BuildingBlock: CIFDUS_clean_linker_0, # of connection points: 2
#     Edge 79, Type (0, 1), BuildingBlock: CIFDUS_clean_linker_0, # of connection points: 2
#     Edge 80, Type (0, 1), BuildingBlock: CIFDUS_clean_linker_0, # of connection points: 2
# Relax obj value: 0.088
# Max RMSD: 0.267
# Mean RMSD: 0.185
data_MOF--net-eea--node1-HISSIN_clean_sbu_0--node2-QEWDON_clean_linker_0--edge1-CIFDUS_clean_linker_0
_symmetry_space_group_name_H-M    P1
_symmetry_Int_Tables_number       1
_symmetry_cell_setting            triclinic
loop_
_symmetry_equiv_pos_as_xyz
'x, y, z'
_cell_length_a     50.9205
_cell_length_b     51.569691
_cell_length_c     60.915118
_cell_angle_alpha  93.171008
_cell_angle_beta   93.119576
_cell_angle_gamma 120.02063
loop_
_atom_site_label
_atom_site_type_symbol
_atom_site_fract_x
_atom_site_fract_y
_atom_site_fract_z
_atom_type_partial_charge
H0 H 0.26706 0.15463 0.40695 0.0
C1 C 0.25984 0.13122 0.40254 0.0
C2 C 0.26268 0.11411 0.41867 0.0
C3 C 0.24837 0.11842 0.3807 0.0
H4 H 0.25658 0.07091 0.42518 0.0
C5 C 0.25405 0.08401 0.4128 0.0
C6 C 0.24317 0.07098 0.39099 0.0
C7 C 0.23995 0.08822 0.37516 0.0
C8 C 0.2463 0.13678 0.36342 0.0
H9 H 0.2315 0.0783 0.35832 0.0
C10 C 0.23662 0.15761 0.36807 0.0
C11 C 0.23472 0.1749 0.35162 0.0
C12 C 0.2542 0.1336 0.34206 0.0
H13 H 0.26242 0.11835 0.33804 0.0
C14 C 0.25196 0.15034 0.32565 0.0
H15 H 0.23065 0.16042 0.38448 0.0
C16 C 0.24219 0.17074 0.3303 0.0
H17 H 0.24031 0.18312 0.31711 0.0
H18 H 0.25788 0.14753 0.30924 0.0
H19 H 0.90337 0.09307 0.43109 0.0
C20 C 0.92133 0.11363 0.4256 0.0
C21 C 0.93068 0.14152 0.43759 0.0
C22 C 0.93578 0.11192 0.40706 0.0
H23 H 0.96138 0.1895 0.43925 0.0
C24 C 0.95414 0.16804 0.43012 0.0
C25 C 0.96889 0.16683 0.4114 0.0
C26 C 0.95936 0.13854 0.40015 0.0
C27 C 0.92804 0.08236 0.3956 0.0
H28 H 0.97091 0.13694 0.38618 0.0
C29 C 0.89756 0.05965 0.38924 0.0
C30 C 0.89117 0.03278 0.37699 0.0
C31 C 0.95172 0.07718 0.39038 0.0
H32 H 0.97529 0.09388 0.39545 0.0
C33 C 0.94535 0.05043 0.3786 0.0
H34 H 0.87903 0.06328 0.39305 0.0
C35 C 0.91533 0.02848 0.37177 0.0
H36 H 0.91091 0.0079 0.36254 0.0
H37 H 0.96379 0.04678 0.37464 0.0
H38 H 0.92012 0.78202 0.4404 0.0
C39 C 0.90193 0.78237 0.43056 0.0
C40 C 0.87141 0.76364 0.43482 0.0
C41 C 0.90921 0.80265 0.41435 0.0
H42 H 0.82467 0.75056 0.4253 0.0
C43 C 0.84817 0.76482 0.42206 0.0
C44 C 0.85504 0.78502 0.40575 0.0
C45 C 0.88572 0.80384 0.40209 0.0
C46 C 0.94137 0.8254 0.41208 0.0
H47 H 0.89161 0.82036 0.39023 0.0
C48 C 0.96291 0.81714 0.4065 0.0
C49 C 0.99334 0.83954 0.40472 0.0
C50 C 0.95056 0.85604 0.41572 0.0
H51 H 0.93441 0.86288 0.42008 0.0
C52 C 0.98069 0.87813 0.4141 0.0
H53 H 0.95607 0.79358 0.40355 0.0
C54 C 1.00199 0.86998 0.4087 0.0
H55 H 0.02528 0.8875 0.40743 0.0
H56 H 0.98756 0.90166 0.41705 0.0
H57 H 0.11616 0.20564 0.58077 0.0
C58 C 0.09762 0.20642 0.58811 0.0
C59 C 0.08361 0.22073 0.57769 0.0
C60 C 0.0864 0.19132 0.60702 0.0
H61 H 0.04774 0.23138 0.57881 0.0
C62 C 0.05848 0.22023 0.58666 0.0
C63 C 0.04687 0.20537 0.60551 0.0
C64 C 0.0614 0.19156 0.61582 0.0
C65 C 0.0986 0.17284 0.61647 0.0
H66 H 0.05239 0.17991 0.63027 0.0
C67 C 0.13013 0.18259 0.61846 0.0
C68 C 0.14068 0.16475 0.62806 0.0
C69 C 0.0781 0.14462 0.62347 0.0
H70 H 0.05375 0.13585 0.62153 0.0
C71 C 0.08856 0.12702 0.6328 0.0
H72 H 0.1464 0.20416 0.61318 0.0
C73 C 0.1196 0.13706 0.63524 0.0
H74 H 0.12722 0.12299 0.64257 0.0
H75 H 0.0725 0.10544 0.63814 0.0
H76 H 0.80025 0.90686 0.59865 0.0
C77 C 0.79767 0.88686 0.60555 0.0
C78 C 0.77806 0.85829 0.59427 0.0
C79 C 0.81542 0.88992 0.62498 0.0
H80 H 0.76215 0.81086 0.59371 0.0
C81 C 0.77653 0.83271 0.60274 0.0
C82 C 0.79379 0.83532 0.62252 0.0
C83 C 0.81254 0.86412 0.63369 0.0
C84 C 0.83919 0.91999 0.6353 0.0
H85 H 0.82543 0.86683 0.64923 0.0
C86 C 0.83248 0.94281 0.64079 0.0
C87 C 0.8553 0.97068 0.65155 0.0
C88 C 0.86904 0.92565 0.64001 0.0
H89 H 0.87483 0.90858 0.63568 0.0
C90 C 0.89177 0.95341 0.65017 0.0
H91 H 0.80945 0.93852 0.63745 0.0
C92 C 0.88499 0.97575 0.65599 0.0
H93 H 0.90308 0.99715 0.6639 0.0
H94 H 0.9147 0.95757 0.65364 0.0
H95 H 0.09593 0.87413 0.57865 0.0
C96 C 0.11426 0.8936 0.58851 0.0
C97 C 0.14442 0.90596 0.58281 0.0
C98 C 0.10762 0.907 0.60649 0.0
H99 H 0.19104 0.94116 0.59115 0.0
C100 C 0.16787 0.9316 0.59556 0.0
C101 C 0.16169 0.94559 0.61339 0.0
C102 C 0.13147 0.93288 0.61878 0.0
C103 C 0.07568 0.89607 0.61157 0.0
H104 H 0.12618 0.94368 0.63219 0.0
C105 C 0.05573 0.86582 0.61539 0.0
C106 C 0.02649 0.85707 0.62197 0.0
C107 C 0.06551 0.91685 0.61362 0.0
H108 H 0.08019 0.94009 0.61053 0.0
C109 C 0.03645 0.90801 0.61973 0.0
H110 H 0.06323 0.84953 0.61401 0.0
C111 C 0.01713 0.87839 0.62406 0.0
H112 H 0.99472 0.87203 0.62901 0.0
H113 H 0.02895 0.92426 0.6213 0.0
H114 H 0.93733 0.48067 0.74261 0.0
C115 C 0.92756 0.45666 0.73881 0.0
C116 C 0.92943 0.43922 0.75513 0.0
C117 C 0.91359 0.44326 0.7175 0.0
H118 H 0.91975 0.39494 0.76216 0.0
C119 C 0.91726 0.40819 0.74989 0.0
C120 C 0.90322 0.39442 0.72869 0.0
C121 C 0.90119 0.41212 0.71273 0.0
C122 C 0.91269 0.46161 0.6998 0.0
H123 H 0.88968 0.40155 0.69651 0.0
C124 C 0.90491 0.48401 0.70386 0.0
C125 C 0.90294 0.50037 0.68664 0.0
C126 C 0.91917 0.45623 0.67844 0.0
H127 H 0.92577 0.43957 0.6749 0.0
C128 C 0.91726 0.47227 0.66138 0.0
H129 H 0.90013 0.48845 0.72032 0.0
C130 C 0.90898 0.49395 0.66534 0.0
H131 H 0.90688 0.50537 0.65155 0.0
H132 H 0.92199 0.4677 0.64496 0.0
H133 H 0.56807 0.43141 0.76708 0.0
C134 C 0.58638 0.44985 0.75981 0.0
C135 C 0.59468 0.47956 0.76695 0.0
C136 C 0.6022 0.44375 0.74405 0.0
H137 H 0.62534 0.52634 0.76332 0.0
C138 C 0.61884 0.50343 0.75775 0.0
C139 C 0.63538 0.49801 0.7421 0.0
C140 C 0.62657 0.46801 0.73521 0.0
C141 C 0.59491 0.41219 0.73836 0.0
H142 H 0.6393 0.4635 0.72343 0.0
C143 C 0.56448 0.388 0.73575 0.0
C144 C 0.55805 0.35806 0.73213 0.0
C145 C 0.61867 0.4059 0.73678 0.0
H146 H 0.64227 0.42377 0.73913 0.0
C147 C 0.61234 0.37634 0.73287 0.0
H148 H 0.54584 0.39236 0.73685 0.0
C149 C 0.58231 0.35256 0.73068 0.0
H150 H 0.57801 0.32981 0.72766 0.0
H151 H 0.63084 0.37181 0.73178 0.0
H152 H 0.58469 0.12306 0.78052 0.0
C153 C 0.56551 0.12257 0.77146 0.0
C154 C 0.53675 0.10858 0.7798 0.0
C155 C 0.57022 0.13844 0.75259 0.0
H156 H 0.49015 0.09764 0.77425 0.0
C157 C 0.51248 0.10938 0.76827 0.0
C158 C 0.51685 0.1261 0.74991 0.0
C159 C 0.5459 0.14029 0.74209 0.0
C160 C 0.60158 0.15853 0.7466 0.0
H161 H 0.55029 0.15435 0.7286 0.0
C162 C 0.61821 0.14768 0.73524 0.0
C163 C 0.64717 0.1682 0.72868 0.0
C164 C 0.61447 0.18965 0.75171 0.0
H165 H 0.60211 0.19841 0.76041 0.0
C166 C 0.6432 0.20976 0.74559 0.0
H167 H 0.60841 0.12374 0.73101 0.0
C168 C 0.65937 0.19918 0.73405 0.0
H169 H 0.68155 0.21525 0.72923 0.0
H170 H 0.65287 0.2337 0.74961 0.0
H171 H 0.7898 0.54261 0.91208 0.0
C172 C 0.77299 0.5443 0.92125 0.0
C173 C 0.75955 0.56065 0.91351 0.0
C174 C 0.76338 0.52838 0.93996 0.0
H175 H 0.72676 0.57449 0.91968 0.0
C176 C 0.73674 0.56145 0.92522 0.0
C177 C 0.72688 0.54576 0.9441 0.0
C178 C 0.74052 0.52942 0.95128 0.0
C179 C 0.77516 0.50854 0.94683 0.0
H180 H 0.73273 0.51667 0.96545 0.0
C181 C 0.80669 0.51873 0.94939 0.0
C182 C 0.817 0.49973 0.95697 0.0
C183 C 0.75438 0.47897 0.95128 0.0
H184 H 0.73005 0.47034 0.9491 0.0
C185 C 0.76465 0.46012 0.95848 0.0
H186 H 0.82307 0.54148 0.94616 0.0
C187 C 0.79576 0.47046 0.96146 0.0
H188 H 0.80333 0.45557 0.96728 0.0
H189 H 0.74842 0.43744 0.96188 0.0
H190 H 0.43138 0.23437 0.94219 0.0
C191 C 0.43964 0.21937 0.94627 0.0
C192 C 0.43469 0.19587 0.93062 0.0
C193 C 0.45475 0.22324 0.96725 0.0
H194 H 0.4387 0.15647 0.92494 0.0
C195 C 0.44431 0.1757 0.93642 0.0
C196 C 0.4599 0.17944 0.95716 0.0
C197 C 0.46579 0.20388 0.97212 0.0
C198 C 0.45771 0.24625 0.98468 0.0
H199 H 0.4789 0.20782 0.98779 0.0
C200 C 0.46359 0.27496 0.97963 0.0
C201 C 0.46611 0.29629 0.9964 0.0
C202 C 0.45412 0.23917 1.00672 0.0
H203 H 0.44872 0.2171 0.01115 0.0
C204 C 0.4571 0.26031 0.02336 0.0
H205 H 0.46613 0.28066 0.96273 0.0
C206 C 0.46321 0.28869 0.01833 0.0
H207 H 0.46589 0.30477 0.03173 0.0
H208 H 0.45459 0.25466 0.04027 0.0
H209 H 0.76246 0.22577 0.91432 0.0
C210 C 0.78161 0.24487 0.9239 0.0
C211 C 0.80993 0.26028 0.91506 0.0
C212 C 0.77741 0.2557 0.94433 0.0
H213 H 0.85547 0.29856 0.9199 0.0
C214 C 0.83405 0.28623 0.92708 0.0
C215 C 0.8304 0.29695 0.94775 0.0
C216 C 0.80207 0.28102 0.95634 0.0
C217 C 0.74667 0.24418 0.95194 0.0
H218 H 0.79866 0.28881 0.97223 0.0
C219 C 0.72885 0.21444 0.95752 0.0
C220 C 0.70127 0.20572 0.96701 0.0
C221 C 0.73601 0.26444 0.95503 0.0
H222 H 0.74926 0.28734 0.95074 0.0
C223 C 0.70846 0.25558 0.9639 0.0
H224 H 0.73691 0.19868 0.95534 0.0
C225 C 0.69131 0.22652 0.97004 0.0
H226 H 0.67003 0.22015 0.97705 0.0
H227 H 0.70054 0.2714 0.96625 0.0
H228 H 0.53943 0.79068 0.1014 0.0
C229 C 0.53832 0.77167 0.09193 0.0
C230 C 0.55423 0.75783 0.10018 0.0
C231 C 0.51999 0.76037 0.07178 0.0
H232 H 0.5632 0.72138 0.09398 0.0
C233 C 0.55208 0.73297 0.08752 0.0
C234 C 0.53413 0.7218 0.06713 0.0
C235 C 0.51839 0.73583 0.05942 0.0
C236 C 0.50027 0.77215 0.0641 0.0
H237 H 0.50452 0.72751 0.04372 0.0
C238 C 0.5126 0.80229 0.05946 0.0
C239 C 0.49347 0.8119 0.04999 0.0
C240 C 0.46871 0.75222 0.05997 0.0
H241 H 0.45878 0.72895 0.06348 0.0
C242 C 0.44973 0.762 0.05107 0.0
H243 H 0.53694 0.81777 0.06234 0.0
C244 C 0.46205 0.79162 0.04591 0.0
H245 H 0.44706 0.79876 0.0387 0.0
H246 H 0.42547 0.74647 0.04789 0.0
H247 H 0.25094 0.77636 0.10824 0.0
C248 C 0.26837 0.79357 0.09949 0.0
C249 C 0.27948 0.82414 0.10612 0.0
C250 C 0.28101 0.78496 0.08272 0.0
H251 H 0.31293 0.86979 0.101 0.0
C252 C 0.30372 0.84624 0.09558 0.0
C253 C 0.31652 0.83799 0.07846 0.0
C254 C 0.30443 0.80722 0.07198 0.0
C255 C 0.27195 0.75288 0.07788 0.0
H256 H 0.31347 0.80032 0.05861 0.0
C257 C 0.24106 0.73 0.07506 0.0
C258 C 0.23311 0.69961 0.07175 0.0
C259 C 0.29464 0.74497 0.07703 0.0
H260 H 0.31856 0.76206 0.0794 0.0
C261 C 0.28674 0.71487 0.0737 0.0
H262 H 0.22332 0.73575 0.0756 0.0
C263 C 0.25619 0.69229 0.07119 0.0
H264 H 0.25052 0.66903 0.06857 0.0
H265 H 0.30438 0.70903 0.0732 0.0
H266 H 0.26779 0.47226 0.11411 0.0
C267 C 0.24833 0.47194 0.10565 0.0
C268 C 0.21915 0.45423 0.11272 0.0
C269 C 0.25284 0.49127 0.089 0.0
H270 H 0.17174 0.44054 0.10721 0.0
C271 C 0.19429 0.4549 0.10216 0.0
C272 C 0.19821 0.47425 0.08568 0.0
C273 C 0.22764 0.49217 0.0791 0.0
C274 C 0.28421 0.51372 0.08414 0.0
H275 H 0.2313 0.5079 0.06691 0.0
C276 C 0.30588 0.50541 0.07887 0.0
C277 C 0.33558 0.52765 0.0749 0.0
C278 C 0.29272 0.5443 0.08536 0.0
H279 H 0.27672 0.55137 0.08963 0.0
C280 C 0.32208 0.56618 0.08155 0.0
H281 H 0.29971 0.48197 0.07781 0.0
C282 C 0.3434 0.55797 0.07641 0.0
H283 H 0.36609 0.57533 0.07343 0.0
H284 H 0.32836 0.58964 0.08264 0.0
H285 H 0.46415 0.89096 0.25411 0.0
C286 C 0.44648 0.89225 0.2624 0.0
C287 C 0.43382 0.90904 0.25417 0.0
C288 C 0.43538 0.87574 0.2806 0.0
H289 H 0.40071 0.9229 0.25899 0.0
C290 C 0.41069 0.91018 0.26523 0.0
C291 C 0.39968 0.89409 0.28384 0.0
C292 C 0.41218 0.87684 0.29119 0.0
C293 C 0.44514 0.85429 0.28691 0.0
H294 H 0.40307 0.86319 0.30477 0.0
C295 C 0.47599 0.86376 0.29285 0.0
C296 C 0.48444 0.84258 0.29834 0.0
C297 C 0.42305 0.82368 0.28665 0.0
H298 H 0.39924 0.8159 0.28203 0.0
C299 C 0.43149 0.80275 0.29195 0.0
H300 H 0.49322 0.88732 0.2932 0.0
C301 C 0.462 0.81208 0.29769 0.0
H302 H 0.46812 0.79549 0.30184 0.0
H303 H 0.41433 0.7792 0.29157 0.0
H304 H 0.15814 0.59265 0.26656 0.0
C305 C 0.15484 0.57203 0.27277 0.0
C306 C 0.13491 0.54427 0.26061 0.0
C307 C 0.17109 0.57339 0.2926 0.0
H308 H 0.11541 0.49629 0.25943 0.0
C309 C 0.13087 0.51767 0.26878 0.0
C310 C 0.14736 0.51849 0.28839 0.0
C311 C 0.1673 0.54656 0.30019 0.0
C312 C 0.19286 0.60283 0.30513 0.0
H313 H 0.18043 0.5477 0.31518 0.0
C314 C 0.18509 0.62532 0.30857 0.0
C315 C 0.20521 0.65249 0.32141 0.0
C316 C 0.22142 0.60833 0.31414 0.0
H317 H 0.22834 0.59177 0.3114 0.0
C318 C 0.24151 0.63538 0.32668 0.0
H319 H 0.16305 0.62134 0.30196 0.0
C320 C 0.23343 0.65727 0.33044 0.0
H321 H 0.24937 0.67811 0.34024 0.0
H322 H 0.26342 0.63936 0.33354 0.0
H323 H 0.42277 0.54091 0.247 0.0
C324 C 0.44357 0.55958 0.25534 0.0
C325 C 0.47138 0.56988 0.24586 0.0
C326 C 0.44243 0.57412 0.27521 0.0
H327 H 0.51887 0.6042 0.24857 0.0
C328 C 0.49791 0.59499 0.25652 0.0
C329 C 0.49737 0.60944 0.27657 0.0
C330 C 0.46955 0.59837 0.28593 0.0
C331 C 0.41293 0.56639 0.28406 0.0
H332 H 0.46876 0.60896 0.30156 0.0
C333 C 0.39069 0.53649 0.28701 0.0
C334 C 0.36414 0.53063 0.29706 0.0
C335 C 0.4075 0.58986 0.29034 0.0
H336 H 0.42385 0.61295 0.28789 0.0
C337 C 0.38104 0.58395 0.29986 0.0
H338 H 0.3945 0.51814 0.28233 0.0
C339 C 0.35962 0.5546 0.30339 0.0
H340 H 0.33929 0.55053 0.31097 0.0
H341 H 0.37722 0.60223 0.30466 0.0
Eu342 Eu 0.50574 0.00535 0.99543 0.0
Eu343 Eu 0.51707 0.03315 0.04893 0.0
C344 C 0.4988 0.06305 0.0106 0.0
C345 C 0.5046 1.00071 0.93225 0.0
C346 C 0.51304 0.03101 0.93119 0.0
C347 C 0.51003 0.99667 0.89293 0.0
C348 C 0.51983 0.04401 0.9111 0.0
C349 C 0.50316 0.98369 0.91298 0.0
C350 C 0.51849 0.02703 0.89167 0.0
C351 C 0.49811 0.98678 0.95336 0.0
O352 O 0.46653 0.00391 0.03986 0.0
O353 O 0.46652 0.9711 0.01286 0.0
C354 C 0.45315 0.97751 0.02842 0.0
O355 O 0.52657 0.98223 0.01391 0.0
O356 O 0.50346 0.05052 0.07693 0.0
O357 O 0.54159 0.04319 0.08169 0.0
O358 O 0.51414 0.98824 0.04881 0.0
C359 C 0.52282 0.97497 0.03433 0.0
O360 O 0.54999 0.0492 0.99829 0.0
O361 O 0.56328 0.05877 0.03592 0.0
O362 O 0.51406 0.06767 0.02988 0.0
O363 O 0.52181 0.99249 0.96655 0.0
O364 O 0.47712 0.988 0.96403 0.0
O365 O 0.48938 0.03872 0.99698 0.0
C366 C 0.51113 0.03505 0.11135 0.0
C367 C 0.4891 0.00436 0.11017 0.0
C368 C 0.51105 0.03802 0.15133 0.0
C369 C 0.47811 0.99058 0.12947 0.0
C370 C 0.52199 0.05174 0.13204 0.0
C371 C 0.48895 0.00723 0.15035 0.0
C372 C 0.5231 0.04986 0.09122 0.0
C373 C 0.56979 0.06425 0.01544 0.0
H374 H 0.51457 0.04465 0.94592 0.0
H375 H 0.50833 0.98275 0.87832 0.0
H376 H 0.52659 0.06752 0.91087 0.0
H377 H 0.49676 0.9603 0.91344 0.0
H378 H 0.4804 0.99108 0.09431 0.0
H379 H 0.5203 0.05148 0.16707 0.0
H380 H 0.46086 0.96695 0.12801 0.0
H381 H 0.53909 0.07543 0.13329 0.0
Eu382 Eu 0.03314 0.514 0.98705 0.0
Eu383 Eu 0.01131 0.50261 0.03753 0.0
C384 C 0.97954 0.44991 0.99792 0.0
C385 C 0.02997 0.50988 0.92412 0.0
C386 C 0.01183 0.47874 0.91835 0.0
C387 C 0.01554 0.51867 0.88776 0.0
C388 C 0.99587 0.46768 0.89742 0.0
C389 C 0.03171 0.52971 0.90864 0.0
C390 C 0.9974 0.48749 0.88186 0.0
C391 C 0.04661 0.52211 0.94626 0.0
O392 O 0.04482 0.48634 0.03494 0.0
O393 O 0.0712 0.51216 1.0065 0.0
C394 C 0.06879 0.49684 0.02361 0.0
O395 O 0.0569 0.55961 1.00662 0.0
O396 O 0.99463 0.4736 0.06436 0.0
O397 O 1.00116 0.51859 0.06796 0.0
O398 O 0.05729 0.54476 0.04133 0.0
C399 C 0.06818 0.56538 0.02738 0.0
O400 O 0.9863 0.50886 0.9857 0.0
O401 O 0.98852 0.52563 0.02162 0.0
O402 O 0.97481 0.46323 0.015 0.0
O403 O 0.03905 0.53884 0.95804 0.0
O404 O 0.05085 0.50387 0.95802 0.0
O405 O 1.00442 0.46379 0.98782 0.0
C406 C 1.01007 0.49932 0.10045 0.0
C407 C 0.02952 0.52837 0.11102 0.0
C408 C 0.01695 0.47825 0.13358 0.0
C409 C 0.04244 0.53228 0.13267 0.0
C410 C 1.00391 0.47434 0.11198 0.0
C411 C 0.03629 0.50727 0.14425 0.0
C412 C 0.99538 0.49465 0.07779 0.0
C413 C 0.97619 0.51945 1.00114 0.0
H414 H 1.00991 0.46287 0.92999 0.0
H415 H 0.01691 0.53461 0.87639 0.0
H416 H 0.98254 0.44355 0.89339 0.0
H417 H 0.04541 0.55382 0.91279 0.0
H418 H 0.03463 0.54815 0.10267 0.0
H419 H 0.01206 0.45846 0.14184 0.0
H420 H 0.05687 0.55496 0.14045 0.0
H421 H 0.98891 0.45171 0.10428 0.0
Eu422 Eu 0.53462 0.52629 0.02749 0.0
Eu423 Eu 0.50601 0.52096 0.97645 0.0
C424 C 0.53767 0.58208 0.00744 0.0
C425 C 0.54163 0.52962 0.09036 0.0
C426 C 0.52353 0.54251 0.09457 0.0
C427 C 0.53839 0.51587 0.12807 0.0
C428 C 0.51369 0.54283 0.11554 0.0
C429 C 0.54848 0.51583 0.10715 0.0
C430 C 0.52145 0.53 0.13272 0.0
C431 C 0.55444 0.53148 0.06892 0.0
O432 O 0.55624 0.53944 0.97525 0.0
O433 O 0.56776 0.52206 1.00608 0.0
C434 C 0.57395 0.53217 0.9865 0.0
O435 O 0.4987 0.47818 0.01771 0.0
O436 O 0.50826 0.54228 0.9461 0.0
O437 O 0.4745 0.49534 0.94736 0.0
O438 O 0.50671 0.47817 0.98133 0.0
C439 C 0.4971 0.46372 0.99889 0.0
O440 O 0.4909 0.52698 0.03105 0.0
O441 O 0.4656 0.50664 0.99642 0.0
O442 O 0.51298 0.56376 0.99443 0.0
O443 O 0.54329 0.50654 0.05602 0.0
O444 O 0.55871 0.55416 0.05806 0.0
O445 O 0.55506 0.57234 0.01563 0.0
C446 C 0.498 0.50951 0.91381 0.0
C447 C 0.48797 0.47947 0.9062 0.0
C448 C 0.52925 0.52581 0.8829 0.0
C449 C 0.49885 0.47273 0.8874 0.0
C450 C 0.51831 0.53255 0.90168 0.0
C451 C 0.52001 0.49583 0.8757 0.0
C452 C 0.48843 0.51703 0.9347 0.0
C453 C 0.46586 0.51474 0.01738 0.0
H454 H 0.51763 0.55306 0.08183 0.0
H455 H 0.54426 0.50517 0.14069 0.0
H456 H 0.50099 0.55419 0.11844 0.0
H457 H 0.56214 0.5055 0.1042 0.0
H458 H 0.47206 0.46109 0.91495 0.0
H459 H 0.54568 0.54419 0.87442 0.0
H460 H 0.49079 0.44936 0.88209 0.0
H461 H 0.52631 0.55591 0.90699 0.0
Eu462 Eu 0.1594 0.32992 0.32123 0.0
Eu463 Eu 0.17713 0.3505 0.37532 0.0
C464 C 0.15392 0.38455 0.34371 0.0
C465 C 0.15622 0.33484 0.25939 0.0
C466 C 0.16627 0.3657 0.26239 0.0
C467 C 0.16309 0.33916 0.22026 0.0
C468 C 0.17419 0.38305 0.24441 0.0
C469 C 0.15491 0.32175 0.23826 0.0
C470 C 0.17257 0.36998 0.2231 0.0
C471 C 0.14807 0.31656 0.27835 0.0
O472 O 0.12664 0.31855 0.3704 0.0
O473 O 0.12343 0.29135 0.33823 0.0
C474 C 0.11222 0.29408 0.35667 0.0
O475 O 0.19234 0.31587 0.3332 0.0
O476 O 0.16793 0.36501 0.40687 0.0
O477 O 0.20564 0.35688 0.40556 0.0
O478 O 0.1787 0.30775 0.3683 0.0
C479 C 0.19138 0.30331 0.35143 0.0
O480 O 0.20165 0.37578 0.32371 0.0
O481 O 0.22072 0.37879 0.35958 0.0
O482 O 0.17206 0.38756 0.3611 0.0
O483 O 0.1707 0.31716 0.28985 0.0
O484 O 0.12927 0.31882 0.29096 0.0
O485 O 0.14104 0.36029 0.32972 0.0
C486 C 0.17965 0.34567 0.43775 0.0
C487 C 0.15659 0.31529 0.43568 0.0
C488 C 0.18514 0.34417 0.47747 0.0
C489 C 0.14774 0.29948 0.45443 0.0
C490 C 0.19389 0.35995 0.45873 0.0
C491 C 0.16192 0.31373 0.47559 0.0
C492 C 0.18901 0.3627 0.41823 0.0
C493 C 0.22401 0.3881 0.33965 0.0
H494 H 0.16799 0.37637 0.27865 0.0
H495 H 0.16136 0.32838 0.20405 0.0
H496 H 0.18177 0.40679 0.24723 0.0
H497 H 0.14747 0.29802 0.23566 0.0
H498 H 0.14545 0.30384 0.41956 0.0
H499 H 0.19625 0.35599 0.49349 0.0
H500 H 0.13003 0.27601 0.45232 0.0
H501 H 0.21169 0.3834 0.46065 0.0
Eu502 Eu 0.69198 0.82732 0.31911 0.0
Eu503 Eu 0.6667 0.82643 0.36848 0.0
C504 C 0.63029 0.77054 0.33166 0.0
C505 C 0.69182 0.81725 0.25671 0.0
C506 C 0.6599 0.79999 0.25382 0.0
C507 C 0.69297 0.8175 0.2169 0.0
C508 C 0.64459 0.79156 0.23257 0.0
C509 C 0.70823 0.82587 0.23815 0.0
C510 C 0.66092 0.80033 0.21381 0.0
C511 C 0.70807 0.82766 0.27899 0.0
O512 O 0.69361 0.8025 0.36986 0.0
O513 O 0.72523 0.82324 0.34254 0.0
C514 C 0.71865 0.80915 0.36054 0.0
O515 O 0.71971 0.87509 0.33513 0.0
O516 O 0.64277 0.80066 0.39525 0.0
O517 O 0.66241 0.84904 0.39836 0.0
O518 O 0.71424 0.86625 0.37155 0.0
C519 C 0.72831 0.88384 0.35626 0.0
O520 O 0.64915 0.82944 0.31365 0.0
O521 O 0.64679 0.84883 0.34786 0.0
O522 O 0.62794 0.78801 0.34697 0.0
O523 O 0.70687 0.84988 0.28919 0.0
O524 O 0.70404 0.80691 0.29198 0.0
O525 O 0.65583 0.77912 0.32251 0.0
C526 C 0.6647 0.82624 0.43091 0.0
C527 C 0.68234 0.85398 0.44375 0.0
C528 C 0.67577 0.80166 0.4601 0.0
C529 C 0.69685 0.85558 0.46439 0.0
C530 C 0.66122 0.80005 0.43951 0.0
C531 C 0.69401 0.82947 0.47271 0.0
C532 C 0.65038 0.82457 0.40857 0.0
C533 C 0.63819 0.84226 0.32654 0.0
H534 H 0.64683 0.79327 0.268 0.0
H535 H 0.70628 0.82505 0.20292 0.0
H536 H 0.61996 0.77803 0.23084 0.0
H537 H 0.73287 0.83945 0.2401 0.0
H538 H 0.6853 0.87456 0.43772 0.0
H539 H 0.67264 0.78105 0.46618 0.0
H540 H 0.71089 0.87739 0.47361 0.0
H541 H 0.64746 0.77823 0.43025 0.0
Eu542 Eu 0.19519 0.84678 0.36085 0.0
Eu543 Eu 0.16912 0.84536 0.30909 0.0
C544 C 0.19247 0.90313 0.34369 0.0
C545 C 0.20042 0.85423 0.42354 0.0
C546 C 0.18673 0.87205 0.42412 0.0
C547 C 0.19196 0.84633 0.46214 0.0
C548 C 0.17586 0.87708 0.44359 0.0
C549 C 0.20296 0.84145 0.44268 0.0
C550 C 0.17818 0.86417 0.46289 0.0
C551 C 0.21011 0.84711 0.40275 0.0
O552 O 0.22031 0.87047 0.31066 0.0
O553 O 0.23344 0.85245 0.34053 0.0
C554 C 0.23975 0.86538 0.32194 0.0
O555 O 0.17447 0.7991 0.34573 0.0
O556 O 0.17084 0.86928 0.28026 0.0
O557 O 0.14051 0.82107 0.27853 0.0
O558 O 0.17914 0.80748 0.30927 0.0
C559 C 0.17587 0.79054 0.32537 0.0
O560 O 0.14993 0.84424 0.36244 0.0
O561 O 0.12705 0.82287 0.32758 0.0
O562 O 0.17115 0.8853 0.32801 0.0
O563 O 0.1892 0.82333 0.39056 0.0
O564 O 0.22572 0.8694 0.39101 0.0
O565 O 0.20901 0.89429 0.35469 0.0
C566 C 0.16505 0.84114 0.2462 0.0
C567 C 0.15457 0.81246 0.23528 0.0
C568 C 0.19851 0.86322 0.21706 0.0
C569 C 0.16606 0.8092 0.21561 0.0
C570 C 0.18698 0.8665 0.23673 0.0
C571 C 0.18824 0.83452 0.20626 0.0
C572 C 0.15338 0.84463 0.26739 0.0
C573 C 0.12547 0.82996 0.34837 0.0
H574 H 0.18421 0.88186 0.40944 0.0
H575 H 0.19373 0.83558 0.47647 0.0
H576 H 0.1658 0.89126 0.44353 0.0
H577 H 0.21303 0.82726 0.44248 0.0
H578 H 0.13761 0.79243 0.242 0.0
H579 H 0.21522 0.88323 0.21018 0.0
H580 H 0.15787 0.78671 0.20791 0.0
H581 H 0.19534 0.88896 0.24455 0.0
Eu582 Eu 0.82658 0.65506 0.64987 0.0
Eu583 Eu 0.84563 0.6761 0.70374 0.0
C584 C 0.82292 0.71041 0.67242 0.0
C585 C 0.82232 0.65722 0.58746 0.0
C586 C 0.83469 0.68851 0.58913 0.0
C587 C 0.82936 0.65785 0.54829 0.0
C588 C 0.84422 0.70436 0.57048 0.0
C589 C 0.81971 0.64202 0.56695 0.0
C590 C 0.84181 0.68926 0.54979 0.0
C591 C 0.81332 0.64048 0.60716 0.0
O592 O 0.79488 0.64478 0.69882 0.0
O593 O 0.79143 0.61664 0.66722 0.0
C594 C 0.78037 0.61984 0.68555 0.0
O595 O 0.8593 0.64034 0.66147 0.0
O596 O 0.83674 0.69186 0.7349 0.0
O597 O 0.87354 0.68222 0.73433 0.0
O598 O 0.84703 0.63332 0.69698 0.0
C599 C 0.85884 0.62815 0.67986 0.0
O600 O 0.8697 0.70017 0.65159 0.0
O601 O 0.88911 0.7042 0.6876 0.0
O602 O 0.84254 0.71365 0.68878 0.0
O603 O 0.83488 0.63903 0.6185 0.0
O604 O 0.79658 0.64604 0.61988 0.0
O605 O 0.8082 0.68547 0.6592 0.0
C606 C 0.8481 0.67388 0.76691 0.0
C607 C 0.82164 0.64557 0.7666 0.0
C608 C 0.85744 0.67389 0.80649 0.0
C609 C 0.81307 0.63156 0.78617 0.0
C610 C 0.86588 0.68788 0.78697 0.0
C611 C 0.83093 0.64553 0.80639 0.0
C612 C 0.85743 0.68931 0.74662 0.0
C613 C 0.89222 0.71289 0.66744 0.0
H614 H 0.8371 0.70072 0.60487 0.0
H615 H 0.82757 0.6455 0.53278 0.0
H616 H 0.85326 0.72843 0.57226 0.0
H617 H 0.81052 0.6179 0.5654 0.0
H618 H 0.80765 0.6343 0.75124 0.0
H619 H 0.87151 0.68552 0.82175 0.0
H620 H 0.79271 0.60961 0.78541 0.0
H621 H 0.88632 0.70976 0.78757 0.0
Eu622 Eu 0.35703 0.17475 0.65119 0.0
Eu623 Eu 0.33412 0.15832 0.70063 0.0
C624 C 0.30218 0.10872 0.65835 0.0
C625 C 0.35652 0.17671 0.5889 0.0
C626 C 0.33976 0.14586 0.58176 0.0
C627 C 0.34141 0.18759 0.55362 0.0
C628 C 0.32415 0.13599 0.56069 0.0
C629 C 0.35725 0.19746 0.57465 0.0
C630 C 0.32465 0.15671 0.54637 0.0
C631 C 0.37244 0.18754 0.61132 0.0
O632 O 0.36721 0.14199 0.697 0.0
O633 O 0.3944 0.17031 0.6698 0.0
C634 C 0.39151 0.15351 0.68608 0.0
O635 O 0.3784 0.21854 0.67277 0.0
O636 O 0.31738 0.12774 0.72646 0.0
O637 O 0.32374 0.17249 0.73172 0.0
O638 O 0.38066 0.20041 0.70572 0.0
C639 C 0.39069 0.22263 0.69306 0.0
O640 O 0.30987 0.16922 0.64995 0.0
O641 O 0.31153 0.18251 0.68654 0.0
O642 O 0.29814 0.11919 0.6773 0.0
O643 O 0.36361 0.2025 0.62388 0.0
O644 O 0.37712 0.16876 0.62204 0.0
O645 O 0.32642 0.12457 0.64798 0.0
C646 C 0.33428 0.15243 0.76233 0.0
C647 C 0.36619 0.16693 0.76472 0.0
C648 C 0.33359 0.14761 0.80169 0.0
C649 C 0.38176 0.17192 0.78553 0.0
C650 C 0.31807 0.1427 0.78087 0.0
C651 C 0.36564 0.16243 0.8043 0.0
C652 C 0.31791 0.14795 0.74063 0.0
C653 C 0.29933 0.17805 0.66618 0.0
H654 H 0.33863 0.12928 0.59243 0.0
H655 H 0.34196 0.20416 0.54319 0.0
H656 H 0.31193 0.11209 0.55556 0.0
H657 H 0.36984 0.22135 0.57989 0.0
H658 H 0.37905 0.17463 0.75051 0.0
H659 H 0.32048 0.13959 0.81573 0.0
H660 H 0.40642 0.18367 0.78696 0.0
H661 H 0.29341 0.13139 0.77924 0.0
Eu662 Eu 0.85297 0.16987 0.70089 0.0
Eu663 Eu 0.83085 0.16871 0.64813 0.0
C664 C 0.85617 0.22716 0.68225 0.0
C665 C 0.85692 0.17871 0.76374 0.0
C666 C 0.84183 0.19525 0.76403 0.0
C667 C 0.85232 0.17434 0.80306 0.0
C668 C 0.83236 0.20157 0.78377 0.0
C669 C 0.86194 0.16819 0.78335 0.0
C670 C 0.83756 0.19125 0.80355 0.0
C671 C 0.86723 0.17207 0.74313 0.0
O672 O 0.87632 0.17154 0.64761 0.0
O673 O 0.89651 0.18941 0.68364 0.0
C674 C 0.89957 0.1838 0.66282 0.0
O675 O 0.85156 0.12968 0.68357 0.0
O676 O 0.83321 0.19336 0.61956 0.0
O677 O 0.80571 0.14496 0.61624 0.0
O678 O 0.8172 0.12081 0.65402 0.0
C679 C 0.83236 0.11204 0.66683 0.0
O680 O 0.80166 0.1461 0.6976 0.0
O681 O 0.79257 0.16602 0.66731 0.0
O682 O 0.85892 0.21714 0.66274 0.0
O683 O 0.84758 0.14738 0.73109 0.0
O684 O 0.88165 0.19454 0.73124 0.0
O685 O 0.84613 0.20925 0.69796 0.0
C686 C 0.83184 0.16824 0.58508 0.0
C687 C 0.82324 0.1407 0.57294 0.0
C688 C 0.86631 0.1943 0.55728 0.0
C689 C 0.83611 0.13999 0.55328 0.0
C690 C 0.85346 0.19502 0.57691 0.0
C691 C 0.8578 0.16679 0.54514 0.0
C692 C 0.81803 0.1692 0.60587 0.0
C693 C 0.78416 0.15315 0.68578 0.0
H694 H 0.83744 0.20332 0.74899 0.0
H695 H 0.85698 0.16634 0.81803 0.0
H696 H 0.82075 0.21434 0.78351 0.0
H697 H 0.87346 0.15533 0.78344 0.0
H698 H 0.80643 0.11963 0.57856 0.0
H699 H 0.88318 0.2154 0.55174 0.0
H700 H 0.82862 0.11839 0.54425 0.0
H701 H 0.86053 0.21667 0.58569 0.0
H702 H 0.32956 0.89451 0.06875 0.0
H703 H 0.36482 0.83379 0.06481 0.0
H704 H 0.40774 0.86991 0.04661 0.0
H705 H 0.4369 0.91968 0.03303 0.0
H706 H 0.40538 0.98285 0.04073 0.0
H707 H 0.35971 0.94511 0.05626 0.0
C708 C 0.34671 0.88921 0.06411 0.0
C709 C 0.34336 0.86103 0.06793 0.0
C710 C 0.37213 0.91059 0.05418 0.0
C711 C 0.366 0.85476 0.06158 0.0
C712 C 0.39085 0.87557 0.05128 0.0
C713 C 0.4197 0.92492 0.03774 0.0
C714 C 0.42411 0.95372 0.03538 0.0
C715 C 0.39418 0.90354 0.04749 0.0
C716 C 0.40222 0.96064 0.04218 0.0
C717 C 0.37621 0.93913 0.05116 0.0
H718 H 0.18511 0.48399 0.04344 0.0
H719 H 0.15235 0.47251 0.1082 0.0
H720 H 0.10917 0.47675 0.0944 0.0
H721 H 0.0809 0.48469 0.06442 0.0
H722 H 0.11481 0.50014 1.00024 0.0
H723 H 0.15748 0.49394 0.01346 0.0
C724 C 0.1687 0.48264 0.0546 0.0
C725 C 0.17198 0.47734 0.07681 0.0
C726 C 0.14406 0.48593 0.04669 0.0
C727 C 0.15019 0.47558 0.09089 0.0
C728 C 0.12551 0.47833 0.08307 0.0
C729 C 0.09747 0.48649 0.05323 0.0
C730 C 0.09446 0.4926 0.0313 0.0
C731 C 0.12218 0.48345 0.06104 0.0
C732 C 0.11652 0.4954 0.01719 0.0
C733 C 0.14093 0.49184 0.02475 0.0
H734 H 0.57789 0.70751 0.05916 0.0
H735 H 0.48163 0.67467 0.04629 0.0
H736 H 0.47496 0.63028 0.02465 0.0
H737 H 0.49581 0.59952 0.01072 0.0
H738 H 0.59132 0.63042 0.02534 0.0
H739 H 0.59895 0.67679 0.04481 0.0
C740 C 0.55545 0.69056 0.05171 0.0
C741 C 0.53038 0.69458 0.05426 0.0
C742 C 0.55163 0.66477 0.03947 0.0
C743 C 0.50146 0.67247 0.04431 0.0
C744 C 0.49756 0.64696 0.03199 0.0
C745 C 0.51841 0.61666 0.0178 0.0
C746 C 0.54301 0.61169 0.01645 0.0
C747 C 0.52244 0.64282 0.02951 0.0
C748 C 0.57203 0.63382 0.02611 0.0
C749 C 0.57638 0.66025 0.03733 0.0
H750 H 0.89227 0.31993 0.94986 0.0
H751 H 0.8246 0.33998 0.97204 0.0
H752 H 0.86449 0.38732 0.99102 0.0
H753 H 0.91866 0.42449 1.00004 0.0
H754 H 0.98653 0.40735 0.9747 0.0
H755 H 0.94657 0.35785 0.95793 0.0
C756 C 0.88614 0.33469 0.95865 0.0
C757 C 0.8552 0.32588 0.9596 0.0
C758 C 0.90932 0.36264 0.96893 0.0
C759 C 0.848 0.34544 0.97141 0.0
C760 C 0.87088 0.37283 0.98214 0.0
C761 C 0.92469 0.40977 0.99105 0.0
C762 C 0.95547 0.41943 0.98876 0.0
C763 C 0.9016 0.38174 0.98092 0.0
C764 C 0.96296 0.40038 0.9767 0.0
C765 C 0.94012 0.37209 0.96711 0.0
H766 H 0.67495 0.54245 0.92582 0.0
H767 H 0.72099 0.547 0.98876 0.0
H768 H 0.67777 0.5422 0.00749 0.0
H769 H 0.62624 0.53632 1.00605 0.0
H770 H 0.58205 0.53418 0.94287 0.0
H771 H 0.62514 0.53879 0.92447 0.0
C772 C 0.67587 0.54292 0.94368 0.0
C773 C 0.70135 0.54499 0.95574 0.0
C774 C 0.65106 0.54049 0.95442 0.0
C775 C 0.7016 0.54497 0.97889 0.0
C776 C 0.67688 0.54235 0.98969 0.0
C777 C 0.62608 0.53684 0.98827 0.0
C778 C 0.60084 0.53494 0.97596 0.0
C779 C 0.65133 0.53989 0.97763 0.0
C780 C 0.60116 0.53583 0.9529 0.0
C781 C 0.62583 0.53841 0.94227 0.0
H782 H 0.46112 0.16056 0.99805 0.0
H783 H 0.47873 0.14776 0.93085 0.0
H784 H 0.49081 0.10967 0.94125 0.0
H785 H 0.49673 0.08009 0.96954 0.0
H786 H 0.48462 0.09728 0.03726 0.0
H787 H 0.47093 0.13433 0.0266 0.0
C788 C 0.46825 0.15007 0.98566 0.0
C789 C 0.46882 0.15718 0.96362 0.0
C790 C 0.47626 0.12898 0.99188 0.0
C791 C 0.47739 0.14247 0.94785 0.0
C792 C 0.48459 0.12081 0.9538 0.0
C793 C 0.49105 0.09199 0.98191 0.0
C794 C 0.4914 0.08591 1.0041 0.0
C795 C 0.48399 0.11381 0.97576 0.0
C796 C 0.48452 0.1017 0.02008 0.0
C797 C 0.47663 0.12279 0.01399 0.0
H798 H 0.68451 0.19119 0.00789 0.0
H799 H 0.67442 0.15226 0.94138 0.0
H800 H 0.63413 0.10349 0.95113 0.0
H801 H 0.59781 0.07405 0.97745 0.0
H802 H 0.60836 0.11325 0.04412 0.0
H803 H 0.65271 0.15971 0.03556 0.0
C804 C 0.67389 0.17178 0.99572 0.0
C805 C 0.68216 0.17516 0.97395 0.0
C806 C 0.65067 0.14404 1.00142 0.0
C807 C 0.66846 0.15001 0.95826 0.0
C808 C 0.64528 0.12227 0.9638 0.0
C809 C 0.61007 0.09261 0.99021 0.0
C810 C 0.59949 0.0903 0.01133 0.0
C811 C 0.63555 0.11931 0.98515 0.0
C812 C 0.61592 0.1144 0.02774 0.0
C813 C 0.64122 0.14106 0.02282 0.0
H814 H 0.85063 0.51661 0.99624 0.0
H815 H 0.85564 0.50342 0.92656 0.0
H816 H 0.90671 0.51017 0.93385 0.0
H817 H 0.94771 0.51507 0.96049 0.0
H818 H 0.94218 0.52859 0.03031 0.0
H819 H 0.89383 0.52676 0.02256 0.0
C820 C 0.86334 0.51599 0.98269 0.0
C821 C 0.84976 0.50984 0.96092 0.0
C822 C 0.89241 0.51957 0.98707 0.0
C823 C 0.866 0.50858 0.94341 0.0
C824 C 0.89502 0.51216 0.94762 0.0
C825 C 0.9361 0.51795 0.974 0.0
C826 C 0.94854 0.52166 0.99597 0.0
C827 C 0.90814 0.51692 0.96943 0.0
C828 C 0.93323 0.52561 0.01324 0.0
C829 C 0.90546 0.5245 0.00885 0.0
H830 H 0.44127 0.32747 0.01426 0.0
H831 H 0.50402 0.33333 0.96725 0.0
H832 H 0.51669 0.38485 0.9619 0.0
H833 H 0.51336 0.42993 0.97328 0.0
H834 H 0.45402 0.42447 0.02298 0.0
H835 H 0.43693 0.37129 0.02481 0.0
C836 C 0.45789 0.34001 1.00293 0.0
C837 C 0.47195 0.32659 0.99143 0.0
C838 C 0.46584 0.36986 1.00054 0.0
C839 C 0.4927 0.34297 0.97628 0.0
C840 C 0.50015 0.37255 0.97334 0.0
C841 C 0.49639 0.4169 0.98425 0.0
C842 C 0.485 0.43102 0.99803 0.0
C843 C 0.48733 0.38645 0.98573 0.0
C844 C 0.46326 0.41408 0.01235 0.0
C845 C 0.45347 0.3837 0.0134 0.0
H846 H 0.18958 0.6918 0.04003 0.0
H847 H 0.20516 0.65237 0.09621 0.0
H848 H 0.15394 0.60845 0.08867 0.0
H849 H 0.10677 0.57949 0.06432 0.0
H850 H 0.09219 0.61705 1.00646 0.0
H851 H 0.14079 0.66353 0.01648 0.0
C852 C 0.18142 0.67377 0.05078 0.0
C853 C 0.20089 0.67517 0.06864 0.0
C854 C 0.15228 0.64819 0.04593 0.0
C855 C 0.19043 0.65161 0.08235 0.0
C856 C 0.16124 0.62653 0.07802 0.0
C857 C 0.11395 0.59798 0.05404 0.0
C858 C 0.09586 0.59473 0.03463 0.0
C859 C 0.14224 0.62429 0.05958 0.0
C860 C 0.10572 0.61888 0.02144 0.0
C861 C 0.13353 0.64547 0.02715 0.0
H862 H 0.33878 0.50217 0.03571 0.0
H863 H 0.38598 0.5389 0.10052 0.0
H864 H 0.43009 0.53653 0.08887 0.0
H865 H 0.45688 0.52831 0.05934 0.0
H866 H 0.41035 0.49331 0.99392 0.0
H867 H 0.36454 0.49068 1.00665 0.0
C868 C 0.35846 0.50885 0.04736 0.0
C869 C 0.35909 0.52025 0.069 0.0
C870 C 0.38409 0.50825 0.04032 0.0
C871 C 0.38494 0.52963 0.08387 0.0
C872 C 0.41022 0.52853 0.07715 0.0
C873 C 0.43669 0.51988 0.04786 0.0
C874 C 0.43733 0.51128 0.02561 0.0
C875 C 0.41036 0.5186 0.05525 0.0
C876 C 0.41074 0.50027 0.01109 0.0
C877 C 0.38443 0.49872 0.01837 0.0
H878 H 0.5132 0.86255 0.07718 0.0
H879 H 0.49932 0.82939 0.00865 0.0
H880 H 0.5111 0.87873 0.9975 0.0
H881 H 0.51956 0.92936 0.00731 0.0
H882 H 0.52985 0.96131 0.076 0.0
H883 H 0.52558 0.91471 0.08706 0.0
C884 C 0.51352 0.86652 0.05986 0.0
C885 C 0.50572 0.84277 0.0437 0.0
C886 C 0.51932 0.89461 0.05362 0.0
C887 C 0.50554 0.84765 0.02128 0.0
C888 C 0.51209 0.87574 0.01494 0.0
C889 C 0.52149 0.92638 0.02469 0.0
C890 C 0.52485 0.94872 0.04078 0.0
C891 C 0.51819 0.89915 0.03096 0.0
C892 C 0.52703 0.94437 0.06325 0.0
C893 C 0.52456 0.9177 0.06962 0.0
H894 H 0.98519 0.17964 0.36925 0.0
H895 H 0.01364 0.21651 0.43745 0.0
H896 H 0.05907 0.2594 0.42628 0.0
H897 H 0.09232 0.28522 0.39759 0.0
H898 H 0.06673 0.24617 0.3299 0.0
H899 H 0.01909 0.20487 0.34062 0.0
C900 C 1.00137 0.1968 0.3818 0.0
C901 C 0.9956 0.19443 0.40428 0.0
C902 C 0.02826 0.22095 0.37537 0.0
C903 C 0.01678 0.21764 0.42003 0.0
C904 C 0.04311 0.24213 0.41367 0.0
C905 C 0.07629 0.26778 0.3851 0.0
C906 C 0.08312 0.26892 0.3629 0.0
C907 C 0.04926 0.24383 0.39145 0.0
C908 C 0.06216 0.24587 0.34707 0.0
C909 C 0.03486 0.22229 0.3532 0.0
H910 H 0.80456 0.78219 0.42171 0.0
H911 H 0.85038 0.79492 0.36224 0.0
H912 H 0.8124 0.80338 0.343 0.0
H913 H 0.76675 0.8084 0.34326 0.0
H914 H 0.71994 0.79329 0.40239 0.0
H915 H 0.75732 0.78384 0.42127 0.0
C916 C 0.80601 0.7862 0.40441 0.0
C917 C 0.83054 0.78801 0.39356 0.0
C918 C 0.78384 0.79064 0.39332 0.0
C919 C 0.83214 0.79388 0.37121 0.0
C920 C 0.8103 0.79857 0.36012 0.0
C921 C 0.76464 0.80291 0.36025 0.0
C922 C 0.74055 0.80167 0.37135 0.0
C923 C 0.7862 0.79729 0.37106 0.0
C924 C 0.73811 0.79431 0.39334 0.0
C925 C 0.75958 0.78898 0.40423 0.0
H926 H 0.19655 0.02695 0.36263 0.0
H927 H 0.27651 0.04566 0.40443 0.0
H928 H 0.26754 0.99554 0.39365 0.0
H929 H 0.2378 0.94687 0.37211 0.0
H930 H 0.15889 0.92805 0.32903 0.0
H931 H 0.16715 0.97808 0.3402 0.0
C932 C 0.21215 0.02016 0.36925 0.0
C933 C 0.23703 0.04006 0.3845 0.0
C934 C 0.20723 0.9914 0.36264 0.0
C935 C 0.25679 0.03067 0.39308 0.0
C936 C 0.25187 1.00208 0.38676 0.0
C937 C 0.22235 0.95362 0.3651 0.0
C938 C 0.19775 0.93368 0.34974 0.0
C939 C 0.22723 0.98231 0.37154 0.0
C940 C 0.17808 0.94297 0.34082 0.0
C941 C 0.18274 0.97155 0.34725 0.0
H942 H 0.50137 0.65933 0.2983 0.0
H943 H 0.55689 0.62235 0.27807 0.0
H944 H 0.6028 0.66892 0.29279 0.0
H945 H 0.62742 0.72063 0.31112 0.0
H946 H 0.57124 0.75558 0.3336 0.0
H947 H 0.52545 0.70904 0.31879 0.0
C948 C 0.52338 0.66103 0.29747 0.0
C949 C 0.5254 0.63716 0.28692 0.0
C950 C 0.54972 0.68761 0.30643 0.0
C951 C 0.55444 0.64041 0.28568 0.0
C952 C 0.5808 0.66702 0.29424 0.0
C953 C 0.60513 0.71797 0.31282 0.0
C954 C 0.60278 0.74156 0.32343 0.0
C955 C 0.57874 0.69087 0.30452 0.0
C956 C 0.57373 0.73772 0.32566 0.0
C957 C 0.54749 0.71113 0.31711 0.0
H958 H 0.34825 0.89081 0.26441 0.0
H959 H 0.39206 0.89438 0.32808 0.0
H960 H 0.34673 0.88565 0.34562 0.0
H961 H 0.2934 0.87459 0.34271 0.0
H962 H 0.25106 0.87359 0.27906 0.0
H963 H 0.29699 0.88408 0.26194 0.0
C964 C 0.34823 0.89036 0.28218 0.0
C965 C 0.37357 0.89294 0.29478 0.0
C966 C 0.32212 0.88555 0.29225 0.0
C967 C 0.37274 0.89188 0.31782 0.0
C968 C 0.34681 0.88696 0.32793 0.0
C969 C 0.29431 0.8768 0.32513 0.0
C970 C 0.26869 0.87317 0.31226 0.0
C971 C 0.32111 0.88322 0.31527 0.0
C972 C 0.2704 0.87637 0.28948 0.0
C973 C 0.2967 0.88232 0.27958 0.0
H974 H 0.15114 0.50394 0.33084 0.0
H975 H 0.13972 0.46956 0.26247 0.0
H976 H 0.13766 0.42433 0.27392 0.0
H977 H 0.14178 0.39559 0.30286 0.0
H978 H 0.15978 0.43175 0.37107 0.0
H979 H 0.15719 0.47558 0.36009 0.0
C980 C 0.14849 0.48677 0.31837 0.0
C981 C 0.14527 0.49037 0.29574 0.0
C982 C 0.14865 0.46115 0.32504 0.0
C983 C 0.14137 0.46737 0.27999 0.0
C984 C 0.14054 0.44151 0.2865 0.0
C985 C 0.14483 0.41287 0.31541 0.0
C986 C 0.15066 0.41029 0.33778 0.0
C987 C 0.14437 0.43828 0.30893 0.0
C988 C 0.15514 0.43319 0.35375 0.0
C989 C 0.1537 0.45822 0.34746 0.0
H990 H 0.34674 0.51089 0.33674 0.0
H991 H 0.32852 0.48229 0.2671 0.0
H992 H 0.28357 0.43477 0.27409 0.0
H993 H 0.24723 0.40341 0.29995 0.0
H994 H 0.26692 0.43196 0.36978 0.0
H995 H 0.31353 0.4774 0.36284 0.0
C996 C 0.33319 0.49393 0.32318 0.0
C997 C 0.34077 0.4999 0.30146 0.0
C998 C 0.30748 0.46688 0.32736 0.0
C999 C 0.32318 0.47794 0.28396 0.0
C1000 C 0.29737 0.45096 0.28796 0.0
C1001 C 0.26184 0.4195 0.31365 0.0
C1002 C 0.25341 0.41442 0.33535 0.0
C1003 C 0.2889 0.4455 0.30956 0.0
C1004 C 0.27281 0.43528 0.35294 0.0
C1005 C 0.29946 0.46133 0.34898 0.0
H1006 H 0.52003 0.82818 0.27581 0.0
H1007 H 0.51948 0.87573 0.33595 0.0
H1008 H 0.56872 0.88197 0.34987 0.0
H1009 H 0.60925 0.86915 0.34614 0.0
H1010 H 0.60913 0.82212 0.28512 0.0
H1011 H 0.5632 0.82074 0.27033 0.0
C1012 C 0.53112 0.84047 0.29176 0.0
C1013 C 0.51642 0.85152 0.30489 0.0
C1014 C 0.55915 0.84377 0.29959 0.0
C1015 C 0.5307 0.8673 0.32555 0.0
C1016 C 0.55866 0.87063 0.33354 0.0
C1017 C 0.5994 0.85896 0.32952 0.0
C1018 C 0.61257 0.84543 0.31697 0.0
C1019 C 0.57274 0.85824 0.32092 0.0
C1020 C 0.59956 0.83258 0.29533 0.0
C1021 C 0.57314 0.83168 0.28678 0.0
H1022 H 0.18637 0.67827 0.29135 0.0
H1023 H 0.20605 0.67932 0.36123 0.0
H1024 H 0.19627 0.72063 0.36872 0.0
H1025 H 0.18524 0.7583 0.35533 0.0
H1026 H 0.16843 0.75966 0.2853 0.0
H1027 H 0.17373 0.71546 0.27792 0.0
C1028 C 0.18811 0.68738 0.3082 0.0
C1029 C 0.19694 0.67592 0.32573 0.0
C1030 C 0.18312 0.71161 0.31233 0.0
C1031 C 0.19948 0.68801 0.3475 0.0
C1032 C 0.19387 0.71157 0.35177 0.0
C1033 C 0.18235 0.74876 0.33845 0.0
C1034 C 0.17643 0.76229 0.3209 0.0
C1035 C 0.18613 0.72384 0.33431 0.0
C1036 C 0.17307 0.74974 0.29912 0.0
C1037 C 0.17612 0.72448 0.29488 0.0
H1038 H 0.84432 1.00191 0.40191 0.0
H1039 H 0.86798 0.00956 0.3348 0.0
H1040 H 0.81855 0.96537 0.32207 0.0
H1041 H 0.77046 0.92211 0.33042 0.0
H1042 H 0.7478 0.9128 0.3979 0.0
H1043 H 0.79468 0.95988 0.41002 0.0
C1044 C 0.83828 0.99415 0.38448 0.0
C1045 C 0.85959 0.00889 0.36928 0.0
C1046 C 0.81013 0.96818 0.37736 0.0
C1047 C 0.85183 0.99847 0.34676 0.0
C1048 C 0.82365 0.97317 0.3395 0.0
C1049 C 0.77557 0.93051 0.34774 0.0
C1050 C 0.75563 0.91374 0.36319 0.0
C1051 C 0.80289 0.95742 0.35471 0.0
C1052 C 0.76278 0.92504 0.38561 0.0
C1053 C 0.78962 0.95204 0.3926 0.0
H1054 H 0.99737 0.81563 0.36501 0.0
H1055 H 0.04245 0.84871 0.43077 0.0
H1056 H 0.08647 0.84598 0.41951 0.0
H1057 H 0.11401 0.83921 0.39025 0.0
H1058 H 0.07051 0.80849 0.32372 0.0
H1059 H 0.02395 0.80498 0.33596 0.0
C1060 C 0.01657 0.82146 0.37691 0.0
C1061 C 0.01673 0.8321 0.39871 0.0
C1062 C 0.0422 0.82067 0.3701 0.0
C1063 C 0.04188 0.84022 0.41397 0.0
C1064 C 0.06707 0.83885 0.40749 0.0
C1065 C 0.09431 0.83146 0.37838 0.0
C1066 C 0.09599 0.82444 0.356 0.0
C1067 C 0.06782 0.82993 0.38546 0.0
C1068 C 0.07 0.81418 0.34101 0.0
C1069 C 0.04335 0.81223 0.348 0.0
H1070 H 0.25856 0.2305 0.3375 0.0
H1071 H 0.18933 0.16992 0.3767 0.0
H1072 H 0.17166 0.20585 0.38223 0.0
H1073 H 0.17334 0.253 0.37327 0.0
H1074 H 0.24038 0.31081 0.3315 0.0
H1075 H 0.26121 0.27739 0.32947 0.0
C1076 C 0.23946 0.22499 0.34714 0.0
C1077 C 0.2251 0.19737 0.35642 0.0
C1078 C 0.22891 0.24528 0.34972 0.0
C1079 C 0.20094 0.19107 0.36943 0.0
C1080 C 0.19067 0.21153 0.37248 0.0
C1081 C 0.19275 0.25836 0.36401 0.0
C1082 C 0.20525 0.2842 0.35248 0.0
C1083 C 0.20415 0.23852 0.36238 0.0
C1084 C 0.23023 0.29088 0.34036 0.0
C1085 C 0.24217 0.27181 0.33918 0.0
H1086 H 0.6556 0.50361 0.70062 0.0
H1087 H 0.67838 0.55017 0.76611 0.0
H1088 H 0.72386 0.59191 0.75407 0.0
H1089 H 0.75796 0.61498 0.72549 0.0
H1090 H 0.73784 0.56794 0.66049 0.0
H1091 H 0.69086 0.52653 0.67194 0.0
C1092 C 0.67057 0.52277 0.71233 0.0
C1093 C 0.66308 0.52365 0.73424 0.0
C1094 C 0.69731 0.54666 0.70542 0.0
C1095 C 0.68285 0.54897 0.74902 0.0
C1096 C 0.70915 0.57284 0.74221 0.0
C1097 C 0.74331 0.59577 0.71372 0.0
C1098 C 0.75147 0.59473 0.69209 0.0
C1099 C 0.71663 0.57193 0.72049 0.0
C1100 C 0.73219 0.56942 0.67723 0.0
C1101 C 0.70529 0.54571 0.68377 0.0
H1102 H 0.50348 0.13359 0.70675 0.0
H1103 H 0.47435 0.13151 0.77235 0.0
H1104 H 0.4331 0.13832 0.75815 0.0
H1105 H 0.40508 0.1453 0.72758 0.0
H1106 H 0.43571 0.15253 0.66244 0.0
H1107 H 0.47687 0.14405 0.6761 0.0
C1108 C 0.48831 0.13483 0.71802 0.0
C1109 C 0.49191 0.13108 0.74062 0.0
C1110 C 0.46486 0.13987 0.70985 0.0
C1111 C 0.47178 0.13295 0.75478 0.0
C1112 C 0.44823 0.13728 0.74672 0.0
C1113 C 0.42063 0.14486 0.71628 0.0
C1114 C 0.41704 0.1491 0.69393 0.0
C1115 C 0.44445 0.1406 0.72433 0.0
C1116 C 0.43789 0.1492 0.67969 0.0
C1117 C 0.46139 0.1443 0.68751 0.0
H1118 H 0.90784 0.36738 0.69051 0.0
H1119 H 0.87241 0.34802 0.7541 0.0
H1120 H 0.85466 0.29472 0.74524 0.0
H1121 H 0.8496 0.25378 0.71967 0.0
H1122 H 0.88385 0.2728 0.65567 0.0
H1123 H 0.90107 0.32605 0.66434 0.0
C1124 C 0.89585 0.35148 0.70233 0.0
C1125 C 0.89155 0.36179 0.72298 0.0
C1126 C 0.88542 0.3208 0.69704 0.0
C1127 C 0.87644 0.34084 0.73822 0.0
C1128 C 0.86611 0.31031 0.73311 0.0
C1129 C 0.86076 0.26951 0.70755 0.0
C1130 C 0.8655 0.25926 0.68705 0.0
C1131 C 0.8706 0.30008 0.71262 0.0
C1132 C 0.87988 0.28002 0.67156 0.0
C1133 C 0.8898 0.31051 0.67652 0.0
H1134 H 0.20917 0.99238 0.59636 0.0
H1135 H 0.16991 0.96408 0.65781 0.0
H1136 H 0.20919 0.01202 0.67713 0.0
H1137 H 0.25505 0.06235 0.67658 0.0
H1138 H 0.29518 0.08845 0.61509 0.0
H1139 H 0.2557 0.04084 0.59606 0.0
C1140 C 0.2094 0.99629 0.61406 0.0
C1141 C 0.18643 0.97438 0.62551 0.0
C1142 C 0.23238 0.02366 0.62516 0.0
C1143 C 0.18694 0.98054 0.6484 0.0
C1144 C 0.20956 0.00795 0.65953 0.0
C1145 C 0.25515 0.05756 0.65903 0.0
C1146 C 0.27817 0.07906 0.64737 0.0
C1147 C 0.23238 0.02976 0.64807 0.0
C1148 C 0.27798 0.07236 0.62462 0.0
C1149 C 0.25529 0.0451 0.61363 0.0
H1150 H 0.0332 0.21069 0.64805 0.0
H1151 H 0.99517 0.1919 0.58008 0.0
H1152 H 0.94715 0.18462 0.59177 0.0
H1153 H 0.9153 0.18214 0.62104 0.0
H1154 H 0.95222 0.20054 0.68926 0.0
H1155 H 1.00112 0.2093 0.67771 0.0
C1156 C 0.01438 0.20496 0.63582 0.0
C1157 C 0.01801 0.20204 0.61317 0.0
C1158 C 0.98653 0.20064 0.64268 0.0
C1159 C 0.99336 0.19483 0.59757 0.0
C1160 C 0.96573 0.19043 0.60425 0.0
C1161 C 0.93398 0.1881 0.63348 0.0
C1162 C 0.92987 0.1905 0.65605 0.0
C1163 C 0.962 0.19312 0.62673 0.0
C1164 C 0.9546 0.19851 0.67179 0.0
C1165 C 0.98261 0.20347 0.66518 0.0
H1166 H 0.84059 0.83334 0.64531 0.0
H1167 H 0.74646 0.77627 0.61922 0.0
H1168 H 0.74708 0.73272 0.63229 0.0
H1169 H 0.77462 0.71064 0.65097 0.0
H1170 H 0.86667 0.76923 0.68036 0.0
H1171 H 0.86594 0.81264 0.66704 0.0
C1172 C 0.81977 0.81168 0.64291 0.0
C1173 C 0.7935 0.80851 0.63116 0.0
C1174 C 0.81979 0.78691 0.65131 0.0
C1175 C 0.7673 0.77966 0.62773 0.0
C1176 C 0.76749 0.75466 0.63544 0.0
C1177 C 0.79435 0.73299 0.65466 0.0
C1178 C 0.82064 0.73673 0.66665 0.0
C1179 C 0.79365 0.758 0.64719 0.0
C1180 C 0.84603 0.76578 0.67138 0.0
C1181 C 0.84573 0.79059 0.66361 0.0
H1182 H 0.01196 0.83789 0.66228 0.0
H1183 H 0.99197 0.8077 0.59292 0.0
H1184 H 0.94898 0.75937 0.60087 0.0
H1185 H 0.91445 0.72773 0.62742 0.0
H1186 H 0.93539 0.75782 0.69699 0.0
H1187 H 0.9807 0.80399 0.68918 0.0
C1188 C 0.99859 0.82034 0.64902 0.0
C1189 C 1.00513 0.82603 0.62709 0.0
C1190 C 0.97388 0.7928 0.65376 0.0
C1191 C 0.98753 0.80349 0.60994 0.0
C1192 C 0.96282 0.77604 0.61449 0.0
C1193 C 0.92909 0.74427 0.6409 0.0
C1194 C 0.92133 0.73939 0.66277 0.0
C1195 C 0.95533 0.77074 0.6363 0.0
C1196 C 0.94077 0.76092 0.68003 0.0
C1197 C 0.96667 0.78742 0.67557 0.0
H1198 H 0.17498 0.17717 0.6666 0.0
H1199 H 0.17895 0.17173 0.59623 0.0
H1200 H 0.22957 0.17677 0.60153 0.0
H1201 H 0.27052 0.17789 0.62648 0.0
H1202 H 0.26566 0.18417 0.69701 0.0
H1203 H 0.21788 0.18378 0.69137 0.0
C1204 C 0.18731 0.1778 0.65248 0.0
C1205 C 0.17346 0.17421 0.63109 0.0
C1206 C 0.21611 0.18043 0.65569 0.0
C1207 C 0.18942 0.17483 0.61285 0.0
C1208 C 0.21819 0.1774 0.61591 0.0
C1209 C 0.25915 0.17947 0.6406 0.0
C1210 C 0.2717 0.18074 0.66214 0.0
C1211 C 0.23145 0.17944 0.63728 0.0
C1212 C 0.25669 0.18307 0.68023 0.0
C1213 C 0.22922 0.18281 0.67706 0.0
H1214 H 0.82453 0.99209 0.62755 0.0
H1215 H 0.8713 0.00294 0.69159 0.0
H1216 H 0.86627 0.04634 0.70245 0.0
H1217 H 0.85229 0.08338 0.69291 0.0
H1218 H 0.80609 0.07383 0.62886 0.0
H1219 H 0.80672 0.0275 0.619 0.0
C1220 C 0.83313 0.00371 0.64399 0.0
C1221 C 0.84863 0.9946 0.65865 0.0
C1222 C 0.83043 0.02895 0.65009 0.0
C1223 C 0.85977 0.00987 0.67988 0.0
C1224 C 0.85685 0.03464 0.68613 0.0
C1225 C 0.84213 0.07111 0.67683 0.0
C1226 C 0.82945 0.08227 0.66158 0.0
C1227 C 0.84287 0.04478 0.6712 0.0
C1228 C 0.81606 0.06579 0.64093 0.0
C1229 C 0.81652 0.03935 0.63523 0.0
H1230 H 0.5097 0.35084 0.70544 0.0
H1231 H 0.53533 0.30725 0.75351 0.0
H1232 H 0.48465 0.26241 0.74729 0.0
H1233 H 0.43441 0.23411 0.72607 0.0
H1234 H 0.40968 0.27667 0.67647 0.0
H1235 H 0.45827 0.32335 0.68557 0.0
C1236 C 0.50396 0.33168 0.71478 0.0
C1237 C 0.52624 0.33229 0.72983 0.0
C1238 C 0.47493 0.30569 0.71077 0.0
C1239 C 0.51863 0.30718 0.74167 0.0
C1240 C 0.48965 0.28156 0.73814 0.0
C1241 C 0.43943 0.25375 0.71752 0.0
C1242 C 0.41842 0.25186 0.7006 0.0
C1243 C 0.46779 0.28032 0.72242 0.0
C1244 C 0.42548 0.27745 0.68951 0.0
C1245 C 0.45331 0.30417 0.69467 0.0
H1246 H 0.68046 0.1437 0.74348 0.0
H1247 H 0.65617 0.17381 0.68539 0.0
H1248 H 0.69498 0.16965 0.66596 0.0
H1249 H 0.73976 0.16286 0.66697 0.0
H1250 H 0.76456 0.13383 0.72576 0.0
H1251 H 0.72198 0.1321 0.74321 0.0
C1252 C 0.68312 0.14841 0.72635 0.0
C1253 C 0.66525 0.15861 0.71574 0.0
C1254 C 0.70607 0.14672 0.71548 0.0
C1255 C 0.6694 0.16547 0.69373 0.0
C1256 C 0.6918 0.16338 0.68271 0.0
C1257 C 0.73561 0.15572 0.68346 0.0
C1258 C 0.75568 0.14868 0.69494 0.0
C1259 C 0.71092 0.15488 0.69362 0.0
C1260 C 0.74971 0.13943 0.71636 0.0
C1261 C 0.72528 0.13847 0.72648 0.0
H1262 H 0.9249 0.55355 0.66847 0.0
H1263 H 0.86059 0.49954 0.71333 0.0
H1264 H 0.84316 0.53582 0.71688 0.0
H1265 H 0.84337 0.58103 0.70484 0.0
H1266 H 0.90456 0.63162 0.6572 0.0
H1267 H 0.9255 0.59822 0.65681 0.0
C1268 C 0.90686 0.54946 0.6789 0.0
C1269 C 0.89392 0.52357 0.69041 0.0
C1270 C 0.89615 0.56974 0.68022 0.0
C1271 C 0.87123 0.51933 0.70439 0.0
C1272 C 0.86102 0.53995 0.70628 0.0
C1273 C 0.86148 0.58483 0.69456 0.0
C1274 C 0.87233 0.60866 0.68101 0.0
C1275 C 0.87293 0.56498 0.69395 0.0
C1276 C 0.89563 0.61325 0.66763 0.0
C1277 C 0.90768 0.59421 0.66742 0.0
H1278 H 0.44455 0.96462 0.24411 0.0
H1279 H 0.44416 0.88546 0.2166 0.0
H1280 H 0.46092 0.90855 0.18243 0.0
H1281 H 0.47658 0.95142 0.16035 0.0
H1282 H 0.4757 0.0302 0.18709 0.0
H1283 H 0.45865 0.00711 0.22135 0.0
C1284 C 0.44791 0.95234 0.23058 0.0
C1285 C 0.44341 0.92343 0.23316 0.0
C1286 C 0.45745 0.96572 0.21076 0.0
C1287 C 0.44807 0.90798 0.21539 0.0
C1288 C 0.45747 0.92108 0.19571 0.0
C1289 C 0.47231 0.96345 0.17354 0.0
C1290 C 0.47757 0.99262 0.17103 0.0
C1291 C 0.46237 0.94999 0.19322 0.0
C1292 C 0.47233 0.00793 0.18857 0.0
C1293 C 0.4624 0.99466 0.20818 0.0
H1294 H 0.07602 0.50554 0.24421 0.0
H1295 H 0.16031 0.5799 0.22742 0.0
H1296 H 0.13711 0.5756 0.19026 0.0
H1297 H 0.09381 0.54899 0.16191 0.0
H1298 H 1.00931 0.47483 0.17875 0.0
H1299 H 0.03195 0.48029 0.21627 0.0
C1300 C 0.08929 0.5208 0.23241 0.0
C1301 C 0.11986 0.54298 0.23861 0.0
C1302 C 0.07592 0.51799 0.21097 0.0
C1303 C 0.13663 0.56286 0.22321 0.0
C1304 C 0.12346 0.56025 0.20187 0.0
C1305 C 0.08016 0.53426 0.17384 0.0
C1306 C 0.04991 0.51139 0.16737 0.0
C1307 C 0.09322 0.5377 0.1955 0.0
C1308 C 0.0328 0.49227 0.18307 0.0
C1309 C 0.04566 0.49551 0.20461 0.0
H1310 H 0.51566 0.55861 0.23393 0.0
H1311 H 0.43104 0.55098 0.20862 0.0
H1312 H 0.43764 0.53526 0.1717 0.0
H1313 H 0.46973 0.52795 0.14601 0.0
H1314 H 0.55644 0.54006 0.17143 0.0
H1315 H 0.54659 0.54956 0.20874 0.0
C1316 C 0.4986 0.55348 0.22035 0.0
C1317 C 0.47305 0.55631 0.22408 0.0
C1318 C 0.50299 0.54537 0.19907 0.0
C1319 C 0.45083 0.54883 0.20635 0.0
C1320 C 0.45475 0.54011 0.18515 0.0
C1321 C 0.48653 0.53272 0.15968 0.0
C1322 C 0.51386 0.53328 0.1557 0.0
C1323 C 0.48113 0.53903 0.18121 0.0
C1324 C 0.535 0.53894 0.17382 0.0
C1325 C 0.52953 0.54468 0.19524 0.0
H1326 H 0.90988 0.41937 0.79474 0.0
H1327 H 0.98439 0.49072 0.7655 0.0
H1328 H 0.01173 0.51231 0.80208 0.0
H1329 H 0.01546 0.50947 0.84217 0.0
H1330 H 0.94016 0.43874 0.87144 0.0
H1331 H 0.91252 0.41798 0.83501 0.0
C1332 C 0.93212 0.43965 0.79641 0.0
C1333 C 0.94513 0.45337 0.77744 0.0
C1334 C 0.94773 0.45185 0.81746 0.0
C1335 C 0.97376 0.47988 0.77985 0.0
C1336 C 0.98949 0.49211 0.80075 0.0
C1337 C 0.99283 0.48977 0.84067 0.0
C1338 C 0.98012 0.47561 0.85962 0.0
C1339 C 0.9768 0.47813 0.81966 0.0
C1340 C 0.95087 0.44981 0.85718 0.0
C1341 C 0.9349 0.43801 0.83634 0.0
H1342 H 0.58021 0.45274 0.80514 0.0
H1343 H 0.57527 0.52048 0.76961 0.0
H1344 H 0.55154 0.53137 0.79992 0.0
H1345 H 0.53223 0.52161 0.83661 0.0
H1346 H 0.53807 0.45416 0.87205 0.0
H1347 H 0.56063 0.4427 0.84143 0.0
C1348 C 0.57357 0.46961 0.80387 0.0
C1349 C 0.57941 0.48567 0.78506 0.0
C1350 C 0.55995 0.47573 0.82132 0.0
C1351 C 0.57125 0.50793 0.78395 0.0
C1352 C 0.55757 0.51408 0.80125 0.0
C1353 C 0.53859 0.50451 0.8377 0.0
C1354 C 0.53327 0.4887 0.85664 0.0
C1355 C 0.55192 0.4982 0.82006 0.0
C1356 C 0.54136 0.46636 0.85758 0.0
C1357 C 0.5545 0.45992 0.84012 0.0
H1358 H 0.55598 0.07173 0.79685 0.0
H1359 H 0.50792 0.11842 0.81274 0.0
H1360 H 0.49844 0.09791 0.84837 0.0
H1361 H 0.50246 0.06578 0.87492 0.0
H1362 H 0.55072 0.0191 0.85981 0.0
H1363 H 0.56121 0.04028 0.82424 0.0
C1364 C 0.5436 0.07751 0.80817 0.0
C1365 C 0.53234 0.0963 0.80186 0.0
C1366 C 0.53807 0.06549 0.82886 0.0
C1367 C 0.51631 0.10352 0.81684 0.0
C1368 C 0.51099 0.09192 0.83735 0.0
C1369 C 0.51558 0.06047 0.86399 0.0
C1370 C 0.52567 0.04075 0.87016 0.0
C1371 C 0.52155 0.07273 0.84351 0.0
C1372 C 0.54225 0.03385 0.85548 0.0
C1373 C 0.54843 0.04611 0.83513 0.0
H1374 H 0.14194 0.25738 0.56747 0.0
H1375 H 0.04806 0.21534 0.54058 0.0
H1376 H 0.06388 0.23975 0.50671 0.0
H1377 H 0.10416 0.27428 0.48504 0.0
H1378 H 0.1982 0.31601 0.51145 0.0
H1379 H 0.18255 0.29061 0.54505 0.0
C1380 C 0.12499 0.25336 0.55411 0.0
C1381 C 0.09384 0.23478 0.55672 0.0
C1382 C 0.13425 0.26756 0.53457 0.0
C1383 C 0.07216 0.22997 0.53924 0.0
C1384 C 0.08119 0.24381 0.51978 0.0
C1385 C 0.12129 0.27754 0.49801 0.0
C1386 C 0.15233 0.29717 0.49568 0.0
C1387 C 0.11214 0.26285 0.51732 0.0
C1388 C 0.17412 0.30141 0.51287 0.0
C1389 C 0.1652 0.28675 0.53208 0.0
H1390 H 0.7699 0.82368 0.55616 0.0
H1391 H 0.74643 0.88692 0.58485 0.0
H1392 H 0.71853 0.88374 0.54992 0.0
H1393 H 0.70074 0.86297 0.51117 0.0
H1394 H 0.72449 0.79988 0.48255 0.0
H1395 H 0.7517 0.80254 0.51761 0.0
C1396 C 0.75836 0.83648 0.55487 0.0
C1397 C 0.76025 0.85548 0.57314 0.0
C1398 C 0.74231 0.83452 0.53474 0.0
C1399 C 0.74561 0.87234 0.571 0.0
C1400 C 0.72954 0.87045 0.55105 0.0
C1401 C 0.71204 0.84996 0.51256 0.0
C1402 C 0.71047 0.8312 0.49422 0.0
C1403 C 0.72784 0.85171 0.53277 0.0
C1404 C 0.72493 0.81418 0.49645 0.0
C1405 C 0.74067 0.81582 0.51647 0.0
H1406 H 0.1151 0.89087 0.5412 0.0
H1407 H 0.19095 0.89452 0.57936 0.0
H1408 H 0.20769 0.88141 0.54585 0.0
H1409 H 0.20285 0.87227 0.50551 0.0
H1410 H 0.12644 0.86748 0.46716 0.0
H1411 H 0.10818 0.87799 0.50084 0.0
C1412 C 0.13494 0.88819 0.54222 0.0
C1413 C 0.15181 0.8938 0.56278 0.0
C1414 C 0.14467 0.88094 0.52279 0.0
C1415 C 0.17771 0.89062 0.56374 0.0
C1416 C 0.18733 0.88315 0.54457 0.0
C1417 C 0.18192 0.87301 0.50446 0.0
C1418 C 0.1663 0.8693 0.48365 0.0
C1419 C 0.17132 0.8788 0.52395 0.0
C1420 C 0.13942 0.87085 0.4828 0.0
C1421 C 0.12876 0.87663 0.50212 0.0
H1422 H 0.60849 0.76174 0.11328 0.0
H1423 H 0.53845 0.77633 0.13775 0.0
H1424 H 0.56542 0.79128 0.17462 0.0
H1425 H 0.60838 0.79939 0.20023 0.0
H1426 H 0.677 0.78225 0.17624 0.0
H1427 H 0.65099 0.769 0.13903 0.0
C1428 C 0.59896 0.76798 0.12668 0.0
C1429 C 0.57145 0.76797 0.12256 0.0
C1430 C 0.61432 0.77606 0.14803 0.0
C1431 C 0.55982 0.77662 0.14019 0.0
C1432 C 0.5751 0.78493 0.1614 0.0
C1433 C 0.61751 0.79245 0.18694 0.0
C1434 C 0.64469 0.79187 0.19115 0.0
C1435 C 0.60227 0.78457 0.16556 0.0
C1436 C 0.65639 0.78333 0.17352 0.0
C1437 C 0.64143 0.77557 0.15221 0.0
H1438 H 0.21999 0.79908 0.11442 0.0
H1439 H 0.31068 0.86758 0.14071 0.0
H1440 H 0.2904 0.87782 0.17345 0.0
H1441 H 0.24726 0.86494 0.19579 0.0
H1442 H 0.15676 0.79584 0.16949 0.0
H1443 H 0.17674 0.78776 0.13592 0.0
C1444 C 0.23535 0.81627 0.12731 0.0
C1445 C 0.26686 0.83243 0.12507 0.0
C1446 C 0.22361 0.82167 0.14628 0.0
C1447 C 0.28631 0.85499 0.1418 0.0
C1448 C 0.27475 0.86068 0.16066 0.0
C1449 C 0.23183 0.84839 0.1826 0.0
C1450 C 0.20053 0.83086 0.18534 0.0
C1451 C 0.24348 0.84386 0.16323 0.0
C1452 C 0.18099 0.80928 0.16809 0.0
C1453 C 0.19238 0.80476 0.14879 0.0
H1454 H 0.18784 0.45399 0.14729 0.0
H1455 H 0.2406 0.41634 0.1226 0.0
H1456 H 0.23107 0.38696 0.15461 0.0
H1457 H 0.20662 0.37125 0.18937 0.0
H1458 H 0.15427 0.40978 0.21355 0.0
H1459 H 0.16469 0.43944 0.18197 0.0
C1460 C 0.1971 0.43918 0.14881 0.0
C1461 C 0.21457 0.43704 0.13243 0.0
C1462 C 0.19158 0.42252 0.1672 0.0
C1463 C 0.22706 0.41836 0.13497 0.0
C1464 C 0.2215 0.40149 0.15322 0.0
C1465 C 0.19742 0.38606 0.18764 0.0
C1466 C 0.17966 0.38825 0.20384 0.0
C1467 C 0.20359 0.40323 0.16938 0.0
C1468 C 0.16825 0.40787 0.2015 0.0
C1469 C 0.17407 0.42475 0.18338 0.0
H1470 H 0.81639 0.59201 0.89915 0.0
H1471 H 0.72195 0.5625 0.88046 0.0
H1472 H 0.73548 0.5859 0.84597 0.0
H1473 H 0.77411 0.61468 0.82084 0.0
H1474 H 0.86833 0.643 0.83914 0.0
H1475 H 0.85485 0.62004 0.87381 0.0
C1476 C 0.79871 0.5905 0.88749 0.0
C1477 C 0.76818 0.57556 0.89259 0.0
C1478 C 0.8066 0.60381 0.8675 0.0
C1479 C 0.7457 0.57425 0.87728 0.0
C1480 C 0.75339 0.58745 0.8574 0.0
C1481 C 0.79167 0.61559 0.8323 0.0
C1482 C 0.82224 0.63069 0.82731 0.0
C1483 C 0.78376 0.60226 0.8523 0.0
C1484 C 0.84469 0.63194 0.8426 0.0
C1485 C 0.83698 0.61867 0.86243 0.0
H1486 H 0.44887 0.18095 0.89131 0.0
H1487 H 0.3848 0.20139 0.91986 0.0
H1488 H 0.35838 0.19362 0.88331 0.0
H1489 H 0.35301 0.18025 0.84333 0.0
H1490 H 0.41561 0.15734 0.81516 0.0
H1491 H 0.44299 0.16677 0.85152 0.0
C1492 C 0.42896 0.18345 0.88959 0.0
C1493 C 0.41886 0.19172 0.90834 0.0
C1494 C 0.4136 0.1785 0.86859 0.0
C1495 C 0.39335 0.19543 0.90571 0.0
C1496 C 0.37808 0.19077 0.88482 0.0
C1497 C 0.37244 0.17701 0.84516 0.0
C1498 C 0.38218 0.16807 0.8265 0.0
C1499 C 0.38791 0.18215 0.86617 0.0
C1500 C 0.40781 0.16456 0.82916 0.0
C1501 C 0.4234 0.16978 0.84998 0.0
H1502 H 0.79694 0.20447 0.89823 0.0
H1503 H 0.83253 0.29553 0.88149 0.0
H1504 H 0.84311 0.28202 0.84534 0.0
H1505 H 0.84453 0.24504 0.8191 0.0
H1506 H 0.80998 0.15405 0.83572 0.0
H1507 H 0.79688 0.16677 0.8712 0.0
C1508 C 0.80671 0.22119 0.88654 0.0
C1509 C 0.81412 0.25098 0.89258 0.0
C1510 C 0.81315 0.21335 0.8658 0.0
C1511 C 0.82696 0.27253 0.87733 0.0
C1512 C 0.83297 0.26482 0.85664 0.0
C1513 C 0.83377 0.22788 0.83035 0.0
C1514 C 0.8283 0.19865 0.82473 0.0
C1515 C 0.82651 0.2354 0.85079 0.0
C1516 C 0.81477 0.17682 0.83971 0.0
C1517 C 0.80715 0.18404 0.85998 0.0
H1518 H 0.24152 0.09134 0.45722 0.0
H1519 H 0.31472 0.16765 0.43099 0.0
H1520 H 0.33988 0.18818 0.46827 0.0
H1521 H 0.34269 0.18263 0.50796 0.0
H1522 H 0.26877 0.10677 0.53425 0.0
H1523 H 0.24266 0.08755 0.49723 0.0
C1524 C 0.26294 0.11252 0.45972 0.0
C1525 C 0.27632 0.1279 0.44141 0.0
C1526 C 0.27734 0.12406 0.48114 0.0
C1527 C 0.30385 0.15552 0.44485 0.0
C1528 C 0.31835 0.16715 0.46614 0.0
C1529 C 0.32064 0.16216 0.50569 0.0
C1530 C 0.30795 0.14606 0.52392 0.0
C1531 C 0.30551 0.15139 0.48437 0.0
C1532 C 0.27947 0.11933 0.52052 0.0
C1533 C 0.26437 0.10841 0.49936 0.0
H1534 H 0.91334 0.18147 0.45257 0.0
H1535 H 0.91802 0.10391 0.47029 0.0
H1536 H 0.89582 0.10461 0.50462 0.0
H1537 H 0.87554 0.12743 0.53003 0.0
H1538 H 0.87048 0.20484 0.51245 0.0
H1539 H 0.89286 0.20434 0.47811 0.0
C1540 C 0.90967 0.16483 0.46399 0.0
C1541 C 0.91718 0.14252 0.45863 0.0
C1542 C 0.89694 0.1654 0.4839 0.0
C1543 C 0.91198 0.12101 0.47367 0.0
C1544 C 0.89944 0.1215 0.49344 0.0
C1545 C 0.87903 0.14404 0.51862 0.0
C1546 C 0.87129 0.16617 0.524 0.0
C1547 C 0.89175 0.14352 0.49873 0.0
C1548 C 0.87655 0.18777 0.50903 0.0
C1549 C 0.88921 0.18741 0.48925 0.0
H1550 H 0.90043 0.77882 0.47644 0.0
H1551 H 0.82459 0.70578 0.43574 0.0
H1552 H 0.80894 0.67634 0.46751 0.0
H1553 H 0.81544 0.6722 0.5072 0.0
H1554 H 0.89223 0.74472 0.54765 0.0
H1555 H 0.90868 0.77344 0.51566 0.0
C1556 C 0.88081 0.75624 0.4744 0.0
C1557 C 0.8637 0.7446 0.45368 0.0
C1558 C 0.87186 0.73943 0.49277 0.0
C1559 C 0.838 0.71547 0.45151 0.0
C1560 C 0.82905 0.69858 0.46968 0.0
C1561 C 0.83603 0.6941 0.50901 0.0
C1562 C 0.85237 0.70626 0.52996 0.0
C1563 C 0.84559 0.71047 0.49046 0.0
C1564 C 0.87877 0.73494 0.5319 0.0
C1565 C 0.88838 0.75134 0.51355 0.0
loop_
_geom_bond_atom_site_label_1
_geom_bond_atom_site_label_2
_geom_bond_distance
_geom_bond_site_symmetry_2
_ccdc_geom_bond_type
H0 C1 0.949 . S
C1 H0 0.949 . S
C1 C2 1.395 . S
C1 C3 1.391 . S
C2 C1 1.395 . S
C2 C5 1.390 . S
C3 C1 1.391 . S
C3 C7 1.387 . S
C3 C8 1.491 . S
H4 C5 0.950 . S
C5 C2 1.390 . S
C5 H4 0.950 . S
C5 C6 1.378 . S
C6 C5 1.378 . S
C6 C7 1.409 . S
C7 C3 1.387 . S
C7 C6 1.409 . S
C7 H9 0.951 . S
C8 C3 1.491 . S
C8 C10 1.382 . S
C8 C12 1.404 . S
H9 C7 0.951 . S
C10 C8 1.382 . S
C10 C11 1.390 . S
C10 H15 0.949 . S
C11 C10 1.390 . S
C11 C16 1.399 . S
C12 C8 1.404 . S
C12 H13 0.950 . S
C12 C14 1.375 . S
H13 C12 0.950 . S
C14 C12 1.375 . S
C14 C16 1.382 . S
C14 H18 0.950 . S
H15 C10 0.949 . S
C16 C11 1.399 . S
C16 C14 1.382 . S
C16 H17 0.952 . S
H17 C16 0.952 . S
H18 C14 0.950 . S
H19 C20 0.949 . S
C20 H19 0.949 . S
C20 C21 1.395 . S
C20 C22 1.391 . S
C21 C20 1.395 . S
C21 C24 1.390 . S
C22 C20 1.391 . S
C22 C26 1.387 . S
C22 C27 1.491 . S
H23 C24 0.950 . S
C24 C21 1.390 . S
C24 H23 0.950 . S
C24 C25 1.378 . S
C25 C24 1.378 . S
C25 C26 1.409 . S
C26 C22 1.387 . S
C26 C25 1.409 . S
C26 H28 0.951 . S
C27 C22 1.491 . S
C27 C29 1.382 . S
C27 C31 1.404 . S
H28 C26 0.951 . S
C29 C27 1.382 . S
C29 C30 1.390 . S
C29 H34 0.949 . S
C30 C29 1.390 . S
C30 C35 1.399 . S
C31 C27 1.404 . S
C31 H32 0.950 . S
C31 C33 1.375 . S
H32 C31 0.950 . S
C33 C31 1.375 . S
C33 C35 1.382 . S
C33 H37 0.950 . S
H34 C29 0.949 . S
C35 C30 1.399 . S
C35 C33 1.382 . S
C35 H36 0.952 1_545 S
H36 C35 0.952 1_565 S
H37 C33 0.950 . S
H38 C39 0.949 . S
C39 H38 0.949 . S
C39 C40 1.395 . S
C39 C41 1.391 . S
C40 C39 1.395 . S
C40 C43 1.390 . S
C41 C39 1.391 . S
C41 C45 1.387 . S
C41 C46 1.491 . S
H42 C43 0.950 . S
C43 C40 1.390 . S
C43 H42 0.950 . S
C43 C44 1.378 . S
C44 C43 1.378 . S
C44 C45 1.409 . S
C45 C41 1.387 . S
C45 C44 1.409 . S
C45 H47 0.951 . S
C46 C41 1.491 . S
C46 C48 1.382 . S
C46 C50 1.404 . S
H47 C45 0.951 . S
C48 C46 1.382 . S
C48 C49 1.411 . S
C48 H53 0.949 . S
C49 C48 1.411 . S
C49 C54 1.404 1_655 S
C50 C46 1.404 . S
C50 H51 0.950 . S
C50 C52 1.375 . S
H51 C50 0.950 . S
C52 C50 1.375 . S
C52 C54 1.382 1_655 S
C52 H56 0.950 . S
H53 C48 0.949 . S
C54 C49 1.404 1_455 S
C54 C52 1.382 1_455 S
C54 H55 0.952 . S
H55 C54 0.952 . S
H56 C52 0.950 . S
H57 C58 0.949 . S
C58 H57 0.949 . S
C58 C59 1.395 . S
C58 C60 1.391 . S
C59 C58 1.395 . S
C59 C62 1.390 . S
C60 C58 1.391 . S
C60 C64 1.387 . S
C60 C65 1.491 . S
H61 C62 0.950 . S
C62 C59 1.390 . S
C62 H61 0.950 . S
C62 C63 1.378 . S
C63 C62 1.378 . S
C63 C64 1.409 . S
C64 C60 1.387 . S
C64 C63 1.409 . S
C64 H66 0.951 . S
C65 C60 1.491 . S
C65 C67 1.382 . S
C65 C69 1.404 . S
H66 C64 0.951 . S
C67 C65 1.382 . S
C67 C68 1.390 . S
C67 H72 0.949 . S
C68 C67 1.390 . S
C68 C73 1.399 . S
C69 C65 1.404 . S
C69 H70 0.950 . S
C69 C71 1.375 . S
H70 C69 0.950 . S
C71 C69 1.375 . S
C71 C73 1.382 . S
C71 H75 0.950 . S
H72 C67 0.949 . S
C73 C68 1.399 . S
C73 C71 1.382 . S
C73 H74 0.952 . S
H74 C73 0.952 . S
H75 C71 0.950 . S
H76 C77 0.949 . S
C77 H76 0.949 . S
C77 C78 1.395 . S
C77 C79 1.391 . S
C78 C77 1.395 . S
C78 C81 1.390 . S
C79 C77 1.391 . S
C79 C83 1.387 . S
C79 C84 1.491 . S
H80 C81 0.950 . S
C81 C78 1.390 . S
C81 H80 0.950 . S
C81 C82 1.378 . S
C82 C81 1.378 . S
C82 C83 1.409 . S
C83 C79 1.387 . S
C83 C82 1.409 . S
C83 H85 0.951 . S
C84 C79 1.491 . S
C84 C86 1.382 . S
C84 C88 1.404 . S
H85 C83 0.951 . S
C86 C84 1.382 . S
C86 C87 1.390 . S
C86 H91 0.949 . S
C87 C86 1.390 . S
C87 C92 1.399 . S
C88 C84 1.404 . S
C88 H89 0.950 . S
C88 C90 1.375 . S
H89 C88 0.950 . S
C90 C88 1.375 . S
C90 C92 1.382 . S
C90 H94 0.950 . S
H91 C86 0.949 . S
C92 C87 1.399 . S
C92 C90 1.382 . S
C92 H93 0.952 1_565 S
H93 C92 0.952 1_545 S
H94 C90 0.950 . S
H95 C96 0.949 . S
C96 H95 0.949 . S
C96 C97 1.395 . S
C96 C98 1.391 . S
C97 C96 1.395 . S
C97 C100 1.390 . S
C98 C96 1.391 . S
C98 C102 1.387 . S
C98 C103 1.491 . S
H99 C100 0.950 . S
C100 C97 1.390 . S
C100 H99 0.950 . S
C100 C101 1.378 . S
C101 C100 1.378 . S
C101 C102 1.409 . S
C102 C98 1.387 . S
C102 C101 1.409 . S
C102 H104 0.951 . S
C103 C98 1.491 . S
C103 C105 1.382 . S
C103 C107 1.404 . S
H104 C102 0.951 . S
C105 C103 1.382 . S
C105 C106 1.390 . S
C105 H110 0.949 . S
C106 C105 1.390 . S
C106 C111 1.399 . S
C107 C103 1.404 . S
C107 H108 0.950 . S
C107 C109 1.375 . S
H108 C107 0.950 . S
C109 C107 1.375 . S
C109 C111 1.382 . S
C109 H113 0.950 . S
H110 C105 0.949 . S
C111 C106 1.399 . S
C111 C109 1.382 . S
C111 H112 0.966 . S
H112 C111 0.966 . S
H113 C109 0.950 . S
H114 C115 0.949 . S
C115 H114 0.949 . S
C115 C116 1.395 . S
C115 C117 1.391 . S
C116 C115 1.395 . S
C116 C119 1.390 . S
C117 C115 1.391 . S
C117 C121 1.387 . S
C117 C122 1.491 . S
H118 C119 0.950 . S
C119 C116 1.390 . S
C119 H118 0.950 . S
C119 C120 1.378 . S
C120 C119 1.378 . S
C120 C121 1.409 . S
C121 C117 1.387 . S
C121 C120 1.409 . S
C121 H123 0.951 . S
C122 C117 1.491 . S
C122 C124 1.382 . S
C122 C126 1.404 . S
H123 C121 0.951 . S
C124 C122 1.382 . S
C124 C125 1.390 . S
C124 H129 0.949 . S
C125 C124 1.390 . S
C125 C130 1.399 . S
C126 C122 1.404 . S
C126 H127 0.950 . S
C126 C128 1.375 . S
H127 C126 0.950 . S
C128 C126 1.375 . S
C128 C130 1.382 . S
C128 H132 0.950 . S
H129 C124 0.949 . S
C130 C125 1.399 . S
C130 C128 1.382 . S
C130 H131 0.952 . S
H131 C130 0.952 . S
H132 C128 0.950 . S
H133 C134 0.949 . S
C134 H133 0.949 . S
C134 C135 1.395 . S
C134 C136 1.391 . S
C135 C134 1.395 . S
C135 C138 1.390 . S
C136 C134 1.391 . S
C136 C140 1.387 . S
C136 C141 1.491 . S
H137 C138 0.950 . S
C138 C135 1.390 . S
C138 H137 0.950 . S
C138 C139 1.378 . S
C139 C138 1.378 . S
C139 C140 1.409 . S
C140 C136 1.387 . S
C140 C139 1.409 . S
C140 H142 0.951 . S
C141 C136 1.491 . S
C141 C143 1.382 . S
C141 C145 1.404 . S
H142 C140 0.951 . S
C143 C141 1.382 . S
C143 C144 1.390 . S
C143 H148 0.949 . S
C144 C143 1.390 . S
C144 C149 1.399 . S
C145 C141 1.404 . S
C145 H146 0.950 . S
C145 C147 1.375 . S
H146 C145 0.950 . S
C147 C145 1.375 . S
C147 C149 1.382 . S
C147 H151 0.950 . S
H148 C143 0.949 . S
C149 C144 1.399 . S
C149 C147 1.382 . S
C149 H150 0.952 . S
H150 C149 0.952 . S
H151 C147 0.950 . S
H152 C153 0.949 . S
C153 H152 0.949 . S
C153 C154 1.395 . S
C153 C155 1.391 . S
C154 C153 1.395 . S
C154 C157 1.390 . S
C155 C153 1.391 . S
C155 C159 1.387 . S
C155 C160 1.491 . S
H156 C157 0.950 . S
C157 C154 1.390 . S
C157 H156 0.950 . S
C157 C158 1.378 . S
C158 C157 1.378 . S
C158 C159 1.409 . S
C159 C155 1.387 . S
C159 C158 1.409 . S
C159 H161 0.951 . S
C160 C155 1.491 . S
C160 C162 1.382 . S
C160 C164 1.404 . S
H161 C159 0.951 . S
C162 C160 1.382 . S
C162 C163 1.390 . S
C162 H167 0.949 . S
C163 C162 1.390 . S
C163 C168 1.399 . S
C164 C160 1.404 . S
C164 H165 0.950 . S
C164 C166 1.375 . S
H165 C164 0.950 . S
C166 C164 1.375 . S
C166 C168 1.382 . S
C166 H170 0.950 . S
H167 C162 0.949 . S
C168 C163 1.399 . S
C168 C166 1.382 . S
C168 H169 0.952 . S
H169 C168 0.952 . S
H170 C166 0.950 . S
H171 C172 0.949 . S
C172 H171 0.949 . S
C172 C173 1.395 . S
C172 C174 1.391 . S
C173 C172 1.395 . S
C173 C176 1.390 . S
C174 C172 1.391 . S
C174 C178 1.387 . S
C174 C179 1.491 . S
H175 C176 0.950 . S
C176 C173 1.390 . S
C176 H175 0.950 . S
C176 C177 1.378 . S
C177 C176 1.378 . S
C177 C178 1.409 . S
C178 C174 1.387 . S
C178 C177 1.409 . S
C178 H180 0.951 . S
C179 C174 1.491 . S
C179 C181 1.382 . S
C179 C183 1.404 . S
H180 C178 0.951 . S
C181 C179 1.382 . S
C181 C182 1.390 . S
C181 H186 0.949 . S
C182 C181 1.390 . S
C182 C187 1.399 . S
C183 C179 1.404 . S
C183 H184 0.950 . S
C183 C185 1.375 . S
H184 C183 0.950 . S
C185 C183 1.375 . S
C185 C187 1.382 . S
C185 H189 0.950 . S
H186 C181 0.949 . S
C187 C182 1.399 . S
C187 C185 1.382 . S
C187 H188 0.952 . S
H188 C187 0.952 . S
H189 C185 0.950 . S
H190 C191 0.949 . S
C191 H190 0.949 . S
C191 C192 1.395 . S
C191 C193 1.391 . S
C192 C191 1.395 . S
C192 C195 1.390 . S
C193 C191 1.391 . S
C193 C197 1.387 . S
C193 C198 1.491 . S
H194 C195 0.950 . S
C195 C192 1.390 . S
C195 H194 0.950 . S
C195 C196 1.378 . S
C196 C195 1.378 . S
C196 C197 1.409 . S
C197 C193 1.387 . S
C197 C196 1.409 . S
C197 H199 0.951 1_556 S
C198 C193 1.491 . S
C198 C200 1.382 . S
C198 C202 1.404 1_556 S
H199 C197 0.951 1_554 S
C200 C198 1.382 . S
C200 C201 1.390 1_556 S
C200 H205 0.949 . S
C201 C200 1.390 1_554 S
C201 C206 1.399 . S
C202 C198 1.404 1_554 S
C202 H203 0.950 . S
C202 C204 1.375 . S
H203 C202 0.950 . S
C204 C202 1.375 . S
C204 C206 1.382 . S
C204 H208 0.950 . S
H205 C200 0.949 . S
C206 C201 1.399 . S
C206 C204 1.382 . S
C206 H207 0.952 . S
H207 C206 0.952 . S
H208 C204 0.950 . S
H209 C210 0.949 . S
C210 H209 0.949 . S
C210 C211 1.395 . S
C210 C212 1.391 . S
C211 C210 1.395 . S
C211 C214 1.390 . S
C212 C210 1.391 . S
C212 C216 1.387 . S
C212 C217 1.491 . S
H213 C214 0.950 . S
C214 C211 1.390 . S
C214 H213 0.950 . S
C214 C215 1.378 . S
C215 C214 1.378 . S
C215 C216 1.409 . S
C216 C212 1.387 . S
C216 C215 1.409 . S
C216 H218 0.951 . S
C217 C212 1.491 . S
C217 C219 1.382 . S
C217 C221 1.404 . S
H218 C216 0.951 . S
C219 C217 1.382 . S
C219 C220 1.390 . S
C219 H224 0.949 . S
C220 C219 1.390 . S
C220 C225 1.399 . S
C221 C217 1.404 . S
C221 H222 0.950 . S
C221 C223 1.375 . S
H222 C221 0.950 . S
C223 C221 1.375 . S
C223 C225 1.382 . S
C223 H227 0.925 1_556 S
H224 C219 0.949 . S
C225 C220 1.399 . S
C225 C223 1.382 . S
C225 H226 0.952 . S
H226 C225 0.952 . S
H227 C223 0.925 1_554 S
H228 C229 0.949 . S
C229 H228 0.949 . S
C229 C230 1.395 . S
C229 C231 1.391 . S
C230 C229 1.395 . S
C230 C233 1.390 . S
C231 C229 1.391 . S
C231 C235 1.387 . S
C231 C236 1.491 . S
H232 C233 0.950 . S
C233 C230 1.390 . S
C233 H232 0.950 . S
C233 C234 1.378 . S
C234 C233 1.378 . S
C234 C235 1.409 . S
C235 C231 1.387 . S
C235 C234 1.409 . S
C235 H237 0.951 . S
C236 C231 1.491 . S
C236 C238 1.382 . S
C236 C240 1.404 . S
H237 C235 0.951 . S
C238 C236 1.382 . S
C238 C239 1.390 . S
C238 H243 0.949 . S
C239 C238 1.390 . S
C239 C244 1.399 1_554 S
C240 C236 1.404 . S
C240 H241 0.950 . S
C240 C242 1.375 1_554 S
H241 C240 0.950 . S
C242 C240 1.375 1_556 S
C242 C244 1.382 . S
C242 H246 0.950 . S
H243 C238 0.949 . S
C244 C239 1.399 1_556 S
C244 C242 1.382 . S
C244 H245 0.952 . S
H245 C244 0.952 . S
H246 C242 0.950 . S
H247 C248 0.949 . S
C248 H247 0.949 . S
C248 C249 1.395 . S
C248 C250 1.391 . S
C249 C248 1.395 . S
C249 C252 1.390 . S
C250 C248 1.391 . S
C250 C254 1.387 . S
C250 C255 1.491 . S
H251 C252 0.950 . S
C252 C249 1.390 . S
C252 H251 0.950 . S
C252 C253 1.378 . S
C253 C252 1.378 . S
C253 C254 1.409 . S
C254 C250 1.387 . S
C254 C253 1.409 . S
C254 H256 0.951 . S
C255 C250 1.491 . S
C255 C257 1.382 . S
C255 C259 1.404 . S
H256 C254 0.951 . S
C257 C255 1.382 . S
C257 C258 1.390 . S
C257 H262 0.949 . S
C258 C257 1.390 . S
C258 C263 1.399 . S
C259 C255 1.404 . S
C259 H260 0.950 . S
C259 C261 1.375 . S
H260 C259 0.950 . S
C261 C259 1.375 . S
C261 C263 1.382 . S
C261 H265 0.950 1_554 S
H262 C257 0.949 . S
C263 C258 1.399 . S
C263 C261 1.382 . S
C263 H264 0.952 1_554 S
H264 C263 0.952 1_556 S
H265 C261 0.950 1_556 S
H266 C267 0.949 . S
C267 H266 0.949 . S
C267 C268 1.395 . S
C267 C269 1.391 . S
C268 C267 1.395 . S
C268 C271 1.390 . S
C269 C267 1.391 . S
C269 C273 1.387 . S
C269 C274 1.491 . S
H270 C271 0.950 . S
C271 C268 1.390 . S
C271 H270 0.950 . S
C271 C272 1.378 . S
C272 C271 1.378 . S
C272 C273 1.409 . S
C273 C269 1.387 . S
C273 C272 1.409 . S
C273 H275 0.951 . S
C274 C269 1.491 . S
C274 C276 1.382 . S
C274 C278 1.404 . S
H275 C273 0.951 . S
C276 C274 1.382 . S
C276 C277 1.390 . S
C276 H281 0.949 . S
C277 C276 1.390 . S
C277 C282 1.399 . S
C278 C274 1.404 . S
C278 H279 0.950 . S
C278 C280 1.375 . S
H279 C278 0.950 . S
C280 C278 1.375 . S
C280 C282 1.382 . S
C280 H284 0.950 . S
H281 C276 0.949 . S
C282 C277 1.399 . S
C282 C280 1.382 . S
C282 H283 0.952 . S
H283 C282 0.952 . S
H284 C280 0.950 . S
H285 C286 0.949 . S
C286 H285 0.949 . S
C286 C287 1.395 . S
C286 C288 1.391 . S
C287 C286 1.395 . S
C287 C290 1.390 . S
C288 C286 1.391 . S
C288 C292 1.387 . S
C288 C293 1.491 . S
H289 C290 0.950 . S
C290 C287 1.390 . S
C290 H289 0.950 . S
C290 C291 1.378 . S
C291 C290 1.378 . S
C291 C292 1.409 . S
C292 C288 1.387 . S
C292 C291 1.409 . S
C292 H294 0.951 . S
C293 C288 1.491 . S
C293 C295 1.382 . S
C293 C297 1.404 . S
H294 C292 0.951 . S
C295 C293 1.382 . S
C295 C296 1.390 . S
C295 H300 0.949 . S
C296 C295 1.390 . S
C296 C301 1.399 . S
C297 C293 1.404 . S
C297 H298 0.950 . S
C297 C299 1.375 . S
H298 C297 0.950 . S
C299 C297 1.375 . S
C299 C301 1.382 . S
C299 H303 0.950 . S
H300 C295 0.949 . S
C301 C296 1.399 . S
C301 C299 1.382 . S
C301 H302 0.952 . S
H302 C301 0.952 . S
H303 C299 0.950 . S
H304 C305 0.949 . S
C305 H304 0.949 . S
C305 C306 1.395 . S
C305 C307 1.391 . S
C306 C305 1.395 . S
C306 C309 1.390 . S
C307 C305 1.391 . S
C307 C311 1.387 . S
C307 C312 1.491 . S
H308 C309 0.950 . S
C309 C306 1.390 . S
C309 H308 0.950 . S
C309 C310 1.378 . S
C310 C309 1.378 . S
C310 C311 1.409 . S
C311 C307 1.387 . S
C311 C310 1.409 . S
C311 H313 0.951 . S
C312 C307 1.491 . S
C312 C314 1.382 . S
C312 C316 1.404 . S
H313 C311 0.951 . S
C314 C312 1.382 . S
C314 C315 1.390 . S
C314 H319 0.949 . S
C315 C314 1.390 . S
C315 C320 1.399 . S
C316 C312 1.404 . S
C316 H317 0.950 . S
C316 C318 1.375 . S
H317 C316 0.950 . S
C318 C316 1.375 . S
C318 C320 1.382 . S
C318 H322 0.950 . S
H319 C314 0.949 . S
C320 C315 1.399 . S
C320 C318 1.382 . S
C320 H321 0.952 . S
H321 C320 0.952 . S
H322 C318 0.950 . S
H323 C324 0.949 . S
C324 H323 0.949 . S
C324 C325 1.395 . S
C324 C326 1.391 . S
C325 C324 1.395 . S
C325 C328 1.390 . S
C326 C324 1.391 . S
C326 C330 1.387 . S
C326 C331 1.491 . S
H327 C328 0.950 . S
C328 C325 1.390 . S
C328 H327 0.950 . S
C328 C329 1.378 . S
C329 C328 1.378 . S
C329 C330 1.409 . S
C330 C326 1.387 . S
C330 C329 1.409 . S
C330 H332 0.951 . S
C331 C326 1.491 . S
C331 C333 1.382 . S
C331 C335 1.404 . S
H332 C330 0.951 . S
C333 C331 1.382 . S
C333 C334 1.390 . S
C333 H338 0.949 . S
C334 C333 1.390 . S
C334 C339 1.399 . S
C335 C331 1.404 . S
C335 H336 0.950 . S
C335 C337 1.375 . S
H336 C335 0.950 . S
C337 C335 1.375 . S
C337 C339 1.382 . S
C337 H341 0.950 . S
H338 C333 0.949 . S
C339 C334 1.399 . S
C339 C337 1.382 . S
C339 H340 0.952 . S
H340 C339 0.952 . S
H341 C337 0.950 . S
Eu342 C351 2.828 1_565 S
Eu342 O353 2.392 . S
Eu342 O355 2.418 . S
Eu342 O360 2.373 1_565 S
Eu342 O363 2.488 . S
Eu342 O364 2.471 1_565 S
Eu342 O365 2.349 1_565 S
Eu343 O352 2.373 1_545 S
Eu343 O356 2.488 . S
Eu343 O357 2.471 1_545 S
Eu343 O358 2.349 1_545 S
Eu343 O361 2.392 . S
Eu343 O362 2.418 . S
Eu343 C372 2.828 1_545 S
C344 O362 1.244 . S
C344 O365 1.265 1_554 S
C345 C346 1.379 . S
C345 C349 1.373 . S
C345 C351 1.505 . S
C346 C345 1.379 . S
C346 C348 1.369 . S
C346 H374 0.930 . S
C347 C349 1.383 . S
C347 C350 1.382 . S
C347 H375 0.930 . S
C348 C346 1.369 . S
C348 C350 1.392 . S
C348 H376 0.930 . S
C349 C345 1.373 . S
C349 C347 1.383 . S
C349 H377 0.931 1_545 S
C350 C347 1.382 . S
C350 C348 1.392 . S
C351 Eu342 2.828 1_545 S
C351 C345 1.505 . S
C351 O363 1.249 1_545 S
C351 O364 1.244 . S
O352 Eu343 2.373 1_565 S
O352 C354 1.258 . S
O353 Eu342 2.392 . S
O353 C354 1.242 1_556 S
C354 O352 1.258 . S
C354 O353 1.242 1_554 S
O355 Eu342 2.418 . S
O355 C359 1.244 . S
O356 Eu343 2.488 . S
O356 C372 1.249 1_545 S
O357 Eu343 2.471 1_565 S
O357 C372 1.244 . S
O358 Eu343 2.349 1_565 S
O358 C359 1.265 1_554 S
C359 O355 1.244 . S
C359 O358 1.265 1_556 S
O360 Eu342 2.373 1_545 S
O360 C373 1.258 . S
O361 Eu343 2.392 . S
O361 C373 1.242 1_554 S
O362 Eu343 2.418 . S
O362 C344 1.244 . S
O363 Eu342 2.488 . S
O363 C351 1.249 1_565 S
O364 Eu342 2.471 1_545 S
O364 C351 1.244 . S
O365 Eu342 2.349 1_545 S
O365 C344 1.265 1_556 S
C366 C367 1.379 . S
C366 C370 1.373 1_565 S
C366 C372 1.505 . S
C367 C366 1.379 . S
C367 C369 1.369 . S
C367 H378 0.930 . S
C368 C370 1.383 1_565 S
C368 C371 1.382 . S
C368 H379 0.930 1_565 S
C369 C367 1.369 . S
C369 C371 1.392 . S
C369 H380 0.930 . S
C370 C366 1.373 1_545 S
C370 C368 1.383 1_545 S
C370 H381 0.931 . S
C371 C368 1.382 . S
C371 C369 1.392 . S
C372 Eu343 2.828 1_565 S
C372 O356 1.249 1_565 S
C372 O357 1.244 . S
C372 C366 1.505 . S
C373 O360 1.258 . S
C373 O361 1.242 1_556 S
H374 C346 0.930 . S
H375 C347 0.930 . S
H376 C348 0.930 . S
H377 C349 0.931 1_565 S
H378 C367 0.930 . S
H379 C368 0.930 1_545 S
H380 C369 0.930 . S
H381 C370 0.931 . S
Eu382 C391 2.828 1_455 S
Eu382 O393 2.424 . S
Eu382 O395 2.418 . S
Eu382 O400 2.373 1_455 S
Eu382 O403 2.488 . S
Eu382 O404 2.471 1_455 S
Eu382 O405 2.349 1_455 S
Eu383 O392 2.373 1_655 S
Eu383 O396 2.488 . S
Eu383 O397 2.471 1_655 S
Eu383 O398 2.349 1_655 S
Eu383 O401 2.392 . S
Eu383 O402 2.418 . S
Eu383 C412 2.828 1_655 S
C384 O402 1.244 1_556 S
C384 O405 1.265 . S
C385 C386 1.379 . S
C385 C389 1.373 . S
C385 C391 1.505 . S
C386 C385 1.379 . S
C386 C388 1.369 . S
C386 H414 0.930 . S
C387 C389 1.383 . S
C387 C390 1.382 . S
C387 H415 0.930 . S
C388 C386 1.369 . S
C388 C390 1.392 . S
C388 H416 0.930 . S
C389 C385 1.373 . S
C389 C387 1.383 . S
C389 H417 0.931 1_655 S
C390 C387 1.382 . S
C390 C388 1.392 . S
C391 Eu382 2.828 1_655 S
C391 C385 1.505 . S
C391 O403 1.249 1_655 S
C391 O404 1.244 . S
O392 Eu383 2.373 1_455 S
O392 C394 1.258 . S
O393 Eu382 2.424 . S
O393 C394 1.198 1_556 S
C394 O392 1.258 . S
C394 O393 1.198 1_554 S
O395 Eu382 2.418 . S
O395 C399 1.244 1_556 S
O396 Eu383 2.488 . S
O396 C412 1.249 1_655 S
O397 Eu383 2.471 1_455 S
O397 C412 1.244 . S
O398 Eu383 2.349 1_455 S
O398 C399 1.265 . S
C399 O395 1.244 1_554 S
C399 O398 1.265 . S
O400 Eu382 2.373 1_655 S
O400 C413 1.258 . S
O401 Eu383 2.392 . S
O401 C413 1.242 1_554 S
O402 Eu383 2.418 . S
O402 C384 1.244 1_554 S
O403 Eu382 2.488 . S
O403 C391 1.249 1_455 S
O404 Eu382 2.471 1_655 S
O404 C391 1.244 . S
O405 Eu382 2.349 1_655 S
O405 C384 1.265 . S
C406 C407 1.379 . S
C406 C410 1.373 . S
C406 C412 1.505 . S
C407 C406 1.379 . S
C407 C409 1.369 . S
C407 H418 0.930 . S
C408 C410 1.383 . S
C408 C411 1.382 . S
C408 H419 0.930 . S
C409 C407 1.369 . S
C409 C411 1.392 . S
C409 H420 0.930 . S
C410 C406 1.373 . S
C410 C408 1.383 . S
C410 H421 0.931 1_455 S
C411 C408 1.382 . S
C411 C409 1.392 . S
C412 Eu383 2.828 1_455 S
C412 O396 1.249 1_455 S
C412 O397 1.244 . S
C412 C406 1.505 . S
C413 O400 1.258 . S
C413 O401 1.242 1_556 S
H414 C386 0.930 . S
H415 C387 0.930 . S
H416 C388 0.930 . S
H417 C389 0.931 1_455 S
H418 C407 0.930 . S
H419 C408 0.930 . S
H420 C409 0.930 . S
H421 C410 0.931 1_655 S
Eu422 C431 2.828 . S
Eu422 O433 2.392 . S
Eu422 O435 2.418 . S
Eu422 O440 2.373 . S
Eu422 O443 2.488 . S
Eu422 O444 2.471 . S
Eu422 O445 2.349 . S
Eu423 O432 2.373 . S
Eu423 O436 2.488 . S
Eu423 O437 2.471 . S
Eu423 O438 2.349 . S
Eu423 O441 2.392 1_556 S
Eu423 O442 2.418 . S
Eu423 C452 2.828 . S
C424 O442 1.244 1_554 S
C424 O445 1.265 . S
C425 C426 1.379 . S
C425 C429 1.373 . S
C425 C431 1.505 . S
C426 C425 1.379 . S
C426 C428 1.369 . S
C426 H454 0.930 . S
C427 C429 1.383 . S
C427 C430 1.382 . S
C427 H455 0.930 . S
C428 C426 1.369 . S
C428 C430 1.392 . S
C428 H456 0.930 . S
C429 C425 1.373 . S
C429 C427 1.383 . S
C429 H457 0.931 . S
C430 C427 1.382 . S
C430 C428 1.392 . S
C431 Eu422 2.828 . S
C431 C425 1.505 . S
C431 O443 1.249 . S
C431 O444 1.244 . S
O432 Eu423 2.373 . S
O432 C434 1.258 . S
O433 Eu422 2.392 . S
O433 C434 1.242 1_554 S
C434 O432 1.258 . S
C434 O433 1.242 1_556 S
O435 Eu422 2.418 . S
O435 C439 1.244 . S
O436 Eu423 2.488 . S
O436 C452 1.249 . S
O437 Eu423 2.471 . S
O437 C452 1.244 . S
O438 Eu423 2.349 . S
O438 C439 1.265 1_556 S
C439 O435 1.244 . S
C439 O438 1.265 1_554 S
O440 Eu422 2.373 . S
O440 C453 1.258 . S
O441 Eu423 2.392 1_554 S
O441 C453 1.242 . S
O442 Eu423 2.418 . S
O442 C424 1.244 1_556 S
O443 Eu422 2.488 . S
O443 C431 1.249 . S
O444 Eu422 2.471 . S
O444 C431 1.244 . S
O445 Eu422 2.349 . S
O445 C424 1.265 . S
C446 C447 1.379 . S
C446 C450 1.373 . S
C446 C452 1.505 . S
C447 C446 1.379 . S
C447 C449 1.369 . S
C447 H458 0.930 . S
C448 C450 1.383 . S
C448 C451 1.382 . S
C448 H459 0.930 . S
C449 C447 1.369 . S
C449 C451 1.392 . S
C449 H460 0.930 . S
C450 C446 1.373 . S
C450 C448 1.383 . S
C450 H461 0.931 . S
C451 C448 1.382 . S
C451 C449 1.392 . S
C452 Eu423 2.828 . S
C452 O436 1.249 . S
C452 O437 1.244 . S
C452 C446 1.505 . S
C453 O440 1.258 . S
C453 O441 1.242 . S
H454 C426 0.930 . S
H455 C427 0.930 . S
H456 C428 0.930 . S
H457 C429 0.931 . S
H458 C447 0.930 . S
H459 C448 0.930 . S
H460 C449 0.930 . S
H461 C450 0.931 . S
Eu462 C471 2.828 . S
Eu462 O473 2.392 . S
Eu462 O475 2.418 . S
Eu462 O480 2.373 . S
Eu462 O483 2.488 . S
Eu462 O484 2.471 . S
Eu462 O485 2.349 . S
Eu463 O472 2.373 . S
Eu463 O476 2.488 . S
Eu463 O477 2.471 . S
Eu463 O478 2.349 . S
Eu463 O481 2.392 . S
Eu463 O482 2.418 . S
Eu463 C492 2.828 . S
C464 O482 1.244 . S
C464 O485 1.265 . S
C465 C466 1.379 . S
C465 C469 1.373 . S
C465 C471 1.505 . S
C466 C465 1.379 . S
C466 C468 1.369 . S
C466 H494 0.930 . S
C467 C469 1.383 . S
C467 C470 1.382 . S
C467 H495 0.930 . S
C468 C466 1.369 . S
C468 C470 1.392 . S
C468 H496 0.930 . S
C469 C465 1.373 . S
C469 C467 1.383 . S
C469 H497 0.931 . S
C470 C467 1.382 . S
C470 C468 1.392 . S
C471 Eu462 2.828 . S
C471 C465 1.505 . S
C471 O483 1.249 . S
C471 O484 1.244 . S
O472 Eu463 2.373 . S
O472 C474 1.258 . S
O473 Eu462 2.392 . S
O473 C474 1.242 . S
C474 O472 1.258 . S
C474 O473 1.242 . S
O475 Eu462 2.418 . S
O475 C479 1.244 . S
O476 Eu463 2.488 . S
O476 C492 1.249 . S
O477 Eu463 2.471 . S
O477 C492 1.244 . S
O478 Eu463 2.349 . S
O478 C479 1.265 . S
C479 O475 1.244 . S
C479 O478 1.265 . S
O480 Eu462 2.373 . S
O480 C493 1.258 . S
O481 Eu463 2.392 . S
O481 C493 1.242 . S
O482 Eu463 2.418 . S
O482 C464 1.244 . S
O483 Eu462 2.488 . S
O483 C471 1.249 . S
O484 Eu462 2.471 . S
O484 C471 1.244 . S
O485 Eu462 2.349 . S
O485 C464 1.265 . S
C486 C487 1.379 . S
C486 C490 1.373 . S
C486 C492 1.505 . S
C487 C486 1.379 . S
C487 C489 1.369 . S
C487 H498 0.930 . S
C488 C490 1.383 . S
C488 C491 1.382 . S
C488 H499 0.930 . S
C489 C487 1.369 . S
C489 C491 1.392 . S
C489 H500 0.930 . S
C490 C486 1.373 . S
C490 C488 1.383 . S
C490 H501 0.931 . S
C491 C488 1.382 . S
C491 C489 1.392 . S
C492 Eu463 2.828 . S
C492 O476 1.249 . S
C492 O477 1.244 . S
C492 C486 1.505 . S
C493 O480 1.258 . S
C493 O481 1.242 . S
H494 C466 0.930 . S
H495 C467 0.930 . S
H496 C468 0.930 . S
H497 C469 0.931 . S
H498 C487 0.930 . S
H499 C488 0.930 . S
H500 C489 0.930 . S
H501 C490 0.931 . S
Eu502 C511 2.828 . S
Eu502 O513 2.392 . S
Eu502 O515 2.418 . S
Eu502 O520 2.373 . S
Eu502 O523 2.488 . S
Eu502 O524 2.471 . S
Eu502 O525 2.349 . S
Eu503 O512 2.373 . S
Eu503 O516 2.488 . S
Eu503 O517 2.471 . S
Eu503 O518 2.349 . S
Eu503 O521 2.392 . S
Eu503 O522 2.418 . S
Eu503 C532 2.828 . S
C504 O522 1.244 . S
C504 O525 1.265 . S
C505 C506 1.379 . S
C505 C509 1.373 . S
C505 C511 1.505 . S
C506 C505 1.379 . S
C506 C508 1.369 . S
C506 H534 0.930 . S
C507 C509 1.383 . S
C507 C510 1.382 . S
C507 H535 0.930 . S
C508 C506 1.369 . S
C508 C510 1.392 . S
C508 H536 0.930 . S
C509 C505 1.373 . S
C509 C507 1.383 . S
C509 H537 0.931 . S
C510 C507 1.382 . S
C510 C508 1.392 . S
C511 Eu502 2.828 . S
C511 C505 1.505 . S
C511 O523 1.249 . S
C511 O524 1.244 . S
O512 Eu503 2.373 . S
O512 C514 1.258 . S
O513 Eu502 2.392 . S
O513 C514 1.242 . S
C514 O512 1.258 . S
C514 O513 1.242 . S
O515 Eu502 2.418 . S
O515 C519 1.244 . S
O516 Eu503 2.488 . S
O516 C532 1.249 . S
O517 Eu503 2.471 . S
O517 C532 1.244 . S
O518 Eu503 2.349 . S
O518 C519 1.265 . S
C519 O515 1.244 . S
C519 O518 1.265 . S
O520 Eu502 2.373 . S
O520 C533 1.258 . S
O521 Eu503 2.392 . S
O521 C533 1.242 . S
O522 Eu503 2.418 . S
O522 C504 1.244 . S
O523 Eu502 2.488 . S
O523 C511 1.249 . S
O524 Eu502 2.471 . S
O524 C511 1.244 . S
O525 Eu502 2.349 . S
O525 C504 1.265 . S
C526 C527 1.379 . S
C526 C530 1.373 . S
C526 C532 1.505 . S
C527 C526 1.379 . S
C527 C529 1.369 . S
C527 H538 0.930 . S
C528 C530 1.383 . S
C528 C531 1.382 . S
C528 H539 0.930 . S
C529 C527 1.369 . S
C529 C531 1.392 . S
C529 H540 0.930 . S
C530 C526 1.373 . S
C530 C528 1.383 . S
C530 H541 0.931 . S
C531 C528 1.382 . S
C531 C529 1.392 . S
C532 Eu503 2.828 . S
C532 O516 1.249 . S
C532 O517 1.244 . S
C532 C526 1.505 . S
C533 O520 1.258 . S
C533 O521 1.242 . S
H534 C506 0.930 . S
H535 C507 0.930 . S
H536 C508 0.930 . S
H537 C509 0.931 . S
H538 C527 0.930 . S
H539 C528 0.930 . S
H540 C529 0.930 . S
H541 C530 0.931 . S
Eu542 C551 2.828 . S
Eu542 O553 2.392 . S
Eu542 O555 2.418 . S
Eu542 O560 2.373 . S
Eu542 O563 2.488 . S
Eu542 O564 2.471 . S
Eu542 O565 2.349 . S
Eu543 O552 2.373 . S
Eu543 O556 2.488 . S
Eu543 O557 2.471 . S
Eu543 O558 2.349 . S
Eu543 O561 2.392 . S
Eu543 O562 2.418 . S
Eu543 C572 2.828 . S
C544 O562 1.244 . S
C544 O565 1.265 . S
C545 C546 1.379 . S
C545 C549 1.373 . S
C545 C551 1.505 . S
C546 C545 1.379 . S
C546 C548 1.369 . S
C546 H574 0.930 . S
C547 C549 1.383 . S
C547 C550 1.382 . S
C547 H575 0.930 . S
C548 C546 1.369 . S
C548 C550 1.392 . S
C548 H576 0.930 . S
C549 C545 1.373 . S
C549 C547 1.383 . S
C549 H577 0.931 . S
C550 C547 1.382 . S
C550 C548 1.392 . S
C551 Eu542 2.828 . S
C551 C545 1.505 . S
C551 O563 1.249 . S
C551 O564 1.244 . S
O552 Eu543 2.373 . S
O552 C554 1.258 . S
O553 Eu542 2.392 . S
O553 C554 1.242 . S
C554 O552 1.258 . S
C554 O553 1.242 . S
O555 Eu542 2.418 . S
O555 C559 1.244 . S
O556 Eu543 2.488 . S
O556 C572 1.249 . S
O557 Eu543 2.471 . S
O557 C572 1.244 . S
O558 Eu543 2.349 . S
O558 C559 1.265 . S
C559 O555 1.244 . S
C559 O558 1.265 . S
O560 Eu542 2.373 . S
O560 C573 1.258 . S
O561 Eu543 2.392 . S
O561 C573 1.242 . S
O562 Eu543 2.418 . S
O562 C544 1.244 . S
O563 Eu542 2.488 . S
O563 C551 1.249 . S
O564 Eu542 2.471 . S
O564 C551 1.244 . S
O565 Eu542 2.349 . S
O565 C544 1.265 . S
C566 C567 1.379 . S
C566 C570 1.373 . S
C566 C572 1.505 . S
C567 C566 1.379 . S
C567 C569 1.369 . S
C567 H578 0.930 . S
C568 C570 1.383 . S
C568 C571 1.382 . S
C568 H579 0.930 . S
C569 C567 1.369 . S
C569 C571 1.392 . S
C569 H580 0.930 . S
C570 C566 1.373 . S
C570 C568 1.383 . S
C570 H581 0.931 . S
C571 C568 1.382 . S
C571 C569 1.392 . S
C572 Eu543 2.828 . S
C572 O556 1.249 . S
C572 O557 1.244 . S
C572 C566 1.505 . S
C573 O560 1.258 . S
C573 O561 1.242 . S
H574 C546 0.930 . S
H575 C547 0.930 . S
H576 C548 0.930 . S
H577 C549 0.931 . S
H578 C567 0.930 . S
H579 C568 0.930 . S
H580 C569 0.930 . S
H581 C570 0.931 . S
Eu582 C591 2.828 . S
Eu582 O593 2.392 . S
Eu582 O595 2.418 . S
Eu582 O600 2.373 . S
Eu582 O603 2.488 . S
Eu582 O604 2.471 . S
Eu582 O605 2.349 . S
Eu583 O592 2.373 . S
Eu583 O596 2.488 . S
Eu583 O597 2.471 . S
Eu583 O598 2.349 . S
Eu583 O601 2.392 . S
Eu583 O602 2.418 . S
Eu583 C612 2.828 . S
C584 O602 1.244 . S
C584 O605 1.265 . S
C585 C586 1.379 . S
C585 C589 1.373 . S
C585 C591 1.505 . S
C586 C585 1.379 . S
C586 C588 1.369 . S
C586 H614 0.930 . S
C587 C589 1.383 . S
C587 C590 1.382 . S
C587 H615 0.930 . S
C588 C586 1.369 . S
C588 C590 1.392 . S
C588 H616 0.930 . S
C589 C585 1.373 . S
C589 C587 1.383 . S
C589 H617 0.931 . S
C590 C587 1.382 . S
C590 C588 1.392 . S
C591 Eu582 2.828 . S
C591 C585 1.505 . S
C591 O603 1.249 . S
C591 O604 1.244 . S
O592 Eu583 2.373 . S
O592 C594 1.258 . S
O593 Eu582 2.392 . S
O593 C594 1.242 . S
C594 O592 1.258 . S
C594 O593 1.242 . S
O595 Eu582 2.418 . S
O595 C599 1.244 . S
O596 Eu583 2.488 . S
O596 C612 1.249 . S
O597 Eu583 2.471 . S
O597 C612 1.244 . S
O598 Eu583 2.349 . S
O598 C599 1.265 . S
C599 O595 1.244 . S
C599 O598 1.265 . S
O600 Eu582 2.373 . S
O600 C613 1.258 . S
O601 Eu583 2.392 . S
O601 C613 1.242 . S
O602 Eu583 2.418 . S
O602 C584 1.244 . S
O603 Eu582 2.488 . S
O603 C591 1.249 . S
O604 Eu582 2.471 . S
O604 C591 1.244 . S
O605 Eu582 2.349 . S
O605 C584 1.265 . S
C606 C607 1.379 . S
C606 C610 1.373 . S
C606 C612 1.505 . S
C607 C606 1.379 . S
C607 C609 1.369 . S
C607 H618 0.930 . S
C608 C610 1.383 . S
C608 C611 1.382 . S
C608 H619 0.930 . S
C609 C607 1.369 . S
C609 C611 1.392 . S
C609 H620 0.930 . S
C610 C606 1.373 . S
C610 C608 1.383 . S
C610 H621 0.931 . S
C611 C608 1.382 . S
C611 C609 1.392 . S
C612 Eu583 2.828 . S
C612 O596 1.249 . S
C612 O597 1.244 . S
C612 C606 1.505 . S
C613 O600 1.258 . S
C613 O601 1.242 . S
H614 C586 0.930 . S
H615 C587 0.930 . S
H616 C588 0.930 . S
H617 C589 0.931 . S
H618 C607 0.930 . S
H619 C608 0.930 . S
H620 C609 0.930 . S
H621 C610 0.931 . S
Eu622 C631 2.828 . S
Eu622 O633 2.392 . S
Eu622 O635 2.418 . S
Eu622 O640 2.373 . S
Eu622 O643 2.488 . S
Eu622 O644 2.471 . S
Eu622 O645 2.349 . S
Eu623 O632 2.373 . S
Eu623 O636 2.488 . S
Eu623 O637 2.471 . S
Eu623 O638 2.349 . S
Eu623 O641 2.392 . S
Eu623 O642 2.418 . S
Eu623 C652 2.828 . S
C624 O642 1.244 . S
C624 O645 1.265 . S
C625 C626 1.379 . S
C625 C629 1.373 . S
C625 C631 1.505 . S
C626 C625 1.379 . S
C626 C628 1.369 . S
C626 H654 0.930 . S
C627 C629 1.383 . S
C627 C630 1.382 . S
C627 H655 0.930 . S
C628 C626 1.369 . S
C628 C630 1.392 . S
C628 H656 0.930 . S
C629 C625 1.373 . S
C629 C627 1.383 . S
C629 H657 0.931 . S
C630 C627 1.382 . S
C630 C628 1.392 . S
C631 Eu622 2.828 . S
C631 C625 1.505 . S
C631 O643 1.249 . S
C631 O644 1.244 . S
O632 Eu623 2.373 . S
O632 C634 1.258 . S
O633 Eu622 2.392 . S
O633 C634 1.242 . S
C634 O632 1.258 . S
C634 O633 1.242 . S
O635 Eu622 2.418 . S
O635 C639 1.244 . S
O636 Eu623 2.488 . S
O636 C652 1.249 . S
O637 Eu623 2.471 . S
O637 C652 1.244 . S
O638 Eu623 2.349 . S
O638 C639 1.265 . S
C639 O635 1.244 . S
C639 O638 1.265 . S
O640 Eu622 2.373 . S
O640 C653 1.258 . S
O641 Eu623 2.392 . S
O641 C653 1.242 . S
O642 Eu623 2.418 . S
O642 C624 1.244 . S
O643 Eu622 2.488 . S
O643 C631 1.249 . S
O644 Eu622 2.471 . S
O644 C631 1.244 . S
O645 Eu622 2.349 . S
O645 C624 1.265 . S
C646 C647 1.379 . S
C646 C650 1.373 . S
C646 C652 1.505 . S
C647 C646 1.379 . S
C647 C649 1.369 . S
C647 H658 0.930 . S
C648 C650 1.383 . S
C648 C651 1.382 . S
C648 H659 0.930 . S
C649 C647 1.369 . S
C649 C651 1.392 . S
C649 H660 0.930 . S
C650 C646 1.373 . S
C650 C648 1.383 . S
C650 H661 0.931 . S
C651 C648 1.382 . S
C651 C649 1.392 . S
C652 Eu623 2.828 . S
C652 O636 1.249 . S
C652 O637 1.244 . S
C652 C646 1.505 . S
C653 O640 1.258 . S
C653 O641 1.242 . S
H654 C626 0.930 . S
H655 C627 0.930 . S
H656 C628 0.930 . S
H657 C629 0.931 . S
H658 C647 0.930 . S
H659 C648 0.930 . S
H660 C649 0.930 . S
H661 C650 0.931 . S
Eu662 C671 2.828 . S
Eu662 O673 2.392 . S
Eu662 O675 2.418 . S
Eu662 O680 2.373 . S
Eu662 O683 2.488 . S
Eu662 O684 2.471 . S
Eu662 O685 2.349 . S
Eu663 O672 2.373 . S
Eu663 O676 2.488 . S
Eu663 O677 2.471 . S
Eu663 O678 2.349 . S
Eu663 O681 2.392 . S
Eu663 O682 2.418 . S
Eu663 C692 2.828 . S
C664 O682 1.244 . S
C664 O685 1.265 . S
C665 C666 1.379 . S
C665 C669 1.373 . S
C665 C671 1.505 . S
C666 C665 1.379 . S
C666 C668 1.369 . S
C666 H694 0.930 . S
C667 C669 1.383 . S
C667 C670 1.382 . S
C667 H695 0.930 . S
C668 C666 1.369 . S
C668 C670 1.392 . S
C668 H696 0.930 . S
C669 C665 1.373 . S
C669 C667 1.383 . S
C669 H697 0.931 . S
C670 C667 1.382 . S
C670 C668 1.392 . S
C671 Eu662 2.828 . S
C671 C665 1.505 . S
C671 O683 1.249 . S
C671 O684 1.244 . S
O672 Eu663 2.373 . S
O672 C674 1.258 . S
O673 Eu662 2.392 . S
O673 C674 1.242 . S
C674 O672 1.258 . S
C674 O673 1.242 . S
O675 Eu662 2.418 . S
O675 C679 1.244 . S
O676 Eu663 2.488 . S
O676 C692 1.249 . S
O677 Eu663 2.471 . S
O677 C692 1.244 . S
O678 Eu663 2.349 . S
O678 C679 1.265 . S
C679 O675 1.244 . S
C679 O678 1.265 . S
O680 Eu662 2.373 . S
O680 C693 1.258 . S
O681 Eu663 2.392 . S
O681 C693 1.242 . S
O682 Eu663 2.418 . S
O682 C664 1.244 . S
O683 Eu662 2.488 . S
O683 C671 1.249 . S
O684 Eu662 2.471 . S
O684 C671 1.244 . S
O685 Eu662 2.349 . S
O685 C664 1.265 . S
C686 C687 1.379 . S
C686 C690 1.373 . S
C686 C692 1.505 . S
C687 C686 1.379 . S
C687 C689 1.369 . S
C687 H698 0.930 . S
C688 C690 1.383 . S
C688 C691 1.382 . S
C688 H699 0.930 . S
C689 C687 1.369 . S
C689 C691 1.392 . S
C689 H700 0.930 . S
C690 C686 1.373 . S
C690 C688 1.383 . S
C690 H701 0.931 . S
C691 C688 1.382 . S
C691 C689 1.392 . S
C692 Eu663 2.828 . S
C692 O676 1.249 . S
C692 O677 1.244 . S
C692 C686 1.505 . S
C693 O680 1.258 . S
C693 O681 1.242 . S
H694 C666 0.930 . S
H695 C667 0.930 . S
H696 C668 0.930 . S
H697 C669 0.931 . S
H698 C687 0.930 . S
H699 C688 0.930 . S
H700 C689 0.930 . S
H701 C690 0.931 . S
H702 C708 0.930 . S
H703 C711 0.930 . S
H704 C712 0.930 . S
H705 C713 0.930 . S
H706 C716 0.930 . S
H707 C717 0.930 . S
C708 H702 0.930 . S
C708 C709 1.355 . S
C708 C710 1.415 . S
C709 C708 1.355 . S
C709 C711 1.419 . S
C710 C708 1.415 . S
C710 C715 1.425 . S
C710 C717 1.409 . S
C711 H703 0.930 . S
C711 C709 1.419 . S
C711 C712 1.362 . S
C712 H704 0.930 . S
C712 C711 1.362 . S
C712 C715 1.409 . S
C713 H705 0.930 . S
C713 C714 1.355 . S
C713 C715 1.415 . S
C714 C713 1.355 . S
C714 C716 1.419 . S
C715 C710 1.425 . S
C715 C712 1.409 . S
C715 C713 1.415 . S
C716 H706 0.930 . S
C716 C714 1.419 . S
C716 C717 1.362 . S
C717 H707 0.930 . S
C717 C710 1.409 . S
C717 C716 1.362 . S
H718 C724 0.930 . S
H719 C727 0.930 . S
H720 C728 0.930 . S
H721 C729 0.930 . S
H722 C732 0.930 1_556 S
H723 C733 0.930 . S
C724 H718 0.930 . S
C724 C725 1.355 . S
C724 C726 1.415 . S
C725 C724 1.355 . S
C725 C727 1.419 . S
C726 C724 1.415 . S
C726 C731 1.425 . S
C726 C733 1.409 . S
C727 H719 0.930 . S
C727 C725 1.419 . S
C727 C728 1.362 . S
C728 H720 0.930 . S
C728 C727 1.362 . S
C728 C731 1.409 . S
C729 H721 0.930 . S
C729 C730 1.355 . S
C729 C731 1.415 . S
C730 C729 1.355 . S
C730 C732 1.419 . S
C731 C726 1.425 . S
C731 C728 1.409 . S
C731 C729 1.415 . S
C732 H722 0.930 1_554 S
C732 C730 1.419 . S
C732 C733 1.362 . S
C733 H723 0.930 . S
C733 C726 1.409 . S
C733 C732 1.362 . S
H734 C740 0.930 . S
H735 C743 0.930 . S
H736 C744 0.930 . S
H737 C745 0.930 . S
H738 C748 0.930 . S
H739 C749 0.930 . S
C740 H734 0.930 . S
C740 C741 1.355 . S
C740 C742 1.415 . S
C741 C740 1.355 . S
C741 C743 1.419 . S
C742 C740 1.415 . S
C742 C747 1.425 . S
C742 C749 1.409 . S
C743 H735 0.930 . S
C743 C741 1.419 . S
C743 C744 1.362 . S
C744 H736 0.930 . S
C744 C743 1.362 . S
C744 C747 1.409 . S
C745 H737 0.930 . S
C745 C746 1.355 . S
C745 C747 1.415 . S
C746 C745 1.355 . S
C746 C748 1.419 . S
C747 C742 1.425 . S
C747 C744 1.409 . S
C747 C745 1.415 . S
C748 H738 0.930 . S
C748 C746 1.419 . S
C748 C749 1.362 . S
C749 H739 0.930 . S
C749 C742 1.409 . S
C749 C748 1.362 . S
H750 C756 0.930 . S
H751 C759 0.930 . S
H752 C760 0.930 1_554 S
H753 C761 0.930 1_554 S
H754 C764 0.930 . S
H755 C765 0.930 . S
C756 H750 0.930 . S
C756 C757 1.355 . S
C756 C758 1.415 . S
C757 C756 1.355 . S
C757 C759 1.419 . S
C758 C756 1.415 . S
C758 C763 1.425 . S
C758 C765 1.409 . S
C759 H751 0.930 . S
C759 C757 1.419 . S
C759 C760 1.362 . S
C760 H752 0.930 1_556 S
C760 C759 1.362 . S
C760 C763 1.409 . S
C761 H753 0.930 1_556 S
C761 C762 1.355 . S
C761 C763 1.415 . S
C762 C761 1.355 . S
C762 C764 1.419 . S
C763 C758 1.425 . S
C763 C760 1.409 . S
C763 C761 1.415 . S
C764 H754 0.930 . S
C764 C762 1.419 . S
C764 C765 1.362 . S
C765 H755 0.930 . S
C765 C758 1.409 . S
C765 C764 1.362 . S
H766 C772 0.930 . S
H767 C775 0.930 . S
H768 C776 0.930 1_554 S
H769 C777 0.930 1_554 S
H770 C780 0.930 . S
H771 C781 0.930 . S
C772 H766 0.930 . S
C772 C773 1.355 . S
C772 C774 1.415 . S
C773 C772 1.355 . S
C773 C775 1.419 . S
C774 C772 1.415 . S
C774 C779 1.425 . S
C774 C781 1.409 . S
C775 H767 0.930 . S
C775 C773 1.419 . S
C775 C776 1.362 . S
C776 H768 0.930 1_556 S
C776 C775 1.362 . S
C776 C779 1.409 . S
C777 H769 0.930 1_556 S
C777 C778 1.355 . S
C777 C779 1.415 . S
C778 C777 1.355 . S
C778 C780 1.419 . S
C779 C774 1.425 . S
C779 C776 1.409 . S
C779 C777 1.415 . S
C780 H770 0.930 . S
C780 C778 1.419 . S
C780 C781 1.362 . S
C781 H771 0.930 . S
C781 C774 1.409 . S
C781 C780 1.362 . S
H782 C788 0.930 . S
H783 C791 0.930 . S
H784 C792 0.930 . S
H785 C793 0.930 . S
H786 C796 0.930 . S
H787 C797 0.930 . S
C788 H782 0.930 . S
C788 C789 1.355 1_554 S
C788 C790 1.415 . S
C789 C788 1.355 1_556 S
C789 C791 1.419 . S
C790 C788 1.415 . S
C790 C795 1.425 1_554 S
C790 C797 1.409 . S
C791 H783 0.930 . S
C791 C789 1.419 . S
C791 C792 1.362 . S
C792 H784 0.930 . S
C792 C791 1.362 . S
C792 C795 1.409 . S
C793 H785 0.930 . S
C793 C794 1.355 . S
C793 C795 1.415 . S
C794 C793 1.355 . S
C794 C796 1.419 1_556 S
C795 C790 1.425 1_556 S
C795 C792 1.409 . S
C795 C793 1.415 . S
C796 H786 0.930 . S
C796 C794 1.419 1_554 S
C796 C797 1.362 . S
C797 H787 0.930 . S
C797 C790 1.409 . S
C797 C796 1.362 . S
H798 C804 0.930 . S
H799 C807 0.930 . S
H800 C808 0.930 . S
H801 C809 0.930 . S
H802 C812 0.930 . S
H803 C813 0.930 . S
C804 H798 0.930 . S
C804 C805 1.355 . S
C804 C806 1.415 . S
C805 C804 1.355 . S
C805 C807 1.419 . S
C806 C804 1.415 . S
C806 C811 1.425 . S
C806 C813 1.409 . S
C807 H799 0.930 . S
C807 C805 1.419 . S
C807 C808 1.362 . S
C808 H800 0.930 . S
C808 C807 1.362 . S
C808 C811 1.409 . S
C809 H801 0.930 . S
C809 C810 1.355 . S
C809 C811 1.415 . S
C810 C809 1.355 . S
C810 C812 1.419 . S
C811 C806 1.425 . S
C811 C808 1.409 . S
C811 C809 1.415 . S
C812 H802 0.930 . S
C812 C810 1.419 . S
C812 C813 1.362 . S
C813 H803 0.930 . S
C813 C806 1.409 . S
C813 C812 1.362 . S
H814 C820 0.930 . S
H815 C823 0.930 . S
H816 C824 0.930 . S
H817 C825 0.930 . S
H818 C828 0.930 1_554 S
H819 C829 0.930 1_554 S
C820 H814 0.930 . S
C820 C821 1.355 . S
C820 C822 1.415 . S
C821 C820 1.355 . S
C821 C823 1.419 . S
C822 C820 1.415 . S
C822 C827 1.425 . S
C822 C829 1.409 . S
C823 H815 0.930 . S
C823 C821 1.419 . S
C823 C824 1.362 . S
C824 H816 0.930 . S
C824 C823 1.362 . S
C824 C827 1.409 . S
C825 H817 0.930 . S
C825 C826 1.355 . S
C825 C827 1.415 . S
C826 C825 1.355 . S
C826 C828 1.419 . S
C827 C822 1.425 . S
C827 C824 1.409 . S
C827 C825 1.415 . S
C828 H818 0.930 1_556 S
C828 C826 1.419 . S
C828 C829 1.362 . S
C829 H819 0.930 1_556 S
C829 C822 1.409 . S
C829 C828 1.362 . S
H830 C836 0.930 . S
H831 C839 0.930 . S
H832 C840 0.930 . S
H833 C841 0.930 . S
H834 C844 0.930 . S
H835 C845 0.930 . S
C836 H830 0.930 . S
C836 C837 1.355 1_556 S
C836 C838 1.415 . S
C837 C836 1.355 1_554 S
C837 C839 1.419 . S
C838 C836 1.415 . S
C838 C843 1.425 1_556 S
C838 C845 1.409 . S
C839 H831 0.930 . S
C839 C837 1.419 . S
C839 C840 1.362 . S
C840 H832 0.930 . S
C840 C839 1.362 . S
C840 C843 1.409 . S
C841 H833 0.930 . S
C841 C842 1.355 . S
C841 C843 1.415 . S
C842 C841 1.355 . S
C842 C844 1.419 1_554 S
C843 C838 1.425 1_554 S
C843 C840 1.409 . S
C843 C841 1.415 . S
C844 H834 0.930 . S
C844 C842 1.419 1_556 S
C844 C845 1.362 . S
C845 H835 0.930 . S
C845 C838 1.409 . S
C845 C844 1.362 . S
H846 C852 0.930 . S
H847 C855 0.930 . S
H848 C856 0.930 . S
H849 C857 0.930 . S
H850 C860 0.930 . S
H851 C861 0.930 . S
C852 H846 0.930 . S
C852 C853 1.355 . S
C852 C854 1.415 . S
C853 C852 1.355 . S
C853 C855 1.419 . S
C854 C852 1.415 . S
C854 C859 1.425 . S
C854 C861 1.409 . S
C855 H847 0.930 . S
C855 C853 1.419 . S
C855 C856 1.362 . S
C856 H848 0.930 . S
C856 C855 1.362 . S
C856 C859 1.409 . S
C857 H849 0.930 . S
C857 C858 1.355 . S
C857 C859 1.415 . S
C858 C857 1.355 . S
C858 C860 1.419 . S
C859 C854 1.425 . S
C859 C856 1.409 . S
C859 C857 1.415 . S
C860 H850 0.930 . S
C860 C858 1.419 . S
C860 C861 1.362 . S
C861 H851 0.930 . S
C861 C854 1.409 . S
C861 C860 1.362 . S
H862 C868 0.930 . S
H863 C871 0.930 . S
H864 C872 0.930 . S
H865 C873 0.930 . S
H866 C876 0.930 . S
H867 C877 0.930 . S
C868 H862 0.930 . S
C868 C869 1.355 . S
C868 C870 1.415 . S
C869 C868 1.355 . S
C869 C871 1.419 . S
C870 C868 1.415 . S
C870 C875 1.425 . S
C870 C877 1.409 . S
C871 H863 0.930 . S
C871 C869 1.419 . S
C871 C872 1.362 . S
C872 H864 0.930 . S
C872 C871 1.362 . S
C872 C875 1.409 . S
C873 H865 0.930 . S
C873 C874 1.355 . S
C873 C875 1.415 . S
C874 C873 1.355 . S
C874 C876 1.419 . S
C875 C870 1.425 . S
C875 C872 1.409 . S
C875 C873 1.415 . S
C876 H866 0.930 . S
C876 C874 1.419 . S
C876 C877 1.362 . S
C877 H867 0.930 . S
C877 C870 1.409 . S
C877 C876 1.362 . S
H878 C884 0.930 . S
H879 C887 0.930 . S
H880 C888 0.930 . S
H881 C889 0.930 . S
H882 C892 0.930 . S
H883 C893 0.930 . S
C884 H878 0.930 . S
C884 C885 1.355 . S
C884 C886 1.415 . S
C885 C884 1.355 . S
C885 C887 1.419 1_554 S
C886 C884 1.415 . S
C886 C891 1.425 1_554 S
C886 C893 1.409 . S
C887 H879 0.930 . S
C887 C885 1.419 1_556 S
C887 C888 1.362 . S
C888 H880 0.930 . S
C888 C887 1.362 . S
C888 C891 1.409 . S
C889 H881 0.930 . S
C889 C890 1.355 1_556 S
C889 C891 1.415 . S
C890 C889 1.355 1_554 S
C890 C892 1.419 . S
C891 C886 1.425 1_556 S
C891 C888 1.409 . S
C891 C889 1.415 . S
C892 H882 0.930 . S
C892 C890 1.419 . S
C892 C893 1.362 . S
C893 H883 0.930 . S
C893 C886 1.409 . S
C893 C892 1.362 . S
H894 C900 0.930 . S
H895 C903 0.930 . S
H896 C904 0.930 1_455 S
H897 C905 0.930 . S
H898 C908 0.930 . S
H899 C909 0.930 . S
C900 H894 0.930 . S
C900 C901 1.355 . S
C900 C902 1.415 . S
C901 C900 1.355 . S
C901 C903 1.419 . S
C902 C900 1.415 . S
C902 C907 1.425 . S
C902 C909 1.409 . S
C903 H895 0.930 . S
C903 C901 1.419 . S
C903 C904 1.362 . S
C904 H896 0.930 1_655 S
C904 C903 1.362 . S
C904 C907 1.409 . S
C905 H897 0.930 . S
C905 C906 1.355 . S
C905 C907 1.415 1_455 S
C906 C905 1.355 . S
C906 C908 1.419 . S
C907 C902 1.425 . S
C907 C904 1.409 . S
C907 C905 1.415 1_655 S
C908 H898 0.930 . S
C908 C906 1.419 . S
C908 C909 1.362 1_455 S
C909 H899 0.930 . S
C909 C902 1.409 . S
C909 C908 1.362 1_655 S
H910 C916 0.930 . S
H911 C919 0.930 . S
H912 C920 0.930 . S
H913 C921 0.930 . S
H914 C924 0.930 . S
H915 C925 0.930 . S
C916 H910 0.930 . S
C916 C917 1.355 . S
C916 C918 1.415 . S
C917 C916 1.355 . S
C917 C919 1.419 . S
C918 C916 1.415 . S
C918 C923 1.425 . S
C918 C925 1.409 . S
C919 H911 0.930 . S
C919 C917 1.419 . S
C919 C920 1.362 . S
C920 H912 0.930 . S
C920 C919 1.362 . S
C920 C923 1.409 . S
C921 H913 0.930 . S
C921 C922 1.355 . S
C921 C923 1.415 . S
C922 C921 1.355 . S
C922 C924 1.419 . S
C923 C918 1.425 . S
C923 C920 1.409 . S
C923 C921 1.415 . S
C924 H914 0.930 . S
C924 C922 1.419 . S
C924 C925 1.362 . S
C925 H915 0.930 . S
C925 C918 1.409 . S
C925 C924 1.362 . S
H926 C932 0.930 . S
H927 C935 0.930 . S
H928 C936 0.930 . S
H929 C937 0.930 . S
H930 C940 0.930 . S
H931 C941 0.930 . S
C932 H926 0.930 . S
C932 C933 1.355 . S
C932 C934 1.415 . S
C933 C932 1.355 . S
C933 C935 1.419 . S
C934 C932 1.415 . S
C934 C939 1.425 . S
C934 C941 1.409 1_545 S
C935 H927 0.930 . S
C935 C933 1.419 . S
C935 C936 1.362 . S
C936 H928 0.930 . S
C936 C935 1.362 . S
C936 C939 1.409 . S
C937 H929 0.930 . S
C937 C938 1.355 . S
C937 C939 1.415 1_565 S
C938 C937 1.355 . S
C938 C940 1.419 . S
C939 C934 1.425 . S
C939 C936 1.409 . S
C939 C937 1.415 1_545 S
C940 H930 0.930 . S
C940 C938 1.419 . S
C940 C941 1.362 . S
C941 H931 0.930 . S
C941 C934 1.409 1_565 S
C941 C940 1.362 . S
H942 C948 0.930 . S
H943 C951 0.930 . S
H944 C952 0.930 . S
H945 C953 0.930 . S
H946 C956 0.930 . S
H947 C957 0.930 . S
C948 H942 0.930 . S
C948 C949 1.355 . S
C948 C950 1.415 . S
C949 C948 1.355 . S
C949 C951 1.419 . S
C950 C948 1.415 . S
C950 C955 1.425 . S
C950 C957 1.409 . S
C951 H943 0.930 . S
C951 C949 1.419 . S
C951 C952 1.362 . S
C952 H944 0.930 . S
C952 C951 1.362 . S
C952 C955 1.409 . S
C953 H945 0.930 . S
C953 C954 1.355 . S
C953 C955 1.415 . S
C954 C953 1.355 . S
C954 C956 1.419 . S
C955 C950 1.425 . S
C955 C952 1.409 . S
C955 C953 1.415 . S
C956 H946 0.930 . S
C956 C954 1.419 . S
C956 C957 1.362 . S
C957 H947 0.930 . S
C957 C950 1.409 . S
C957 C956 1.362 . S
H958 C964 0.930 . S
H959 C967 0.930 . S
H960 C968 0.930 . S
H961 C969 0.930 . S
H962 C972 0.930 . S
H963 C973 0.930 . S
C964 H958 0.930 . S
C964 C965 1.355 . S
C964 C966 1.415 . S
C965 C964 1.355 . S
C965 C967 1.419 . S
C966 C964 1.415 . S
C966 C971 1.425 . S
C966 C973 1.409 . S
C967 H959 0.930 . S
C967 C965 1.419 . S
C967 C968 1.362 . S
C968 H960 0.930 . S
C968 C967 1.362 . S
C968 C971 1.409 . S
C969 H961 0.930 . S
C969 C970 1.355 . S
C969 C971 1.415 . S
C970 C969 1.355 . S
C970 C972 1.419 . S
C971 C966 1.425 . S
C971 C968 1.409 . S
C971 C969 1.415 . S
C972 H962 0.930 . S
C972 C970 1.419 . S
C972 C973 1.362 . S
C973 H963 0.930 . S
C973 C966 1.409 . S
C973 C972 1.362 . S
H974 C980 0.930 . S
H975 C983 0.930 . S
H976 C984 0.930 . S
H977 C985 0.930 . S
H978 C988 0.930 . S
H979 C989 0.930 . S
C980 H974 0.930 . S
C980 C981 1.355 . S
C980 C982 1.415 . S
C981 C980 1.355 . S
C981 C983 1.419 . S
C982 C980 1.415 . S
C982 C987 1.425 . S
C982 C989 1.409 . S
C983 H975 0.930 . S
C983 C981 1.419 . S
C983 C984 1.362 . S
C984 H976 0.930 . S
C984 C983 1.362 . S
C984 C987 1.409 . S
C985 H977 0.930 . S
C985 C986 1.355 . S
C985 C987 1.415 . S
C986 C985 1.355 . S
C986 C988 1.419 . S
C987 C982 1.425 . S
C987 C984 1.409 . S
C987 C985 1.415 . S
C988 H978 0.930 . S
C988 C986 1.419 . S
C988 C989 1.362 . S
C989 H979 0.930 . S
C989 C982 1.409 . S
C989 C988 1.362 . S
H990 C996 0.930 . S
H991 C999 0.930 . S
H992 C1000 0.930 . S
H993 C1001 0.930 . S
H994 C1004 0.930 . S
H995 C1005 0.930 . S
C996 H990 0.930 . S
C996 C997 1.355 . S
C996 C998 1.415 . S
C997 C996 1.355 . S
C997 C999 1.419 . S
C998 C996 1.415 . S
C998 C1003 1.425 . S
C998 C1005 1.409 . S
C999 H991 0.930 . S
C999 C997 1.419 . S
C999 C1000 1.362 . S
C1000 H992 0.930 . S
C1000 C999 1.362 . S
C1000 C1003 1.409 . S
C1001 H993 0.930 . S
C1001 C1002 1.355 . S
C1001 C1003 1.415 . S
C1002 C1001 1.355 . S
C1002 C1004 1.419 . S
C1003 C998 1.425 . S
C1003 C1000 1.409 . S
C1003 C1001 1.415 . S
C1004 H994 0.930 . S
C1004 C1002 1.419 . S
C1004 C1005 1.362 . S
C1005 H995 0.930 . S
C1005 C998 1.409 . S
C1005 C1004 1.362 . S
H1006 C1012 0.930 . S
H1007 C1015 0.930 . S
H1008 C1016 0.930 . S
H1009 C1017 0.930 . S
H1010 C1020 0.930 . S
H1011 C1021 0.930 . S
C1012 H1006 0.930 . S
C1012 C1013 1.355 . S
C1012 C1014 1.415 . S
C1013 C1012 1.355 . S
C1013 C1015 1.419 . S
C1014 C1012 1.415 . S
C1014 C1019 1.425 . S
C1014 C1021 1.409 . S
C1015 H1007 0.930 . S
C1015 C1013 1.419 . S
C1015 C1016 1.362 . S
C1016 H1008 0.930 . S
C1016 C1015 1.362 . S
C1016 C1019 1.409 . S
C1017 H1009 0.930 . S
C1017 C1018 1.355 . S
C1017 C1019 1.415 . S
C1018 C1017 1.355 . S
C1018 C1020 1.419 . S
C1019 C1014 1.425 . S
C1019 C1016 1.409 . S
C1019 C1017 1.415 . S
C1020 H1010 0.930 . S
C1020 C1018 1.419 . S
C1020 C1021 1.362 . S
C1021 H1011 0.930 . S
C1021 C1014 1.409 . S
C1021 C1020 1.362 . S
H1022 C1028 0.930 . S
H1023 C1031 0.930 . S
H1024 C1032 0.930 . S
H1025 C1033 0.930 . S
H1026 C1036 0.930 . S
H1027 C1037 0.930 . S
C1028 H1022 0.930 . S
C1028 C1029 1.355 . S
C1028 C1030 1.415 . S
C1029 C1028 1.355 . S
C1029 C1031 1.419 . S
C1030 C1028 1.415 . S
C1030 C1035 1.425 . S
C1030 C1037 1.409 . S
C1031 H1023 0.930 . S
C1031 C1029 1.419 . S
C1031 C1032 1.362 . S
C1032 H1024 0.930 . S
C1032 C1031 1.362 . S
C1032 C1035 1.409 . S
C1033 H1025 0.930 . S
C1033 C1034 1.355 . S
C1033 C1035 1.415 . S
C1034 C1033 1.355 . S
C1034 C1036 1.419 . S
C1035 C1030 1.425 . S
C1035 C1032 1.409 . S
C1035 C1033 1.415 . S
C1036 H1026 0.930 . S
C1036 C1034 1.419 . S
C1036 C1037 1.362 . S
C1037 H1027 0.930 . S
C1037 C1030 1.409 . S
C1037 C1036 1.362 . S
H1038 C1044 0.930 . S
H1039 C1047 0.968 . S
H1040 C1048 0.930 . S
H1041 C1049 0.930 . S
H1042 C1052 0.930 . S
H1043 C1053 0.930 . S
C1044 H1038 0.930 . S
C1044 C1045 1.355 . S
C1044 C1046 1.415 . S
C1045 C1044 1.355 . S
C1045 C1047 1.419 . S
C1046 C1044 1.415 . S
C1046 C1051 1.425 . S
C1046 C1053 1.409 . S
C1047 H1039 0.968 . S
C1047 C1045 1.419 . S
C1047 C1048 1.362 . S
C1048 H1040 0.930 . S
C1048 C1047 1.362 . S
C1048 C1051 1.409 . S
C1049 H1041 0.930 . S
C1049 C1050 1.355 . S
C1049 C1051 1.415 . S
C1050 C1049 1.355 . S
C1050 C1052 1.419 . S
C1051 C1046 1.425 . S
C1051 C1048 1.409 . S
C1051 C1049 1.415 . S
C1052 H1042 0.930 . S
C1052 C1050 1.419 . S
C1052 C1053 1.362 . S
C1053 H1043 0.930 . S
C1053 C1046 1.409 . S
C1053 C1052 1.362 . S
H1054 C1060 0.930 . S
H1055 C1063 0.930 . S
H1056 C1064 0.930 . S
H1057 C1065 0.930 . S
H1058 C1068 0.930 . S
H1059 C1069 0.930 . S
C1060 H1054 0.930 . S
C1060 C1061 1.355 . S
C1060 C1062 1.415 . S
C1061 C1060 1.355 . S
C1061 C1063 1.419 . S
C1062 C1060 1.415 . S
C1062 C1067 1.425 . S
C1062 C1069 1.409 . S
C1063 H1055 0.930 . S
C1063 C1061 1.419 . S
C1063 C1064 1.362 . S
C1064 H1056 0.930 . S
C1064 C1063 1.362 . S
C1064 C1067 1.409 . S
C1065 H1057 0.930 . S
C1065 C1066 1.355 . S
C1065 C1067 1.415 . S
C1066 C1065 1.355 . S
C1066 C1068 1.419 . S
C1067 C1062 1.425 . S
C1067 C1064 1.409 . S
C1067 C1065 1.415 . S
C1068 H1058 0.930 . S
C1068 C1066 1.419 . S
C1068 C1069 1.362 . S
C1069 H1059 0.930 . S
C1069 C1062 1.409 . S
C1069 C1068 1.362 . S
H1070 C1076 0.930 . S
H1071 C1079 0.930 . S
H1072 C1080 0.930 . S
H1073 C1081 0.930 . S
H1074 C1084 0.930 . S
H1075 C1085 0.930 . S
C1076 H1070 0.930 . S
C1076 C1077 1.355 . S
C1076 C1078 1.415 . S
C1077 C1076 1.355 . S
C1077 C1079 1.419 . S
C1078 C1076 1.415 . S
C1078 C1083 1.425 . S
C1078 C1085 1.409 . S
C1079 H1071 0.930 . S
C1079 C1077 1.419 . S
C1079 C1080 1.362 . S
C1080 H1072 0.930 . S
C1080 C1079 1.362 . S
C1080 C1083 1.409 . S
C1081 H1073 0.930 . S
C1081 C1082 1.355 . S
C1081 C1083 1.415 . S
C1082 C1081 1.355 . S
C1082 C1084 1.419 . S
C1083 C1078 1.425 . S
C1083 C1080 1.409 . S
C1083 C1081 1.415 . S
C1084 H1074 0.930 . S
C1084 C1082 1.419 . S
C1084 C1085 1.362 . S
C1085 H1075 0.930 . S
C1085 C1078 1.409 . S
C1085 C1084 1.362 . S
H1086 C1092 0.930 . S
H1087 C1095 0.930 . S
H1088 C1096 0.930 . S
H1089 C1097 0.930 . S
H1090 C1100 0.930 . S
H1091 C1101 0.930 . S
C1092 H1086 0.930 . S
C1092 C1093 1.355 . S
C1092 C1094 1.415 . S
C1093 C1092 1.355 . S
C1093 C1095 1.419 . S
C1094 C1092 1.415 . S
C1094 C1099 1.425 . S
C1094 C1101 1.409 . S
C1095 H1087 0.930 . S
C1095 C1093 1.419 . S
C1095 C1096 1.362 . S
C1096 H1088 0.930 . S
C1096 C1095 1.362 . S
C1096 C1099 1.409 . S
C1097 H1089 0.930 . S
C1097 C1098 1.355 . S
C1097 C1099 1.415 . S
C1098 C1097 1.355 . S
C1098 C1100 1.419 . S
C1099 C1094 1.425 . S
C1099 C1096 1.409 . S
C1099 C1097 1.415 . S
C1100 H1090 0.930 . S
C1100 C1098 1.419 . S
C1100 C1101 1.362 . S
C1101 H1091 0.930 . S
C1101 C1094 1.409 . S
C1101 C1100 1.362 . S
H1102 C1108 0.930 . S
H1103 C1111 0.930 . S
H1104 C1112 0.930 . S
H1105 C1113 0.930 . S
H1106 C1116 0.930 . S
H1107 C1117 0.930 . S
C1108 H1102 0.930 . S
C1108 C1109 1.355 . S
C1108 C1110 1.415 . S
C1109 C1108 1.355 . S
C1109 C1111 1.419 . S
C1110 C1108 1.415 . S
C1110 C1115 1.425 . S
C1110 C1117 1.409 . S
C1111 H1103 0.930 . S
C1111 C1109 1.419 . S
C1111 C1112 1.362 . S
C1112 H1104 0.930 . S
C1112 C1111 1.362 . S
C1112 C1115 1.409 . S
C1113 H1105 0.930 . S
C1113 C1114 1.355 . S
C1113 C1115 1.415 . S
C1114 C1113 1.355 . S
C1114 C1116 1.419 . S
C1115 C1110 1.425 . S
C1115 C1112 1.409 . S
C1115 C1113 1.415 . S
C1116 H1106 0.930 . S
C1116 C1114 1.419 . S
C1116 C1117 1.362 . S
C1117 H1107 0.930 . S
C1117 C1110 1.409 . S
C1117 C1116 1.362 . S
H1118 C1124 0.930 . S
H1119 C1127 0.930 . S
H1120 C1128 0.930 . S
H1121 C1129 0.930 . S
H1122 C1132 0.930 . S
H1123 C1133 0.930 . S
C1124 H1118 0.930 . S
C1124 C1125 1.355 . S
C1124 C1126 1.415 . S
C1125 C1124 1.355 . S
C1125 C1127 1.419 . S
C1126 C1124 1.415 . S
C1126 C1131 1.425 . S
C1126 C1133 1.409 . S
C1127 H1119 0.930 . S
C1127 C1125 1.419 . S
C1127 C1128 1.362 . S
C1128 H1120 0.930 . S
C1128 C1127 1.362 . S
C1128 C1131 1.409 . S
C1129 H1121 0.930 . S
C1129 C1130 1.355 . S
C1129 C1131 1.415 . S
C1130 C1129 1.355 . S
C1130 C1132 1.419 . S
C1131 C1126 1.425 . S
C1131 C1128 1.409 . S
C1131 C1129 1.415 . S
C1132 H1122 0.930 . S
C1132 C1130 1.419 . S
C1132 C1133 1.362 . S
C1133 H1123 0.930 . S
C1133 C1126 1.409 . S
C1133 C1132 1.362 . S
H1134 C1140 0.930 . S
H1135 C1143 0.930 . S
H1136 C1144 0.930 . S
H1137 C1145 0.930 . S
H1138 C1148 0.930 . S
H1139 C1149 0.930 . S
C1140 H1134 0.930 . S
C1140 C1141 1.355 . S
C1140 C1142 1.415 . S
C1141 C1140 1.355 . S
C1141 C1143 1.419 . S
C1142 C1140 1.415 . S
C1142 C1147 1.425 . S
C1142 C1149 1.409 1_565 S
C1143 H1135 0.930 . S
C1143 C1141 1.419 . S
C1143 C1144 1.362 . S
C1144 H1136 0.930 . S
C1144 C1143 1.362 . S
C1144 C1147 1.409 . S
C1145 H1137 0.930 . S
C1145 C1146 1.355 . S
C1145 C1147 1.415 1_545 S
C1146 C1145 1.355 . S
C1146 C1148 1.419 . S
C1147 C1142 1.425 . S
C1147 C1144 1.409 . S
C1147 C1145 1.415 1_565 S
C1148 H1138 0.930 . S
C1148 C1146 1.419 . S
C1148 C1149 1.362 . S
C1149 H1139 0.930 . S
C1149 C1142 1.409 1_545 S
C1149 C1148 1.362 . S
H1150 C1156 0.930 . S
H1151 C1159 0.930 . S
H1152 C1160 0.930 . S
H1153 C1161 0.930 . S
H1154 C1164 0.930 . S
H1155 C1165 0.930 . S
C1156 H1150 0.930 . S
C1156 C1157 1.355 . S
C1156 C1158 1.415 . S
C1157 C1156 1.355 . S
C1157 C1159 1.419 . S
C1158 C1156 1.415 . S
C1158 C1163 1.425 1_455 S
C1158 C1165 1.409 . S
C1159 H1151 0.930 . S
C1159 C1157 1.419 . S
C1159 C1160 1.362 1_455 S
C1160 H1152 0.930 . S
C1160 C1159 1.362 1_655 S
C1160 C1163 1.409 . S
C1161 H1153 0.930 . S
C1161 C1162 1.355 . S
C1161 C1163 1.415 . S
C1162 C1161 1.355 . S
C1162 C1164 1.419 . S
C1163 C1158 1.425 1_655 S
C1163 C1160 1.409 . S
C1163 C1161 1.415 . S
C1164 H1154 0.930 . S
C1164 C1162 1.419 . S
C1164 C1165 1.362 1_655 S
C1165 H1155 0.930 . S
C1165 C1158 1.409 . S
C1165 C1164 1.362 1_455 S
H1166 C1172 0.930 . S
H1167 C1175 0.930 . S
H1168 C1176 0.930 . S
H1169 C1177 0.930 . S
H1170 C1180 0.930 . S
H1171 C1181 0.930 . S
C1172 H1166 0.930 . S
C1172 C1173 1.355 . S
C1172 C1174 1.415 . S
C1173 C1172 1.355 . S
C1173 C1175 1.419 . S
C1174 C1172 1.415 . S
C1174 C1179 1.425 . S
C1174 C1181 1.409 . S
C1175 H1167 0.930 . S
C1175 C1173 1.419 . S
C1175 C1176 1.362 . S
C1176 H1168 0.930 . S
C1176 C1175 1.362 . S
C1176 C1179 1.409 . S
C1177 H1169 0.930 . S
C1177 C1178 1.355 . S
C1177 C1179 1.415 . S
C1178 C1177 1.355 . S
C1178 C1180 1.419 . S
C1179 C1174 1.425 . S
C1179 C1176 1.409 . S
C1179 C1177 1.415 . S
C1180 H1170 0.930 . S
C1180 C1178 1.419 . S
C1180 C1181 1.362 . S
C1181 H1171 0.930 . S
C1181 C1174 1.409 . S
C1181 C1180 1.362 . S
H1182 C1188 0.930 . S
H1183 C1191 0.930 . S
H1184 C1192 0.930 . S
H1185 C1193 0.930 . S
H1186 C1196 0.930 . S
H1187 C1197 0.930 . S
C1188 H1182 0.930 . S
C1188 C1189 1.355 . S
C1188 C1190 1.415 . S
C1189 C1188 1.355 . S
C1189 C1191 1.419 . S
C1190 C1188 1.415 . S
C1190 C1195 1.425 . S
C1190 C1197 1.409 . S
C1191 H1183 0.930 . S
C1191 C1189 1.419 . S
C1191 C1192 1.362 . S
C1192 H1184 0.930 . S
C1192 C1191 1.362 . S
C1192 C1195 1.409 . S
C1193 H1185 0.930 . S
C1193 C1194 1.355 . S
C1193 C1195 1.415 . S
C1194 C1193 1.355 . S
C1194 C1196 1.419 . S
C1195 C1190 1.425 . S
C1195 C1192 1.409 . S
C1195 C1193 1.415 . S
C1196 H1186 0.930 . S
C1196 C1194 1.419 . S
C1196 C1197 1.362 . S
C1197 H1187 0.930 . S
C1197 C1190 1.409 . S
C1197 C1196 1.362 . S
H1198 C1204 0.930 . S
H1199 C1207 0.930 . S
H1200 C1208 0.930 . S
H1201 C1209 0.930 . S
H1202 C1212 0.930 . S
H1203 C1213 0.930 . S
C1204 H1198 0.930 . S
C1204 C1205 1.355 . S
C1204 C1206 1.415 . S
C1205 C1204 1.355 . S
C1205 C1207 1.419 . S
C1206 C1204 1.415 . S
C1206 C1211 1.425 . S
C1206 C1213 1.409 . S
C1207 H1199 0.930 . S
C1207 C1205 1.419 . S
C1207 C1208 1.362 . S
C1208 H1200 0.930 . S
C1208 C1207 1.362 . S
C1208 C1211 1.409 . S
C1209 H1201 0.930 . S
C1209 C1210 1.355 . S
C1209 C1211 1.415 . S
C1210 C1209 1.355 . S
C1210 C1212 1.419 . S
C1211 C1206 1.425 . S
C1211 C1208 1.409 . S
C1211 C1209 1.415 . S
C1212 H1202 0.930 . S
C1212 C1210 1.419 . S
C1212 C1213 1.362 . S
C1213 H1203 0.930 . S
C1213 C1206 1.409 . S
C1213 C1212 1.362 . S
H1214 C1220 0.930 . S
H1215 C1223 0.930 . S
H1216 C1224 0.930 . S
H1217 C1225 0.930 . S
H1218 C1228 0.930 . S
H1219 C1229 0.930 . S
C1220 H1214 0.930 . S
C1220 C1221 1.355 . S
C1220 C1222 1.415 . S
C1221 C1220 1.355 . S
C1221 C1223 1.419 . S
C1222 C1220 1.415 . S
C1222 C1227 1.425 . S
C1222 C1229 1.409 . S
C1223 H1215 0.930 . S
C1223 C1221 1.419 . S
C1223 C1224 1.362 . S
C1224 H1216 0.930 . S
C1224 C1223 1.362 . S
C1224 C1227 1.409 . S
C1225 H1217 0.930 . S
C1225 C1226 1.355 . S
C1225 C1227 1.415 . S
C1226 C1225 1.355 . S
C1226 C1228 1.419 . S
C1227 C1222 1.425 . S
C1227 C1224 1.409 . S
C1227 C1225 1.415 . S
C1228 H1218 0.930 . S
C1228 C1226 1.419 . S
C1228 C1229 1.362 . S
C1229 H1219 0.930 . S
C1229 C1222 1.409 . S
C1229 C1228 1.362 . S
H1230 C1236 0.930 . S
H1231 C1239 0.930 . S
H1232 C1240 0.930 . S
H1233 C1241 0.930 . S
H1234 C1244 0.930 . S
H1235 C1245 0.930 . S
C1236 H1230 0.930 . S
C1236 C1237 1.355 . S
C1236 C1238 1.415 . S
C1237 C1236 1.355 . S
C1237 C1239 1.419 . S
C1238 C1236 1.415 . S
C1238 C1243 1.425 . S
C1238 C1245 1.409 . S
C1239 H1231 0.930 . S
C1239 C1237 1.419 . S
C1239 C1240 1.362 . S
C1240 H1232 0.930 . S
C1240 C1239 1.362 . S
C1240 C1243 1.409 . S
C1241 H1233 0.930 . S
C1241 C1242 1.355 . S
C1241 C1243 1.415 . S
C1242 C1241 1.355 . S
C1242 C1244 1.419 . S
C1243 C1238 1.425 . S
C1243 C1240 1.409 . S
C1243 C1241 1.415 . S
C1244 H1234 0.930 . S
C1244 C1242 1.419 . S
C1244 C1245 1.362 . S
C1245 H1235 0.930 . S
C1245 C1238 1.409 . S
C1245 C1244 1.362 . S
H1246 C1252 0.930 . S
H1247 C1255 0.930 . S
H1248 C1256 0.930 . S
H1249 C1257 0.930 . S
H1250 C1260 0.930 . S
H1251 C1261 0.930 . S
C1252 H1246 0.930 . S
C1252 C1253 1.355 . S
C1252 C1254 1.415 . S
C1253 C1252 1.355 . S
C1253 C1255 1.419 . S
C1254 C1252 1.415 . S
C1254 C1259 1.425 . S
C1254 C1261 1.409 . S
C1255 H1247 0.930 . S
C1255 C1253 1.419 . S
C1255 C1256 1.362 . S
C1256 H1248 0.930 . S
C1256 C1255 1.362 . S
C1256 C1259 1.409 . S
C1257 H1249 0.930 . S
C1257 C1258 1.355 . S
C1257 C1259 1.415 . S
C1258 C1257 1.355 . S
C1258 C1260 1.419 . S
C1259 C1254 1.425 . S
C1259 C1256 1.409 . S
C1259 C1257 1.415 . S
C1260 H1250 0.930 . S
C1260 C1258 1.419 . S
C1260 C1261 1.362 . S
C1261 H1251 0.930 . S
C1261 C1254 1.409 . S
C1261 C1260 1.362 . S
H1262 C1268 0.930 . S
H1263 C1271 0.930 . S
H1264 C1272 0.930 . S
H1265 C1273 0.930 . S
H1266 C1276 0.930 . S
H1267 C1277 0.930 . S
C1268 H1262 0.930 . S
C1268 C1269 1.355 . S
C1268 C1270 1.415 . S
C1269 C1268 1.355 . S
C1269 C1271 1.419 . S
C1270 C1268 1.415 . S
C1270 C1275 1.425 . S
C1270 C1277 1.409 . S
C1271 H1263 0.930 . S
C1271 C1269 1.419 . S
C1271 C1272 1.362 . S
C1272 H1264 0.930 . S
C1272 C1271 1.362 . S
C1272 C1275 1.409 . S
C1273 H1265 0.930 . S
C1273 C1274 1.355 . S
C1273 C1275 1.415 . S
C1274 C1273 1.355 . S
C1274 C1276 1.419 . S
C1275 C1270 1.425 . S
C1275 C1272 1.409 . S
C1275 C1273 1.415 . S
C1276 H1266 0.930 . S
C1276 C1274 1.419 . S
C1276 C1277 1.362 . S
C1277 H1267 0.930 . S
C1277 C1270 1.409 . S
C1277 C1276 1.362 . S
H1278 C1284 0.930 . S
H1279 C1287 0.930 . S
H1280 C1288 0.930 . S
H1281 C1289 0.930 . S
H1282 C1292 0.930 . S
H1283 C1293 0.930 . S
C1284 H1278 0.930 . S
C1284 C1285 1.355 . S
C1284 C1286 1.415 . S
C1285 C1284 1.355 . S
C1285 C1287 1.419 . S
C1286 C1284 1.415 . S
C1286 C1291 1.425 . S
C1286 C1293 1.409 . S
C1287 H1279 0.930 . S
C1287 C1285 1.419 . S
C1287 C1288 1.362 . S
C1288 H1280 0.930 . S
C1288 C1287 1.362 . S
C1288 C1291 1.409 . S
C1289 H1281 0.930 . S
C1289 C1290 1.355 . S
C1289 C1291 1.415 . S
C1290 C1289 1.355 . S
C1290 C1292 1.419 . S
C1291 C1286 1.425 . S
C1291 C1288 1.409 . S
C1291 C1289 1.415 . S
C1292 H1282 0.930 . S
C1292 C1290 1.419 . S
C1292 C1293 1.362 . S
C1293 H1283 0.930 . S
C1293 C1286 1.409 . S
C1293 C1292 1.362 . S
H1294 C1300 0.930 . S
H1295 C1303 0.930 . S
H1296 C1304 0.930 . S
H1297 C1305 0.930 . S
H1298 C1308 0.930 . S
H1299 C1309 0.930 . S
C1300 H1294 0.930 . S
C1300 C1301 1.355 . S
C1300 C1302 1.415 . S
C1301 C1300 1.355 . S
C1301 C1303 1.419 . S
C1302 C1300 1.415 . S
C1302 C1307 1.425 . S
C1302 C1309 1.409 . S
C1303 H1295 0.930 . S
C1303 C1301 1.419 . S
C1303 C1304 1.362 . S
C1304 H1296 0.930 . S
C1304 C1303 1.362 . S
C1304 C1307 1.409 . S
C1305 H1297 0.930 . S
C1305 C1306 1.355 . S
C1305 C1307 1.415 . S
C1306 C1305 1.355 . S
C1306 C1308 1.419 . S
C1307 C1302 1.425 . S
C1307 C1304 1.409 . S
C1307 C1305 1.415 . S
C1308 H1298 0.930 . S
C1308 C1306 1.419 . S
C1308 C1309 1.362 . S
C1309 H1299 0.930 . S
C1309 C1302 1.409 . S
C1309 C1308 1.362 . S
H1310 C1316 0.930 . S
H1311 C1319 0.930 . S
H1312 C1320 0.930 . S
H1313 C1321 0.930 . S
H1314 C1324 0.930 . S
H1315 C1325 0.930 . S
C1316 H1310 0.930 . S
C1316 C1317 1.355 . S
C1316 C1318 1.415 . S
C1317 C1316 1.355 . S
C1317 C1319 1.419 . S
C1318 C1316 1.415 . S
C1318 C1323 1.425 . S
C1318 C1325 1.409 . S
C1319 H1311 0.930 . S
C1319 C1317 1.419 . S
C1319 C1320 1.362 . S
C1320 H1312 0.930 . S
C1320 C1319 1.362 . S
C1320 C1323 1.409 . S
C1321 H1313 0.930 . S
C1321 C1322 1.355 . S
C1321 C1323 1.415 . S
C1322 C1321 1.355 . S
C1322 C1324 1.419 . S
C1323 C1318 1.425 . S
C1323 C1320 1.409 . S
C1323 C1321 1.415 . S
C1324 H1314 0.930 . S
C1324 C1322 1.419 . S
C1324 C1325 1.362 . S
C1325 H1315 0.930 . S
C1325 C1318 1.409 . S
C1325 C1324 1.362 . S
H1326 C1332 0.930 . S
H1327 C1335 0.930 . S
H1328 C1336 0.930 . S
H1329 C1337 0.930 . S
H1330 C1340 0.930 . S
H1331 C1341 0.930 . S
C1332 H1326 0.930 . S
C1332 C1333 1.355 . S
C1332 C1334 1.415 . S
C1333 C1332 1.355 . S
C1333 C1335 1.419 . S
C1334 C1332 1.415 . S
C1334 C1339 1.425 . S
C1334 C1341 1.409 . S
C1335 H1327 0.930 . S
C1335 C1333 1.419 . S
C1335 C1336 1.362 . S
C1336 H1328 0.930 . S
C1336 C1335 1.362 . S
C1336 C1339 1.409 . S
C1337 H1329 0.930 . S
C1337 C1338 1.355 . S
C1337 C1339 1.415 . S
C1338 C1337 1.355 . S
C1338 C1340 1.419 . S
C1339 C1334 1.425 . S
C1339 C1336 1.409 . S
C1339 C1337 1.415 . S
C1340 H1330 0.930 . S
C1340 C1338 1.419 . S
C1340 C1341 1.362 . S
C1341 H1331 0.930 . S
C1341 C1334 1.409 . S
C1341 C1340 1.362 . S
H1342 C1348 0.930 . S
H1343 C1351 0.930 . S
H1344 C1352 0.930 . S
H1345 C1353 0.930 . S
H1346 C1356 0.930 . S
H1347 C1357 0.930 . S
C1348 H1342 0.930 . S
C1348 C1349 1.355 . S
C1348 C1350 1.415 . S
C1349 C1348 1.355 . S
C1349 C1351 1.419 . S
C1350 C1348 1.415 . S
C1350 C1355 1.425 . S
C1350 C1357 1.409 . S
C1351 H1343 0.930 . S
C1351 C1349 1.419 . S
C1351 C1352 1.362 . S
C1352 H1344 0.930 . S
C1352 C1351 1.362 . S
C1352 C1355 1.409 . S
C1353 H1345 0.930 . S
C1353 C1354 1.355 . S
C1353 C1355 1.415 . S
C1354 C1353 1.355 . S
C1354 C1356 1.419 . S
C1355 C1350 1.425 . S
C1355 C1352 1.409 . S
C1355 C1353 1.415 . S
C1356 H1346 0.930 . S
C1356 C1354 1.419 . S
C1356 C1357 1.362 . S
C1357 H1347 0.930 . S
C1357 C1350 1.409 . S
C1357 C1356 1.362 . S
H1358 C1364 0.930 . S
H1359 C1367 0.930 . S
H1360 C1368 0.930 . S
H1361 C1369 0.930 . S
H1362 C1372 0.930 . S
H1363 C1373 0.930 . S
C1364 H1358 0.930 . S
C1364 C1365 1.355 . S
C1364 C1366 1.415 . S
C1365 C1364 1.355 . S
C1365 C1367 1.419 . S
C1366 C1364 1.415 . S
C1366 C1371 1.425 . S
C1366 C1373 1.409 . S
C1367 H1359 0.930 . S
C1367 C1365 1.419 . S
C1367 C1368 1.362 . S
C1368 H1360 0.930 . S
C1368 C1367 1.362 . S
C1368 C1371 1.409 . S
C1369 H1361 0.930 . S
C1369 C1370 1.355 . S
C1369 C1371 1.415 . S
C1370 C1369 1.355 . S
C1370 C1372 1.419 . S
C1371 C1366 1.425 . S
C1371 C1368 1.409 . S
C1371 C1369 1.415 . S
C1372 H1362 0.930 . S
C1372 C1370 1.419 . S
C1372 C1373 1.362 . S
C1373 H1363 0.930 . S
C1373 C1366 1.409 . S
C1373 C1372 1.362 . S
H1374 C1380 0.930 . S
H1375 C1383 0.930 . S
H1376 C1384 0.930 . S
H1377 C1385 0.930 . S
H1378 C1388 0.930 . S
H1379 C1389 0.930 . S
C1380 H1374 0.930 . S
C1380 C1381 1.355 . S
C1380 C1382 1.415 . S
C1381 C1380 1.355 . S
C1381 C1383 1.419 . S
C1382 C1380 1.415 . S
C1382 C1387 1.425 . S
C1382 C1389 1.409 . S
C1383 H1375 0.930 . S
C1383 C1381 1.419 . S
C1383 C1384 1.362 . S
C1384 H1376 0.930 . S
C1384 C1383 1.362 . S
C1384 C1387 1.409 . S
C1385 H1377 0.930 . S
C1385 C1386 1.355 . S
C1385 C1387 1.415 . S
C1386 C1385 1.355 . S
C1386 C1388 1.419 . S
C1387 C1382 1.425 . S
C1387 C1384 1.409 . S
C1387 C1385 1.415 . S
C1388 H1378 0.930 . S
C1388 C1386 1.419 . S
C1388 C1389 1.362 . S
C1389 H1379 0.930 . S
C1389 C1382 1.409 . S
C1389 C1388 1.362 . S
H1390 C1396 0.930 . S
H1391 C1399 0.930 . S
H1392 C1400 0.930 . S
H1393 C1401 0.930 . S
H1394 C1404 0.930 . S
H1395 C1405 0.930 . S
C1396 H1390 0.930 . S
C1396 C1397 1.355 . S
C1396 C1398 1.415 . S
C1397 C1396 1.355 . S
C1397 C1399 1.419 . S
C1398 C1396 1.415 . S
C1398 C1403 1.425 . S
C1398 C1405 1.409 . S
C1399 H1391 0.930 . S
C1399 C1397 1.419 . S
C1399 C1400 1.362 . S
C1400 H1392 0.930 . S
C1400 C1399 1.362 . S
C1400 C1403 1.409 . S
C1401 H1393 0.930 . S
C1401 C1402 1.355 . S
C1401 C1403 1.415 . S
C1402 C1401 1.355 . S
C1402 C1404 1.419 . S
C1403 C1398 1.425 . S
C1403 C1400 1.409 . S
C1403 C1401 1.415 . S
C1404 H1394 0.930 . S
C1404 C1402 1.419 . S
C1404 C1405 1.362 . S
C1405 H1395 0.930 . S
C1405 C1398 1.409 . S
C1405 C1404 1.362 . S
H1406 C1412 0.930 . S
H1407 C1415 0.930 . S
H1408 C1416 0.930 . S
H1409 C1417 0.930 . S
H1410 C1420 0.930 . S
H1411 C1421 0.930 . S
C1412 H1406 0.930 . S
C1412 C1413 1.355 . S
C1412 C1414 1.415 . S
C1413 C1412 1.355 . S
C1413 C1415 1.419 . S
C1414 C1412 1.415 . S
C1414 C1419 1.425 . S
C1414 C1421 1.409 . S
C1415 H1407 0.930 . S
C1415 C1413 1.419 . S
C1415 C1416 1.362 . S
C1416 H1408 0.930 . S
C1416 C1415 1.362 . S
C1416 C1419 1.409 . S
C1417 H1409 0.930 . S
C1417 C1418 1.355 . S
C1417 C1419 1.415 . S
C1418 C1417 1.355 . S
C1418 C1420 1.419 . S
C1419 C1414 1.425 . S
C1419 C1416 1.409 . S
C1419 C1417 1.415 . S
C1420 H1410 0.930 . S
C1420 C1418 1.419 . S
C1420 C1421 1.362 . S
C1421 H1411 0.930 . S
C1421 C1414 1.409 . S
C1421 C1420 1.362 . S
H1422 C1428 0.930 . S
H1423 C1431 0.930 . S
H1424 C1432 0.930 . S
H1425 C1433 0.930 . S
H1426 C1436 0.930 . S
H1427 C1437 0.930 . S
C1428 H1422 0.930 . S
C1428 C1429 1.355 . S
C1428 C1430 1.415 . S
C1429 C1428 1.355 . S
C1429 C1431 1.419 . S
C1430 C1428 1.415 . S
C1430 C1435 1.425 . S
C1430 C1437 1.409 . S
C1431 H1423 0.930 . S
C1431 C1429 1.419 . S
C1431 C1432 1.362 . S
C1432 H1424 0.930 . S
C1432 C1431 1.362 . S
C1432 C1435 1.409 . S
C1433 H1425 0.930 . S
C1433 C1434 1.355 . S
C1433 C1435 1.415 . S
C1434 C1433 1.355 . S
C1434 C1436 1.419 . S
C1435 C1430 1.425 . S
C1435 C1432 1.409 . S
C1435 C1433 1.415 . S
C1436 H1426 0.930 . S
C1436 C1434 1.419 . S
C1436 C1437 1.362 . S
C1437 H1427 0.930 . S
C1437 C1430 1.409 . S
C1437 C1436 1.362 . S
H1438 C1444 0.930 . S
H1439 C1447 0.930 . S
H1440 C1448 0.930 . S
H1441 C1449 0.930 . S
H1442 C1452 0.930 . S
H1443 C1453 0.930 . S
C1444 H1438 0.930 . S
C1444 C1445 1.355 . S
C1444 C1446 1.415 . S
C1445 C1444 1.355 . S
C1445 C1447 1.419 . S
C1446 C1444 1.415 . S
C1446 C1451 1.425 . S
C1446 C1453 1.409 . S
C1447 H1439 0.930 . S
C1447 C1445 1.419 . S
C1447 C1448 1.362 . S
C1448 H1440 0.930 . S
C1448 C1447 1.362 . S
C1448 C1451 1.409 . S
C1449 H1441 0.930 . S
C1449 C1450 1.355 . S
C1449 C1451 1.415 . S
C1450 C1449 1.355 . S
C1450 C1452 1.419 . S
C1451 C1446 1.425 . S
C1451 C1448 1.409 . S
C1451 C1449 1.415 . S
C1452 H1442 0.930 . S
C1452 C1450 1.419 . S
C1452 C1453 1.362 . S
C1453 H1443 0.930 . S
C1453 C1446 1.409 . S
C1453 C1452 1.362 . S
H1454 C1460 0.930 . S
H1455 C1463 0.930 . S
H1456 C1464 0.930 . S
H1457 C1465 0.930 . S
H1458 C1468 0.930 . S
H1459 C1469 0.930 . S
C1460 H1454 0.930 . S
C1460 C1461 1.355 . S
C1460 C1462 1.415 . S
C1461 C1460 1.355 . S
C1461 C1463 1.419 . S
C1462 C1460 1.415 . S
C1462 C1467 1.425 . S
C1462 C1469 1.409 . S
C1463 H1455 0.930 . S
C1463 C1461 1.419 . S
C1463 C1464 1.362 . S
C1464 H1456 0.930 . S
C1464 C1463 1.362 . S
C1464 C1467 1.409 . S
C1465 H1457 0.930 . S
C1465 C1466 1.355 . S
C1465 C1467 1.415 . S
C1466 C1465 1.355 . S
C1466 C1468 1.419 . S
C1467 C1462 1.425 . S
C1467 C1464 1.409 . S
C1467 C1465 1.415 . S
C1468 H1458 0.930 . S
C1468 C1466 1.419 . S
C1468 C1469 1.362 . S
C1469 H1459 0.930 . S
C1469 C1462 1.409 . S
C1469 C1468 1.362 . S
H1470 C1476 0.930 . S
H1471 C1479 0.930 . S
H1472 C1480 0.930 . S
H1473 C1481 0.930 . S
H1474 C1484 0.930 . S
H1475 C1485 0.930 . S
C1476 H1470 0.930 . S
C1476 C1477 1.355 . S
C1476 C1478 1.415 . S
C1477 C1476 1.355 . S
C1477 C1479 1.419 . S
C1478 C1476 1.415 . S
C1478 C1483 1.425 . S
C1478 C1485 1.409 . S
C1479 H1471 0.930 . S
C1479 C1477 1.419 . S
C1479 C1480 1.362 . S
C1480 H1472 0.930 . S
C1480 C1479 1.362 . S
C1480 C1483 1.409 . S
C1481 H1473 0.930 . S
C1481 C1482 1.355 . S
C1481 C1483 1.415 . S
C1482 C1481 1.355 . S
C1482 C1484 1.419 . S
C1483 C1478 1.425 . S
C1483 C1480 1.409 . S
C1483 C1481 1.415 . S
C1484 H1474 0.930 . S
C1484 C1482 1.419 . S
C1484 C1485 1.362 . S
C1485 H1475 0.930 . S
C1485 C1478 1.409 . S
C1485 C1484 1.362 . S
H1486 C1492 0.930 . S
H1487 C1495 0.930 . S
H1488 C1496 0.930 . S
H1489 C1497 0.930 . S
H1490 C1500 0.930 . S
H1491 C1501 0.930 . S
C1492 H1486 0.930 . S
C1492 C1493 1.355 . S
C1492 C1494 1.415 . S
C1493 C1492 1.355 . S
C1493 C1495 1.419 . S
C1494 C1492 1.415 . S
C1494 C1499 1.425 . S
C1494 C1501 1.409 . S
C1495 H1487 0.930 . S
C1495 C1493 1.419 . S
C1495 C1496 1.362 . S
C1496 H1488 0.930 . S
C1496 C1495 1.362 . S
C1496 C1499 1.409 . S
C1497 H1489 0.930 . S
C1497 C1498 1.355 . S
C1497 C1499 1.415 . S
C1498 C1497 1.355 . S
C1498 C1500 1.419 . S
C1499 C1494 1.425 . S
C1499 C1496 1.409 . S
C1499 C1497 1.415 . S
C1500 H1490 0.930 . S
C1500 C1498 1.419 . S
C1500 C1501 1.362 . S
C1501 H1491 0.930 . S
C1501 C1494 1.409 . S
C1501 C1500 1.362 . S
H1502 C1508 0.930 . S
H1503 C1511 0.930 . S
H1504 C1512 0.930 . S
H1505 C1513 0.930 . S
H1506 C1516 0.930 . S
H1507 C1517 0.930 . S
C1508 H1502 0.930 . S
C1508 C1509 1.355 . S
C1508 C1510 1.415 . S
C1509 C1508 1.355 . S
C1509 C1511 1.419 . S
C1510 C1508 1.415 . S
C1510 C1515 1.425 . S
C1510 C1517 1.409 . S
C1511 H1503 0.930 . S
C1511 C1509 1.419 . S
C1511 C1512 1.362 . S
C1512 H1504 0.930 . S
C1512 C1511 1.362 . S
C1512 C1515 1.409 . S
C1513 H1505 0.930 . S
C1513 C1514 1.355 . S
C1513 C1515 1.415 . S
C1514 C1513 1.355 . S
C1514 C1516 1.419 . S
C1515 C1510 1.425 . S
C1515 C1512 1.409 . S
C1515 C1513 1.415 . S
C1516 H1506 0.930 . S
C1516 C1514 1.419 . S
C1516 C1517 1.362 . S
C1517 H1507 0.930 . S
C1517 C1510 1.409 . S
C1517 C1516 1.362 . S
H1518 C1524 0.930 . S
H1519 C1527 0.930 . S
H1520 C1528 0.930 . S
H1521 C1529 0.930 . S
H1522 C1532 0.930 . S
H1523 C1533 0.930 . S
C1524 H1518 0.930 . S
C1524 C1525 1.355 . S
C1524 C1526 1.415 . S
C1525 C1524 1.355 . S
C1525 C1527 1.419 . S
C1526 C1524 1.415 . S
C1526 C1531 1.425 . S
C1526 C1533 1.409 . S
C1527 H1519 0.930 . S
C1527 C1525 1.419 . S
C1527 C1528 1.362 . S
C1528 H1520 0.930 . S
C1528 C1527 1.362 . S
C1528 C1531 1.409 . S
C1529 H1521 0.930 . S
C1529 C1530 1.355 . S
C1529 C1531 1.415 . S
C1530 C1529 1.355 . S
C1530 C1532 1.419 . S
C1531 C1526 1.425 . S
C1531 C1528 1.409 . S
C1531 C1529 1.415 . S
C1532 H1522 0.930 . S
C1532 C1530 1.419 . S
C1532 C1533 1.362 . S
C1533 H1523 0.930 . S
C1533 C1526 1.409 . S
C1533 C1532 1.362 . S
H1534 C1540 0.930 . S
H1535 C1543 0.930 . S
H1536 C1544 0.930 . S
H1537 C1545 0.930 . S
H1538 C1548 0.930 . S
H1539 C1549 0.930 . S
C1540 H1534 0.930 . S
C1540 C1541 1.355 . S
C1540 C1542 1.415 . S
C1541 C1540 1.355 . S
C1541 C1543 1.419 . S
C1542 C1540 1.415 . S
C1542 C1547 1.425 . S
C1542 C1549 1.409 . S
C1543 H1535 0.930 . S
C1543 C1541 1.419 . S
C1543 C1544 1.362 . S
C1544 H1536 0.930 . S
C1544 C1543 1.362 . S
C1544 C1547 1.409 . S
C1545 H1537 0.930 . S
C1545 C1546 1.355 . S
C1545 C1547 1.415 . S
C1546 C1545 1.355 . S
C1546 C1548 1.419 . S
C1547 C1542 1.425 . S
C1547 C1544 1.409 . S
C1547 C1545 1.415 . S
C1548 H1538 0.930 . S
C1548 C1546 1.419 . S
C1548 C1549 1.362 . S
C1549 H1539 0.930 . S
C1549 C1542 1.409 . S
C1549 C1548 1.362 . S
H1550 C1556 0.930 . S
H1551 C1559 0.930 . S
H1552 C1560 0.930 . S
H1553 C1561 0.930 . S
H1554 C1564 0.930 . S
H1555 C1565 0.930 . S
C1556 H1550 0.930 . S
C1556 C1557 1.355 . S
C1556 C1558 1.415 . S
C1557 C1556 1.355 . S
C1557 C1559 1.419 . S
C1558 C1556 1.415 . S
C1558 C1563 1.425 . S
C1558 C1565 1.409 . S
C1559 H1551 0.930 . S
C1559 C1557 1.419 . S
C1559 C1560 1.362 . S
C1560 H1552 0.930 . S
C1560 C1559 1.362 . S
C1560 C1563 1.409 . S
C1561 H1553 0.930 . S
C1561 C1562 1.355 . S
C1561 C1563 1.415 . S
C1562 C1561 1.355 . S
C1562 C1564 1.419 . S
C1563 C1558 1.425 . S
C1563 C1560 1.409 . S
C1563 C1561 1.415 . S
C1564 H1554 0.930 . S
C1564 C1562 1.419 . S
C1564 C1565 1.362 . S
C1565 H1555 0.930 . S
C1565 C1558 1.409 . S
C1565 C1564 1.362 . S
C709 C253 1.705 . S
C714 C354 1.728 . S
C725 C272 1.810 . S
C730 C394 1.813 . S
C741 C234 1.600 . S
C746 C424 1.610 . S
C757 C215 1.496 . S
C762 C384 1.487 . S
C778 C434 1.553 . S
C773 C177 1.570 . S
C789 C196 1.385 . S
C794 C344 1.379 1_556 S
C810 C373 1.673 . S
C805 C220 1.476 . S
C826 C413 1.623 . S
C821 C182 1.541 . S
C837 C201 1.564 . S
C842 C439 1.720 . S
C853 C258 1.386 . S
C858 C399 1.534 . S
C869 C277 1.282 . S
C874 C453 1.447 . S
C890 C359 1.563 1_554 S
C885 C239 1.364 . S
C906 C474 1.726 . S
C901 C25 1.696 . S
C917 C44 1.826 . S
C922 C514 1.814 . S
C933 C6 1.618 . S
C938 C544 1.574 . S
C949 C329 1.467 . S
C954 C504 1.420 . S
C965 C291 1.570 . S
C970 C554 1.553 . S
C981 C310 1.387 . S
C986 C464 1.377 . S
C997 C334 1.492 . S
C1002 C493 1.674 . S
C1013 C296 1.498 . S
C1018 C533 1.646 . S
C1034 C559 1.738 . S
C1029 C315 1.574 . S
C1045 C30 1.475 1_565 S
C1050 C519 1.563 . S
C1066 C573 1.450 . S
C1061 C49 1.239 1_455 S
C1077 C11 1.348 . S
C1082 C479 1.530 . S
C1098 C594 1.725 . S
C1093 C139 1.695 . S
C1109 C158 1.811 . S
C1114 C634 1.814 . S
C1130 C664 1.589 . S
C1125 C120 1.582 . S
C1146 C624 1.466 . S
C1141 C101 1.504 . S
C1162 C674 1.571 . S
C1157 C63 1.566 . S
C1173 C82 1.399 . S
C1178 C584 1.373 . S
C1189 C106 1.523 1_655 S
C1194 C613 1.679 . S
C1205 C68 1.497 . S
C1210 C653 1.630 . S
C1226 C679 1.744 . S
C1221 C87 1.582 1_545 S
C1237 C144 1.491 . S
C1242 C639 1.530 . S
C1253 C163 1.382 . S
C1258 C693 1.479 . S
C1269 C125 1.344 . S
C1274 C599 1.536 . S
C1285 C287 1.625 . S
C1290 C371 1.588 . S
C1306 C411 1.983 . S
C1301 C306 2.030 . S
C1317 C325 1.631 . S
C1322 C430 1.651 . S
C1333 C116 1.834 . S
C1338 C390 1.855 . S
C1349 C135 1.804 . S
C1354 C451 1.787 . S
C1370 C350 1.360 . S
C1365 C154 1.310 . S
C1381 C59 1.593 . S
C1386 C491 1.556 . S
C1397 C78 2.077 . S
C1402 C531 2.041 . S
C1413 C97 1.610 . S
C1418 C550 1.659 . S
C1429 C230 1.810 . S
C1434 C510 1.814 . S
C1450 C571 1.755 . S
C1445 C249 1.778 . S
C1461 C268 1.368 . S
C1466 C470 1.365 . S
C1477 C173 1.594 . S
C1482 C611 1.555 . S
C1493 C192 2.065 . S
C1498 C651 2.029 . S
C1514 C670 1.646 . S
C1509 C211 1.595 . S
C1525 C2 1.842 . S
C1530 C630 1.855 . S
C1541 C21 1.774 . S
C1546 C691 1.746 . S
C1557 C40 1.329 . S
C1562 C590 1.371 . S
