# Generated by pormake.
# Topology ctn, (3,4)-cn, num edge types: 1
# Building blocks:
#     Node 0, Type 0, BuildingBlock: MIDCAF_clean_linker_0, # of connection points: 3
#     Node 1, Type 0, BuildingBlock: MIDCAF_clean_linker_0, # of connection points: 3
#     Node 2, Type 0, BuildingBlock: MIDCAF_clean_linker_0, # of connection points: 3
#     Node 3, Type 0, BuildingBlock: MIDCAF_clean_linker_0, # of connection points: 3
#     Node 4, Type 0, BuildingBlock: MIDCAF_clean_linker_0, # of connection points: 3
#     Node 5, Type 0, BuildingBlock: MIDCAF_clean_linker_0, # of connection points: 3
#     Node 6, Type 0, BuildingBlock: MIDCAF_clean_linker_0, # of connection points: 3
#     Node 7, Type 0, BuildingBlock: MIDCAF_clean_linker_0, # of connection points: 3
#     Node 8, Type 0, BuildingBlock: MIDCAF_clean_linker_0, # of connection points: 3
#     Node 9, Type 0, BuildingBlock: MIDCAF_clean_linker_0, # of connection points: 3
#     Node 10, Type 0, BuildingBlock: MIDCAF_clean_linker_0, # of connection points: 3
#     Node 11, Type 0, BuildingBlock: MIDCAF_clean_linker_0, # of connection points: 3
#     Node 12, Type 0, BuildingBlock: MIDCAF_clean_linker_0, # of connection points: 3
#     Node 13, Type 0, BuildingBlock: MIDCAF_clean_linker_0, # of connection points: 3
#     Node 14, Type 0, BuildingBlock: MIDCAF_clean_linker_0, # of connection points: 3
#     Node 15, Type 0, BuildingBlock: MIDCAF_clean_linker_0, # of connection points: 3
#     Node 16, Type 1, BuildingBlock: NAHDIM_clean_sbu_0, # of connection points: 4
#     Node 17, Type 1, BuildingBlock: NAHDIM_clean_sbu_0, # of connection points: 4
#     Node 18, Type 1, BuildingBlock: NAHDIM_clean_sbu_0, # of connection points: 4
#     Node 19, Type 1, BuildingBlock: NAHDIM_clean_sbu_0, # of connection points: 4
#     Node 20, Type 1, BuildingBlock: NAHDIM_clean_sbu_0, # of connection points: 4
#     Node 21, Type 1, BuildingBlock: NAHDIM_clean_sbu_0, # of connection points: 4
#     Node 22, Type 1, BuildingBlock: NAHDIM_clean_sbu_0, # of connection points: 4
#     Node 23, Type 1, BuildingBlock: NAHDIM_clean_sbu_0, # of connection points: 4
#     Node 24, Type 1, BuildingBlock: NAHDIM_clean_sbu_0, # of connection points: 4
#     Node 25, Type 1, BuildingBlock: NAHDIM_clean_sbu_0, # of connection points: 4
#     Node 26, Type 1, BuildingBlock: NAHDIM_clean_sbu_0, # of connection points: 4
#     Node 27, Type 1, BuildingBlock: NAHDIM_clean_sbu_0, # of connection points: 4
#     Edge 28, Type (0, 1), BuildingBlock: OJICUG_clean_linker_0, # of connection points: 2
#     Edge 29, Type (0, 1), BuildingBlock: OJICUG_clean_linker_0, # of connection points: 2
#     Edge 30, Type (0, 1), BuildingBlock: OJICUG_clean_linker_0, # of connection points: 2
#     Edge 31, Type (0, 1), BuildingBlock: OJICUG_clean_linker_0, # of connection points: 2
#     Edge 32, Type (0, 1), BuildingBlock: OJICUG_clean_linker_0, # of connection points: 2
#     Edge 33, Type (0, 1), BuildingBlock: OJICUG_clean_linker_0, # of connection points: 2
#     Edge 34, Type (0, 1), BuildingBlock: OJICUG_clean_linker_0, # of connection points: 2
#     Edge 35, Type (0, 1), BuildingBlock: OJICUG_clean_linker_0, # of connection points: 2
#     Edge 36, Type (0, 1), BuildingBlock: OJICUG_clean_linker_0, # of connection points: 2
#     Edge 37, Type (0, 1), BuildingBlock: OJICUG_clean_linker_0, # of connection points: 2
#     Edge 38, Type (0, 1), BuildingBlock: OJICUG_clean_linker_0, # of connection points: 2
#     Edge 39, Type (0, 1), BuildingBlock: OJICUG_clean_linker_0, # of connection points: 2
#     Edge 40, Type (0, 1), BuildingBlock: OJICUG_clean_linker_0, # of connection points: 2
#     Edge 41, Type (0, 1), BuildingBlock: OJICUG_clean_linker_0, # of connection points: 2
#     Edge 42, Type (0, 1), BuildingBlock: OJICUG_clean_linker_0, # of connection points: 2
#     Edge 43, Type (0, 1), BuildingBlock: OJICUG_clean_linker_0, # of connection points: 2
#     Edge 44, Type (0, 1), BuildingBlock: OJICUG_clean_linker_0, # of connection points: 2
#     Edge 45, Type (0, 1), BuildingBlock: OJICUG_clean_linker_0, # of connection points: 2
#     Edge 46, Type (0, 1), BuildingBlock: OJICUG_clean_linker_0, # of connection points: 2
#     Edge 47, Type (0, 1), BuildingBlock: OJICUG_clean_linker_0, # of connection points: 2
#     Edge 48, Type (0, 1), BuildingBlock: OJICUG_clean_linker_0, # of connection points: 2
#     Edge 49, Type (0, 1), BuildingBlock: OJICUG_clean_linker_0, # of connection points: 2
#     Edge 50, Type (0, 1), BuildingBlock: OJICUG_clean_linker_0, # of connection points: 2
#     Edge 51, Type (0, 1), BuildingBlock: OJICUG_clean_linker_0, # of connection points: 2
#     Edge 52, Type (0, 1), BuildingBlock: OJICUG_clean_linker_0, # of connection points: 2
#     Edge 53, Type (0, 1), BuildingBlock: OJICUG_clean_linker_0, # of connection points: 2
#     Edge 54, Type (0, 1), BuildingBlock: OJICUG_clean_linker_0, # of connection points: 2
#     Edge 55, Type (0, 1), BuildingBlock: OJICUG_clean_linker_0, # of connection points: 2
#     Edge 56, Type (0, 1), BuildingBlock: OJICUG_clean_linker_0, # of connection points: 2
#     Edge 57, Type (0, 1), BuildingBlock: OJICUG_clean_linker_0, # of connection points: 2
#     Edge 58, Type (0, 1), BuildingBlock: OJICUG_clean_linker_0, # of connection points: 2
#     Edge 59, Type (0, 1), BuildingBlock: OJICUG_clean_linker_0, # of connection points: 2
#     Edge 60, Type (0, 1), BuildingBlock: OJICUG_clean_linker_0, # of connection points: 2
#     Edge 61, Type (0, 1), BuildingBlock: OJICUG_clean_linker_0, # of connection points: 2
#     Edge 62, Type (0, 1), BuildingBlock: OJICUG_clean_linker_0, # of connection points: 2
#     Edge 63, Type (0, 1), BuildingBlock: OJICUG_clean_linker_0, # of connection points: 2
#     Edge 64, Type (0, 1), BuildingBlock: OJICUG_clean_linker_0, # of connection points: 2
#     Edge 65, Type (0, 1), BuildingBlock: OJICUG_clean_linker_0, # of connection points: 2
#     Edge 66, Type (0, 1), BuildingBlock: OJICUG_clean_linker_0, # of connection points: 2
#     Edge 67, Type (0, 1), BuildingBlock: OJICUG_clean_linker_0, # of connection points: 2
#     Edge 68, Type (0, 1), BuildingBlock: OJICUG_clean_linker_0, # of connection points: 2
#     Edge 69, Type (0, 1), BuildingBlock: OJICUG_clean_linker_0, # of connection points: 2
#     Edge 70, Type (0, 1), BuildingBlock: OJICUG_clean_linker_0, # of connection points: 2
#     Edge 71, Type (0, 1), BuildingBlock: OJICUG_clean_linker_0, # of connection points: 2
#     Edge 72, Type (0, 1), BuildingBlock: OJICUG_clean_linker_0, # of connection points: 2
#     Edge 73, Type (0, 1), BuildingBlock: OJICUG_clean_linker_0, # of connection points: 2
#     Edge 74, Type (0, 1), BuildingBlock: OJICUG_clean_linker_0, # of connection points: 2
#     Edge 75, Type (0, 1), BuildingBlock: OJICUG_clean_linker_0, # of connection points: 2
# Relax obj value: 0.002
# Max RMSD: 0.032
# Mean RMSD: 0.017
data_MOF--net-ctn--node1-NAHDIM_clean_sbu_0--node2-MIDCAF_clean_linker_0--edge1-OJICUG_clean_linker_0
_symmetry_space_group_name_H-M    P1
_symmetry_Int_Tables_number       1
_symmetry_cell_setting            triclinic
loop_
_symmetry_equiv_pos_as_xyz
'x, y, z'
_cell_length_a     52.174555
_cell_length_b     52.4561
_cell_length_c     51.980523
_cell_angle_alpha  91.35168
_cell_angle_beta   90.121303
_cell_angle_gamma 92.474844
loop_
_atom_site_label
_atom_site_type_symbol
_atom_site_fract_x
_atom_site_fract_y
_atom_site_fract_z
_atom_type_partial_charge
C0 C 0.96042 0.04211 0.10668 0.0
C1 C 0.96686 0.02349 0.1243 0.0
C2 C 0.98864 0.00925 0.11959 0.0
C3 C 0.00371 0.01361 0.09782 0.0
H4 H 0.06471 0.98643 0.0585 0.0
H5 H 0.10197 0.96114 0.05053 0.0
H6 H 0.12246 0.00776 0.98569 0.0
H7 H 0.0849 0.03281 0.99323 0.0
H8 H 0.04778 0.07453 0.97585 0.0
H9 H 0.03885 0.10968 0.94798 0.0
H10 H 0.97745 0.13162 -0.00161 0.0
H11 H 0.98592 0.09615 0.02604 0.0
H12 H 0.96992 0.06102 0.07179 0.0
H13 H 0.94355 0.05315 0.10955 0.0
H14 H 0.99431 0.99498 0.13295 0.0
H15 H 0.02044 0.00238 0.09494 0.0
N16 N 0.03407 0.02284 0.05236 0.0
N17 N 0.04368 0.04662 0.01575 0.0
N18 N 0.00832 0.05644 0.04131 0.0
C19 C 0.04921 0.02737 0.0316 0.0
C20 C 0.02326 0.06124 0.02046 0.0
C21 C 0.01358 0.03726 0.05736 0.0
C22 C 0.07175 0.01174 0.02654 0.0
C23 C 0.07709 0.99133 0.04249 0.0
C24 C 0.09856 0.97688 0.03803 0.0
C25 C 0.11524 0.9825 0.01754 0.0
C26 C 0.10983 0.00276 0.00147 0.0
C27 C 0.08833 0.01721 0.0059 0.0
C28 C 0.01761 0.08246 0.00327 0.0
C29 C 0.03233 0.08678 0.98103 0.0
C30 C 0.02731 0.10705 0.96509 0.0
C31 C 0.00749 0.12351 0.971 0.0
C32 C 0.99265 0.1191 0.99312 0.0
C33 C 0.99763 0.09881 0.00905 0.0
C34 C 0.99737 0.03236 0.08026 0.0
C35 C 0.9755 0.04652 0.08493 0.0
C36 C 0.23974 0.63167 0.23948 0.0
C37 C 0.22105 0.62453 0.22088 0.0
C38 C 0.21685 0.64091 0.20046 0.0
C39 C 0.23104 0.66399 0.19866 0.0
H40 H 0.22754 0.73909 0.17027 0.0
H41 H 0.21703 0.76903 0.13721 0.0
H42 H 0.29508 0.80037 0.13951 0.0
H43 H 0.30515 0.77128 0.17343 0.0
H44 H 0.33176 0.76573 0.23075 0.0
H45 H 0.3684 0.77482 0.25902 0.0
H46 H 0.35578 0.7015 0.29403 0.0
H47 H 0.31929 0.69212 0.26555 0.0
H48 H 0.2684 0.65951 0.25223 0.0
H49 H 0.24354 0.6193 0.25532 0.0
H50 H 0.20237 0.63602 0.186 0.0
H51 H 0.22729 0.67614 0.18264 0.0
N52 N 0.2593 0.71247 0.19692 0.0
N53 N 0.29408 0.73939 0.21024 0.0
N54 N 0.28573 0.7006 0.23074 0.0
C55 C 0.27361 0.7345 0.19444 0.0
C56 C 0.30022 0.72259 0.22852 0.0
C57 C 0.26527 0.69538 0.21498 0.0
C58 C 0.26718 0.75281 0.17447 0.0
C59 C 0.24242 0.75244 0.16375 0.0
C60 C 0.23644 0.76954 0.14466 0.0
C61 C 0.2552 0.78715 0.13554 0.0
C62 C 0.27997 0.78748 0.14635 0.0
C63 C 0.28582 0.77065 0.16572 0.0
C64 C 0.3225 0.72816 0.24581 0.0
C65 C 0.33673 0.75149 0.24444 0.0
C66 C 0.35767 0.75679 0.26076 0.0
C67 C 0.36494 0.7389 0.27878 0.0
C68 C 0.3508 0.71556 0.28015 0.0
C69 C 0.32979 0.71027 0.26389 0.0
C70 C 0.24989 0.67111 0.21717 0.0
C71 C 0.25406 0.65467 0.23761 0.0
C72 C 0.00796 0.39192 0.98735 0.0
C73 C 0.99339 0.38616 0.96505 0.0
C74 C 0.97398 0.40255 0.95824 0.0
C75 C 0.96912 0.42408 0.97352 0.0
H76 H 0.9163 0.47927 0.98535 0.0
H77 H 0.87938 0.50467 0.97703 0.0
H78 H 0.9026 0.5568 0.03919 0.0
H79 H 0.93918 0.53114 0.04799 0.0
H80 H 0.97999 0.51269 0.08869 0.0
H81 H 0.00529 0.5199 0.12785 0.0
H82 H 0.05752 0.46303 0.10194 0.0
H83 H 0.03204 0.45535 0.06318 0.0
H84 H 0.01468 0.41707 0.01975 0.0
H85 H 0.02281 0.37951 0.99336 0.0
H86 H 0.96263 0.39883 0.94098 0.0
H87 H 0.95397 0.43623 0.96773 0.0
N88 N 0.95815 0.46697 0.00738 0.0
N89 N 0.96784 0.49255 0.04405 0.0
N90 N 0.9929 0.45781 0.03369 0.0
C91 C 0.95288 0.48724 0.02299 0.0
C92 C 0.98792 0.47793 0.0495 0.0
C93 C 0.97817 0.45217 0.01261 0.0
C94 C 0.93075 0.50307 0.01742 0.0
C95 C 0.91361 0.49616 -0.00274 0.0
C96 C 0.89247 0.51081 0.99237 0.0
C97 C 0.88799 0.53275 0.00747 0.0
C98 C 0.90525 0.53978 0.02746 0.0
C99 C 0.92634 0.52511 0.03241 0.0
C100 C 0.00385 0.48332 0.0728 0.0
C101 C 0.99691 0.50177 0.09128 0.0
C102 C 0.01148 0.50599 0.11371 0.0
C103 C 0.03333 0.49192 0.1181 0.0
C104 C 0.04052 0.47384 0.09939 0.0
C105 C 0.02594 0.46955 0.07706 0.0
C106 C 0.98359 0.42973 0.99595 0.0
C107 C 0.00316 0.41344 0.00259 0.0
C108 C 0.73886 0.75735 0.11792 0.0
C109 C 0.71987 0.73844 0.11146 0.0
C110 C 0.6969 0.73744 0.12546 0.0
C111 C 0.69294 0.75493 0.14552 0.0
H112 H 0.65726 0.75958 0.21775 0.0
H113 H 0.62041 0.75152 0.2457 0.0
H114 H 0.62007 0.83171 0.2662 0.0
H115 H 0.65724 0.8399 0.23847 0.0
H116 H 0.7185 0.86475 0.23723 0.0
H117 H 0.74708 0.90207 0.24471 0.0
H118 H 0.78682 0.88546 0.1739 0.0
H119 H 0.7581 0.84812 0.16615 0.0
H120 H 0.74977 0.78945 0.14237 0.0
H121 H 0.75669 0.75864 0.1073 0.0
H122 H 0.68205 0.7229 0.1211 0.0
H123 H 0.67497 0.7535 0.15587 0.0
N124 N 0.68706 0.78844 0.18928 0.0
N125 N 0.69811 0.82621 0.21234 0.0
N126 N 0.72308 0.81353 0.17715 0.0
C127 C 0.68231 0.80518 0.20877 0.0
C128 C 0.71861 0.8305 0.19667 0.0
C129 C 0.7073 0.79246 0.17332 0.0
C130 C 0.66015 0.80039 0.22591 0.0
C131 C 0.64937 0.77552 0.22821 0.0
C132 C 0.62838 0.77085 0.24428 0.0
C133 C 0.61749 0.791 0.25801 0.0
C134 C 0.62811 0.81589 0.25566 0.0
C135 C 0.64942 0.82052 0.23993 0.0
C136 C 0.73596 0.85334 0.20106 0.0
C137 C 0.73327 0.86899 0.22317 0.0
C138 C 0.74976 0.89033 0.22758 0.0
C139 C 0.76922 0.89664 0.20993 0.0
C140 C 0.77184 0.88117 0.18773 0.0
C141 C 0.75546 0.85969 0.18338 0.0
C142 C 0.71181 0.774 0.15197 0.0
C143 C 0.73482 0.77506 0.1379 0.0
C144 C 0.03197 0.8958 0.53714 0.0
C145 C 0.01378 0.87637 0.53001 0.0
C146 C -0.00021 0.87867 0.50708 0.0
C147 C 0.00392 0.89992 0.49165 0.0
H148 H 0.97382 0.93713 0.43087 0.0
H149 H 0.94586 0.94394 0.39444 0.0
H150 H 0.99099 0.012 0.37597 0.0
H151 H 0.01881 0.00555 0.41273 0.0
H152 H 0.06644 0.0232 0.44836 0.0
H153 H 0.10322 0.05201 0.45846 0.0
H154 H 0.12407 0.00378 0.52072 0.0
H155 H 0.08721 0.97536 0.51112 0.0
H156 H 0.05033 0.93155 0.52789 0.0
H157 H 0.04275 0.89488 0.55489 0.0
H158 H 0.98585 0.86389 0.50087 0.0
H159 H 0.9929 0.90101 0.47406 0.0
N160 N 0.01143 0.94588 0.46202 0.0
N161 N 0.0359 0.98307 0.45257 0.0
N162 N 0.04689 0.95848 0.48765 0.0
C163 C 0.01575 0.96651 0.44702 0.0
C164 C 0.05159 0.97914 0.47289 0.0
C165 C 0.02691 0.94176 0.4824 0.0
C166 C -0.00133 0.97077 0.42481 0.0
C167 C 0.97785 0.9536 0.41912 0.0
C168 C 0.96185 0.9574 0.39811 0.0
C169 C 0.96623 0.97846 0.38225 0.0
C170 C 0.98692 0.99573 0.38798 0.0
C171 C 0.00297 0.99193 0.409 0.0
C172 C 0.07378 0.99692 0.47891 0.0
C173 C 0.07881 0.01876 0.46425 0.0
C174 C 0.09997 0.03522 0.46995 0.0
C175 C 0.11655 0.03021 0.49042 0.0
C176 C 0.11146 0.00843 0.50508 0.0
C177 C 0.09035 0.99202 0.49943 0.0
C178 C 0.02223 0.91928 0.49875 0.0
C179 C 0.0362 0.91695 0.52168 0.0
C180 C 0.245 0.76208 0.88675 0.0
C181 C 0.227 0.77978 0.89473 0.0
C182 C 0.20365 0.78049 0.88124 0.0
C183 C 0.19832 0.76365 0.86046 0.0
H184 H 0.15392 0.75357 0.79301 0.0
H185 H 0.11762 0.75838 0.76412 0.0
H186 H 0.12885 0.68339 0.73112 0.0
H187 H 0.16497 0.67838 0.75999 0.0
H188 H 0.22119 0.65598 0.767 0.0
H189 H 0.24986 0.62098 0.76001 0.0
H190 H 0.28805 0.64025 0.83209 0.0
H191 H 0.25939 0.67509 0.8393 0.0
H192 H 0.25398 0.73178 0.86067 0.0
H193 H 0.26339 0.76135 0.89635 0.0
H194 H 0.18924 0.7937 0.88705 0.0
H195 H 0.18003 0.76449 0.85068 0.0
N196 N 0.1899 0.72977 0.81568 0.0
N197 N 0.20034 0.69283 0.79234 0.0
N198 N 0.22578 0.70721 0.82733 0.0
C199 C 0.18473 0.71266 0.79609 0.0
C200 C 0.2209 0.68996 0.8079 0.0
C201 C 0.21044 0.72715 0.83138 0.0
C202 C 0.16244 0.71559 0.77885 0.0
C203 C 0.14864 0.73805 0.77967 0.0
C204 C 0.12792 0.74089 0.76302 0.0
C205 C 0.12042 0.72126 0.74537 0.0
C206 C 0.13404 0.69874 0.7447 0.0
C207 C 0.15485 0.69596 0.76117 0.0
C208 C 0.23797 0.66842 0.8037 0.0
C209 C 0.23563 0.65274 0.78142 0.0
C210 C 0.25214 0.63277 0.77732 0.0
C211 C 0.27119 0.62792 0.7955 0.0
C212 C 0.27338 0.64339 0.81787 0.0
C213 C 0.25702 0.66347 0.82189 0.0
C214 C 0.21618 0.74564 0.85282 0.0
C215 C 0.23963 0.74518 0.86615 0.0
C216 C 0.01856 0.61165 0.52322 0.0
C217 C 0.00276 0.6164 0.5445 0.0
C218 C 0.98212 0.59912 0.5495 0.0
C219 C 0.97722 0.57773 0.53342 0.0
H220 H 0.91744 0.52548 0.50727 0.0
H221 H 0.8787 0.49836 0.51106 0.0
H222 H 0.91577 0.43753 0.46995 0.0
H223 H 0.95394 0.46522 0.465 0.0
H224 H 0.99219 0.49014 0.41873 0.0
H225 H 0.01696 0.4867 0.37921 0.0
H226 H 0.06452 0.55239 0.40337 0.0
H227 H 0.03964 0.5562 0.44263 0.0
H228 H 0.02617 0.58745 0.49081 0.0
H229 H 0.0344 0.62476 0.51862 0.0
H230 H 0.96978 0.60207 0.56594 0.0
H231 H 0.96108 0.56489 0.53779 0.0
N232 N 0.96671 0.53478 0.49825 0.0
N233 N 0.97714 0.51076 0.46137 0.0
N234 N 0.00265 0.54682 0.47369 0.0
C235 C 0.96158 0.5146 0.48189 0.0
C236 C 0.99769 0.52685 0.45709 0.0
C237 C 0.98737 0.5509 0.49436 0.0
C238 C 0.93868 0.49754 0.48571 0.0
C239 C 0.91732 0.50627 0.49915 0.0
C240 C 0.89512 0.49061 0.50143 0.0
C241 C 0.89392 0.46568 0.49072 0.0
C242 C 0.91566 0.45678 0.47791 0.0
C243 C 0.93766 0.4726 0.47522 0.0
C244 C 0.01376 0.52356 0.43386 0.0
C245 C 0.008 0.5038 0.41572 0.0
C246 C 0.02227 0.50173 0.3931 0.0
C247 C 0.04257 0.51938 0.38809 0.0
C248 C 0.0487 0.53876 0.40647 0.0
C249 C 0.0345 0.54082 0.42908 0.0
C250 C 0.99286 0.57314 0.51195 0.0
C251 C 0.0137 0.59029 0.50716 0.0
C252 C 0.85988 0.74731 0.73617 0.0
C253 C 0.8677 0.76512 0.71772 0.0
C254 C 0.85447 0.7878 0.71586 0.0
C255 C 0.83392 0.7926 0.73226 0.0
H256 H 0.77176 0.83949 0.74389 0.0
H257 H 0.74601 0.87698 0.74005 0.0
H258 H 0.71123 0.86146 0.81366 0.0
H259 H 0.73697 0.82421 0.81773 0.0
H260 H 0.74214 0.76972 0.84104 0.0
H261 H 0.73389 0.74064 0.87621 0.0
H262 H 0.79849 0.69701 0.85261 0.0
H263 H 0.80706 0.72615 0.81764 0.0
H264 H 0.83418 0.73797 0.76669 0.0
H265 H 0.86991 0.72983 0.73832 0.0
H266 H 0.85994 0.80178 0.70165 0.0
H267 H 0.82421 0.8103 0.73041 0.0
N268 N 0.791 0.80107 0.76663 0.0
N269 N 0.76681 0.7893 0.8028 0.0
N270 N 0.79976 0.76377 0.78836 0.0
C271 C 0.7718 0.80582 0.78352 0.0
C272 C 0.78069 0.76821 0.80533 0.0
C273 C 0.80507 0.78003 0.76897 0.0
C274 C 0.75645 0.82877 0.7811 0.0
C275 C 0.75869 0.84409 0.7593 0.0
C276 C 0.74386 0.86549 0.75702 0.0
C277 C 0.72665 0.87214 0.77657 0.0
C278 C 0.72455 0.85697 0.79842 0.0
C279 C 0.73921 0.8355 0.80064 0.0
C280 C 0.77531 0.75036 0.82649 0.0
C281 C 0.75461 0.75394 0.84329 0.0
C282 C 0.74976 0.73719 0.86337 0.0
C283 C 0.76555 0.71657 0.86715 0.0
C284 C 0.78617 0.71291 0.85034 0.0
C285 C 0.79097 0.72957 0.8302 0.0
C286 C 0.82629 0.77486 0.75093 0.0
C287 C 0.83946 0.75212 0.75258 0.0
C288 C 0.36264 0.24985 0.24059 0.0
C289 C 0.36774 0.26583 0.21974 0.0
C290 C 0.353 0.28737 0.21675 0.0
C291 C 0.33389 0.29308 0.23452 0.0
H292 H 0.2742 0.34124 0.24894 0.0
H293 H 0.24769 0.37803 0.24422 0.0
H294 H 0.21992 0.36894 0.32181 0.0
H295 H 0.2465 0.33242 0.32677 0.0
H296 H 0.26498 0.28801 0.36007 0.0
H297 H 0.26054 0.26241 0.39847 0.0
H298 H 0.30565 0.20433 0.36273 0.0
H299 H 0.31005 0.22973 0.32422 0.0
H300 H 0.34055 0.24299 0.27441 0.0
H301 H 0.37386 0.23327 0.2436 0.0
H302 H 0.35628 0.29987 0.20069 0.0
H303 H 0.32311 0.31 0.23179 0.0
N304 N 0.29545 0.30477 0.27272 0.0
N305 N 0.27611 0.29706 0.31263 0.0
N306 N 0.30732 0.27001 0.29694 0.0
C307 C 0.27842 0.31133 0.29122 0.0
C308 C 0.29045 0.27635 0.3156 0.0
C309 C 0.31 0.28411 0.27547 0.0
C310 C 0.26252 0.33381 0.28824 0.0
C311 C 0.26251 0.3471 0.26504 0.0
C312 C 0.24722 0.3681 0.26226 0.0
C313 C 0.23176 0.37636 0.28266 0.0
C314 C 0.23187 0.3632 0.30586 0.0
C315 C 0.24702 0.34214 0.30861 0.0
C316 C 0.28784 0.26092 0.33901 0.0
C317 C 0.27395 0.26978 0.36034 0.0
C318 C 0.27154 0.25522 0.38242 0.0
C319 C 0.28276 0.23142 0.38355 0.0
C320 C 0.29662 0.22253 0.36227 0.0
C321 C 0.29923 0.23717 0.34027 0.0
C322 C 0.3292 0.27741 0.25574 0.0
C323 C 0.34362 0.25557 0.25838 0.0
C324 C 0.49744 0.89145 0.48065 0.0
C325 C 0.48584 0.88993 0.45623 0.0
C326 C 0.46928 0.909 0.44915 0.0
C327 C 0.46425 0.9291 0.46624 0.0
H328 H 0.40989 0.98174 0.4823 0.0
H329 H 0.37348 0.00808 0.47495 0.0
H330 H 0.39546 0.05558 0.54107 0.0
H331 H 0.43157 0.02892 0.54886 0.0
H332 H 0.4732 0.00953 0.58713 0.0
H333 H 0.49935 0.01619 0.62573 0.0
H334 H 0.55011 0.95853 0.59854 0.0
H335 H 0.52371 0.95136 0.56027 0.0
H336 H 0.50191 0.91228 0.51633 0.0
H337 H 0.51046 0.87711 0.4865 0.0
H338 H 0.4599 0.90816 0.43052 0.0
H339 H 0.4513 0.94342 0.4602 0.0
N340 N 0.45076 0.96732 0.50437 0.0
N341 N 0.46036 0.99066 0.54244 0.0
N342 N 0.48511 0.95615 0.53031 0.0
C343 C 0.44554 0.9867 0.52108 0.0
C344 C 0.48021 0.97549 0.54718 0.0
C345 C 0.4705 0.95196 0.50886 0.0
C346 C 0.42369 0.00312 0.51623 0.0
C347 C 0.40704 0.9978 0.49529 0.0
C348 C 0.3862 0.013 0.49097 0.0
C349 C 0.38154 0.03393 0.50743 0.0
C350 C 0.39829 0.03937 0.52825 0.0
C351 C 0.41909 0.02414 0.53262 0.0
C352 C 0.49627 0.97985 0.57055 0.0
C353 C 0.48993 -0.00175 0.58934 0.0
C354 C 0.50501 0.00218 0.61144 0.0
C355 C 0.52681 0.98787 0.61525 0.0
C356 C 0.53322 0.96959 0.59641 0.0
C357 C 0.51812 0.96559 0.57436 0.0
C358 C 0.47589 0.9307 0.49068 0.0
C359 C 0.49263 0.91169 0.49765 0.0
C360 C 0.23333 0.25446 0.62366 0.0
C361 C 0.2138 0.23586 0.61808 0.0
C362 C 0.19132 0.23549 0.63289 0.0
C363 C 0.18848 0.25326 0.653 0.0
H364 H 0.1483 0.26363 0.71955 0.0
H365 H 0.11271 0.25767 0.74926 0.0
H366 H 0.13138 0.33143 0.78471 0.0
H367 H 0.16698 0.33766 0.75483 0.0
H368 H 0.22333 0.36236 0.74346 0.0
H369 H 0.25357 0.39882 0.74864 0.0
H370 H 0.28728 0.38054 0.67506 0.0
H371 H 0.25697 0.34413 0.66964 0.0
H372 H 0.24584 0.28646 0.64741 0.0
H373 H 0.25076 0.25533 0.61238 0.0
H374 H 0.17606 0.22122 0.62917 0.0
H375 H 0.17092 0.25234 0.66408 0.0
N376 N 0.1852 0.28775 0.6968 0.0
N377 N 0.19926 0.32491 0.71946 0.0
N378 N 0.22185 0.31098 0.68317 0.0
C379 C 0.1822 0.30473 0.71657 0.0
C380 C 0.21914 0.32817 0.70284 0.0
C381 C 0.20494 0.29071 0.68002 0.0
C382 C 0.16057 0.30114 0.73476 0.0
C383 C 0.14489 0.27865 0.73363 0.0
C384 C 0.12455 0.27512 0.75076 0.0
C385 C 0.11932 0.29405 0.76934 0.0
C386 C 0.13486 0.3166 0.77044 0.0
C387 C 0.15534 0.32008 0.7534 0.0
C388 C 0.23765 0.35027 0.70611 0.0
C389 C 0.23715 0.36606 0.72834 0.0
C390 C 0.25459 0.38688 0.73141 0.0
C391 C 0.27279 0.3925 0.71226 0.0
C392 C 0.2733 0.37679 0.69003 0.0
C393 C 0.256 0.35584 0.68702 0.0
C394 C 0.20798 0.27194 0.65861 0.0
C395 C 0.23042 0.27238 0.64364 0.0
C396 C 0.74089 0.12513 0.73256 0.0
C397 C 0.72171 0.11951 0.71403 0.0
C398 C 0.71926 0.13594 0.6933 0.0
C399 C 0.73586 0.15738 0.69096 0.0
H400 H 0.74441 0.22883 0.65551 0.0
H401 H 0.73901 0.25946 0.6214 0.0
H402 H 0.81799 0.28613 0.6308 0.0
H403 H 0.82354 0.25568 0.66473 0.0
H404 H 0.85632 0.23601 0.70915 0.0
H405 H 0.89455 0.24079 0.73604 0.0
H406 H 0.86045 0.1884 0.7903 0.0
H407 H 0.82199 0.18351 0.76342 0.0
H408 H 0.77237 0.14999 0.74463 0.0
H409 H 0.74339 0.11269 0.74863 0.0
H410 H 0.70445 0.13224 0.67889 0.0
H411 H 0.73356 0.16949 0.6746 0.0
N412 N 0.77049 0.20173 0.68715 0.0
N413 N 0.80908 0.2235 0.69881 0.0
N414 N 0.79511 0.18734 0.7213 0.0
C415 C 0.78797 0.22125 0.6835 0.0
C416 C 0.81277 0.20671 0.71779 0.0
C417 C 0.77395 0.18465 0.706 0.0
C418 C 0.78442 0.23975 0.66285 0.0
C419 C 0.76063 0.2412 0.65029 0.0
C420 C 0.75747 0.25882 0.63088 0.0
C421 C 0.7781 0.27509 0.62346 0.0
C422 C 0.80184 0.27363 0.63598 0.0
C423 C 0.80494 0.25626 0.65553 0.0
C424 C 0.83604 0.20939 0.73414 0.0
C425 C 0.85689 0.22548 0.7268 0.0
C426 C 0.87889 0.2281 0.74209 0.0
C427 C 0.88046 0.21492 0.76519 0.0
C428 C 0.85965 0.19889 0.77263 0.0
C429 C 0.83771 0.19602 0.75718 0.0
C430 C 0.75542 0.16274 0.70922 0.0
C431 C 0.7576 0.14646 0.73016 0.0
C432 C 0.46752 0.54623 0.60232 0.0
C433 C 0.47413 0.52815 0.62044 0.0
C434 C 0.49732 0.51576 0.61744 0.0
C435 C 0.51352 0.52129 0.59679 0.0
H436 H 0.58379 0.50643 0.56829 0.0
H437 H 0.62243 0.48264 0.56333 0.0
H438 H 0.63309 0.51216 0.487 0.0
H439 H 0.5947 0.53663 0.49219 0.0
H440 H 0.55893 0.58084 0.47458 0.0
H441 H 0.5483 0.61364 0.44446 0.0
H442 H 0.48341 0.633 0.49141 0.0
H443 H 0.49357 0.59987 0.52122 0.0
H444 H 0.47797 0.56575 0.56799 0.0
H445 H 0.44965 0.5559 0.60393 0.0
H446 H 0.50315 0.50201 0.63128 0.0
H447 H 0.53125 0.51139 0.5952 0.0
N448 N 0.54621 0.53256 0.55365 0.0
N449 N 0.55576 0.55518 0.51629 0.0
N450 N 0.51812 0.56285 0.53929 0.0
C451 C 0.56211 0.53744 0.53356 0.0
C452 C 0.53381 0.56802 0.51906 0.0
C453 C 0.52417 0.5451 0.55666 0.0
C454 C 0.58601 0.52339 0.53059 0.0
C455 C 0.59434 0.50793 0.55043 0.0
C456 C 0.61647 0.49416 0.54755 0.0
C457 C 0.63079 0.49533 0.5247 0.0
C458 C 0.62268 0.51104 0.50497 0.0
C459 C 0.60057 0.52497 0.5079 0.0
C460 C 0.52716 0.58768 0.50041 0.0
C461 C 0.54234 0.59202 0.47849 0.0
C462 C 0.53633 0.61093 0.46125 0.0
C463 C 0.51504 0.62599 0.46554 0.0
C464 C 0.49973 0.62151 0.48732 0.0
C465 C 0.50569 0.60257 0.50453 0.0
C466 C 0.50693 0.53937 0.57861 0.0
C467 C 0.48373 0.55178 0.58163 0.0
C468 C 0.52957 0.40225 0.03774 0.0
C469 C 0.51064 0.38358 0.03045 0.0
C470 C 0.49676 0.38664 0.00762 0.0
C471 C 0.50182 0.4078 0.99232 0.0
H472 H 0.47767 0.4417 0.92811 0.0
H473 H 0.45191 0.44705 0.88983 0.0
H474 H 0.49638 0.51588 0.87271 0.0
H475 H 0.52212 0.51084 0.91137 0.0
H476 H 0.57067 0.52687 0.94694 0.0
H477 H 0.60833 0.55448 0.95691 0.0
H478 H 0.62346 0.50993 0.02368 0.0
H479 H 0.58569 0.48268 0.01416 0.0
H480 H 0.54944 0.43732 0.02866 0.0
H481 H 0.54032 0.40067 0.05544 0.0
H482 H 0.48226 0.37245 0.0013 0.0
H483 H 0.49089 0.4094 0.97474 0.0
N484 N 0.51241 0.45226 0.9617 0.0
N485 N 0.53805 0.48863 0.95217 0.0
N486 N 0.54682 0.46499 0.98865 0.0
C487 C 0.51785 0.47228 0.94622 0.0
C488 C 0.55264 0.48509 0.97341 0.0
C489 C 0.52676 0.4485 0.98296 0.0
C490 C 0.50207 0.47582 0.92289 0.0
C491 C 0.48204 0.45803 0.91628 0.0
C492 C 0.46732 0.46099 0.8942 0.0
C493 C 0.47219 0.48181 0.87817 0.0
C494 C 0.49204 0.49974 0.88481 0.0
C495 C 0.50687 0.49676 0.90691 0.0
C496 C 0.57509 0.50246 0.97968 0.0
C497 C 0.58193 0.523 0.96382 0.0
C498 C 0.60362 0.53877 0.96945 0.0
C499 C 0.61893 0.53437 0.99106 0.0
C500 C 0.61191 0.51405 0.00707 0.0
C501 C 0.59028 0.49831 0.00147 0.0
C502 C 0.52094 0.42636 -0.00052 0.0
C503 C 0.53468 0.42336 0.02243 0.0
C504 C 0.74492 0.28863 0.36632 0.0
C505 C 0.72415 0.30145 0.37677 0.0
C506 C 0.69923 0.29501 0.36796 0.0
C507 C 0.6951 0.27605 0.34892 0.0
H508 H 0.6508 0.26086 0.28308 0.0
H509 H 0.61408 0.26247 0.2544 0.0
H510 H 0.6323 0.18954 0.22051 0.0
H511 H 0.66902 0.18764 0.24941 0.0
H512 H 0.7228 0.16519 0.26251 0.0
H513 H 0.75159 0.12998 0.25911 0.0
H514 H 0.79362 0.15973 0.32572 0.0
H515 H 0.76471 0.19487 0.32941 0.0
H516 H 0.75708 0.25948 0.34008 0.0
H517 H 0.76429 0.29323 0.373 0.0
H518 H 0.68295 0.3047 0.37579 0.0
H519 H 0.67565 0.27143 0.34252 0.0
N520 N 0.69024 0.24231 0.30372 0.0
N521 N 0.70242 0.20446 0.28327 0.0
N522 N 0.72785 0.22317 0.31649 0.0
C523 C 0.68572 0.22354 0.28566 0.0
C524 C 0.72351 0.20409 0.29866 0.0
C525 C 0.71126 0.2423 0.31913 0.0
C526 C 0.663 0.22415 0.26855 0.0
C527 C 0.64703 0.24508 0.26961 0.0
C528 C 0.62602 0.2461 0.25306 0.0
C529 C 0.62039 0.22619 0.23513 0.0
C530 C 0.63606 0.20507 0.23428 0.0
C531 C 0.65719 0.20408 0.25076 0.0
C532 C 0.74137 0.18293 0.29625 0.0
C533 C 0.73816 0.16431 0.27645 0.0
C534 C 0.75476 0.14417 0.2744 0.0
C535 C 0.77487 0.1421 0.29214 0.0
C536 C 0.77813 0.16068 0.31191 0.0
C537 C 0.76162 0.18091 0.31391 0.0
C538 C 0.7158 0.26281 0.33877 0.0
C539 C 0.74076 0.26926 0.34766 0.0
C540 C 0.51547 0.11532 0.01521 0.0
C541 C 0.50075 0.11955 0.03739 0.0
C542 C 0.48169 0.10114 0.04407 0.0
C543 C 0.47712 0.07924 0.02866 0.0
H544 H 0.42336 0.02181 0.01511 0.0
H545 H 0.38537 0.99452 0.02267 0.0
H546 H 0.40706 0.94399 0.96043 0.0
H547 H 0.44531 0.97112 0.95287 0.0
H548 H 0.48913 0.99066 0.91425 0.0
H549 H 0.5134 0.98644 0.87444 0.0
H550 H 0.56045 0.05327 0.89619 0.0
H551 H 0.53614 0.05783 0.93569 0.0
H552 H 0.52244 0.091 0.98268 0.0
H553 H 0.53009 0.12926 0.00936 0.0
H554 H 0.47029 0.10364 0.06126 0.0
H555 H 0.46214 0.06558 0.03431 0.0
N556 N 0.4658 0.03622 0.99414 0.0
N557 N 0.47481 0.01202 0.95699 0.0
N558 N 0.50045 0.04844 0.96799 0.0
C559 C 0.46009 0.01588 0.97817 0.0
C560 C 0.49506 0.02823 0.95179 0.0
C561 C 0.48598 0.05256 0.98923 0.0
C562 C 0.43743 -0.00126 0.98331 0.0
C563 C 0.42018 0.00484 0.00306 0.0
C564 C 0.39828 0.98929 0.00732 0.0
C565 C 0.39318 0.9672 0.99207 0.0
C566 C 0.4106 0.96081 0.97261 0.0
C567 C 0.43245 0.97645 0.96822 0.0
C568 C 0.51053 0.02468 0.92818 0.0
C569 C 0.5047 0.00442 0.91062 0.0
C570 C 0.51868 0.00191 0.88784 0.0
C571 C 0.53871 0.01963 0.8821 0.0
C572 C 0.54483 0.03957 0.89986 0.0
C573 C 0.53094 0.04206 0.92261 0.0
C574 C 0.49155 0.07521 0.00623 0.0
C575 C 0.51095 0.0934 -0.00017 0.0
C576 C 0.20457 0.92262 0.00069 0.0
O577 O 0.21168 0.91617 0.97727 0.0
O578 O 0.24075 0.86919 0.98393 0.0
Zn579 Zn 0.24714 0.89267 0.01484 0.0
O580 O 0.27917 0.91457 0.00939 0.0
C581 C 0.23508 0.85396 0.05144 0.0
O582 O 0.21574 0.84905 0.03559 0.0
O583 O 0.21711 0.9149 0.01977 0.0
C584 C 0.3009 0.90455 0.00821 0.0
O585 O 0.30214 0.87977 0.01066 0.0
C586 C 0.24961 0.84701 0.98254 0.0
O587 O 0.26363 0.83915 0.00157 0.0
O588 O 0.25114 0.87211 0.04663 0.0
C589 C 0.16574 0.46133 0.27257 0.0
O590 O 0.16535 0.47933 0.29057 0.0
O591 O 0.10663 0.49331 0.28377 0.0
Zn592 Zn 0.12782 0.49195 0.25158 0.0
O593 O 0.14968 0.52421 0.24901 0.0
C594 C 0.09407 0.50641 0.21101 0.0
O595 O 0.09793 0.52922 0.22165 0.0
O596 O 0.15088 0.46249 0.2533 0.0
C597 C 0.16128 0.52958 0.22825 0.0
O598 O 0.15891 0.51368 0.2084 0.0
C599 C 0.09931 0.51453 0.29272 0.0
O600 O 0.10546 0.53553 0.28046 0.0
O601 O 0.1048 0.48754 0.22066 0.0
C602 C 0.79981 0.59303 0.98827 0.0
O603 O 0.79174 0.59621 0.96465 0.0
O604 O 0.7648 0.64543 0.96811 0.0
Zn605 Zn 0.75816 0.62517 -7e-05 0.0
O606 O 0.72632 0.60263 0.99458 0.0
C607 C 0.73395 0.6636 0.02984 0.0
O608 O 0.71675 0.66037 0.01144 0.0
O609 O 0.78823 0.60365 0.00685 0.0
C610 C 0.71183 0.59552 0.01291 0.0
O611 O 0.718 0.6025 0.03664 0.0
C612 C 0.7466 0.65038 0.95298 0.0
O613 O 0.72322 0.64163 0.95798 0.0
O614 O 0.75359 0.65009 0.0294 0.0
C615 C 0.84111 0.05662 0.28355 0.0
O616 O 0.84583 0.04283 0.30366 0.0
O617 O 0.89358 0.01484 0.28856 0.0
Zn618 Zn 0.87174 0.01962 0.25715 0.0
O619 O 0.84806 0.9888 0.25078 0.0
C620 C 0.90455 0.00625 0.21477 0.0
O621 O 0.89988 0.98302 0.22296 0.0
O622 O 0.85042 0.05036 0.26185 0.0
C623 C 0.83671 0.98553 0.22922 0.0
O624 O 0.84056 0.00257 0.21135 0.0
C625 C 0.90065 0.99275 0.29416 0.0
O626 O 0.89327 0.97311 0.27939 0.0
O627 O 0.89464 0.02491 0.22651 0.0
C628 C 0.29414 0.09575 0.49014 0.0
O629 O 0.28687 0.10064 0.46661 0.0
O630 O 0.25878 0.14803 0.47182 0.0
Zn631 Zn 0.25177 0.12655 0.50266 0.0
O632 O 0.22023 0.10419 0.49549 0.0
C633 C 0.22626 0.16258 0.53468 0.0
O634 O 0.20914 0.16017 0.51611 0.0
O635 O 0.28178 0.10483 0.50904 0.0
C636 C 0.20694 0.09461 0.51359 0.0
O637 O 0.21416 0.09922 0.53754 0.0
C638 C 0.2689 0.17044 0.47395 0.0
O639 O 0.27517 0.17981 0.49688 0.0
O640 O 0.24621 0.14957 0.53339 0.0
C641 C 0.34142 0.54698 0.77833 0.0
O642 O 0.34461 0.52978 0.79589 0.0
O643 O 0.4 0.51337 0.78226 0.0
Zn644 Zn 0.37706 0.51655 0.75142 0.0
O645 O 0.35501 0.48447 0.74605 0.0
C646 C 0.40932 0.50563 0.70795 0.0
O647 O 0.40605 0.48211 0.71583 0.0
O648 O 0.35377 0.54546 0.75736 0.0
C649 C 0.34221 0.48089 0.72537 0.0
O650 O 0.344 0.49814 0.70746 0.0
C651 C 0.40889 0.49197 0.78769 0.0
O652 O 0.40289 0.47192 0.77293 0.0
O653 O 0.39864 0.52352 0.7202 0.0
C654 C 0.71953 0.43384 0.51101 0.0
O655 O 0.73914 0.44196 0.49716 0.0
O656 O 0.74056 0.36716 0.48252 0.0
Zn657 Zn 0.74867 0.38844 0.51439 0.0
O658 O 0.78231 0.40882 0.51147 0.0
C659 C 0.76774 0.34764 0.54254 0.0
O660 O 0.78292 0.34687 0.52244 0.0
O661 O 0.7197 0.41178 0.52059 0.0
C662 C 0.80022 0.40262 0.49631 0.0
O663 O 0.7972 0.38203 0.48157 0.0
C664 C 0.74289 0.37484 0.45961 0.0
O665 O 0.75135 0.39833 0.45549 0.0
O666 O 0.75096 0.36447 0.54381 0.0
C667 C 0.66154 0.95802 0.76813 0.0
O668 O 0.66015 0.97493 0.78708 0.0
O669 O 0.60361 0.99155 0.7788 0.0
Zn670 Zn 0.62466 0.98981 0.7465 0.0
O671 O 0.64652 0.02207 0.74336 0.0
C672 C 0.59039 0.00362 0.7061 0.0
O673 O 0.59439 0.02657 0.71636 0.0
O674 O 0.64775 0.96034 0.74823 0.0
C675 C 0.65758 0.02735 0.72228 0.0
O676 O 0.65459 0.01141 0.70251 0.0
C677 C 0.59579 0.01283 0.78705 0.0
O678 O 0.6015 0.03353 0.77413 0.0
O679 O 0.60131 0.98491 0.71585 0.0
C680 C 0.98824 0.20876 0.90599 0.0
O681 O 0.96467 0.21535 0.90145 0.0
O682 O 0.96905 0.24174 0.85092 0.0
Zn683 Zn 0.00013 0.25046 0.87283 0.0
O684 O 0.99361 0.28175 0.89439 0.0
C685 C 0.03342 0.27786 0.83805 0.0
O686 O 0.0159 0.29501 0.8405 0.0
O687 O 0.00681 0.22124 0.89576 0.0
C688 C 0.01214 0.29455 0.905 0.0
O689 O 0.03559 0.28683 0.902 0.0
C690 C 0.97105 0.23232 0.82831 0.0
O691 O 0.99392 0.22809 0.81905 0.0
O692 O 0.03079 0.25721 0.85025 0.0
C693 C 0.49183 0.70871 0.39864 0.0
O694 O 0.46794 0.71438 0.39437 0.0
O695 O 0.47014 0.74543 0.34706 0.0
Zn696 Zn 0.50251 0.75282 0.36778 0.0
O697 O 0.49872 0.78315 0.39198 0.0
C698 C 0.52957 0.77065 0.32266 0.0
O699 O 0.50694 0.77859 0.31624 0.0
O700 O 0.50986 0.72244 0.38899 0.0
C701 C 0.50391 0.80601 0.38549 0.0
O702 O 0.51211 0.81047 0.3621 0.0
C703 C 0.45309 0.76177 0.34437 0.0
O704 O 0.45632 0.78436 0.3556 0.0
O705 O 0.53216 0.75917 0.34371 0.0
C706 C 0.99645 0.79073 0.59693 0.0
O707 O 0.97344 0.77979 0.59911 0.0
O708 O 0.97491 0.76125 0.65402 0.0
Zn709 Zn 0.00717 0.75419 0.63448 0.0
O710 O 0.00227 0.72156 0.6137 0.0
C711 C 0.03661 0.73218 0.67396 0.0
O712 O 0.01813 0.71443 0.67183 0.0
O713 O 0.01468 0.78288 0.61047 0.0
C714 C 0.02107 0.70893 0.60584 0.0
O715 O 0.04455 0.71748 0.61124 0.0
C716 C 0.95732 0.74407 0.65695 0.0
O717 O 0.96033 0.72107 0.64719 0.0
O718 O 0.03616 0.75147 0.65966 0.0
C719 C 0.49103 0.29568 0.09386 0.0
O720 O 0.46756 0.28612 0.09686 0.0
O721 O 0.47042 0.26259 0.14911 0.0
Zn722 Zn 0.50218 0.25626 0.12863 0.0
O723 O 0.49723 0.22416 0.10714 0.0
C724 C 0.53458 0.23291 0.16534 0.0
O725 O 0.51777 0.2137 0.1622 0.0
O726 O 0.50938 0.2858 0.10561 0.0
C727 C 0.51632 0.21329 0.09735 0.0
O728 O 0.5395 0.22351 0.10117 0.0
C729 C 0.45439 0.24467 0.15471 0.0
O730 O 0.45865 0.22121 0.14698 0.0
O731 O 0.53179 0.25317 0.1529 0.0
C732 C 0.22545 0.82268 0.91726 0.0
C733 C 0.23255 0.79712 0.91727 0.0
H734 H 0.22532 0.85853 0.93782 0.0
C735 C 0.24517 0.78818 0.939 0.0
H736 H 0.21598 0.83026 0.90072 0.0
C737 C 0.25079 0.80443 0.96009 0.0
C738 C 0.24375 0.82996 0.96005 0.0
H739 H 0.25049 0.76849 0.93988 0.0
H740 H 0.26048 0.79686 0.97651 0.0
C741 C 0.23095 0.83892 0.93845 0.0
C742 C 0.06343 0.54035 0.35021 0.0
C743 C 0.05698 0.51799 0.36356 0.0
H744 H 0.0817 0.55679 0.31738 0.0
C745 C 0.06432 0.49441 0.35326 0.0
H746 H 0.05771 0.55878 0.35745 0.0
C747 C 0.07798 0.49324 0.3302 0.0
C748 C 0.08453 0.51564 0.31693 0.0
H749 H 0.05983 0.47687 0.36322 0.0
H750 H 0.08351 0.47478 0.32286 0.0
C751 C 0.07704 0.53919 0.32715 0.0
C752 C 0.78119 0.69136 0.90393 0.0
C753 C 0.76074 0.69911 0.88877 0.0
H754 H 0.79279 0.66993 0.93611 0.0
C755 C 0.73566 0.69028 0.89457 0.0
H756 H 0.8007 0.69807 0.90007 0.0
C757 C 0.7311 0.67417 0.91522 0.0
C758 C 0.75153 0.66667 0.93057 0.0
H759 H 0.71955 0.6957 0.88302 0.0
H760 H 0.71153 0.66779 0.91926 0.0
C761 C 0.77664 0.67534 0.92464 0.0
C762 C 0.94118 0.96133 0.34388 0.0
C763 C 0.94938 0.98222 0.3597 0.0
H764 H 0.91946 0.94825 0.31085 0.0
C765 C 0.94135 0.00666 0.35381 0.0
H766 H 0.9473 0.94231 0.34768 0.0
C767 C 0.92545 0.0101 0.33259 0.0
C768 C 0.91728 0.98918 0.31678 0.0
H769 H 0.94708 0.0231 0.36579 0.0
H770 H 0.91956 0.02917 0.32862 0.0
C771 C 0.92532 0.96477 0.32267 0.0
C772 C 0.19672 0.2111 0.57944 0.0
C773 C 0.21687 0.21685 0.59688 0.0
H774 H 0.1839 0.18951 0.54604 0.0
C775 C 0.23999 0.20436 0.59393 0.0
H776 H 0.17876 0.22061 0.58113 0.0
C777 C 0.24293 0.18649 0.57392 0.0
C778 C 0.22286 0.18091 0.55631 0.0
H779 H 0.25575 0.20822 0.60726 0.0
H780 H 0.26102 0.17723 0.57214 0.0
C781 C 0.19972 0.19338 0.55929 0.0
C782 C 0.45288 0.49705 0.65049 0.0
C783 C 0.45705 0.52232 0.64254 0.0
H784 H 0.4345 0.47194 0.67728 0.0
C785 C 0.44507 0.54201 0.65606 0.0
H786 H 0.46155 0.48141 0.64025 0.0
C787 C 0.42945 0.53657 0.6772 0.0
C788 C 0.42547 0.51133 0.68528 0.0
H789 H 0.44814 0.5617 0.65061 0.0
H790 H 0.42068 0.55222 0.68732 0.0
C791 C 0.43726 0.49161 0.67163 0.0
C792 C 0.7539 0.30906 0.60206 0.0
C793 C 0.77509 0.29344 0.60258 0.0
H794 H 0.73506 0.33871 0.58281 0.0
C795 C 0.79368 0.29568 0.58318 0.0
H796 H 0.73939 0.30783 0.61691 0.0
C797 C 0.79119 0.31322 0.56365 0.0
C798 C 0.77016 0.32905 0.56324 0.0
H799 H 0.81008 0.2837 0.58298 0.0
H800 H 0.80586 0.31444 0.54896 0.0
C801 C 0.75153 0.32682 0.58265 0.0
C802 C 0.55288 0.97107 0.65124 0.0
C803 C 0.54282 0.99194 0.63877 0.0
H804 H 0.57571 0.95836 0.68224 0.0
C805 C 0.54829 0.01669 0.64885 0.0
H806 H 0.54871 0.95173 0.64422 0.0
C807 C 0.56359 0.02049 0.67082 0.0
C808 C 0.57381 -0.00038 0.68313 0.0
H809 H 0.54111 0.03321 0.63952 0.0
H810 H 0.5676 0.03981 0.67798 0.0
C811 C 0.56825 0.97487 0.67313 0.0
C812 C 0.9282 0.21736 0.77061 0.0
C813 C 0.90366 0.21826 0.78157 0.0
H814 H 0.96876 0.22085 0.77684 0.0
C815 C 0.90142 0.22312 0.80814 0.0
H816 H 0.93044 0.21342 0.75021 0.0
C817 C 0.92333 0.22753 0.82337 0.0
C818 C 0.94789 0.22689 0.81237 0.0
H819 H 0.88272 0.22411 0.81703 0.0
H820 H 0.92099 0.23156 0.84375 0.0
C821 C 0.95011 0.22149 0.78588 0.0
C822 C 0.48998 0.84323 0.44683 0.0
C823 C 0.49087 0.86844 0.43822 0.0
H824 H 0.49322 0.80368 0.43687 0.0
C825 C 0.4964 0.87299 0.41226 0.0
H826 H 0.48554 0.83918 0.4667 0.0
C827 C 0.50093 0.85272 0.39521 0.0
C828 C 0.49975 0.82747 0.40373 0.0
H829 H 0.49745 0.89227 0.40518 0.0
H830 H 0.50511 0.85686 0.3753 0.0
C831 C 0.49424 0.82293 0.42972 0.0
C832 C 0.09345 0.26663 0.79937 0.0
C833 C 0.09765 0.29019 0.78745 0.0
H834 H 0.07001 0.2443 0.8248 0.0
C835 C 0.08081 0.30985 0.79263 0.0
H836 H 0.10629 0.25122 0.79597 0.0
C837 C 0.05998 0.3059 0.80914 0.0
C838 C 0.05569 0.28226 0.82093 0.0
H839 H 0.08346 0.32814 0.78353 0.0
H840 H 0.0472 0.32135 0.81257 0.0
C841 C 0.07274 0.26272 0.81599 0.0
C842 C 0.5289 0.66236 0.43749 0.0
C843 C 0.50909 0.64667 0.44768 0.0
H844 H 0.53903 0.69419 0.41406 0.0
C845 C 0.48355 0.65123 0.44112 0.0
H846 H 0.54875 0.6596 0.44242 0.0
C847 C 0.47795 0.67124 0.42502 0.0
C848 C 0.49776 0.68707 0.41507 0.0
H849 H 0.46786 0.63927 0.44834 0.0
H850 H 0.45808 0.67431 0.42046 0.0
C851 C 0.52331 0.6823 0.42134 0.0
C852 C 0.89313 0.73569 0.69013 0.0
C853 C 0.88998 0.76015 0.70096 0.0
H854 H 0.91678 0.71144 0.6677 0.0
C855 C 0.90877 0.77953 0.6965 0.0
H856 H 0.8788 0.72046 0.69294 0.0
C857 C 0.93053 0.77439 0.68198 0.0
C858 C 0.93391 0.74978 0.67158 0.0
H859 H 0.907 0.7985 0.70481 0.0
H860 H 0.94485 0.78964 0.6792 0.0
C861 C 0.91485 0.73056 0.67558 0.0
C862 C 0.98441 0.84362 0.55064 0.0
C863 C 0.00937 0.85392 0.54659 0.0
H864 H 0.96077 0.81563 0.5697 0.0
C865 C 0.03007 0.84287 0.55885 0.0
H866 H 0.96801 0.85187 0.54176 0.0
C867 C 0.0259 0.82229 0.5751 0.0
C868 C 0.00093 0.81218 0.57933 0.0
H869 H 0.04958 0.85004 0.5558 0.0
H870 H 0.04227 0.81431 0.58433 0.0
C871 C 0.98025 0.82294 0.56679 0.0
C872 C 0.09631 0.74708 0.71418 0.0
C873 C 0.09863 0.72429 0.7275 0.0
H874 H 0.07502 0.7674 0.68668 0.0
C875 C 0.08024 0.70425 0.7233 0.0
H876 H 0.11034 0.76276 0.71684 0.0
C877 C 0.05999 0.7069 0.70607 0.0
C878 C 0.05782 0.72958 0.69253 0.0
H879 H 0.08141 0.68656 0.7335 0.0
H880 H 0.04616 0.69108 0.70326 0.0
C881 C 0.07616 0.74967 0.69679 0.0
C882 C 0.0326 0.64811 0.56765 0.0
C883 C 0.00747 0.63966 0.56096 0.0
H884 H 0.05663 0.67655 0.58709 0.0
C885 C 0.98686 0.65397 0.56956 0.0
H886 H 0.04888 0.63733 0.56162 0.0
C887 C 0.99129 0.67635 0.58426 0.0
C888 C 0.01644 0.68496 0.59068 0.0
H889 H 0.96729 0.64818 0.56446 0.0
H890 H 0.97497 0.68703 0.59037 0.0
C891 C 0.03704 0.67053 0.58234 0.0
C892 C 0.79292 0.93617 0.1949 0.0
C893 C 0.78674 0.9193 0.21476 0.0
H894 H 0.81338 0.97043 0.18391 0.0
C895 C 0.79724 0.9243 0.23938 0.0
H896 H 0.78492 0.93293 0.17579 0.0
C897 C 0.81355 0.94574 0.24405 0.0
C898 C 0.81958 0.96274 0.22423 0.0
H899 H 0.79305 0.91147 0.255 0.0
H900 H 0.82135 0.94901 0.26323 0.0
C901 C 0.80909 0.95772 0.1996 0.0
C902 C 0.79935 0.1074 0.31208 0.0
C903 C 0.79229 0.12052 0.29007 0.0
H904 H 0.8202 0.07686 0.3273 0.0
C905 C 0.80174 0.11271 0.26599 0.0
H906 H 0.79215 0.11282 0.33087 0.0
C907 C 0.81778 0.09213 0.26393 0.0
C908 C 0.82463 0.07881 0.28589 0.0
H909 H 0.79689 0.12264 0.24873 0.0
H910 H 0.82468 0.08658 0.24506 0.0
C911 C 0.8153 0.08671 0.31001 0.0
C912 C 0.37048 0.92437 0.99636 0.0
C913 C 0.36957 0.95109 0.99623 0.0
H914 H 0.34956 0.88872 0.00043 0.0
C915 C 0.34589 0.96239 5e-05 0.0
H916 H 0.3885 0.91515 0.9937 0.0
C917 C 0.32358 0.94729 0.00387 0.0
C918 C 0.3245 0.92056 0.0041 0.0
H919 H 0.34455 0.98293 -0.00024 0.0
H920 H 0.30563 0.95659 0.00668 0.0
C921 C 0.3482 0.90926 0.00035 0.0
C922 C 0.20074 0.40105 0.2573 0.0
C923 C 0.21535 0.39849 0.27975 0.0
H924 H 0.17349 0.42281 0.23745 0.0
C925 C 0.21382 0.41698 0.29963 0.0
H926 H 0.20134 0.38695 0.24176 0.0
C927 C 0.19787 0.43749 0.29721 0.0
C928 C 0.18301 0.43989 0.27489 0.0
H929 H 0.22509 0.41566 0.31704 0.0
H930 H 0.19708 0.45137 0.31291 0.0
C931 C 0.18468 0.4215 0.25491 0.0
C932 C 0.14631 0.05334 0.52198 0.0
C933 C 0.13931 0.04734 0.49633 0.0
H934 H 0.17307 0.07293 0.54756 0.0
C935 C 0.15457 0.05735 0.47641 0.0
H936 H 0.13476 0.04623 0.53778 0.0
C937 C 0.17646 0.07279 0.48201 0.0
C938 C 0.18359 0.07853 0.50767 0.0
H939 H 0.1499 0.05285 0.45646 0.0
H940 H 0.1879 0.08002 0.4662 0.0
C941 C 0.16821 0.06874 0.52759 0.0
C942 C 0.69406 0.08935 0.73981 0.0
C943 C 0.70473 0.09623 0.71604 0.0
H944 H 0.67068 0.0623 0.76041 0.0
C945 C 0.69952 0.08045 0.69427 0.0
H946 H 0.69754 0.10128 0.75686 0.0
C947 C 0.68417 0.0581 0.69628 0.0
C948 C 0.6736 0.05114 0.72008 0.0
H949 H 0.70771 0.08512 0.67575 0.0
H950 H 0.68068 0.04625 0.67919 0.0
C951 C 0.67859 0.06708 0.7418 0.0
C952 C 0.34452 0.05863 0.52381 0.0
C953 C 0.3592 0.0499 0.50299 0.0
H954 H 0.31249 0.07986 0.53611 0.0
C955 C 0.35227 0.05642 0.47791 0.0
H956 H 0.34911 0.05364 0.54334 0.0
C957 C 0.33113 0.07127 0.47374 0.0
C958 C 0.31648 0.07999 0.49456 0.0
H959 H 0.36337 0.0503 0.46148 0.0
H960 H 0.32636 0.076 0.45419 0.0
C961 C 0.32343 0.07353 0.51965 0.0
C962 C 0.67583 0.48968 0.50899 0.0
C963 C 0.65374 0.47977 0.52135 0.0
H964 H 0.71398 0.48301 0.49611 0.0
C965 C 0.65364 0.45473 0.53043 0.0
H966 H 0.67667 0.509 0.50206 0.0
C967 C 0.67507 0.43996 0.52727 0.0
C968 C 0.6971 0.44981 0.51482 0.0
H969 H 0.63681 0.44633 0.53964 0.0
H970 H 0.67423 0.42069 0.53437 0.0
C971 C 0.69727 0.47484 0.50572 0.0
C972 C 0.74538 0.34196 0.39415 0.0
C973 C 0.72836 0.32085 0.39753 0.0
H974 H 0.76294 0.37606 0.41114 0.0
C975 C 0.71562 0.31801 0.42109 0.0
H976 H 0.75533 0.34449 0.37605 0.0
C977 C 0.72027 0.3357 0.44121 0.0
C978 C 0.73732 0.35683 0.43792 0.0
H979 H 0.7025 0.30179 0.42412 0.0
H980 H 0.7105 0.33284 0.45935 0.0
C981 C 0.7496 0.36001 0.41411 0.0
C982 C 0.55908 0.03968 0.84348 0.0
C983 C 0.55298 0.01767 0.85753 0.0
H984 H 0.57722 0.0554 0.81024 0.0
C985 C 0.56074 0.99394 0.84799 0.0
H986 H 0.55302 0.0582 0.85013 0.0
C987 C 0.57456 0.99231 0.82504 0.0
C988 C 0.58081 0.01438 0.81112 0.0
H989 H 0.55652 0.97668 0.8585 0.0
H990 H 0.58046 0.97377 0.81831 0.0
C991 C 0.57282 0.03805 0.82054 0.0
C992 C 0.27303 0.18957 0.40431 0.0
C993 C 0.27972 0.21574 0.40674 0.0
H994 H 0.26424 0.15476 0.42366 0.0
C995 C 0.28321 0.22685 0.43142 0.0
H996 H 0.26999 0.18057 0.38552 0.0
C997 C 0.28002 0.21207 0.45328 0.0
C998 C 0.27302 0.18596 0.45086 0.0
H999 H 0.28861 0.24694 0.4338 0.0
H1000 H 0.28278 0.22119 0.47205 0.0
C1001 C 0.26961 0.17485 0.42616 0.0
C1002 C 0.44998 0.4633 0.83872 0.0
C1003 C 0.45653 0.48466 0.8546 0.0
H1004 H 0.42994 0.44886 0.80516 0.0
C1005 C 0.44766 0.50858 0.84804 0.0
H1006 H 0.45682 0.44467 0.84306 0.0
C1007 C 0.43228 0.51101 0.82625 0.0
C1008 C 0.42553 0.48958 0.81052 0.0
H1009 H 0.45218 0.52534 0.86003 0.0
H1010 H 0.42555 0.52967 0.82186 0.0
C1011 C 0.43467 0.46573 0.81692 0.0
C1012 C 0.74702 0.70716 0.08806 0.0
C1013 C 0.72385 0.7197 0.09022 0.0
H1014 H 0.76832 0.67934 0.06743 0.0
C1015 C 0.70417 0.71382 0.07228 0.0
H1016 H 0.76242 0.71117 0.10176 0.0
C1017 C 0.70752 0.69566 0.05265 0.0
C1018 C 0.73056 0.68287 0.05063 0.0
H1019 H 0.6862 0.72339 0.07333 0.0
H1020 H 0.69196 0.69158 0.03914 0.0
C1021 C 0.75031 0.68882 0.06852 0.0
C1022 C 0.94128 0.0397 0.16162 0.0
C1023 C 0.95099 0.01904 0.14758 0.0
H1024 H 0.91911 0.05191 0.19383 0.0
C1025 C 0.94544 0.99412 0.15597 0.0
H1026 H 0.94551 0.05915 0.1559 0.0
C1027 C 0.93046 0.98996 0.17785 0.0
C1028 C 0.92068 0.01064 0.1918 0.0
H1029 H 0.95236 0.97777 0.14541 0.0
H1030 H 0.92643 0.97053 0.1837 0.0
C1031 C 0.92627 0.03555 0.18347 0.0
C1032 C 0.23244 0.79668 0.09433 0.0
C1033 C 0.24915 0.80476 0.1145 0.0
H1034 H 0.21474 0.80595 0.05877 0.0
C1035 C 0.26046 0.82959 0.11408 0.0
H1036 H 0.22371 0.77757 0.0937 0.0
C1037 C 0.25572 0.84565 0.0937 0.0
C1038 C 0.23923 0.83742 0.07352 0.0
H1039 H 0.27298 0.83672 0.1295 0.0
H1040 H 0.26496 0.86455 0.0938 0.0
C1041 C 0.22739 0.8129 0.07418 0.0
C1042 C 0.05353 0.52035 0.15283 0.0
C1043 C 0.04846 0.49574 0.14222 0.0
H1044 H 0.07192 0.54305 0.18286 0.0
C1045 C 0.0581 0.47469 0.15475 0.0
H1046 H 0.0466 0.53698 0.14351 0.0
C1047 C 0.07276 0.47817 0.17714 0.0
C1048 C 0.07803 0.50277 0.18762 0.0
H1049 H 0.05416 0.45544 0.14735 0.0
H1050 H 0.07995 0.46152 0.18623 0.0
C1051 C 0.06814 0.52383 0.17531 0.0
C1052 C 0.4051 0.72584 0.30062 0.0
C1053 C 0.38727 0.74456 0.29602 0.0
H1054 H 0.4399 0.71659 0.31942 0.0
C1055 C 0.39105 0.76882 0.30781 0.0
H1056 H 0.40285 0.70705 0.2916 0.0
C1057 C 0.41229 0.77432 0.32369 0.0
C1058 C 0.43027 0.75569 0.32808 0.0
H1059 H 0.37747 0.78354 0.3049 0.0
H1060 H 0.41466 0.79323 0.33241 0.0
C1061 C 0.4264 0.73136 0.31645 0.0
C1062 C 0.02341 0.3555 0.94467 0.0
C1063 C -0.00179 0.36292 0.94923 0.0
H1064 H 0.04758 0.32813 0.92717 0.0
C1065 C 0.97765 0.34772 0.93896 0.0
H1066 H 0.0397 0.36697 0.952 0.0
C1067 C 0.98217 0.32555 0.92457 0.0
C1068 C 0.00736 0.31805 0.92018 0.0
H1069 H 0.958 0.3527 0.94241 0.0
H1070 H 0.96588 0.31421 0.91705 0.0
C1071 C 0.02793 0.33329 0.93033 0.0
C1072 C 0.59547 0.76678 0.29304 0.0
C1073 C 0.59505 0.78598 0.27471 0.0
H1074 H 0.57513 0.74705 0.32282 0.0
C1075 C 0.57297 0.80009 0.27217 0.0
H1076 H 0.61236 0.75573 0.2954 0.0
C1077 C 0.55153 0.7949 0.28756 0.0
C1078 C 0.55201 0.77582 0.30606 0.0
H1079 H 0.57217 0.81488 0.25802 0.0
H1080 H 0.53471 0.80601 0.28514 0.0
C1081 C 0.57423 0.76189 0.30875 0.0
C1082 C 0.023 0.16005 0.94399 0.0
C1083 C 0.0025 0.14535 0.9543 0.0
H1084 H 0.03461 0.19158 0.92075 0.0
C1085 C 0.97725 0.15174 0.94861 0.0
H1086 H 0.04268 0.15588 0.9483 0.0
C1087 C 0.97261 0.17236 0.93297 0.0
C1088 C 0.99312 0.18701 0.92264 0.0
H1089 H 0.96104 0.14061 0.95599 0.0
H1090 H 0.95293 0.17671 0.92889 0.0
C1091 C 0.01836 0.18063 0.92832 0.0
C1092 C 0.40594 0.28043 0.19401 0.0
C1093 C 0.38907 0.26052 0.20185 0.0
H1094 H 0.4398 0.29105 0.17305 0.0
C1095 C 0.39339 0.23543 0.19336 0.0
H1096 H 0.40332 0.29992 0.20048 0.0
C1097 C 0.4144 0.2303 0.17775 0.0
C1098 C 0.43156 0.25016 0.17035 0.0
H1099 H 0.38054 0.21973 0.19884 0.0
H1100 H 0.41732 0.21074 0.17172 0.0
C1101 C 0.42696 0.27531 0.17844 0.0
C1102 C 0.48033 0.35143 0.05068 0.0
C1103 C 0.50556 0.3609 0.04654 0.0
H1104 H 0.45593 0.32344 0.06886 0.0
C1105 C 0.52597 0.34855 0.05789 0.0
H1106 H 0.46416 0.36069 0.04246 0.0
C1107 C 0.52125 0.32734 0.07317 0.0
C1108 C 0.49601 0.31794 0.07739 0.0
H1109 H 0.54566 0.35511 0.05475 0.0
H1110 H 0.53742 0.31829 0.08164 0.0
C1111 C 0.4756 0.33016 0.06592 0.0
C1112 C 0.59406 0.25066 0.20474 0.0
C1113 C 0.59845 0.22773 0.21714 0.0
H1114 H 0.57058 0.27024 0.17862 0.0
C1115 C 0.58175 0.20642 0.21227 0.0
H1116 H 0.6068 0.26731 0.20786 0.0
C1117 C 0.56096 0.20808 0.19547 0.0
C1118 C 0.55656 0.23104 0.18311 0.0
H1119 H 0.58455 0.18857 0.22172 0.0
H1120 H 0.54835 0.19137 0.1922 0.0
C1121 C 0.57338 0.25228 0.18787 0.0
C1122 C 0.52976 0.15364 0.05807 0.0
C1123 C 0.50485 0.14336 0.05313 0.0
H1124 H 0.55294 0.18375 0.07593 0.0
C1125 C 0.4838 0.15626 0.06295 0.0
H1126 H 0.5464 0.144 0.05104 0.0
C1127 C 0.48754 0.17893 0.07733 0.0
C1128 C 0.51243 0.18926 0.08216 0.0
H1129 H 0.46435 0.14908 0.05916 0.0
H1130 H 0.47088 0.18842 0.08451 0.0
C1131 C 0.53351 0.17636 0.07242 0.0
C1132 C 0.30364 0.41989 0.73904 0.0
C1133 C 0.29106 0.41482 0.71543 0.0
H1134 H 0.32983 0.44457 0.76064 0.0
C1135 C 0.2958 0.43138 0.69495 0.0
H1136 H 0.30057 0.4073 0.75506 0.0
C1137 C 0.31253 0.45276 0.69813 0.0
C1138 C 0.32499 0.45792 0.7218 0.0
H1139 H 0.2862 0.42808 0.6766 0.0
H1140 H 0.31558 0.4653 0.68206 0.0
C1141 C 0.32051 0.44116 0.74217 0.0
C1142 C 0.30046 0.60352 0.76687 0.0
C1143 C 0.28896 0.60699 0.79103 0.0
H1144 H 0.32622 0.58199 0.74396 0.0
C1145 C 0.29479 0.59056 0.81098 0.0
H1146 H 0.29653 0.61607 0.75123 0.0
C1147 C 0.31178 0.57102 0.80684 0.0
C1148 C 0.32342 0.56764 0.78272 0.0
H1149 H 0.28601 0.59266 0.82974 0.0
H1150 H 0.31583 0.55863 0.82259 0.0
C1151 C 0.3176 0.58411 0.76278 0.0
C1152 C 0.85403 0.45056 0.51418 0.0
C1153 C 0.86997 0.44925 0.4924 0.0
H1154 H 0.81942 0.43703 0.53239 0.0
C1155 C 0.86265 0.4323 0.47203 0.0
H1156 H 0.85919 0.46298 0.53046 0.0
C1157 C 0.84016 0.41698 0.47346 0.0
C1158 C 0.82418 0.41858 0.49507 0.0
H1159 H 0.87404 0.4311 0.45469 0.0
H1160 H 0.83505 0.40422 0.4574 0.0
C1161 C 0.83128 0.43556 0.51538 0.0
C1162 C 0.70748 0.91148 0.79518 0.0
C1163 C 0.71062 0.89461 0.77412 0.0
H1164 H 0.68967 0.94481 0.80975 0.0
C1165 C 0.69786 0.89902 0.75093 0.0
H1166 H 0.7173 0.9087 0.81321 0.0
C1167 C 0.68198 0.91966 0.74894 0.0
C1168 C 0.67868 0.93642 0.77007 0.0
H1169 H 0.69973 0.88619 0.73446 0.0
H1170 H 0.67221 0.9224 0.73087 0.0
C1171 C 0.69175 0.93222 0.79315 0.0
C1172 C 0.64885 0.55814 0.02208 0.0
C1173 C 0.64246 0.55053 0.99666 0.0
H1174 H 0.67571 0.57829 0.04717 0.0
C1175 C 0.65904 0.55797 0.97665 0.0
H1176 H 0.63633 0.55298 0.03789 0.0
C1177 C 0.68154 0.57255 0.98195 0.0
C1178 C 0.688 0.58002 0.00738 0.0
H1179 H 0.65486 0.55213 0.95691 0.0
H1180 H 0.69393 0.57786 0.96608 0.0
C1181 C 0.67138 0.57272 0.02738 0.0
C1182 C 0.1956 0.59251 0.24649 0.0
C1183 C 0.20594 0.60007 0.2228 0.0
H1184 H 0.17328 0.56439 0.26678 0.0
C1185 C 0.20165 0.58418 0.20093 0.0
H1186 H 0.19838 0.60449 0.26361 0.0
C1187 C 0.18731 0.56118 0.20272 0.0
C1188 C 0.17682 0.5537 0.22639 0.0
H1189 H 0.20961 0.58942 0.18246 0.0
H1190 H 0.18435 0.54936 0.18552 0.0
C1191 C 0.18112 0.5696 0.24826 0.0
C1192 C 0.85126 0.55831 0.02309 0.0
C1193 C 0.86533 0.54816 0.00251 0.0
H1194 H 0.81957 0.58035 0.03477 0.0
C1195 C 0.85755 0.5528 0.97719 0.0
H1196 H 0.85648 0.55477 0.04282 0.0
C1197 C 0.83623 0.56729 0.97257 0.0
C1198 C 0.82225 0.5775 0.99316 0.0
H1199 H 0.86816 0.54555 0.9609 0.0
H1200 H 0.83084 0.5706 0.95284 0.0
C1201 C 0.82999 0.57285 0.01847 0.0
C1202 C 0.14559 0.96017 0.98805 0.0
C1203 C 0.1383 0.96737 0.01312 0.0
H1204 H 0.17218 0.94038 0.96444 0.0
C1205 C 0.1532 0.95997 0.03401 0.0
H1206 H 0.13435 0.96533 0.97157 0.0
C1207 C 0.17476 0.94556 0.02995 0.0
C1208 C 0.18196 0.93824 0.00489 0.0
H1209 H 0.14834 0.96554 0.05353 0.0
H1210 H 0.18578 0.94017 0.04649 0.0
C1211 C 0.16719 0.94577 0.98397 0.0
loop_
_geom_bond_atom_site_label_1
_geom_bond_atom_site_label_2
_geom_bond_distance
_geom_bond_site_symmetry_2
_ccdc_geom_bond_type
C0 C1 1.384 . S
C0 H13 0.947 . S
C0 C35 1.382 . S
C1 C0 1.384 . S
C1 C2 1.378 . S
C2 C1 1.378 . S
C2 C3 1.378 1_655 S
C2 H14 0.952 . S
C3 C2 1.378 1_455 S
C3 H15 0.950 . S
C3 C34 1.383 . S
H4 C23 0.947 . S
H5 C24 0.946 . S
H6 C26 0.952 . S
H7 C27 0.945 . S
H8 C29 0.952 . S
H9 C30 0.949 . S
H10 C32 0.950 1_655 S
H11 C33 0.948 . S
H12 C35 0.951 . S
H13 C0 0.947 . S
H14 C2 0.952 . S
H15 C3 0.950 . S
N16 C19 1.382 . S
N16 C21 1.363 . S
N17 C19 1.371 . S
N17 C20 1.372 . S
N18 C20 1.361 . S
N18 C21 1.377 . S
C19 N16 1.382 . S
C19 N17 1.371 . S
C19 C22 1.480 . S
C20 N17 1.372 . S
C20 N18 1.361 . S
C20 C28 1.457 . S
C21 N16 1.363 . S
C21 N18 1.377 . S
C21 C34 1.479 . S
C22 C19 1.480 . S
C22 C23 1.383 1_545 S
C22 C27 1.385 . S
C23 H4 0.947 . S
C23 C22 1.383 1_565 S
C23 C24 1.388 . S
C24 H5 0.946 . S
C24 C23 1.388 . S
C24 C25 1.384 . S
C25 C24 1.384 . S
C25 C26 1.377 1_565 S
C26 H6 0.952 . S
C26 C25 1.377 1_545 S
C26 C27 1.369 . S
C27 H7 0.945 . S
C27 C22 1.385 . S
C27 C26 1.369 . S
C28 C20 1.457 . S
C28 C29 1.372 1_554 S
C28 C33 1.364 . S
C29 H8 0.952 . S
C29 C28 1.372 1_556 S
C29 C30 1.389 . S
C30 H9 0.949 . S
C30 C29 1.389 . S
C30 C31 1.387 . S
C31 C30 1.387 . S
C31 C32 1.372 1_556 S
C32 H10 0.950 1_455 S
C32 C31 1.372 1_554 S
C32 C33 1.379 . S
C33 H11 0.948 . S
C33 C28 1.364 . S
C33 C32 1.379 . S
C34 C3 1.383 . S
C34 C21 1.479 . S
C34 C35 1.398 1_455 S
C35 C0 1.382 . S
C35 H12 0.951 . S
C35 C34 1.398 1_655 S
C36 C37 1.384 . S
C36 H49 0.947 . S
C36 C71 1.382 . S
C37 C36 1.384 . S
C37 C38 1.378 . S
C38 C37 1.378 . S
C38 C39 1.378 . S
C38 H50 0.952 . S
C39 C38 1.378 . S
C39 H51 0.950 . S
C39 C70 1.383 . S
H40 C59 0.947 . S
H41 C60 0.946 . S
H42 C62 0.953 . S
H43 C63 0.945 . S
H44 C65 0.952 . S
H45 C66 0.949 . S
H46 C68 0.950 . S
H47 C69 0.948 . S
H48 C71 0.951 . S
H49 C36 0.947 . S
H50 C38 0.952 . S
H51 C39 0.950 . S
N52 C55 1.382 . S
N52 C57 1.363 . S
N53 C55 1.371 . S
N53 C56 1.372 . S
N54 C56 1.361 . S
N54 C57 1.377 . S
C55 N52 1.382 . S
C55 N53 1.371 . S
C55 C58 1.480 . S
C56 N53 1.372 . S
C56 N54 1.361 . S
C56 C64 1.457 . S
C57 N52 1.363 . S
C57 N54 1.377 . S
C57 C70 1.479 . S
C58 C55 1.480 . S
C58 C59 1.383 . S
C58 C63 1.385 . S
C59 H40 0.947 . S
C59 C58 1.383 . S
C59 C60 1.388 . S
C60 H41 0.946 . S
C60 C59 1.388 . S
C60 C61 1.384 . S
C61 C60 1.384 . S
C61 C62 1.377 . S
C62 H42 0.953 . S
C62 C61 1.377 . S
C62 C63 1.369 . S
C63 H43 0.945 . S
C63 C58 1.385 . S
C63 C62 1.369 . S
C64 C56 1.457 . S
C64 C65 1.372 . S
C64 C69 1.364 . S
C65 H44 0.952 . S
C65 C64 1.372 . S
C65 C66 1.389 . S
C66 H45 0.949 . S
C66 C65 1.389 . S
C66 C67 1.387 . S
C67 C66 1.387 . S
C67 C68 1.372 . S
C68 H46 0.950 . S
C68 C67 1.372 . S
C68 C69 1.379 . S
C69 H47 0.948 . S
C69 C64 1.364 . S
C69 C68 1.379 . S
C70 C39 1.383 . S
C70 C57 1.479 . S
C70 C71 1.398 . S
C71 C36 1.382 . S
C71 H48 0.951 . S
C71 C70 1.398 . S
C72 C73 1.384 . S
C72 H85 0.947 1_655 S
C72 C107 1.382 1_556 S
C73 C72 1.384 . S
C73 C74 1.378 . S
C74 C73 1.378 . S
C74 C75 1.378 . S
C74 H86 0.952 . S
C75 C74 1.378 . S
C75 H87 0.950 . S
C75 C106 1.367 1_556 S
H76 C95 0.947 1_556 S
H77 C96 0.946 1_556 S
H78 C98 0.953 . S
H79 C99 0.945 . S
H80 C101 0.952 . S
H81 C102 0.949 . S
H82 C104 0.950 . S
H83 C105 0.948 . S
H84 C107 0.951 1_455 S
H85 C72 0.947 1_455 S
H86 C74 0.952 . S
H87 C75 0.950 . S
N88 C91 1.382 . S
N88 C93 1.363 . S
N89 C91 1.371 . S
N89 C92 1.372 . S
N90 C92 1.361 . S
N90 C93 1.377 . S
C91 N88 1.382 . S
C91 N89 1.371 . S
C91 C94 1.480 . S
C92 N89 1.372 . S
C92 N90 1.361 . S
C92 C100 1.457 1_655 S
C93 N88 1.363 . S
C93 N90 1.377 . S
C93 C106 1.491 . S
C94 C91 1.480 . S
C94 C95 1.383 . S
C94 C99 1.385 . S
C95 H76 0.947 1_554 S
C95 C94 1.383 . S
C95 C96 1.388 . S
C96 H77 0.946 1_554 S
C96 C95 1.388 . S
C96 C97 1.384 . S
C97 C96 1.384 . S
C97 C98 1.377 . S
C98 H78 0.953 . S
C98 C97 1.377 . S
C98 C99 1.369 . S
C99 H79 0.945 . S
C99 C94 1.385 . S
C99 C98 1.369 . S
C100 C92 1.457 1_455 S
C100 C101 1.372 1_455 S
C100 C105 1.364 . S
C101 H80 0.952 . S
C101 C100 1.372 1_655 S
C101 C102 1.389 1_655 S
C102 H81 0.949 . S
C102 C101 1.389 1_455 S
C102 C103 1.387 . S
C103 C102 1.387 . S
C103 C104 1.372 . S
C104 H82 0.950 . S
C104 C103 1.372 . S
C104 C105 1.379 . S
C105 H83 0.948 . S
C105 C100 1.364 . S
C105 C104 1.379 . S
C106 C75 1.367 1_554 S
C106 C93 1.491 . S
C106 C107 1.403 . S
C107 C72 1.382 1_554 S
C107 H84 0.951 1_655 S
C107 C106 1.403 . S
C108 C109 1.384 . S
C108 H121 0.947 . S
C108 C143 1.382 . S
C109 C108 1.384 . S
C109 C110 1.378 . S
C110 C109 1.378 . S
C110 C111 1.378 . S
C110 H122 0.952 . S
C111 C110 1.378 . S
C111 H123 0.950 . S
C111 C142 1.383 . S
H112 C131 0.947 . S
H113 C132 0.946 . S
H114 C134 0.953 . S
H115 C135 0.945 . S
H116 C137 0.952 . S
H117 C138 0.949 . S
H118 C140 0.950 . S
H119 C141 0.948 . S
H120 C143 0.951 . S
H121 C108 0.947 . S
H122 C110 0.952 . S
H123 C111 0.950 . S
N124 C127 1.382 . S
N124 C129 1.363 . S
N125 C127 1.371 . S
N125 C128 1.372 . S
N126 C128 1.361 . S
N126 C129 1.377 . S
C127 N124 1.382 . S
C127 N125 1.371 . S
C127 C130 1.480 . S
C128 N125 1.372 . S
C128 N126 1.361 . S
C128 C136 1.457 . S
C129 N124 1.363 . S
C129 N126 1.377 . S
C129 C142 1.479 . S
C130 C127 1.480 . S
C130 C131 1.383 . S
C130 C135 1.385 . S
C131 H112 0.947 . S
C131 C130 1.383 . S
C131 C132 1.388 . S
C132 H113 0.946 . S
C132 C131 1.388 . S
C132 C133 1.384 . S
C133 C132 1.384 . S
C133 C134 1.377 . S
C134 H114 0.953 . S
C134 C133 1.377 . S
C134 C135 1.369 . S
C135 H115 0.945 . S
C135 C130 1.385 . S
C135 C134 1.369 . S
C136 C128 1.457 . S
C136 C137 1.372 . S
C136 C141 1.364 . S
C137 H116 0.952 . S
C137 C136 1.372 . S
C137 C138 1.389 . S
C138 H117 0.949 . S
C138 C137 1.389 . S
C138 C139 1.387 . S
C139 C138 1.387 . S
C139 C140 1.372 . S
C140 H118 0.950 . S
C140 C139 1.372 . S
C140 C141 1.379 . S
C141 H119 0.948 . S
C141 C136 1.364 . S
C141 C140 1.379 . S
C142 C111 1.383 . S
C142 C129 1.479 . S
C142 C143 1.398 . S
C143 C108 1.382 . S
C143 H120 0.951 . S
C143 C142 1.398 . S
C144 C145 1.384 . S
C144 H157 0.947 . S
C144 C179 1.382 . S
C145 C144 1.384 . S
C145 C146 1.378 . S
C146 C145 1.378 . S
C146 C147 1.378 . S
C146 H158 0.952 1_455 S
C147 C146 1.378 . S
C147 H159 0.950 . S
C147 C178 1.383 . S
H148 C167 0.947 . S
H149 C168 0.946 . S
H150 C170 0.959 . S
H151 C171 0.945 1_545 S
H152 C173 0.952 . S
H153 C174 0.949 . S
H154 C176 0.950 . S
H155 C177 0.948 . S
H156 C179 0.951 . S
H157 C144 0.947 . S
H158 C146 0.952 1_655 S
H159 C147 0.950 . S
N160 C163 1.382 . S
N160 C165 1.363 . S
N161 C163 1.371 . S
N161 C164 1.372 . S
N162 C164 1.361 . S
N162 C165 1.377 . S
C163 N160 1.382 . S
C163 N161 1.371 . S
C163 C166 1.480 . S
C164 N161 1.372 . S
C164 N162 1.361 . S
C164 C172 1.457 1_565 S
C165 N160 1.363 . S
C165 N162 1.377 . S
C165 C178 1.479 . S
C166 C163 1.480 . S
C166 C167 1.383 1_455 S
C166 C171 1.385 . S
C167 H148 0.947 . S
C167 C166 1.383 1_655 S
C167 C168 1.388 . S
C168 H149 0.946 . S
C168 C167 1.388 . S
C168 C169 1.384 . S
C169 C168 1.384 . S
C169 C170 1.377 1_565 S
C170 H150 0.959 . S
C170 C169 1.377 1_545 S
C170 C171 1.369 1_645 S
C171 H151 0.945 1_565 S
C171 C166 1.385 . S
C171 C170 1.369 1_465 S
C172 C164 1.457 1_545 S
C172 C173 1.372 . S
C172 C177 1.364 1_545 S
C173 H152 0.952 . S
C173 C172 1.372 . S
C173 C174 1.389 . S
C174 H153 0.949 . S
C174 C173 1.389 . S
C174 C175 1.387 . S
C175 C174 1.387 . S
C175 C176 1.372 . S
C176 H154 0.950 . S
C176 C175 1.372 . S
C176 C177 1.379 1_545 S
C177 H155 0.948 . S
C177 C172 1.364 1_565 S
C177 C176 1.379 1_565 S
C178 C147 1.383 . S
C178 C165 1.479 . S
C178 C179 1.398 . S
C179 C144 1.382 . S
C179 H156 0.951 . S
C179 C178 1.398 . S
C180 C181 1.384 . S
C180 H193 0.947 . S
C180 C215 1.382 . S
C181 C180 1.384 . S
C181 C182 1.378 . S
C182 C181 1.378 . S
C182 C183 1.378 . S
C182 H194 0.952 . S
C183 C182 1.378 . S
C183 H195 0.950 . S
C183 C214 1.383 . S
H184 C203 0.947 . S
H185 C204 0.946 . S
H186 C206 0.953 . S
H187 C207 0.945 . S
H188 C209 0.952 . S
H189 C210 0.949 . S
H190 C212 0.950 . S
H191 C213 0.948 . S
H192 C215 0.951 . S
H193 C180 0.947 . S
H194 C182 0.952 . S
H195 C183 0.950 . S
N196 C199 1.382 . S
N196 C201 1.363 . S
N197 C199 1.371 . S
N197 C200 1.372 . S
N198 C200 1.361 . S
N198 C201 1.377 . S
C199 N196 1.382 . S
C199 N197 1.371 . S
C199 C202 1.480 . S
C200 N197 1.372 . S
C200 N198 1.361 . S
C200 C208 1.457 . S
C201 N196 1.363 . S
C201 N198 1.377 . S
C201 C214 1.479 . S
C202 C199 1.480 . S
C202 C203 1.383 . S
C202 C207 1.385 . S
C203 H184 0.947 . S
C203 C202 1.383 . S
C203 C204 1.388 . S
C204 H185 0.946 . S
C204 C203 1.388 . S
C204 C205 1.384 . S
C205 C204 1.384 . S
C205 C206 1.377 . S
C206 H186 0.953 . S
C206 C205 1.377 . S
C206 C207 1.369 . S
C207 H187 0.945 . S
C207 C202 1.385 . S
C207 C206 1.369 . S
C208 C200 1.457 . S
C208 C209 1.372 . S
C208 C213 1.364 . S
C209 H188 0.952 . S
C209 C208 1.372 . S
C209 C210 1.389 . S
C210 H189 0.949 . S
C210 C209 1.389 . S
C210 C211 1.387 . S
C211 C210 1.387 . S
C211 C212 1.372 . S
C212 H190 0.950 . S
C212 C211 1.372 . S
C212 C213 1.379 . S
C213 H191 0.948 . S
C213 C208 1.364 . S
C213 C212 1.379 . S
C214 C183 1.383 . S
C214 C201 1.479 . S
C214 C215 1.398 . S
C215 C180 1.382 . S
C215 H192 0.951 . S
C215 C214 1.398 . S
C216 C217 1.403 . S
C216 H229 0.924 1_655 S
C216 C251 1.387 . S
C217 C216 1.403 . S
C217 C218 1.378 . S
C218 C217 1.378 . S
C218 C219 1.378 . S
C218 H230 0.952 . S
C219 C218 1.378 . S
C219 H231 0.950 . S
C219 C250 1.383 . S
H220 C239 0.947 . S
H221 C240 0.946 . S
H222 C242 0.953 . S
H223 C243 0.945 . S
H224 C245 0.952 . S
H225 C246 0.949 . S
H226 C248 0.950 . S
H227 C249 0.948 . S
H228 C251 0.951 1_455 S
H229 C216 0.924 1_455 S
H230 C218 0.952 . S
H231 C219 0.950 . S
N232 C235 1.382 . S
N232 C237 1.363 . S
N233 C235 1.371 . S
N233 C236 1.372 . S
N234 C236 1.361 . S
N234 C237 1.377 . S
C235 N232 1.382 . S
C235 N233 1.371 . S
C235 C238 1.480 . S
C236 N233 1.372 . S
C236 N234 1.361 . S
C236 C244 1.457 1_655 S
C237 N232 1.363 . S
C237 N234 1.377 . S
C237 C250 1.479 . S
C238 C235 1.480 . S
C238 C239 1.383 . S
C238 C243 1.385 . S
C239 H220 0.947 . S
C239 C238 1.383 . S
C239 C240 1.388 . S
C240 H221 0.946 . S
C240 C239 1.388 . S
C240 C241 1.384 . S
C241 C240 1.384 . S
C241 C242 1.377 . S
C242 H222 0.953 . S
C242 C241 1.377 . S
C242 C243 1.369 . S
C243 H223 0.945 . S
C243 C238 1.385 . S
C243 C242 1.369 . S
C244 C236 1.457 1_455 S
C244 C245 1.372 1_455 S
C244 C249 1.364 . S
C245 H224 0.952 . S
C245 C244 1.372 1_655 S
C245 C246 1.389 1_655 S
C246 H225 0.949 . S
C246 C245 1.389 1_455 S
C246 C247 1.387 . S
C247 C246 1.387 . S
C247 C248 1.372 . S
C248 H226 0.950 . S
C248 C247 1.372 . S
C248 C249 1.379 . S
C249 H227 0.948 . S
C249 C244 1.364 . S
C249 C248 1.379 . S
C250 C219 1.383 . S
C250 C237 1.479 . S
C250 C251 1.398 . S
C251 C216 1.387 . S
C251 H228 0.951 1_655 S
C251 C250 1.398 . S
C252 C253 1.384 . S
C252 H265 0.947 . S
C252 C287 1.382 . S
C253 C252 1.384 . S
C253 C254 1.378 . S
C254 C253 1.378 . S
C254 C255 1.378 . S
C254 H266 0.952 . S
C255 C254 1.378 . S
C255 H267 0.950 . S
C255 C286 1.383 . S
H256 C275 0.947 . S
H257 C276 0.946 . S
H258 C278 0.953 . S
H259 C279 0.945 . S
H260 C281 0.952 . S
H261 C282 0.949 . S
H262 C284 0.950 . S
H263 C285 0.948 . S
H264 C287 0.951 . S
H265 C252 0.947 . S
H266 C254 0.952 . S
H267 C255 0.950 . S
N268 C271 1.382 . S
N268 C273 1.363 . S
N269 C271 1.371 . S
N269 C272 1.372 . S
N270 C272 1.361 . S
N270 C273 1.377 . S
C271 N268 1.382 . S
C271 N269 1.371 . S
C271 C274 1.480 . S
C272 N269 1.372 . S
C272 N270 1.361 . S
C272 C280 1.457 . S
C273 N268 1.363 . S
C273 N270 1.377 . S
C273 C286 1.479 . S
C274 C271 1.480 . S
C274 C275 1.383 . S
C274 C279 1.385 . S
C275 H256 0.947 . S
C275 C274 1.383 . S
C275 C276 1.388 . S
C276 H257 0.946 . S
C276 C275 1.388 . S
C276 C277 1.384 . S
C277 C276 1.384 . S
C277 C278 1.377 . S
C278 H258 0.953 . S
C278 C277 1.377 . S
C278 C279 1.369 . S
C279 H259 0.945 . S
C279 C274 1.385 . S
C279 C278 1.369 . S
C280 C272 1.457 . S
C280 C281 1.372 . S
C280 C285 1.364 . S
C281 H260 0.952 . S
C281 C280 1.372 . S
C281 C282 1.389 . S
C282 H261 0.949 . S
C282 C281 1.389 . S
C282 C283 1.387 . S
C283 C282 1.387 . S
C283 C284 1.372 . S
C284 H262 0.950 . S
C284 C283 1.372 . S
C284 C285 1.379 . S
C285 H263 0.948 . S
C285 C280 1.364 . S
C285 C284 1.379 . S
C286 C255 1.383 . S
C286 C273 1.479 . S
C286 C287 1.398 . S
C287 C252 1.382 . S
C287 H264 0.951 . S
C287 C286 1.398 . S
C288 C289 1.384 . S
C288 H301 0.947 . S
C288 C323 1.382 . S
C289 C288 1.384 . S
C289 C290 1.378 . S
C290 C289 1.378 . S
C290 C291 1.378 . S
C290 H302 0.952 . S
C291 C290 1.378 . S
C291 H303 0.950 . S
C291 C322 1.383 . S
H292 C311 0.947 . S
H293 C312 0.946 . S
H294 C314 0.953 . S
H295 C315 0.945 . S
H296 C317 0.952 . S
H297 C318 0.949 . S
H298 C320 0.950 . S
H299 C321 0.948 . S
H300 C323 0.951 . S
H301 C288 0.947 . S
H302 C290 0.952 . S
H303 C291 0.950 . S
N304 C307 1.382 . S
N304 C309 1.363 . S
N305 C307 1.371 . S
N305 C308 1.372 . S
N306 C308 1.361 . S
N306 C309 1.377 . S
C307 N304 1.382 . S
C307 N305 1.371 . S
C307 C310 1.480 . S
C308 N305 1.372 . S
C308 N306 1.361 . S
C308 C316 1.457 . S
C309 N304 1.363 . S
C309 N306 1.377 . S
C309 C322 1.479 . S
C310 C307 1.480 . S
C310 C311 1.383 . S
C310 C315 1.385 . S
C311 H292 0.947 . S
C311 C310 1.383 . S
C311 C312 1.388 . S
C312 H293 0.946 . S
C312 C311 1.388 . S
C312 C313 1.384 . S
C313 C312 1.384 . S
C313 C314 1.377 . S
C314 H294 0.953 . S
C314 C313 1.377 . S
C314 C315 1.369 . S
C315 H295 0.945 . S
C315 C310 1.385 . S
C315 C314 1.369 . S
C316 C308 1.457 . S
C316 C317 1.372 . S
C316 C321 1.364 . S
C317 H296 0.952 . S
C317 C316 1.372 . S
C317 C318 1.389 . S
C318 H297 0.949 . S
C318 C317 1.389 . S
C318 C319 1.387 . S
C319 C318 1.387 . S
C319 C320 1.372 . S
C320 H298 0.950 . S
C320 C319 1.372 . S
C320 C321 1.379 . S
C321 H299 0.948 . S
C321 C316 1.364 . S
C321 C320 1.379 . S
C322 C291 1.383 . S
C322 C309 1.479 . S
C322 C323 1.398 . S
C323 C288 1.382 . S
C323 H300 0.951 . S
C323 C322 1.398 . S
C324 C325 1.384 . S
C324 H337 0.947 . S
C324 C359 1.382 . S
C325 C324 1.384 . S
C325 C326 1.378 . S
C326 C325 1.378 . S
C326 C327 1.378 . S
C326 H338 0.952 . S
C327 C326 1.378 . S
C327 H339 0.950 . S
C327 C358 1.383 . S
H328 C347 0.947 . S
H329 C348 0.946 . S
H330 C350 0.953 . S
H331 C351 0.945 . S
H332 C353 0.952 1_545 S
H333 C354 0.949 1_545 S
H334 C356 0.950 . S
H335 C357 0.948 . S
H336 C359 0.951 . S
H337 C324 0.947 . S
H338 C326 0.952 . S
H339 C327 0.950 . S
N340 C343 1.382 . S
N340 C345 1.363 . S
N341 C343 1.371 . S
N341 C344 1.372 . S
N342 C344 1.361 . S
N342 C345 1.377 . S
C343 N340 1.382 . S
C343 N341 1.371 . S
C343 C346 1.480 1_565 S
C344 N341 1.372 . S
C344 N342 1.361 . S
C344 C352 1.457 . S
C345 N340 1.363 . S
C345 N342 1.377 . S
C345 C358 1.479 . S
C346 C343 1.480 1_545 S
C346 C347 1.383 1_545 S
C346 C351 1.385 . S
C347 H328 0.947 . S
C347 C346 1.383 1_565 S
C347 C348 1.388 1_565 S
C348 H329 0.946 . S
C348 C347 1.388 1_545 S
C348 C349 1.384 . S
C349 C348 1.384 . S
C349 C350 1.377 . S
C350 H330 0.953 . S
C350 C349 1.377 . S
C350 C351 1.369 . S
C351 H331 0.945 . S
C351 C346 1.385 . S
C351 C350 1.369 . S
C352 C344 1.457 . S
C352 C353 1.372 . S
C352 C357 1.364 . S
C353 H332 0.952 1_565 S
C353 C352 1.372 . S
C353 C354 1.389 . S
C354 H333 0.949 1_565 S
C354 C353 1.389 . S
C354 C355 1.387 . S
C355 C354 1.387 . S
C355 C356 1.372 . S
C356 H334 0.950 . S
C356 C355 1.372 . S
C356 C357 1.379 . S
C357 H335 0.948 . S
C357 C352 1.364 . S
C357 C356 1.379 . S
C358 C327 1.383 . S
C358 C345 1.479 . S
C358 C359 1.398 . S
C359 C324 1.382 . S
C359 H336 0.951 . S
C359 C358 1.398 . S
C360 C361 1.384 . S
C360 H373 0.947 . S
C360 C395 1.382 . S
C361 C360 1.384 . S
C361 C362 1.378 . S
C362 C361 1.378 . S
C362 C363 1.378 . S
C362 H374 0.952 . S
C363 C362 1.378 . S
C363 H375 0.950 . S
C363 C394 1.383 . S
H364 C383 0.947 . S
H365 C384 0.946 . S
H366 C386 0.953 . S
H367 C387 0.945 . S
H368 C389 0.952 . S
H369 C390 0.949 . S
H370 C392 0.950 . S
H371 C393 0.948 . S
H372 C395 0.951 . S
H373 C360 0.947 . S
H374 C362 0.952 . S
H375 C363 0.950 . S
N376 C379 1.382 . S
N376 C381 1.363 . S
N377 C379 1.371 . S
N377 C380 1.372 . S
N378 C380 1.361 . S
N378 C381 1.377 . S
C379 N376 1.382 . S
C379 N377 1.371 . S
C379 C382 1.480 . S
C380 N377 1.372 . S
C380 N378 1.361 . S
C380 C388 1.457 . S
C381 N376 1.363 . S
C381 N378 1.377 . S
C381 C394 1.479 . S
C382 C379 1.480 . S
C382 C383 1.383 . S
C382 C387 1.385 . S
C383 H364 0.947 . S
C383 C382 1.383 . S
C383 C384 1.388 . S
C384 H365 0.946 . S
C384 C383 1.388 . S
C384 C385 1.384 . S
C385 C384 1.384 . S
C385 C386 1.377 . S
C386 H366 0.953 . S
C386 C385 1.377 . S
C386 C387 1.369 . S
C387 H367 0.945 . S
C387 C382 1.385 . S
C387 C386 1.369 . S
C388 C380 1.457 . S
C388 C389 1.372 . S
C388 C393 1.364 . S
C389 H368 0.952 . S
C389 C388 1.372 . S
C389 C390 1.389 . S
C390 H369 0.949 . S
C390 C389 1.389 . S
C390 C391 1.387 . S
C391 C390 1.387 . S
C391 C392 1.372 . S
C392 H370 0.950 . S
C392 C391 1.372 . S
C392 C393 1.379 . S
C393 H371 0.948 . S
C393 C388 1.364 . S
C393 C392 1.379 . S
C394 C363 1.383 . S
C394 C381 1.479 . S
C394 C395 1.398 . S
C395 C360 1.382 . S
C395 H372 0.951 . S
C395 C394 1.398 . S
C396 C397 1.384 . S
C396 H409 0.947 . S
C396 C431 1.382 . S
C397 C396 1.384 . S
C397 C398 1.378 . S
C398 C397 1.378 . S
C398 C399 1.378 . S
C398 H410 0.952 . S
C399 C398 1.378 . S
C399 H411 0.950 . S
C399 C430 1.383 . S
H400 C419 0.947 . S
H401 C420 0.946 . S
H402 C422 0.953 . S
H403 C423 0.945 . S
H404 C425 0.952 . S
H405 C426 0.949 . S
H406 C428 0.950 . S
H407 C429 0.948 . S
H408 C431 0.951 . S
H409 C396 0.947 . S
H410 C398 0.952 . S
H411 C399 0.950 . S
N412 C415 1.382 . S
N412 C417 1.363 . S
N413 C415 1.371 . S
N413 C416 1.372 . S
N414 C416 1.361 . S
N414 C417 1.377 . S
C415 N412 1.382 . S
C415 N413 1.371 . S
C415 C418 1.480 . S
C416 N413 1.372 . S
C416 N414 1.361 . S
C416 C424 1.457 . S
C417 N412 1.363 . S
C417 N414 1.377 . S
C417 C430 1.479 . S
C418 C415 1.480 . S
C418 C419 1.383 . S
C418 C423 1.385 . S
C419 H400 0.947 . S
C419 C418 1.383 . S
C419 C420 1.388 . S
C420 H401 0.946 . S
C420 C419 1.388 . S
C420 C421 1.384 . S
C421 C420 1.384 . S
C421 C422 1.377 . S
C422 H402 0.953 . S
C422 C421 1.377 . S
C422 C423 1.369 . S
C423 H403 0.945 . S
C423 C418 1.385 . S
C423 C422 1.369 . S
C424 C416 1.457 . S
C424 C425 1.372 . S
C424 C429 1.364 . S
C425 H404 0.952 . S
C425 C424 1.372 . S
C425 C426 1.389 . S
C426 H405 0.949 . S
C426 C425 1.389 . S
C426 C427 1.387 . S
C427 C426 1.387 . S
C427 C428 1.372 . S
C428 H406 0.950 . S
C428 C427 1.372 . S
C428 C429 1.379 . S
C429 H407 0.948 . S
C429 C424 1.364 . S
C429 C428 1.379 . S
C430 C399 1.383 . S
C430 C417 1.479 . S
C430 C431 1.398 . S
C431 C396 1.382 . S
C431 H408 0.951 . S
C431 C430 1.398 . S
C432 C433 1.384 . S
C432 H445 0.947 . S
C432 C467 1.382 . S
C433 C432 1.384 . S
C433 C434 1.378 . S
C434 C433 1.378 . S
C434 C435 1.378 . S
C434 H446 0.952 . S
C435 C434 1.378 . S
C435 H447 0.950 . S
C435 C466 1.383 . S
H436 C455 0.947 . S
H437 C456 0.946 . S
H438 C458 0.953 . S
H439 C459 0.945 . S
H440 C461 0.952 . S
H441 C462 0.949 . S
H442 C464 0.950 . S
H443 C465 0.948 . S
H444 C467 0.951 . S
H445 C432 0.947 . S
H446 C434 0.952 . S
H447 C435 0.950 . S
N448 C451 1.382 . S
N448 C453 1.363 . S
N449 C451 1.371 . S
N449 C452 1.372 . S
N450 C452 1.361 . S
N450 C453 1.377 . S
C451 N448 1.382 . S
C451 N449 1.371 . S
C451 C454 1.480 . S
C452 N449 1.372 . S
C452 N450 1.361 . S
C452 C460 1.457 . S
C453 N448 1.363 . S
C453 N450 1.377 . S
C453 C466 1.479 . S
C454 C451 1.480 . S
C454 C455 1.383 . S
C454 C459 1.385 . S
C455 H436 0.947 . S
C455 C454 1.383 . S
C455 C456 1.388 . S
C456 H437 0.946 . S
C456 C455 1.388 . S
C456 C457 1.384 . S
C457 C456 1.384 . S
C457 C458 1.377 . S
C458 H438 0.953 . S
C458 C457 1.377 . S
C458 C459 1.369 . S
C459 H439 0.945 . S
C459 C454 1.385 . S
C459 C458 1.369 . S
C460 C452 1.457 . S
C460 C461 1.372 . S
C460 C465 1.364 . S
C461 H440 0.952 . S
C461 C460 1.372 . S
C461 C462 1.389 . S
C462 H441 0.949 . S
C462 C461 1.389 . S
C462 C463 1.387 . S
C463 C462 1.387 . S
C463 C464 1.372 . S
C464 H442 0.950 . S
C464 C463 1.372 . S
C464 C465 1.379 . S
C465 H443 0.948 . S
C465 C460 1.364 . S
C465 C464 1.379 . S
C466 C435 1.383 . S
C466 C453 1.479 . S
C466 C467 1.398 . S
C467 C432 1.382 . S
C467 H444 0.951 . S
C467 C466 1.398 . S
C468 C469 1.384 . S
C468 H481 0.947 . S
C468 C503 1.382 . S
C469 C468 1.384 . S
C469 C470 1.378 . S
C470 C469 1.378 . S
C470 C471 1.378 1_554 S
C470 H482 0.947 1_554 S
C471 C470 1.378 1_556 S
C471 H483 0.950 . S
C471 C502 1.383 . S
H472 C491 0.947 . S
H473 C492 0.946 . S
H474 C494 0.953 . S
H475 C495 0.945 . S
H476 C497 0.952 . S
H477 C498 0.949 . S
H478 C500 0.929 1_554 S
H479 C501 0.948 . S
H480 C503 0.951 . S
H481 C468 0.947 . S
H482 C470 0.947 1_556 S
H483 C471 0.950 . S
N484 C487 1.382 . S
N484 C489 1.363 . S
N485 C487 1.371 . S
N485 C488 1.372 . S
N486 C488 1.361 . S
N486 C489 1.377 . S
C487 N484 1.382 . S
C487 N485 1.371 . S
C487 C490 1.480 . S
C488 N485 1.372 . S
C488 N486 1.361 . S
C488 C496 1.457 . S
C489 N484 1.363 . S
C489 N486 1.377 . S
C489 C502 1.479 . S
C490 C487 1.480 . S
C490 C491 1.383 . S
C490 C495 1.385 . S
C491 H472 0.947 . S
C491 C490 1.383 . S
C491 C492 1.388 . S
C492 H473 0.946 . S
C492 C491 1.388 . S
C492 C493 1.384 . S
C493 C492 1.384 . S
C493 C494 1.377 . S
C494 H474 0.953 . S
C494 C493 1.377 . S
C494 C495 1.369 . S
C495 H475 0.945 . S
C495 C490 1.385 . S
C495 C494 1.369 . S
C496 C488 1.457 . S
C496 C497 1.372 . S
C496 C501 1.364 . S
C497 H476 0.952 . S
C497 C496 1.372 . S
C497 C498 1.389 . S
C498 H477 0.949 . S
C498 C497 1.389 . S
C498 C499 1.387 . S
C499 C498 1.387 . S
C499 C500 1.372 . S
C500 H478 0.929 1_556 S
C500 C499 1.372 . S
C500 C501 1.379 . S
C501 H479 0.948 . S
C501 C496 1.364 . S
C501 C500 1.379 . S
C502 C471 1.383 . S
C502 C489 1.479 . S
C502 C503 1.398 1_556 S
C503 C468 1.382 . S
C503 H480 0.951 . S
C503 C502 1.398 1_554 S
C504 C505 1.384 . S
C504 H517 0.947 . S
C504 C539 1.382 . S
C505 C504 1.384 . S
C505 C506 1.378 . S
C506 C505 1.378 . S
C506 C507 1.378 . S
C506 H518 0.952 . S
C507 C506 1.378 . S
C507 H519 0.950 . S
C507 C538 1.383 . S
H508 C527 0.947 . S
H509 C528 0.946 . S
H510 C530 0.953 . S
H511 C531 0.945 . S
H512 C533 0.952 . S
H513 C534 0.949 . S
H514 C536 0.950 . S
H515 C537 0.948 . S
H516 C539 0.951 . S
H517 C504 0.947 . S
H518 C506 0.952 . S
H519 C507 0.950 . S
N520 C523 1.382 . S
N520 C525 1.363 . S
N521 C523 1.371 . S
N521 C524 1.372 . S
N522 C524 1.361 . S
N522 C525 1.377 . S
C523 N520 1.382 . S
C523 N521 1.371 . S
C523 C526 1.480 . S
C524 N521 1.372 . S
C524 N522 1.361 . S
C524 C532 1.457 . S
C525 N520 1.363 . S
C525 N522 1.377 . S
C525 C538 1.479 . S
C526 C523 1.480 . S
C526 C527 1.383 . S
C526 C531 1.385 . S
C527 H508 0.947 . S
C527 C526 1.383 . S
C527 C528 1.388 . S
C528 H509 0.946 . S
C528 C527 1.388 . S
C528 C529 1.384 . S
C529 C528 1.384 . S
C529 C530 1.377 . S
C530 H510 0.953 . S
C530 C529 1.377 . S
C530 C531 1.369 . S
C531 H511 0.945 . S
C531 C526 1.385 . S
C531 C530 1.369 . S
C532 C524 1.457 . S
C532 C533 1.372 . S
C532 C537 1.364 . S
C533 H512 0.952 . S
C533 C532 1.372 . S
C533 C534 1.389 . S
C534 H513 0.949 . S
C534 C533 1.389 . S
C534 C535 1.387 . S
C535 C534 1.387 . S
C535 C536 1.372 . S
C536 H514 0.950 . S
C536 C535 1.372 . S
C536 C537 1.379 . S
C537 H515 0.948 . S
C537 C532 1.364 . S
C537 C536 1.379 . S
C538 C507 1.383 . S
C538 C525 1.479 . S
C538 C539 1.398 . S
C539 C504 1.382 . S
C539 H516 0.951 . S
C539 C538 1.398 . S
C540 C541 1.384 . S
C540 H553 0.947 . S
C540 C575 1.382 1_554 S
C541 C540 1.384 . S
C541 C542 1.378 . S
C542 C541 1.378 . S
C542 C543 1.378 . S
C542 H554 0.952 . S
C543 C542 1.378 . S
C543 H555 0.950 . S
C543 C574 1.383 . S
H544 C563 0.947 1_554 S
H545 C564 0.948 1_544 S
H546 C566 0.953 . S
H547 C567 0.945 . S
H548 C569 0.952 . S
H549 C570 0.949 1_565 S
H550 C572 0.950 . S
H551 C573 0.948 . S
H552 C575 0.951 . S
H553 C540 0.947 . S
H554 C542 0.952 . S
H555 C543 0.950 . S
N556 C559 1.382 . S
N556 C561 1.363 . S
N557 C559 1.371 . S
N557 C560 1.372 . S
N558 C560 1.361 . S
N558 C561 1.377 . S
C559 N556 1.382 . S
C559 N557 1.371 . S
C559 C562 1.480 . S
C560 N557 1.372 . S
C560 N558 1.361 . S
C560 C568 1.457 . S
C561 N556 1.363 . S
C561 N558 1.377 . S
C561 C574 1.479 1_556 S
C562 C559 1.480 . S
C562 C563 1.383 . S
C562 C567 1.385 1_545 S
C563 H544 0.947 1_556 S
C563 C562 1.383 . S
C563 C564 1.388 1_545 S
C564 H545 0.948 1_566 S
C564 C563 1.388 1_565 S
C564 C565 1.382 . S
C565 C564 1.382 . S
C565 C566 1.377 . S
C566 H546 0.953 . S
C566 C565 1.377 . S
C566 C567 1.369 . S
C567 H547 0.945 . S
C567 C562 1.385 1_565 S
C567 C566 1.369 . S
C568 C560 1.457 . S
C568 C569 1.372 . S
C568 C573 1.364 . S
C569 H548 0.952 . S
C569 C568 1.372 . S
C569 C570 1.389 . S
C570 H549 0.949 1_545 S
C570 C569 1.389 . S
C570 C571 1.387 . S
C571 C570 1.387 . S
C571 C572 1.372 . S
C572 H550 0.950 . S
C572 C571 1.372 . S
C572 C573 1.379 . S
C573 H551 0.948 . S
C573 C568 1.364 . S
C573 C572 1.379 . S
C574 C543 1.383 . S
C574 C561 1.479 1_554 S
C574 C575 1.398 1_554 S
C575 C540 1.382 1_556 S
C575 H552 0.951 . S
C575 C574 1.398 1_556 S
C576 O577 1.160 1_554 S
C576 O583 1.185 . S
O577 C576 1.160 1_556 S
O578 Zn579 1.899 1_556 S
O578 C586 1.284 . S
Zn579 O578 1.899 1_554 S
Zn579 O580 2.032 . S
Zn579 O583 2.086 . S
Zn579 O588 1.977 . S
O580 Zn579 2.032 . S
O580 C584 1.278 . S
C581 O582 1.203 . S
C581 O588 1.267 . S
O582 C581 1.203 . S
O583 C576 1.185 . S
O583 Zn579 2.086 . S
C584 O580 1.278 . S
C584 O585 1.211 . S
O585 C584 1.211 . S
C586 O578 1.284 . S
C586 O587 1.273 . S
O587 C586 1.273 . S
O588 Zn579 1.977 . S
O588 C581 1.267 . S
C589 O590 1.160 . S
C589 O596 1.185 . S
O590 C589 1.160 . S
O591 Zn592 1.899 . S
O591 C599 1.284 . S
Zn592 O591 1.899 . S
Zn592 O593 2.032 . S
Zn592 O596 2.086 . S
Zn592 O601 1.977 . S
O593 Zn592 2.032 . S
O593 C597 1.278 . S
C594 O595 1.203 . S
C594 O601 1.267 . S
O595 C594 1.203 . S
O596 C589 1.185 . S
O596 Zn592 2.086 . S
C597 O593 1.278 . S
C597 O598 1.211 . S
O598 C597 1.211 . S
C599 O591 1.284 . S
C599 O600 1.273 . S
O600 C599 1.273 . S
O601 Zn592 1.977 . S
O601 C594 1.267 . S
C602 O603 1.160 1_554 S
C602 O609 1.185 . S
O603 C602 1.160 1_556 S
O604 Zn605 1.899 1_556 S
O604 C612 1.284 . S
Zn605 O604 1.899 1_554 S
Zn605 O606 2.032 1_554 S
Zn605 O609 2.086 . S
Zn605 O614 1.977 . S
O606 Zn605 2.032 1_556 S
O606 C610 1.278 . S
C607 O608 1.203 . S
C607 O614 1.267 . S
O608 C607 1.203 . S
O609 C602 1.185 . S
O609 Zn605 2.086 . S
C610 O606 1.278 . S
C610 O611 1.211 1_556 S
O611 C610 1.211 1_554 S
C612 O604 1.284 . S
C612 O613 1.273 . S
O613 C612 1.273 . S
O614 Zn605 1.977 . S
O614 C607 1.267 . S
C615 O616 1.160 . S
C615 O622 1.185 . S
O616 C615 1.160 . S
O617 Zn618 1.899 . S
O617 C625 1.284 . S
Zn618 O617 1.899 . S
Zn618 O619 2.032 1_545 S
Zn618 O622 2.086 . S
Zn618 O627 1.977 . S
O619 Zn618 2.032 1_565 S
O619 C623 1.278 . S
C620 O621 1.203 . S
C620 O627 1.267 . S
O621 C620 1.203 . S
O622 C615 1.185 . S
O622 Zn618 2.086 . S
C623 O619 1.278 . S
C623 O624 1.211 . S
O624 C623 1.211 . S
C625 O617 1.284 . S
C625 O626 1.273 1_545 S
O626 C625 1.273 1_565 S
O627 Zn618 1.977 . S
O627 C620 1.267 . S
C628 O629 1.160 . S
C628 O635 1.185 . S
O629 C628 1.160 . S
O630 Zn631 1.899 . S
O630 C638 1.284 . S
Zn631 O630 1.899 . S
Zn631 O632 2.032 . S
Zn631 O635 2.086 . S
Zn631 O640 1.977 . S
O632 Zn631 2.032 . S
O632 C636 1.278 . S
C633 O634 1.203 . S
C633 O640 1.267 . S
O634 C633 1.203 . S
O635 C628 1.185 . S
O635 Zn631 2.086 . S
C636 O632 1.278 . S
C636 O637 1.211 . S
O637 C636 1.211 . S
C638 O630 1.284 . S
C638 O639 1.273 . S
O639 C638 1.273 . S
O640 Zn631 1.977 . S
O640 C633 1.267 . S
C641 O642 1.160 . S
C641 O648 1.185 . S
O642 C641 1.160 . S
O643 Zn644 1.899 . S
O643 C651 1.284 . S
Zn644 O643 1.899 . S
Zn644 O645 2.032 . S
Zn644 O648 2.086 . S
Zn644 O653 1.977 . S
O645 Zn644 2.032 . S
O645 C649 1.278 . S
C646 O647 1.203 . S
C646 O653 1.267 . S
O647 C646 1.203 . S
O648 C641 1.185 . S
O648 Zn644 2.086 . S
C649 O645 1.278 . S
C649 O650 1.211 . S
O650 C649 1.211 . S
C651 O643 1.284 . S
C651 O652 1.273 . S
O652 C651 1.273 . S
O653 Zn644 1.977 . S
O653 C646 1.267 . S
C654 O655 1.160 . S
C654 O661 1.185 . S
O655 C654 1.160 . S
O656 Zn657 1.899 . S
O656 C664 1.284 . S
Zn657 O656 1.899 . S
Zn657 O658 2.032 . S
Zn657 O661 2.086 . S
Zn657 O666 1.977 . S
O658 Zn657 2.032 . S
O658 C662 1.278 . S
C659 O660 1.203 . S
C659 O666 1.267 . S
O660 C659 1.203 . S
O661 C654 1.185 . S
O661 Zn657 2.086 . S
C662 O658 1.278 . S
C662 O663 1.211 . S
O663 C662 1.211 . S
C664 O656 1.284 . S
C664 O665 1.273 . S
O665 C664 1.273 . S
O666 Zn657 1.977 . S
O666 C659 1.267 . S
C667 O668 1.160 . S
C667 O674 1.185 . S
O668 C667 1.160 . S
O669 Zn670 1.899 . S
O669 C677 1.284 1_565 S
Zn670 O669 1.899 . S
Zn670 O671 2.032 1_565 S
Zn670 O674 2.086 . S
Zn670 O679 1.977 . S
O671 Zn670 2.032 1_545 S
O671 C675 1.278 . S
C672 O673 1.203 1_565 S
C672 O679 1.267 . S
O673 C672 1.203 1_545 S
O674 C667 1.185 . S
O674 Zn670 2.086 . S
C675 O671 1.278 . S
C675 O676 1.211 . S
O676 C675 1.211 . S
C677 O669 1.284 1_545 S
C677 O678 1.273 . S
O678 C677 1.273 . S
O679 Zn670 1.977 . S
O679 C672 1.267 . S
C680 O681 1.160 1_455 S
C680 O687 1.185 . S
O681 C680 1.160 1_655 S
O682 Zn683 1.899 1_655 S
O682 C690 1.284 . S
Zn683 O682 1.899 1_455 S
Zn683 O684 2.032 1_455 S
Zn683 O687 2.086 . S
Zn683 O692 1.977 . S
O684 Zn683 2.032 1_655 S
O684 C688 1.277 1_655 S
C685 O686 1.203 . S
C685 O692 1.267 . S
O686 C685 1.203 . S
O687 C680 1.185 . S
O687 Zn683 2.086 . S
C688 O684 1.277 1_455 S
C688 O689 1.212 . S
O689 C688 1.212 . S
C690 O682 1.284 . S
C690 O691 1.273 . S
O691 C690 1.273 . S
O692 Zn683 1.977 . S
O692 C685 1.267 . S
C693 O694 1.160 . S
C693 O700 1.185 . S
O694 C693 1.160 . S
O695 Zn696 1.899 . S
O695 C703 1.284 . S
Zn696 O695 1.899 . S
Zn696 O697 2.032 . S
Zn696 O700 2.086 . S
Zn696 O705 1.977 . S
O697 Zn696 2.032 . S
O697 C701 1.278 . S
C698 O699 1.203 . S
C698 O705 1.267 . S
O699 C698 1.203 . S
O700 C693 1.185 . S
O700 Zn696 2.086 . S
C701 O697 1.278 . S
C701 O702 1.211 . S
O702 C701 1.211 . S
C703 O695 1.284 . S
C703 O704 1.273 . S
O704 C703 1.273 . S
O705 Zn696 1.977 . S
O705 C698 1.267 . S
C706 O707 1.160 1_455 S
C706 O713 1.185 . S
O707 C706 1.160 1_655 S
O708 Zn709 1.899 1_655 S
O708 C716 1.284 . S
Zn709 O708 1.899 1_455 S
Zn709 O710 2.032 1_455 S
Zn709 O713 2.086 . S
Zn709 O718 1.977 . S
O710 Zn709 2.032 1_655 S
O710 C714 1.277 . S
C711 O712 1.203 . S
C711 O718 1.267 . S
O712 C711 1.203 . S
O713 C706 1.185 . S
O713 Zn709 2.086 . S
C714 O710 1.277 . S
C714 O715 1.213 1_655 S
O715 C714 1.213 1_455 S
C716 O708 1.284 . S
C716 O717 1.273 . S
O717 C716 1.273 . S
O718 Zn709 1.977 . S
O718 C711 1.267 . S
C719 O720 1.160 . S
C719 O726 1.185 . S
O720 C719 1.160 . S
O721 Zn722 1.899 . S
O721 C729 1.284 . S
Zn722 O721 1.899 . S
Zn722 O723 2.032 . S
Zn722 O726 2.086 . S
Zn722 O731 1.977 . S
O723 Zn722 2.032 . S
O723 C727 1.278 . S
C724 O725 1.203 . S
C724 O731 1.267 . S
O725 C724 1.203 . S
O726 C719 1.185 . S
O726 Zn722 2.086 . S
C727 O723 1.278 . S
C727 O728 1.211 . S
O728 C727 1.211 . S
C729 O721 1.284 . S
C729 O730 1.273 . S
O730 C729 1.273 . S
O731 Zn722 1.977 . S
O731 C724 1.267 . S
C732 C733 1.387 . S
C732 H736 0.950 . S
C732 C741 1.390 . S
C733 C732 1.387 . S
C733 C735 1.387 . S
H734 C741 0.950 . S
C735 C733 1.387 . S
C735 C737 1.390 . S
C735 H739 0.950 . S
H736 C732 0.950 . S
C737 C735 1.390 . S
C737 C738 1.387 . S
C737 H740 0.950 . S
C738 C737 1.387 . S
C738 C741 1.387 . S
H739 C735 0.950 . S
H740 C737 0.950 . S
C741 C732 1.390 . S
C741 H734 0.950 . S
C741 C738 1.387 . S
C742 C743 1.387 . S
C742 H746 0.950 . S
C742 C751 1.390 . S
C743 C742 1.387 . S
C743 C745 1.387 . S
H744 C751 0.950 . S
C745 C743 1.387 . S
C745 C747 1.390 . S
C745 H749 0.950 . S
H746 C742 0.950 . S
C747 C745 1.390 . S
C747 C748 1.387 . S
C747 H750 0.950 . S
C748 C747 1.387 . S
C748 C751 1.387 . S
H749 C745 0.950 . S
H750 C747 0.950 . S
C751 C742 1.390 . S
C751 H744 0.950 . S
C751 C748 1.387 . S
C752 C753 1.387 . S
C752 H756 0.950 . S
C752 C761 1.390 . S
C753 C752 1.387 . S
C753 C755 1.387 . S
H754 C761 0.950 . S
C755 C753 1.387 . S
C755 C757 1.390 . S
C755 H759 0.950 . S
H756 C752 0.950 . S
C757 C755 1.390 . S
C757 C758 1.387 . S
C757 H760 0.950 . S
C758 C757 1.387 . S
C758 C761 1.387 . S
H759 C755 0.950 . S
H760 C757 0.950 . S
C761 C752 1.390 . S
C761 H754 0.950 . S
C761 C758 1.387 . S
C762 C763 1.387 . S
C762 H766 0.950 . S
C762 C771 1.390 . S
C763 C762 1.387 . S
C763 C765 1.387 1_565 S
H764 C771 0.950 . S
C765 C763 1.387 1_545 S
C765 C767 1.390 . S
C765 H769 0.950 . S
H766 C762 0.950 . S
C767 C765 1.390 . S
C767 C768 1.387 . S
C767 H770 0.950 . S
C768 C767 1.387 . S
C768 C771 1.387 1_545 S
H769 C765 0.950 . S
H770 C767 0.950 . S
C771 C762 1.390 . S
C771 H764 0.950 . S
C771 C768 1.387 1_565 S
C772 C773 1.387 . S
C772 H776 0.950 . S
C772 C781 1.390 . S
C773 C772 1.387 . S
C773 C775 1.387 . S
H774 C781 0.950 . S
C775 C773 1.387 . S
C775 C777 1.390 . S
C775 H779 0.950 . S
H776 C772 0.950 . S
C777 C775 1.390 . S
C777 C778 1.387 . S
C777 H780 0.950 . S
C778 C777 1.387 . S
C778 C781 1.387 . S
H779 C775 0.950 . S
H780 C777 0.950 . S
C781 C772 1.390 . S
C781 H774 0.950 . S
C781 C778 1.387 . S
C782 C783 1.387 . S
C782 H786 0.950 . S
C782 C791 1.390 . S
C783 C782 1.387 . S
C783 C785 1.387 . S
H784 C791 0.950 . S
C785 C783 1.387 . S
C785 C787 1.390 . S
C785 H789 0.950 . S
H786 C782 0.950 . S
C787 C785 1.390 . S
C787 C788 1.387 . S
C787 H790 0.950 . S
C788 C787 1.387 . S
C788 C791 1.387 . S
H789 C785 0.950 . S
H790 C787 0.950 . S
C791 C782 1.390 . S
C791 H784 0.950 . S
C791 C788 1.387 . S
C792 C793 1.387 . S
C792 H796 0.950 . S
C792 C801 1.390 . S
C793 C792 1.387 . S
C793 C795 1.387 . S
H794 C801 0.950 . S
C795 C793 1.387 . S
C795 C797 1.390 . S
C795 H799 0.950 . S
H796 C792 0.950 . S
C797 C795 1.390 . S
C797 C798 1.387 . S
C797 H800 0.950 . S
C798 C797 1.387 . S
C798 C801 1.387 . S
H799 C795 0.950 . S
H800 C797 0.950 . S
C801 C792 1.390 . S
C801 H794 0.950 . S
C801 C798 1.387 . S
C802 C803 1.387 . S
C802 H806 0.950 . S
C802 C811 1.390 . S
C803 C802 1.387 . S
C803 C805 1.387 1_565 S
H804 C811 0.950 . S
C805 C803 1.387 1_545 S
C805 C807 1.390 . S
C805 H809 0.950 . S
H806 C802 0.950 . S
C807 C805 1.390 . S
C807 C808 1.387 1_545 S
C807 H810 0.950 . S
C808 C807 1.387 1_565 S
C808 C811 1.387 . S
H809 C805 0.950 . S
H810 C807 0.950 . S
C811 C802 1.390 . S
C811 H804 0.950 . S
C811 C808 1.387 . S
C812 C813 1.387 . S
C812 H816 0.950 . S
C812 C821 1.390 . S
C813 C812 1.387 . S
C813 C815 1.387 . S
H814 C821 0.950 . S
C815 C813 1.387 . S
C815 C817 1.390 . S
C815 H819 0.950 . S
H816 C812 0.950 . S
C817 C815 1.390 . S
C817 C818 1.387 . S
C817 H820 0.950 . S
C818 C817 1.387 . S
C818 C821 1.387 . S
H819 C815 0.950 . S
H820 C817 0.950 . S
C821 C812 1.390 . S
C821 H814 0.950 . S
C821 C818 1.387 . S
C822 C823 1.387 . S
C822 H826 0.950 . S
C822 C831 1.390 . S
C823 C822 1.387 . S
C823 C825 1.387 . S
H824 C831 0.950 . S
C825 C823 1.387 . S
C825 C827 1.390 . S
C825 H829 0.950 . S
H826 C822 0.950 . S
C827 C825 1.390 . S
C827 C828 1.387 . S
C827 H830 0.950 . S
C828 C827 1.387 . S
C828 C831 1.387 . S
H829 C825 0.950 . S
H830 C827 0.950 . S
C831 C822 1.390 . S
C831 H824 0.950 . S
C831 C828 1.387 . S
C832 C833 1.387 . S
C832 H836 0.950 . S
C832 C841 1.390 . S
C833 C832 1.387 . S
C833 C835 1.387 . S
H834 C841 0.950 . S
C835 C833 1.387 . S
C835 C837 1.390 . S
C835 H839 0.950 . S
H836 C832 0.950 . S
C837 C835 1.390 . S
C837 C838 1.387 . S
C837 H840 0.950 . S
C838 C837 1.387 . S
C838 C841 1.387 . S
H839 C835 0.950 . S
H840 C837 0.950 . S
C841 C832 1.390 . S
C841 H834 0.950 . S
C841 C838 1.387 . S
C842 C843 1.387 . S
C842 H846 0.950 . S
C842 C851 1.390 . S
C843 C842 1.387 . S
C843 C845 1.387 . S
H844 C851 0.950 . S
C845 C843 1.387 . S
C845 C847 1.390 . S
C845 H849 0.950 . S
H846 C842 0.950 . S
C847 C845 1.390 . S
C847 C848 1.387 . S
C847 H850 0.950 . S
C848 C847 1.387 . S
C848 C851 1.387 . S
H849 C845 0.950 . S
H850 C847 0.950 . S
C851 C842 1.390 . S
C851 H844 0.950 . S
C851 C848 1.387 . S
C852 C853 1.387 . S
C852 H856 0.950 . S
C852 C861 1.390 . S
C853 C852 1.387 . S
C853 C855 1.387 . S
H854 C861 0.950 . S
C855 C853 1.387 . S
C855 C857 1.390 . S
C855 H859 0.950 . S
H856 C852 0.950 . S
C857 C855 1.390 . S
C857 C858 1.387 . S
C857 H860 0.950 . S
C858 C857 1.387 . S
C858 C861 1.387 . S
H859 C855 0.950 . S
H860 C857 0.950 . S
C861 C852 1.390 . S
C861 H854 0.950 . S
C861 C858 1.387 . S
C862 C863 1.387 1_655 S
C862 H866 0.950 . S
C862 C871 1.390 . S
C863 C862 1.387 1_455 S
C863 C865 1.387 . S
H864 C871 0.950 . S
C865 C863 1.387 . S
C865 C867 1.390 . S
C865 H869 0.950 . S
H866 C862 0.950 . S
C867 C865 1.390 . S
C867 C868 1.387 . S
C867 H870 0.950 . S
C868 C867 1.387 . S
C868 C871 1.387 1_455 S
H869 C865 0.950 . S
H870 C867 0.950 . S
C871 C862 1.390 . S
C871 H864 0.950 . S
C871 C868 1.387 1_655 S
C872 C873 1.387 . S
C872 H876 0.950 . S
C872 C881 1.390 . S
C873 C872 1.387 . S
C873 C875 1.387 . S
H874 C881 0.950 . S
C875 C873 1.387 . S
C875 C877 1.390 . S
C875 H879 0.950 . S
H876 C872 0.950 . S
C877 C875 1.390 . S
C877 C878 1.387 . S
C877 H880 0.950 . S
C878 C877 1.387 . S
C878 C881 1.387 . S
H879 C875 0.950 . S
H880 C877 0.950 . S
C881 C872 1.390 . S
C881 H874 0.950 . S
C881 C878 1.387 . S
C882 C883 1.387 1_455 S
C882 H886 0.950 . S
C882 C891 1.390 . S
C883 C882 1.387 1_655 S
C883 C885 1.387 . S
H884 C891 0.950 . S
C885 C883 1.387 . S
C885 C887 1.390 . S
C885 H889 0.950 . S
H886 C882 0.950 . S
C887 C885 1.390 . S
C887 C888 1.387 . S
C887 H890 0.950 . S
C888 C887 1.387 . S
C888 C891 1.387 1_655 S
H889 C885 0.950 . S
H890 C887 0.950 . S
C891 C882 1.390 . S
C891 H884 0.950 . S
C891 C888 1.387 1_455 S
C892 C893 1.387 . S
C892 H896 0.950 . S
C892 C901 1.390 . S
C893 C892 1.387 . S
C893 C895 1.387 . S
H894 C901 0.950 . S
C895 C893 1.387 . S
C895 C897 1.390 . S
C895 H899 0.950 . S
H896 C892 0.950 . S
C897 C895 1.390 . S
C897 C898 1.387 . S
C897 H900 0.950 . S
C898 C897 1.387 . S
C898 C901 1.387 . S
H899 C895 0.950 . S
H900 C897 0.950 . S
C901 C892 1.390 . S
C901 H894 0.950 . S
C901 C898 1.387 . S
C902 C903 1.387 . S
C902 H906 0.950 . S
C902 C911 1.390 . S
C903 C902 1.387 . S
C903 C905 1.387 . S
H904 C911 0.950 . S
C905 C903 1.387 . S
C905 C907 1.390 . S
C905 H909 0.950 . S
H906 C902 0.950 . S
C907 C905 1.390 . S
C907 C908 1.387 . S
C907 H910 0.950 . S
C908 C907 1.387 . S
C908 C911 1.387 . S
H909 C905 0.950 . S
H910 C907 0.950 . S
C911 C902 1.390 . S
C911 H904 0.950 . S
C911 C908 1.387 . S
C912 C913 1.404 . S
C912 H916 0.943 1_556 S
C912 C921 1.382 1_556 S
C913 C912 1.404 . S
C913 C915 1.387 . S
H914 C921 0.950 . S
C915 C913 1.387 . S
C915 C917 1.390 . S
C915 H919 0.950 . S
H916 C912 0.943 1_554 S
C917 C915 1.390 . S
C917 C918 1.396 . S
C917 H920 0.950 . S
C918 C917 1.396 . S
C918 C921 1.384 1_556 S
H919 C915 0.950 . S
H920 C917 0.950 . S
C921 C912 1.382 1_554 S
C921 H914 0.950 . S
C921 C918 1.384 1_554 S
C922 C923 1.387 . S
C922 H926 0.950 . S
C922 C931 1.390 . S
C923 C922 1.387 . S
C923 C925 1.387 . S
H924 C931 0.950 . S
C925 C923 1.387 . S
C925 C927 1.390 . S
C925 H929 0.950 . S
H926 C922 0.950 . S
C927 C925 1.390 . S
C927 C928 1.387 . S
C927 H930 0.950 . S
C928 C927 1.387 . S
C928 C931 1.387 . S
H929 C925 0.950 . S
H930 C927 0.950 . S
C931 C922 1.390 . S
C931 H924 0.950 . S
C931 C928 1.387 . S
C932 C933 1.387 . S
C932 H936 0.950 . S
C932 C941 1.390 . S
C933 C932 1.387 . S
C933 C935 1.387 . S
H934 C941 0.950 . S
C935 C933 1.387 . S
C935 C937 1.390 . S
C935 H939 0.950 . S
H936 C932 0.950 . S
C937 C935 1.390 . S
C937 C938 1.387 . S
C937 H940 0.950 . S
C938 C937 1.387 . S
C938 C941 1.387 . S
H939 C935 0.950 . S
H940 C937 0.950 . S
C941 C932 1.390 . S
C941 H934 0.950 . S
C941 C938 1.387 . S
C942 C943 1.387 . S
C942 H946 0.950 . S
C942 C951 1.390 . S
C943 C942 1.387 . S
C943 C945 1.387 . S
H944 C951 0.950 . S
C945 C943 1.387 . S
C945 C947 1.390 . S
C945 H949 0.950 . S
H946 C942 0.950 . S
C947 C945 1.390 . S
C947 C948 1.387 . S
C947 H950 0.950 . S
C948 C947 1.387 . S
C948 C951 1.387 . S
H949 C945 0.950 . S
H950 C947 0.950 . S
C951 C942 1.390 . S
C951 H944 0.950 . S
C951 C948 1.387 . S
C952 C953 1.387 . S
C952 H956 0.950 . S
C952 C961 1.390 . S
C953 C952 1.387 . S
C953 C955 1.387 . S
H954 C961 0.950 . S
C955 C953 1.387 . S
C955 C957 1.390 . S
C955 H959 0.950 . S
H956 C952 0.950 . S
C957 C955 1.390 . S
C957 C958 1.387 . S
C957 H960 0.950 . S
C958 C957 1.387 . S
C958 C961 1.387 . S
H959 C955 0.950 . S
H960 C957 0.950 . S
C961 C952 1.390 . S
C961 H954 0.950 . S
C961 C958 1.387 . S
C962 C963 1.387 . S
C962 H966 0.950 . S
C962 C971 1.390 . S
C963 C962 1.387 . S
C963 C965 1.387 . S
H964 C971 0.950 . S
C965 C963 1.387 . S
C965 C967 1.390 . S
C965 H969 0.950 . S
H966 C962 0.950 . S
C967 C965 1.390 . S
C967 C968 1.387 . S
C967 H970 0.950 . S
C968 C967 1.387 . S
C968 C971 1.387 . S
H969 C965 0.950 . S
H970 C967 0.950 . S
C971 C962 1.390 . S
C971 H964 0.950 . S
C971 C968 1.387 . S
C972 C973 1.387 . S
C972 H976 0.950 . S
C972 C981 1.390 . S
C973 C972 1.387 . S
C973 C975 1.387 . S
H974 C981 0.950 . S
C975 C973 1.387 . S
C975 C977 1.390 . S
C975 H979 0.950 . S
H976 C972 0.950 . S
C977 C975 1.390 . S
C977 C978 1.387 . S
C977 H980 0.950 . S
C978 C977 1.387 . S
C978 C981 1.387 . S
H979 C975 0.950 . S
H980 C977 0.950 . S
C981 C972 1.390 . S
C981 H974 0.950 . S
C981 C978 1.387 . S
C982 C983 1.387 . S
C982 H986 0.950 . S
C982 C991 1.390 . S
C983 C982 1.387 . S
C983 C985 1.387 1_545 S
H984 C991 0.950 . S
C985 C983 1.387 1_565 S
C985 C987 1.390 . S
C985 H989 0.950 . S
H986 C982 0.950 . S
C987 C985 1.390 . S
C987 C988 1.387 1_565 S
C987 H990 0.950 . S
C988 C987 1.387 1_545 S
C988 C991 1.387 . S
H989 C985 0.950 . S
H990 C987 0.950 . S
C991 C982 1.390 . S
C991 H984 0.950 . S
C991 C988 1.387 . S
C992 C993 1.387 . S
C992 H996 0.950 . S
C992 C1001 1.390 . S
C993 C992 1.387 . S
C993 C995 1.387 . S
H994 C1001 0.950 . S
C995 C993 1.387 . S
C995 C997 1.390 . S
C995 H999 0.950 . S
H996 C992 0.950 . S
C997 C995 1.390 . S
C997 C998 1.387 . S
C997 H1000 0.950 . S
C998 C997 1.387 . S
C998 C1001 1.387 . S
H999 C995 0.950 . S
H1000 C997 0.950 . S
C1001 C992 1.390 . S
C1001 H994 0.950 . S
C1001 C998 1.387 . S
C1002 C1003 1.387 . S
C1002 H1006 0.950 . S
C1002 C1011 1.390 . S
C1003 C1002 1.387 . S
C1003 C1005 1.387 . S
H1004 C1011 0.950 . S
C1005 C1003 1.387 . S
C1005 C1007 1.390 . S
C1005 H1009 0.950 . S
H1006 C1002 0.950 . S
C1007 C1005 1.390 . S
C1007 C1008 1.387 . S
C1007 H1010 0.950 . S
C1008 C1007 1.387 . S
C1008 C1011 1.387 . S
H1009 C1005 0.950 . S
H1010 C1007 0.950 . S
C1011 C1002 1.390 . S
C1011 H1004 0.950 . S
C1011 C1008 1.387 . S
C1012 C1013 1.387 . S
C1012 H1016 0.950 . S
C1012 C1021 1.390 . S
C1013 C1012 1.387 . S
C1013 C1015 1.387 . S
H1014 C1021 0.950 . S
C1015 C1013 1.387 . S
C1015 C1017 1.390 . S
C1015 H1019 0.950 . S
H1016 C1012 0.950 . S
C1017 C1015 1.390 . S
C1017 C1018 1.387 . S
C1017 H1020 0.950 . S
C1018 C1017 1.387 . S
C1018 C1021 1.387 . S
H1019 C1015 0.950 . S
H1020 C1017 0.950 . S
C1021 C1012 1.390 . S
C1021 H1014 0.950 . S
C1021 C1018 1.387 . S
C1022 C1023 1.387 . S
C1022 H1026 0.950 . S
C1022 C1031 1.390 . S
C1023 C1022 1.387 . S
C1023 C1025 1.387 . S
H1024 C1031 0.950 . S
C1025 C1023 1.387 . S
C1025 C1027 1.395 . S
C1025 H1029 0.950 1_545 S
H1026 C1022 0.950 . S
C1027 C1025 1.395 . S
C1027 C1028 1.420 . S
C1027 H1030 0.914 1_545 S
C1028 C1027 1.420 . S
C1028 C1031 1.387 . S
H1029 C1025 0.950 1_565 S
H1030 C1027 0.914 1_565 S
C1031 C1022 1.390 . S
C1031 H1024 0.950 . S
C1031 C1028 1.387 . S
C1032 C1033 1.387 . S
C1032 H1036 0.950 . S
C1032 C1041 1.390 . S
C1033 C1032 1.387 . S
C1033 C1035 1.387 . S
H1034 C1041 0.950 . S
C1035 C1033 1.387 . S
C1035 C1037 1.390 . S
C1035 H1039 0.950 . S
H1036 C1032 0.950 . S
C1037 C1035 1.390 . S
C1037 C1038 1.387 . S
C1037 H1040 0.950 . S
C1038 C1037 1.387 . S
C1038 C1041 1.387 . S
H1039 C1035 0.950 . S
H1040 C1037 0.950 . S
C1041 C1032 1.390 . S
C1041 H1034 0.950 . S
C1041 C1038 1.387 . S
C1042 C1043 1.387 . S
C1042 H1046 0.950 . S
C1042 C1051 1.390 . S
C1043 C1042 1.387 . S
C1043 C1045 1.387 . S
H1044 C1051 0.950 . S
C1045 C1043 1.387 . S
C1045 C1047 1.390 . S
C1045 H1049 0.950 . S
H1046 C1042 0.950 . S
C1047 C1045 1.390 . S
C1047 C1048 1.387 . S
C1047 H1050 0.950 . S
C1048 C1047 1.387 . S
C1048 C1051 1.387 . S
H1049 C1045 0.950 . S
H1050 C1047 0.950 . S
C1051 C1042 1.390 . S
C1051 H1044 0.950 . S
C1051 C1048 1.387 . S
C1052 C1053 1.387 . S
C1052 H1056 0.950 . S
C1052 C1061 1.390 . S
C1053 C1052 1.387 . S
C1053 C1055 1.387 . S
H1054 C1061 0.950 . S
C1055 C1053 1.387 . S
C1055 C1057 1.390 . S
C1055 H1059 0.950 . S
H1056 C1052 0.950 . S
C1057 C1055 1.390 . S
C1057 C1058 1.387 . S
C1057 H1060 0.950 . S
C1058 C1057 1.387 . S
C1058 C1061 1.387 . S
H1059 C1055 0.950 . S
H1060 C1057 0.950 . S
C1061 C1052 1.390 . S
C1061 H1054 0.950 . S
C1061 C1058 1.387 . S
C1062 C1063 1.387 1_455 S
C1062 H1066 0.950 . S
C1062 C1071 1.390 . S
C1063 C1062 1.387 1_655 S
C1063 C1065 1.387 . S
H1064 C1071 0.950 . S
C1065 C1063 1.387 . S
C1065 C1067 1.390 . S
C1065 H1069 0.950 . S
H1066 C1062 0.950 . S
C1067 C1065 1.390 . S
C1067 C1068 1.387 . S
C1067 H1070 0.950 . S
C1068 C1067 1.387 . S
C1068 C1071 1.387 1_655 S
H1069 C1065 0.950 . S
H1070 C1067 0.950 . S
C1071 C1062 1.390 . S
C1071 H1064 0.950 . S
C1071 C1068 1.387 1_455 S
C1072 C1073 1.387 . S
C1072 H1076 0.950 . S
C1072 C1081 1.390 . S
C1073 C1072 1.387 . S
C1073 C1075 1.387 . S
H1074 C1081 0.950 . S
C1075 C1073 1.387 . S
C1075 C1077 1.390 . S
C1075 H1079 0.950 . S
H1076 C1072 0.950 . S
C1077 C1075 1.390 . S
C1077 C1078 1.387 . S
C1077 H1080 0.950 . S
C1078 C1077 1.387 . S
C1078 C1081 1.387 . S
H1079 C1075 0.950 . S
H1080 C1077 0.950 . S
C1081 C1072 1.390 . S
C1081 H1074 0.950 . S
C1081 C1078 1.387 . S
C1082 C1083 1.387 . S
C1082 H1086 0.950 . S
C1082 C1091 1.390 . S
C1083 C1082 1.387 . S
C1083 C1085 1.387 1_455 S
H1084 C1091 0.950 . S
C1085 C1083 1.387 1_655 S
C1085 C1087 1.390 . S
C1085 H1089 0.950 . S
H1086 C1082 0.950 . S
C1087 C1085 1.390 . S
C1087 C1088 1.387 1_655 S
C1087 H1090 0.950 . S
C1088 C1087 1.387 1_455 S
C1088 C1091 1.387 . S
H1089 C1085 0.950 . S
H1090 C1087 0.950 . S
C1091 C1082 1.390 . S
C1091 H1084 0.950 . S
C1091 C1088 1.387 . S
C1092 C1093 1.387 . S
C1092 H1096 0.950 . S
C1092 C1101 1.390 . S
C1093 C1092 1.387 . S
C1093 C1095 1.387 . S
H1094 C1101 0.950 . S
C1095 C1093 1.387 . S
C1095 C1097 1.390 . S
C1095 H1099 0.950 . S
H1096 C1092 0.950 . S
C1097 C1095 1.390 . S
C1097 C1098 1.387 . S
C1097 H1100 0.950 . S
C1098 C1097 1.387 . S
C1098 C1101 1.387 . S
H1099 C1095 0.950 . S
H1100 C1097 0.950 . S
C1101 C1092 1.390 . S
C1101 H1094 0.950 . S
C1101 C1098 1.387 . S
C1102 C1103 1.387 . S
C1102 H1106 0.950 . S
C1102 C1111 1.390 . S
C1103 C1102 1.387 . S
C1103 C1105 1.387 . S
H1104 C1111 0.950 . S
C1105 C1103 1.387 . S
C1105 C1107 1.390 . S
C1105 H1109 0.950 . S
H1106 C1102 0.950 . S
C1107 C1105 1.390 . S
C1107 C1108 1.387 . S
C1107 H1110 0.950 . S
C1108 C1107 1.387 . S
C1108 C1111 1.387 . S
H1109 C1105 0.950 . S
H1110 C1107 0.950 . S
C1111 C1102 1.390 . S
C1111 H1104 0.950 . S
C1111 C1108 1.387 . S
C1112 C1113 1.387 . S
C1112 H1116 0.950 . S
C1112 C1121 1.390 . S
C1113 C1112 1.387 . S
C1113 C1115 1.387 . S
H1114 C1121 0.950 . S
C1115 C1113 1.387 . S
C1115 C1117 1.390 . S
C1115 H1119 0.950 . S
H1116 C1112 0.950 . S
C1117 C1115 1.390 . S
C1117 C1118 1.387 . S
C1117 H1120 0.950 . S
C1118 C1117 1.387 . S
C1118 C1121 1.387 . S
H1119 C1115 0.950 . S
H1120 C1117 0.950 . S
C1121 C1112 1.390 . S
C1121 H1114 0.950 . S
C1121 C1118 1.387 . S
C1122 C1123 1.387 . S
C1122 H1126 0.950 . S
C1122 C1131 1.390 . S
C1123 C1122 1.387 . S
C1123 C1125 1.387 . S
H1124 C1131 0.950 . S
C1125 C1123 1.387 . S
C1125 C1127 1.390 . S
C1125 H1129 0.950 . S
H1126 C1122 0.950 . S
C1127 C1125 1.390 . S
C1127 C1128 1.387 . S
C1127 H1130 0.950 . S
C1128 C1127 1.387 . S
C1128 C1131 1.387 . S
H1129 C1125 0.950 . S
H1130 C1127 0.950 . S
C1131 C1122 1.390 . S
C1131 H1124 0.950 . S
C1131 C1128 1.387 . S
C1132 C1133 1.387 . S
C1132 H1136 0.950 . S
C1132 C1141 1.390 . S
C1133 C1132 1.387 . S
C1133 C1135 1.387 . S
H1134 C1141 0.950 . S
C1135 C1133 1.387 . S
C1135 C1137 1.390 . S
C1135 H1139 0.950 . S
H1136 C1132 0.950 . S
C1137 C1135 1.390 . S
C1137 C1138 1.387 . S
C1137 H1140 0.950 . S
C1138 C1137 1.387 . S
C1138 C1141 1.387 . S
H1139 C1135 0.950 . S
H1140 C1137 0.950 . S
C1141 C1132 1.390 . S
C1141 H1134 0.950 . S
C1141 C1138 1.387 . S
C1142 C1143 1.387 . S
C1142 H1146 0.950 . S
C1142 C1151 1.390 . S
C1143 C1142 1.387 . S
C1143 C1145 1.387 . S
H1144 C1151 0.950 . S
C1145 C1143 1.387 . S
C1145 C1147 1.390 . S
C1145 H1149 0.950 . S
H1146 C1142 0.950 . S
C1147 C1145 1.390 . S
C1147 C1148 1.387 . S
C1147 H1150 0.950 . S
C1148 C1147 1.387 . S
C1148 C1151 1.387 . S
H1149 C1145 0.950 . S
H1150 C1147 0.950 . S
C1151 C1142 1.390 . S
C1151 H1144 0.950 . S
C1151 C1148 1.387 . S
C1152 C1153 1.387 . S
C1152 H1156 0.950 . S
C1152 C1161 1.390 . S
C1153 C1152 1.387 . S
C1153 C1155 1.387 . S
H1154 C1161 0.950 . S
C1155 C1153 1.387 . S
C1155 C1157 1.390 . S
C1155 H1159 0.950 . S
H1156 C1152 0.950 . S
C1157 C1155 1.390 . S
C1157 C1158 1.387 . S
C1157 H1160 0.950 . S
C1158 C1157 1.387 . S
C1158 C1161 1.387 . S
H1159 C1155 0.950 . S
H1160 C1157 0.950 . S
C1161 C1152 1.390 . S
C1161 H1154 0.950 . S
C1161 C1158 1.387 . S
C1162 C1163 1.387 . S
C1162 H1166 0.950 . S
C1162 C1171 1.390 . S
C1163 C1162 1.387 . S
C1163 C1165 1.387 . S
H1164 C1171 0.950 . S
C1165 C1163 1.387 . S
C1165 C1167 1.390 . S
C1165 H1169 0.950 . S
H1166 C1162 0.950 . S
C1167 C1165 1.390 . S
C1167 C1168 1.387 . S
C1167 H1170 0.950 . S
C1168 C1167 1.387 . S
C1168 C1171 1.387 . S
H1169 C1165 0.950 . S
H1170 C1167 0.950 . S
C1171 C1162 1.390 . S
C1171 H1164 0.950 . S
C1171 C1168 1.387 . S
C1172 C1173 1.387 1_554 S
C1172 H1176 0.950 . S
C1172 C1181 1.390 . S
C1173 C1172 1.387 1_556 S
C1173 C1175 1.387 . S
H1174 C1181 0.950 . S
C1175 C1173 1.387 . S
C1175 C1177 1.390 . S
C1175 H1179 0.950 . S
H1176 C1172 0.950 . S
C1177 C1175 1.390 . S
C1177 C1178 1.387 . S
C1177 H1180 0.950 . S
C1178 C1177 1.387 . S
C1178 C1181 1.387 1_556 S
H1179 C1175 0.950 . S
H1180 C1177 0.950 . S
C1181 C1172 1.390 . S
C1181 H1174 0.950 . S
C1181 C1178 1.387 1_554 S
C1182 C1183 1.387 . S
C1182 H1186 0.950 . S
C1182 C1191 1.390 . S
C1183 C1182 1.387 . S
C1183 C1185 1.387 . S
H1184 C1191 0.950 . S
C1185 C1183 1.387 . S
C1185 C1187 1.390 . S
C1185 H1189 0.950 . S
H1186 C1182 0.950 . S
C1187 C1185 1.390 . S
C1187 C1188 1.387 . S
C1187 H1190 0.950 . S
C1188 C1187 1.387 . S
C1188 C1191 1.387 . S
H1189 C1185 0.950 . S
H1190 C1187 0.950 . S
C1191 C1182 1.390 . S
C1191 H1184 0.950 . S
C1191 C1188 1.387 . S
C1192 C1193 1.387 . S
C1192 H1196 0.950 . S
C1192 C1201 1.390 . S
C1193 C1192 1.387 . S
C1193 C1195 1.387 1_554 S
H1194 C1201 0.950 . S
C1195 C1193 1.387 1_556 S
C1195 C1197 1.390 . S
C1195 H1199 0.950 . S
H1196 C1192 0.950 . S
C1197 C1195 1.390 . S
C1197 C1198 1.387 1_556 S
C1197 H1200 0.950 . S
C1198 C1197 1.387 1_554 S
C1198 C1201 1.387 . S
H1199 C1195 0.950 . S
H1200 C1197 0.950 . S
C1201 C1192 1.390 . S
C1201 H1194 0.950 . S
C1201 C1198 1.387 . S
C1202 C1203 1.387 . S
C1202 H1206 0.950 1_554 S
C1202 C1211 1.390 . S
C1203 C1202 1.387 . S
C1203 C1205 1.387 . S
H1204 C1211 0.954 1_556 S
C1205 C1203 1.387 . S
C1205 C1207 1.390 . S
C1205 H1209 0.950 . S
H1206 C1202 0.950 1_556 S
C1207 C1205 1.390 . S
C1207 C1208 1.387 . S
C1207 H1210 0.950 . S
C1208 C1207 1.387 . S
C1208 C1211 1.384 . S
H1209 C1205 0.950 . S
H1210 C1207 0.950 . S
C1211 C1202 1.390 . S
C1211 H1204 0.954 1_554 S
C1211 C1208 1.384 . S
C738 C586 1.426 . S
C733 C181 1.431 . S
C748 C599 1.585 . S
C743 C247 1.597 . S
C753 C283 1.468 . S
C758 C612 1.462 . S
C768 C625 1.515 . S
C763 C169 1.519 . S
C778 C633 1.465 . S
C773 C361 1.499 . S
C788 C646 1.422 . S
C783 C433 1.435 . S
C793 C421 1.515 . S
C798 C659 1.495 . S
C808 C672 1.509 . S
C803 C355 1.525 . S
C813 C427 1.460 . S
C818 C690 1.451 . S
C828 C701 1.504 . S
C823 C325 1.538 . S
C833 C385 1.467 . S
C838 C685 1.439 . S
C848 C693 1.461 . S
C843 C463 1.482 . S
C853 C253 1.509 . S
C858 C716 1.501 . S
C863 C145 1.512 . S
C868 C706 1.483 . S
C873 C205 1.496 . S
C878 C711 1.465 . S
C883 C217 1.555 . S
C888 C714 1.519 . S
C893 C139 1.473 . S
C898 C623 1.445 . S
C903 C535 1.438 . S
C908 C615 1.421 . S
C918 C584 1.512 1_556 S
C913 C565 1.548 . S
C928 C589 1.497 . S
C923 C313 1.509 . S
C933 C175 1.540 . S
C938 C636 1.515 . S
C948 C675 1.500 . S
C943 C397 1.526 . S
C958 C628 1.478 . S
C953 C349 1.509 . S
C968 C654 1.453 . S
C963 C457 1.480 . S
C978 C664 1.425 . S
C973 C505 1.431 . S
C983 C571 1.597 . S
C988 C677 1.585 . S
C993 C319 1.468 . S
C998 C638 1.460 . S
C1008 C651 1.515 . S
C1003 C493 1.519 . S
C1013 C109 1.500 . S
C1018 C607 1.464 . S
C1028 C620 1.423 . S
C1023 C1 1.434 . S
C1038 C581 1.494 . S
C1033 C61 1.515 . S
C1048 C594 1.508 . S
C1043 C103 1.524 . S
C1053 C67 1.461 . S
C1058 C703 1.452 . S
C1063 C73 1.538 . S
C1068 C688 1.504 1_655 S
C1073 C133 1.467 . S
C1078 C698 1.439 . S
C1083 C31 1.482 . S
C1088 C680 1.461 . S
C1098 C729 1.502 . S
C1093 C289 1.509 . S
C1108 C719 1.483 . S
C1103 C469 1.512 . S
C1118 C724 1.465 . S
C1113 C529 1.496 . S
C1123 C541 1.554 . S
C1128 C727 1.520 . S
C1133 C391 1.474 . S
C1138 C649 1.444 . S
C1148 C641 1.420 . S
C1143 C211 1.438 . S
C1158 C662 1.520 . S
C1153 C241 1.548 . S
C1168 C667 1.498 . S
C1163 C277 1.512 . S
C1173 C499 1.540 . S
C1178 C610 1.515 . S
C1188 C597 1.500 . S
C1183 C37 1.528 . S
C1193 C97 1.509 . S
C1198 C602 1.477 . S
C1208 C576 1.453 . S
C1203 C25 1.480 . S
