# Generated by pormake.
# Topology eea, (3,6)-cn, num edge types: 1
# Building blocks:
#     Node 0, Type 0, BuildingBlock: ESEHIV_clean_linker_0, # of connection points: 3
#     Node 1, Type 0, BuildingBlock: ESEHIV_clean_linker_0, # of connection points: 3
#     Node 2, Type 0, BuildingBlock: ESEHIV_clean_linker_0, # of connection points: 3
#     Node 3, Type 0, BuildingBlock: ESEHIV_clean_linker_0, # of connection points: 3
#     Node 4, Type 0, BuildingBlock: ESEHIV_clean_linker_0, # of connection points: 3
#     Node 5, Type 0, BuildingBlock: ESEHIV_clean_linker_0, # of connection points: 3
#     Node 6, Type 0, BuildingBlock: ESEHIV_clean_linker_0, # of connection points: 3
#     Node 7, Type 0, BuildingBlock: ESEHIV_clean_linker_0, # of connection points: 3
#     Node 8, Type 0, BuildingBlock: ESEHIV_clean_linker_0, # of connection points: 3
#     Node 9, Type 0, BuildingBlock: ESEHIV_clean_linker_0, # of connection points: 3
#     Node 10, Type 0, BuildingBlock: ESEHIV_clean_linker_0, # of connection points: 3
#     Node 11, Type 0, BuildingBlock: ESEHIV_clean_linker_0, # of connection points: 3
#     Node 12, Type 0, BuildingBlock: ESEHIV_clean_linker_0, # of connection points: 3
#     Node 13, Type 0, BuildingBlock: ESEHIV_clean_linker_0, # of connection points: 3
#     Node 14, Type 0, BuildingBlock: ESEHIV_clean_linker_0, # of connection points: 3
#     Node 15, Type 0, BuildingBlock: ESEHIV_clean_linker_0, # of connection points: 3
#     Node 16, Type 0, BuildingBlock: ESEHIV_clean_linker_0, # of connection points: 3
#     Node 17, Type 0, BuildingBlock: ESEHIV_clean_linker_0, # of connection points: 3
#     Node 18, Type 1, BuildingBlock: NUHQIS_clean_sbu_0, # of connection points: 6
#     Node 19, Type 1, BuildingBlock: NUHQIS_clean_sbu_0, # of connection points: 6
#     Node 20, Type 1, BuildingBlock: NUHQIS_clean_sbu_0, # of connection points: 6
#     Node 21, Type 1, BuildingBlock: NUHQIS_clean_sbu_0, # of connection points: 6
#     Node 22, Type 1, BuildingBlock: NUHQIS_clean_sbu_0, # of connection points: 6
#     Node 23, Type 1, BuildingBlock: NUHQIS_clean_sbu_0, # of connection points: 6
#     Node 24, Type 1, BuildingBlock: NUHQIS_clean_sbu_0, # of connection points: 6
#     Node 25, Type 1, BuildingBlock: NUHQIS_clean_sbu_0, # of connection points: 6
#     Node 26, Type 1, BuildingBlock: NUHQIS_clean_sbu_0, # of connection points: 6
#     Edge 27, Type (0, 1), None
#     Edge 28, Type (0, 1), None
#     Edge 29, Type (0, 1), None
#     Edge 30, Type (0, 1), None
#     Edge 31, Type (0, 1), None
#     Edge 32, Type (0, 1), None
#     Edge 33, Type (0, 1), None
#     Edge 34, Type (0, 1), None
#     Edge 35, Type (0, 1), None
#     Edge 36, Type (0, 1), None
#     Edge 37, Type (0, 1), None
#     Edge 38, Type (0, 1), None
#     Edge 39, Type (0, 1), None
#     Edge 40, Type (0, 1), None
#     Edge 41, Type (0, 1), None
#     Edge 42, Type (0, 1), None
#     Edge 43, Type (0, 1), None
#     Edge 44, Type (0, 1), None
#     Edge 45, Type (0, 1), None
#     Edge 46, Type (0, 1), None
#     Edge 47, Type (0, 1), None
#     Edge 48, Type (0, 1), None
#     Edge 49, Type (0, 1), None
#     Edge 50, Type (0, 1), None
#     Edge 51, Type (0, 1), None
#     Edge 52, Type (0, 1), None
#     Edge 53, Type (0, 1), None
#     Edge 54, Type (0, 1), None
#     Edge 55, Type (0, 1), None
#     Edge 56, Type (0, 1), None
#     Edge 57, Type (0, 1), None
#     Edge 58, Type (0, 1), None
#     Edge 59, Type (0, 1), None
#     Edge 60, Type (0, 1), None
#     Edge 61, Type (0, 1), None
#     Edge 62, Type (0, 1), None
#     Edge 63, Type (0, 1), None
#     Edge 64, Type (0, 1), None
#     Edge 65, Type (0, 1), None
#     Edge 66, Type (0, 1), None
#     Edge 67, Type (0, 1), None
#     Edge 68, Type (0, 1), None
#     Edge 69, Type (0, 1), None
#     Edge 70, Type (0, 1), None
#     Edge 71, Type (0, 1), None
#     Edge 72, Type (0, 1), None
#     Edge 73, Type (0, 1), None
#     Edge 74, Type (0, 1), None
#     Edge 75, Type (0, 1), None
#     Edge 76, Type (0, 1), None
#     Edge 77, Type (0, 1), None
#     Edge 78, Type (0, 1), None
#     Edge 79, Type (0, 1), None
#     Edge 80, Type (0, 1), None
# Relax obj value: 0.031
# Max RMSD: 0.211
# Mean RMSD: 0.169
data_MOF--net-eea--node1-NUHQIS_clean_sbu_0--node2-ESEHIV_clean_linker_0--edge1-none
_symmetry_space_group_name_H-M    P1
_symmetry_Int_Tables_number       1
_symmetry_cell_setting            triclinic
loop_
_symmetry_equiv_pos_as_xyz
'x, y, z'
_cell_length_a     19.570137
_cell_length_b     19.544648
_cell_length_c     37.189356
_cell_angle_alpha  91.989789
_cell_angle_beta   90.744401
_cell_angle_gamma 119.57913
loop_
_atom_site_label
_atom_site_type_symbol
_atom_site_fract_x
_atom_site_fract_y
_atom_site_fract_z
_atom_type_partial_charge
H0 H 0.28074 0.2414 0.46643 0.0
H1 H 0.26576 0.01542 0.46949 0.0
H2 H 0.16808 0.0702 0.37806 0.0
C3 C 0.26279 0.18417 0.45361 0.0
C4 C 0.22188 0.16234 0.41988 0.0
C5 C 0.27743 0.13078 0.47185 0.0
C6 C 0.25325 0.0563 0.4558 0.0
C7 C 0.21498 0.0348 0.42194 0.0
C8 C 0.19922 0.08774 0.40401 0.0
H9 H 0.74253 0.01885 0.46922 0.0
H10 H 0.95956 0.23722 0.46807 0.0
H11 H 0.89122 0.06754 0.37844 0.0
C12 C 0.79611 0.05765 0.45584 0.0
C13 C 0.81063 0.03463 0.42212 0.0
C14 C 0.84874 0.1308 0.47228 0.0
C15 C 0.91794 0.18112 0.45491 0.0
C16 C 0.93415 0.15852 0.42099 0.0
C17 C 0.87909 0.08581 0.4043 0.0
H18 H 0.7297 0.69027 0.46591 0.0
H19 H 0.95241 0.6966 0.46769 0.0
H20 H 0.89143 0.80068 0.38159 0.0
C21 C 0.7857 0.70726 0.45393 0.0
C22 C 0.80431 0.74786 0.42171 0.0
C23 C 0.83866 0.6885 0.47098 0.0
C24 C 0.91068 0.70979 0.45467 0.0
C25 C 0.93029 0.75045 0.42237 0.0
C26 C 0.87686 0.76953 0.40635 0.0
H27 H 0.00926 0.25961 0.62059 0.0
H28 H 0.23125 0.26395 0.6218 0.0
H29 H 0.07523 0.16565 0.70923 0.0
C30 C 0.05142 0.24719 0.63377 0.0
C31 C 0.03359 0.21011 0.66696 0.0
C32 C 0.12314 0.26777 0.61736 0.0
C33 C 0.17591 0.24874 0.63412 0.0
C34 C 0.15921 0.21244 0.66721 0.0
C35 C 0.08879 0.19482 0.68392 0.0
H36 H 0.6876 0.93638 0.62318 0.0
H37 H 0.68569 0.7163 0.62275 0.0
H38 H 0.7982 0.8861 0.71136 0.0
C39 C 0.70293 0.8969 0.63635 0.0
C40 C 0.74489 0.91999 0.66947 0.0
C41 C 0.68187 0.82397 0.61935 0.0
C42 C 0.70178 0.77273 0.63595 0.0
C43 C 0.7439 0.79497 0.66912 0.0
C44 C 0.76491 0.86847 0.68596 0.0
H45 H 0.01007 0.71937 0.6209 0.0
H46 H 0.22507 0.93977 0.61968 0.0
H47 H 0.07019 0.89374 0.70775 0.0
C48 C 0.05037 0.77621 0.63381 0.0
C49 C 0.03176 0.80014 0.66683 0.0
C50 C 0.11955 0.82709 0.61649 0.0
C51 C 0.17134 0.9009 0.63289 0.0
C52 C 0.15405 0.92532 0.66571 0.0
C53 C 0.08385 0.87499 0.68239 0.0
H54 H 0.94741 0.57474 0.79976 0.0
H55 H 0.93243 0.34876 0.80283 0.0
H56 H 0.83476 0.40354 0.7114 0.0
C57 C 0.92946 0.51751 0.78695 0.0
C58 C 0.88856 0.49568 0.75322 0.0
C59 C 0.9441 0.46411 0.80518 0.0
C60 C 0.91992 0.38964 0.78913 0.0
C61 C 0.88165 0.36814 0.75527 0.0
C62 C 0.8659 0.42107 0.73734 0.0
H63 H 0.4092 0.35218 0.80256 0.0
H64 H 0.62623 0.57056 0.8014 0.0
H65 H 0.55789 0.40087 0.71177 0.0
C66 C 0.46278 0.39098 0.78917 0.0
C67 C 0.4773 0.36797 0.75546 0.0
C68 C 0.51541 0.46414 0.80561 0.0
C69 C 0.58461 0.51446 0.78824 0.0
C70 C 0.60082 0.49186 0.75432 0.0
C71 C 0.54576 0.41915 0.73764 0.0
H72 H 0.39637 0.02361 0.79924 0.0
H73 H 0.61908 0.02994 0.80103 0.0
H74 H 0.5581 0.13402 0.71492 0.0
C75 C 0.45237 0.04059 0.78726 0.0
C76 C 0.47098 0.0812 0.75505 0.0
C77 C 0.50533 0.02183 0.80431 0.0
C78 C 0.57735 0.04313 0.788 0.0
C79 C 0.59696 0.08378 0.75571 0.0
C80 C 0.54353 0.10286 0.73969 0.0
H81 H 0.67593 0.59295 0.95392 0.0
H82 H 0.89792 0.59728 0.95513 0.0
H83 H 0.7419 0.49898 0.04257 0.0
C84 C 0.71808 0.58052 0.9671 0.0
C85 C 0.70026 0.54345 1.0003 0.0
C86 C 0.7898 0.6011 0.95069 0.0
C87 C 0.84257 0.58208 0.96745 0.0
C88 C 0.82588 0.54577 1.00055 0.0
C89 C 0.75545 0.52815 1.01726 0.0
H90 H 0.35427 0.26971 0.95651 0.0
H91 H 0.35236 0.04963 0.95608 0.0
H92 H 0.46487 0.21944 0.04469 0.0
C93 C 0.36959 0.23023 0.96969 0.0
C94 C 0.41156 0.25332 1.0028 0.0
C95 C 0.34854 0.1573 0.95268 0.0
C96 C 0.36844 0.10607 0.96928 0.0
C97 C 0.41057 0.1283 1.00246 0.0
C98 C 0.43157 0.2018 1.01929 0.0
H99 H 0.67674 0.05271 0.95423 0.0
H100 H 0.89174 0.27311 0.95301 0.0
H101 H 0.73685 0.22707 1.04108 0.0
C102 C 0.71704 0.10955 0.96714 0.0
C103 C 0.69843 0.13347 1.00016 0.0
C104 C 0.78622 0.16043 0.94982 0.0
C105 C 0.83801 0.23424 0.96623 0.0
C106 C 0.82072 0.25866 0.99904 0.0
C107 C 0.75052 0.20833 1.01572 0.0
H108 H 0.61407 0.90807 0.13309 0.0
H109 H 0.59909 0.68208 0.13616 0.0
H110 H 0.50142 0.73687 0.04473 0.0
C111 C 0.59613 0.85084 0.12028 0.0
C112 C 0.55522 0.82901 0.08655 0.0
C113 C 0.61077 0.79744 0.13851 0.0
C114 C 0.58658 0.72296 0.12246 0.0
C115 C 0.54832 0.70147 0.08861 0.0
C116 C 0.53256 0.75441 0.07067 0.0
H117 H 0.07587 0.68552 0.13589 0.0
H118 H 0.2929 0.9039 0.13474 0.0
H119 H 0.22456 0.73421 0.0451 0.0
C120 C 0.12945 0.72432 0.1225 0.0
C121 C 0.14397 0.7013 0.08879 0.0
C122 C 0.18208 0.79747 0.13895 0.0
C123 C 0.25128 0.8478 0.12158 0.0
C124 C 0.26749 0.82519 0.08766 0.0
C125 C 0.21242 0.75248 0.07097 0.0
H126 H 0.06303 0.35695 0.13258 0.0
H127 H 0.28574 0.36327 0.13436 0.0
H128 H 0.22476 0.46735 0.04826 0.0
C129 C 0.11903 0.37393 0.12059 0.0
C130 C 0.13765 0.41453 0.08838 0.0
C131 C 0.172 0.35516 0.13764 0.0
C132 C 0.24401 0.37646 0.12134 0.0
C133 C 0.26362 0.41711 0.08904 0.0
C134 C 0.21019 0.4362 0.07302 0.0
H135 H 0.34259 0.92628 0.28725 0.0
H136 H 0.56458 0.93061 0.28846 0.0
H137 H 0.40856 0.83231 0.3759 0.0
C138 C 0.38475 0.91385 0.30043 0.0
C139 C 0.36692 0.87678 0.33363 0.0
C140 C 0.45647 0.93443 0.28402 0.0
C141 C 0.50924 0.91541 0.30078 0.0
C142 C 0.49254 0.8791 0.33388 0.0
C143 C 0.42212 0.86148 0.35059 0.0
H144 H 0.02093 0.60304 0.28985 0.0
H145 H 0.01902 0.38297 0.28941 0.0
H146 H 0.13153 0.55277 0.37803 0.0
C147 C 0.03626 0.56357 0.30302 0.0
C148 C 0.07822 0.58666 0.33613 0.0
C149 C 0.0152 0.49063 0.28601 0.0
C150 C 0.03511 0.4394 0.30261 0.0
C151 C 0.07723 0.46163 0.33579 0.0
C152 C 0.09823 0.53513 0.35263 0.0
H153 H 0.3434 0.38604 0.28756 0.0
H154 H 0.5584 0.60643 0.28634 0.0
H155 H 0.40352 0.5604 0.37442 0.0
C156 C 0.3837 0.44288 0.30047 0.0
C157 C 0.36509 0.4668 0.3335 0.0
C158 C 0.45288 0.49376 0.28316 0.0
C159 C 0.50467 0.56757 0.29956 0.0
C160 C 0.48738 0.59199 0.33238 0.0
C161 C 0.41718 0.54166 0.34906 0.0
Tb162 Tb 0.45791 0.92788 1.00536 0.0
Eu163 Eu 0.51077 0.03278 0.08436 0.0
C164 C 0.53303 0.88264 0.0692 0.0
C165 C 0.34396 0.8761 0.07134 0.0
C166 C 0.44701 0.90647 0.90629 0.0
C167 C 0.50385 0.92225 0.84692 0.0
C168 C 0.4845 0.88488 0.87988 0.0
C169 C 0.42965 0.96653 0.89899 0.0
C170 C 0.44857 0.00354 0.86613 0.0
C171 C 0.48581 -0.01804 0.8395 0.0
C172 C 0.42872 0.86852 0.94166 0.0
O173 O 0.45705 0.0365 0.99648 0.0
O174 O 0.44063 0.07468 0.05341 0.0
O175 O 0.60035 0.10856 0.04486 0.0
O176 O 0.58407 0.00728 1.00586 0.0
C177 C 0.43591 0.07631 1.01832 0.0
O178 O 0.47695 0.08095 0.13028 0.0
O179 O 0.59222 0.09115 0.1305 0.0
O180 O 0.56476 0.95509 0.08271 0.0
O181 O 0.4795 0.85595 0.04261 0.0
O182 O 0.35 0.87851 1.03606 0.0
O183 O 0.40434 0.9173 0.09346 0.0
C184 C 0.62407 0.08107 1.01781 0.0
O185 O 0.48851 0.87799 0.96145 0.0
O186 O 0.37825 0.87726 0.96106 0.0
C187 C 0.52197 0.05711 0.18479 0.0
C188 C 0.47706 0.97565 0.24947 0.0
C189 C 0.46454 0.03955 0.24388 0.0
C190 C 0.48695 0.07996 0.21188 0.0
C191 C 0.53373 -0.00721 0.19021 0.0
C192 C 0.51196 0.95285 0.2222 0.0
C193 C 0.53881 0.0952 0.14977 0.0
H194 H 0.53202 0.9036 0.82706 0.0
H195 H 0.49904 0.83916 0.88477 0.0
H196 H 0.4018 -0.01451 0.91879 0.0
H197 H 0.43495 0.05012 0.86186 0.0
H198 H 0.43836 0.05897 0.26443 0.0
H199 H 0.47609 0.12853 0.20809 0.0
H200 H 0.55873 0.97253 0.16948 0.0
H201 H 0.52149 0.90326 0.22536 0.0
Tb202 Tb 0.02916 0.50146 1.00707 0.0
Eu203 Eu 0.93148 0.45708 0.08292 0.0
C204 C 0.08754 0.62287 0.07317 0.0
C205 C 0.08182 0.43545 0.07131 0.0
C206 C 0.05643 0.51424 0.91013 0.0
C207 C 0.05377 0.55309 0.84895 0.0
C208 C 0.09093 0.56814 0.88304 0.0
C209 C -0.01613 0.44573 0.90295 0.0
C210 C 0.94728 0.4304 0.86894 0.0
C211 C -0.01804 0.48367 0.84159 0.0
C212 C 0.09201 0.53307 0.9467 0.0
O213 O 0.94785 0.37514 1.00393 0.0
O214 O 0.8519 0.36576 1.04165 0.0
O215 O 0.88687 0.52417 0.05199 0.0
O216 O 0.91994 0.50151 0.99548 0.0
C217 C 0.87585 0.33694 1.01557 0.0
O218 O 0.87567 0.37398 0.1252 0.0
O219 O 0.87818 0.48617 0.12759 0.0
O220 O 0.04679 0.56662 0.09508 0.0
O221 O 0.07861 0.61212 1.03814 0.0
O222 O 0.10518 0.48603 0.04554 0.0
O223 O 0.01047 0.40429 0.08336 0.0
C224 C 0.88114 0.5241 1.01686 0.0
O225 O 0.07714 0.58085 0.96586 0.0
O226 O 0.08359 0.4738 0.96505 0.0
C227 C 0.90253 0.44131 0.18148 0.0
C228 C 0.97703 0.47141 0.24981 0.0
C229 C 0.90677 0.40058 0.24204 0.0
C230 C 0.86948 0.38576 0.20801 0.0
C231 C 0.97378 0.51112 0.18911 0.0
C232 C 0.01038 0.52617 0.223 0.0
C233 C 0.86622 0.4247 0.14514 0.0
H234 H 0.08164 0.59488 0.82823 0.0
H235 H 0.14615 0.62209 0.88837 0.0
H236 H 0.95502 0.40445 0.92375 0.0
H237 H 0.89136 0.37708 0.86402 0.0
H238 H 0.88018 0.35762 0.26242 0.0
H239 H 0.81521 0.33102 0.20234 0.0
H240 H 0.00152 0.55408 0.16883 0.0
H241 H 0.06517 0.58061 0.22827 0.0
Tb242 Tb 0.50925 0.45728 0.08231 0.0
Eu243 Eu 0.4528 0.50119 1.00566 0.0
C244 C 0.4359 0.33227 1.01888 0.0
C245 C 0.62282 0.5181 1.01625 0.0
C246 C 0.51796 0.44386 0.17957 0.0
C247 C 0.4738 0.40367 0.24014 0.0
C248 C 0.49763 0.38924 0.20661 0.0
C249 C 0.51219 0.51198 0.18624 0.0
C250 C 0.48925 0.52664 0.21963 0.0
C251 C 0.47065 0.47322 0.24704 0.0
C252 C 0.54124 0.42844 0.14389 0.0
O253 O 0.50479 0.56457 0.09354 0.0
O254 O 0.52265 0.6145 1.03737 0.0
O255 O 0.36256 0.48889 0.04565 0.0
O256 O 0.3825 0.41003 0.08395 0.0
C257 C 0.52455 0.62331 0.07238 0.0
O258 O 0.48049 0.58322 0.96271 0.0
O259 O 0.37104 0.47247 0.9597 0.0
O260 O 0.40217 0.37055 1.00624 0.0
O261 O 0.49195 0.36345 0.04402 0.0
O262 O 0.61647 0.51704 0.05153 0.0
O263 O 0.56217 0.49626 0.9942 0.0
C264 C 0.33999 0.44031 0.07219 0.0
O265 O 0.4841 0.3763 0.12287 0.0
O266 O 0.58862 0.49046 0.12657 0.0
C267 C 0.44342 0.5149 0.90681 0.0
C268 C 0.49677 0.48541 0.84126 0.0
C269 C 0.49263 0.55468 0.84698 0.0
C270 C 0.46591 0.56925 0.87959 0.0
C271 C 0.44984 0.44687 0.90139 0.0
C272 C 0.47577 0.43207 0.86887 0.0
C273 C 0.42139 0.53271 0.94214 0.0
H274 H 0.45982 0.36168 0.26091 0.0
H275 H 0.50047 0.33572 0.20183 0.0
H276 H 0.52565 0.55425 0.16569 0.0
H277 H 0.48617 0.58008 0.22414 0.0
H278 H 0.50805 0.59631 0.82594 0.0
H279 H 0.46306 0.62294 0.88363 0.0
H280 H 0.43519 0.40521 0.92239 0.0
H281 H 0.47908 0.37857 0.86514 0.0
Tb282 Tb 0.12457 0.26121 0.33869 0.0
Eu283 Eu 0.17743 0.36611 0.4177 0.0
C284 C 0.19969 0.21597 0.40253 0.0
C285 C 0.01062 0.20943 0.40467 0.0
C286 C 0.11367 0.2398 0.23962 0.0
C287 C 0.17051 0.25558 0.18025 0.0
C288 C 0.15115 0.21821 0.21321 0.0
C289 C 0.09633 0.29987 0.23233 0.0
C290 C 0.11524 0.33688 0.19947 0.0
C291 C 0.15248 0.31529 0.17283 0.0
C292 C 0.09538 0.20185 0.275 0.0
O293 O 0.12371 0.36983 0.32981 0.0
O294 O 0.10729 0.40801 0.38674 0.0
O295 O 0.26701 0.44189 0.37819 0.0
O296 O 0.25073 0.34061 0.33919 0.0
C297 C 0.10257 0.40964 0.35165 0.0
O298 O 0.14361 0.41428 0.46362 0.0
O299 O 0.25888 0.42448 0.46383 0.0
O300 O 0.23142 0.28842 0.41605 0.0
O301 O 0.14616 0.18929 0.37594 0.0
O302 O 0.01666 0.21183 0.36939 0.0
O303 O 0.071 0.25063 0.4268 0.0
C304 C 0.29073 0.4144 0.35114 0.0
O305 O 0.15518 0.21132 0.29478 0.0
O306 O 0.04491 0.21059 0.29439 0.0
C307 C 0.18864 0.39045 0.51813 0.0
C308 C 0.14373 0.30899 0.58281 0.0
C309 C 0.1312 0.37288 0.57721 0.0
C310 C 0.15362 0.41329 0.54521 0.0
C311 C 0.2004 0.32613 0.52354 0.0
C312 C 0.17863 0.28619 0.55553 0.0
C313 C 0.20547 0.42854 0.48311 0.0
H314 H 0.19867 0.23693 0.16039 0.0
H315 H 0.16569 0.17248 0.2181 0.0
H316 H 0.06847 0.31883 0.25213 0.0
H317 H 0.10163 0.38346 0.1952 0.0
H318 H 0.10502 0.3923 0.59777 0.0
H319 H 0.14276 0.46186 0.54142 0.0
H320 H 0.2254 0.30586 0.50281 0.0
H321 H 0.18816 0.2366 0.55869 0.0
Tb322 Tb 0.69582 0.83479 0.3404 0.0
Eu323 Eu 0.59814 0.7904 0.41625 0.0
C324 C 0.7542 0.95619 0.40651 0.0
C325 C 0.74849 0.76877 0.40465 0.0
C326 C 0.72309 0.84757 0.24346 0.0
C327 C 0.72044 0.88642 0.18229 0.0
C328 C 0.75759 0.90146 0.21637 0.0
C329 C 0.65053 0.77906 0.23628 0.0
C330 C 0.61394 0.76372 0.20227 0.0
C331 C 0.64862 0.81699 0.17492 0.0
C332 C 0.75867 0.8664 0.28003 0.0
O333 O 0.61452 0.70846 0.33726 0.0
O334 O 0.51856 0.69909 0.37499 0.0
O335 O 0.55354 0.85749 0.38532 0.0
O336 O 0.58661 0.83483 0.32881 0.0
C337 C 0.54251 0.67027 0.3489 0.0
O338 O 0.54234 0.70731 0.45853 0.0
O339 O 0.54484 0.8195 0.46092 0.0
O340 O 0.71345 0.89995 0.42842 0.0
O341 O 0.74528 0.94545 0.37147 0.0
O342 O 0.77184 0.81936 0.37887 0.0
O343 O 0.67714 0.73762 0.41669 0.0
C344 C 0.5478 0.85743 0.35019 0.0
O345 O 0.74381 0.91417 0.29919 0.0
O346 O 0.75025 0.80712 0.29839 0.0
C347 C 0.5692 0.77464 0.51481 0.0
C348 C 0.6437 0.80474 0.58315 0.0
C349 C 0.57344 0.73392 0.57538 0.0
C350 C 0.53615 0.71909 0.54134 0.0
C351 C 0.64045 0.84445 0.52244 0.0
C352 C 0.67705 0.85951 0.55634 0.0
C353 C 0.53289 0.75803 0.47847 0.0
H354 H 0.7483 0.92821 0.16156 0.0
H355 H 0.81281 0.95541 0.2217 0.0
H356 H 0.62168 0.73778 0.25708 0.0
H357 H 0.55802 0.71041 0.19735 0.0
H358 H 0.54686 0.69095 0.59576 0.0
H359 H 0.48188 0.66435 0.53567 0.0
H360 H 0.66818 0.88741 0.50216 0.0
H361 H 0.73183 0.91394 0.56161 0.0
Tb362 Tb 0.17592 0.79062 0.41564 0.0
Eu363 Eu 0.11947 0.83453 0.33899 0.0
C364 C 0.10257 0.66561 0.35221 0.0
C365 C 0.28949 0.85143 0.34958 0.0
C366 C 0.18463 0.77719 0.5129 0.0
C367 C 0.14047 0.737 0.57347 0.0
C368 C 0.1643 0.72258 0.53994 0.0
C369 C 0.17886 0.84531 0.51958 0.0
C370 C 0.15592 0.85997 0.55296 0.0
C371 C 0.13732 0.80656 0.58037 0.0
C372 C 0.2079 0.76177 0.47722 0.0
O373 O 0.17145 0.89791 0.42687 0.0
O374 O 0.18932 0.94783 0.3707 0.0
O375 O 0.02923 0.82223 0.37899 0.0
O376 O 0.04917 0.74336 0.41729 0.0
C377 C 0.19121 0.95665 0.40571 0.0
O378 O 0.14716 0.91656 0.29605 0.0
O379 O 0.03771 0.8058 0.29303 0.0
O380 O 0.06884 0.70389 0.33957 0.0
O381 O 0.15862 0.69678 0.37735 0.0
O382 O 0.28313 0.85038 0.38486 0.0
O383 O 0.22883 0.82959 0.32753 0.0
C384 C 0.00666 0.77364 0.40553 0.0
O385 O 0.15077 0.70963 0.4562 0.0
O386 O 0.25529 0.8238 0.4599 0.0
C387 C 0.11009 0.84824 0.24014 0.0
C388 C 0.16344 0.81875 0.17459 0.0
C389 C 0.1593 0.88801 0.18031 0.0
C390 C 0.13258 0.90258 0.21292 0.0
C391 C 0.11651 0.7802 0.23473 0.0
C392 C 0.14244 0.76541 0.2022 0.0
C393 C 0.08806 0.86604 0.27547 0.0
H394 H 0.12649 0.69501 0.59425 0.0
H395 H 0.16714 0.66906 0.53516 0.0
H396 H 0.19232 0.88758 0.49903 0.0
H397 H 0.15284 0.91342 0.55747 0.0
H398 H 0.17471 0.92965 0.15927 0.0
H399 H 0.12972 0.95627 0.21696 0.0
H400 H 0.10186 0.73855 0.25573 0.0
H401 H 0.14576 0.71191 0.19847 0.0
Tb402 Tb 0.79124 0.59454 0.67203 0.0
Eu403 Eu 0.8441 0.69944 0.75103 0.0
C404 C 0.86636 0.54931 0.73587 0.0
C405 C 0.67729 0.54277 0.73801 0.0
C406 C 0.78034 0.57313 0.57296 0.0
C407 C 0.83718 0.58891 0.51358 0.0
C408 C 0.81783 0.55155 0.54654 0.0
C409 C 0.76299 0.63319 0.56566 0.0
C410 C 0.7819 0.67021 0.5328 0.0
C411 C 0.81914 0.64862 0.50617 0.0
C412 C 0.76205 0.53518 0.60833 0.0
O413 O 0.79038 0.70316 0.66314 0.0
O414 O 0.77397 0.74135 0.72007 0.0
O415 O 0.93368 0.77522 0.71152 0.0
O416 O 0.9174 0.67395 0.67252 0.0
C417 C 0.76924 0.74297 0.68498 0.0
O418 O 0.81028 0.74762 0.79695 0.0
O419 O 0.92555 0.75781 0.79717 0.0
O420 O 0.89809 0.62176 0.74938 0.0
O421 O 0.81283 0.52262 0.70928 0.0
O422 O 0.68333 0.54517 0.70272 0.0
O423 O 0.73767 0.58397 0.76013 0.0
C424 C 0.9574 0.74773 0.68448 0.0
O425 O 0.82185 0.54466 0.62811 0.0
O426 O 0.71158 0.54393 0.62772 0.0
C427 C 0.8553 0.72378 0.85146 0.0
C428 C 0.81039 0.64232 0.91614 0.0
C429 C 0.79787 0.70622 0.91054 0.0
C430 C 0.82028 0.74662 0.87854 0.0
C431 C 0.86706 0.65946 0.85687 0.0
C432 C 0.8453 0.61953 0.88887 0.0
C433 C 0.87214 0.76187 0.81644 0.0
H434 H 0.86535 0.57026 0.49372 0.0
H435 H 0.83236 0.50582 0.55144 0.0
H436 H 0.73513 0.65216 0.58546 0.0
H437 H 0.76829 0.71679 0.52853 0.0
H438 H 0.77169 0.72564 0.9311 0.0
H439 H 0.80942 0.7952 0.87476 0.0
H440 H 0.89207 0.6392 0.83615 0.0
H441 H 0.85483 0.56993 0.89202 0.0
Tb442 Tb 0.36249 0.16812 0.67373 0.0
Eu443 Eu 0.26481 0.12374 0.74959 0.0
C444 C 0.42087 0.28953 0.73984 0.0
C445 C 0.41516 0.10211 0.73798 0.0
C446 C 0.38976 0.1809 0.57679 0.0
C447 C 0.3871 0.21975 0.51562 0.0
C448 C 0.42426 0.2348 0.54971 0.0
C449 C 0.3172 0.1124 0.56962 0.0
C450 C 0.28061 0.09706 0.53561 0.0
C451 C 0.31529 0.15033 0.50826 0.0
C452 C 0.42534 0.19973 0.61336 0.0
O453 O 0.28119 0.0418 0.67059 0.0
O454 O 0.18523 0.03243 0.70832 0.0
O455 O 0.22021 0.19083 0.71866 0.0
O456 O 0.25328 0.16817 0.66214 0.0
C457 C 0.20918 0.0036 0.68223 0.0
O458 O 0.20901 0.04064 0.79187 0.0
O459 O 0.21151 0.15283 0.79425 0.0
O460 O 0.38012 0.23328 0.76175 0.0
O461 O 0.41195 0.27878 0.7048 0.0
O462 O 0.43851 0.15269 0.7122 0.0
O463 O 0.34381 0.07095 0.75002 0.0
C464 C 0.21447 0.19077 0.68352 0.0
O465 O 0.41047 0.24751 0.63253 0.0
O466 O 0.41692 0.14046 0.63172 0.0
C467 C 0.23587 0.10798 0.84814 0.0
C468 C 0.31037 0.13807 0.91648 0.0
C469 C 0.24011 0.06725 0.90871 0.0
C470 C 0.20282 0.05242 0.87467 0.0
C471 C 0.30712 0.17779 0.85577 0.0
C472 C 0.34372 0.19284 0.88967 0.0
C473 C 0.19956 0.09136 0.81181 0.0
H474 H 0.41497 0.26154 0.4949 0.0
H475 H 0.47948 0.28875 0.55504 0.0
H476 H 0.28835 0.07112 0.59041 0.0
H477 H 0.22469 0.04375 0.53068 0.0
H478 H 0.21352 0.02429 0.92909 0.0
H479 H 0.14855 -0.00232 0.86901 0.0
H480 H 0.33485 0.22074 0.83549 0.0
H481 H 0.3985 0.24727 0.89494 0.0
Tb482 Tb 0.84259 0.12395 0.74897 0.0
Eu483 Eu 0.78614 0.16786 0.67233 0.0
C484 C 0.76924 -0.00106 0.68555 0.0
C485 C 0.95616 0.18477 0.68291 0.0
C486 C 0.8513 0.11053 0.84624 0.0
C487 C 0.80714 0.07034 0.90681 0.0
C488 C 0.83097 0.05591 0.87328 0.0
C489 C 0.84553 0.17865 0.85291 0.0
C490 C 0.82259 0.19331 0.88629 0.0
C491 C 0.804 0.13989 0.91371 0.0
C492 C 0.87457 0.09511 0.81055 0.0
O493 O 0.83812 0.23124 0.76021 0.0
O494 O 0.85599 0.28117 0.70404 0.0
O495 O 0.6959 0.15556 0.71232 0.0
O496 O 0.71584 0.0767 0.75062 0.0
C497 C 0.85788 0.28998 0.73904 0.0
O498 O 0.81383 0.24989 0.62938 0.0
O499 O 0.70438 0.13914 0.62637 0.0
O500 O 0.73551 0.03722 0.67291 0.0
O501 O 0.82529 0.03012 0.71069 0.0
O502 O 0.9498 0.18371 0.71819 0.0
O503 O 0.8955 0.16292 0.66087 0.0
C504 C 0.67333 0.10698 0.73886 0.0
O505 O 0.81744 0.04297 0.78953 0.0
O506 O 0.92196 0.15713 0.79324 0.0
C507 C 0.77675 0.18157 0.57347 0.0
C508 C 0.8301 0.15208 0.50793 0.0
C509 C 0.82597 0.22135 0.51365 0.0
C510 C 0.79925 0.23592 0.54626 0.0
C511 C 0.78317 0.11353 0.56806 0.0
C512 C 0.8091 0.09874 0.53553 0.0
C513 C 0.75473 0.19938 0.6088 0.0
H514 H 0.79316 0.02835 0.92758 0.0
H515 H 0.83381 0.00239 0.8685 0.0
H516 H 0.85899 0.22092 0.83236 0.0
H517 H 0.81951 0.24676 0.8908 0.0
H518 H 0.84139 0.26298 0.49261 0.0
H519 H 0.7964 0.28961 0.55029 0.0
H520 H 0.76851 0.07188 0.58906 0.0
H521 H 0.81241 0.04524 0.53181 0.0
loop_
_geom_bond_atom_site_label_1
_geom_bond_atom_site_label_2
_geom_bond_distance
_geom_bond_site_symmetry_2
_ccdc_geom_bond_type
H0 C3 0.931 . S
H1 C6 0.928 . S
H2 C8 0.930 . S
C3 H0 0.931 . S
C3 C4 1.413 . S
C3 C5 1.360 . S
C4 C3 1.413 . S
C4 C8 1.429 . S
C5 C3 1.360 . S
C5 C6 1.372 . S
C6 H1 0.928 . S
C6 C5 1.372 . S
C6 C7 1.404 . S
C7 C6 1.404 . S
C7 C8 1.391 . S
C8 H2 0.930 . S
C8 C4 1.429 . S
C8 C7 1.391 . S
H9 C12 0.931 . S
H10 C15 0.928 . S
H11 C17 0.930 . S
C12 H9 0.931 . S
C12 C13 1.413 . S
C12 C14 1.360 . S
C13 C12 1.413 . S
C13 C17 1.429 . S
C14 C12 1.360 . S
C14 C15 1.372 . S
C15 H10 0.928 . S
C15 C14 1.372 . S
C15 C16 1.404 . S
C16 C15 1.404 . S
C16 C17 1.391 . S
C17 H11 0.930 . S
C17 C13 1.429 . S
C17 C16 1.391 . S
H18 C21 0.931 . S
H19 C24 0.928 . S
H20 C26 0.930 . S
C21 H18 0.931 . S
C21 C22 1.413 . S
C21 C23 1.360 . S
C22 C21 1.413 . S
C22 C26 1.429 . S
C23 C21 1.360 . S
C23 C24 1.372 . S
C24 H19 0.928 . S
C24 C23 1.372 . S
C24 C25 1.404 . S
C25 C24 1.404 . S
C25 C26 1.391 . S
C26 H20 0.930 . S
C26 C22 1.429 . S
C26 C25 1.391 . S
H27 C30 0.931 . S
H28 C33 0.928 . S
H29 C35 0.930 . S
C30 H27 0.931 . S
C30 C31 1.413 . S
C30 C32 1.360 . S
C31 C30 1.413 . S
C31 C35 1.429 . S
C32 C30 1.360 . S
C32 C33 1.372 . S
C33 H28 0.928 . S
C33 C32 1.372 . S
C33 C34 1.404 . S
C34 C33 1.404 . S
C34 C35 1.391 . S
C35 H29 0.930 . S
C35 C31 1.429 . S
C35 C34 1.391 . S
H36 C39 0.931 . S
H37 C42 0.928 . S
H38 C44 0.930 . S
C39 H36 0.931 . S
C39 C40 1.413 . S
C39 C41 1.360 . S
C40 C39 1.413 . S
C40 C44 1.429 . S
C41 C39 1.360 . S
C41 C42 1.372 . S
C42 H37 0.928 . S
C42 C41 1.372 . S
C42 C43 1.404 . S
C43 C42 1.404 . S
C43 C44 1.391 . S
C44 H38 0.930 . S
C44 C40 1.429 . S
C44 C43 1.391 . S
H45 C48 0.931 . S
H46 C51 0.928 . S
H47 C53 0.930 . S
C48 H45 0.931 . S
C48 C49 1.413 . S
C48 C50 1.360 . S
C49 C48 1.413 . S
C49 C53 1.429 . S
C50 C48 1.360 . S
C50 C51 1.372 . S
C51 H46 0.928 . S
C51 C50 1.372 . S
C51 C52 1.404 . S
C52 C51 1.404 . S
C52 C53 1.391 . S
C53 H47 0.930 . S
C53 C49 1.429 . S
C53 C52 1.391 . S
H54 C57 0.931 . S
H55 C60 0.928 . S
H56 C62 0.930 . S
C57 H54 0.931 . S
C57 C58 1.413 . S
C57 C59 1.360 . S
C58 C57 1.413 . S
C58 C62 1.429 . S
C59 C57 1.360 . S
C59 C60 1.372 . S
C60 H55 0.928 . S
C60 C59 1.372 . S
C60 C61 1.404 . S
C61 C60 1.404 . S
C61 C62 1.391 . S
C62 H56 0.930 . S
C62 C58 1.429 . S
C62 C61 1.391 . S
H63 C66 0.931 . S
H64 C69 0.928 . S
H65 C71 0.930 . S
C66 H63 0.931 . S
C66 C67 1.413 . S
C66 C68 1.360 . S
C67 C66 1.413 . S
C67 C71 1.429 . S
C68 C66 1.360 . S
C68 C69 1.372 . S
C69 H64 0.928 . S
C69 C68 1.372 . S
C69 C70 1.404 . S
C70 C69 1.404 . S
C70 C71 1.391 . S
C71 H65 0.930 . S
C71 C67 1.429 . S
C71 C70 1.391 . S
H72 C75 0.931 . S
H73 C78 0.928 . S
H74 C80 0.930 . S
C75 H72 0.931 . S
C75 C76 1.413 . S
C75 C77 1.360 . S
C76 C75 1.413 . S
C76 C80 1.429 . S
C77 C75 1.360 . S
C77 C78 1.372 . S
C78 H73 0.928 . S
C78 C77 1.372 . S
C78 C79 1.404 . S
C79 C78 1.404 . S
C79 C80 1.391 . S
C80 H74 0.930 . S
C80 C76 1.429 . S
C80 C79 1.391 . S
H81 C84 0.931 . S
H82 C87 0.928 . S
H83 C89 0.930 . S
C84 H81 0.931 . S
C84 C85 1.413 . S
C84 C86 1.360 . S
C85 C84 1.413 . S
C85 C89 1.429 . S
C86 C84 1.360 . S
C86 C87 1.372 . S
C87 H82 0.928 . S
C87 C86 1.372 . S
C87 C88 1.404 . S
C88 C87 1.404 . S
C88 C89 1.391 . S
C89 H83 0.930 . S
C89 C85 1.429 . S
C89 C88 1.391 . S
H90 C93 0.931 . S
H91 C96 0.928 . S
H92 C98 0.930 1_554 S
C93 H90 0.931 . S
C93 C94 1.413 . S
C93 C95 1.360 . S
C94 C93 1.413 . S
C94 C98 1.429 . S
C95 C93 1.360 . S
C95 C96 1.372 . S
C96 H91 0.928 . S
C96 C95 1.372 . S
C96 C97 1.404 . S
C97 C96 1.404 . S
C97 C98 1.391 . S
C98 H92 0.930 1_556 S
C98 C94 1.429 . S
C98 C97 1.391 . S
H99 C102 0.931 . S
H100 C105 0.928 . S
H101 C107 0.930 1_554 S
C102 H99 0.931 . S
C102 C103 1.413 . S
C102 C104 1.360 . S
C103 C102 1.413 . S
C103 C107 1.429 . S
C104 C102 1.360 . S
C104 C105 1.372 . S
C105 H100 0.928 . S
C105 C104 1.372 . S
C105 C106 1.404 . S
C106 C105 1.404 . S
C106 C107 1.391 . S
C107 H101 0.930 1_556 S
C107 C103 1.429 . S
C107 C106 1.391 . S
H108 C111 0.931 . S
H109 C114 0.928 . S
H110 C116 0.930 1_556 S
C111 H108 0.931 . S
C111 C112 1.413 . S
C111 C113 1.360 . S
C112 C111 1.413 . S
C112 C116 1.429 . S
C113 C111 1.360 . S
C113 C114 1.372 . S
C114 H109 0.928 . S
C114 C113 1.372 . S
C114 C115 1.404 . S
C115 C114 1.404 . S
C115 C116 1.391 . S
C116 H110 0.930 1_554 S
C116 C112 1.429 . S
C116 C115 1.391 . S
H117 C120 0.931 . S
H118 C123 0.928 . S
H119 C125 0.930 1_556 S
C120 H117 0.931 . S
C120 C121 1.413 . S
C120 C122 1.360 . S
C121 C120 1.413 . S
C121 C125 1.429 . S
C122 C120 1.360 . S
C122 C123 1.372 . S
C123 H118 0.928 . S
C123 C122 1.372 . S
C123 C124 1.404 . S
C124 C123 1.404 . S
C124 C125 1.391 . S
C125 H119 0.930 1_554 S
C125 C121 1.429 . S
C125 C124 1.391 . S
H126 C129 0.931 . S
H127 C132 0.928 . S
H128 C134 0.930 . S
C129 H126 0.931 . S
C129 C130 1.413 . S
C129 C131 1.360 . S
C130 C129 1.413 . S
C130 C134 1.429 . S
C131 C129 1.360 . S
C131 C132 1.372 . S
C132 H127 0.928 . S
C132 C131 1.372 . S
C132 C133 1.404 . S
C133 C132 1.404 . S
C133 C134 1.391 . S
C134 H128 0.930 . S
C134 C130 1.429 . S
C134 C133 1.391 . S
H135 C138 0.931 . S
H136 C141 0.928 . S
H137 C143 0.930 . S
C138 H135 0.931 . S
C138 C139 1.413 . S
C138 C140 1.360 . S
C139 C138 1.413 . S
C139 C143 1.429 . S
C140 C138 1.360 . S
C140 C141 1.372 . S
C141 H136 0.928 . S
C141 C140 1.372 . S
C141 C142 1.404 . S
C142 C141 1.404 . S
C142 C143 1.391 . S
C143 H137 0.930 . S
C143 C139 1.429 . S
C143 C142 1.391 . S
H144 C147 0.931 . S
H145 C150 0.928 . S
H146 C152 0.930 . S
C147 H144 0.931 . S
C147 C148 1.413 . S
C147 C149 1.360 . S
C148 C147 1.413 . S
C148 C152 1.429 . S
C149 C147 1.360 . S
C149 C150 1.372 . S
C150 H145 0.928 . S
C150 C149 1.372 . S
C150 C151 1.404 . S
C151 C150 1.404 . S
C151 C152 1.391 . S
C152 H146 0.930 . S
C152 C148 1.429 . S
C152 C151 1.391 . S
H153 C156 0.931 . S
H154 C159 0.928 . S
H155 C161 0.930 . S
C156 H153 0.931 . S
C156 C157 1.413 . S
C156 C158 1.360 . S
C157 C156 1.413 . S
C157 C161 1.429 . S
C158 C156 1.360 . S
C158 C159 1.372 . S
C159 H154 0.928 . S
C159 C158 1.372 . S
C159 C160 1.404 . S
C160 C159 1.404 . S
C160 C161 1.391 . S
C161 H155 0.930 . S
C161 C157 1.429 . S
C161 C160 1.391 . S
Tb162 C172 2.825 . S
Tb162 O173 2.347 1_565 S
Tb162 O176 2.366 1_565 S
Tb162 O181 2.418 . S
Tb162 O182 2.401 . S
Tb162 O185 2.479 . S
Tb162 O186 2.471 . S
Eu163 O174 2.418 . S
Eu163 O175 2.384 . S
Eu163 O178 2.479 . S
Eu163 O179 2.471 . S
Eu163 O180 2.347 1_545 S
Eu163 O183 2.366 1_545 S
Eu163 C193 2.825 . S
C164 O180 1.259 . S
C164 O181 1.265 1_554 S
C165 O182 1.236 1_554 S
C165 O183 1.265 . S
C166 C168 1.380 . S
C166 C169 1.374 1_565 S
C166 C172 1.507 . S
C167 C168 1.384 . S
C167 C171 1.387 . S
C167 H194 0.930 . S
C168 C166 1.380 . S
C168 C167 1.384 . S
C168 H195 0.931 . S
C169 C166 1.374 1_545 S
C169 C170 1.390 . S
C169 H196 0.930 . S
C170 C169 1.390 . S
C170 C171 1.391 1_545 S
C170 H197 0.930 . S
C171 C167 1.387 . S
C171 C170 1.391 1_565 S
C172 Tb162 2.825 . S
C172 C166 1.507 . S
C172 O185 1.238 . S
C172 O186 1.247 . S
O173 Tb162 2.347 1_545 S
O173 C177 1.259 . S
O174 Eu163 2.418 . S
O174 C177 1.265 1_554 S
O175 Eu163 2.384 . S
O175 C184 1.255 1_554 S
O176 Tb162 2.366 1_545 S
O176 C184 1.265 . S
C177 O173 1.259 . S
C177 O174 1.265 1_556 S
O178 Eu163 2.479 . S
O178 C193 1.238 . S
O179 Eu163 2.471 . S
O179 C193 1.247 . S
O180 Eu163 2.347 1_565 S
O180 C164 1.259 . S
O181 Tb162 2.418 . S
O181 C164 1.265 1_556 S
O182 Tb162 2.401 . S
O182 C165 1.236 1_556 S
O183 Eu163 2.366 1_565 S
O183 C165 1.265 . S
C184 O175 1.255 1_556 S
C184 O176 1.265 . S
O185 Tb162 2.479 . S
O185 C172 1.238 . S
O186 Tb162 2.471 . S
O186 C172 1.247 . S
C187 C190 1.380 . S
C187 C191 1.374 1_545 S
C187 C193 1.507 . S
C188 C189 1.387 . S
C188 C192 1.391 1_545 S
C189 C188 1.387 . S
C189 C190 1.384 . S
C189 H198 0.930 . S
C190 C187 1.380 . S
C190 C189 1.384 . S
C190 H199 0.931 . S
C191 C187 1.374 1_565 S
C191 C192 1.390 . S
C191 H200 0.930 . S
C192 C188 1.391 1_565 S
C192 C191 1.390 . S
C192 H201 0.930 . S
C193 Eu163 2.825 . S
C193 O178 1.238 . S
C193 O179 1.247 . S
C193 C187 1.507 . S
H194 C167 0.930 . S
H195 C168 0.931 . S
H196 C169 0.930 . S
H197 C170 0.930 . S
H198 C189 0.930 . S
H199 C190 0.931 . S
H200 C191 0.930 . S
H201 C192 0.930 . S
Tb202 C212 2.825 . S
Tb202 O213 2.347 1_455 S
Tb202 O216 2.366 1_455 S
Tb202 O221 2.418 . S
Tb202 O222 2.384 1_556 S
Tb202 O225 2.479 . S
Tb202 O226 2.471 1_455 S
Eu203 O214 2.418 . S
Eu203 O215 2.384 1_554 S
Eu203 O218 2.479 . S
Eu203 O219 2.471 1_655 S
Eu203 O220 2.347 1_655 S
Eu203 O223 2.366 1_655 S
Eu203 C233 2.825 . S
C204 O220 1.259 . S
C204 O221 1.265 1_554 S
C205 O222 1.255 . S
C205 O223 1.265 . S
C206 C208 1.380 . S
C206 C209 1.374 1_455 S
C206 C212 1.507 . S
C207 C208 1.384 . S
C207 C211 1.387 1_455 S
C207 H234 0.930 . S
C208 C206 1.380 . S
C208 C207 1.384 . S
C208 H235 0.931 . S
C209 C206 1.374 1_655 S
C209 C210 1.390 . S
C209 H236 0.930 . S
C210 C209 1.390 . S
C210 C211 1.391 . S
C210 H237 0.930 . S
C211 C207 1.387 1_655 S
C211 C210 1.391 . S
C212 Tb202 2.825 . S
C212 C206 1.507 . S
C212 O225 1.238 . S
C212 O226 1.247 1_455 S
O213 Tb202 2.347 1_655 S
O213 C217 1.259 . S
O214 Eu203 2.418 . S
O214 C217 1.265 1_554 S
O215 Eu203 2.384 1_556 S
O215 C224 1.255 . S
O216 Tb202 2.366 1_655 S
O216 C224 1.265 . S
C217 O213 1.259 . S
C217 O214 1.265 1_556 S
O218 Eu203 2.479 . S
O218 C233 1.238 . S
O219 Eu203 2.471 1_455 S
O219 C233 1.247 1_455 S
O220 Eu203 2.347 1_455 S
O220 C204 1.259 . S
O221 Tb202 2.418 . S
O221 C204 1.265 1_556 S
O222 Tb202 2.384 1_554 S
O222 C205 1.255 . S
O223 Eu203 2.366 1_455 S
O223 C205 1.265 . S
C224 O215 1.255 . S
C224 O216 1.265 . S
O225 Tb202 2.479 . S
O225 C212 1.238 . S
O226 Tb202 2.471 1_655 S
O226 C212 1.247 1_655 S
C227 C230 1.380 . S
C227 C231 1.374 1_655 S
C227 C233 1.507 . S
C228 C229 1.387 1_455 S
C228 C232 1.391 . S
C229 C228 1.387 1_655 S
C229 C230 1.384 . S
C229 H238 0.930 . S
C230 C227 1.380 . S
C230 C229 1.384 . S
C230 H239 0.931 . S
C231 C227 1.374 1_455 S
C231 C232 1.390 . S
C231 H240 0.930 . S
C232 C228 1.391 . S
C232 C231 1.390 . S
C232 H241 0.930 . S
C233 Eu203 2.825 . S
C233 O218 1.238 . S
C233 O219 1.247 1_655 S
C233 C227 1.507 . S
H234 C207 0.930 . S
H235 C208 0.931 . S
H236 C209 0.930 . S
H237 C210 0.930 . S
H238 C229 0.930 . S
H239 C230 0.931 . S
H240 C231 0.930 . S
H241 C232 0.930 . S
Tb242 C252 2.825 . S
Tb242 O253 2.347 . S
Tb242 O256 2.366 . S
Tb242 O261 2.418 . S
Tb242 O262 2.378 1_554 S
Tb242 O265 2.479 . S
Tb242 O266 2.471 . S
Eu243 O254 2.418 . S
Eu243 O255 2.384 1_556 S
Eu243 O258 2.479 . S
Eu243 O259 2.471 . S
Eu243 O260 2.347 . S
Eu243 O263 2.366 . S
Eu243 C273 2.825 . S
C244 O260 1.259 . S
C244 O261 1.265 1_556 S
C245 O262 1.262 . S
C245 O263 1.265 . S
C246 C248 1.380 . S
C246 C249 1.374 . S
C246 C252 1.507 . S
C247 C248 1.384 . S
C247 C251 1.387 . S
C247 H274 0.930 . S
C248 C246 1.380 . S
C248 C247 1.384 . S
C248 H275 0.931 . S
C249 C246 1.374 . S
C249 C250 1.390 . S
C249 H276 0.930 . S
C250 C249 1.390 . S
C250 C251 1.391 . S
C250 H277 0.930 . S
C251 C247 1.387 . S
C251 C250 1.391 . S
C252 Tb242 2.825 . S
C252 C246 1.507 . S
C252 O265 1.238 . S
C252 O266 1.247 . S
O253 Tb242 2.347 . S
O253 C257 1.259 . S
O254 Eu243 2.418 . S
O254 C257 1.265 1_556 S
O255 Eu243 2.384 1_554 S
O255 C264 1.255 . S
O256 Tb242 2.366 . S
O256 C264 1.265 . S
C257 O253 1.259 . S
C257 O254 1.265 1_554 S
O258 Eu243 2.479 . S
O258 C273 1.238 . S
O259 Eu243 2.471 . S
O259 C273 1.247 . S
O260 Eu243 2.347 . S
O260 C244 1.259 . S
O261 Tb242 2.418 . S
O261 C244 1.265 1_554 S
O262 Tb242 2.378 1_556 S
O262 C245 1.262 . S
O263 Eu243 2.366 . S
O263 C245 1.265 . S
C264 O255 1.255 . S
C264 O256 1.265 . S
O265 Tb242 2.479 . S
O265 C252 1.238 . S
O266 Tb242 2.471 . S
O266 C252 1.247 . S
C267 C270 1.380 . S
C267 C271 1.374 . S
C267 C273 1.507 . S
C268 C269 1.387 . S
C268 C272 1.391 . S
C269 C268 1.387 . S
C269 C270 1.384 . S
C269 H278 0.930 . S
C270 C267 1.380 . S
C270 C269 1.384 . S
C270 H279 0.931 . S
C271 C267 1.374 . S
C271 C272 1.390 . S
C271 H280 0.930 . S
C272 C268 1.391 . S
C272 C271 1.390 . S
C272 H281 0.930 . S
C273 Eu243 2.825 . S
C273 O258 1.238 . S
C273 O259 1.247 . S
C273 C267 1.507 . S
H274 C247 0.930 . S
H275 C248 0.931 . S
H276 C249 0.930 . S
H277 C250 0.930 . S
H278 C269 0.930 . S
H279 C270 0.931 . S
H280 C271 0.930 . S
H281 C272 0.930 . S
Tb282 C292 2.825 . S
Tb282 O293 2.347 . S
Tb282 O296 2.366 . S
Tb282 O301 2.418 . S
Tb282 O302 2.384 . S
Tb282 O305 2.479 . S
Tb282 O306 2.471 . S
Eu283 O294 2.418 . S
Eu283 O295 2.384 . S
Eu283 O298 2.479 . S
Eu283 O299 2.471 . S
Eu283 O300 2.347 . S
Eu283 O303 2.366 . S
Eu283 C313 2.825 . S
C284 O300 1.259 . S
C284 O301 1.265 . S
C285 O302 1.255 . S
C285 O303 1.265 . S
C286 C288 1.380 . S
C286 C289 1.374 . S
C286 C292 1.507 . S
C287 C288 1.384 . S
C287 C291 1.387 . S
C287 H314 0.930 . S
C288 C286 1.380 . S
C288 C287 1.384 . S
C288 H315 0.931 . S
C289 C286 1.374 . S
C289 C290 1.390 . S
C289 H316 0.930 . S
C290 C289 1.390 . S
C290 C291 1.391 . S
C290 H317 0.930 . S
C291 C287 1.387 . S
C291 C290 1.391 . S
C292 Tb282 2.825 . S
C292 C286 1.507 . S
C292 O305 1.238 . S
C292 O306 1.247 . S
O293 Tb282 2.347 . S
O293 C297 1.259 . S
O294 Eu283 2.418 . S
O294 C297 1.265 . S
O295 Eu283 2.384 . S
O295 C304 1.255 . S
O296 Tb282 2.366 . S
O296 C304 1.265 . S
C297 O293 1.259 . S
C297 O294 1.265 . S
O298 Eu283 2.479 . S
O298 C313 1.238 . S
O299 Eu283 2.471 . S
O299 C313 1.247 . S
O300 Eu283 2.347 . S
O300 C284 1.259 . S
O301 Tb282 2.418 . S
O301 C284 1.265 . S
O302 Tb282 2.384 . S
O302 C285 1.255 . S
O303 Eu283 2.366 . S
O303 C285 1.265 . S
C304 O295 1.255 . S
C304 O296 1.265 . S
O305 Tb282 2.479 . S
O305 C292 1.238 . S
O306 Tb282 2.471 . S
O306 C292 1.247 . S
C307 C310 1.380 . S
C307 C311 1.374 . S
C307 C313 1.507 . S
C308 C309 1.387 . S
C308 C312 1.391 . S
C309 C308 1.387 . S
C309 C310 1.384 . S
C309 H318 0.930 . S
C310 C307 1.380 . S
C310 C309 1.384 . S
C310 H319 0.931 . S
C311 C307 1.374 . S
C311 C312 1.390 . S
C311 H320 0.930 . S
C312 C308 1.391 . S
C312 C311 1.390 . S
C312 H321 0.930 . S
C313 Eu283 2.825 . S
C313 O298 1.238 . S
C313 O299 1.247 . S
C313 C307 1.507 . S
H314 C287 0.930 . S
H315 C288 0.931 . S
H316 C289 0.930 . S
H317 C290 0.930 . S
H318 C309 0.930 . S
H319 C310 0.931 . S
H320 C311 0.930 . S
H321 C312 0.930 . S
Tb322 C332 2.825 . S
Tb322 O333 2.347 . S
Tb322 O336 2.366 . S
Tb322 O341 2.418 . S
Tb322 O342 2.384 . S
Tb322 O345 2.479 . S
Tb322 O346 2.471 . S
Eu323 O334 2.418 . S
Eu323 O335 2.384 . S
Eu323 O338 2.479 . S
Eu323 O339 2.471 . S
Eu323 O340 2.347 . S
Eu323 O343 2.366 . S
Eu323 C353 2.825 . S
C324 O340 1.259 . S
C324 O341 1.265 . S
C325 O342 1.255 . S
C325 O343 1.265 . S
C326 C328 1.380 . S
C326 C329 1.374 . S
C326 C332 1.507 . S
C327 C328 1.384 . S
C327 C331 1.387 . S
C327 H354 0.930 . S
C328 C326 1.380 . S
C328 C327 1.384 . S
C328 H355 0.931 . S
C329 C326 1.374 . S
C329 C330 1.390 . S
C329 H356 0.930 . S
C330 C329 1.390 . S
C330 C331 1.391 . S
C330 H357 0.930 . S
C331 C327 1.387 . S
C331 C330 1.391 . S
C332 Tb322 2.825 . S
C332 C326 1.507 . S
C332 O345 1.238 . S
C332 O346 1.247 . S
O333 Tb322 2.347 . S
O333 C337 1.259 . S
O334 Eu323 2.418 . S
O334 C337 1.265 . S
O335 Eu323 2.384 . S
O335 C344 1.255 . S
O336 Tb322 2.366 . S
O336 C344 1.265 . S
C337 O333 1.259 . S
C337 O334 1.265 . S
O338 Eu323 2.479 . S
O338 C353 1.238 . S
O339 Eu323 2.471 . S
O339 C353 1.247 . S
O340 Eu323 2.347 . S
O340 C324 1.259 . S
O341 Tb322 2.418 . S
O341 C324 1.265 . S
O342 Tb322 2.384 . S
O342 C325 1.255 . S
O343 Eu323 2.366 . S
O343 C325 1.265 . S
C344 O335 1.255 . S
C344 O336 1.265 . S
O345 Tb322 2.479 . S
O345 C332 1.238 . S
O346 Tb322 2.471 . S
O346 C332 1.247 . S
C347 C350 1.380 . S
C347 C351 1.374 . S
C347 C353 1.507 . S
C348 C349 1.387 . S
C348 C352 1.391 . S
C349 C348 1.387 . S
C349 C350 1.384 . S
C349 H358 0.930 . S
C350 C347 1.380 . S
C350 C349 1.384 . S
C350 H359 0.931 . S
C351 C347 1.374 . S
C351 C352 1.390 . S
C351 H360 0.930 . S
C352 C348 1.391 . S
C352 C351 1.390 . S
C352 H361 0.930 . S
C353 Eu323 2.825 . S
C353 O338 1.238 . S
C353 O339 1.247 . S
C353 C347 1.507 . S
H354 C327 0.930 . S
H355 C328 0.931 . S
H356 C329 0.930 . S
H357 C330 0.930 . S
H358 C349 0.930 . S
H359 C350 0.931 . S
H360 C351 0.930 . S
H361 C352 0.930 . S
Tb362 C372 2.825 . S
Tb362 O373 2.347 . S
Tb362 O376 2.366 . S
Tb362 O381 2.418 . S
Tb362 O382 2.384 . S
Tb362 O385 2.479 . S
Tb362 O386 2.471 . S
Eu363 O374 2.418 . S
Eu363 O375 2.384 . S
Eu363 O378 2.479 . S
Eu363 O379 2.471 . S
Eu363 O380 2.347 . S
Eu363 O383 2.366 . S
Eu363 C393 2.825 . S
C364 O380 1.259 . S
C364 O381 1.265 . S
C365 O382 1.255 . S
C365 O383 1.265 . S
C366 C368 1.380 . S
C366 C369 1.374 . S
C366 C372 1.507 . S
C367 C368 1.384 . S
C367 C371 1.387 . S
C367 H394 0.930 . S
C368 C366 1.380 . S
C368 C367 1.384 . S
C368 H395 0.931 . S
C369 C366 1.374 . S
C369 C370 1.390 . S
C369 H396 0.930 . S
C370 C369 1.390 . S
C370 C371 1.391 . S
C370 H397 0.930 . S
C371 C367 1.387 . S
C371 C370 1.391 . S
C372 Tb362 2.825 . S
C372 C366 1.507 . S
C372 O385 1.238 . S
C372 O386 1.247 . S
O373 Tb362 2.347 . S
O373 C377 1.259 . S
O374 Eu363 2.418 . S
O374 C377 1.265 . S
O375 Eu363 2.384 . S
O375 C384 1.255 . S
O376 Tb362 2.366 . S
O376 C384 1.265 . S
C377 O373 1.259 . S
C377 O374 1.265 . S
O378 Eu363 2.479 . S
O378 C393 1.238 . S
O379 Eu363 2.471 . S
O379 C393 1.247 . S
O380 Eu363 2.347 . S
O380 C364 1.259 . S
O381 Tb362 2.418 . S
O381 C364 1.265 . S
O382 Tb362 2.384 . S
O382 C365 1.255 . S
O383 Eu363 2.366 . S
O383 C365 1.265 . S
C384 O375 1.255 . S
C384 O376 1.265 . S
O385 Tb362 2.479 . S
O385 C372 1.238 . S
O386 Tb362 2.471 . S
O386 C372 1.247 . S
C387 C390 1.380 . S
C387 C391 1.374 . S
C387 C393 1.507 . S
C388 C389 1.387 . S
C388 C392 1.391 . S
C389 C388 1.387 . S
C389 C390 1.384 . S
C389 H398 0.930 . S
C390 C387 1.380 . S
C390 C389 1.384 . S
C390 H399 0.931 . S
C391 C387 1.374 . S
C391 C392 1.390 . S
C391 H400 0.930 . S
C392 C388 1.391 . S
C392 C391 1.390 . S
C392 H401 0.930 . S
C393 Eu363 2.825 . S
C393 O378 1.238 . S
C393 O379 1.247 . S
C393 C387 1.507 . S
H394 C367 0.930 . S
H395 C368 0.931 . S
H396 C369 0.930 . S
H397 C370 0.930 . S
H398 C389 0.930 . S
H399 C390 0.931 . S
H400 C391 0.930 . S
H401 C392 0.930 . S
Tb402 C412 2.825 . S
Tb402 O413 2.347 . S
Tb402 O416 2.366 . S
Tb402 O421 2.418 . S
Tb402 O422 2.384 . S
Tb402 O425 2.479 . S
Tb402 O426 2.471 . S
Eu403 O414 2.418 . S
Eu403 O415 2.384 . S
Eu403 O418 2.479 . S
Eu403 O419 2.471 . S
Eu403 O420 2.347 . S
Eu403 O423 2.366 . S
Eu403 C433 2.825 . S
C404 O420 1.259 . S
C404 O421 1.265 . S
C405 O422 1.255 . S
C405 O423 1.265 . S
C406 C408 1.380 . S
C406 C409 1.374 . S
C406 C412 1.507 . S
C407 C408 1.384 . S
C407 C411 1.387 . S
C407 H434 0.930 . S
C408 C406 1.380 . S
C408 C407 1.384 . S
C408 H435 0.931 . S
C409 C406 1.374 . S
C409 C410 1.390 . S
C409 H436 0.930 . S
C410 C409 1.390 . S
C410 C411 1.391 . S
C410 H437 0.930 . S
C411 C407 1.387 . S
C411 C410 1.391 . S
C412 Tb402 2.825 . S
C412 C406 1.507 . S
C412 O425 1.238 . S
C412 O426 1.247 . S
O413 Tb402 2.347 . S
O413 C417 1.259 . S
O414 Eu403 2.418 . S
O414 C417 1.265 . S
O415 Eu403 2.384 . S
O415 C424 1.255 . S
O416 Tb402 2.366 . S
O416 C424 1.265 . S
C417 O413 1.259 . S
C417 O414 1.265 . S
O418 Eu403 2.479 . S
O418 C433 1.238 . S
O419 Eu403 2.471 . S
O419 C433 1.247 . S
O420 Eu403 2.347 . S
O420 C404 1.259 . S
O421 Tb402 2.418 . S
O421 C404 1.265 . S
O422 Tb402 2.384 . S
O422 C405 1.255 . S
O423 Eu403 2.366 . S
O423 C405 1.265 . S
C424 O415 1.255 . S
C424 O416 1.265 . S
O425 Tb402 2.479 . S
O425 C412 1.238 . S
O426 Tb402 2.471 . S
O426 C412 1.247 . S
C427 C430 1.380 . S
C427 C431 1.374 . S
C427 C433 1.507 . S
C428 C429 1.387 . S
C428 C432 1.391 . S
C429 C428 1.387 . S
C429 C430 1.384 . S
C429 H438 0.930 . S
C430 C427 1.380 . S
C430 C429 1.384 . S
C430 H439 0.931 . S
C431 C427 1.374 . S
C431 C432 1.390 . S
C431 H440 0.930 . S
C432 C428 1.391 . S
C432 C431 1.390 . S
C432 H441 0.930 . S
C433 Eu403 2.825 . S
C433 O418 1.238 . S
C433 O419 1.247 . S
C433 C427 1.507 . S
H434 C407 0.930 . S
H435 C408 0.931 . S
H436 C409 0.930 . S
H437 C410 0.930 . S
H438 C429 0.930 . S
H439 C430 0.931 . S
H440 C431 0.930 . S
H441 C432 0.930 . S
Tb442 C452 2.825 . S
Tb442 O453 2.347 . S
Tb442 O456 2.366 . S
Tb442 O461 2.418 . S
Tb442 O462 2.384 . S
Tb442 O465 2.479 . S
Tb442 O466 2.471 . S
Eu443 O454 2.418 . S
Eu443 O455 2.384 . S
Eu443 O458 2.479 . S
Eu443 O459 2.471 . S
Eu443 O460 2.347 . S
Eu443 O463 2.366 . S
Eu443 C473 2.825 . S
C444 O460 1.259 . S
C444 O461 1.265 . S
C445 O462 1.255 . S
C445 O463 1.265 . S
C446 C448 1.380 . S
C446 C449 1.374 . S
C446 C452 1.507 . S
C447 C448 1.384 . S
C447 C451 1.387 . S
C447 H474 0.930 . S
C448 C446 1.380 . S
C448 C447 1.384 . S
C448 H475 0.931 . S
C449 C446 1.374 . S
C449 C450 1.390 . S
C449 H476 0.930 . S
C450 C449 1.390 . S
C450 C451 1.391 . S
C450 H477 0.930 . S
C451 C447 1.387 . S
C451 C450 1.391 . S
C452 Tb442 2.825 . S
C452 C446 1.507 . S
C452 O465 1.238 . S
C452 O466 1.247 . S
O453 Tb442 2.347 . S
O453 C457 1.259 . S
O454 Eu443 2.418 . S
O454 C457 1.265 . S
O455 Eu443 2.384 . S
O455 C464 1.255 . S
O456 Tb442 2.366 . S
O456 C464 1.265 . S
C457 O453 1.259 . S
C457 O454 1.265 . S
O458 Eu443 2.479 . S
O458 C473 1.238 . S
O459 Eu443 2.471 . S
O459 C473 1.247 . S
O460 Eu443 2.347 . S
O460 C444 1.259 . S
O461 Tb442 2.418 . S
O461 C444 1.265 . S
O462 Tb442 2.384 . S
O462 C445 1.255 . S
O463 Eu443 2.366 . S
O463 C445 1.265 . S
C464 O455 1.255 . S
C464 O456 1.265 . S
O465 Tb442 2.479 . S
O465 C452 1.238 . S
O466 Tb442 2.471 . S
O466 C452 1.247 . S
C467 C470 1.380 . S
C467 C471 1.374 . S
C467 C473 1.507 . S
C468 C469 1.387 . S
C468 C472 1.391 . S
C469 C468 1.387 . S
C469 C470 1.384 . S
C469 H478 0.930 . S
C470 C467 1.380 . S
C470 C469 1.384 . S
C470 H479 0.931 . S
C471 C467 1.374 . S
C471 C472 1.390 . S
C471 H480 0.930 . S
C472 C468 1.391 . S
C472 C471 1.390 . S
C472 H481 0.930 . S
C473 Eu443 2.825 . S
C473 O458 1.238 . S
C473 O459 1.247 . S
C473 C467 1.507 . S
H474 C447 0.930 . S
H475 C448 0.931 . S
H476 C449 0.930 . S
H477 C450 0.930 . S
H478 C469 0.930 . S
H479 C470 0.931 . S
H480 C471 0.930 . S
H481 C472 0.930 . S
Tb482 C492 2.825 . S
Tb482 O493 2.347 . S
Tb482 O496 2.366 . S
Tb482 O501 2.418 . S
Tb482 O502 2.384 . S
Tb482 O505 2.479 . S
Tb482 O506 2.471 . S
Eu483 O494 2.418 . S
Eu483 O495 2.384 . S
Eu483 O498 2.479 . S
Eu483 O499 2.471 . S
Eu483 O500 2.347 . S
Eu483 O503 2.366 . S
Eu483 C513 2.825 . S
C484 O500 1.259 . S
C484 O501 1.265 . S
C485 O502 1.255 . S
C485 O503 1.265 . S
C486 C488 1.380 . S
C486 C489 1.374 . S
C486 C492 1.507 . S
C487 C488 1.384 . S
C487 C491 1.387 . S
C487 H514 0.930 . S
C488 C486 1.380 . S
C488 C487 1.384 . S
C488 H515 0.931 . S
C489 C486 1.374 . S
C489 C490 1.390 . S
C489 H516 0.930 . S
C490 C489 1.390 . S
C490 C491 1.391 . S
C490 H517 0.930 . S
C491 C487 1.387 . S
C491 C490 1.391 . S
C492 Tb482 2.825 . S
C492 C486 1.507 . S
C492 O505 1.238 . S
C492 O506 1.247 . S
O493 Tb482 2.347 . S
O493 C497 1.259 . S
O494 Eu483 2.418 . S
O494 C497 1.265 . S
O495 Eu483 2.384 . S
O495 C504 1.255 . S
O496 Tb482 2.366 . S
O496 C504 1.265 . S
C497 O493 1.259 . S
C497 O494 1.265 . S
O498 Eu483 2.479 . S
O498 C513 1.238 . S
O499 Eu483 2.471 . S
O499 C513 1.247 . S
O500 Eu483 2.347 . S
O500 C484 1.259 . S
O501 Tb482 2.418 . S
O501 C484 1.265 . S
O502 Tb482 2.384 . S
O502 C485 1.255 . S
O503 Eu483 2.366 . S
O503 C485 1.265 . S
C504 O495 1.255 . S
C504 O496 1.265 . S
O505 Tb482 2.479 . S
O505 C492 1.238 . S
O506 Tb482 2.471 . S
O506 C492 1.247 . S
C507 C510 1.380 . S
C507 C511 1.374 . S
C507 C513 1.507 . S
C508 C509 1.387 . S
C508 C512 1.391 . S
C509 C508 1.387 . S
C509 C510 1.384 . S
C509 H518 0.930 . S
C510 C507 1.380 . S
C510 C509 1.384 . S
C510 H519 0.931 . S
C511 C507 1.374 . S
C511 C512 1.390 . S
C511 H520 0.930 . S
C512 C508 1.391 . S
C512 C511 1.390 . S
C512 H521 0.930 . S
C513 Eu483 2.825 . S
C513 O498 1.238 . S
C513 O499 1.247 . S
C513 C507 1.507 . S
H514 C487 0.930 . S
H515 C488 0.931 . S
H516 C489 0.930 . S
H517 C490 0.930 . S
H518 C509 0.930 . S
H519 C510 0.931 . S
H520 C511 0.930 . S
H521 C512 0.930 . S
C124 C165 1.744 . S
C130 C205 1.817 . S
C115 C257 1.697 . S
C106 C217 1.575 . S
C245 C85 1.529 . S
C97 C177 1.541 . S
C184 C103 1.763 . S
C224 C88 1.781 . S
C94 C244 1.686 . S
C121 C204 1.564 . S
C133 C264 1.496 . S
C164 C112 1.557 . S
C285 C16 1.744 1_455 S
C22 C325 1.816 . S
C7 C377 1.697 1_545 S
C160 C337 1.575 . S
C139 C365 1.529 . S
C151 C297 1.541 . S
C157 C304 1.763 . S
C142 C344 1.781 . S
C364 C148 1.687 . S
C13 C324 1.564 1_545 S
C384 C25 1.496 1_455 S
C4 C284 1.557 . S
C405 C70 1.744 . S
C76 C445 1.817 . S
C497 C61 1.697 . S
C457 C52 1.575 1_545 S
C485 C31 1.529 1_655 S
C43 C417 1.542 . S
C49 C424 1.763 1_455 S
C34 C464 1.781 . S
C484 C40 1.686 1_545 S
C67 C444 1.564 . S
C79 C504 1.496 . S
C58 C404 1.557 . S
C140 C188 1.919 1_565 S
C228 C149 1.877 . S
C158 C251 1.620 . S
C59 C211 1.906 . S
C68 C268 1.595 . S
C171 C77 1.928 1_565 S
C32 C308 1.920 . S
C41 C348 1.877 . S
C50 C371 1.620 . S
C113 C331 1.906 . S
C388 C122 1.595 . S
C131 C291 1.928 . S
C86 C428 1.919 . S
C95 C468 1.877 . S
C491 C104 1.620 . S
C5 C451 1.906 . S
C14 C508 1.595 . S
C23 C411 1.928 . S
