# Generated by pormake.
# Topology ptr, (4,4)-cn, num edge types: 1
# Building blocks:
#     Node 0, Type 0, BuildingBlock: GALJAG_clean_sbu_0, # of connection points: 4
#     Node 1, Type 0, BuildingBlock: GALJAG_clean_sbu_0, # of connection points: 4
#     Node 2, Type 0, BuildingBlock: GALJAG_clean_sbu_0, # of connection points: 4
#     Node 3, Type 0, BuildingBlock: GALJAG_clean_sbu_0, # of connection points: 4
#     Node 4, Type 0, BuildingBlock: GALJAG_clean_sbu_0, # of connection points: 4
#     Node 5, Type 0, BuildingBlock: GALJAG_clean_sbu_0, # of connection points: 4
#     Node 6, Type 0, BuildingBlock: GALJAG_clean_sbu_0, # of connection points: 4
#     Node 7, Type 0, BuildingBlock: GALJAG_clean_sbu_0, # of connection points: 4
#     Node 8, Type 0, BuildingBlock: GALJAG_clean_sbu_0, # of connection points: 4
#     Node 9, Type 0, BuildingBlock: GALJAG_clean_sbu_0, # of connection points: 4
#     Node 10, Type 0, BuildingBlock: GALJAG_clean_sbu_0, # of connection points: 4
#     Node 11, Type 0, BuildingBlock: GALJAG_clean_sbu_0, # of connection points: 4
#     Node 12, Type 0, BuildingBlock: GALJAG_clean_sbu_0, # of connection points: 4
#     Node 13, Type 0, BuildingBlock: GALJAG_clean_sbu_0, # of connection points: 4
#     Node 14, Type 0, BuildingBlock: GALJAG_clean_sbu_0, # of connection points: 4
#     Node 15, Type 0, BuildingBlock: GALJAG_clean_sbu_0, # of connection points: 4
#     Node 16, Type 0, BuildingBlock: GALJAG_clean_sbu_0, # of connection points: 4
#     Node 17, Type 0, BuildingBlock: GALJAG_clean_sbu_0, # of connection points: 4
#     Node 18, Type 1, BuildingBlock: MUDLON_clean_linker_0, # of connection points: 4
#     Node 19, Type 1, BuildingBlock: MUDLON_clean_linker_0, # of connection points: 4
#     Node 20, Type 1, BuildingBlock: MUDLON_clean_linker_0, # of connection points: 4
#     Node 21, Type 1, BuildingBlock: MUDLON_clean_linker_0, # of connection points: 4
#     Node 22, Type 1, BuildingBlock: MUDLON_clean_linker_0, # of connection points: 4
#     Node 23, Type 1, BuildingBlock: MUDLON_clean_linker_0, # of connection points: 4
#     Node 24, Type 1, BuildingBlock: MUDLON_clean_linker_0, # of connection points: 4
#     Node 25, Type 1, BuildingBlock: MUDLON_clean_linker_0, # of connection points: 4
#     Node 26, Type 1, BuildingBlock: MUDLON_clean_linker_0, # of connection points: 4
#     Node 27, Type 1, BuildingBlock: MUDLON_clean_linker_0, # of connection points: 4
#     Node 28, Type 1, BuildingBlock: MUDLON_clean_linker_0, # of connection points: 4
#     Node 29, Type 1, BuildingBlock: MUDLON_clean_linker_0, # of connection points: 4
#     Node 30, Type 1, BuildingBlock: MUDLON_clean_linker_0, # of connection points: 4
#     Node 31, Type 1, BuildingBlock: MUDLON_clean_linker_0, # of connection points: 4
#     Node 32, Type 1, BuildingBlock: MUDLON_clean_linker_0, # of connection points: 4
#     Node 33, Type 1, BuildingBlock: MUDLON_clean_linker_0, # of connection points: 4
#     Node 34, Type 1, BuildingBlock: MUDLON_clean_linker_0, # of connection points: 4
#     Node 35, Type 1, BuildingBlock: MUDLON_clean_linker_0, # of connection points: 4
#     Edge 36, Type (0, 1), BuildingBlock: XIVTED_clean_linker_0, # of connection points: 2
#     Edge 37, Type (0, 1), BuildingBlock: XIVTED_clean_linker_0, # of connection points: 2
#     Edge 38, Type (0, 1), BuildingBlock: XIVTED_clean_linker_0, # of connection points: 2
#     Edge 39, Type (0, 1), BuildingBlock: XIVTED_clean_linker_0, # of connection points: 2
#     Edge 40, Type (0, 1), BuildingBlock: XIVTED_clean_linker_0, # of connection points: 2
#     Edge 41, Type (0, 1), BuildingBlock: XIVTED_clean_linker_0, # of connection points: 2
#     Edge 42, Type (0, 1), BuildingBlock: XIVTED_clean_linker_0, # of connection points: 2
#     Edge 43, Type (0, 1), BuildingBlock: XIVTED_clean_linker_0, # of connection points: 2
#     Edge 44, Type (0, 1), BuildingBlock: XIVTED_clean_linker_0, # of connection points: 2
#     Edge 45, Type (0, 1), BuildingBlock: XIVTED_clean_linker_0, # of connection points: 2
#     Edge 46, Type (0, 1), BuildingBlock: XIVTED_clean_linker_0, # of connection points: 2
#     Edge 47, Type (0, 1), BuildingBlock: XIVTED_clean_linker_0, # of connection points: 2
#     Edge 48, Type (0, 1), BuildingBlock: XIVTED_clean_linker_0, # of connection points: 2
#     Edge 49, Type (0, 1), BuildingBlock: XIVTED_clean_linker_0, # of connection points: 2
#     Edge 50, Type (0, 1), BuildingBlock: XIVTED_clean_linker_0, # of connection points: 2
#     Edge 51, Type (0, 1), BuildingBlock: XIVTED_clean_linker_0, # of connection points: 2
#     Edge 52, Type (0, 1), BuildingBlock: XIVTED_clean_linker_0, # of connection points: 2
#     Edge 53, Type (0, 1), BuildingBlock: XIVTED_clean_linker_0, # of connection points: 2
#     Edge 54, Type (0, 1), BuildingBlock: XIVTED_clean_linker_0, # of connection points: 2
#     Edge 55, Type (0, 1), BuildingBlock: XIVTED_clean_linker_0, # of connection points: 2
#     Edge 56, Type (0, 1), BuildingBlock: XIVTED_clean_linker_0, # of connection points: 2
#     Edge 57, Type (0, 1), BuildingBlock: XIVTED_clean_linker_0, # of connection points: 2
#     Edge 58, Type (0, 1), BuildingBlock: XIVTED_clean_linker_0, # of connection points: 2
#     Edge 59, Type (0, 1), BuildingBlock: XIVTED_clean_linker_0, # of connection points: 2
#     Edge 60, Type (0, 1), BuildingBlock: XIVTED_clean_linker_0, # of connection points: 2
#     Edge 61, Type (0, 1), BuildingBlock: XIVTED_clean_linker_0, # of connection points: 2
#     Edge 62, Type (0, 1), BuildingBlock: XIVTED_clean_linker_0, # of connection points: 2
#     Edge 63, Type (0, 1), BuildingBlock: XIVTED_clean_linker_0, # of connection points: 2
#     Edge 64, Type (0, 1), BuildingBlock: XIVTED_clean_linker_0, # of connection points: 2
#     Edge 65, Type (0, 1), BuildingBlock: XIVTED_clean_linker_0, # of connection points: 2
#     Edge 66, Type (0, 1), BuildingBlock: XIVTED_clean_linker_0, # of connection points: 2
#     Edge 67, Type (0, 1), BuildingBlock: XIVTED_clean_linker_0, # of connection points: 2
#     Edge 68, Type (0, 1), BuildingBlock: XIVTED_clean_linker_0, # of connection points: 2
#     Edge 69, Type (0, 1), BuildingBlock: XIVTED_clean_linker_0, # of connection points: 2
#     Edge 70, Type (0, 1), BuildingBlock: XIVTED_clean_linker_0, # of connection points: 2
#     Edge 71, Type (0, 1), BuildingBlock: XIVTED_clean_linker_0, # of connection points: 2
#     Edge 72, Type (0, 1), BuildingBlock: XIVTED_clean_linker_0, # of connection points: 2
#     Edge 73, Type (0, 1), BuildingBlock: XIVTED_clean_linker_0, # of connection points: 2
#     Edge 74, Type (0, 1), BuildingBlock: XIVTED_clean_linker_0, # of connection points: 2
#     Edge 75, Type (0, 1), BuildingBlock: XIVTED_clean_linker_0, # of connection points: 2
#     Edge 76, Type (0, 1), BuildingBlock: XIVTED_clean_linker_0, # of connection points: 2
#     Edge 77, Type (0, 1), BuildingBlock: XIVTED_clean_linker_0, # of connection points: 2
#     Edge 78, Type (0, 1), BuildingBlock: XIVTED_clean_linker_0, # of connection points: 2
#     Edge 79, Type (0, 1), BuildingBlock: XIVTED_clean_linker_0, # of connection points: 2
#     Edge 80, Type (0, 1), BuildingBlock: XIVTED_clean_linker_0, # of connection points: 2
#     Edge 81, Type (0, 1), BuildingBlock: XIVTED_clean_linker_0, # of connection points: 2
#     Edge 82, Type (0, 1), BuildingBlock: XIVTED_clean_linker_0, # of connection points: 2
#     Edge 83, Type (0, 1), BuildingBlock: XIVTED_clean_linker_0, # of connection points: 2
#     Edge 84, Type (0, 1), BuildingBlock: XIVTED_clean_linker_0, # of connection points: 2
#     Edge 85, Type (0, 1), BuildingBlock: XIVTED_clean_linker_0, # of connection points: 2
#     Edge 86, Type (0, 1), BuildingBlock: XIVTED_clean_linker_0, # of connection points: 2
#     Edge 87, Type (0, 1), BuildingBlock: XIVTED_clean_linker_0, # of connection points: 2
#     Edge 88, Type (0, 1), BuildingBlock: XIVTED_clean_linker_0, # of connection points: 2
#     Edge 89, Type (0, 1), BuildingBlock: XIVTED_clean_linker_0, # of connection points: 2
#     Edge 90, Type (0, 1), BuildingBlock: XIVTED_clean_linker_0, # of connection points: 2
#     Edge 91, Type (0, 1), BuildingBlock: XIVTED_clean_linker_0, # of connection points: 2
#     Edge 92, Type (0, 1), BuildingBlock: XIVTED_clean_linker_0, # of connection points: 2
#     Edge 93, Type (0, 1), BuildingBlock: XIVTED_clean_linker_0, # of connection points: 2
#     Edge 94, Type (0, 1), BuildingBlock: XIVTED_clean_linker_0, # of connection points: 2
#     Edge 95, Type (0, 1), BuildingBlock: XIVTED_clean_linker_0, # of connection points: 2
#     Edge 96, Type (0, 1), BuildingBlock: XIVTED_clean_linker_0, # of connection points: 2
#     Edge 97, Type (0, 1), BuildingBlock: XIVTED_clean_linker_0, # of connection points: 2
#     Edge 98, Type (0, 1), BuildingBlock: XIVTED_clean_linker_0, # of connection points: 2
#     Edge 99, Type (0, 1), BuildingBlock: XIVTED_clean_linker_0, # of connection points: 2
#     Edge 100, Type (0, 1), BuildingBlock: XIVTED_clean_linker_0, # of connection points: 2
#     Edge 101, Type (0, 1), BuildingBlock: XIVTED_clean_linker_0, # of connection points: 2
#     Edge 102, Type (0, 1), BuildingBlock: XIVTED_clean_linker_0, # of connection points: 2
#     Edge 103, Type (0, 1), BuildingBlock: XIVTED_clean_linker_0, # of connection points: 2
#     Edge 104, Type (0, 1), BuildingBlock: XIVTED_clean_linker_0, # of connection points: 2
#     Edge 105, Type (0, 1), BuildingBlock: XIVTED_clean_linker_0, # of connection points: 2
#     Edge 106, Type (0, 1), BuildingBlock: XIVTED_clean_linker_0, # of connection points: 2
#     Edge 107, Type (0, 1), BuildingBlock: XIVTED_clean_linker_0, # of connection points: 2
# Relax obj value: 0.051
# Max RMSD: 0.091
# Mean RMSD: 0.081
data_MOF--net-ptr--node1-GALJAG_clean_sbu_0--node2-MUDLON_clean_linker_0--edge1-XIVTED_clean_linker_0
_symmetry_space_group_name_H-M    P1
_symmetry_Int_Tables_number       1
_symmetry_cell_setting            triclinic
loop_
_symmetry_equiv_pos_as_xyz
'x, y, z'
_cell_length_a     104.3719
_cell_length_b     104.49472
_cell_length_c     66.706002
_cell_angle_alpha  89.994251
_cell_angle_beta   90.041493
_cell_angle_gamma 120.12657
loop_
_atom_site_label
_atom_site_type_symbol
_atom_site_fract_x
_atom_site_fract_y
_atom_site_fract_z
_atom_type_partial_charge
In0 In 0.01193 0.38171 0.01379 0.0
O1 O 0.00552 0.38031 0.04695 0.0
O2 O 0.01361 0.40088 0.03193 0.0
C3 C 0.98852 0.35591 0.0013 0.0
C4 C 0.03566 0.37897 0.02334 0.0
C5 C 0.01413 0.39832 0.98155 0.0
O6 O 0.98742 0.3633 0.01549 0.0
O7 O 0.00127 0.3615 0.99375 0.0
O8 O 0.02226 0.39265 0.98372 0.0
O9 O 0.00517 0.39579 0.99569 0.0
C10 C 0.00892 0.39372 0.04804 0.0
O11 O 0.03678 0.3914 0.02022 0.0
O12 O 0.02275 0.36811 0.02148 0.0
In13 In 0.64283 0.64391 0.02146 0.0
O14 O 0.64194 0.62895 0.04708 0.0
O15 O 0.62309 0.63134 0.04212 0.0
C16 C 0.67069 0.654 0.00806 0.0
C17 C 0.64464 0.66939 0.03382 0.0
C18 C 0.62709 0.6256 0.99121 0.0
O19 O 0.66633 0.64748 0.02473 0.0
O20 O 0.66118 0.65572 0.99864 0.0
O21 O 0.62493 0.63589 0.99696 0.0
O22 O 0.63686 0.6245 0.00091 0.0
C23 C 0.62901 0.62558 0.05248 0.0
O24 O 0.63948 0.66385 0.01683 0.0
O25 O 0.64894 0.66219 0.04424 0.0
In26 In 0.3758 0.01195 0.01579 0.0
O27 O 0.38099 0.03588 0.01286 0.0
O28 O 0.36166 0.01914 0.99839 0.0
C29 C 0.3941 0.01602 0.04704 0.0
C30 C 0.38965 0.00913 0.9833 0.0
C31 C 0.3494 0.98995 0.02922 0.0
O32 O 0.38757 0.02333 0.04501 0.0
O33 O 0.39151 0.00677 0.03329 0.0
O34 O 0.35564 0.98857 0.01386 0.0
O35 O 0.35643 0.00239 0.0377 0.0
C36 C 0.36984 0.03275 0.0021 0.0
O37 O 0.37937 0.9981 0.99224 0.0
O38 O 0.39295 0.02149 0.99079 0.0
In39 In 0.00537 0.64386 0.01525 0.0
O40 O 0.01455 0.6393 0.98666 0.0
O41 O 0.99328 0.6228 0.99704 0.0
C42 C 0.0295 0.66955 0.02619 0.0
C43 C 0.9857 0.65144 0.00172 0.0
C44 C 0.00332 0.62779 0.04808 0.0
O45 O 0.03032 0.66057 0.0143 0.0
O46 O 0.01661 0.66559 0.03228 0.0
O47 O 0.99682 0.63522 0.04696 0.0
O48 O 0.01054 0.62833 0.03268 0.0
C49 C 0.00331 0.62663 0.98399 0.0
O50 O 0.98222 0.64143 0.01472 0.0
O51 O 0.99896 0.65755 0.99584 0.0
In52 In 0.37812 0.37787 0.01916 0.0
O53 O 0.37679 0.38474 0.98692 0.0
O54 O 0.39805 0.39336 0.00014 0.0
C55 C 0.35159 0.37456 0.0295 0.0
C56 C 0.377 0.3522 0.00942 0.0
C57 C 0.39346 0.39266 0.0522 0.0
O58 O 0.36098 0.38534 0.0192 0.0
O59 O 0.3555 0.36536 0.03441 0.0
O60 O 0.38818 0.37889 0.05021 0.0
O61 O 0.391 0.3988 0.03764 0.0
C62 C 0.39063 0.39283 0.98493 0.0
O63 O 0.38853 0.36321 0.01631 0.0
O64 O 0.366 0.35404 0.0078 0.0
In65 In 0.63864 0.00665 0.01272 0.0
O66 O 0.63399 0.01714 0.04004 0.0
O67 O 0.61843 0.99484 0.0327 0.0
C68 C 0.66388 0.02921 0.99776 0.0
C69 C 0.64833 0.98823 0.02458 0.0
C70 C 0.62057 0.00355 0.98194 0.0
O71 O 0.65866 0.03018 0.01443 0.0
O72 O 0.65642 0.01696 0.98891 0.0
O73 O 0.62351 0.99359 0.9867 0.0
O74 O 0.62664 0.01498 0.99281 0.0
C75 C 0.62193 0.00561 0.04431 0.0
O76 O 0.63817 0.98448 0.01173 0.0
O77 O 0.65353 0.00118 0.0313 0.0
In78 In 0.67648 0.71311 0.34756 0.0
O79 O 0.66684 0.71212 0.37859 0.0
O80 O 0.67719 0.73281 0.36345 0.0
C81 C 0.65608 0.68463 0.33901 0.0
C82 C 0.70113 0.71299 0.35987 0.0
C83 C 0.67922 0.72932 0.31452 0.0
O84 O 0.65251 0.69382 0.34521 0.0
O85 O 0.66982 0.68975 0.33739 0.0
O86 O 0.69026 0.73117 0.3246 0.0
O87 O 0.6669 0.71937 0.32112 0.0
C88 C 0.67078 0.72569 0.37911 0.0
O89 O 0.69716 0.71118 0.34171 0.0
O90 O 0.69283 0.71502 0.37153 0.0
In91 In 0.30609 0.97666 0.34786 0.0
O92 O 0.30296 0.95951 0.37141 0.0
O93 O 0.28769 0.96741 0.37116 0.0
C94 C 0.33238 0.98175 0.3329 0.0
C95 C 0.31188 0.00338 0.36161 0.0
C96 C 0.28729 0.96116 0.31783 0.0
O97 O 0.32817 0.97677 0.35035 0.0
O98 O 0.32346 0.98419 0.32327 0.0
O99 O 0.29281 0.97496 0.31971 0.0
O100 O 0.291 0.95517 0.33128 0.0
C101 C 0.29174 0.95909 0.37929 0.0
O102 O 0.30348 0.9972 0.34681 0.0
O103 O 0.31738 0.99619 0.36924 0.0
In104 In 0.04178 0.34374 0.34995 0.0
O105 O 0.04713 0.36775 0.35149 0.0
O106 O 0.02856 0.35268 0.33404 0.0
C107 C 0.06032 0.3451 0.37936 0.0
C108 C 0.05513 0.34249 0.31595 0.0
C109 C 0.01526 0.32199 0.36336 0.0
O110 O 0.05484 0.35345 0.37903 0.0
O111 O 0.05669 0.33634 0.36473 0.0
O112 O 0.02061 0.3211 0.34681 0.0
O113 O 0.02316 0.33383 0.37286 0.0
C114 C 0.03656 0.36579 0.34021 0.0
O115 O 0.04527 0.33101 0.32461 0.0
O116 O 0.05825 0.3545 0.32444 0.0
In117 In 0.67115 0.97305 0.34968 0.0
O118 O 0.68313 0.97543 0.31995 0.0
O119 O 0.66584 0.95406 0.32824 0.0
C120 C 0.69156 0.99928 0.36541 0.0
C121 C 0.64701 0.97507 0.33985 0.0
C122 C 0.67216 0.95604 0.37936 0.0
O123 O 0.6931 0.99503 0.34831 0.0
O124 O 0.6797 0.99042 0.37432 0.0
O125 O 0.66198 0.95921 0.37819 0.0
O126 O 0.68163 0.96131 0.36549 0.0
C127 C 0.67556 0.96188 0.31551 0.0
O128 O 0.64606 0.96339 0.34673 0.0
O129 O 0.66006 0.98573 0.33821 0.0
In130 In 0.04138 0.71046 0.35181 0.0
O131 O 0.04378 0.72286 0.32228 0.0
O132 O 0.06311 0.72463 0.33544 0.0
C133 C 0.01416 0.70394 0.36434 0.0
C134 C 0.03665 0.68406 0.33829 0.0
C135 C 0.05752 0.72449 0.38458 0.0
O136 O 0.02206 0.71508 0.35347 0.0
O137 O 0.02 0.69628 0.36873 0.0
O138 O 0.05692 0.713 0.37746 0.0
O139 O 0.04991 0.72887 0.37522 0.0
C140 C 0.05759 0.72807 0.32109 0.0
O141 O 0.04415 0.69012 0.35386 0.0
O142 O 0.03157 0.6913 0.32962 0.0
In143 In 0.30855 0.34618 0.35096 0.0
O144 O 0.30618 0.32331 0.34613 0.0
O145 O 0.3141 0.33396 0.3743 0.0
C146 C 0.29459 0.34911 0.31872 0.0
C147 C 0.2912 0.34637 0.38065 0.0
C148 C 0.33697 0.36612 0.34201 0.0
O149 O 0.29463 0.33725 0.32234 0.0
O150 O 0.30151 0.3593 0.33132 0.0
O151 O 0.32968 0.36873 0.35485 0.0
O152 O 0.32999 0.35349 0.33407 0.0
C153 C 0.31065 0.32276 0.36356 0.0
O154 O 0.30486 0.35582 0.37969 0.0
O155 O 0.28636 0.33707 0.36653 0.0
In156 In 0.34522 0.04755 0.67494 0.0
O157 O 0.36806 0.04923 0.67577 0.0
O158 O 0.35088 0.03286 0.69369 0.0
C159 C 0.34922 0.06584 0.64404 0.0
C160 C 0.34389 0.06302 0.7066 0.0
C161 C 0.32281 0.02212 0.65984 0.0
O162 O 0.35881 0.06242 0.64899 0.0
O163 O 0.3377 0.06013 0.65477 0.0
O164 O 0.32202 0.02714 0.67672 0.0
O165 O 0.33487 0.02987 0.65067 0.0
C166 C 0.3642 0.03884 0.68822 0.0
O167 O 0.33298 0.05089 0.70104 0.0
O168 O 0.35538 0.06738 0.69612 0.0
In169 In 0.9746 0.30938 0.68296 0.0
O170 O 0.97227 0.32981 0.67811 0.0
O171 O 0.9864 0.33037 0.70154 0.0
C172 C 0.95908 0.29221 0.65161 0.0
C173 C 0.9572 0.29495 0.71464 0.0
C174 C 0.00152 0.31357 0.67324 0.0
O175 O 0.96184 0.30539 0.65346 0.0
O176 O 0.96409 0.28779 0.66553 0.0
O177 O 0.99357 0.30453 0.68666 0.0
O178 O 0.99592 0.32047 0.66494 0.0
C179 C 0.98098 0.33708 0.69225 0.0
O180 O 0.97028 0.29733 0.71308 0.0
O181 O 0.95299 0.29979 0.70028 0.0
In182 In 0.70705 0.67408 0.68207 0.0
O183 O 0.71042 0.69742 0.68379 0.0
O184 O 0.69458 0.68238 0.66298 0.0
C185 C 0.72411 0.68055 0.7153 0.0
C186 C 0.72075 0.67209 0.64877 0.0
C187 C 0.68231 0.64907 0.69379 0.0
O188 O 0.71301 0.68228 0.7144 0.0
O189 O 0.72671 0.67573 0.6994 0.0
O190 O 0.69463 0.64975 0.69155 0.0
O191 O 0.68241 0.66092 0.68986 0.0
C192 C 0.70099 0.69523 0.67038 0.0
O193 O 0.70875 0.66141 0.65513 0.0
O194 O 0.72582 0.68369 0.6592 0.0
In195 In 0.34514 0.3089 0.67841 0.0
O196 O 0.35883 0.30674 0.65309 0.0
O197 O 0.33603 0.29061 0.65487 0.0
C198 C 0.36985 0.33453 0.68816 0.0
C199 C 0.32277 0.31372 0.66874 0.0
C200 C 0.34038 0.29334 0.71266 0.0
O201 O 0.35884 0.33413 0.67974 0.0
O202 O 0.36859 0.32203 0.69115 0.0
O203 O 0.34032 0.30539 0.71197 0.0
O204 O 0.34229 0.28888 0.69597 0.0
C205 C 0.34811 0.29523 0.64571 0.0
O206 O 0.32135 0.30439 0.68187 0.0
O207 O 0.3354 0.32058 0.66074 0.0
In208 In 0.70816 0.04527 0.68336 0.0
O209 O 0.70805 0.05753 0.65513 0.0
O210 O 0.72884 0.06113 0.66578 0.0
C211 C 0.68007 0.0368 0.69503 0.0
C212 C 0.70782 0.02141 0.66707 0.0
C213 C 0.72482 0.05927 0.71593 0.0
O214 O 0.68867 0.04939 0.68778 0.0
O215 O 0.68558 0.02852 0.69624 0.0
O216 O 0.72172 0.04637 0.71101 0.0
O217 O 0.7195 0.06504 0.70451 0.0
C218 C 0.72192 0.06399 0.65264 0.0
O219 O 0.7116 0.02526 0.68504 0.0
O220 O 0.70409 0.02945 0.65753 0.0
In221 In 0.97471 0.67883 0.68081 0.0
O222 O 0.97206 0.65583 0.67914 0.0
O223 O 0.98504 0.66996 0.70294 0.0
C224 C 0.95735 0.67614 0.64905 0.0
C225 C 0.9601 0.68205 0.71215 0.0
C226 C 0.00225 0.69847 0.66784 0.0
O227 O 0.95745 0.66523 0.65693 0.0
O228 O 0.96595 0.6884 0.65719 0.0
O229 O 0.99555 0.70181 0.68071 0.0
O230 O 0.99505 0.68532 0.66156 0.0
C231 C 0.97979 0.65749 0.69453 0.0
O232 O 0.97212 0.69259 0.70561 0.0
O233 O 0.95545 0.67004 0.70281 0.0
H234 H 0.25781 0.39282 0.16155 0.0
N235 N 0.23577 0.37342 0.13868 0.0
H236 H 0.26648 0.38822 0.19338 0.0
H237 H 0.22262 0.34731 0.15989 0.0
H238 H 0.2309 0.34273 0.19177 0.0
H239 H 0.23905 0.34949 0.13059 0.0
H240 H 0.25627 0.34888 0.10669 0.0
H241 H 0.24978 0.39269 0.10944 0.0
H242 H 0.26621 0.39176 0.08418 0.0
H243 H 0.22485 0.39138 0.14144 0.0
H244 H 0.21253 0.34633 0.12805 0.0
H245 H 0.19909 0.38516 0.13799 0.0
H246 H 0.18652 0.3396 0.12618 0.0
H247 H 0.12928 0.36781 0.15326 0.0
H248 H 0.11734 0.36719 0.18471 0.0
H249 H 0.1 0.31997 0.1886 0.0
H250 H 0.11297 0.32099 0.15757 0.0
H251 H 0.10406 0.32748 0.1133 0.0
H252 H 0.09188 0.3354 0.08921 0.0
H253 H 0.12828 0.3804 0.09398 0.0
H254 H 0.14013 0.37233 0.11865 0.0
H255 H 0.15142 0.36683 0.15561 0.0
H256 H 0.17709 0.37347 0.1552 0.0
H257 H 0.16762 0.34068 0.10924 0.0
N258 N 0.12854 0.34431 0.13396 0.0
H259 H 0.1414 0.33329 0.11084 0.0
C260 C 0.23955 0.37053 0.15833 0.0
C261 C 0.2518 0.38192 0.16825 0.0
C262 C 0.2567 0.37926 0.18644 0.0
C263 C 0.2494 0.36508 0.19513 0.0
C264 C 0.23689 0.35373 0.18538 0.0
C265 C 0.23203 0.3564 0.16717 0.0
C266 C 0.24346 0.37138 0.12217 0.0
C267 C 0.24487 0.35873 0.12048 0.0
C268 C 0.25468 0.35834 0.10654 0.0
C269 C 0.26299 0.37042 0.09365 0.0
C270 C 0.26047 0.38246 0.09427 0.0
C271 C 0.25092 0.38297 0.10851 0.0
C272 C 0.22054 0.36931 0.1354 0.0
C273 C 0.21649 0.3801 0.13789 0.0
C274 C 0.20172 0.37645 0.13612 0.0
C275 C 0.19054 0.36178 0.13221 0.0
C276 C 0.19474 0.35103 0.12909 0.0
C277 C 0.20962 0.3548 0.13043 0.0
C278 C 0.12221 0.34443 0.15317 0.0
C279 C 0.12314 0.35736 0.16102 0.0
C280 C 0.11608 0.35693 0.17897 0.0
C281 C 0.10752 0.34349 0.18927 0.0
C282 C 0.10666 0.33058 0.18137 0.0
C283 C 0.114 0.33109 0.16357 0.0
C284 C 0.12296 0.34923 0.11771 0.0
C285 C 0.10951 0.33899 0.10883 0.0
C286 C 0.10261 0.34357 0.09498 0.0
C287 C 0.10908 0.35858 0.08959 0.0
C288 C 0.12289 0.3688 0.09796 0.0
C289 C 0.12976 0.36419 0.11194 0.0
C290 C 0.14421 0.34926 0.13344 0.0
C291 C 0.15464 0.3609 0.1455 0.0
C292 C 0.16957 0.36489 0.14505 0.0
C293 C 0.1746 0.35766 0.13217 0.0
C294 C 0.16421 0.34633 0.11968 0.0
C295 C 0.14921 0.34215 0.12043 0.0
H296 H 0.70633 0.79637 0.14564 0.0
N297 N 0.68658 0.80269 0.13069 0.0
H298 H 0.70571 0.78531 0.17826 0.0
H299 H 0.66664 0.79718 0.16098 0.0
H300 H 0.66614 0.78658 0.1936 0.0
H301 H 0.65703 0.78189 0.13079 0.0
H302 H 0.6452 0.75964 0.10999 0.0
H303 H 0.69788 0.79725 0.0984 0.0
H304 H 0.6861 0.77504 0.07741 0.0
H305 H 0.71018 0.82877 0.12361 0.0
H306 H 0.66301 0.80747 0.13238 0.0
H307 H 0.71168 0.8528 0.12202 0.0
H308 H 0.66445 0.83149 0.13251 0.0
H309 H 0.71414 0.92608 0.1515 0.0
H310 H 0.71145 0.93553 0.1838 0.0
H311 H 0.66709 0.89803 0.18919 0.0
H312 H 0.67024 0.88841 0.15724 0.0
H313 H 0.66598 0.89674 0.12555 0.0
H314 H 0.65885 0.90969 0.10162 0.0
H315 H 0.70365 0.93307 0.0789 0.0
H316 H 0.71074 0.92013 0.10321 0.0
H317 H 0.71345 0.89433 0.14417 0.0
H318 H 0.71107 0.86995 0.14308 0.0
H319 H 0.66805 0.85236 0.11509 0.0
N320 N 0.69415 0.90209 0.1323 0.0
H321 H 0.67016 0.87657 0.11758 0.0
C322 C 0.68663 0.79768 0.15081 0.0
C323 C 0.69766 0.79442 0.1562 0.0
C324 C 0.6973 0.78815 0.17486 0.0
C325 C 0.68583 0.78499 0.18853 0.0
C326 C 0.675 0.78866 0.18331 0.0
C327 C 0.67536 0.79489 0.16464 0.0
C328 C 0.67843 0.79118 0.11623 0.0
C329 C 0.66336 0.78069 0.11888 0.0
C330 C 0.65661 0.76792 0.10703 0.0
C331 C 0.66476 0.76552 0.09221 0.0
C332 C 0.67949 0.7766 0.08859 0.0
C333 C 0.68625 0.78928 0.10057 0.0
C334 C 0.68661 0.8164 0.1285 0.0
C335 C 0.70016 0.82934 0.12532 0.0
C336 C 0.70098 0.84308 0.12467 0.0
C337 C 0.68824 0.84424 0.12761 0.0
C338 C 0.67451 0.83113 0.13012 0.0
C339 C 0.67368 0.81732 0.13033 0.0
C340 C 0.69241 0.90665 0.15199 0.0
C341 C 0.70393 0.91987 0.15983 0.0
C342 C 0.70228 0.92529 0.17818 0.0
C343 C 0.68897 0.91765 0.18904 0.0
C344 C 0.67753 0.90416 0.18134 0.0
C345 C 0.67925 0.89868 0.163 0.0
C346 C 0.68896 0.90751 0.11617 0.0
C347 C 0.67421 0.9044 0.11516 0.0
C348 C 0.67012 0.91179 0.10138 0.0
C349 C 0.68071 0.9225 0.08846 0.0
C350 C 0.69527 0.92502 0.08883 0.0
C351 C 0.69933 0.91757 0.10256 0.0
C352 C 0.69216 0.88743 0.13078 0.0
C353 C 0.70352 0.88518 0.13782 0.0
C354 C 0.70216 0.87122 0.13697 0.0
C355 C 0.68944 0.8591 0.12868 0.0
C356 C 0.67797 0.86134 0.12172 0.0
C357 C 0.67923 0.87532 0.12295 0.0
H358 H 0.14793 0.76713 0.17757 0.0
N359 N 0.14389 0.77821 0.14398 0.0
H360 H 0.13394 0.76184 0.20885 0.0
H361 H 0.12193 0.78457 0.15197 0.0
H362 H 0.10805 0.77959 0.18323 0.0
H363 H 0.12954 0.78658 0.11734 0.0
H364 H 0.11235 0.771 0.091 0.0
H365 H 0.13832 0.75166 0.13254 0.0
H366 H 0.12124 0.73601 0.10632 0.0
H367 H 0.17067 0.78292 0.13543 0.0
H368 H 0.14615 0.80551 0.1444 0.0
H369 H 0.19358 0.80668 0.13211 0.0
H370 H 0.16906 0.82936 0.1421 0.0
H371 H 0.26306 0.88861 0.16293 0.0
H372 H 0.26825 0.90396 0.193 0.0
H373 H 0.22344 0.89583 0.19223 0.0
H374 H 0.21844 0.88098 0.16164 0.0
H375 H 0.23305 0.89669 0.12695 0.0
H376 H 0.24791 0.91495 0.10133 0.0
H377 H 0.27302 0.89279 0.09239 0.0
H378 H 0.25798 0.87455 0.11782 0.0
H379 H 0.2327 0.84933 0.15558 0.0
H380 H 0.20946 0.82581 0.15423 0.0
H381 H 0.18922 0.8469 0.12167 0.0
N382 N 0.23817 0.87532 0.14187 0.0
H383 H 0.21247 0.87055 0.12384 0.0
C384 C 0.136 0.77619 0.16248 0.0
C385 C 0.13932 0.76997 0.17883 0.0
C386 C 0.13135 0.76704 0.19669 0.0
C387 C 0.11986 0.7703 0.19856 0.0
C388 C 0.11671 0.77679 0.18222 0.0
C389 C 0.12471 0.77973 0.16434 0.0
C390 C 0.13509 0.77016 0.12693 0.0
C391 C 0.12788 0.77562 0.11485 0.0
C392 C 0.11805 0.7667 0.09985 0.0
C393 C 0.11541 0.75226 0.0966 0.0
C394 C 0.12316 0.74713 0.10822 0.0
C395 C 0.13286 0.756 0.12326 0.0
C396 C 0.1568 0.79243 0.14045 0.0
C397 C 0.17027 0.79305 0.13663 0.0
C398 C 0.18335 0.80664 0.13492 0.0
C399 C 0.18325 0.81999 0.13722 0.0
C400 C 0.16957 0.81934 0.14018 0.0
C401 C 0.15644 0.80568 0.14167 0.0
C402 C 0.24037 0.88349 0.16019 0.0
C403 C 0.25435 0.8901 0.1693 0.0
C404 C 0.25731 0.89888 0.18634 0.0
C405 C 0.24622 0.901 0.19481 0.0
C406 C 0.23211 0.89425 0.18594 0.0
C407 C 0.22925 0.88573 0.16854 0.0
C408 C 0.24451 0.8843 0.12428 0.0
C409 C 0.24148 0.89555 0.11904 0.0
C410 C 0.25007 0.90605 0.10453 0.0
C411 C 0.26177 0.90544 0.09497 0.0
C412 C 0.26403 0.89354 0.09929 0.0
C413 C 0.25548 0.8831 0.11383 0.0
C414 C 0.22438 0.86161 0.13969 0.0
C415 C 0.22326 0.84882 0.14804 0.0
C416 C 0.20997 0.83537 0.14711 0.0
C417 C 0.19745 0.83438 0.13765 0.0
C418 C 0.1986 0.84727 0.12918 0.0
C419 C 0.21194 0.86079 0.13024 0.0
H420 H 0.39173 0.26534 0.86563 0.0
N421 N 0.37645 0.24174 0.88869 0.0
H422 H 0.38302 0.27265 0.83601 0.0
H423 H 0.34898 0.22581 0.87105 0.0
H424 H 0.34035 0.23292 0.8413 0.0
H425 H 0.35268 0.24385 0.90178 0.0
H426 H 0.35304 0.26023 0.92788 0.0
H427 H 0.398 0.2568 0.91506 0.0
H428 H 0.39826 0.27263 0.94225 0.0
H429 H 0.3912 0.22933 0.87395 0.0
H430 H 0.35268 0.21968 0.90894 0.0
H431 H 0.38451 0.20333 0.87562 0.0
H432 H 0.3462 0.19383 0.91141 0.0
H433 H 0.37029 0.14259 0.86468 0.0
H434 H 0.36947 0.1314 0.8323 0.0
H435 H 0.32184 0.10433 0.83733 0.0
H436 H 0.32298 0.11504 0.87031 0.0
H437 H 0.32848 0.11756 0.91844 0.0
H438 H 0.33239 0.10208 0.94245 0.0
H439 H 0.37696 0.11957 0.92018 0.0
H440 H 0.37301 0.13495 0.89649 0.0
H441 H 0.37522 0.15799 0.89497 0.0
H442 H 0.38261 0.18409 0.89687 0.0
H443 H 0.3368 0.17251 0.89055 0.0
N444 N 0.34687 0.13468 0.89005 0.0
H445 H 0.3295 0.14635 0.88939 0.0
C446 C 0.37116 0.24499 0.87044 0.0
C447 C 0.38055 0.25816 0.86027 0.0
C448 C 0.37553 0.26236 0.84349 0.0
C449 C 0.361 0.25335 0.83641 0.0
C450 C 0.35164 0.24 0.84635 0.0
C451 C 0.3566 0.23591 0.86334 0.0
C452 C 0.37548 0.24934 0.90619 0.0
C453 C 0.36264 0.25 0.91062 0.0
C454 C 0.36283 0.25932 0.92577 0.0
C455 C 0.37576 0.26799 0.93711 0.0
C456 C 0.38823 0.26646 0.93352 0.0
C457 C 0.38808 0.2573 0.91814 0.0
C458 C 0.37257 0.2265 0.89137 0.0
C459 C 0.38144 0.22162 0.88228 0.0
C460 C 0.37762 0.20677 0.88337 0.0
C461 C 0.36481 0.19644 0.89369 0.0
C462 C 0.35604 0.20142 0.90313 0.0
C463 C 0.35982 0.21628 0.9019 0.0
C464 C 0.34667 0.12944 0.87003 0.0
C465 C 0.3597 0.13421 0.85886 0.0
C466 C 0.35917 0.12789 0.84018 0.0
C467 C 0.34559 0.11681 0.83218 0.0
C468 C 0.33254 0.11254 0.84315 0.0
C469 C 0.33312 0.11874 0.86191 0.0
C470 C 0.35039 0.12746 0.90573 0.0
C471 C 0.33918 0.11825 0.91908 0.0
C472 C 0.3414 0.10935 0.93264 0.0
C473 C 0.35496 0.10953 0.93312 0.0
C474 C 0.36645 0.11929 0.92035 0.0
C475 C 0.36417 0.12812 0.90672 0.0
C476 C 0.35172 0.15016 0.89219 0.0
C477 C 0.36674 0.161 0.89425 0.0
C478 C 0.37097 0.17599 0.89517 0.0
C479 C 0.36031 0.18046 0.89387 0.0
C480 C 0.3453 0.16952 0.89198 0.0
C481 C 0.34109 0.15457 0.89118 0.0
H482 H 0.78601 0.14244 0.86754 0.0
N483 N 0.79549 0.13144 0.89781 0.0
H484 H 0.77636 0.13089 0.83514 0.0
H485 H 0.79588 0.10818 0.88245 0.0
H486 H 0.78696 0.09689 0.84951 0.0
H487 H 0.79369 0.11689 0.9314 0.0
H488 H 0.77161 0.10234 0.95219 0.0
H489 H 0.76919 0.13144 0.8951 0.0
H490 H 0.74731 0.11703 0.91561 0.0
H491 H 0.79031 0.15461 0.90382 0.0
H492 H 0.82462 0.14363 0.89531 0.0
H493 H 0.80885 0.18074 0.90512 0.0
H494 H 0.8433 0.1699 0.89565 0.0
H495 H 0.87463 0.26004 0.8683 0.0
H496 H 0.88823 0.26755 0.83661 0.0
H497 H 0.89906 0.23291 0.84317 0.0
H498 H 0.88555 0.2256 0.87493 0.0
H499 H 0.89691 0.23888 0.90577 0.0
H500 H 0.91513 0.25578 0.92964 0.0
H501 H 0.88835 0.27599 0.94013 0.0
H502 H 0.86972 0.25841 0.91677 0.0
H503 H 0.84404 0.22622 0.8813 0.0
H504 H 0.82509 0.20011 0.88365 0.0
H505 H 0.85597 0.19139 0.91559 0.0
N506 N 0.87196 0.2391 0.89329 0.0
H507 H 0.87492 0.21723 0.91236 0.0
C508 C 0.79155 0.12606 0.87753 0.0
C509 C 0.78635 0.13256 0.86369 0.0
C510 C 0.78092 0.12597 0.84503 0.0
C511 C 0.78074 0.11284 0.83966 0.0
C512 C 0.7866 0.10678 0.85323 0.0
C513 C 0.79186 0.11329 0.87199 0.0
C514 C 0.78316 0.12516 0.91159 0.0
C515 C 0.78368 0.11723 0.92821 0.0
C516 C 0.77109 0.10896 0.94006 0.0
C517 C 0.75771 0.10843 0.93534 0.0
C518 C 0.75743 0.11707 0.91941 0.0
C519 C 0.77001 0.12538 0.90768 0.0
C520 C 0.80608 0.14704 0.89966 0.0
C521 C 0.80182 0.15775 0.90232 0.0
C522 C 0.81249 0.1728 0.90286 0.0
C523 C 0.82763 0.17751 0.90046 0.0
C524 C 0.83181 0.16674 0.89793 0.0
C525 C 0.82116 0.15171 0.89761 0.0
C526 C 0.87904 0.2423 0.87393 0.0
C527 C 0.8798 0.25399 0.86273 0.0
C528 C 0.88754 0.25821 0.84462 0.0
C529 C 0.89474 0.25083 0.83736 0.0
C530 C 0.89378 0.23893 0.84846 0.0
C531 C 0.88598 0.23468 0.86657 0.0
C532 C 0.8818 0.24729 0.90956 0.0
C533 C 0.89467 0.24659 0.91362 0.0
C534 C 0.90523 0.25645 0.92714 0.0
C535 C 0.90335 0.26743 0.93662 0.0
C536 C 0.89013 0.26761 0.93328 0.0
C537 C 0.87948 0.25761 0.9199 0.0
C538 C 0.86088 0.22382 0.8967 0.0
C539 C 0.84664 0.21866 0.88896 0.0
C540 C 0.8358 0.20373 0.89043 0.0
C541 C 0.83896 0.19357 0.89984 0.0
C542 C 0.85319 0.19882 0.90797 0.0
C543 C 0.86407 0.21374 0.9063 0.0
H544 H 0.79514 0.71721 0.88267 0.0
N545 N 0.80212 0.69826 0.89871 0.0
H546 H 0.78334 0.71534 0.85022 0.0
H547 H 0.7955 0.67694 0.8703 0.0
H548 H 0.78342 0.67475 0.83801 0.0
H549 H 0.77949 0.66946 0.90048 0.0
H550 H 0.7581 0.6598 0.92278 0.0
H551 H 0.79924 0.71144 0.9311 0.0
H552 H 0.77785 0.70174 0.95372 0.0
H553 H 0.82905 0.71842 0.88726 0.0
H554 H 0.8045 0.67443 0.91196 0.0
H555 H 0.85142 0.71667 0.88694 0.0
H556 H 0.82702 0.67296 0.91314 0.0
H557 H 0.91963 0.71421 0.87714 0.0
H558 H 0.92972 0.713 0.8446 0.0
H559 H 0.89171 0.66949 0.83492 0.0
H560 H 0.88226 0.67055 0.86782 0.0
H561 H 0.88846 0.66468 0.90149 0.0
H562 H 0.90154 0.65671 0.92432 0.0
H563 H 0.92739 0.70148 0.94648 0.0
H564 H 0.91454 0.70934 0.9232 0.0
H565 H 0.89259 0.71641 0.90325 0.0
H566 H 0.86978 0.71729 0.90645 0.0
H567 H 0.84434 0.67021 0.89477 0.0
N568 N 0.89542 0.69321 0.89489 0.0
H569 H 0.86729 0.66938 0.89349 0.0
C570 C 0.7962 0.69728 0.87886 0.0
C571 C 0.79274 0.70803 0.87284 0.0
C572 C 0.7859 0.70686 0.8544 0.0
C573 C 0.78234 0.69484 0.84157 0.0
C574 C 0.78614 0.68422 0.84743 0.0
C575 C 0.79299 0.68541 0.86592 0.0
C576 C 0.79093 0.69129 0.91401 0.0
C577 C 0.77939 0.67652 0.91227 0.0
C578 C 0.76714 0.671 0.925 0.0
C579 C 0.76624 0.68008 0.93982 0.0
C580 C 0.77828 0.69447 0.9425 0.0
C581 C 0.79048 0.70003 0.92962 0.0
C582 C 0.81511 0.69672 0.8998 0.0
C583 C 0.82857 0.70847 0.89295 0.0
C584 C 0.8414 0.70747 0.89299 0.0
C585 C 0.84121 0.69474 0.9003 0.0
C586 C 0.82765 0.6829 0.9072 0.0
C587 C 0.8147 0.6838 0.90675 0.0
C588 C 0.90017 0.69259 0.87485 0.0
C589 C 0.91346 0.7045 0.86783 0.0
C590 C 0.91914 0.70379 0.84917 0.0
C591 C 0.91156 0.69113 0.83702 0.0
C592 C 0.89801 0.67932 0.84395 0.0
C593 C 0.89244 0.67999 0.86273 0.0
C594 C 0.90071 0.68765 0.9106 0.0
C595 C 0.89674 0.67268 0.91155 0.0
C596 C 0.90419 0.66814 0.92467 0.0
C597 C 0.91568 0.67852 0.93699 0.0
C598 C 0.91882 0.69328 0.93691 0.0
C599 C 0.91142 0.69777 0.92378 0.0
C600 C 0.88165 0.69296 0.89764 0.0
C601 C 0.88205 0.70629 0.90159 0.0
C602 C 0.86896 0.70676 0.90317 0.0
C603 C 0.85509 0.69388 0.90037 0.0
C604 C 0.85473 0.68037 0.89706 0.0
C605 C 0.86789 0.67989 0.89597 0.0
H606 H 0.75809 0.64609 0.47731 0.0
N607 N 0.78509 0.66429 0.4634 0.0
H608 H 0.74781 0.64692 0.50987 0.0
H609 H 0.8001 0.68359 0.4939 0.0
H610 H 0.79013 0.68426 0.52683 0.0
H611 H 0.79447 0.69389 0.46336 0.0
H612 H 0.78537 0.70637 0.44152 0.0
H613 H 0.76807 0.65313 0.43119 0.0
H614 H 0.75859 0.66539 0.4095 0.0
H615 H 0.79102 0.64423 0.47796 0.0
H616 H 0.81163 0.6862 0.44708 0.0
H617 H 0.81451 0.64466 0.47821 0.0
H618 H 0.83482 0.68618 0.44596 0.0
H619 H 0.8855 0.64397 0.48427 0.0
H620 H 0.8971 0.64594 0.51685 0.0
H621 H 0.90053 0.68852 0.52612 0.0
H622 H 0.88956 0.68668 0.49332 0.0
H623 H 0.90369 0.69241 0.46126 0.0
H624 H 0.9248 0.70021 0.43871 0.0
H625 H 0.90387 0.6562 0.41337 0.0
H626 H 0.88309 0.64843 0.4365 0.0
H627 H 0.85398 0.64123 0.46139 0.0
H628 H 0.83081 0.64149 0.45875 0.0
H629 H 0.85519 0.68924 0.46396 0.0
N630 N 0.88099 0.66401 0.46631 0.0
H631 H 0.87833 0.68878 0.46477 0.0
C632 C 0.77981 0.66467 0.48325 0.0
C633 C 0.76513 0.65437 0.48816 0.0
C634 C 0.75933 0.65483 0.50682 0.0
C635 C 0.76815 0.66563 0.52106 0.0
C636 C 0.78296 0.67591 0.51616 0.0
C637 C 0.78873 0.67548 0.4974 0.0
C638 C 0.78188 0.67253 0.44888 0.0
C639 C 0.78687 0.68768 0.45138 0.0
C640 C 0.78159 0.69478 0.43894 0.0
C641 C 0.77112 0.68685 0.42388 0.0
C642 C 0.76677 0.67189 0.42077 0.0
C643 C 0.77212 0.66483 0.43318 0.0
C644 C 0.79935 0.66509 0.4626 0.0
C645 C 0.80057 0.65347 0.47103 0.0
C646 C 0.81404 0.65367 0.47093 0.0
C647 C 0.82667 0.66539 0.46189 0.0
C648 C 0.82545 0.67706 0.45332 0.0
C649 C 0.81201 0.677 0.45382 0.0
C650 C 0.88654 0.66505 0.48637 0.0
C651 C 0.88863 0.65363 0.49349 0.0
C652 C 0.8952 0.65477 0.51216 0.0
C653 C 0.89978 0.66741 0.52417 0.0
C654 C 0.89735 0.67873 0.51717 0.0
C655 C 0.89088 0.67761 0.49842 0.0
C656 C 0.89193 0.66975 0.45067 0.0
C657 C 0.90352 0.68454 0.45058 0.0
C658 C 0.91557 0.689 0.4376 0.0
C659 C 0.91615 0.67875 0.42448 0.0
C660 C 0.90394 0.66428 0.4236 0.0
C661 C 0.89199 0.65985 0.43663 0.0
C662 C 0.86778 0.66489 0.46372 0.0
C663 C 0.85425 0.65172 0.46175 0.0
C664 C 0.84102 0.65193 0.46049 0.0
C665 C 0.84097 0.66537 0.46161 0.0
C666 C 0.85469 0.67866 0.46297 0.0
C667 C 0.86798 0.67843 0.46376 0.0
H668 H 0.37755 0.13043 0.47474 0.0
N669 N 0.3597 0.13919 0.45955 0.0
H670 H 0.37634 0.11995 0.50788 0.0
H671 H 0.341 0.13675 0.49 0.0
H672 H 0.34006 0.12689 0.52352 0.0
H673 H 0.33078 0.1169 0.46215 0.0
H674 H 0.31929 0.09414 0.44235 0.0
H675 H 0.37031 0.134 0.42619 0.0
H676 H 0.35872 0.1113 0.406 0.0
H677 H 0.38036 0.16646 0.46898 0.0
H678 H 0.3359 0.14147 0.44567 0.0
H679 H 0.37891 0.18894 0.46771 0.0
H680 H 0.33474 0.16403 0.44277 0.0
H681 H 0.37493 0.25924 0.47328 0.0
H682 H 0.37494 0.26939 0.50636 0.0
H683 H 0.33699 0.22754 0.52318 0.0
H684 H 0.33673 0.21779 0.4901 0.0
H685 H 0.32612 0.22464 0.46101 0.0
H686 H 0.31379 0.23487 0.44092 0.0
H687 H 0.35361 0.2595 0.40577 0.0
H688 H 0.36584 0.24918 0.42598 0.0
H689 H 0.37854 0.22977 0.45038 0.0
H690 H 0.37935 0.20691 0.44781 0.0
H691 H 0.33227 0.18178 0.4599 0.0
N692 N 0.35547 0.23283 0.45879 0.0
H693 H 0.33148 0.20466 0.46048 0.0
C694 C 0.35949 0.13445 0.47994 0.0
C695 C 0.36947 0.12982 0.48545 0.0
C696 C 0.36878 0.12391 0.50445 0.0
C697 C 0.3581 0.12256 0.51847 0.0
C698 C 0.34829 0.12755 0.51305 0.0
C699 C 0.34891 0.13335 0.49394 0.0
C700 C 0.35154 0.12709 0.44579 0.0
C701 C 0.33688 0.1159 0.44974 0.0
C702 C 0.33031 0.1029 0.43842 0.0
C703 C 0.33818 0.10092 0.4228 0.0
C704 C 0.35238 0.11257 0.4179 0.0
C705 C 0.35901 0.12551 0.42939 0.0
C706 C 0.35839 0.15226 0.45733 0.0
C707 C 0.37038 0.16589 0.46322 0.0
C708 C 0.36955 0.17879 0.46226 0.0
C709 C 0.35675 0.17848 0.45489 0.0
C710 C 0.34472 0.16477 0.44878 0.0
C711 C 0.34545 0.15178 0.45022 0.0
C712 C 0.35596 0.23777 0.47913 0.0
C713 C 0.36675 0.25225 0.48425 0.0
C714 C 0.36675 0.25799 0.50318 0.0
C715 C 0.35592 0.2493 0.51746 0.0
C716 C 0.34535 0.23463 0.51247 0.0
C717 C 0.3453 0.22895 0.4935 0.0
C718 C 0.34699 0.23628 0.44505 0.0
C719 C 0.33209 0.23194 0.44869 0.0
C720 C 0.32507 0.23786 0.43725 0.0
C721 C 0.33277 0.24811 0.42189 0.0
C722 C 0.34732 0.25156 0.41738 0.0
C723 C 0.35435 0.24571 0.42892 0.0
C724 C 0.35509 0.21897 0.45607 0.0
C725 C 0.3684 0.21927 0.4522 0.0
C726 C 0.36883 0.20616 0.451 0.0
C727 C 0.35594 0.19236 0.45415 0.0
C728 C 0.34244 0.19209 0.4573 0.0
C729 C 0.34199 0.20525 0.45796 0.0
H730 H 0.80235 0.12239 0.49874 0.0
N731 N 0.79106 0.13139 0.46827 0.0
H732 H 0.79133 0.11366 0.53168 0.0
H733 H 0.76773 0.13172 0.48355 0.0
H734 H 0.75687 0.12354 0.51689 0.0
H735 H 0.77679 0.12965 0.43441 0.0
H736 H 0.76218 0.10761 0.41361 0.0
H737 H 0.79053 0.10489 0.47152 0.0
H738 H 0.77599 0.08299 0.45102 0.0
H739 H 0.81405 0.12602 0.4617 0.0
H740 H 0.80347 0.16047 0.47124 0.0
H741 H 0.84029 0.14439 0.46069 0.0
H742 H 0.8298 0.17895 0.47128 0.0
H743 H 0.92041 0.20911 0.49793 0.0
H744 H 0.92848 0.22215 0.53 0.0
H745 H 0.89356 0.23284 0.52649 0.0
H746 H 0.88564 0.21985 0.49437 0.0
H747 H 0.89915 0.2325 0.46419 0.0
H748 H 0.91586 0.25134 0.44081 0.0
H749 H 0.9349 0.22421 0.42557 0.0
H750 H 0.91767 0.20508 0.44867 0.0
H751 H 0.88589 0.17884 0.48509 0.0
H752 H 0.85971 0.16014 0.48231 0.0
H753 H 0.85142 0.19185 0.45198 0.0
N754 N 0.89907 0.20695 0.47406 0.0
H755 H 0.87732 0.21056 0.45574 0.0
C756 C 0.78577 0.12764 0.48861 0.0
C757 C 0.79249 0.12278 0.50262 0.0
C758 C 0.78621 0.11787 0.52156 0.0
C759 C 0.77314 0.1178 0.52696 0.0
C760 C 0.76677 0.12318 0.51313 0.0
C761 C 0.77301 0.12798 0.49415 0.0
C762 C 0.78464 0.11898 0.45462 0.0
C763 C 0.77691 0.11958 0.4378 0.0
C764 C 0.7686 0.107 0.42595 0.0
C765 C 0.76782 0.09355 0.43086 0.0
C766 C 0.77622 0.09316 0.44707 0.0
C767 C 0.78459 0.10574 0.45879 0.0
C768 C 0.80669 0.14189 0.46633 0.0
C769 C 0.81731 0.13753 0.46345 0.0
C770 C 0.83242 0.1481 0.4631 0.0
C771 C 0.83726 0.16322 0.46594 0.0
C772 C 0.82656 0.16749 0.46864 0.0
C773 C 0.81148 0.15695 0.46875 0.0
C774 C 0.90248 0.21349 0.49378 0.0
C775 C 0.9144 0.21411 0.50426 0.0
C776 C 0.91895 0.22152 0.52258 0.0
C777 C 0.91167 0.22856 0.53077 0.0
C778 C 0.89949 0.22768 0.52045 0.0
C779 C 0.8949 0.22018 0.50215 0.0
C780 C 0.90711 0.21727 0.45816 0.0
C781 C 0.90661 0.23037 0.45549 0.0
C782 C 0.91632 0.24126 0.44222 0.0
C783 C 0.92687 0.23939 0.43149 0.0
C784 C 0.92684 0.22597 0.43343 0.0
C785 C 0.91704 0.21504 0.44665 0.0
C786 C 0.88371 0.19609 0.47059 0.0
C787 C 0.8784 0.18169 0.47773 0.0
C788 C 0.86343 0.17098 0.47598 0.0
C789 C 0.85337 0.17442 0.46687 0.0
C790 C 0.85876 0.18883 0.45936 0.0
C791 C 0.87372 0.19958 0.46134 0.0
H792 H 0.0525 0.59857 0.20232 0.0
N793 N 0.03787 0.57354 0.22273 0.0
H794 H 0.04414 0.6061 0.17253 0.0
H795 H 0.01209 0.55631 0.20172 0.0
H796 H 0.00394 0.56361 0.17168 0.0
H797 H 0.01115 0.56804 0.23728 0.0
H798 H 0.00743 0.58245 0.26324 0.0
H799 H 0.05824 0.59304 0.24731 0.0
H800 H 0.05475 0.60763 0.27305 0.0
H801 H 0.06082 0.56964 0.218 0.0
H802 H 0.01432 0.54632 0.23219 0.0
H803 H 0.06131 0.5466 0.22005 0.0
H804 H 0.01429 0.52293 0.23272 0.0
H805 H 0.05453 0.46779 0.20563 0.0
H806 H 0.04584 0.45137 0.17643 0.0
H807 H 0.00538 0.45313 0.17613 0.0
H808 H 0.01407 0.46939 0.2057 0.0
H809 H 0.01355 0.45821 0.24121 0.0
H810 H 0.00975 0.44042 0.26762 0.0
H811 H 0.05718 0.46154 0.2758 0.0
H812 H 0.06074 0.47949 0.24983 0.0
H813 H 0.05573 0.50259 0.20321 0.0
H814 H 0.0545 0.52521 0.20249 0.0
H815 H 0.02123 0.50767 0.24913 0.0
N816 N 0.04025 0.47876 0.22558 0.0
H817 H 0.0218 0.4847 0.24866 0.0
C818 C 0.0331 0.57685 0.20413 0.0
C819 C 0.04196 0.59084 0.19557 0.0
C820 C 0.03713 0.59515 0.1787 0.0
C821 C 0.0234 0.58543 0.16989 0.0
C822 C 0.01462 0.57126 0.17815 0.0
C823 C 0.01933 0.56706 0.1953 0.0
C824 C 0.03502 0.57957 0.24041 0.0
C825 C 0.02065 0.57637 0.24546 0.0
C826 C 0.01856 0.58471 0.26017 0.0
C827 C 0.03081 0.59631 0.27009 0.0
C828 C 0.04506 0.59871 0.2659 0.0
C829 C 0.04711 0.59042 0.25118 0.0
C830 C 0.03754 0.55966 0.22454 0.0
C831 C 0.05067 0.55945 0.22132 0.0
C832 C 0.05085 0.5462 0.2223 0.0
C833 C 0.03776 0.53272 0.22615 0.0
C834 C 0.02461 0.53302 0.22982 0.0
C835 C 0.02454 0.54639 0.22925 0.0
C836 C 0.03505 0.4699 0.20765 0.0
C837 C 0.04383 0.46468 0.19918 0.0
C838 C 0.03881 0.45523 0.18265 0.0
C839 C 0.02492 0.45094 0.17412 0.0
C840 C 0.01616 0.45634 0.1824 0.0
C841 C 0.02111 0.46563 0.19921 0.0
C842 C 0.03748 0.4702 0.24364 0.0
C843 C 0.02308 0.45926 0.24915 0.0
C844 C 0.02095 0.449 0.26411 0.0
C845 C 0.03317 0.44939 0.27369 0.0
C846 C 0.04749 0.46095 0.26896 0.0
C847 C 0.04958 0.47124 0.2541 0.0
C848 C 0.03903 0.49194 0.22603 0.0
C849 C 0.04813 0.50363 0.21321 0.0
C850 C 0.0475 0.51664 0.213 0.0
C851 C 0.03792 0.51849 0.22599 0.0
C852 C 0.02866 0.50668 0.23877 0.0
C853 C 0.02908 0.49349 0.23865 0.0
H854 H 0.59109 0.55649 0.21972 0.0
N855 N 0.56555 0.55057 0.23629 0.0
H856 H 0.60089 0.5677 0.18705 0.0
H857 H 0.5508 0.55702 0.20747 0.0
H858 H 0.56006 0.56738 0.17446 0.0
H859 H 0.56461 0.57633 0.23654 0.0
H860 H 0.5779 0.5971 0.25937 0.0
H861 H 0.58043 0.55135 0.2691 0.0
H862 H 0.59361 0.57209 0.29243 0.0
H863 H 0.55407 0.52188 0.22928 0.0
H864 H 0.54197 0.55401 0.24749 0.0
H865 H 0.52796 0.50259 0.22944 0.0
H866 H 0.51611 0.53481 0.24864 0.0
H867 H 0.46834 0.45646 0.21298 0.0
H868 H 0.45928 0.44351 0.18095 0.0
H869 H 0.42937 0.46064 0.17594 0.0
H870 H 0.43848 0.4735 0.20797 0.0
H871 H 0.43981 0.47634 0.25585 0.0
H872 H 0.42241 0.45868 0.28016 0.0
H873 H 0.44104 0.43042 0.27029 0.0
H874 H 0.45778 0.44774 0.24542 0.0
H875 H 0.48077 0.46874 0.2461 0.0
H876 H 0.50675 0.48768 0.24932 0.0
H877 H 0.49666 0.5203 0.22624 0.0
N878 N 0.45822 0.47282 0.23223 0.0
H879 H 0.47054 0.50133 0.22396 0.0
C880 C 0.57022 0.55578 0.21606 0.0
C881 C 0.58424 0.55873 0.20977 0.0
C882 C 0.58977 0.56507 0.19103 0.0
C883 C 0.58129 0.5685 0.17802 0.0
C884 C 0.56703 0.56515 0.18415 0.0
C885 C 0.56161 0.55901 0.20302 0.0
C886 C 0.57159 0.56225 0.25108 0.0
C887 C 0.57071 0.5752 0.24885 0.0
C888 C 0.57827 0.58707 0.26203 0.0
C889 C 0.5869 0.5863 0.27768 0.0
C890 C 0.58723 0.57311 0.28037 0.0
C891 C 0.57964 0.56123 0.26718 0.0
C892 C 0.55012 0.53939 0.23846 0.0
C893 C 0.54581 0.52471 0.23369 0.0
C894 C 0.53088 0.51369 0.23391 0.0
C895 C 0.51987 0.51711 0.23903 0.0
C896 C 0.52424 0.53179 0.2443 0.0
C897 C 0.53916 0.54283 0.24387 0.0
C898 C 0.45401 0.46593 0.21282 0.0
C899 C 0.45988 0.45746 0.20495 0.0
C900 C 0.45466 0.45002 0.18669 0.0
C901 C 0.4436 0.45105 0.17593 0.0
C902 C 0.43801 0.45977 0.18372 0.0
C903 C 0.44315 0.46709 0.202 0.0
C904 C 0.45013 0.46346 0.24887 0.0
C905 C 0.44031 0.46647 0.25931 0.0
C906 C 0.43042 0.45637 0.27326 0.0
C907 C 0.43021 0.44302 0.27711 0.0
C908 C 0.44069 0.44045 0.26745 0.0
C909 C 0.45047 0.45049 0.25336 0.0
C910 C 0.47363 0.48367 0.23498 0.0
C911 C 0.48406 0.47996 0.24199 0.0
C912 C 0.49901 0.49084 0.24365 0.0
C913 C 0.50387 0.50558 0.2381 0.0
C914 C 0.49335 0.50918 0.23107 0.0
C915 C 0.47842 0.49834 0.22961 0.0
H916 H 0.53937 0.96105 0.19842 0.0
N917 N 0.53732 0.98 0.22276 0.0
H918 H 0.55286 0.96637 0.16672 0.0
H919 H 0.55226 0.00705 0.2042 0.0
H920 H 0.56553 0.01245 0.17233 0.0
H921 H 0.56468 0.00285 0.23357 0.0
H922 H 0.58097 0.00195 0.25884 0.0
H923 H 0.53043 0.95893 0.24991 0.0
H924 H 0.54638 0.9582 0.27625 0.0
H925 H 0.50931 0.96626 0.21109 0.0
H926 H 0.54233 0.00572 0.24089 0.0
H927 H 0.49149 0.9748 0.21397 0.0
H928 H 0.52444 0.0141 0.24471 0.0
H929 H 0.45578 0.99589 0.1985 0.0
H930 H 0.44633 0.99817 0.16613 0.0
H931 H 0.45571 0.04215 0.18213 0.0
H932 H 0.46463 0.03947 0.21494 0.0
H933 H 0.46266 0.02806 0.26348 0.0
H934 H 0.44043 0.02031 0.28402 0.0
H935 H 0.41616 0.98201 0.24611 0.0
H936 H 0.43815 0.98977 0.22577 0.0
H937 H 0.45865 0.98718 0.23603 0.0
H938 H 0.47651 0.97881 0.23658 0.0
H939 H 0.51184 0.02356 0.2256 0.0
N940 N 0.46465 0.01581 0.22949 0.0
H941 H 0.49384 0.032 0.22602 0.0
C942 C 0.54472 0.98356 0.2036 0.0
C943 C 0.54498 0.97226 0.19268 0.0
C944 C 0.55263 0.97533 0.17455 0.0
C945 C 0.56024 0.98984 0.16694 0.0
C946 C 0.55991 0.00119 0.17786 0.0
C947 C 0.55221 0.99809 0.19602 0.0
C948 C 0.54638 0.98078 0.23958 0.0
C949 C 0.56054 0.99309 0.24286 0.0
C950 C 0.56984 0.99261 0.25755 0.0
C951 C 0.56511 0.97991 0.26953 0.0
C952 C 0.55057 0.96801 0.26701 0.0
C953 C 0.54136 0.96844 0.25212 0.0
C954 C 0.52706 0.98522 0.22588 0.0
C955 C 0.51261 0.97667 0.21854 0.0
C956 C 0.50243 0.98155 0.22035 0.0
C957 C 0.50646 0.99513 0.22971 0.0
C958 C 0.52097 0.00367 0.23723 0.0
C959 C 0.53121 0.99882 0.23523 0.0
C960 C 0.46086 0.01754 0.20923 0.0
C961 C 0.45597 0.00609 0.195 0.0
C962 C 0.45062 0.00745 0.17638 0.0
C963 C 0.45014 0.02031 0.17151 0.0
C964 C 0.45564 0.03198 0.18549 0.0
C965 C 0.46089 0.03055 0.20415 0.0
C966 C 0.45214 0.00964 0.24301 0.0
C967 C 0.45261 0.01784 0.25991 0.0
C968 C 0.43993 0.01338 0.27162 0.0
C969 C 0.42652 0.00065 0.2665 0.0
C970 C 0.42628 0.992 0.25022 0.0
C971 C 0.43892 0.99643 0.2386 0.0
C972 C 0.4749 0.01037 0.23113 0.0
C973 C 0.47021 0.9953 0.23405 0.0
C974 C 0.48049 0.99046 0.23415 0.0
C975 C 0.49566 0.00047 0.23102 0.0
C976 C 0.50031 0.01554 0.22837 0.0
C977 C 0.49004 0.02039 0.22849 0.0
H978 H 0.43203 0.97581 0.82112 0.0
N979 N 0.45324 0.99748 0.79966 0.0
H980 H 0.42232 0.97781 0.85359 0.0
H981 H 0.46418 0.02235 0.82281 0.0
H982 H 0.45522 0.02438 0.85563 0.0
H983 H 0.46132 0.02547 0.78771 0.0
H984 H 0.44749 0.03222 0.76444 0.0
H985 H 0.43141 0.97934 0.77564 0.0
H986 H 0.41784 0.98588 0.75175 0.0
H987 H 0.45601 0.97474 0.78821 0.0
H988 H 0.48143 0.02086 0.80391 0.0
H989 H 0.47875 0.97369 0.7851 0.0
H990 H 0.5042 0.01975 0.80254 0.0
H991 H 0.55283 0.97258 0.8143 0.0
H992 H 0.56386 0.97427 0.84719 0.0
H993 H 0.56221 0.01406 0.85956 0.0
H994 H 0.55179 0.01255 0.82622 0.0
H995 H 0.5693 0.0196 0.79561 0.0
H996 H 0.59049 0.02817 0.77312 0.0
H997 H 0.56879 0.98581 0.74301 0.0
H998 H 0.54782 0.97722 0.76606 0.0
H999 H 0.5183 0.97077 0.80629 0.0
H1000 H 0.49609 0.9728 0.80555 0.0
H1001 H 0.52204 0.01777 0.78393 0.0
N1002 N 0.54579 0.99133 0.79787 0.0
H1003 H 0.54435 0.01586 0.78606 0.0
C1004 C 0.44889 0.99883 0.81964 0.0
C1005 C 0.4372 0.98638 0.82876 0.0
C1006 C 0.43173 0.98756 0.84737 0.0
C1007 C 0.43795 0.00128 0.85732 0.0
C1008 C 0.44997 0.01369 0.84832 0.0
C1009 C 0.4553 0.0125 0.82959 0.0
C1010 C 0.44719 0.00188 0.78352 0.0
C1011 C 0.45196 0.01682 0.7797 0.0
C1012 C 0.44409 0.02065 0.76629 0.0
C1013 C 0.43139 0.00957 0.75647 0.0
C1014 C 0.42735 0.99467 0.75939 0.0
C1015 C 0.43514 0.9909 0.77286 0.0
C1016 C 0.46699 0.99772 0.79673 0.0
C1017 C 0.46655 0.98462 0.79111 0.0
C1018 C 0.47958 0.98404 0.78957 0.0
C1019 C 0.49341 0.99654 0.79404 0.0
C1020 C 0.49384 0.00988 0.79893 0.0
C1021 C 0.48076 0.0105 0.80003 0.0
C1022 C 0.5514 0.99232 0.8179 0.0
C1023 C 0.55478 0.98159 0.82423 0.0
C1024 C 0.56099 0.98254 0.84309 0.0
C1025 C 0.56387 0.99426 0.85616 0.0
C1026 C 0.56032 0.00497 0.84984 0.0
C1027 C 0.55422 0.00407 0.83084 0.0
C1028 C 0.55703 0.99768 0.78258 0.0
C1029 C 0.56898 0.01226 0.78393 0.0
C1030 C 0.58108 0.01717 0.77097 0.0
C1031 C 0.58145 0.0076 0.75643 0.0
C1032 C 0.56901 0.99336 0.7543 0.0
C1033 C 0.55695 0.98847 0.76729 0.0
C1034 C 0.53294 0.99301 0.79602 0.0
C1035 C 0.51914 0.98103 0.80131 0.0
C1036 C 0.50642 0.98221 0.80069 0.0
C1037 C 0.50712 0.99541 0.79441 0.0
C1038 C 0.52102 0.00747 0.78901 0.0
C1039 C 0.53384 0.00634 0.79 0.0
H1040 H 0.95792 0.54703 0.82902 0.0
N1041 N 0.97535 0.54176 0.80586 0.0
H1042 H 0.96427 0.56066 0.86069 0.0
H1043 H 0.00196 0.55346 0.82523 0.0
H1044 H 0.00849 0.56714 0.85706 0.0
H1045 H 0.00209 0.56414 0.79264 0.0
H1046 H 0.00574 0.58291 0.76785 0.0
H1047 H 0.95512 0.54122 0.78127 0.0
H1048 H 0.9586 0.55999 0.75657 0.0
H1049 H 0.95979 0.51655 0.82539 0.0
H1050 H 0.99523 0.53819 0.78252 0.0
H1051 H 0.96211 0.49458 0.82399 0.0
H1052 H 0.99688 0.51583 0.77974 0.0
H1053 H 0.96826 0.4244 0.82188 0.0
H1054 H 0.97643 0.41721 0.85219 0.0
H1055 H 0.01577 0.46034 0.85415 0.0
H1056 H 0.0079 0.46729 0.82349 0.0
H1057 H 0.0092 0.45593 0.7867 0.0
H1058 H 0.01304 0.44185 0.7603 0.0
H1059 H 0.96563 0.41566 0.75173 0.0
H1060 H 0.96205 0.42995 0.7778 0.0
H1061 H 0.95854 0.45203 0.80578 0.0
H1062 H 0.95683 0.47443 0.80473 0.0
H1063 H 0.00413 0.50037 0.7946 0.0
N1064 N 0.98251 0.44974 0.80199 0.0
H1065 H 0.00532 0.4776 0.79387 0.0
C1066 C 0.97943 0.54927 0.82488 0.0
C1067 C 0.96893 0.55132 0.83518 0.0
C1068 C 0.97258 0.55904 0.85328 0.0
C1069 C 0.98687 0.56493 0.86142 0.0
C1070 C 0.99743 0.56283 0.85108 0.0
C1071 C 0.99372 0.555 0.83296 0.0
C1072 C 0.97826 0.55131 0.78883 0.0
C1073 C 0.99259 0.56299 0.78452 0.0
C1074 C 0.99465 0.57376 0.77042 0.0
C1075 C 0.98245 0.57304 0.76039 0.0
C1076 C 0.96826 0.56082 0.76386 0.0
C1077 C 0.96622 0.55009 0.77798 0.0
C1078 C 0.97717 0.529 0.80403 0.0
C1079 C 0.96795 0.51646 0.81545 0.0
C1080 C 0.9692 0.50382 0.81442 0.0
C1081 C 0.97952 0.5032 0.80146 0.0
C1082 C 0.98888 0.51586 0.79003 0.0
C1083 C 0.98784 0.52869 0.79146 0.0
C1084 C 0.98728 0.44641 0.82056 0.0
C1085 C 0.97859 0.43232 0.82893 0.0
C1086 C 0.9833 0.42821 0.8461 0.0
C1087 C 0.9967 0.43825 0.85541 0.0
C1088 C 0.00534 0.45246 0.84725 0.0
C1089 C 0.00079 0.45646 0.82977 0.0
C1090 C 0.98531 0.44386 0.78415 0.0
C1091 C 0.99972 0.44745 0.77867 0.0
C1092 C 0.00186 0.43931 0.76371 0.0
C1093 C 0.98963 0.42752 0.75402 0.0
C1094 C 0.97532 0.42474 0.75866 0.0
C1095 C 0.97321 0.43285 0.77359 0.0
C1096 C 0.98205 0.46322 0.80043 0.0
C1097 C 0.96848 0.46258 0.80318 0.0
C1098 C 0.9676 0.47546 0.8028 0.0
C1099 C 0.98041 0.48939 0.80011 0.0
C1100 C 0.994 0.48992 0.79668 0.0
C1101 C 0.99477 0.47692 0.79656 0.0
H1102 H 0.47174 0.45387 0.83052 0.0
N1103 N 0.46022 0.46336 0.80095 0.0
H1104 H 0.46018 0.44312 0.86265 0.0
H1105 H 0.43553 0.46093 0.81591 0.0
H1106 H 0.42402 0.45054 0.84834 0.0
H1107 H 0.4443 0.46123 0.76873 0.0
H1108 H 0.43179 0.44023 0.74585 0.0
H1109 H 0.46308 0.43862 0.80053 0.0
H1110 H 0.45176 0.41827 0.77699 0.0
H1111 H 0.48452 0.46019 0.79255 0.0
H1112 H 0.47128 0.49197 0.80814 0.0
H1113 H 0.51024 0.47938 0.7937 0.0
H1114 H 0.49735 0.51133 0.81018 0.0
H1115 H 0.585 0.53893 0.83985 0.0
H1116 H 0.59315 0.55206 0.87173 0.0
H1117 H 0.56673 0.5726 0.86024 0.0
H1118 H 0.55789 0.55855 0.82911 0.0
H1119 H 0.57027 0.56663 0.79856 0.0
H1120 H 0.58776 0.5826 0.77333 0.0
H1121 H 0.60128 0.5502 0.76319 0.0
H1122 H 0.58406 0.53452 0.7893 0.0
H1123 H 0.5543 0.51228 0.82204 0.0
H1124 H 0.52822 0.49355 0.81815 0.0
H1125 H 0.51972 0.52642 0.79189 0.0
N1126 N 0.56735 0.54066 0.81282 0.0
H1127 H 0.54575 0.54517 0.79665 0.0
C1128 C 0.45445 0.45821 0.8208 0.0
C1129 C 0.46139 0.45329 0.83434 0.0
C1130 C 0.45479 0.4472 0.85278 0.0
C1131 C 0.44113 0.4459 0.85806 0.0
C1132 C 0.43441 0.45115 0.84464 0.0
C1133 C 0.44102 0.45722 0.82621 0.0
C1134 C 0.45477 0.45168 0.78619 0.0
C1135 C 0.44607 0.45193 0.77038 0.0
C1136 C 0.439 0.43991 0.75725 0.0
C1137 C 0.44064 0.4274 0.75954 0.0
C1138 C 0.4499 0.42748 0.77495 0.0
C1139 C 0.45665 0.43932 0.78832 0.0
C1140 C 0.47574 0.47457 0.80018 0.0
C1141 C 0.487 0.47126 0.79617 0.0
C1142 C 0.50189 0.48232 0.79702 0.0
C1143 C 0.50594 0.49692 0.80221 0.0
C1144 C 0.49467 0.50027 0.80588 0.0
C1145 C 0.47977 0.48921 0.80483 0.0
C1146 C 0.5711 0.54795 0.832 0.0
C1147 C 0.58089 0.54617 0.84439 0.0
C1148 C 0.58564 0.55382 0.8625 0.0
C1149 C 0.58087 0.56369 0.86848 0.0
C1150 C 0.57063 0.56509 0.85625 0.0
C1151 C 0.56568 0.55719 0.83827 0.0
C1152 C 0.57598 0.5494 0.79602 0.0
C1153 C 0.57685 0.56285 0.79085 0.0
C1154 C 0.58684 0.57197 0.7762 0.0
C1155 C 0.59608 0.56779 0.76629 0.0
C1156 C 0.59458 0.55394 0.77079 0.0
C1157 C 0.58466 0.54489 0.78555 0.0
C1158 C 0.55198 0.53002 0.8095 0.0
C1159 C 0.54677 0.51537 0.81538 0.0
C1160 C 0.53188 0.50469 0.813 0.0
C1161 C 0.52184 0.50841 0.80452 0.0
C1162 C 0.5271 0.52317 0.79863 0.0
C1163 C 0.54204 0.53391 0.80118 0.0
H1164 H 0.72673 0.9261 0.52669 0.0
N1165 N 0.71069 0.90786 0.55579 0.0
H1166 H 0.71791 0.93079 0.49509 0.0
H1167 H 0.68197 0.89426 0.54329 0.0
H1168 H 0.6729 0.89885 0.51158 0.0
H1169 H 0.68693 0.90489 0.57694 0.0
H1170 H 0.68727 0.92289 0.60077 0.0
H1171 H 0.73437 0.93109 0.57106 0.0
H1172 H 0.73475 0.94937 0.59451 0.0
H1173 H 0.72756 0.89886 0.5386 0.0
H1174 H 0.69088 0.88471 0.57929 0.0
H1175 H 0.72535 0.87462 0.54055 0.0
H1176 H 0.68921 0.86068 0.58268 0.0
H1177 H 0.71757 0.79933 0.5366 0.0
H1178 H 0.70945 0.78466 0.50565 0.0
H1179 H 0.66866 0.78572 0.50719 0.0
H1180 H 0.67658 0.79992 0.5384 0.0
H1181 H 0.67595 0.78746 0.5737 0.0
H1182 H 0.67226 0.76914 0.59949 0.0
H1183 H 0.71969 0.79048 0.60767 0.0
H1184 H 0.72314 0.80865 0.58206 0.0
H1185 H 0.72708 0.8345 0.55708 0.0
H1186 H 0.72949 0.85889 0.55949 0.0
H1187 H 0.682 0.83823 0.56719 0.0
N1188 N 0.70253 0.80842 0.55865 0.0
H1189 H 0.68009 0.81395 0.5667 0.0
C1190 C 0.70501 0.90993 0.53721 0.0
C1191 C 0.71499 0.92009 0.52337 0.0
C1192 C 0.70992 0.92266 0.50533 0.0
C1193 C 0.69471 0.91513 0.5008 0.0
C1194 C 0.68467 0.90489 0.51473 0.0
C1195 C 0.68981 0.90224 0.53279 0.0
C1196 C 0.71071 0.91659 0.57246 0.0
C1197 C 0.69747 0.91425 0.58127 0.0
C1198 C 0.69766 0.92457 0.59483 0.0
C1199 C 0.71104 0.93751 0.59939 0.0
C1200 C 0.7243 0.93949 0.5912 0.0
C1201 C 0.72412 0.92906 0.57795 0.0
C1202 C 0.70957 0.89371 0.55892 0.0
C1203 C 0.71923 0.89057 0.54833 0.0
C1204 C 0.718 0.87669 0.54965 0.0
C1205 C 0.7072 0.86558 0.56201 0.0
C1206 C 0.69757 0.86882 0.57283 0.0
C1207 C 0.69862 0.88269 0.57112 0.0
C1208 C 0.69784 0.80092 0.53967 0.0
C1209 C 0.70694 0.79649 0.53014 0.0
C1210 C 0.70227 0.78808 0.5126 0.0
C1211 C 0.68845 0.7841 0.50411 0.0
C1212 C 0.67942 0.78878 0.51339 0.0
C1213 C 0.68399 0.79696 0.5312 0.0
C1214 C 0.69985 0.79931 0.57602 0.0
C1215 C 0.68548 0.78834 0.58144 0.0
C1216 C 0.68341 0.77785 0.59606 0.0
C1217 C 0.69569 0.77829 0.60554 0.0
C1218 C 0.70998 0.7899 0.60088 0.0
C1219 C 0.71201 0.80027 0.58623 0.0
C1220 C 0.70341 0.8225 0.5611 0.0
C1221 C 0.71725 0.83533 0.55947 0.0
C1222 C 0.71854 0.84925 0.56064 0.0
C1223 C 0.70589 0.85068 0.56298 0.0
C1224 C 0.69202 0.83769 0.56539 0.0
C1225 C 0.69083 0.82373 0.56475 0.0
H1226 H 0.25554 0.89406 0.54901 0.0
N1227 N 0.22951 0.88704 0.56488 0.0
H1228 H 0.26493 0.90445 0.51578 0.0
H1229 H 0.21371 0.89079 0.53472 0.0
H1230 H 0.22271 0.90056 0.50144 0.0
H1231 H 0.22232 0.90889 0.56351 0.0
H1232 H 0.23397 0.93164 0.58344 0.0
H1233 H 0.24593 0.89219 0.59751 0.0
H1234 H 0.25738 0.91478 0.61781 0.0
H1235 H 0.22681 0.86095 0.57222 0.0
H1236 H 0.20128 0.88264 0.56511 0.0
H1237 H 0.20409 0.83709 0.57498 0.0
H1238 H 0.17839 0.85873 0.56603 0.0
H1239 H 0.13035 0.76292 0.5484 0.0
H1240 H 0.1183 0.75344 0.51607 0.0
H1241 H 0.11725 0.79383 0.50634 0.0
H1242 H 0.12891 0.80296 0.53913 0.0
H1243 H 0.11381 0.79361 0.571 0.0
H1244 H 0.09281 0.78025 0.59366 0.0
H1245 H 0.11374 0.75716 0.61869 0.0
H1246 H 0.13462 0.77044 0.59566 0.0
H1247 H 0.16362 0.79572 0.55369 0.0
H1248 H 0.18585 0.81998 0.55456 0.0
H1249 H 0.16113 0.83788 0.58348 0.0
N1250 N 0.13667 0.78819 0.56588 0.0
H1251 H 0.13872 0.81374 0.58116 0.0
C1252 C 0.23394 0.89154 0.54441 0.0
C1253 C 0.24829 0.89529 0.53854 0.0
C1254 C 0.25359 0.90117 0.51952 0.0
C1255 C 0.24459 0.9034 0.50591 0.0
C1256 C 0.23003 0.89921 0.51163 0.0
C1257 C 0.22478 0.89343 0.53069 0.0
C1258 C 0.23345 0.89892 0.57891 0.0
C1259 C 0.22971 0.90994 0.57559 0.0
C1260 C 0.2364 0.92296 0.58694 0.0
C1261 C 0.24668 0.92503 0.60203 0.0
C1262 C 0.24944 0.91346 0.60637 0.0
C1263 C 0.24293 0.90057 0.59481 0.0
C1264 C 0.21576 0.87347 0.56801 0.0
C1265 C 0.21624 0.8605 0.57114 0.0
C1266 C 0.20319 0.84685 0.57245 0.0
C1267 C 0.18928 0.84581 0.57018 0.0
C1268 C 0.18883 0.85899 0.56788 0.0
C1269 C 0.20194 0.87272 0.56706 0.0
C1270 C 0.13058 0.7836 0.54606 0.0
C1271 C 0.12762 0.76974 0.53915 0.0
C1272 C 0.12081 0.76441 0.52062 0.0
C1273 C 0.11684 0.77289 0.5085 0.0
C1274 C 0.12 0.78693 0.51537 0.0
C1275 C 0.12677 0.79223 0.53402 0.0
C1276 C 0.12577 0.78294 0.58164 0.0
C1277 C 0.11405 0.78595 0.5817 0.0
C1278 C 0.10206 0.77832 0.59471 0.0
C1279 C 0.10153 0.76751 0.6078 0.0
C1280 C 0.11372 0.76525 0.60856 0.0
C1281 C 0.1257 0.77291 0.59559 0.0
C1282 C 0.14954 0.80278 0.56751 0.0
C1283 C 0.16304 0.80491 0.56023 0.0
C1284 C 0.17579 0.81881 0.56096 0.0
C1285 C 0.17547 0.831 0.56941 0.0
C1286 C 0.16186 0.82886 0.57671 0.0
C1287 C 0.14898 0.81493 0.57558 0.0
H1288 H 0.21085 0.29578 0.53287 0.0
N1289 N 0.20778 0.31258 0.55991 0.0
H1290 H 0.2237 0.30344 0.50063 0.0
H1291 H 0.22109 0.34051 0.54426 0.0
H1292 H 0.2341 0.34836 0.51205 0.0
H1293 H 0.22888 0.33845 0.57709 0.0
H1294 H 0.24683 0.34089 0.60248 0.0
H1295 H 0.20786 0.29097 0.58052 0.0
H1296 H 0.22597 0.29324 0.60562 0.0
H1297 H 0.18091 0.29135 0.55025 0.0
H1298 H 0.20472 0.33526 0.57516 0.0
H1299 H 0.15789 0.29194 0.55183 0.0
H1300 H 0.1816 0.3358 0.57772 0.0
H1301 H 0.10059 0.29698 0.52465 0.0
H1302 H 0.09507 0.30514 0.49308 0.0
H1303 H 0.11477 0.34965 0.51645 0.0
H1304 H 0.11987 0.34128 0.54804 0.0
H1305 H 0.12115 0.33637 0.58278 0.0
H1306 H 0.10582 0.33847 0.60906 0.0
H1307 H 0.07093 0.29388 0.59615 0.0
H1308 H 0.08625 0.29201 0.56989 0.0
H1309 H 0.11647 0.29093 0.5693 0.0
H1310 H 0.13983 0.29116 0.57343 0.0
H1311 H 0.16378 0.33753 0.55742 0.0
N1312 N 0.11259 0.3129 0.55746 0.0
H1313 H 0.14037 0.33733 0.55459 0.0
C1314 C 0.2151 0.31755 0.5409 0.0
C1315 C 0.21585 0.30725 0.52831 0.0
C1316 C 0.22312 0.31164 0.50991 0.0
C1317 C 0.22988 0.3265 0.5038 0.0
C1318 C 0.2291 0.33686 0.51645 0.0
C1319 C 0.22167 0.3324 0.53483 0.0
C1320 C 0.21703 0.31447 0.57692 0.0
C1321 C 0.22794 0.32854 0.58358 0.0
C1322 C 0.23829 0.32991 0.59801 0.0
C1323 C 0.23794 0.31727 0.60598 0.0
C1324 C 0.22649 0.30322 0.60002 0.0
C1325 C 0.21616 0.30188 0.58563 0.0
C1326 C 0.19443 0.31314 0.56273 0.0
C1327 C 0.18106 0.30101 0.55644 0.0
C1328 C 0.16791 0.30137 0.55751 0.0
C1329 C 0.1678 0.31388 0.5651 0.0
C1330 C 0.18127 0.32603 0.57165 0.0
C1331 C 0.1945 0.3257 0.57037 0.0
C1332 C 0.11059 0.31845 0.53866 0.0
C1333 C 0.10382 0.30851 0.52282 0.0
C1334 C 0.10077 0.31323 0.50478 0.0
C1335 C 0.10448 0.32807 0.50221 0.0
C1336 C 0.11159 0.33812 0.51801 0.0
C1337 C 0.11461 0.33336 0.53607 0.0
C1338 C 0.10468 0.31405 0.57433 0.0
C1339 C 0.11024 0.32706 0.58575 0.0
C1340 C 0.10149 0.32823 0.60073 0.0
C1341 C 0.08718 0.31634 0.60466 0.0
C1342 C 0.08197 0.30316 0.5937 0.0
C1343 C 0.09064 0.30208 0.57864 0.0
C1344 C 0.12665 0.31396 0.56126 0.0
C1345 C 0.1268 0.30116 0.56697 0.0
C1346 C 0.14017 0.30132 0.56913 0.0
C1347 C 0.15374 0.31429 0.56533 0.0
C1348 C 0.15359 0.32734 0.56053 0.0
C1349 C 0.14016 0.32722 0.55868 0.0
H1350 H 0.01041 0.42036 0.0524 0.0
H1351 H 0.02468 0.42486 0.16952 0.0
H1352 H 0.00641 0.38342 0.08644 0.0
H1353 H 0.01369 0.45439 0.13874 0.0
H1354 H 0.01835 0.40962 0.13926 0.0
H1355 H 0.01187 0.43317 0.08373 0.0
C1356 C 0.00971 0.4149 0.0665 0.0
C1357 C 0.00836 0.40085 0.06686 0.0
C1358 C 0.01716 0.41934 0.13918 0.0
C1359 C 0.01021 0.4155 0.10274 0.0
C1360 C 0.02084 0.42807 0.15639 0.0
C1361 C 0.01979 0.44094 0.15653 0.0
C1362 C 0.01265 0.42365 0.12187 0.0
C1363 C 0.01461 0.44453 0.13923 0.0
C1364 C 0.01051 0.42219 0.08436 0.0
C1365 C 0.00745 0.39425 0.08552 0.0
N1366 N 0.01141 0.43603 0.12249 0.0
N1367 N 0.00859 0.40172 0.10274 0.0
H1368 H 0.63742 0.60878 0.07428 0.0
H1369 H 0.57721 0.58969 0.15952 0.0
H1370 H 0.60368 0.62103 0.07068 0.0
H1371 H 0.59987 0.56494 0.15208 0.0
H1372 H 0.58807 0.60258 0.12822 0.0
H1373 H 0.62523 0.59401 0.1042 0.0
C1374 C 0.62743 0.60832 0.07975 0.0
C1375 C 0.62155 0.61614 0.07003 0.0
C1376 C 0.59059 0.59426 0.13339 0.0
C1377 C 0.60767 0.59944 0.10424 0.0
C1378 C 0.58431 0.5868 0.15124 0.0
C1379 C 0.58754 0.57611 0.15856 0.0
C1380 C 0.60038 0.59123 0.12282 0.0
C1381 C 0.5972 0.57322 0.14728 0.0
C1382 C 0.62046 0.59987 0.09677 0.0
C1383 C 0.60857 0.61515 0.07771 0.0
N1384 N 0.60334 0.58079 0.13005 0.0
N1385 N 0.60214 0.60705 0.09444 0.0
H1386 H 0.41087 0.003 0.05314 0.0
H1387 H 0.43261 0.03265 0.16538 0.0
H1388 H 0.39885 0.03288 0.0806 0.0
H1389 H 0.45151 0.0098 0.13417 0.0
H1390 H 0.42016 0.03281 0.13454 0.0
H1391 H 0.42562 0.0051 0.08277 0.0
C1392 C 0.41139 0.01005 0.06538 0.0
C1393 C 0.40359 0.01775 0.06445 0.0
C1394 C 0.42711 0.02785 0.13439 0.0
C1395 C 0.42039 0.02015 0.09845 0.0
C1396 C 0.43433 0.02783 0.152 0.0
C1397 C 0.44317 0.02119 0.15246 0.0
C1398 C 0.4286 0.02107 0.11708 0.0
C1399 C 0.44465 0.01485 0.13466 0.0
C1400 C 0.41983 0.01127 0.08228 0.0
C1401 C 0.40468 0.02675 0.08071 0.0
N1402 N 0.43738 0.01488 0.11775 0.0
N1403 N 0.41284 0.02763 0.0971 0.0
H1404 H 0.38752 0.98398 0.96733 0.0
H1405 H 0.43492 0.02463 0.8701 0.0
H1406 H 0.40875 0.03117 0.95836 0.0
H1407 H 0.42608 0.98129 0.88843 0.0
H1408 H 0.42383 0.02665 0.90119 0.0
H1409 H 0.39983 0.98209 0.93711 0.0
C1410 C 0.39478 0.99393 0.95901 0.0
C1411 C 0.39712 0.00775 0.96533 0.0
C1412 C 0.42439 0.01673 0.89844 0.0
C1413 C 0.41112 0.00566 0.93076 0.0
C1414 C 0.43082 0.01559 0.88072 0.0
C1415 C 0.43153 0.00277 0.87655 0.0
C1416 C 0.41842 0.00492 0.91209 0.0
C1417 C 0.42562 0.99129 0.89078 0.0
C1418 C 0.40183 0.99285 0.94182 0.0
C1419 C 0.40665 0.0203 0.95403 0.0
N1420 N 0.41926 0.99261 0.90785 0.0
N1421 N 0.41323 0.01895 0.93723 0.0
H1422 H 0.00431 0.41791 0.97767 0.0
H1423 H 0.00057 0.4145 0.85991 0.0
H1424 H 0.02386 0.39676 0.94409 0.0
H1425 H 0.00375 0.45179 0.892 0.0
H1426 H 0.0072 0.40635 0.89074 0.0
H1427 H 0.00219 0.42927 0.94665 0.0
C1428 C 0.00828 0.41578 0.96377 0.0
C1429 C 0.01424 0.40638 0.96337 0.0
C1430 C 0.00659 0.41639 0.89097 0.0
C1431 C 0.01158 0.41906 0.92791 0.0
C1432 C 0.00275 0.42099 0.87347 0.0
C1433 C 0.0016 0.43379 0.87355 0.0
C1434 C 0.00895 0.42448 0.90874 0.0
C1435 C 0.00457 0.44188 0.8914 0.0
C1436 C 0.00711 0.42229 0.94613 0.0
C1437 C 0.01924 0.40398 0.94501 0.0
N1438 N 0.00792 0.43697 0.9084 0.0
N1439 N 0.01759 0.41011 0.92791 0.0
H1440 H 0.63437 0.60718 0.97218 0.0
H1441 H 0.56692 0.57282 0.89545 0.0
H1442 H 0.60266 0.62218 0.97065 0.0
H1443 H 0.60899 0.57564 0.88374 0.0
H1444 H 0.57765 0.58795 0.92557 0.0
H1445 H 0.62266 0.59201 0.94265 0.0
C1446 C 0.62487 0.60721 0.96568 0.0
C1447 C 0.6195 0.61598 0.97383 0.0
C1448 C 0.58446 0.5852 0.91634 0.0
C1449 C 0.60601 0.59857 0.94001 0.0
C1450 C 0.57839 0.57662 0.89908 0.0
C1451 C 0.58699 0.57278 0.88698 0.0
C1452 C 0.59914 0.58979 0.92167 0.0
C1453 C 0.60174 0.57791 0.89275 0.0
C1454 C 0.61824 0.5986 0.94877 0.0
C1455 C 0.60717 0.61561 0.96476 0.0
N1456 N 0.60729 0.58604 0.90969 0.0
N1457 N 0.60077 0.60698 0.94831 0.0
H1458 H 0.98061 0.59879 0.97655 0.0
H1459 H 0.01215 0.59102 0.87066 0.0
H1460 H 0.02242 0.63254 0.95247 0.0
H1461 H 0.97018 0.5582 0.89549 0.0
H1462 H 0.01715 0.60569 0.90135 0.0
H1463 H 0.97753 0.58319 0.94772 0.0
C1464 C 0.98918 0.60291 0.96519 0.0
C1465 C 0.00175 0.61701 0.96685 0.0
C1466 C 0.00689 0.59524 0.9001 0.0
C1467 C 0.99829 0.59918 0.93367 0.0
C1468 C 0.00407 0.58682 0.88265 0.0
C1469 C 0.99067 0.57342 0.88045 0.0
C1470 C 0.99624 0.59019 0.91545 0.0
C1471 C 0.98054 0.56858 0.89639 0.0
C1472 C 0.98742 0.59398 0.94872 0.0
C1473 C 0.01253 0.62175 0.95172 0.0
N1474 N 0.98351 0.57698 0.91314 0.0
N1475 N 0.01052 0.61287 0.93569 0.0
H1476 H 0.37729 0.39262 0.94944 0.0
H1477 H 0.4538 0.44857 0.89507 0.0
H1478 H 0.42006 0.41157 0.97809 0.0
H1479 H 0.41155 0.42676 0.86472 0.0
H1480 H 0.44145 0.43596 0.92605 0.0
H1481 H 0.38944 0.40598 0.91866 0.0
C1482 C 0.38923 0.39961 0.94925 0.0
C1483 C 0.39769 0.40097 0.96631 0.0
C1484 C 0.43487 0.43396 0.91262 0.0
C1485 C 0.41166 0.41628 0.93121 0.0
C1486 C 0.44193 0.44111 0.89489 0.0
C1487 C 0.43372 0.43872 0.87721 0.0
C1488 C 0.41947 0.42433 0.91274 0.0
C1489 C 0.41832 0.4291 0.87801 0.0
C1490 C 0.39616 0.40722 0.93169 0.0
C1491 C 0.41312 0.41018 0.96526 0.0
N1492 N 0.4117 0.42224 0.89545 0.0
N1493 N 0.4196 0.41747 0.94802 0.0
H1494 H 0.61679 0.02516 0.96474 0.0
H1495 H 0.55944 0.97185 0.88194 0.0
H1496 H 0.60309 0.97886 0.95958 0.0
H1497 H 0.58453 0.01941 0.8758 0.0
H1498 H 0.57248 0.97396 0.91326 0.0
H1499 H 0.60202 0.02291 0.93501 0.0
C1500 C 0.6106 0.0145 0.95741 0.0
C1501 C 0.61119 0.00218 0.96456 0.0
C1502 C 0.57508 0.98393 0.90506 0.0
C1503 C 0.59426 0.99954 0.93067 0.0
C1504 C 0.5677 0.98274 0.8871 0.0
C1505 C 0.57096 0.99546 0.87601 0.0
C1506 C 0.58571 0.99794 0.91216 0.0
C1507 C 0.5815 0.00929 0.88385 0.0
C1508 C 0.60222 0.01325 0.94043 0.0
C1509 C 0.60298 0.98865 0.9545 0.0
N1510 N 0.58852 0.01015 0.90141 0.0
N1511 N 0.59483 0.98768 0.93806 0.0
H1512 H 0.62807 0.02589 0.07437 0.0
H1513 H 0.55217 0.97339 0.13245 0.0
H1514 H 0.59465 0.98269 0.05376 0.0
H1515 H 0.58759 0.01364 0.15794 0.0
H1516 H 0.56681 0.97796 0.10207 0.0
H1517 H 0.61262 0.02294 0.1037 0.0
C1518 C 0.61746 0.01583 0.07597 0.0
C1519 C 0.61265 0.00448 0.06168 0.0
C1520 C 0.57139 0.98583 0.11427 0.0
C1521 C 0.59497 0.00106 0.09505 0.0
C1522 C 0.56305 0.98319 0.13168 0.0
C1523 C 0.5687 0.99307 0.14788 0.0
C1524 C 0.58553 0.99846 0.11295 0.0
C1525 C 0.58274 0.00577 0.1458 0.0
C1526 C 0.60867 0.01415 0.0927 0.0
C1527 C 0.59883 0.99169 0.06446 0.0
N1528 N 0.59071 0.00807 0.1287 0.0
N1529 N 0.5905 0.99032 0.0808 0.0
H1530 H 0.99741 0.63214 0.08667 0.0
H1531 H 0.01344 0.57122 0.13397 0.0
H1532 H 0.00969 0.60558 0.05091 0.0
H1533 H 0.02161 0.61047 0.16597 0.0
H1534 H 0.00627 0.58017 0.10435 0.0
H1535 H 1.0004 0.62059 0.11704 0.0
C1536 C 0.00051 0.62372 0.08521 0.0
C1537 C 0.0034 0.61985 0.06632 0.0
C1538 C 0.00954 0.58675 0.11792 0.0
C1539 C 0.00673 0.6066 0.10079 0.0
C1540 C 0.01357 0.58164 0.13478 0.0
C1541 C 0.01822 0.59021 0.1523 0.0
C1542 C 0.00992 0.60037 0.11876 0.0
C1543 C 0.01825 0.60365 0.15263 0.0
C1544 C 0.0023 0.61722 0.1025 0.0
C1545 C 0.00747 0.60894 0.06523 0.0
N1546 N 0.01414 0.60832 0.1361 0.0
N1547 N 0.00901 0.60269 0.08224 0.0
H1548 H 0.40057 0.38235 0.08584 0.0
H1549 H 0.43751 0.46096 0.14126 0.0
H1550 H 0.40514 0.4221 0.05933 0.0
H1551 H 0.43592 0.42238 0.16727 0.0
H1552 H 0.42607 0.44682 0.11085 0.0
H1553 H 0.41387 0.39669 0.11559 0.0
C1554 C 0.4044 0.39409 0.08627 0.0
C1555 C 0.40172 0.40104 0.07013 0.0
C1556 C 0.42827 0.44143 0.12315 0.0
C1557 C 0.41688 0.41749 0.10403 0.0
C1558 C 0.43476 0.4495 0.14055 0.0
C1559 C 0.4376 0.44282 0.15687 0.0
C1560 C 0.42449 0.42651 0.12201 0.0
C1561 C 0.43402 0.42799 0.15499 0.0
C1562 C 0.412 0.40227 0.10322 0.0
C1563 C 0.40694 0.41628 0.07144 0.0
N1564 N 0.42755 0.4203 0.13792 0.0
N1565 N 0.41421 0.42396 0.0881 0.0
H1566 H 0.66452 0.71447 0.41706 0.0
H1567 H 0.6784 0.78939 0.4689 0.0
H1568 H 0.67525 0.75372 0.38303 0.0
H1569 H 0.68701 0.75765 0.4981 0.0
H1570 H 0.67143 0.77424 0.43826 0.0
H1571 H 0.66661 0.728 0.44799 0.0
C1572 C 0.66706 0.72586 0.41608 0.0
C1573 C 0.66983 0.73304 0.39749 0.0
C1574 C 0.67475 0.77058 0.45144 0.0
C1575 C 0.67223 0.74852 0.43275 0.0
C1576 C 0.67867 0.77916 0.46888 0.0
C1577 C 0.68339 0.77477 0.4859 0.0
C1578 C 0.6753 0.75742 0.45125 0.0
C1579 C 0.68359 0.76147 0.48517 0.0
C1580 C 0.66834 0.73358 0.43373 0.0
C1581 C 0.67313 0.74782 0.39709 0.0
N1582 N 0.67959 0.75324 0.46813 0.0
N1583 N 0.67429 0.75511 0.41449 0.0
H1584 H 0.29744 0.9393 0.39841 0.0
H1585 H 0.23965 0.92373 0.48668 0.0
H1586 H 0.26882 0.958 0.40047 0.0
H1587 H 0.26339 0.89998 0.48038 0.0
H1588 H 0.25025 0.93634 0.45511 0.0
H1589 H 0.28529 0.92488 0.4285 0.0
C1590 C 0.28856 0.94032 0.40516 0.0
C1591 C 0.28415 0.94988 0.39697 0.0
C1592 C 0.25309 0.92831 0.46057 0.0
C1593 C 0.27026 0.93349 0.43142 0.0
C1594 C 0.24695 0.92101 0.47856 0.0
C1595 C 0.25059 0.91072 0.48626 0.0
C1596 C 0.26305 0.92542 0.45016 0.0
C1597 C 0.26041 0.90796 0.47521 0.0
C1598 C 0.28163 0.93209 0.42232 0.0
C1599 C 0.27258 0.95077 0.40629 0.0
N1600 N 0.26633 0.9153 0.45777 0.0
N1601 N 0.26608 0.94274 0.42307 0.0
H1602 H 0.07446 0.32918 0.3821 0.0
H1603 H 0.09366 0.34708 0.49821 0.0
H1604 H 0.06645 0.36 0.41506 0.0
H1605 H 0.10564 0.3198 0.46346 0.0
H1606 H 0.08509 0.35321 0.46757 0.0
H1607 H 0.08724 0.32678 0.41127 0.0
C1608 C 0.07551 0.33555 0.39544 0.0
C1609 C 0.06931 0.34473 0.39622 0.0
C1610 C 0.0897 0.34598 0.46662 0.0
C1611 C 0.08382 0.34195 0.42977 0.0
C1612 C 0.09468 0.34253 0.48411 0.0
C1613 C 0.1003 0.33281 0.48347 0.0
C1614 C 0.09025 0.33962 0.44833 0.0
C1615 C 0.10114 0.32711 0.46476 0.0
C1616 C 0.08281 0.33417 0.4121 0.0
C1617 C 0.07104 0.35277 0.41385 0.0
N1618 N 0.09607 0.33052 0.44799 0.0
N1619 N 0.07802 0.35108 0.43001 0.0
H1620 H 0.05662 0.31908 0.30013 0.0
H1621 H 0.0945 0.36005 0.19843 0.0
H1622 H 0.07027 0.36489 0.28936 0.0
H1623 H 0.10148 0.32563 0.2226 0.0
H1624 H 0.08179 0.35964 0.22923 0.0
H1625 H 0.06922 0.3189 0.26908 0.0
C1626 C 0.06222 0.32906 0.29119 0.0
C1627 C 0.06246 0.34203 0.29728 0.0
C1628 C 0.08614 0.3522 0.22775 0.0
C1629 C 0.07662 0.34183 0.26185 0.0
C1630 C 0.09352 0.35248 0.21021 0.0
C1631 C 0.09932 0.34299 0.20785 0.0
C1632 C 0.08424 0.34217 0.24299 0.0
C1633 C 0.09712 0.33307 0.22353 0.0
C1634 C 0.06943 0.32896 0.27359 0.0
C1635 C 0.06989 0.35468 0.28523 0.0
N1636 N 0.08971 0.33289 0.24041 0.0
N1637 N 0.07659 0.35424 0.26801 0.0
H1638 H 0.70447 0.75161 0.29742 0.0
H1639 H 0.66091 0.76298 0.20658 0.0
H1640 H 0.65696 0.72687 0.29044 0.0
H1641 H 0.70832 0.78926 0.21418 0.0
H1642 H 0.65934 0.74994 0.23759 0.0
H1643 H 0.70624 0.76569 0.26716 0.0
C1644 C 0.69442 0.74916 0.28953 0.0
C1645 C 0.68055 0.73805 0.29642 0.0
C1646 C 0.67009 0.75859 0.23254 0.0
C1647 C 0.68248 0.75408 0.26182 0.0
C1648 C 0.67099 0.76613 0.21487 0.0
C1649 C 0.68477 0.77729 0.20774 0.0
C1650 C 0.68307 0.76217 0.24323 0.0
C1651 C 0.69748 0.78063 0.21896 0.0
C1652 C 0.69543 0.7572 0.27227 0.0
C1653 C 0.66788 0.73533 0.28564 0.0
N1654 N 0.69632 0.7731 0.23613 0.0
N1655 N 0.66915 0.74327 0.26888 0.0
H1656 H 0.28548 0.97212 0.28143 0.0
H1657 H 0.23321 0.89294 0.23165 0.0
H1658 H 0.26909 0.93129 0.31429 0.0
H1659 H 0.26699 0.93008 0.19879 0.0
H1660 H 0.24096 0.90805 0.26236 0.0
H1661 H 0.27321 0.95782 0.25119 0.0
C1662 C 0.27909 0.96016 0.28235 0.0
C1663 C 0.27838 0.95284 0.3003 0.0
C1664 C 0.24653 0.91291 0.24835 0.0
C1665 C 0.2643 0.93652 0.26595 0.0
C1666 C 0.24208 0.90435 0.2309 0.0
C1667 C 0.24956 0.91033 0.21284 0.0
C1668 C 0.25831 0.92758 0.24753 0.0
C1669 C 0.26104 0.92511 0.21253 0.0
C1670 C 0.27217 0.95204 0.26511 0.0
C1671 C 0.26999 0.93733 0.30068 0.0
N1672 N 0.26509 0.93326 0.22965 0.0
N1673 N 0.26329 0.92966 0.28372 0.0
H1674 H 0.69388 0.97666 0.28401 0.0
H1675 H 0.67464 0.90294 0.22351 0.0
H1676 H 0.66243 0.93277 0.30477 0.0
H1677 H 0.69865 0.94676 0.19789 0.0
H1678 H 0.67136 0.91365 0.25431 0.0
H1679 H 0.69728 0.9659 0.25329 0.0
C1680 C 0.68771 0.96476 0.28211 0.0
C1681 C 0.67785 0.9556 0.29692 0.0
C1682 C 0.67735 0.92091 0.24193 0.0
C1683 C 0.6817 0.9432 0.26189 0.0
C1684 C 0.67917 0.9148 0.22429 0.0
C1685 C 0.68697 0.92394 0.20802 0.0
C1686 C 0.68342 0.9363 0.2434 0.0
C1687 C 0.69279 0.93927 0.21011 0.0
C1688 C 0.68963 0.95862 0.26456 0.0
C1689 C 0.67012 0.94025 0.29369 0.0
N1690 N 0.69092 0.94495 0.22745 0.0
N1691 N 0.67224 0.93453 0.27655 0.0
H1692 H 0.04807 0.73308 0.2851 0.0
H1693 H 0.12954 0.77327 0.23743 0.0
H1694 H 0.08762 0.7424 0.31751 0.0
H1695 H 0.08977 0.75845 0.20237 0.0
H1696 H 0.11448 0.7649 0.26776 0.0
H1697 H 0.06332 0.74531 0.25552 0.0
C1698 C 0.05996 0.73784 0.28605 0.0
C1699 C 0.06659 0.73664 0.30372 0.0
C1700 C 0.10904 0.76355 0.25345 0.0
C1701 C 0.08406 0.75058 0.27003 0.0
C1702 C 0.11763 0.76827 0.2361 0.0
C1703 C 0.11092 0.76643 0.21727 0.0
C1704 C 0.09356 0.7569 0.25204 0.0
C1705 C 0.09545 0.76018 0.21655 0.0
C1706 C 0.06865 0.74477 0.26917 0.0
C1707 C 0.08204 0.74299 0.30415 0.0
N1708 N 0.08729 0.75554 0.23367 0.0
N1709 N 0.09023 0.74961 0.28755 0.0
H1710 H 0.29227 0.37324 0.30927 0.0
H1711 H 0.25131 0.34051 0.20457 0.0
H1712 H 0.28018 0.3296 0.28801 0.0
H1713 H 0.26064 0.38274 0.22844 0.0
H1714 H 0.26148 0.3361 0.23506 0.0
H1715 H 0.28059 0.37678 0.27975 0.0
C1716 C 0.28713 0.36438 0.29838 0.0
C1717 C 0.28722 0.35111 0.30106 0.0
C1718 C 0.26126 0.3463 0.23366 0.0
C1719 C 0.27383 0.3551 0.26715 0.0
C1720 C 0.25536 0.3488 0.2163 0.0
C1721 C 0.25511 0.36204 0.21389 0.0
C1722 C 0.267 0.35712 0.24876 0.0
C1723 C 0.26078 0.37247 0.22948 0.0
C1724 C 0.28044 0.3664 0.28152 0.0
C1725 C 0.28036 0.34 0.2865 0.0
N1726 N 0.26651 0.3698 0.2462 0.0
N1727 N 0.27398 0.34227 0.27012 0.0
H1728 H 0.2991 0.36378 0.41433 0.0
H1729 H 0.22098 0.31266 0.46752 0.0
H1730 H 0.26175 0.32689 0.38566 0.0
H1731 H 0.25714 0.35069 0.49611 0.0
H1732 H 0.23529 0.31896 0.43654 0.0
H1733 H 0.28351 0.36051 0.44354 0.0
C1734 C 0.28759 0.35509 0.41411 0.0
C1735 C 0.28173 0.34552 0.39763 0.0
C1736 C 0.24009 0.32601 0.44952 0.0
C1737 C 0.26388 0.34167 0.43095 0.0
C1738 C 0.23193 0.32238 0.46723 0.0
C1739 C 0.23794 0.33108 0.48446 0.0
C1740 C 0.25444 0.3384 0.44901 0.0
C1741 C 0.25208 0.34371 0.48315 0.0
C1742 C 0.2787 0.35322 0.43078 0.0
C1743 C 0.26675 0.33447 0.3981 0.0
N1744 N 0.25992 0.34691 0.46578 0.0
N1745 N 0.25838 0.33278 0.41453 0.0
H1746 H 0.65498 0.94589 0.41318 0.0
H1747 H 0.70656 0.91827 0.46337 0.0
H1748 H 0.6924 0.94705 0.38388 0.0
H1749 H 0.67107 0.9194 0.49491 0.0
H1750 H 0.69959 0.92618 0.43289 0.0
H1751 H 0.65879 0.93363 0.44202 0.0
C1752 C 0.66391 0.94344 0.41275 0.0
C1753 C 0.67346 0.94758 0.39619 0.0
C1754 C 0.69324 0.92462 0.44642 0.0
C1755 C 0.67789 0.93361 0.42907 0.0
C1756 C 0.69725 0.92014 0.46385 0.0
C1757 C 0.6895 0.91835 0.48177 0.0
C1758 C 0.68141 0.9274 0.44686 0.0
C1759 C 0.67733 0.92062 0.48141 0.0
C1760 C 0.66609 0.93647 0.42921 0.0
C1761 C 0.68483 0.94414 0.39639 0.0
N1762 N 0.67374 0.92517 0.46427 0.0
N1763 N 0.68677 0.93744 0.4126 0.0
H1764 H 0.05802 0.74729 0.40543 0.0
H1765 H 0.12164 0.75626 0.48087 0.0
H1766 H 0.07759 0.71944 0.40404 0.0
H1767 H 0.0942 0.77563 0.49182 0.0
H1768 H 0.10753 0.7449 0.45039 0.0
H1769 H 0.07308 0.75996 0.43493 0.0
C1770 C 0.0655 0.74386 0.41133 0.0
C1771 C 0.06654 0.73227 0.40234 0.0
C1772 C 0.10462 0.75166 0.45945 0.0
C1773 C 0.08385 0.74676 0.43593 0.0
C1774 C 0.11264 0.75812 0.47692 0.0
C1775 C 0.10904 0.76683 0.48911 0.0
C1776 C 0.09296 0.75399 0.45396 0.0
C1777 C 0.09748 0.76913 0.48286 0.0
C1778 C 0.07407 0.75107 0.42816 0.0
C1779 C 0.07641 0.72828 0.41056 0.0
N1780 N 0.08984 0.76271 0.46576 0.0
N1781 N 0.0847 0.73553 0.42686 0.0
H1782 H 0.32202 0.05393 0.73478 0.0
H1783 H 0.36253 0.12895 0.79825 0.0
H1784 H 0.36476 0.09076 0.71882 0.0
H1785 H 0.32751 0.08763 0.82194 0.0
H1786 H 0.36187 0.11619 0.76721 0.0
H1787 H 0.32203 0.06733 0.76488 0.0
C1788 C 0.33137 0.06487 0.73756 0.0
C1789 C 0.34343 0.07123 0.72435 0.0
C1790 C 0.35431 0.10996 0.77922 0.0
C1791 C 0.3435 0.08663 0.75867 0.0
C1792 C 0.35472 0.11721 0.79701 0.0
C1793 C 0.34506 0.1094 0.81286 0.0
C1794 C 0.34408 0.0948 0.77714 0.0
C1795 C 0.335 0.09423 0.8101 0.0
C1796 C 0.33139 0.07249 0.75476 0.0
C1797 C 0.35527 0.08543 0.72868 0.0
N1798 N 0.33477 0.08745 0.79262 0.0
N1799 N 0.355 0.09267 0.74547 0.0
H1800 H 0.92879 0.28866 0.72069 0.0
H1801 H 0.92194 0.25375 0.82977 0.0
H1802 H 0.96369 0.28402 0.74814 0.0
H1803 H 0.88776 0.25954 0.80222 0.0
H1804 H 0.93687 0.26341 0.79937 0.0
H1805 H 0.91318 0.27682 0.74986 0.0
C1806 C 0.93316 0.28511 0.73286 0.0
C1807 C 0.94758 0.28737 0.73203 0.0
C1808 C 0.92608 0.26251 0.79995 0.0
C1809 C 0.92975 0.2738 0.76555 0.0
C1810 C 0.9175 0.2569 0.81726 0.0
C1811 C 0.90358 0.25588 0.8186 0.0
C1812 C 0.9207 0.26713 0.78384 0.0
C1813 C 0.8985 0.26033 0.80199 0.0
C1814 C 0.92423 0.27834 0.74952 0.0
C1815 C 0.95265 0.28251 0.7482 0.0
N1816 N 0.90707 0.26578 0.78535 0.0
N1817 N 0.94375 0.27599 0.76434 0.0
H1818 H 0.72057 0.69076 0.75142 0.0
H1819 H 0.78681 0.68584 0.80481 0.0
H1820 H 0.74801 0.67686 0.721 0.0
H1821 H 0.75937 0.69993 0.83486 0.0
H1822 H 0.77299 0.68277 0.77383 0.0
H1823 H 0.73505 0.6947 0.78196 0.0
C1824 C 0.72968 0.68859 0.75116 0.0
C1825 C 0.73309 0.68346 0.73367 0.0
C1826 C 0.77002 0.68657 0.78719 0.0
C1827 C 0.74969 0.68788 0.76858 0.0
C1828 C 0.77786 0.68825 0.80492 0.0
C1829 C 0.77427 0.69317 0.82248 0.0
C1830 C 0.75846 0.68979 0.78702 0.0
C1831 C 0.76268 0.69632 0.82163 0.0
C1832 C 0.73794 0.69082 0.7686 0.0
C1833 C 0.745 0.68081 0.73417 0.0
N1834 N 0.75519 0.69454 0.80424 0.0
N1835 N 0.75286 0.68302 0.75136 0.0
H1836 H 0.74504 0.69444 0.6303 0.0
H1837 H 0.74841 0.64256 0.54472 0.0
H1838 H 0.71355 0.64773 0.62567 0.0
H1839 H 0.77321 0.6903 0.54229 0.0
H1840 H 0.73711 0.644 0.57604 0.0
H1841 H 0.75713 0.69287 0.59977 0.0
C1842 C 0.74069 0.68384 0.62287 0.0
C1843 C 0.72825 0.6712 0.63049 0.0
C1844 C 0.74504 0.65416 0.56866 0.0
C1845 C 0.74207 0.66931 0.59559 0.0
C1846 C 0.75147 0.65336 0.5507 0.0
C1847 C 0.76175 0.66634 0.54071 0.0
C1848 C 0.74897 0.66804 0.57681 0.0
C1849 C 0.76549 0.68 0.54951 0.0
C1850 C 0.74758 0.68296 0.60543 0.0
C1851 C 0.72308 0.65775 0.62026 0.0
N1852 N 0.75909 0.68048 0.56702 0.0
N1853 N 0.73003 0.65716 0.60335 0.0
H1854 H 0.37403 0.08189 0.62118 0.0
H1855 H 0.33281 0.10406 0.53952 0.0
H1856 H 0.32859 0.07134 0.62721 0.0
H1857 H 0.38044 0.12452 0.54259 0.0
H1858 H 0.33089 0.09137 0.57102 0.0
H1859 H 0.37648 0.09677 0.59154 0.0
C1860 C 0.36459 0.08275 0.6163 0.0
C1861 C 0.35108 0.07535 0.62663 0.0
C1862 C 0.34177 0.09871 0.56486 0.0
C1863 C 0.35376 0.09225 0.59269 0.0
C1864 C 0.34289 0.10606 0.5469 0.0
C1865 C 0.35682 0.1154 0.53826 0.0
C1866 C 0.35464 0.10056 0.57422 0.0
C1867 C 0.36945 0.11724 0.54842 0.0
C1868 C 0.366 0.09127 0.59942 0.0
C1869 C 0.33921 0.07687 0.61969 0.0
N1870 N 0.36805 0.10982 0.56577 0.0
N1871 N 0.3408 0.08506 0.60307 0.0
H1872 H 0.94737 0.29899 0.61922 0.0
H1873 H 0.9211 0.22124 0.56498 0.0
H1874 H 0.95231 0.26377 0.64478 0.0
H1875 H 0.91495 0.25572 0.5394 0.0
H1876 H 0.93173 0.23642 0.59489 0.0
H1877 H 0.93463 0.28309 0.59037 0.0
C1878 C 0.94572 0.2879 0.61879 0.0
C1879 C 0.95094 0.2827 0.63437 0.0
C1880 C 0.928 0.24066 0.58279 0.0
C1881 C 0.93643 0.26448 0.60147 0.0
C1882 C 0.92197 0.23201 0.56567 0.0
C1883 C 0.91718 0.23724 0.54961 0.0
C1884 C 0.92933 0.25471 0.5839 0.0
C1885 C 0.91837 0.25119 0.55149 0.0
C1886 C 0.93845 0.27883 0.60234 0.0
C1887 C 0.9485 0.26824 0.63307 0.0
N1888 N 0.92441 0.25948 0.56826 0.0
N1889 N 0.94148 0.25967 0.6169 0.0
H1890 H 0.32598 0.27171 0.62583 0.0
H1891 H 0.379 0.26869 0.54159 0.0
H1892 H 0.37312 0.30205 0.6242 0.0
H1893 H 0.33123 0.24462 0.53812 0.0
H1894 H 0.37739 0.27964 0.57324 0.0
H1895 H 0.32804 0.26008 0.59521 0.0
C1896 C 0.33678 0.27589 0.61905 0.0
C1897 C 0.3494 0.28789 0.62752 0.0
C1898 C 0.36728 0.27193 0.56554 0.0
C1899 C 0.35185 0.27462 0.59244 0.0
C1900 C 0.36818 0.26571 0.54742 0.0
C1901 C 0.35523 0.25568 0.53711 0.0
C1902 C 0.35333 0.26806 0.57347 0.0
C1903 C 0.34152 0.25209 0.54563 0.0
C1904 C 0.33795 0.26927 0.60154 0.0
C1905 C 0.36312 0.29285 0.61811 0.0
N1906 N 0.34094 0.25827 0.56326 0.0
N1907 N 0.36399 0.2862 0.60105 0.0
H1908 H 0.70914 0.06918 0.62021 0.0
H1909 H 0.78611 0.12002 0.56373 0.0
H1910 H 0.75165 0.08027 0.64513 0.0
H1911 H 0.74337 0.101 0.53484 0.0
H1912 H 0.77376 0.10811 0.59507 0.0
H1913 H 0.72164 0.08358 0.59029 0.0
C1914 C 0.72112 0.07474 0.61944 0.0
C1915 C 0.72938 0.07347 0.63511 0.0
C1916 C 0.7671 0.10661 0.58188 0.0
C1917 C 0.74374 0.08995 0.60094 0.0
C1918 C 0.77414 0.11336 0.56394 0.0
C1919 C 0.7658 0.11149 0.54652 0.0
C1920 C 0.75158 0.09796 0.58248 0.0
C1921 C 0.75029 0.10295 0.54788 0.0
C1922 C 0.72824 0.08292 0.60234 0.0
C1923 C 0.74486 0.08091 0.63334 0.0
N1924 N 0.7437 0.09648 0.5655 0.0
N1925 N 0.75155 0.0888 0.61653 0.0
H1926 H 0.93605 0.65072 0.63127 0.0
H1927 H 0.92311 0.69254 0.54023 0.0
H1928 H 0.95768 0.69827 0.62682 0.0
H1929 H 0.89446 0.64597 0.55221 0.0
H1930 H 0.93639 0.69478 0.57131 0.0
H1931 H 0.92134 0.6486 0.60157 0.0
C1932 C 0.93767 0.66071 0.62406 0.0
C1933 C 0.94811 0.67469 0.63147 0.0
C1934 C 0.92715 0.68409 0.56719 0.0
C1935 C 0.93139 0.67237 0.59746 0.0
C1936 C 0.91947 0.6828 0.54948 0.0
C1937 C 0.9076 0.66903 0.54351 0.0
C1938 C 0.92304 0.6715 0.57901 0.0
C1939 C 0.90367 0.65676 0.55598 0.0
C1940 C 0.92925 0.6595 0.60714 0.0
C1941 C 0.94975 0.68728 0.62159 0.0
N1942 N 0.91141 0.65827 0.57307 0.0
N1943 N 0.94153 0.68582 0.60502 0.0
H1944 H 0.93678 0.65988 0.73224 0.0
H1945 H 0.92764 0.71315 0.8095 0.0
H1946 H 0.96556 0.70727 0.73203 0.0
H1947 H 0.91045 0.66656 0.82023 0.0
H1948 H 0.93916 0.71115 0.77866 0.0
H1949 H 0.92435 0.6621 0.76196 0.0
C1950 C 0.94044 0.67077 0.73841 0.0
C1951 C 0.95225 0.68341 0.72971 0.0
C1952 C 0.93283 0.70138 0.78778 0.0
C1953 C 0.93803 0.68604 0.76367 0.0
C1954 C 0.92629 0.70251 0.80546 0.0
C1955 C 0.91805 0.69001 0.81764 0.0
C1956 C 0.93101 0.68764 0.78208 0.0
C1957 C 0.91646 0.67646 0.81127 0.0
C1958 C 0.93337 0.67202 0.7554 0.0
C1959 C 0.95654 0.69724 0.73833 0.0
N1960 N 0.92286 0.67565 0.79396 0.0
N1961 N 0.94941 0.6982 0.75484 0.0
H1962 H 0.34207 0.30376 0.7507 0.0
H1963 H 0.34609 0.23701 0.80342 0.0
H1964 H 0.3383 0.26639 0.71799 0.0
H1965 H 0.36369 0.28036 0.82966 0.0
H1966 H 0.33844 0.24554 0.77388 0.0
H1967 H 0.345 0.29304 0.78177 0.0
C1968 C 0.34163 0.29319 0.7501 0.0
C1969 C 0.34005 0.286 0.73173 0.0
C1970 C 0.34391 0.25314 0.78616 0.0
C1971 C 0.34346 0.27372 0.76717 0.0
C1972 C 0.34821 0.24828 0.80301 0.0
C1973 C 0.35564 0.25805 0.81888 0.0
C1974 C 0.34688 0.26782 0.78533 0.0
C1975 C 0.35818 0.27255 0.81761 0.0
C1976 C 0.34339 0.28712 0.76781 0.0
C1977 C 0.33958 0.27234 0.73182 0.0
N1978 N 0.35381 0.277 0.80112 0.0
N1979 N 0.34135 0.26666 0.74927 0.0
H1980 H 0.7334 0.04775 0.74651 0.0
H1981 H 0.78106 0.12513 0.80296 0.0
H1982 H 0.73695 0.08848 0.72557 0.0
H1983 H 0.76442 0.08291 0.83247 0.0
H1984 H 0.7681 0.11218 0.77243 0.0
H1985 H 0.74803 0.06085 0.77614 0.0
C1986 C 0.73731 0.05945 0.74812 0.0
C1987 C 0.73391 0.06704 0.73365 0.0
C1988 C 0.76735 0.10578 0.7856 0.0
C1989 C 0.75071 0.08208 0.76732 0.0
C1990 C 0.7747 0.11316 0.80309 0.0
C1991 C 0.77381 0.10515 0.82047 0.0
C1992 C 0.75916 0.09025 0.78535 0.0
C1993 C 0.76565 0.0896 0.81946 0.0
C1994 C 0.74561 0.06691 0.76503 0.0
C1995 C 0.73925 0.0822 0.73645 0.0
N1996 N 0.75864 0.08268 0.80222 0.0
N1997 N 0.74741 0.08924 0.75294 0.0
H1998 H 0.03734 0.35384 0.02187 0.0
H1999 H 0.1075 0.38404 0.09237 0.0
H2000 H 0.06233 0.39975 0.03934 0.0
H2001 H 0.09164 0.34435 0.05686 0.0
H2002 H 0.09143 0.39032 0.07327 0.0
H2003 H 0.0571 0.35016 0.035 0.0
C2004 C 0.04707 0.36318 0.02835 0.0
C2005 C 0.0482 0.3771 0.02962 0.0
C2006 C 0.09162 0.38034 0.06952 0.0
C2007 C 0.07078 0.37293 0.04491 0.0
C2008 C 0.10087 0.37676 0.08034 0.0
C2009 C 0.10084 0.36353 0.07643 0.0
C2010 C 0.08213 0.37053 0.05484 0.0
C2011 C 0.09179 0.35448 0.0608 0.0
C2012 C 0.05836 0.36109 0.03577 0.0
C2013 C 0.06105 0.38884 0.03807 0.0
N2014 N 0.08268 0.35804 0.05078 0.0
N2015 N 0.07178 0.38644 0.04566 0.0
H2016 H 0.64429 0.69159 0.01216 0.0
H2017 H 0.64984 0.7384 0.10989 0.0
H2018 H 0.64709 0.67836 0.07251 0.0
H2019 H 0.66627 0.75923 0.05245 0.0
H2020 H 0.64289 0.71447 0.09487 0.0
H2021 H 0.64705 0.71484 0.02546 0.0
C2022 C 0.64536 0.69354 0.02818 0.0
C2023 C 0.64557 0.68313 0.04127 0.0
C2024 C 0.64787 0.72426 0.0855 0.0
C2025 C 0.64847 0.70939 0.05648 0.0
C2026 C 0.65171 0.7379 0.09401 0.0
C2027 C 0.65868 0.75084 0.08241 0.0
C2028 C 0.65091 0.72348 0.06519 0.0
C2029 C 0.66103 0.74953 0.06195 0.0
C2030 C 0.64697 0.70677 0.03572 0.0
C2031 C 0.64701 0.68615 0.06189 0.0
N2032 N 0.6572 0.73608 0.05397 0.0
N2033 N 0.64836 0.69897 0.06886 0.0
H2034 H 0.33318 0.99115 0.06048 0.0
H2035 H 0.27503 0.90428 0.05987 0.0
H2036 H 0.33331 0.96133 0.01586 0.0
H2037 H 0.27358 0.93509 0.1016 0.0
H2038 H 0.29531 0.92508 0.04211 0.0
H2039 H 0.31038 0.97086 0.07442 0.0
C2040 C 0.32836 0.98033 0.05356 0.0
C2041 C 0.33519 0.97789 0.03707 0.0
C2042 C 0.29044 0.92729 0.05502 0.0
C2043 C 0.30908 0.95455 0.053 0.0
C2044 C 0.27888 0.91542 0.06519 0.0
C2045 C 0.27261 0.91791 0.08232 0.0
C2046 C 0.29586 0.94178 0.06211 0.0
C2047 C 0.27794 0.93261 0.08837 0.0
C2048 C 0.31532 0.96874 0.0615 0.0
C2049 C 0.32843 0.96367 0.02864 0.0
N2050 N 0.28932 0.94394 0.07841 0.0
N2051 N 0.3158 0.9525 0.03679 0.0
H2052 H 0.34571 0.0285 0.98069 0.0
H2053 H 0.37903 0.11433 0.95573 0.0
H2054 H 0.38731 0.06288 0.0045 0.0
H2055 H 0.33507 0.08016 0.93881 0.0
H2056 H 0.38227 0.09584 0.97409 0.0
H2057 H 0.34155 0.04742 0.96564 0.0
C2058 C 0.35394 0.04005 0.98282 0.0
C2059 C 0.3669 0.04413 0.9938 0.0
C2060 C 0.37187 0.09242 0.96649 0.0
C2061 C 0.36225 0.06588 0.97652 0.0
C2062 C 0.37004 0.10296 0.95596 0.0
C2063 C 0.35676 0.09879 0.94571 0.0
C2064 C 0.3604 0.07758 0.96663 0.0
C2065 C 0.34542 0.08392 0.94667 0.0
C2066 C 0.35155 0.05086 0.97425 0.0
C2067 C 0.37718 0.05926 0.99612 0.0
N2068 N 0.34755 0.07386 0.95681 0.0
N2069 N 0.37468 0.06959 0.98745 0.0
H2070 H 0.98935 0.33821 0.97213 0.0
H2071 H 0.90193 0.28129 0.97116 0.0
H2072 H 0.9592 0.34197 0.01267 0.0
H2073 H 0.933 0.28126 0.92847 0.0
H2074 H 0.92257 0.30225 0.98839 0.0
H2075 H 0.9687 0.31594 0.95802 0.0
C2076 C 0.97835 0.33431 0.97812 0.0
C2077 C 0.97597 0.342 0.99353 0.0
C2078 C 0.92483 0.29755 0.97533 0.0
C2079 C 0.95214 0.31641 0.97732 0.0
C2080 C 0.91306 0.28562 0.96544 0.0
C2081 C 0.91569 0.27942 0.94833 0.0
C2082 C 0.93933 0.30332 0.96804 0.0
C2083 C 0.93039 0.28542 0.94177 0.0
C2084 C 0.96654 0.32157 0.97003 0.0
C2085 C 0.96149 0.33638 0.00075 0.0
N2086 N 0.94158 0.29701 0.95158 0.0
N2087 N 0.95008 0.32393 0.99251 0.0
H2088 H 0.69513 0.65589 0.02666 0.0
H2089 H 0.73851 0.66734 0.92407 0.0
H2090 H 0.67936 0.66162 0.96943 0.0
H2091 H 0.76201 0.68207 0.98022 0.0
H2092 H 0.71547 0.66094 0.9414 0.0
H2093 H 0.7188 0.66192 0.01075 0.0
C2094 C 0.69667 0.65847 0.01081 0.0
C2095 C 0.6853 0.65829 0.99933 0.0
C2096 C 0.72565 0.66551 0.94997 0.0
C2097 C 0.71205 0.66486 0.98112 0.0
C2098 C 0.73878 0.66903 0.94013 0.0
C2099 C 0.75217 0.67519 0.95076 0.0
C2100 C 0.72583 0.668 0.97066 0.0
C2101 C 0.7519 0.67739 0.9715 0.0
C2102 C 0.71014 0.66191 0.00178 0.0
C2103 C 0.68784 0.66169 0.97886 0.0
N2104 N 0.7389 0.67374 0.98084 0.0
N2105 N 0.70088 0.6647 0.97039 0.0
H2106 H 0.99201 0.67488 0.97771 0.0
H2107 H 0.90779 0.65331 0.95919 0.0
H2108 H 0.95549 0.63762 0.00699 0.0
H2109 H 0.94576 0.69428 0.94013 0.0
H2110 H 0.92456 0.64667 0.97616 0.0
H2111 H 0.97476 0.68153 0.96317 0.0
C2112 C 0.98033 0.6681 0.98112 0.0
C2113 C 0.97517 0.65567 0.99356 0.0
C2114 C 0.92917 0.65715 0.96838 0.0
C2115 C 0.95524 0.66319 0.97683 0.0
C2116 C 0.91962 0.66092 0.95864 0.0
C2117 C 0.92537 0.67442 0.94833 0.0
C2118 C 0.94455 0.66689 0.96757 0.0
C2119 C 0.94079 0.68388 0.94817 0.0
C2120 C 0.97046 0.67192 0.97284 0.0
C2121 C 0.95991 0.64731 0.99749 0.0
N2122 N 0.9498 0.67991 0.95753 0.0
N2123 N 0.95044 0.65118 0.98905 0.0
H2124 H 0.35281 0.32567 0.99953 0.0
H2125 H 0.39964 0.29547 0.94526 0.0
H2126 H 0.40049 0.34798 0.00307 0.0
H2127 H 0.35373 0.26683 0.96134 0.0
H2128 H 0.40017 0.31488 0.96601 0.0
H2129 H 0.3527 0.30412 0.98493 0.0
C2130 C 0.36324 0.32597 0.9974 0.0
C2131 C 0.37668 0.33864 0.00241 0.0
C2132 C 0.39003 0.30429 0.96516 0.0
C2133 C 0.37666 0.31413 0.98552 0.0
C2134 C 0.38972 0.2931 0.9534 0.0
C2135 C 0.37658 0.27939 0.95136 0.0
C2136 C 0.37706 0.30192 0.97476 0.0
C2137 C 0.36403 0.27727 0.96202 0.0
C2138 C 0.36317 0.31366 0.98912 0.0
C2139 C 0.38988 0.33843 0.9994 0.0
N2140 N 0.36453 0.28846 0.97305 0.0
N2141 N 0.38955 0.32645 0.9909 0.0
H2142 H 0.67321 0.03172 0.95923 0.0
H2143 H 0.7525 0.10298 0.9758 0.0
H2144 H 0.68563 0.0543 0.01621 0.0
H2145 H 0.73127 0.08941 0.91801 0.0
H2146 H 0.72938 0.08413 0.9917 0.0
H2147 H 0.69588 0.05161 0.94454 0.0
C2148 C 0.68074 0.04089 0.96866 0.0
C2149 C 0.67755 0.04139 0.98896 0.0
C2150 C 0.7298 0.08541 0.97556 0.0
C2151 C 0.70361 0.06417 0.97225 0.0
C2152 C 0.74296 0.09609 0.9665 0.0
C2153 C 0.74375 0.09779 0.94558 0.0
C2154 C 0.71751 0.07622 0.96354 0.0
C2155 C 0.73109 0.08861 0.9342 0.0
C2156 C 0.69365 0.05227 0.96024 0.0
C2157 C 0.68768 0.05355 0.00047 0.0
N2158 N 0.71856 0.07816 0.9433 0.0
N2159 N 0.70035 0.06445 0.99198 0.0
H2160 H 0.63609 0.95847 0.01762 0.0
H2161 H 0.69713 0.95241 0.08314 0.0
H2162 H 0.67254 0.99536 0.04764 0.0
H2163 H 0.65555 0.9143 0.06613 0.0
H2164 H 0.68997 0.96828 0.06548 0.0
H2165 H 0.6446 0.94212 0.031 0.0
C2166 C 0.64592 0.96313 0.02691 0.0
C2167 C 0.65359 0.97827 0.03163 0.0
C2168 C 0.68243 0.95644 0.06548 0.0
C2169 C 0.6634 0.95972 0.04684 0.0
C2170 C 0.68658 0.94734 0.07541 0.0
C2171 C 0.67693 0.93198 0.07613 0.0
C2172 C 0.66853 0.95017 0.05611 0.0
C2173 C 0.66327 0.92609 0.06612 0.0
C2174 C 0.65075 0.95381 0.03457 0.0
C2175 C 0.66626 0.98375 0.04373 0.0
N2176 N 0.65945 0.9352 0.05655 0.0
N2177 N 0.67076 0.97448 0.05091 0.0
H2178 H 0.02975 0.69172 0.04794 0.0
H2179 H 0.11654 0.73272 0.07008 0.0
H2180 H 0.05893 0.67861 0.02084 0.0
H2181 H 0.08769 0.74834 0.09102 0.0
H2182 H 0.09608 0.71382 0.05016 0.0
H2183 H 0.05121 0.71343 0.06206 0.0
C2184 C 0.04071 0.69348 0.04485 0.0
C2185 C 0.04257 0.6833 0.03332 0.0
C2186 C 0.09428 0.72149 0.05893 0.0
C2187 C 0.06724 0.70812 0.04959 0.0
C2188 C 0.10593 0.73225 0.07035 0.0
C2189 C 0.1038 0.74207 0.08236 0.0
C2190 C 0.08033 0.72043 0.05965 0.0
C2191 C 0.08989 0.74109 0.0819 0.0
C2192 C 0.05297 0.7059 0.05289 0.0
C2193 C 0.05701 0.68617 0.0297 0.0
N2194 N 0.07866 0.73037 0.07093 0.0
N2195 N 0.06881 0.69825 0.03798 0.0
H2196 H 0.32743 0.3503 0.0453 0.0
H2197 H 0.2896 0.39484 0.08345 0.0
H2198 H 0.34375 0.39586 0.02899 0.0
H2199 H 0.26435 0.34742 0.07508 0.0
H2200 H 0.31004 0.3955 0.06516 0.0
H2201 H 0.30479 0.34893 0.05829 0.0
C2202 C 0.3262 0.35998 0.04435 0.0
C2203 C 0.33748 0.37323 0.03614 0.0
C2204 C 0.29996 0.38497 0.06716 0.0
C2205 C 0.31178 0.37179 0.05114 0.0
C2206 C 0.28816 0.38456 0.0775 0.0
C2207 C 0.27507 0.37103 0.08094 0.0
C2208 C 0.29889 0.37175 0.06049 0.0
C2209 C 0.27425 0.35809 0.07324 0.0
C2210 C 0.31327 0.35917 0.05168 0.0
C2211 C 0.33532 0.38543 0.0352 0.0
N2212 N 0.28606 0.35876 0.06359 0.0
N2213 N 0.3228 0.38447 0.04285 0.0
H2214 H 0.71777 0.70351 0.33968 0.0
H2215 H 0.76195 0.70532 0.43874 0.0
H2216 H 0.71327 0.71975 0.39718 0.0
H2217 H 0.76284 0.68365 0.38409 0.0
H2218 H 0.74726 0.7142 0.42178 0.0
H2219 H 0.73714 0.69942 0.35387 0.0
C2220 C 0.72099 0.70638 0.3552 0.0
C2221 C 0.71384 0.71186 0.36734 0.0
C2222 C 0.75076 0.70761 0.4134 0.0
C2223 C 0.73589 0.70722 0.38362 0.0
C2224 C 0.7593 0.70264 0.42305 0.0
C2225 C 0.76362 0.69365 0.41287 0.0
C2226 C 0.74641 0.70354 0.39341 0.0
C2227 C 0.75957 0.69035 0.39262 0.0
C2228 C 0.73199 0.70401 0.3633 0.0
C2229 C 0.71841 0.71539 0.38734 0.0
N2230 N 0.7511 0.6952 0.38358 0.0
N2231 N 0.72907 0.71294 0.39486 0.0
H2232 H 0.30852 0.02497 0.34308 0.0
H2233 H 0.32696 0.07432 0.44146 0.0
H2234 H 0.32182 0.01427 0.39893 0.0
H2235 H 0.33658 0.09418 0.38266 0.0
H2236 H 0.31953 0.05033 0.42616 0.0
H2237 H 0.31381 0.04883 0.35751 0.0
C2238 C 0.31249 0.02763 0.35837 0.0
C2239 C 0.31481 0.01771 0.36984 0.0
C2240 C 0.32317 0.05992 0.4166 0.0
C2241 C 0.32056 0.04464 0.3864 0.0
C2242 C 0.32727 0.07357 0.42528 0.0
C2243 C 0.33236 0.08622 0.41328 0.0
C2244 C 0.32396 0.05884 0.39573 0.0
C2245 C 0.33277 0.08467 0.39241 0.0
C2246 C 0.31554 0.04121 0.36653 0.0
C2247 C 0.31998 0.02165 0.38955 0.0
N2248 N 0.32858 0.07118 0.38424 0.0
N2249 N 0.32259 0.03477 0.39725 0.0
H2250 H 0.99736 0.29416 0.34798 0.0
H2251 H 0.94189 0.26872 0.44153 0.0
H2252 H 0.00115 0.32249 0.39741 0.0
H2253 H 0.93903 0.2386 0.39511 0.0
H2254 H 0.96222 0.28897 0.42359 0.0
H2255 H 0.97478 0.27409 0.36318 0.0
C2256 C 0.99338 0.29618 0.36194 0.0
C2257 C 0.00116 0.30998 0.37151 0.0
C2258 C 0.95712 0.27796 0.41722 0.0
C2259 C 0.97542 0.28714 0.38894 0.0
C2260 C 0.94538 0.26637 0.42739 0.0
C2261 C 0.93866 0.25189 0.41981 0.0
C2262 C 0.96231 0.27512 0.3993 0.0
C2263 C 0.94396 0.24955 0.40162 0.0
C2264 C 0.98052 0.28473 0.37062 0.0
C2265 C 0.99554 0.31201 0.38957 0.0
N2266 N 0.9555 0.26104 0.39201 0.0
N2267 N 0.98306 0.30072 0.3977 0.0
H2268 H 0.05258 0.39502 0.35085 0.0
H2269 H 0.01353 0.41976 0.26899 0.0
H2270 H 0.01554 0.36446 0.31449 0.0
H2271 H 0.04853 0.45057 0.30797 0.0
H2272 H 0.01255 0.39935 0.28782 0.0
H2273 H 0.04998 0.4154 0.33745 0.0
C2274 C 0.04382 0.39258 0.34018 0.0
C2275 C 0.03433 0.37804 0.33364 0.0
C2276 C 0.02035 0.41057 0.29241 0.0
C2277 C 0.03133 0.4013 0.31817 0.0
C2278 C 0.02083 0.42228 0.28176 0.0
C2279 C 0.0312 0.43698 0.28678 0.0
C2280 C 0.03038 0.4135 0.30817 0.0
C2281 C 0.04054 0.43944 0.30329 0.0
C2282 C 0.04233 0.40422 0.33253 0.0
C2283 C 0.02315 0.37551 0.31985 0.0
N2284 N 0.04001 0.42783 0.31326 0.0
N2285 N 0.02204 0.38704 0.31246 0.0
H2286 H 0.62584 0.67174 0.33679 0.0
H2287 H 0.61542 0.59647 0.29007 0.0
H2288 H 0.66149 0.66274 0.3276 0.0
H2289 H 0.58017 0.60664 0.29321 0.0
H2290 H 0.63166 0.61946 0.30771 0.0
H2291 H 0.60827 0.64685 0.32447 0.0
C2292 C 0.62995 0.66448 0.33234 0.0
C2293 C 0.64514 0.66933 0.33309 0.0
C2294 C 0.62034 0.61663 0.30468 0.0
C2295 C 0.62516 0.6409 0.319 0.0
C2296 C 0.611 0.60342 0.29474 0.0
C2297 C 0.59639 0.59961 0.29007 0.0
C2298 C 0.61509 0.62619 0.31001 0.0
C2299 C 0.59141 0.60923 0.29624 0.0
C2300 C 0.61993 0.65029 0.32528 0.0
C2301 C 0.64987 0.65948 0.32716 0.0
N2302 N 0.60076 0.6221 0.3058 0.0
N2303 N 0.63993 0.64578 0.3203 0.0
H2304 H 0.35568 0.98138 0.35164 0.0
H2305 H 0.39994 0.99288 0.24931 0.0
H2306 H 0.341 0.98783 0.29398 0.0
H2307 H 0.42129 0.00059 0.30702 0.0
H2308 H 0.37709 0.98784 0.2659 0.0
H2309 H 0.37883 0.98562 0.336 0.0
C2310 C 0.35733 0.98368 0.33572 0.0
C2311 C 0.34644 0.98428 0.32407 0.0
C2312 C 0.38675 0.9906 0.27498 0.0
C2313 C 0.37268 0.98897 0.30617 0.0
C2314 C 0.39977 0.99336 0.26553 0.0
C2315 C 0.41252 0.99709 0.27681 0.0
C2316 C 0.38636 0.99148 0.29595 0.0
C2317 C 0.41171 0.99782 0.29777 0.0
C2318 C 0.37052 0.98612 0.32684 0.0
C2319 C 0.34911 0.9873 0.30353 0.0
N2320 N 0.39882 0.99499 0.3067 0.0
N2321 N 0.36192 0.98947 0.29524 0.0
H2322 H 0.64588 0.99983 0.3299 0.0
H2323 H 0.56713 0.95526 0.27823 0.0
H2324 H 0.61871 0.95234 0.33395 0.0
H2325 H 0.58745 0.0018 0.29235 0.0
H2326 H 0.58586 0.95393 0.29842 0.0
H2327 H 0.62481 0.00091 0.31573 0.0
C2328 C 0.63543 0.98964 0.32796 0.0
C2329 C 0.63403 0.97597 0.333 0.0
C2330 C 0.58612 0.9644 0.29727 0.0
C2331 C 0.60996 0.9771 0.3166 0.0
C2332 C 0.57534 0.96517 0.28582 0.0
C2333 C 0.57566 0.9787 0.28341 0.0
C2334 C 0.59749 0.97727 0.30618 0.0
C2335 C 0.58688 0.99119 0.29336 0.0
C2336 C 0.62341 0.99027 0.31992 0.0
C2337 C 0.62025 0.96311 0.33024 0.0
N2338 N 0.59742 0.9902 0.30411 0.0
N2339 N 0.60879 0.96397 0.322 0.0
H2340 H 0.04819 0.66731 0.35241 0.0
H2341 H 0.01283 0.60798 0.26369 0.0
H2342 H 0.0196 0.66831 0.30643 0.0
H2343 H 0.04506 0.60925 0.30545 0.0
H2344 H 0.01254 0.62793 0.28222 0.0
H2345 H 0.0449 0.64426 0.33808 0.0
C2346 C 0.04115 0.66263 0.33937 0.0
C2347 C 0.03424 0.66978 0.3305 0.0
C2348 C 0.01958 0.62377 0.28746 0.0
C2349 C 0.0304 0.64343 0.31407 0.0
C2350 C 0.01964 0.61224 0.277 0.0
C2351 C 0.02904 0.60695 0.28295 0.0
C2352 C 0.02901 0.63012 0.30402 0.0
C2353 C 0.0378 0.61313 0.30014 0.0
C2354 C 0.03928 0.64949 0.3312 0.0
C2355 C 0.02521 0.66322 0.31367 0.0
N2356 N 0.03766 0.62446 0.30999 0.0
N2357 N 0.0236 0.65045 0.30597 0.0
H2358 H 0.35382 0.39504 0.35415 0.0
H2359 H 0.41544 0.41308 0.27074 0.0
H2360 H 0.35451 0.36242 0.31522 0.0
H2361 H 0.41727 0.44607 0.31152 0.0
H2362 H 0.3943 0.39415 0.28904 0.0
H2363 H 0.37799 0.41364 0.34079 0.0
C2364 C 0.35912 0.39177 0.34295 0.0
C2365 C 0.35211 0.37721 0.33566 0.0
C2366 C 0.39938 0.4055 0.29414 0.0
C2367 C 0.37965 0.39837 0.32027 0.0
C2368 C 0.41159 0.41636 0.28377 0.0
C2369 C 0.41821 0.43127 0.28952 0.0
C2370 C 0.39355 0.40952 0.31034 0.0
C2371 C 0.41241 0.43476 0.30631 0.0
C2372 C 0.3729 0.40238 0.33532 0.0
C2373 C 0.35947 0.37354 0.32117 0.0
N2374 N 0.40034 0.42399 0.31603 0.0
N2375 N 0.37277 0.38407 0.31387 0.0
H2376 H 0.31128 0.30068 0.34194 0.0
H2377 H 0.31818 0.26047 0.44004 0.0
H2378 H 0.31269 0.31609 0.40235 0.0
H2379 H 0.33335 0.25534 0.38204 0.0
H2380 H 0.31069 0.27703 0.42512 0.0
H2381 H 0.3145 0.28052 0.35533 0.0
C2382 C 0.31215 0.29975 0.358 0.0
C2383 C 0.31183 0.3101 0.37108 0.0
C2384 C 0.31553 0.27217 0.41561 0.0
C2385 C 0.3153 0.28711 0.38639 0.0
C2386 C 0.31967 0.26259 0.42407 0.0
C2387 C 0.32644 0.25653 0.41228 0.0
C2388 C 0.31809 0.2757 0.39516 0.0
C2389 C 0.32831 0.25989 0.39171 0.0
C2390 C 0.31402 0.2883 0.3656 0.0
C2391 C 0.31301 0.30842 0.39173 0.0
N2392 N 0.3242 0.26931 0.38379 0.0
N2393 N 0.31467 0.29715 0.39874 0.0
H2394 H 0.69283 0.00795 0.40418 0.0
H2395 H 0.76307 0.08865 0.39028 0.0
H2396 H 0.71596 0.02245 0.34777 0.0
H2397 H 0.74837 0.06699 0.44758 0.0
H2398 H 0.74461 0.06569 0.37372 0.0
H2399 H 0.71173 0.03088 0.41971 0.0
C2400 C 0.70188 0.016 0.39504 0.0
C2401 C 0.70285 0.0133 0.37467 0.0
C2402 C 0.74552 0.06598 0.3899 0.0
C2403 C 0.72452 0.03962 0.39235 0.0
C2404 C 0.75599 0.07906 0.39934 0.0
C2405 C 0.7573 0.07968 0.42031 0.0
C2406 C 0.73615 0.05356 0.40158 0.0
C2407 C 0.74789 0.06694 0.43136 0.0
C2408 C 0.7127 0.02905 0.40394 0.0
C2409 C 0.71484 0.0241 0.36355 0.0
N2410 N 0.73767 0.05445 0.42188 0.0
N2411 N 0.7252 0.03684 0.37252 0.0
H2412 H 0.9945 0.67897 0.38406 0.0
H2413 H 0.93528 0.70469 0.40471 0.0
H2414 H 1.0 0.72011 0.36141 0.0
H2415 H 0.92882 0.66162 0.41951 0.0
H2416 H 0.95891 0.71092 0.38874 0.0
H2417 H 0.9703 0.67275 0.39712 0.0
C2418 C 0.99059 0.6867 0.3818 0.0
C2419 C 0.99929 0.70009 0.37168 0.0
C2420 C 0.95222 0.70007 0.39535 0.0
C2421 C 0.97149 0.69306 0.38672 0.0
C2422 C 0.93877 0.69653 0.40452 0.0
C2423 C 0.92998 0.68257 0.41339 0.0
C2424 C 0.95696 0.68963 0.39524 0.0
C2425 C 0.93504 0.67241 0.41258 0.0
C2426 C 0.97673 0.68313 0.38924 0.0
C2427 C 0.99362 0.70966 0.36914 0.0
N2428 N 0.94817 0.67617 0.40379 0.0
N2429 N 0.98008 0.706 0.37672 0.0
H2430 H 0.39421 0.0516 0.68212 0.0
H2431 H 0.40116 0.99507 0.75626 0.0
H2432 H 0.35748 0.01564 0.71303 0.0
H2433 H 0.43923 0.03282 0.73023 0.0
H2434 H 0.38506 0.00162 0.73817 0.0
H2435 H 0.41091 0.04418 0.6974 0.0
C2436 C 0.38966 0.04211 0.69202 0.0
C2437 C 0.37445 0.03425 0.69638 0.0
C2438 C 0.39693 0.00847 0.73629 0.0
C2439 C 0.39343 0.02573 0.71386 0.0
C2440 C 0.40616 0.00465 0.74651 0.0
C2441 C 0.42162 0.01334 0.74469 0.0
C2442 C 0.40311 0.02113 0.72412 0.0
C2443 C 0.4274 0.02585 0.7322 0.0
C2444 C 0.39919 0.03791 0.70076 0.0
C2445 C 0.36913 0.02205 0.7093 0.0
N2446 N 0.41813 0.02939 0.72239 0.0
N2447 N 0.3786 0.0182 0.71759 0.0
H2448 H 0.96885 0.35309 0.67725 0.0
H2449 H 0.00846 0.41674 0.75964 0.0
H2450 H 0.00053 0.35512 0.7206 0.0
H2451 H 0.97473 0.41383 0.71929 0.0
H2452 H 0.00848 0.39643 0.74176 0.0
H2453 H 0.97324 0.37716 0.68915 0.0
C2454 C 0.97681 0.35866 0.68915 0.0
C2455 C 0.98423 0.35205 0.6981 0.0
C2456 C 0.00118 0.40033 0.73665 0.0
C2457 C 0.98932 0.37953 0.71175 0.0
C2458 C 0.00128 0.41207 0.74674 0.0
C2459 C 0.99148 0.41695 0.7411 0.0
C2460 C 0.99116 0.39333 0.72083 0.0
C2461 C 0.98228 0.41025 0.72441 0.0
C2462 C 0.97932 0.37239 0.69593 0.0
C2463 C 0.99447 0.35976 0.7134 0.0
N2464 N 0.98223 0.39868 0.715 0.0
N2465 N 0.99664 0.37303 0.71981 0.0
H2466 H 0.68031 0.62357 0.70792 0.0
H2467 H 0.59499 0.58716 0.73921 0.0
H2468 H 0.65417 0.64437 0.69735 0.0
H2469 H 0.62431 0.57257 0.76194 0.0
H2470 H 0.61544 0.60597 0.71929 0.0
H2471 H 0.65867 0.60249 0.72309 0.0
C2472 C 0.66998 0.62364 0.70864 0.0
C2473 C 0.66905 0.63577 0.70151 0.0
C2474 C 0.61734 0.59856 0.72854 0.0
C2475 C 0.64426 0.61171 0.71882 0.0
C2476 C 0.60568 0.58785 0.73999 0.0
C2477 C 0.6079 0.57828 0.75245 0.0
C2478 C 0.63132 0.59971 0.72944 0.0
C2479 C 0.62196 0.57954 0.75244 0.0
C2480 C 0.65765 0.61162 0.71734 0.0
C2481 C 0.65538 0.63528 0.70279 0.0
N2482 N 0.63313 0.59009 0.74122 0.0
N2483 N 0.64353 0.62346 0.71135 0.0
H2484 H 0.68104 0.69297 0.64204 0.0
H2485 H 0.71029 0.77986 0.64059 0.0
H2486 H 0.71439 0.72415 0.68249 0.0
H2487 H 0.67727 0.74855 0.59987 0.0
H2488 H 0.70993 0.75931 0.65863 0.0
H2489 H 0.67759 0.71285 0.62882 0.0
C2490 C 0.68757 0.70399 0.64823 0.0
C2491 C 0.6981 0.70695 0.66327 0.0
C2492 C 0.70264 0.75692 0.64589 0.0
C2493 C 0.69426 0.72979 0.64816 0.0
C2494 C 0.70285 0.76865 0.63557 0.0
C2495 C 0.69389 0.76595 0.61858 0.0
C2496 C 0.69346 0.74236 0.63912 0.0
C2497 C 0.6843 0.75118 0.61295 0.0
C2498 C 0.68559 0.71534 0.64069 0.0
C2499 C 0.7062 0.72141 0.67081 0.0
N2500 N 0.68446 0.73997 0.62305 0.0
N2501 N 0.70419 0.73232 0.66307 0.0
H2502 H 0.31896 0.01291 0.62096 0.0
H2503 H 0.25326 0.93149 0.64196 0.0
H2504 H 0.29903 0.99983 0.67952 0.0
H2505 H 0.26136 0.95187 0.5836 0.0
H2506 H 0.27091 0.95565 0.65649 0.0
H2507 H 0.29905 0.9897 0.60721 0.0
C2508 C 0.31038 0.00514 0.63091 0.0
C2509 C 0.31064 0.00826 0.6514 0.0
C2510 C 0.26866 0.95484 0.64055 0.0
C2511 C 0.28791 0.98164 0.63581 0.0
C2512 C 0.25863 0.94109 0.63227 0.0
C2513 C 0.25583 0.93971 0.61157 0.0
C2514 C 0.27616 0.9672 0.62796 0.0
C2515 C 0.26308 0.95247 0.59966 0.0
C2516 C 0.29898 0.99194 0.62305 0.0
C2517 C 0.29921 0.99784 0.66362 0.0
N2518 N 0.27304 0.96564 0.60798 0.0
N2519 N 0.28836 0.9849 0.65568 0.0
H2520 H 0.01391 0.29677 0.6836 0.0
H2521 H 0.08239 0.33966 0.60855 0.0
H2522 H 0.02185 0.33468 0.64835 0.0
H2523 H 0.06889 0.29645 0.63286 0.0
H2524 H 0.06323 0.34053 0.62858 0.0
H2525 H 0.03681 0.29893 0.67029 0.0
C2526 C 0.02055 0.30563 0.67324 0.0
C2527 C 0.01592 0.31547 0.6669 0.0
C2528 C 0.06457 0.33092 0.6297 0.0
C2529 C 0.04207 0.31803 0.6517 0.0
C2530 C 0.07558 0.33048 0.6184 0.0
C2531 C 0.07714 0.3179 0.61891 0.0
C2532 C 0.05507 0.31873 0.64164 0.0
C2533 C 0.0679 0.30625 0.63179 0.0
C2534 C 0.03359 0.30685 0.66562 0.0
C2535 C 0.02495 0.32677 0.65348 0.0
N2536 N 0.05718 0.3069 0.64254 0.0
N2537 N 0.03755 0.32771 0.64625 0.0
H2538 H 0.3241 0.33446 0.64277 0.0
H2539 H 0.23637 0.30061 0.63888 0.0
H2540 H 0.29358 0.29819 0.68013 0.0
H2541 H 0.26761 0.3368 0.60195 0.0
H2542 H 0.25711 0.30105 0.65668 0.0
H2543 H 0.30355 0.33702 0.63023 0.0
C2544 C 0.31306 0.32708 0.64844 0.0
C2545 C 0.31051 0.31601 0.66238 0.0
C2546 C 0.25941 0.309 0.64483 0.0
C2547 C 0.28686 0.31881 0.64799 0.0
C2548 C 0.24758 0.30873 0.63462 0.0
C2549 C 0.25023 0.31862 0.61878 0.0
C2550 C 0.27401 0.31919 0.6391 0.0
C2551 C 0.26499 0.32905 0.61415 0.0
C2552 C 0.30132 0.32855 0.64128 0.0
C2553 C 0.296 0.30683 0.6693 0.0
N2554 N 0.27629 0.32896 0.62412 0.0
N2555 N 0.28469 0.30835 0.6619 0.0
H2556 H 0.70857 0.01642 0.62723 0.0
H2557 H 0.69874 0.93634 0.63627 0.0
H2558 H 0.70782 0.99785 0.68527 0.0
H2559 H 0.7229 0.96616 0.58792 0.0
H2560 H 0.69803 0.95679 0.65368 0.0
H2561 H 0.70961 0.99586 0.61141 0.0
C2562 C 0.70855 0.00796 0.63664 0.0
C2563 C 0.70814 0.00882 0.65758 0.0
C2564 C 0.70356 0.95881 0.63932 0.0
C2565 C 0.70918 0.98522 0.63957 0.0
C2566 C 0.70393 0.9472 0.6294 0.0
C2567 C 0.71098 0.94965 0.61075 0.0
C2568 C 0.70994 0.9728 0.63019 0.0
C2569 C 0.71751 0.96388 0.6024 0.0
C2570 C 0.70922 0.99629 0.62761 0.0
C2571 C 0.7082 0.99759 0.66907 0.0
N2572 N 0.71671 0.97487 0.61208 0.0
N2573 N 0.7086 0.98615 0.6599 0.0
H2574 H 0.01868 0.72839 0.67456 0.0
H2575 H 0.08826 0.73757 0.61211 0.0
H2576 H 0.02007 0.69251 0.64459 0.0
H2577 H 0.08316 0.77472 0.62849 0.0
H2578 H 0.06468 0.72098 0.6282 0.0
H2579 H 0.04352 0.74559 0.66156 0.0
C2580 C 0.02423 0.72413 0.66531 0.0
C2581 C 0.01731 0.70902 0.66057 0.0
C2582 C 0.06873 0.73276 0.62839 0.0
C2583 C 0.04566 0.72855 0.64583 0.0
C2584 C 0.08229 0.74227 0.61937 0.0
C2585 C 0.08774 0.75758 0.619 0.0
C2586 C 0.06051 0.73855 0.6372 0.0
C2587 C 0.07932 0.76298 0.6283 0.0
C2588 C 0.03837 0.73394 0.65788 0.0
C2589 C 0.02497 0.70409 0.64854 0.0
N2590 N 0.0661 0.75347 0.63703 0.0
N2591 N 0.03873 0.71381 0.64162 0.0
H2592 H 0.99678 0.65879 0.72652 0.0
H2593 H 0.96896 0.57219 0.72457 0.0
H2594 H 0.96797 0.62913 0.68071 0.0
H2595 H 0.99967 0.60261 0.76825 0.0
H2596 H 0.96976 0.59309 0.70685 0.0
H2597 H 0.99926 0.63858 0.74066 0.0
C2598 C 0.99104 0.64803 0.71938 0.0
C2599 C 0.98208 0.6456 0.7025 0.0
C2600 C 0.97644 0.5952 0.7202 0.0
C2601 C 0.98481 0.62237 0.71864 0.0
C2602 C 0.97596 0.58327 0.73034 0.0
C2603 C 0.9842 0.58563 0.74798 0.0
C2604 C 0.98514 0.6096 0.72782 0.0
C2605 C 0.99323 0.60026 0.75462 0.0
C2606 C 0.99247 0.63649 0.72744 0.0
C2607 C 0.97494 0.63146 0.6938 0.0
N2608 N 0.99335 0.61165 0.74465 0.0
N2609 N 0.97638 0.62035 0.70205 0.0
H2610 H 0.39094 0.33756 0.71497 0.0
H2611 H 0.43228 0.42574 0.71981 0.0
H2612 H 0.37733 0.36297 0.67895 0.0
H2613 H 0.42905 0.3982 0.77016 0.0
H2614 H 0.41654 0.40335 0.70037 0.0
H2615 H 0.40993 0.36049 0.73062 0.0
C2616 C 0.3921 0.34799 0.71013 0.0
C2617 C 0.3825 0.34839 0.69577 0.0
C2618 C 0.41944 0.40231 0.71563 0.0
C2619 C 0.40416 0.37459 0.71354 0.0
C2620 C 0.42834 0.41507 0.72682 0.0
C2621 C 0.43204 0.41399 0.7468 0.0
C2622 C 0.41439 0.38837 0.72433 0.0
C2623 C 0.42683 0.39975 0.75478 0.0
C2624 C 0.40287 0.36104 0.71914 0.0
C2625 C 0.38446 0.36219 0.69008 0.0
N2626 N 0.4183 0.38754 0.74353 0.0
N2627 N 0.39507 0.37478 0.69904 0.0
H2628 H 0.65933 0.00969 0.709 0.0
H2629 H 0.60086 0.03461 0.73946 0.0
H2630 H 0.66643 0.05339 0.6973 0.0
H2631 H 0.59367 0.99049 0.7475 0.0
H2632 H 0.62447 0.04168 0.72296 0.0
H2633 H 0.63478 0.00238 0.72206 0.0
C2634 C 0.65569 0.01774 0.70911 0.0
C2635 C 0.66495 0.03218 0.70212 0.0
C2636 C 0.61765 0.03042 0.72819 0.0
C2637 C 0.63681 0.02391 0.71716 0.0
C2638 C 0.60419 0.02639 0.73768 0.0
C2639 C 0.59522 0.01192 0.74487 0.0
C2640 C 0.62222 0.01993 0.72601 0.0
C2641 C 0.60006 0.0017 0.74195 0.0
C2642 C 0.64165 0.01356 0.71656 0.0
C2643 C 0.65964 0.04214 0.70258 0.0
N2644 N 0.61323 0.00593 0.73288 0.0
N2645 N 0.64594 0.03785 0.71008 0.0
loop_
_geom_bond_atom_site_label_1
_geom_bond_atom_site_label_2
_geom_bond_distance
_geom_bond_site_symmetry_2
_ccdc_geom_bond_type
In0 O1 2.328 . S
In0 O2 2.326 . S
In0 O6 2.266 1_455 S
In0 O7 2.326 1_554 S
In0 O8 2.266 1_554 S
In0 O9 2.326 1_454 S
In0 O11 2.294 . S
In0 O12 2.326 . S
O1 In0 2.328 . S
O1 C10 1.270 . S
O2 In0 2.326 . S
O2 C10 1.252 . S
C3 O6 1.252 1_556 S
C3 O7 1.260 1_655 S
C4 O11 1.240 . S
C4 O12 1.252 . S
C5 O8 1.252 . S
C5 O9 1.260 1_455 S
O6 In0 2.266 1_655 S
O6 C3 1.252 1_554 S
O7 In0 2.326 1_556 S
O7 C3 1.260 1_455 S
O8 In0 2.266 1_556 S
O8 C5 1.252 . S
O9 In0 2.326 1_656 S
O9 C5 1.260 1_655 S
C10 O1 1.270 . S
C10 O2 1.252 . S
O11 In0 2.294 . S
O11 C4 1.240 . S
O12 In0 2.326 . S
O12 C4 1.252 . S
In13 O14 2.294 . S
In13 O15 2.326 . S
In13 O19 2.266 . S
In13 O20 2.326 1_554 S
In13 O21 2.266 1_554 S
In13 O22 2.326 1_554 S
In13 O24 2.294 . S
In13 O25 2.326 . S
O14 In13 2.294 . S
O14 C23 1.240 . S
O15 In13 2.326 . S
O15 C23 1.252 . S
C16 O19 1.252 1_556 S
C16 O20 1.260 . S
C17 O24 1.240 . S
C17 O25 1.252 . S
C18 O21 1.252 . S
C18 O22 1.260 . S
O19 In13 2.266 . S
O19 C16 1.252 1_554 S
O20 In13 2.326 1_556 S
O20 C16 1.260 . S
O21 In13 2.266 1_556 S
O21 C18 1.252 . S
O22 In13 2.326 1_556 S
O22 C18 1.260 . S
C23 O14 1.240 . S
C23 O15 1.252 . S
O24 In13 2.294 . S
O24 C17 1.240 . S
O25 In13 2.326 . S
O25 C17 1.252 . S
In26 O27 2.294 . S
In26 O28 2.326 1_554 S
In26 O32 2.266 . S
In26 O33 2.326 1_545 S
In26 O34 2.266 1_545 S
In26 O35 2.326 . S
In26 O37 2.294 1_554 S
In26 O38 2.326 1_554 S
O27 In26 2.294 . S
O27 C36 1.240 1_554 S
O28 In26 2.326 1_556 S
O28 C36 1.252 . S
C29 O32 1.252 . S
C29 O33 1.260 1_545 S
C30 O37 1.240 . S
C30 O38 1.252 . S
C31 O34 1.252 . S
C31 O35 1.260 1_565 S
O32 In26 2.266 . S
O32 C29 1.252 . S
O33 In26 2.326 1_565 S
O33 C29 1.260 1_565 S
O34 In26 2.266 1_565 S
O34 C31 1.252 . S
O35 In26 2.326 . S
O35 C31 1.260 1_545 S
C36 O27 1.240 1_556 S
C36 O28 1.252 . S
O37 In26 2.294 1_556 S
O37 C30 1.240 . S
O38 In26 2.326 1_556 S
O38 C30 1.252 . S
In39 O40 2.294 1_554 S
In39 O41 2.326 1_454 S
In39 O45 2.266 . S
In39 O46 2.326 . S
In39 O47 2.275 . S
In39 O48 2.326 . S
In39 O50 2.294 1_455 S
In39 O51 2.326 1_554 S
O40 In39 2.294 1_556 S
O40 C49 1.240 . S
O41 In39 2.326 1_656 S
O41 C49 1.252 1_655 S
C42 O45 1.252 . S
C42 O46 1.260 . S
C43 O50 1.240 1_556 S
C43 O51 1.252 1_655 S
C44 O47 1.315 . S
C44 O48 1.260 . S
O45 In39 2.266 . S
O45 C42 1.252 . S
O46 In39 2.326 . S
O46 C42 1.260 . S
O47 In39 2.275 . S
O47 C44 1.315 . S
O48 In39 2.326 . S
O48 C44 1.260 . S
C49 O40 1.240 . S
C49 O41 1.252 1_455 S
O50 In39 2.294 1_655 S
O50 C43 1.240 1_554 S
O51 In39 2.326 1_556 S
O51 C43 1.252 1_455 S
In52 O53 2.294 1_554 S
In52 O54 2.326 1_554 S
In52 O58 2.266 . S
In52 O59 2.326 . S
In52 O60 2.266 . S
In52 O61 2.326 . S
In52 O63 2.294 . S
In52 O64 2.326 1_554 S
O53 In52 2.294 1_556 S
O53 C62 1.240 . S
O54 In52 2.326 1_556 S
O54 C62 1.252 . S
C55 O58 1.252 . S
C55 O59 1.260 . S
C56 O63 1.240 1_556 S
C56 O64 1.252 . S
C57 O60 1.252 . S
C57 O61 1.260 . S
O58 In52 2.266 . S
O58 C55 1.252 . S
O59 In52 2.326 . S
O59 C55 1.260 . S
O60 In52 2.266 . S
O60 C57 1.252 . S
O61 In52 2.326 . S
O61 C57 1.260 . S
C62 O53 1.240 . S
C62 O54 1.252 . S
O63 In52 2.294 . S
O63 C56 1.240 1_554 S
O64 In52 2.326 1_556 S
O64 C56 1.252 . S
In65 O66 2.294 . S
In65 O67 2.326 1_545 S
In65 O71 2.266 . S
In65 O72 2.326 1_554 S
In65 O73 2.266 1_554 S
In65 O74 2.326 1_554 S
In65 O76 2.294 1_545 S
In65 O77 2.326 . S
O66 In65 2.294 . S
O66 C75 1.240 . S
O67 In65 2.326 1_565 S
O67 C75 1.252 1_565 S
C68 O71 1.252 1_556 S
C68 O72 1.260 . S
C69 O76 1.240 . S
C69 O77 1.252 1_565 S
C70 O73 1.252 . S
C70 O74 1.260 . S
O71 In65 2.266 . S
O71 C68 1.252 1_554 S
O72 In65 2.326 1_556 S
O72 C68 1.260 . S
O73 In65 2.266 1_556 S
O73 C70 1.252 . S
O74 In65 2.326 1_556 S
O74 C70 1.260 . S
C75 O66 1.240 . S
C75 O67 1.252 1_545 S
O76 In65 2.294 1_565 S
O76 C69 1.240 . S
O77 In65 2.326 . S
O77 C69 1.252 1_545 S
In78 O79 2.294 . S
In78 O80 2.326 . S
In78 O84 2.266 . S
In78 O85 2.326 . S
In78 O86 2.266 . S
In78 O87 2.326 . S
In78 O89 2.294 . S
In78 O90 2.326 . S
O79 In78 2.294 . S
O79 C88 1.240 . S
O80 In78 2.326 . S
O80 C88 1.252 . S
C81 O84 1.252 . S
C81 O85 1.260 . S
C82 O89 1.240 . S
C82 O90 1.252 . S
C83 O86 1.252 . S
C83 O87 1.260 . S
O84 In78 2.266 . S
O84 C81 1.252 . S
O85 In78 2.326 . S
O85 C81 1.260 . S
O86 In78 2.266 . S
O86 C83 1.252 . S
O87 In78 2.326 . S
O87 C83 1.260 . S
C88 O79 1.240 . S
C88 O80 1.252 . S
O89 In78 2.294 . S
O89 C82 1.240 . S
O90 In78 2.326 . S
O90 C82 1.252 . S
In91 O92 2.294 . S
In91 O93 2.326 . S
In91 O97 2.266 . S
In91 O98 2.326 . S
In91 O99 2.266 . S
In91 O100 2.326 . S
In91 O102 2.294 1_565 S
In91 O103 2.297 1_565 S
O92 In91 2.294 . S
O92 C101 1.240 . S
O93 In91 2.326 . S
O93 C101 1.252 . S
C94 O97 1.252 . S
C94 O98 1.260 . S
C95 O102 1.240 . S
C95 O103 1.293 . S
C96 O99 1.252 . S
C96 O100 1.260 . S
O97 In91 2.266 . S
O97 C94 1.252 . S
O98 In91 2.326 . S
O98 C94 1.260 . S
O99 In91 2.266 . S
O99 C96 1.252 . S
O100 In91 2.326 . S
O100 C96 1.260 . S
C101 O92 1.240 . S
C101 O93 1.252 . S
O102 In91 2.294 1_545 S
O102 C95 1.240 . S
O103 In91 2.297 1_545 S
O103 C95 1.293 . S
In104 O105 2.294 . S
In104 O106 2.326 . S
In104 O110 2.266 . S
In104 O111 2.326 . S
In104 O112 2.266 . S
In104 O113 2.326 . S
In104 O115 2.294 . S
In104 O116 2.326 . S
O105 In104 2.294 . S
O105 C114 1.240 . S
O106 In104 2.326 . S
O106 C114 1.252 . S
C107 O110 1.252 . S
C107 O111 1.260 . S
C108 O115 1.240 . S
C108 O116 1.252 . S
C109 O112 1.252 . S
C109 O113 1.260 . S
O110 In104 2.266 . S
O110 C107 1.252 . S
O111 In104 2.326 . S
O111 C107 1.260 . S
O112 In104 2.266 . S
O112 C109 1.252 . S
O113 In104 2.326 . S
O113 C109 1.260 . S
C114 O105 1.240 . S
C114 O106 1.252 . S
O115 In104 2.294 . S
O115 C108 1.240 . S
O116 In104 2.326 . S
O116 C108 1.252 . S
In117 O118 2.294 . S
In117 O119 2.326 . S
In117 O123 2.266 1_565 S
In117 O124 2.312 1_565 S
In117 O125 2.266 . S
In117 O126 2.326 . S
In117 O128 2.294 . S
In117 O129 2.326 . S
O118 In117 2.294 . S
O118 C127 1.240 . S
O119 In117 2.326 . S
O119 C127 1.252 . S
C120 O123 1.252 . S
C120 O124 1.261 . S
C121 O128 1.240 . S
C121 O129 1.252 . S
C122 O125 1.252 . S
C122 O126 1.260 . S
O123 In117 2.266 1_545 S
O123 C120 1.252 . S
O124 In117 2.312 1_545 S
O124 C120 1.261 . S
O125 In117 2.266 . S
O125 C122 1.252 . S
O126 In117 2.326 . S
O126 C122 1.260 . S
C127 O118 1.240 . S
C127 O119 1.252 . S
O128 In117 2.294 . S
O128 C121 1.240 . S
O129 In117 2.326 . S
O129 C121 1.252 . S
In130 O131 2.294 . S
In130 O132 2.326 . S
In130 O136 2.266 . S
In130 O137 2.326 . S
In130 O138 2.266 . S
In130 O139 2.326 . S
In130 O141 2.294 . S
In130 O142 2.326 . S
O131 In130 2.294 . S
O131 C140 1.240 . S
O132 In130 2.326 . S
O132 C140 1.252 . S
C133 O136 1.252 . S
C133 O137 1.260 . S
C134 O141 1.240 . S
C134 O142 1.252 . S
C135 O138 1.252 . S
C135 O139 1.260 . S
O136 In130 2.266 . S
O136 C133 1.252 . S
O137 In130 2.326 . S
O137 C133 1.260 . S
O138 In130 2.266 . S
O138 C135 1.252 . S
O139 In130 2.326 . S
O139 C135 1.260 . S
C140 O131 1.240 . S
C140 O132 1.252 . S
O141 In130 2.294 . S
O141 C134 1.240 . S
O142 In130 2.326 . S
O142 C134 1.252 . S
In143 O144 2.294 . S
In143 O145 2.326 . S
In143 O149 2.266 . S
In143 O150 2.326 . S
In143 O151 2.266 . S
In143 O152 2.326 . S
In143 O154 2.294 . S
In143 O155 2.326 . S
O144 In143 2.294 . S
O144 C153 1.240 . S
O145 In143 2.326 . S
O145 C153 1.252 . S
C146 O149 1.252 . S
C146 O150 1.260 . S
C147 O154 1.240 . S
C147 O155 1.252 . S
C148 O151 1.252 . S
C148 O152 1.260 . S
O149 In143 2.266 . S
O149 C146 1.252 . S
O150 In143 2.326 . S
O150 C146 1.260 . S
O151 In143 2.266 . S
O151 C148 1.252 . S
O152 In143 2.326 . S
O152 C148 1.260 . S
C153 O144 1.240 . S
C153 O145 1.252 . S
O154 In143 2.294 . S
O154 C147 1.240 . S
O155 In143 2.326 . S
O155 C147 1.252 . S
In156 O157 2.294 . S
In156 O158 2.326 . S
In156 O162 2.266 . S
In156 O163 2.326 . S
In156 O164 2.266 . S
In156 O165 2.326 . S
In156 O167 2.294 . S
In156 O168 2.326 . S
O157 In156 2.294 . S
O157 C166 1.240 . S
O158 In156 2.326 . S
O158 C166 1.252 . S
C159 O162 1.252 . S
C159 O163 1.260 . S
C160 O167 1.240 . S
C160 O168 1.252 . S
C161 O164 1.252 . S
C161 O165 1.260 . S
O162 In156 2.266 . S
O162 C159 1.252 . S
O163 In156 2.326 . S
O163 C159 1.260 . S
O164 In156 2.266 . S
O164 C161 1.252 . S
O165 In156 2.326 . S
O165 C161 1.260 . S
C166 O157 1.240 . S
C166 O158 1.252 . S
O167 In156 2.294 . S
O167 C160 1.240 . S
O168 In156 2.326 . S
O168 C160 1.252 . S
In169 O170 2.294 . S
In169 O171 2.326 . S
In169 O175 2.266 . S
In169 O176 2.326 . S
In169 O177 2.266 1_655 S
In169 O178 2.320 1_655 S
In169 O180 2.294 . S
In169 O181 2.326 . S
O170 In169 2.294 . S
O170 C179 1.240 . S
O171 In169 2.326 . S
O171 C179 1.252 . S
C172 O175 1.252 . S
C172 O176 1.260 . S
C173 O180 1.240 . S
C173 O181 1.252 . S
C174 O177 1.252 . S
C174 O178 1.268 . S
O175 In169 2.266 . S
O175 C172 1.252 . S
O176 In169 2.326 . S
O176 C172 1.260 . S
O177 In169 2.266 1_455 S
O177 C174 1.252 . S
O178 In169 2.320 1_455 S
O178 C174 1.268 . S
C179 O170 1.240 . S
C179 O171 1.252 . S
O180 In169 2.294 . S
O180 C173 1.240 . S
O181 In169 2.326 . S
O181 C173 1.252 . S
In182 O183 2.294 . S
In182 O184 2.326 . S
In182 O188 2.266 . S
In182 O189 2.326 . S
In182 O190 2.266 . S
In182 O191 2.326 . S
In182 O193 2.294 . S
In182 O194 2.326 . S
O183 In182 2.294 . S
O183 C192 1.240 . S
O184 In182 2.326 . S
O184 C192 1.252 . S
C185 O188 1.252 . S
C185 O189 1.260 . S
C186 O193 1.240 . S
C186 O194 1.252 . S
C187 O190 1.252 . S
C187 O191 1.260 . S
O188 In182 2.266 . S
O188 C185 1.252 . S
O189 In182 2.326 . S
O189 C185 1.260 . S
O190 In182 2.266 . S
O190 C187 1.252 . S
O191 In182 2.326 . S
O191 C187 1.260 . S
C192 O183 1.240 . S
C192 O184 1.252 . S
O193 In182 2.294 . S
O193 C186 1.240 . S
O194 In182 2.326 . S
O194 C186 1.252 . S
In195 O196 2.294 . S
In195 O197 2.326 . S
In195 O201 2.266 . S
In195 O202 2.326 . S
In195 O203 2.266 . S
In195 O204 2.326 . S
In195 O206 2.294 . S
In195 O207 2.326 . S
O196 In195 2.294 . S
O196 C205 1.240 . S
O197 In195 2.326 . S
O197 C205 1.252 . S
C198 O201 1.252 . S
C198 O202 1.260 . S
C199 O206 1.240 . S
C199 O207 1.252 . S
C200 O203 1.252 . S
C200 O204 1.260 . S
O201 In195 2.266 . S
O201 C198 1.252 . S
O202 In195 2.326 . S
O202 C198 1.260 . S
O203 In195 2.266 . S
O203 C200 1.252 . S
O204 In195 2.326 . S
O204 C200 1.260 . S
C205 O196 1.240 . S
C205 O197 1.252 . S
O206 In195 2.294 . S
O206 C199 1.240 . S
O207 In195 2.326 . S
O207 C199 1.252 . S
In208 O209 2.294 . S
In208 O210 2.326 . S
In208 O214 2.266 . S
In208 O215 2.326 . S
In208 O216 2.266 . S
In208 O217 2.326 . S
In208 O219 2.294 . S
In208 O220 2.326 . S
O209 In208 2.294 . S
O209 C218 1.240 . S
O210 In208 2.326 . S
O210 C218 1.252 . S
C211 O214 1.252 . S
C211 O215 1.260 . S
C212 O219 1.240 . S
C212 O220 1.252 . S
C213 O216 1.252 . S
C213 O217 1.260 . S
O214 In208 2.266 . S
O214 C211 1.252 . S
O215 In208 2.326 . S
O215 C211 1.260 . S
O216 In208 2.266 . S
O216 C213 1.252 . S
O217 In208 2.326 . S
O217 C213 1.260 . S
C218 O209 1.240 . S
C218 O210 1.252 . S
O219 In208 2.294 . S
O219 C212 1.240 . S
O220 In208 2.326 . S
O220 C212 1.252 . S
In221 O222 2.294 . S
In221 O223 2.326 . S
In221 O227 2.266 . S
In221 O228 2.326 . S
In221 O229 2.266 1_655 S
In221 O230 2.320 . S
In221 O232 2.294 . S
In221 O233 2.326 . S
O222 In221 2.294 . S
O222 C231 1.240 . S
O223 In221 2.326 . S
O223 C231 1.252 . S
C224 O227 1.252 . S
C224 O228 1.260 . S
C225 O232 1.240 . S
C225 O233 1.252 . S
C226 O229 1.252 . S
C226 O230 1.260 1_455 S
O227 In221 2.266 . S
O227 C224 1.252 . S
O228 In221 2.326 . S
O228 C224 1.260 . S
O229 In221 2.266 1_455 S
O229 C226 1.252 . S
O230 In221 2.320 . S
O230 C226 1.260 1_655 S
C231 O222 1.240 . S
C231 O223 1.252 . S
O232 In221 2.294 . S
O232 C225 1.240 . S
O233 In221 2.326 . S
O233 C225 1.252 . S
H234 C261 0.929 . S
N235 C260 1.433 . S
N235 C266 1.435 . S
N235 C272 1.423 . S
H236 C262 0.930 . S
H237 C265 0.931 . S
H238 C264 0.929 . S
H239 C267 0.930 . S
H240 C268 0.932 . S
H241 C271 0.929 . S
H242 C270 0.931 . S
H243 C273 0.929 . S
H244 C277 0.932 . S
H245 C274 0.931 . S
H246 C276 0.929 . S
H247 C279 0.929 . S
H248 C280 0.930 . S
H249 C282 0.929 . S
H250 C283 0.931 . S
H251 C285 0.930 . S
H252 C286 0.932 . S
H253 C288 0.931 . S
H254 C289 0.929 . S
H255 C291 0.929 . S
H256 C292 0.931 . S
H257 C294 0.929 . S
N258 C278 1.433 . S
N258 C284 1.435 . S
N258 C290 1.423 . S
H259 C295 0.932 . S
C260 N235 1.433 . S
C260 C261 1.363 . S
C260 C265 1.370 . S
C261 H234 0.929 . S
C261 C260 1.363 . S
C261 C262 1.385 . S
C262 H236 0.930 . S
C262 C261 1.385 . S
C262 C263 1.357 . S
C263 C262 1.357 . S
C263 C264 1.406 . S
C264 H238 0.929 . S
C264 C263 1.406 . S
C264 C265 1.391 . S
C265 H237 0.931 . S
C265 C260 1.370 . S
C265 C264 1.391 . S
C266 N235 1.435 . S
C266 C267 1.358 . S
C266 C271 1.371 . S
C267 H239 0.930 . S
C267 C266 1.358 . S
C267 C268 1.405 . S
C268 H240 0.932 . S
C268 C267 1.405 . S
C268 C269 1.383 . S
C269 C268 1.383 . S
C269 C270 1.393 . S
C270 H242 0.931 . S
C270 C269 1.393 . S
C270 C271 1.382 . S
C271 H241 0.929 . S
C271 C266 1.371 . S
C271 C270 1.382 . S
C272 N235 1.423 . S
C272 C273 1.362 . S
C272 C277 1.388 . S
C273 H243 0.929 . S
C273 C272 1.362 . S
C273 C274 1.376 . S
C274 H245 0.931 . S
C274 C273 1.376 . S
C274 C275 1.396 . S
C275 C274 1.396 . S
C275 C276 1.348 . S
C275 C293 1.472 . S
C276 H246 0.929 . S
C276 C275 1.348 . S
C276 C277 1.443 . S
C277 H244 0.932 . S
C277 C272 1.388 . S
C277 C276 1.443 . S
C278 N258 1.433 . S
C278 C279 1.363 . S
C278 C283 1.370 . S
C279 H247 0.929 . S
C279 C278 1.363 . S
C279 C280 1.385 . S
C280 H248 0.930 . S
C280 C279 1.385 . S
C280 C281 1.357 . S
C281 C280 1.357 . S
C281 C282 1.406 . S
C282 H249 0.929 . S
C282 C281 1.406 . S
C282 C283 1.391 . S
C283 H250 0.931 . S
C283 C278 1.370 . S
C283 C282 1.391 . S
C284 N258 1.435 . S
C284 C285 1.358 . S
C284 C289 1.371 . S
C285 H251 0.930 . S
C285 C284 1.358 . S
C285 C286 1.405 . S
C286 H252 0.932 . S
C286 C285 1.405 . S
C286 C287 1.383 . S
C287 C286 1.383 . S
C287 C288 1.393 . S
C288 H253 0.931 . S
C288 C287 1.393 . S
C288 C289 1.382 . S
C289 H254 0.929 . S
C289 C284 1.371 . S
C289 C288 1.382 . S
C290 N258 1.423 . S
C290 C291 1.362 . S
C290 C295 1.388 . S
C291 H255 0.929 . S
C291 C290 1.362 . S
C291 C292 1.376 . S
C292 H256 0.931 . S
C292 C291 1.376 . S
C292 C293 1.396 . S
C293 C275 1.472 . S
C293 C292 1.396 . S
C293 C294 1.348 . S
C294 H257 0.929 . S
C294 C293 1.348 . S
C294 C295 1.443 . S
C295 H259 0.932 . S
C295 C290 1.388 . S
C295 C294 1.443 . S
H296 C323 0.929 . S
N297 C322 1.433 . S
N297 C328 1.435 . S
N297 C334 1.423 . S
H298 C324 0.930 . S
H299 C327 0.931 . S
H300 C326 0.929 . S
H301 C329 0.930 . S
H302 C330 0.932 . S
H303 C333 0.929 . S
H304 C332 0.931 . S
H305 C335 0.929 . S
H306 C339 0.932 . S
H307 C336 0.931 . S
H308 C338 0.929 . S
H309 C341 0.929 . S
H310 C342 0.930 . S
H311 C344 0.929 . S
H312 C345 0.931 . S
H313 C347 0.930 . S
H314 C348 0.932 . S
H315 C350 0.931 . S
H316 C351 0.929 . S
H317 C353 0.929 . S
H318 C354 0.931 . S
H319 C356 0.929 . S
N320 C340 1.433 . S
N320 C346 1.435 . S
N320 C352 1.423 . S
H321 C357 0.932 . S
C322 N297 1.433 . S
C322 C323 1.363 . S
C322 C327 1.370 . S
C323 H296 0.929 . S
C323 C322 1.363 . S
C323 C324 1.385 . S
C324 H298 0.930 . S
C324 C323 1.385 . S
C324 C325 1.357 . S
C325 C324 1.357 . S
C325 C326 1.406 . S
C326 H300 0.929 . S
C326 C325 1.406 . S
C326 C327 1.391 . S
C327 H299 0.931 . S
C327 C322 1.370 . S
C327 C326 1.391 . S
C328 N297 1.435 . S
C328 C329 1.358 . S
C328 C333 1.371 . S
C329 H301 0.930 . S
C329 C328 1.358 . S
C329 C330 1.405 . S
C330 H302 0.932 . S
C330 C329 1.405 . S
C330 C331 1.383 . S
C331 C330 1.383 . S
C331 C332 1.393 . S
C332 H304 0.931 . S
C332 C331 1.393 . S
C332 C333 1.382 . S
C333 H303 0.929 . S
C333 C328 1.371 . S
C333 C332 1.382 . S
C334 N297 1.423 . S
C334 C335 1.362 . S
C334 C339 1.388 . S
C335 H305 0.929 . S
C335 C334 1.362 . S
C335 C336 1.376 . S
C336 H307 0.931 . S
C336 C335 1.376 . S
C336 C337 1.396 . S
C337 C336 1.396 . S
C337 C338 1.348 . S
C337 C355 1.472 . S
C338 H308 0.929 . S
C338 C337 1.348 . S
C338 C339 1.443 . S
C339 H306 0.932 . S
C339 C334 1.388 . S
C339 C338 1.443 . S
C340 N320 1.433 . S
C340 C341 1.363 . S
C340 C345 1.370 . S
C341 H309 0.929 . S
C341 C340 1.363 . S
C341 C342 1.385 . S
C342 H310 0.930 . S
C342 C341 1.385 . S
C342 C343 1.357 . S
C343 C342 1.357 . S
C343 C344 1.406 . S
C344 H311 0.929 . S
C344 C343 1.406 . S
C344 C345 1.391 . S
C345 H312 0.931 . S
C345 C340 1.370 . S
C345 C344 1.391 . S
C346 N320 1.435 . S
C346 C347 1.358 . S
C346 C351 1.371 . S
C347 H313 0.930 . S
C347 C346 1.358 . S
C347 C348 1.405 . S
C348 H314 0.932 . S
C348 C347 1.405 . S
C348 C349 1.383 . S
C349 C348 1.383 . S
C349 C350 1.393 . S
C350 H315 0.931 . S
C350 C349 1.393 . S
C350 C351 1.382 . S
C351 H316 0.929 . S
C351 C346 1.371 . S
C351 C350 1.382 . S
C352 N320 1.423 . S
C352 C353 1.362 . S
C352 C357 1.388 . S
C353 H317 0.929 . S
C353 C352 1.362 . S
C353 C354 1.376 . S
C354 H318 0.931 . S
C354 C353 1.376 . S
C354 C355 1.396 . S
C355 C337 1.472 . S
C355 C354 1.396 . S
C355 C356 1.348 . S
C356 H319 0.929 . S
C356 C355 1.348 . S
C356 C357 1.443 . S
C357 H321 0.932 . S
C357 C352 1.388 . S
C357 C356 1.443 . S
H358 C385 0.929 . S
N359 C384 1.433 . S
N359 C390 1.435 . S
N359 C396 1.423 . S
H360 C386 0.930 . S
H361 C389 0.931 . S
H362 C388 0.929 . S
H363 C391 0.930 . S
H364 C392 0.932 . S
H365 C395 0.929 . S
H366 C394 0.931 . S
H367 C397 0.929 . S
H368 C401 0.932 . S
H369 C398 0.931 . S
H370 C400 0.929 . S
H371 C403 0.929 . S
H372 C404 0.930 . S
H373 C406 0.929 . S
H374 C407 0.931 . S
H375 C409 0.930 . S
H376 C410 0.932 . S
H377 C412 0.931 . S
H378 C413 0.929 . S
H379 C415 0.929 . S
H380 C416 0.931 . S
H381 C418 0.929 . S
N382 C402 1.433 . S
N382 C408 1.435 . S
N382 C414 1.423 . S
H383 C419 0.932 . S
C384 N359 1.433 . S
C384 C385 1.363 . S
C384 C389 1.370 . S
C385 H358 0.929 . S
C385 C384 1.363 . S
C385 C386 1.385 . S
C386 H360 0.930 . S
C386 C385 1.385 . S
C386 C387 1.357 . S
C387 C386 1.357 . S
C387 C388 1.406 . S
C388 H362 0.929 . S
C388 C387 1.406 . S
C388 C389 1.391 . S
C389 H361 0.931 . S
C389 C384 1.370 . S
C389 C388 1.391 . S
C390 N359 1.435 . S
C390 C391 1.358 . S
C390 C395 1.371 . S
C391 H363 0.930 . S
C391 C390 1.358 . S
C391 C392 1.405 . S
C392 H364 0.932 . S
C392 C391 1.405 . S
C392 C393 1.383 . S
C393 C392 1.383 . S
C393 C394 1.393 . S
C394 H366 0.931 . S
C394 C393 1.393 . S
C394 C395 1.382 . S
C395 H365 0.929 . S
C395 C390 1.371 . S
C395 C394 1.382 . S
C396 N359 1.423 . S
C396 C397 1.362 . S
C396 C401 1.388 . S
C397 H367 0.929 . S
C397 C396 1.362 . S
C397 C398 1.376 . S
C398 H369 0.931 . S
C398 C397 1.376 . S
C398 C399 1.396 . S
C399 C398 1.396 . S
C399 C400 1.348 . S
C399 C417 1.472 . S
C400 H370 0.929 . S
C400 C399 1.348 . S
C400 C401 1.443 . S
C401 H368 0.932 . S
C401 C396 1.388 . S
C401 C400 1.443 . S
C402 N382 1.433 . S
C402 C403 1.363 . S
C402 C407 1.370 . S
C403 H371 0.929 . S
C403 C402 1.363 . S
C403 C404 1.385 . S
C404 H372 0.930 . S
C404 C403 1.385 . S
C404 C405 1.357 . S
C405 C404 1.357 . S
C405 C406 1.406 . S
C406 H373 0.929 . S
C406 C405 1.406 . S
C406 C407 1.391 . S
C407 H374 0.931 . S
C407 C402 1.370 . S
C407 C406 1.391 . S
C408 N382 1.435 . S
C408 C409 1.358 . S
C408 C413 1.371 . S
C409 H375 0.930 . S
C409 C408 1.358 . S
C409 C410 1.405 . S
C410 H376 0.932 . S
C410 C409 1.405 . S
C410 C411 1.383 . S
C411 C410 1.383 . S
C411 C412 1.393 . S
C412 H377 0.931 . S
C412 C411 1.393 . S
C412 C413 1.382 . S
C413 H378 0.929 . S
C413 C408 1.371 . S
C413 C412 1.382 . S
C414 N382 1.423 . S
C414 C415 1.362 . S
C414 C419 1.388 . S
C415 H379 0.929 . S
C415 C414 1.362 . S
C415 C416 1.376 . S
C416 H380 0.931 . S
C416 C415 1.376 . S
C416 C417 1.396 . S
C417 C399 1.472 . S
C417 C416 1.396 . S
C417 C418 1.348 . S
C418 H381 0.929 . S
C418 C417 1.348 . S
C418 C419 1.443 . S
C419 H383 0.932 . S
C419 C414 1.388 . S
C419 C418 1.443 . S
H420 C447 0.929 . S
N421 C446 1.433 . S
N421 C452 1.435 . S
N421 C458 1.423 . S
H422 C448 0.930 . S
H423 C451 0.931 . S
H424 C450 0.929 . S
H425 C453 0.930 . S
H426 C454 0.932 . S
H427 C457 0.929 . S
H428 C456 0.931 . S
H429 C459 0.929 . S
H430 C463 0.932 . S
H431 C460 0.931 . S
H432 C462 0.929 . S
H433 C465 0.929 . S
H434 C466 0.930 . S
H435 C468 0.929 . S
H436 C469 0.931 . S
H437 C471 0.930 . S
H438 C472 0.932 . S
H439 C474 0.931 . S
H440 C475 0.929 . S
H441 C477 0.929 . S
H442 C478 0.931 . S
H443 C480 0.929 . S
N444 C464 1.433 . S
N444 C470 1.435 . S
N444 C476 1.423 . S
H445 C481 0.932 . S
C446 N421 1.433 . S
C446 C447 1.363 . S
C446 C451 1.370 . S
C447 H420 0.929 . S
C447 C446 1.363 . S
C447 C448 1.385 . S
C448 H422 0.930 . S
C448 C447 1.385 . S
C448 C449 1.357 . S
C449 C448 1.357 . S
C449 C450 1.406 . S
C450 H424 0.929 . S
C450 C449 1.406 . S
C450 C451 1.391 . S
C451 H423 0.931 . S
C451 C446 1.370 . S
C451 C450 1.391 . S
C452 N421 1.435 . S
C452 C453 1.358 . S
C452 C457 1.371 . S
C453 H425 0.930 . S
C453 C452 1.358 . S
C453 C454 1.405 . S
C454 H426 0.932 . S
C454 C453 1.405 . S
C454 C455 1.383 . S
C455 C454 1.383 . S
C455 C456 1.393 . S
C456 H428 0.931 . S
C456 C455 1.393 . S
C456 C457 1.382 . S
C457 H427 0.929 . S
C457 C452 1.371 . S
C457 C456 1.382 . S
C458 N421 1.423 . S
C458 C459 1.362 . S
C458 C463 1.388 . S
C459 H429 0.929 . S
C459 C458 1.362 . S
C459 C460 1.376 . S
C460 H431 0.931 . S
C460 C459 1.376 . S
C460 C461 1.396 . S
C461 C460 1.396 . S
C461 C462 1.348 . S
C461 C479 1.472 . S
C462 H432 0.929 . S
C462 C461 1.348 . S
C462 C463 1.443 . S
C463 H430 0.932 . S
C463 C458 1.388 . S
C463 C462 1.443 . S
C464 N444 1.433 . S
C464 C465 1.363 . S
C464 C469 1.370 . S
C465 H433 0.929 . S
C465 C464 1.363 . S
C465 C466 1.385 . S
C466 H434 0.930 . S
C466 C465 1.385 . S
C466 C467 1.357 . S
C467 C466 1.357 . S
C467 C468 1.406 . S
C468 H435 0.929 . S
C468 C467 1.406 . S
C468 C469 1.391 . S
C469 H436 0.931 . S
C469 C464 1.370 . S
C469 C468 1.391 . S
C470 N444 1.435 . S
C470 C471 1.358 . S
C470 C475 1.371 . S
C471 H437 0.930 . S
C471 C470 1.358 . S
C471 C472 1.405 . S
C472 H438 0.932 . S
C472 C471 1.405 . S
C472 C473 1.383 . S
C473 C472 1.383 . S
C473 C474 1.393 . S
C474 H439 0.931 . S
C474 C473 1.393 . S
C474 C475 1.382 . S
C475 H440 0.929 . S
C475 C470 1.371 . S
C475 C474 1.382 . S
C476 N444 1.423 . S
C476 C477 1.362 . S
C476 C481 1.388 . S
C477 H441 0.929 . S
C477 C476 1.362 . S
C477 C478 1.376 . S
C478 H442 0.931 . S
C478 C477 1.376 . S
C478 C479 1.396 . S
C479 C461 1.472 . S
C479 C478 1.396 . S
C479 C480 1.348 . S
C480 H443 0.929 . S
C480 C479 1.348 . S
C480 C481 1.443 . S
C481 H445 0.932 . S
C481 C476 1.388 . S
C481 C480 1.443 . S
H482 C509 0.929 . S
N483 C508 1.433 . S
N483 C514 1.435 . S
N483 C520 1.423 . S
H484 C510 0.930 . S
H485 C513 0.931 . S
H486 C512 0.929 . S
H487 C515 0.930 . S
H488 C516 0.932 . S
H489 C519 0.929 . S
H490 C518 0.931 . S
H491 C521 0.929 . S
H492 C525 0.932 . S
H493 C522 0.931 . S
H494 C524 0.929 . S
H495 C527 0.929 . S
H496 C528 0.930 . S
H497 C530 0.929 . S
H498 C531 0.931 . S
H499 C533 0.930 . S
H500 C534 0.932 . S
H501 C536 0.931 . S
H502 C537 0.929 . S
H503 C539 0.929 . S
H504 C540 0.931 . S
H505 C542 0.929 . S
N506 C526 1.433 . S
N506 C532 1.435 . S
N506 C538 1.423 . S
H507 C543 0.932 . S
C508 N483 1.433 . S
C508 C509 1.363 . S
C508 C513 1.370 . S
C509 H482 0.929 . S
C509 C508 1.363 . S
C509 C510 1.385 . S
C510 H484 0.930 . S
C510 C509 1.385 . S
C510 C511 1.357 . S
C511 C510 1.357 . S
C511 C512 1.406 . S
C512 H486 0.929 . S
C512 C511 1.406 . S
C512 C513 1.391 . S
C513 H485 0.931 . S
C513 C508 1.370 . S
C513 C512 1.391 . S
C514 N483 1.435 . S
C514 C515 1.358 . S
C514 C519 1.371 . S
C515 H487 0.930 . S
C515 C514 1.358 . S
C515 C516 1.405 . S
C516 H488 0.932 . S
C516 C515 1.405 . S
C516 C517 1.383 . S
C517 C516 1.383 . S
C517 C518 1.393 . S
C518 H490 0.931 . S
C518 C517 1.393 . S
C518 C519 1.382 . S
C519 H489 0.929 . S
C519 C514 1.371 . S
C519 C518 1.382 . S
C520 N483 1.423 . S
C520 C521 1.362 . S
C520 C525 1.388 . S
C521 H491 0.929 . S
C521 C520 1.362 . S
C521 C522 1.376 . S
C522 H493 0.931 . S
C522 C521 1.376 . S
C522 C523 1.396 . S
C523 C522 1.396 . S
C523 C524 1.348 . S
C523 C541 1.472 . S
C524 H494 0.929 . S
C524 C523 1.348 . S
C524 C525 1.443 . S
C525 H492 0.932 . S
C525 C520 1.388 . S
C525 C524 1.443 . S
C526 N506 1.433 . S
C526 C527 1.363 . S
C526 C531 1.370 . S
C527 H495 0.929 . S
C527 C526 1.363 . S
C527 C528 1.385 . S
C528 H496 0.930 . S
C528 C527 1.385 . S
C528 C529 1.357 . S
C529 C528 1.357 . S
C529 C530 1.406 . S
C530 H497 0.929 . S
C530 C529 1.406 . S
C530 C531 1.391 . S
C531 H498 0.931 . S
C531 C526 1.370 . S
C531 C530 1.391 . S
C532 N506 1.435 . S
C532 C533 1.358 . S
C532 C537 1.371 . S
C533 H499 0.930 . S
C533 C532 1.358 . S
C533 C534 1.405 . S
C534 H500 0.932 . S
C534 C533 1.405 . S
C534 C535 1.383 . S
C535 C534 1.383 . S
C535 C536 1.393 . S
C536 H501 0.931 . S
C536 C535 1.393 . S
C536 C537 1.382 . S
C537 H502 0.929 . S
C537 C532 1.371 . S
C537 C536 1.382 . S
C538 N506 1.423 . S
C538 C539 1.362 . S
C538 C543 1.388 . S
C539 H503 0.929 . S
C539 C538 1.362 . S
C539 C540 1.376 . S
C540 H504 0.931 . S
C540 C539 1.376 . S
C540 C541 1.396 . S
C541 C523 1.472 . S
C541 C540 1.396 . S
C541 C542 1.348 . S
C542 H505 0.929 . S
C542 C541 1.348 . S
C542 C543 1.443 . S
C543 H507 0.932 . S
C543 C538 1.388 . S
C543 C542 1.443 . S
H544 C571 0.929 . S
N545 C570 1.433 . S
N545 C576 1.435 . S
N545 C582 1.423 . S
H546 C572 0.930 . S
H547 C575 0.931 . S
H548 C574 0.929 . S
H549 C577 0.930 . S
H550 C578 0.932 . S
H551 C581 0.929 . S
H552 C580 0.931 . S
H553 C583 0.929 . S
H554 C587 0.932 . S
H555 C584 0.931 . S
H556 C586 0.929 . S
H557 C589 0.929 . S
H558 C590 0.930 . S
H559 C592 0.929 . S
H560 C593 0.931 . S
H561 C595 0.930 . S
H562 C596 0.932 . S
H563 C598 0.931 . S
H564 C599 0.929 . S
H565 C601 0.929 . S
H566 C602 0.931 . S
H567 C604 0.929 . S
N568 C588 1.433 . S
N568 C594 1.435 . S
N568 C600 1.423 . S
H569 C605 0.932 . S
C570 N545 1.433 . S
C570 C571 1.363 . S
C570 C575 1.370 . S
C571 H544 0.929 . S
C571 C570 1.363 . S
C571 C572 1.385 . S
C572 H546 0.930 . S
C572 C571 1.385 . S
C572 C573 1.357 . S
C573 C572 1.357 . S
C573 C574 1.406 . S
C574 H548 0.929 . S
C574 C573 1.406 . S
C574 C575 1.391 . S
C575 H547 0.931 . S
C575 C570 1.370 . S
C575 C574 1.391 . S
C576 N545 1.435 . S
C576 C577 1.358 . S
C576 C581 1.371 . S
C577 H549 0.930 . S
C577 C576 1.358 . S
C577 C578 1.405 . S
C578 H550 0.932 . S
C578 C577 1.405 . S
C578 C579 1.383 . S
C579 C578 1.383 . S
C579 C580 1.393 . S
C580 H552 0.931 . S
C580 C579 1.393 . S
C580 C581 1.382 . S
C581 H551 0.929 . S
C581 C576 1.371 . S
C581 C580 1.382 . S
C582 N545 1.423 . S
C582 C583 1.362 . S
C582 C587 1.388 . S
C583 H553 0.929 . S
C583 C582 1.362 . S
C583 C584 1.376 . S
C584 H555 0.931 . S
C584 C583 1.376 . S
C584 C585 1.396 . S
C585 C584 1.396 . S
C585 C586 1.348 . S
C585 C603 1.472 . S
C586 H556 0.929 . S
C586 C585 1.348 . S
C586 C587 1.443 . S
C587 H554 0.932 . S
C587 C582 1.388 . S
C587 C586 1.443 . S
C588 N568 1.433 . S
C588 C589 1.363 . S
C588 C593 1.370 . S
C589 H557 0.929 . S
C589 C588 1.363 . S
C589 C590 1.385 . S
C590 H558 0.930 . S
C590 C589 1.385 . S
C590 C591 1.357 . S
C591 C590 1.357 . S
C591 C592 1.406 . S
C592 H559 0.929 . S
C592 C591 1.406 . S
C592 C593 1.391 . S
C593 H560 0.931 . S
C593 C588 1.370 . S
C593 C592 1.391 . S
C594 N568 1.435 . S
C594 C595 1.358 . S
C594 C599 1.371 . S
C595 H561 0.930 . S
C595 C594 1.358 . S
C595 C596 1.405 . S
C596 H562 0.932 . S
C596 C595 1.405 . S
C596 C597 1.383 . S
C597 C596 1.383 . S
C597 C598 1.393 . S
C598 H563 0.931 . S
C598 C597 1.393 . S
C598 C599 1.382 . S
C599 H564 0.929 . S
C599 C594 1.371 . S
C599 C598 1.382 . S
C600 N568 1.423 . S
C600 C601 1.362 . S
C600 C605 1.388 . S
C601 H565 0.929 . S
C601 C600 1.362 . S
C601 C602 1.376 . S
C602 H566 0.931 . S
C602 C601 1.376 . S
C602 C603 1.396 . S
C603 C585 1.472 . S
C603 C602 1.396 . S
C603 C604 1.348 . S
C604 H567 0.929 . S
C604 C603 1.348 . S
C604 C605 1.443 . S
C605 H569 0.932 . S
C605 C600 1.388 . S
C605 C604 1.443 . S
H606 C633 0.929 . S
N607 C632 1.433 . S
N607 C638 1.435 . S
N607 C644 1.423 . S
H608 C634 0.930 . S
H609 C637 0.931 . S
H610 C636 0.929 . S
H611 C639 0.930 . S
H612 C640 0.932 . S
H613 C643 0.929 . S
H614 C642 0.931 . S
H615 C645 0.929 . S
H616 C649 0.932 . S
H617 C646 0.931 . S
H618 C648 0.929 . S
H619 C651 0.929 . S
H620 C652 0.930 . S
H621 C654 0.929 . S
H622 C655 0.931 . S
H623 C657 0.930 . S
H624 C658 0.932 . S
H625 C660 0.931 . S
H626 C661 0.929 . S
H627 C663 0.929 . S
H628 C664 0.931 . S
H629 C666 0.929 . S
N630 C650 1.433 . S
N630 C656 1.435 . S
N630 C662 1.423 . S
H631 C667 0.932 . S
C632 N607 1.433 . S
C632 C633 1.363 . S
C632 C637 1.370 . S
C633 H606 0.929 . S
C633 C632 1.363 . S
C633 C634 1.385 . S
C634 H608 0.930 . S
C634 C633 1.385 . S
C634 C635 1.357 . S
C635 C634 1.357 . S
C635 C636 1.406 . S
C636 H610 0.929 . S
C636 C635 1.406 . S
C636 C637 1.391 . S
C637 H609 0.931 . S
C637 C632 1.370 . S
C637 C636 1.391 . S
C638 N607 1.435 . S
C638 C639 1.358 . S
C638 C643 1.371 . S
C639 H611 0.930 . S
C639 C638 1.358 . S
C639 C640 1.405 . S
C640 H612 0.932 . S
C640 C639 1.405 . S
C640 C641 1.383 . S
C641 C640 1.383 . S
C641 C642 1.393 . S
C642 H614 0.931 . S
C642 C641 1.393 . S
C642 C643 1.382 . S
C643 H613 0.929 . S
C643 C638 1.371 . S
C643 C642 1.382 . S
C644 N607 1.423 . S
C644 C645 1.362 . S
C644 C649 1.388 . S
C645 H615 0.929 . S
C645 C644 1.362 . S
C645 C646 1.376 . S
C646 H617 0.931 . S
C646 C645 1.376 . S
C646 C647 1.396 . S
C647 C646 1.396 . S
C647 C648 1.348 . S
C647 C665 1.472 . S
C648 H618 0.929 . S
C648 C647 1.348 . S
C648 C649 1.443 . S
C649 H616 0.932 . S
C649 C644 1.388 . S
C649 C648 1.443 . S
C650 N630 1.433 . S
C650 C651 1.363 . S
C650 C655 1.370 . S
C651 H619 0.929 . S
C651 C650 1.363 . S
C651 C652 1.385 . S
C652 H620 0.930 . S
C652 C651 1.385 . S
C652 C653 1.357 . S
C653 C652 1.357 . S
C653 C654 1.406 . S
C654 H621 0.929 . S
C654 C653 1.406 . S
C654 C655 1.391 . S
C655 H622 0.931 . S
C655 C650 1.370 . S
C655 C654 1.391 . S
C656 N630 1.435 . S
C656 C657 1.358 . S
C656 C661 1.371 . S
C657 H623 0.930 . S
C657 C656 1.358 . S
C657 C658 1.405 . S
C658 H624 0.932 . S
C658 C657 1.405 . S
C658 C659 1.383 . S
C659 C658 1.383 . S
C659 C660 1.393 . S
C660 H625 0.931 . S
C660 C659 1.393 . S
C660 C661 1.382 . S
C661 H626 0.929 . S
C661 C656 1.371 . S
C661 C660 1.382 . S
C662 N630 1.423 . S
C662 C663 1.362 . S
C662 C667 1.388 . S
C663 H627 0.929 . S
C663 C662 1.362 . S
C663 C664 1.376 . S
C664 H628 0.931 . S
C664 C663 1.376 . S
C664 C665 1.396 . S
C665 C647 1.472 . S
C665 C664 1.396 . S
C665 C666 1.348 . S
C666 H629 0.929 . S
C666 C665 1.348 . S
C666 C667 1.443 . S
C667 H631 0.932 . S
C667 C662 1.388 . S
C667 C666 1.443 . S
H668 C695 0.929 . S
N669 C694 1.433 . S
N669 C700 1.435 . S
N669 C706 1.423 . S
H670 C696 0.930 . S
H671 C699 0.931 . S
H672 C698 0.929 . S
H673 C701 0.930 . S
H674 C702 0.932 . S
H675 C705 0.929 . S
H676 C704 0.931 . S
H677 C707 0.929 . S
H678 C711 0.932 . S
H679 C708 0.931 . S
H680 C710 0.929 . S
H681 C713 0.929 . S
H682 C714 0.930 . S
H683 C716 0.929 . S
H684 C717 0.931 . S
H685 C719 0.930 . S
H686 C720 0.932 . S
H687 C722 0.931 . S
H688 C723 0.929 . S
H689 C725 0.929 . S
H690 C726 0.931 . S
H691 C728 0.929 . S
N692 C712 1.433 . S
N692 C718 1.435 . S
N692 C724 1.423 . S
H693 C729 0.932 . S
C694 N669 1.433 . S
C694 C695 1.363 . S
C694 C699 1.370 . S
C695 H668 0.929 . S
C695 C694 1.363 . S
C695 C696 1.385 . S
C696 H670 0.930 . S
C696 C695 1.385 . S
C696 C697 1.357 . S
C697 C696 1.357 . S
C697 C698 1.406 . S
C698 H672 0.929 . S
C698 C697 1.406 . S
C698 C699 1.391 . S
C699 H671 0.931 . S
C699 C694 1.370 . S
C699 C698 1.391 . S
C700 N669 1.435 . S
C700 C701 1.358 . S
C700 C705 1.371 . S
C701 H673 0.930 . S
C701 C700 1.358 . S
C701 C702 1.405 . S
C702 H674 0.932 . S
C702 C701 1.405 . S
C702 C703 1.383 . S
C703 C702 1.383 . S
C703 C704 1.393 . S
C704 H676 0.931 . S
C704 C703 1.393 . S
C704 C705 1.382 . S
C705 H675 0.929 . S
C705 C700 1.371 . S
C705 C704 1.382 . S
C706 N669 1.423 . S
C706 C707 1.362 . S
C706 C711 1.388 . S
C707 H677 0.929 . S
C707 C706 1.362 . S
C707 C708 1.376 . S
C708 H679 0.931 . S
C708 C707 1.376 . S
C708 C709 1.396 . S
C709 C708 1.396 . S
C709 C710 1.348 . S
C709 C727 1.472 . S
C710 H680 0.929 . S
C710 C709 1.348 . S
C710 C711 1.443 . S
C711 H678 0.932 . S
C711 C706 1.388 . S
C711 C710 1.443 . S
C712 N692 1.433 . S
C712 C713 1.363 . S
C712 C717 1.370 . S
C713 H681 0.929 . S
C713 C712 1.363 . S
C713 C714 1.385 . S
C714 H682 0.930 . S
C714 C713 1.385 . S
C714 C715 1.357 . S
C715 C714 1.357 . S
C715 C716 1.406 . S
C716 H683 0.929 . S
C716 C715 1.406 . S
C716 C717 1.391 . S
C717 H684 0.931 . S
C717 C712 1.370 . S
C717 C716 1.391 . S
C718 N692 1.435 . S
C718 C719 1.358 . S
C718 C723 1.371 . S
C719 H685 0.930 . S
C719 C718 1.358 . S
C719 C720 1.405 . S
C720 H686 0.932 . S
C720 C719 1.405 . S
C720 C721 1.383 . S
C721 C720 1.383 . S
C721 C722 1.393 . S
C722 H687 0.931 . S
C722 C721 1.393 . S
C722 C723 1.382 . S
C723 H688 0.929 . S
C723 C718 1.371 . S
C723 C722 1.382 . S
C724 N692 1.423 . S
C724 C725 1.362 . S
C724 C729 1.388 . S
C725 H689 0.929 . S
C725 C724 1.362 . S
C725 C726 1.376 . S
C726 H690 0.931 . S
C726 C725 1.376 . S
C726 C727 1.396 . S
C727 C709 1.472 . S
C727 C726 1.396 . S
C727 C728 1.348 . S
C728 H691 0.929 . S
C728 C727 1.348 . S
C728 C729 1.443 . S
C729 H693 0.932 . S
C729 C724 1.388 . S
C729 C728 1.443 . S
H730 C757 0.929 . S
N731 C756 1.433 . S
N731 C762 1.435 . S
N731 C768 1.423 . S
H732 C758 0.930 . S
H733 C761 0.931 . S
H734 C760 0.929 . S
H735 C763 0.930 . S
H736 C764 0.932 . S
H737 C767 0.929 . S
H738 C766 0.931 . S
H739 C769 0.929 . S
H740 C773 0.932 . S
H741 C770 0.931 . S
H742 C772 0.929 . S
H743 C775 0.929 . S
H744 C776 0.930 . S
H745 C778 0.929 . S
H746 C779 0.931 . S
H747 C781 0.930 . S
H748 C782 0.932 . S
H749 C784 0.931 . S
H750 C785 0.929 . S
H751 C787 0.929 . S
H752 C788 0.931 . S
H753 C790 0.929 . S
N754 C774 1.433 . S
N754 C780 1.435 . S
N754 C786 1.423 . S
H755 C791 0.932 . S
C756 N731 1.433 . S
C756 C757 1.363 . S
C756 C761 1.370 . S
C757 H730 0.929 . S
C757 C756 1.363 . S
C757 C758 1.385 . S
C758 H732 0.930 . S
C758 C757 1.385 . S
C758 C759 1.357 . S
C759 C758 1.357 . S
C759 C760 1.406 . S
C760 H734 0.929 . S
C760 C759 1.406 . S
C760 C761 1.391 . S
C761 H733 0.931 . S
C761 C756 1.370 . S
C761 C760 1.391 . S
C762 N731 1.435 . S
C762 C763 1.358 . S
C762 C767 1.371 . S
C763 H735 0.930 . S
C763 C762 1.358 . S
C763 C764 1.405 . S
C764 H736 0.932 . S
C764 C763 1.405 . S
C764 C765 1.383 . S
C765 C764 1.383 . S
C765 C766 1.393 . S
C766 H738 0.931 . S
C766 C765 1.393 . S
C766 C767 1.382 . S
C767 H737 0.929 . S
C767 C762 1.371 . S
C767 C766 1.382 . S
C768 N731 1.423 . S
C768 C769 1.362 . S
C768 C773 1.388 . S
C769 H739 0.929 . S
C769 C768 1.362 . S
C769 C770 1.376 . S
C770 H741 0.931 . S
C770 C769 1.376 . S
C770 C771 1.396 . S
C771 C770 1.396 . S
C771 C772 1.348 . S
C771 C789 1.472 . S
C772 H742 0.929 . S
C772 C771 1.348 . S
C772 C773 1.443 . S
C773 H740 0.932 . S
C773 C768 1.388 . S
C773 C772 1.443 . S
C774 N754 1.433 . S
C774 C775 1.363 . S
C774 C779 1.370 . S
C775 H743 0.929 . S
C775 C774 1.363 . S
C775 C776 1.385 . S
C776 H744 0.930 . S
C776 C775 1.385 . S
C776 C777 1.357 . S
C777 C776 1.357 . S
C777 C778 1.406 . S
C778 H745 0.929 . S
C778 C777 1.406 . S
C778 C779 1.391 . S
C779 H746 0.931 . S
C779 C774 1.370 . S
C779 C778 1.391 . S
C780 N754 1.435 . S
C780 C781 1.358 . S
C780 C785 1.371 . S
C781 H747 0.930 . S
C781 C780 1.358 . S
C781 C782 1.405 . S
C782 H748 0.932 . S
C782 C781 1.405 . S
C782 C783 1.383 . S
C783 C782 1.383 . S
C783 C784 1.393 . S
C784 H749 0.931 . S
C784 C783 1.393 . S
C784 C785 1.382 . S
C785 H750 0.929 . S
C785 C780 1.371 . S
C785 C784 1.382 . S
C786 N754 1.423 . S
C786 C787 1.362 . S
C786 C791 1.388 . S
C787 H751 0.929 . S
C787 C786 1.362 . S
C787 C788 1.376 . S
C788 H752 0.931 . S
C788 C787 1.376 . S
C788 C789 1.396 . S
C789 C771 1.472 . S
C789 C788 1.396 . S
C789 C790 1.348 . S
C790 H753 0.929 . S
C790 C789 1.348 . S
C790 C791 1.443 . S
C791 H755 0.932 . S
C791 C786 1.388 . S
C791 C790 1.443 . S
H792 C819 0.929 . S
N793 C818 1.433 . S
N793 C824 1.435 . S
N793 C830 1.423 . S
H794 C820 0.930 . S
H795 C823 0.931 . S
H796 C822 0.929 . S
H797 C825 0.930 . S
H798 C826 0.932 . S
H799 C829 0.929 . S
H800 C828 0.931 . S
H801 C831 0.929 . S
H802 C835 0.932 . S
H803 C832 0.931 . S
H804 C834 0.929 . S
H805 C837 0.929 . S
H806 C838 0.930 . S
H807 C840 0.929 . S
H808 C841 0.931 . S
H809 C843 0.930 . S
H810 C844 0.932 . S
H811 C846 0.931 . S
H812 C847 0.929 . S
H813 C849 0.929 . S
H814 C850 0.931 . S
H815 C852 0.929 . S
N816 C836 1.433 . S
N816 C842 1.435 . S
N816 C848 1.423 . S
H817 C853 0.932 . S
C818 N793 1.433 . S
C818 C819 1.363 . S
C818 C823 1.370 . S
C819 H792 0.929 . S
C819 C818 1.363 . S
C819 C820 1.385 . S
C820 H794 0.930 . S
C820 C819 1.385 . S
C820 C821 1.357 . S
C821 C820 1.357 . S
C821 C822 1.406 . S
C822 H796 0.929 . S
C822 C821 1.406 . S
C822 C823 1.391 . S
C823 H795 0.931 . S
C823 C818 1.370 . S
C823 C822 1.391 . S
C824 N793 1.435 . S
C824 C825 1.358 . S
C824 C829 1.371 . S
C825 H797 0.930 . S
C825 C824 1.358 . S
C825 C826 1.405 . S
C826 H798 0.932 . S
C826 C825 1.405 . S
C826 C827 1.383 . S
C827 C826 1.383 . S
C827 C828 1.393 . S
C828 H800 0.931 . S
C828 C827 1.393 . S
C828 C829 1.382 . S
C829 H799 0.929 . S
C829 C824 1.371 . S
C829 C828 1.382 . S
C830 N793 1.423 . S
C830 C831 1.362 . S
C830 C835 1.388 . S
C831 H801 0.929 . S
C831 C830 1.362 . S
C831 C832 1.376 . S
C832 H803 0.931 . S
C832 C831 1.376 . S
C832 C833 1.396 . S
C833 C832 1.396 . S
C833 C834 1.348 . S
C833 C851 1.472 . S
C834 H804 0.929 . S
C834 C833 1.348 . S
C834 C835 1.443 . S
C835 H802 0.932 . S
C835 C830 1.388 . S
C835 C834 1.443 . S
C836 N816 1.433 . S
C836 C837 1.363 . S
C836 C841 1.370 . S
C837 H805 0.929 . S
C837 C836 1.363 . S
C837 C838 1.385 . S
C838 H806 0.930 . S
C838 C837 1.385 . S
C838 C839 1.357 . S
C839 C838 1.357 . S
C839 C840 1.406 . S
C840 H807 0.929 . S
C840 C839 1.406 . S
C840 C841 1.391 . S
C841 H808 0.931 . S
C841 C836 1.370 . S
C841 C840 1.391 . S
C842 N816 1.435 . S
C842 C843 1.358 . S
C842 C847 1.371 . S
C843 H809 0.930 . S
C843 C842 1.358 . S
C843 C844 1.405 . S
C844 H810 0.932 . S
C844 C843 1.405 . S
C844 C845 1.383 . S
C845 C844 1.383 . S
C845 C846 1.393 . S
C846 H811 0.931 . S
C846 C845 1.393 . S
C846 C847 1.382 . S
C847 H812 0.929 . S
C847 C842 1.371 . S
C847 C846 1.382 . S
C848 N816 1.423 . S
C848 C849 1.362 . S
C848 C853 1.388 . S
C849 H813 0.929 . S
C849 C848 1.362 . S
C849 C850 1.376 . S
C850 H814 0.931 . S
C850 C849 1.376 . S
C850 C851 1.396 . S
C851 C833 1.472 . S
C851 C850 1.396 . S
C851 C852 1.348 . S
C852 H815 0.929 . S
C852 C851 1.348 . S
C852 C853 1.443 . S
C853 H817 0.932 . S
C853 C848 1.388 . S
C853 C852 1.443 . S
H854 C881 0.929 . S
N855 C880 1.433 . S
N855 C886 1.435 . S
N855 C892 1.423 . S
H856 C882 0.930 . S
H857 C885 0.931 . S
H858 C884 0.929 . S
H859 C887 0.930 . S
H860 C888 0.932 . S
H861 C891 0.929 . S
H862 C890 0.931 . S
H863 C893 0.929 . S
H864 C897 0.932 . S
H865 C894 0.931 . S
H866 C896 0.929 . S
H867 C899 0.929 . S
H868 C900 0.930 . S
H869 C902 0.929 . S
H870 C903 0.931 . S
H871 C905 0.930 . S
H872 C906 0.932 . S
H873 C908 0.931 . S
H874 C909 0.929 . S
H875 C911 0.929 . S
H876 C912 0.931 . S
H877 C914 0.929 . S
N878 C898 1.433 . S
N878 C904 1.435 . S
N878 C910 1.423 . S
H879 C915 0.932 . S
C880 N855 1.433 . S
C880 C881 1.363 . S
C880 C885 1.370 . S
C881 H854 0.929 . S
C881 C880 1.363 . S
C881 C882 1.385 . S
C882 H856 0.930 . S
C882 C881 1.385 . S
C882 C883 1.357 . S
C883 C882 1.357 . S
C883 C884 1.406 . S
C884 H858 0.929 . S
C884 C883 1.406 . S
C884 C885 1.391 . S
C885 H857 0.931 . S
C885 C880 1.370 . S
C885 C884 1.391 . S
C886 N855 1.435 . S
C886 C887 1.358 . S
C886 C891 1.371 . S
C887 H859 0.930 . S
C887 C886 1.358 . S
C887 C888 1.405 . S
C888 H860 0.932 . S
C888 C887 1.405 . S
C888 C889 1.383 . S
C889 C888 1.383 . S
C889 C890 1.393 . S
C890 H862 0.931 . S
C890 C889 1.393 . S
C890 C891 1.382 . S
C891 H861 0.929 . S
C891 C886 1.371 . S
C891 C890 1.382 . S
C892 N855 1.423 . S
C892 C893 1.362 . S
C892 C897 1.388 . S
C893 H863 0.929 . S
C893 C892 1.362 . S
C893 C894 1.376 . S
C894 H865 0.931 . S
C894 C893 1.376 . S
C894 C895 1.396 . S
C895 C894 1.396 . S
C895 C896 1.348 . S
C895 C913 1.472 . S
C896 H866 0.929 . S
C896 C895 1.348 . S
C896 C897 1.443 . S
C897 H864 0.932 . S
C897 C892 1.388 . S
C897 C896 1.443 . S
C898 N878 1.433 . S
C898 C899 1.363 . S
C898 C903 1.370 . S
C899 H867 0.929 . S
C899 C898 1.363 . S
C899 C900 1.385 . S
C900 H868 0.930 . S
C900 C899 1.385 . S
C900 C901 1.357 . S
C901 C900 1.357 . S
C901 C902 1.406 . S
C902 H869 0.929 . S
C902 C901 1.406 . S
C902 C903 1.391 . S
C903 H870 0.931 . S
C903 C898 1.370 . S
C903 C902 1.391 . S
C904 N878 1.435 . S
C904 C905 1.358 . S
C904 C909 1.371 . S
C905 H871 0.930 . S
C905 C904 1.358 . S
C905 C906 1.405 . S
C906 H872 0.932 . S
C906 C905 1.405 . S
C906 C907 1.383 . S
C907 C906 1.383 . S
C907 C908 1.393 . S
C908 H873 0.931 . S
C908 C907 1.393 . S
C908 C909 1.382 . S
C909 H874 0.929 . S
C909 C904 1.371 . S
C909 C908 1.382 . S
C910 N878 1.423 . S
C910 C911 1.362 . S
C910 C915 1.388 . S
C911 H875 0.929 . S
C911 C910 1.362 . S
C911 C912 1.376 . S
C912 H876 0.931 . S
C912 C911 1.376 . S
C912 C913 1.396 . S
C913 C895 1.472 . S
C913 C912 1.396 . S
C913 C914 1.348 . S
C914 H877 0.929 . S
C914 C913 1.348 . S
C914 C915 1.443 . S
C915 H879 0.932 . S
C915 C910 1.388 . S
C915 C914 1.443 . S
H916 C943 0.929 . S
N917 C942 1.433 . S
N917 C948 1.435 . S
N917 C954 1.423 . S
H918 C944 0.930 . S
H919 C947 0.931 . S
H920 C946 0.929 . S
H921 C949 0.930 . S
H922 C950 0.932 . S
H923 C953 0.929 . S
H924 C952 0.931 . S
H925 C955 0.929 . S
H926 C959 0.932 1_545 S
H927 C956 0.931 . S
H928 C958 0.929 . S
H929 C961 0.929 . S
H930 C962 0.930 . S
H931 C964 0.929 . S
H932 C965 0.931 . S
H933 C967 0.930 . S
H934 C968 0.932 . S
H935 C970 0.931 . S
H936 C971 0.929 . S
H937 C973 0.929 . S
H938 C974 0.931 . S
H939 C976 0.941 . S
N940 C960 1.433 . S
N940 C966 1.435 . S
N940 C972 1.423 . S
H941 C977 0.932 1_545 S
C942 N917 1.433 . S
C942 C943 1.363 . S
C942 C947 1.370 1_565 S
C943 H916 0.929 . S
C943 C942 1.363 . S
C943 C944 1.385 . S
C944 H918 0.930 . S
C944 C943 1.385 . S
C944 C945 1.357 1_565 S
C945 C944 1.357 1_545 S
C945 C946 1.406 . S
C946 H920 0.929 . S
C946 C945 1.406 . S
C946 C947 1.391 . S
C947 H919 0.931 . S
C947 C942 1.370 1_545 S
C947 C946 1.391 . S
C948 N917 1.435 . S
C948 C949 1.358 1_565 S
C948 C953 1.371 . S
C949 H921 0.930 . S
C949 C948 1.358 1_545 S
C949 C950 1.405 . S
C950 H922 0.932 . S
C950 C949 1.405 . S
C950 C951 1.383 1_545 S
C951 C950 1.383 1_565 S
C951 C952 1.393 . S
C952 H924 0.931 . S
C952 C951 1.393 . S
C952 C953 1.382 . S
C953 H923 0.929 . S
C953 C948 1.371 . S
C953 C952 1.382 . S
C954 N917 1.423 . S
C954 C955 1.362 . S
C954 C959 1.388 . S
C955 H925 0.929 . S
C955 C954 1.362 . S
C955 C956 1.376 . S
C956 H927 0.931 . S
C956 C955 1.376 . S
C956 C957 1.396 . S
C957 C956 1.396 . S
C957 C958 1.348 . S
C957 C975 1.472 . S
C958 H928 0.929 . S
C958 C957 1.348 . S
C958 C959 1.443 . S
C959 H926 0.932 1_565 S
C959 C954 1.388 . S
C959 C958 1.443 . S
C960 N940 1.433 . S
C960 C961 1.363 . S
C960 C965 1.370 1_565 S
C961 H929 0.929 . S
C961 C960 1.363 . S
C961 C962 1.385 . S
C962 H930 0.930 . S
C962 C961 1.385 . S
C962 C963 1.357 1_565 S
C963 C962 1.357 1_545 S
C963 C964 1.406 . S
C964 H931 0.929 . S
C964 C963 1.406 . S
C964 C965 1.391 . S
C965 H932 0.931 . S
C965 C960 1.370 1_545 S
C965 C964 1.391 . S
C966 N940 1.435 . S
C966 C967 1.358 1_565 S
C966 C971 1.371 . S
C967 H933 0.930 . S
C967 C966 1.358 1_545 S
C967 C968 1.405 . S
C968 H934 0.932 . S
C968 C967 1.405 . S
C968 C969 1.383 1_545 S
C969 C968 1.383 1_565 S
C969 C970 1.393 . S
C970 H935 0.931 . S
C970 C969 1.393 . S
C970 C971 1.382 . S
C971 H936 0.929 . S
C971 C966 1.371 . S
C971 C970 1.382 . S
C972 N940 1.423 . S
C972 C973 1.362 . S
C972 C977 1.388 . S
C973 H937 0.929 . S
C973 C972 1.362 . S
C973 C974 1.376 . S
C974 H938 0.931 . S
C974 C973 1.376 . S
C974 C975 1.396 . S
C975 C957 1.472 . S
C975 C974 1.396 . S
C975 C976 1.348 . S
C976 H939 0.941 . S
C976 C975 1.348 . S
C976 C977 1.443 . S
C977 H941 0.932 1_565 S
C977 C972 1.388 . S
C977 C976 1.443 . S
H978 C1005 0.929 . S
N979 C1004 1.433 . S
N979 C1010 1.435 . S
N979 C1016 1.423 . S
H980 C1006 0.930 . S
H981 C1009 0.931 . S
H982 C1008 0.929 . S
H983 C1011 0.930 . S
H984 C1012 0.932 . S
H985 C1015 0.929 . S
H986 C1014 0.931 . S
H987 C1017 0.929 1_565 S
H988 C1021 0.932 . S
H989 C1018 0.880 1_565 S
H990 C1020 0.929 . S
H991 C1023 0.929 . S
H992 C1024 0.930 . S
H993 C1026 0.929 . S
H994 C1027 0.931 . S
H995 C1029 0.930 . S
H996 C1030 0.932 . S
H997 C1032 0.931 . S
H998 C1033 0.929 . S
H999 C1035 0.929 1_565 S
H1000 C1036 0.911 1_565 S
H1001 C1038 0.929 . S
N1002 C1022 1.433 . S
N1002 C1028 1.435 . S
N1002 C1034 1.423 . S
H1003 C1039 0.932 . S
C1004 N979 1.433 . S
C1004 C1005 1.363 . S
C1004 C1009 1.370 . S
C1005 H978 0.929 . S
C1005 C1004 1.363 . S
C1005 C1006 1.385 . S
C1006 H980 0.930 . S
C1006 C1005 1.385 . S
C1006 C1007 1.357 . S
C1007 C1006 1.357 . S
C1007 C1008 1.406 . S
C1008 H982 0.929 . S
C1008 C1007 1.406 . S
C1008 C1009 1.391 . S
C1009 H981 0.931 . S
C1009 C1004 1.370 . S
C1009 C1008 1.391 . S
C1010 N979 1.435 . S
C1010 C1011 1.358 . S
C1010 C1015 1.371 . S
C1011 H983 0.930 . S
C1011 C1010 1.358 . S
C1011 C1012 1.405 . S
C1012 H984 0.932 . S
C1012 C1011 1.405 . S
C1012 C1013 1.383 . S
C1013 C1012 1.383 . S
C1013 C1014 1.393 . S
C1014 H986 0.931 . S
C1014 C1013 1.393 . S
C1014 C1015 1.382 . S
C1015 H985 0.929 . S
C1015 C1010 1.371 . S
C1015 C1014 1.382 . S
C1016 N979 1.423 . S
C1016 C1017 1.362 . S
C1016 C1021 1.388 . S
C1017 H987 0.929 1_545 S
C1017 C1016 1.362 . S
C1017 C1018 1.411 . S
C1018 H989 0.880 1_545 S
C1018 C1017 1.411 . S
C1018 C1019 1.413 . S
C1019 C1018 1.413 . S
C1019 C1020 1.348 . S
C1019 C1037 1.472 . S
C1020 H990 0.929 . S
C1020 C1019 1.348 . S
C1020 C1021 1.443 . S
C1021 H988 0.932 . S
C1021 C1016 1.388 . S
C1021 C1020 1.443 . S
C1022 N1002 1.433 . S
C1022 C1023 1.363 . S
C1022 C1027 1.370 . S
C1023 H991 0.929 . S
C1023 C1022 1.363 . S
C1023 C1024 1.385 . S
C1024 H992 0.930 . S
C1024 C1023 1.385 . S
C1024 C1025 1.357 . S
C1025 C1024 1.357 . S
C1025 C1026 1.406 . S
C1026 H993 0.929 . S
C1026 C1025 1.406 . S
C1026 C1027 1.391 . S
C1027 H994 0.931 . S
C1027 C1022 1.370 . S
C1027 C1026 1.391 . S
C1028 N1002 1.435 . S
C1028 C1029 1.358 . S
C1028 C1033 1.371 . S
C1029 H995 0.930 . S
C1029 C1028 1.358 . S
C1029 C1030 1.405 . S
C1030 H996 0.932 . S
C1030 C1029 1.405 . S
C1030 C1031 1.383 . S
C1031 C1030 1.383 . S
C1031 C1032 1.393 . S
C1032 H997 0.931 . S
C1032 C1031 1.393 . S
C1032 C1033 1.382 . S
C1033 H998 0.929 . S
C1033 C1028 1.371 . S
C1033 C1032 1.382 . S
C1034 N1002 1.423 . S
C1034 C1035 1.362 . S
C1034 C1039 1.388 . S
C1035 H999 0.929 1_545 S
C1035 C1034 1.362 . S
C1035 C1036 1.353 . S
C1036 H1000 0.911 1_545 S
C1036 C1035 1.353 . S
C1036 C1037 1.441 . S
C1037 C1019 1.472 . S
C1037 C1036 1.441 . S
C1037 C1038 1.348 . S
C1038 H1001 0.929 . S
C1038 C1037 1.348 . S
C1038 C1039 1.443 . S
C1039 H1003 0.932 . S
C1039 C1034 1.388 . S
C1039 C1038 1.443 . S
H1040 C1067 0.929 . S
N1041 C1066 1.433 . S
N1041 C1072 1.435 . S
N1041 C1078 1.423 . S
H1042 C1068 0.930 . S
H1043 C1071 0.931 . S
H1044 C1070 0.929 . S
H1045 C1073 0.930 . S
H1046 C1074 0.932 . S
H1047 C1077 0.929 . S
H1048 C1076 0.931 . S
H1049 C1079 0.929 . S
H1050 C1083 0.932 1_455 S
H1051 C1080 0.931 . S
H1052 C1082 0.929 . S
H1053 C1085 0.929 . S
H1054 C1086 0.930 . S
H1055 C1088 0.929 . S
H1056 C1089 0.931 . S
H1057 C1091 0.930 . S
H1058 C1092 0.932 . S
H1059 C1094 0.931 . S
H1060 C1095 0.929 . S
H1061 C1097 0.929 . S
H1062 C1098 0.931 . S
H1063 C1100 0.942 . S
N1064 C1084 1.433 . S
N1064 C1090 1.435 . S
N1064 C1096 1.423 . S
H1065 C1101 0.932 1_455 S
C1066 N1041 1.433 . S
C1066 C1067 1.363 . S
C1066 C1071 1.370 1_655 S
C1067 H1040 0.929 . S
C1067 C1066 1.363 . S
C1067 C1068 1.385 . S
C1068 H1042 0.930 . S
C1068 C1067 1.385 . S
C1068 C1069 1.357 1_655 S
C1069 C1068 1.357 1_455 S
C1069 C1070 1.406 . S
C1070 H1044 0.929 . S
C1070 C1069 1.406 . S
C1070 C1071 1.391 . S
C1071 H1043 0.931 . S
C1071 C1066 1.370 1_455 S
C1071 C1070 1.391 . S
C1072 N1041 1.435 . S
C1072 C1073 1.358 1_655 S
C1072 C1077 1.371 . S
C1073 H1045 0.930 . S
C1073 C1072 1.358 1_455 S
C1073 C1074 1.405 . S
C1074 H1046 0.932 . S
C1074 C1073 1.405 . S
C1074 C1075 1.383 1_455 S
C1075 C1074 1.383 1_655 S
C1075 C1076 1.393 . S
C1076 H1048 0.931 . S
C1076 C1075 1.393 . S
C1076 C1077 1.382 . S
C1077 H1047 0.929 . S
C1077 C1072 1.371 . S
C1077 C1076 1.382 . S
C1078 N1041 1.423 . S
C1078 C1079 1.362 . S
C1078 C1083 1.388 . S
C1079 H1049 0.929 . S
C1079 C1078 1.362 . S
C1079 C1080 1.376 . S
C1080 H1051 0.931 . S
C1080 C1079 1.376 . S
C1080 C1081 1.396 . S
C1081 C1080 1.396 . S
C1081 C1082 1.348 . S
C1081 C1099 1.472 . S
C1082 H1052 0.929 . S
C1082 C1081 1.348 . S
C1082 C1083 1.443 . S
C1083 H1050 0.932 1_655 S
C1083 C1078 1.388 . S
C1083 C1082 1.443 . S
C1084 N1064 1.433 . S
C1084 C1085 1.363 . S
C1084 C1089 1.370 1_655 S
C1085 H1053 0.929 . S
C1085 C1084 1.363 . S
C1085 C1086 1.385 . S
C1086 H1054 0.930 . S
C1086 C1085 1.385 . S
C1086 C1087 1.357 1_655 S
C1087 C1086 1.357 1_455 S
C1087 C1088 1.406 . S
C1088 H1055 0.929 . S
C1088 C1087 1.406 . S
C1088 C1089 1.391 . S
C1089 H1056 0.931 . S
C1089 C1084 1.370 1_455 S
C1089 C1088 1.391 . S
C1090 N1064 1.435 . S
C1090 C1091 1.358 1_655 S
C1090 C1095 1.371 . S
C1091 H1057 0.930 . S
C1091 C1090 1.358 1_455 S
C1091 C1092 1.405 . S
C1092 H1058 0.932 . S
C1092 C1091 1.405 . S
C1092 C1093 1.383 1_455 S
C1093 C1092 1.383 1_655 S
C1093 C1094 1.393 . S
C1094 H1059 0.931 . S
C1094 C1093 1.393 . S
C1094 C1095 1.382 . S
C1095 H1060 0.929 . S
C1095 C1090 1.371 . S
C1095 C1094 1.382 . S
C1096 N1064 1.423 . S
C1096 C1097 1.362 . S
C1096 C1101 1.388 . S
C1097 H1061 0.929 . S
C1097 C1096 1.362 . S
C1097 C1098 1.376 . S
C1098 H1062 0.931 . S
C1098 C1097 1.376 . S
C1098 C1099 1.396 . S
C1099 C1081 1.472 . S
C1099 C1098 1.396 . S
C1099 C1100 1.348 . S
C1100 H1063 0.942 . S
C1100 C1099 1.348 . S
C1100 C1101 1.443 . S
C1101 H1065 0.932 1_655 S
C1101 C1096 1.388 . S
C1101 C1100 1.443 . S
H1102 C1129 0.929 . S
N1103 C1128 1.433 . S
N1103 C1134 1.435 . S
N1103 C1140 1.423 . S
H1104 C1130 0.930 . S
H1105 C1133 0.931 . S
H1106 C1132 0.929 . S
H1107 C1135 0.930 . S
H1108 C1136 0.932 . S
H1109 C1139 0.929 . S
H1110 C1138 0.931 . S
H1111 C1141 0.929 . S
H1112 C1145 0.932 . S
H1113 C1142 0.931 . S
H1114 C1144 0.929 . S
H1115 C1147 0.929 . S
H1116 C1148 0.930 . S
H1117 C1150 0.929 . S
H1118 C1151 0.931 . S
H1119 C1153 0.930 . S
H1120 C1154 0.932 . S
H1121 C1156 0.931 . S
H1122 C1157 0.929 . S
H1123 C1159 0.929 . S
H1124 C1160 0.931 . S
H1125 C1162 0.929 . S
N1126 C1146 1.433 . S
N1126 C1152 1.435 . S
N1126 C1158 1.423 . S
H1127 C1163 0.932 . S
C1128 N1103 1.433 . S
C1128 C1129 1.363 . S
C1128 C1133 1.370 . S
C1129 H1102 0.929 . S
C1129 C1128 1.363 . S
C1129 C1130 1.385 . S
C1130 H1104 0.930 . S
C1130 C1129 1.385 . S
C1130 C1131 1.357 . S
C1131 C1130 1.357 . S
C1131 C1132 1.406 . S
C1132 H1106 0.929 . S
C1132 C1131 1.406 . S
C1132 C1133 1.391 . S
C1133 H1105 0.931 . S
C1133 C1128 1.370 . S
C1133 C1132 1.391 . S
C1134 N1103 1.435 . S
C1134 C1135 1.358 . S
C1134 C1139 1.371 . S
C1135 H1107 0.930 . S
C1135 C1134 1.358 . S
C1135 C1136 1.405 . S
C1136 H1108 0.932 . S
C1136 C1135 1.405 . S
C1136 C1137 1.383 . S
C1137 C1136 1.383 . S
C1137 C1138 1.393 . S
C1138 H1110 0.931 . S
C1138 C1137 1.393 . S
C1138 C1139 1.382 . S
C1139 H1109 0.929 . S
C1139 C1134 1.371 . S
C1139 C1138 1.382 . S
C1140 N1103 1.423 . S
C1140 C1141 1.362 . S
C1140 C1145 1.388 . S
C1141 H1111 0.929 . S
C1141 C1140 1.362 . S
C1141 C1142 1.376 . S
C1142 H1113 0.931 . S
C1142 C1141 1.376 . S
C1142 C1143 1.396 . S
C1143 C1142 1.396 . S
C1143 C1144 1.348 . S
C1143 C1161 1.472 . S
C1144 H1114 0.929 . S
C1144 C1143 1.348 . S
C1144 C1145 1.443 . S
C1145 H1112 0.932 . S
C1145 C1140 1.388 . S
C1145 C1144 1.443 . S
C1146 N1126 1.433 . S
C1146 C1147 1.363 . S
C1146 C1151 1.370 . S
C1147 H1115 0.929 . S
C1147 C1146 1.363 . S
C1147 C1148 1.385 . S
C1148 H1116 0.930 . S
C1148 C1147 1.385 . S
C1148 C1149 1.357 . S
C1149 C1148 1.357 . S
C1149 C1150 1.406 . S
C1150 H1117 0.929 . S
C1150 C1149 1.406 . S
C1150 C1151 1.391 . S
C1151 H1118 0.931 . S
C1151 C1146 1.370 . S
C1151 C1150 1.391 . S
C1152 N1126 1.435 . S
C1152 C1153 1.358 . S
C1152 C1157 1.371 . S
C1153 H1119 0.930 . S
C1153 C1152 1.358 . S
C1153 C1154 1.405 . S
C1154 H1120 0.932 . S
C1154 C1153 1.405 . S
C1154 C1155 1.383 . S
C1155 C1154 1.383 . S
C1155 C1156 1.393 . S
C1156 H1121 0.931 . S
C1156 C1155 1.393 . S
C1156 C1157 1.382 . S
C1157 H1122 0.929 . S
C1157 C1152 1.371 . S
C1157 C1156 1.382 . S
C1158 N1126 1.423 . S
C1158 C1159 1.362 . S
C1158 C1163 1.388 . S
C1159 H1123 0.929 . S
C1159 C1158 1.362 . S
C1159 C1160 1.376 . S
C1160 H1124 0.931 . S
C1160 C1159 1.376 . S
C1160 C1161 1.396 . S
C1161 C1143 1.472 . S
C1161 C1160 1.396 . S
C1161 C1162 1.348 . S
C1162 H1125 0.929 . S
C1162 C1161 1.348 . S
C1162 C1163 1.443 . S
C1163 H1127 0.932 . S
C1163 C1158 1.388 . S
C1163 C1162 1.443 . S
H1164 C1191 0.929 . S
N1165 C1190 1.433 . S
N1165 C1196 1.435 . S
N1165 C1202 1.423 . S
H1166 C1192 0.930 . S
H1167 C1195 0.931 . S
H1168 C1194 0.929 . S
H1169 C1197 0.930 . S
H1170 C1198 0.932 . S
H1171 C1201 0.929 . S
H1172 C1200 0.931 . S
H1173 C1203 0.929 . S
H1174 C1207 0.932 . S
H1175 C1204 0.931 . S
H1176 C1206 0.929 . S
H1177 C1209 0.929 . S
H1178 C1210 0.930 . S
H1179 C1212 0.929 . S
H1180 C1213 0.931 . S
H1181 C1215 0.930 . S
H1182 C1216 0.932 . S
H1183 C1218 0.931 . S
H1184 C1219 0.929 . S
H1185 C1221 0.929 . S
H1186 C1222 0.931 . S
H1187 C1224 0.929 . S
N1188 C1208 1.433 . S
N1188 C1214 1.435 . S
N1188 C1220 1.423 . S
H1189 C1225 0.932 . S
C1190 N1165 1.433 . S
C1190 C1191 1.363 . S
C1190 C1195 1.370 . S
C1191 H1164 0.929 . S
C1191 C1190 1.363 . S
C1191 C1192 1.385 . S
C1192 H1166 0.930 . S
C1192 C1191 1.385 . S
C1192 C1193 1.357 . S
C1193 C1192 1.357 . S
C1193 C1194 1.406 . S
C1194 H1168 0.929 . S
C1194 C1193 1.406 . S
C1194 C1195 1.391 . S
C1195 H1167 0.931 . S
C1195 C1190 1.370 . S
C1195 C1194 1.391 . S
C1196 N1165 1.435 . S
C1196 C1197 1.358 . S
C1196 C1201 1.371 . S
C1197 H1169 0.930 . S
C1197 C1196 1.358 . S
C1197 C1198 1.405 . S
C1198 H1170 0.932 . S
C1198 C1197 1.405 . S
C1198 C1199 1.383 . S
C1199 C1198 1.383 . S
C1199 C1200 1.393 . S
C1200 H1172 0.931 . S
C1200 C1199 1.393 . S
C1200 C1201 1.382 . S
C1201 H1171 0.929 . S
C1201 C1196 1.371 . S
C1201 C1200 1.382 . S
C1202 N1165 1.423 . S
C1202 C1203 1.362 . S
C1202 C1207 1.388 . S
C1203 H1173 0.929 . S
C1203 C1202 1.362 . S
C1203 C1204 1.376 . S
C1204 H1175 0.931 . S
C1204 C1203 1.376 . S
C1204 C1205 1.396 . S
C1205 C1204 1.396 . S
C1205 C1206 1.348 . S
C1205 C1223 1.472 . S
C1206 H1176 0.929 . S
C1206 C1205 1.348 . S
C1206 C1207 1.443 . S
C1207 H1174 0.932 . S
C1207 C1202 1.388 . S
C1207 C1206 1.443 . S
C1208 N1188 1.433 . S
C1208 C1209 1.363 . S
C1208 C1213 1.370 . S
C1209 H1177 0.929 . S
C1209 C1208 1.363 . S
C1209 C1210 1.385 . S
C1210 H1178 0.930 . S
C1210 C1209 1.385 . S
C1210 C1211 1.357 . S
C1211 C1210 1.357 . S
C1211 C1212 1.406 . S
C1212 H1179 0.929 . S
C1212 C1211 1.406 . S
C1212 C1213 1.391 . S
C1213 H1180 0.931 . S
C1213 C1208 1.370 . S
C1213 C1212 1.391 . S
C1214 N1188 1.435 . S
C1214 C1215 1.358 . S
C1214 C1219 1.371 . S
C1215 H1181 0.930 . S
C1215 C1214 1.358 . S
C1215 C1216 1.405 . S
C1216 H1182 0.932 . S
C1216 C1215 1.405 . S
C1216 C1217 1.383 . S
C1217 C1216 1.383 . S
C1217 C1218 1.393 . S
C1218 H1183 0.931 . S
C1218 C1217 1.393 . S
C1218 C1219 1.382 . S
C1219 H1184 0.929 . S
C1219 C1214 1.371 . S
C1219 C1218 1.382 . S
C1220 N1188 1.423 . S
C1220 C1221 1.362 . S
C1220 C1225 1.388 . S
C1221 H1185 0.929 . S
C1221 C1220 1.362 . S
C1221 C1222 1.376 . S
C1222 H1186 0.931 . S
C1222 C1221 1.376 . S
C1222 C1223 1.396 . S
C1223 C1205 1.472 . S
C1223 C1222 1.396 . S
C1223 C1224 1.348 . S
C1224 H1187 0.929 . S
C1224 C1223 1.348 . S
C1224 C1225 1.443 . S
C1225 H1189 0.932 . S
C1225 C1220 1.388 . S
C1225 C1224 1.443 . S
H1226 C1253 0.929 . S
N1227 C1252 1.433 . S
N1227 C1258 1.435 . S
N1227 C1264 1.423 . S
H1228 C1254 0.930 . S
H1229 C1257 0.931 . S
H1230 C1256 0.929 . S
H1231 C1259 0.930 . S
H1232 C1260 0.932 . S
H1233 C1263 0.929 . S
H1234 C1262 0.931 . S
H1235 C1265 0.929 . S
H1236 C1269 0.932 . S
H1237 C1266 0.931 . S
H1238 C1268 0.929 . S
H1239 C1271 0.929 . S
H1240 C1272 0.930 . S
H1241 C1274 0.929 . S
H1242 C1275 0.931 . S
H1243 C1277 0.930 . S
H1244 C1278 0.932 . S
H1245 C1280 0.931 . S
H1246 C1281 0.929 . S
H1247 C1283 0.929 . S
H1248 C1284 0.931 . S
H1249 C1286 0.929 . S
N1250 C1270 1.433 . S
N1250 C1276 1.435 . S
N1250 C1282 1.423 . S
H1251 C1287 0.932 . S
C1252 N1227 1.433 . S
C1252 C1253 1.363 . S
C1252 C1257 1.370 . S
C1253 H1226 0.929 . S
C1253 C1252 1.363 . S
C1253 C1254 1.385 . S
C1254 H1228 0.930 . S
C1254 C1253 1.385 . S
C1254 C1255 1.357 . S
C1255 C1254 1.357 . S
C1255 C1256 1.406 . S
C1256 H1230 0.929 . S
C1256 C1255 1.406 . S
C1256 C1257 1.391 . S
C1257 H1229 0.931 . S
C1257 C1252 1.370 . S
C1257 C1256 1.391 . S
C1258 N1227 1.435 . S
C1258 C1259 1.358 . S
C1258 C1263 1.371 . S
C1259 H1231 0.930 . S
C1259 C1258 1.358 . S
C1259 C1260 1.405 . S
C1260 H1232 0.932 . S
C1260 C1259 1.405 . S
C1260 C1261 1.383 . S
C1261 C1260 1.383 . S
C1261 C1262 1.393 . S
C1262 H1234 0.931 . S
C1262 C1261 1.393 . S
C1262 C1263 1.382 . S
C1263 H1233 0.929 . S
C1263 C1258 1.371 . S
C1263 C1262 1.382 . S
C1264 N1227 1.423 . S
C1264 C1265 1.362 . S
C1264 C1269 1.388 . S
C1265 H1235 0.929 . S
C1265 C1264 1.362 . S
C1265 C1266 1.376 . S
C1266 H1237 0.931 . S
C1266 C1265 1.376 . S
C1266 C1267 1.396 . S
C1267 C1266 1.396 . S
C1267 C1268 1.348 . S
C1267 C1285 1.472 . S
C1268 H1238 0.929 . S
C1268 C1267 1.348 . S
C1268 C1269 1.443 . S
C1269 H1236 0.932 . S
C1269 C1264 1.388 . S
C1269 C1268 1.443 . S
C1270 N1250 1.433 . S
C1270 C1271 1.363 . S
C1270 C1275 1.370 . S
C1271 H1239 0.929 . S
C1271 C1270 1.363 . S
C1271 C1272 1.385 . S
C1272 H1240 0.930 . S
C1272 C1271 1.385 . S
C1272 C1273 1.357 . S
C1273 C1272 1.357 . S
C1273 C1274 1.406 . S
C1274 H1241 0.929 . S
C1274 C1273 1.406 . S
C1274 C1275 1.391 . S
C1275 H1242 0.931 . S
C1275 C1270 1.370 . S
C1275 C1274 1.391 . S
C1276 N1250 1.435 . S
C1276 C1277 1.358 . S
C1276 C1281 1.371 . S
C1277 H1243 0.930 . S
C1277 C1276 1.358 . S
C1277 C1278 1.405 . S
C1278 H1244 0.932 . S
C1278 C1277 1.405 . S
C1278 C1279 1.383 . S
C1279 C1278 1.383 . S
C1279 C1280 1.393 . S
C1280 H1245 0.931 . S
C1280 C1279 1.393 . S
C1280 C1281 1.382 . S
C1281 H1246 0.929 . S
C1281 C1276 1.371 . S
C1281 C1280 1.382 . S
C1282 N1250 1.423 . S
C1282 C1283 1.362 . S
C1282 C1287 1.388 . S
C1283 H1247 0.929 . S
C1283 C1282 1.362 . S
C1283 C1284 1.376 . S
C1284 H1248 0.931 . S
C1284 C1283 1.376 . S
C1284 C1285 1.396 . S
C1285 C1267 1.472 . S
C1285 C1284 1.396 . S
C1285 C1286 1.348 . S
C1286 H1249 0.929 . S
C1286 C1285 1.348 . S
C1286 C1287 1.443 . S
C1287 H1251 0.932 . S
C1287 C1282 1.388 . S
C1287 C1286 1.443 . S
H1288 C1315 0.929 . S
N1289 C1314 1.433 . S
N1289 C1320 1.435 . S
N1289 C1326 1.423 . S
H1290 C1316 0.930 . S
H1291 C1319 0.931 . S
H1292 C1318 0.929 . S
H1293 C1321 0.930 . S
H1294 C1322 0.932 . S
H1295 C1325 0.929 . S
H1296 C1324 0.931 . S
H1297 C1327 0.929 . S
H1298 C1331 0.932 . S
H1299 C1328 0.931 . S
H1300 C1330 0.929 . S
H1301 C1333 0.929 . S
H1302 C1334 0.930 . S
H1303 C1336 0.929 . S
H1304 C1337 0.931 . S
H1305 C1339 0.930 . S
H1306 C1340 0.932 . S
H1307 C1342 0.931 . S
H1308 C1343 0.929 . S
H1309 C1345 0.929 . S
H1310 C1346 0.931 . S
H1311 C1348 0.929 . S
N1312 C1332 1.433 . S
N1312 C1338 1.435 . S
N1312 C1344 1.423 . S
H1313 C1349 0.932 . S
C1314 N1289 1.433 . S
C1314 C1315 1.363 . S
C1314 C1319 1.370 . S
C1315 H1288 0.929 . S
C1315 C1314 1.363 . S
C1315 C1316 1.385 . S
C1316 H1290 0.930 . S
C1316 C1315 1.385 . S
C1316 C1317 1.357 . S
C1317 C1316 1.357 . S
C1317 C1318 1.406 . S
C1318 H1292 0.929 . S
C1318 C1317 1.406 . S
C1318 C1319 1.391 . S
C1319 H1291 0.931 . S
C1319 C1314 1.370 . S
C1319 C1318 1.391 . S
C1320 N1289 1.435 . S
C1320 C1321 1.358 . S
C1320 C1325 1.371 . S
C1321 H1293 0.930 . S
C1321 C1320 1.358 . S
C1321 C1322 1.405 . S
C1322 H1294 0.932 . S
C1322 C1321 1.405 . S
C1322 C1323 1.383 . S
C1323 C1322 1.383 . S
C1323 C1324 1.393 . S
C1324 H1296 0.931 . S
C1324 C1323 1.393 . S
C1324 C1325 1.382 . S
C1325 H1295 0.929 . S
C1325 C1320 1.371 . S
C1325 C1324 1.382 . S
C1326 N1289 1.423 . S
C1326 C1327 1.362 . S
C1326 C1331 1.388 . S
C1327 H1297 0.929 . S
C1327 C1326 1.362 . S
C1327 C1328 1.376 . S
C1328 H1299 0.931 . S
C1328 C1327 1.376 . S
C1328 C1329 1.396 . S
C1329 C1328 1.396 . S
C1329 C1330 1.348 . S
C1329 C1347 1.472 . S
C1330 H1300 0.929 . S
C1330 C1329 1.348 . S
C1330 C1331 1.443 . S
C1331 H1298 0.932 . S
C1331 C1326 1.388 . S
C1331 C1330 1.443 . S
C1332 N1312 1.433 . S
C1332 C1333 1.363 . S
C1332 C1337 1.370 . S
C1333 H1301 0.929 . S
C1333 C1332 1.363 . S
C1333 C1334 1.385 . S
C1334 H1302 0.930 . S
C1334 C1333 1.385 . S
C1334 C1335 1.357 . S
C1335 C1334 1.357 . S
C1335 C1336 1.406 . S
C1336 H1303 0.929 . S
C1336 C1335 1.406 . S
C1336 C1337 1.391 . S
C1337 H1304 0.931 . S
C1337 C1332 1.370 . S
C1337 C1336 1.391 . S
C1338 N1312 1.435 . S
C1338 C1339 1.358 . S
C1338 C1343 1.371 . S
C1339 H1305 0.930 . S
C1339 C1338 1.358 . S
C1339 C1340 1.405 . S
C1340 H1306 0.932 . S
C1340 C1339 1.405 . S
C1340 C1341 1.383 . S
C1341 C1340 1.383 . S
C1341 C1342 1.393 . S
C1342 H1307 0.931 . S
C1342 C1341 1.393 . S
C1342 C1343 1.382 . S
C1343 H1308 0.929 . S
C1343 C1338 1.371 . S
C1343 C1342 1.382 . S
C1344 N1312 1.423 . S
C1344 C1345 1.362 . S
C1344 C1349 1.388 . S
C1345 H1309 0.929 . S
C1345 C1344 1.362 . S
C1345 C1346 1.376 . S
C1346 H1310 0.931 . S
C1346 C1345 1.376 . S
C1346 C1347 1.396 . S
C1347 C1329 1.472 . S
C1347 C1346 1.396 . S
C1347 C1348 1.348 . S
C1348 H1311 0.929 . S
C1348 C1347 1.348 . S
C1348 C1349 1.443 . S
C1349 H1313 0.932 . S
C1349 C1344 1.388 . S
C1349 C1348 1.443 . S
H1350 C1356 0.930 . S
H1351 C1360 0.930 . S
H1352 C1365 0.929 . S
H1353 C1363 0.929 . S
H1354 C1358 0.929 . S
H1355 C1364 0.929 . S
C1356 H1350 0.930 . S
C1356 C1357 1.367 . S
C1356 C1364 1.378 . S
C1357 C1356 1.367 . S
C1357 C1365 1.433 . S
C1358 H1354 0.929 . S
C1358 C1360 1.378 . S
C1358 C1362 1.350 . S
C1359 C1362 1.463 . S
C1359 C1364 1.350 . S
C1359 N1367 1.427 . S
C1360 H1351 0.930 . S
C1360 C1358 1.378 . S
C1360 C1361 1.367 . S
C1361 C1360 1.367 . S
C1361 C1363 1.433 . S
C1362 C1358 1.350 . S
C1362 C1359 1.463 . S
C1362 N1366 1.427 . S
C1363 H1353 0.929 . S
C1363 C1361 1.433 . S
C1363 N1366 1.384 . S
C1364 H1355 0.929 . S
C1364 C1356 1.378 . S
C1364 C1359 1.350 . S
C1365 H1352 0.929 . S
C1365 C1357 1.433 . S
C1365 N1367 1.384 . S
N1366 C1362 1.427 . S
N1366 C1363 1.384 . S
N1367 C1359 1.427 . S
N1367 C1365 1.384 . S
H1368 C1374 0.930 . S
H1369 C1378 0.930 . S
H1370 C1383 0.929 . S
H1371 C1381 0.929 . S
H1372 C1376 0.929 . S
H1373 C1382 0.929 . S
C1374 H1368 0.930 . S
C1374 C1375 1.367 . S
C1374 C1382 1.378 . S
C1375 C1374 1.367 . S
C1375 C1383 1.433 . S
C1376 H1372 0.929 . S
C1376 C1378 1.378 . S
C1376 C1380 1.350 . S
C1377 C1380 1.463 . S
C1377 C1382 1.350 . S
C1377 N1385 1.427 . S
C1378 H1369 0.930 . S
C1378 C1376 1.378 . S
C1378 C1379 1.367 . S
C1379 C1378 1.367 . S
C1379 C1381 1.433 . S
C1380 C1376 1.350 . S
C1380 C1377 1.463 . S
C1380 N1384 1.427 . S
C1381 H1371 0.929 . S
C1381 C1379 1.433 . S
C1381 N1384 1.384 . S
C1382 H1373 0.929 . S
C1382 C1374 1.378 . S
C1382 C1377 1.350 . S
C1383 H1370 0.929 . S
C1383 C1375 1.433 . S
C1383 N1385 1.384 . S
N1384 C1380 1.427 . S
N1384 C1381 1.384 . S
N1385 C1377 1.427 . S
N1385 C1383 1.384 . S
H1386 C1392 0.930 . S
H1387 C1396 0.930 . S
H1388 C1401 0.929 . S
H1389 C1399 0.929 . S
H1390 C1394 0.929 . S
H1391 C1400 0.929 . S
C1392 H1386 0.930 . S
C1392 C1393 1.367 1_565 S
C1392 C1400 1.378 . S
C1393 C1392 1.367 1_545 S
C1393 C1401 1.433 . S
C1394 H1390 0.929 . S
C1394 C1396 1.378 . S
C1394 C1398 1.350 . S
C1395 C1398 1.463 . S
C1395 C1400 1.350 1_545 S
C1395 N1403 1.427 . S
C1396 H1387 0.930 . S
C1396 C1394 1.378 . S
C1396 C1397 1.367 . S
C1397 C1396 1.367 . S
C1397 C1399 1.433 1_545 S
C1398 C1394 1.350 . S
C1398 C1395 1.463 . S
C1398 N1402 1.427 1_545 S
C1399 H1389 0.929 . S
C1399 C1397 1.433 1_565 S
C1399 N1402 1.384 . S
C1400 H1391 0.929 . S
C1400 C1392 1.378 . S
C1400 C1395 1.350 1_565 S
C1401 H1388 0.929 . S
C1401 C1393 1.433 . S
C1401 N1403 1.384 . S
N1402 C1398 1.427 1_565 S
N1402 C1399 1.384 . S
N1403 C1395 1.427 . S
N1403 C1401 1.384 . S
H1404 C1410 0.938 . S
H1405 C1414 0.930 . S
H1406 C1419 0.929 . S
H1407 C1417 0.863 1_565 S
H1408 C1412 0.929 . S
H1409 C1418 0.929 1_565 S
C1410 H1404 0.938 . S
C1410 C1411 1.356 1_565 S
C1410 C1418 1.382 1_565 S
C1411 C1410 1.356 1_545 S
C1411 C1419 1.433 . S
C1412 H1408 0.929 . S
C1412 C1414 1.378 . S
C1412 C1416 1.350 . S
C1413 C1416 1.463 . S
C1413 C1418 1.350 . S
C1413 N1421 1.427 . S
C1414 H1405 0.930 . S
C1414 C1412 1.378 . S
C1414 C1415 1.367 . S
C1415 C1414 1.367 . S
C1415 C1417 1.479 . S
C1416 C1412 1.350 . S
C1416 C1413 1.463 . S
C1416 N1420 1.482 . S
C1417 H1407 0.863 1_545 S
C1417 C1415 1.479 . S
C1417 N1420 1.388 . S
C1418 H1409 0.929 1_545 S
C1418 C1410 1.382 1_545 S
C1418 C1413 1.350 . S
C1419 H1406 0.929 . S
C1419 C1411 1.433 . S
C1419 N1421 1.384 . S
N1420 C1416 1.482 . S
N1420 C1417 1.388 . S
N1421 C1413 1.427 . S
N1421 C1419 1.384 . S
H1422 C1428 0.930 . S
H1423 C1432 0.930 . S
H1424 C1437 0.929 . S
H1425 C1435 0.929 . S
H1426 C1430 0.929 . S
H1427 C1436 0.929 . S
C1428 H1422 0.930 . S
C1428 C1429 1.367 . S
C1428 C1436 1.378 . S
C1429 C1428 1.367 . S
C1429 C1437 1.433 . S
C1430 H1426 0.929 . S
C1430 C1432 1.378 . S
C1430 C1434 1.350 . S
C1431 C1434 1.463 . S
C1431 C1436 1.350 . S
C1431 N1439 1.427 . S
C1432 H1423 0.930 . S
C1432 C1430 1.378 . S
C1432 C1433 1.367 . S
C1433 C1432 1.367 . S
C1433 C1435 1.433 . S
C1434 C1430 1.350 . S
C1434 C1431 1.463 . S
C1434 N1438 1.427 . S
C1435 H1425 0.929 . S
C1435 C1433 1.433 . S
C1435 N1438 1.384 . S
C1436 H1427 0.929 . S
C1436 C1428 1.378 . S
C1436 C1431 1.350 . S
C1437 H1424 0.929 . S
C1437 C1429 1.433 . S
C1437 N1439 1.384 . S
N1438 C1434 1.427 . S
N1438 C1435 1.384 . S
N1439 C1431 1.427 . S
N1439 C1437 1.384 . S
H1440 C1446 0.930 . S
H1441 C1450 0.930 . S
H1442 C1455 0.929 . S
H1443 C1453 0.929 . S
H1444 C1448 0.929 . S
H1445 C1454 0.929 . S
C1446 H1440 0.930 . S
C1446 C1447 1.367 . S
C1446 C1454 1.378 . S
C1447 C1446 1.367 . S
C1447 C1455 1.433 . S
C1448 H1444 0.929 . S
C1448 C1450 1.378 . S
C1448 C1452 1.350 . S
C1449 C1452 1.463 . S
C1449 C1454 1.350 . S
C1449 N1457 1.427 . S
C1450 H1441 0.930 . S
C1450 C1448 1.378 . S
C1450 C1451 1.367 . S
C1451 C1450 1.367 . S
C1451 C1453 1.433 . S
C1452 C1448 1.350 . S
C1452 C1449 1.463 . S
C1452 N1456 1.427 . S
C1453 H1443 0.929 . S
C1453 C1451 1.433 . S
C1453 N1456 1.384 . S
C1454 H1445 0.929 . S
C1454 C1446 1.378 . S
C1454 C1449 1.350 . S
C1455 H1442 0.929 . S
C1455 C1447 1.433 . S
C1455 N1457 1.384 . S
N1456 C1452 1.427 . S
N1456 C1453 1.384 . S
N1457 C1449 1.427 . S
N1457 C1455 1.384 . S
H1458 C1464 0.933 . S
H1459 C1468 0.930 . S
H1460 C1473 0.929 . S
H1461 C1471 0.929 . S
H1462 C1466 0.929 . S
H1463 C1472 0.927 . S
C1464 H1458 0.933 . S
C1464 C1465 1.367 1_655 S
C1464 C1472 1.388 . S
C1465 C1464 1.367 1_455 S
C1465 C1473 1.433 . S
C1466 H1462 0.929 . S
C1466 C1468 1.378 . S
C1466 C1470 1.350 . S
C1467 C1470 1.463 . S
C1467 C1472 1.341 1_455 S
C1467 N1475 1.427 . S
C1468 H1459 0.930 . S
C1468 C1466 1.378 . S
C1468 C1469 1.367 . S
C1469 C1468 1.367 . S
C1469 C1471 1.433 1_455 S
C1470 C1466 1.350 . S
C1470 C1467 1.463 . S
C1470 N1474 1.427 1_455 S
C1471 H1461 0.929 . S
C1471 C1469 1.433 1_655 S
C1471 N1474 1.384 . S
C1472 H1463 0.927 . S
C1472 C1464 1.388 . S
C1472 C1467 1.341 1_655 S
C1473 H1460 0.929 . S
C1473 C1465 1.433 . S
C1473 N1475 1.384 . S
N1474 C1470 1.427 1_655 S
N1474 C1471 1.384 . S
N1475 C1467 1.427 . S
N1475 C1473 1.384 . S
H1476 C1482 0.930 . S
H1477 C1486 0.930 . S
H1478 C1491 0.929 . S
H1479 C1489 0.929 . S
H1480 C1484 0.929 . S
H1481 C1490 0.929 . S
C1482 H1476 0.930 . S
C1482 C1483 1.367 . S
C1482 C1490 1.378 . S
C1483 C1482 1.367 . S
C1483 C1491 1.433 . S
C1484 H1480 0.929 . S
C1484 C1486 1.378 . S
C1484 C1488 1.350 . S
C1485 C1488 1.463 . S
C1485 C1490 1.350 . S
C1485 N1493 1.427 . S
C1486 H1477 0.930 . S
C1486 C1484 1.378 . S
C1486 C1487 1.367 . S
C1487 C1486 1.367 . S
C1487 C1489 1.433 . S
C1488 C1484 1.350 . S
C1488 C1485 1.463 . S
C1488 N1492 1.427 . S
C1489 H1479 0.929 . S
C1489 C1487 1.433 . S
C1489 N1492 1.384 . S
C1490 H1481 0.929 . S
C1490 C1482 1.378 . S
C1490 C1485 1.350 . S
C1491 H1478 0.929 . S
C1491 C1483 1.433 . S
C1491 N1493 1.384 . S
N1492 C1488 1.427 . S
N1492 C1489 1.384 . S
N1493 C1485 1.427 . S
N1493 C1491 1.384 . S
H1494 C1500 0.930 . S
H1495 C1504 0.930 1_565 S
H1496 C1509 0.925 . S
H1497 C1507 0.929 . S
H1498 C1502 0.929 1_565 S
H1499 C1508 0.929 . S
C1500 H1494 0.930 . S
C1500 C1501 1.367 . S
C1500 C1508 1.378 . S
C1501 C1500 1.367 . S
C1501 C1509 1.436 1_545 S
C1502 H1498 0.929 1_545 S
C1502 C1504 1.378 . S
C1502 C1506 1.350 . S
C1503 C1506 1.463 . S
C1503 C1508 1.350 . S
C1503 N1511 1.459 . S
C1504 H1495 0.930 1_545 S
C1504 C1502 1.378 . S
C1504 C1505 1.367 . S
C1505 C1504 1.367 . S
C1505 C1507 1.433 . S
C1506 C1502 1.350 . S
C1506 C1503 1.463 . S
C1506 N1510 1.427 . S
C1507 H1497 0.929 . S
C1507 C1505 1.433 . S
C1507 N1510 1.384 . S
C1508 H1499 0.929 . S
C1508 C1500 1.378 . S
C1508 C1503 1.350 . S
C1509 H1496 0.925 . S
C1509 C1501 1.436 1_565 S
C1509 N1511 1.371 1_565 S
N1510 C1506 1.427 . S
N1510 C1507 1.384 . S
N1511 C1503 1.459 . S
N1511 C1509 1.371 1_545 S
H1512 C1518 0.930 . S
H1513 C1522 0.930 . S
H1514 C1527 0.929 . S
H1515 C1525 0.929 . S
H1516 C1520 0.929 . S
H1517 C1526 0.929 . S
C1518 H1512 0.930 . S
C1518 C1519 1.367 . S
C1518 C1526 1.378 . S
C1519 C1518 1.367 . S
C1519 C1527 1.433 1_545 S
C1520 H1516 0.929 . S
C1520 C1522 1.378 . S
C1520 C1524 1.350 1_565 S
C1521 C1524 1.463 . S
C1521 C1526 1.350 . S
C1521 N1529 1.427 1_545 S
C1522 H1513 0.930 . S
C1522 C1520 1.378 . S
C1522 C1523 1.367 1_565 S
C1523 C1522 1.367 1_545 S
C1523 C1525 1.433 . S
C1524 C1520 1.350 1_545 S
C1524 C1521 1.463 . S
C1524 N1528 1.427 . S
C1525 H1515 0.929 . S
C1525 C1523 1.433 . S
C1525 N1528 1.384 . S
C1526 H1517 0.929 . S
C1526 C1518 1.378 . S
C1526 C1521 1.350 . S
C1527 H1514 0.929 . S
C1527 C1519 1.433 1_565 S
C1527 N1529 1.384 . S
N1528 C1524 1.427 . S
N1528 C1525 1.384 . S
N1529 C1521 1.427 1_565 S
N1529 C1527 1.384 . S
H1530 C1536 0.930 . S
H1531 C1540 0.930 . S
H1532 C1545 0.929 . S
H1533 C1543 0.929 . S
H1534 C1538 0.929 . S
H1535 C1544 0.929 . S
C1536 H1530 0.930 . S
C1536 C1537 1.367 . S
C1536 C1544 1.378 . S
C1537 C1536 1.367 . S
C1537 C1545 1.433 . S
C1538 H1534 0.929 . S
C1538 C1540 1.378 . S
C1538 C1542 1.350 . S
C1539 C1542 1.463 . S
C1539 C1544 1.350 . S
C1539 N1547 1.427 . S
C1540 H1531 0.930 . S
C1540 C1538 1.378 . S
C1540 C1541 1.367 . S
C1541 C1540 1.367 . S
C1541 C1543 1.433 . S
C1542 C1538 1.350 . S
C1542 C1539 1.463 . S
C1542 N1546 1.427 . S
C1543 H1533 0.929 . S
C1543 C1541 1.433 . S
C1543 N1546 1.384 . S
C1544 H1535 0.929 . S
C1544 C1536 1.378 . S
C1544 C1539 1.350 . S
C1545 H1532 0.929 . S
C1545 C1537 1.433 . S
C1545 N1547 1.384 . S
N1546 C1542 1.427 . S
N1546 C1543 1.384 . S
N1547 C1539 1.427 . S
N1547 C1545 1.384 . S
H1548 C1554 0.930 . S
H1549 C1558 0.930 . S
H1550 C1563 0.929 . S
H1551 C1561 0.929 . S
H1552 C1556 0.929 . S
H1553 C1562 0.929 . S
C1554 H1548 0.930 . S
C1554 C1555 1.367 . S
C1554 C1562 1.378 . S
C1555 C1554 1.367 . S
C1555 C1563 1.433 . S
C1556 H1552 0.929 . S
C1556 C1558 1.378 . S
C1556 C1560 1.350 . S
C1557 C1560 1.463 . S
C1557 C1562 1.350 . S
C1557 N1565 1.427 . S
C1558 H1549 0.930 . S
C1558 C1556 1.378 . S
C1558 C1559 1.367 . S
C1559 C1558 1.367 . S
C1559 C1561 1.433 . S
C1560 C1556 1.350 . S
C1560 C1557 1.463 . S
C1560 N1564 1.427 . S
C1561 H1551 0.929 . S
C1561 C1559 1.433 . S
C1561 N1564 1.384 . S
C1562 H1553 0.929 . S
C1562 C1554 1.378 . S
C1562 C1557 1.350 . S
C1563 H1550 0.929 . S
C1563 C1555 1.433 . S
C1563 N1565 1.384 . S
N1564 C1560 1.427 . S
N1564 C1561 1.384 . S
N1565 C1557 1.427 . S
N1565 C1563 1.384 . S
H1566 C1572 0.930 . S
H1567 C1576 0.930 . S
H1568 C1581 0.929 . S
H1569 C1579 0.929 . S
H1570 C1574 0.929 . S
H1571 C1580 0.929 . S
C1572 H1566 0.930 . S
C1572 C1573 1.367 . S
C1572 C1580 1.378 . S
C1573 C1572 1.367 . S
C1573 C1581 1.433 . S
C1574 H1570 0.929 . S
C1574 C1576 1.378 . S
C1574 C1578 1.350 . S
C1575 C1578 1.463 . S
C1575 C1580 1.350 . S
C1575 N1583 1.427 . S
C1576 H1567 0.930 . S
C1576 C1574 1.378 . S
C1576 C1577 1.367 . S
C1577 C1576 1.367 . S
C1577 C1579 1.433 . S
C1578 C1574 1.350 . S
C1578 C1575 1.463 . S
C1578 N1582 1.427 . S
C1579 H1569 0.929 . S
C1579 C1577 1.433 . S
C1579 N1582 1.384 . S
C1580 H1571 0.929 . S
C1580 C1572 1.378 . S
C1580 C1575 1.350 . S
C1581 H1568 0.929 . S
C1581 C1573 1.433 . S
C1581 N1583 1.384 . S
N1582 C1578 1.427 . S
N1582 C1579 1.384 . S
N1583 C1575 1.427 . S
N1583 C1581 1.384 . S
H1584 C1590 0.930 . S
H1585 C1594 0.930 . S
H1586 C1599 0.929 . S
H1587 C1597 0.929 . S
H1588 C1592 0.929 . S
H1589 C1598 0.929 . S
C1590 H1584 0.930 . S
C1590 C1591 1.367 . S
C1590 C1598 1.378 . S
C1591 C1590 1.367 . S
C1591 C1599 1.433 . S
C1592 H1588 0.929 . S
C1592 C1594 1.378 . S
C1592 C1596 1.350 . S
C1593 C1596 1.463 . S
C1593 C1598 1.350 . S
C1593 N1601 1.427 . S
C1594 H1585 0.930 . S
C1594 C1592 1.378 . S
C1594 C1595 1.367 . S
C1595 C1594 1.367 . S
C1595 C1597 1.433 . S
C1596 C1592 1.350 . S
C1596 C1593 1.463 . S
C1596 N1600 1.427 . S
C1597 H1587 0.929 . S
C1597 C1595 1.433 . S
C1597 N1600 1.384 . S
C1598 H1589 0.929 . S
C1598 C1590 1.378 . S
C1598 C1593 1.350 . S
C1599 H1586 0.929 . S
C1599 C1591 1.433 . S
C1599 N1601 1.384 . S
N1600 C1596 1.427 . S
N1600 C1597 1.384 . S
N1601 C1593 1.427 . S
N1601 C1599 1.384 . S
H1602 C1608 0.930 . S
H1603 C1612 0.930 . S
H1604 C1617 0.929 . S
H1605 C1615 0.929 . S
H1606 C1610 0.929 . S
H1607 C1616 0.929 . S
C1608 H1602 0.930 . S
C1608 C1609 1.367 . S
C1608 C1616 1.378 . S
C1609 C1608 1.367 . S
C1609 C1617 1.433 . S
C1610 H1606 0.929 . S
C1610 C1612 1.378 . S
C1610 C1614 1.350 . S
C1611 C1614 1.463 . S
C1611 C1616 1.350 . S
C1611 N1619 1.427 . S
C1612 H1603 0.930 . S
C1612 C1610 1.378 . S
C1612 C1613 1.367 . S
C1613 C1612 1.367 . S
C1613 C1615 1.433 . S
C1614 C1610 1.350 . S
C1614 C1611 1.463 . S
C1614 N1618 1.427 . S
C1615 H1605 0.929 . S
C1615 C1613 1.433 . S
C1615 N1618 1.384 . S
C1616 H1607 0.929 . S
C1616 C1608 1.378 . S
C1616 C1611 1.350 . S
C1617 H1604 0.929 . S
C1617 C1609 1.433 . S
C1617 N1619 1.384 . S
N1618 C1614 1.427 . S
N1618 C1615 1.384 . S
N1619 C1611 1.427 . S
N1619 C1617 1.384 . S
H1620 C1626 0.930 . S
H1621 C1630 0.930 . S
H1622 C1635 0.929 . S
H1623 C1633 0.929 . S
H1624 C1628 0.929 . S
H1625 C1634 0.929 . S
C1626 H1620 0.930 . S
C1626 C1627 1.367 . S
C1626 C1634 1.378 . S
C1627 C1626 1.367 . S
C1627 C1635 1.433 . S
C1628 H1624 0.929 . S
C1628 C1630 1.378 . S
C1628 C1632 1.350 . S
C1629 C1632 1.463 . S
C1629 C1634 1.350 . S
C1629 N1637 1.427 . S
C1630 H1621 0.930 . S
C1630 C1628 1.378 . S
C1630 C1631 1.367 . S
C1631 C1630 1.367 . S
C1631 C1633 1.433 . S
C1632 C1628 1.350 . S
C1632 C1629 1.463 . S
C1632 N1636 1.427 . S
C1633 H1623 0.929 . S
C1633 C1631 1.433 . S
C1633 N1636 1.384 . S
C1634 H1625 0.929 . S
C1634 C1626 1.378 . S
C1634 C1629 1.350 . S
C1635 H1622 0.929 . S
C1635 C1627 1.433 . S
C1635 N1637 1.384 . S
N1636 C1632 1.427 . S
N1636 C1633 1.384 . S
N1637 C1629 1.427 . S
N1637 C1635 1.384 . S
H1638 C1644 0.930 . S
H1639 C1648 0.930 . S
H1640 C1653 0.929 . S
H1641 C1651 0.929 . S
H1642 C1646 0.929 . S
H1643 C1652 0.929 . S
C1644 H1638 0.930 . S
C1644 C1645 1.367 . S
C1644 C1652 1.378 . S
C1645 C1644 1.367 . S
C1645 C1653 1.433 . S
C1646 H1642 0.929 . S
C1646 C1648 1.378 . S
C1646 C1650 1.350 . S
C1647 C1650 1.463 . S
C1647 C1652 1.350 . S
C1647 N1655 1.427 . S
C1648 H1639 0.930 . S
C1648 C1646 1.378 . S
C1648 C1649 1.367 . S
C1649 C1648 1.367 . S
C1649 C1651 1.433 . S
C1650 C1646 1.350 . S
C1650 C1647 1.463 . S
C1650 N1654 1.427 . S
C1651 H1641 0.929 . S
C1651 C1649 1.433 . S
C1651 N1654 1.384 . S
C1652 H1643 0.929 . S
C1652 C1644 1.378 . S
C1652 C1647 1.350 . S
C1653 H1640 0.929 . S
C1653 C1645 1.433 . S
C1653 N1655 1.384 . S
N1654 C1650 1.427 . S
N1654 C1651 1.384 . S
N1655 C1647 1.427 . S
N1655 C1653 1.384 . S
H1656 C1662 0.930 . S
H1657 C1666 0.930 . S
H1658 C1671 0.929 . S
H1659 C1669 0.929 . S
H1660 C1664 0.929 . S
H1661 C1670 0.929 . S
C1662 H1656 0.930 . S
C1662 C1663 1.367 . S
C1662 C1670 1.378 . S
C1663 C1662 1.367 . S
C1663 C1671 1.433 . S
C1664 H1660 0.929 . S
C1664 C1666 1.378 . S
C1664 C1668 1.350 . S
C1665 C1668 1.463 . S
C1665 C1670 1.350 . S
C1665 N1673 1.427 . S
C1666 H1657 0.930 . S
C1666 C1664 1.378 . S
C1666 C1667 1.367 . S
C1667 C1666 1.367 . S
C1667 C1669 1.433 . S
C1668 C1664 1.350 . S
C1668 C1665 1.463 . S
C1668 N1672 1.427 . S
C1669 H1659 0.929 . S
C1669 C1667 1.433 . S
C1669 N1672 1.384 . S
C1670 H1661 0.929 . S
C1670 C1662 1.378 . S
C1670 C1665 1.350 . S
C1671 H1658 0.929 . S
C1671 C1663 1.433 . S
C1671 N1673 1.384 . S
N1672 C1668 1.427 . S
N1672 C1669 1.384 . S
N1673 C1665 1.427 . S
N1673 C1671 1.384 . S
H1674 C1680 0.930 . S
H1675 C1684 0.930 . S
H1676 C1689 0.929 . S
H1677 C1687 0.929 . S
H1678 C1682 0.929 . S
H1679 C1688 0.929 . S
C1680 H1674 0.930 . S
C1680 C1681 1.367 . S
C1680 C1688 1.378 . S
C1681 C1680 1.367 . S
C1681 C1689 1.433 . S
C1682 H1678 0.929 . S
C1682 C1684 1.378 . S
C1682 C1686 1.350 . S
C1683 C1686 1.463 . S
C1683 C1688 1.350 . S
C1683 N1691 1.427 . S
C1684 H1675 0.930 . S
C1684 C1682 1.378 . S
C1684 C1685 1.367 . S
C1685 C1684 1.367 . S
C1685 C1687 1.433 . S
C1686 C1682 1.350 . S
C1686 C1683 1.463 . S
C1686 N1690 1.427 . S
C1687 H1677 0.929 . S
C1687 C1685 1.433 . S
C1687 N1690 1.384 . S
C1688 H1679 0.929 . S
C1688 C1680 1.378 . S
C1688 C1683 1.350 . S
C1689 H1676 0.929 . S
C1689 C1681 1.433 . S
C1689 N1691 1.384 . S
N1690 C1686 1.427 . S
N1690 C1687 1.384 . S
N1691 C1683 1.427 . S
N1691 C1689 1.384 . S
H1692 C1698 0.930 . S
H1693 C1702 0.930 . S
H1694 C1707 0.929 . S
H1695 C1705 0.929 . S
H1696 C1700 0.929 . S
H1697 C1706 0.929 . S
C1698 H1692 0.930 . S
C1698 C1699 1.367 . S
C1698 C1706 1.378 . S
C1699 C1698 1.367 . S
C1699 C1707 1.433 . S
C1700 H1696 0.929 . S
C1700 C1702 1.378 . S
C1700 C1704 1.350 . S
C1701 C1704 1.463 . S
C1701 C1706 1.350 . S
C1701 N1709 1.427 . S
C1702 H1693 0.930 . S
C1702 C1700 1.378 . S
C1702 C1703 1.367 . S
C1703 C1702 1.367 . S
C1703 C1705 1.433 . S
C1704 C1700 1.350 . S
C1704 C1701 1.463 . S
C1704 N1708 1.427 . S
C1705 H1695 0.929 . S
C1705 C1703 1.433 . S
C1705 N1708 1.384 . S
C1706 H1697 0.929 . S
C1706 C1698 1.378 . S
C1706 C1701 1.350 . S
C1707 H1694 0.929 . S
C1707 C1699 1.433 . S
C1707 N1709 1.384 . S
N1708 C1704 1.427 . S
N1708 C1705 1.384 . S
N1709 C1701 1.427 . S
N1709 C1707 1.384 . S
H1710 C1716 0.930 . S
H1711 C1720 0.930 . S
H1712 C1725 0.929 . S
H1713 C1723 0.929 . S
H1714 C1718 0.929 . S
H1715 C1724 0.929 . S
C1716 H1710 0.930 . S
C1716 C1717 1.367 . S
C1716 C1724 1.378 . S
C1717 C1716 1.367 . S
C1717 C1725 1.433 . S
C1718 H1714 0.929 . S
C1718 C1720 1.378 . S
C1718 C1722 1.350 . S
C1719 C1722 1.463 . S
C1719 C1724 1.350 . S
C1719 N1727 1.427 . S
C1720 H1711 0.930 . S
C1720 C1718 1.378 . S
C1720 C1721 1.367 . S
C1721 C1720 1.367 . S
C1721 C1723 1.433 . S
C1722 C1718 1.350 . S
C1722 C1719 1.463 . S
C1722 N1726 1.427 . S
C1723 H1713 0.929 . S
C1723 C1721 1.433 . S
C1723 N1726 1.384 . S
C1724 H1715 0.929 . S
C1724 C1716 1.378 . S
C1724 C1719 1.350 . S
C1725 H1712 0.929 . S
C1725 C1717 1.433 . S
C1725 N1727 1.384 . S
N1726 C1722 1.427 . S
N1726 C1723 1.384 . S
N1727 C1719 1.427 . S
N1727 C1725 1.384 . S
H1728 C1734 0.930 . S
H1729 C1738 0.930 . S
H1730 C1743 0.929 . S
H1731 C1741 0.929 . S
H1732 C1736 0.929 . S
H1733 C1742 0.929 . S
C1734 H1728 0.930 . S
C1734 C1735 1.367 . S
C1734 C1742 1.378 . S
C1735 C1734 1.367 . S
C1735 C1743 1.433 . S
C1736 H1732 0.929 . S
C1736 C1738 1.378 . S
C1736 C1740 1.350 . S
C1737 C1740 1.463 . S
C1737 C1742 1.350 . S
C1737 N1745 1.427 . S
C1738 H1729 0.930 . S
C1738 C1736 1.378 . S
C1738 C1739 1.367 . S
C1739 C1738 1.367 . S
C1739 C1741 1.433 . S
C1740 C1736 1.350 . S
C1740 C1737 1.463 . S
C1740 N1744 1.427 . S
C1741 H1731 0.929 . S
C1741 C1739 1.433 . S
C1741 N1744 1.384 . S
C1742 H1733 0.929 . S
C1742 C1734 1.378 . S
C1742 C1737 1.350 . S
C1743 H1730 0.929 . S
C1743 C1735 1.433 . S
C1743 N1745 1.384 . S
N1744 C1740 1.427 . S
N1744 C1741 1.384 . S
N1745 C1737 1.427 . S
N1745 C1743 1.384 . S
H1746 C1752 0.930 . S
H1747 C1756 0.930 . S
H1748 C1761 0.929 . S
H1749 C1759 0.929 . S
H1750 C1754 0.929 . S
H1751 C1760 0.929 . S
C1752 H1746 0.930 . S
C1752 C1753 1.367 . S
C1752 C1760 1.378 . S
C1753 C1752 1.367 . S
C1753 C1761 1.433 . S
C1754 H1750 0.929 . S
C1754 C1756 1.378 . S
C1754 C1758 1.350 . S
C1755 C1758 1.463 . S
C1755 C1760 1.350 . S
C1755 N1763 1.427 . S
C1756 H1747 0.930 . S
C1756 C1754 1.378 . S
C1756 C1757 1.367 . S
C1757 C1756 1.367 . S
C1757 C1759 1.433 . S
C1758 C1754 1.350 . S
C1758 C1755 1.463 . S
C1758 N1762 1.427 . S
C1759 H1749 0.929 . S
C1759 C1757 1.433 . S
C1759 N1762 1.384 . S
C1760 H1751 0.929 . S
C1760 C1752 1.378 . S
C1760 C1755 1.350 . S
C1761 H1748 0.929 . S
C1761 C1753 1.433 . S
C1761 N1763 1.384 . S
N1762 C1758 1.427 . S
N1762 C1759 1.384 . S
N1763 C1755 1.427 . S
N1763 C1761 1.384 . S
H1764 C1770 0.930 . S
H1765 C1774 0.930 . S
H1766 C1779 0.929 . S
H1767 C1777 0.929 . S
H1768 C1772 0.929 . S
H1769 C1778 0.929 . S
C1770 H1764 0.930 . S
C1770 C1771 1.367 . S
C1770 C1778 1.378 . S
C1771 C1770 1.367 . S
C1771 C1779 1.433 . S
C1772 H1768 0.929 . S
C1772 C1774 1.378 . S
C1772 C1776 1.350 . S
C1773 C1776 1.463 . S
C1773 C1778 1.350 . S
C1773 N1781 1.427 . S
C1774 H1765 0.930 . S
C1774 C1772 1.378 . S
C1774 C1775 1.367 . S
C1775 C1774 1.367 . S
C1775 C1777 1.433 . S
C1776 C1772 1.350 . S
C1776 C1773 1.463 . S
C1776 N1780 1.427 . S
C1777 H1767 0.929 . S
C1777 C1775 1.433 . S
C1777 N1780 1.384 . S
C1778 H1769 0.929 . S
C1778 C1770 1.378 . S
C1778 C1773 1.350 . S
C1779 H1766 0.929 . S
C1779 C1771 1.433 . S
C1779 N1781 1.384 . S
N1780 C1776 1.427 . S
N1780 C1777 1.384 . S
N1781 C1773 1.427 . S
N1781 C1779 1.384 . S
H1782 C1788 0.930 . S
H1783 C1792 0.930 . S
H1784 C1797 0.929 . S
H1785 C1795 0.929 . S
H1786 C1790 0.929 . S
H1787 C1796 0.929 . S
C1788 H1782 0.930 . S
C1788 C1789 1.367 . S
C1788 C1796 1.378 . S
C1789 C1788 1.367 . S
C1789 C1797 1.433 . S
C1790 H1786 0.929 . S
C1790 C1792 1.378 . S
C1790 C1794 1.350 . S
C1791 C1794 1.463 . S
C1791 C1796 1.350 . S
C1791 N1799 1.427 . S
C1792 H1783 0.930 . S
C1792 C1790 1.378 . S
C1792 C1793 1.367 . S
C1793 C1792 1.367 . S
C1793 C1795 1.433 . S
C1794 C1790 1.350 . S
C1794 C1791 1.463 . S
C1794 N1798 1.427 . S
C1795 H1785 0.929 . S
C1795 C1793 1.433 . S
C1795 N1798 1.384 . S
C1796 H1787 0.929 . S
C1796 C1788 1.378 . S
C1796 C1791 1.350 . S
C1797 H1784 0.929 . S
C1797 C1789 1.433 . S
C1797 N1799 1.384 . S
N1798 C1794 1.427 . S
N1798 C1795 1.384 . S
N1799 C1791 1.427 . S
N1799 C1797 1.384 . S
H1800 C1806 0.930 . S
H1801 C1810 0.930 . S
H1802 C1815 0.929 . S
H1803 C1813 0.929 . S
H1804 C1808 0.929 . S
H1805 C1814 0.929 . S
C1806 H1800 0.930 . S
C1806 C1807 1.367 . S
C1806 C1814 1.378 . S
C1807 C1806 1.367 . S
C1807 C1815 1.433 . S
C1808 H1804 0.929 . S
C1808 C1810 1.378 . S
C1808 C1812 1.350 . S
C1809 C1812 1.463 . S
C1809 C1814 1.350 . S
C1809 N1817 1.427 . S
C1810 H1801 0.930 . S
C1810 C1808 1.378 . S
C1810 C1811 1.367 . S
C1811 C1810 1.367 . S
C1811 C1813 1.433 . S
C1812 C1808 1.350 . S
C1812 C1809 1.463 . S
C1812 N1816 1.427 . S
C1813 H1803 0.929 . S
C1813 C1811 1.433 . S
C1813 N1816 1.384 . S
C1814 H1805 0.929 . S
C1814 C1806 1.378 . S
C1814 C1809 1.350 . S
C1815 H1802 0.929 . S
C1815 C1807 1.433 . S
C1815 N1817 1.384 . S
N1816 C1812 1.427 . S
N1816 C1813 1.384 . S
N1817 C1809 1.427 . S
N1817 C1815 1.384 . S
H1818 C1824 0.930 . S
H1819 C1828 0.930 . S
H1820 C1833 0.929 . S
H1821 C1831 0.929 . S
H1822 C1826 0.929 . S
H1823 C1832 0.929 . S
C1824 H1818 0.930 . S
C1824 C1825 1.367 . S
C1824 C1832 1.378 . S
C1825 C1824 1.367 . S
C1825 C1833 1.433 . S
C1826 H1822 0.929 . S
C1826 C1828 1.378 . S
C1826 C1830 1.350 . S
C1827 C1830 1.463 . S
C1827 C1832 1.350 . S
C1827 N1835 1.427 . S
C1828 H1819 0.930 . S
C1828 C1826 1.378 . S
C1828 C1829 1.367 . S
C1829 C1828 1.367 . S
C1829 C1831 1.433 . S
C1830 C1826 1.350 . S
C1830 C1827 1.463 . S
C1830 N1834 1.427 . S
C1831 H1821 0.929 . S
C1831 C1829 1.433 . S
C1831 N1834 1.384 . S
C1832 H1823 0.929 . S
C1832 C1824 1.378 . S
C1832 C1827 1.350 . S
C1833 H1820 0.929 . S
C1833 C1825 1.433 . S
C1833 N1835 1.384 . S
N1834 C1830 1.427 . S
N1834 C1831 1.384 . S
N1835 C1827 1.427 . S
N1835 C1833 1.384 . S
H1836 C1842 0.930 . S
H1837 C1846 0.930 . S
H1838 C1851 0.929 . S
H1839 C1849 0.929 . S
H1840 C1844 0.929 . S
H1841 C1850 0.929 . S
C1842 H1836 0.930 . S
C1842 C1843 1.367 . S
C1842 C1850 1.378 . S
C1843 C1842 1.367 . S
C1843 C1851 1.433 . S
C1844 H1840 0.929 . S
C1844 C1846 1.378 . S
C1844 C1848 1.350 . S
C1845 C1848 1.463 . S
C1845 C1850 1.350 . S
C1845 N1853 1.427 . S
C1846 H1837 0.930 . S
C1846 C1844 1.378 . S
C1846 C1847 1.367 . S
C1847 C1846 1.367 . S
C1847 C1849 1.433 . S
C1848 C1844 1.350 . S
C1848 C1845 1.463 . S
C1848 N1852 1.427 . S
C1849 H1839 0.929 . S
C1849 C1847 1.433 . S
C1849 N1852 1.384 . S
C1850 H1841 0.929 . S
C1850 C1842 1.378 . S
C1850 C1845 1.350 . S
C1851 H1838 0.929 . S
C1851 C1843 1.433 . S
C1851 N1853 1.384 . S
N1852 C1848 1.427 . S
N1852 C1849 1.384 . S
N1853 C1845 1.427 . S
N1853 C1851 1.384 . S
H1854 C1860 0.930 . S
H1855 C1864 0.930 . S
H1856 C1869 0.929 . S
H1857 C1867 0.929 . S
H1858 C1862 0.929 . S
H1859 C1868 0.929 . S
C1860 H1854 0.930 . S
C1860 C1861 1.367 . S
C1860 C1868 1.378 . S
C1861 C1860 1.367 . S
C1861 C1869 1.433 . S
C1862 H1858 0.929 . S
C1862 C1864 1.378 . S
C1862 C1866 1.350 . S
C1863 C1866 1.463 . S
C1863 C1868 1.350 . S
C1863 N1871 1.427 . S
C1864 H1855 0.930 . S
C1864 C1862 1.378 . S
C1864 C1865 1.367 . S
C1865 C1864 1.367 . S
C1865 C1867 1.433 . S
C1866 C1862 1.350 . S
C1866 C1863 1.463 . S
C1866 N1870 1.427 . S
C1867 H1857 0.929 . S
C1867 C1865 1.433 . S
C1867 N1870 1.384 . S
C1868 H1859 0.929 . S
C1868 C1860 1.378 . S
C1868 C1863 1.350 . S
C1869 H1856 0.929 . S
C1869 C1861 1.433 . S
C1869 N1871 1.384 . S
N1870 C1866 1.427 . S
N1870 C1867 1.384 . S
N1871 C1863 1.427 . S
N1871 C1869 1.384 . S
H1872 C1878 0.930 . S
H1873 C1882 0.930 . S
H1874 C1887 0.929 . S
H1875 C1885 0.929 . S
H1876 C1880 0.929 . S
H1877 C1886 0.929 . S
C1878 H1872 0.930 . S
C1878 C1879 1.367 . S
C1878 C1886 1.378 . S
C1879 C1878 1.367 . S
C1879 C1887 1.433 . S
C1880 H1876 0.929 . S
C1880 C1882 1.378 . S
C1880 C1884 1.350 . S
C1881 C1884 1.463 . S
C1881 C1886 1.350 . S
C1881 N1889 1.427 . S
C1882 H1873 0.930 . S
C1882 C1880 1.378 . S
C1882 C1883 1.367 . S
C1883 C1882 1.367 . S
C1883 C1885 1.433 . S
C1884 C1880 1.350 . S
C1884 C1881 1.463 . S
C1884 N1888 1.427 . S
C1885 H1875 0.929 . S
C1885 C1883 1.433 . S
C1885 N1888 1.384 . S
C1886 H1877 0.929 . S
C1886 C1878 1.378 . S
C1886 C1881 1.350 . S
C1887 H1874 0.929 . S
C1887 C1879 1.433 . S
C1887 N1889 1.384 . S
N1888 C1884 1.427 . S
N1888 C1885 1.384 . S
N1889 C1881 1.427 . S
N1889 C1887 1.384 . S
H1890 C1896 0.930 . S
H1891 C1900 0.930 . S
H1892 C1905 0.929 . S
H1893 C1903 0.929 . S
H1894 C1898 0.929 . S
H1895 C1904 0.929 . S
C1896 H1890 0.930 . S
C1896 C1897 1.367 . S
C1896 C1904 1.378 . S
C1897 C1896 1.367 . S
C1897 C1905 1.433 . S
C1898 H1894 0.929 . S
C1898 C1900 1.378 . S
C1898 C1902 1.350 . S
C1899 C1902 1.463 . S
C1899 C1904 1.350 . S
C1899 N1907 1.427 . S
C1900 H1891 0.930 . S
C1900 C1898 1.378 . S
C1900 C1901 1.367 . S
C1901 C1900 1.367 . S
C1901 C1903 1.433 . S
C1902 C1898 1.350 . S
C1902 C1899 1.463 . S
C1902 N1906 1.427 . S
C1903 H1893 0.929 . S
C1903 C1901 1.433 . S
C1903 N1906 1.384 . S
C1904 H1895 0.929 . S
C1904 C1896 1.378 . S
C1904 C1899 1.350 . S
C1905 H1892 0.929 . S
C1905 C1897 1.433 . S
C1905 N1907 1.384 . S
N1906 C1902 1.427 . S
N1906 C1903 1.384 . S
N1907 C1899 1.427 . S
N1907 C1905 1.384 . S
H1908 C1914 0.930 . S
H1909 C1918 0.930 . S
H1910 C1923 0.929 . S
H1911 C1921 0.929 . S
H1912 C1916 0.929 . S
H1913 C1922 0.929 . S
C1914 H1908 0.930 . S
C1914 C1915 1.367 . S
C1914 C1922 1.378 . S
C1915 C1914 1.367 . S
C1915 C1923 1.433 . S
C1916 H1912 0.929 . S
C1916 C1918 1.378 . S
C1916 C1920 1.350 . S
C1917 C1920 1.463 . S
C1917 C1922 1.350 . S
C1917 N1925 1.427 . S
C1918 H1909 0.930 . S
C1918 C1916 1.378 . S
C1918 C1919 1.367 . S
C1919 C1918 1.367 . S
C1919 C1921 1.433 . S
C1920 C1916 1.350 . S
C1920 C1917 1.463 . S
C1920 N1924 1.427 . S
C1921 H1911 0.929 . S
C1921 C1919 1.433 . S
C1921 N1924 1.384 . S
C1922 H1913 0.929 . S
C1922 C1914 1.378 . S
C1922 C1917 1.350 . S
C1923 H1910 0.929 . S
C1923 C1915 1.433 . S
C1923 N1925 1.384 . S
N1924 C1920 1.427 . S
N1924 C1921 1.384 . S
N1925 C1917 1.427 . S
N1925 C1923 1.384 . S
H1926 C1932 0.930 . S
H1927 C1936 0.930 . S
H1928 C1941 0.929 . S
H1929 C1939 0.929 . S
H1930 C1934 0.929 . S
H1931 C1940 0.929 . S
C1932 H1926 0.930 . S
C1932 C1933 1.367 . S
C1932 C1940 1.378 . S
C1933 C1932 1.367 . S
C1933 C1941 1.433 . S
C1934 H1930 0.929 . S
C1934 C1936 1.378 . S
C1934 C1938 1.350 . S
C1935 C1938 1.463 . S
C1935 C1940 1.350 . S
C1935 N1943 1.427 . S
C1936 H1927 0.930 . S
C1936 C1934 1.378 . S
C1936 C1937 1.367 . S
C1937 C1936 1.367 . S
C1937 C1939 1.433 . S
C1938 C1934 1.350 . S
C1938 C1935 1.463 . S
C1938 N1942 1.427 . S
C1939 H1929 0.929 . S
C1939 C1937 1.433 . S
C1939 N1942 1.384 . S
C1940 H1931 0.929 . S
C1940 C1932 1.378 . S
C1940 C1935 1.350 . S
C1941 H1928 0.929 . S
C1941 C1933 1.433 . S
C1941 N1943 1.384 . S
N1942 C1938 1.427 . S
N1942 C1939 1.384 . S
N1943 C1935 1.427 . S
N1943 C1941 1.384 . S
H1944 C1950 0.930 . S
H1945 C1954 0.930 . S
H1946 C1959 0.929 . S
H1947 C1957 0.929 . S
H1948 C1952 0.929 . S
H1949 C1958 0.929 . S
C1950 H1944 0.930 . S
C1950 C1951 1.367 . S
C1950 C1958 1.378 . S
C1951 C1950 1.367 . S
C1951 C1959 1.433 . S
C1952 H1948 0.929 . S
C1952 C1954 1.378 . S
C1952 C1956 1.350 . S
C1953 C1956 1.463 . S
C1953 C1958 1.350 . S
C1953 N1961 1.427 . S
C1954 H1945 0.930 . S
C1954 C1952 1.378 . S
C1954 C1955 1.367 . S
C1955 C1954 1.367 . S
C1955 C1957 1.433 . S
C1956 C1952 1.350 . S
C1956 C1953 1.463 . S
C1956 N1960 1.427 . S
C1957 H1947 0.929 . S
C1957 C1955 1.433 . S
C1957 N1960 1.384 . S
C1958 H1949 0.929 . S
C1958 C1950 1.378 . S
C1958 C1953 1.350 . S
C1959 H1946 0.929 . S
C1959 C1951 1.433 . S
C1959 N1961 1.384 . S
N1960 C1956 1.427 . S
N1960 C1957 1.384 . S
N1961 C1953 1.427 . S
N1961 C1959 1.384 . S
H1962 C1968 0.930 . S
H1963 C1972 0.930 . S
H1964 C1977 0.929 . S
H1965 C1975 0.929 . S
H1966 C1970 0.929 . S
H1967 C1976 0.929 . S
C1968 H1962 0.930 . S
C1968 C1969 1.367 . S
C1968 C1976 1.378 . S
C1969 C1968 1.367 . S
C1969 C1977 1.433 . S
C1970 H1966 0.929 . S
C1970 C1972 1.378 . S
C1970 C1974 1.350 . S
C1971 C1974 1.463 . S
C1971 C1976 1.350 . S
C1971 N1979 1.427 . S
C1972 H1963 0.930 . S
C1972 C1970 1.378 . S
C1972 C1973 1.367 . S
C1973 C1972 1.367 . S
C1973 C1975 1.433 . S
C1974 C1970 1.350 . S
C1974 C1971 1.463 . S
C1974 N1978 1.427 . S
C1975 H1965 0.929 . S
C1975 C1973 1.433 . S
C1975 N1978 1.384 . S
C1976 H1967 0.929 . S
C1976 C1968 1.378 . S
C1976 C1971 1.350 . S
C1977 H1964 0.929 . S
C1977 C1969 1.433 . S
C1977 N1979 1.384 . S
N1978 C1974 1.427 . S
N1978 C1975 1.384 . S
N1979 C1971 1.427 . S
N1979 C1977 1.384 . S
H1980 C1986 0.930 . S
H1981 C1990 0.930 . S
H1982 C1995 0.929 . S
H1983 C1993 0.929 . S
H1984 C1988 0.929 . S
H1985 C1994 0.929 . S
C1986 H1980 0.930 . S
C1986 C1987 1.367 . S
C1986 C1994 1.378 . S
C1987 C1986 1.367 . S
C1987 C1995 1.433 . S
C1988 H1984 0.929 . S
C1988 C1990 1.378 . S
C1988 C1992 1.350 . S
C1989 C1992 1.463 . S
C1989 C1994 1.350 . S
C1989 N1997 1.427 . S
C1990 H1981 0.930 . S
C1990 C1988 1.378 . S
C1990 C1991 1.367 . S
C1991 C1990 1.367 . S
C1991 C1993 1.433 . S
C1992 C1988 1.350 . S
C1992 C1989 1.463 . S
C1992 N1996 1.427 . S
C1993 H1983 0.929 . S
C1993 C1991 1.433 . S
C1993 N1996 1.384 . S
C1994 H1985 0.929 . S
C1994 C1986 1.378 . S
C1994 C1989 1.350 . S
C1995 H1982 0.929 . S
C1995 C1987 1.433 . S
C1995 N1997 1.384 . S
N1996 C1992 1.427 . S
N1996 C1993 1.384 . S
N1997 C1989 1.427 . S
N1997 C1995 1.384 . S
H1998 C2004 0.930 . S
H1999 C2008 0.930 . S
H2000 C2013 0.929 . S
H2001 C2011 0.929 . S
H2002 C2006 0.929 . S
H2003 C2012 0.929 . S
C2004 H1998 0.930 . S
C2004 C2005 1.367 . S
C2004 C2012 1.378 . S
C2005 C2004 1.367 . S
C2005 C2013 1.433 . S
C2006 H2002 0.929 . S
C2006 C2008 1.378 . S
C2006 C2010 1.350 . S
C2007 C2010 1.463 . S
C2007 C2012 1.350 . S
C2007 N2015 1.427 . S
C2008 H1999 0.930 . S
C2008 C2006 1.378 . S
C2008 C2009 1.367 . S
C2009 C2008 1.367 . S
C2009 C2011 1.433 . S
C2010 C2006 1.350 . S
C2010 C2007 1.463 . S
C2010 N2014 1.427 . S
C2011 H2001 0.929 . S
C2011 C2009 1.433 . S
C2011 N2014 1.384 . S
C2012 H2003 0.929 . S
C2012 C2004 1.378 . S
C2012 C2007 1.350 . S
C2013 H2000 0.929 . S
C2013 C2005 1.433 . S
C2013 N2015 1.384 . S
N2014 C2010 1.427 . S
N2014 C2011 1.384 . S
N2015 C2007 1.427 . S
N2015 C2013 1.384 . S
H2016 C2022 0.930 . S
H2017 C2026 0.930 . S
H2018 C2031 0.929 . S
H2019 C2029 0.929 . S
H2020 C2024 0.929 . S
H2021 C2030 0.929 . S
C2022 H2016 0.930 . S
C2022 C2023 1.367 . S
C2022 C2030 1.378 . S
C2023 C2022 1.367 . S
C2023 C2031 1.433 . S
C2024 H2020 0.929 . S
C2024 C2026 1.378 . S
C2024 C2028 1.350 . S
C2025 C2028 1.463 . S
C2025 C2030 1.350 . S
C2025 N2033 1.427 . S
C2026 H2017 0.930 . S
C2026 C2024 1.378 . S
C2026 C2027 1.367 . S
C2027 C2026 1.367 . S
C2027 C2029 1.433 . S
C2028 C2024 1.350 . S
C2028 C2025 1.463 . S
C2028 N2032 1.427 . S
C2029 H2019 0.929 . S
C2029 C2027 1.433 . S
C2029 N2032 1.384 . S
C2030 H2021 0.929 . S
C2030 C2022 1.378 . S
C2030 C2025 1.350 . S
C2031 H2018 0.929 . S
C2031 C2023 1.433 . S
C2031 N2033 1.384 . S
N2032 C2028 1.427 . S
N2032 C2029 1.384 . S
N2033 C2025 1.427 . S
N2033 C2031 1.384 . S
H2034 C2040 0.930 . S
H2035 C2044 0.930 . S
H2036 C2049 0.929 . S
H2037 C2047 0.929 . S
H2038 C2042 0.929 . S
H2039 C2048 0.929 . S
C2040 H2034 0.930 . S
C2040 C2041 1.367 . S
C2040 C2048 1.378 . S
C2041 C2040 1.367 . S
C2041 C2049 1.433 . S
C2042 H2038 0.929 . S
C2042 C2044 1.378 . S
C2042 C2046 1.350 . S
C2043 C2046 1.463 . S
C2043 C2048 1.350 . S
C2043 N2051 1.427 . S
C2044 H2035 0.930 . S
C2044 C2042 1.378 . S
C2044 C2045 1.367 . S
C2045 C2044 1.367 . S
C2045 C2047 1.433 . S
C2046 C2042 1.350 . S
C2046 C2043 1.463 . S
C2046 N2050 1.427 . S
C2047 H2037 0.929 . S
C2047 C2045 1.433 . S
C2047 N2050 1.384 . S
C2048 H2039 0.929 . S
C2048 C2040 1.378 . S
C2048 C2043 1.350 . S
C2049 H2036 0.929 . S
C2049 C2041 1.433 . S
C2049 N2051 1.384 . S
N2050 C2046 1.427 . S
N2050 C2047 1.384 . S
N2051 C2043 1.427 . S
N2051 C2049 1.384 . S
H2052 C2058 0.930 . S
H2053 C2062 0.930 . S
H2054 C2067 0.929 . S
H2055 C2065 0.929 . S
H2056 C2060 0.929 . S
H2057 C2066 0.929 . S
C2058 H2052 0.930 . S
C2058 C2059 1.367 . S
C2058 C2066 1.378 . S
C2059 C2058 1.367 . S
C2059 C2067 1.433 1_556 S
C2060 H2056 0.929 . S
C2060 C2062 1.378 . S
C2060 C2064 1.350 . S
C2061 C2064 1.463 . S
C2061 C2066 1.350 . S
C2061 N2069 1.427 . S
C2062 H2053 0.930 . S
C2062 C2060 1.378 . S
C2062 C2063 1.367 . S
C2063 C2062 1.367 . S
C2063 C2065 1.433 . S
C2064 C2060 1.350 . S
C2064 C2061 1.463 . S
C2064 N2068 1.427 . S
C2065 H2055 0.929 . S
C2065 C2063 1.433 . S
C2065 N2068 1.384 . S
C2066 H2057 0.929 . S
C2066 C2058 1.378 . S
C2066 C2061 1.350 . S
C2067 H2054 0.929 . S
C2067 C2059 1.433 1_554 S
C2067 N2069 1.384 1_554 S
N2068 C2064 1.427 . S
N2068 C2065 1.384 . S
N2069 C2061 1.427 . S
N2069 C2067 1.384 1_556 S
H2070 C2076 0.930 . S
H2071 C2080 0.930 . S
H2072 C2085 0.929 . S
H2073 C2083 0.929 . S
H2074 C2078 0.929 . S
H2075 C2084 0.929 . S
C2076 H2070 0.930 . S
C2076 C2077 1.367 . S
C2076 C2084 1.378 . S
C2077 C2076 1.367 . S
C2077 C2085 1.433 1_556 S
C2078 H2074 0.929 . S
C2078 C2080 1.378 . S
C2078 C2082 1.350 . S
C2079 C2082 1.463 . S
C2079 C2084 1.350 . S
C2079 N2087 1.427 . S
C2080 H2071 0.930 . S
C2080 C2078 1.378 . S
C2080 C2081 1.367 . S
C2081 C2080 1.367 . S
C2081 C2083 1.433 . S
C2082 C2078 1.350 . S
C2082 C2079 1.463 . S
C2082 N2086 1.427 . S
C2083 H2073 0.929 . S
C2083 C2081 1.433 . S
C2083 N2086 1.384 . S
C2084 H2075 0.929 . S
C2084 C2076 1.378 . S
C2084 C2079 1.350 . S
C2085 H2072 0.929 . S
C2085 C2077 1.433 1_554 S
C2085 N2087 1.384 1_554 S
N2086 C2082 1.427 . S
N2086 C2083 1.384 . S
N2087 C2079 1.427 . S
N2087 C2085 1.384 1_556 S
H2088 C2094 0.930 . S
H2089 C2098 0.930 . S
H2090 C2103 0.929 . S
H2091 C2101 0.929 . S
H2092 C2096 0.929 . S
H2093 C2102 0.929 1_554 S
C2094 H2088 0.930 . S
C2094 C2095 1.367 1_554 S
C2094 C2102 1.378 1_554 S
C2095 C2094 1.367 1_556 S
C2095 C2103 1.433 . S
C2096 H2092 0.929 . S
C2096 C2098 1.378 . S
C2096 C2100 1.350 . S
C2097 C2100 1.463 . S
C2097 C2102 1.350 . S
C2097 N2105 1.427 . S
C2098 H2089 0.930 . S
C2098 C2096 1.378 . S
C2098 C2099 1.367 . S
C2099 C2098 1.367 . S
C2099 C2101 1.433 . S
C2100 C2096 1.350 . S
C2100 C2097 1.463 . S
C2100 N2104 1.427 . S
C2101 H2091 0.929 . S
C2101 C2099 1.433 . S
C2101 N2104 1.384 . S
C2102 H2093 0.929 1_556 S
C2102 C2094 1.378 1_556 S
C2102 C2097 1.350 . S
C2103 H2090 0.929 . S
C2103 C2095 1.433 . S
C2103 N2105 1.384 . S
N2104 C2100 1.427 . S
N2104 C2101 1.384 . S
N2105 C2097 1.427 . S
N2105 C2103 1.384 . S
H2106 C2112 0.930 . S
H2107 C2116 0.930 . S
H2108 C2121 0.979 . S
H2109 C2119 0.929 . S
H2110 C2114 0.929 . S
H2111 C2120 0.929 . S
C2112 H2106 0.930 . S
C2112 C2113 1.367 . S
C2112 C2120 1.378 . S
C2113 C2112 1.367 . S
C2113 C2121 1.404 1_556 S
C2114 H2110 0.929 . S
C2114 C2116 1.378 . S
C2114 C2118 1.350 . S
C2115 C2118 1.463 . S
C2115 C2120 1.350 . S
C2115 N2123 1.427 . S
C2116 H2107 0.930 . S
C2116 C2114 1.378 . S
C2116 C2117 1.367 . S
C2117 C2116 1.367 . S
C2117 C2119 1.433 . S
C2118 C2114 1.350 . S
C2118 C2115 1.463 . S
C2118 N2122 1.427 . S
C2119 H2109 0.929 . S
C2119 C2117 1.433 . S
C2119 N2122 1.384 . S
C2120 H2111 0.929 . S
C2120 C2112 1.378 . S
C2120 C2115 1.350 . S
C2121 H2108 0.979 . S
C2121 C2113 1.404 1_554 S
C2121 N2123 1.363 1_554 S
N2122 C2118 1.427 . S
N2122 C2119 1.384 . S
N2123 C2115 1.427 . S
N2123 C2121 1.363 1_556 S
H2124 C2130 0.930 1_554 S
H2125 C2134 0.930 . S
H2126 C2139 0.929 . S
H2127 C2137 0.929 . S
H2128 C2132 0.929 . S
H2129 C2138 0.929 . S
C2130 H2124 0.930 1_556 S
C2130 C2131 1.367 . S
C2130 C2138 1.378 . S
C2131 C2130 1.367 . S
C2131 C2139 1.433 . S
C2132 H2128 0.929 . S
C2132 C2134 1.378 . S
C2132 C2136 1.350 . S
C2133 C2136 1.463 . S
C2133 C2138 1.350 . S
C2133 N2141 1.427 . S
C2134 H2125 0.930 . S
C2134 C2132 1.378 . S
C2134 C2135 1.367 . S
C2135 C2134 1.367 . S
C2135 C2137 1.433 . S
C2136 C2132 1.350 . S
C2136 C2133 1.463 . S
C2136 N2140 1.427 . S
C2137 H2127 0.929 . S
C2137 C2135 1.433 . S
C2137 N2140 1.384 . S
C2138 H2129 0.929 . S
C2138 C2130 1.378 . S
C2138 C2133 1.350 . S
C2139 H2126 0.929 . S
C2139 C2131 1.433 . S
C2139 N2141 1.384 . S
N2140 C2136 1.427 . S
N2140 C2137 1.384 . S
N2141 C2133 1.427 . S
N2141 C2139 1.384 . S
H2142 C2148 0.930 . S
H2143 C2152 0.930 . S
H2144 C2157 0.929 . S
H2145 C2155 0.929 . S
H2146 C2150 0.929 . S
H2147 C2156 0.929 . S
C2148 H2142 0.930 . S
C2148 C2149 1.367 . S
C2148 C2156 1.378 . S
C2149 C2148 1.367 . S
C2149 C2157 1.433 1_556 S
C2150 H2146 0.929 . S
C2150 C2152 1.378 . S
C2150 C2154 1.350 . S
C2151 C2154 1.463 . S
C2151 C2156 1.350 . S
C2151 N2159 1.427 . S
C2152 H2143 0.930 . S
C2152 C2150 1.378 . S
C2152 C2153 1.367 . S
C2153 C2152 1.367 . S
C2153 C2155 1.433 . S
C2154 C2150 1.350 . S
C2154 C2151 1.463 . S
C2154 N2158 1.427 . S
C2155 H2145 0.929 . S
C2155 C2153 1.433 . S
C2155 N2158 1.384 . S
C2156 H2147 0.929 . S
C2156 C2148 1.378 . S
C2156 C2151 1.350 . S
C2157 H2144 0.929 . S
C2157 C2149 1.433 1_554 S
C2157 N2159 1.384 1_554 S
N2158 C2154 1.427 . S
N2158 C2155 1.384 . S
N2159 C2151 1.427 . S
N2159 C2157 1.384 1_556 S
H2160 C2166 0.930 . S
H2161 C2170 0.930 . S
H2162 C2175 0.929 . S
H2163 C2173 0.929 . S
H2164 C2168 0.929 . S
H2165 C2174 0.929 . S
C2166 H2160 0.930 . S
C2166 C2167 1.367 . S
C2166 C2174 1.378 . S
C2167 C2166 1.367 . S
C2167 C2175 1.433 . S
C2168 H2164 0.929 . S
C2168 C2170 1.378 . S
C2168 C2172 1.350 . S
C2169 C2172 1.463 . S
C2169 C2174 1.350 . S
C2169 N2177 1.427 . S
C2170 H2161 0.930 . S
C2170 C2168 1.378 . S
C2170 C2171 1.367 . S
C2171 C2170 1.367 . S
C2171 C2173 1.433 . S
C2172 C2168 1.350 . S
C2172 C2169 1.463 . S
C2172 N2176 1.427 . S
C2173 H2163 0.929 . S
C2173 C2171 1.433 . S
C2173 N2176 1.384 . S
C2174 H2165 0.929 . S
C2174 C2166 1.378 . S
C2174 C2169 1.350 . S
C2175 H2162 0.929 . S
C2175 C2167 1.433 . S
C2175 N2177 1.384 . S
N2176 C2172 1.427 . S
N2176 C2173 1.384 . S
N2177 C2169 1.427 . S
N2177 C2175 1.384 . S
H2178 C2184 0.930 . S
H2179 C2188 0.930 . S
H2180 C2193 0.929 . S
H2181 C2191 0.929 . S
H2182 C2186 0.929 . S
H2183 C2192 0.929 . S
C2184 H2178 0.930 . S
C2184 C2185 1.367 . S
C2184 C2192 1.378 . S
C2185 C2184 1.367 . S
C2185 C2193 1.433 . S
C2186 H2182 0.929 . S
C2186 C2188 1.378 . S
C2186 C2190 1.350 . S
C2187 C2190 1.463 . S
C2187 C2192 1.350 . S
C2187 N2195 1.427 . S
C2188 H2179 0.930 . S
C2188 C2186 1.378 . S
C2188 C2189 1.367 . S
C2189 C2188 1.367 . S
C2189 C2191 1.433 . S
C2190 C2186 1.350 . S
C2190 C2187 1.463 . S
C2190 N2194 1.427 . S
C2191 H2181 0.929 . S
C2191 C2189 1.433 . S
C2191 N2194 1.384 . S
C2192 H2183 0.929 . S
C2192 C2184 1.378 . S
C2192 C2187 1.350 . S
C2193 H2180 0.929 . S
C2193 C2185 1.433 . S
C2193 N2195 1.384 . S
N2194 C2190 1.427 . S
N2194 C2191 1.384 . S
N2195 C2187 1.427 . S
N2195 C2193 1.384 . S
H2196 C2202 0.930 . S
H2197 C2206 0.930 . S
H2198 C2211 0.929 . S
H2199 C2209 0.929 . S
H2200 C2204 0.929 . S
H2201 C2210 0.929 . S
C2202 H2196 0.930 . S
C2202 C2203 1.367 . S
C2202 C2210 1.378 . S
C2203 C2202 1.367 . S
C2203 C2211 1.433 . S
C2204 H2200 0.929 . S
C2204 C2206 1.378 . S
C2204 C2208 1.350 . S
C2205 C2208 1.463 . S
C2205 C2210 1.350 . S
C2205 N2213 1.427 . S
C2206 H2197 0.930 . S
C2206 C2204 1.378 . S
C2206 C2207 1.367 . S
C2207 C2206 1.367 . S
C2207 C2209 1.433 . S
C2208 C2204 1.350 . S
C2208 C2205 1.463 . S
C2208 N2212 1.427 . S
C2209 H2199 0.929 . S
C2209 C2207 1.433 . S
C2209 N2212 1.384 . S
C2210 H2201 0.929 . S
C2210 C2202 1.378 . S
C2210 C2205 1.350 . S
C2211 H2198 0.929 . S
C2211 C2203 1.433 . S
C2211 N2213 1.384 . S
N2212 C2208 1.427 . S
N2212 C2209 1.384 . S
N2213 C2205 1.427 . S
N2213 C2211 1.384 . S
H2214 C2220 0.930 . S
H2215 C2224 0.930 . S
H2216 C2229 0.929 . S
H2217 C2227 0.929 . S
H2218 C2222 0.929 . S
H2219 C2228 0.929 . S
C2220 H2214 0.930 . S
C2220 C2221 1.367 . S
C2220 C2228 1.378 . S
C2221 C2220 1.367 . S
C2221 C2229 1.433 . S
C2222 H2218 0.929 . S
C2222 C2224 1.378 . S
C2222 C2226 1.350 . S
C2223 C2226 1.463 . S
C2223 C2228 1.350 . S
C2223 N2231 1.427 . S
C2224 H2215 0.930 . S
C2224 C2222 1.378 . S
C2224 C2225 1.367 . S
C2225 C2224 1.367 . S
C2225 C2227 1.433 . S
C2226 C2222 1.350 . S
C2226 C2223 1.463 . S
C2226 N2230 1.427 . S
C2227 H2217 0.929 . S
C2227 C2225 1.433 . S
C2227 N2230 1.384 . S
C2228 H2219 0.929 . S
C2228 C2220 1.378 . S
C2228 C2223 1.350 . S
C2229 H2216 0.929 . S
C2229 C2221 1.433 . S
C2229 N2231 1.384 . S
N2230 C2226 1.427 . S
N2230 C2227 1.384 . S
N2231 C2223 1.427 . S
N2231 C2229 1.384 . S
H2232 C2238 0.930 . S
H2233 C2242 0.930 . S
H2234 C2247 0.929 . S
H2235 C2245 0.929 . S
H2236 C2240 0.929 . S
H2237 C2246 0.929 . S
C2238 H2232 0.930 . S
C2238 C2239 1.367 . S
C2238 C2246 1.378 . S
C2239 C2238 1.367 . S
C2239 C2247 1.433 . S
C2240 H2236 0.929 . S
C2240 C2242 1.378 . S
C2240 C2244 1.350 . S
C2241 C2244 1.463 . S
C2241 C2246 1.350 . S
C2241 N2249 1.427 . S
C2242 H2233 0.930 . S
C2242 C2240 1.378 . S
C2242 C2243 1.367 . S
C2243 C2242 1.367 . S
C2243 C2245 1.433 . S
C2244 C2240 1.350 . S
C2244 C2241 1.463 . S
C2244 N2248 1.427 . S
C2245 H2235 0.929 . S
C2245 C2243 1.433 . S
C2245 N2248 1.384 . S
C2246 H2237 0.929 . S
C2246 C2238 1.378 . S
C2246 C2241 1.350 . S
C2247 H2234 0.929 . S
C2247 C2239 1.433 . S
C2247 N2249 1.384 . S
N2248 C2244 1.427 . S
N2248 C2245 1.384 . S
N2249 C2241 1.427 . S
N2249 C2247 1.384 . S
H2250 C2256 0.930 . S
H2251 C2260 0.930 . S
H2252 C2265 0.917 1_455 S
H2253 C2263 0.929 . S
H2254 C2258 0.929 . S
H2255 C2264 0.929 . S
C2256 H2250 0.930 . S
C2256 C2257 1.367 . S
C2256 C2264 1.378 . S
C2257 C2256 1.367 . S
C2257 C2265 1.433 . S
C2258 H2254 0.929 . S
C2258 C2260 1.378 . S
C2258 C2262 1.350 . S
C2259 C2262 1.463 . S
C2259 C2264 1.350 . S
C2259 N2267 1.427 . S
C2260 H2251 0.930 . S
C2260 C2258 1.378 . S
C2260 C2261 1.367 . S
C2261 C2260 1.367 . S
C2261 C2263 1.433 . S
C2262 C2258 1.350 . S
C2262 C2259 1.463 . S
C2262 N2266 1.427 . S
C2263 H2253 0.929 . S
C2263 C2261 1.433 . S
C2263 N2266 1.384 . S
C2264 H2255 0.929 . S
C2264 C2256 1.378 . S
C2264 C2259 1.350 . S
C2265 H2252 0.917 1_655 S
C2265 C2257 1.433 . S
C2265 N2267 1.384 . S
N2266 C2262 1.427 . S
N2266 C2263 1.384 . S
N2267 C2259 1.427 . S
N2267 C2265 1.384 . S
H2268 C2274 0.930 . S
H2269 C2278 0.930 . S
H2270 C2283 0.929 . S
H2271 C2281 0.929 . S
H2272 C2276 0.929 . S
H2273 C2282 0.929 . S
C2274 H2268 0.930 . S
C2274 C2275 1.367 . S
C2274 C2282 1.378 . S
C2275 C2274 1.367 . S
C2275 C2283 1.433 . S
C2276 H2272 0.929 . S
C2276 C2278 1.378 . S
C2276 C2280 1.350 . S
C2277 C2280 1.463 . S
C2277 C2282 1.350 . S
C2277 N2285 1.427 . S
C2278 H2269 0.930 . S
C2278 C2276 1.378 . S
C2278 C2279 1.367 . S
C2279 C2278 1.367 . S
C2279 C2281 1.433 . S
C2280 C2276 1.350 . S
C2280 C2277 1.463 . S
C2280 N2284 1.427 . S
C2281 H2271 0.929 . S
C2281 C2279 1.433 . S
C2281 N2284 1.384 . S
C2282 H2273 0.929 . S
C2282 C2274 1.378 . S
C2282 C2277 1.350 . S
C2283 H2270 0.929 . S
C2283 C2275 1.433 . S
C2283 N2285 1.384 . S
N2284 C2280 1.427 . S
N2284 C2281 1.384 . S
N2285 C2277 1.427 . S
N2285 C2283 1.384 . S
H2286 C2292 0.930 . S
H2287 C2296 0.930 . S
H2288 C2301 0.929 . S
H2289 C2299 0.929 . S
H2290 C2294 0.929 . S
H2291 C2300 0.929 . S
C2292 H2286 0.930 . S
C2292 C2293 1.367 . S
C2292 C2300 1.378 . S
C2293 C2292 1.367 . S
C2293 C2301 1.433 . S
C2294 H2290 0.929 . S
C2294 C2296 1.378 . S
C2294 C2298 1.350 . S
C2295 C2298 1.463 . S
C2295 C2300 1.350 . S
C2295 N2303 1.427 . S
C2296 H2287 0.930 . S
C2296 C2294 1.378 . S
C2296 C2297 1.367 . S
C2297 C2296 1.367 . S
C2297 C2299 1.433 . S
C2298 C2294 1.350 . S
C2298 C2295 1.463 . S
C2298 N2302 1.427 . S
C2299 H2289 0.929 . S
C2299 C2297 1.433 . S
C2299 N2302 1.384 . S
C2300 H2291 0.929 . S
C2300 C2292 1.378 . S
C2300 C2295 1.350 . S
C2301 H2288 0.929 . S
C2301 C2293 1.433 . S
C2301 N2303 1.384 . S
N2302 C2298 1.427 . S
N2302 C2299 1.384 . S
N2303 C2295 1.427 . S
N2303 C2301 1.384 . S
H2304 C2310 0.928 . S
H2305 C2314 0.930 . S
H2306 C2319 0.929 . S
H2307 C2317 0.930 . S
H2308 C2312 0.929 . S
H2309 C2318 0.929 1_545 S
C2310 H2304 0.928 . S
C2310 C2311 1.367 . S
C2310 C2318 1.378 . S
C2311 C2310 1.367 . S
C2311 C2319 1.433 . S
C2312 H2308 0.929 . S
C2312 C2314 1.378 . S
C2312 C2316 1.350 . S
C2313 C2316 1.463 . S
C2313 C2318 1.350 . S
C2313 N2321 1.427 . S
C2314 H2305 0.930 . S
C2314 C2312 1.378 . S
C2314 C2315 1.367 . S
C2315 C2314 1.367 . S
C2315 C2317 1.422 1_565 S
C2316 C2312 1.350 . S
C2316 C2313 1.463 . S
C2316 N2320 1.434 . S
C2317 H2307 0.930 . S
C2317 C2315 1.422 1_545 S
C2317 N2320 1.427 1_545 S
C2318 H2309 0.929 1_565 S
C2318 C2310 1.378 . S
C2318 C2313 1.350 . S
C2319 H2306 0.929 . S
C2319 C2311 1.433 . S
C2319 N2321 1.384 . S
N2320 C2316 1.434 . S
N2320 C2317 1.427 1_565 S
N2321 C2313 1.427 . S
N2321 C2319 1.384 . S
H2322 C2328 0.928 1_545 S
H2323 C2332 0.930 . S
H2324 C2337 0.929 . S
H2325 C2335 0.929 . S
H2326 C2330 0.929 . S
H2327 C2336 0.989 . S
C2328 H2322 0.928 1_565 S
C2328 C2329 1.377 . S
C2328 C2336 1.331 1_565 S
C2329 C2328 1.377 . S
C2329 C2337 1.433 . S
C2330 H2326 0.929 . S
C2330 C2332 1.378 . S
C2330 C2334 1.350 . S
C2331 C2334 1.463 . S
C2331 C2336 1.334 1_565 S
C2331 N2339 1.427 . S
C2332 H2323 0.930 . S
C2332 C2330 1.378 . S
C2332 C2333 1.367 . S
C2333 C2332 1.367 . S
C2333 C2335 1.433 1_565 S
C2334 C2330 1.350 . S
C2334 C2331 1.463 . S
C2334 N2338 1.427 1_565 S
C2335 H2325 0.929 . S
C2335 C2333 1.433 1_545 S
C2335 N2338 1.384 . S
C2336 H2327 0.989 . S
C2336 C2328 1.331 1_545 S
C2336 C2331 1.334 1_545 S
C2337 H2324 0.929 . S
C2337 C2329 1.433 . S
C2337 N2339 1.384 . S
N2338 C2334 1.427 1_545 S
N2338 C2335 1.384 . S
N2339 C2331 1.427 . S
N2339 C2337 1.384 . S
H2340 C2346 0.930 . S
H2341 C2350 0.930 . S
H2342 C2355 0.929 . S
H2343 C2353 0.929 . S
H2344 C2348 0.929 . S
H2345 C2354 0.929 . S
C2346 H2340 0.930 . S
C2346 C2347 1.367 . S
C2346 C2354 1.378 . S
C2347 C2346 1.367 . S
C2347 C2355 1.433 . S
C2348 H2344 0.929 . S
C2348 C2350 1.378 . S
C2348 C2352 1.350 . S
C2349 C2352 1.463 . S
C2349 C2354 1.350 . S
C2349 N2357 1.427 . S
C2350 H2341 0.930 . S
C2350 C2348 1.378 . S
C2350 C2351 1.367 . S
C2351 C2350 1.367 . S
C2351 C2353 1.433 . S
C2352 C2348 1.350 . S
C2352 C2349 1.463 . S
C2352 N2356 1.427 . S
C2353 H2343 0.929 . S
C2353 C2351 1.433 . S
C2353 N2356 1.384 . S
C2354 H2345 0.929 . S
C2354 C2346 1.378 . S
C2354 C2349 1.350 . S
C2355 H2342 0.929 . S
C2355 C2347 1.433 . S
C2355 N2357 1.384 . S
N2356 C2352 1.427 . S
N2356 C2353 1.384 . S
N2357 C2349 1.427 . S
N2357 C2355 1.384 . S
H2358 C2364 0.930 . S
H2359 C2368 0.930 . S
H2360 C2373 0.929 . S
H2361 C2371 0.929 . S
H2362 C2366 0.929 . S
H2363 C2372 0.929 . S
C2364 H2358 0.930 . S
C2364 C2365 1.367 . S
C2364 C2372 1.378 . S
C2365 C2364 1.367 . S
C2365 C2373 1.433 . S
C2366 H2362 0.929 . S
C2366 C2368 1.378 . S
C2366 C2370 1.350 . S
C2367 C2370 1.463 . S
C2367 C2372 1.350 . S
C2367 N2375 1.427 . S
C2368 H2359 0.930 . S
C2368 C2366 1.378 . S
C2368 C2369 1.367 . S
C2369 C2368 1.367 . S
C2369 C2371 1.433 . S
C2370 C2366 1.350 . S
C2370 C2367 1.463 . S
C2370 N2374 1.427 . S
C2371 H2361 0.929 . S
C2371 C2369 1.433 . S
C2371 N2374 1.384 . S
C2372 H2363 0.929 . S
C2372 C2364 1.378 . S
C2372 C2367 1.350 . S
C2373 H2360 0.929 . S
C2373 C2365 1.433 . S
C2373 N2375 1.384 . S
N2374 C2370 1.427 . S
N2374 C2371 1.384 . S
N2375 C2367 1.427 . S
N2375 C2373 1.384 . S
H2376 C2382 0.930 . S
H2377 C2386 0.930 . S
H2378 C2391 0.929 . S
H2379 C2389 0.929 . S
H2380 C2384 0.929 . S
H2381 C2390 0.929 . S
C2382 H2376 0.930 . S
C2382 C2383 1.367 . S
C2382 C2390 1.378 . S
C2383 C2382 1.367 . S
C2383 C2391 1.433 . S
C2384 H2380 0.929 . S
C2384 C2386 1.378 . S
C2384 C2388 1.350 . S
C2385 C2388 1.463 . S
C2385 C2390 1.350 . S
C2385 N2393 1.427 . S
C2386 H2377 0.930 . S
C2386 C2384 1.378 . S
C2386 C2387 1.367 . S
C2387 C2386 1.367 . S
C2387 C2389 1.433 . S
C2388 C2384 1.350 . S
C2388 C2385 1.463 . S
C2388 N2392 1.427 . S
C2389 H2379 0.929 . S
C2389 C2387 1.433 . S
C2389 N2392 1.384 . S
C2390 H2381 0.929 . S
C2390 C2382 1.378 . S
C2390 C2385 1.350 . S
C2391 H2378 0.929 . S
C2391 C2383 1.433 . S
C2391 N2393 1.384 . S
N2392 C2388 1.427 . S
N2392 C2389 1.384 . S
N2393 C2385 1.427 . S
N2393 C2391 1.384 . S
H2394 C2400 0.930 . S
H2395 C2404 0.930 . S
H2396 C2409 0.929 . S
H2397 C2407 0.929 . S
H2398 C2402 0.929 . S
H2399 C2408 0.929 . S
C2400 H2394 0.930 . S
C2400 C2401 1.367 . S
C2400 C2408 1.378 . S
C2401 C2400 1.367 . S
C2401 C2409 1.433 . S
C2402 H2398 0.929 . S
C2402 C2404 1.378 . S
C2402 C2406 1.350 . S
C2403 C2406 1.463 . S
C2403 C2408 1.350 . S
C2403 N2411 1.427 . S
C2404 H2395 0.930 . S
C2404 C2402 1.378 . S
C2404 C2405 1.367 . S
C2405 C2404 1.367 . S
C2405 C2407 1.433 . S
C2406 C2402 1.350 . S
C2406 C2403 1.463 . S
C2406 N2410 1.427 . S
C2407 H2397 0.929 . S
C2407 C2405 1.433 . S
C2407 N2410 1.384 . S
C2408 H2399 0.929 . S
C2408 C2400 1.378 . S
C2408 C2403 1.350 . S
C2409 H2396 0.929 . S
C2409 C2401 1.433 . S
C2409 N2411 1.384 . S
N2410 C2406 1.427 . S
N2410 C2407 1.384 . S
N2411 C2403 1.427 . S
N2411 C2409 1.384 . S
H2412 C2418 0.930 . S
H2413 C2422 0.930 . S
H2414 C2427 0.888 1_455 S
H2415 C2425 0.929 . S
H2416 C2420 0.929 . S
H2417 C2426 0.929 . S
C2418 H2412 0.930 . S
C2418 C2419 1.367 . S
C2418 C2426 1.378 . S
C2419 C2418 1.367 . S
C2419 C2427 1.419 . S
C2420 H2416 0.929 . S
C2420 C2422 1.378 . S
C2420 C2424 1.350 . S
C2421 C2424 1.463 . S
C2421 C2426 1.350 . S
C2421 N2429 1.427 . S
C2422 H2413 0.930 . S
C2422 C2420 1.378 . S
C2422 C2423 1.367 . S
C2423 C2422 1.367 . S
C2423 C2425 1.433 . S
C2424 C2420 1.350 . S
C2424 C2421 1.463 . S
C2424 N2428 1.427 . S
C2425 H2415 0.929 . S
C2425 C2423 1.433 . S
C2425 N2428 1.384 . S
C2426 H2417 0.929 . S
C2426 C2418 1.378 . S
C2426 C2421 1.350 . S
C2427 H2414 0.888 1_655 S
C2427 C2419 1.419 . S
C2427 N2429 1.444 . S
N2428 C2424 1.427 . S
N2428 C2425 1.384 . S
N2429 C2421 1.427 . S
N2429 C2427 1.444 . S
H2430 C2436 0.930 . S
H2431 C2440 0.930 . S
H2432 C2445 0.929 . S
H2433 C2443 0.929 . S
H2434 C2438 0.929 . S
H2435 C2444 0.929 . S
C2436 H2430 0.930 . S
C2436 C2437 1.367 . S
C2436 C2444 1.378 . S
C2437 C2436 1.367 . S
C2437 C2445 1.433 . S
C2438 H2434 0.929 . S
C2438 C2440 1.378 . S
C2438 C2442 1.350 . S
C2439 C2442 1.463 . S
C2439 C2444 1.350 . S
C2439 N2447 1.427 . S
C2440 H2431 0.930 . S
C2440 C2438 1.378 . S
C2440 C2441 1.367 . S
C2441 C2440 1.367 . S
C2441 C2443 1.433 . S
C2442 C2438 1.350 . S
C2442 C2439 1.463 . S
C2442 N2446 1.427 . S
C2443 H2433 0.929 . S
C2443 C2441 1.433 . S
C2443 N2446 1.384 . S
C2444 H2435 0.929 . S
C2444 C2436 1.378 . S
C2444 C2439 1.350 . S
C2445 H2432 0.929 . S
C2445 C2437 1.433 . S
C2445 N2447 1.384 . S
N2446 C2442 1.427 . S
N2446 C2443 1.384 . S
N2447 C2439 1.427 . S
N2447 C2445 1.384 . S
H2448 C2454 0.930 . S
H2449 C2458 0.930 . S
H2450 C2463 0.929 . S
H2451 C2461 0.932 1_455 S
H2452 C2456 0.929 . S
H2453 C2462 0.928 1_455 S
C2454 H2448 0.930 . S
C2454 C2455 1.367 . S
C2454 C2462 1.378 . S
C2455 C2454 1.367 . S
C2455 C2463 1.433 . S
C2456 H2452 0.929 . S
C2456 C2458 1.378 . S
C2456 C2460 1.350 . S
C2457 C2460 1.463 . S
C2457 C2462 1.350 . S
C2457 N2465 1.427 . S
C2458 H2449 0.930 . S
C2458 C2456 1.378 . S
C2458 C2459 1.367 . S
C2459 C2458 1.367 . S
C2459 C2461 1.457 . S
C2460 C2456 1.350 . S
C2460 C2457 1.463 . S
C2460 N2464 1.427 . S
C2461 H2451 0.932 1_655 S
C2461 C2459 1.457 . S
C2461 N2464 1.361 . S
C2462 H2453 0.928 1_655 S
C2462 C2454 1.378 . S
C2462 C2457 1.350 . S
C2463 H2450 0.929 . S
C2463 C2455 1.433 . S
C2463 N2465 1.384 . S
N2464 C2460 1.427 . S
N2464 C2461 1.361 . S
N2465 C2457 1.427 . S
N2465 C2463 1.384 . S
H2466 C2472 0.930 . S
H2467 C2476 0.930 . S
H2468 C2481 0.929 . S
H2469 C2479 0.929 . S
H2470 C2474 0.929 . S
H2471 C2480 0.929 . S
C2472 H2466 0.930 . S
C2472 C2473 1.367 . S
C2472 C2480 1.378 . S
C2473 C2472 1.367 . S
C2473 C2481 1.433 . S
C2474 H2470 0.929 . S
C2474 C2476 1.378 . S
C2474 C2478 1.350 . S
C2475 C2478 1.463 . S
C2475 C2480 1.350 . S
C2475 N2483 1.427 . S
C2476 H2467 0.930 . S
C2476 C2474 1.378 . S
C2476 C2477 1.367 . S
C2477 C2476 1.367 . S
C2477 C2479 1.433 . S
C2478 C2474 1.350 . S
C2478 C2475 1.463 . S
C2478 N2482 1.427 . S
C2479 H2469 0.929 . S
C2479 C2477 1.433 . S
C2479 N2482 1.384 . S
C2480 H2471 0.929 . S
C2480 C2472 1.378 . S
C2480 C2475 1.350 . S
C2481 H2468 0.929 . S
C2481 C2473 1.433 . S
C2481 N2483 1.384 . S
N2482 C2478 1.427 . S
N2482 C2479 1.384 . S
N2483 C2475 1.427 . S
N2483 C2481 1.384 . S
H2484 C2490 0.930 . S
H2485 C2494 0.930 . S
H2486 C2499 0.929 . S
H2487 C2497 0.929 . S
H2488 C2492 0.929 . S
H2489 C2498 0.929 . S
C2490 H2484 0.930 . S
C2490 C2491 1.367 . S
C2490 C2498 1.378 . S
C2491 C2490 1.367 . S
C2491 C2499 1.433 . S
C2492 H2488 0.929 . S
C2492 C2494 1.378 . S
C2492 C2496 1.350 . S
C2493 C2496 1.463 . S
C2493 C2498 1.350 . S
C2493 N2501 1.427 . S
C2494 H2485 0.930 . S
C2494 C2492 1.378 . S
C2494 C2495 1.367 . S
C2495 C2494 1.367 . S
C2495 C2497 1.433 . S
C2496 C2492 1.350 . S
C2496 C2493 1.463 . S
C2496 N2500 1.427 . S
C2497 H2487 0.929 . S
C2497 C2495 1.433 . S
C2497 N2500 1.384 . S
C2498 H2489 0.929 . S
C2498 C2490 1.378 . S
C2498 C2493 1.350 . S
C2499 H2486 0.929 . S
C2499 C2491 1.433 . S
C2499 N2501 1.384 . S
N2500 C2496 1.427 . S
N2500 C2497 1.384 . S
N2501 C2493 1.427 . S
N2501 C2499 1.384 . S
H2502 C2508 0.933 . S
H2503 C2512 0.930 . S
H2504 C2517 0.929 . S
H2505 C2515 0.929 . S
H2506 C2510 0.929 . S
H2507 C2516 0.929 . S
C2508 H2502 0.933 . S
C2508 C2509 1.367 . S
C2508 C2516 1.378 . S
C2509 C2508 1.367 . S
C2509 C2517 1.433 . S
C2510 H2506 0.929 . S
C2510 C2512 1.378 . S
C2510 C2514 1.350 . S
C2511 C2514 1.463 . S
C2511 C2516 1.350 . S
C2511 N2519 1.427 . S
C2512 H2503 0.930 . S
C2512 C2510 1.378 . S
C2512 C2513 1.367 . S
C2513 C2512 1.367 . S
C2513 C2515 1.433 . S
C2514 C2510 1.350 . S
C2514 C2511 1.463 . S
C2514 N2518 1.427 . S
C2515 H2505 0.929 . S
C2515 C2513 1.433 . S
C2515 N2518 1.384 . S
C2516 H2507 0.929 . S
C2516 C2508 1.378 . S
C2516 C2511 1.350 . S
C2517 H2504 0.929 . S
C2517 C2509 1.433 . S
C2517 N2519 1.384 . S
N2518 C2514 1.427 . S
N2518 C2515 1.384 . S
N2519 C2511 1.427 . S
N2519 C2517 1.384 . S
H2520 C2526 0.930 . S
H2521 C2530 0.930 . S
H2522 C2535 0.929 . S
H2523 C2533 0.929 . S
H2524 C2528 0.929 . S
H2525 C2534 0.929 . S
C2526 H2520 0.930 . S
C2526 C2527 1.367 . S
C2526 C2534 1.378 . S
C2527 C2526 1.367 . S
C2527 C2535 1.433 . S
C2528 H2524 0.929 . S
C2528 C2530 1.378 . S
C2528 C2532 1.350 . S
C2529 C2532 1.463 . S
C2529 C2534 1.350 . S
C2529 N2537 1.427 . S
C2530 H2521 0.930 . S
C2530 C2528 1.378 . S
C2530 C2531 1.367 . S
C2531 C2530 1.367 . S
C2531 C2533 1.433 . S
C2532 C2528 1.350 . S
C2532 C2529 1.463 . S
C2532 N2536 1.427 . S
C2533 H2523 0.929 . S
C2533 C2531 1.433 . S
C2533 N2536 1.384 . S
C2534 H2525 0.929 . S
C2534 C2526 1.378 . S
C2534 C2529 1.350 . S
C2535 H2522 0.929 . S
C2535 C2527 1.433 . S
C2535 N2537 1.384 . S
N2536 C2532 1.427 . S
N2536 C2533 1.384 . S
N2537 C2529 1.427 . S
N2537 C2535 1.384 . S
H2538 C2544 0.930 . S
H2539 C2548 0.930 . S
H2540 C2553 0.929 . S
H2541 C2551 0.929 . S
H2542 C2546 0.929 . S
H2543 C2552 0.929 . S
C2544 H2538 0.930 . S
C2544 C2545 1.367 . S
C2544 C2552 1.378 . S
C2545 C2544 1.367 . S
C2545 C2553 1.433 . S
C2546 H2542 0.929 . S
C2546 C2548 1.378 . S
C2546 C2550 1.350 . S
C2547 C2550 1.463 . S
C2547 C2552 1.350 . S
C2547 N2555 1.427 . S
C2548 H2539 0.930 . S
C2548 C2546 1.378 . S
C2548 C2549 1.367 . S
C2549 C2548 1.367 . S
C2549 C2551 1.433 . S
C2550 C2546 1.350 . S
C2550 C2547 1.463 . S
C2550 N2554 1.427 . S
C2551 H2541 0.929 . S
C2551 C2549 1.433 . S
C2551 N2554 1.384 . S
C2552 H2543 0.929 . S
C2552 C2544 1.378 . S
C2552 C2547 1.350 . S
C2553 H2540 0.929 . S
C2553 C2545 1.433 . S
C2553 N2555 1.384 . S
N2554 C2550 1.427 . S
N2554 C2551 1.384 . S
N2555 C2547 1.427 . S
N2555 C2553 1.384 . S
H2556 C2562 0.930 1_545 S
H2557 C2566 0.930 . S
H2558 C2571 0.929 . S
H2559 C2569 0.929 . S
H2560 C2564 0.929 . S
H2561 C2570 0.929 . S
C2562 H2556 0.930 1_565 S
C2562 C2563 1.367 . S
C2562 C2570 1.378 . S
C2563 C2562 1.367 . S
C2563 C2571 1.433 . S
C2564 H2560 0.929 . S
C2564 C2566 1.378 . S
C2564 C2568 1.350 . S
C2565 C2568 1.463 . S
C2565 C2570 1.350 . S
C2565 N2573 1.427 . S
C2566 H2557 0.930 . S
C2566 C2564 1.378 . S
C2566 C2567 1.367 . S
C2567 C2566 1.367 . S
C2567 C2569 1.433 . S
C2568 C2564 1.350 . S
C2568 C2565 1.463 . S
C2568 N2572 1.427 . S
C2569 H2559 0.929 . S
C2569 C2567 1.433 . S
C2569 N2572 1.384 . S
C2570 H2561 0.929 . S
C2570 C2562 1.378 . S
C2570 C2565 1.350 . S
C2571 H2558 0.929 . S
C2571 C2563 1.433 . S
C2571 N2573 1.384 . S
N2572 C2568 1.427 . S
N2572 C2569 1.384 . S
N2573 C2565 1.427 . S
N2573 C2571 1.384 . S
H2574 C2580 0.930 . S
H2575 C2584 0.930 . S
H2576 C2589 0.929 . S
H2577 C2587 0.929 . S
H2578 C2582 0.929 . S
H2579 C2588 0.929 . S
C2580 H2574 0.930 . S
C2580 C2581 1.367 . S
C2580 C2588 1.378 . S
C2581 C2580 1.367 . S
C2581 C2589 1.433 . S
C2582 H2578 0.929 . S
C2582 C2584 1.378 . S
C2582 C2586 1.350 . S
C2583 C2586 1.463 . S
C2583 C2588 1.350 . S
C2583 N2591 1.427 . S
C2584 H2575 0.930 . S
C2584 C2582 1.378 . S
C2584 C2585 1.367 . S
C2585 C2584 1.367 . S
C2585 C2587 1.433 . S
C2586 C2582 1.350 . S
C2586 C2583 1.463 . S
C2586 N2590 1.427 . S
C2587 H2577 0.929 . S
C2587 C2585 1.433 . S
C2587 N2590 1.384 . S
C2588 H2579 0.929 . S
C2588 C2580 1.378 . S
C2588 C2583 1.350 . S
C2589 H2576 0.929 . S
C2589 C2581 1.433 . S
C2589 N2591 1.384 . S
N2590 C2586 1.427 . S
N2590 C2587 1.384 . S
N2591 C2583 1.427 . S
N2591 C2589 1.384 . S
H2592 C2598 0.930 1_455 S
H2593 C2602 0.930 . S
H2594 C2607 0.929 . S
H2595 C2605 0.929 . S
H2596 C2600 0.929 . S
H2597 C2606 0.929 1_455 S
C2598 H2592 0.930 1_655 S
C2598 C2599 1.367 . S
C2598 C2606 1.378 . S
C2599 C2598 1.367 . S
C2599 C2607 1.433 . S
C2600 H2596 0.929 . S
C2600 C2602 1.378 . S
C2600 C2604 1.350 . S
C2601 C2604 1.463 . S
C2601 C2606 1.350 . S
C2601 N2609 1.427 . S
C2602 H2593 0.930 . S
C2602 C2600 1.378 . S
C2602 C2603 1.367 . S
C2603 C2602 1.367 . S
C2603 C2605 1.433 1_655 S
C2604 C2600 1.350 . S
C2604 C2601 1.463 . S
C2604 N2608 1.427 1_655 S
C2605 H2595 0.929 . S
C2605 C2603 1.433 1_455 S
C2605 N2608 1.384 . S
C2606 H2597 0.929 1_655 S
C2606 C2598 1.378 . S
C2606 C2601 1.350 . S
C2607 H2594 0.929 . S
C2607 C2599 1.433 . S
C2607 N2609 1.384 . S
N2608 C2604 1.427 1_455 S
N2608 C2605 1.384 . S
N2609 C2601 1.427 . S
N2609 C2607 1.384 . S
H2610 C2616 0.930 . S
H2611 C2620 0.930 . S
H2612 C2625 0.929 . S
H2613 C2623 0.929 . S
H2614 C2618 0.929 . S
H2615 C2624 0.929 . S
C2616 H2610 0.930 . S
C2616 C2617 1.367 . S
C2616 C2624 1.378 . S
C2617 C2616 1.367 . S
C2617 C2625 1.433 . S
C2618 H2614 0.929 . S
C2618 C2620 1.378 . S
C2618 C2622 1.350 . S
C2619 C2622 1.463 . S
C2619 C2624 1.350 . S
C2619 N2627 1.427 . S
C2620 H2611 0.930 . S
C2620 C2618 1.378 . S
C2620 C2621 1.367 . S
C2621 C2620 1.367 . S
C2621 C2623 1.433 . S
C2622 C2618 1.350 . S
C2622 C2619 1.463 . S
C2622 N2626 1.427 . S
C2623 H2613 0.929 . S
C2623 C2621 1.433 . S
C2623 N2626 1.384 . S
C2624 H2615 0.929 . S
C2624 C2616 1.378 . S
C2624 C2619 1.350 . S
C2625 H2612 0.929 . S
C2625 C2617 1.433 . S
C2625 N2627 1.384 . S
N2626 C2622 1.427 . S
N2626 C2623 1.384 . S
N2627 C2619 1.427 . S
N2627 C2625 1.384 . S
H2628 C2634 0.930 . S
H2629 C2638 0.930 . S
H2630 C2643 0.929 . S
H2631 C2641 0.929 . S
H2632 C2636 0.929 . S
H2633 C2642 0.929 . S
C2634 H2628 0.930 . S
C2634 C2635 1.367 . S
C2634 C2642 1.378 . S
C2635 C2634 1.367 . S
C2635 C2643 1.433 . S
C2636 H2632 0.929 . S
C2636 C2638 1.378 . S
C2636 C2640 1.350 . S
C2637 C2640 1.463 . S
C2637 C2642 1.350 . S
C2637 N2645 1.427 . S
C2638 H2629 0.930 . S
C2638 C2636 1.378 . S
C2638 C2639 1.367 . S
C2639 C2638 1.367 . S
C2639 C2641 1.433 . S
C2640 C2636 1.350 . S
C2640 C2637 1.463 . S
C2640 N2644 1.427 . S
C2641 H2631 0.929 . S
C2641 C2639 1.433 . S
C2641 N2644 1.384 . S
C2642 H2633 0.929 . S
C2642 C2634 1.378 . S
C2642 C2637 1.350 . S
C2643 H2630 0.929 . S
C2643 C2635 1.433 . S
C2643 N2645 1.384 . S
N2644 C2640 1.427 . S
N2644 C2641 1.384 . S
N2645 C2637 1.427 . S
N2645 C2643 1.384 . S
C1357 C10 1.690 . S
C1361 C839 1.638 . S
C1375 C23 1.679 . S
C1379 C883 1.639 . S
C1397 C963 1.646 . S
C1393 C29 1.689 . S
C1411 C30 1.688 . S
C1415 C1007 1.651 . S
C1429 C5 1.695 . S
C1433 C1087 1.644 . S
C1447 C18 1.687 . S
C1451 C1149 1.645 . S
C1465 C49 1.690 . S
C1469 C1069 1.640 . S
C1487 C1131 1.635 . S
C1483 C62 1.681 . S
C1505 C1025 1.652 . S
C1501 C70 1.689 . S
C1519 C75 1.688 . S
C1523 C945 1.635 . S
C1541 C821 1.653 . S
C1537 C44 1.698 . S
C1555 C57 1.687 . S
C1559 C901 1.652 . S
C1573 C88 1.691 . S
C1577 C1211 1.647 . S
C1591 C101 1.679 . S
C1595 C1255 1.637 . S
C1613 C1335 1.640 . S
C1609 C107 1.687 . S
C1627 C108 1.688 . S
C1631 C281 1.634 . S
C1645 C83 1.696 . S
C1649 C325 1.655 . S
C1663 C96 1.687 . S
C1667 C405 1.644 . S
C1681 C127 1.691 . S
C1685 C343 1.657 . S
C1699 C140 1.680 . S
C1703 C387 1.634 . S
C1721 C263 1.643 . S
C1717 C146 1.688 . S
C1739 C1317 1.635 . S
C1735 C147 1.688 . S
C1757 C1193 1.649 . S
C1753 C122 1.697 . S
C1775 C1273 1.646 . S
C1771 C135 1.685 . S
C1789 C160 1.691 . S
C1793 C467 1.639 . S
C1807 C173 1.680 . S
C1811 C529 1.638 . S
C1825 C185 1.690 . S
C1829 C573 1.656 . S
C1843 C186 1.688 . S
C1847 C635 1.645 . S
C1865 C697 1.664 . S
C1861 C159 1.698 . S
C1883 C777 1.637 . S
C1879 C172 1.686 . S
C1901 C715 1.654 . S
C1897 C205 1.691 . S
C1919 C759 1.633 . S
C1915 C218 1.680 . S
C1933 C224 1.687 . S
C1937 C653 1.647 . S
C1955 C591 1.648 . S
C1951 C225 1.688 . S
C1969 C200 1.698 . S
C1973 C449 1.655 . S
C1991 C511 1.642 . S
C1987 C213 1.687 . S
C2009 C287 1.450 . S
C2005 C4 1.513 . S
C2023 C17 1.504 . S
C2027 C331 1.440 . S
C2045 C411 1.461 . S
C2041 C31 1.515 . S
C2063 C473 1.458 . S
C2059 C36 1.511 . S
C2081 C535 1.467 . S
C2077 C3 1.521 . S
C2099 C579 1.449 . S
C2095 C16 1.514 . S
C2113 C43 1.513 . S
C2117 C597 1.462 . S
C2131 C56 1.506 . S
C2135 C455 1.441 . S
C2149 C68 1.514 . S
C2153 C517 1.461 . S
C2167 C69 1.509 . S
C2171 C349 1.453 . S
C2189 C393 1.467 . S
C2185 C42 1.520 . S
C2203 C55 1.515 . S
C2207 C269 1.456 . S
C2225 C641 1.447 . S
C2221 C82 1.511 . S
C2239 C95 1.505 . S
C2243 C703 1.440 . S
C2257 C109 1.514 1_655 S
C2261 C783 1.447 . S
C2279 C845 1.445 . S
C2275 C114 1.509 . S
C2293 C81 1.519 . S
C2297 C889 1.455 . S
C2311 C94 1.514 . S
C2315 C969 1.446 . S
C2329 C121 1.513 . S
C2333 C951 1.456 . S
C2347 C134 1.504 . S
C2351 C827 1.438 . S
C2369 C907 1.450 . S
C2365 C148 1.514 . S
C2383 C153 1.511 . S
C2387 C721 1.446 . S
C2401 C120 1.520 . S
C2405 C765 1.465 . S
C2423 C659 1.451 . S
C2419 C133 1.514 1_655 S
C2441 C1013 1.457 . S
C2437 C166 1.510 . S
C2455 C179 1.505 . S
C2459 C1093 1.438 . S
C2473 C187 1.514 . S
C2477 C1155 1.452 . S
C2495 C1217 1.459 . S
C2491 C192 1.510 . S
C2513 C1261 1.468 . S
C2509 C161 1.521 1_565 S
C2527 C174 1.514 . S
C2531 C1341 1.445 . S
C2545 C199 1.512 . S
C2549 C1323 1.459 . S
C2563 C212 1.503 1_565 S
C2567 C1199 1.453 . S
C2585 C1279 1.457 . S
C2581 C226 1.513 . S
C2603 C1075 1.456 . S
C2599 C231 1.512 . S
C2621 C1137 1.466 . S
C2617 C198 1.520 . S
C2635 C211 1.515 . S
C2639 C1031 1.459 . S
