# Generated by pormake.
# Topology zzz, (3,6)-cn, num edge types: 1
# Building blocks:
#     Node 0, Type 0, BuildingBlock: BETDAH_clean_linker_0, # of connection points: 3
#     Node 1, Type 0, BuildingBlock: BETDAH_clean_linker_0, # of connection points: 3
#     Node 2, Type 0, BuildingBlock: BETDAH_clean_linker_0, # of connection points: 3
#     Node 3, Type 0, BuildingBlock: BETDAH_clean_linker_0, # of connection points: 3
#     Node 4, Type 0, BuildingBlock: BETDAH_clean_linker_0, # of connection points: 3
#     Node 5, Type 0, BuildingBlock: BETDAH_clean_linker_0, # of connection points: 3
#     Node 6, Type 0, BuildingBlock: BETDAH_clean_linker_0, # of connection points: 3
#     Node 7, Type 0, BuildingBlock: BETDAH_clean_linker_0, # of connection points: 3
#     Node 8, Type 1, BuildingBlock: BETFAJ_clean_sbu_0, # of connection points: 6
#     Node 9, Type 1, BuildingBlock: BETFAJ_clean_sbu_0, # of connection points: 6
#     Node 10, Type 1, BuildingBlock: BETFAJ_clean_sbu_0, # of connection points: 6
#     Node 11, Type 1, BuildingBlock: BETFAJ_clean_sbu_0, # of connection points: 6
#     Edge 12, Type (0, 1), BuildingBlock: TEMPAE_clean_linker_10, # of connection points: 2
#     Edge 13, Type (0, 1), BuildingBlock: TEMPAE_clean_linker_10, # of connection points: 2
#     Edge 14, Type (0, 1), BuildingBlock: TEMPAE_clean_linker_10, # of connection points: 2
#     Edge 15, Type (0, 1), BuildingBlock: TEMPAE_clean_linker_10, # of connection points: 2
#     Edge 16, Type (0, 1), BuildingBlock: TEMPAE_clean_linker_10, # of connection points: 2
#     Edge 17, Type (0, 1), BuildingBlock: TEMPAE_clean_linker_10, # of connection points: 2
#     Edge 18, Type (0, 1), BuildingBlock: TEMPAE_clean_linker_10, # of connection points: 2
#     Edge 19, Type (0, 1), BuildingBlock: TEMPAE_clean_linker_10, # of connection points: 2
#     Edge 20, Type (0, 1), BuildingBlock: TEMPAE_clean_linker_10, # of connection points: 2
#     Edge 21, Type (0, 1), BuildingBlock: TEMPAE_clean_linker_10, # of connection points: 2
#     Edge 22, Type (0, 1), BuildingBlock: TEMPAE_clean_linker_10, # of connection points: 2
#     Edge 23, Type (0, 1), BuildingBlock: TEMPAE_clean_linker_10, # of connection points: 2
#     Edge 24, Type (0, 1), BuildingBlock: TEMPAE_clean_linker_10, # of connection points: 2
#     Edge 25, Type (0, 1), BuildingBlock: TEMPAE_clean_linker_10, # of connection points: 2
#     Edge 26, Type (0, 1), BuildingBlock: TEMPAE_clean_linker_10, # of connection points: 2
#     Edge 27, Type (0, 1), BuildingBlock: TEMPAE_clean_linker_10, # of connection points: 2
#     Edge 28, Type (0, 1), BuildingBlock: TEMPAE_clean_linker_10, # of connection points: 2
#     Edge 29, Type (0, 1), BuildingBlock: TEMPAE_clean_linker_10, # of connection points: 2
#     Edge 30, Type (0, 1), BuildingBlock: TEMPAE_clean_linker_10, # of connection points: 2
#     Edge 31, Type (0, 1), BuildingBlock: TEMPAE_clean_linker_10, # of connection points: 2
#     Edge 32, Type (0, 1), BuildingBlock: TEMPAE_clean_linker_10, # of connection points: 2
#     Edge 33, Type (0, 1), BuildingBlock: TEMPAE_clean_linker_10, # of connection points: 2
#     Edge 34, Type (0, 1), BuildingBlock: TEMPAE_clean_linker_10, # of connection points: 2
#     Edge 35, Type (0, 1), BuildingBlock: TEMPAE_clean_linker_10, # of connection points: 2
# Relax obj value: 0.276
# Max RMSD: 0.190
# Mean RMSD: 0.163
data_MOF--net-zzz--node1-BETFAJ_clean_sbu_0--node2-BETDAH_clean_linker_0--edge1-TEMPAE_clean_linker_10
_symmetry_space_group_name_H-M    P1
_symmetry_Int_Tables_number       1
_symmetry_cell_setting            triclinic
loop_
_symmetry_equiv_pos_as_xyz
'x, y, z'
_cell_length_a     53.467231
_cell_length_b     53.534012
_cell_length_c     13.613334
_cell_angle_alpha  89.769744
_cell_angle_beta   90.010763
_cell_angle_gamma 90.002227
loop_
_atom_site_label
_atom_site_type_symbol
_atom_site_fract_x
_atom_site_fract_y
_atom_site_fract_z
_atom_type_partial_charge
H0 H 0.80021 0.47271 0.38706 0.0
H1 H 0.73139 0.48955 0.24246 0.0
H2 H 0.75626 0.53473 0.48668 0.0
C3 C 0.78334 0.48374 0.38424 0.0
C4 C 0.78085 0.50416 0.44722 0.0
C5 C 0.76604 0.47867 0.30995 0.0
C6 C 0.74444 0.49328 0.30146 0.0
C7 C 0.74022 0.51306 0.3676 0.0
C8 C 0.75889 0.51887 0.43864 0.0
N9 N 0.71792 0.52779 0.36248 0.0
C10 C 0.6981 0.52404 0.29638 0.0
H11 H 0.05484 0.81041 0.38426 0.0
H12 H 0.03425 0.74281 0.24008 0.0
H13 H 0.98963 0.77053 0.48115 0.0
C14 C 0.0428 0.79426 0.38118 0.0
C15 C 0.0219 0.79306 0.44293 0.0
C16 C 0.04707 0.77665 0.30746 0.0
C17 C 0.03113 0.75605 0.29873 0.0
C18 C 1.0108 0.75317 0.3638 0.0
C19 C 1.00588 0.77212 0.43405 0.0
N20 N 0.99459 0.732 0.35803 0.0
C21 C 0.99763 0.71194 0.29317 0.0
H22 H 0.72272 0.97155 0.38575 0.0
H23 H 0.79402 0.99117 0.26392 0.0
H24 H 0.76754 0.02715 0.52755 0.0
C25 C 0.74019 0.98164 0.39132 0.0
C26 C 0.74267 0.99938 0.46586 0.0
C27 C 0.75798 0.97941 0.31588 0.0
C28 C 0.78042 0.99283 0.32246 0.0
C29 C 0.78455 1.00941 0.40086 0.0
C30 C 0.76516 0.01328 0.47058 0.0
N31 N 0.80733 0.02329 0.4081 0.0
C32 C 0.82739 0.02159 0.34198 0.0
H33 H 0.47174 0.72674 0.34216 0.0
H34 H 0.48886 0.79738 0.21118 0.0
H35 H 0.52272 0.77615 0.48827 0.0
C36 C 0.48104 0.74463 0.34722 0.0
C37 C 0.49719 0.7491 0.42577 0.0
C38 C 0.47832 0.76162 0.26979 0.0
C39 C 0.49083 0.78454 0.27237 0.0
C40 C 0.5064 0.79036 0.35285 0.0
C41 C 0.51004 0.77222 0.42822 0.0
N42 N 0.51904 0.81384 0.35857 0.0
C43 C 0.51658 0.83343 0.29047 0.0
H44 H 0.22388 0.47259 0.11956 0.0
H45 H 0.29461 0.49409 0.24046 0.0
H46 H 0.26634 0.53066 0.97991 0.0
C47 C 0.24091 0.48338 0.11404 0.0
C48 C 0.24251 0.50171 0.0407 0.0
C49 C 0.25888 0.48143 0.18903 0.0
C50 C 0.28087 0.49557 0.18229 0.0
C51 C 0.2843 0.51268 0.10468 0.0
C52 C 0.26456 0.51637 0.03603 0.0
N53 N 0.30667 0.52727 0.09752 0.0
C54 C 0.32708 0.52559 0.16227 0.0
H55 H 0.96941 0.23028 0.12461 0.0
H56 H 0.98294 0.29956 0.2721 0.0
H57 H 0.03747 0.2701 0.06881 0.0
C58 C 0.98088 0.2467 0.13494 0.0
C59 C 1.00438 0.24751 0.09036 0.0
C60 C 0.97338 0.26482 0.20268 0.0
C61 C 0.98847 0.28591 0.21778 0.0
C62 C 1.01112 0.28866 0.16548 0.0
C63 C 0.01925 0.26902 0.10336 0.0
N64 N 0.02674 0.31006 0.17799 0.0
C65 C 0.02174 0.33031 0.23992 0.0
H66 H 0.29934 0.97333 0.10876 0.0
H67 H 0.23075 0.99123 0.2543 0.0
H68 H 0.25922 0.03947 0.02511 0.0
C69 C 0.28297 0.98512 0.1145 0.0
C70 C 0.28227 1.00745 0.06101 0.0
C71 C 0.26536 0.9799 0.18767 0.0
C72 C 0.24406 0.995 0.19615 0.0
C73 C 0.2408 0.01568 0.13271 0.0
C74 C 0.26047 0.02232 0.06726 0.0
N75 N 0.21897 0.03104 0.13785 0.0
C76 C 0.19857 0.02711 0.20087 0.0
H77 H 0.55281 0.31314 0.12327 0.0
H78 H 0.53316 0.24398 0.26087 0.0
H79 H 0.49758 0.2662 0.98858 0.0
C80 C 0.54256 0.29573 0.12049 0.0
C81 C 0.5252 0.29202 0.0453 0.0
C82 C 0.54513 0.27889 0.19853 0.0
C83 C 0.53136 0.25667 0.19911 0.0
C84 C 0.51473 0.25144 0.12136 0.0
C85 C 0.51117 0.26958 0.04603 0.0
N86 N 0.50083 0.22864 0.11874 0.0
C87 C 0.50309 0.20904 0.18686 0.0
Sm88 Sm 0.02621 0.01307 0.86088 0.0
Sm89 Sm 0.99597 0.02907 0.66346 0.0
C90 C 0.04056 0.99611 0.03324 0.0
C91 C 0.05708 0.97489 0.05368 0.0
C92 C 0.06284 0.9583 0.97749 0.0
C93 C 0.07585 0.9363 0.99702 0.0
C94 C 0.08362 0.93061 0.09317 0.0
C95 C 0.07968 0.94844 0.16772 0.0
C96 C 0.06629 0.97036 0.14822 0.0
C97 C 0.05892 0.01542 0.70114 0.0
C98 C 1.00772 0.96928 0.70517 0.0
C99 C 0.98194 0.04594 0.49044 0.0
C100 C 0.96512 0.06665 0.46574 0.0
C101 C 0.95751 0.08319 0.53965 0.0
C102 C 0.9444 0.1049 0.51566 0.0
C103 C 0.93848 0.11035 0.41724 0.0
C104 C 0.94437 0.09256 0.34459 0.0
C105 C 0.95778 0.07097 0.36859 0.0
C106 C 0.96321 0.02569 0.82301 0.0
C107 C 0.01499 0.07297 0.81859 0.0
O108 O 0.01904 0.99011 0.99344 0.0
O109 O 0.05133 0.01525 0.99042 0.0
O110 O 0.03569 0.01971 0.70124 0.0
O111 O 0.06548 1.00948 0.78977 0.0
O112 O 0.01424 0.97479 0.79664 0.0
O113 O 1.00258 0.98677 0.63874 0.0
O114 O 1.00297 0.05265 0.53259 0.0
O115 O 0.97132 0.02661 0.53268 0.0
O116 O 0.98652 0.02197 0.82256 0.0
O117 O 0.95643 0.03116 0.7341 0.0
O118 O 1.00611 0.06754 0.73023 0.0
O119 O 0.02209 0.0557 0.8829 0.0
H120 H 0.05617 0.96176 0.90351 0.0
H121 H 0.0782 0.92304 0.93789 0.0
H122 H 0.08581 0.94484 0.24223 0.0
H123 H 0.06236 0.98323 0.20745 0.0
H124 H 0.96285 0.07995 0.61544 0.0
H125 H 0.94051 0.11817 0.5735 0.0
H126 H 0.93981 0.096 0.26828 0.0
H127 H 0.9633 0.05824 0.31088 0.0
Sm128 Sm 0.51694 0.03463 0.84196 0.0
Sm129 Sm 0.50385 1.00733 0.6327 0.0
C130 C 0.53491 0.03882 0.01966 0.0
C131 C 0.55724 0.02569 0.05531 0.0
C132 C 0.56218 1.0013 0.02257 0.0
C133 C 0.58588 0.99086 0.03369 0.0
C134 C 0.60525 1.00477 0.07626 0.0
C135 C 0.60001 0.02888 0.1122 0.0
C136 C 0.57617 0.03918 0.10218 0.0
C137 C 0.51135 0.06971 0.69209 0.0
C138 C 0.5626 0.01806 0.68854 0.0
C139 C 0.48796 0.99757 0.45422 0.0
C140 C 0.4678 0.98128 0.41891 0.0
C141 C 0.4517 0.99013 0.3458 0.0
C142 C 0.42956 0.97744 0.32518 0.0
C143 C 0.42316 0.95541 0.37667 0.0
C144 C 0.44016 0.94579 0.44591 0.0
C145 C 0.46222 0.9587 0.46734 0.0
C146 C 0.50917 0.97234 0.78339 0.0
C147 C 0.45779 0.02358 0.78937 0.0
O148 O 0.51528 0.02492 0.00062 0.0
O149 O 0.53968 0.05525 0.95065 0.0
O150 O 0.50988 0.04622 0.68648 0.0
O151 O 0.51509 0.07555 0.78364 0.0
O152 O 0.55548 0.0218 0.78075 0.0
O153 O 0.54615 0.01544 0.6162 0.0
O154 O 0.48033 0.01704 0.50424 0.0
O155 O 0.50751 0.98648 0.49307 0.0
O156 O 0.51117 0.99578 0.78759 0.0
O157 O 0.50448 0.96641 0.69286 0.0
O158 O 0.46461 0.01332 0.70441 0.0
O159 O 0.47394 0.033 0.85353 0.0
H160 H 0.54817 0.99077 0.98322 0.0
H161 H 0.58915 0.97213 0.00675 0.0
H162 H 0.6146 0.04028 0.14418 0.0
H163 H 0.57295 0.05825 0.1254 0.0
H164 H 0.45552 1.00766 0.30864 0.0
H165 H 0.41681 0.98587 0.27291 0.0
H166 H 0.43604 0.92877 0.48602 0.0
H167 H 0.47431 0.95161 0.52488 0.0
Sm168 Sm 0.4969 0.52675 0.83837 0.0
Sm169 Sm 0.52585 0.51446 0.63207 0.0
C170 C 0.48449 0.53873 0.019 0.0
C171 C 0.46773 0.55808 0.05731 0.0
C172 C 0.47601 0.57299 0.13478 0.0
C173 C 0.46414 0.59557 0.15465 0.0
C174 C 0.44355 0.60357 0.09777 0.0
C175 C 0.43379 0.5873 0.02661 0.0
C176 C 0.44592 0.56481 0.00593 0.0
C177 C 0.46336 0.52549 0.68028 0.0
C178 C 0.51229 0.57336 0.68956 0.0
C179 C 0.53799 0.50224 0.45144 0.0
C180 C 0.55447 0.48268 0.41295 0.0
C181 C 0.54574 0.46758 0.33682 0.0
C182 C 0.55748 0.44495 0.31666 0.0
C183 C 0.57842 0.43708 0.37178 0.0
C184 C 0.58852 0.45345 0.44184 0.0
C185 C 0.57651 0.47599 0.46288 0.0
C186 C 0.55944 0.51567 0.78976 0.0
C187 C 0.51055 0.46791 0.78133 0.0
O188 O 0.50458 0.54745 0.97535 0.0
O189 O 0.47395 0.52018 0.97171 0.0
O190 O 0.48664 0.52184 0.67971 0.0
O191 O 0.45685 0.52992 0.77034 0.0
O192 O 0.50666 0.56645 0.78081 0.0
O193 O 0.51771 0.55695 0.61971 0.0
O194 O 0.51785 0.49377 0.49542 0.0
O195 O 0.54877 0.52071 0.49842 0.0
O196 O 0.53616 0.51938 0.79076 0.0
O197 O 0.56588 0.51108 0.69974 0.0
O198 O 0.51605 0.47477 0.68992 0.0
O199 O 0.50523 0.48435 0.85114 0.0
H200 H 0.49288 0.56817 0.17472 0.0
H201 H 0.47252 0.60759 0.20928 0.0
H202 H 0.4177 0.59259 0.98293 0.0
H203 H 0.43918 0.55356 0.94553 0.0
H204 H 0.52865 0.47233 0.29812 0.0
H205 H 0.54878 0.43284 0.26309 0.0
H206 H 0.60487 0.44826 0.48421 0.0
H207 H 0.58359 0.48737 0.52233 0.0
Sm208 Sm 1.00275 0.50913 0.86881 0.0
Sm209 Sm 0.01687 0.53482 0.65658 0.0
C210 C 0.98563 0.49816 0.04431 0.0
C211 C 0.96511 0.48093 0.06712 0.0
C212 C 0.94902 0.47349 0.99131 0.0
C213 C 0.92793 0.45917 0.01177 0.0
C214 C 0.92271 0.45154 0.10852 0.0
C215 C 0.94015 0.45725 0.1831 0.0
C216 C 0.96107 0.47212 0.16263 0.0
C217 C 1.00838 0.47307 0.72281 0.0
C218 C 0.95744 0.52421 0.70576 0.0
C219 C 0.03621 0.5385 0.48082 0.0
C220 C 0.05871 0.52523 0.44851 0.0
C221 C 0.06378 0.50125 0.48601 0.0
C222 C 0.08749 0.49076 0.47638 0.0
C223 C 0.10674 0.50428 0.43068 0.0
C224 C 0.1014 0.52805 0.39086 0.0
C225 C 0.07755 0.53836 0.39928 0.0
C226 C 1.00994 0.57093 0.80118 0.0
C227 C 0.06177 0.51931 0.81603 0.0
O228 O 0.97886 0.51839 0.99633 0.0
O229 O 1.00572 0.48764 0.00812 0.0
O230 O 1.01066 0.49643 0.71583 0.0
O231 O 1.00294 0.46789 0.81336 0.0
O232 O 0.96382 0.51705 0.79634 0.0
O233 O 0.97416 0.53087 0.63827 0.0
O234 O 0.01642 0.5247 0.49852 0.0
O235 O 0.04058 0.55503 0.54932 0.0
O236 O 1.0088 0.54751 0.80958 0.0
O237 O 0.01387 0.57619 0.70907 0.0
O238 O 0.05498 0.52209 0.72277 0.0
O239 O 0.04501 0.51752 0.88781 0.0
H240 H 0.95218 0.47968 0.91652 0.0
H241 H 0.91498 0.45553 0.9524 0.0
H242 H 0.93709 0.45117 0.2581 0.0
H243 H 0.97361 0.47732 0.22155 0.0
H244 H 0.04984 0.4911 0.52755 0.0
H245 H 0.09085 0.47232 0.50657 0.0
H246 H 0.11591 0.53919 0.35662 0.0
H247 H 0.07423 0.55717 0.37258 0.0
C248 C 0.1687 0.04614 0.31784 0.0
C249 C 0.17663 0.02529 0.26442 0.0
C250 C 0.14771 0.04487 0.38049 0.0
C251 C 0.13422 0.02216 0.39022 0.0
C252 C 0.14186 1.00121 0.3339 0.0
C253 C 0.16299 1.00301 0.27192 0.0
C254 C 0.14042 0.06769 0.43856 0.0
C255 C 0.12818 0.97663 0.34141 0.0
C256 C 0.10232 0.01104 0.63718 0.0
C257 C 0.07712 0.01671 0.61787 0.0
C258 C 0.12074 0.01241 0.56376 0.0
C259 C 0.11407 0.01963 0.46711 0.0
C260 C 0.08854 0.02498 0.44614 0.0
C261 C 0.07035 0.02353 0.52183 0.0
C262 C 0.14751 1.00638 0.59035 0.0
C263 C 0.08051 0.03261 0.34417 0.0
H264 H 0.17912 0.06345 0.31145 0.0
H265 H 0.169 0.9869 0.23007 0.0
H266 H 0.12029 0.0719 0.42758 0.0
H267 H 0.14323 0.06403 0.51809 0.0
H268 H 0.15154 0.0844 0.4175 0.0
H269 H 0.1337 0.96352 0.28216 0.0
H270 H 0.13241 0.96774 0.41329 0.0
H271 H 0.10767 0.97961 0.33803 0.0
H272 H 0.10784 1.00564 0.71089 0.0
H273 H 0.05097 0.02786 0.506 0.0
H274 H 0.15951 0.02299 0.57749 0.0
H275 H 0.15465 0.99118 0.54283 0.0
H276 H 0.14957 1.00051 0.6683 0.0
H277 H 0.08805 0.05144 0.32709 0.0
H278 H 0.05983 0.03316 0.33652 0.0
H279 H 0.08824 0.01954 0.28887 0.0
C280 C 0.48189 0.17696 0.28893 0.0
C281 C 0.50406 0.18781 0.25434 0.0
C282 C 0.48237 0.15643 0.35429 0.0
C283 C 0.50562 0.14643 0.38594 0.0
C284 C 0.52808 0.1572 0.34951 0.0
C285 C 0.52702 0.17775 0.28425 0.0
C286 C 0.45797 0.14578 0.39114 0.0
C287 C 0.55327 0.14732 0.38104 0.0
C288 C 0.50835 0.11405 0.63617 0.0
C289 C 0.50876 0.08859 0.61167 0.0
C290 C 0.50716 0.13282 0.56378 0.0
C291 C 0.50645 0.12621 0.46318 0.0
C292 C 0.50664 0.10047 0.43761 0.0
C293 C 0.50778 0.08196 0.51213 0.0
C294 C 0.50688 0.15985 0.59528 0.0
C295 C 0.50596 0.09252 0.33149 0.0
H296 H 0.46411 0.18467 0.26537 0.0
H297 H 0.54418 0.18608 0.2571 0.0
H298 H 0.4573 0.12536 0.37773 0.0
H299 H 0.45651 0.14857 0.47166 0.0
H300 H 0.44151 0.15463 0.35537 0.0
H301 H 0.56892 0.15667 0.34181 0.0
H302 H 0.55576 0.15017 0.46113 0.0
H303 H 0.55437 0.12692 0.36744 0.0
H304 H 0.50913 0.11942 0.71281 0.0
H305 H 0.50829 0.06237 0.49245 0.0
H306 H 0.4899 0.16927 0.56644 0.0
H307 H 0.52332 0.16975 0.56418 0.0
H308 H 0.50721 0.16191 0.67644 0.0
H309 H 0.48925 0.1005 0.29468 0.0
H310 H 0.50556 0.07187 0.32352 0.0
H311 H 0.52265 0.09988 0.29251 0.0
C312 C 0.35358 0.504 0.28666 0.0
C313 C 0.34874 0.52499 0.22798 0.0
C314 C 0.37393 0.50357 0.35287 0.0
C315 C 0.38986 0.52471 0.36112 0.0
C316 C 0.38535 0.54572 0.29951 0.0
C317 C 0.36487 0.54559 0.23389 0.0
C318 C 0.378 0.48069 0.41592 0.0
C319 C 0.4017 0.56866 0.30498 0.0
C320 C 0.42088 0.53395 0.61141 0.0
C321 C 0.44553 0.52585 0.59552 0.0
C322 C 0.40298 0.53414 0.5356 0.0
C323 C 0.40954 0.52569 0.44053 0.0
C324 C 0.43454 0.51771 0.42336 0.0
C325 C 0.45226 0.51804 0.50083 0.0
C326 C 0.37685 0.54325 0.55781 0.0
C327 C 0.44245 0.50849 0.32353 0.0
H328 H 0.34125 0.48797 0.28174 0.0
H329 H 0.36124 0.5618 0.18807 0.0
H330 H 0.39767 0.47426 0.40976 0.0
H331 H 0.37462 0.48537 0.49412 0.0
H332 H 0.36539 0.46507 0.39523 0.0
H333 H 0.39676 0.58279 0.24818 0.0
H334 H 0.39982 0.57735 0.37848 0.0
H335 H 0.42164 0.56349 0.29564 0.0
H336 H 0.41546 0.54021 0.68399 0.0
H337 H 0.47123 0.51183 0.48764 0.0
H338 H 0.36323 0.52789 0.54667 0.0
H339 H 0.3717 0.55859 0.50658 0.0
H340 H 0.37495 0.55015 0.63431 0.0
H341 H 0.43065 0.49239 0.30169 0.0
H342 H 0.46239 0.50265 0.32206 0.0
H343 H 0.43963 0.52338 0.26773 0.0
C344 C 0.99596 0.35985 0.33799 0.0
C345 C 0.01932 0.35226 0.30241 0.0
C346 C 0.99375 0.38083 0.40003 0.0
C347 C 0.01542 0.3945 0.42729 0.0
C348 C 0.03897 0.38709 0.38928 0.0
C349 C 0.04062 0.36607 0.32748 0.0
C350 C 0.96827 0.38805 0.43811 0.0
C351 C 0.06256 0.40104 0.4157 0.0
C352 C 1.00842 0.45937 0.54453 0.0
C353 C 1.01093 0.45377 0.64472 0.0
C354 C 1.01002 0.44043 0.47261 0.0
C355 C 0.01381 0.41518 0.50165 0.0
C356 C 0.01623 0.40954 0.60297 0.0
C357 C 0.01473 0.42879 0.67274 0.0
C358 C 1.00729 0.44741 0.36571 0.0
C359 C 0.02034 0.38305 0.63803 0.0
H360 H 0.97946 0.34925 0.31809 0.0
H361 H 0.05868 0.36027 0.29944 0.0
H362 H 0.96786 0.38615 0.51929 0.0
H363 H 0.96434 0.40791 0.42035 0.0
H364 H 0.95314 0.37631 0.40667 0.0
H365 H 0.07914 0.394 0.37517 0.0
H366 H 0.06031 0.42125 0.39961 0.0
H367 H 0.06619 0.39917 0.49564 0.0
H368 H 1.00473 0.47844 0.52246 0.0
H369 H 0.01654 0.42421 0.75007 0.0
H370 H 0.98969 0.43938 0.33642 0.0
H371 H 0.02292 0.4395 0.32222 0.0
H372 H 1.00691 0.46798 0.3545 0.0
H373 H 1.00465 0.37102 0.61362 0.0
H374 H 0.02186 0.38173 0.71928 0.0
H375 H 0.03772 0.37542 0.60519 0.0
C376 C 0.85566 0.99908 0.22718 0.0
C377 C 0.84875 0.02113 0.2751 0.0
C378 C 0.87589 0.99869 0.16039 0.0
C379 C 0.88954 0.02092 0.14074 0.0
C380 C 0.88287 0.0431 0.1913 0.0
C381 C 0.86257 0.04292 0.25759 0.0
C382 C 0.88223 0.97463 0.10876 0.0
C383 C 0.89659 0.06728 0.17282 0.0
C384 C 0.95255 0.01825 0.0033 0.0
C385 C 0.9452 0.02395 0.90681 0.0
C386 C 0.93475 0.0171 0.08045 0.0
C387 C 0.90901 0.02164 0.06062 0.0
C388 C 0.90168 0.02738 0.96317 0.0
C389 C 0.91973 0.02845 0.88819 0.0
C390 C 0.94346 0.01091 0.18304 0.0
C391 C 0.87466 0.03256 0.93778 0.0
H392 H 0.84504 0.98217 0.24099 0.0
H393 H 0.8573 0.06 0.29484 0.0
H394 H 0.87863 0.97668 0.02886 0.0
H395 H 0.90239 0.97032 0.11787 0.0
H396 H 0.87109 0.95861 0.1369 0.0
H397 H 0.89222 0.08157 0.22924 0.0
H398 H 0.91709 0.06413 0.17157 0.0
H399 H 0.89116 0.07481 0.09982 0.0
H400 H 0.97213 0.01479 0.01858 0.0
H401 H 0.91377 0.03293 0.81408 0.0
H402 H 0.93564 0.02439 0.23654 0.0
H403 H 0.96418 0.011 0.18919 0.0
H404 H 0.93652 0.9921 0.20402 0.0
H405 H 0.86287 0.01631 0.95841 0.0
H406 H 0.87194 0.03649 0.85831 0.0
H407 H 0.86782 0.04884 0.9802 0.0
C408 C 0.49278 0.86121 0.17732 0.0
C409 C 0.51532 0.85469 0.22314 0.0
C410 C 0.49149 0.88164 0.11151 0.0
C411 C 0.51329 0.89589 0.0908 0.0
C412 C 0.536 0.88953 0.13876 0.0
C413 C 0.53672 0.86902 0.20421 0.0
C414 C 0.46688 0.88767 0.06263 0.0
C415 C 0.55968 0.90408 0.11935 0.0
C416 C 0.51682 0.92876 0.84146 0.0
C417 C 0.51135 0.95368 0.86469 0.0
C418 C 0.51771 0.91001 0.91416 0.0
C419 C 0.5128 0.91611 0.01352 0.0
C420 C 0.50731 0.94133 0.03775 0.0
C421 C 0.50653 0.95977 0.96299 0.0
C422 C 0.52369 0.88354 0.8842 0.0
C423 C 0.50184 0.94877 0.14236 0.0
H424 H 0.47618 0.85021 0.19239 0.0
H425 H 0.55415 0.86406 0.24011 0.0
H426 H 0.46192 0.90753 0.07526 0.0
H427 H 0.46856 0.88506 0.98209 0.0
H428 H 0.45139 0.87571 0.09016 0.0
H429 H 0.57541 0.89781 0.16675 0.0
H430 H 0.56528 0.90187 0.04138 0.0
H431 H 0.55645 0.92429 0.13184 0.0
H432 H 0.52039 0.92382 0.76557 0.0
H433 H 0.50158 0.97878 0.98116 0.0
H434 H 0.50789 0.87104 0.90371 0.0
H435 H 0.54038 0.87676 0.92471 0.0
H436 H 0.52734 0.88188 0.80416 0.0
H437 H 0.48463 0.93923 0.16824 0.0
H438 H 0.49924 0.96926 0.15013 0.0
H439 H 0.51734 0.94275 0.19125 0.0
C440 C 0.65956 0.50251 0.23761 0.0
C441 C 0.67672 0.52222 0.22973 0.0
C442 C 0.63872 0.50086 0.17388 0.0
C443 C 0.63491 0.51942 0.10044 0.0
C444 C 0.65209 0.5396 0.09396 0.0
C445 C 0.67274 0.54071 0.15842 0.0
C446 C 0.62103 0.47902 0.18407 0.0
C447 C 0.64889 0.55989 0.01768 0.0
C448 C 0.60098 0.50435 0.86079 0.0
C449 C 0.57736 0.51531 0.8741 0.0
C450 C 0.61932 0.50476 0.93496 0.0
C451 C 0.61433 0.51685 0.02524 0.0
C452 C 0.59027 0.52753 0.04021 0.0
C453 C 0.57201 0.52646 0.96479 0.0
C454 C 0.64435 0.49265 0.91555 0.0
C455 C 0.58407 0.54076 0.13472 0.0
H456 H 0.66249 0.48829 0.29338 0.0
H457 H 0.68587 0.55609 0.15278 0.0
H458 H 0.60166 0.48581 0.19561 0.0
H459 H 0.62103 0.46795 0.11534 0.0
H460 H 0.62615 0.46652 0.24626 0.0
H461 H 0.66282 0.57513 0.02615 0.0
H462 H 0.65091 0.55185 0.94312 0.0
H463 H 0.62984 0.56801 0.02257 0.0
H464 H 0.60529 0.49549 0.79134 0.0
H465 H 0.55389 0.53503 0.97571 0.0
H466 H 0.64895 0.47926 0.9753 0.0
H467 H 0.65922 0.5071 0.91454 0.0
H468 H 0.64474 0.48255 0.84444 0.0
H469 H 0.58757 0.52825 0.19838 0.0
H470 H 0.5643 0.5471 0.13706 0.0
H471 H 0.59643 0.55726 0.14326 0.0
C472 C 0.97735 0.67959 0.1907 0.0
C473 C 0.9992 0.69046 0.22782 0.0
C474 C 0.9784 0.65892 0.12682 0.0
C475 C 1.00191 0.64883 0.09923 0.0
C476 C 0.02404 0.65963 0.13822 0.0
C477 C 0.02241 0.68032 0.20195 0.0
C478 C 0.95433 0.64822 0.08717 0.0
C479 C 0.04949 0.64963 0.11102 0.0
C480 C 1.00499 0.58394 0.97918 0.0
C481 C 1.0068 0.59018 0.87924 0.0
C482 C 1.00329 0.60272 0.05181 0.0
C483 C 1.0034 0.62835 0.02391 0.0
C484 C 1.005 0.63458 0.92288 0.0
C485 C 1.0067 0.61553 0.85234 0.0
C486 C 1.00164 0.59517 0.15846 0.0
C487 C 1.00512 0.66149 0.88899 0.0
H488 H 0.95937 0.68739 0.21108 0.0
H489 H 0.03932 0.68869 0.23101 0.0
H490 H 0.95366 0.65077 0.00628 0.0
H491 H 0.95348 0.62784 0.10204 0.0
H492 H 0.93757 0.65721 0.11977 0.0
H493 H 0.06478 0.6591 0.15168 0.0
H494 H 0.05043 0.62929 0.12638 0.0
H495 H 0.0527 0.65224 0.03111 0.0
H496 H 1.00526 0.56443 0.00069 0.0
H497 H 1.00814 0.62059 0.77537 0.0
H498 H 0.98455 0.60322 0.19204 0.0
H499 H 0.01791 0.60275 0.19922 0.0
H500 H 1.00123 0.57456 0.16825 0.0
H501 H 0.98791 0.67105 0.91447 0.0
H502 H 1.00623 0.66325 0.80777 0.0
H503 H 0.02128 0.67145 0.92166 0.0
C504 C 0.93023 0.25008 0.23701 0.0
C505 C 0.95378 0.25712 0.27302 0.0
C506 C 0.91748 0.22963 0.27842 0.0
C507 C 0.92925 0.21565 0.35371 0.0
C508 C 0.95025 0.22595 0.40254 0.0
C509 C 0.96208 0.247 0.36221 0.0
C510 C 0.89362 0.22069 0.23135 0.0
C511 C 0.9628 0.21239 0.48648 0.0
C512 C 0.91493 0.15044 0.45003 0.0
C513 C 0.93055 0.13606 0.38929 0.0
C514 C 0.9122 0.17633 0.43464 0.0
C515 C 0.92568 0.18804 0.35772 0.0
C516 C 0.93944 0.17309 0.29095 0.0
C517 C 0.94172 0.14746 0.30773 0.0
C518 C 0.89599 0.19098 0.5043 0.0
C519 C 0.95393 0.18432 0.20663 0.0
H520 H 0.92349 0.25823 0.16892 0.0
H521 H 0.98011 0.25272 0.39101 0.0
H522 H 0.8981 0.20726 0.17204 0.0
H523 H 0.88152 0.21103 0.28584 0.0
H524 H 0.88313 0.23652 0.19814 0.0
H525 H 0.94875 0.20607 0.54099 0.0
H526 H 0.97254 0.19558 0.45799 0.0
H527 H 0.97678 0.22433 0.52429 0.0
H528 H 0.90563 0.1417 0.512 0.0
H529 H 0.95404 0.13676 0.26071 0.0
H530 H 0.89065 0.20952 0.47415 0.0
H531 H 0.90619 0.19376 0.57439 0.0
H532 H 0.8787 0.18034 0.52175 0.0
H533 H 0.94158 0.1961 0.16048 0.0
H534 H 0.96237 0.16993 0.15845 0.0
H535 H 0.9691 0.19617 0.23649 0.0
C536 C 0.28011 0.9392 0.25426 0.0
C537 C 0.27464 0.96449 0.27003 0.0
C538 C 0.30137 0.92826 0.29748 0.0
C539 C 0.31814 0.94358 0.35067 0.0
C540 C 0.31022 0.96769 0.38034 0.0
C541 C 0.28791 0.97747 0.34227 0.0
C542 C 0.3073 0.90131 0.27605 0.0
C543 C 0.3269 0.98463 0.44001 0.0
C544 C 0.38399 0.93597 0.44648 0.0
C545 C 0.3977 0.94454 0.36485 0.0
C546 C 0.35804 0.932 0.43999 0.0
C547 C 0.34546 0.93789 0.35136 0.0
C548 C 0.35976 0.94364 0.26622 0.0
C549 C 0.3857 0.94615 0.27374 0.0
C550 C 0.34427 0.9232 0.53039 0.0
C551 C 0.34769 0.9506 0.1698 0.0
H552 H 0.26957 0.92888 0.19981 0.0
H553 H 0.2834 0.99693 0.35538 0.0
H554 H 0.31522 0.89963 0.2011 0.0
H555 H 0.32088 0.89347 0.32964 0.0
H556 H 0.28991 0.88995 0.27804 0.0
H557 H 0.31801 1.00297 0.45533 0.0
H558 H 0.33148 0.97565 0.5112 0.0
H559 H 0.34472 0.98804 0.40026 0.0
H560 H 0.39303 0.93397 0.51731 0.0
H561 H 0.39637 0.95151 0.20929 0.0
H562 H 0.3245 0.91821 0.51522 0.0
H563 H 0.34489 0.93794 0.58744 0.0
H564 H 0.35389 0.90659 0.56169 0.0
H565 H 0.33432 0.93608 0.14586 0.0
H566 H 0.36153 0.95352 0.10999 0.0
H567 H 0.33727 0.96822 0.1802 0.0
C568 C 0.54432 0.30352 0.34809 0.0
C569 C 0.55837 0.2883 0.28562 0.0
C570 C 0.55469 0.32548 0.38612 0.0
C571 C 0.57999 0.33129 0.36495 0.0
C572 C 0.59548 0.3129 0.32212 0.0
C573 C 0.58432 0.29171 0.28015 0.0
C574 C 0.53758 0.34406 0.43537 0.0
C575 C 0.62309 0.31728 0.30808 0.0
C576 C 0.58478 0.39787 0.27646 0.0
C577 C 0.58686 0.41064 0.36554 0.0
C578 C 0.58434 0.37177 0.27404 0.0
C579 C 0.58766 0.358 0.36255 0.0
C580 C 0.59379 0.37081 0.44999 0.0
C581 C 0.59278 0.39703 0.45105 0.0
C582 C 0.57693 0.35946 0.1787 0.0
C583 C 0.59947 0.35721 0.54469 0.0
H584 H 0.52428 0.30061 0.35298 0.0
H585 H 0.59529 0.27972 0.23279 0.0
H586 H 0.5458 0.35029 0.50583 0.0
H587 H 0.53533 0.36079 0.38768 0.0
H588 H 0.51876 0.33613 0.45047 0.0
H589 H 0.63333 0.29932 0.3009 0.0
H590 H 0.62621 0.3283 0.23997 0.0
H591 H 0.63098 0.32797 0.3706 0.0
H592 H 0.58128 0.40828 0.20937 0.0
H593 H 0.59484 0.40657 0.52064 0.0
H594 H 0.55705 0.35366 0.18395 0.0
H595 H 0.58841 0.3427 0.16391 0.0
H596 H 0.57875 0.37233 0.11484 0.0
H597 H 0.60402 0.33722 0.53306 0.0
H598 H 0.58314 0.35857 0.59473 0.0
H599 H 0.61546 0.36628 0.5825 0.0
C600 C 0.23559 0.44909 0.28342 0.0
C601 C 0.25064 0.47056 0.28414 0.0
C602 C 0.21423 0.44791 0.34311 0.0
C603 C 0.2086 0.46842 0.4044 0.0
C604 C 0.22749 0.48617 0.42462 0.0
C605 C 0.24869 0.48695 0.36399 0.0
C606 C 0.19549 0.42736 0.32617 0.0
C607 C 0.22298 0.5074 0.49483 0.0
C608 C 0.1465 0.49796 0.34022 0.0
C609 C 0.1324 0.49388 0.42495 0.0
C610 C 0.17121 0.48988 0.3337 0.0
C611 C 0.18207 0.47637 0.41301 0.0
C612 C 0.16765 0.47129 0.49797 0.0
C613 C 0.14303 0.48044 0.50352 0.0
C614 C 0.18526 0.49564 0.2401 0.0
C615 C 0.17809 0.45671 0.58375 0.0
H616 H 0.23782 0.43563 0.22473 0.0
H617 H 0.26094 0.50305 0.36809 0.0
H618 H 0.18221 0.43328 0.26785 0.0
H619 H 0.20488 0.40996 0.30156 0.0
H620 H 0.1846 0.4234 0.39389 0.0
H621 H 0.24083 0.51623 0.51798 0.0
H622 H 0.21133 0.52183 0.45803 0.0
H623 H 0.2128 0.50084 0.56097 0.0
H624 H 0.1382 0.50765 0.27833 0.0
H625 H 0.13232 0.47742 0.57011 0.0
H626 H 0.18607 0.47845 0.19514 0.0
H627 H 0.20453 0.50206 0.2555 0.0
H628 H 0.176 0.5104 0.19564 0.0
H629 H 0.19222 0.44279 0.56016 0.0
H630 H 0.16298 0.44688 0.62442 0.0
H631 H 0.18723 0.46977 0.6356 0.0
C632 C 0.05452 0.79548 0.14628 0.0
C633 C 0.0648 0.78397 0.22943 0.0
C634 C 0.06631 0.81629 0.10392 0.0
C635 C 0.08905 0.825 0.14482 0.0
C636 C 0.10211 0.80969 0.21238 0.0
C637 C 0.0896 0.78936 0.25553 0.0
C638 C 0.05227 0.83133 0.0278 0.0
C639 C 0.12746 0.8171 0.25089 0.0
C640 C 0.10489 0.88994 0.05087 0.0
C641 C 0.09132 0.90463 0.11771 0.0
C642 C 0.10648 0.86387 0.06267 0.0
C643 C 0.09406 0.85236 0.14266 0.0
C644 C 0.0827 0.86748 0.21552 0.0
C645 C 0.08143 0.8933 0.20194 0.0
C646 C 0.12006 0.84886 0.98584 0.0
C647 C 0.06967 0.85639 0.30385 0.0
H648 H 0.03548 0.79102 0.12506 0.0
H649 H 0.09778 0.78012 0.31888 0.0
H650 H 0.04395 0.84806 0.06301 0.0
H651 H 0.06512 0.83787 0.96924 0.0
H652 H 0.03696 0.82035 0.99358 0.0
H653 H 0.13797 0.80052 0.27773 0.0
H654 H 0.13859 0.82673 0.19323 0.0
H655 H 0.12513 0.83014 0.31337 0.0
H656 H 0.11324 0.89861 0.9867 0.0
H657 H 0.07077 0.90428 0.25387 0.0
H658 H 0.10775 0.84652 0.92089 0.0
H659 H 0.12558 0.83009 0.01311 0.0
H660 H 0.13707 0.85895 0.96078 0.0
H661 H 0.05279 0.84609 0.27937 0.0
H662 H 0.06378 0.87082 0.35738 0.0
H663 H 0.08225 0.84323 0.34269 0.0
C664 C 0.73367 0.94786 0.22278 0.0
C665 C 0.74932 0.96889 0.2211 0.0
C666 C 0.71203 0.94742 0.16458 0.0
C667 C 0.70688 0.96809 0.10277 0.0
C668 C 0.72623 0.98529 0.0813 0.0
C669 C 0.7476 0.98543 0.14113 0.0
C670 C 0.69264 0.92757 0.18388 0.0
C671 C 0.72216 1.00668 0.01075 0.0
C672 C 0.64126 0.98048 0.0047 0.0
C673 C 0.63096 0.99447 0.08205 0.0
C674 C 0.66584 0.97122 0.01016 0.0
C675 C 0.68055 0.97666 0.09379 0.0
C676 C 0.6701 0.99083 0.17174 0.0
C677 C 0.64544 0.99911 0.16532 0.0
C678 C 0.67597 0.95607 0.9258 0.0
C679 C 0.68451 0.99692 0.26407 0.0
H680 H 0.7357 0.93429 0.28162 0.0
H681 H 0.76028 1.00119 0.13633 0.0
H682 H 0.67977 0.93411 0.24238 0.0
H683 H 0.68139 0.9238 0.11706 0.0
H684 H 0.70149 0.90992 0.20932 0.0
H685 H 0.74023 0.01467 0.98537 0.0
H686 H 0.71119 1.0006 0.94601 0.0
H687 H 0.71148 0.02164 0.04835 0.0
H688 H 0.6303 0.97711 0.93911 0.0
H689 H 0.63741 1.0093 0.22624 0.0
H690 H 0.66064 0.94717 0.88337 0.0
H691 H 0.68902 0.94132 0.95153 0.0
H692 H 0.68641 0.96853 0.87511 0.0
H693 H 0.68479 0.98013 0.31195 0.0
H694 H 0.67581 0.01239 0.30599 0.0
H695 H 0.70399 1.00251 0.24761 0.0
C696 C 0.47991 0.73629 0.12221 0.0
C697 C 0.46567 0.75214 0.18154 0.0
C698 C 0.4694 0.71437 0.08456 0.0
C699 C 0.4438 0.70923 0.10264 0.0
C700 C 0.42836 0.72814 0.14218 0.0
C701 C 0.43963 0.74931 0.18388 0.0
C702 C 0.48653 0.69514 0.03941 0.0
C703 C 0.40058 0.72438 0.15322 0.0
C704 C 0.43025 0.6437 0.01655 0.0
C705 C 0.43532 0.63009 0.10291 0.0
C706 C 0.42971 0.66992 0.01704 0.0
C707 C 0.43545 0.68272 0.10491 0.0
C708 C 0.43782 0.66901 0.19404 0.0
C709 C 0.43695 0.64292 0.192 0.0
C710 C 0.4251 0.68352 0.92145 0.0
C711 C 0.44474 0.68129 0.29 0.0
H712 H 0.50005 0.73873 0.11987 0.0
H713 H 0.42853 0.76177 0.22891 0.0
H714 H 0.4882 0.67879 0.08943 0.0
H715 H 0.47869 0.68844 0.96899 0.0
H716 H 0.50556 0.70266 0.02533 0.0
H717 H 0.39066 0.74257 0.15849 0.0
H718 H 0.39293 0.71369 0.09027 0.0
H719 H 0.39674 0.71362 0.22137 0.0
H720 H 0.42857 0.63412 0.94689 0.0
H721 H 0.43981 0.63252 0.25959 0.0
H722 H 0.44197 0.68216 0.87427 0.0
H723 H 0.42047 0.70352 0.93239 0.0
H724 H 0.40953 0.67449 0.88088 0.0
H725 H 0.46494 0.686 0.28809 0.0
H726 H 0.44153 0.66874 0.35398 0.0
H727 H 0.43403 0.69871 0.30202 0.0
C728 C 0.78084 0.43702 0.25795 0.0
C729 C 0.77453 0.46161 0.2319 0.0
C730 C 0.80227 0.4257 0.21835 0.0
C731 C 0.81767 0.43974 0.15422 0.0
C732 C 0.80832 0.46221 0.11277 0.0
C733 C 0.78645 0.47275 0.15141 0.0
C734 C 0.81045 0.40061 0.25719 0.0
C735 C 0.82349 0.47725 0.04009 0.0
C736 C 0.88528 0.4505 0.21711 0.0
C737 C 0.89735 0.44179 0.13274 0.0
C738 C 0.85953 0.44748 0.22958 0.0
C739 C 0.84523 0.43575 0.15502 0.0
C740 C 0.85766 0.42429 0.07535 0.0
C741 C 0.88365 0.42743 0.06513 0.0
C742 C 0.84755 0.45928 0.31832 0.0
C743 C 0.84362 0.41025 0.99695 0.0
H744 H 0.77133 0.42817 0.31922 0.0
H745 H 0.7813 0.49162 0.13021 0.0
H746 H 0.82131 0.39022 0.20114 0.0
H747 H 0.82259 0.40328 0.32241 0.0
H748 H 0.79408 0.38921 0.28011 0.0
H749 H 0.81222 0.49229 0.00512 0.0
H750 H 0.83956 0.486 0.07849 0.0
H751 H 0.83107 0.46502 0.98173 0.0
H752 H 0.89544 0.46166 0.27 0.0
H753 H 0.89293 0.41977 0.0012 0.0
H754 H 0.83397 0.44631 0.35261 0.0
H755 H 0.83758 0.47651 0.29522 0.0
H756 H 0.8615 0.46435 0.37523 0.0
H757 H 0.82515 0.40349 0.02303 0.0
H758 H 0.85476 0.39402 0.97126 0.0
H759 H 0.84064 0.42272 0.9327 0.0
C760 C 0.01422 0.20212 0.10315 0.0
C761 C 0.0136 0.22382 0.04484 0.0
C762 C 0.01642 0.17823 0.06153 0.0
C763 C 0.019 0.17575 0.95845 0.0
C764 C 0.0204 0.19774 0.89964 0.0
C765 C 0.01734 0.22152 0.94334 0.0
C766 C 0.01461 0.15559 0.12782 0.0
C767 C 0.02415 0.19612 0.79008 0.0
C768 C 0.03914 0.11017 0.87881 0.0
C769 C 0.01643 0.09968 0.84801 0.0
C770 C 0.04059 0.13534 0.90892 0.0
C771 C 0.01857 0.15011 0.91308 0.0
C772 C 0.99558 0.13948 0.88169 0.0
C773 C 0.99492 0.11463 0.84756 0.0
C774 C 0.06567 0.14601 0.93734 0.0
C775 C 0.97143 0.15398 0.88832 0.0
H776 H 0.01158 0.20384 0.1818 0.0
H777 H 0.01674 0.23815 0.89771 0.0
H778 H 0.9993 0.14316 0.10267 0.0
H779 H 0.03221 0.14469 0.12447 0.0
H780 H 1.01107 0.16068 0.20563 0.0
H781 H 0.02896 0.21455 0.75735 0.0
H782 H 0.03923 0.1826 0.77253 0.0
H783 H 1.00674 0.18929 0.75495 0.0
H784 H 0.05586 0.09871 0.87837 0.0
H785 H 0.97732 0.10652 0.8242 0.0
H786 H 0.06655 0.14847 0.01808 0.0
H787 H 0.06836 0.16468 0.90317 0.0
H788 H 0.08136 0.13368 0.91491 0.0
H789 H 0.9552 0.14323 0.85996 0.0
H790 H 0.97293 0.17167 0.84616 0.0
H791 H 0.96773 0.15898 0.96604 0.0
C792 C 0.30824 0.02221 0.91428 0.0
C793 C 0.30632 0.01586 0.01409 0.0
C794 C 0.33195 0.02586 0.8696 0.0
C795 C 0.35424 0.02234 0.92527 0.0
C796 C 0.35218 0.01683 0.02677 0.0
C797 C 0.32843 0.01446 0.06989 0.0
C798 C 0.33314 0.03277 0.76223 0.0
C799 C 0.37507 0.01221 0.0895 0.0
C800 C 0.41579 1.00262 0.80343 0.0
C801 C 0.43067 0.02398 0.8155 0.0
C802 C 0.39073 1.00201 0.83627 0.0
C803 C 0.37982 0.02364 0.87864 0.0
C804 C 0.39445 0.04568 0.88577 0.0
C805 C 0.41978 0.04541 0.85639 0.0
C806 C 0.37637 0.9778 0.83028 0.0
C807 C 0.38351 0.06947 0.92643 0.0
H808 H 0.29135 0.02348 0.87053 0.0
H809 H 0.32712 1.01038 0.14779 0.0
H810 H 0.34691 0.04798 0.75006 0.0
H811 H 0.33941 0.01641 0.71904 0.0
H812 H 0.31465 0.03886 0.73361 0.0
H813 H 0.37023 1.00743 0.16671 0.0
H814 H 0.38617 0.99662 0.05832 0.0
H815 H 0.38723 0.02897 0.08982 0.0
H816 H 0.42413 0.98596 0.77247 0.0
H817 H 0.43109 0.06206 0.86504 0.0
H818 H 0.35856 0.98066 0.79005 0.0
H819 H 0.37153 0.9713 0.90547 0.0
H820 H 0.38718 0.96287 0.79297 0.0
H821 H 0.36503 0.07331 0.89236 0.0
H822 H 0.39593 0.0858 0.91366 0.0
H823 H 0.3805 0.06744 0.00665 0.0
C824 C 0.49713 0.32385 0.96253 0.0
C825 C 0.52099 0.31336 0.97505 0.0
C826 C 0.49406 0.34782 0.91984 0.0
C827 C 0.51533 0.36184 0.88988 0.0
C828 C 0.53925 0.35055 0.89626 0.0
C829 C 0.54171 0.3265 0.93743 0.0
C830 C 0.46814 0.35878 0.91255 0.0
C831 C 0.56257 0.36458 0.86651 0.0
C832 C 0.51017 0.42199 0.73586 0.0
C833 C 0.51105 0.44067 0.80815 0.0
C834 C 0.5109 0.39634 0.76109 0.0
C835 C 0.51303 0.38899 0.86107 0.0
C836 C 0.51409 0.40779 0.93419 0.0
C837 C 0.51283 0.43322 0.90706 0.0
C838 C 0.5095 0.37708 0.68062 0.0
C839 C 0.51711 0.40107 0.04144 0.0
H840 H 0.48101 0.3141 0.99201 0.0
H841 H 0.56024 0.31856 0.94621 0.0
H842 H 0.466 0.3738 0.96783 0.0
H843 H 0.46517 0.36731 0.83905 0.0
H844 H 0.4534 0.34452 0.92567 0.0
H845 H 0.5795 0.35255 0.86845 0.0
H846 H 0.56052 0.37242 0.79143 0.0
H847 H 0.56552 0.3805 0.91719 0.0
H848 H 0.50874 0.4274 0.65926 0.0
H849 H 0.51378 0.44734 0.96376 0.0
H850 H 0.49363 0.36418 0.6946 0.0
H851 H 0.52679 0.36564 0.68013 0.0
H852 H 0.5071 0.38568 0.60683 0.0
H853 H 0.51766 0.41781 0.08942 0.0
H854 H 0.53467 0.39037 0.05223 0.0
H855 H 0.50146 0.38892 0.06555 0.0
C856 C 0.20595 0.48653 0.9398 0.0
C857 C 0.21933 0.50665 0.98045 0.0
C858 C 0.18119 0.48929 0.9053 0.0
C859 C 0.1691 0.51283 0.91096 0.0
C860 C 0.183 0.53357 0.94636 0.0
C861 C 0.20783 0.53025 0.98068 0.0
C862 C 0.16744 0.46652 0.86884 0.0
C863 C 0.17122 0.5591 0.95285 0.0
C864 C 0.10759 0.52149 0.76711 0.0
C865 C 0.08926 0.51795 0.84024 0.0
C866 C 0.13345 0.5203 0.78897 0.0
C867 C 0.14154 0.51518 0.88636 0.0
C868 C 0.12311 0.51148 0.96019 0.0
C869 C 0.09741 0.51308 0.93657 0.0
C870 C 0.15216 0.52452 0.70759 0.0
C871 C 0.13049 0.5059 0.06489 0.0
H872 H 0.2145 0.46816 0.9396 0.0
H873 H 0.21767 0.54585 0.01333 0.0
H874 H 0.15328 0.46082 0.92418 0.0
H875 H 0.15733 0.47073 0.79958 0.0
H876 H 0.18023 0.45051 0.856 0.0
H877 H 0.18518 0.57383 0.96988 0.0
H878 H 0.16172 0.56393 0.88283 0.0
H879 H 0.1568 0.55904 0.01144 0.0
H880 H 0.10177 0.52529 0.69225 0.0
H881 H 0.08366 0.51031 0.99405 0.0
H882 H 0.16442 0.54055 0.72612 0.0
H883 H 0.14301 0.52831 0.63577 0.0
H884 H 0.16438 0.50791 0.69988 0.0
H885 H 0.14404 0.49021 0.06767 0.0
H886 H 0.11415 0.50106 0.11161 0.0
H887 H 0.13977 0.52255 0.09656 0.0
C888 C 0.03664 0.82839 0.55061 0.0
C889 C 0.01661 0.81536 0.50717 0.0
C890 C 0.03371 0.85266 0.58828 0.0
C891 C 1.00984 0.86413 0.58755 0.0
C892 C 0.98905 0.85024 0.55233 0.0
C893 C 0.99271 0.82621 0.51149 0.0
C894 C 0.05661 0.86663 0.62286 0.0
C895 C 0.96309 0.86123 0.55347 0.0
C896 C 1.00459 0.92318 0.7454 0.0
C897 C 1.00684 0.94237 0.6751 0.0
C898 C 1.00438 0.89775 0.71782 0.0
C899 C 1.00721 0.89111 0.6176 0.0
C900 C 1.00929 0.91045 0.54636 0.0
C901 C 1.0088 0.93569 0.57572 0.0
C902 C 1.00143 0.87797 0.79629 0.0
C903 C 0.01303 0.9045 0.43908 0.0
H904 H 0.05513 0.82009 0.55018 0.0
H905 H 0.97705 0.81655 0.47829 0.0
H906 H 0.05985 0.88305 0.57448 0.0
H907 H 0.05376 0.87373 0.6984 0.0
H908 H 0.07369 0.85481 0.62215 0.0
H909 H 0.94854 0.84699 0.53756 0.0
H910 H 0.95909 0.86976 0.62596 0.0
H911 H 0.96173 0.87625 0.49736 0.0
H912 H 1.00288 0.92802 0.82234 0.0
H913 H 1.01073 0.95025 0.52067 0.0
H914 H 0.01913 0.86738 0.80447 0.0
H915 H 0.9867 0.86444 0.7749 0.0
H916 H 0.9965 0.88609 0.86872 0.0
H917 H 0.03098 0.89444 0.42968 0.0
H918 H 0.01338 0.92154 0.39225 0.0
H919 H 0.99795 0.89201 0.41259 0.0
C920 C 0.70657 0.98463 0.56993 0.0
C921 C 0.71992 1.0046 0.52758 0.0
C922 C 0.68193 0.98762 0.6051 0.0
C923 C 0.66996 0.0112 0.59803 0.0
C924 C 0.68388 0.03181 0.561 0.0
C925 C 0.7086 0.02827 0.52625 0.0
C926 C 0.66811 0.96498 0.64305 0.0
C927 C 0.67218 0.05735 0.55266 0.0
C928 C 0.59844 0.01136 0.57018 0.0
C929 C 0.59011 0.01659 0.66579 0.0
C930 C 0.62416 1.00968 0.54753 0.0
C931 C 0.64241 0.01366 0.62164 0.0
C932 C 0.63416 0.01912 0.71833 0.0
C933 C 0.60826 0.02041 0.73926 0.0
C934 C 0.63172 1.00388 0.44339 0.0
C935 C 0.65272 0.0236 0.79989 0.0
H936 H 0.71498 0.9662 0.57055 0.0
H937 H 0.71845 0.04373 0.49211 0.0
H938 H 0.65737 0.96953 0.71034 0.0
H939 H 0.65451 0.95873 0.58664 0.0
H940 H 0.68098 0.94923 0.6597 0.0
H941 H 0.68623 0.07201 0.53541 0.0
H942 H 0.65794 0.05724 0.4934 0.0
H943 H 0.6625 0.06233 0.62196 0.0
H944 H 0.58482 1.00841 0.51243 0.0
H945 H 0.60228 0.02447 0.81357 0.0
H946 H 0.64585 0.9887 0.44187 0.0
H947 H 0.64031 0.02075 0.41012 0.0
H948 H 0.61554 0.99825 0.39726 0.0
H949 H 0.66493 1.00701 0.80918 0.0
H950 H 0.64345 0.02761 0.87113 0.0
H951 H 0.66501 0.03957 0.78045 0.0
C952 C 0.52516 0.71789 0.51256 0.0
C953 C 0.50124 0.72796 0.49702 0.0
C954 C 0.52829 0.69393 0.55538 0.0
C955 C 0.50702 0.67952 0.58236 0.0
C956 C 0.48297 0.69041 0.57305 0.0
C957 C 0.48044 0.71443 0.53176 0.0
C958 C 0.55431 0.68341 0.56581 0.0
C959 C 0.45966 0.67596 0.59966 0.0
C960 C 0.51065 0.60819 0.56413 0.0
C961 C 0.51177 0.60062 0.66306 0.0
C962 C 0.50929 0.63364 0.53735 0.0
C963 C 0.50953 0.65236 0.6109 0.0
C964 C 0.51099 0.64491 0.71093 0.0
C965 C 0.51188 0.61923 0.73575 0.0
C966 C 0.50701 0.64047 0.42992 0.0
C967 C 0.51146 0.66407 0.79191 0.0
H968 H 0.54133 0.72795 0.48521 0.0
H969 H 0.46186 0.72203 0.52032 0.0
H970 H 0.55682 0.67485 0.63953 0.0
H971 H 0.55716 0.66848 0.51062 0.0
H972 H 0.56891 0.69792 0.55477 0.0
H973 H 0.44257 0.68772 0.59592 0.0
H974 H 0.45737 0.66007 0.54828 0.0
H975 H 0.46126 0.66804 0.67478 0.0
H976 H 0.51029 0.59413 0.50707 0.0
H977 H 0.51279 0.61376 0.8124 0.0
H978 H 0.52255 0.65304 0.40811 0.0
H979 H 0.48928 0.65076 0.4171 0.0
H980 H 0.50727 0.6238 0.38152 0.0
H981 H 0.51327 0.6554 0.86584 0.0
H982 H 0.49406 0.67535 0.79013 0.0
H983 H 0.52732 0.67714 0.78043 0.0
C984 C 0.81271 0.53453 0.51848 0.0
C985 C 0.80283 0.51024 0.51279 0.0
C986 C 0.83666 0.53901 0.55965 0.0
C987 C 0.85154 0.51869 0.59351 0.0
C988 C 0.84104 0.4944 0.59289 0.0
C989 C 0.81678 0.49065 0.55542 0.0
C990 C 0.84649 0.56539 0.56256 0.0
C991 C 0.85609 0.47195 0.62516 0.0
C992 C 0.92312 0.52281 0.57837 0.0
C993 C 0.93026 0.52418 0.67759 0.0
C994 C 0.89774 0.52147 0.55026 0.0
C995 C 0.87862 0.52223 0.62261 0.0
C996 C 0.88567 0.5245 0.72278 0.0
C997 C 0.91128 0.52504 0.74907 0.0
C998 C 0.89145 0.51866 0.44275 0.0
C999 C 0.86615 0.52617 0.80253 0.0
H1000 H 0.80235 0.54989 0.48604 0.0
H1001 H 0.80927 0.47185 0.55392 0.0
H1002 H 0.85594 0.5691 0.63363 0.0
H1003 H 0.8605 0.56805 0.50341 0.0
H1004 H 0.83133 0.57933 0.55186 0.0
H1005 H 0.84509 0.45436 0.62227 0.0
H1006 H 0.87268 0.4699 0.5768 0.0
H1007 H 0.86306 0.4745 0.70114 0.0
H1008 H 0.93748 0.52203 0.52226 0.0
H1009 H 0.91643 0.5263 0.8259 0.0
H1010 H 0.88132 0.53548 0.41647 0.0
H1011 H 0.8789 0.50243 0.43199 0.0
H1012 H 0.90837 0.51609 0.39651 0.0
H1013 H 0.85186 0.54038 0.7829 0.0
H1014 H 0.87442 0.53107 0.87479 0.0
H1015 H 0.85637 0.50799 0.81018 0.0
loop_
_geom_bond_atom_site_label_1
_geom_bond_atom_site_label_2
_geom_bond_distance
_geom_bond_site_symmetry_2
_ccdc_geom_bond_type
H0 C3 0.929 . S
H1 C6 0.929 . S
H2 C8 0.930 . S
C3 H0 0.929 . S
C3 C4 1.398 . S
C3 C5 1.396 . S
C4 C3 1.398 . S
C4 C8 1.407 . S
C5 C3 1.396 . S
C5 C6 1.394 . S
C6 H1 0.929 . S
C6 C5 1.394 . S
C6 C7 1.382 . S
C7 C6 1.382 . S
C7 C8 1.392 . S
C7 N9 1.420 . S
C8 H2 0.930 . S
C8 C4 1.407 . S
C8 C7 1.392 . S
N9 C7 1.420 . S
N9 C10 1.244 . S
C10 N9 1.244 . S
H11 C14 0.929 . S
H12 C17 0.929 . S
H13 C19 0.930 . S
C14 H11 0.929 . S
C14 C15 1.395 1_655 S
C14 C16 1.395 1_655 S
C15 C14 1.395 1_455 S
C15 C19 1.413 . S
C16 C14 1.395 1_455 S
C16 C17 1.397 . S
C17 H12 0.929 . S
C17 C16 1.397 . S
C17 C18 1.382 . S
C18 C17 1.382 . S
C18 C19 1.392 . S
C18 N20 1.420 . S
C19 H13 0.930 . S
C19 C15 1.413 . S
C19 C18 1.392 . S
N20 C18 1.420 . S
N20 C21 1.232 1_455 S
C21 N20 1.232 1_655 S
H22 C25 0.929 . S
H23 C28 0.929 . S
H24 C30 0.930 . S
C25 H22 0.929 . S
C25 C26 1.395 1_565 S
C25 C27 1.395 1_565 S
C26 C25 1.395 1_545 S
C26 C30 1.413 . S
C27 C25 1.395 1_545 S
C27 C28 1.397 . S
C28 H23 0.929 . S
C28 C27 1.397 . S
C28 C29 1.382 . S
C29 C28 1.382 . S
C29 C30 1.392 . S
C29 N31 1.420 . S
C30 H24 0.930 . S
C30 C26 1.413 . S
C30 C29 1.392 . S
N31 C29 1.420 . S
N31 C32 1.232 1_545 S
C32 N31 1.232 1_565 S
H33 C36 0.929 . S
H34 C39 0.929 . S
H35 C41 0.930 . S
C36 H33 0.929 . S
C36 C37 1.398 . S
C36 C38 1.396 . S
C37 C36 1.398 . S
C37 C41 1.407 . S
C38 C36 1.396 . S
C38 C39 1.394 . S
C39 H34 0.929 . S
C39 C38 1.394 . S
C39 C40 1.382 . S
C40 C39 1.382 . S
C40 C41 1.392 . S
C40 N42 1.420 . S
C41 H35 0.930 . S
C41 C37 1.407 . S
C41 C40 1.392 . S
N42 C40 1.420 . S
N42 C43 1.244 . S
C43 N42 1.244 . S
H44 C47 0.929 . S
H45 C50 0.929 . S
H46 C52 0.930 . S
C47 H44 0.929 . S
C47 C48 1.398 1_554 S
C47 C49 1.396 . S
C48 C47 1.398 1_556 S
C48 C52 1.407 . S
C49 C47 1.396 . S
C49 C50 1.394 . S
C50 H45 0.929 . S
C50 C49 1.394 . S
C50 C51 1.382 . S
C51 C50 1.382 . S
C51 C52 1.392 1_554 S
C51 N53 1.420 . S
C52 H46 0.930 . S
C52 C48 1.407 . S
C52 C51 1.392 1_556 S
N53 C51 1.420 . S
N53 C54 1.244 . S
C54 N53 1.244 . S
H55 C58 0.929 . S
H56 C61 0.929 . S
H57 C63 0.930 . S
C58 H55 0.929 . S
C58 C59 1.395 1_654 S
C58 C60 1.394 1_655 S
C59 C58 1.395 1_456 S
C59 C63 1.416 . S
C60 C58 1.394 1_455 S
C60 C61 1.398 . S
C61 H56 0.929 . S
C61 C60 1.398 . S
C61 C62 1.382 . S
C62 C61 1.382 . S
C62 C63 1.392 1_554 S
C62 N64 1.420 . S
C63 H57 0.930 . S
C63 C59 1.416 . S
C63 C62 1.392 1_556 S
N64 C62 1.420 . S
N64 C65 1.237 1_455 S
C65 N64 1.237 1_655 S
H66 C69 0.929 . S
H67 C72 0.929 . S
H68 C74 0.930 . S
C69 H66 0.929 . S
C69 C70 1.395 1_564 S
C69 C71 1.394 1_565 S
C70 C69 1.395 1_546 S
C70 C74 1.416 . S
C71 C69 1.394 1_545 S
C71 C72 1.398 . S
C72 H67 0.929 . S
C72 C71 1.398 . S
C72 C73 1.382 . S
C73 C72 1.382 . S
C73 C74 1.392 1_554 S
C73 N75 1.420 . S
C74 H68 0.930 . S
C74 C70 1.416 . S
C74 C73 1.392 1_556 S
N75 C73 1.420 . S
N75 C76 1.237 1_545 S
C76 N75 1.237 1_565 S
H77 C80 0.929 . S
H78 C83 0.929 . S
H79 C85 0.930 . S
C80 H77 0.929 . S
C80 C81 1.398 1_554 S
C80 C82 1.396 . S
C81 C80 1.398 1_556 S
C81 C85 1.407 . S
C82 C80 1.396 . S
C82 C83 1.394 . S
C83 H78 0.929 . S
C83 C82 1.394 . S
C83 C84 1.382 . S
C84 C83 1.382 . S
C84 C85 1.392 1_554 S
C84 N86 1.420 . S
C85 H79 0.930 . S
C85 C81 1.407 . S
C85 C84 1.392 1_556 S
N86 C84 1.420 . S
N86 C87 1.244 . S
C87 N86 1.244 . S
Sm88 C90 2.846 . S
Sm88 O108 2.543 . S
Sm88 O109 2.450 . S
Sm88 O110 2.681 1_565 S
Sm88 O111 2.464 . S
Sm88 O112 2.396 . S
Sm88 O116 2.386 1_455 S
Sm88 O119 2.408 1_565 S
Sm89 C99 2.846 . S
Sm89 O110 2.386 1_655 S
Sm89 O113 2.408 1_545 S
Sm89 O114 2.543 . S
Sm89 O115 2.450 . S
Sm89 O116 2.681 1_545 S
Sm89 O117 2.464 . S
Sm89 O118 2.396 . S
C90 Sm88 2.846 . S
C90 C91 1.506 1_556 S
C90 O108 1.261 . S
C90 O109 1.242 . S
C91 C90 1.506 1_554 S
C91 C92 1.358 . S
C91 C96 1.382 . S
C92 C91 1.358 . S
C92 C93 1.385 . S
C92 H120 0.930 1_455 S
C93 C92 1.385 . S
C93 C94 1.395 . S
C93 H121 0.929 1_455 S
C94 C93 1.395 . S
C94 C95 1.335 . S
C95 C94 1.335 . S
C95 C96 1.398 . S
C95 H122 0.930 . S
C96 C91 1.382 . S
C96 C95 1.398 . S
C96 H123 0.929 1_554 S
C97 O110 1.271 1_565 S
C97 O111 1.251 . S
C98 O112 1.252 1_655 S
C98 O113 1.272 . S
C99 Sm89 2.846 . S
C99 C100 1.506 . S
C99 O114 1.261 . S
C99 O115 1.242 . S
C100 C99 1.506 . S
C100 C101 1.358 . S
C100 C105 1.382 . S
C101 C100 1.358 . S
C101 C102 1.385 . S
C101 H124 0.930 1_655 S
C102 C101 1.385 . S
C102 C103 1.395 . S
C102 H125 0.929 1_655 S
C103 C102 1.395 . S
C103 C104 1.335 . S
C104 C103 1.335 . S
C104 C105 1.398 . S
C104 H126 0.930 . S
C105 C100 1.382 . S
C105 C104 1.398 . S
C105 H127 0.929 . S
C106 O116 1.271 1_545 S
C106 O117 1.251 . S
C107 O118 1.252 1_455 S
C107 O119 1.272 . S
O108 Sm88 2.543 . S
O108 C90 1.261 . S
O109 Sm88 2.450 . S
O109 C90 1.242 . S
O110 Sm88 2.681 1_545 S
O110 Sm89 2.386 1_455 S
O110 C97 1.271 1_545 S
O111 Sm88 2.464 . S
O111 C97 1.251 . S
O112 Sm88 2.396 . S
O112 C98 1.252 1_455 S
O113 Sm89 2.408 1_565 S
O113 C98 1.272 . S
O114 Sm89 2.543 . S
O114 C99 1.261 . S
O115 Sm89 2.450 . S
O115 C99 1.242 . S
O116 Sm88 2.386 1_655 S
O116 Sm89 2.681 1_565 S
O116 C106 1.271 1_565 S
O117 Sm89 2.464 . S
O117 C106 1.251 . S
O118 Sm89 2.396 . S
O118 C107 1.252 1_655 S
O119 Sm88 2.408 1_545 S
O119 C107 1.272 . S
H120 C92 0.930 1_655 S
H121 C93 0.929 1_655 S
H122 C95 0.930 . S
H123 C96 0.929 1_556 S
H124 C101 0.930 1_455 S
H125 C102 0.929 1_455 S
H126 C104 0.930 . S
H127 C105 0.929 . S
Sm128 C130 2.846 . S
Sm128 O148 2.543 . S
Sm128 O149 2.450 . S
Sm128 O150 2.681 . S
Sm128 O151 2.464 . S
Sm128 O152 2.396 . S
Sm128 O156 2.386 1_545 S
Sm128 O159 2.408 . S
Sm129 C139 2.846 . S
Sm129 O150 2.386 1_565 S
Sm129 O153 2.408 . S
Sm129 O154 2.543 . S
Sm129 O155 2.450 . S
Sm129 O156 2.681 . S
Sm129 O157 2.464 . S
Sm129 O158 2.396 . S
C130 Sm128 2.846 . S
C130 C131 1.506 1_556 S
C130 O148 1.261 . S
C130 O149 1.242 . S
C131 C130 1.506 1_554 S
C131 C132 1.358 . S
C131 C136 1.382 . S
C132 C131 1.358 . S
C132 C133 1.385 . S
C132 H160 0.930 1_545 S
C133 C132 1.385 . S
C133 C134 1.395 . S
C133 H161 0.929 1_545 S
C134 C133 1.395 . S
C134 C135 1.335 . S
C135 C134 1.335 . S
C135 C136 1.398 . S
C135 H162 0.930 . S
C136 C131 1.382 . S
C136 C135 1.398 . S
C136 H163 0.929 1_554 S
C137 O150 1.271 . S
C137 O151 1.251 . S
C138 O152 1.252 1_565 S
C138 O153 1.272 . S
C139 Sm129 2.846 . S
C139 C140 1.506 . S
C139 O154 1.261 . S
C139 O155 1.242 . S
C140 C139 1.506 . S
C140 C141 1.358 . S
C140 C145 1.382 . S
C141 C140 1.358 . S
C141 C142 1.385 . S
C141 H164 0.930 1_565 S
C142 C141 1.385 . S
C142 C143 1.395 . S
C142 H165 0.929 1_565 S
C143 C142 1.395 . S
C143 C144 1.335 . S
C144 C143 1.335 . S
C144 C145 1.398 . S
C144 H166 0.930 . S
C145 C140 1.382 . S
C145 C144 1.398 . S
C145 H167 0.929 . S
C146 O156 1.271 . S
C146 O157 1.251 . S
C147 O158 1.252 1_545 S
C147 O159 1.272 . S
O148 Sm128 2.543 . S
O148 C130 1.261 . S
O149 Sm128 2.450 . S
O149 C130 1.242 . S
O150 Sm128 2.681 . S
O150 Sm129 2.386 1_545 S
O150 C137 1.271 . S
O151 Sm128 2.464 . S
O151 C137 1.251 . S
O152 Sm128 2.396 . S
O152 C138 1.252 1_545 S
O153 Sm129 2.408 . S
O153 C138 1.272 . S
O154 Sm129 2.543 . S
O154 C139 1.261 . S
O155 Sm129 2.450 . S
O155 C139 1.242 . S
O156 Sm128 2.386 1_565 S
O156 Sm129 2.681 . S
O156 C146 1.271 . S
O157 Sm129 2.464 . S
O157 C146 1.251 . S
O158 Sm129 2.396 . S
O158 C147 1.252 1_565 S
O159 Sm128 2.408 . S
O159 C147 1.272 . S
H160 C132 0.930 1_565 S
H161 C133 0.929 1_565 S
H162 C135 0.930 . S
H163 C136 0.929 1_556 S
H164 C141 0.930 1_545 S
H165 C142 0.929 1_545 S
H166 C144 0.930 . S
H167 C145 0.929 . S
Sm168 C170 2.846 . S
Sm168 O188 2.543 . S
Sm168 O189 2.450 . S
Sm168 O190 2.681 . S
Sm168 O191 2.464 . S
Sm168 O192 2.396 . S
Sm168 O196 2.386 . S
Sm168 O199 2.408 . S
Sm169 C179 2.846 . S
Sm169 O190 2.386 . S
Sm169 O193 2.408 . S
Sm169 O194 2.543 . S
Sm169 O195 2.450 . S
Sm169 O196 2.681 . S
Sm169 O197 2.464 . S
Sm169 O198 2.396 . S
C170 Sm168 2.846 . S
C170 C171 1.506 1_556 S
C170 O188 1.261 . S
C170 O189 1.242 . S
C171 C170 1.506 1_554 S
C171 C172 1.358 . S
C171 C176 1.382 . S
C172 C171 1.358 . S
C172 C173 1.385 . S
C172 H200 0.930 . S
C173 C172 1.385 . S
C173 C174 1.395 . S
C173 H201 0.929 . S
C174 C173 1.395 . S
C174 C175 1.335 . S
C175 C174 1.335 . S
C175 C176 1.398 . S
C175 H202 0.930 . S
C176 C171 1.382 . S
C176 C175 1.398 . S
C176 H203 0.929 1_554 S
C177 O190 1.271 . S
C177 O191 1.251 . S
C178 O192 1.252 . S
C178 O193 1.272 . S
C179 Sm169 2.846 . S
C179 C180 1.506 . S
C179 O194 1.261 . S
C179 O195 1.242 . S
C180 C179 1.506 . S
C180 C181 1.358 . S
C180 C185 1.382 . S
C181 C180 1.358 . S
C181 C182 1.385 . S
C181 H204 0.930 . S
C182 C181 1.385 . S
C182 C183 1.395 . S
C182 H205 0.929 . S
C183 C182 1.395 . S
C183 C184 1.335 . S
C184 C183 1.335 . S
C184 C185 1.398 . S
C184 H206 0.930 . S
C185 C180 1.382 . S
C185 C184 1.398 . S
C185 H207 0.929 . S
C186 O196 1.271 . S
C186 O197 1.251 . S
C187 O198 1.252 . S
C187 O199 1.272 . S
O188 Sm168 2.543 . S
O188 C170 1.261 . S
O189 Sm168 2.450 . S
O189 C170 1.242 . S
O190 Sm168 2.681 . S
O190 Sm169 2.386 . S
O190 C177 1.271 . S
O191 Sm168 2.464 . S
O191 C177 1.251 . S
O192 Sm168 2.396 . S
O192 C178 1.252 . S
O193 Sm169 2.408 . S
O193 C178 1.272 . S
O194 Sm169 2.543 . S
O194 C179 1.261 . S
O195 Sm169 2.450 . S
O195 C179 1.242 . S
O196 Sm168 2.386 . S
O196 Sm169 2.681 . S
O196 C186 1.271 . S
O197 Sm169 2.464 . S
O197 C186 1.251 . S
O198 Sm169 2.396 . S
O198 C187 1.252 . S
O199 Sm168 2.408 . S
O199 C187 1.272 . S
H200 C172 0.930 . S
H201 C173 0.929 . S
H202 C175 0.930 . S
H203 C176 0.929 1_556 S
H204 C181 0.930 . S
H205 C182 0.929 . S
H206 C184 0.930 . S
H207 C185 0.929 . S
Sm208 C210 2.846 . S
Sm208 O228 2.543 . S
Sm208 O229 2.450 . S
Sm208 O230 2.681 1_655 S
Sm208 O231 2.464 . S
Sm208 O232 2.396 . S
Sm208 O236 2.386 . S
Sm208 O239 2.408 1_655 S
Sm209 C219 2.846 . S
Sm209 O230 2.386 . S
Sm209 O233 2.408 1_455 S
Sm209 O234 2.543 . S
Sm209 O235 2.450 . S
Sm209 O236 2.681 1_455 S
Sm209 O237 2.464 . S
Sm209 O238 2.396 . S
C210 Sm208 2.846 . S
C210 C211 1.506 1_556 S
C210 O228 1.261 . S
C210 O229 1.242 . S
C211 C210 1.506 1_554 S
C211 C212 1.358 . S
C211 C216 1.382 . S
C212 C211 1.358 . S
C212 C213 1.385 . S
C212 H240 0.930 . S
C213 C212 1.385 . S
C213 C214 1.395 . S
C213 H241 0.929 . S
C214 C213 1.395 . S
C214 C215 1.335 . S
C215 C214 1.335 . S
C215 C216 1.398 . S
C215 H242 0.930 . S
C216 C211 1.382 . S
C216 C215 1.398 . S
C216 H243 0.929 1_554 S
C217 O230 1.260 1_655 S
C217 O231 1.270 . S
C218 O232 1.252 . S
C218 O233 1.272 . S
C219 Sm209 2.846 . S
C219 C220 1.506 . S
C219 O234 1.261 . S
C219 O235 1.242 . S
C220 C219 1.506 . S
C220 C221 1.358 . S
C220 C225 1.382 . S
C221 C220 1.358 . S
C221 C222 1.385 . S
C221 H244 0.930 . S
C222 C221 1.385 . S
C222 C223 1.395 . S
C222 H245 0.929 . S
C223 C222 1.395 . S
C223 C224 1.335 . S
C224 C223 1.335 . S
C224 C225 1.398 . S
C224 H246 0.930 . S
C225 C220 1.382 . S
C225 C224 1.398 . S
C225 H247 0.929 . S
C226 O236 1.271 1_455 S
C226 O237 1.251 . S
C227 O238 1.252 . S
C227 O239 1.272 . S
O228 Sm208 2.543 . S
O228 C210 1.261 . S
O229 Sm208 2.450 . S
O229 C210 1.242 . S
O230 Sm208 2.681 1_455 S
O230 Sm209 2.386 . S
O230 C217 1.260 1_455 S
O231 Sm208 2.464 . S
O231 C217 1.270 . S
O232 Sm208 2.396 . S
O232 C218 1.252 . S
O233 Sm209 2.408 1_655 S
O233 C218 1.272 . S
O234 Sm209 2.543 . S
O234 C219 1.261 . S
O235 Sm209 2.450 . S
O235 C219 1.242 . S
O236 Sm208 2.386 . S
O236 Sm209 2.681 1_655 S
O236 C226 1.271 1_655 S
O237 Sm209 2.464 . S
O237 C226 1.251 . S
O238 Sm209 2.396 . S
O238 C227 1.252 . S
O239 Sm208 2.408 1_455 S
O239 C227 1.272 . S
H240 C212 0.930 . S
H241 C213 0.929 . S
H242 C215 0.930 . S
H243 C216 0.929 1_556 S
H244 C221 0.930 . S
H245 C222 0.929 . S
H246 C224 0.930 . S
H247 C225 0.929 . S
C248 C249 1.391 1_545 S
C248 C250 1.394 . S
C248 H264 0.931 . S
C249 C248 1.391 1_565 S
C249 C253 1.376 . S
C250 C248 1.394 . S
C250 C251 1.369 1_545 S
C250 C254 1.531 . S
C251 C250 1.369 1_565 S
C251 C252 1.410 . S
C251 C259 1.503 . S
C252 C251 1.410 . S
C252 C253 1.392 . S
C252 C255 1.511 . S
C253 C249 1.376 . S
C253 C252 1.392 . S
C253 H265 0.929 . S
C254 C250 1.531 . S
C254 H266 0.960 . S
C254 H267 0.962 . S
C254 H268 0.960 . S
C255 C252 1.511 . S
C255 H269 0.961 . S
C255 H270 0.961 . S
C255 H271 0.961 . S
C256 C257 1.377 . S
C256 C258 1.363 . S
C256 H272 0.931 . S
C257 C256 1.377 . S
C257 C261 1.401 1_545 S
C258 C256 1.363 . S
C258 C259 1.370 1_545 S
C258 C262 1.524 . S
C259 C251 1.503 . S
C259 C258 1.370 1_565 S
C259 C260 1.403 . S
C260 C259 1.403 . S
C260 C261 1.404 . S
C260 C263 1.539 . S
C261 C257 1.401 1_565 S
C261 C260 1.404 . S
C261 H273 0.930 . S
C262 C258 1.524 . S
C262 H274 0.956 . S
C262 H275 0.961 . S
C262 H276 0.961 . S
C263 C260 1.539 . S
C263 H277 0.958 . S
C263 H278 0.961 . S
C263 H279 0.960 . S
H264 C248 0.931 . S
H265 C253 0.929 . S
H266 C254 0.960 . S
H267 C254 0.962 . S
H268 C254 0.960 . S
H269 C255 0.961 . S
H270 C255 0.961 . S
H271 C255 0.961 . S
H272 C256 0.931 . S
H273 C261 0.930 . S
H274 C262 0.956 . S
H275 C262 0.961 . S
H276 C262 0.961 . S
H277 C263 0.958 . S
H278 C263 0.961 . S
H279 C263 0.960 . S
C280 C281 1.391 . S
C280 C282 1.394 . S
C280 H296 0.931 . S
C281 C280 1.391 . S
C281 C285 1.376 . S
C282 C280 1.394 . S
C282 C283 1.369 . S
C282 C286 1.531 . S
C283 C282 1.369 . S
C283 C284 1.410 . S
C283 C291 1.503 . S
C284 C283 1.410 . S
C284 C285 1.392 . S
C284 C287 1.511 . S
C285 C281 1.376 . S
C285 C284 1.392 . S
C285 H297 0.929 . S
C286 C282 1.531 . S
C286 H298 0.960 . S
C286 H299 0.962 . S
C286 H300 0.960 . S
C287 C284 1.511 . S
C287 H301 0.961 . S
C287 H302 0.961 . S
C287 H303 0.961 . S
C288 C289 1.370 . S
C288 C290 1.363 . S
C288 H304 0.931 . S
C289 C288 1.370 . S
C289 C293 1.408 . S
C290 C288 1.363 . S
C290 C291 1.370 . S
C290 C294 1.524 . S
C291 C283 1.503 . S
C291 C290 1.370 . S
C291 C292 1.403 . S
C292 C291 1.403 . S
C292 C293 1.404 . S
C292 C295 1.539 . S
C293 C289 1.408 . S
C293 C292 1.404 . S
C293 H305 0.930 . S
C294 C290 1.524 . S
C294 H306 0.956 . S
C294 H307 0.961 . S
C294 H308 0.961 . S
C295 C292 1.539 . S
C295 H309 0.958 . S
C295 H310 0.961 . S
C295 H311 0.960 . S
H296 C280 0.931 . S
H297 C285 0.929 . S
H298 C286 0.960 . S
H299 C286 0.962 . S
H300 C286 0.960 . S
H301 C287 0.961 . S
H302 C287 0.961 . S
H303 C287 0.961 . S
H304 C288 0.931 . S
H305 C293 0.930 . S
H306 C294 0.956 . S
H307 C294 0.961 . S
H308 C294 0.961 . S
H309 C295 0.958 . S
H310 C295 0.961 . S
H311 C295 0.960 . S
C312 C313 1.391 . S
C312 C314 1.394 . S
C312 H328 0.931 . S
C313 C312 1.391 . S
C313 C317 1.376 . S
C314 C312 1.394 . S
C314 C315 1.369 . S
C314 C318 1.531 . S
C315 C314 1.369 . S
C315 C316 1.410 . S
C315 C323 1.503 . S
C316 C315 1.410 . S
C316 C317 1.392 . S
C316 C319 1.511 . S
C317 C313 1.376 . S
C317 C316 1.392 . S
C317 H329 0.929 . S
C318 C314 1.531 . S
C318 H330 0.960 . S
C318 H331 0.962 . S
C318 H332 0.960 . S
C319 C316 1.511 . S
C319 H333 0.961 . S
C319 H334 0.961 . S
C319 H335 0.961 . S
C320 C321 1.370 . S
C320 C322 1.363 . S
C320 H336 0.931 . S
C321 C320 1.370 . S
C321 C325 1.408 . S
C322 C320 1.363 . S
C322 C323 1.370 . S
C322 C326 1.524 . S
C323 C315 1.503 . S
C323 C322 1.370 . S
C323 C324 1.403 . S
C324 C323 1.403 . S
C324 C325 1.404 . S
C324 C327 1.539 . S
C325 C321 1.408 . S
C325 C324 1.404 . S
C325 H337 0.930 . S
C326 C322 1.524 . S
C326 H338 0.956 . S
C326 H339 0.961 . S
C326 H340 0.961 . S
C327 C324 1.539 . S
C327 H341 0.958 . S
C327 H342 0.961 . S
C327 H343 0.960 . S
H328 C312 0.931 . S
H329 C317 0.929 . S
H330 C318 0.960 . S
H331 C318 0.962 . S
H332 C318 0.960 . S
H333 C319 0.961 . S
H334 C319 0.961 . S
H335 C319 0.961 . S
H336 C320 0.931 . S
H337 C325 0.930 . S
H338 C326 0.956 . S
H339 C326 0.961 . S
H340 C326 0.961 . S
H341 C327 0.958 . S
H342 C327 0.961 . S
H343 C327 0.960 . S
C344 C345 1.391 1_655 S
C344 C346 1.394 . S
C344 H360 0.931 . S
C345 C344 1.391 1_455 S
C345 C349 1.376 . S
C346 C344 1.394 . S
C346 C347 1.369 1_655 S
C346 C350 1.531 . S
C347 C346 1.369 1_455 S
C347 C348 1.410 . S
C347 C355 1.503 . S
C348 C347 1.410 . S
C348 C349 1.392 . S
C348 C351 1.511 . S
C349 C345 1.376 . S
C349 C348 1.392 . S
C349 H361 0.929 . S
C350 C346 1.531 . S
C350 H362 0.960 . S
C350 H363 0.962 . S
C350 H364 0.960 . S
C351 C348 1.511 . S
C351 H365 0.961 . S
C351 H366 0.961 . S
C351 H367 0.961 . S
C352 C353 1.370 1_655 S
C352 C354 1.363 . S
C352 H368 0.931 . S
C353 C352 1.370 1_455 S
C353 C357 1.408 . S
C354 C352 1.363 . S
C354 C355 1.370 1_655 S
C354 C358 1.524 . S
C355 C347 1.503 . S
C355 C354 1.370 1_455 S
C355 C356 1.403 . S
C356 C355 1.403 . S
C356 C357 1.404 . S
C356 C359 1.539 . S
C357 C353 1.408 . S
C357 C356 1.404 . S
C357 H369 0.930 . S
C358 C354 1.524 . S
C358 H370 0.956 . S
C358 H371 0.961 . S
C358 H372 0.961 . S
C359 C356 1.539 . S
C359 H373 0.958 . S
C359 H374 0.961 . S
C359 H375 0.960 . S
H360 C344 0.931 . S
H361 C349 0.929 . S
H362 C350 0.960 . S
H363 C350 0.962 . S
H364 C350 0.960 . S
H365 C351 0.961 . S
H366 C351 0.961 . S
H367 C351 0.961 . S
H368 C352 0.931 . S
H369 C357 0.930 . S
H370 C358 0.956 . S
H371 C358 0.961 . S
H372 C358 0.961 . S
H373 C359 0.958 . S
H374 C359 0.961 . S
H375 C359 0.960 . S
C376 C377 1.403 . S
C376 C378 1.394 . S
C376 H392 0.931 . S
C377 C376 1.403 . S
C377 C381 1.364 1_565 S
C378 C376 1.394 . S
C378 C379 1.369 . S
C378 C382 1.531 . S
C379 C378 1.369 . S
C379 C380 1.410 1_565 S
C379 C387 1.503 . S
C380 C379 1.410 1_545 S
C380 C381 1.392 . S
C380 C383 1.511 . S
C381 C377 1.364 1_545 S
C381 C380 1.392 . S
C381 H393 0.929 . S
C382 C378 1.531 . S
C382 H394 0.960 . S
C382 H395 0.962 . S
C382 H396 0.960 . S
C383 C380 1.511 . S
C383 H397 0.961 . S
C383 H398 0.961 . S
C383 H399 0.961 . S
C384 C385 1.366 1_544 S
C384 C386 1.363 . S
C384 H400 0.931 . S
C385 C384 1.366 1_566 S
C385 C389 1.415 . S
C386 C384 1.363 . S
C386 C387 1.370 1_545 S
C386 C390 1.524 . S
C387 C379 1.503 . S
C387 C386 1.370 1_565 S
C387 C388 1.403 1_554 S
C388 C387 1.403 1_556 S
C388 C389 1.404 . S
C388 C391 1.539 . S
C389 C385 1.415 . S
C389 C388 1.404 . S
C389 H401 0.930 . S
C390 C386 1.524 . S
C390 H402 0.956 1_545 S
C390 H403 0.961 . S
C390 H404 0.961 . S
C391 C388 1.539 . S
C391 H405 0.958 . S
C391 H406 0.960 . S
C391 H407 0.941 1_565 S
H392 C376 0.931 . S
H393 C381 0.929 . S
H394 C382 0.960 . S
H395 C382 0.962 . S
H396 C382 0.960 . S
H397 C383 0.961 . S
H398 C383 0.961 . S
H399 C383 0.961 . S
H400 C384 0.931 . S
H401 C389 0.930 . S
H402 C390 0.956 1_565 S
H403 C390 0.961 . S
H404 C390 0.961 . S
H405 C391 0.958 . S
H406 C391 0.960 . S
H407 C391 0.941 1_545 S
C408 C409 1.391 . S
C408 C410 1.394 . S
C408 H424 0.931 . S
C409 C408 1.391 . S
C409 C413 1.376 . S
C410 C408 1.394 . S
C410 C411 1.369 . S
C410 C414 1.531 . S
C411 C410 1.369 . S
C411 C412 1.410 . S
C411 C419 1.503 . S
C412 C411 1.410 . S
C412 C413 1.392 . S
C412 C415 1.511 . S
C413 C409 1.376 . S
C413 C412 1.392 . S
C413 H425 0.929 . S
C414 C410 1.531 . S
C414 H426 0.960 . S
C414 H427 0.962 . S
C414 H428 0.960 . S
C415 C412 1.511 . S
C415 H429 0.961 . S
C415 H430 0.961 . S
C415 H431 0.961 . S
C416 C417 1.370 . S
C416 C418 1.363 1_556 S
C416 H432 0.931 . S
C417 C416 1.370 . S
C417 C421 1.408 1_556 S
C418 C416 1.363 1_554 S
C418 C419 1.370 . S
C418 C422 1.524 . S
C419 C411 1.503 . S
C419 C418 1.370 . S
C419 C420 1.403 . S
C420 C419 1.403 . S
C420 C421 1.404 . S
C420 C423 1.539 . S
C421 C417 1.408 1_554 S
C421 C420 1.404 . S
C421 H433 0.930 . S
C422 C418 1.524 . S
C422 H434 0.958 . S
C422 H435 0.962 . S
C422 H436 0.957 1_554 S
C423 C420 1.539 . S
C423 H437 0.958 . S
C423 H438 0.961 . S
C423 H439 0.960 . S
H424 C408 0.931 . S
H425 C413 0.929 . S
H426 C414 0.960 . S
H427 C414 0.962 . S
H428 C414 0.960 . S
H429 C415 0.961 . S
H430 C415 0.961 . S
H431 C415 0.961 . S
H432 C416 0.931 . S
H433 C421 0.930 . S
H434 C422 0.958 . S
H435 C422 0.962 . S
H436 C422 0.957 1_556 S
H437 C423 0.958 . S
H438 C423 0.961 . S
H439 C423 0.960 . S
C440 C441 1.391 . S
C440 C442 1.394 . S
C440 H456 0.931 . S
C441 C440 1.391 . S
C441 C445 1.376 . S
C442 C440 1.394 . S
C442 C443 1.369 . S
C442 C446 1.531 . S
C443 C442 1.369 . S
C443 C444 1.410 . S
C443 C451 1.503 . S
C444 C443 1.410 . S
C444 C445 1.392 . S
C444 C447 1.511 . S
C445 C441 1.376 . S
C445 C444 1.392 . S
C445 H457 0.929 . S
C446 C442 1.531 . S
C446 H458 0.960 . S
C446 H459 0.962 . S
C446 H460 0.960 . S
C447 C444 1.511 . S
C447 H461 0.961 . S
C447 H462 0.961 . S
C447 H463 0.961 . S
C448 C449 1.370 . S
C448 C450 1.363 1_556 S
C448 H464 0.931 . S
C449 C448 1.370 . S
C449 C453 1.408 . S
C450 C448 1.363 1_554 S
C450 C451 1.370 . S
C450 C454 1.524 . S
C451 C443 1.503 . S
C451 C450 1.370 . S
C451 C452 1.403 . S
C452 C451 1.403 . S
C452 C453 1.404 1_554 S
C452 C455 1.539 . S
C453 C449 1.408 . S
C453 C452 1.404 1_556 S
C453 H465 0.930 . S
C454 C450 1.524 . S
C454 H466 0.956 . S
C454 H467 0.961 . S
C454 H468 0.961 . S
C455 C452 1.539 . S
C455 H469 0.958 . S
C455 H470 0.961 1_554 S
C455 H471 0.960 . S
H456 C440 0.931 . S
H457 C445 0.929 . S
H458 C446 0.960 . S
H459 C446 0.962 . S
H460 C446 0.960 . S
H461 C447 0.961 . S
H462 C447 0.961 . S
H463 C447 0.961 . S
H464 C448 0.931 . S
H465 C453 0.930 . S
H466 C454 0.956 . S
H467 C454 0.961 . S
H468 C454 0.961 . S
H469 C455 0.958 . S
H470 C455 0.961 1_556 S
H471 C455 0.960 . S
C472 C473 1.391 1_655 S
C472 C474 1.394 . S
C472 H488 0.931 . S
C473 C472 1.391 1_455 S
C473 C477 1.376 . S
C474 C472 1.394 . S
C474 C475 1.369 1_655 S
C474 C478 1.531 . S
C475 C474 1.369 1_455 S
C475 C476 1.410 . S
C475 C483 1.503 . S
C476 C475 1.410 . S
C476 C477 1.392 . S
C476 C479 1.511 . S
C477 C473 1.376 . S
C477 C476 1.392 . S
C477 H489 0.929 . S
C478 C474 1.531 . S
C478 H490 0.960 . S
C478 H491 0.962 . S
C478 H492 0.960 . S
C479 C476 1.511 . S
C479 H493 0.961 . S
C479 H494 0.961 . S
C479 H495 0.961 . S
C480 C481 1.392 1_554 S
C480 C482 1.363 . S
C480 H496 0.931 . S
C481 C480 1.392 1_556 S
C481 C485 1.386 1_655 S
C482 C480 1.363 . S
C482 C483 1.370 1_655 S
C482 C486 1.524 . S
C483 C475 1.503 . S
C483 C482 1.370 1_455 S
C483 C484 1.403 1_554 S
C484 C483 1.403 1_556 S
C484 C485 1.404 . S
C484 C487 1.539 . S
C485 C481 1.386 1_455 S
C485 C484 1.404 . S
C485 H497 0.930 . S
C486 C482 1.524 . S
C486 H498 0.956 . S
C486 H499 0.961 . S
C486 H500 0.961 . S
C487 C484 1.539 . S
C487 H501 0.958 . S
C487 H502 0.961 . S
C487 H503 0.960 1_556 S
H488 C472 0.931 . S
H489 C477 0.929 . S
H490 C478 0.960 . S
H491 C478 0.962 . S
H492 C478 0.960 . S
H493 C479 0.961 . S
H494 C479 0.961 . S
H495 C479 0.961 . S
H496 C480 0.931 . S
H497 C485 0.930 . S
H498 C486 0.956 . S
H499 C486 0.961 . S
H500 C486 0.961 . S
H501 C487 0.958 . S
H502 C487 0.961 . S
H503 C487 0.960 1_554 S
C504 C505 1.391 1_655 S
C504 C506 1.394 . S
C504 H520 0.931 . S
C505 C504 1.391 1_455 S
C505 C509 1.376 . S
C506 C504 1.394 . S
C506 C507 1.369 . S
C506 C510 1.531 . S
C507 C506 1.369 . S
C507 C508 1.410 1_655 S
C507 C515 1.503 . S
C508 C507 1.410 1_455 S
C508 C509 1.392 . S
C508 C511 1.511 . S
C509 C505 1.376 . S
C509 C508 1.392 . S
C509 H521 0.929 . S
C510 C506 1.531 . S
C510 H522 0.960 . S
C510 H523 0.962 . S
C510 H524 0.960 . S
C511 C508 1.511 . S
C511 H525 0.961 . S
C511 H526 0.961 . S
C511 H527 0.961 . S
C512 C513 1.370 . S
C512 C514 1.363 . S
C512 H528 0.931 . S
C513 C512 1.370 . S
C513 C517 1.408 . S
C514 C512 1.363 . S
C514 C515 1.370 . S
C514 C518 1.524 . S
C515 C507 1.503 . S
C515 C514 1.370 . S
C515 C516 1.403 . S
C516 C515 1.403 . S
C516 C517 1.404 . S
C516 C519 1.539 . S
C517 C513 1.408 . S
C517 C516 1.404 . S
C517 H529 0.930 . S
C518 C514 1.524 . S
C518 H530 0.956 . S
C518 H531 0.961 1_655 S
C518 H532 0.961 . S
C519 C516 1.539 . S
C519 H533 0.958 . S
C519 H534 0.961 . S
C519 H535 0.960 . S
H520 C504 0.931 . S
H521 C509 0.929 . S
H522 C510 0.960 . S
H523 C510 0.962 . S
H524 C510 0.960 . S
H525 C511 0.961 . S
H526 C511 0.961 . S
H527 C511 0.961 . S
H528 C512 0.931 . S
H529 C517 0.930 . S
H530 C518 0.956 . S
H531 C518 0.961 1_455 S
H532 C518 0.961 . S
H533 C519 0.958 . S
H534 C519 0.961 . S
H535 C519 0.960 . S
C536 C537 1.391 1_565 S
C536 C538 1.394 . S
C536 H552 0.931 . S
C537 C536 1.391 1_545 S
C537 C541 1.376 . S
C538 C536 1.394 . S
C538 C539 1.369 . S
C538 C542 1.531 . S
C539 C538 1.369 . S
C539 C540 1.410 1_565 S
C539 C547 1.503 . S
C540 C539 1.410 1_545 S
C540 C541 1.392 . S
C540 C543 1.511 . S
C541 C537 1.376 . S
C541 C540 1.392 . S
C541 H553 0.929 . S
C542 C538 1.531 . S
C542 H554 0.960 . S
C542 H555 0.962 . S
C542 H556 0.960 . S
C543 C540 1.511 . S
C543 H557 0.961 . S
C543 H558 0.961 . S
C543 H559 0.961 . S
C544 C545 1.370 . S
C544 C546 1.363 . S
C544 H560 0.931 . S
C545 C544 1.370 . S
C545 C549 1.408 . S
C546 C544 1.363 . S
C546 C547 1.370 . S
C546 C550 1.524 . S
C547 C539 1.503 . S
C547 C546 1.370 . S
C547 C548 1.403 . S
C548 C547 1.403 . S
C548 C549 1.404 . S
C548 C551 1.539 . S
C549 C545 1.408 . S
C549 C548 1.404 . S
C549 H561 0.930 . S
C550 C546 1.524 . S
C550 H562 0.956 . S
C550 H563 0.961 1_565 S
C550 H564 0.961 . S
C551 C548 1.539 . S
C551 H565 0.958 . S
C551 H566 0.961 . S
C551 H567 0.960 . S
H552 C536 0.931 . S
H553 C541 0.929 . S
H554 C542 0.960 . S
H555 C542 0.962 . S
H556 C542 0.960 . S
H557 C543 0.961 . S
H558 C543 0.961 . S
H559 C543 0.961 . S
H560 C544 0.931 . S
H561 C549 0.930 . S
H562 C550 0.956 . S
H563 C550 0.961 1_545 S
H564 C550 0.961 . S
H565 C551 0.958 . S
H566 C551 0.961 . S
H567 C551 0.960 . S
C568 C569 1.391 . S
C568 C570 1.394 . S
C568 H584 0.931 . S
C569 C568 1.391 . S
C569 C573 1.376 . S
C570 C568 1.394 . S
C570 C571 1.369 . S
C570 C574 1.531 . S
C571 C570 1.369 . S
C571 C572 1.410 . S
C571 C579 1.503 . S
C572 C571 1.410 . S
C572 C573 1.392 . S
C572 C575 1.511 . S
C573 C569 1.376 . S
C573 C572 1.392 . S
C573 H585 0.929 . S
C574 C570 1.531 . S
C574 H586 0.960 . S
C574 H587 0.962 . S
C574 H588 0.960 . S
C575 C572 1.511 . S
C575 H589 0.961 . S
C575 H590 0.961 . S
C575 H591 0.961 . S
C576 C577 1.370 . S
C576 C578 1.363 . S
C576 H592 0.931 . S
C577 C576 1.370 . S
C577 C581 1.408 . S
C578 C576 1.363 . S
C578 C579 1.370 . S
C578 C582 1.524 . S
C579 C571 1.503 . S
C579 C578 1.370 . S
C579 C580 1.403 . S
C580 C579 1.403 . S
C580 C581 1.404 . S
C580 C583 1.539 . S
C581 C577 1.408 . S
C581 C580 1.404 . S
C581 H593 0.930 . S
C582 C578 1.524 . S
C582 H594 0.956 . S
C582 H595 0.961 . S
C582 H596 0.961 . S
C583 C580 1.539 . S
C583 H597 0.958 . S
C583 H598 0.961 . S
C583 H599 0.960 . S
H584 C568 0.931 . S
H585 C573 0.929 . S
H586 C574 0.960 . S
H587 C574 0.962 . S
H588 C574 0.960 . S
H589 C575 0.961 . S
H590 C575 0.961 . S
H591 C575 0.961 . S
H592 C576 0.931 . S
H593 C581 0.930 . S
H594 C582 0.956 . S
H595 C582 0.961 . S
H596 C582 0.961 . S
H597 C583 0.958 . S
H598 C583 0.961 . S
H599 C583 0.960 . S
C600 C601 1.391 . S
C600 C602 1.394 . S
C600 H616 0.931 . S
C601 C600 1.391 . S
C601 C605 1.376 . S
C602 C600 1.394 . S
C602 C603 1.369 . S
C602 C606 1.531 . S
C603 C602 1.369 . S
C603 C604 1.410 . S
C603 C611 1.503 . S
C604 C603 1.410 . S
C604 C605 1.392 . S
C604 C607 1.511 . S
C605 C601 1.376 . S
C605 C604 1.392 . S
C605 H617 0.929 . S
C606 C602 1.531 . S
C606 H618 0.960 . S
C606 H619 0.962 . S
C606 H620 0.960 . S
C607 C604 1.511 . S
C607 H621 0.961 . S
C607 H622 0.961 . S
C607 H623 0.961 . S
C608 C609 1.370 . S
C608 C610 1.363 . S
C608 H624 0.931 . S
C609 C608 1.370 . S
C609 C613 1.408 . S
C610 C608 1.363 . S
C610 C611 1.370 . S
C610 C614 1.524 . S
C611 C603 1.503 . S
C611 C610 1.370 . S
C611 C612 1.403 . S
C612 C611 1.403 . S
C612 C613 1.404 . S
C612 C615 1.539 . S
C613 C609 1.408 . S
C613 C612 1.404 . S
C613 H625 0.930 . S
C614 C610 1.524 . S
C614 H626 0.956 . S
C614 H627 0.961 . S
C614 H628 0.961 . S
C615 C612 1.539 . S
C615 H629 0.958 . S
C615 H630 0.961 . S
C615 H631 0.960 . S
H616 C600 0.931 . S
H617 C605 0.929 . S
H618 C606 0.960 . S
H619 C606 0.962 . S
H620 C606 0.960 . S
H621 C607 0.961 . S
H622 C607 0.961 . S
H623 C607 0.961 . S
H624 C608 0.931 . S
H625 C613 0.930 . S
H626 C614 0.956 . S
H627 C614 0.961 . S
H628 C614 0.961 . S
H629 C615 0.958 . S
H630 C615 0.961 . S
H631 C615 0.960 . S
C632 C633 1.419 . S
C632 C634 1.394 . S
C632 H648 0.931 . S
C633 C632 1.419 . S
C633 C637 1.333 1_655 S
C634 C632 1.394 . S
C634 C635 1.369 1_655 S
C634 C638 1.531 . S
C635 C634 1.369 1_455 S
C635 C636 1.410 . S
C635 C643 1.503 . S
C636 C635 1.410 . S
C636 C637 1.392 . S
C636 C639 1.511 . S
C637 C633 1.333 1_455 S
C637 C636 1.392 . S
C637 H649 0.929 . S
C638 C634 1.531 . S
C638 H650 0.960 . S
C638 H651 0.962 . S
C638 H652 0.960 . S
C639 C636 1.511 . S
C639 H653 0.961 . S
C639 H654 0.961 . S
C639 H655 0.961 . S
C640 C641 1.370 . S
C640 C642 1.363 . S
C640 H656 0.931 . S
C641 C640 1.370 . S
C641 C645 1.408 . S
C642 C640 1.363 . S
C642 C643 1.370 . S
C642 C646 1.524 . S
C643 C635 1.503 . S
C643 C642 1.370 . S
C643 C644 1.403 . S
C644 C643 1.403 . S
C644 C645 1.404 . S
C644 C647 1.539 . S
C645 C641 1.408 . S
C645 C644 1.404 . S
C645 H657 0.930 . S
C646 C642 1.524 . S
C646 H658 0.956 1_455 S
C646 H659 0.961 . S
C646 H660 0.961 . S
C647 C644 1.539 . S
C647 H661 0.958 . S
C647 H662 0.961 . S
C647 H663 0.960 . S
H648 C632 0.931 . S
H649 C637 0.929 . S
H650 C638 0.960 . S
H651 C638 0.962 . S
H652 C638 0.960 . S
H653 C639 0.961 . S
H654 C639 0.961 . S
H655 C639 0.961 . S
H656 C640 0.931 . S
H657 C645 0.930 . S
H658 C646 0.956 1_655 S
H659 C646 0.961 . S
H660 C646 0.961 . S
H661 C647 0.958 . S
H662 C647 0.961 . S
H663 C647 0.960 . S
C664 C665 1.394 . S
C664 C666 1.394 . S
C664 H680 0.931 . S
C665 C664 1.394 . S
C665 C669 1.371 1_565 S
C666 C664 1.394 . S
C666 C667 1.369 1_565 S
C666 C670 1.531 . S
C667 C666 1.369 1_545 S
C667 C668 1.410 . S
C667 C675 1.503 . S
C668 C667 1.410 . S
C668 C669 1.392 . S
C668 C671 1.511 . S
C669 C665 1.371 1_545 S
C669 C668 1.392 . S
C669 H681 0.929 . S
C670 C666 1.531 . S
C670 H682 0.960 . S
C670 H683 0.962 . S
C670 H684 0.960 . S
C671 C668 1.511 . S
C671 H685 0.961 . S
C671 H686 0.961 . S
C671 H687 0.961 . S
C672 C673 1.370 . S
C672 C674 1.363 . S
C672 H688 0.931 . S
C673 C672 1.370 . S
C673 C677 1.408 . S
C674 C672 1.363 . S
C674 C675 1.370 . S
C674 C678 1.524 1_545 S
C675 C667 1.503 . S
C675 C674 1.370 . S
C675 C676 1.403 . S
C676 C675 1.403 . S
C676 C677 1.404 . S
C676 C679 1.539 . S
C677 C673 1.408 . S
C677 C676 1.404 . S
C677 H689 0.930 . S
C678 C674 1.524 1_565 S
C678 H690 0.956 . S
C678 H691 0.961 1_565 S
C678 H692 0.961 . S
C679 C676 1.539 . S
C679 H693 0.958 . S
C679 H694 0.961 . S
C679 H695 0.960 . S
H680 C664 0.931 . S
H681 C669 0.929 . S
H682 C670 0.960 . S
H683 C670 0.962 . S
H684 C670 0.960 . S
H685 C671 0.961 . S
H686 C671 0.961 . S
H687 C671 0.961 . S
H688 C672 0.931 . S
H689 C677 0.930 . S
H690 C678 0.956 . S
H691 C678 0.961 1_545 S
H692 C678 0.961 . S
H693 C679 0.958 . S
H694 C679 0.961 . S
H695 C679 0.960 . S
C696 C697 1.391 . S
C696 C698 1.394 . S
C696 H712 0.931 . S
C697 C696 1.391 . S
C697 C701 1.376 . S
C698 C696 1.394 . S
C698 C699 1.369 . S
C698 C702 1.531 . S
C699 C698 1.369 . S
C699 C700 1.410 . S
C699 C707 1.503 . S
C700 C699 1.410 . S
C700 C701 1.392 . S
C700 C703 1.511 . S
C701 C697 1.376 . S
C701 C700 1.392 . S
C701 H713 0.929 . S
C702 C698 1.531 . S
C702 H714 0.960 . S
C702 H715 0.962 . S
C702 H716 0.960 . S
C703 C700 1.511 . S
C703 H717 0.961 . S
C703 H718 0.961 . S
C703 H719 0.961 . S
C704 C705 1.370 . S
C704 C706 1.363 . S
C704 H720 0.931 . S
C705 C704 1.370 . S
C705 C709 1.408 . S
C706 C704 1.363 . S
C706 C707 1.370 . S
C706 C710 1.524 . S
C707 C699 1.503 . S
C707 C706 1.370 . S
C707 C708 1.403 . S
C708 C707 1.403 . S
C708 C709 1.404 . S
C708 C711 1.539 . S
C709 C705 1.408 . S
C709 C708 1.404 . S
C709 H721 0.930 . S
C710 C706 1.524 . S
C710 H722 0.956 . S
C710 H723 0.961 . S
C710 H724 0.961 . S
C711 C708 1.539 . S
C711 H725 0.958 . S
C711 H726 0.961 . S
C711 H727 0.960 . S
H712 C696 0.931 . S
H713 C701 0.929 . S
H714 C702 0.960 . S
H715 C702 0.962 . S
H716 C702 0.960 . S
H717 C703 0.961 . S
H718 C703 0.961 . S
H719 C703 0.961 . S
H720 C704 0.931 . S
H721 C709 0.930 . S
H722 C710 0.956 . S
H723 C710 0.961 . S
H724 C710 0.961 . S
H725 C711 0.958 . S
H726 C711 0.961 . S
H727 C711 0.960 . S
C728 C729 1.391 . S
C728 C730 1.394 . S
C728 H744 0.931 . S
C729 C728 1.391 . S
C729 C733 1.376 . S
C730 C728 1.394 . S
C730 C731 1.369 . S
C730 C734 1.531 . S
C731 C730 1.369 . S
C731 C732 1.410 . S
C731 C739 1.503 . S
C732 C731 1.410 . S
C732 C733 1.392 . S
C732 C735 1.511 . S
C733 C729 1.376 . S
C733 C732 1.392 . S
C733 H745 0.929 . S
C734 C730 1.531 . S
C734 H746 0.960 . S
C734 H747 0.962 . S
C734 H748 0.960 . S
C735 C732 1.511 . S
C735 H749 0.961 . S
C735 H750 0.961 . S
C735 H751 0.961 . S
C736 C737 1.370 . S
C736 C738 1.363 . S
C736 H752 0.931 . S
C737 C736 1.370 . S
C737 C741 1.408 . S
C738 C736 1.363 . S
C738 C739 1.370 . S
C738 C742 1.524 . S
C739 C731 1.503 . S
C739 C738 1.370 . S
C739 C740 1.403 . S
C740 C739 1.403 . S
C740 C741 1.404 . S
C740 C743 1.539 . S
C741 C737 1.408 . S
C741 C740 1.404 . S
C741 H753 0.930 . S
C742 C738 1.524 . S
C742 H754 0.956 . S
C742 H755 0.961 . S
C742 H756 0.961 . S
C743 C740 1.539 . S
C743 H757 0.958 . S
C743 H758 0.961 . S
C743 H759 0.960 . S
H744 C728 0.931 . S
H745 C733 0.929 . S
H746 C734 0.960 . S
H747 C734 0.962 . S
H748 C734 0.960 . S
H749 C735 0.961 . S
H750 C735 0.961 . S
H751 C735 0.961 . S
H752 C736 0.931 . S
H753 C741 0.930 . S
H754 C742 0.956 . S
H755 C742 0.961 . S
H756 C742 0.961 . S
H757 C743 0.958 . S
H758 C743 0.961 . S
H759 C743 0.960 . S
C760 C761 1.391 1_455 S
C760 C762 1.394 . S
C760 H776 0.931 1_556 S
C761 C760 1.391 1_655 S
C761 C765 1.376 . S
C762 C760 1.394 . S
C762 C763 1.368 1_455 S
C762 C766 1.531 1_556 S
C763 C762 1.368 1_655 S
C763 C764 1.411 . S
C763 C771 1.502 1_655 S
C764 C763 1.411 . S
C764 C765 1.392 . S
C764 C767 1.511 . S
C765 C761 1.376 . S
C765 C764 1.392 . S
C765 H777 0.929 . S
C766 C762 1.531 1_554 S
C766 H778 0.956 1_455 S
C766 H779 0.962 . S
C766 H780 0.960 . S
C767 C764 1.511 . S
C767 H781 0.961 . S
C767 H782 0.961 . S
C767 H783 0.961 . S
C768 C769 1.370 . S
C768 C770 1.363 . S
C768 H784 0.931 . S
C769 C768 1.370 . S
C769 C773 1.408 1_455 S
C770 C768 1.363 . S
C770 C771 1.370 . S
C770 C774 1.524 . S
C771 C763 1.502 1_455 S
C771 C770 1.370 . S
C771 C772 1.403 1_455 S
C772 C771 1.403 1_655 S
C772 C773 1.404 . S
C772 C775 1.539 . S
C773 C769 1.408 1_655 S
C773 C772 1.404 . S
C773 H785 0.930 . S
C774 C770 1.524 . S
C774 H786 0.956 . S
C774 H787 0.961 . S
C774 H788 0.961 . S
C775 C772 1.539 . S
C775 H789 0.958 . S
C775 H790 0.961 . S
C775 H791 0.960 . S
H776 C760 0.931 1_554 S
H777 C765 0.929 . S
H778 C766 0.956 1_655 S
H779 C766 0.962 . S
H780 C766 0.960 . S
H781 C767 0.961 . S
H782 C767 0.961 . S
H783 C767 0.961 . S
H784 C768 0.931 . S
H785 C773 0.930 . S
H786 C774 0.956 . S
H787 C774 0.961 . S
H788 C774 0.961 . S
H789 C775 0.958 . S
H790 C775 0.961 . S
H791 C775 0.960 . S
C792 C793 1.391 . S
C792 C794 1.394 . S
C792 H808 0.931 . S
C793 C792 1.391 . S
C793 C797 1.376 . S
C794 C792 1.394 . S
C794 C795 1.369 . S
C794 C798 1.531 . S
C795 C794 1.369 . S
C795 C796 1.410 . S
C795 C803 1.503 . S
C796 C795 1.410 . S
C796 C797 1.392 . S
C796 C799 1.511 1_556 S
C797 C793 1.376 . S
C797 C796 1.392 . S
C797 H809 0.929 1_556 S
C798 C794 1.531 . S
C798 H810 0.960 . S
C798 H811 0.962 1_545 S
C798 H812 0.960 . S
C799 C796 1.511 1_554 S
C799 H813 0.961 . S
C799 H814 0.961 . S
C799 H815 0.961 . S
C800 C801 1.370 1_565 S
C800 C802 1.363 . S
C800 H816 0.931 . S
C801 C800 1.370 1_545 S
C801 C805 1.408 . S
C802 C800 1.363 . S
C802 C803 1.370 1_565 S
C802 C806 1.524 . S
C803 C795 1.503 . S
C803 C802 1.370 1_545 S
C803 C804 1.403 . S
C804 C803 1.403 . S
C804 C805 1.404 . S
C804 C807 1.539 . S
C805 C801 1.408 . S
C805 C804 1.404 . S
C805 H817 0.930 . S
C806 C802 1.524 . S
C806 H818 0.956 . S
C806 H819 0.961 . S
C806 H820 0.961 . S
C807 C804 1.539 . S
C807 H821 0.958 . S
C807 H822 0.961 . S
C807 H823 0.960 . S
H808 C792 0.931 . S
H809 C797 0.929 1_554 S
H810 C798 0.960 . S
H811 C798 0.962 1_565 S
H812 C798 0.960 . S
H813 C799 0.961 . S
H814 C799 0.961 . S
H815 C799 0.961 . S
H816 C800 0.931 . S
H817 C805 0.930 . S
H818 C806 0.956 . S
H819 C806 0.961 . S
H820 C806 0.961 . S
H821 C807 0.958 . S
H822 C807 0.961 . S
H823 C807 0.960 . S
C824 C825 1.391 . S
C824 C826 1.394 . S
C824 H840 0.931 1_556 S
C825 C824 1.391 . S
C825 C829 1.376 . S
C826 C824 1.394 . S
C826 C827 1.369 . S
C826 C830 1.531 1_556 S
C827 C826 1.369 . S
C827 C828 1.410 . S
C827 C835 1.503 . S
C828 C827 1.410 . S
C828 C829 1.392 . S
C828 C831 1.511 . S
C829 C825 1.376 . S
C829 C828 1.392 . S
C829 H841 0.929 . S
C830 C826 1.531 1_554 S
C830 H842 0.960 . S
C830 H843 0.962 . S
C830 H844 0.960 . S
C831 C828 1.511 . S
C831 H845 0.961 . S
C831 H846 0.961 . S
C831 H847 0.961 . S
C832 C833 1.370 . S
C832 C834 1.363 . S
C832 H848 0.931 . S
C833 C832 1.370 . S
C833 C837 1.408 . S
C834 C832 1.363 . S
C834 C835 1.370 . S
C834 C838 1.524 . S
C835 C827 1.503 . S
C835 C834 1.370 . S
C835 C836 1.403 . S
C836 C835 1.403 . S
C836 C837 1.404 . S
C836 C839 1.539 . S
C837 C833 1.408 . S
C837 C836 1.404 . S
C837 H849 0.930 . S
C838 C834 1.524 . S
C838 H850 0.956 . S
C838 H851 0.961 . S
C838 H852 0.961 . S
C839 C836 1.539 . S
C839 H853 0.958 . S
C839 H854 0.961 . S
C839 H855 0.960 . S
H840 C824 0.931 1_554 S
H841 C829 0.929 . S
H842 C830 0.960 . S
H843 C830 0.962 . S
H844 C830 0.960 . S
H845 C831 0.961 . S
H846 C831 0.961 . S
H847 C831 0.961 . S
H848 C832 0.931 . S
H849 C837 0.930 . S
H850 C838 0.956 . S
H851 C838 0.961 . S
H852 C838 0.961 . S
H853 C839 0.958 . S
H854 C839 0.961 . S
H855 C839 0.960 . S
C856 C857 1.391 . S
C856 C858 1.394 . S
C856 H872 0.931 . S
C857 C856 1.391 . S
C857 C861 1.376 . S
C858 C856 1.394 . S
C858 C859 1.369 . S
C858 C862 1.531 . S
C859 C858 1.369 . S
C859 C860 1.410 . S
C859 C867 1.503 . S
C860 C859 1.410 . S
C860 C861 1.392 . S
C860 C863 1.511 . S
C861 C857 1.376 . S
C861 C860 1.392 . S
C861 H873 0.929 . S
C862 C858 1.531 . S
C862 H874 0.960 . S
C862 H875 0.962 . S
C862 H876 0.960 . S
C863 C860 1.511 . S
C863 H877 0.961 . S
C863 H878 0.961 . S
C863 H879 0.961 . S
C864 C865 1.370 . S
C864 C866 1.363 . S
C864 H880 0.931 . S
C865 C864 1.370 . S
C865 C869 1.408 . S
C866 C864 1.363 . S
C866 C867 1.370 . S
C866 C870 1.524 . S
C867 C859 1.503 . S
C867 C866 1.370 . S
C867 C868 1.403 . S
C868 C867 1.403 . S
C868 C869 1.404 . S
C868 C871 1.539 1_556 S
C869 C865 1.408 . S
C869 C868 1.404 . S
C869 H881 0.930 . S
C870 C866 1.524 . S
C870 H882 0.956 . S
C870 H883 0.961 . S
C870 H884 0.961 . S
C871 C868 1.539 1_554 S
C871 H885 0.958 . S
C871 H886 0.961 . S
C871 H887 0.960 . S
H872 C856 0.931 . S
H873 C861 0.929 . S
H874 C862 0.960 . S
H875 C862 0.962 . S
H876 C862 0.960 . S
H877 C863 0.961 . S
H878 C863 0.961 . S
H879 C863 0.961 . S
H880 C864 0.931 . S
H881 C869 0.930 . S
H882 C870 0.956 . S
H883 C870 0.961 . S
H884 C870 0.961 . S
H885 C871 0.958 . S
H886 C871 0.961 . S
H887 C871 0.960 . S
C888 C889 1.391 1_455 S
C888 C890 1.394 . S
C888 H904 0.931 . S
C889 C888 1.391 1_655 S
C889 C893 1.376 . S
C890 C888 1.394 . S
C890 C891 1.369 1_455 S
C890 C894 1.531 . S
C891 C890 1.369 1_655 S
C891 C892 1.410 . S
C891 C899 1.503 . S
C892 C891 1.410 . S
C892 C893 1.392 . S
C892 C895 1.511 . S
C893 C889 1.376 . S
C893 C892 1.392 . S
C893 H905 0.929 . S
C894 C890 1.531 . S
C894 H906 0.960 . S
C894 H907 0.962 . S
C894 H908 0.960 . S
C895 C892 1.511 . S
C895 H909 0.961 . S
C895 H910 0.961 . S
C895 H911 0.961 . S
C896 C897 1.370 . S
C896 C898 1.363 . S
C896 H912 0.931 . S
C897 C896 1.370 . S
C897 C901 1.408 . S
C898 C896 1.363 . S
C898 C899 1.370 . S
C898 C902 1.528 . S
C899 C891 1.503 . S
C899 C898 1.370 . S
C899 C900 1.403 . S
C900 C899 1.403 . S
C900 C901 1.404 . S
C900 C903 1.539 . S
C901 C897 1.408 . S
C901 C900 1.404 . S
C901 H913 0.930 . S
C902 C898 1.528 . S
C902 H914 0.938 1_655 S
C902 H915 0.975 . S
C902 H916 0.960 . S
C903 C900 1.539 . S
C903 H917 0.958 . S
C903 H918 0.961 . S
C903 H919 0.960 . S
H904 C888 0.931 . S
H905 C893 0.929 . S
H906 C894 0.960 . S
H907 C894 0.962 . S
H908 C894 0.960 . S
H909 C895 0.961 . S
H910 C895 0.961 . S
H911 C895 0.961 . S
H912 C896 0.931 . S
H913 C901 0.930 . S
H914 C902 0.938 1_455 S
H915 C902 0.975 . S
H916 C902 0.960 . S
H917 C903 0.958 . S
H918 C903 0.961 . S
H919 C903 0.960 . S
C920 C921 1.421 . S
C920 C922 1.394 . S
C920 H936 0.931 . S
C921 C920 1.421 . S
C921 C925 1.347 1_565 S
C922 C920 1.394 . S
C922 C923 1.369 . S
C922 C926 1.531 . S
C923 C922 1.369 . S
C923 C924 1.410 1_565 S
C923 C931 1.503 . S
C924 C923 1.410 1_545 S
C924 C925 1.392 . S
C924 C927 1.511 . S
C925 C921 1.347 1_545 S
C925 C924 1.392 . S
C925 H937 0.929 . S
C926 C922 1.531 . S
C926 H938 0.960 . S
C926 H939 0.962 . S
C926 H940 0.960 . S
C927 C924 1.511 . S
C927 H941 0.961 . S
C927 H942 0.961 . S
C927 H943 0.961 . S
C928 C929 1.370 . S
C928 C930 1.363 . S
C928 H944 0.931 . S
C929 C928 1.370 . S
C929 C933 1.408 1_565 S
C930 C928 1.363 . S
C930 C931 1.370 . S
C930 C934 1.524 . S
C931 C923 1.503 . S
C931 C930 1.370 . S
C931 C932 1.403 1_565 S
C932 C931 1.403 1_545 S
C932 C933 1.404 . S
C932 C935 1.539 . S
C933 C929 1.408 1_545 S
C933 C932 1.404 . S
C933 H945 0.930 . S
C934 C930 1.524 . S
C934 H946 0.956 . S
C934 H947 0.961 . S
C934 H948 0.961 . S
C935 C932 1.539 . S
C935 H949 0.958 . S
C935 H950 0.961 . S
C935 H951 0.960 . S
H936 C920 0.931 . S
H937 C925 0.929 . S
H938 C926 0.960 . S
H939 C926 0.962 . S
H940 C926 0.960 . S
H941 C927 0.961 . S
H942 C927 0.961 . S
H943 C927 0.961 . S
H944 C928 0.931 . S
H945 C933 0.930 . S
H946 C934 0.956 . S
H947 C934 0.961 . S
H948 C934 0.961 . S
H949 C935 0.958 . S
H950 C935 0.961 . S
H951 C935 0.960 . S
C952 C953 1.391 . S
C952 C954 1.394 . S
C952 H968 0.931 . S
C953 C952 1.391 . S
C953 C957 1.376 . S
C954 C952 1.394 . S
C954 C955 1.369 . S
C954 C958 1.531 . S
C955 C954 1.369 . S
C955 C956 1.410 . S
C955 C963 1.503 . S
C956 C955 1.410 . S
C956 C957 1.392 . S
C956 C959 1.511 . S
C957 C953 1.376 . S
C957 C956 1.392 . S
C957 H969 0.929 . S
C958 C954 1.531 . S
C958 H970 0.960 . S
C958 H971 0.962 . S
C958 H972 0.960 . S
C959 C956 1.511 . S
C959 H973 0.961 . S
C959 H974 0.961 . S
C959 H975 0.961 . S
C960 C961 1.370 . S
C960 C962 1.363 . S
C960 H976 0.931 . S
C961 C960 1.370 . S
C961 C965 1.408 . S
C962 C960 1.363 . S
C962 C963 1.370 . S
C962 C966 1.524 . S
C963 C955 1.503 . S
C963 C962 1.370 . S
C963 C964 1.403 . S
C964 C963 1.403 . S
C964 C965 1.404 . S
C964 C967 1.539 . S
C965 C961 1.408 . S
C965 C964 1.404 . S
C965 H977 0.930 . S
C966 C962 1.524 . S
C966 H978 0.956 . S
C966 H979 0.961 . S
C966 H980 0.961 . S
C967 C964 1.539 . S
C967 H981 0.958 . S
C967 H982 0.961 . S
C967 H983 0.960 . S
H968 C952 0.931 . S
H969 C957 0.929 . S
H970 C958 0.960 . S
H971 C958 0.962 . S
H972 C958 0.960 . S
H973 C959 0.961 . S
H974 C959 0.961 . S
H975 C959 0.961 . S
H976 C960 0.931 . S
H977 C965 0.930 . S
H978 C966 0.956 . S
H979 C966 0.961 . S
H980 C966 0.961 . S
H981 C967 0.958 . S
H982 C967 0.961 . S
H983 C967 0.960 . S
C984 C985 1.391 . S
C984 C986 1.394 . S
C984 H1000 0.931 . S
C985 C984 1.391 . S
C985 C989 1.376 . S
C986 C984 1.394 . S
C986 C987 1.369 . S
C986 C990 1.531 . S
C987 C986 1.369 . S
C987 C988 1.410 . S
C987 C995 1.503 . S
C988 C987 1.410 . S
C988 C989 1.392 . S
C988 C991 1.511 . S
C989 C985 1.376 . S
C989 C988 1.392 . S
C989 H1001 0.929 . S
C990 C986 1.531 . S
C990 H1002 0.960 . S
C990 H1003 0.962 . S
C990 H1004 0.960 . S
C991 C988 1.511 . S
C991 H1005 0.961 . S
C991 H1006 0.961 . S
C991 H1007 0.961 . S
C992 C993 1.370 . S
C992 C994 1.363 . S
C992 H1008 0.931 . S
C993 C992 1.370 . S
C993 C997 1.408 . S
C994 C992 1.363 . S
C994 C995 1.370 . S
C994 C998 1.524 . S
C995 C987 1.503 . S
C995 C994 1.370 . S
C995 C996 1.403 . S
C996 C995 1.403 . S
C996 C997 1.404 . S
C996 C999 1.539 . S
C997 C993 1.408 . S
C997 C996 1.404 . S
C997 H1009 0.930 . S
C998 C994 1.524 . S
C998 H1010 0.956 . S
C998 H1011 0.961 . S
C998 H1012 0.961 . S
C999 C996 1.539 . S
C999 H1013 0.958 . S
C999 H1014 0.961 . S
C999 H1015 0.960 . S
H1000 C984 0.931 . S
H1001 C989 0.929 . S
H1002 C990 0.960 . S
H1003 C990 0.962 . S
H1004 C990 0.960 . S
H1005 C991 0.961 . S
H1006 C991 0.961 . S
H1007 C991 0.961 . S
H1008 C992 0.931 . S
H1009 C997 0.930 . S
H1010 C998 0.956 . S
H1011 C998 0.961 . S
H1012 C998 0.961 . S
H1013 C999 0.958 . S
H1014 C999 0.961 . S
H1015 C999 0.960 . S
C249 C76 1.832 . S
C257 C97 1.941 1_545 S
C289 C137 1.956 . S
C281 C87 1.851 . S
C321 C177 1.965 . S
C313 C54 1.843 . S
C353 C217 1.950 1_455 S
C345 C65 1.787 1_455 S
C385 C106 1.944 1_565 S
C377 C32 1.782 . S
C409 C43 1.848 . S
C417 C146 1.961 . S
C441 C10 1.816 . S
C449 C186 1.963 . S
C473 C21 1.792 1_455 S
C481 C226 1.948 1_655 S
C513 C103 0.510 . S
C505 C60 0.432 . S
C545 C143 0.509 . S
C537 C71 0.448 . S
C577 C183 0.523 . S
C569 C82 0.588 . S
C601 C49 0.592 . S
C609 C223 0.477 . S
C633 C16 0.430 1_655 S
C641 C94 0.521 . S
C673 C134 0.533 . S
C665 C27 0.440 1_565 S
C705 C174 0.532 . S
C697 C38 0.446 . S
C729 C5 0.596 . S
C737 C214 0.478 . S
C761 C59 2.023 1_655 S
C769 C107 2.262 . S
C793 C70 2.010 . S
C801 C147 2.260 . S
C833 C187 2.237 . S
C825 C81 1.985 . S
C865 C227 2.263 . S
C857 C48 1.974 . S
C889 C15 1.992 1_655 S
C897 C98 2.283 . S
C929 C138 2.250 . S
C921 C26 2.044 1_565 S
C961 C178 2.238 . S
C953 C37 2.034 . S
C985 C4 2.028 . S
C993 C218 2.275 . S
