# Generated by pormake.
# Topology nom, (4,4)-cn, num edge types: 1
# Building blocks:
#     Node 0, Type 0, BuildingBlock: MIFKUJ_clean_linker_1, # of connection points: 4
#     Node 1, Type 0, BuildingBlock: MIFKUJ_clean_linker_1, # of connection points: 4
#     Node 2, Type 0, BuildingBlock: MIFKUJ_clean_linker_1, # of connection points: 4
#     Node 3, Type 0, BuildingBlock: MIFKUJ_clean_linker_1, # of connection points: 4
#     Node 4, Type 0, BuildingBlock: MIFKUJ_clean_linker_1, # of connection points: 4
#     Node 5, Type 0, BuildingBlock: MIFKUJ_clean_linker_1, # of connection points: 4
#     Node 6, Type 1, BuildingBlock: QUQFOY_clean_sbu_1, # of connection points: 4
#     Node 7, Type 1, BuildingBlock: QUQFOY_clean_sbu_1, # of connection points: 4
#     Node 8, Type 1, BuildingBlock: QUQFOY_clean_sbu_1, # of connection points: 4
#     Node 9, Type 1, BuildingBlock: QUQFOY_clean_sbu_1, # of connection points: 4
#     Node 10, Type 1, BuildingBlock: QUQFOY_clean_sbu_1, # of connection points: 4
#     Node 11, Type 1, BuildingBlock: QUQFOY_clean_sbu_1, # of connection points: 4
#     Edge 12, Type (0, 1), BuildingBlock: XUDNAN_clean_linker_2, # of connection points: 2
#     Edge 13, Type (0, 1), BuildingBlock: XUDNAN_clean_linker_2, # of connection points: 2
#     Edge 14, Type (0, 1), BuildingBlock: XUDNAN_clean_linker_2, # of connection points: 2
#     Edge 15, Type (0, 1), BuildingBlock: XUDNAN_clean_linker_2, # of connection points: 2
#     Edge 16, Type (0, 1), BuildingBlock: XUDNAN_clean_linker_2, # of connection points: 2
#     Edge 17, Type (0, 1), BuildingBlock: XUDNAN_clean_linker_2, # of connection points: 2
#     Edge 18, Type (0, 1), BuildingBlock: XUDNAN_clean_linker_2, # of connection points: 2
#     Edge 19, Type (0, 1), BuildingBlock: XUDNAN_clean_linker_2, # of connection points: 2
#     Edge 20, Type (0, 1), BuildingBlock: XUDNAN_clean_linker_2, # of connection points: 2
#     Edge 21, Type (0, 1), BuildingBlock: XUDNAN_clean_linker_2, # of connection points: 2
#     Edge 22, Type (0, 1), BuildingBlock: XUDNAN_clean_linker_2, # of connection points: 2
#     Edge 23, Type (0, 1), BuildingBlock: XUDNAN_clean_linker_2, # of connection points: 2
#     Edge 24, Type (0, 1), BuildingBlock: XUDNAN_clean_linker_2, # of connection points: 2
#     Edge 25, Type (0, 1), BuildingBlock: XUDNAN_clean_linker_2, # of connection points: 2
#     Edge 26, Type (0, 1), BuildingBlock: XUDNAN_clean_linker_2, # of connection points: 2
#     Edge 27, Type (0, 1), BuildingBlock: XUDNAN_clean_linker_2, # of connection points: 2
#     Edge 28, Type (0, 1), BuildingBlock: XUDNAN_clean_linker_2, # of connection points: 2
#     Edge 29, Type (0, 1), BuildingBlock: XUDNAN_clean_linker_2, # of connection points: 2
#     Edge 30, Type (0, 1), BuildingBlock: XUDNAN_clean_linker_2, # of connection points: 2
#     Edge 31, Type (0, 1), BuildingBlock: XUDNAN_clean_linker_2, # of connection points: 2
#     Edge 32, Type (0, 1), BuildingBlock: XUDNAN_clean_linker_2, # of connection points: 2
#     Edge 33, Type (0, 1), BuildingBlock: XUDNAN_clean_linker_2, # of connection points: 2
#     Edge 34, Type (0, 1), BuildingBlock: XUDNAN_clean_linker_2, # of connection points: 2
#     Edge 35, Type (0, 1), BuildingBlock: XUDNAN_clean_linker_2, # of connection points: 2
# Relax obj value: 0.014
# Max RMSD: 0.114
# Mean RMSD: 0.111
data_MOF--net-nom--node1-QUQFOY_clean_sbu_1--node2-MIFKUJ_clean_linker_1--edge1-XUDNAN_clean_linker_2
_symmetry_space_group_name_H-M    P1
_symmetry_Int_Tables_number       1
_symmetry_cell_setting            triclinic
loop_
_symmetry_equiv_pos_as_xyz
'x, y, z'
_cell_length_a     55.479692
_cell_length_b     55.38061
_cell_length_c     53.388343
_cell_angle_alpha  90.043834
_cell_angle_beta   89.827731
_cell_angle_gamma 120.08688
loop_
_atom_site_label
_atom_site_type_symbol
_atom_site_fract_x
_atom_site_fract_y
_atom_site_fract_z
_atom_type_partial_charge
H0 H 0.98807 0.48538 0.26672 0.0
H1 H 0.9497 0.46993 0.23713 0.0
H2 H 0.91301 0.50701 0.2838 0.0
H3 H 0.95257 0.52435 0.31201 0.0
H4 H 0.02718 0.53572 0.28021 0.0
H5 H 0.94988 0.45795 0.32412 0.0
H6 H 0.90235 0.43474 0.34056 0.0
H7 H 0.92511 0.50382 0.39117 0.0
H8 H 0.97213 0.52752 0.37368 0.0
H9 H 0.05199 0.56325 0.38674 0.0
H10 H 0.08967 0.57553 0.41654 0.0
H11 H 0.12722 0.54304 0.36556 0.0
H12 H 0.08856 0.52912 0.33674 0.0
H13 H 0.01317 0.51615 0.37136 0.0
H14 H 0.08028 0.59715 0.32616 0.0
H15 H 0.125 0.63028 0.30673 0.0
H16 H 0.12197 0.56383 0.26214 0.0
H17 H 0.07668 0.53075 0.28112 0.0
C18 C 0.9731 0.50571 0.29184 0.0
C19 C 0.97184 0.49035 0.27045 0.0
C20 C 0.94961 0.48118 0.25368 0.0
C21 C 0.92796 0.48698 0.25801 0.0
C22 C 0.92936 0.5024 0.27951 0.0
C23 C 0.95186 0.51202 0.29597 0.0
C24 C 0.99682 0.51535 0.3096 0.0
C25 C 0.02408 0.53098 0.30007 0.0
C26 C 0.99281 0.51032 0.33577 0.0
C27 C 0.96454 0.49473 0.34733 0.0
C28 C 0.9446 0.46812 0.33872 0.0
C29 C 0.91744 0.45473 0.34835 0.0
C30 C 0.90969 0.46745 0.36713 0.0
C31 C 0.93006 0.49361 0.37639 0.0
C32 C 0.95713 0.50707 0.3666 0.0
C33 C 0.06745 0.54546 0.3593 0.0
C34 C 0.06832 0.55873 0.382 0.0
C35 C 0.09011 0.56603 0.39894 0.0
C36 C 0.11162 0.56033 0.39353 0.0
C37 C 0.11089 0.54744 0.37059 0.0
C38 C 0.08895 0.53986 0.35382 0.0
C39 C 0.04348 0.5363 0.34189 0.0
C40 C 0.01623 0.5207 0.35146 0.0
C41 C 0.04737 0.54201 0.3159 0.0
C42 C 0.0752 0.5615 0.3051 0.0
C43 C 0.0893 0.58966 0.31232 0.0
C44 C 0.11477 0.60854 0.30122 0.0
C45 C 0.12684 0.5995 0.28303 0.0
C46 C 0.1131 0.57119 0.27624 0.0
C47 C 0.08727 0.55239 0.28696 0.0
H48 H 0.43482 0.96694 0.53517 0.0
H49 H 0.41063 0.91912 0.5515 0.0
H50 H 0.46356 0.8999 0.50626 0.0
H51 H 0.48806 0.9478 0.49063 0.0
H52 H 0.49007 0.00876 0.5373 0.0
H53 H 0.42329 0.95465 0.47325 0.0
H54 H 0.40022 0.91587 0.44376 0.0
H55 H 0.47851 0.94419 0.40522 0.0
H56 H 0.5016 0.98237 0.43527 0.0
H57 H 0.54433 0.06413 0.44315 0.0
H58 H 0.56606 0.11023 0.42324 0.0
H59 H 0.52543 0.13667 0.47656 0.0
H60 H 0.50228 0.09018 0.49542 0.0
H61 H 0.49384 0.0256 0.44574 0.0
H62 H 0.56174 0.06788 0.51505 0.0
H63 H 0.58849 0.10451 0.54541 0.0
H64 H 0.51244 0.10086 0.57069 0.0
H65 H 0.48588 0.06252 0.54171 0.0
C66 C 0.46309 0.96089 0.51151 0.0
C67 C 0.44132 0.95245 0.52895 0.0
C68 C 0.42736 0.92505 0.53809 0.0
C69 C 0.43509 0.90562 0.53014 0.0
C70 C 0.45724 0.91435 0.513 0.0
C71 C 0.47113 0.94169 0.50386 0.0
C72 C 0.47714 0.98962 0.50096 0.0
C73 C 0.49057 0.01245 0.5173 0.0
C74 C 0.47849 0.99449 0.47483 0.0
C75 C 0.46423 0.97129 0.4566 0.0
C76 C 0.43552 0.95236 0.45857 0.0
C77 C 0.42232 0.93032 0.44158 0.0
C78 C 0.43753 0.92686 0.42218 0.0
C79 C 0.46626 0.94598 0.42017 0.0
C80 C 0.47944 0.968 0.43717 0.0
C81 C 0.52198 0.07362 0.4712 0.0
C82 C 0.54008 0.0798 0.45064 0.0
C83 C 0.55257 0.10614 0.43931 0.0
C84 C 0.5476 0.12699 0.44858 0.0
C85 C 0.52998 0.12108 0.46938 0.0
C86 C 0.51695 0.09454 0.48032 0.0
C87 C 0.50713 0.04487 0.48203 0.0
C88 C 0.4934 0.02198 0.46574 0.0
C89 C 0.50585 0.03988 0.50814 0.0
C90 C 0.52193 0.06264 0.52617 0.0
C91 C 0.55095 0.07498 0.5273 0.0
C92 C 0.56623 0.09622 0.54455 0.0
C93 C 0.55286 0.10609 0.56067 0.0
C94 C 0.52363 0.09364 0.55917 0.0
C95 C 0.50832 0.07182 0.54242 0.0
H96 H 0.5325 0.56145 0.71282 0.0
H97 H 0.51085 0.57517 0.74569 0.0
H98 H 0.43116 0.5274 0.70895 0.0
H99 H 0.45236 0.51191 0.67787 0.0
H100 H 0.52292 0.51005 0.70174 0.0
H101 H 0.52398 0.58431 0.64567 0.0
H102 H 0.50001 0.60863 0.63171 0.0
H103 H 0.42644 0.52888 0.61617 0.0
H104 H 0.45184 0.50536 0.62769 0.0
H105 H 0.51018 0.44595 0.63661 0.0
H106 H 0.52406 0.4222 0.60631 0.0
H107 H 0.57387 0.50012 0.56698 0.0
H108 H 0.56086 0.52402 0.59817 0.0
H109 H 0.51068 0.51749 0.61053 0.0
H110 H 0.5094 0.45707 0.69863 0.0
H111 H 0.53039 0.43009 0.71351 0.0
H112 H 0.60284 0.48007 0.66735 0.0
H113 H 0.58214 0.50764 0.65331 0.0
C114 C 0.49422 0.5361 0.69248 0.0
C115 C 0.51036 0.55401 0.71191 0.0
C116 C 0.49797 0.56206 0.73057 0.0
C117 C 0.46916 0.55238 0.73014 0.0
C118 C 0.45328 0.53495 0.71028 0.0
C119 C 0.46554 0.52653 0.69202 0.0
C120 C 0.5068 0.52595 0.67353 0.0
C121 C 0.52053 0.51193 0.68179 0.0
C122 C 0.50366 0.52831 0.6475 0.0
C123 C 0.48961 0.5431 0.63776 0.0
C124 C 0.50283 0.57225 0.6388 0.0
C125 C 0.48881 0.58607 0.63111 0.0
C126 C 0.46087 0.57096 0.62299 0.0
C127 C 0.44798 0.54161 0.62169 0.0
C128 C 0.4624 0.52794 0.62851 0.0
C129 C 0.53476 0.48686 0.61989 0.0
C130 C 0.52436 0.45801 0.62165 0.0
C131 C 0.53211 0.44438 0.60411 0.0
C132 C 0.5501 0.45921 0.58414 0.0
C133 C 0.56033 0.48811 0.58231 0.0
C134 C 0.55268 0.50177 0.59998 0.0
C135 C 0.5267 0.50137 0.63872 0.0
C136 C 0.51368 0.5161 0.63043 0.0
C137 C 0.53048 0.49955 0.66477 0.0
C138 C 0.54408 0.48426 0.6747 0.0
C139 C 0.52996 0.46244 0.69196 0.0
C140 C 0.54187 0.44683 0.70023 0.0
C141 C 0.56823 0.45275 0.69149 0.0
C142 C 0.58262 0.47507 0.67465 0.0
C143 C 0.57072 0.49072 0.66643 0.0
H144 H 0.05829 0.56168 0.77988 0.0
H145 H 0.09792 0.58001 0.75116 0.0
H146 H 0.10537 0.50695 0.76462 0.0
H147 H 0.06674 0.48979 0.79442 0.0
H148 H 1.00577 0.50232 0.77902 0.0
H149 H 0.09223 0.56282 0.82607 0.0
H150 H 0.13806 0.57247 0.84017 0.0
H151 H 0.09909 0.4951 0.88194 0.0
H152 H 0.05391 0.4845 0.86601 0.0
H153 H 0.97945 0.46026 0.88257 0.0
H154 H 0.94379 0.44932 0.91447 0.0
H155 H 0.91544 0.49781 0.87354 0.0
H156 H 0.95275 0.51086 0.84344 0.0
H157 H 0.02268 0.50628 0.87054 0.0
H158 H 0.95457 0.43673 0.81324 0.0
H159 H 0.90751 0.40948 0.79694 0.0
H160 H 0.90731 0.48603 0.78065 0.0
H161 H 0.95551 0.51284 0.79475 0.0
C162 C 0.05978 0.52453 0.78933 0.0
C163 C 0.0685 0.54967 0.77652 0.0
C164 C 0.09111 0.56001 0.75998 0.0
C165 C 0.10511 0.54509 0.75547 0.0
C166 C 0.09567 0.51944 0.76795 0.0
C167 C 0.07337 0.50938 0.78482 0.0
C168 C 0.03687 0.51457 0.80786 0.0
C169 C 0.00953 0.50361 0.79904 0.0
C170 C 0.04165 0.51463 0.83393 0.0
C171 C 0.06955 0.5225 0.84431 0.0
C172 C 0.09361 0.54771 0.8379 0.0
C173 C 0.11985 0.55344 0.84636 0.0
C174 C 0.12249 0.53436 0.8619 0.0
C175 C 0.09812 0.50992 0.86938 0.0
C176 C 0.07209 0.50398 0.86053 0.0
C177 C 0.96857 0.486 0.86023 0.0
C178 C 0.96556 0.46857 0.88055 0.0
C179 C 0.94487 0.46206 0.89867 0.0
C180 C 0.92655 0.47264 0.89676 0.0
C181 C 0.92934 0.4896 0.87605 0.0
C182 C 0.95036 0.49658 0.85834 0.0
C183 C 0.99162 0.4945 0.84177 0.0
C184 C 0.01896 0.50522 0.85053 0.0
C185 C 0.98684 0.49275 0.81564 0.0
C186 C 0.95833 0.47672 0.80535 0.0
C187 C 0.94435 0.44752 0.80589 0.0
C188 C 0.91717 0.43197 0.79682 0.0
C189 C 0.90296 0.44529 0.78767 0.0
C190 C 0.91736 0.47475 0.78704 0.0
C191 C 0.94494 0.49026 0.79534 0.0
H192 H 0.61376 0.07707 0.00907 0.0
H193 H 0.63833 0.12626 0.02099 0.0
H194 H 0.55918 0.12324 0.0291 0.0
H195 H 0.53522 0.07471 0.01533 0.0
H196 H 0.55793 0.0271 0.03913 0.0
H197 H 0.59902 0.07852 0.96086 0.0
H198 H 0.60755 0.11591 0.93163 0.0
H199 H 0.51878 0.07909 0.9208 0.0
H200 H 0.51046 0.04261 0.95108 0.0
H201 H 0.47876 0.95905 0.96124 0.0
H202 H 0.45511 0.91081 0.94638 0.0
H203 H 0.51925 0.89905 0.98013 0.0
H204 H 0.54358 0.94762 0.99338 0.0
H205 H 0.52711 1.00273 0.95092 0.0
H206 H 0.48406 0.96214 0.03213 0.0
H207 H 0.46945 0.92867 0.06651 0.0
H208 H 0.5532 0.94194 0.07079 0.0
H209 H 0.56783 0.97699 0.03779 0.0
C210 C 0.57276 0.07243 0.01115 0.0
C211 C 0.60183 0.08715 0.01344 0.0
C212 C 0.61581 0.11529 0.02048 0.0
C213 C 0.60091 0.12912 0.02603 0.0
C214 C 0.57159 0.11379 0.02441 0.0
C215 C 0.55773 0.08586 0.0168 0.0
C216 C 0.55804 0.04312 0.00238 0.0
C217 C 0.5516 0.02175 0.01977 0.0
C218 C 0.54874 0.0362 0.97737 0.0
C219 C 0.55409 0.05807 0.95855 0.0
C220 C 0.5814 0.07874 0.95245 0.0
C221 C 0.58625 0.09992 0.93545 0.0
C222 C 0.56385 0.10068 0.92393 0.0
C223 C 0.53652 0.07952 0.92967 0.0
C224 C 0.53171 0.05846 0.94678 0.0
C225 C 0.51274 0.95695 0.97887 0.0
C226 C 0.48779 0.9461 0.96531 0.0
C227 C 0.47413 0.91837 0.95702 0.0
C228 C 0.48511 0.90081 0.96212 0.0
C229 C 0.51024 0.91188 0.97555 0.0
C230 C 0.52399 0.93963 0.98359 0.0
C231 C 0.52744 0.98649 0.98758 0.0
C232 C 0.53367 0.00797 0.97024 0.0
C233 C 0.53598 0.99357 0.01277 0.0
C234 C 0.527 0.97203 0.03256 0.0
C235 C 0.49919 0.95776 0.0406 0.0
C236 C 0.49084 0.93837 0.06015 0.0
C237 C 0.51008 0.93242 0.07176 0.0
C238 C 0.53784 0.94634 0.06298 0.0
C239 C 0.54628 0.96627 0.0439 0.0
H240 H 0.52778 0.49585 0.22683 0.0
H241 H 0.55185 0.48088 0.25574 0.0
H242 H 0.62655 0.52392 0.2107 0.0
H243 H 0.60266 0.5397 0.18244 0.0
H244 H 0.53789 0.54735 0.21387 0.0
H245 H 0.53596 0.46913 0.17163 0.0
H246 H 0.55841 0.44398 0.1554 0.0
H247 H 0.6065 0.51175 0.10394 0.0
H248 H 0.5847 0.53722 0.12094 0.0
H249 H 0.53816 0.57222 0.10739 0.0
H250 H 0.51208 0.58296 0.07717 0.0
H251 H 0.44131 0.5481 0.12755 0.0
H252 H 0.46677 0.53536 0.15668 0.0
H253 H 0.5312 0.52562 0.12317 0.0
H254 H 0.52932 0.60225 0.16258 0.0
H255 H 0.50959 0.62903 0.18118 0.0
H256 H 0.47073 0.56676 0.23904 0.0
H257 H 0.48918 0.53921 0.21977 0.0
C258 C 0.56332 0.51871 0.20236 0.0
C259 C 0.54939 0.50219 0.22328 0.0
C260 C 0.56311 0.49338 0.23964 0.0
C261 C 0.59111 0.50103 0.23547 0.0
C262 C 0.60507 0.51782 0.2146 0.0
C263 C 0.59137 0.52668 0.1983 0.0
C264 C 0.54839 0.52738 0.1847 0.0
C265 C 0.53602 0.54233 0.19407 0.0
C266 C 0.54677 0.52147 0.15877 0.0
C267 C 0.55894 0.50526 0.14777 0.0
C268 C 0.5514 0.4786 0.1569 0.0
C269 C 0.56407 0.46411 0.14741 0.0
C270 C 0.58438 0.47588 0.12842 0.0
C271 C 0.59128 0.50225 0.11883 0.0
C272 C 0.57865 0.51674 0.12837 0.0
C273 C 0.5046 0.55318 0.13449 0.0
C274 C 0.51696 0.56674 0.11186 0.0
C275 C 0.50207 0.57323 0.0947 0.0
C276 C 0.4745 0.56656 0.09983 0.0
C277 C 0.4623 0.55323 0.12267 0.0
C278 C 0.47703 0.54628 0.1396 0.0
C279 C 0.52032 0.54555 0.15228 0.0
C280 C 0.53292 0.53075 0.14294 0.0
C281 C 0.52215 0.55173 0.17827 0.0
C282 C 0.51045 0.56838 0.18949 0.0
C283 C 0.51609 0.59399 0.17896 0.0
C284 C 0.5049 0.60936 0.18962 0.0
C285 C 0.48858 0.59985 0.21145 0.0
C286 C 0.48329 0.57453 0.22222 0.0
C287 C 0.49393 0.55886 0.21125 0.0
O288 O 0.61321 0.37786 0.43296 0.0
Cd289 Cd 0.62717 0.36737 0.40123 0.0
Cd290 Cd 0.67525 0.41339 0.4145 0.0
O291 O 0.65336 0.41233 0.44657 0.0
O292 O 0.59867 0.3279 0.39317 0.0
O293 O 0.64131 0.34049 0.40597 0.0
C294 C 0.61681 0.32098 0.39944 0.0
C295 C 0.71802 0.4147 0.41458 0.0
C296 C 0.62721 0.3963 0.44935 0.0
C297 C 0.64893 0.41603 0.36612 0.0
O298 O 0.66748 0.4292 0.38257 0.0
O299 O 0.63137 0.39024 0.36908 0.0
O300 O 0.71636 0.43659 0.41982 0.0
O301 O 0.69507 0.39156 0.41068 0.0
O302 O 0.25555 0.61342 0.60942 0.0
Cd303 Cd 0.27904 0.62346 0.57692 0.0
Cd304 Cd 0.26534 0.66455 0.576 0.0
O305 O 0.24483 0.64686 0.6093 0.0
O306 O 0.29801 0.60078 0.57809 0.0
O307 O 0.32073 0.64682 0.58054 0.0
C308 C 0.32125 0.62378 0.58083 0.0
C309 C 0.30314 0.70989 0.57356 0.0
C310 C 0.2435 0.62543 0.61943 0.0
C311 C 0.24537 0.62489 0.53282 0.0
O312 O 0.24516 0.64539 0.54331 0.0
O313 O 0.25842 0.6139 0.54276 0.0
O314 O 0.27788 0.70528 0.57399 0.0
O315 O 0.30681 0.68867 0.57518 0.0
O316 O 0.64314 0.24366 0.77879 0.0
Cd317 Cd 0.66332 0.26676 0.74709 0.0
Cd318 Cd 0.61432 0.26606 0.74207 0.0
O319 O 0.60512 0.24684 0.77664 0.0
O320 O 0.70393 0.28129 0.75288 0.0
O321 O 0.68587 0.30866 0.74771 0.0
C322 C 0.70745 0.30611 0.75158 0.0
C323 C 0.61272 0.30696 0.7358 0.0
C324 C 0.61976 0.23843 0.78784 0.0
C325 C 0.62909 0.23745 0.70199 0.0
O326 O 0.61046 0.24179 0.71125 0.0
O327 O 0.65257 0.24687 0.71268 0.0
O328 O 0.59023 0.2829 0.73633 0.0
O329 O 0.63615 0.30776 0.7392 0.0
O330 O 0.42378 0.64469 0.9457 0.0
Cd331 Cd 0.42076 0.66268 0.91278 0.0
Cd332 Cd 0.36563 0.61756 0.91345 0.0
O333 O 0.37905 0.6133 0.94836 0.0
O334 O 0.44678 0.7038 0.91449 0.0
O335 O 0.4008 0.68442 0.91448 0.0
C336 C 0.42509 0.70667 0.91581 0.0
C337 C 0.31703 0.59752 0.90889 0.0
C338 C 0.40348 0.62503 0.9575 0.0
C339 C 0.40602 0.62267 0.87109 0.0
O340 O 0.38279 0.60959 0.88247 0.0
O341 O 0.42506 0.64607 0.8793 0.0
O342 O 0.32862 0.58278 0.91263 0.0
O343 O 0.33296 0.62428 0.90851 0.0
O344 O 0.79242 0.38834 0.04783 0.0
Cd345 Cd 0.76944 0.36838 0.07947 0.0
Cd346 Cd 0.75583 0.4093 0.07871 0.0
O347 O 0.77797 0.41887 0.04546 0.0
O348 O 0.75518 0.32732 0.07726 0.0
O349 O 0.72813 0.34611 0.07505 0.0
C350 C 0.73065 0.32414 0.07415 0.0
C351 C 0.71596 0.41374 0.08127 0.0
C352 C 0.79224 0.40857 0.03672 0.0
C353 C 0.78935 0.40713 0.12289 0.0
O354 O 0.77851 0.41939 0.11134 0.0
O355 O 0.78741 0.38489 0.114 0.0
O356 O 0.74058 0.43521 0.07976 0.0
O357 O 0.71374 0.38941 0.08044 0.0
O358 O 0.42982 0.79054 0.22654 0.0
Cd359 Cd 0.41022 0.76254 0.2552 0.0
Cd360 Cd 0.36556 0.76445 0.23639 0.0
O361 O 0.3925 0.78461 0.2065 0.0
O362 O 0.43692 0.75039 0.26596 0.0
O363 O 0.39663 0.72197 0.24775 0.0
C364 C 0.41986 0.72608 0.25705 0.0
C365 C 0.31834 0.73107 0.23116 0.0
C366 C 0.41886 0.7955 0.20782 0.0
C367 C 0.38682 0.7894 0.28759 0.0
O368 O 0.37213 0.7875 0.26867 0.0
O369 O 0.40221 0.77847 0.28716 0.0
O370 O 0.32806 0.75696 0.22556 0.0
O371 O 0.33589 0.72357 0.23823 0.0
H372 H 0.17704 0.6008 0.28185 0.0
H373 H 0.13541 0.6447 0.2562 0.0
H374 H 0.17906 0.68038 0.23605 0.0
H375 H 0.24008 0.66148 0.29819 0.0
H376 H 0.26245 0.64819 0.28873 0.0
H377 H 0.22728 0.62445 0.29865 0.0
H378 H 0.2178 0.5977 0.25667 0.0
H379 H 0.25296 0.62149 0.24658 0.0
H380 H 0.224 0.61639 0.22754 0.0
H381 H 0.22724 0.71235 0.22073 0.0
H382 H 0.27785 0.74096 0.21402 0.0
H383 H 0.28962 0.67774 0.25083 0.0
C384 C 0.17714 0.61771 0.2716 0.0
C385 C 0.15292 0.62 0.27029 0.0
C386 C 0.15381 0.64266 0.25727 0.0
C387 C 0.17843 0.66288 0.24569 0.0
C388 C 0.20206 0.66024 0.24745 0.0
C389 C 0.20176 0.63838 0.26022 0.0
C390 C 0.2307 0.64187 0.26107 0.0
C391 C 0.24071 0.64414 0.28827 0.0
C392 C 0.2314 0.61794 0.24713 0.0
C393 C 0.24736 0.66932 0.24716 0.0
C394 C 0.23027 0.67926 0.23914 0.0
C395 C 0.24081 0.70471 0.22676 0.0
C396 C 0.26965 0.72082 0.22302 0.0
C397 C 0.28779 0.71161 0.23179 0.0
C398 C 0.27632 0.68521 0.24358 0.0
H399 H 0.57956 0.1792 0.46872 0.0
H400 H 0.54152 0.13609 0.39953 0.0
H401 H 0.55788 0.18146 0.37834 0.0
H402 H 0.5641 0.23333 0.46302 0.0
H403 H 0.59673 0.26025 0.47558 0.0
H404 H 0.5832 0.2245 0.48487 0.0
H405 H 0.6291 0.22708 0.47056 0.0
H406 H 0.6428 0.26289 0.46121 0.0
H407 H 0.64144 0.23773 0.43898 0.0
H408 H 0.57339 0.23108 0.36633 0.0
H409 H 0.59096 0.28188 0.36317 0.0
H410 H 0.62309 0.29325 0.43873 0.0
C411 C 0.57501 0.17944 0.44904 0.0
C412 C 0.55932 0.15428 0.43567 0.0
C413 C 0.55371 0.15522 0.40996 0.0
C414 C 0.56285 0.18085 0.39783 0.0
C415 C 0.57808 0.20534 0.41157 0.0
C416 C 0.58454 0.20489 0.43649 0.0
C417 C 0.601 0.2342 0.447 0.0
C418 C 0.58531 0.2383 0.46891 0.0
C419 C 0.63033 0.24086 0.4549 0.0
C420 C 0.60214 0.25117 0.4243 0.0
C421 C 0.58861 0.2341 0.4041 0.0
C422 C 0.58465 0.24472 0.38179 0.0
C423 C 0.59463 0.27351 0.38015 0.0
C424 C 0.60892 0.29134 0.40046 0.0
C425 C 0.61302 0.28007 0.42267 0.0
H426 H 0.41615 0.55406 0.59044 0.0
H427 H 0.46842 0.62086 0.642 0.0
H428 H 0.44168 0.64406 0.63271 0.0
H429 H 0.4019 0.59444 0.54569 0.0
H430 H 0.36592 0.5678 0.54202 0.0
H431 H 0.39162 0.55821 0.54975 0.0
H432 H 0.36293 0.53154 0.58893 0.0
H433 H 0.3371 0.54088 0.58124 0.0
H434 H 0.35346 0.54952 0.61158 0.0
H435 H 0.40809 0.65955 0.61899 0.0
H436 H 0.36717 0.66297 0.60587 0.0
H437 H 0.33359 0.58333 0.56785 0.0
C438 C 0.42215 0.57348 0.6 0.0
C439 C 0.44501 0.58557 0.61676 0.0
C440 C 0.45182 0.61132 0.62841 0.0
C441 C 0.43654 0.62469 0.62341 0.0
C442 C 0.41409 0.61196 0.60705 0.0
C443 C 0.40665 0.58672 0.59582 0.0
C444 C 0.37998 0.57604 0.58097 0.0
C445 C 0.38518 0.57401 0.55294 0.0
C446 C 0.35702 0.54783 0.59131 0.0
C447 C 0.37338 0.59905 0.5859 0.0
C448 C 0.39366 0.61991 0.6005 0.0
C449 C 0.39207 0.64333 0.60756 0.0
C450 C 0.36883 0.64515 0.59995 0.0
C451 C 0.34723 0.62339 0.58592 0.0
C452 C 0.34978 0.60025 0.5786 0.0
H453 H 0.86206 0.393 0.80395 0.0
H454 H 0.87596 0.4589 0.7515 0.0
H455 H 0.82702 0.43168 0.73835 0.0
H456 H 0.82026 0.33716 0.76135 0.0
H457 H 0.79811 0.3143 0.78579 0.0
H458 H 0.83368 0.34006 0.7926 0.0
H459 H 0.81678 0.36008 0.82803 0.0
H460 H 0.78113 0.33451 0.82124 0.0
H461 H 0.79201 0.37112 0.82097 0.0
H462 H 0.77565 0.3974 0.73162 0.0
H463 H 0.7279 0.35667 0.72847 0.0
H464 H 0.74993 0.31121 0.78095 0.0
C465 C 0.85525 0.4018 0.78942 0.0
C466 C 0.87332 0.42854 0.7791 0.0
C467 C 0.86271 0.43899 0.76043 0.0
C468 C 0.83486 0.42352 0.7526 0.0
C469 C 0.81785 0.39734 0.76318 0.0
C470 C 0.8278 0.38637 0.78087 0.0
C471 C 0.80576 0.35708 0.78831 0.0
C472 C 0.81501 0.3359 0.7816 0.0
C473 C 0.7985 0.35563 0.8163 0.0
C474 C 0.78181 0.35326 0.77203 0.0
C475 C 0.789 0.3769 0.75801 0.0
C476 C 0.7699 0.37868 0.74231 0.0
C477 C 0.74285 0.35554 0.7407 0.0
C478 C 0.73546 0.33082 0.75426 0.0
C479 C 0.75521 0.32976 0.77012 0.0
H480 H 0.50829 0.86989 0.945 0.0
H481 H 0.42859 0.86401 0.96036 0.0
H482 H 0.40445 0.81463 0.94733 0.0
H483 H 0.48675 0.82367 0.89135 0.0
H484 H 0.50754 0.80834 0.90002 0.0
H485 H 0.51849 0.84378 0.9088 0.0
H486 H 0.52038 0.83169 0.95537 0.0
H487 H 0.50956 0.79627 0.94673 0.0
H488 H 0.48995 0.80321 0.96974 0.0
H489 H 0.38895 0.76502 0.93425 0.0
H490 H 0.3836 0.71913 0.92359 0.0
H491 H 0.47349 0.75723 0.9184 0.0
C492 C 0.48576 0.8583 0.94574 0.0
C493 C 0.47043 0.87109 0.95365 0.0
C494 C 0.44091 0.85501 0.95396 0.0
C495 C 0.42696 0.82684 0.94671 0.0
C496 C 0.44276 0.81492 0.93922 0.0
C497 C 0.47152 0.83014 0.93876 0.0
C498 C 0.48371 0.81213 0.93101 0.0
C499 C 0.50008 0.82261 0.90633 0.0
C500 C 0.50197 0.81074 0.95196 0.0
C501 C 0.45732 0.78429 0.9275 0.0
C502 C 0.4339 0.78636 0.93209 0.0
C503 C 0.40716 0.7632 0.93051 0.0
C504 C 0.40432 0.73722 0.92441 0.0
C505 C 0.42809 0.73453 0.92011 0.0
C506 C 0.45488 0.75855 0.92146 0.0
H507 H 0.63989 0.49849 0.1172 0.0
H508 H 0.56184 0.41976 0.11903 0.0
H509 H 0.58651 0.39522 0.10536 0.0
H510 H 0.66856 0.48322 0.06186 0.0
H511 H 0.70356 0.50096 0.07397 0.0
H512 H 0.67946 0.51225 0.083 0.0
H513 H 0.68774 0.50627 0.12979 0.0
H514 H 0.71182 0.49495 0.12091 0.0
H515 H 0.68239 0.47311 0.14063 0.0
H516 H 0.62045 0.37909 0.09308 0.0
H517 H 0.66073 0.37293 0.08348 0.0
H518 H 0.71586 0.46252 0.08874 0.0
C519 C 0.62783 0.47615 0.1143 0.0
C520 C 0.59887 0.46109 0.11916 0.0
C521 C 0.58408 0.43175 0.11569 0.0
C522 C 0.59788 0.41764 0.10776 0.0
C523 C 0.62647 0.43315 0.10327 0.0
C524 C 0.64123 0.46178 0.10636 0.0
C525 C 0.67194 0.47356 0.10109 0.0
C526 C 0.68143 0.49368 0.07864 0.0
C527 C 0.6895 0.4878 0.1245 0.0
C528 C 0.67223 0.44707 0.09478 0.0
C529 C 0.64583 0.42395 0.09605 0.0
C530 C 0.64119 0.39708 0.09183 0.0
C531 C 0.66418 0.39378 0.08639 0.0
C532 C 0.69143 0.41723 0.08521 0.0
C533 C 0.69529 0.44417 0.08924 0.0
H534 H 0.3786 0.87146 0.53696 0.0
H535 H 0.45741 0.87328 0.54412 0.0
H536 H 0.43237 0.82399 0.5576 0.0
H537 H 0.34465 0.82658 0.5911 0.0
H538 H 0.31116 0.80833 0.576 0.0
H539 H 0.33539 0.84409 0.56786 0.0
H540 H 0.33257 0.83005 0.52119 0.0
H541 H 0.3084 0.79427 0.52918 0.0
H542 H 0.34005 0.80301 0.51251 0.0
H543 H 0.39863 0.77387 0.56857 0.0
H544 H 0.35865 0.7267 0.5763 0.0
H545 H 0.30187 0.75778 0.5629 0.0
C546 C 0.39065 0.86165 0.54176 0.0
C547 C 0.42002 0.8763 0.53944 0.0
C548 C 0.43491 0.86245 0.54545 0.0
C549 C 0.42088 0.83449 0.55329 0.0
C550 C 0.39193 0.82062 0.55514 0.0
C551 C 0.37698 0.83375 0.54963 0.0
C552 C 0.34594 0.81388 0.55242 0.0
C553 C 0.33356 0.82382 0.57307 0.0
C554 C 0.33086 0.81008 0.52733 0.0
C555 C 0.34575 0.78745 0.5601 0.0
C556 C 0.37251 0.79181 0.56164 0.0
C557 C 0.37759 0.77027 0.56761 0.0
C558 C 0.35474 0.74352 0.57195 0.0
C559 C 0.32712 0.73853 0.57034 0.0
C560 C 0.32271 0.76094 0.56453 0.0
H561 H 0.54131 0.39581 0.69758 0.0
H562 H 0.62273 0.47031 0.70348 0.0
H563 H 0.64298 0.44128 0.71591 0.0
H564 H 0.54861 0.35989 0.7511 0.0
H565 H 0.53002 0.32605 0.7365 0.0
H566 H 0.52204 0.35278 0.72821 0.0
H567 H 0.53137 0.3476 0.68147 0.0
H568 H 0.53943 0.32089 0.68961 0.0
H569 H 0.56437 0.35126 0.6724 0.0
H570 H 0.65444 0.40382 0.72712 0.0
H571 H 0.65613 0.36095 0.73631 0.0
H572 H 0.56695 0.31129 0.72399 0.0
C573 C 0.56334 0.40612 0.7018 0.0
C574 C 0.58041 0.4354 0.69954 0.0
C575 C 0.60926 0.44791 0.70477 0.0
C576 C 0.62093 0.43161 0.712 0.0
C577 C 0.60349 0.40282 0.71398 0.0
C578 C 0.5753 0.3902 0.70907 0.0
C579 C 0.56114 0.35884 0.71228 0.0
C580 C 0.53916 0.34881 0.73327 0.0
C581 C 0.54833 0.34377 0.68746 0.0
C582 C 0.58578 0.35575 0.71971 0.0
C583 C 0.61003 0.38135 0.72058 0.0
C584 C 0.63555 0.38368 0.72659 0.0
C585 C 0.6363 0.35921 0.73177 0.0
C586 C 0.61167 0.33276 0.73095 0.0
C587 C 0.58612 0.33117 0.72492 0.0
H588 H 0.17035 0.58438 0.87337 0.0
H589 H 0.13837 0.49511 0.86711 0.0
H590 H 0.18358 0.50191 0.88063 0.0
H591 H 0.23837 0.60451 0.8482 0.0
H592 H 0.25655 0.63431 0.86849 0.0
H593 H 0.22105 0.62254 0.85963 0.0
H594 H 0.20704 0.61819 0.90644 0.0
H595 H 0.24247 0.62979 0.91546 0.0
H596 H 0.21458 0.597 0.92699 0.0
H597 H 0.23151 0.51756 0.89464 0.0
H598 H 0.28113 0.54172 0.90558 0.0
H599 H 0.2843 0.62159 0.9006 0.0
C600 C 0.17283 0.56625 0.8747 0.0
C601 C 0.15038 0.53909 0.8696 0.0
C602 C 0.15475 0.51602 0.87165 0.0
C603 C 0.1805 0.51966 0.87914 0.0
C604 C 0.20195 0.54655 0.88426 0.0
C605 C 0.19862 0.56953 0.8819 0.0
C606 C 0.22565 0.59624 0.88764 0.0
C607 C 0.23602 0.61554 0.86462 0.0
C608 C 0.22222 0.61118 0.91049 0.0
C609 C 0.24462 0.58458 0.8935 0.0
C610 C 0.2303 0.55582 0.89163 0.0
C611 C 0.243 0.54008 0.89612 0.0
C612 C 0.27126 0.55407 0.90238 0.0
C613 C 0.2867 0.5836 0.90394 0.0
C614 C 0.27307 0.59902 0.8996 0.0
H615 H 0.65074 0.15935 0.05175 0.0
H616 H 0.58554 0.16834 0.01558 0.0
H617 H 0.60979 0.21801 0.02699 0.0
H618 H 0.66598 0.20841 0.10209 0.0
H619 H 0.70307 0.22212 0.1005 0.0
H620 H 0.67945 0.18654 0.09146 0.0
H621 H 0.70347 0.19581 0.04802 0.0
H622 H 0.72726 0.23133 0.05699 0.0
H623 H 0.70662 0.22416 0.02903 0.0
H624 H 0.64147 0.26716 0.04175 0.0
H625 H 0.6802 0.31278 0.05547 0.0
H626 H 0.72665 0.27278 0.07876 0.0
C627 C 0.64149 0.17162 0.04602 0.0
C628 C 0.6158 0.15941 0.03299 0.0
C629 C 0.60464 0.17663 0.0262 0.0
C630 C 0.6184 0.20506 0.03244 0.0
C631 C 0.64358 0.21627 0.04523 0.0
C632 C 0.65519 0.20017 0.05169 0.0
C633 C 0.68333 0.21772 0.06404 0.0
C634 C 0.68292 0.20812 0.09113 0.0
C635 C 0.70654 0.21723 0.04859 0.0
C636 C 0.68581 0.24625 0.06331 0.0
C637 C 0.66245 0.24486 0.05274 0.0
C638 C 0.65988 0.26851 0.05004 0.0
C639 C 0.68196 0.29432 0.05797 0.0
C640 C 0.70648 0.29639 0.06815 0.0
C641 C 0.70821 0.27191 0.07103 0.0
H642 H 0.45759 0.6205 0.19018 0.0
H643 H 0.49581 0.61743 0.25991 0.0
H644 H 0.47971 0.64711 0.28009 0.0
H645 H 0.47326 0.69082 0.19449 0.0
H646 H 0.44059 0.68448 0.18162 0.0
H647 H 0.45441 0.66236 0.17297 0.0
H648 H 0.40857 0.61894 0.18754 0.0
H649 H 0.39464 0.64097 0.19633 0.0
H650 H 0.39612 0.61766 0.21902 0.0
H651 H 0.4635 0.68067 0.29136 0.0
H652 H 0.44538 0.71335 0.29384 0.0
H653 H 0.41394 0.69147 0.2181 0.0
C654 C 0.4624 0.62602 0.20972 0.0
C655 C 0.47796 0.6168 0.22355 0.0
C656 C 0.48377 0.62421 0.2491 0.0
C657 C 0.47476 0.64106 0.26068 0.0
C658 C 0.45951 0.64989 0.24654 0.0
C659 C 0.45306 0.64237 0.22171 0.0
C660 C 0.43646 0.65477 0.21076 0.0
C661 C 0.45212 0.67427 0.18866 0.0
C662 C 0.40721 0.6317 0.20296 0.0
C663 C 0.43513 0.67095 0.23314 0.0
C664 C 0.44871 0.66796 0.25354 0.0
C665 C 0.4523 0.68271 0.2757 0.0
C666 C 0.44197 0.70119 0.27696 0.0
C667 C 0.42777 0.70433 0.2564 0.0
C668 C 0.42396 0.68872 0.23435 0.0
H669 H 0.87935 0.49265 0.37985 0.0
H670 H 0.87325 0.41147 0.37546 0.0
H671 H 0.82413 0.38912 0.38913 0.0
H672 H 0.83602 0.47778 0.43582 0.0
H673 H 0.82063 0.49778 0.42488 0.0
H674 H 0.85552 0.50733 0.41547 0.0
H675 H 0.84138 0.50405 0.36883 0.0
H676 H 0.80649 0.49449 0.37808 0.0
H677 H 0.81224 0.47219 0.35728 0.0
H678 H 0.77459 0.37544 0.40111 0.0
H679 H 0.72924 0.37184 0.4108 0.0
H680 H 0.7688 0.46215 0.40943 0.0
C681 C 0.86796 0.47021 0.38221 0.0
C682 C 0.88036 0.45389 0.37651 0.0
C683 C 0.86425 0.42449 0.37933 0.0
C684 C 0.83635 0.41159 0.3873 0.0
C685 C 0.82482 0.42833 0.39262 0.0
C686 C 0.8402 0.45703 0.39032 0.0
C687 C 0.82277 0.4703 0.39655 0.0
C688 C 0.83443 0.48942 0.41955 0.0
C689 C 0.82059 0.48618 0.37383 0.0
C690 C 0.79505 0.44456 0.4024 0.0
C691 C 0.79662 0.42053 0.40006 0.0
C692 C 0.77323 0.39415 0.40329 0.0
C693 C 0.74755 0.3923 0.40879 0.0
C694 C 0.7455 0.41669 0.41115 0.0
C695 C 0.76973 0.44311 0.4082 0.0
H696 H 0.13744 0.60571 0.42526 0.0
H697 H 0.13655 0.52944 0.40436 0.0
H698 H 0.173 0.53949 0.43556 0.0
H699 H 0.21149 0.64769 0.43806 0.0
H700 H 0.20658 0.66481 0.46469 0.0
H701 H 0.18187 0.6528 0.43935 0.0
H702 H 0.14178 0.62378 0.47063 0.0
H703 H 0.16633 0.63577 0.49604 0.0
H704 H 0.14404 0.59889 0.49078 0.0
H705 H 0.20816 0.55667 0.4703 0.0
H706 H 0.23821 0.57891 0.50698 0.0
H707 H 0.21495 0.64303 0.50636 0.0
C708 C 0.14483 0.59105 0.42721 0.0
C709 C 0.13417 0.56687 0.41206 0.0
C710 C 0.14472 0.54843 0.41523 0.0
C711 C 0.16535 0.55387 0.43304 0.0
C712 C 0.17525 0.57778 0.44768 0.0
C713 C 0.16529 0.59604 0.44503 0.0
C714 C 0.1785 0.61957 0.46392 0.0
C715 C 0.19563 0.64789 0.45071 0.0
C716 C 0.15634 0.61948 0.48138 0.0
C717 C 0.19716 0.61146 0.47783 0.0
C718 C 0.19517 0.58744 0.46802 0.0
C719 C 0.20998 0.57556 0.47808 0.0
C720 C 0.22703 0.58839 0.49893 0.0
C721 C 0.22902 0.61276 0.50961 0.0
C722 C 0.21403 0.6245 0.49864 0.0
H723 H 0.53619 0.11483 0.60716 0.0
H724 H 0.60693 0.15003 0.55604 0.0
H725 H 0.63441 0.18637 0.58701 0.0
H726 H 0.54683 0.18189 0.62758 0.0
H727 H 0.53524 0.16999 0.6591 0.0
H728 H 0.52156 0.14576 0.63338 0.0
H729 H 0.53705 0.11406 0.65531 0.0
H730 H 0.55095 0.13826 0.68102 0.0
H731 H 0.57298 0.12843 0.66428 0.0
H732 H 0.65508 0.21784 0.62467 0.0
H733 H 0.66538 0.24492 0.66407 0.0
H734 H 0.57956 0.19273 0.6878 0.0
C735 C 0.55727 0.13031 0.60207 0.0
C736 C 0.56927 0.12898 0.57902 0.0
C737 C 0.59725 0.14975 0.57373 0.0
C738 C 0.61307 0.17076 0.59116 0.0
C739 C 0.60054 0.17122 0.61364 0.0
C740 C 0.57313 0.15184 0.61893 0.0
C741 C 0.56421 0.15761 0.64401 0.0
C742 C 0.54057 0.16421 0.64081 0.0
C743 C 0.55581 0.13313 0.66223 0.0
C744 C 0.59098 0.18317 0.6521 0.0
C745 C 0.61184 0.19046 0.6345 0.0
C746 C 0.63881 0.21256 0.63843 0.0
C747 C 0.6445 0.22773 0.66084 0.0
C748 C 0.62318 0.22106 0.67872 0.0
C749 C 0.59612 0.19853 0.67421 0.0
H750 H 0.48933 0.60145 0.7576 0.0
H751 H 0.41758 0.51801 0.75036 0.0
H752 H 0.3936 0.52846 0.7836 0.0
H753 H 0.48617 0.60342 0.82511 0.0
H754 H 0.49692 0.63998 0.82647 0.0
H755 H 0.5083 0.62681 0.80093 0.0
H756 H 0.48785 0.64711 0.76924 0.0
H757 H 0.47627 0.66022 0.79469 0.0
H758 H 0.45169 0.63746 0.77163 0.0
H759 H 0.37703 0.54702 0.81717 0.0
H760 H 0.36968 0.57166 0.85182 0.0
H761 H 0.45276 0.64271 0.84029 0.0
C762 C 0.46863 0.58531 0.76304 0.0
C763 C 0.45523 0.55904 0.75081 0.0
C764 C 0.42808 0.5386 0.75868 0.0
C765 C 0.41429 0.54424 0.77775 0.0
C766 C 0.42793 0.5703 0.78915 0.0
C767 C 0.45457 0.59046 0.78237 0.0
C768 C 0.4647 0.61636 0.79856 0.0
C769 C 0.49055 0.62196 0.81367 0.0
C770 C 0.47046 0.64179 0.78257 0.0
C771 C 0.43956 0.60743 0.81549 0.0
C772 C 0.41859 0.58086 0.80945 0.0
C773 C 0.3933 0.56782 0.82216 0.0
C774 C 0.38935 0.58211 0.84186 0.0
C775 C 0.41065 0.6092 0.84895 0.0
C776 C 0.43606 0.62208 0.83538 0.0
H777 H 0.89678 0.42501 0.92574 0.0
H778 H 0.90864 0.50794 0.91367 0.0
H779 H 0.87353 0.49901 0.94595 0.0
H780 H 0.82306 0.38941 0.93922 0.0
H781 H 0.82505 0.36811 0.96373 0.0
H782 H 0.84979 0.37998 0.93828 0.0
H783 H 0.89051 0.40234 0.96996 0.0
H784 H 0.86592 0.39043 0.99549 0.0
H785 H 0.89154 0.42694 0.99267 0.0
H786 H 0.83758 0.48171 0.97966 0.0
H787 H 0.80563 0.45843 0.01505 0.0
H788 H 0.81933 0.38806 0.00787 0.0
C789 C 0.89218 0.44142 0.92989 0.0
C790 C 0.90534 0.46705 0.91662 0.0
C791 C 0.89839 0.48777 0.9228 0.0
C792 C 0.87856 0.48301 0.94132 0.0
C793 C 0.866 0.45756 0.95386 0.0
C794 C 0.87271 0.4372 0.94864 0.0
C795 C 0.85712 0.41225 0.96587 0.0
C796 C 0.8376 0.38588 0.95087 0.0
C797 C 0.87749 0.40774 0.98195 0.0
C798 C 0.84077 0.42191 0.98165 0.0
C799 C 0.84598 0.44797 0.97415 0.0
C800 C 0.83334 0.46131 0.98575 0.0
C801 C 0.81515 0.44785 0.00581 0.0
C802 C 0.80997 0.42142 0.01431 0.0
C803 C 0.82288 0.40826 1.00188 0.0
H804 H 0.45848 0.88558 0.08145 0.0
H805 H 0.54195 0.93465 0.11212 0.0
H806 H 0.52825 0.90273 0.14796 0.0
H807 H 0.42395 0.87516 0.14048 0.0
H808 H 0.39637 0.84037 0.13325 0.0
H809 H 0.4133 0.86536 0.10845 0.0
H810 H 0.42524 0.83112 0.08609 0.0
H811 H 0.40843 0.80604 0.11089 0.0
H812 H 0.44416 0.81759 0.10277 0.0
H813 H 0.50581 0.86648 0.18096 0.0
H814 H 0.47499 0.83034 0.2109 0.0
H815 H 0.40466 0.80683 0.16135 0.0
C816 C 0.47397 0.88984 0.09567 0.0
C817 C 0.50157 0.91265 0.09343 0.0
C818 C 0.52098 0.91699 0.11265 0.0
C819 C 0.51334 0.89905 0.13332 0.0
C820 C 0.48607 0.87697 0.13487 0.0
C821 C 0.46656 0.87244 0.11675 0.0
C822 C 0.43815 0.84819 0.12386 0.0
C823 C 0.41668 0.85786 0.12668 0.0
C824 C 0.42843 0.82432 0.10476 0.0
C825 C 0.44477 0.84002 0.14893 0.0
C826 C 0.47265 0.85667 0.15466 0.0
C827 C 0.48392 0.85331 0.17672 0.0
C828 C 0.46619 0.83262 0.19359 0.0
C829 C 0.43732 0.81569 0.18856 0.0
C830 C 0.42658 0.8194 0.16578 0.0
H831 H 0.57071 0.44989 0.25848 0.0
H832 H 0.64467 0.53185 0.25274 0.0
H833 H 0.66868 0.51752 0.28296 0.0
H834 H 0.5748 0.4421 0.3239 0.0
H835 H 0.56259 0.40522 0.32258 0.0
H836 H 0.55198 0.42117 0.299 0.0
H837 H 0.57089 0.40218 0.26437 0.0
H838 H 0.58166 0.38623 0.28788 0.0
H839 H 0.60662 0.41018 0.26555 0.0
H840 H 0.68358 0.49558 0.31589 0.0
H841 H 0.6883 0.46766 0.34944 0.0
H842 H 0.60468 0.39983 0.33402 0.0
C843 C 0.59197 0.46483 0.26353 0.0
C844 C 0.60582 0.49199 0.2531 0.0
C845 C 0.63374 0.51079 0.26011 0.0
C846 C 0.64754 0.50288 0.27736 0.0
C847 C 0.63322 0.47605 0.28738 0.0
C848 C 0.60608 0.45728 0.28071 0.0
C849 C 0.59504 0.4301 0.29503 0.0
C850 C 0.5696 0.42432 0.31108 0.0
C851 C 0.58815 0.40573 0.27714 0.0
C852 C 0.62003 0.43675 0.31118 0.0
C853 C 0.64188 0.4633 0.30633 0.0
C854 C 0.66672 0.47466 0.31969 0.0
C855 C 0.66918 0.45863 0.33874 0.0
C856 C 0.64693 0.43148 0.3443 0.0
C857 C 0.62222 0.42033 0.33001 0.0
H858 H 0.45659 0.89362 0.40231 0.0
H859 H 0.38683 0.9084 0.39987 0.0
H860 H 0.36433 0.87174 0.36773 0.0
H861 H 0.45999 0.88439 0.33731 0.0
H862 H 0.46899 0.85743 0.34019 0.0
H863 H 0.4784 0.88305 0.36457 0.0
H864 H 0.45244 0.84359 0.39718 0.0
H865 H 0.44287 0.81782 0.37285 0.0
H866 H 0.41631 0.81799 0.39226 0.0
H867 H 0.35133 0.8365 0.33344 0.0
H868 H 0.34852 0.80482 0.2996 0.0
H869 H 0.42652 0.81254 0.32443 0.0
C870 C 0.43652 0.88907 0.3951 0.0
C871 C 0.42343 0.90385 0.4037 0.0
C872 C 0.39708 0.8971 0.39389 0.0
C873 C 0.38417 0.87637 0.37555 0.0
C874 C 0.39778 0.86242 0.36733 0.0
C875 C 0.42331 0.86839 0.37685 0.0
C876 C 0.43408 0.85122 0.364 0.0
C877 C 0.46201 0.87016 0.35073 0.0
C878 C 0.43656 0.83148 0.38269 0.0
C879 C 0.41092 0.83515 0.34535 0.0
C880 C 0.3901 0.8418 0.3477 0.0
C881 C 0.36732 0.83085 0.33162 0.0
C882 C 0.36594 0.81292 0.31242 0.0
C883 C 0.38718 0.80604 0.30947 0.0
C884 C 0.40971 0.81701 0.32646 0.0
H885 H 0.60085 0.47726 0.56077 0.0
H886 H 0.51589 0.40773 0.56365 0.0
H887 H 0.52754 0.38308 0.5317 0.0
H888 H 0.60903 0.47578 0.49452 0.0
H889 H 0.64505 0.48476 0.49596 0.0
H890 H 0.63057 0.49632 0.52023 0.0
H891 H 0.64591 0.47289 0.55366 0.0
H892 H 0.66033 0.46114 0.52946 0.0
H893 H 0.63476 0.43632 0.55089 0.0
H894 H 0.54744 0.36676 0.49828 0.0
H895 H 0.57408 0.36009 0.46473 0.0
H896 H 0.64628 0.44029 0.48266 0.0
C897 C 0.58467 0.45687 0.55467 0.0
C898 C 0.55747 0.44438 0.56496 0.0
C899 C 0.53701 0.41755 0.55651 0.0
C900 C 0.54338 0.40341 0.53825 0.0
C901 C 0.57033 0.4163 0.52855 0.0
C902 C 0.59066 0.44243 0.53639 0.0
C903 C 0.61773 0.45194 0.52225 0.0
C904 C 0.62608 0.47879 0.50735 0.0
C905 C 0.64106 0.4558 0.54014 0.0
C906 C 0.60927 0.42722 0.50498 0.0
C907 C 0.58187 0.40686 0.50908 0.0
C908 C 0.56896 0.38247 0.49497 0.0
C909 C 0.5843 0.37891 0.47592 0.0
C910 C 0.61233 0.39962 0.47104 0.0
C911 C 0.62502 0.42393 0.48606 0.0
H912 H 0.11418 0.57606 0.71221 0.0
H913 H 0.15191 0.54003 0.75926 0.0
H914 H 0.19152 0.55731 0.73002 0.0
H915 H 0.13493 0.56292 0.6534 0.0
H916 H 0.14228 0.59563 0.63962 0.0
H917 H 0.11663 0.58023 0.66415 0.0
H918 H 0.143 0.6256 0.69023 0.0
H919 H 0.16874 0.64118 0.66575 0.0
H920 H 0.17935 0.63938 0.69725 0.0
H921 H 0.22588 0.57628 0.69451 0.0
H922 H 0.25389 0.59808 0.65644 0.0
H923 H 0.19627 0.62562 0.6346 0.0
C924 C 0.1309 0.5721 0.7167 0.0
C925 C 0.12954 0.55631 0.73808 0.0
C926 C 0.15188 0.55138 0.74278 0.0
C927 C 0.1747 0.56137 0.72638 0.0
C928 C 0.17522 0.5767 0.70552 0.0
C929 C 0.15408 0.58233 0.70077 0.0
C930 C 0.15983 0.59951 0.6771 0.0
C931 C 0.13707 0.58362 0.65741 0.0
C932 C 0.16292 0.62811 0.68294 0.0
C933 C 0.18738 0.60236 0.6691 0.0
C934 C 0.19577 0.58887 0.68569 0.0
C935 C 0.21972 0.58723 0.68158 0.0
C936 C 0.23544 0.5996 0.65989 0.0
C937 C 0.2274 0.61378 0.64278 0.0
C938 C 0.20319 0.61538 0.64763 0.0
H939 H 0.6052 0.12516 0.88819 0.0
H940 H 0.53403 0.12778 0.91904 0.0
H941 H 0.54153 0.16443 0.88861 0.0
H942 H 0.648 0.20001 0.87714 0.0
H943 H 0.66263 0.19553 0.84851 0.0
H944 H 0.65195 0.16985 0.87307 0.0
H945 H 0.61997 0.13116 0.84186 0.0
H946 H 0.63053 0.1567 0.81723 0.0
H947 H 0.5941 0.13485 0.82462 0.0
H948 H 0.55562 0.19947 0.8536 0.0
H949 H 0.57561 0.23061 0.81697 0.0
H950 H 0.63875 0.20652 0.81024 0.0
C951 C 0.59141 0.13369 0.88885 0.0
C952 C 0.56892 0.12341 0.90602 0.0
C953 C 0.55112 0.1349 0.90585 0.0
C954 C 0.55534 0.15592 0.88876 0.0
C955 C 0.5776 0.16543 0.87204 0.0
C956 C 0.59542 0.15478 0.87203 0.0
C957 C 0.61746 0.16826 0.85182 0.0
C958 C 0.64675 0.18437 0.86333 0.0
C959 C 0.61537 0.14644 0.83276 0.0
C960 C 0.60907 0.18792 0.84027 0.0
C961 C 0.58604 0.186 0.85221 0.0
C962 C 0.57381 0.20133 0.84424 0.0
C963 C 0.5853 0.21894 0.82339 0.0
C964 C 0.60886 0.22118 0.8108 0.0
C965 C 0.62097 0.2056 0.81961 0.0
H966 H 0.4936 0.61134 0.06722 0.0
H967 H 0.41858 0.53509 0.08931 0.0
H968 H 0.39191 0.54418 0.05775 0.0
H969 H 0.46105 0.65252 0.05232 0.0
H970 H 0.48295 0.66875 0.02538 0.0
H971 H 0.49588 0.65786 0.05139 0.0
H972 H 0.50714 0.62793 0.02149 0.0
H973 H 0.49434 0.63878 0.9954 0.0
H974 H 0.47999 0.60215 1.00191 0.0
H975 H 0.3736 0.56008 0.02267 0.0
H976 H 0.3653 0.58047 0.985 0.0
H977 H 0.45261 0.645 0.98379 0.0
C978 C 0.47158 0.59647 0.06549 0.0
C979 C 0.45826 0.5726 0.08112 0.0
C980 C 0.42928 0.55391 0.07816 0.0
C981 C 0.41391 0.55878 0.06012 0.0
C982 C 0.42775 0.58234 0.04499 0.0
C983 C 0.45595 0.60081 0.04736 0.0
C984 C 0.46607 0.62361 0.02769 0.0
C985 C 0.47714 0.65239 0.03993 0.0
C986 C 0.48819 0.62307 0.01061 0.0
C987 C 0.4392 0.61479 0.01366 0.0
C988 C 0.41731 0.59113 0.02418 0.0
C989 C 0.39054 0.57868 0.0143 0.0
C990 C 0.38606 0.59047 0.99287 0.0
C991 C 0.40829 0.61437 0.98134 0.0
C992 C 0.43515 0.6268 0.99214 0.0
H993 H 0.9027 0.4387 0.22939 0.0
H994 H 0.9002 0.51453 0.24482 0.0
H995 H 0.86178 0.49975 0.21491 0.0
H996 H 0.89267 0.4396 0.16356 0.0
H997 H 0.87179 0.40221 0.16065 0.0
H998 H 0.89737 0.41727 0.18513 0.0
H999 H 0.85919 0.38925 0.21827 0.0
H1000 H 0.83343 0.37421 0.19387 0.0
H1001 H 0.82848 0.39253 0.21948 0.0
H1002 H 0.82515 0.47823 0.1824 0.0
H1003 H 0.79447 0.45281 0.14715 0.0
H1004 H 0.82197 0.39192 0.15038 0.0
C1005 C 0.89419 0.45231 0.22652 0.0
C1006 C 0.90445 0.4777 0.23992 0.0
C1007 C 0.89239 0.49464 0.23549 0.0
C1008 C 0.8706 0.48651 0.21836 0.0
C1009 C 0.86111 0.46147 0.20554 0.0
C1010 C 0.87261 0.44469 0.20921 0.0
C1011 C 0.85961 0.41966 0.1918 0.0
C1012 C 0.88167 0.4197 0.17424 0.0
C1013 C 0.84426 0.39229 0.20675 0.0
C1014 C 0.8393 0.42526 0.17753 0.0
C1015 C 0.84033 0.44933 0.18606 0.0
C1016 C 0.82409 0.45932 0.17558 0.0
C1017 C 0.8067 0.44466 0.15551 0.0
C1018 C 0.80575 0.42031 0.14587 0.0
C1019 C 0.82203 0.41031 0.15737 0.0
loop_
_geom_bond_atom_site_label_1
_geom_bond_atom_site_label_2
_geom_bond_distance
_geom_bond_site_symmetry_2
_ccdc_geom_bond_type
H0 C19 0.949 . S
H1 C20 0.950 . S
H2 C22 0.950 . S
H3 C23 0.950 . S
H4 C25 0.950 . S
H5 C28 0.950 . S
H6 C29 0.950 . S
H7 C31 0.951 . S
H8 C32 0.949 . S
H9 C34 0.949 . S
H10 C35 0.950 . S
H11 C37 0.950 . S
H12 C38 0.950 . S
H13 C40 0.950 1_655 S
H14 C43 0.950 . S
H15 C44 0.950 . S
H16 C46 0.951 . S
H17 C47 0.949 . S
C18 C19 1.376 . S
C18 C23 1.386 . S
C18 C24 1.483 . S
C19 H0 0.949 . S
C19 C18 1.376 . S
C19 C20 1.397 . S
C20 H1 0.950 . S
C20 C19 1.397 . S
C20 C21 1.391 . S
C21 C20 1.391 . S
C21 C22 1.405 . S
C22 H2 0.950 . S
C22 C21 1.405 . S
C22 C23 1.367 . S
C23 H3 0.950 . S
C23 C18 1.386 . S
C23 C22 1.367 . S
C24 C18 1.483 . S
C24 C25 1.382 1_655 S
C24 C26 1.403 . S
C25 H4 0.950 . S
C25 C24 1.382 1_455 S
C25 C41 1.411 . S
C26 C24 1.403 . S
C26 C27 1.489 . S
C26 C40 1.411 1_655 S
C27 C26 1.489 . S
C27 C28 1.383 . S
C27 C32 1.382 . S
C28 H5 0.950 . S
C28 C27 1.383 . S
C28 C29 1.395 . S
C29 H6 0.950 . S
C29 C28 1.395 . S
C29 C30 1.288 . S
C30 C29 1.288 . S
C30 C31 1.392 . S
C31 H7 0.951 . S
C31 C30 1.392 . S
C31 C32 1.392 . S
C32 H8 0.949 . S
C32 C27 1.382 . S
C32 C31 1.392 . S
C33 C34 1.376 . S
C33 C38 1.386 . S
C33 C39 1.483 . S
C34 H9 0.949 . S
C34 C33 1.376 . S
C34 C35 1.397 . S
C35 H10 0.950 . S
C35 C34 1.397 . S
C35 C36 1.391 . S
C36 C35 1.391 . S
C36 C37 1.405 . S
C37 H11 0.950 . S
C37 C36 1.405 . S
C37 C38 1.367 . S
C38 H12 0.950 . S
C38 C33 1.386 . S
C38 C37 1.367 . S
C39 C33 1.483 . S
C39 C40 1.382 . S
C39 C41 1.403 . S
C40 H13 0.950 1_455 S
C40 C26 1.411 1_455 S
C40 C39 1.382 . S
C41 C25 1.411 . S
C41 C39 1.403 . S
C41 C42 1.489 . S
C42 C41 1.489 . S
C42 C43 1.383 . S
C42 C47 1.382 . S
C43 H14 0.950 . S
C43 C42 1.383 . S
C43 C44 1.395 . S
C44 H15 0.950 . S
C44 C43 1.395 . S
C44 C45 1.288 . S
C45 C44 1.288 . S
C45 C46 1.392 . S
C46 H16 0.951 . S
C46 C45 1.392 . S
C46 C47 1.392 . S
C47 H17 0.949 . S
C47 C42 1.382 . S
C47 C46 1.392 . S
H48 C67 0.949 . S
H49 C68 0.950 . S
H50 C70 0.950 . S
H51 C71 0.950 . S
H52 C73 0.950 1_565 S
H53 C76 0.950 . S
H54 C77 0.950 . S
H55 C79 0.951 . S
H56 C80 0.949 . S
H57 C82 0.949 . S
H58 C83 0.950 . S
H59 C85 0.950 . S
H60 C86 0.950 . S
H61 C88 0.950 . S
H62 C91 0.950 . S
H63 C92 0.950 . S
H64 C94 0.951 . S
H65 C95 0.949 . S
C66 C67 1.376 . S
C66 C71 1.386 . S
C66 C72 1.483 . S
C67 H48 0.949 . S
C67 C66 1.376 . S
C67 C68 1.397 . S
C68 H49 0.950 . S
C68 C67 1.397 . S
C68 C69 1.391 . S
C69 C68 1.391 . S
C69 C70 1.405 . S
C70 H50 0.950 . S
C70 C69 1.405 . S
C70 C71 1.367 . S
C71 H51 0.950 . S
C71 C66 1.386 . S
C71 C70 1.367 . S
C72 C66 1.483 . S
C72 C73 1.382 1_565 S
C72 C74 1.403 . S
C73 H52 0.950 1_545 S
C73 C72 1.382 1_545 S
C73 C89 1.411 . S
C74 C72 1.403 . S
C74 C75 1.489 . S
C74 C88 1.411 1_565 S
C75 C74 1.489 . S
C75 C76 1.383 . S
C75 C80 1.382 . S
C76 H53 0.950 . S
C76 C75 1.383 . S
C76 C77 1.395 . S
C77 H54 0.950 . S
C77 C76 1.395 . S
C77 C78 1.288 . S
C78 C77 1.288 . S
C78 C79 1.392 . S
C79 H55 0.951 . S
C79 C78 1.392 . S
C79 C80 1.392 . S
C80 H56 0.949 . S
C80 C75 1.382 . S
C80 C79 1.392 . S
C81 C82 1.376 . S
C81 C86 1.386 . S
C81 C87 1.483 . S
C82 H57 0.949 . S
C82 C81 1.376 . S
C82 C83 1.397 . S
C83 H58 0.950 . S
C83 C82 1.397 . S
C83 C84 1.391 . S
C84 C83 1.391 . S
C84 C85 1.405 . S
C85 H59 0.950 . S
C85 C84 1.405 . S
C85 C86 1.367 . S
C86 H60 0.950 . S
C86 C81 1.386 . S
C86 C85 1.367 . S
C87 C81 1.483 . S
C87 C88 1.382 . S
C87 C89 1.403 . S
C88 H61 0.950 . S
C88 C74 1.411 1_545 S
C88 C87 1.382 . S
C89 C73 1.411 . S
C89 C87 1.403 . S
C89 C90 1.489 . S
C90 C89 1.489 . S
C90 C91 1.383 . S
C90 C95 1.382 . S
C91 H62 0.950 . S
C91 C90 1.383 . S
C91 C92 1.395 . S
C92 H63 0.950 . S
C92 C91 1.395 . S
C92 C93 1.288 . S
C93 C92 1.288 . S
C93 C94 1.392 . S
C94 H64 0.951 . S
C94 C93 1.392 . S
C94 C95 1.392 . S
C95 H65 0.949 . S
C95 C90 1.382 . S
C95 C94 1.392 . S
H96 C115 0.949 . S
H97 C116 0.950 . S
H98 C118 0.950 . S
H99 C119 0.950 . S
H100 C121 0.950 . S
H101 C124 0.950 . S
H102 C125 0.950 . S
H103 C127 0.951 . S
H104 C128 0.949 . S
H105 C130 0.949 . S
H106 C131 0.950 . S
H107 C133 0.950 . S
H108 C134 0.950 . S
H109 C136 0.950 . S
H110 C139 0.950 . S
H111 C140 0.950 . S
H112 C142 0.951 . S
H113 C143 0.949 . S
C114 C115 1.376 . S
C114 C119 1.386 . S
C114 C120 1.483 . S
C115 H96 0.949 . S
C115 C114 1.376 . S
C115 C116 1.397 . S
C116 H97 0.950 . S
C116 C115 1.397 . S
C116 C117 1.391 . S
C117 C116 1.391 . S
C117 C118 1.405 . S
C118 H98 0.950 . S
C118 C117 1.405 . S
C118 C119 1.367 . S
C119 H99 0.950 . S
C119 C114 1.386 . S
C119 C118 1.367 . S
C120 C114 1.483 . S
C120 C121 1.382 . S
C120 C122 1.403 . S
C121 H100 0.950 . S
C121 C120 1.382 . S
C121 C137 1.411 . S
C122 C120 1.403 . S
C122 C123 1.489 . S
C122 C136 1.411 . S
C123 C122 1.489 . S
C123 C124 1.383 . S
C123 C128 1.382 . S
C124 H101 0.950 . S
C124 C123 1.383 . S
C124 C125 1.395 . S
C125 H102 0.950 . S
C125 C124 1.395 . S
C125 C126 1.288 . S
C126 C125 1.288 . S
C126 C127 1.392 . S
C127 H103 0.951 . S
C127 C126 1.392 . S
C127 C128 1.392 . S
C128 H104 0.949 . S
C128 C123 1.382 . S
C128 C127 1.392 . S
C129 C130 1.376 . S
C129 C134 1.386 . S
C129 C135 1.483 . S
C130 H105 0.949 . S
C130 C129 1.376 . S
C130 C131 1.397 . S
C131 H106 0.950 . S
C131 C130 1.397 . S
C131 C132 1.391 . S
C132 C131 1.391 . S
C132 C133 1.405 . S
C133 H107 0.950 . S
C133 C132 1.405 . S
C133 C134 1.367 . S
C134 H108 0.950 . S
C134 C129 1.386 . S
C134 C133 1.367 . S
C135 C129 1.483 . S
C135 C136 1.382 . S
C135 C137 1.403 . S
C136 H109 0.950 . S
C136 C122 1.411 . S
C136 C135 1.382 . S
C137 C121 1.411 . S
C137 C135 1.403 . S
C137 C138 1.489 . S
C138 C137 1.489 . S
C138 C139 1.383 . S
C138 C143 1.382 . S
C139 H110 0.950 . S
C139 C138 1.383 . S
C139 C140 1.395 . S
C140 H111 0.950 . S
C140 C139 1.395 . S
C140 C141 1.288 . S
C141 C140 1.288 . S
C141 C142 1.392 . S
C142 H112 0.951 . S
C142 C141 1.392 . S
C142 C143 1.392 . S
C143 H113 0.949 . S
C143 C138 1.382 . S
C143 C142 1.392 . S
H144 C163 0.949 . S
H145 C164 0.950 . S
H146 C166 0.950 . S
H147 C167 0.950 . S
H148 C169 0.936 1_655 S
H149 C172 0.950 . S
H150 C173 0.950 . S
H151 C175 0.951 . S
H152 C176 0.949 . S
H153 C178 0.949 . S
H154 C179 0.950 . S
H155 C181 0.950 . S
H156 C182 0.950 . S
H157 C184 0.950 . S
H158 C187 0.950 . S
H159 C188 0.950 . S
H160 C190 0.951 . S
H161 C191 0.949 . S
C162 C163 1.376 . S
C162 C167 1.386 . S
C162 C168 1.483 . S
C163 H144 0.949 . S
C163 C162 1.376 . S
C163 C164 1.397 . S
C164 H145 0.950 . S
C164 C163 1.397 . S
C164 C165 1.391 . S
C165 C164 1.391 . S
C165 C166 1.405 . S
C166 H146 0.950 . S
C166 C165 1.405 . S
C166 C167 1.367 . S
C167 H147 0.950 . S
C167 C162 1.386 . S
C167 C166 1.367 . S
C168 C162 1.483 . S
C168 C169 1.382 . S
C168 C170 1.403 . S
C169 H148 0.936 1_455 S
C169 C168 1.382 . S
C169 C185 1.411 1_455 S
C170 C168 1.403 . S
C170 C171 1.489 . S
C170 C184 1.411 . S
C171 C170 1.489 . S
C171 C172 1.383 . S
C171 C176 1.382 . S
C172 H149 0.950 . S
C172 C171 1.383 . S
C172 C173 1.395 . S
C173 H150 0.950 . S
C173 C172 1.395 . S
C173 C174 1.288 . S
C174 C173 1.288 . S
C174 C175 1.392 . S
C175 H151 0.951 . S
C175 C174 1.392 . S
C175 C176 1.392 . S
C176 H152 0.949 . S
C176 C171 1.382 . S
C176 C175 1.392 . S
C177 C178 1.376 . S
C177 C182 1.386 . S
C177 C183 1.483 . S
C178 H153 0.949 . S
C178 C177 1.376 . S
C178 C179 1.397 . S
C179 H154 0.950 . S
C179 C178 1.397 . S
C179 C180 1.391 . S
C180 C179 1.391 . S
C180 C181 1.405 . S
C181 H155 0.950 . S
C181 C180 1.405 . S
C181 C182 1.367 . S
C182 H156 0.950 . S
C182 C177 1.386 . S
C182 C181 1.367 . S
C183 C177 1.483 . S
C183 C184 1.382 1_655 S
C183 C185 1.403 . S
C184 H157 0.950 . S
C184 C170 1.411 . S
C184 C183 1.382 1_455 S
C185 C169 1.411 1_655 S
C185 C183 1.403 . S
C185 C186 1.489 . S
C186 C185 1.489 . S
C186 C187 1.383 . S
C186 C191 1.382 . S
C187 H158 0.950 . S
C187 C186 1.383 . S
C187 C188 1.395 . S
C188 H159 0.950 . S
C188 C187 1.395 . S
C188 C189 1.288 . S
C189 C188 1.288 . S
C189 C190 1.392 . S
C190 H160 0.951 . S
C190 C189 1.392 . S
C190 C191 1.392 . S
C191 H161 0.949 . S
C191 C186 1.382 . S
C191 C190 1.392 . S
H192 C211 0.949 . S
H193 C212 0.950 . S
H194 C214 0.950 . S
H195 C215 0.950 . S
H196 C217 0.950 . S
H197 C220 0.950 . S
H198 C221 0.950 . S
H199 C223 0.951 . S
H200 C224 0.949 . S
H201 C226 0.949 . S
H202 C227 0.950 . S
H203 C229 0.950 . S
H204 C230 0.950 . S
H205 C232 0.950 1_565 S
H206 C235 0.950 . S
H207 C236 0.950 . S
H208 C238 0.951 . S
H209 C239 0.949 . S
C210 C211 1.376 . S
C210 C215 1.386 1_554 S
C210 C216 1.483 1_554 S
C211 H192 0.949 . S
C211 C210 1.376 . S
C211 C212 1.397 . S
C212 H193 0.950 . S
C212 C211 1.397 . S
C212 C213 1.391 . S
C213 C212 1.391 . S
C213 C214 1.405 . S
C214 H194 0.950 . S
C214 C213 1.405 . S
C214 C215 1.367 1_554 S
C215 H195 0.950 . S
C215 C210 1.386 1_556 S
C215 C214 1.367 1_556 S
C216 C210 1.483 1_556 S
C216 C217 1.382 1_556 S
C216 C218 1.403 . S
C217 H196 0.950 . S
C217 C216 1.382 1_554 S
C217 C233 1.411 1_545 S
C218 C216 1.403 . S
C218 C219 1.489 . S
C218 C232 1.411 . S
C219 C218 1.489 . S
C219 C220 1.383 . S
C219 C224 1.382 . S
C220 H197 0.950 . S
C220 C219 1.383 . S
C220 C221 1.395 . S
C221 H198 0.950 . S
C221 C220 1.395 . S
C221 C222 1.288 . S
C222 C221 1.288 . S
C222 C223 1.392 . S
C223 H199 0.951 . S
C223 C222 1.392 . S
C223 C224 1.392 . S
C224 H200 0.949 . S
C224 C219 1.382 . S
C224 C223 1.392 . S
C225 C226 1.376 . S
C225 C230 1.386 . S
C225 C231 1.483 . S
C226 H201 0.949 . S
C226 C225 1.376 . S
C226 C227 1.397 . S
C227 H202 0.950 . S
C227 C226 1.397 . S
C227 C228 1.391 . S
C228 C227 1.391 . S
C228 C229 1.405 . S
C229 H203 0.950 . S
C229 C228 1.405 . S
C229 C230 1.367 . S
C230 H204 0.950 . S
C230 C225 1.386 . S
C230 C229 1.367 . S
C231 C225 1.483 . S
C231 C232 1.382 1_565 S
C231 C233 1.403 1_556 S
C232 H205 0.950 1_545 S
C232 C218 1.411 . S
C232 C231 1.382 1_545 S
C233 C217 1.411 1_565 S
C233 C231 1.403 1_554 S
C233 C234 1.489 . S
C234 C233 1.489 . S
C234 C235 1.383 . S
C234 C239 1.382 . S
C235 H206 0.950 . S
C235 C234 1.383 . S
C235 C236 1.395 . S
C236 H207 0.950 . S
C236 C235 1.395 . S
C236 C237 1.288 . S
C237 C236 1.288 . S
C237 C238 1.392 . S
C238 H208 0.951 . S
C238 C237 1.392 . S
C238 C239 1.392 . S
C239 H209 0.949 . S
C239 C234 1.382 . S
C239 C238 1.392 . S
H240 C259 0.949 . S
H241 C260 0.950 . S
H242 C262 0.950 . S
H243 C263 0.950 . S
H244 C265 0.950 . S
H245 C268 0.950 . S
H246 C269 0.950 . S
H247 C271 0.951 . S
H248 C272 0.949 . S
H249 C274 0.949 . S
H250 C275 0.950 . S
H251 C277 0.950 . S
H252 C278 0.950 . S
H253 C280 0.950 . S
H254 C283 0.950 . S
H255 C284 0.950 . S
H256 C286 0.951 . S
H257 C287 0.949 . S
C258 C259 1.376 . S
C258 C263 1.386 . S
C258 C264 1.483 . S
C259 H240 0.949 . S
C259 C258 1.376 . S
C259 C260 1.397 . S
C260 H241 0.950 . S
C260 C259 1.397 . S
C260 C261 1.391 . S
C261 C260 1.391 . S
C261 C262 1.405 . S
C262 H242 0.950 . S
C262 C261 1.405 . S
C262 C263 1.367 . S
C263 H243 0.950 . S
C263 C258 1.386 . S
C263 C262 1.367 . S
C264 C258 1.483 . S
C264 C265 1.382 . S
C264 C266 1.403 . S
C265 H244 0.950 . S
C265 C264 1.382 . S
C265 C281 1.411 . S
C266 C264 1.403 . S
C266 C267 1.489 . S
C266 C280 1.411 . S
C267 C266 1.489 . S
C267 C268 1.383 . S
C267 C272 1.382 . S
C268 H245 0.950 . S
C268 C267 1.383 . S
C268 C269 1.395 . S
C269 H246 0.950 . S
C269 C268 1.395 . S
C269 C270 1.288 . S
C270 C269 1.288 . S
C270 C271 1.392 . S
C271 H247 0.951 . S
C271 C270 1.392 . S
C271 C272 1.392 . S
C272 H248 0.949 . S
C272 C267 1.382 . S
C272 C271 1.392 . S
C273 C274 1.376 . S
C273 C278 1.386 . S
C273 C279 1.483 . S
C274 H249 0.949 . S
C274 C273 1.376 . S
C274 C275 1.397 . S
C275 H250 0.950 . S
C275 C274 1.397 . S
C275 C276 1.391 . S
C276 C275 1.391 . S
C276 C277 1.405 . S
C277 H251 0.950 . S
C277 C276 1.405 . S
C277 C278 1.367 . S
C278 H252 0.950 . S
C278 C273 1.386 . S
C278 C277 1.367 . S
C279 C273 1.483 . S
C279 C280 1.382 . S
C279 C281 1.403 . S
C280 H253 0.950 . S
C280 C266 1.411 . S
C280 C279 1.382 . S
C281 C265 1.411 . S
C281 C279 1.403 . S
C281 C282 1.489 . S
C282 C281 1.489 . S
C282 C283 1.383 . S
C282 C287 1.382 . S
C283 H254 0.950 . S
C283 C282 1.383 . S
C283 C284 1.395 . S
C284 H255 0.950 . S
C284 C283 1.395 . S
C284 C285 1.288 . S
C285 C284 1.288 . S
C285 C286 1.392 . S
C286 H256 0.951 . S
C286 C285 1.392 . S
C286 C287 1.392 . S
C287 H257 0.949 . S
C287 C282 1.382 . S
C287 C286 1.392 . S
O288 Cd289 2.223 . S
O288 C296 1.315 . S
Cd289 O288 2.223 . S
Cd289 O292 2.297 . S
Cd289 O293 2.439 . S
Cd289 O299 2.240 . S
Cd290 O291 2.240 . S
Cd290 O298 2.223 . S
Cd290 O300 2.297 . S
Cd290 O301 2.439 . S
O291 Cd290 2.240 . S
O291 C296 1.279 . S
O292 Cd289 2.297 . S
O292 C294 1.247 . S
O293 Cd289 2.439 . S
O293 C294 1.208 . S
C294 O292 1.247 . S
C294 O293 1.208 . S
C295 O300 1.247 . S
C295 O301 1.208 . S
C296 O288 1.315 . S
C296 O291 1.279 . S
C297 O298 1.315 . S
C297 O299 1.279 . S
O298 Cd290 2.223 . S
O298 C297 1.315 . S
O299 Cd289 2.240 . S
O299 C297 1.279 . S
O300 Cd290 2.297 . S
O300 C295 1.247 . S
O301 Cd290 2.439 . S
O301 C295 1.208 . S
O302 Cd303 2.223 . S
O302 C310 1.315 . S
Cd303 O302 2.223 . S
Cd303 O306 2.297 . S
Cd303 O307 2.439 . S
Cd303 O313 2.240 . S
Cd304 O305 2.240 . S
Cd304 O312 2.223 . S
Cd304 O314 2.297 . S
Cd304 O315 2.439 . S
O305 Cd304 2.240 . S
O305 C310 1.279 . S
O306 Cd303 2.297 . S
O306 C308 1.247 . S
O307 Cd303 2.439 . S
O307 C308 1.208 . S
C308 O306 1.247 . S
C308 O307 1.208 . S
C309 O314 1.247 . S
C309 O315 1.208 . S
C310 O302 1.315 . S
C310 O305 1.279 . S
C311 O312 1.315 . S
C311 O313 1.279 . S
O312 Cd304 2.223 . S
O312 C311 1.315 . S
O313 Cd303 2.240 . S
O313 C311 1.279 . S
O314 Cd304 2.297 . S
O314 C309 1.247 . S
O315 Cd304 2.439 . S
O315 C309 1.208 . S
O316 Cd317 2.223 . S
O316 C324 1.315 . S
Cd317 O316 2.223 . S
Cd317 O320 2.297 . S
Cd317 O321 2.439 . S
Cd317 O327 2.240 . S
Cd318 O319 2.240 . S
Cd318 O326 2.223 . S
Cd318 O328 2.297 . S
Cd318 O329 2.439 . S
O319 Cd318 2.240 . S
O319 C324 1.279 . S
O320 Cd317 2.297 . S
O320 C322 1.247 . S
O321 Cd317 2.439 . S
O321 C322 1.208 . S
C322 O320 1.247 . S
C322 O321 1.208 . S
C323 O328 1.247 . S
C323 O329 1.208 . S
C324 O316 1.315 . S
C324 O319 1.279 . S
C325 O326 1.315 . S
C325 O327 1.279 . S
O326 Cd318 2.223 . S
O326 C325 1.315 . S
O327 Cd317 2.240 . S
O327 C325 1.279 . S
O328 Cd318 2.297 . S
O328 C323 1.247 . S
O329 Cd318 2.439 . S
O329 C323 1.208 . S
O330 Cd331 2.223 . S
O330 C338 1.315 . S
Cd331 O330 2.223 . S
Cd331 O334 2.297 . S
Cd331 O335 2.439 . S
Cd331 O341 2.240 . S
Cd332 O333 2.240 . S
Cd332 O340 2.223 . S
Cd332 O342 2.297 . S
Cd332 O343 2.439 . S
O333 Cd332 2.240 . S
O333 C338 1.279 . S
O334 Cd331 2.297 . S
O334 C336 1.247 . S
O335 Cd331 2.439 . S
O335 C336 1.208 . S
C336 O334 1.247 . S
C336 O335 1.208 . S
C337 O342 1.247 . S
C337 O343 1.208 . S
C338 O330 1.315 . S
C338 O333 1.279 . S
C339 O340 1.315 . S
C339 O341 1.279 . S
O340 Cd332 2.223 . S
O340 C339 1.315 . S
O341 Cd331 2.240 . S
O341 C339 1.279 . S
O342 Cd332 2.297 . S
O342 C337 1.247 . S
O343 Cd332 2.439 . S
O343 C337 1.208 . S
O344 Cd345 2.223 . S
O344 C352 1.315 . S
Cd345 O344 2.223 . S
Cd345 O348 2.297 . S
Cd345 O349 2.439 . S
Cd345 O355 2.240 . S
Cd346 O347 2.240 . S
Cd346 O354 2.223 . S
Cd346 O356 2.297 . S
Cd346 O357 2.439 . S
O347 Cd346 2.240 . S
O347 C352 1.279 . S
O348 Cd345 2.297 . S
O348 C350 1.247 . S
O349 Cd345 2.439 . S
O349 C350 1.208 . S
C350 O348 1.247 . S
C350 O349 1.208 . S
C351 O356 1.247 . S
C351 O357 1.208 . S
C352 O344 1.315 . S
C352 O347 1.279 . S
C353 O354 1.315 . S
C353 O355 1.279 . S
O354 Cd346 2.223 . S
O354 C353 1.315 . S
O355 Cd345 2.240 . S
O355 C353 1.279 . S
O356 Cd346 2.297 . S
O356 C351 1.247 . S
O357 Cd346 2.439 . S
O357 C351 1.208 . S
O358 Cd359 2.223 . S
O358 C366 1.315 . S
Cd359 O358 2.223 . S
Cd359 O362 2.297 . S
Cd359 O363 2.439 . S
Cd359 O369 2.240 . S
Cd360 O361 2.240 . S
Cd360 O368 2.223 . S
Cd360 O370 2.297 . S
Cd360 O371 2.439 . S
O361 Cd360 2.240 . S
O361 C366 1.279 . S
O362 Cd359 2.297 . S
O362 C364 1.247 . S
O363 Cd359 2.439 . S
O363 C364 1.208 . S
C364 O362 1.247 . S
C364 O363 1.208 . S
C365 O370 1.247 . S
C365 O371 1.208 . S
C366 O358 1.315 . S
C366 O361 1.279 . S
C367 O368 1.315 . S
C367 O369 1.279 . S
O368 Cd360 2.223 . S
O368 C367 1.315 . S
O369 Cd359 2.240 . S
O369 C367 1.279 . S
O370 Cd360 2.297 . S
O370 C365 1.247 . S
O371 Cd360 2.439 . S
O371 C365 1.208 . S
H372 C384 0.930 . S
H373 C386 0.930 . S
H374 C387 0.930 . S
H375 C391 0.959 . S
H376 C391 0.959 . S
H377 C391 0.961 . S
H378 C392 0.960 . S
H379 C392 0.961 . S
H380 C392 0.959 . S
H381 C395 0.929 . S
H382 C396 0.931 . S
H383 C398 0.930 . S
C384 H372 0.930 . S
C384 C385 1.399 . S
C384 C389 1.399 . S
C385 C384 1.399 . S
C385 C386 1.376 . S
C386 H373 0.930 . S
C386 C385 1.376 . S
C386 C387 1.388 . S
C387 H374 0.930 . S
C387 C386 1.388 . S
C387 C388 1.390 . S
C388 C387 1.390 . S
C388 C389 1.394 . S
C388 C394 1.465 . S
C389 C384 1.399 . S
C389 C388 1.394 . S
C389 C390 1.516 . S
C390 C389 1.516 . S
C390 C391 1.502 . S
C390 C392 1.561 . S
C390 C393 1.526 . S
C391 H375 0.959 . S
C391 H376 0.959 . S
C391 H377 0.961 . S
C391 C390 1.502 . S
C392 H378 0.960 . S
C392 H379 0.961 . S
C392 H380 0.959 . S
C392 C390 1.561 . S
C393 C390 1.526 . S
C393 C394 1.396 . S
C393 C398 1.390 . S
C394 C388 1.465 . S
C394 C393 1.396 . S
C394 C395 1.399 . S
C395 H381 0.929 . S
C395 C394 1.399 . S
C395 C396 1.385 . S
C396 H382 0.931 . S
C396 C395 1.385 . S
C396 C397 1.389 . S
C397 C396 1.389 . S
C397 C398 1.387 . S
C398 H383 0.930 . S
C398 C393 1.390 . S
C398 C397 1.387 . S
H399 C411 0.930 . S
H400 C413 0.930 . S
H401 C414 0.930 . S
H402 C418 0.959 . S
H403 C418 0.959 . S
H404 C418 0.961 . S
H405 C419 0.960 . S
H406 C419 0.961 . S
H407 C419 0.959 . S
H408 C422 0.929 . S
H409 C423 0.931 . S
H410 C425 0.930 . S
C411 H399 0.930 . S
C411 C412 1.399 . S
C411 C416 1.399 . S
C412 C411 1.399 . S
C412 C413 1.376 . S
C413 H400 0.930 . S
C413 C412 1.376 . S
C413 C414 1.388 . S
C414 H401 0.930 . S
C414 C413 1.388 . S
C414 C415 1.390 . S
C415 C414 1.390 . S
C415 C416 1.394 . S
C415 C421 1.465 . S
C416 C411 1.399 . S
C416 C415 1.394 . S
C416 C417 1.516 . S
C417 C416 1.516 . S
C417 C418 1.502 . S
C417 C419 1.561 . S
C417 C420 1.526 . S
C418 H402 0.959 . S
C418 H403 0.959 . S
C418 H404 0.961 . S
C418 C417 1.502 . S
C419 H405 0.960 . S
C419 H406 0.961 . S
C419 H407 0.959 . S
C419 C417 1.561 . S
C420 C417 1.526 . S
C420 C421 1.396 . S
C420 C425 1.390 . S
C421 C415 1.465 . S
C421 C420 1.396 . S
C421 C422 1.399 . S
C422 H408 0.929 . S
C422 C421 1.399 . S
C422 C423 1.385 . S
C423 H409 0.931 . S
C423 C422 1.385 . S
C423 C424 1.389 . S
C424 C423 1.389 . S
C424 C425 1.387 . S
C425 H410 0.930 . S
C425 C420 1.390 . S
C425 C424 1.387 . S
H426 C438 0.930 . S
H427 C440 0.930 . S
H428 C441 0.930 . S
H429 C445 0.959 . S
H430 C445 0.959 . S
H431 C445 0.961 . S
H432 C446 0.960 . S
H433 C446 0.961 . S
H434 C446 0.959 . S
H435 C449 0.929 . S
H436 C450 0.931 . S
H437 C452 0.930 . S
C438 H426 0.930 . S
C438 C439 1.399 . S
C438 C443 1.399 . S
C439 C438 1.399 . S
C439 C440 1.376 . S
C440 H427 0.930 . S
C440 C439 1.376 . S
C440 C441 1.388 . S
C441 H428 0.930 . S
C441 C440 1.388 . S
C441 C442 1.390 . S
C442 C441 1.390 . S
C442 C443 1.394 . S
C442 C448 1.465 . S
C443 C438 1.399 . S
C443 C442 1.394 . S
C443 C444 1.516 . S
C444 C443 1.516 . S
C444 C445 1.502 . S
C444 C446 1.561 . S
C444 C447 1.526 . S
C445 H429 0.959 . S
C445 H430 0.959 . S
C445 H431 0.961 . S
C445 C444 1.502 . S
C446 H432 0.960 . S
C446 H433 0.961 . S
C446 H434 0.959 . S
C446 C444 1.561 . S
C447 C444 1.526 . S
C447 C448 1.396 . S
C447 C452 1.390 . S
C448 C442 1.465 . S
C448 C447 1.396 . S
C448 C449 1.399 . S
C449 H435 0.929 . S
C449 C448 1.399 . S
C449 C450 1.385 . S
C450 H436 0.931 . S
C450 C449 1.385 . S
C450 C451 1.389 . S
C451 C450 1.389 . S
C451 C452 1.387 . S
C452 H437 0.930 . S
C452 C447 1.390 . S
C452 C451 1.387 . S
H453 C465 0.930 . S
H454 C467 0.930 . S
H455 C468 0.930 . S
H456 C472 0.959 . S
H457 C472 0.959 . S
H458 C472 0.961 . S
H459 C473 0.960 . S
H460 C473 0.961 . S
H461 C473 0.959 . S
H462 C476 0.929 . S
H463 C477 0.931 . S
H464 C479 0.930 . S
C465 H453 0.930 . S
C465 C466 1.399 . S
C465 C470 1.399 . S
C466 C465 1.399 . S
C466 C467 1.376 . S
C467 H454 0.930 . S
C467 C466 1.376 . S
C467 C468 1.388 . S
C468 H455 0.930 . S
C468 C467 1.388 . S
C468 C469 1.390 . S
C469 C468 1.390 . S
C469 C470 1.394 . S
C469 C475 1.465 . S
C470 C465 1.399 . S
C470 C469 1.394 . S
C470 C471 1.516 . S
C471 C470 1.516 . S
C471 C472 1.502 . S
C471 C473 1.561 . S
C471 C474 1.526 . S
C472 H456 0.959 . S
C472 H457 0.959 . S
C472 H458 0.961 . S
C472 C471 1.502 . S
C473 H459 0.960 . S
C473 H460 0.961 . S
C473 H461 0.959 . S
C473 C471 1.561 . S
C474 C471 1.526 . S
C474 C475 1.396 . S
C474 C479 1.390 . S
C475 C469 1.465 . S
C475 C474 1.396 . S
C475 C476 1.399 . S
C476 H462 0.929 . S
C476 C475 1.399 . S
C476 C477 1.385 . S
C477 H463 0.931 . S
C477 C476 1.385 . S
C477 C478 1.389 . S
C478 C477 1.389 . S
C478 C479 1.387 . S
C479 H464 0.930 . S
C479 C474 1.390 . S
C479 C478 1.387 . S
H480 C492 0.930 . S
H481 C494 0.930 . S
H482 C495 0.930 . S
H483 C499 0.959 . S
H484 C499 0.959 . S
H485 C499 0.961 . S
H486 C500 0.960 . S
H487 C500 0.961 . S
H488 C500 0.959 . S
H489 C503 0.929 . S
H490 C504 0.931 . S
H491 C506 0.930 . S
C492 H480 0.930 . S
C492 C493 1.399 . S
C492 C497 1.399 . S
C493 C492 1.399 . S
C493 C494 1.376 . S
C494 H481 0.930 . S
C494 C493 1.376 . S
C494 C495 1.388 . S
C495 H482 0.930 . S
C495 C494 1.388 . S
C495 C496 1.390 . S
C496 C495 1.390 . S
C496 C497 1.394 . S
C496 C502 1.465 . S
C497 C492 1.399 . S
C497 C496 1.394 . S
C497 C498 1.516 . S
C498 C497 1.516 . S
C498 C499 1.502 . S
C498 C500 1.561 . S
C498 C501 1.526 . S
C499 H483 0.959 . S
C499 H484 0.959 . S
C499 H485 0.961 . S
C499 C498 1.502 . S
C500 H486 0.960 . S
C500 H487 0.961 . S
C500 H488 0.959 . S
C500 C498 1.561 . S
C501 C498 1.526 . S
C501 C502 1.396 . S
C501 C506 1.390 . S
C502 C496 1.465 . S
C502 C501 1.396 . S
C502 C503 1.399 . S
C503 H489 0.929 . S
C503 C502 1.399 . S
C503 C504 1.385 . S
C504 H490 0.931 . S
C504 C503 1.385 . S
C504 C505 1.389 . S
C505 C504 1.389 . S
C505 C506 1.387 . S
C506 H491 0.930 . S
C506 C501 1.390 . S
C506 C505 1.387 . S
H507 C519 0.930 . S
H508 C521 0.930 . S
H509 C522 0.930 . S
H510 C526 0.959 . S
H511 C526 0.959 . S
H512 C526 0.961 . S
H513 C527 0.960 . S
H514 C527 0.961 . S
H515 C527 0.959 . S
H516 C530 0.929 . S
H517 C531 0.931 . S
H518 C533 0.930 . S
C519 H507 0.930 . S
C519 C520 1.399 . S
C519 C524 1.399 . S
C520 C519 1.399 . S
C520 C521 1.376 . S
C521 H508 0.930 . S
C521 C520 1.376 . S
C521 C522 1.388 . S
C522 H509 0.930 . S
C522 C521 1.388 . S
C522 C523 1.390 . S
C523 C522 1.390 . S
C523 C524 1.394 . S
C523 C529 1.465 . S
C524 C519 1.399 . S
C524 C523 1.394 . S
C524 C525 1.516 . S
C525 C524 1.516 . S
C525 C526 1.502 . S
C525 C527 1.561 . S
C525 C528 1.526 . S
C526 H510 0.959 . S
C526 H511 0.959 . S
C526 H512 0.961 . S
C526 C525 1.502 . S
C527 H513 0.960 . S
C527 H514 0.961 . S
C527 H515 0.959 . S
C527 C525 1.561 . S
C528 C525 1.526 . S
C528 C529 1.396 . S
C528 C533 1.390 . S
C529 C523 1.465 . S
C529 C528 1.396 . S
C529 C530 1.399 . S
C530 H516 0.929 . S
C530 C529 1.399 . S
C530 C531 1.385 . S
C531 H517 0.931 . S
C531 C530 1.385 . S
C531 C532 1.389 . S
C532 C531 1.389 . S
C532 C533 1.387 . S
C533 H518 0.930 . S
C533 C528 1.390 . S
C533 C532 1.387 . S
H534 C546 0.930 . S
H535 C548 0.930 . S
H536 C549 0.930 . S
H537 C553 0.959 . S
H538 C553 0.959 . S
H539 C553 0.961 . S
H540 C554 0.960 . S
H541 C554 0.961 . S
H542 C554 0.959 . S
H543 C557 0.929 . S
H544 C558 0.931 . S
H545 C560 0.930 . S
C546 H534 0.930 . S
C546 C547 1.399 . S
C546 C551 1.399 . S
C547 C546 1.399 . S
C547 C548 1.376 . S
C548 H535 0.930 . S
C548 C547 1.376 . S
C548 C549 1.388 . S
C549 H536 0.930 . S
C549 C548 1.388 . S
C549 C550 1.390 . S
C550 C549 1.390 . S
C550 C551 1.394 . S
C550 C556 1.465 . S
C551 C546 1.399 . S
C551 C550 1.394 . S
C551 C552 1.516 . S
C552 C551 1.516 . S
C552 C553 1.502 . S
C552 C554 1.561 . S
C552 C555 1.526 . S
C553 H537 0.959 . S
C553 H538 0.959 . S
C553 H539 0.961 . S
C553 C552 1.502 . S
C554 H540 0.960 . S
C554 H541 0.961 . S
C554 H542 0.959 . S
C554 C552 1.561 . S
C555 C552 1.526 . S
C555 C556 1.396 . S
C555 C560 1.390 . S
C556 C550 1.465 . S
C556 C555 1.396 . S
C556 C557 1.399 . S
C557 H543 0.929 . S
C557 C556 1.399 . S
C557 C558 1.385 . S
C558 H544 0.931 . S
C558 C557 1.385 . S
C558 C559 1.389 . S
C559 C558 1.389 . S
C559 C560 1.387 . S
C560 H545 0.930 . S
C560 C555 1.390 . S
C560 C559 1.387 . S
H561 C573 0.930 . S
H562 C575 0.930 . S
H563 C576 0.930 . S
H564 C580 0.959 . S
H565 C580 0.959 . S
H566 C580 0.961 . S
H567 C581 0.960 . S
H568 C581 0.961 . S
H569 C581 0.959 . S
H570 C584 0.929 . S
H571 C585 0.931 . S
H572 C587 0.930 . S
C573 H561 0.930 . S
C573 C574 1.399 . S
C573 C578 1.399 . S
C574 C573 1.399 . S
C574 C575 1.376 . S
C575 H562 0.930 . S
C575 C574 1.376 . S
C575 C576 1.388 . S
C576 H563 0.930 . S
C576 C575 1.388 . S
C576 C577 1.390 . S
C577 C576 1.390 . S
C577 C578 1.394 . S
C577 C583 1.465 . S
C578 C573 1.399 . S
C578 C577 1.394 . S
C578 C579 1.516 . S
C579 C578 1.516 . S
C579 C580 1.502 . S
C579 C581 1.561 . S
C579 C582 1.526 . S
C580 H564 0.959 . S
C580 H565 0.959 . S
C580 H566 0.961 . S
C580 C579 1.502 . S
C581 H567 0.960 . S
C581 H568 0.961 . S
C581 H569 0.959 . S
C581 C579 1.561 . S
C582 C579 1.526 . S
C582 C583 1.396 . S
C582 C587 1.390 . S
C583 C577 1.465 . S
C583 C582 1.396 . S
C583 C584 1.399 . S
C584 H570 0.929 . S
C584 C583 1.399 . S
C584 C585 1.385 . S
C585 H571 0.931 . S
C585 C584 1.385 . S
C585 C586 1.389 . S
C586 C585 1.389 . S
C586 C587 1.387 . S
C587 H572 0.930 . S
C587 C582 1.390 . S
C587 C586 1.387 . S
H588 C600 0.930 . S
H589 C602 0.930 . S
H590 C603 0.930 . S
H591 C607 0.959 . S
H592 C607 0.959 . S
H593 C607 0.961 . S
H594 C608 0.960 . S
H595 C608 0.961 . S
H596 C608 0.959 . S
H597 C611 0.929 . S
H598 C612 0.931 . S
H599 C614 0.930 . S
C600 H588 0.930 . S
C600 C601 1.399 . S
C600 C605 1.399 . S
C601 C600 1.399 . S
C601 C602 1.376 . S
C602 H589 0.930 . S
C602 C601 1.376 . S
C602 C603 1.388 . S
C603 H590 0.930 . S
C603 C602 1.388 . S
C603 C604 1.390 . S
C604 C603 1.390 . S
C604 C605 1.394 . S
C604 C610 1.465 . S
C605 C600 1.399 . S
C605 C604 1.394 . S
C605 C606 1.516 . S
C606 C605 1.516 . S
C606 C607 1.502 . S
C606 C608 1.561 . S
C606 C609 1.526 . S
C607 H591 0.959 . S
C607 H592 0.959 . S
C607 H593 0.961 . S
C607 C606 1.502 . S
C608 H594 0.960 . S
C608 H595 0.961 . S
C608 H596 0.959 . S
C608 C606 1.561 . S
C609 C606 1.526 . S
C609 C610 1.396 . S
C609 C614 1.390 . S
C610 C604 1.465 . S
C610 C609 1.396 . S
C610 C611 1.399 . S
C611 H597 0.929 . S
C611 C610 1.399 . S
C611 C612 1.385 . S
C612 H598 0.931 . S
C612 C611 1.385 . S
C612 C613 1.389 . S
C613 C612 1.389 . S
C613 C614 1.387 . S
C614 H599 0.930 . S
C614 C609 1.390 . S
C614 C613 1.387 . S
H615 C627 0.930 . S
H616 C629 0.930 1_556 S
H617 C630 0.930 1_556 S
H618 C634 0.959 . S
H619 C634 0.959 . S
H620 C634 0.961 . S
H621 C635 0.960 . S
H622 C635 0.961 . S
H623 C635 0.959 . S
H624 C638 0.929 1_556 S
H625 C639 0.931 . S
H626 C641 0.930 . S
C627 H615 0.930 . S
C627 C628 1.399 . S
C627 C632 1.399 . S
C628 C627 1.399 . S
C628 C629 1.376 . S
C629 H616 0.930 1_554 S
C629 C628 1.376 . S
C629 C630 1.388 . S
C630 H617 0.930 1_554 S
C630 C629 1.388 . S
C630 C631 1.390 . S
C631 C630 1.390 . S
C631 C632 1.394 . S
C631 C637 1.465 . S
C632 C627 1.399 . S
C632 C631 1.394 . S
C632 C633 1.516 . S
C633 C632 1.516 . S
C633 C634 1.502 . S
C633 C635 1.561 . S
C633 C636 1.526 . S
C634 H618 0.959 . S
C634 H619 0.959 . S
C634 H620 0.961 . S
C634 C633 1.502 . S
C635 H621 0.960 . S
C635 H622 0.961 . S
C635 H623 0.959 . S
C635 C633 1.561 . S
C636 C633 1.526 . S
C636 C637 1.396 . S
C636 C641 1.390 . S
C637 C631 1.465 . S
C637 C636 1.396 . S
C637 C638 1.399 . S
C638 H624 0.929 1_554 S
C638 C637 1.399 . S
C638 C639 1.385 . S
C639 H625 0.931 . S
C639 C638 1.385 . S
C639 C640 1.389 . S
C640 C639 1.389 . S
C640 C641 1.387 . S
C641 H626 0.930 . S
C641 C636 1.390 . S
C641 C640 1.387 . S
H642 C654 0.930 . S
H643 C656 0.930 . S
H644 C657 0.930 . S
H645 C661 0.959 . S
H646 C661 0.959 . S
H647 C661 0.961 . S
H648 C662 0.960 . S
H649 C662 0.961 . S
H650 C662 0.959 . S
H651 C665 0.929 . S
H652 C666 0.931 . S
H653 C668 0.930 . S
C654 H642 0.930 . S
C654 C655 1.399 . S
C654 C659 1.399 . S
C655 C654 1.399 . S
C655 C656 1.376 . S
C656 H643 0.930 . S
C656 C655 1.376 . S
C656 C657 1.388 . S
C657 H644 0.930 . S
C657 C656 1.388 . S
C657 C658 1.390 . S
C658 C657 1.390 . S
C658 C659 1.394 . S
C658 C664 1.465 . S
C659 C654 1.399 . S
C659 C658 1.394 . S
C659 C660 1.516 . S
C660 C659 1.516 . S
C660 C661 1.502 . S
C660 C662 1.561 . S
C660 C663 1.526 . S
C661 H645 0.959 . S
C661 H646 0.959 . S
C661 H647 0.961 . S
C661 C660 1.502 . S
C662 H648 0.960 . S
C662 H649 0.961 . S
C662 H650 0.959 . S
C662 C660 1.561 . S
C663 C660 1.526 . S
C663 C664 1.396 . S
C663 C668 1.390 . S
C664 C658 1.465 . S
C664 C663 1.396 . S
C664 C665 1.399 . S
C665 H651 0.929 . S
C665 C664 1.399 . S
C665 C666 1.385 . S
C666 H652 0.931 . S
C666 C665 1.385 . S
C666 C667 1.389 . S
C667 C666 1.389 . S
C667 C668 1.387 . S
C668 H653 0.930 . S
C668 C663 1.390 . S
C668 C667 1.387 . S
H669 C681 0.930 . S
H670 C683 0.930 . S
H671 C684 0.930 . S
H672 C688 0.959 . S
H673 C688 0.959 . S
H674 C688 0.961 . S
H675 C689 0.960 . S
H676 C689 0.961 . S
H677 C689 0.959 . S
H678 C692 0.929 . S
H679 C693 0.931 . S
H680 C695 0.930 . S
C681 H669 0.930 . S
C681 C682 1.399 . S
C681 C686 1.399 . S
C682 C681 1.399 . S
C682 C683 1.376 . S
C683 H670 0.930 . S
C683 C682 1.376 . S
C683 C684 1.388 . S
C684 H671 0.930 . S
C684 C683 1.388 . S
C684 C685 1.390 . S
C685 C684 1.390 . S
C685 C686 1.394 . S
C685 C691 1.465 . S
C686 C681 1.399 . S
C686 C685 1.394 . S
C686 C687 1.516 . S
C687 C686 1.516 . S
C687 C688 1.502 . S
C687 C689 1.561 . S
C687 C690 1.526 . S
C688 H672 0.959 . S
C688 H673 0.959 . S
C688 H674 0.961 . S
C688 C687 1.502 . S
C689 H675 0.960 . S
C689 H676 0.961 . S
C689 H677 0.959 . S
C689 C687 1.561 . S
C690 C687 1.526 . S
C690 C691 1.396 . S
C690 C695 1.390 . S
C691 C685 1.465 . S
C691 C690 1.396 . S
C691 C692 1.399 . S
C692 H678 0.929 . S
C692 C691 1.399 . S
C692 C693 1.385 . S
C693 H679 0.931 . S
C693 C692 1.385 . S
C693 C694 1.389 . S
C694 C693 1.389 . S
C694 C695 1.387 . S
C695 H680 0.930 . S
C695 C690 1.390 . S
C695 C694 1.387 . S
H696 C708 0.930 . S
H697 C710 0.930 . S
H698 C711 0.930 . S
H699 C715 0.959 . S
H700 C715 0.959 . S
H701 C715 0.961 . S
H702 C716 0.960 . S
H703 C716 0.961 . S
H704 C716 0.959 . S
H705 C719 0.929 . S
H706 C720 0.931 . S
H707 C722 0.930 . S
C708 H696 0.930 . S
C708 C709 1.399 . S
C708 C713 1.399 . S
C709 C708 1.399 . S
C709 C710 1.376 . S
C710 H697 0.930 . S
C710 C709 1.376 . S
C710 C711 1.388 . S
C711 H698 0.930 . S
C711 C710 1.388 . S
C711 C712 1.390 . S
C712 C711 1.390 . S
C712 C713 1.394 . S
C712 C718 1.465 . S
C713 C708 1.399 . S
C713 C712 1.394 . S
C713 C714 1.516 . S
C714 C713 1.516 . S
C714 C715 1.502 . S
C714 C716 1.561 . S
C714 C717 1.526 . S
C715 H699 0.959 . S
C715 H700 0.959 . S
C715 H701 0.961 . S
C715 C714 1.502 . S
C716 H702 0.960 . S
C716 H703 0.961 . S
C716 H704 0.959 . S
C716 C714 1.561 . S
C717 C714 1.526 . S
C717 C718 1.396 . S
C717 C722 1.390 . S
C718 C712 1.465 . S
C718 C717 1.396 . S
C718 C719 1.399 . S
C719 H705 0.929 . S
C719 C718 1.399 . S
C719 C720 1.385 . S
C720 H706 0.931 . S
C720 C719 1.385 . S
C720 C721 1.389 . S
C721 C720 1.389 . S
C721 C722 1.387 . S
C722 H707 0.930 . S
C722 C717 1.390 . S
C722 C721 1.387 . S
H723 C735 0.930 . S
H724 C737 0.930 . S
H725 C738 0.930 . S
H726 C742 0.959 . S
H727 C742 0.959 . S
H728 C742 0.961 . S
H729 C743 0.960 . S
H730 C743 0.961 . S
H731 C743 0.959 . S
H732 C746 0.929 . S
H733 C747 0.931 . S
H734 C749 0.930 . S
C735 H723 0.930 . S
C735 C736 1.399 . S
C735 C740 1.399 . S
C736 C735 1.399 . S
C736 C737 1.376 . S
C737 H724 0.930 . S
C737 C736 1.376 . S
C737 C738 1.388 . S
C738 H725 0.930 . S
C738 C737 1.388 . S
C738 C739 1.390 . S
C739 C738 1.390 . S
C739 C740 1.394 . S
C739 C745 1.465 . S
C740 C735 1.399 . S
C740 C739 1.394 . S
C740 C741 1.516 . S
C741 C740 1.516 . S
C741 C742 1.502 . S
C741 C743 1.561 . S
C741 C744 1.526 . S
C742 H726 0.959 . S
C742 H727 0.959 . S
C742 H728 0.961 . S
C742 C741 1.502 . S
C743 H729 0.960 . S
C743 H730 0.961 . S
C743 H731 0.959 . S
C743 C741 1.561 . S
C744 C741 1.526 . S
C744 C745 1.396 . S
C744 C749 1.390 . S
C745 C739 1.465 . S
C745 C744 1.396 . S
C745 C746 1.399 . S
C746 H732 0.929 . S
C746 C745 1.399 . S
C746 C747 1.385 . S
C747 H733 0.931 . S
C747 C746 1.385 . S
C747 C748 1.389 . S
C748 C747 1.389 . S
C748 C749 1.387 . S
C749 H734 0.930 . S
C749 C744 1.390 . S
C749 C748 1.387 . S
H750 C762 0.930 . S
H751 C764 0.930 . S
H752 C765 0.930 . S
H753 C769 0.959 . S
H754 C769 0.959 . S
H755 C769 0.961 . S
H756 C770 0.960 . S
H757 C770 0.961 . S
H758 C770 0.959 . S
H759 C773 0.929 . S
H760 C774 0.931 . S
H761 C776 0.930 . S
C762 H750 0.930 . S
C762 C763 1.399 . S
C762 C767 1.399 . S
C763 C762 1.399 . S
C763 C764 1.376 . S
C764 H751 0.930 . S
C764 C763 1.376 . S
C764 C765 1.388 . S
C765 H752 0.930 . S
C765 C764 1.388 . S
C765 C766 1.390 . S
C766 C765 1.390 . S
C766 C767 1.394 . S
C766 C772 1.465 . S
C767 C762 1.399 . S
C767 C766 1.394 . S
C767 C768 1.516 . S
C768 C767 1.516 . S
C768 C769 1.502 . S
C768 C770 1.561 . S
C768 C771 1.526 . S
C769 H753 0.959 . S
C769 H754 0.959 . S
C769 H755 0.961 . S
C769 C768 1.502 . S
C770 H756 0.960 . S
C770 H757 0.961 . S
C770 H758 0.959 . S
C770 C768 1.561 . S
C771 C768 1.526 . S
C771 C772 1.396 . S
C771 C776 1.390 . S
C772 C766 1.465 . S
C772 C771 1.396 . S
C772 C773 1.399 . S
C773 H759 0.929 . S
C773 C772 1.399 . S
C773 C774 1.385 . S
C774 H760 0.931 . S
C774 C773 1.385 . S
C774 C775 1.389 . S
C775 C774 1.389 . S
C775 C776 1.387 . S
C776 H761 0.930 . S
C776 C771 1.390 . S
C776 C775 1.387 . S
H777 C789 0.930 . S
H778 C791 0.930 . S
H779 C792 0.930 . S
H780 C796 0.959 . S
H781 C796 0.959 . S
H782 C796 0.961 . S
H783 C797 0.960 . S
H784 C797 0.949 1_554 S
H785 C797 0.959 1_554 S
H786 C800 0.929 . S
H787 C801 0.931 . S
H788 C803 0.930 . S
C789 H777 0.930 . S
C789 C790 1.399 . S
C789 C794 1.399 . S
C790 C789 1.399 . S
C790 C791 1.376 . S
C791 H778 0.930 . S
C791 C790 1.376 . S
C791 C792 1.388 . S
C792 H779 0.930 . S
C792 C791 1.388 . S
C792 C793 1.390 . S
C793 C792 1.390 . S
C793 C794 1.394 . S
C793 C799 1.465 . S
C794 C789 1.399 . S
C794 C793 1.394 . S
C794 C795 1.516 . S
C795 C794 1.516 . S
C795 C796 1.502 . S
C795 C797 1.561 . S
C795 C798 1.526 . S
C796 H780 0.959 . S
C796 H781 0.959 . S
C796 H782 0.961 . S
C796 C795 1.502 . S
C797 H783 0.960 . S
C797 H784 0.949 1_556 S
C797 H785 0.959 1_556 S
C797 C795 1.561 . S
C798 C795 1.526 . S
C798 C799 1.396 . S
C798 C803 1.390 1_556 S
C799 C793 1.465 . S
C799 C798 1.396 . S
C799 C800 1.399 1_556 S
C800 H786 0.929 . S
C800 C799 1.399 1_554 S
C800 C801 1.385 . S
C801 H787 0.931 . S
C801 C800 1.385 . S
C801 C802 1.389 . S
C802 C801 1.389 . S
C802 C803 1.387 . S
C803 H788 0.930 . S
C803 C798 1.390 1_554 S
C803 C802 1.387 . S
H804 C816 0.930 . S
H805 C818 0.930 . S
H806 C819 0.930 . S
H807 C823 0.959 . S
H808 C823 0.959 . S
H809 C823 0.961 . S
H810 C824 0.960 . S
H811 C824 0.961 . S
H812 C824 0.959 . S
H813 C827 0.929 . S
H814 C828 0.931 . S
H815 C830 0.930 . S
C816 H804 0.930 . S
C816 C817 1.399 . S
C816 C821 1.399 . S
C817 C816 1.399 . S
C817 C818 1.376 . S
C818 H805 0.930 . S
C818 C817 1.376 . S
C818 C819 1.388 . S
C819 H806 0.930 . S
C819 C818 1.388 . S
C819 C820 1.390 . S
C820 C819 1.390 . S
C820 C821 1.394 . S
C820 C826 1.465 . S
C821 C816 1.399 . S
C821 C820 1.394 . S
C821 C822 1.516 . S
C822 C821 1.516 . S
C822 C823 1.502 . S
C822 C824 1.561 . S
C822 C825 1.526 . S
C823 H807 0.959 . S
C823 H808 0.959 . S
C823 H809 0.961 . S
C823 C822 1.502 . S
C824 H810 0.960 . S
C824 H811 0.961 . S
C824 H812 0.959 . S
C824 C822 1.561 . S
C825 C822 1.526 . S
C825 C826 1.396 . S
C825 C830 1.390 . S
C826 C820 1.465 . S
C826 C825 1.396 . S
C826 C827 1.399 . S
C827 H813 0.929 . S
C827 C826 1.399 . S
C827 C828 1.385 . S
C828 H814 0.931 . S
C828 C827 1.385 . S
C828 C829 1.389 . S
C829 C828 1.389 . S
C829 C830 1.387 . S
C830 H815 0.930 . S
C830 C825 1.390 . S
C830 C829 1.387 . S
H831 C843 0.930 . S
H832 C845 0.930 . S
H833 C846 0.930 . S
H834 C850 0.959 . S
H835 C850 0.959 . S
H836 C850 0.961 . S
H837 C851 0.960 . S
H838 C851 0.961 . S
H839 C851 0.959 . S
H840 C854 0.929 . S
H841 C855 0.931 . S
H842 C857 0.930 . S
C843 H831 0.930 . S
C843 C844 1.399 . S
C843 C848 1.399 . S
C844 C843 1.399 . S
C844 C845 1.376 . S
C845 H832 0.930 . S
C845 C844 1.376 . S
C845 C846 1.388 . S
C846 H833 0.930 . S
C846 C845 1.388 . S
C846 C847 1.390 . S
C847 C846 1.390 . S
C847 C848 1.394 . S
C847 C853 1.465 . S
C848 C843 1.399 . S
C848 C847 1.394 . S
C848 C849 1.516 . S
C849 C848 1.516 . S
C849 C850 1.502 . S
C849 C851 1.561 . S
C849 C852 1.526 . S
C850 H834 0.959 . S
C850 H835 0.959 . S
C850 H836 0.961 . S
C850 C849 1.502 . S
C851 H837 0.960 . S
C851 H838 0.961 . S
C851 H839 0.959 . S
C851 C849 1.561 . S
C852 C849 1.526 . S
C852 C853 1.396 . S
C852 C857 1.390 . S
C853 C847 1.465 . S
C853 C852 1.396 . S
C853 C854 1.399 . S
C854 H840 0.929 . S
C854 C853 1.399 . S
C854 C855 1.385 . S
C855 H841 0.931 . S
C855 C854 1.385 . S
C855 C856 1.389 . S
C856 C855 1.389 . S
C856 C857 1.387 . S
C857 H842 0.930 . S
C857 C852 1.390 . S
C857 C856 1.387 . S
H858 C870 0.930 . S
H859 C872 0.930 . S
H860 C873 0.930 . S
H861 C877 0.959 . S
H862 C877 0.959 . S
H863 C877 0.961 . S
H864 C878 0.960 . S
H865 C878 0.961 . S
H866 C878 0.959 . S
H867 C881 0.929 . S
H868 C882 0.931 . S
H869 C884 0.930 . S
C870 H858 0.930 . S
C870 C871 1.399 . S
C870 C875 1.399 . S
C871 C870 1.399 . S
C871 C872 1.376 . S
C872 H859 0.930 . S
C872 C871 1.376 . S
C872 C873 1.388 . S
C873 H860 0.930 . S
C873 C872 1.388 . S
C873 C874 1.390 . S
C874 C873 1.390 . S
C874 C875 1.394 . S
C874 C880 1.465 . S
C875 C870 1.399 . S
C875 C874 1.394 . S
C875 C876 1.516 . S
C876 C875 1.516 . S
C876 C877 1.502 . S
C876 C878 1.561 . S
C876 C879 1.526 . S
C877 H861 0.959 . S
C877 H862 0.959 . S
C877 H863 0.961 . S
C877 C876 1.502 . S
C878 H864 0.960 . S
C878 H865 0.961 . S
C878 H866 0.959 . S
C878 C876 1.561 . S
C879 C876 1.526 . S
C879 C880 1.396 . S
C879 C884 1.390 . S
C880 C874 1.465 . S
C880 C879 1.396 . S
C880 C881 1.399 . S
C881 H867 0.929 . S
C881 C880 1.399 . S
C881 C882 1.385 . S
C882 H868 0.931 . S
C882 C881 1.385 . S
C882 C883 1.389 . S
C883 C882 1.389 . S
C883 C884 1.387 . S
C884 H869 0.930 . S
C884 C879 1.390 . S
C884 C883 1.387 . S
H885 C897 0.930 . S
H886 C899 0.930 . S
H887 C900 0.930 . S
H888 C904 0.959 . S
H889 C904 0.959 . S
H890 C904 0.961 . S
H891 C905 0.960 . S
H892 C905 0.961 . S
H893 C905 0.959 . S
H894 C908 0.929 . S
H895 C909 0.931 . S
H896 C911 0.930 . S
C897 H885 0.930 . S
C897 C898 1.399 . S
C897 C902 1.399 . S
C898 C897 1.399 . S
C898 C899 1.376 . S
C899 H886 0.930 . S
C899 C898 1.376 . S
C899 C900 1.388 . S
C900 H887 0.930 . S
C900 C899 1.388 . S
C900 C901 1.390 . S
C901 C900 1.390 . S
C901 C902 1.394 . S
C901 C907 1.465 . S
C902 C897 1.399 . S
C902 C901 1.394 . S
C902 C903 1.516 . S
C903 C902 1.516 . S
C903 C904 1.502 . S
C903 C905 1.561 . S
C903 C906 1.526 . S
C904 H888 0.959 . S
C904 H889 0.959 . S
C904 H890 0.961 . S
C904 C903 1.502 . S
C905 H891 0.960 . S
C905 H892 0.961 . S
C905 H893 0.959 . S
C905 C903 1.561 . S
C906 C903 1.526 . S
C906 C907 1.396 . S
C906 C911 1.390 . S
C907 C901 1.465 . S
C907 C906 1.396 . S
C907 C908 1.399 . S
C908 H894 0.929 . S
C908 C907 1.399 . S
C908 C909 1.385 . S
C909 H895 0.931 . S
C909 C908 1.385 . S
C909 C910 1.389 . S
C910 C909 1.389 . S
C910 C911 1.387 . S
C911 H896 0.930 . S
C911 C906 1.390 . S
C911 C910 1.387 . S
H912 C924 0.930 . S
H913 C926 0.930 . S
H914 C927 0.930 . S
H915 C931 0.959 . S
H916 C931 0.959 . S
H917 C931 0.961 . S
H918 C932 0.960 . S
H919 C932 0.961 . S
H920 C932 0.959 . S
H921 C935 0.929 . S
H922 C936 0.931 . S
H923 C938 0.930 . S
C924 H912 0.930 . S
C924 C925 1.399 . S
C924 C929 1.399 . S
C925 C924 1.399 . S
C925 C926 1.376 . S
C926 H913 0.930 . S
C926 C925 1.376 . S
C926 C927 1.388 . S
C927 H914 0.930 . S
C927 C926 1.388 . S
C927 C928 1.390 . S
C928 C927 1.390 . S
C928 C929 1.394 . S
C928 C934 1.465 . S
C929 C924 1.399 . S
C929 C928 1.394 . S
C929 C930 1.516 . S
C930 C929 1.516 . S
C930 C931 1.502 . S
C930 C932 1.561 . S
C930 C933 1.526 . S
C931 H915 0.959 . S
C931 H916 0.959 . S
C931 H917 0.961 . S
C931 C930 1.502 . S
C932 H918 0.960 . S
C932 H919 0.961 . S
C932 H920 0.959 . S
C932 C930 1.561 . S
C933 C930 1.526 . S
C933 C934 1.396 . S
C933 C938 1.390 . S
C934 C928 1.465 . S
C934 C933 1.396 . S
C934 C935 1.399 . S
C935 H921 0.929 . S
C935 C934 1.399 . S
C935 C936 1.385 . S
C936 H922 0.931 . S
C936 C935 1.385 . S
C936 C937 1.389 . S
C937 C936 1.389 . S
C937 C938 1.387 . S
C938 H923 0.930 . S
C938 C933 1.390 . S
C938 C937 1.387 . S
H939 C951 0.930 . S
H940 C953 0.930 . S
H941 C954 0.930 . S
H942 C958 0.959 . S
H943 C958 0.959 . S
H944 C958 0.961 . S
H945 C959 0.960 . S
H946 C959 0.961 . S
H947 C959 0.959 . S
H948 C962 0.929 . S
H949 C963 0.931 . S
H950 C965 0.930 . S
C951 H939 0.930 . S
C951 C952 1.399 . S
C951 C956 1.399 . S
C952 C951 1.399 . S
C952 C953 1.376 . S
C953 H940 0.930 . S
C953 C952 1.376 . S
C953 C954 1.388 . S
C954 H941 0.930 . S
C954 C953 1.388 . S
C954 C955 1.390 . S
C955 C954 1.390 . S
C955 C956 1.394 . S
C955 C961 1.465 . S
C956 C951 1.399 . S
C956 C955 1.394 . S
C956 C957 1.516 . S
C957 C956 1.516 . S
C957 C958 1.502 . S
C957 C959 1.561 . S
C957 C960 1.526 . S
C958 H942 0.959 . S
C958 H943 0.959 . S
C958 H944 0.961 . S
C958 C957 1.502 . S
C959 H945 0.960 . S
C959 H946 0.961 . S
C959 H947 0.959 . S
C959 C957 1.561 . S
C960 C957 1.526 . S
C960 C961 1.396 . S
C960 C965 1.390 . S
C961 C955 1.465 . S
C961 C960 1.396 . S
C961 C962 1.399 . S
C962 H948 0.929 . S
C962 C961 1.399 . S
C962 C963 1.385 . S
C963 H949 0.931 . S
C963 C962 1.385 . S
C963 C964 1.389 . S
C964 C963 1.389 . S
C964 C965 1.387 . S
C965 H950 0.930 . S
C965 C960 1.390 . S
C965 C964 1.387 . S
H966 C978 0.930 . S
H967 C980 0.930 . S
H968 C981 0.930 . S
H969 C985 0.959 . S
H970 C985 0.959 . S
H971 C985 0.961 . S
H972 C986 0.960 1_554 S
H973 C986 0.961 . S
H974 C986 0.959 . S
H975 C989 0.929 . S
H976 C990 0.931 . S
H977 C992 0.930 . S
C978 H966 0.930 . S
C978 C979 1.399 . S
C978 C983 1.399 . S
C979 C978 1.399 . S
C979 C980 1.376 . S
C980 H967 0.930 . S
C980 C979 1.376 . S
C980 C981 1.388 . S
C981 H968 0.930 . S
C981 C980 1.388 . S
C981 C982 1.390 . S
C982 C981 1.390 . S
C982 C983 1.394 . S
C982 C988 1.465 1_554 S
C983 C978 1.399 . S
C983 C982 1.394 . S
C983 C984 1.516 . S
C984 C983 1.516 . S
C984 C985 1.502 . S
C984 C986 1.561 1_554 S
C984 C987 1.526 1_554 S
C985 H969 0.959 . S
C985 H970 0.959 . S
C985 H971 0.961 . S
C985 C984 1.502 . S
C986 H972 0.960 1_556 S
C986 H973 0.961 . S
C986 H974 0.959 . S
C986 C984 1.561 1_556 S
C987 C984 1.526 1_556 S
C987 C988 1.396 . S
C987 C992 1.390 . S
C988 C982 1.465 1_556 S
C988 C987 1.396 . S
C988 C989 1.399 . S
C989 H975 0.929 . S
C989 C988 1.399 . S
C989 C990 1.385 . S
C990 H976 0.931 . S
C990 C989 1.385 . S
C990 C991 1.389 . S
C991 C990 1.389 . S
C991 C992 1.387 . S
C992 H977 0.930 . S
C992 C987 1.390 . S
C992 C991 1.387 . S
H993 C1005 0.930 . S
H994 C1007 0.930 . S
H995 C1008 0.930 . S
H996 C1012 0.959 . S
H997 C1012 0.959 . S
H998 C1012 0.961 . S
H999 C1013 0.960 . S
H1000 C1013 0.961 . S
H1001 C1013 0.959 . S
H1002 C1016 0.929 . S
H1003 C1017 0.931 . S
H1004 C1019 0.930 . S
C1005 H993 0.930 . S
C1005 C1006 1.399 . S
C1005 C1010 1.399 . S
C1006 C1005 1.399 . S
C1006 C1007 1.376 . S
C1007 H994 0.930 . S
C1007 C1006 1.376 . S
C1007 C1008 1.388 . S
C1008 H995 0.930 . S
C1008 C1007 1.388 . S
C1008 C1009 1.390 . S
C1009 C1008 1.390 . S
C1009 C1010 1.394 . S
C1009 C1015 1.465 . S
C1010 C1005 1.399 . S
C1010 C1009 1.394 . S
C1010 C1011 1.516 . S
C1011 C1010 1.516 . S
C1011 C1012 1.502 . S
C1011 C1013 1.561 . S
C1011 C1014 1.526 . S
C1012 H996 0.959 . S
C1012 H997 0.959 . S
C1012 H998 0.961 . S
C1012 C1011 1.502 . S
C1013 H999 0.960 . S
C1013 H1000 0.961 . S
C1013 H1001 0.959 . S
C1013 C1011 1.561 . S
C1014 C1011 1.526 . S
C1014 C1015 1.396 . S
C1014 C1019 1.390 . S
C1015 C1009 1.465 . S
C1015 C1014 1.396 . S
C1015 C1016 1.399 . S
C1016 H1002 0.929 . S
C1016 C1015 1.399 . S
C1016 C1017 1.385 . S
C1017 H1003 0.931 . S
C1017 C1016 1.385 . S
C1017 C1018 1.389 . S
C1018 C1017 1.389 . S
C1018 C1019 1.387 . S
C1019 H1004 0.930 . S
C1019 C1014 1.390 . S
C1019 C1018 1.387 . S
C397 C365 1.475 . S
C385 C45 1.510 . S
C412 C84 1.497 . S
C424 C294 1.448 . S
C439 C126 1.490 . S
C451 C308 1.511 . S
C466 C189 1.486 . S
C478 C322 1.457 . S
C505 C336 1.497 . S
C493 C228 1.491 . S
C520 C270 1.496 . S
C532 C351 1.452 . S
C547 C69 1.499 . S
C559 C309 1.450 . S
C574 C141 1.517 . S
C586 C323 1.474 . S
C601 C174 1.460 . S
C613 C337 1.446 . S
C640 C350 1.497 . S
C628 C213 1.478 . S
C667 C364 1.430 . S
C655 C285 1.493 . S
C694 C295 1.484 . S
C682 C30 1.517 . S
C709 C36 1.521 . S
C721 C311 1.530 . S
C736 C93 1.586 . S
C748 C325 1.558 . S
C775 C339 1.483 . S
C763 C117 1.536 . S
C790 C180 1.582 . S
C802 C352 1.584 . S
C829 C366 1.481 . S
C817 C237 1.530 . S
C856 C297 1.531 . S
C844 C261 1.590 . S
C883 C367 1.546 . S
C871 C78 1.580 . S
C898 C132 1.537 . S
C910 C296 1.487 . S
C937 C310 1.534 . S
C925 C165 1.575 . S
C952 C222 1.490 . S
C964 C324 1.513 . S
C979 C276 1.582 . S
C991 C338 1.585 . S
C1006 C21 1.531 . S
C1018 C353 1.477 . S
