# Generated by pormake.
# Topology anh, (6,3)-cn, num edge types: 1
# Building blocks:
#     Node 0, Type 0, BuildingBlock: BETDAH_clean_sbu_0, # of connection points: 6
#     Node 1, Type 0, BuildingBlock: BETDAH_clean_sbu_0, # of connection points: 6
#     Node 2, Type 0, BuildingBlock: BETDAH_clean_sbu_0, # of connection points: 6
#     Node 3, Type 1, BuildingBlock: MIDCAF_clean_linker_0, # of connection points: 3
#     Node 4, Type 1, BuildingBlock: MIDCAF_clean_linker_0, # of connection points: 3
#     Node 5, Type 1, BuildingBlock: MIDCAF_clean_linker_0, # of connection points: 3
#     Node 6, Type 1, BuildingBlock: MIDCAF_clean_linker_0, # of connection points: 3
#     Node 7, Type 1, BuildingBlock: MIDCAF_clean_linker_0, # of connection points: 3
#     Node 8, Type 1, BuildingBlock: MIDCAF_clean_linker_0, # of connection points: 3
#     Edge 9, Type (0, 1), BuildingBlock: MIFKUJ_clean_linker_0, # of connection points: 2
#     Edge 10, Type (0, 1), BuildingBlock: MIFKUJ_clean_linker_0, # of connection points: 2
#     Edge 11, Type (0, 1), BuildingBlock: MIFKUJ_clean_linker_0, # of connection points: 2
#     Edge 12, Type (0, 1), BuildingBlock: MIFKUJ_clean_linker_0, # of connection points: 2
#     Edge 13, Type (0, 1), BuildingBlock: MIFKUJ_clean_linker_0, # of connection points: 2
#     Edge 14, Type (0, 1), BuildingBlock: MIFKUJ_clean_linker_0, # of connection points: 2
#     Edge 15, Type (0, 1), BuildingBlock: MIFKUJ_clean_linker_0, # of connection points: 2
#     Edge 16, Type (0, 1), BuildingBlock: MIFKUJ_clean_linker_0, # of connection points: 2
#     Edge 17, Type (0, 1), BuildingBlock: MIFKUJ_clean_linker_0, # of connection points: 2
#     Edge 18, Type (0, 1), BuildingBlock: MIFKUJ_clean_linker_0, # of connection points: 2
#     Edge 19, Type (0, 1), BuildingBlock: MIFKUJ_clean_linker_0, # of connection points: 2
#     Edge 20, Type (0, 1), BuildingBlock: MIFKUJ_clean_linker_0, # of connection points: 2
#     Edge 21, Type (0, 1), BuildingBlock: MIFKUJ_clean_linker_0, # of connection points: 2
#     Edge 22, Type (0, 1), BuildingBlock: MIFKUJ_clean_linker_0, # of connection points: 2
#     Edge 23, Type (0, 1), BuildingBlock: MIFKUJ_clean_linker_0, # of connection points: 2
#     Edge 24, Type (0, 1), BuildingBlock: MIFKUJ_clean_linker_0, # of connection points: 2
#     Edge 25, Type (0, 1), BuildingBlock: MIFKUJ_clean_linker_0, # of connection points: 2
#     Edge 26, Type (0, 1), BuildingBlock: MIFKUJ_clean_linker_0, # of connection points: 2
# Relax obj value: 0.164
# Max RMSD: 0.201
# Mean RMSD: 0.151
data_MOF--net-anh--node1-BETDAH_clean_sbu_0--node2-MIDCAF_clean_linker_0--edge1-MIFKUJ_clean_linker_0
_symmetry_space_group_name_H-M    P1
_symmetry_Int_Tables_number       1
_symmetry_cell_setting            triclinic
loop_
_symmetry_equiv_pos_as_xyz
'x, y, z'
_cell_length_a     46.587595
_cell_length_b     52.355915
_cell_length_c     82.390152
_cell_angle_alpha  92.284064
_cell_angle_beta   90.043463
_cell_angle_gamma 127.19143
loop_
_atom_site_label
_atom_site_type_symbol
_atom_site_fract_x
_atom_site_fract_y
_atom_site_fract_z
_atom_type_partial_charge
Ho0 Ho 0.07266 0.51871 0.1457 0.0
Ho1 Ho 0.03648 0.5478 0.15819 0.0
C2 C 0.1205 0.59713 0.15311 0.0
C3 C 0.11074 0.50566 0.13025 0.0
C4 C 0.14704 0.51462 0.13309 0.0
C5 C 0.17095 0.52527 0.12028 0.0
C6 C 0.2047 0.53206 0.12263 0.0
C7 C 0.21494 0.52796 0.13782 0.0
C8 C 0.19138 0.51851 0.15079 0.0
C9 C 0.15793 0.51214 0.14848 0.0
C10 C 0.06803 0.52066 0.17827 0.0
C11 C 0.98981 0.47041 0.15153 0.0
C12 C 0.99775 0.55921 0.17453 0.0
C13 C 0.96169 0.5374 0.18116 0.0
C14 C 0.95227 0.54647 0.19521 0.0
C15 C 0.91821 0.52501 0.20172 0.0
C16 C 0.89373 0.49401 0.19447 0.0
C17 C 0.90343 0.48503 0.18049 0.0
C18 C 0.93693 0.50664 0.17381 0.0
C19 C 0.04293 0.54672 0.12563 0.0
O20 O 0.1183 0.57252 0.14632 0.0
O21 O 0.0926 0.5933 0.16 0.0
O22 O 0.08659 0.48682 0.14073 0.0
O23 O 0.1092 0.5288 0.12635 0.0
O24 O 0.06641 0.49812 0.17015 0.0
O25 O 0.0751 0.54207 0.16896 0.0
O26 O 0.99497 0.49416 0.16082 0.0
O27 O 1.01492 0.47578 0.14156 0.0
O28 O 0.99903 0.55924 0.15867 0.0
O29 O 1.02257 0.55836 0.18125 0.0
O30 O 0.04581 0.56983 0.13392 0.0
O31 O 0.03452 0.52465 0.13481 0.0
H32 H 0.16324 0.52777 0.10838 0.0
H33 H 0.22242 0.53983 0.11246 0.0
H34 H 0.19797 0.51458 0.16258 0.0
H35 H 0.1402 0.50441 0.15866 0.0
H36 H 0.97114 0.5701 0.20107 0.0
H37 H 0.911 0.5325 0.2124 0.0
H38 H 0.88462 0.46158 0.17442 0.0
H39 H 0.94337 0.49932 0.1628 0.0
Ho40 Ho 0.58424 0.02059 0.48462 0.0
Ho41 Ho 0.53898 0.0423 0.47633 0.0
C42 C 0.49777 0.96739 0.47689 0.0
C43 C 0.61103 0.99482 0.49782 0.0
C44 C 0.60351 0.9632 0.49895 0.0
C45 C 0.56942 0.93566 0.50291 0.0
C46 C 0.56401 0.90654 0.5048 0.0
C47 C 0.59256 0.90444 0.50279 0.0
C48 C 0.62629 0.93192 0.49839 0.0
C49 C 0.63169 0.96093 0.49655 0.0
C50 C 0.58015 0.02784 0.45265 0.0
C51 C 0.62638 0.09537 0.48155 0.0
C52 C 0.51242 0.07014 0.4657 0.0
C53 C 0.51661 0.09965 0.47071 0.0
C54 C 0.51529 0.11764 0.45898 0.0
C55 C 0.51852 0.14532 0.46365 0.0
C56 C 0.52286 0.15535 0.48016 0.0
C57 C 0.52466 0.13746 0.49185 0.0
C58 C 0.52178 0.11001 0.48717 0.0
C59 C 0.54481 0.03585 0.5083 0.0
O60 O 0.52688 0.97445 0.48466 0.0
O61 O 0.49814 0.98981 0.4698 0.0
O62 O 0.62023 0.0074 0.48362 0.0
O63 O 0.58956 0.99938 0.50529 0.0
O64 O 0.60809 0.03312 0.4599 0.0
O65 O 0.55459 0.01627 0.46231 0.0
O66 O 0.59608 0.0878 0.47491 0.0
O67 O 0.62747 0.07365 0.48854 0.0
O68 O 0.49612 0.0471 0.47587 0.0
O69 O 0.54066 0.07412 0.45956 0.0
O70 O 0.51599 0.02905 0.5013 0.0
O71 O 0.5697 0.04774 0.49833 0.0
H72 H 0.54716 0.93673 0.5048 0.0
H73 H 0.53774 0.88594 0.50829 0.0
H74 H 0.64869 0.93107 0.4964 0.0
H75 H 0.65814 0.98181 0.49342 0.0
H76 H 0.51146 0.11013 0.44622 0.0
H77 H 0.51686 0.15851 0.45437 0.0
H78 H 0.52853 0.14484 0.50463 0.0
H79 H 0.52338 0.09677 0.49644 0.0
Ho80 Ho 0.58886 0.55805 0.84784 0.0
Ho81 Ho 0.53943 0.486 0.85057 0.0
C82 C 0.50068 0.52044 0.85101 0.0
C83 C 0.6198 0.61602 0.83898 0.0
C84 C 0.61057 0.63802 0.83582 0.0
C85 C 0.59104 0.63414 0.82169 0.0
C86 C 0.58482 0.65648 0.8184 0.0
C87 C 0.59805 0.68329 0.82911 0.0
C88 C 0.61702 0.68676 0.84337 0.0
C89 C 0.62332 0.6645 0.84663 0.0
C90 C 0.57971 0.53763 0.87817 0.0
C91 C 0.6284 0.52424 0.84898 0.0
C92 C 0.50983 0.42767 0.8583 0.0
C93 C 0.51562 0.40318 0.8543 0.0
C94 C 0.53536 0.39848 0.86504 0.0
C95 C 0.54051 0.37518 0.86134 0.0
C96 C 0.52583 0.35586 0.84685 0.0
C97 C 0.50607 0.3606 0.83615 0.0
C98 C 0.50093 0.38384 0.83984 0.0
C99 C 0.54884 0.50552 0.81996 0.0
O100 O 0.53219 0.54593 0.84598 0.0
O101 O 0.49804 0.49508 0.85574 0.0
O102 O 0.61922 0.6089 0.85407 0.0
O103 O 0.60683 0.59134 0.82874 0.0
O104 O 0.61016 0.5625 0.87321 0.0
O105 O 0.55559 0.52616 0.86719 0.0
O106 O 0.59575 0.4975 0.85186 0.0
O107 O 0.63244 0.5509 0.84565 0.0
O108 O 0.49766 0.43508 0.8465 0.0
O109 O 0.53473 0.45288 0.86737 0.0
O110 O 0.51903 0.48026 0.82501 0.0
O111 O 0.57296 0.51771 0.83103 0.0
H112 H 0.58107 0.61418 0.81301 0.0
H113 H 0.57046 0.65318 0.80722 0.0
H114 H 0.62713 0.70677 0.85203 0.0
H115 H 0.63864 0.66825 0.85756 0.0
H116 H 0.54671 0.41272 0.87637 0.0
H117 H 0.55549 0.37194 0.86996 0.0
H118 H 0.49481 0.34652 0.82477 0.0
H119 H 0.48542 0.38661 0.8313 0.0
C120 C 0.4765 0.91747 0.19016 0.0
C121 C 0.45519 0.91548 0.17736 0.0
C122 C 0.4644 0.94418 0.17114 0.0
C123 C 0.49366 0.97418 0.17794 0.0
H124 H 0.60429 0.07533 0.17016 0.0
H125 H 0.65112 0.12716 0.15895 0.0
H126 H 0.67593 0.17296 0.20702 0.0
H127 H 0.62929 0.12218 0.21801 0.0
H128 H 0.58482 0.08282 0.24861 0.0
H129 H 0.58333 0.08106 0.27826 0.0
H130 H 0.54115 0.98152 0.27438 0.0
H131 H 0.54193 0.98292 0.24474 0.0
H132 H 0.52002 0.94782 0.2074 0.0
H133 H 0.47002 0.89591 0.19533 0.0
H134 H 0.44857 0.9434 0.16123 0.0
H135 H 0.49941 0.99586 0.1733 0.0
N136 N 0.56279 0.03513 0.19327 0.0
N137 N 0.58597 0.06183 0.21896 0.0
N138 N 0.54109 0.00635 0.2171 0.0
C139 C 0.58618 0.06291 0.20248 0.0
C140 C 0.56362 0.03376 0.22635 0.0
C141 C 0.54017 0.0067 0.20063 0.0
C142 C 0.61281 0.09432 0.19503 0.0
C143 C 0.61948 0.09656 0.17828 0.0
C144 C 0.64654 0.12628 0.17187 0.0
C145 C 0.66738 0.15446 0.18204 0.0
C146 C 0.66017 0.1521 0.19869 0.0
C147 C 0.63339 0.12264 0.20506 0.0
C148 C 0.56348 0.033 0.24432 0.0
C149 C 0.57527 0.06056 0.25407 0.0
C150 C 0.57422 0.05954 0.27102 0.0
C151 C 0.56207 0.03115 0.27855 0.0
C152 C 0.55073 0.00372 0.26885 0.0
C153 C 0.55108 0.00453 0.2519 0.0
C154 C 0.51367 0.97595 0.1913 0.0
C155 C 0.50512 0.94726 0.19711 0.0
C156 C 0.54814 0.43037 0.56079 0.0
C157 C 0.54823 0.4287 0.54373 0.0
C158 C 0.55283 0.45372 0.53526 0.0
C159 C 0.5571 0.4797 0.54369 0.0
H160 H 0.55107 0.5581 0.53917 0.0
H161 H 0.55287 0.60044 0.52633 0.0
H162 H 0.59469 0.65825 0.57128 0.0
H163 H 0.59318 0.61649 0.58404 0.0
H164 H 0.59318 0.58715 0.61645 0.0
H165 H 0.59546 0.58872 0.64613 0.0
H166 H 0.55539 0.48968 0.64461 0.0
H167 H 0.55302 0.48792 0.61502 0.0
H168 H 0.55241 0.45654 0.58233 0.0
H169 H 0.54527 0.41184 0.56773 0.0
H170 H 0.55275 0.45305 0.5221 0.0
H171 H 0.56057 0.49853 0.53679 0.0
N172 N 0.56461 0.53264 0.56222 0.0
N173 N 0.57285 0.5594 0.58737 0.0
N174 N 0.56511 0.51088 0.5865 0.0
C175 C 0.56989 0.55798 0.57088 0.0
C176 C 0.5704 0.53595 0.59528 0.0
C177 C 0.56234 0.50899 0.57 0.0
C178 C 0.57195 0.58379 0.56266 0.0
C179 C 0.56086 0.57993 0.54628 0.0
C180 C 0.56166 0.60408 0.53894 0.0
C181 C 0.57402 0.63273 0.54778 0.0
C182 C 0.58545 0.63666 0.56407 0.0
C183 C 0.58434 0.61253 0.57142 0.0
C184 C 0.57279 0.53736 0.61331 0.0
C185 C 0.58489 0.56569 0.62242 0.0
C186 C 0.58641 0.5667 0.63943 0.0
C187 C 0.57544 0.53929 0.64767 0.0
C188 C 0.56362 0.51108 0.63858 0.0
C189 C 0.56248 0.51016 0.62161 0.0
C190 C 0.5571 0.48134 0.56078 0.0
C191 C 0.55251 0.45626 0.56918 0.0
C192 C 0.9505 0.50068 0.85434 0.0
C193 C 0.95053 0.52725 0.85871 0.0
C194 C 0.9833 0.55478 0.86559 0.0
C195 C 1.0136 0.5553 0.86858 0.0
H196 H 0.13783 0.55123 0.84873 0.0
H197 H 0.18944 0.55068 0.84291 0.0
H198 H 0.15817 0.48553 0.88129 0.0
H199 H 0.10713 0.48548 0.88656 0.0
H200 H 0.10288 0.5194 0.92071 0.0
H201 H 0.10172 0.52239 0.95029 0.0
H202 H 1.02377 0.54143 0.94715 0.0
H203 H 1.02516 0.5389 0.91763 0.0
H204 H 0.9788 0.4797 0.85469 0.0
H205 H 0.92646 0.47892 0.84889 0.0
H206 H 0.98525 0.57575 0.86954 0.0
H207 H 0.03702 0.57637 0.87487 0.0
N208 N 0.06543 0.52346 0.86534 0.0
N209 N 0.08813 0.52374 0.89106 0.0
N210 N 0.04161 0.52862 0.88952 0.0
C211 C 0.08943 0.52205 0.87459 0.0
C212 C 0.0647 0.5271 0.89862 0.0
C213 C 0.04105 0.52664 0.87303 0.0
C214 C 0.1173 0.51801 0.86801 0.0
C215 C 0.14136 0.53604 0.85557 0.0
C216 C 0.17163 0.5361 0.85244 0.0
C217 C 0.17903 0.51803 0.86155 0.0
C218 C 0.15411 0.49944 0.87361 0.0
C219 C 0.12432 0.49948 0.87673 0.0
C220 C 0.06414 0.52893 0.91669 0.0
C221 C 0.08551 0.5243 0.92629 0.0
C222 C 0.08471 0.52581 0.94327 0.0
C223 C 0.06267 0.53216 0.9511 0.0
C224 C 0.04139 0.53688 0.94153 0.0
C225 C 0.04204 0.53522 0.92456 0.0
C226 C 1.01328 0.5286 0.86468 0.0
C227 C 0.98111 0.50132 0.85732 0.0
C228 C 0.15449 0.64437 0.4377 0.0
C229 C 0.16934 0.64637 0.45296 0.0
C230 C 0.15372 0.61793 0.4613 0.0
C231 C 0.12413 0.58817 0.45437 0.0
H232 H 1.02497 0.48309 0.46087 0.0
H233 H 0.97466 0.43329 0.47273 0.0
H234 H 0.91403 0.40448 0.42733 0.0
H235 H 0.96334 0.45339 0.41563 0.0
H236 H 1.00206 0.48123 0.38327 0.0
H237 H 1.00202 0.48158 0.3537 0.0
H238 H 0.10902 0.5719 0.35617 0.0
H239 H 0.1087 0.57207 0.38564 0.0
H240 H 0.11538 0.61456 0.41886 0.0
H241 H 0.16602 0.66556 0.4308 0.0
H242 H 0.16446 0.6187 0.47312 0.0
H243 H 0.11301 0.56659 0.46087 0.0
N244 N 0.05537 0.52875 0.43811 0.0
N245 N 1.029 0.50108 0.41282 0.0
N246 N 0.08116 0.554 0.4137 0.0
C247 C 1.02869 0.50147 0.42935 0.0
C248 C 0.05523 0.52711 0.40491 0.0
C249 C 0.08161 0.5553 0.43019 0.0
C250 C 0.99838 0.47234 0.43727 0.0
C251 C 1.00077 0.46618 0.4535 0.0
C252 C 0.97207 0.43761 0.46026 0.0
C253 C 0.94023 0.415 0.451 0.0
C254 C 0.93787 0.42151 0.43489 0.0
C255 C 0.96644 0.4496 0.42813 0.0
C256 C 0.05532 0.52666 0.38688 0.0
C257 C 1.0256 0.50115 0.37751 0.0
C258 C 1.02564 0.50128 0.36053 0.0
C259 C 0.05548 0.52683 0.35252 0.0
C260 C 0.0853 0.55214 0.36191 0.0
C261 C 0.08518 0.55211 0.37886 0.0
C262 C 0.11017 0.58633 0.43886 0.0
C263 C 0.1255 0.61491 0.43078 0.0
C264 C 0.55078 0.10754 0.77024 0.0
C265 C 0.55998 0.11425 0.7869 0.0
C266 C 0.57153 0.09831 0.79466 0.0
C267 C 0.5733 0.07573 0.78593 0.0
H268 H 0.58119 0.99766 0.78993 0.0
H269 H 0.58161 0.95584 0.80202 0.0
H270 H 0.55054 0.9039 0.75542 0.0
H271 H 0.54998 0.94517 0.74339 0.0
H272 H 0.54683 0.97513 0.71182 0.0
H273 H 0.54653 0.97618 0.68219 0.0
H274 H 0.58675 0.07523 0.68581 0.0
H275 H 0.58675 0.07427 0.71544 0.0
H276 H 0.54569 0.08101 0.74866 0.0
H277 H 0.54216 0.11968 0.76389 0.0
H278 H 0.57868 0.10297 0.80752 0.0
H279 H 0.58207 0.06368 0.79223 0.0
N280 N 0.56619 0.02275 0.76702 0.0
N281 N 0.56615 1.00113 0.74147 0.0
N282 N 0.56634 0.04592 0.74315 0.0
C283 C 0.56614 1.00036 0.75794 0.0
C284 C 0.56652 0.02393 0.73398 0.0
C285 C 0.56602 0.04551 0.75964 0.0
C286 C 0.56563 0.9749 0.76567 0.0
C287 C 0.57428 0.97723 0.7823 0.0
C288 C 0.57471 0.95339 0.78921 0.0
C289 C 0.56599 0.92651 0.77968 0.0
C290 C 0.55695 0.92407 0.76314 0.0
C291 C 0.55691 0.94795 0.75622 0.0
C292 C 0.56675 0.02461 0.71601 0.0
C293 C 0.5557 0.99718 0.70632 0.0
C294 C 0.55535 0.99769 0.68936 0.0
C295 C 0.56664 0.02578 0.68175 0.0
C296 C 0.57816 0.05333 0.69139 0.0
C297 C 0.57793 0.05268 0.70835 0.0
C298 C 0.5642 0.06916 0.76921 0.0
C299 C 0.55306 0.08547 0.7615 0.0
C300 C 0.57589 0.36134 0.12246 0.0
C301 C 0.56527 0.34921 0.13799 0.0
C302 C 0.53033 0.33635 0.14288 0.0
C303 C 0.50716 0.33766 0.1328 0.0
H304 H 0.46251 0.3882 0.14032 0.0
H305 H 0.43501 0.41042 0.15407 0.0
H306 H 0.37528 0.39457 0.10989 0.0
H307 H 0.4028 0.37263 0.09607 0.0
H308 H 0.44023 0.37353 0.06225 0.0
H309 H 0.45397 0.39189 0.03476 0.0
H310 H 0.55468 0.40498 0.03859 0.0
H311 H 0.54037 0.38558 0.06603 0.0
H312 H 0.56199 0.37288 0.10062 0.0
H313 H 0.6028 0.37135 0.11848 0.0
H314 H 0.52173 0.32705 0.15485 0.0
H315 H 0.48091 0.32897 0.13718 0.0
N316 N 0.47392 0.36182 0.11615 0.0
N317 N 0.45997 0.37439 0.09188 0.0
N318 N 0.50114 0.36257 0.09202 0.0
C319 C 0.4556 0.37018 0.10807 0.0
C320 C 0.48258 0.37058 0.08373 0.0
C321 C 0.4964 0.35761 0.1082 0.0
C322 C 0.43494 0.37882 0.11707 0.0
C323 C 0.44294 0.38883 0.13363 0.0
C324 C 0.42743 0.40172 0.14149 0.0
C325 C 0.40314 0.40421 0.13302 0.0
C326 C 0.39369 0.39263 0.11674 0.0
C327 C 0.40959 0.38023 0.10881 0.0
C328 C 0.48934 0.37834 0.06641 0.0
C329 C 0.46518 0.38003 0.0572 0.0
C330 C 0.47318 0.39078 0.04145 0.0
C331 C 0.50573 0.40047 0.03453 0.0
C332 C 0.52927 0.39755 0.04349 0.0
C333 C 0.52109 0.38648 0.05925 0.0
C334 C 0.51843 0.3514 0.11759 0.0
C335 C 0.55252 0.36213 0.11226 0.0
H336 H 0.2428 0.50864 0.11574 0.0
H337 H 0.28923 0.50191 0.12061 0.0
H338 H 0.30734 0.54296 0.16938 0.0
H339 H 0.26152 0.551 0.16444 0.0
H340 H 0.36192 0.5388 0.13125 0.0
H341 H 0.30856 0.48958 0.19307 0.0
H342 H 0.25558 0.47026 0.20975 0.0
H343 H 0.1878 0.43525 0.16658 0.0
H344 H 0.24027 0.45395 0.14971 0.0
H345 H 0.44268 0.46301 0.14905 0.0
H346 H 0.42229 0.49527 0.15682 0.0
H347 H 0.31374 0.41639 0.14115 0.0
H348 H 0.33393 0.38413 0.13343 0.0
H349 H 0.31636 0.45081 0.16886 0.0
H350 H 0.36821 0.46969 0.11471 0.0
H351 H 0.41805 0.48628 0.09642 0.0
H352 H 0.48476 0.57854 0.12195 0.0
H353 H 0.43539 0.56226 0.14053 0.0
C354 C 0.25751 0.51748 0.12731 0.0
C355 C 0.24797 0.52995 0.13978 0.0
C356 C 0.28408 0.51353 0.13008 0.0
C357 C 0.30135 0.5216 0.1454 0.0
C358 C 0.29403 0.53635 0.15751 0.0
C359 C 0.26762 0.54063 0.1547 0.0
C360 C 0.3226 0.51002 0.14911 0.0
C361 C 0.35258 0.52015 0.13977 0.0
C362 C 0.31023 0.48556 0.16017 0.0
C363 C 0.27835 0.47351 0.17016 0.0
C364 C 0.2823 0.47767 0.18717 0.0
C365 C 0.25238 0.46682 0.19665 0.0
C366 C 0.21837 0.45164 0.18923 0.0
C367 C 0.21417 0.4471 0.17231 0.0
C368 C 0.24398 0.45781 0.16279 0.0
C369 C 0.41429 0.45229 0.14774 0.0
C370 C 0.38985 0.42123 0.14053 0.0
C371 C 0.40275 0.47074 0.15213 0.0
C372 C 0.36662 0.45825 0.14943 0.0
C373 C 0.34173 0.42641 0.14336 0.0
C374 C 0.35329 0.4081 0.13885 0.0
C375 C 0.35519 0.47912 0.15073 0.0
C376 C 0.32688 0.47056 0.16093 0.0
C377 C 0.36889 0.50483 0.14035 0.0
C378 C 0.39835 0.51464 0.12911 0.0
C379 C 0.3936 0.49342 0.11648 0.0
C380 C 0.42174 0.50278 0.10606 0.0
C381 C 0.45459 0.53341 0.10806 0.0
C382 C 0.45933 0.55479 0.12045 0.0
C383 C 0.4313 0.54552 0.13093 0.0
H384 H 0.47634 0.54062 0.09997 0.0
H385 H 0.19526 0.44333 0.19658 0.0
H386 H 0.69546 0.12078 0.49201 0.0
H387 H 0.75038 0.17555 0.48913 0.0
H388 H 0.6877 0.20085 0.46657 0.0
H389 H 0.63302 0.14637 0.4692 0.0
H390 H 0.74539 0.22089 0.44943 0.0
H391 H 0.72265 0.22676 0.50595 0.0
H392 H 0.71199 0.2101 0.53424 0.0
H393 H 0.81465 0.22765 0.53695 0.0
H394 H 0.82572 0.24401 0.50858 0.0
H395 H 0.86856 0.38785 0.44831 0.0
H396 H 0.81752 0.33445 0.45586 0.0
H397 H 0.89065 0.31862 0.47612 0.0
H398 H 0.94212 0.37244 0.46863 0.0
H399 H 0.83073 0.29279 0.49464 0.0
H400 H 0.85424 0.28835 0.43848 0.0
H401 H 0.86506 0.305 0.41019 0.0
H402 H 0.7607 0.28399 0.40671 0.0
H403 H 0.74947 0.26767 0.43508 0.0
C404 C 0.69331 0.13807 0.48655 0.0
C405 C 0.65971 0.12902 0.48082 0.0
C406 C 0.72478 0.16945 0.48496 0.0
C407 C 0.72328 0.1925 0.47769 0.0
C408 C 0.68968 0.18357 0.47217 0.0
C409 C 0.65833 0.15231 0.47374 0.0
C410 C 0.75663 0.22557 0.47518 0.0
C411 C 0.76376 0.23669 0.45937 0.0
C412 C 0.78138 0.24598 0.48802 0.0
C413 C 0.77484 0.23627 0.50509 0.0
C414 C 0.74283 0.22682 0.51253 0.0
C415 C 0.73673 0.21748 0.52859 0.0
C416 C 0.76258 0.21772 0.53737 0.0
C417 C 0.79463 0.22741 0.53012 0.0
C418 C 0.80084 0.23675 0.51406 0.0
C419 C 0.87384 0.37312 0.45448 0.0
C420 C 0.90946 0.38427 0.45767 0.0
C421 C 0.8446 0.34255 0.45878 0.0
C422 C 0.85016 0.32215 0.46624 0.0
C423 C 0.88564 0.33382 0.47029 0.0
C424 C 0.91504 0.36462 0.46604 0.0
C425 C 0.81894 0.28822 0.46895 0.0
C426 C 0.81234 0.27691 0.48472 0.0
C427 C 0.7946 0.26749 0.45607 0.0
C428 C 0.80114 0.27705 0.43896 0.0
C429 C 0.83369 0.28749 0.43172 0.0
C430 C 0.83989 0.29684 0.41567 0.0
C431 C 0.81361 0.29562 0.40667 0.0
C432 C 0.78104 0.28496 0.4137 0.0
C433 C 0.77474 0.27563 0.42976 0.0
H434 H 0.81846 0.30287 0.39424 0.0
H435 H 0.75782 0.21048 0.5498 0.0
H436 H 0.53867 0.67412 0.81508 0.0
H437 H 0.53174 0.71502 0.80785 0.0
H438 H 0.63873 0.78929 0.82728 0.0
H439 H 0.64625 0.7487 0.83424 0.0
H440 H 0.58965 0.79995 0.8364 0.0
H441 H 0.62497 0.77418 0.7873 0.0
H442 H 0.62013 0.73782 0.7656 0.0
H443 H 0.51431 0.70733 0.75203 0.0
H444 H 0.51829 0.74315 0.77383 0.0
H445 H 0.618 0.93446 0.79979 0.0
H446 H 0.62158 0.89284 0.80949 0.0
H447 H 0.51958 0.81987 0.78516 0.0
H448 H 0.51623 0.86142 0.77524 0.0
H449 H 0.56521 0.80785 0.77893 0.0
H450 H 0.5294 0.83368 0.82751 0.0
H451 H 0.53296 0.8689 0.84953 0.0
H452 H 0.63769 0.89825 0.86435 0.0
H453 H 0.63498 0.86352 0.84227 0.0
C454 C 0.56086 0.69915 0.81772 0.0
C455 C 0.59308 0.70802 0.82522 0.0
C456 C 0.55678 0.72251 0.81364 0.0
C457 C 0.58482 0.75525 0.81693 0.0
C458 C 0.61668 0.76417 0.8247 0.0
C459 C 0.62086 0.74086 0.82872 0.0
C460 C 0.58132 0.78025 0.81192 0.0
C461 C 0.58469 0.80194 0.82382 0.0
C462 C 0.57406 0.78238 0.79555 0.0
C463 C 0.57179 0.76111 0.78231 0.0
C464 C 0.60056 0.75954 0.77977 0.0
C465 C 0.59799 0.73906 0.76744 0.0
C466 C 0.5669 0.72022 0.75747 0.0
C467 C 0.53836 0.7219 0.75978 0.0
C468 C 0.54076 0.74231 0.77211 0.0
C469 C 0.5961 0.90952 0.79672 0.0
C470 C 0.56687 0.90124 0.78672 0.0
C471 C 0.59815 0.8857 0.80227 0.0
C472 C 0.5707 0.85309 0.79817 0.0
C473 C 0.54117 0.84481 0.78845 0.0
C474 C 0.53928 0.86859 0.78278 0.0
C475 C 0.57338 0.82765 0.80343 0.0
C476 C 0.56998 0.80587 0.79155 0.0
C477 C 0.58043 0.82537 0.81983 0.0
C478 C 0.58212 0.84623 0.83314 0.0
C479 C 0.55331 0.84783 0.83539 0.0
C480 C 0.55515 0.86767 0.84789 0.0
C481 C 0.58557 0.88586 0.8583 0.0
C482 C 0.61417 0.88418 0.85626 0.0
C483 C 0.61248 0.8644 0.84376 0.0
H484 H 0.58695 0.9012 0.86798 0.0
H485 H 0.56495 0.70436 0.74793 0.0
H486 H 0.85797 0.43146 0.20203 0.0
H487 H 0.79257 0.3917 0.20393 0.0
H488 H 0.78058 0.4668 0.19967 0.0
H489 H 0.84573 0.5065 0.19883 0.0
H490 H 0.72646 0.42138 0.21511 0.0
H491 H 0.78789 0.42553 0.16533 0.0
H492 H 0.82946 0.41973 0.15013 0.0
H493 H 0.77131 0.3225 0.16439 0.0
H494 H 0.72971 0.32791 0.17985 0.0
H495 H 0.62784 0.40539 0.1478 0.0
H496 H 0.67286 0.41446 0.16742 0.0
H497 H 0.60853 0.31276 0.17429 0.0
H498 H 0.56247 0.3036 0.1548 0.0
H499 H 0.68808 0.34982 0.16548 0.0
H500 H 0.61265 0.34661 0.2053 0.0
H501 H 0.57242 0.3578 0.21705 0.0
H502 H 0.65861 0.45898 0.21846 0.0
H503 H 0.69923 0.44848 0.20648 0.0
C504 C 0.84131 0.43949 0.20225 0.0
C505 C 0.85661 0.47187 0.20013 0.0
C506 C 0.80399 0.41679 0.20323 0.0
C507 C 0.78154 0.42608 0.20139 0.0
C508 C 0.79722 0.45893 0.20103 0.0
C509 C 0.83452 0.48169 0.20051 0.0
C510 C 0.7427 0.40227 0.19682 0.0
C511 C 0.71787 0.40533 0.20441 0.0
C512 C 0.73108 0.38052 0.18312 0.0
C513 C 0.75601 0.37723 0.17387 0.0
C514 C 0.78412 0.40298 0.16527 0.0
C515 C 0.80767 0.39977 0.15663 0.0
C516 C 0.80304 0.37078 0.15631 0.0
C517 C 0.77491 0.34495 0.16467 0.0
C518 C 0.75136 0.34808 0.17339 0.0
C519 C 0.62328 0.38499 0.15352 0.0
C520 C 0.59206 0.35381 0.14975 0.0
C521 C 0.64876 0.39019 0.1648 0.0
C522 C 0.6437 0.36429 0.17237 0.0
C523 C 0.61258 0.33299 0.16864 0.0
C524 C 0.58653 0.32781 0.15754 0.0
C525 C 0.67292 0.37071 0.18315 0.0
C526 C 0.69597 0.36442 0.17671 0.0
C527 C 0.68319 0.39015 0.1976 0.0
C528 C 0.65902 0.3967 0.20499 0.0
C529 C 0.623 0.37126 0.20804 0.0
C530 C 0.60012 0.37749 0.21475 0.0
C531 C 0.61296 0.40907 0.21851 0.0
C532 C 0.64872 0.43451 0.21558 0.0
C533 C 0.67172 0.42843 0.20886 0.0
H534 H 0.59519 0.41384 0.22369 0.0
H535 H 0.82114 0.36834 0.14949 0.0
H536 H 0.48914 0.91331 0.48605 0.0
H537 H 0.43397 0.85791 0.48452 0.0
H538 H 0.37575 0.88939 0.46386 0.0
H539 H 0.43072 0.94481 0.46534 0.0
H540 H 0.33834 0.84698 0.48812 0.0
H541 H 0.40039 0.85319 0.43985 0.0
H542 H 0.45225 0.86438 0.42474 0.0
H543 H 0.45023 0.79438 0.45128 0.0
H544 H 0.39859 0.78306 0.4667 0.0
H545 H 0.18196 0.7046 0.45275 0.0
H546 H 0.23809 0.75745 0.45954 0.0
H547 H 0.28684 0.71349 0.47493 0.0
H548 H 0.23075 0.66024 0.46755 0.0
H549 H 0.33086 0.761 0.45583 0.0
H550 H 0.26551 0.75124 0.50258 0.0
H551 H 0.21405 0.74028 0.51795 0.0
H552 H 0.2226 0.81682 0.4951 0.0
H553 H 0.2738 0.82797 0.47941 0.0
C554 C 0.46463 0.9085 0.48117 0.0
C555 C 0.46447 0.9336 0.47578 0.0
C556 C 0.4331 0.87675 0.48027 0.0
C557 C 0.40069 0.86942 0.47401 0.0
C558 C 0.40039 0.89444 0.46876 0.0
C559 C 0.43194 0.92614 0.46954 0.0
C560 C 0.36709 0.83569 0.47283 0.0
C561 C 0.33658 0.82822 0.48095 0.0
C562 C 0.36508 0.81097 0.46389 0.0
C563 C 0.39589 0.81752 0.45454 0.0
C564 C 0.41118 0.84035 0.44255 0.0
C565 C 0.44049 0.84669 0.43391 0.0
C566 C 0.45459 0.83016 0.43708 0.0
C567 C 0.43931 0.80719 0.44885 0.0
C568 C 0.41 0.80078 0.45753 0.0
C569 C 0.20452 0.70609 0.45768 0.0
C570 C 0.20185 0.67811 0.45951 0.0
C571 C 0.2366 0.73641 0.46171 0.0
C572 C 0.26682 0.73964 0.46788 0.0
C573 C 0.26395 0.7117 0.47021 0.0
C574 C 0.23174 0.68123 0.46614 0.0
C575 C 0.30175 0.77223 0.47096 0.0
C576 C 0.3326 0.77957 0.46318 0.0
C577 C 0.3041 0.79683 0.48027 0.0
C578 C 0.27336 0.79028 0.48972 0.0
C579 C 0.25626 0.76559 0.50074 0.0
C580 C 0.22716 0.75937 0.50952 0.0
C581 C 0.21502 0.7778 0.50748 0.0
C582 C 0.23202 0.80255 0.49666 0.0
C583 C 0.26112 0.80886 0.48784 0.0
H584 H 0.19249 0.77294 0.51429 0.0
H585 H 0.4773 0.8351 0.43039 0.0
H586 H 0.58653 0.35927 0.85159 0.0
H587 H 0.59466 0.31825 0.84439 0.0
H588 H 0.48503 0.25504 0.82548 0.0
H589 H 0.47628 0.29533 0.83321 0.0
H590 H 0.50026 0.22224 0.84212 0.0
H591 H 0.55764 0.29877 0.8004 0.0
H592 H 0.60009 0.35247 0.78963 0.0
H593 H 0.68932 0.3596 0.8105 0.0
H594 H 0.64732 0.30607 0.82158 0.0
H595 H 0.50375 0.11748 0.78649 0.0
H596 H 0.50077 0.15844 0.79973 0.0
H597 H 0.60743 0.20577 0.82079 0.0
H598 H 0.61052 0.16462 0.80752 0.0
H599 H 0.59813 0.24758 0.80562 0.0
H600 H 0.5392 0.16749 0.84494 0.0
H601 H 0.49556 0.11311 0.85473 0.0
H602 H 0.40787 0.11198 0.83735 0.0
H603 H 0.451 0.1662 0.82723 0.0
C604 C 0.564 0.33649 0.84608 0.0
C605 C 0.53081 0.33074 0.84288 0.0
C606 C 0.5688 0.31315 0.84183 0.0
C607 C 0.54061 0.28366 0.83417 0.0
C608 C 0.50725 0.27761 0.83131 0.0
C609 C 0.5024 0.30085 0.83559 0.0
C610 C 0.54579 0.25918 0.82889 0.0
C611 C 0.52151 0.22776 0.83404 0.0
C612 C 0.57405 0.26647 0.81866 0.0
C613 C 0.59933 0.29859 0.81198 0.0
C614 C 0.5863 0.3119 0.8028 0.0
C615 C 0.61027 0.34228 0.79662 0.0
C616 C 0.64737 0.35948 0.79942 0.0
C617 C 0.66057 0.34628 0.80837 0.0
C618 C 0.6367 0.31592 0.8146 0.0
C619 C 0.5265 0.13652 0.79401 0.0
C620 C 0.5574 0.13789 0.79596 0.0
C621 C 0.52469 0.15981 0.80164 0.0
C622 C 0.55381 0.18509 0.81131 0.0
C623 C 0.58463 0.18642 0.81341 0.0
C624 C 0.58628 0.16283 0.80592 0.0
C625 C 0.55228 0.21062 0.81867 0.0
C626 C 0.57719 0.2422 0.81387 0.0
C627 C 0.52444 0.20343 0.82912 0.0
C628 C 0.49837 0.17083 0.83521 0.0
C629 C 0.51062 0.15555 0.84308 0.0
C630 C 0.48597 0.12477 0.84871 0.0
C631 C 0.44896 0.10907 0.84663 0.0
C632 C 0.43654 0.12416 0.83894 0.0
C633 C 0.46108 0.15493 0.83327 0.0
H634 H 0.42992 0.08525 0.851 0.0
H635 H 0.66589 0.38299 0.79463 0.0
H636 H 0.63991 0.89805 0.51803 0.0
H637 H 0.63318 0.84898 0.52246 0.0
H638 H 0.52751 0.79282 0.49919 0.0
H639 H 0.53423 0.84213 0.49446 0.0
H640 H 0.52808 0.76658 0.52706 0.0
H641 H 0.59646 0.80347 0.47918 0.0
H642 H 0.64544 0.84245 0.46162 0.0
H643 H 0.72387 0.85481 0.49526 0.0
H644 H 0.67538 0.81624 0.51316 0.0
H645 H 0.5216 0.62639 0.52864 0.0
H646 H 0.5214 0.66942 0.51803 0.0
H647 H 0.62733 0.74007 0.53966 0.0
H648 H 0.62792 0.69731 0.55003 0.0
H649 H 0.62153 0.755 0.50916 0.0
H650 H 0.55294 0.72235 0.55818 0.0
H651 H 0.50384 0.68357 0.57578 0.0
H652 H 0.42538 0.66296 0.53946 0.0
H653 H 0.47407 0.70133 0.52154 0.0
C654 C 0.61539 0.87535 0.51363 0.0
C655 C 0.58779 0.87416 0.50571 0.0
C656 C 0.61154 0.84725 0.51623 0.0
C657 C 0.58007 0.81722 0.51093 0.0
C658 C 0.55209 0.81575 0.50332 0.0
C659 C 0.55594 0.84396 0.50068 0.0
C660 C 0.57659 0.78753 0.51363 0.0
C661 C 0.54811 0.76373 0.52286 0.0
C662 C 0.60296 0.78397 0.50833 0.0
C663 C 0.63226 0.80712 0.49758 0.0
C664 C 0.62416 0.81467 0.4829 0.0
C665 C 0.65184 0.83667 0.47287 0.0
C666 C 0.68775 0.85114 0.47734 0.0
C667 C 0.69604 0.84359 0.49182 0.0
C668 C 0.66846 0.82163 0.50191 0.0
C669 C 0.54503 0.65109 0.53093 0.0
C670 C 0.57468 0.65847 0.54027 0.0
C671 C 0.54477 0.67565 0.52497 0.0
C672 C 0.57419 0.708 0.52821 0.0
C673 C 0.60429 0.71532 0.53704 0.0
C674 C 0.60448 0.69085 0.54306 0.0
C675 C 0.57351 0.73444 0.52288 0.0
C676 C 0.60123 0.75764 0.51315 0.0
C677 C 0.54639 0.73738 0.52768 0.0
C678 C 0.51713 0.7144 0.53845 0.0
C679 C 0.52522 0.70934 0.55389 0.0
C680 C 0.49747 0.68748 0.56393 0.0
C681 C 0.46151 0.67074 0.55872 0.0
C682 C 0.45324 0.6759 0.54347 0.0
C683 C 0.4809 0.6977 0.53337 0.0
H684 H 0.44006 0.65383 0.56651 0.0
H685 H 0.70914 0.86817 0.46955 0.0
H686 H 0.63096 0.47306 0.85284 0.0
H687 H 0.68316 0.47261 0.85376 0.0
H688 H 0.75371 0.57456 0.84766 0.0
H689 H 0.70131 0.57487 0.8462 0.0
H690 H 0.78122 0.55216 0.83136 0.0
H691 H 0.74074 0.53373 0.88621 0.0
H692 H 0.69666 0.50614 0.90778 0.0
H693 H 0.68044 0.41822 0.89391 0.0
H694 H 0.72414 0.44521 0.87213 0.0
H695 H 0.94571 0.57717 0.8536 0.0
H696 H 0.89277 0.57614 0.85205 0.0
H697 H 0.82399 0.47398 0.8573 0.0
H698 H 0.87711 0.47502 0.85962 0.0
H699 H 0.79514 0.49568 0.87384 0.0
H700 H 0.83611 0.51411 0.81931 0.0
H701 H 0.8795 0.5413 0.79747 0.0
H702 H 0.89436 0.62889 0.81054 0.0
H703 H 0.85137 0.60233 0.8326 0.0
C704 C 0.65751 0.49552 0.85169 0.0
C705 C 0.66118 0.52403 0.84949 0.0
C706 C 0.68784 0.49531 0.85237 0.0
C707 C 0.72351 0.52368 0.85115 0.0
C708 C 0.72712 0.5521 0.84872 0.0
C709 C 0.69675 0.55229 0.84792 0.0
C710 C 0.75669 0.5238 0.85226 0.0
C711 C 0.78423 0.54012 0.84086 0.0
C712 C 0.76138 0.50759 0.86426 0.0
C713 C 0.73546 0.49142 0.87746 0.0
C714 C 0.72764 0.50847 0.88772 0.0
C715 C 0.70273 0.49295 0.89998 0.0
C716 C 0.68569 0.46043 0.90219 0.0
C717 C 0.69363 0.4434 0.89217 0.0
C718 C 0.71849 0.4588 0.87988 0.0
C719 C 0.91953 0.5543 0.85457 0.0
C720 C 0.91679 0.52618 0.85678 0.0
C721 C 0.8887 0.55369 0.85343 0.0
C722 C 0.85329 0.52488 0.85426 0.0
C723 C 0.8504 0.49676 0.85652 0.0
C724 C 0.88128 0.49735 0.85768 0.0
C725 C 0.81974 0.52418 0.85299 0.0
C726 C 0.79214 0.50774 0.86435 0.0
C727 C 0.81498 0.54028 0.84095 0.0
C728 C 0.8408 0.55631 0.82771 0.0
C729 C 0.84883 0.53923 0.8176 0.0
C730 C 0.87332 0.55452 0.80517 0.0
C731 C 0.88975 0.58682 0.80264 0.0
C732 C 0.88165 0.60388 0.81252 0.0
C733 C 0.8572 0.58872 0.82498 0.0
H734 H 0.9087 0.59862 0.79301 0.0
H735 H 0.6664 0.44845 0.91168 0.0
H736 H 0.18774 0.61392 0.14689 0.0
H737 H 0.24555 0.66776 0.14873 0.0
H738 H 0.19071 0.70821 0.16208 0.0
H739 H 0.13293 0.65459 0.16039 0.0
H740 H 0.24371 0.74327 0.13884 0.0
H741 H 0.23182 0.69826 0.19079 0.0
H742 H 0.22264 0.65722 0.20856 0.0
H743 H 0.31655 0.6705 0.18977 0.0
H744 H 0.326 0.71133 0.17172 0.0
H745 H 0.38715 0.89769 0.17229 0.0
H746 H 0.33175 0.8438 0.16586 0.0
H747 H 0.39306 0.80681 0.16272 0.0
H748 H 0.44837 0.86059 0.16965 0.0
H749 H 0.33766 0.76868 0.17926 0.0
H750 H 0.35267 0.81466 0.1283 0.0
H751 H 0.36243 0.85442 0.1094 0.0
H752 H 0.26461 0.83829 0.12435 0.0
H753 H 0.25449 0.79873 0.14351 0.0
C754 C 0.18792 0.63426 0.15015 0.0
C755 C 0.15561 0.62983 0.15357 0.0
C756 C 0.22104 0.66504 0.15123 0.0
C757 C 0.22253 0.69206 0.15563 0.0
C758 C 0.19026 0.68777 0.15865 0.0
C759 C 0.15723 0.65702 0.15776 0.0
C760 C 0.25771 0.7247 0.15753 0.0
C761 C 0.26418 0.74897 0.14777 0.0
C762 C 0.28486 0.7319 0.16884 0.0
C763 C 0.2794 0.7076 0.17979 0.0
C764 C 0.25035 0.69225 0.19036 0.0
C765 C 0.24513 0.66906 0.2005 0.0
C766 C 0.26894 0.66119 0.20026 0.0
C767 C 0.2981 0.67658 0.18992 0.0
C768 C 0.30342 0.69976 0.17975 0.0
C769 C 0.38889 0.87818 0.16992 0.0
C770 C 0.4222 0.88347 0.17144 0.0
C771 C 0.35714 0.84728 0.16622 0.0
C772 C 0.35799 0.821 0.16361 0.0
C773 C 0.39145 0.82649 0.16472 0.0
C774 C 0.42313 0.85729 0.16864 0.0
C775 C 0.32391 0.78766 0.16059 0.0
C776 C 0.31751 0.76315 0.17019 0.0
C777 C 0.29704 0.78016 0.14896 0.0
C778 C 0.303 0.80394 0.13746 0.0
C779 C 0.33338 0.81977 0.12765 0.0
C780 C 0.33895 0.84224 0.11688 0.0
C781 C 0.31421 0.84894 0.11571 0.0
C782 C 0.28378 0.83311 0.12529 0.0
C783 C 0.27809 0.81063 0.13609 0.0
H784 H 0.31857 0.86634 0.10735 0.0
H785 H 0.26485 0.64323 0.20811 0.0
H786 H 0.56248 0.21429 0.46685 0.0
H787 H 0.56635 0.26165 0.4756 0.0
H788 H 0.4921 0.20863 0.51364 0.0
H789 H 0.48794 0.16122 0.50491 0.0
H790 H 0.47594 0.24369 0.4969 0.0
H791 H 0.57923 0.26045 0.52288 0.0
H792 H 0.63534 0.26542 0.52363 0.0
H793 H 0.685 0.34491 0.49257 0.0
H794 H 0.62895 0.3401 0.49144 0.0
H795 H 0.50191 0.36517 0.55036 0.0
H796 H 0.49754 0.32021 0.53737 0.0
H797 H 0.57956 0.38403 0.50406 0.0
H798 H 0.58492 0.4295 0.51741 0.0
H799 H 0.59259 0.34505 0.51598 0.0
H800 H 0.4911 0.33106 0.49135 0.0
H801 H 0.43505 0.32615 0.49028 0.0
H802 H 0.38193 0.24186 0.51803 0.0
H803 H 0.43784 0.24653 0.51948 0.0
C804 C 0.54681 0.2127 0.47701 0.0
C805 C 0.52502 0.18407 0.48524 0.0
C806 C 0.5492 0.2398 0.48205 0.0
C807 C 0.52968 0.23873 0.49534 0.0
C808 C 0.50742 0.21001 0.50338 0.0
C809 C 0.50529 0.18303 0.49845 0.0
C810 C 0.53265 0.26756 0.50104 0.0
C811 C 0.50137 0.26578 0.50121 0.0
C812 C 0.56602 0.29666 0.50621 0.0
C813 C 0.59977 0.29967 0.50692 0.0
C814 C 0.60201 0.2788 0.51609 0.0
C815 C 0.63382 0.28163 0.51661 0.0
C816 C 0.66368 0.3054 0.50811 0.0
C817 C 0.66182 0.32646 0.49912 0.0
C818 C 0.63005 0.32371 0.49854 0.0
C819 C 0.51911 0.36972 0.5403 0.0
C820 C 0.54387 0.40102 0.53498 0.0
C821 C 0.51631 0.34389 0.53276 0.0
C822 C 0.53796 0.34861 0.51961 0.0
C823 C 0.56249 0.37976 0.51415 0.0
C824 C 0.5653 0.40569 0.5217 0.0
C825 C 0.53574 0.32114 0.51204 0.0
C826 C 0.56717 0.32313 0.51152 0.0
C827 C 0.5025 0.29225 0.50648 0.0
C828 C 0.46878 0.28931 0.50564 0.0
C829 C 0.46756 0.31162 0.49734 0.0
C830 C 0.43579 0.30886 0.49664 0.0
C831 C 0.40497 0.28375 0.50411 0.0
C832 C 0.40584 0.26132 0.51226 0.0
C833 C 0.43755 0.26399 0.51301 0.0
H834 H 0.3804 0.28164 0.50355 0.0
H835 H 0.68829 0.30755 0.50853 0.0
H836 H 0.43138 0.47349 0.86126 0.0
H837 H 0.3791 0.47385 0.86248 0.0
H838 H 0.44195 0.56814 0.84347 0.0
H839 H 0.4946 0.56809 0.84252 0.0
H840 H 0.40126 0.56778 0.86509 0.0
H841 H 0.37181 0.49355 0.82051 0.0
H842 H 0.36217 0.44628 0.80653 0.0
H843 H 0.27977 0.38458 0.83984 0.0
H844 H 0.28923 0.43155 0.85416 0.0
H845 H 0.24783 0.56703 0.85055 0.0
H846 H 0.30099 0.56827 0.84782 0.0
H847 H 0.24114 0.4725 0.8648 0.0
H848 H 0.18762 0.47043 0.86671 0.0
H849 H 0.28121 0.47469 0.84348 0.0
H850 H 0.3117 0.54914 0.88848 0.0
H851 H 0.3216 0.59651 0.90251 0.0
H852 H 0.40208 0.65781 0.86841 0.0
H853 H 0.39234 0.61075 0.85406 0.0
C854 C 0.43431 0.4944 0.85728 0.0
C855 C 0.46792 0.52069 0.85171 0.0
C856 C 0.40391 0.49451 0.85788 0.0
C857 C 0.40539 0.52081 0.85282 0.0
C858 C 0.43914 0.54729 0.84746 0.0
C859 C 0.46959 0.5472 0.84687 0.0
C860 C 0.37223 0.52078 0.85319 0.0
C861 C 0.37522 0.54747 0.86012 0.0
C862 C 0.33731 0.49437 0.84709 0.0
C863 C 0.33148 0.46609 0.8385 0.0
C864 C 0.3518 0.46992 0.82492 0.0
C865 C 0.34635 0.44318 0.81693 0.0
C866 C 0.32044 0.41245 0.82232 0.0
C867 C 0.29986 0.4084 0.83569 0.0
C868 C 0.30524 0.43506 0.84375 0.0
C869 C 0.24553 0.54595 0.85357 0.0
C870 C 0.21244 0.51876 0.85909 0.0
C871 C 0.27662 0.54687 0.85222 0.0
C872 C 0.27641 0.52077 0.85645 0.0
C873 C 0.24315 0.49335 0.86153 0.0
C874 C 0.21212 0.49236 0.86281 0.0
C875 C 0.31009 0.52158 0.85552 0.0
C876 C 0.30722 0.49503 0.84846 0.0
C877 C 0.3451 0.54811 0.86151 0.0
C878 C 0.35101 0.5764 0.8701 0.0
C879 C 0.33133 0.57271 0.88392 0.0
C880 C 0.33694 0.5995 0.89193 0.0
C881 C 0.36238 0.63014 0.88633 0.0
C882 C 0.38234 0.63406 0.87272 0.0
C883 C 0.3768 0.60734 0.86465 0.0
H884 H 0.36669 0.65085 0.89255 0.0
H885 H 0.31626 0.39178 0.81611 0.0
H886 H 0.9345 0.45041 0.17207 0.0
H887 H 0.87888 0.3966 0.1745 0.0
H888 H 0.91236 0.36051 0.13709 0.0
H889 H 0.96754 0.41506 0.13394 0.0
H890 H 0.84227 0.33082 0.13348 0.0
H891 H 0.92023 0.35286 0.17831 0.0
H892 H 0.96005 0.38215 0.20251 0.0
H893 H 0.87275 0.37129 0.22761 0.0
H894 H 0.83294 0.34314 0.20341 0.0
H895 H 0.71668 0.16707 0.15889 0.0
H896 H 0.76962 0.21966 0.15105 0.0
H897 H 0.73969 0.26631 0.18329 0.0
H898 H 0.68644 0.21411 0.19087 0.0
H899 H 0.80966 0.2886 0.18864 0.0
H900 H 0.73299 0.26929 0.14325 0.0
H901 H 0.69266 0.23877 0.11934 0.0
H902 H 0.77701 0.24224 0.09572 0.0
H903 H 0.81773 0.27244 0.1196 0.0
C904 C 0.92989 0.43127 0.16411 0.0
C905 C 0.95557 0.43733 0.15271 0.0
C906 C 0.89812 0.40025 0.16567 0.0
C907 C 0.89151 0.37415 0.15621 0.0
C908 C 0.91675 0.38013 0.14459 0.0
C909 C 0.94844 0.41136 0.14285 0.0
C910 C 0.85874 0.3407 0.15882 0.0
C911 C 0.83551 0.32143 0.14552 0.0
C912 C 0.84934 0.32836 0.17453 0.0
C913 C 0.87364 0.34606 0.18899 0.0
C914 C 0.90968 0.35711 0.18892 0.0
C915 C 0.93231 0.37358 0.20264 0.0
C916 C 0.91906 0.37875 0.21658 0.0
C917 C 0.88319 0.36756 0.2168 0.0
C918 C 0.86058 0.35139 0.20307 0.0
C919 C 0.72087 0.18848 0.16404 0.0
C920 C 0.69736 0.18618 0.17569 0.0
C921 C 0.75129 0.21858 0.15958 0.0
C922 C 0.75883 0.24701 0.16665 0.0
C923 C 0.73469 0.24476 0.17778 0.0
C924 C 0.70427 0.2148 0.18216 0.0
C925 C 0.79296 0.27909 0.1634 0.0
C926 C 0.81656 0.298 0.1766 0.0
C927 C 0.80265 0.29095 0.14763 0.0
C928 C 0.77825 0.27277 0.13329 0.0
C929 C 0.74283 0.26327 0.13302 0.0
C930 C 0.71992 0.2461 0.11946 0.0
C931 C 0.73222 0.23847 0.10604 0.0
C932 C 0.76749 0.2481 0.10614 0.0
C933 C 0.79051 0.26527 0.11968 0.0
H934 H 0.71445 0.22518 0.09555 0.0
H935 H 0.93656 0.39126 0.22723 0.0
H936 H 0.05272 0.58924 0.10401 0.0
H937 H 0.05661 0.58623 0.07443 0.0
H938 H 0.0444 0.49808 0.07748 0.0
H939 H 0.04036 0.50094 0.1071 0.0
H940 H 0.09831 0.54011 0.05675 0.0
H941 H 0.97439 0.49461 0.06522 0.0
H942 H 0.92419 0.49311 0.07618 0.0
H943 H 0.95964 0.57735 0.05093 0.0
H944 H 1.0104 0.57962 0.04 0.0
H945 H 0.06081 0.49244 0.97252 0.0
H946 H 0.05849 0.49486 0.00216 0.0
H947 H 0.06017 0.57798 0.00025 0.0
H948 H 0.06229 0.57557 0.97062 0.0
H949 H 1.01123 0.5375 0.02061 0.0
H950 H 0.13539 0.5837 0.01228 0.0
H951 H 0.18619 0.58598 0.00147 0.0
H952 H 0.15136 0.50167 0.02649 0.0
H953 H 0.10002 0.49862 0.03728 0.0
C954 C 0.05088 0.56924 0.09837 0.0
C955 C 0.04603 0.54523 0.10782 0.0
C956 C 0.05303 0.5675 0.08147 0.0
C957 C 0.05046 0.54176 0.07373 0.0
C958 C 0.04638 0.5181 0.0832 0.0
C959 C 0.04396 0.51971 0.1001 0.0
C960 C 0.05169 0.53943 0.05573 0.0
C961 C 0.079 0.5391 0.04883 0.0
C962 C 1.02696 0.53883 0.0454 0.0
C963 C 0.99641 0.53747 0.05192 0.0
C964 C 0.97166 0.51297 0.06211 0.0
C965 C 0.94307 0.51195 0.0683 0.0
C966 C 0.93878 0.53517 0.06429 0.0
C967 C 0.96303 0.55941 0.05404 0.0
C968 C 0.9917 0.56056 0.04784 0.0
C969 C 0.06105 0.51143 0.97842 0.0
C970 C 0.0618 0.53384 0.96918 0.0
C971 C 0.05972 0.51279 0.99538 0.0
C972 C 0.05955 0.53682 0.0035 0.0
C973 C 0.0602 0.55917 0.99429 0.0
C974 C 0.06133 0.55772 0.97734 0.0
C975 C 0.05806 0.5384 0.02155 0.0
C976 C 1.03061 0.53853 0.02849 0.0
C977 C 0.08277 0.53894 0.0319 0.0
C978 C 0.11364 0.54075 0.02545 0.0
C979 C 0.13839 0.5655 0.01537 0.0
C980 C 0.16731 0.56695 0.00927 0.0
C981 C 0.17194 0.54394 0.01325 0.0
C982 C 0.1477 0.51946 0.02339 0.0
C983 C 0.1187 0.51787 0.02952 0.0
H984 H 0.19436 0.54511 0.00851 0.0
H985 H 0.91662 0.53433 0.06909 0.0
H986 H 0.52812 0.02544 0.43562 0.0
H987 H 0.52301 0.02691 0.4061 0.0
H988 H 0.61799 0.03125 0.4003 0.0
H989 H 0.62426 0.03173 0.42973 0.0
H990 H 0.62244 0.06932 0.38109 0.0
H991 H 0.52706 0.9603 0.39226 0.0
H992 H 0.47263 0.91648 0.40565 0.0
H993 H 0.41246 0.94676 0.38645 0.0
H994 H 0.46669 0.99106 0.37312 0.0
H995 H 0.59177 0.0112 0.2979 0.0
H996 H 0.59233 0.011 0.32769 0.0
H997 H 0.53108 0.04802 0.32941 0.0
H998 H 0.53117 0.04899 0.2996 0.0
H999 H 0.50766 0.99014 0.35014 0.0
H1000 H 0.60791 0.0995 0.33822 0.0
H1001 H 0.6636 0.13949 0.32418 0.0
H1002 H 0.71579 0.10234 0.34441 0.0
H1003 H 0.66018 0.06178 0.35836 0.0
C1004 C 0.5479 0.02681 0.42799 0.0
C1005 C 0.57654 0.02843 0.43491 0.0
C1006 C 0.54484 0.0274 0.41112 0.0
C1007 C 0.56977 0.02866 0.40085 0.0
C1008 C 0.59842 0.03035 0.40787 0.0
C1009 C 0.60193 0.03051 0.42471 0.0
C1010 C 0.56655 0.02859 0.38284 0.0
C1011 C 0.59733 0.05173 0.37439 0.0
C1012 C 0.53377 0.00597 0.37395 0.0
C1013 C 0.50104 0.9792 0.38184 0.0
C1014 C 0.50228 0.95775 0.39098 0.0
C1015 C 0.47146 0.93281 0.39855 0.0
C1016 C 0.43914 0.9289 0.39694 0.0
C1017 C 0.43754 0.94985 0.38771 0.0
C1018 C 0.4683 0.97487 0.38014 0.0
C1019 C 0.5783 0.01914 0.30465 0.0
C1020 C 0.56152 0.0302 0.29651 0.0
C1021 C 0.57865 0.01903 0.32161 0.0
C1022 C 0.5617 0.02945 0.33068 0.0
C1023 C 0.5442 0.03981 0.32258 0.0
C1024 C 0.54447 0.04054 0.30562 0.0
C1025 C 0.56349 0.03057 0.34866 0.0
C1026 C 0.53254 0.00769 0.357 0.0
C1027 C 0.59626 0.05285 0.35744 0.0
C1028 C 0.62978 0.07741 0.34919 0.0
C1029 C 0.63116 0.09967 0.33955 0.0
C1030 C 0.66273 0.12248 0.33164 0.0
C1031 C 0.69319 0.1234 0.33337 0.0
C1032 C 0.69217 0.10157 0.34306 0.0
C1033 C 0.66064 0.07869 0.35098 0.0
H1034 H 0.71761 0.14108 0.32724 0.0
H1035 H 0.41531 0.90959 0.40282 0.0
H1036 H 0.61171 0.5537 0.80612 0.0
H1037 H 0.62134 0.56491 0.77711 0.0
H1038 H 0.50973 0.48641 0.76616 0.0
H1039 H 0.49985 0.47551 0.79495 0.0
H1040 H 0.55911 0.48485 0.74722 0.0
H1041 H 0.53567 0.55987 0.76544 0.0
H1042 H 0.5476 0.60549 0.78235 0.0
H1043 H 0.65409 0.66723 0.76373 0.0
H1044 H 0.64299 0.62184 0.7469 0.0
H1045 H 0.52195 0.49494 0.66689 0.0
H1046 H 0.52265 0.49428 0.69649 0.0
H1047 H 0.6301 0.58378 0.69889 0.0
H1048 H 0.62917 0.58486 0.66914 0.0
H1049 H 0.59156 0.58384 0.72263 0.0
H1050 H 0.61628 0.51228 0.70358 0.0
H1051 H 0.60778 0.46784 0.68695 0.0
H1052 H 0.50444 0.40112 0.70762 0.0
H1053 H 0.51208 0.44524 0.72421 0.0
C1054 C 0.58921 0.53915 0.79751 0.0
C1055 C 0.55504 0.51375 0.80275 0.0
C1056 C 0.59473 0.54555 0.78099 0.0
C1057 C 0.56621 0.52645 0.76952 0.0
C1058 C 0.53208 0.50135 0.77481 0.0
C1059 C 0.52649 0.49519 0.79126 0.0
C1060 C 0.57178 0.53144 0.75189 0.0
C1061 C 0.56593 0.50639 0.74181 0.0
C1062 C 0.58209 0.56007 0.74497 0.0
C1063 C 0.58865 0.58736 0.75505 0.0
C1064 C 0.56175 0.5831 0.76507 0.0
C1065 C 0.56834 0.60893 0.77462 0.0
C1066 C 0.60162 0.63922 0.77415 0.0
C1067 C 0.62835 0.64374 0.76411 0.0
C1068 C 0.62192 0.61798 0.75455 0.0
C1069 C 0.54577 0.51444 0.67372 0.0
C1070 C 0.57567 0.53976 0.6657 0.0
C1071 C 0.54616 0.51405 0.69064 0.0
C1072 C 0.57674 0.53864 0.69993 0.0
C1073 C 0.60628 0.56448 0.69199 0.0
C1074 C 0.60573 0.56507 0.67501 0.0
C1075 C 0.57777 0.53677 0.71786 0.0
C1076 C 0.58505 0.56241 0.72801 0.0
C1077 C 0.56931 0.50882 0.72494 0.0
C1078 C 0.56465 0.48213 0.71505 0.0
C1079 C 0.59164 0.48817 0.7045 0.0
C1080 C 0.58699 0.46303 0.69509 0.0
C1081 C 0.55557 0.43169 0.69621 0.0
C1082 C 0.52876 0.42541 0.70676 0.0
C1083 C 0.53325 0.45047 0.71619 0.0
H1084 H 0.55202 0.41225 0.68891 0.0
H1085 H 0.60667 0.65921 0.78152 0.0
H1086 H 0.49132 0.99945 0.52918 0.0
H1087 H 0.49686 0.99697 0.55845 0.0
H1088 H 0.61257 0.06601 0.55636 0.0
H1089 H 0.60707 0.06707 0.52681 0.0
H1090 H 0.59854 0.02452 0.57677 0.0
H1091 H 0.55584 0.08643 0.5698 0.0
H1092 H 0.51634 0.09898 0.55923 0.0
H1093 H 0.42584 0.01769 0.58222 0.0
H1094 H 0.46471 0.00438 0.59274 0.0
H1095 H 0.62043 0.06987 0.66236 0.0
H1096 H 0.61849 0.07096 0.63263 0.0
H1097 H 0.50904 0.98424 0.63099 0.0
H1098 H 0.51098 0.9828 0.66067 0.0
H1099 H 0.52201 0.03678 0.61293 0.0
H1100 H 0.56895 0.9768 0.61992 0.0
H1101 H 0.61176 0.96846 0.63095 0.0
H1102 H 0.69911 0.05291 0.60851 0.0
H1103 H 0.65686 0.06203 0.59754 0.0
C1104 C 0.51793 0.01397 0.53498 0.0
C1105 C 0.54875 0.0337 0.52583 0.0
C1106 C 0.52109 0.01272 0.55173 0.0
C1107 C 0.55508 0.03199 0.55975 0.0
C1108 C 0.58602 0.05107 0.5505 0.0
C1109 C 0.5829 0.05176 0.53365 0.0
C1110 C 0.55813 0.03236 0.57777 0.0
C1111 C 0.58214 0.02768 0.58465 0.0
C1112 C 0.53658 0.03622 0.58816 0.0
C1113 C 0.51314 0.04425 0.58194 0.0
C1114 C 0.52747 0.07111 0.57251 0.0
C1115 C 0.5052 0.07837 0.56654 0.0
C1116 C 0.46859 0.0591 0.57002 0.0
C1117 C 0.4542 0.03257 0.57952 0.0
C1118 C 0.47634 0.02517 0.5855 0.0
C1119 C 0.59601 0.05104 0.65563 0.0
C1120 C 0.56586 0.02622 0.66377 0.0
C1121 C 0.595 0.05162 0.63869 0.0
C1122 C 0.56366 0.02762 0.62966 0.0
C1123 C 0.53347 1.00292 0.63777 0.0
C1124 C 0.53467 1.00205 0.65467 0.0
C1125 C 0.56203 0.02864 0.61176 0.0
C1126 C 0.53837 0.03371 0.60497 0.0
C1127 C 0.58442 0.02584 0.60152 0.0
C1128 C 0.60979 0.02029 0.60806 0.0
C1129 C 0.59733 0.99376 0.61746 0.0
C1130 C 0.62149 0.98886 0.62368 0.0
C1131 C 0.65815 0.01019 0.62048 0.0
C1132 C 0.67072 0.03643 0.61101 0.0
C1133 C 0.64667 0.04147 0.60478 0.0
H1134 H 0.67681 0.00635 0.6253 0.0
H1135 H 0.45139 0.06476 0.56538 0.0
H1136 H 0.51627 0.48862 0.89042 0.0
H1137 H 0.50653 0.46573 0.91695 0.0
H1138 H 0.62076 0.53181 0.92824 0.0
H1139 H 0.63049 0.55527 0.90178 0.0
H1140 H 0.5282 0.43537 0.93067 0.0
H1141 H 0.63367 0.55165 0.96891 0.0
H1142 H 0.66377 0.60986 0.96874 0.0
H1143 H 0.57353 0.59165 0.94191 0.0
H1144 H 0.54273 0.53336 0.94211 0.0
H1145 H 0.53972 0.39209 0.00995 0.0
H1146 H 0.55592 0.41629 0.9835 0.0
H1147 H 0.50926 0.46461 0.99592 0.0
H1148 H 0.49467 0.44192 0.02257 0.0
H1149 H 0.56981 0.504 0.98156 0.0
H1150 H 0.4644 0.39517 0.97089 0.0
H1151 H 0.42778 0.33618 0.97109 0.0
H1152 H 0.50639 0.3381 0.94281 0.0
H1153 H 0.54373 0.39717 0.94263 0.0
C1154 C 0.53928 0.4983 0.89858 0.0
C1155 C 0.5741 0.52385 0.89414 0.0
C1156 C 0.53372 0.4851 0.9137 0.0
C1157 C 0.56285 0.49721 0.92465 0.0
C1158 C 0.5978 0.52241 0.9201 0.0
C1159 C 0.60335 0.53576 0.90499 0.0
C1160 C 0.55638 0.48367 0.9409 0.0
C1161 C 0.53746 0.4504 0.9418 0.0
C1162 C 0.568 0.50319 0.95543 0.0
C1163 C 0.58612 0.53818 0.95537 0.0
C1164 C 0.62023 0.56009 0.96302 0.0
C1165 C 0.63741 0.59309 0.96291 0.0
C1166 C 0.62063 0.60445 0.95526 0.0
C1167 C 0.58657 0.58282 0.94776 0.0
C1168 C 0.56926 0.54981 0.94785 0.0
C1169 C 0.53325 0.40814 0.00711 0.0
C1170 C 0.51557 0.41479 0.01835 0.0
C1171 C 0.54224 0.42173 0.99193 0.0
C1172 C 0.53341 0.44197 0.98764 0.0
C1173 C 0.51628 0.44901 -0.00107 0.0
C1174 C 0.50753 0.43565 0.01411 0.0
C1175 C 0.54152 0.45566 0.97136 0.0
C1176 C 0.56087 0.48899 0.97044 0.0
C1177 C 0.52944 0.43609 0.95682 0.0
C1178 C 0.50703 0.40059 0.9569 0.0
C1179 C 0.47401 0.38302 0.96482 0.0
C1180 C 0.4531 0.34958 0.96492 0.0
C1181 C 0.4648 0.33341 0.95701 0.0
C1182 C 0.4974 0.35066 0.94896 0.0
C1183 C 0.51843 0.38411 0.94885 0.0
H1184 H 0.44857 0.30751 0.95709 0.0
H1185 H 0.63399 0.63 0.95518 0.0
H1186 H 0.04021 0.47197 0.19881 0.0
H1187 H 0.03586 0.47476 0.22841 0.0
H1188 H 0.08532 0.57581 0.2273 0.0
H1189 H 0.0892 0.57302 0.19766 0.0
H1190 H 0.11622 0.56115 0.25079 0.0
H1191 H 1.00101 0.52564 0.23145 0.0
H1192 H 0.94193 0.49177 0.21712 0.0
H1193 H 0.90889 0.41418 0.24753 0.0
H1194 H 0.96871 0.44643 0.26111 0.0
H1195 H 0.08203 0.57826 0.33358 0.0
H1196 H 0.08364 0.57892 0.30394 0.0
H1197 H 1.03023 0.47694 0.30085 0.0
H1198 H 1.02922 0.47611 0.33049 0.0
H1199 H 1.00093 0.49534 0.27948 0.0
H1200 H 0.11869 0.52781 0.29537 0.0
H1201 H 0.17733 0.56133 0.31029 0.0
H1202 H 0.2029 0.64487 0.28748 0.0
H1203 H 0.14414 0.61189 0.2726 0.0
C1204 C 0.05006 0.49473 0.2049 0.0
C1205 C 0.06508 0.52229 0.19602 0.0
C1206 C 0.04744 0.49627 0.22176 0.0
C1207 C 0.06016 0.52547 0.23001 0.0
C1208 C 0.07535 0.55306 0.22114 0.0
C1209 C 0.07745 0.55142 0.20425 0.0
C1210 C 0.05844 0.52734 0.24793 0.0
C1211 C 0.09094 0.54705 0.25705 0.0
C1212 C 1.02542 0.50854 0.25606 0.0
C1213 C 0.98985 0.48845 0.24718 0.0
C1214 C 0.98161 0.50105 0.23479 0.0
C1215 C 0.94788 0.48207 0.22675 0.0
C1216 C 0.92169 0.45074 0.2313 0.0
C1217 C 0.92928 0.43827 0.24382 0.0
C1218 C 0.96326 0.45681 0.2516 0.0
C1219 C 0.07096 0.556 0.32662 0.0
C1220 C 0.05564 0.52714 0.33446 0.0
C1221 C 0.07179 0.55643 0.30968 0.0
C1222 C 0.05731 0.52803 0.30021 0.0
C1223 C 0.04149 0.49912 0.30794 0.0
C1224 C 0.0408 0.49868 0.32489 0.0
C1225 C 0.05862 0.52837 0.28224 0.0
C1226 C 1.02609 0.50929 0.27314 0.0
C1227 C 0.0915 0.5476 0.2741 0.0
C1228 C 0.12685 0.56744 0.28301 0.0
C1229 C 0.13668 0.55338 0.29365 0.0
C1230 C 0.16996 0.57227 0.30208 0.0
C1231 C 0.19378 0.60523 0.29987 0.0
C1232 C 0.18439 0.61935 0.2892 0.0
C1233 C 0.15112 0.60057 0.28076 0.0
H1234 H 0.21954 0.61981 0.30641 0.0
H1235 H 0.89545 0.43618 0.22519 0.0
loop_
_geom_bond_atom_site_label_1
_geom_bond_atom_site_label_2
_geom_bond_distance
_geom_bond_site_symmetry_2
_ccdc_geom_bond_type
Ho0 C3 2.811 . S
Ho0 O20 2.322 . S
Ho0 O22 2.378 . S
Ho0 O23 2.524 . S
Ho0 O24 2.381 . S
Ho0 O25 2.669 . S
Ho0 O27 2.346 1_455 S
Ho0 O31 2.305 . S
Ho1 C12 2.822 . S
Ho1 O21 2.337 1_655 S
Ho1 O25 2.298 1_655 S
Ho1 O26 2.322 . S
Ho1 O28 2.389 . S
Ho1 O29 2.533 . S
Ho1 O30 2.379 1_655 S
Ho1 O31 2.659 1_655 S
C2 O20 1.259 . S
C2 O21 1.268 . S
C3 Ho0 2.811 . S
C3 C4 1.488 . S
C3 O22 1.215 . S
C3 O23 1.289 . S
C4 C3 1.488 . S
C4 C5 1.348 . S
C4 C9 1.413 . S
C5 C4 1.348 . S
C5 C6 1.442 . S
C5 H32 0.930 . S
C6 C5 1.442 . S
C6 C7 1.381 . S
C6 H33 0.931 . S
C7 C6 1.381 . S
C7 C8 1.321 . S
C8 C7 1.321 . S
C8 C9 1.403 . S
C8 H34 0.934 . S
C9 C4 1.413 . S
C9 C8 1.403 . S
C9 H35 0.930 . S
C10 O24 1.275 . S
C10 O25 1.256 . S
C11 O26 1.259 . S
C11 O27 1.268 . S
C12 Ho1 2.822 . S
C12 C13 1.488 . S
C12 O28 1.215 . S
C12 O29 1.289 . S
C13 C12 1.488 . S
C13 C14 1.348 . S
C13 C18 1.413 . S
C14 C13 1.348 . S
C14 C15 1.442 . S
C14 H36 0.930 . S
C15 C14 1.442 . S
C15 C16 1.381 . S
C15 H37 0.931 . S
C16 C15 1.381 . S
C16 C17 1.321 . S
C17 C16 1.321 . S
C17 C18 1.403 . S
C17 H38 0.934 . S
C18 C13 1.413 . S
C18 C17 1.403 . S
C18 H39 0.930 . S
C19 O30 1.275 . S
C19 O31 1.256 . S
O20 Ho0 2.322 . S
O20 C2 1.259 . S
O21 Ho1 2.337 1_455 S
O21 C2 1.268 . S
O22 Ho0 2.378 . S
O22 C3 1.215 . S
O23 Ho0 2.524 . S
O23 C3 1.289 . S
O24 Ho0 2.381 . S
O24 C10 1.275 . S
O25 Ho0 2.669 . S
O25 Ho1 2.298 1_455 S
O25 C10 1.256 . S
O26 Ho1 2.322 . S
O26 C11 1.259 . S
O27 Ho0 2.346 1_655 S
O27 C11 1.268 . S
O28 Ho1 2.389 . S
O28 C12 1.215 . S
O29 Ho1 2.533 . S
O29 C12 1.289 . S
O30 Ho1 2.379 1_455 S
O30 C19 1.275 . S
O31 Ho0 2.305 . S
O31 Ho1 2.659 1_455 S
O31 C19 1.256 . S
H32 C5 0.930 . S
H33 C6 0.931 . S
H34 C8 0.934 . S
H35 C9 0.930 . S
H36 C14 0.930 . S
H37 C15 0.931 . S
H38 C17 0.934 . S
H39 C18 0.930 . S
Ho40 C43 2.811 . S
Ho40 O60 2.322 . S
Ho40 O62 2.378 . S
Ho40 O63 2.524 . S
Ho40 O64 2.381 . S
Ho40 O65 2.669 1_565 S
Ho40 O67 2.346 1_565 S
Ho40 O71 2.305 1_565 S
Ho41 C52 2.811 . S
Ho41 O61 2.346 1_545 S
Ho41 O65 2.305 . S
Ho41 O66 2.322 . S
Ho41 O68 2.378 . S
Ho41 O69 2.524 . S
Ho41 O70 2.381 . S
Ho41 O71 2.669 . S
C42 O60 1.259 . S
C42 O61 1.268 . S
C43 Ho40 2.811 . S
C43 C44 1.488 . S
C43 O62 1.215 . S
C43 O63 1.289 . S
C44 C43 1.488 . S
C44 C45 1.348 . S
C44 C49 1.413 . S
C45 C44 1.348 . S
C45 C46 1.442 . S
C45 H72 0.930 . S
C46 C45 1.442 . S
C46 C47 1.381 . S
C46 H73 0.931 . S
C47 C46 1.381 . S
C47 C48 1.321 . S
C48 C47 1.321 . S
C48 C49 1.403 . S
C48 H74 0.934 . S
C49 C44 1.413 . S
C49 C48 1.403 . S
C49 H75 0.930 . S
C50 O64 1.275 1_545 S
C50 O65 1.256 . S
C51 O66 1.259 . S
C51 O67 1.268 . S
C52 Ho41 2.811 . S
C52 C53 1.488 . S
C52 O68 1.215 . S
C52 O69 1.289 . S
C53 C52 1.488 . S
C53 C54 1.348 . S
C53 C58 1.413 . S
C54 C53 1.348 . S
C54 C55 1.442 . S
C54 H76 0.930 . S
C55 C54 1.442 . S
C55 C56 1.381 . S
C55 H77 0.931 . S
C56 C55 1.381 . S
C56 C57 1.321 . S
C57 C56 1.321 . S
C57 C58 1.403 . S
C57 H78 0.934 . S
C58 C53 1.413 . S
C58 C57 1.403 . S
C58 H79 0.930 . S
C59 O70 1.275 . S
C59 O71 1.256 . S
O60 Ho40 2.322 . S
O60 C42 1.259 . S
O61 Ho41 2.346 1_565 S
O61 C42 1.268 . S
O62 Ho40 2.378 . S
O62 C43 1.215 . S
O63 Ho40 2.524 . S
O63 C43 1.289 . S
O64 Ho40 2.381 . S
O64 C50 1.275 1_565 S
O65 Ho40 2.669 1_545 S
O65 Ho41 2.305 . S
O65 C50 1.256 . S
O66 Ho41 2.322 . S
O66 C51 1.259 . S
O67 Ho40 2.346 1_545 S
O67 C51 1.268 . S
O68 Ho41 2.378 . S
O68 C52 1.215 . S
O69 Ho41 2.524 . S
O69 C52 1.289 . S
O70 Ho41 2.381 . S
O70 C59 1.275 . S
O71 Ho40 2.305 1_545 S
O71 Ho41 2.669 . S
O71 C59 1.256 . S
H72 C45 0.930 . S
H73 C46 0.931 . S
H74 C48 0.934 . S
H75 C49 0.930 . S
H76 C54 0.930 . S
H77 C55 0.931 . S
H78 C57 0.934 . S
H79 C58 0.930 . S
Ho80 C83 2.811 . S
Ho80 O100 2.322 . S
Ho80 O102 2.378 . S
Ho80 O103 2.524 . S
Ho80 O104 2.381 . S
Ho80 O105 2.669 . S
Ho80 O107 2.346 . S
Ho80 O111 2.305 . S
Ho81 C92 2.811 . S
Ho81 O101 2.346 . S
Ho81 O105 2.305 . S
Ho81 O106 2.322 . S
Ho81 O108 2.378 . S
Ho81 O109 2.524 . S
Ho81 O110 2.381 . S
Ho81 O111 2.669 . S
C82 O100 1.259 . S
C82 O101 1.268 . S
C83 Ho80 2.811 . S
C83 C84 1.488 . S
C83 O102 1.215 . S
C83 O103 1.289 . S
C84 C83 1.488 . S
C84 C85 1.348 . S
C84 C89 1.413 . S
C85 C84 1.348 . S
C85 C86 1.442 . S
C85 H112 0.930 . S
C86 C85 1.442 . S
C86 C87 1.381 . S
C86 H113 0.931 . S
C87 C86 1.381 . S
C87 C88 1.321 . S
C88 C87 1.321 . S
C88 C89 1.403 . S
C88 H114 0.934 . S
C89 C84 1.413 . S
C89 C88 1.403 . S
C89 H115 0.930 . S
C90 O104 1.275 . S
C90 O105 1.256 . S
C91 O106 1.259 . S
C91 O107 1.268 . S
C92 Ho81 2.811 . S
C92 C93 1.488 . S
C92 O108 1.215 . S
C92 O109 1.289 . S
C93 C92 1.488 . S
C93 C94 1.348 . S
C93 C98 1.413 . S
C94 C93 1.348 . S
C94 C95 1.442 . S
C94 H116 0.930 . S
C95 C94 1.442 . S
C95 C96 1.381 . S
C95 H117 0.931 . S
C96 C95 1.381 . S
C96 C97 1.321 . S
C97 C96 1.321 . S
C97 C98 1.403 . S
C97 H118 0.934 . S
C98 C93 1.413 . S
C98 C97 1.403 . S
C98 H119 0.930 . S
C99 O110 1.275 . S
C99 O111 1.256 . S
O100 Ho80 2.322 . S
O100 C82 1.259 . S
O101 Ho81 2.346 . S
O101 C82 1.268 . S
O102 Ho80 2.378 . S
O102 C83 1.215 . S
O103 Ho80 2.524 . S
O103 C83 1.289 . S
O104 Ho80 2.381 . S
O104 C90 1.275 . S
O105 Ho80 2.669 . S
O105 Ho81 2.305 . S
O105 C90 1.256 . S
O106 Ho81 2.322 . S
O106 C91 1.259 . S
O107 Ho80 2.346 . S
O107 C91 1.268 . S
O108 Ho81 2.378 . S
O108 C92 1.215 . S
O109 Ho81 2.524 . S
O109 C92 1.289 . S
O110 Ho81 2.381 . S
O110 C99 1.275 . S
O111 Ho80 2.305 . S
O111 Ho81 2.669 . S
O111 C99 1.256 . S
H112 C85 0.930 . S
H113 C86 0.931 . S
H114 C88 0.934 . S
H115 C89 0.930 . S
H116 C94 0.930 . S
H117 C95 0.931 . S
H118 C97 0.934 . S
H119 C98 0.930 . S
C120 C121 1.384 . S
C120 H133 0.947 . S
C120 C155 1.382 . S
C121 C120 1.384 . S
C121 C122 1.378 . S
C122 C121 1.378 . S
C122 C123 1.378 . S
C122 H134 0.952 . S
C123 C122 1.378 . S
C123 H135 0.950 . S
C123 C154 1.383 . S
H124 C143 0.947 . S
H125 C144 0.946 . S
H126 C146 0.953 . S
H127 C147 0.945 . S
H128 C149 0.952 . S
H129 C150 0.949 . S
H130 C152 0.950 . S
H131 C153 0.948 . S
H132 C155 0.951 . S
H133 C120 0.947 . S
H134 C122 0.952 . S
H135 C123 0.950 . S
N136 C139 1.382 . S
N136 C141 1.363 1_545 S
N137 C139 1.371 . S
N137 C140 1.372 . S
N138 C140 1.361 1_565 S
N138 C141 1.377 . S
C139 N136 1.382 . S
C139 N137 1.371 . S
C139 C142 1.480 . S
C140 N137 1.372 . S
C140 N138 1.361 1_545 S
C140 C148 1.457 . S
C141 N136 1.363 1_565 S
C141 N138 1.377 . S
C141 C154 1.479 . S
C142 C139 1.480 . S
C142 C143 1.383 . S
C142 C147 1.385 . S
C143 H124 0.947 . S
C143 C142 1.383 . S
C143 C144 1.388 . S
C144 H125 0.946 . S
C144 C143 1.388 . S
C144 C145 1.384 . S
C145 C144 1.384 . S
C145 C146 1.377 . S
C146 H126 0.953 . S
C146 C145 1.377 . S
C146 C147 1.369 . S
C147 H127 0.945 . S
C147 C142 1.385 . S
C147 C146 1.369 . S
C148 C140 1.457 . S
C148 C149 1.372 . S
C148 C153 1.364 1_545 S
C149 H128 0.952 . S
C149 C148 1.372 . S
C149 C150 1.389 . S
C150 H129 0.949 . S
C150 C149 1.389 . S
C150 C151 1.387 . S
C151 C150 1.387 . S
C151 C152 1.372 1_545 S
C152 H130 0.950 . S
C152 C151 1.372 1_565 S
C152 C153 1.379 . S
C153 H131 0.948 . S
C153 C148 1.364 1_565 S
C153 C152 1.379 . S
C154 C123 1.383 . S
C154 C141 1.479 . S
C154 C155 1.398 . S
C155 C120 1.382 . S
C155 H132 0.951 . S
C155 C154 1.398 . S
C156 C157 1.384 . S
C156 H169 0.947 . S
C156 C191 1.382 . S
C157 C156 1.384 . S
C157 C158 1.378 . S
C158 C157 1.378 . S
C158 C159 1.378 . S
C158 H170 0.952 . S
C159 C158 1.378 . S
C159 H171 0.950 . S
C159 C190 1.383 . S
H160 C179 0.947 . S
H161 C180 0.946 . S
H162 C182 0.953 . S
H163 C183 0.945 . S
H164 C185 0.952 . S
H165 C186 0.949 . S
H166 C188 0.950 . S
H167 C189 0.948 . S
H168 C191 0.951 . S
H169 C156 0.947 . S
H170 C158 0.952 . S
H171 C159 0.950 . S
N172 C175 1.382 . S
N172 C177 1.363 . S
N173 C175 1.371 . S
N173 C176 1.372 . S
N174 C176 1.361 . S
N174 C177 1.377 . S
C175 N172 1.382 . S
C175 N173 1.371 . S
C175 C178 1.480 . S
C176 N173 1.372 . S
C176 N174 1.361 . S
C176 C184 1.457 . S
C177 N172 1.363 . S
C177 N174 1.377 . S
C177 C190 1.479 . S
C178 C175 1.480 . S
C178 C179 1.383 . S
C178 C183 1.385 . S
C179 H160 0.947 . S
C179 C178 1.383 . S
C179 C180 1.388 . S
C180 H161 0.946 . S
C180 C179 1.388 . S
C180 C181 1.384 . S
C181 C180 1.384 . S
C181 C182 1.377 . S
C182 H162 0.953 . S
C182 C181 1.377 . S
C182 C183 1.369 . S
C183 H163 0.945 . S
C183 C178 1.385 . S
C183 C182 1.369 . S
C184 C176 1.457 . S
C184 C185 1.372 . S
C184 C189 1.364 . S
C185 H164 0.952 . S
C185 C184 1.372 . S
C185 C186 1.389 . S
C186 H165 0.949 . S
C186 C185 1.389 . S
C186 C187 1.387 . S
C187 C186 1.387 . S
C187 C188 1.372 . S
C188 H166 0.950 . S
C188 C187 1.372 . S
C188 C189 1.379 . S
C189 H167 0.948 . S
C189 C184 1.364 . S
C189 C188 1.379 . S
C190 C159 1.383 . S
C190 C177 1.479 . S
C190 C191 1.398 . S
C191 C156 1.382 . S
C191 H168 0.951 . S
C191 C190 1.398 . S
C192 C193 1.384 . S
C192 H205 0.947 . S
C192 C227 1.382 . S
C193 C192 1.384 . S
C193 C194 1.378 . S
C194 C193 1.378 . S
C194 C195 1.378 . S
C194 H206 0.952 . S
C195 C194 1.378 . S
C195 H207 0.950 1_655 S
C195 C226 1.383 . S
H196 C215 0.947 . S
H197 C216 0.946 . S
H198 C218 0.953 . S
H199 C219 0.945 . S
H200 C221 0.952 . S
H201 C222 0.949 . S
H202 C224 0.950 1_655 S
H203 C225 0.948 1_655 S
H204 C227 0.951 . S
H205 C192 0.947 . S
H206 C194 0.952 . S
H207 C195 0.950 1_455 S
N208 C211 1.382 . S
N208 C213 1.363 . S
N209 C211 1.371 . S
N209 C212 1.372 . S
N210 C212 1.361 . S
N210 C213 1.377 . S
C211 N208 1.382 . S
C211 N209 1.371 . S
C211 C214 1.480 . S
C212 N209 1.372 . S
C212 N210 1.361 . S
C212 C220 1.457 . S
C213 N208 1.363 . S
C213 N210 1.377 . S
C213 C226 1.479 1_455 S
C214 C211 1.480 . S
C214 C215 1.383 . S
C214 C219 1.385 . S
C215 H196 0.947 . S
C215 C214 1.383 . S
C215 C216 1.388 . S
C216 H197 0.946 . S
C216 C215 1.388 . S
C216 C217 1.384 . S
C217 C216 1.384 . S
C217 C218 1.377 . S
C218 H198 0.953 . S
C218 C217 1.377 . S
C218 C219 1.369 . S
C219 H199 0.945 . S
C219 C214 1.385 . S
C219 C218 1.369 . S
C220 C212 1.457 . S
C220 C221 1.372 . S
C220 C225 1.364 . S
C221 H200 0.952 . S
C221 C220 1.372 . S
C221 C222 1.389 . S
C222 H201 0.949 . S
C222 C221 1.389 . S
C222 C223 1.387 . S
C223 C222 1.387 . S
C223 C224 1.372 . S
C224 H202 0.950 1_455 S
C224 C223 1.372 . S
C224 C225 1.379 . S
C225 H203 0.948 1_455 S
C225 C220 1.364 . S
C225 C224 1.379 . S
C226 C195 1.383 . S
C226 C213 1.479 1_655 S
C226 C227 1.398 . S
C227 C192 1.382 . S
C227 H204 0.951 . S
C227 C226 1.398 . S
C228 C229 1.384 . S
C228 H241 0.947 . S
C228 C263 1.382 . S
C229 C228 1.384 . S
C229 C230 1.378 . S
C230 C229 1.378 . S
C230 C231 1.378 . S
C230 H242 0.952 . S
C231 C230 1.378 . S
C231 H243 0.950 . S
C231 C262 1.383 . S
H232 C251 0.947 . S
H233 C252 0.946 . S
H234 C254 0.953 . S
H235 C255 0.945 . S
H236 C257 0.952 . S
H237 C258 0.949 . S
H238 C260 0.950 . S
H239 C261 0.948 . S
H240 C263 0.951 . S
H241 C228 0.947 . S
H242 C230 0.952 . S
H243 C231 0.950 . S
N244 C247 1.382 1_455 S
N244 C249 1.363 . S
N245 C247 1.371 . S
N245 C248 1.372 1_655 S
N246 C248 1.361 . S
N246 C249 1.377 . S
C247 N244 1.382 1_655 S
C247 N245 1.371 . S
C247 C250 1.480 . S
C248 N245 1.372 1_455 S
C248 N246 1.361 . S
C248 C256 1.457 . S
C249 N244 1.363 . S
C249 N246 1.377 . S
C249 C262 1.479 . S
C250 C247 1.480 . S
C250 C251 1.383 . S
C250 C255 1.385 . S
C251 H232 0.947 . S
C251 C250 1.383 . S
C251 C252 1.388 . S
C252 H233 0.946 . S
C252 C251 1.388 . S
C252 C253 1.384 . S
C253 C252 1.384 . S
C253 C254 1.377 . S
C254 H234 0.953 . S
C254 C253 1.377 . S
C254 C255 1.369 . S
C255 H235 0.945 . S
C255 C250 1.385 . S
C255 C254 1.369 . S
C256 C248 1.457 . S
C256 C257 1.372 1_455 S
C256 C261 1.364 . S
C257 H236 0.952 . S
C257 C256 1.372 1_655 S
C257 C258 1.389 . S
C258 H237 0.949 . S
C258 C257 1.389 . S
C258 C259 1.387 1_655 S
C259 C258 1.387 1_455 S
C259 C260 1.372 . S
C260 H238 0.950 . S
C260 C259 1.372 . S
C260 C261 1.379 . S
C261 H239 0.948 . S
C261 C256 1.364 . S
C261 C260 1.379 . S
C262 C231 1.383 . S
C262 C249 1.479 . S
C262 C263 1.398 . S
C263 C228 1.382 . S
C263 H240 0.951 . S
C263 C262 1.398 . S
C264 C265 1.384 . S
C264 H277 0.947 . S
C264 C299 1.382 . S
C265 C264 1.384 . S
C265 C266 1.378 . S
C266 C265 1.378 . S
C266 C267 1.378 . S
C266 H278 0.952 . S
C267 C266 1.378 . S
C267 H279 0.950 . S
C267 C298 1.383 . S
H268 C287 0.947 . S
H269 C288 0.946 . S
H270 C290 0.953 . S
H271 C291 0.945 . S
H272 C293 0.952 . S
H273 C294 0.949 . S
H274 C296 0.950 . S
H275 C297 0.948 . S
H276 C299 0.951 . S
H277 C264 0.947 . S
H278 C266 0.952 . S
H279 C267 0.950 . S
N280 C283 1.382 1_545 S
N280 C285 1.363 . S
N281 C283 1.371 . S
N281 C284 1.372 1_565 S
N282 C284 1.361 . S
N282 C285 1.377 . S
C283 N280 1.382 1_565 S
C283 N281 1.371 . S
C283 C286 1.480 . S
C284 N281 1.372 1_545 S
C284 N282 1.361 . S
C284 C292 1.457 . S
C285 N280 1.363 . S
C285 N282 1.377 . S
C285 C298 1.479 . S
C286 C283 1.480 . S
C286 C287 1.383 . S
C286 C291 1.385 . S
C287 H268 0.947 . S
C287 C286 1.383 . S
C287 C288 1.388 . S
C288 H269 0.946 . S
C288 C287 1.388 . S
C288 C289 1.384 . S
C289 C288 1.384 . S
C289 C290 1.377 . S
C290 H270 0.953 . S
C290 C289 1.377 . S
C290 C291 1.369 . S
C291 H271 0.945 . S
C291 C286 1.385 . S
C291 C290 1.369 . S
C292 C284 1.457 . S
C292 C293 1.372 1_545 S
C292 C297 1.364 . S
C293 H272 0.952 . S
C293 C292 1.372 1_565 S
C293 C294 1.389 . S
C294 H273 0.949 . S
C294 C293 1.389 . S
C294 C295 1.379 1_565 S
C295 C294 1.379 1_545 S
C295 C296 1.379 . S
C296 H274 0.950 . S
C296 C295 1.379 . S
C296 C297 1.379 . S
C297 H275 0.948 . S
C297 C292 1.364 . S
C297 C296 1.379 . S
C298 C267 1.383 . S
C298 C285 1.479 . S
C298 C299 1.398 . S
C299 C264 1.382 . S
C299 H276 0.951 . S
C299 C298 1.398 . S
C300 C301 1.384 . S
C300 H313 0.947 . S
C300 C335 1.382 . S
C301 C300 1.384 . S
C301 C302 1.378 . S
C302 C301 1.378 . S
C302 C303 1.378 . S
C302 H314 0.952 . S
C303 C302 1.378 . S
C303 H315 0.950 . S
C303 C334 1.383 . S
H304 C323 0.947 . S
H305 C324 0.946 . S
H306 C326 0.953 . S
H307 C327 0.945 . S
H308 C329 0.952 . S
H309 C330 0.949 . S
H310 C332 0.950 . S
H311 C333 0.948 . S
H312 C335 0.951 . S
H313 C300 0.947 . S
H314 C302 0.952 . S
H315 C303 0.950 . S
N316 C319 1.382 . S
N316 C321 1.363 . S
N317 C319 1.371 . S
N317 C320 1.372 . S
N318 C320 1.361 . S
N318 C321 1.377 . S
C319 N316 1.382 . S
C319 N317 1.371 . S
C319 C322 1.480 . S
C320 N317 1.372 . S
C320 N318 1.361 . S
C320 C328 1.457 . S
C321 N316 1.363 . S
C321 N318 1.377 . S
C321 C334 1.479 . S
C322 C319 1.480 . S
C322 C323 1.383 . S
C322 C327 1.385 . S
C323 H304 0.947 . S
C323 C322 1.383 . S
C323 C324 1.388 . S
C324 H305 0.946 . S
C324 C323 1.388 . S
C324 C325 1.384 . S
C325 C324 1.384 . S
C325 C326 1.377 . S
C326 H306 0.953 . S
C326 C325 1.377 . S
C326 C327 1.369 . S
C327 H307 0.945 . S
C327 C322 1.385 . S
C327 C326 1.369 . S
C328 C320 1.457 . S
C328 C329 1.372 . S
C328 C333 1.364 . S
C329 H308 0.952 . S
C329 C328 1.372 . S
C329 C330 1.389 . S
C330 H309 0.949 . S
C330 C329 1.389 . S
C330 C331 1.387 . S
C331 C330 1.387 . S
C331 C332 1.372 . S
C332 H310 0.950 . S
C332 C331 1.372 . S
C332 C333 1.379 . S
C333 H311 0.948 . S
C333 C328 1.364 . S
C333 C332 1.379 . S
C334 C303 1.383 . S
C334 C321 1.479 . S
C334 C335 1.398 . S
C335 C300 1.382 . S
C335 H312 0.951 . S
C335 C334 1.398 . S
H336 C354 0.951 . S
H337 C356 0.951 . S
H338 C358 0.950 . S
H339 C359 0.950 . S
H340 C361 0.950 . S
H341 C364 0.950 . S
H342 C365 0.950 . S
H343 C367 0.950 . S
H344 C368 0.950 . S
H345 C369 0.951 . S
H346 C371 0.951 . S
H347 C373 0.950 . S
H348 C374 0.950 . S
H349 C376 0.950 . S
H350 C379 0.950 . S
H351 C380 0.950 . S
H352 C382 0.950 . S
H353 C383 0.950 . S
C354 H336 0.951 . S
C354 C355 1.366 . S
C354 C356 1.388 . S
C355 C354 1.366 . S
C355 C359 1.385 . S
C356 H337 0.951 . S
C356 C354 1.388 . S
C356 C357 1.366 . S
C357 C356 1.366 . S
C357 C358 1.414 . S
C357 C360 1.499 . S
C358 H338 0.950 . S
C358 C357 1.414 . S
C358 C359 1.374 . S
C359 H339 0.950 . S
C359 C355 1.385 . S
C359 C358 1.374 . S
C360 C357 1.499 . S
C360 C361 1.373 . S
C360 C362 1.389 . S
C361 H340 0.950 . S
C361 C360 1.373 . S
C361 C377 1.377 . S
C362 C360 1.389 . S
C362 C363 1.524 . S
C362 C376 1.377 . S
C363 C362 1.524 . S
C363 C364 1.397 . S
C363 C368 1.363 . S
C364 H341 0.950 . S
C364 C363 1.397 . S
C364 C365 1.334 . S
C365 H342 0.950 . S
C365 C364 1.334 . S
C365 C366 1.287 . S
C366 C365 1.287 . S
C366 C367 1.524 . S
C366 H385 0.913 . S
C367 H343 0.950 . S
C367 C366 1.524 . S
C367 C368 1.415 . S
C368 H344 0.950 . S
C368 C363 1.363 . S
C368 C367 1.415 . S
C369 H345 0.951 . S
C369 C370 1.366 . S
C369 C371 1.388 . S
C370 C369 1.366 . S
C370 C374 1.385 . S
C371 H346 0.951 . S
C371 C369 1.388 . S
C371 C372 1.366 . S
C372 C371 1.366 . S
C372 C373 1.414 . S
C372 C375 1.499 . S
C373 H347 0.950 . S
C373 C372 1.414 . S
C373 C374 1.374 . S
C374 H348 0.950 . S
C374 C370 1.385 . S
C374 C373 1.374 . S
C375 C372 1.499 . S
C375 C376 1.373 . S
C375 C377 1.389 . S
C376 H349 0.950 . S
C376 C362 1.377 . S
C376 C375 1.373 . S
C377 C361 1.377 . S
C377 C375 1.389 . S
C377 C378 1.524 . S
C378 C377 1.524 . S
C378 C379 1.397 . S
C378 C383 1.363 . S
C379 H350 0.950 . S
C379 C378 1.397 . S
C379 C380 1.334 . S
C380 H351 0.950 . S
C380 C379 1.334 . S
C380 C381 1.287 . S
C381 C380 1.287 . S
C381 C382 1.524 . S
C381 H384 0.999 . S
C382 H352 0.950 . S
C382 C381 1.524 . S
C382 C383 1.415 . S
C383 H353 0.950 . S
C383 C378 1.363 . S
C383 C382 1.415 . S
H384 C381 0.999 . S
H385 C366 0.913 . S
H386 C404 0.951 . S
H387 C406 0.951 . S
H388 C408 0.950 . S
H389 C409 0.950 . S
H390 C411 0.950 . S
H391 C414 0.950 . S
H392 C415 0.950 . S
H393 C417 0.950 . S
H394 C418 0.950 . S
H395 C419 0.951 . S
H396 C421 0.951 . S
H397 C423 0.950 . S
H398 C424 0.950 . S
H399 C426 0.950 . S
H400 C429 0.950 . S
H401 C430 0.950 . S
H402 C432 0.950 . S
H403 C433 0.950 . S
C404 H386 0.951 . S
C404 C405 1.366 . S
C404 C406 1.388 . S
C405 C404 1.366 . S
C405 C409 1.385 . S
C406 H387 0.951 . S
C406 C404 1.388 . S
C406 C407 1.366 . S
C407 C406 1.366 . S
C407 C408 1.414 . S
C407 C410 1.499 . S
C408 H388 0.950 . S
C408 C407 1.414 . S
C408 C409 1.374 . S
C409 H389 0.950 . S
C409 C405 1.385 . S
C409 C408 1.374 . S
C410 C407 1.499 . S
C410 C411 1.373 . S
C410 C412 1.389 . S
C411 H390 0.950 . S
C411 C410 1.373 . S
C411 C427 1.377 . S
C412 C410 1.389 . S
C412 C413 1.524 . S
C412 C426 1.377 . S
C413 C412 1.524 . S
C413 C414 1.397 . S
C413 C418 1.363 . S
C414 H391 0.950 . S
C414 C413 1.397 . S
C414 C415 1.334 . S
C415 H392 0.950 . S
C415 C414 1.334 . S
C415 C416 1.287 . S
C416 C415 1.287 . S
C416 C417 1.524 . S
C416 H435 0.913 . S
C417 H393 0.950 . S
C417 C416 1.524 . S
C417 C418 1.415 . S
C418 H394 0.950 . S
C418 C413 1.363 . S
C418 C417 1.415 . S
C419 H395 0.951 . S
C419 C420 1.366 . S
C419 C421 1.388 . S
C420 C419 1.366 . S
C420 C424 1.385 . S
C421 H396 0.951 . S
C421 C419 1.388 . S
C421 C422 1.366 . S
C422 C421 1.366 . S
C422 C423 1.414 . S
C422 C425 1.499 . S
C423 H397 0.950 . S
C423 C422 1.414 . S
C423 C424 1.374 . S
C424 H398 0.950 . S
C424 C420 1.385 . S
C424 C423 1.374 . S
C425 C422 1.499 . S
C425 C426 1.373 . S
C425 C427 1.389 . S
C426 H399 0.950 . S
C426 C412 1.377 . S
C426 C425 1.373 . S
C427 C411 1.377 . S
C427 C425 1.389 . S
C427 C428 1.524 . S
C428 C427 1.524 . S
C428 C429 1.397 . S
C428 C433 1.363 . S
C429 H400 0.950 . S
C429 C428 1.397 . S
C429 C430 1.334 . S
C430 H401 0.950 . S
C430 C429 1.334 . S
C430 C431 1.287 . S
C431 C430 1.287 . S
C431 C432 1.524 . S
C431 H434 0.999 . S
C432 H402 0.950 . S
C432 C431 1.524 . S
C432 C433 1.415 . S
C433 H403 0.950 . S
C433 C428 1.363 . S
C433 C432 1.415 . S
H434 C431 0.999 . S
H435 C416 0.913 . S
H436 C454 0.951 . S
H437 C456 0.951 . S
H438 C458 0.950 . S
H439 C459 0.950 . S
H440 C461 0.950 . S
H441 C464 0.950 . S
H442 C465 0.950 . S
H443 C467 0.950 . S
H444 C468 0.950 . S
H445 C469 0.951 . S
H446 C471 0.951 . S
H447 C473 0.950 . S
H448 C474 0.950 . S
H449 C476 0.950 . S
H450 C479 0.950 . S
H451 C480 0.950 . S
H452 C482 0.950 . S
H453 C483 0.950 . S
C454 H436 0.951 . S
C454 C455 1.366 . S
C454 C456 1.388 . S
C455 C454 1.366 . S
C455 C459 1.385 . S
C456 H437 0.951 . S
C456 C454 1.388 . S
C456 C457 1.366 . S
C457 C456 1.366 . S
C457 C458 1.414 . S
C457 C460 1.499 . S
C458 H438 0.950 . S
C458 C457 1.414 . S
C458 C459 1.374 . S
C459 H439 0.950 . S
C459 C455 1.385 . S
C459 C458 1.374 . S
C460 C457 1.499 . S
C460 C461 1.373 . S
C460 C462 1.389 . S
C461 H440 0.950 . S
C461 C460 1.373 . S
C461 C477 1.377 . S
C462 C460 1.389 . S
C462 C463 1.524 . S
C462 C476 1.377 . S
C463 C462 1.524 . S
C463 C464 1.397 . S
C463 C468 1.363 . S
C464 H441 0.950 . S
C464 C463 1.397 . S
C464 C465 1.334 . S
C465 H442 0.950 . S
C465 C464 1.334 . S
C465 C466 1.287 . S
C466 C465 1.287 . S
C466 C467 1.524 . S
C466 H485 0.913 . S
C467 H443 0.950 . S
C467 C466 1.524 . S
C467 C468 1.415 . S
C468 H444 0.950 . S
C468 C463 1.363 . S
C468 C467 1.415 . S
C469 H445 0.951 . S
C469 C470 1.366 . S
C469 C471 1.388 . S
C470 C469 1.366 . S
C470 C474 1.385 . S
C471 H446 0.951 . S
C471 C469 1.388 . S
C471 C472 1.366 . S
C472 C471 1.366 . S
C472 C473 1.414 . S
C472 C475 1.499 . S
C473 H447 0.950 . S
C473 C472 1.414 . S
C473 C474 1.374 . S
C474 H448 0.950 . S
C474 C470 1.385 . S
C474 C473 1.374 . S
C475 C472 1.499 . S
C475 C476 1.373 . S
C475 C477 1.389 . S
C476 H449 0.950 . S
C476 C462 1.377 . S
C476 C475 1.373 . S
C477 C461 1.377 . S
C477 C475 1.389 . S
C477 C478 1.524 . S
C478 C477 1.524 . S
C478 C479 1.397 . S
C478 C483 1.363 . S
C479 H450 0.950 . S
C479 C478 1.397 . S
C479 C480 1.334 . S
C480 H451 0.950 . S
C480 C479 1.334 . S
C480 C481 1.287 . S
C481 C480 1.287 . S
C481 C482 1.524 . S
C481 H484 0.999 . S
C482 H452 0.950 . S
C482 C481 1.524 . S
C482 C483 1.415 . S
C483 H453 0.950 . S
C483 C478 1.363 . S
C483 C482 1.415 . S
H484 C481 0.999 . S
H485 C466 0.913 . S
H486 C504 0.951 . S
H487 C506 0.951 . S
H488 C508 0.950 . S
H489 C509 0.950 . S
H490 C511 0.950 . S
H491 C514 0.950 . S
H492 C515 0.950 . S
H493 C517 0.950 . S
H494 C518 0.950 . S
H495 C519 0.951 . S
H496 C521 0.951 . S
H497 C523 0.950 . S
H498 C524 0.950 . S
H499 C526 0.950 . S
H500 C529 0.950 . S
H501 C530 0.950 . S
H502 C532 0.950 . S
H503 C533 0.950 . S
C504 H486 0.951 . S
C504 C505 1.366 . S
C504 C506 1.388 . S
C505 C504 1.366 . S
C505 C509 1.385 . S
C506 H487 0.951 . S
C506 C504 1.388 . S
C506 C507 1.366 . S
C507 C506 1.366 . S
C507 C508 1.414 . S
C507 C510 1.499 . S
C508 H488 0.950 . S
C508 C507 1.414 . S
C508 C509 1.374 . S
C509 H489 0.950 . S
C509 C505 1.385 . S
C509 C508 1.374 . S
C510 C507 1.499 . S
C510 C511 1.373 . S
C510 C512 1.389 . S
C511 H490 0.950 . S
C511 C510 1.373 . S
C511 C527 1.377 . S
C512 C510 1.389 . S
C512 C513 1.524 . S
C512 C526 1.377 . S
C513 C512 1.524 . S
C513 C514 1.397 . S
C513 C518 1.363 . S
C514 H491 0.950 . S
C514 C513 1.397 . S
C514 C515 1.334 . S
C515 H492 0.950 . S
C515 C514 1.334 . S
C515 C516 1.287 . S
C516 C515 1.287 . S
C516 C517 1.524 . S
C516 H535 0.913 . S
C517 H493 0.950 . S
C517 C516 1.524 . S
C517 C518 1.415 . S
C518 H494 0.950 . S
C518 C513 1.363 . S
C518 C517 1.415 . S
C519 H495 0.951 . S
C519 C520 1.366 . S
C519 C521 1.388 . S
C520 C519 1.366 . S
C520 C524 1.385 . S
C521 H496 0.951 . S
C521 C519 1.388 . S
C521 C522 1.366 . S
C522 C521 1.366 . S
C522 C523 1.414 . S
C522 C525 1.499 . S
C523 H497 0.950 . S
C523 C522 1.414 . S
C523 C524 1.374 . S
C524 H498 0.950 . S
C524 C520 1.385 . S
C524 C523 1.374 . S
C525 C522 1.499 . S
C525 C526 1.373 . S
C525 C527 1.389 . S
C526 H499 0.950 . S
C526 C512 1.377 . S
C526 C525 1.373 . S
C527 C511 1.377 . S
C527 C525 1.389 . S
C527 C528 1.524 . S
C528 C527 1.524 . S
C528 C529 1.397 . S
C528 C533 1.363 . S
C529 H500 0.950 . S
C529 C528 1.397 . S
C529 C530 1.334 . S
C530 H501 0.950 . S
C530 C529 1.334 . S
C530 C531 1.287 . S
C531 C530 1.287 . S
C531 C532 1.524 . S
C531 H534 0.999 . S
C532 H502 0.950 . S
C532 C531 1.524 . S
C532 C533 1.415 . S
C533 H503 0.950 . S
C533 C528 1.363 . S
C533 C532 1.415 . S
H534 C531 0.999 . S
H535 C516 0.913 . S
H536 C554 0.951 . S
H537 C556 0.951 . S
H538 C558 0.950 . S
H539 C559 0.950 . S
H540 C561 0.950 . S
H541 C564 0.950 . S
H542 C565 0.950 . S
H543 C567 0.950 . S
H544 C568 0.950 . S
H545 C569 0.951 . S
H546 C571 0.951 . S
H547 C573 0.950 . S
H548 C574 0.950 . S
H549 C576 0.950 . S
H550 C579 0.950 . S
H551 C580 0.950 . S
H552 C582 0.950 . S
H553 C583 0.950 . S
C554 H536 0.951 . S
C554 C555 1.366 . S
C554 C556 1.388 . S
C555 C554 1.366 . S
C555 C559 1.385 . S
C556 H537 0.951 . S
C556 C554 1.388 . S
C556 C557 1.366 . S
C557 C556 1.366 . S
C557 C558 1.414 . S
C557 C560 1.499 . S
C558 H538 0.950 . S
C558 C557 1.414 . S
C558 C559 1.374 . S
C559 H539 0.950 . S
C559 C555 1.385 . S
C559 C558 1.374 . S
C560 C557 1.499 . S
C560 C561 1.373 . S
C560 C562 1.389 . S
C561 H540 0.950 . S
C561 C560 1.373 . S
C561 C577 1.377 . S
C562 C560 1.389 . S
C562 C563 1.524 . S
C562 C576 1.377 . S
C563 C562 1.524 . S
C563 C564 1.397 . S
C563 C568 1.363 . S
C564 H541 0.950 . S
C564 C563 1.397 . S
C564 C565 1.334 . S
C565 H542 0.950 . S
C565 C564 1.334 . S
C565 C566 1.287 . S
C566 C565 1.287 . S
C566 C567 1.524 . S
C566 H585 0.913 . S
C567 H543 0.950 . S
C567 C566 1.524 . S
C567 C568 1.415 . S
C568 H544 0.950 . S
C568 C563 1.363 . S
C568 C567 1.415 . S
C569 H545 0.951 . S
C569 C570 1.366 . S
C569 C571 1.388 . S
C570 C569 1.366 . S
C570 C574 1.385 . S
C571 H546 0.951 . S
C571 C569 1.388 . S
C571 C572 1.366 . S
C572 C571 1.366 . S
C572 C573 1.414 . S
C572 C575 1.499 . S
C573 H547 0.950 . S
C573 C572 1.414 . S
C573 C574 1.374 . S
C574 H548 0.950 . S
C574 C570 1.385 . S
C574 C573 1.374 . S
C575 C572 1.499 . S
C575 C576 1.373 . S
C575 C577 1.389 . S
C576 H549 0.950 . S
C576 C562 1.377 . S
C576 C575 1.373 . S
C577 C561 1.377 . S
C577 C575 1.389 . S
C577 C578 1.524 . S
C578 C577 1.524 . S
C578 C579 1.397 . S
C578 C583 1.363 . S
C579 H550 0.950 . S
C579 C578 1.397 . S
C579 C580 1.334 . S
C580 H551 0.950 . S
C580 C579 1.334 . S
C580 C581 1.287 . S
C581 C580 1.287 . S
C581 C582 1.524 . S
C581 H584 0.999 . S
C582 H552 0.950 . S
C582 C581 1.524 . S
C582 C583 1.415 . S
C583 H553 0.950 . S
C583 C578 1.363 . S
C583 C582 1.415 . S
H584 C581 0.999 . S
H585 C566 0.913 . S
H586 C604 0.951 . S
H587 C606 0.951 . S
H588 C608 0.950 . S
H589 C609 0.950 . S
H590 C611 0.950 . S
H591 C614 0.950 . S
H592 C615 0.950 . S
H593 C617 0.950 . S
H594 C618 0.950 . S
H595 C619 0.951 . S
H596 C621 0.951 . S
H597 C623 0.950 . S
H598 C624 0.950 . S
H599 C626 0.950 . S
H600 C629 0.950 . S
H601 C630 0.950 . S
H602 C632 0.950 . S
H603 C633 0.950 . S
C604 H586 0.951 . S
C604 C605 1.366 . S
C604 C606 1.388 . S
C605 C604 1.366 . S
C605 C609 1.385 . S
C606 H587 0.951 . S
C606 C604 1.388 . S
C606 C607 1.366 . S
C607 C606 1.366 . S
C607 C608 1.414 . S
C607 C610 1.499 . S
C608 H588 0.950 . S
C608 C607 1.414 . S
C608 C609 1.374 . S
C609 H589 0.950 . S
C609 C605 1.385 . S
C609 C608 1.374 . S
C610 C607 1.499 . S
C610 C611 1.373 . S
C610 C612 1.389 . S
C611 H590 0.950 . S
C611 C610 1.373 . S
C611 C627 1.377 . S
C612 C610 1.389 . S
C612 C613 1.524 . S
C612 C626 1.377 . S
C613 C612 1.524 . S
C613 C614 1.397 . S
C613 C618 1.363 . S
C614 H591 0.950 . S
C614 C613 1.397 . S
C614 C615 1.334 . S
C615 H592 0.950 . S
C615 C614 1.334 . S
C615 C616 1.287 . S
C616 C615 1.287 . S
C616 C617 1.524 . S
C616 H635 0.913 . S
C617 H593 0.950 . S
C617 C616 1.524 . S
C617 C618 1.415 . S
C618 H594 0.950 . S
C618 C613 1.363 . S
C618 C617 1.415 . S
C619 H595 0.951 . S
C619 C620 1.366 . S
C619 C621 1.388 . S
C620 C619 1.366 . S
C620 C624 1.385 . S
C621 H596 0.951 . S
C621 C619 1.388 . S
C621 C622 1.366 . S
C622 C621 1.366 . S
C622 C623 1.414 . S
C622 C625 1.499 . S
C623 H597 0.950 . S
C623 C622 1.414 . S
C623 C624 1.374 . S
C624 H598 0.950 . S
C624 C620 1.385 . S
C624 C623 1.374 . S
C625 C622 1.499 . S
C625 C626 1.373 . S
C625 C627 1.389 . S
C626 H599 0.950 . S
C626 C612 1.377 . S
C626 C625 1.373 . S
C627 C611 1.377 . S
C627 C625 1.389 . S
C627 C628 1.524 . S
C628 C627 1.524 . S
C628 C629 1.397 . S
C628 C633 1.363 . S
C629 H600 0.950 . S
C629 C628 1.397 . S
C629 C630 1.334 . S
C630 H601 0.950 . S
C630 C629 1.334 . S
C630 C631 1.287 . S
C631 C630 1.287 . S
C631 C632 1.524 . S
C631 H634 0.999 . S
C632 H602 0.950 . S
C632 C631 1.524 . S
C632 C633 1.415 . S
C633 H603 0.950 . S
C633 C628 1.363 . S
C633 C632 1.415 . S
H634 C631 0.999 . S
H635 C616 0.913 . S
H636 C654 0.951 . S
H637 C656 0.951 . S
H638 C658 0.950 . S
H639 C659 0.950 . S
H640 C661 0.950 . S
H641 C664 0.950 . S
H642 C665 0.950 . S
H643 C667 0.950 . S
H644 C668 0.950 . S
H645 C669 0.951 . S
H646 C671 0.951 . S
H647 C673 0.950 . S
H648 C674 0.950 . S
H649 C676 0.950 . S
H650 C679 0.950 . S
H651 C680 0.950 . S
H652 C682 0.950 . S
H653 C683 0.950 . S
C654 H636 0.951 . S
C654 C655 1.366 . S
C654 C656 1.388 . S
C655 C654 1.366 . S
C655 C659 1.385 . S
C656 H637 0.951 . S
C656 C654 1.388 . S
C656 C657 1.366 . S
C657 C656 1.366 . S
C657 C658 1.414 . S
C657 C660 1.499 . S
C658 H638 0.950 . S
C658 C657 1.414 . S
C658 C659 1.374 . S
C659 H639 0.950 . S
C659 C655 1.385 . S
C659 C658 1.374 . S
C660 C657 1.499 . S
C660 C661 1.373 . S
C660 C662 1.389 . S
C661 H640 0.950 . S
C661 C660 1.373 . S
C661 C677 1.377 . S
C662 C660 1.389 . S
C662 C663 1.524 . S
C662 C676 1.377 . S
C663 C662 1.524 . S
C663 C664 1.397 . S
C663 C668 1.363 . S
C664 H641 0.950 . S
C664 C663 1.397 . S
C664 C665 1.334 . S
C665 H642 0.950 . S
C665 C664 1.334 . S
C665 C666 1.287 . S
C666 C665 1.287 . S
C666 C667 1.524 . S
C666 H685 0.913 . S
C667 H643 0.950 . S
C667 C666 1.524 . S
C667 C668 1.415 . S
C668 H644 0.950 . S
C668 C663 1.363 . S
C668 C667 1.415 . S
C669 H645 0.951 . S
C669 C670 1.366 . S
C669 C671 1.388 . S
C670 C669 1.366 . S
C670 C674 1.385 . S
C671 H646 0.951 . S
C671 C669 1.388 . S
C671 C672 1.366 . S
C672 C671 1.366 . S
C672 C673 1.414 . S
C672 C675 1.499 . S
C673 H647 0.950 . S
C673 C672 1.414 . S
C673 C674 1.374 . S
C674 H648 0.950 . S
C674 C670 1.385 . S
C674 C673 1.374 . S
C675 C672 1.499 . S
C675 C676 1.373 . S
C675 C677 1.389 . S
C676 H649 0.950 . S
C676 C662 1.377 . S
C676 C675 1.373 . S
C677 C661 1.377 . S
C677 C675 1.389 . S
C677 C678 1.524 . S
C678 C677 1.524 . S
C678 C679 1.397 . S
C678 C683 1.363 . S
C679 H650 0.950 . S
C679 C678 1.397 . S
C679 C680 1.334 . S
C680 H651 0.950 . S
C680 C679 1.334 . S
C680 C681 1.287 . S
C681 C680 1.287 . S
C681 C682 1.524 . S
C681 H684 0.999 . S
C682 H652 0.950 . S
C682 C681 1.524 . S
C682 C683 1.415 . S
C683 H653 0.950 . S
C683 C678 1.363 . S
C683 C682 1.415 . S
H684 C681 0.999 . S
H685 C666 0.913 . S
H686 C704 0.951 . S
H687 C706 0.951 . S
H688 C708 0.950 . S
H689 C709 0.950 . S
H690 C711 0.950 . S
H691 C714 0.950 . S
H692 C715 0.950 . S
H693 C717 0.950 . S
H694 C718 0.950 . S
H695 C719 0.951 . S
H696 C721 0.951 . S
H697 C723 0.950 . S
H698 C724 0.950 . S
H699 C726 0.950 . S
H700 C729 0.950 . S
H701 C730 0.950 . S
H702 C732 0.950 . S
H703 C733 0.950 . S
C704 H686 0.951 . S
C704 C705 1.366 . S
C704 C706 1.388 . S
C705 C704 1.366 . S
C705 C709 1.385 . S
C706 H687 0.951 . S
C706 C704 1.388 . S
C706 C707 1.366 . S
C707 C706 1.366 . S
C707 C708 1.414 . S
C707 C710 1.499 . S
C708 H688 0.950 . S
C708 C707 1.414 . S
C708 C709 1.374 . S
C709 H689 0.950 . S
C709 C705 1.385 . S
C709 C708 1.374 . S
C710 C707 1.499 . S
C710 C711 1.373 . S
C710 C712 1.389 . S
C711 H690 0.950 . S
C711 C710 1.373 . S
C711 C727 1.377 . S
C712 C710 1.389 . S
C712 C713 1.524 . S
C712 C726 1.377 . S
C713 C712 1.524 . S
C713 C714 1.397 . S
C713 C718 1.363 . S
C714 H691 0.950 . S
C714 C713 1.397 . S
C714 C715 1.334 . S
C715 H692 0.950 . S
C715 C714 1.334 . S
C715 C716 1.287 . S
C716 C715 1.287 . S
C716 C717 1.524 . S
C716 H735 0.913 . S
C717 H693 0.950 . S
C717 C716 1.524 . S
C717 C718 1.415 . S
C718 H694 0.950 . S
C718 C713 1.363 . S
C718 C717 1.415 . S
C719 H695 0.951 . S
C719 C720 1.366 . S
C719 C721 1.388 . S
C720 C719 1.366 . S
C720 C724 1.385 . S
C721 H696 0.951 . S
C721 C719 1.388 . S
C721 C722 1.366 . S
C722 C721 1.366 . S
C722 C723 1.414 . S
C722 C725 1.499 . S
C723 H697 0.950 . S
C723 C722 1.414 . S
C723 C724 1.374 . S
C724 H698 0.950 . S
C724 C720 1.385 . S
C724 C723 1.374 . S
C725 C722 1.499 . S
C725 C726 1.373 . S
C725 C727 1.389 . S
C726 H699 0.950 . S
C726 C712 1.377 . S
C726 C725 1.373 . S
C727 C711 1.377 . S
C727 C725 1.389 . S
C727 C728 1.524 . S
C728 C727 1.524 . S
C728 C729 1.397 . S
C728 C733 1.363 . S
C729 H700 0.950 . S
C729 C728 1.397 . S
C729 C730 1.334 . S
C730 H701 0.950 . S
C730 C729 1.334 . S
C730 C731 1.287 . S
C731 C730 1.287 . S
C731 C732 1.524 . S
C731 H734 0.999 . S
C732 H702 0.950 . S
C732 C731 1.524 . S
C732 C733 1.415 . S
C733 H703 0.950 . S
C733 C728 1.363 . S
C733 C732 1.415 . S
H734 C731 0.999 . S
H735 C716 0.913 . S
H736 C754 0.951 . S
H737 C756 0.951 . S
H738 C758 0.950 . S
H739 C759 0.950 . S
H740 C761 0.950 . S
H741 C764 0.950 . S
H742 C765 0.950 . S
H743 C767 0.950 . S
H744 C768 0.950 . S
H745 C769 0.951 . S
H746 C771 0.951 . S
H747 C773 0.950 . S
H748 C774 0.950 . S
H749 C776 0.950 . S
H750 C779 0.950 . S
H751 C780 0.950 . S
H752 C782 0.950 . S
H753 C783 0.950 . S
C754 H736 0.951 . S
C754 C755 1.366 . S
C754 C756 1.388 . S
C755 C754 1.366 . S
C755 C759 1.385 . S
C756 H737 0.951 . S
C756 C754 1.388 . S
C756 C757 1.366 . S
C757 C756 1.366 . S
C757 C758 1.414 . S
C757 C760 1.499 . S
C758 H738 0.950 . S
C758 C757 1.414 . S
C758 C759 1.374 . S
C759 H739 0.950 . S
C759 C755 1.385 . S
C759 C758 1.374 . S
C760 C757 1.499 . S
C760 C761 1.373 . S
C760 C762 1.389 . S
C761 H740 0.950 . S
C761 C760 1.373 . S
C761 C777 1.377 . S
C762 C760 1.389 . S
C762 C763 1.524 . S
C762 C776 1.377 . S
C763 C762 1.524 . S
C763 C764 1.397 . S
C763 C768 1.363 . S
C764 H741 0.950 . S
C764 C763 1.397 . S
C764 C765 1.334 . S
C765 H742 0.950 . S
C765 C764 1.334 . S
C765 C766 1.287 . S
C766 C765 1.287 . S
C766 C767 1.524 . S
C766 H785 0.913 . S
C767 H743 0.950 . S
C767 C766 1.524 . S
C767 C768 1.415 . S
C768 H744 0.950 . S
C768 C763 1.363 . S
C768 C767 1.415 . S
C769 H745 0.951 . S
C769 C770 1.366 . S
C769 C771 1.388 . S
C770 C769 1.366 . S
C770 C774 1.385 . S
C771 H746 0.951 . S
C771 C769 1.388 . S
C771 C772 1.366 . S
C772 C771 1.366 . S
C772 C773 1.414 . S
C772 C775 1.499 . S
C773 H747 0.950 . S
C773 C772 1.414 . S
C773 C774 1.374 . S
C774 H748 0.950 . S
C774 C770 1.385 . S
C774 C773 1.374 . S
C775 C772 1.499 . S
C775 C776 1.373 . S
C775 C777 1.389 . S
C776 H749 0.950 . S
C776 C762 1.377 . S
C776 C775 1.373 . S
C777 C761 1.377 . S
C777 C775 1.389 . S
C777 C778 1.524 . S
C778 C777 1.524 . S
C778 C779 1.397 . S
C778 C783 1.363 . S
C779 H750 0.950 . S
C779 C778 1.397 . S
C779 C780 1.334 . S
C780 H751 0.950 . S
C780 C779 1.334 . S
C780 C781 1.287 . S
C781 C780 1.287 . S
C781 C782 1.524 . S
C781 H784 0.999 . S
C782 H752 0.950 . S
C782 C781 1.524 . S
C782 C783 1.415 . S
C783 H753 0.950 . S
C783 C778 1.363 . S
C783 C782 1.415 . S
H784 C781 0.999 . S
H785 C766 0.913 . S
H786 C804 0.951 . S
H787 C806 0.951 . S
H788 C808 0.950 . S
H789 C809 0.950 . S
H790 C811 0.950 . S
H791 C814 0.950 . S
H792 C815 0.950 . S
H793 C817 0.950 . S
H794 C818 0.950 . S
H795 C819 0.951 . S
H796 C821 0.951 . S
H797 C823 0.950 . S
H798 C824 0.950 . S
H799 C826 0.950 . S
H800 C829 0.950 . S
H801 C830 0.950 . S
H802 C832 0.950 . S
H803 C833 0.950 . S
C804 H786 0.951 . S
C804 C805 1.366 . S
C804 C806 1.388 . S
C805 C804 1.366 . S
C805 C809 1.385 . S
C806 H787 0.951 . S
C806 C804 1.388 . S
C806 C807 1.366 . S
C807 C806 1.366 . S
C807 C808 1.414 . S
C807 C810 1.499 . S
C808 H788 0.950 . S
C808 C807 1.414 . S
C808 C809 1.374 . S
C809 H789 0.950 . S
C809 C805 1.385 . S
C809 C808 1.374 . S
C810 C807 1.499 . S
C810 C811 1.373 . S
C810 C812 1.389 . S
C811 H790 0.950 . S
C811 C810 1.373 . S
C811 C827 1.377 . S
C812 C810 1.389 . S
C812 C813 1.524 . S
C812 C826 1.377 . S
C813 C812 1.524 . S
C813 C814 1.397 . S
C813 C818 1.363 . S
C814 H791 0.950 . S
C814 C813 1.397 . S
C814 C815 1.334 . S
C815 H792 0.950 . S
C815 C814 1.334 . S
C815 C816 1.287 . S
C816 C815 1.287 . S
C816 C817 1.524 . S
C816 H835 0.913 . S
C817 H793 0.950 . S
C817 C816 1.524 . S
C817 C818 1.415 . S
C818 H794 0.950 . S
C818 C813 1.363 . S
C818 C817 1.415 . S
C819 H795 0.951 . S
C819 C820 1.366 . S
C819 C821 1.388 . S
C820 C819 1.366 . S
C820 C824 1.385 . S
C821 H796 0.951 . S
C821 C819 1.388 . S
C821 C822 1.366 . S
C822 C821 1.366 . S
C822 C823 1.414 . S
C822 C825 1.499 . S
C823 H797 0.950 . S
C823 C822 1.414 . S
C823 C824 1.374 . S
C824 H798 0.950 . S
C824 C820 1.385 . S
C824 C823 1.374 . S
C825 C822 1.499 . S
C825 C826 1.373 . S
C825 C827 1.389 . S
C826 H799 0.950 . S
C826 C812 1.377 . S
C826 C825 1.373 . S
C827 C811 1.377 . S
C827 C825 1.389 . S
C827 C828 1.524 . S
C828 C827 1.524 . S
C828 C829 1.397 . S
C828 C833 1.363 . S
C829 H800 0.950 . S
C829 C828 1.397 . S
C829 C830 1.334 . S
C830 H801 0.950 . S
C830 C829 1.334 . S
C830 C831 1.287 . S
C831 C830 1.287 . S
C831 C832 1.524 . S
C831 H834 0.999 . S
C832 H802 0.950 . S
C832 C831 1.524 . S
C832 C833 1.415 . S
C833 H803 0.950 . S
C833 C828 1.363 . S
C833 C832 1.415 . S
H834 C831 0.999 . S
H835 C816 0.913 . S
H836 C854 0.951 . S
H837 C856 0.951 . S
H838 C858 0.950 . S
H839 C859 0.950 . S
H840 C861 0.950 . S
H841 C864 0.950 . S
H842 C865 0.950 . S
H843 C867 0.950 . S
H844 C868 0.950 . S
H845 C869 0.951 . S
H846 C871 0.951 . S
H847 C873 0.950 . S
H848 C874 0.950 . S
H849 C876 0.950 . S
H850 C879 0.950 . S
H851 C880 0.950 . S
H852 C882 0.950 . S
H853 C883 0.950 . S
C854 H836 0.951 . S
C854 C855 1.366 . S
C854 C856 1.388 . S
C855 C854 1.366 . S
C855 C859 1.385 . S
C856 H837 0.951 . S
C856 C854 1.388 . S
C856 C857 1.366 . S
C857 C856 1.366 . S
C857 C858 1.414 . S
C857 C860 1.499 . S
C858 H838 0.950 . S
C858 C857 1.414 . S
C858 C859 1.374 . S
C859 H839 0.950 . S
C859 C855 1.385 . S
C859 C858 1.374 . S
C860 C857 1.499 . S
C860 C861 1.373 . S
C860 C862 1.389 . S
C861 H840 0.950 . S
C861 C860 1.373 . S
C861 C877 1.377 . S
C862 C860 1.389 . S
C862 C863 1.524 . S
C862 C876 1.377 . S
C863 C862 1.524 . S
C863 C864 1.397 . S
C863 C868 1.363 . S
C864 H841 0.950 . S
C864 C863 1.397 . S
C864 C865 1.334 . S
C865 H842 0.950 . S
C865 C864 1.334 . S
C865 C866 1.287 . S
C866 C865 1.287 . S
C866 C867 1.524 . S
C866 H885 0.913 . S
C867 H843 0.950 . S
C867 C866 1.524 . S
C867 C868 1.415 . S
C868 H844 0.950 . S
C868 C863 1.363 . S
C868 C867 1.415 . S
C869 H845 0.951 . S
C869 C870 1.366 . S
C869 C871 1.388 . S
C870 C869 1.366 . S
C870 C874 1.385 . S
C871 H846 0.951 . S
C871 C869 1.388 . S
C871 C872 1.366 . S
C872 C871 1.366 . S
C872 C873 1.414 . S
C872 C875 1.499 . S
C873 H847 0.950 . S
C873 C872 1.414 . S
C873 C874 1.374 . S
C874 H848 0.950 . S
C874 C870 1.385 . S
C874 C873 1.374 . S
C875 C872 1.499 . S
C875 C876 1.373 . S
C875 C877 1.389 . S
C876 H849 0.950 . S
C876 C862 1.377 . S
C876 C875 1.373 . S
C877 C861 1.377 . S
C877 C875 1.389 . S
C877 C878 1.524 . S
C878 C877 1.524 . S
C878 C879 1.397 . S
C878 C883 1.363 . S
C879 H850 0.950 . S
C879 C878 1.397 . S
C879 C880 1.334 . S
C880 H851 0.950 . S
C880 C879 1.334 . S
C880 C881 1.287 . S
C881 C880 1.287 . S
C881 C882 1.524 . S
C881 H884 0.999 . S
C882 H852 0.950 . S
C882 C881 1.524 . S
C882 C883 1.415 . S
C883 H853 0.950 . S
C883 C878 1.363 . S
C883 C882 1.415 . S
H884 C881 0.999 . S
H885 C866 0.913 . S
H886 C904 0.951 . S
H887 C906 0.951 . S
H888 C908 0.950 . S
H889 C909 0.950 . S
H890 C911 0.950 . S
H891 C914 0.950 . S
H892 C915 0.950 . S
H893 C917 0.950 . S
H894 C918 0.950 . S
H895 C919 0.951 . S
H896 C921 0.951 . S
H897 C923 0.950 . S
H898 C924 0.950 . S
H899 C926 0.950 . S
H900 C929 0.950 . S
H901 C930 0.950 . S
H902 C932 0.950 . S
H903 C933 0.950 . S
C904 H886 0.951 . S
C904 C905 1.366 . S
C904 C906 1.388 . S
C905 C904 1.366 . S
C905 C909 1.385 . S
C906 H887 0.951 . S
C906 C904 1.388 . S
C906 C907 1.366 . S
C907 C906 1.366 . S
C907 C908 1.414 . S
C907 C910 1.499 . S
C908 H888 0.950 . S
C908 C907 1.414 . S
C908 C909 1.374 . S
C909 H889 0.950 . S
C909 C905 1.385 . S
C909 C908 1.374 . S
C910 C907 1.499 . S
C910 C911 1.373 . S
C910 C912 1.389 . S
C911 H890 0.950 . S
C911 C910 1.373 . S
C911 C927 1.377 . S
C912 C910 1.389 . S
C912 C913 1.524 . S
C912 C926 1.377 . S
C913 C912 1.524 . S
C913 C914 1.397 . S
C913 C918 1.363 . S
C914 H891 0.950 . S
C914 C913 1.397 . S
C914 C915 1.334 . S
C915 H892 0.950 . S
C915 C914 1.334 . S
C915 C916 1.287 . S
C916 C915 1.287 . S
C916 C917 1.524 . S
C916 H935 0.913 . S
C917 H893 0.950 . S
C917 C916 1.524 . S
C917 C918 1.415 . S
C918 H894 0.950 . S
C918 C913 1.363 . S
C918 C917 1.415 . S
C919 H895 0.951 . S
C919 C920 1.366 . S
C919 C921 1.388 . S
C920 C919 1.366 . S
C920 C924 1.385 . S
C921 H896 0.951 . S
C921 C919 1.388 . S
C921 C922 1.366 . S
C922 C921 1.366 . S
C922 C923 1.414 . S
C922 C925 1.499 . S
C923 H897 0.950 . S
C923 C922 1.414 . S
C923 C924 1.374 . S
C924 H898 0.950 . S
C924 C920 1.385 . S
C924 C923 1.374 . S
C925 C922 1.499 . S
C925 C926 1.373 . S
C925 C927 1.389 . S
C926 H899 0.950 . S
C926 C912 1.377 . S
C926 C925 1.373 . S
C927 C911 1.377 . S
C927 C925 1.389 . S
C927 C928 1.524 . S
C928 C927 1.524 . S
C928 C929 1.397 . S
C928 C933 1.363 . S
C929 H900 0.950 . S
C929 C928 1.397 . S
C929 C930 1.334 . S
C930 H901 0.950 . S
C930 C929 1.334 . S
C930 C931 1.287 . S
C931 C930 1.287 . S
C931 C932 1.524 . S
C931 H934 0.999 . S
C932 H902 0.950 . S
C932 C931 1.524 . S
C932 C933 1.415 . S
C933 H903 0.950 . S
C933 C928 1.363 . S
C933 C932 1.415 . S
H934 C931 0.999 . S
H935 C916 0.913 . S
H936 C954 0.951 1_655 S
H937 C956 0.951 1_655 S
H938 C958 0.950 . S
H939 C959 0.950 . S
H940 C961 0.950 . S
H941 C964 0.950 . S
H942 C965 0.950 . S
H943 C967 0.950 . S
H944 C968 0.950 . S
H945 C969 0.951 . S
H946 C971 0.951 . S
H947 C973 0.950 1_655 S
H948 C974 0.936 1_655 S
H949 C976 0.950 1_655 S
H950 C979 0.950 . S
H951 C980 0.950 . S
H952 C982 0.950 . S
H953 C983 0.950 . S
C954 H936 0.951 1_455 S
C954 C955 1.366 . S
C954 C956 1.388 . S
C955 C954 1.366 . S
C955 C959 1.385 . S
C956 H937 0.951 1_455 S
C956 C954 1.388 . S
C956 C957 1.366 . S
C957 C956 1.366 . S
C957 C958 1.414 . S
C957 C960 1.499 . S
C958 H938 0.950 . S
C958 C957 1.414 . S
C958 C959 1.374 . S
C959 H939 0.950 . S
C959 C955 1.385 . S
C959 C958 1.374 . S
C960 C957 1.499 . S
C960 C961 1.373 . S
C960 C962 1.389 . S
C961 H940 0.950 . S
C961 C960 1.373 . S
C961 C977 1.377 . S
C962 C960 1.389 . S
C962 C963 1.524 1_455 S
C962 C976 1.377 . S
C963 C962 1.524 1_655 S
C963 C964 1.397 . S
C963 C968 1.363 . S
C964 H941 0.950 . S
C964 C963 1.397 . S
C964 C965 1.334 . S
C965 H942 0.950 . S
C965 C964 1.334 . S
C965 C966 1.287 . S
C966 C965 1.287 . S
C966 C967 1.524 . S
C966 H985 0.913 . S
C967 H943 0.950 . S
C967 C966 1.524 . S
C967 C968 1.415 . S
C968 H944 0.950 . S
C968 C963 1.363 . S
C968 C967 1.415 . S
C969 H945 0.951 . S
C969 C970 1.366 . S
C969 C971 1.388 1_556 S
C970 C969 1.366 . S
C970 C974 1.385 . S
C971 H946 0.951 . S
C971 C969 1.388 1_554 S
C971 C972 1.366 . S
C972 C971 1.366 . S
C972 C973 1.414 . S
C972 C975 1.499 . S
C973 H947 0.950 1_455 S
C973 C972 1.414 . S
C973 C974 1.374 1_554 S
C974 H948 0.936 1_455 S
C974 C970 1.385 . S
C974 C973 1.374 1_556 S
C975 C972 1.499 . S
C975 C976 1.373 . S
C975 C977 1.389 . S
C976 H949 0.950 1_455 S
C976 C962 1.377 . S
C976 C975 1.373 . S
C977 C961 1.377 . S
C977 C975 1.389 . S
C977 C978 1.524 . S
C978 C977 1.524 . S
C978 C979 1.397 . S
C978 C983 1.363 . S
C979 H950 0.950 . S
C979 C978 1.397 . S
C979 C980 1.334 . S
C980 H951 0.950 . S
C980 C979 1.334 . S
C980 C981 1.287 . S
C981 C980 1.287 . S
C981 C982 1.524 . S
C981 H984 0.999 . S
C982 H952 0.950 . S
C982 C981 1.524 . S
C982 C983 1.415 . S
C983 H953 0.950 . S
C983 C978 1.363 . S
C983 C982 1.415 . S
H984 C981 0.999 . S
H985 C966 0.913 . S
H986 C1004 0.951 . S
H987 C1006 0.951 . S
H988 C1008 0.950 . S
H989 C1009 0.950 . S
H990 C1011 0.950 . S
H991 C1014 0.950 . S
H992 C1015 0.950 . S
H993 C1017 0.950 . S
H994 C1018 0.950 . S
H995 C1019 0.951 . S
H996 C1021 0.951 . S
H997 C1023 0.950 . S
H998 C1024 0.950 . S
H999 C1026 0.950 . S
H1000 C1029 0.950 . S
H1001 C1030 0.950 . S
H1002 C1032 0.950 . S
H1003 C1033 0.950 . S
C1004 H986 0.951 . S
C1004 C1005 1.366 . S
C1004 C1006 1.388 . S
C1005 C1004 1.366 . S
C1005 C1009 1.385 1_545 S
C1006 H987 0.951 . S
C1006 C1004 1.388 . S
C1006 C1007 1.366 . S
C1007 C1006 1.366 . S
C1007 C1008 1.414 1_545 S
C1007 C1010 1.499 . S
C1008 H988 0.950 . S
C1008 C1007 1.414 1_565 S
C1008 C1009 1.374 . S
C1009 H989 0.950 . S
C1009 C1005 1.385 1_565 S
C1009 C1008 1.374 . S
C1010 C1007 1.499 . S
C1010 C1011 1.373 . S
C1010 C1012 1.389 . S
C1011 H990 0.950 . S
C1011 C1010 1.373 . S
C1011 C1027 1.377 . S
C1012 C1010 1.389 . S
C1012 C1013 1.524 . S
C1012 C1026 1.377 . S
C1013 C1012 1.524 . S
C1013 C1014 1.397 1_545 S
C1013 C1018 1.363 . S
C1014 H991 0.950 . S
C1014 C1013 1.397 1_565 S
C1014 C1015 1.334 . S
C1015 H992 0.950 . S
C1015 C1014 1.334 . S
C1015 C1016 1.287 1_565 S
C1016 C1015 1.287 1_545 S
C1016 C1017 1.524 . S
C1016 H1035 0.913 . S
C1017 H993 0.950 . S
C1017 C1016 1.524 . S
C1017 C1018 1.415 . S
C1018 H994 0.950 . S
C1018 C1013 1.363 . S
C1018 C1017 1.415 . S
C1019 H995 0.951 . S
C1019 C1020 1.366 1_565 S
C1019 C1021 1.388 . S
C1020 C1019 1.366 1_545 S
C1020 C1024 1.385 . S
C1021 H996 0.951 . S
C1021 C1019 1.388 . S
C1021 C1022 1.366 1_565 S
C1022 C1021 1.366 1_545 S
C1022 C1023 1.414 . S
C1022 C1025 1.499 . S
C1023 H997 0.950 . S
C1023 C1022 1.414 . S
C1023 C1024 1.374 . S
C1024 H998 0.950 . S
C1024 C1020 1.385 . S
C1024 C1023 1.374 . S
C1025 C1022 1.499 . S
C1025 C1026 1.373 . S
C1025 C1027 1.389 . S
C1026 H999 0.950 . S
C1026 C1012 1.377 . S
C1026 C1025 1.373 . S
C1027 C1011 1.377 . S
C1027 C1025 1.389 . S
C1027 C1028 1.524 . S
C1028 C1027 1.524 . S
C1028 C1029 1.397 . S
C1028 C1033 1.363 1_545 S
C1029 H1000 0.950 . S
C1029 C1028 1.397 . S
C1029 C1030 1.334 . S
C1030 H1001 0.950 . S
C1030 C1029 1.334 . S
C1030 C1031 1.287 . S
C1031 C1030 1.287 . S
C1031 C1032 1.524 1_545 S
C1031 H1034 0.999 . S
C1032 H1002 0.950 . S
C1032 C1031 1.524 1_565 S
C1032 C1033 1.415 . S
C1033 H1003 0.950 . S
C1033 C1028 1.363 1_565 S
C1033 C1032 1.415 . S
H1034 C1031 0.999 . S
H1035 C1016 0.913 . S
H1036 C1054 0.951 . S
H1037 C1056 0.951 . S
H1038 C1058 0.950 . S
H1039 C1059 0.950 . S
H1040 C1061 0.950 . S
H1041 C1064 0.950 . S
H1042 C1065 0.950 . S
H1043 C1067 0.950 . S
H1044 C1068 0.950 . S
H1045 C1069 0.951 . S
H1046 C1071 0.951 . S
H1047 C1073 0.950 . S
H1048 C1074 0.950 . S
H1049 C1076 0.950 . S
H1050 C1079 0.950 . S
H1051 C1080 0.950 . S
H1052 C1082 0.950 . S
H1053 C1083 0.950 . S
C1054 H1036 0.951 . S
C1054 C1055 1.366 . S
C1054 C1056 1.388 . S
C1055 C1054 1.366 . S
C1055 C1059 1.385 . S
C1056 H1037 0.951 . S
C1056 C1054 1.388 . S
C1056 C1057 1.366 . S
C1057 C1056 1.366 . S
C1057 C1058 1.414 . S
C1057 C1060 1.499 . S
C1058 H1038 0.950 . S
C1058 C1057 1.414 . S
C1058 C1059 1.374 . S
C1059 H1039 0.950 . S
C1059 C1055 1.385 . S
C1059 C1058 1.374 . S
C1060 C1057 1.499 . S
C1060 C1061 1.373 . S
C1060 C1062 1.389 . S
C1061 H1040 0.950 . S
C1061 C1060 1.373 . S
C1061 C1077 1.377 . S
C1062 C1060 1.389 . S
C1062 C1063 1.524 . S
C1062 C1076 1.377 . S
C1063 C1062 1.524 . S
C1063 C1064 1.397 . S
C1063 C1068 1.363 . S
C1064 H1041 0.950 . S
C1064 C1063 1.397 . S
C1064 C1065 1.334 . S
C1065 H1042 0.950 . S
C1065 C1064 1.334 . S
C1065 C1066 1.287 . S
C1066 C1065 1.287 . S
C1066 C1067 1.524 . S
C1066 H1085 0.913 . S
C1067 H1043 0.950 . S
C1067 C1066 1.524 . S
C1067 C1068 1.415 . S
C1068 H1044 0.950 . S
C1068 C1063 1.363 . S
C1068 C1067 1.415 . S
C1069 H1045 0.951 . S
C1069 C1070 1.366 . S
C1069 C1071 1.388 . S
C1070 C1069 1.366 . S
C1070 C1074 1.385 . S
C1071 H1046 0.951 . S
C1071 C1069 1.388 . S
C1071 C1072 1.366 . S
C1072 C1071 1.366 . S
C1072 C1073 1.414 . S
C1072 C1075 1.499 . S
C1073 H1047 0.950 . S
C1073 C1072 1.414 . S
C1073 C1074 1.374 . S
C1074 H1048 0.950 . S
C1074 C1070 1.385 . S
C1074 C1073 1.374 . S
C1075 C1072 1.499 . S
C1075 C1076 1.373 . S
C1075 C1077 1.389 . S
C1076 H1049 0.950 . S
C1076 C1062 1.377 . S
C1076 C1075 1.373 . S
C1077 C1061 1.377 . S
C1077 C1075 1.389 . S
C1077 C1078 1.524 . S
C1078 C1077 1.524 . S
C1078 C1079 1.397 . S
C1078 C1083 1.363 . S
C1079 H1050 0.950 . S
C1079 C1078 1.397 . S
C1079 C1080 1.334 . S
C1080 H1051 0.950 . S
C1080 C1079 1.334 . S
C1080 C1081 1.287 . S
C1081 C1080 1.287 . S
C1081 C1082 1.524 . S
C1081 H1084 0.999 . S
C1082 H1052 0.950 . S
C1082 C1081 1.524 . S
C1082 C1083 1.415 . S
C1083 H1053 0.950 . S
C1083 C1078 1.363 . S
C1083 C1082 1.415 . S
H1084 C1081 0.999 . S
H1085 C1066 0.913 . S
H1086 C1104 0.951 . S
H1087 C1106 0.951 . S
H1088 C1108 0.950 . S
H1089 C1109 0.950 . S
H1090 C1111 0.950 . S
H1091 C1114 0.950 . S
H1092 C1115 0.950 . S
H1093 C1117 0.950 . S
H1094 C1118 0.950 . S
H1095 C1119 0.951 . S
H1096 C1121 0.951 . S
H1097 C1123 0.950 . S
H1098 C1124 0.950 . S
H1099 C1126 0.950 . S
H1100 C1129 0.950 . S
H1101 C1130 0.950 . S
H1102 C1132 0.950 . S
H1103 C1133 0.950 . S
C1104 H1086 0.951 . S
C1104 C1105 1.366 1_565 S
C1104 C1106 1.388 . S
C1105 C1104 1.366 1_545 S
C1105 C1109 1.385 . S
C1106 H1087 0.951 . S
C1106 C1104 1.388 . S
C1106 C1107 1.366 1_565 S
C1107 C1106 1.366 1_545 S
C1107 C1108 1.414 . S
C1107 C1110 1.499 . S
C1108 H1088 0.950 . S
C1108 C1107 1.414 . S
C1108 C1109 1.374 . S
C1109 H1089 0.950 . S
C1109 C1105 1.385 . S
C1109 C1108 1.374 . S
C1110 C1107 1.499 . S
C1110 C1111 1.373 . S
C1110 C1112 1.389 1_545 S
C1111 H1090 0.950 . S
C1111 C1110 1.373 . S
C1111 C1127 1.377 . S
C1112 C1110 1.389 1_565 S
C1112 C1113 1.524 . S
C1112 C1126 1.377 . S
C1113 C1112 1.524 . S
C1113 C1114 1.397 . S
C1113 C1118 1.363 . S
C1114 H1091 0.950 . S
C1114 C1113 1.397 . S
C1114 C1115 1.334 . S
C1115 H1092 0.950 . S
C1115 C1114 1.334 . S
C1115 C1116 1.287 . S
C1116 C1115 1.287 . S
C1116 C1117 1.524 . S
C1116 H1135 0.913 . S
C1117 H1093 0.950 . S
C1117 C1116 1.524 . S
C1117 C1118 1.415 . S
C1118 H1094 0.950 . S
C1118 C1113 1.363 . S
C1118 C1117 1.415 . S
C1119 H1095 0.951 . S
C1119 C1120 1.366 1_545 S
C1119 C1121 1.388 . S
C1120 C1119 1.366 1_565 S
C1120 C1124 1.385 . S
C1121 H1096 0.951 . S
C1121 C1119 1.388 . S
C1121 C1122 1.381 . S
C1122 C1121 1.381 . S
C1122 C1123 1.398 1_545 S
C1122 C1125 1.498 . S
C1123 H1097 0.950 . S
C1123 C1122 1.398 1_565 S
C1123 C1124 1.374 . S
C1124 H1098 0.950 . S
C1124 C1120 1.385 . S
C1124 C1123 1.374 . S
C1125 C1122 1.498 . S
C1125 C1126 1.365 1_545 S
C1125 C1127 1.402 . S
C1126 H1099 0.950 . S
C1126 C1112 1.377 . S
C1126 C1125 1.365 1_565 S
C1127 C1111 1.377 . S
C1127 C1125 1.402 . S
C1127 C1128 1.524 . S
C1128 C1127 1.524 . S
C1128 C1129 1.397 . S
C1128 C1133 1.363 . S
C1129 H1100 0.950 . S
C1129 C1128 1.397 . S
C1129 C1130 1.334 . S
C1130 H1101 0.950 . S
C1130 C1129 1.334 . S
C1130 C1131 1.287 . S
C1131 C1130 1.287 . S
C1131 C1132 1.524 . S
C1131 H1134 0.999 . S
C1132 H1102 0.950 . S
C1132 C1131 1.524 . S
C1132 C1133 1.415 . S
C1133 H1103 0.950 . S
C1133 C1128 1.363 . S
C1133 C1132 1.415 . S
H1134 C1131 0.999 . S
H1135 C1116 0.913 . S
H1136 C1154 0.951 . S
H1137 C1156 0.951 . S
H1138 C1158 0.950 . S
H1139 C1159 0.950 . S
H1140 C1161 0.950 . S
H1141 C1164 0.950 . S
H1142 C1165 0.950 . S
H1143 C1167 0.950 . S
H1144 C1168 0.950 . S
H1145 C1169 0.951 . S
H1146 C1171 0.951 . S
H1147 C1173 0.950 . S
H1148 C1174 0.950 . S
H1149 C1176 0.950 . S
H1150 C1179 0.950 . S
H1151 C1180 0.950 . S
H1152 C1182 0.950 . S
H1153 C1183 0.950 . S
C1154 H1136 0.951 . S
C1154 C1155 1.366 . S
C1154 C1156 1.388 . S
C1155 C1154 1.366 . S
C1155 C1159 1.385 . S
C1156 H1137 0.951 . S
C1156 C1154 1.388 . S
C1156 C1157 1.366 . S
C1157 C1156 1.366 . S
C1157 C1158 1.414 . S
C1157 C1160 1.499 . S
C1158 H1138 0.950 . S
C1158 C1157 1.414 . S
C1158 C1159 1.374 . S
C1159 H1139 0.950 . S
C1159 C1155 1.385 . S
C1159 C1158 1.374 . S
C1160 C1157 1.499 . S
C1160 C1161 1.373 . S
C1160 C1162 1.389 . S
C1161 H1140 0.950 . S
C1161 C1160 1.373 . S
C1161 C1177 1.377 . S
C1162 C1160 1.389 . S
C1162 C1163 1.524 . S
C1162 C1176 1.377 . S
C1163 C1162 1.524 . S
C1163 C1164 1.397 . S
C1163 C1168 1.363 . S
C1164 H1141 0.950 . S
C1164 C1163 1.397 . S
C1164 C1165 1.334 . S
C1165 H1142 0.950 . S
C1165 C1164 1.334 . S
C1165 C1166 1.287 . S
C1166 C1165 1.287 . S
C1166 C1167 1.524 . S
C1166 H1185 0.913 . S
C1167 H1143 0.950 . S
C1167 C1166 1.524 . S
C1167 C1168 1.415 . S
C1168 H1144 0.950 . S
C1168 C1163 1.363 . S
C1168 C1167 1.415 . S
C1169 H1145 0.951 . S
C1169 C1170 1.366 . S
C1169 C1171 1.388 1_554 S
C1170 C1169 1.366 . S
C1170 C1174 1.385 . S
C1171 H1146 0.951 . S
C1171 C1169 1.388 1_556 S
C1171 C1172 1.366 . S
C1172 C1171 1.366 . S
C1172 C1173 1.414 . S
C1172 C1175 1.499 . S
C1173 H1147 0.950 . S
C1173 C1172 1.414 . S
C1173 C1174 1.374 1_556 S
C1174 H1148 0.950 . S
C1174 C1170 1.385 . S
C1174 C1173 1.374 1_554 S
C1175 C1172 1.499 . S
C1175 C1176 1.373 . S
C1175 C1177 1.389 . S
C1176 H1149 0.950 . S
C1176 C1162 1.377 . S
C1176 C1175 1.373 . S
C1177 C1161 1.377 . S
C1177 C1175 1.389 . S
C1177 C1178 1.524 . S
C1178 C1177 1.524 . S
C1178 C1179 1.397 . S
C1178 C1183 1.363 . S
C1179 H1150 0.950 . S
C1179 C1178 1.397 . S
C1179 C1180 1.334 . S
C1180 H1151 0.950 . S
C1180 C1179 1.334 . S
C1180 C1181 1.287 . S
C1181 C1180 1.287 . S
C1181 C1182 1.524 . S
C1181 H1184 0.999 . S
C1182 H1152 0.950 . S
C1182 C1181 1.524 . S
C1182 C1183 1.415 . S
C1183 H1153 0.950 . S
C1183 C1178 1.363 . S
C1183 C1182 1.415 . S
H1184 C1181 0.999 . S
H1185 C1166 0.913 . S
H1186 C1204 0.951 . S
H1187 C1206 0.951 . S
H1188 C1208 0.950 . S
H1189 C1209 0.950 . S
H1190 C1211 0.950 . S
H1191 C1214 0.950 . S
H1192 C1215 0.950 . S
H1193 C1217 0.950 . S
H1194 C1218 0.950 . S
H1195 C1219 0.951 . S
H1196 C1221 0.951 . S
H1197 C1223 0.950 . S
H1198 C1224 0.947 . S
H1199 C1226 0.950 . S
H1200 C1229 0.950 . S
H1201 C1230 0.950 . S
H1202 C1232 0.950 . S
H1203 C1233 0.950 . S
C1204 H1186 0.951 . S
C1204 C1205 1.366 . S
C1204 C1206 1.388 . S
C1205 C1204 1.366 . S
C1205 C1209 1.385 . S
C1206 H1187 0.951 . S
C1206 C1204 1.388 . S
C1206 C1207 1.366 . S
C1207 C1206 1.366 . S
C1207 C1208 1.414 . S
C1207 C1210 1.499 . S
C1208 H1188 0.950 . S
C1208 C1207 1.414 . S
C1208 C1209 1.374 . S
C1209 H1189 0.950 . S
C1209 C1205 1.385 . S
C1209 C1208 1.374 . S
C1210 C1207 1.499 . S
C1210 C1211 1.373 . S
C1210 C1212 1.389 1_455 S
C1211 H1190 0.950 . S
C1211 C1210 1.373 . S
C1211 C1227 1.377 . S
C1212 C1210 1.389 1_655 S
C1212 C1213 1.524 . S
C1212 C1226 1.377 . S
C1213 C1212 1.524 . S
C1213 C1214 1.397 . S
C1213 C1218 1.363 . S
C1214 H1191 0.950 . S
C1214 C1213 1.397 . S
C1214 C1215 1.334 . S
C1215 H1192 0.950 . S
C1215 C1214 1.334 . S
C1215 C1216 1.287 . S
C1216 C1215 1.287 . S
C1216 C1217 1.524 . S
C1216 H1235 0.913 . S
C1217 H1193 0.950 . S
C1217 C1216 1.524 . S
C1217 C1218 1.415 . S
C1218 H1194 0.950 . S
C1218 C1213 1.363 . S
C1218 C1217 1.415 . S
C1219 H1195 0.951 . S
C1219 C1220 1.375 1_455 S
C1219 C1221 1.388 . S
C1220 C1219 1.375 1_655 S
C1220 C1224 1.377 . S
C1221 H1196 0.951 . S
C1221 C1219 1.388 . S
C1221 C1222 1.366 . S
C1222 C1221 1.366 . S
C1222 C1223 1.414 . S
C1222 C1225 1.499 . S
C1223 H1197 0.950 . S
C1223 C1222 1.414 . S
C1223 C1224 1.373 1_455 S
C1224 H1198 0.947 . S
C1224 C1220 1.377 . S
C1224 C1223 1.373 1_655 S
C1225 C1222 1.499 . S
C1225 C1226 1.373 1_455 S
C1225 C1227 1.389 . S
C1226 H1199 0.950 . S
C1226 C1212 1.377 . S
C1226 C1225 1.373 1_655 S
C1227 C1211 1.377 . S
C1227 C1225 1.389 . S
C1227 C1228 1.524 . S
C1228 C1227 1.524 . S
C1228 C1229 1.397 . S
C1228 C1233 1.363 . S
C1229 H1200 0.950 . S
C1229 C1228 1.397 . S
C1229 C1230 1.334 . S
C1230 H1201 0.950 . S
C1230 C1229 1.334 . S
C1230 C1231 1.287 . S
C1231 C1230 1.287 . S
C1231 C1232 1.524 . S
C1231 H1234 0.999 . S
C1232 H1202 0.950 . S
C1232 C1231 1.524 . S
C1232 C1233 1.415 . S
C1233 H1203 0.950 . S
C1233 C1228 1.363 . S
C1233 C1232 1.415 . S
H1234 C1231 0.999 . S
H1235 C1216 0.913 . S
C355 C7 0.461 . S
C370 C325 0.449 . S
C405 C51 1.860 . S
C420 C253 1.806 . S
C455 C87 1.151 . S
C470 C289 1.140 . S
C505 C16 0.334 . S
C520 C301 0.228 . S
C570 C229 1.947 . S
C555 C42 1.967 . S
C620 C265 1.275 . S
C605 C96 1.274 . S
C655 C47 1.151 . S
C670 C181 1.145 . S
C705 C91 3.062 . S
C720 C193 3.027 . S
C755 C2 1.997 . S
C770 C121 1.981 . S
C820 C157 1.256 . S
C805 C56 1.249 . S
C870 C217 2.880 . S
C855 C82 2.926 . S
C905 C11 1.850 . S
C920 C145 1.801 . S
C970 C223 1.756 . S
C955 C19 1.702 . S
C1005 C50 1.344 . S
C1020 C151 1.377 . S
C1055 C99 1.463 . S
C1070 C187 1.506 . S
C1120 C295 1.483 1_565 S
C1105 C59 1.452 . S
C1170 C331 1.120 . S
C1155 C90 1.103 . S
C1205 C10 1.340 . S
C1220 C259 1.368 1_655 S
