# Generated by pormake.
# Topology eea, (3,6)-cn, num edge types: 1
# Building blocks:
#     Node 0, Type 0, BuildingBlock: BETDIP_clean_linker_0, # of connection points: 3
#     Node 1, Type 0, BuildingBlock: BETDIP_clean_linker_0, # of connection points: 3
#     Node 2, Type 0, BuildingBlock: BETDIP_clean_linker_0, # of connection points: 3
#     Node 3, Type 0, BuildingBlock: BETDIP_clean_linker_0, # of connection points: 3
#     Node 4, Type 0, BuildingBlock: BETDIP_clean_linker_0, # of connection points: 3
#     Node 5, Type 0, BuildingBlock: BETDIP_clean_linker_0, # of connection points: 3
#     Node 6, Type 0, BuildingBlock: BETDIP_clean_linker_0, # of connection points: 3
#     Node 7, Type 0, BuildingBlock: BETDIP_clean_linker_0, # of connection points: 3
#     Node 8, Type 0, BuildingBlock: BETDIP_clean_linker_0, # of connection points: 3
#     Node 9, Type 0, BuildingBlock: BETDIP_clean_linker_0, # of connection points: 3
#     Node 10, Type 0, BuildingBlock: BETDIP_clean_linker_0, # of connection points: 3
#     Node 11, Type 0, BuildingBlock: BETDIP_clean_linker_0, # of connection points: 3
#     Node 12, Type 0, BuildingBlock: BETDIP_clean_linker_0, # of connection points: 3
#     Node 13, Type 0, BuildingBlock: BETDIP_clean_linker_0, # of connection points: 3
#     Node 14, Type 0, BuildingBlock: BETDIP_clean_linker_0, # of connection points: 3
#     Node 15, Type 0, BuildingBlock: BETDIP_clean_linker_0, # of connection points: 3
#     Node 16, Type 0, BuildingBlock: BETDIP_clean_linker_0, # of connection points: 3
#     Node 17, Type 0, BuildingBlock: BETDIP_clean_linker_0, # of connection points: 3
#     Node 18, Type 1, BuildingBlock: LEVNOQ01_clean_sbu_1, # of connection points: 6
#     Node 19, Type 1, BuildingBlock: LEVNOQ01_clean_sbu_1, # of connection points: 6
#     Node 20, Type 1, BuildingBlock: LEVNOQ01_clean_sbu_1, # of connection points: 6
#     Node 21, Type 1, BuildingBlock: LEVNOQ01_clean_sbu_1, # of connection points: 6
#     Node 22, Type 1, BuildingBlock: LEVNOQ01_clean_sbu_1, # of connection points: 6
#     Node 23, Type 1, BuildingBlock: LEVNOQ01_clean_sbu_1, # of connection points: 6
#     Node 24, Type 1, BuildingBlock: LEVNOQ01_clean_sbu_1, # of connection points: 6
#     Node 25, Type 1, BuildingBlock: LEVNOQ01_clean_sbu_1, # of connection points: 6
#     Node 26, Type 1, BuildingBlock: LEVNOQ01_clean_sbu_1, # of connection points: 6
#     Edge 27, Type (0, 1), BuildingBlock: AJUNOK_clean_linker_0, # of connection points: 2
#     Edge 28, Type (0, 1), BuildingBlock: AJUNOK_clean_linker_0, # of connection points: 2
#     Edge 29, Type (0, 1), BuildingBlock: AJUNOK_clean_linker_0, # of connection points: 2
#     Edge 30, Type (0, 1), BuildingBlock: AJUNOK_clean_linker_0, # of connection points: 2
#     Edge 31, Type (0, 1), BuildingBlock: AJUNOK_clean_linker_0, # of connection points: 2
#     Edge 32, Type (0, 1), BuildingBlock: AJUNOK_clean_linker_0, # of connection points: 2
#     Edge 33, Type (0, 1), BuildingBlock: AJUNOK_clean_linker_0, # of connection points: 2
#     Edge 34, Type (0, 1), BuildingBlock: AJUNOK_clean_linker_0, # of connection points: 2
#     Edge 35, Type (0, 1), BuildingBlock: AJUNOK_clean_linker_0, # of connection points: 2
#     Edge 36, Type (0, 1), BuildingBlock: AJUNOK_clean_linker_0, # of connection points: 2
#     Edge 37, Type (0, 1), BuildingBlock: AJUNOK_clean_linker_0, # of connection points: 2
#     Edge 38, Type (0, 1), BuildingBlock: AJUNOK_clean_linker_0, # of connection points: 2
#     Edge 39, Type (0, 1), BuildingBlock: AJUNOK_clean_linker_0, # of connection points: 2
#     Edge 40, Type (0, 1), BuildingBlock: AJUNOK_clean_linker_0, # of connection points: 2
#     Edge 41, Type (0, 1), BuildingBlock: AJUNOK_clean_linker_0, # of connection points: 2
#     Edge 42, Type (0, 1), BuildingBlock: AJUNOK_clean_linker_0, # of connection points: 2
#     Edge 43, Type (0, 1), BuildingBlock: AJUNOK_clean_linker_0, # of connection points: 2
#     Edge 44, Type (0, 1), BuildingBlock: AJUNOK_clean_linker_0, # of connection points: 2
#     Edge 45, Type (0, 1), BuildingBlock: AJUNOK_clean_linker_0, # of connection points: 2
#     Edge 46, Type (0, 1), BuildingBlock: AJUNOK_clean_linker_0, # of connection points: 2
#     Edge 47, Type (0, 1), BuildingBlock: AJUNOK_clean_linker_0, # of connection points: 2
#     Edge 48, Type (0, 1), BuildingBlock: AJUNOK_clean_linker_0, # of connection points: 2
#     Edge 49, Type (0, 1), BuildingBlock: AJUNOK_clean_linker_0, # of connection points: 2
#     Edge 50, Type (0, 1), BuildingBlock: AJUNOK_clean_linker_0, # of connection points: 2
#     Edge 51, Type (0, 1), BuildingBlock: AJUNOK_clean_linker_0, # of connection points: 2
#     Edge 52, Type (0, 1), BuildingBlock: AJUNOK_clean_linker_0, # of connection points: 2
#     Edge 53, Type (0, 1), BuildingBlock: AJUNOK_clean_linker_0, # of connection points: 2
#     Edge 54, Type (0, 1), BuildingBlock: AJUNOK_clean_linker_0, # of connection points: 2
#     Edge 55, Type (0, 1), BuildingBlock: AJUNOK_clean_linker_0, # of connection points: 2
#     Edge 56, Type (0, 1), BuildingBlock: AJUNOK_clean_linker_0, # of connection points: 2
#     Edge 57, Type (0, 1), BuildingBlock: AJUNOK_clean_linker_0, # of connection points: 2
#     Edge 58, Type (0, 1), BuildingBlock: AJUNOK_clean_linker_0, # of connection points: 2
#     Edge 59, Type (0, 1), BuildingBlock: AJUNOK_clean_linker_0, # of connection points: 2
#     Edge 60, Type (0, 1), BuildingBlock: AJUNOK_clean_linker_0, # of connection points: 2
#     Edge 61, Type (0, 1), BuildingBlock: AJUNOK_clean_linker_0, # of connection points: 2
#     Edge 62, Type (0, 1), BuildingBlock: AJUNOK_clean_linker_0, # of connection points: 2
#     Edge 63, Type (0, 1), BuildingBlock: AJUNOK_clean_linker_0, # of connection points: 2
#     Edge 64, Type (0, 1), BuildingBlock: AJUNOK_clean_linker_0, # of connection points: 2
#     Edge 65, Type (0, 1), BuildingBlock: AJUNOK_clean_linker_0, # of connection points: 2
#     Edge 66, Type (0, 1), BuildingBlock: AJUNOK_clean_linker_0, # of connection points: 2
#     Edge 67, Type (0, 1), BuildingBlock: AJUNOK_clean_linker_0, # of connection points: 2
#     Edge 68, Type (0, 1), BuildingBlock: AJUNOK_clean_linker_0, # of connection points: 2
#     Edge 69, Type (0, 1), BuildingBlock: AJUNOK_clean_linker_0, # of connection points: 2
#     Edge 70, Type (0, 1), BuildingBlock: AJUNOK_clean_linker_0, # of connection points: 2
#     Edge 71, Type (0, 1), BuildingBlock: AJUNOK_clean_linker_0, # of connection points: 2
#     Edge 72, Type (0, 1), BuildingBlock: AJUNOK_clean_linker_0, # of connection points: 2
#     Edge 73, Type (0, 1), BuildingBlock: AJUNOK_clean_linker_0, # of connection points: 2
#     Edge 74, Type (0, 1), BuildingBlock: AJUNOK_clean_linker_0, # of connection points: 2
#     Edge 75, Type (0, 1), BuildingBlock: AJUNOK_clean_linker_0, # of connection points: 2
#     Edge 76, Type (0, 1), BuildingBlock: AJUNOK_clean_linker_0, # of connection points: 2
#     Edge 77, Type (0, 1), BuildingBlock: AJUNOK_clean_linker_0, # of connection points: 2
#     Edge 78, Type (0, 1), BuildingBlock: AJUNOK_clean_linker_0, # of connection points: 2
#     Edge 79, Type (0, 1), BuildingBlock: AJUNOK_clean_linker_0, # of connection points: 2
#     Edge 80, Type (0, 1), BuildingBlock: AJUNOK_clean_linker_0, # of connection points: 2
# Relax obj value: 0.088
# Max RMSD: 0.115
# Mean RMSD: 0.099
data_MOF--net-eea--node1-LEVNOQ01_clean_sbu_1--node2-BETDIP_clean_linker_0--edge1-AJUNOK_clean_linker_0
_symmetry_space_group_name_H-M    P1
_symmetry_Int_Tables_number       1
_symmetry_cell_setting            triclinic
loop_
_symmetry_equiv_pos_as_xyz
'x, y, z'
_cell_length_a     43.139168
_cell_length_b     42.719507
_cell_length_c     32.353525
_cell_angle_alpha  90.271294
_cell_angle_beta   90.259978
_cell_angle_gamma 119.87796
loop_
_atom_site_label
_atom_site_type_symbol
_atom_site_fract_x
_atom_site_fract_y
_atom_site_fract_z
_atom_type_partial_charge
H0 H 0.19317 0.08268 0.32268 0.0
H1 H 0.24739 0.14681 0.43021 0.0
H2 H 0.23483 0.04163 0.41611 0.0
H3 H 0.21091 0.16731 0.42437 0.0
C4 C 0.20408 0.16626 0.39191 0.0
C5 C 0.20769 0.08644 0.3514 0.0
C6 C 0.21406 0.0593 0.36586 0.0
C7 C 0.21818 0.11746 0.37541 0.0
C8 C 0.23754 0.12231 0.41207 0.0
C9 C 0.24232 0.09451 0.42755 0.0
C10 C 0.23126 0.0633 0.40407 0.0
N11 N 0.20653 0.14188 0.36386 0.0
H12 H 0.91754 0.11045 0.31025 0.0
H13 H 0.84103 0.06425 0.4077 0.0
H14 H 0.91736 0.17788 0.40955 0.0
H15 H 0.86477 0.02152 0.39682 0.0
C16 C 0.85789 0.01837 0.36411 0.0
C17 C 0.90673 0.11395 0.33894 0.0
C18 C 0.92157 0.14796 0.35787 0.0
C19 C 0.87907 0.08374 0.3578 0.0
C20 C 0.86348 0.08763 0.3941 0.0
C21 C 0.87656 0.12174 0.41244 0.0
C22 C 0.90589 0.15176 0.39432 0.0
N23 N 0.86769 0.04945 0.33997 0.0
H24 H 0.86841 0.77917 0.30601 0.0
H25 H 0.9022 0.7419 0.41098 0.0
H26 H 0.79659 0.72832 0.40715 0.0
H27 H 0.95252 0.8091 0.38954 0.0
C28 C 0.95448 0.79809 0.35991 0.0
C29 C 0.86239 0.76512 0.33526 0.0
C30 C 0.8294 0.75367 0.35406 0.0
C31 C 0.88863 0.76086 0.3557 0.0
C32 C 0.88154 0.74449 0.39483 0.0
C33 C 0.84819 0.7326 0.41357 0.0
C34 C 0.82211 0.73666 0.39253 0.0
N35 N 0.92274 0.77506 0.33756 0.0
H36 H 0.09616 0.21137 0.71847 0.0
H37 H 0.16788 0.26421 0.61761 0.0
H38 H 0.05822 0.23946 0.60992 0.0
H39 H 0.12952 0.17636 0.70537 0.0
C40 C 0.1564 0.19953 0.70559 0.0
C41 C 0.10106 0.22305 0.68789 0.0
C42 C 0.07382 0.22507 0.66652 0.0
C43 C 0.1348 0.23648 0.66954 0.0
C44 C 0.14139 0.25291 0.63063 0.0
C45 C 0.11374 0.25354 0.60818 0.0
C46 C 0.08006 0.23944 0.62664 0.0
N47 N 0.16228 0.23268 0.68879 0.0
H48 H 0.80234 0.89035 0.70476 0.0
H49 H 0.75263 0.92223 0.61151 0.0
H50 H 0.73683 0.81477 0.60997 0.0
H51 H 0.84735 0.96132 0.63949 0.0
C52 C 0.82988 0.97019 0.65266 0.0
C53 C 0.78439 0.88337 0.67845 0.0
C54 C 0.76933 0.849 0.6603 0.0
C55 C 0.77844 0.90964 0.66051 0.0
C56 C 0.75617 0.90132 0.62586 0.0
C57 C 0.7411 0.86714 0.60768 0.0
C58 C 0.74767 0.84099 0.6249 0.0
N59 N 0.79831 0.94576 0.67374 0.0
H60 H 0.11366 0.90885 0.70141 0.0
H61 H 0.0974 0.83193 0.6062 0.0
H62 H 0.19179 0.93676 0.60527 0.0
H63 H 0.04116 0.8461 0.61642 0.0
C64 C 0.03773 0.8353 0.64749 0.0
C65 C 0.12325 0.90168 0.67405 0.0
C66 C 0.15493 0.92715 0.65521 0.0
C67 C 0.10263 0.86762 0.6563 0.0
C68 C 0.11417 0.8582 0.62036 0.0
C69 C 0.14644 0.88315 0.60181 0.0
C70 C 0.16669 0.91759 0.61936 0.0
N71 N 0.06831 0.84462 0.67216 0.0
H72 H 0.8673 0.41949 0.66222 0.0
H73 H 0.90465 0.47457 0.77891 0.0
H74 H 0.89824 0.37207 0.75949 0.0
H75 H 0.82092 0.44769 0.69559 0.0
C76 C 0.8445 0.47417 0.69942 0.0
C77 C 0.87604 0.41988 0.69376 0.0
C78 C 0.88296 0.39293 0.70773 0.0
C79 C 0.88274 0.44865 0.7204 0.0
C80 C 0.89748 0.45103 0.7597 0.0
C81 C 0.90355 0.42359 0.77378 0.0
C82 C 0.89446 0.39387 0.74839 0.0
N83 N 0.87836 0.47749 0.70699 0.0
H84 H 0.58742 0.44905 0.64797 0.0
H85 H 0.49737 0.41021 0.72848 0.0
H86 H 0.5852 0.51897 0.74243 0.0
H87 H 0.52483 0.36417 0.72508 0.0
C88 C 0.51695 0.36097 0.69267 0.0
C89 C 0.5736 0.45428 0.6726 0.0
C90 C 0.58968 0.48771 0.69275 0.0
C91 C 0.54105 0.42637 0.68624 0.0
C92 C 0.52315 0.43203 0.71896 0.0
C93 C 0.53877 0.46546 0.73954 0.0
C94 C 0.57217 0.49329 0.7261 0.0
N95 N 0.52755 0.39195 0.66818 0.0
H96 H 0.54686 0.10939 0.64474 0.0
H97 H 0.56204 0.05984 0.75276 0.0
H98 H 0.47133 0.07556 0.74425 0.0
H99 H 0.61213 0.13942 0.65149 0.0
C100 C 0.61667 0.11736 0.65952 0.0
C101 C 0.53835 0.09754 0.67501 0.0
C102 C 0.50691 0.094 0.69226 0.0
C103 C 0.55817 0.0849 0.69709 0.0
C104 C 0.54627 0.06891 0.7358 0.0
C105 C 0.51521 0.06588 0.75334 0.0
C106 C 0.49576 0.07841 0.73127 0.0
N107 N 0.59009 0.08748 0.68163 0.0
H108 H 0.75877 0.54214 0.04417 0.0
H109 H 0.83208 0.6057 0.9478 0.0
H110 H 0.72184 0.57502 0.93834 0.0
H111 H 0.86531 0.58643 0.97041 0.0
C112 C 0.85613 0.57154 0.99891 0.0
C113 C 0.76442 0.55721 0.01567 0.0
C114 C 0.7366 0.55769 0.99378 0.0
C115 C 0.799 0.57361 0.99914 0.0
C116 C 0.80585 0.59243 0.96141 0.0
C117 C 0.77796 0.59225 0.93904 0.0
C118 C 0.74361 0.57549 0.95579 0.0
N119 N 0.82464 0.56665 0.01841 0.0
H120 H 0.47759 0.2198 0.03576 0.0
H121 H 0.44896 0.26784 0.93685 0.0
H122 H 0.39371 0.15279 0.95045 0.0
H123 H 0.51245 0.3064 0.9419 0.0
C124 C 0.51264 0.31169 0.97483 0.0
C125 C 0.45987 0.21717 0.01044 0.0
C126 C 0.43395 0.18279 0.9965 0.0
C127 C 0.4655 0.24802 0.98925 0.0
C128 C 0.44398 0.2444 0.95466 0.0
C129 C 0.41763 0.21008 0.9411 0.0
C130 C 0.41203 0.17944 0.96288 0.0
N131 N 0.49411 0.28212 0.00201 0.0
H132 H 0.77235 0.23165 0.03972 0.0
H133 H 0.76544 0.17352 0.92779 0.0
H134 H 0.85328 0.28087 0.94647 0.0
H135 H 0.71327 0.19209 0.04328 0.0
C136 C 0.70653 0.16866 0.02405 0.0
C137 C 0.78274 0.23026 0.00982 0.0
C138 C 0.81462 0.25994 0.99592 0.0
C139 C 0.76487 0.19904 0.98498 0.0
C140 C 0.77933 0.19762 0.94688 0.0
C141 C 0.81085 0.22723 0.93264 0.0
C142 C 0.82857 0.25817 0.95732 0.0
N143 N 0.73191 0.16869 0.99624 0.0
H144 H 0.52887 0.74319 0.98363 0.0
H145 H 0.57093 0.80715 0.09446 0.0
H146 H 0.55773 0.70129 0.08881 0.0
H147 H 0.53073 0.82318 0.07943 0.0
C148 C 0.53283 0.82679 0.04616 0.0
C149 C 0.53876 0.7463 0.0151 0.0
C150 C 0.54262 0.71882 0.03367 0.0
C151 C 0.54708 0.77754 0.03781 0.0
C152 C 0.56181 0.78207 0.07763 0.0
C153 C 0.56495 0.75432 0.09622 0.0
C154 C 0.55498 0.72268 0.0744 0.0
N155 N 0.53956 0.80357 0.02088 0.0
H156 H 0.24496 0.78276 0.97794 0.0
H157 H 0.16175 0.759 0.06575 0.0
H158 H 0.2638 0.8556 0.07909 0.0
H159 H 0.18486 0.70483 0.05692 0.0
C160 C 0.16935 0.70213 0.02918 0.0
C161 C 0.23505 0.79082 0.00427 0.0
C162 C 0.2576 0.8228 0.02583 0.0
C163 C 0.20073 0.76756 0.01944 0.0
C164 C 0.18844 0.77719 0.05465 0.0
C165 C 0.21114 0.80873 0.07682 0.0
C166 C 0.24537 0.83174 0.06152 0.0
N167 N 0.18033 0.73235 0.00294 0.0
H168 H 0.20542 0.45782 0.98095 0.0
H169 H 0.23852 0.42897 0.09426 0.0
H170 H 0.13411 0.41563 0.08421 0.0
H171 H 0.28538 0.43979 0.06282 0.0
C172 C 0.28827 0.45212 0.03292 0.0
C173 C 0.20039 0.44828 0.01252 0.0
C174 C 0.16693 0.43721 0.03019 0.0
C175 C 0.22693 0.44567 0.035 0.0
C176 C 0.21937 0.43211 0.07585 0.0
C177 C 0.18603 0.42164 0.09365 0.0
C178 C 0.16028 0.42478 0.0709 0.0
N179 N 0.2602 0.45607 0.01526 0.0
H180 H 0.40981 0.8602 0.37367 0.0
H181 H 0.49747 0.91311 0.28914 0.0
H182 H 0.39807 0.90933 0.26322 0.0
H183 H 0.52097 0.92681 0.37543 0.0
C184 C 0.51166 0.89837 0.36994 0.0
C185 C 0.42021 0.87402 0.34468 0.0
C186 C 0.39957 0.8836 0.31992 0.0
C187 C 0.4554 0.88458 0.33376 0.0
C188 C 0.47001 0.90423 0.29728 0.0
C189 C 0.44909 0.91263 0.27145 0.0
C190 C 0.4139 0.90195 0.28274 0.0
N191 N 0.4755 0.87438 0.35931 0.0
H192 H 0.15027 0.5582 0.37522 0.0
H193 H 0.11443 0.58661 0.26456 0.0
H194 H 0.06872 0.47552 0.2988 0.0
H195 H 0.17367 0.6316 0.26552 0.0
C196 C 0.17613 0.63964 0.29782 0.0
C197 C 0.13201 0.55046 0.3491 0.0
C198 C 0.10819 0.51403 0.34098 0.0
C199 C 0.13486 0.57673 0.32151 0.0
C200 C 0.11217 0.56658 0.28657 0.0
C201 C 0.08816 0.53004 0.27838 0.0
C202 C 0.08572 0.50394 0.30624 0.0
N203 N 0.16197 0.61287 0.3288 0.0
H204 H 0.44976 0.56857 0.37398 0.0
H205 H 0.42357 0.49443 0.27218 0.0
H206 H 0.5219 0.59586 0.27138 0.0
H207 H 0.37404 0.53035 0.30862 0.0
C208 C 0.36934 0.50779 0.32821 0.0
C209 C 0.45692 0.56155 0.34471 0.0
C210 C 0.48881 0.5861 0.325 0.0
C211 C 0.43342 0.52849 0.32557 0.0
C212 C 0.44219 0.5197 0.28723 0.0
C213 C 0.47398 0.54416 0.26743 0.0
C214 C 0.49716 0.57713 0.28653 0.0
N215 N 0.39932 0.5056 0.34259 0.0
O216 O 0.45883 0.97217 0.92242 0.0
Mg217 Mg 0.50332 0.98689 0.96195 0.0
O218 O 0.48222 0.02571 0.94784 0.0
Mg219 Mg 0.47844 0.00055 0.01613 0.0
O220 O 0.49593 0.95468 0.00899 0.0
O221 O 0.51926 0.95169 0.94787 0.0
O222 O 0.47692 0.97699 0.08516 0.0
O223 O 0.42184 0.95515 -0.00051 0.0
Mg224 Mg 0.44433 0.00752 0.07074 0.0
O225 O 0.45959 0.04467 0.02536 0.0
O226 O 0.48048 0.02206 0.11988 0.0
O227 O 0.40393 0.95222 0.06312 0.0
O228 O 0.41981 0.03685 0.07472 0.0
C229 C 0.55902 0.05555 0.001 0.0
C230 C 0.46882 0.00481 0.91672 0.0
C231 C 0.50904 0.9398 0.98468 0.0
C232 C 0.48234 -0.00635 0.11971 0.0
C233 C 0.39906 0.93853 0.02732 0.0
C234 C 0.43886 0.05458 0.04355 0.0
O235 O 0.55096 0.0387 0.96667 0.0
O236 O 0.53589 0.04505 0.02956 0.0
O237 O 0.00989 0.47441 0.92501 0.0
Mg238 Mg 0.00162 0.50838 0.96609 0.0
O239 O 0.96276 0.44697 0.96293 0.0
Mg240 Mg 0.99024 0.47343 0.02695 0.0
O241 O 0.03633 0.53501 0.01257 0.0
O242 O 0.03485 0.55966 0.95156 0.0
O243 O 0.01143 0.49194 0.09366 0.0
O244 O 0.03731 0.46159 0.01025 0.0
Mg245 Mg 0.99046 0.4186 0.05653 0.0
O246 O 0.9427 0.41529 0.04639 0.0
O247 O 0.02557 0.44997 0.10448 0.0
O248 O 0.0094 0.40324 0.00555 0.0
O249 O 0.95036 0.37479 0.08246 0.0
C250 C 0.93547 0.49886 0.00681 0.0
C251 C 0.97802 0.44946 0.92871 0.0
C252 C 0.04854 0.56264 0.98783 0.0
C253 C 0.02631 0.47864 0.11594 0.0
C254 C 0.03706 0.43288 0.99867 0.0
C255 C 0.92942 0.38432 0.06511 0.0
O256 O 0.94988 0.50309 0.97169 0.0
O257 O 0.94855 0.49113 0.03784 0.0
O258 O 0.45807 0.46933 0.09774 0.0
Mg259 Mg 0.4415 0.43295 0.047 0.0
O260 O 0.50879 0.51607 0.07477 0.0
Mg261 Mg 0.51132 0.50453 0.00447 0.0
O262 O 0.48594 0.44507 0.01599 0.0
O263 O 0.4594 0.39544 0.05183 0.0
O264 O 0.50863 0.48923 0.93172 0.0
O265 O 0.566 0.5061 0.01864 0.0
Mg266 Mg 0.56175 0.55342 0.95568 0.0
O267 O 0.53558 0.56757 0.99645 0.0
O268 O 0.53661 0.54109 0.89989 0.0
O269 O 0.60002 0.53881 0.96784 0.0
O270 O 0.58518 0.60645 0.96192 0.0
C271 C 0.42282 0.47482 0.99037 0.0
C272 C 0.48595 0.49986 0.10335 0.0
C273 C 0.48678 0.41766 0.03081 0.0
C274 C 0.51635 0.50752 0.89819 0.0
C275 C 0.59522 0.51935 0.99886 0.0
C276 C 0.55813 0.60023 0.98433 0.0
O277 O 0.41373 0.44238 0.99891 0.0
O278 O 0.45511 0.50043 0.99554 0.0
O279 O 0.13463 0.30556 0.24073 0.0
Mg280 Mg 0.17664 0.31673 0.28158 0.0
O281 O 0.14357 0.35137 0.27844 0.0
Mg282 Mg 0.14269 0.32991 0.34673 0.0
O283 O 0.16173 0.28834 0.33431 0.0
O284 O 0.18911 0.27728 0.28163 0.0
O285 O 0.14384 0.31348 0.41514 0.0
O286 O 0.08412 0.27684 0.33391 0.0
Mg287 Mg 0.08977 0.32562 0.37376 0.0
O288 O 0.12872 0.37667 0.3657 0.0
O289 O 0.08715 0.29425 0.42552 0.0
O290 O 0.05516 0.30513 0.32282 0.0
O291 O 0.0776 0.36016 0.39986 0.0
C292 C 0.22528 0.38723 0.32657 0.0
C293 C 0.1371 0.33609 0.24301 0.0
C294 C 0.17508 0.26989 0.31791 0.0
C295 C 0.11652 0.29788 0.43811 0.0
C296 C 0.05557 0.27604 0.32151 0.0
C297 C 0.10709 0.38501 0.38464 0.0
O298 O 0.22019 0.37019 0.29263 0.0
O299 O 0.2013 0.37598 0.35443 0.0
O300 O 0.64123 0.83607 0.25009 0.0
Mg301 Mg 0.67241 0.87125 0.29661 0.0
O302 O 0.63923 0.78972 0.28216 0.0
Mg303 Mg 0.66317 0.81214 0.34644 0.0
O304 O 0.71211 0.86694 0.32447 0.0
O305 O 0.72046 0.9092 0.27754 0.0
O306 O 0.68894 0.83715 0.41359 0.0
O307 O 0.70219 0.79299 0.33068 0.0
Mg308 Mg 0.65621 0.77348 0.40382 0.0
O309 O 0.61541 0.75193 0.36238 0.0
O310 O 0.64516 0.79883 0.45164 0.0
O311 O 0.70867 0.78088 0.39446 0.0
O312 O 0.6249 0.72087 0.41208 0.0
C313 C 0.62277 0.86287 0.35635 0.0
C314 C 0.63178 0.80305 0.25137 0.0
C315 C 0.73321 0.89667 0.30494 0.0
C316 C 0.67319 0.82875 0.44853 0.0
C317 C 0.71905 0.78593 0.35742 0.0
C318 C 0.60534 0.72203 0.38266 0.0
O319 O 0.64741 0.88876 0.33699 0.0
O320 O 0.62188 0.83253 0.35878 0.0
O321 O 0.13399 0.80283 0.43732 0.0
Mg322 Mg 0.11709 0.77202 0.38262 0.0
O323 O 0.17863 0.85288 0.41065 0.0
Mg324 Mg 0.17773 0.84096 0.34004 0.0
O325 O 0.16056 0.78146 0.3502 0.0
O326 O 0.12293 0.7278 0.37779 0.0
O327 O 0.17584 0.82888 0.27048 0.0
O328 O 0.23575 0.84558 0.3467 0.0
Mg329 Mg 0.23202 0.89444 0.31597 0.0
O330 O 0.1907 0.90187 0.32822 0.0
O331 O 0.23228 0.86873 0.26003 0.0
O332 O 0.26417 0.90102 0.36772 0.0
O333 O 0.24165 0.94282 0.29772 0.0
C334 C 0.088 0.80703 0.33216 0.0
C335 C 0.15984 0.83482 0.44142 0.0
C336 C 0.1508 0.74784 0.35599 0.0
C337 C 0.20278 0.84322 0.24686 0.0
C338 C 0.26395 0.87179 0.36246 0.0
C339 C 0.21064 0.93377 0.31248 0.0
O340 O 0.08028 0.77575 0.34359 0.0
O341 O 0.12011 0.83317 0.33403 0.0
O342 O 0.86478 0.6858 0.59292 0.0
Mg343 Mg 0.86885 0.66635 0.65107 0.0
O344 O 0.81042 0.6744 0.60776 0.0
Mg345 Mg 0.81328 0.66673 0.67917 0.0
O346 O 0.82868 0.62025 0.6737 0.0
O347 O 0.87682 0.62508 0.64057 0.0
O348 O 0.8168 0.65999 0.74994 0.0
O349 O 0.75782 0.61182 0.67428 0.0
Mg350 Mg 0.75738 0.66281 0.70214 0.0
O351 O 0.79712 0.7129 0.68749 0.0
O352 O 0.75882 0.63558 0.75657 0.0
O353 O 0.72458 0.63295 0.65175 0.0
O354 O 0.74649 0.70084 0.72066 0.0
C355 C 0.89986 0.72576 0.69504 0.0
C356 C 0.83572 0.68377 0.58191 0.0
C357 C 0.84787 0.60632 0.66113 0.0
C358 C 0.78875 0.64248 0.77135 0.0
C359 C 0.72875 0.6062 0.65749 0.0
C360 C 0.77627 0.72358 0.70378 0.0
O361 O 0.90484 0.69925 0.69658 0.0
O362 O 0.86941 0.72033 0.68305 0.0
O363 O 0.29955 0.16456 0.59708 0.0
Mg364 Mg 0.33236 0.1992 0.64359 0.0
O365 O 0.31357 0.12367 0.61534 0.0
Mg366 Mg 0.33233 0.14515 0.68261 0.0
O367 O 0.37842 0.20232 0.66238 0.0
O368 O 0.37485 0.24092 0.61814 0.0
O369 O 0.35159 0.16781 0.74985 0.0
O370 O 0.38013 0.13361 0.67189 0.0
Mg371 Mg 0.33055 0.08975 0.73308 0.0
O372 O 0.28778 0.0866 0.70195 0.0
O373 O 0.34987 0.12285 0.7849 0.0
O374 O 0.36597 0.08082 0.69807 0.0
O375 O 0.28532 0.04487 0.74614 0.0
C376 C 0.28287 0.18638 0.69885 0.0
C377 C 0.29892 0.13521 0.59014 0.0
C378 C 0.39363 0.23216 0.64146 0.0
C379 C 0.35615 0.15495 0.7833 0.0
C380 C 0.38671 0.10786 0.67685 0.0
C381 C 0.26984 0.05525 0.71975 0.0
O382 O 0.30925 0.21578 0.68788 0.0
O383 O 0.28397 0.15719 0.69372 0.0
O384 O 0.82946 0.15389 0.78603 0.0
Mg385 Mg 0.80109 0.11506 0.74023 0.0
O386 O 0.84915 0.19933 0.74167 0.0
Mg387 Mg 0.84911 0.17873 0.67343 0.0
O388 O 0.83473 0.12309 0.6938 0.0
O389 O 0.81014 0.07249 0.72955 0.0
O390 O 0.8451 0.15479 0.60419 0.0
O391 O 0.90725 0.1888 0.68694 0.0
Mg392 Mg 0.89671 0.22669 0.62047 0.0
O393 O 0.86581 0.24009 0.65579 0.0
O394 O 0.87587 0.20215 0.56526 0.0
O395 O 0.94324 0.22913 0.64282 0.0
O396 O 0.90895 0.277 0.61139 0.0
C397 C 0.75897 0.1383 0.68214 0.0
C398 C 0.84359 0.1873 0.7787 0.0
C399 C 0.82994 0.0912 0.6993 0.0
C400 C 0.85495 0.16883 0.56832 0.0
C401 C 0.93849 0.20854 0.67271 0.0
C402 C 0.88424 0.27126 0.63741 0.0
O403 O 0.75829 0.11712 0.71013 0.0
O404 O 0.78837 0.16264 0.66618 0.0
C405 C 0.32042 0.84722 0.04663 0.0
C406 C 0.29584 0.84494 0.01644 0.0
C407 C 0.35509 0.87661 0.048 0.0
C408 C 0.36647 0.90415 0.01864 0.0
H409 H 0.31171 0.82792 0.07163 0.0
H410 H 0.37238 0.87896 0.07367 0.0
S411 S 0.31429 0.90737 0.92922 0.0
N412 N 0.28624 0.87009 0.95379 0.0
N413 N 0.35244 0.92503 0.95528 0.0
C414 C 0.34355 0.90014 0.98557 0.0
C415 C 0.30784 0.87044 0.98468 0.0
C416 C 0.13615 0.46766 0.99922 0.0
C417 C 0.13708 0.43581 0.00652 0.0
C418 C 0.10355 0.46643 0.99135 0.0
C419 C 0.0711 0.4333 0.99089 0.0
H420 H 0.16007 0.49366 0.00358 0.0
H421 H 0.10348 0.49171 0.98953 0.0
S422 S 0.06137 0.34209 -0.00021 0.0
N423 N 0.10451 0.37037 0.00641 0.0
N424 N 0.04332 0.3676 0.99087 0.0
C425 C 0.07267 0.40113 0.99272 0.0
C426 C 0.10573 0.40252 0.00093 0.0
C427 C 0.51674 0.653 0.02763 0.0
C428 C 0.53833 0.68739 0.01072 0.0
C429 C 0.52292 0.62464 0.01844 0.0
C430 C 0.55085 0.62992 0.99204 0.0
H431 H 0.49702 0.64892 0.05079 0.0
H432 H 0.50671 0.59899 0.03354 0.0
S433 S 0.61067 0.71384 0.93453 0.0
N434 N 0.58537 0.72434 0.96279 0.0
N435 N 0.59705 0.6711 0.94458 0.0
C436 C 0.5705 0.6635 0.97208 0.0
C437 C 0.56399 0.6922 0.98142 0.0
C438 C 0.84634 0.32673 0.00409 0.0
C439 C 0.8349 0.29269 0.02166 0.0
C440 C 0.87428 0.35804 0.02198 0.0
C441 C 0.89188 0.35608 0.05774 0.0
H442 H 0.83564 0.32877 0.9745 0.0
H443 H 0.88451 0.38309 0.00515 0.0
S444 S 0.86586 0.27448 0.12092 0.0
N445 N 0.83861 0.25958 0.08054 0.0
N446 N 0.89085 0.31852 0.11472 0.0
C447 C 0.87725 0.32289 0.07861 0.0
C448 C 0.84883 0.29103 0.06032 0.0
C449 C 0.68676 0.55169 0.03784 0.0
C450 C 0.69914 0.53708 0.00745 0.0
C451 C 0.65024 0.54079 0.04021 0.0
C452 C 0.62547 0.51519 0.01215 0.0
H453 H 0.70566 0.57426 0.05672 0.0
H454 H 0.64216 0.55568 0.06045 0.0
S455 S 0.64399 0.46434 0.93254 0.0
N456 N 0.68346 0.49191 0.95347 0.0
N457 N 0.61499 0.47173 0.95773 0.0
C458 C 0.63707 0.49727 0.98542 0.0
C459 C 0.67402 0.50825 0.98303 0.0
C460 C 0.40923 0.12444 0.03437 0.0
C461 C 0.43581 0.15082 0.00953 0.0
C462 C 0.41032 0.09319 0.04485 0.0
C463 C 0.43769 0.08709 0.0302 0.0
H464 H 0.3876 0.12801 0.04575 0.0
H465 H 0.38942 0.07364 0.06447 0.0
S466 S 0.51223 0.14789 0.96188 0.0
N467 N 0.48925 0.16887 0.96918 0.0
N468 N 0.49135 0.11009 0.9884 0.0
C469 C 0.46397 0.11319 0.00455 0.0
C470 C 0.463 0.14509 0.99435 0.0
C471 C 0.65955 0.11018 0.99338 0.0
C472 C 0.66887 0.13922 0.02085 0.0
C473 C 0.62392 0.08362 0.9871 0.0
C474 C 0.59613 0.08466 0.00843 0.0
H475 H 0.67978 0.10798 0.97599 0.0
H476 H 0.61818 0.06188 0.96554 0.0
S477 S 0.60619 0.1544 0.08442 0.0
N478 N 0.6475 0.16726 0.06998 0.0
N479 N 0.58017 0.11668 0.05862 0.0
C480 C 0.60498 0.11301 0.0367 0.0
C481 C 0.64143 0.14041 0.04281 0.0
C482 C 0.89085 0.55081 0.04089 0.0
C483 C 0.86889 0.54609 0.0066 0.0
C484 C 0.90991 0.53213 0.0433 0.0
C485 C 0.9074 0.50852 0.01134 0.0
H486 H 0.89529 0.57084 0.06434 0.0
H487 H 0.92893 0.53859 0.06837 0.0
S488 S 0.84803 0.48221 0.91922 0.0
N489 N 0.84176 0.51283 0.94318 0.0
N490 N 0.87723 0.47748 0.94781 0.0
C491 C 0.88285 0.5012 0.979 0.0
C492 C 0.86369 0.5202 0.97652 0.0
C493 C 0.51588 0.37016 0.96007 0.0
C494 C 0.52059 0.34797 0.98833 0.0
C495 C 0.5113 0.39868 0.97407 0.0
C496 C 0.51117 0.40545 0.01646 0.0
H497 H 0.51177 0.363 0.92757 0.0
H498 H 0.5029 0.41207 0.95226 0.0
S499 S 0.53421 0.36272 0.1014 0.0
N500 N 0.53387 0.34034 0.05945 0.0
N501 N 0.5248 0.3938 0.08562 0.0
C502 C 0.52163 0.38725 0.04423 0.0
C503 C 0.52627 0.35826 0.03015 0.0
C504 C 0.13567 0.63526 0.03463 0.0
C505 C 0.1377 0.66702 0.01947 0.0
C506 C 0.10618 0.60129 0.02538 0.0
C507 C 0.07788 0.59826 0.00083 0.0
H508 H 0.15738 0.63666 0.05304 0.0
H509 H 0.10602 0.57732 0.03647 0.0
S510 S 0.06741 0.67368 0.96037 0.0
N511 N 0.10699 0.69361 0.98331 0.0
N512 N 0.05157 0.62992 0.96595 0.0
C513 C 0.0788 0.62998 0.98736 0.0
C514 C 0.10876 0.66441 0.99667 0.0
C515 C 0.35366 0.48766 0.04109 0.0
C516 C 0.32417 0.4684 0.01464 0.0
C517 C 0.38791 0.49534 0.02949 0.0
C518 C 0.39348 0.48284 0.99158 0.0
H519 H 0.34979 0.49455 0.0722 0.0
H520 H 0.40919 0.50722 0.0524 0.0
S521 S 0.32616 0.43595 0.90883 0.0
N522 N 0.30347 0.44144 0.94652 0.0
N523 N 0.36792 0.45429 0.92554 0.0
C524 C 0.3649 0.46646 0.96333 0.0
C525 C 0.33006 0.45951 0.9747 0.0
C526 C 0.52361 0.87888 0.05625 0.0
C527 C 0.52629 0.85475 0.0288 0.0
C528 C 0.51719 0.90588 0.0418 0.0
C529 C 0.51342 0.90974 -0.00066 0.0
H530 H 0.52679 0.87705 0.08924 0.0
H531 H 0.51594 0.92429 0.06399 0.0
S532 S 0.51559 0.85178 0.91474 0.0
N533 N 0.52309 0.83532 0.95726 0.0
N534 N 0.5108 0.88605 0.92995 0.0
C535 C 0.51537 0.88535 0.9715 0.0
C536 C 0.52193 0.85784 0.98625 0.0
C537 C 0.95731 0.21322 0.33969 0.0
C538 C 0.95457 0.17912 0.3412 0.0
C539 C 0.98949 0.24394 0.32956 0.0
C540 C 0.02061 0.24205 0.32109 0.0
H541 H 0.93468 0.21642 0.34769 0.0
H542 H 0.99033 0.26969 0.331 0.0
S543 S 0.02624 0.15845 0.31432 0.0
N544 N 0.9847 0.14455 0.3286 0.0
N545 N 0.04536 0.20269 0.30955 0.0
C546 C 0.01762 0.20783 0.31939 0.0
C547 C 0.98459 0.1763 0.32944 0.0
C548 C 0.76919 0.73846 0.32969 0.0
C549 C 0.80456 0.76503 0.33884 0.0
C550 C 0.74147 0.74632 0.3326 0.0
C551 C 0.7486 0.78078 0.345 0.0
H552 H 0.76262 0.71078 0.32413 0.0
H553 H 0.71414 0.72472 0.32826 0.0
S554 S 0.83714 0.86096 0.36532 0.0
N555 N 0.8458 0.82816 0.35506 0.0
N556 N 0.79332 0.84279 0.36082 0.0
C557 C 0.78405 0.80842 0.35005 0.0
C558 C 0.81229 0.80056 0.34666 0.0
C559 C 0.22219 0.0264 0.30812 0.0
C560 C 0.2023 0.02587 0.34241 0.0
C561 C 0.22136 -0.00519 0.29504 0.0
C562 C 0.20085 0.96208 0.31625 0.0
H563 H 0.24114 0.0518 0.29413 0.0
H564 H 0.23944 -0.00316 0.27072 0.0
S565 S 0.13706 0.94599 0.40087 0.0
N566 N 0.15628 0.98973 0.39183 0.0
N567 N 0.15456 0.92993 0.36742 0.0
C568 C 0.177 0.96049 0.34667 0.0
C569 C 0.17789 0.99269 0.35987 0.0
C570 C 0.52623 0.65296 0.31998 0.0
C571 C 0.51396 0.62147 0.34364 0.0
C572 C 0.55472 0.68597 0.33371 0.0
C573 C 0.57204 0.68849 0.37149 0.0
H574 H 0.51456 0.65174 0.28987 0.0
H575 H 0.56419 0.70917 0.3137 0.0
S576 S 0.54736 0.61424 0.44675 0.0
N577 N 0.51924 0.59513 0.4077 0.0
N578 N 0.57248 0.65708 0.43419 0.0
C579 C 0.55848 0.6575 0.39658 0.0
C580 C 0.52945 0.62398 0.38252 0.0
C581 C 0.36023 0.90927 0.33323 0.0
C582 C 0.36521 0.87925 0.33484 0.0
C583 C 0.32796 0.90663 0.34457 0.0
C584 C 0.29894 0.87374 0.35781 0.0
H585 H 0.3814 0.93512 0.32254 0.0
H586 H 0.32541 0.93046 0.34106 0.0
S587 S 0.29936 0.78798 0.37212 0.0
N588 N 0.33959 0.81619 0.35418 0.0
N589 N 0.27806 0.8111 0.37508 0.0
C590 C 0.30385 0.84373 0.36133 0.0
C591 C 0.33723 0.84656 0.35015 0.0
C592 C 0.08384 0.45893 0.3838 0.0
C593 C 0.11248 0.48617 0.36213 0.0
C594 C 0.08408 0.42749 0.39474 0.0
C595 C 0.11252 0.4219 0.38315 0.0
H596 H 0.0603 0.46106 0.39015 0.0
H597 H 0.06049 0.4064 0.4096 0.0
S598 S 0.19556 0.48769 0.3302 0.0
N599 N 0.17145 0.50786 0.33313 0.0
N600 N 0.17176 0.44828 0.35292 0.0
C601 C 0.14252 0.45031 0.3643 0.0
C602 C 0.14246 0.48257 0.35382 0.0
C603 C 0.30489 0.47945 0.31043 0.0
C604 C 0.33204 0.47794 0.33309 0.0
C605 C 0.26969 0.45059 0.31027 0.0
C606 C 0.26026 0.41954 0.33352 0.0
H607 H 0.31118 0.50262 0.29134 0.0
H608 H 0.24994 0.45207 0.29083 0.0
S609 S 0.32025 0.40226 0.39974 0.0
N610 N 0.34649 0.44286 0.38064 0.0
N611 N 0.27992 0.38889 0.38071 0.0
C612 C 0.28657 0.41806 0.35765 0.0
C613 C 0.32263 0.44725 0.35741 0.0
C614 C 0.56033 0.89105 0.40196 0.0
C615 C 0.53754 0.88566 0.3682 0.0
C616 C 0.58657 0.88082 0.39948 0.0
C617 C 0.5906 0.86523 0.36311 0.0
H618 H 0.5582 0.90372 0.43006 0.0
H619 H 0.60471 0.8865 0.42534 0.0
S620 S 0.54014 0.8493 0.26493 0.0
N621 N 0.52185 0.86557 0.29695 0.0
N622 N 0.57163 0.84722 0.29196 0.0
C623 C 0.56805 0.85992 0.32922 0.0
C624 C 0.54129 0.86992 0.33186 0.0
C625 C 0.16432 0.68913 0.28237 0.0
C626 C 0.18068 0.67511 0.30801 0.0
C627 C 0.15809 0.71637 0.29685 0.0
C628 C 0.16914 0.73096 0.33661 0.0
H629 H 0.15289 0.67639 0.25287 0.0
H630 H 0.14132 0.72335 0.27865 0.0
S631 S 0.21701 0.70652 0.41349 0.0
N632 N 0.21074 0.67983 0.37341 0.0
N633 N 0.1997 0.73191 0.40009 0.0
C634 C 0.18828 0.7194 0.36108 0.0
C635 C 0.19407 0.69125 0.34676 0.0
C636 C 0.82395 0.97812 0.30488 0.0
C637 C 0.83246 0.98248 0.34721 0.0
C638 C 0.79372 0.94715 0.29017 0.0
C639 C 0.77087 0.91984 0.3174 0.0
H640 H 0.83916 -0.00029 0.28335 0.0
H641 H 0.78648 0.94616 0.25787 0.0
S642 S 0.78716 0.91509 0.42908 0.0
N643 N 0.82033 0.95453 0.41462 0.0
N644 N 0.76291 0.89607 0.38712 0.0
C645 C 0.78191 0.92178 0.35871 0.0
C646 C 0.81288 0.95338 0.37364 0.0
C647 C 0.02038 0.83029 0.36836 0.0
C648 C 0.9901 0.80629 0.34504 0.0
C649 C 0.05398 0.83429 0.36012 0.0
C650 C 0.05813 0.81397 0.32868 0.0
H651 H 0.01773 0.84449 0.39474 0.0
H652 H 0.076 0.85069 0.38099 0.0
S653 S 0.98913 0.7526 0.2539 0.0
N654 N 0.96777 0.76613 0.28498 0.0
N655 N 0.03095 0.77294 0.27066 0.0
C656 C 0.02894 0.79241 0.30282 0.0
C657 C -0.00521 0.78869 0.31074 0.0
C658 C 0.16951 0.18203 0.34326 0.0
C659 C 0.19339 0.1917 0.3768 0.0
C660 C 0.16175 0.20717 0.32581 0.0
C661 C 0.17747 0.24241 0.34168 0.0
H662 H 0.15745 0.15519 0.32979 0.0
H663 H 0.14438 0.19944 0.29887 0.0
S664 S 0.24281 0.28137 0.42781 0.0
N665 N 0.23291 0.23873 0.425 0.0
N666 N 0.21826 0.28622 0.39182 0.0
C667 C 0.20051 0.25215 0.37592 0.0
C668 C 0.20845 0.22659 0.3937 0.0
C669 C 0.65258 0.53096 0.71268 0.0
C670 C 0.62628 0.51551 0.6816 0.0
C671 C 0.68711 0.55829 0.70348 0.0
C672 C 0.69637 0.57134 0.66305 0.0
H673 H 0.64624 0.52233 0.74448 0.0
H674 H 0.70601 0.57084 0.72866 0.0
S675 S 0.63851 0.53761 0.57001 0.0
N676 N 0.61258 0.51307 0.60818 0.0
N677 N 0.67778 0.56545 0.59126 0.0
C678 C 0.67096 0.55513 0.63137 0.0
C679 C 0.63582 0.52685 0.64056 0.0
C680 C 0.45326 0.07902 0.65048 0.0
C681 C 0.48397 0.10551 0.67115 0.0
C682 C 0.42234 0.08196 0.6479 0.0
C683 C 0.42146 0.11171 0.66535 0.0
H684 H 0.45172 0.05399 0.64067 0.0
H685 H 0.39806 0.05931 0.63561 0.0
S686 S 0.49653 0.19025 0.718 0.0
N687 N 0.51294 0.16388 0.70548 0.0
N688 N 0.4551 0.16989 0.6999 0.0
C689 C 0.45326 0.14023 0.68184 0.0
C690 C 0.48457 0.13701 0.68485 0.0
C691 C 0.91489 0.36398 0.67858 0.0
C692 C 0.88324 0.36569 0.68027 0.0
C693 C 0.91447 0.33306 0.66432 0.0
C694 C 0.88248 0.30292 0.65105 0.0
H695 H 0.93972 0.38588 0.69092 0.0
H696 H 0.9392 0.33227 0.66509 0.0
S697 S 0.79503 0.29815 0.63851 0.0
N698 N 0.82073 0.33783 0.66069 0.0
N699 N 0.81998 0.27903 0.63281 0.0
C700 C 0.85133 0.30542 0.6489 0.0
C701 C 0.85179 0.33721 0.66352 0.0
C702 C 0.18587 0.96619 0.71599 0.0
C703 C 0.17681 0.96321 0.67393 0.0
C704 C 0.21354 -0.00158 0.73212 0.0
C705 C 0.23331 0.02845 0.70655 0.0
H706 H 0.1737 0.94275 0.73579 0.0
H707 H 0.2216 -0.00133 0.76395 0.0
S708 S 0.21236 0.0367 0.59735 0.0
N709 N 0.18332 -0.00531 0.60953 0.0
N710 N 0.23667 0.05539 0.63939 0.0
C711 C 0.22115 0.02725 0.66592 0.0
C712 C 0.19261 -0.00559 0.64964 0.0
C713 C 0.00869 0.18216 0.66921 0.0
C714 C 0.03851 0.21361 0.68469 0.0
C715 C 0.97438 0.17811 0.67065 0.0
C716 C 0.96913 0.20551 0.68737 0.0
H717 H 0.01246 0.1625 0.652 0.0
H718 H 0.9527 0.15541 0.65452 0.0
S719 S 0.03751 0.29002 0.73782 0.0
N720 N 0.05987 0.27007 0.7222 0.0
N721 N -0.00464 0.26259 0.72449 0.0
C722 C -0.00198 0.2351 0.70686 0.0
C723 C 0.03284 0.23909 0.70571 0.0
C724 C 0.79376 0.80787 0.64902 0.0
C725 C 0.77813 0.822 0.67583 0.0
C726 C 0.79663 0.7778 0.66014 0.0
C727 C 0.78332 0.76067 0.6981 0.0
H728 H 0.80221 0.81908 0.61845 0.0
H729 H 0.80665 0.76628 0.63757 0.0
S730 S 0.74518 0.79076 0.78158 0.0
N731 N 0.75339 0.81967 0.74376 0.0
N732 N 0.75823 0.76264 0.76465 0.0
C733 C 0.77035 0.77638 0.7265 0.0
C734 C 0.76786 0.80725 0.71535 0.0
C735 C -0.00369 0.79526 0.70212 0.0
C736 C 0.00152 0.81254 0.66381 0.0
C737 C 0.96199 0.76973 0.71495 0.0
C738 C 0.93192 0.76113 0.69016 0.0
H739 H 0.01888 0.79977 0.72122 0.0
H740 H 0.95918 0.75467 0.74289 0.0
S741 S 0.93128 0.80188 0.58943 0.0
N742 N 0.97389 0.82169 0.60296 0.0
N743 N 0.90921 0.77412 0.62745 0.0
C744 C 0.93657 0.78053 0.65358 0.0
C745 C 0.97152 0.80605 0.6402 0.0
C746 C 0.22097 0.22289 0.72098 0.0
C747 C 0.18719 0.19368 0.71085 0.0
C748 C 0.25144 0.21925 0.72029 0.0
C749 C 0.2494 0.18637 0.70889 0.0
H750 H 0.2241 0.24911 0.72822 0.0
H751 H 0.27708 0.24297 0.7268 0.0
S752 S 0.16667 0.10135 0.68112 0.0
N753 N 0.15287 0.13037 0.69115 0.0
N754 N 0.21036 0.1236 0.68892 0.0
C755 C 0.21545 0.15642 0.70069 0.0
C756 C 0.18429 0.1601 0.70182 0.0
C757 C 0.81164 0.01466 0.6352 0.0
C758 C 0.83836 0.00772 0.64943 0.0
C759 C 0.81332 0.04738 0.64441 0.0
C760 C 0.84094 0.07313 0.66949 0.0
H761 H 0.78778 -0.00648 0.62025 0.0
H762 H 0.79025 0.05018 0.63717 0.0
S763 S 0.92161 0.0711 0.70481 0.0
N764 N 0.89698 0.0318 0.68122 0.0
N765 N 0.8991 0.09298 0.70089 0.0
C766 C 0.87026 0.0686 0.67866 0.0
C767 C 0.86907 0.03561 0.6682 0.0
C768 C 0.47703 0.32174 0.63612 0.0
C769 C 0.49131 0.32512 0.67606 0.0
C770 C 0.44742 0.28951 0.62311 0.0
C771 C 0.43105 0.25972 0.64966 0.0
H772 H 0.48716 0.34465 0.61559 0.0
H773 H 0.43566 0.28895 0.59325 0.0
S774 S 0.46338 0.25302 0.75386 0.0
N775 N 0.491 0.29484 0.73942 0.0
N776 N 0.43501 0.23377 0.71501 0.0
C777 C 0.44768 0.26148 0.68778 0.0
C778 C 0.47785 0.29448 0.70107 0.0
C779 C 0.65941 0.0937 0.66198 0.0
C780 C 0.65355 0.12315 0.65875 0.0
C781 C 0.694 0.09903 0.66714 0.0
C782 C 0.72407 0.13398 0.66919 0.0
H783 H 0.63705 0.06633 0.66177 0.0
H784 H 0.69712 0.07555 0.6709 0.0
S785 S 0.72264 0.21969 0.66329 0.0
N786 N 0.68036 0.18823 0.6577 0.0
N787 N 0.74556 0.19834 0.66774 0.0
C788 C 0.71869 0.16358 0.66455 0.0
C789 C 0.68336 0.1581 0.65923 0.0
C790 C 0.81401 0.50666 0.67227 0.0
C791 C 0.84196 0.50723 0.69553 0.0
C792 C 0.81414 0.53887 0.66311 0.0
C793 C 0.84202 0.57208 0.67757 0.0
H794 H 0.79308 0.4815 0.65925 0.0
H795 H 0.79362 0.538 0.64292 0.0
S796 S 0.91758 0.58762 0.74575 0.0
N797 N 0.89538 0.54358 0.73752 0.0
N798 N 0.89553 0.60366 0.7199 0.0
C799 C 0.86838 0.57265 0.70342 0.0
C800 C 0.86839 0.54025 0.71263 0.0
C801 C 0.47084 0.92227 0.19807 0.0
C802 C 0.46435 0.93577 0.23475 0.0
C803 C 0.47899 0.94209 0.16112 0.0
C804 C 0.48118 0.97616 0.1599 0.0
H805 H 0.46774 0.8955 0.19745 0.0
H806 H 0.48194 0.92994 0.13305 0.0
S807 S 0.46995 0.02438 0.24973 0.0
N808 N 0.46308 0.9857 0.26875 0.0
N809 N 0.47919 0.02351 0.20046 0.0
C810 C 0.47709 0.99073 0.19746 0.0
C811 C 0.46838 0.97036 0.23457 0.0
C812 C 0.08178 0.49738 0.21285 0.0
C813 C 0.07201 0.51847 0.23689 0.0
C814 C 0.06761 0.48575 0.17331 0.0
C815 C 0.04306 0.49473 0.15617 0.0
H816 H 0.10066 0.48983 0.22474 0.0
H817 H 0.07584 0.46928 0.15619 0.0
S818 S 0.00844 0.54906 0.20705 0.0
N819 N 0.03643 0.548 0.24133 0.0
N820 N 0.00936 0.5259 0.16646 0.0
C821 C 0.03336 0.51629 0.17967 0.0
C822 C 0.04794 0.52821 0.22021 0.0
C823 C 0.48376 0.50444 0.21904 0.0
C824 C 0.48215 0.53605 0.22584 0.0
C825 C 0.48798 0.49446 0.17913 0.0
C826 C 0.49087 0.51583 0.14481 0.0
H827 H 0.48071 0.48683 0.24458 0.0
H828 H 0.48744 0.46902 0.1748 0.0
S829 S 0.4887 0.60137 0.14646 0.0
N830 N 0.48456 0.58916 0.19542 0.0
N831 N 0.49248 0.57019 0.12015 0.0
C832 C 0.49084 0.54826 0.15137 0.0
C833 C 0.48645 0.55843 0.19204 0.0
C834 C 0.90904 0.43624 0.84934 0.0
C835 C 0.92108 0.42656 0.81398 0.0
C836 C 0.92605 0.44055 0.88743 0.0
C837 C 0.95604 0.43596 0.89124 0.0
H838 H 0.88664 0.441 0.84746 0.0
H839 H 0.91681 0.44945 0.91357 0.0
S840 S -0.00329 0.40829 0.80878 0.0
N841 N 0.96378 0.41065 0.78553 0.0
N842 N -0.00415 0.41924 0.85763 0.0
C843 C 0.96764 0.42508 0.85661 0.0
C844 C 0.95012 0.42026 0.8178 0.0
C845 C 0.52289 0.50369 0.78317 0.0
C846 C 0.52247 0.4709 0.77729 0.0
C847 C 0.51619 0.51342 0.82198 0.0
C848 C 0.50919 0.49087 0.85651 0.0
H849 H 0.53067 0.52299 0.75827 0.0
H850 H 0.51951 0.54017 0.82559 0.0
S851 S 0.49601 0.39842 0.85496 0.0
N852 N 0.50807 0.41311 0.80742 0.0
N853 N 0.49473 0.43142 0.88021 0.0
C854 C 0.50393 0.45614 0.84977 0.0
C855 C 0.51094 0.44619 0.81018 0.0
C856 C 0.49279 0.06713 0.82447 0.0
C857 C 0.50267 0.0496 0.7946 0.0
C858 C 0.48098 0.05224 0.86378 0.0
C859 C 0.47795 0.01897 0.8742 0.0
H860 H 0.49488 0.09291 0.81765 0.0
H861 H 0.47443 0.06694 0.8862 0.0
S862 S 0.50069 0.9624 0.80692 0.0
N863 N 0.50844 -0.00275 0.77805 0.0
N864 N 0.48657 0.96925 0.85152 0.0
C865 C 0.48747 0.00105 0.84435 0.0
C866 C 0.49979 0.01638 0.80468 0.0
C867 C 0.1021 0.28756 0.55323 0.0
C868 C 0.11884 0.26789 0.56527 0.0
C869 C 0.1019 0.29718 0.51207 0.0
C870 C 0.11931 0.28855 0.48128 0.0
H871 H 0.08833 0.29503 0.57568 0.0
H872 H 0.08787 0.31152 0.50427 0.0
S873 S 0.16817 0.23861 0.49591 0.0
N874 N 0.15363 0.24038 0.54249 0.0
N875 N 0.15484 0.26052 0.46524 0.0
C876 C 0.13764 0.27049 0.49279 0.0
C877 C 0.13711 0.25977 0.53477 0.0
C878 C 0.74266 0.85956 0.53217 0.0
C879 C 0.72395 0.86083 0.56688 0.0
C880 C 0.72679 0.85183 0.49297 0.0
C881 C 0.69199 0.84579 0.48716 0.0
H882 H 0.76934 0.8634 0.53564 0.0
H883 H 0.74087 0.84795 0.46764 0.0
S884 S 0.63145 0.84499 0.56865 0.0
N885 N 0.66881 0.85495 0.59363 0.0
N886 N 0.63886 0.84063 0.51945 0.0
C887 C 0.67316 0.84752 0.52166 0.0
C888 C 0.68927 0.85519 0.5617 0.0
C889 C 0.16327 0.89598 0.52747 0.0
C890 C 0.15733 0.87411 0.56233 0.0
C891 C 0.16746 0.8847 0.48812 0.0
C892 C 0.16579 0.85126 0.48273 0.0
H893 H 0.16242 0.92083 0.53023 0.0
H894 H 0.16932 0.9009 0.46156 0.0
S895 S 0.15775 0.78763 0.565 0.0
N896 N 0.15524 0.82023 0.58969 0.0
N897 N 0.16279 0.79887 0.51571 0.0
C898 C 0.16286 0.83071 0.51775 0.0
C899 C 0.15867 0.84215 0.55763 0.0
C900 C 0.56312 0.77087 0.16883 0.0
C901 C 0.578 0.75853 0.1389 0.0
C902 C 0.57895 0.7818 0.20761 0.0
C903 C 0.60982 0.78032 0.2176 0.0
H904 H 0.54032 0.77405 0.16139 0.0
H905 H 0.56848 0.79385 0.2289 0.0
S906 S 0.65572 0.74467 0.15272 0.0
N907 N 0.62281 0.74139 0.12326 0.0
N908 N 0.65224 0.76154 0.1974 0.0
C909 C 0.6229 0.76464 0.18973 0.0
C910 C 0.607 0.75379 0.14985 0.0
C911 C 0.21295 0.85112 0.13147 0.0
C912 C 0.20212 0.81551 0.11887 0.0
C913 C 0.21218 0.85962 0.17305 0.0
C914 C 0.19954 0.83268 0.20327 0.0
H915 H 0.22362 0.87287 0.10927 0.0
H916 H 0.22219 0.88759 0.18176 0.0
S917 S 0.16615 0.73532 0.18687 0.0
N918 N 0.17755 0.75302 0.14041 0.0
N919 N 0.17422 0.76916 0.21829 0.0
C920 C 0.18654 0.79681 0.19109 0.0
C921 C 0.18816 0.78814 0.14887 0.0
C922 C 0.17157 0.36745 0.13486 0.0
C923 C 0.17543 0.40196 0.13318 0.0
C924 C 0.15743 0.34587 0.16975 0.0
C925 C 0.14711 0.35815 0.20486 0.0
H926 H 0.17883 0.3567 0.10856 0.0
H927 H 0.15541 0.31956 0.16931 0.0
S928 S 0.15237 0.4472 0.2157 0.0
N929 N 0.16764 0.44772 0.16878 0.0
N930 N 0.1422 0.40764 0.23548 0.0
C931 C 0.1511 0.3929 0.2036 0.0
C932 C 0.16496 0.41467 0.16752 0.0
C933 C 0.80851 0.64047 0.88531 0.0
C934 C 0.78328 0.60469 0.89566 0.0
C935 C 0.81179 0.65247 0.84427 0.0
C936 C 0.7899 0.62897 0.81273 0.0
H937 H 0.8249 0.65945 0.90921 0.0
H938 H 0.83033 0.68054 0.83751 0.0
S939 S 0.72422 0.53156 0.82287 0.0
N940 N 0.73942 0.54508 0.87032 0.0
N941 N 0.74532 0.5677 0.79368 0.0
C942 C 0.76614 0.59281 0.82245 0.0
C943 C 0.76291 0.58063 0.86384 0.0
C944 C 0.3711 0.20006 0.88754 0.0
C945 C 0.40484 0.20478 0.89807 0.0
C946 C 0.35624 0.18706 0.84804 0.0
C947 C 0.37474 0.1782 0.81881 0.0
H948 H 0.35545 0.20446 0.91052 0.0
H949 H 0.3293 0.18149 0.84142 0.0
S950 S 0.46345 0.18566 0.83221 0.0
N951 N 0.4564 0.20069 0.87624 0.0
N952 N 0.42806 0.17512 0.80299 0.0
C953 C 0.40888 0.18413 0.82878 0.0
C954 C 0.42408 0.19776 0.86827 0.0
C955 C 0.85496 0.2222 0.88731 0.0
C956 C 0.82442 0.22574 0.89132 0.0
C957 C 0.864 0.21365 0.84887 0.0
C958 C 0.84337 0.20951 0.81332 0.0
H959 H 0.87036 0.22347 0.91446 0.0
H960 H 0.88567 0.20776 0.84749 0.0
S961 S 0.76262 0.21893 0.8075 0.0
N962 N 0.77487 0.22656 0.85664 0.0
N963 N 0.79248 0.21164 0.78424 0.0
C964 C 0.81446 0.21576 0.81659 0.0
C965 C 0.80478 0.22355 0.85573 0.0
C966 C 0.28514 0.09713 0.48212 0.0
C967 C 0.25325 0.09645 0.471 0.0
C968 C 0.29872 0.10643 0.52267 0.0
C969 C 0.28075 0.1155 0.55239 0.0
H970 H 0.30064 0.09277 0.45891 0.0
H971 H 0.32456 0.10928 0.52985 0.0
S972 S 0.19333 0.1113 0.53983 0.0
N973 N 0.20156 0.09996 0.49406 0.0
N974 N 0.22777 0.11903 0.56936 0.0
C975 C 0.2476 0.11211 0.54214 0.0
C976 C 0.23358 0.10202 0.5016 0.0
C977 C 0.85307 0.15438 0.45449 0.0
C978 C 0.86111 0.12639 0.45144 0.0
C979 C 0.84588 0.16463 0.49274 0.0
C980 C 0.84698 0.14769 0.52956 0.0
H981 H 0.85446 0.16988 0.42745 0.0
H982 H 0.84263 0.1882 0.49393 0.0
S983 S 0.85992 0.06854 0.5374 0.0
N984 N 0.86423 0.07819 0.48762 0.0
N985 N 0.85128 0.09814 0.55986 0.0
C986 C 0.85095 0.11713 0.52648 0.0
C987 C 0.85806 0.10641 0.48728 0.0
C988 C 0.84713 0.68967 0.46642 0.0
C989 C 0.84125 0.71817 0.45615 0.0
C990 C 0.84295 0.67716 0.50707 0.0
C991 C 0.83244 0.69248 0.53875 0.0
H992 H 0.85568 0.67742 0.44302 0.0
H993 H 0.84903 0.656 0.51406 0.0
S994 S 0.81387 0.76785 0.52813 0.0
N995 N 0.82429 0.76143 0.48097 0.0
N996 N 0.81599 0.73735 0.55736 0.0
C997 C 0.82525 0.72013 0.52876 0.0
C998 C 0.82979 0.73315 0.4874 0.0
loop_
_geom_bond_atom_site_label_1
_geom_bond_atom_site_label_2
_geom_bond_distance
_geom_bond_site_symmetry_2
_ccdc_geom_bond_type
H0 C5 0.930 . S
H1 C8 0.930 . S
H2 C10 0.930 . S
H3 C4 1.016 . S
C4 H3 1.016 . S
C4 N11 1.286 . S
C5 H0 0.930 . S
C5 C6 1.397 . S
C5 C7 1.361 . S
C6 C5 1.397 . S
C6 C10 1.390 . S
C7 C5 1.361 . S
C7 C8 1.393 . S
C7 N11 1.413 . S
C8 H1 0.930 . S
C8 C7 1.393 . S
C8 C9 1.399 . S
C9 C8 1.399 . S
C9 C10 1.381 . S
C10 H2 0.930 . S
C10 C6 1.390 . S
C10 C9 1.381 . S
N11 C4 1.286 . S
N11 C7 1.413 . S
H12 C17 0.930 . S
H13 C20 0.930 . S
H14 C22 0.930 . S
H15 C16 1.016 . S
C16 H15 1.016 . S
C16 N23 1.286 . S
C17 H12 0.930 . S
C17 C18 1.397 . S
C17 C19 1.361 . S
C18 C17 1.397 . S
C18 C22 1.390 . S
C19 C17 1.361 . S
C19 C20 1.393 . S
C19 N23 1.413 . S
C20 H13 0.930 . S
C20 C19 1.393 . S
C20 C21 1.399 . S
C21 C20 1.399 . S
C21 C22 1.381 . S
C22 H14 0.930 . S
C22 C18 1.390 . S
C22 C21 1.381 . S
N23 C16 1.286 . S
N23 C19 1.413 . S
H24 C29 0.930 . S
H25 C32 0.930 . S
H26 C34 0.930 . S
H27 C28 1.016 . S
C28 H27 1.016 . S
C28 N35 1.286 . S
C29 H24 0.930 . S
C29 C30 1.397 . S
C29 C31 1.361 . S
C30 C29 1.397 . S
C30 C34 1.390 . S
C31 C29 1.361 . S
C31 C32 1.393 . S
C31 N35 1.413 . S
C32 H25 0.930 . S
C32 C31 1.393 . S
C32 C33 1.399 . S
C33 C32 1.399 . S
C33 C34 1.381 . S
C34 H26 0.930 . S
C34 C30 1.390 . S
C34 C33 1.381 . S
N35 C28 1.286 . S
N35 C31 1.413 . S
H36 C41 0.930 . S
H37 C44 0.930 . S
H38 C46 0.930 . S
H39 C40 1.016 . S
C40 H39 1.016 . S
C40 N47 1.286 . S
C41 H36 0.930 . S
C41 C42 1.397 . S
C41 C43 1.361 . S
C42 C41 1.397 . S
C42 C46 1.390 . S
C43 C41 1.361 . S
C43 C44 1.393 . S
C43 N47 1.413 . S
C44 H37 0.930 . S
C44 C43 1.393 . S
C44 C45 1.399 . S
C45 C44 1.399 . S
C45 C46 1.381 . S
C46 H38 0.930 . S
C46 C42 1.390 . S
C46 C45 1.381 . S
N47 C40 1.286 . S
N47 C43 1.413 . S
H48 C53 0.930 . S
H49 C56 0.930 . S
H50 C58 0.930 . S
H51 C52 1.016 . S
C52 H51 1.016 . S
C52 N59 1.286 . S
C53 H48 0.930 . S
C53 C54 1.397 . S
C53 C55 1.361 . S
C54 C53 1.397 . S
C54 C58 1.390 . S
C55 C53 1.361 . S
C55 C56 1.393 . S
C55 N59 1.413 . S
C56 H49 0.930 . S
C56 C55 1.393 . S
C56 C57 1.399 . S
C57 C56 1.399 . S
C57 C58 1.381 . S
C58 H50 0.930 . S
C58 C54 1.390 . S
C58 C57 1.381 . S
N59 C52 1.286 . S
N59 C55 1.413 . S
H60 C65 0.930 . S
H61 C68 0.930 . S
H62 C70 0.930 . S
H63 C64 1.016 . S
C64 H63 1.016 . S
C64 N71 1.286 . S
C65 H60 0.930 . S
C65 C66 1.397 . S
C65 C67 1.361 . S
C66 C65 1.397 . S
C66 C70 1.390 . S
C67 C65 1.361 . S
C67 C68 1.393 . S
C67 N71 1.413 . S
C68 H61 0.930 . S
C68 C67 1.393 . S
C68 C69 1.399 . S
C69 C68 1.399 . S
C69 C70 1.381 . S
C70 H62 0.930 . S
C70 C66 1.390 . S
C70 C69 1.381 . S
N71 C64 1.286 . S
N71 C67 1.413 . S
H72 C77 0.930 . S
H73 C80 0.930 . S
H74 C82 0.930 . S
H75 C76 1.016 . S
C76 H75 1.016 . S
C76 N83 1.286 . S
C77 H72 0.930 . S
C77 C78 1.397 . S
C77 C79 1.361 . S
C78 C77 1.397 . S
C78 C82 1.390 . S
C79 C77 1.361 . S
C79 C80 1.393 . S
C79 N83 1.413 . S
C80 H73 0.930 . S
C80 C79 1.393 . S
C80 C81 1.399 . S
C81 C80 1.399 . S
C81 C82 1.381 . S
C82 H74 0.930 . S
C82 C78 1.390 . S
C82 C81 1.381 . S
N83 C76 1.286 . S
N83 C79 1.413 . S
H84 C89 0.930 . S
H85 C92 0.930 . S
H86 C94 0.930 . S
H87 C88 1.016 . S
C88 H87 1.016 . S
C88 N95 1.286 . S
C89 H84 0.930 . S
C89 C90 1.397 . S
C89 C91 1.361 . S
C90 C89 1.397 . S
C90 C94 1.390 . S
C91 C89 1.361 . S
C91 C92 1.393 . S
C91 N95 1.413 . S
C92 H85 0.930 . S
C92 C91 1.393 . S
C92 C93 1.399 . S
C93 C92 1.399 . S
C93 C94 1.381 . S
C94 H86 0.930 . S
C94 C90 1.390 . S
C94 C93 1.381 . S
N95 C88 1.286 . S
N95 C91 1.413 . S
H96 C101 0.930 . S
H97 C104 0.930 . S
H98 C106 0.930 . S
H99 C100 1.016 . S
C100 H99 1.016 . S
C100 N107 1.286 . S
C101 H96 0.930 . S
C101 C102 1.397 . S
C101 C103 1.361 . S
C102 C101 1.397 . S
C102 C106 1.390 . S
C103 C101 1.361 . S
C103 C104 1.393 . S
C103 N107 1.413 . S
C104 H97 0.930 . S
C104 C103 1.393 . S
C104 C105 1.399 . S
C105 C104 1.399 . S
C105 C106 1.381 . S
C106 H98 0.930 . S
C106 C102 1.390 . S
C106 C105 1.381 . S
N107 C100 1.286 . S
N107 C103 1.413 . S
H108 C113 0.930 . S
H109 C116 0.930 . S
H110 C118 0.930 . S
H111 C112 1.016 1_556 S
C112 H111 1.016 1_554 S
C112 N119 1.286 . S
C113 H108 0.930 . S
C113 C114 1.397 . S
C113 C115 1.361 . S
C114 C113 1.397 . S
C114 C118 1.390 1_554 S
C115 C113 1.361 . S
C115 C116 1.393 1_554 S
C115 N119 1.413 . S
C116 H109 0.930 . S
C116 C115 1.393 1_556 S
C116 C117 1.399 . S
C117 C116 1.399 . S
C117 C118 1.381 . S
C118 H110 0.930 . S
C118 C114 1.390 1_556 S
C118 C117 1.381 . S
N119 C112 1.286 . S
N119 C115 1.413 . S
H120 C125 0.930 . S
H121 C128 0.930 . S
H122 C130 0.930 . S
H123 C124 1.016 1_556 S
C124 H123 1.016 1_554 S
C124 N131 1.286 . S
C125 H120 0.930 . S
C125 C126 1.397 . S
C125 C127 1.361 . S
C126 C125 1.397 . S
C126 C130 1.390 1_554 S
C127 C125 1.361 . S
C127 C128 1.393 1_554 S
C127 N131 1.413 . S
C128 H121 0.930 . S
C128 C127 1.393 1_556 S
C128 C129 1.399 . S
C129 C128 1.399 . S
C129 C130 1.381 . S
C130 H122 0.930 . S
C130 C126 1.390 1_556 S
C130 C129 1.381 . S
N131 C124 1.286 . S
N131 C127 1.413 . S
H132 C137 0.930 . S
H133 C140 0.930 . S
H134 C142 0.930 . S
H135 C136 1.016 1_556 S
C136 H135 1.016 1_554 S
C136 N143 1.286 . S
C137 H132 0.930 . S
C137 C138 1.397 1_554 S
C137 C139 1.361 . S
C138 C137 1.397 1_556 S
C138 C142 1.390 . S
C139 C137 1.361 . S
C139 C140 1.393 1_554 S
C139 N143 1.413 . S
C140 H133 0.930 . S
C140 C139 1.393 1_556 S
C140 C141 1.399 . S
C141 C140 1.399 . S
C141 C142 1.381 . S
C142 H134 0.930 . S
C142 C138 1.390 . S
C142 C141 1.381 . S
N143 C136 1.286 . S
N143 C139 1.413 . S
H144 C149 0.930 1_556 S
H145 C152 0.930 . S
H146 C154 0.930 . S
H147 C148 1.016 . S
C148 H147 1.016 . S
C148 N155 1.286 1_554 S
C149 H144 0.930 1_554 S
C149 C150 1.397 . S
C149 C151 1.361 . S
C150 C149 1.397 . S
C150 C154 1.390 . S
C151 C149 1.361 . S
C151 C152 1.393 . S
C151 N155 1.413 1_554 S
C152 H145 0.930 . S
C152 C151 1.393 . S
C152 C153 1.399 . S
C153 C152 1.399 . S
C153 C154 1.381 . S
C154 H146 0.930 . S
C154 C150 1.390 . S
C154 C153 1.381 . S
N155 C148 1.286 1_556 S
N155 C151 1.413 1_556 S
H156 C161 0.930 . S
H157 C164 0.930 . S
H158 C166 0.930 . S
H159 C160 1.016 . S
C160 H159 1.016 . S
C160 N167 1.286 1_554 S
C161 H156 0.930 . S
C161 C162 1.397 1_556 S
C161 C163 1.361 1_556 S
C162 C161 1.397 1_554 S
C162 C166 1.390 . S
C163 C161 1.361 1_554 S
C163 C164 1.393 . S
C163 N167 1.413 1_554 S
C164 H157 0.930 . S
C164 C163 1.393 . S
C164 C165 1.399 . S
C165 C164 1.399 . S
C165 C166 1.381 . S
C166 H158 0.930 . S
C166 C162 1.390 . S
C166 C165 1.381 . S
N167 C160 1.286 1_556 S
N167 C163 1.413 1_556 S
H168 C173 0.930 1_556 S
H169 C176 0.930 . S
H170 C178 0.930 . S
H171 C172 1.016 . S
C172 H171 1.016 . S
C172 N179 1.278 1_554 S
C173 H168 0.930 1_554 S
C173 C174 1.397 . S
C173 C175 1.361 . S
C174 C173 1.397 . S
C174 C178 1.390 . S
C175 C173 1.361 . S
C175 C176 1.393 . S
C175 N179 1.403 1_554 S
C176 H169 0.930 . S
C176 C175 1.393 . S
C176 C177 1.399 . S
C177 C176 1.399 . S
C177 C178 1.381 . S
C178 H170 0.930 . S
C178 C174 1.390 . S
C178 C177 1.381 . S
N179 C172 1.278 1_556 S
N179 C175 1.403 1_556 S
H180 C185 0.930 . S
H181 C188 0.930 . S
H182 C190 0.930 . S
H183 C184 1.016 . S
C184 H183 1.016 . S
C184 N191 1.286 . S
C185 H180 0.930 . S
C185 C186 1.397 . S
C185 C187 1.361 . S
C186 C185 1.397 . S
C186 C190 1.390 . S
C187 C185 1.361 . S
C187 C188 1.393 . S
C187 N191 1.413 . S
C188 H181 0.930 . S
C188 C187 1.393 . S
C188 C189 1.399 . S
C189 C188 1.399 . S
C189 C190 1.381 . S
C190 H182 0.930 . S
C190 C186 1.390 . S
C190 C189 1.381 . S
N191 C184 1.286 . S
N191 C187 1.413 . S
H192 C197 0.930 . S
H193 C200 0.930 . S
H194 C202 0.930 . S
H195 C196 1.016 . S
C196 H195 1.016 . S
C196 N203 1.286 . S
C197 H192 0.930 . S
C197 C198 1.397 . S
C197 C199 1.361 . S
C198 C197 1.397 . S
C198 C202 1.390 . S
C199 C197 1.361 . S
C199 C200 1.393 . S
C199 N203 1.413 . S
C200 H193 0.930 . S
C200 C199 1.393 . S
C200 C201 1.399 . S
C201 C200 1.399 . S
C201 C202 1.381 . S
C202 H194 0.930 . S
C202 C198 1.390 . S
C202 C201 1.381 . S
N203 C196 1.286 . S
N203 C199 1.413 . S
H204 C209 0.930 . S
H205 C212 0.930 . S
H206 C214 0.930 . S
H207 C208 1.016 . S
C208 H207 1.016 . S
C208 N215 1.286 . S
C209 H204 0.930 . S
C209 C210 1.397 . S
C209 C211 1.361 . S
C210 C209 1.397 . S
C210 C214 1.390 . S
C211 C209 1.361 . S
C211 C212 1.393 . S
C211 N215 1.413 . S
C212 H205 0.930 . S
C212 C211 1.393 . S
C212 C213 1.399 . S
C213 C212 1.399 . S
C213 C214 1.381 . S
C214 H206 0.930 . S
C214 C210 1.390 . S
C214 C213 1.381 . S
N215 C208 1.286 . S
N215 C211 1.413 . S
O216 Mg217 1.990 1_545 S
O216 C230 1.253 . S
Mg217 O216 1.990 1_565 S
Mg217 O220 2.180 1_556 S
Mg217 O221 2.117 . S
Mg217 O235 2.030 1_565 S
O218 Mg219 2.072 1_556 S
O218 C230 1.260 . S
Mg219 O218 2.072 1_554 S
Mg219 O220 2.099 1_545 S
Mg219 O222 2.079 1_545 S
Mg219 O223 2.072 1_545 S
Mg219 O225 2.099 . S
Mg219 O236 2.079 . S
O220 Mg217 2.180 1_554 S
O220 Mg219 2.099 1_565 S
O220 C231 1.279 1_554 S
O221 Mg217 2.117 . S
O221 C231 1.250 . S
O222 Mg219 2.079 1_565 S
O222 C232 1.264 . S
O223 Mg219 2.072 1_565 S
O223 C233 1.260 . S
Mg224 O225 2.180 . S
Mg224 O226 2.030 1_545 S
Mg224 O227 1.990 1_545 S
Mg224 O228 2.117 . S
O225 Mg219 2.099 . S
O225 Mg224 2.180 . S
O225 C234 1.279 . S
O226 Mg224 2.030 1_565 S
O226 C232 1.248 . S
O227 Mg224 1.990 1_565 S
O227 C233 1.253 . S
O228 Mg224 2.117 . S
O228 C234 1.250 . S
C229 O235 1.248 1_554 S
C229 O236 1.264 . S
C230 O216 1.253 . S
C230 O218 1.260 . S
C231 O220 1.279 1_556 S
C231 O221 1.250 . S
C232 O222 1.264 . S
C232 O226 1.248 . S
C233 O223 1.260 . S
C233 O227 1.253 . S
C234 O225 1.279 . S
C234 O228 1.250 . S
O235 Mg217 2.030 1_545 S
O235 C229 1.248 1_556 S
O236 Mg219 2.079 . S
O236 C229 1.264 . S
O237 Mg238 1.985 . S
O237 C251 1.255 1_455 S
Mg238 O237 1.985 . S
Mg238 O241 2.180 1_556 S
Mg238 O242 2.117 . S
Mg238 O256 2.030 1_455 S
O239 Mg240 2.073 1_556 S
O239 C251 1.260 . S
Mg240 O239 2.073 1_554 S
Mg240 O241 2.098 1_655 S
Mg240 O243 2.078 1_655 S
Mg240 O244 2.065 1_655 S
Mg240 O246 2.099 . S
Mg240 O257 2.085 . S
O241 Mg238 2.180 1_554 S
O241 Mg240 2.098 1_455 S
O241 C252 1.279 1_554 S
O242 Mg238 2.117 . S
O242 C252 1.250 . S
O243 Mg240 2.078 1_455 S
O243 C253 1.264 . S
O244 Mg240 2.065 1_455 S
O244 C254 1.260 . S
Mg245 O246 2.180 . S
Mg245 O247 2.030 1_655 S
Mg245 O248 1.990 1_655 S
Mg245 O249 2.117 . S
O246 Mg240 2.099 . S
O246 Mg245 2.180 . S
O246 C255 1.279 . S
O247 Mg245 2.030 1_455 S
O247 C253 1.248 . S
O248 Mg245 1.990 1_455 S
O248 C254 1.253 . S
O249 Mg245 2.117 . S
O249 C255 1.250 . S
C250 O256 1.248 1_554 S
C250 O257 1.264 . S
C251 O237 1.255 1_655 S
C251 O239 1.260 . S
C252 O241 1.279 1_556 S
C252 O242 1.250 . S
C253 O243 1.264 . S
C253 O247 1.248 . S
C254 O244 1.260 . S
C254 O248 1.253 . S
C255 O246 1.279 . S
C255 O249 1.250 . S
O256 Mg238 2.030 1_655 S
O256 C250 1.248 1_556 S
O257 Mg240 2.085 . S
O257 C250 1.264 . S
O258 Mg259 1.990 . S
O258 C272 1.253 . S
Mg259 O258 1.990 . S
Mg259 O262 2.180 . S
Mg259 O263 2.117 . S
Mg259 O277 2.030 . S
O260 Mg261 2.072 . S
O260 C272 1.260 . S
Mg261 O260 2.072 . S
Mg261 O262 2.099 . S
Mg261 O264 2.079 1_554 S
Mg261 O265 2.072 . S
Mg261 O267 2.099 1_554 S
Mg261 O278 2.079 1_554 S
O262 Mg259 2.180 . S
O262 Mg261 2.099 . S
O262 C273 1.279 . S
O263 Mg259 2.117 . S
O263 C273 1.250 . S
O264 Mg261 2.079 1_556 S
O264 C274 1.264 . S
O265 Mg261 2.072 . S
O265 C275 1.260 . S
Mg266 O267 2.180 . S
Mg266 O268 2.030 . S
Mg266 O269 1.990 . S
Mg266 O270 2.117 . S
O267 Mg261 2.099 1_556 S
O267 Mg266 2.180 . S
O267 C276 1.279 1_556 S
O268 Mg266 2.030 . S
O268 C274 1.248 . S
O269 Mg266 1.990 . S
O269 C275 1.253 1_556 S
O270 Mg266 2.117 . S
O270 C276 1.250 1_556 S
C271 O277 1.248 . S
C271 O278 1.264 1_554 S
C272 O258 1.253 . S
C272 O260 1.260 . S
C273 O262 1.279 . S
C273 O263 1.250 . S
C274 O264 1.264 . S
C274 O268 1.248 . S
C275 O265 1.260 . S
C275 O269 1.253 1_554 S
C276 O267 1.279 1_554 S
C276 O270 1.250 1_554 S
O277 Mg259 2.030 . S
O277 C271 1.248 . S
O278 Mg261 2.079 1_556 S
O278 C271 1.264 1_556 S
O279 Mg280 1.990 . S
O279 C293 1.253 . S
Mg280 O279 1.990 . S
Mg280 O283 2.180 . S
Mg280 O284 2.117 . S
Mg280 O298 2.030 . S
O281 Mg282 2.072 . S
O281 C293 1.260 . S
Mg282 O281 2.072 . S
Mg282 O283 2.099 . S
Mg282 O285 2.079 . S
Mg282 O286 2.072 . S
Mg282 O288 2.099 . S
Mg282 O299 2.079 . S
O283 Mg280 2.180 . S
O283 Mg282 2.099 . S
O283 C294 1.279 . S
O284 Mg280 2.117 . S
O284 C294 1.250 . S
O285 Mg282 2.079 . S
O285 C295 1.264 . S
O286 Mg282 2.072 . S
O286 C296 1.260 . S
Mg287 O288 2.180 . S
Mg287 O289 2.030 . S
Mg287 O290 1.990 . S
Mg287 O291 2.117 . S
O288 Mg282 2.099 . S
O288 Mg287 2.180 . S
O288 C297 1.279 . S
O289 Mg287 2.030 . S
O289 C295 1.248 . S
O290 Mg287 1.990 . S
O290 C296 1.253 . S
O291 Mg287 2.117 . S
O291 C297 1.250 . S
C292 O298 1.248 . S
C292 O299 1.264 . S
C293 O279 1.253 . S
C293 O281 1.260 . S
C294 O283 1.279 . S
C294 O284 1.250 . S
C295 O285 1.264 . S
C295 O289 1.248 . S
C296 O286 1.260 . S
C296 O290 1.253 . S
C297 O288 1.279 . S
C297 O291 1.250 . S
O298 Mg280 2.030 . S
O298 C292 1.248 . S
O299 Mg282 2.079 . S
O299 C292 1.264 . S
O300 Mg301 1.990 . S
O300 C314 1.253 . S
Mg301 O300 1.990 . S
Mg301 O304 2.180 . S
Mg301 O305 2.117 . S
Mg301 O319 2.030 . S
O302 Mg303 2.072 . S
O302 C314 1.260 . S
Mg303 O302 2.072 . S
Mg303 O304 2.099 . S
Mg303 O306 2.079 . S
Mg303 O307 2.072 . S
Mg303 O309 2.099 . S
Mg303 O320 2.079 . S
O304 Mg301 2.180 . S
O304 Mg303 2.099 . S
O304 C315 1.279 . S
O305 Mg301 2.117 . S
O305 C315 1.250 . S
O306 Mg303 2.079 . S
O306 C316 1.264 . S
O307 Mg303 2.072 . S
O307 C317 1.260 . S
Mg308 O309 2.180 . S
Mg308 O310 2.030 . S
Mg308 O311 1.990 . S
Mg308 O312 2.117 . S
O309 Mg303 2.099 . S
O309 Mg308 2.180 . S
O309 C318 1.279 . S
O310 Mg308 2.030 . S
O310 C316 1.248 . S
O311 Mg308 1.990 . S
O311 C317 1.253 . S
O312 Mg308 2.117 . S
O312 C318 1.250 . S
C313 O319 1.248 . S
C313 O320 1.264 . S
C314 O300 1.253 . S
C314 O302 1.260 . S
C315 O304 1.279 . S
C315 O305 1.250 . S
C316 O306 1.264 . S
C316 O310 1.248 . S
C317 O307 1.260 . S
C317 O311 1.253 . S
C318 O309 1.279 . S
C318 O312 1.250 . S
O319 Mg301 2.030 . S
O319 C313 1.248 . S
O320 Mg303 2.079 . S
O320 C313 1.264 . S
O321 Mg322 1.990 . S
O321 C335 1.253 . S
Mg322 O321 1.990 . S
Mg322 O325 2.180 . S
Mg322 O326 2.117 . S
Mg322 O340 2.030 . S
O323 Mg324 2.072 . S
O323 C335 1.260 . S
Mg324 O323 2.072 . S
Mg324 O325 2.099 . S
Mg324 O327 2.079 . S
Mg324 O328 2.072 . S
Mg324 O330 2.099 . S
Mg324 O341 2.079 . S
O325 Mg322 2.180 . S
O325 Mg324 2.099 . S
O325 C336 1.279 . S
O326 Mg322 2.117 . S
O326 C336 1.250 . S
O327 Mg324 2.079 . S
O327 C337 1.264 . S
O328 Mg324 2.072 . S
O328 C338 1.260 . S
Mg329 O330 2.180 . S
Mg329 O331 2.030 . S
Mg329 O332 1.990 . S
Mg329 O333 2.117 . S
O330 Mg324 2.099 . S
O330 Mg329 2.180 . S
O330 C339 1.279 . S
O331 Mg329 2.030 . S
O331 C337 1.248 . S
O332 Mg329 1.990 . S
O332 C338 1.253 . S
O333 Mg329 2.117 . S
O333 C339 1.250 . S
C334 O340 1.248 . S
C334 O341 1.264 . S
C335 O321 1.253 . S
C335 O323 1.260 . S
C336 O325 1.279 . S
C336 O326 1.250 . S
C337 O327 1.264 . S
C337 O331 1.248 . S
C338 O328 1.260 . S
C338 O332 1.253 . S
C339 O330 1.279 . S
C339 O333 1.250 . S
O340 Mg322 2.030 . S
O340 C334 1.248 . S
O341 Mg324 2.079 . S
O341 C334 1.264 . S
O342 Mg343 1.990 . S
O342 C356 1.253 . S
Mg343 O342 1.990 . S
Mg343 O346 2.180 . S
Mg343 O347 2.117 . S
Mg343 O361 2.030 . S
O344 Mg345 2.072 . S
O344 C356 1.260 . S
Mg345 O344 2.072 . S
Mg345 O346 2.099 . S
Mg345 O348 2.079 . S
Mg345 O349 2.072 . S
Mg345 O351 2.099 . S
Mg345 O362 2.079 . S
O346 Mg343 2.180 . S
O346 Mg345 2.099 . S
O346 C357 1.279 . S
O347 Mg343 2.117 . S
O347 C357 1.250 . S
O348 Mg345 2.079 . S
O348 C358 1.264 . S
O349 Mg345 2.072 . S
O349 C359 1.260 . S
Mg350 O351 2.180 . S
Mg350 O352 2.030 . S
Mg350 O353 1.990 . S
Mg350 O354 2.117 . S
O351 Mg345 2.099 . S
O351 Mg350 2.180 . S
O351 C360 1.279 . S
O352 Mg350 2.030 . S
O352 C358 1.248 . S
O353 Mg350 1.990 . S
O353 C359 1.253 . S
O354 Mg350 2.117 . S
O354 C360 1.250 . S
C355 O361 1.248 . S
C355 O362 1.264 . S
C356 O342 1.253 . S
C356 O344 1.260 . S
C357 O346 1.279 . S
C357 O347 1.250 . S
C358 O348 1.264 . S
C358 O352 1.248 . S
C359 O349 1.260 . S
C359 O353 1.253 . S
C360 O351 1.279 . S
C360 O354 1.250 . S
O361 Mg343 2.030 . S
O361 C355 1.248 . S
O362 Mg345 2.079 . S
O362 C355 1.264 . S
O363 Mg364 1.990 . S
O363 C377 1.253 . S
Mg364 O363 1.990 . S
Mg364 O367 2.180 . S
Mg364 O368 2.117 . S
Mg364 O382 2.030 . S
O365 Mg366 2.072 . S
O365 C377 1.260 . S
Mg366 O365 2.072 . S
Mg366 O367 2.099 . S
Mg366 O369 2.079 . S
Mg366 O370 2.072 . S
Mg366 O372 2.099 . S
Mg366 O383 2.079 . S
O367 Mg364 2.180 . S
O367 Mg366 2.099 . S
O367 C378 1.279 . S
O368 Mg364 2.117 . S
O368 C378 1.250 . S
O369 Mg366 2.079 . S
O369 C379 1.264 . S
O370 Mg366 2.072 . S
O370 C380 1.260 . S
Mg371 O372 2.180 . S
Mg371 O373 2.030 . S
Mg371 O374 1.990 . S
Mg371 O375 2.117 . S
O372 Mg366 2.099 . S
O372 Mg371 2.180 . S
O372 C381 1.279 . S
O373 Mg371 2.030 . S
O373 C379 1.248 . S
O374 Mg371 1.990 . S
O374 C380 1.253 . S
O375 Mg371 2.117 . S
O375 C381 1.250 . S
C376 O382 1.248 . S
C376 O383 1.264 . S
C377 O363 1.253 . S
C377 O365 1.260 . S
C378 O367 1.279 . S
C378 O368 1.250 . S
C379 O369 1.264 . S
C379 O373 1.248 . S
C380 O370 1.260 . S
C380 O374 1.253 . S
C381 O372 1.279 . S
C381 O375 1.250 . S
O382 Mg364 2.030 . S
O382 C376 1.248 . S
O383 Mg366 2.079 . S
O383 C376 1.264 . S
O384 Mg385 1.990 . S
O384 C398 1.253 . S
Mg385 O384 1.990 . S
Mg385 O388 2.180 . S
Mg385 O389 2.117 . S
Mg385 O403 2.030 . S
O386 Mg387 2.072 . S
O386 C398 1.260 . S
Mg387 O386 2.072 . S
Mg387 O388 2.099 . S
Mg387 O390 2.079 . S
Mg387 O391 2.072 . S
Mg387 O393 2.099 . S
Mg387 O404 2.079 . S
O388 Mg385 2.180 . S
O388 Mg387 2.099 . S
O388 C399 1.279 . S
O389 Mg385 2.117 . S
O389 C399 1.250 . S
O390 Mg387 2.079 . S
O390 C400 1.264 . S
O391 Mg387 2.072 . S
O391 C401 1.260 . S
Mg392 O393 2.180 . S
Mg392 O394 2.030 . S
Mg392 O395 1.990 . S
Mg392 O396 2.117 . S
O393 Mg387 2.099 . S
O393 Mg392 2.180 . S
O393 C402 1.279 . S
O394 Mg392 2.030 . S
O394 C400 1.248 . S
O395 Mg392 1.990 . S
O395 C401 1.253 . S
O396 Mg392 2.117 . S
O396 C402 1.250 . S
C397 O403 1.248 . S
C397 O404 1.264 . S
C398 O384 1.253 . S
C398 O386 1.260 . S
C399 O388 1.279 . S
C399 O389 1.250 . S
C400 O390 1.264 . S
C400 O394 1.248 . S
C401 O391 1.260 . S
C401 O395 1.253 . S
C402 O393 1.279 . S
C402 O396 1.250 . S
O403 Mg385 2.030 . S
O403 C397 1.248 . S
O404 Mg387 2.079 . S
O404 C397 1.264 . S
C405 C406 1.369 . S
C405 C407 1.419 . S
C405 H409 0.930 . S
C406 C405 1.369 . S
C406 C415 1.429 1_554 S
C407 C405 1.419 . S
C407 C408 1.363 . S
C407 H410 0.929 . S
C408 C407 1.363 . S
C408 C414 1.428 1_554 S
H409 C405 0.930 . S
H410 C407 0.929 . S
S411 N412 1.613 . S
S411 N413 1.610 . S
N412 S411 1.613 . S
N412 C415 1.350 . S
N413 S411 1.610 . S
N413 C414 1.351 . S
C414 C408 1.428 1_556 S
C414 N413 1.351 . S
C414 C415 1.434 . S
C415 C406 1.429 1_556 S
C415 N412 1.350 . S
C415 C414 1.434 . S
C416 C417 1.369 1_556 S
C416 C418 1.419 . S
C416 H420 0.930 . S
C417 C416 1.369 1_554 S
C417 C426 1.429 . S
C418 C416 1.419 . S
C418 C419 1.363 1_556 S
C418 H421 0.929 . S
C419 C418 1.363 1_554 S
C419 C425 1.428 . S
H420 C416 0.930 . S
H421 C418 0.929 . S
S422 N423 1.613 . S
S422 N424 1.610 . S
N423 S422 1.613 . S
N423 C426 1.350 . S
N424 S422 1.610 . S
N424 C425 1.351 . S
C425 C419 1.428 . S
C425 N424 1.351 . S
C425 C426 1.434 . S
C426 C417 1.429 . S
C426 N423 1.350 . S
C426 C425 1.434 . S
C427 C428 1.369 . S
C427 C429 1.419 . S
C427 H431 0.930 . S
C428 C427 1.369 . S
C428 C437 1.429 . S
C429 C427 1.419 . S
C429 C430 1.363 . S
C429 H432 0.929 . S
C430 C429 1.363 . S
C430 C436 1.428 . S
H431 C427 0.930 . S
H432 C429 0.929 . S
S433 N434 1.613 . S
S433 N435 1.610 . S
N434 S433 1.613 . S
N434 C437 1.350 1_556 S
N435 S433 1.610 . S
N435 C436 1.351 1_556 S
C436 C430 1.428 . S
C436 N435 1.351 1_554 S
C436 C437 1.434 . S
C437 C428 1.429 . S
C437 N434 1.350 1_554 S
C437 C436 1.434 . S
C438 C439 1.369 1_556 S
C438 C440 1.419 . S
C438 H442 0.930 . S
C439 C438 1.369 1_554 S
C439 C448 1.429 . S
C440 C438 1.419 . S
C440 C441 1.363 1_556 S
C440 H443 0.929 . S
C441 C440 1.363 1_554 S
C441 C447 1.428 . S
H442 C438 0.930 . S
H443 C440 0.929 . S
S444 N445 1.613 . S
S444 N446 1.610 . S
N445 S444 1.613 . S
N445 C448 1.350 . S
N446 S444 1.610 . S
N446 C447 1.351 . S
C447 C441 1.428 . S
C447 N446 1.351 . S
C447 C448 1.434 . S
C448 C439 1.429 . S
C448 N445 1.350 . S
C448 C447 1.434 . S
C449 C450 1.369 . S
C449 C451 1.419 . S
C449 H453 0.930 . S
C450 C449 1.369 . S
C450 C459 1.429 1_554 S
C451 C449 1.419 . S
C451 C452 1.363 . S
C451 H454 0.929 . S
C452 C451 1.363 . S
C452 C458 1.428 1_554 S
H453 C449 0.930 . S
H454 C451 0.929 . S
S455 N456 1.613 . S
S455 N457 1.610 . S
N456 S455 1.613 . S
N456 C459 1.350 . S
N457 S455 1.610 . S
N457 C458 1.351 . S
C458 C452 1.428 1_556 S
C458 N457 1.351 . S
C458 C459 1.434 . S
C459 C450 1.429 1_556 S
C459 N456 1.350 . S
C459 C458 1.434 . S
C460 C461 1.369 . S
C460 C462 1.419 . S
C460 H464 0.930 . S
C461 C460 1.369 . S
C461 C470 1.429 1_554 S
C462 C460 1.419 . S
C462 C463 1.363 . S
C462 H465 0.929 . S
C463 C462 1.363 . S
C463 C469 1.428 1_554 S
H464 C460 0.930 . S
H465 C462 0.929 . S
S466 N467 1.613 . S
S466 N468 1.610 . S
N467 S466 1.613 . S
N467 C470 1.350 . S
N468 S466 1.610 . S
N468 C469 1.351 . S
C469 C463 1.428 1_556 S
C469 N468 1.351 . S
C469 C470 1.434 . S
C470 C461 1.429 1_556 S
C470 N467 1.350 . S
C470 C469 1.434 . S
C471 C472 1.369 1_556 S
C471 C473 1.419 . S
C471 H475 0.930 . S
C472 C471 1.369 1_554 S
C472 C481 1.429 . S
C473 C471 1.419 . S
C473 C474 1.363 1_556 S
C473 H476 0.929 . S
C474 C473 1.363 1_554 S
C474 C480 1.428 . S
H475 C471 0.930 . S
H476 C473 0.929 . S
S477 N478 1.613 . S
S477 N479 1.610 . S
N478 S477 1.613 . S
N478 C481 1.350 . S
N479 S477 1.610 . S
N479 C480 1.351 . S
C480 C474 1.428 . S
C480 N479 1.351 . S
C480 C481 1.434 . S
C481 C472 1.429 . S
C481 N478 1.350 . S
C481 C480 1.434 . S
C482 C483 1.369 . S
C482 C484 1.419 . S
C482 H486 0.930 . S
C483 C482 1.369 . S
C483 C492 1.429 1_554 S
C484 C482 1.419 . S
C484 C485 1.363 . S
C484 H487 0.929 . S
C485 C484 1.363 . S
C485 C491 1.428 1_554 S
H486 C482 0.930 . S
H487 C484 0.929 . S
S488 N489 1.613 . S
S488 N490 1.610 . S
N489 S488 1.613 . S
N489 C492 1.350 . S
N490 S488 1.610 . S
N490 C491 1.351 . S
C491 C485 1.428 1_556 S
C491 N490 1.351 . S
C491 C492 1.434 . S
C492 C483 1.429 1_556 S
C492 N489 1.350 . S
C492 C491 1.434 . S
C493 C494 1.369 . S
C493 C495 1.417 1_554 S
C493 H497 0.930 1_554 S
C494 C493 1.369 . S
C494 C503 1.429 . S
C495 C493 1.417 1_556 S
C495 C496 1.352 1_556 S
C495 H498 0.943 . S
C496 C495 1.352 1_554 S
C496 C502 1.428 . S
H497 C493 0.930 1_556 S
H498 C495 0.943 . S
S499 N500 1.613 . S
S499 N501 1.610 . S
N500 S499 1.613 . S
N500 C503 1.350 . S
N501 S499 1.610 . S
N501 C502 1.351 . S
C502 C496 1.428 . S
C502 N501 1.351 . S
C502 C503 1.434 . S
C503 C494 1.429 . S
C503 N500 1.350 . S
C503 C502 1.434 . S
C504 C505 1.369 1_554 S
C504 C506 1.419 . S
C504 H508 0.930 . S
C505 C504 1.369 1_556 S
C505 C514 1.429 . S
C506 C504 1.419 . S
C506 C507 1.363 . S
C506 H509 0.929 . S
C507 C506 1.363 . S
C507 C513 1.428 1_554 S
H508 C504 0.930 . S
H509 C506 0.929 . S
S510 N511 1.613 . S
S510 N512 1.610 . S
N511 S510 1.613 . S
N511 C514 1.350 . S
N512 S510 1.610 . S
N512 C513 1.351 . S
C513 C507 1.428 1_556 S
C513 N512 1.351 . S
C513 C514 1.434 . S
C514 C505 1.429 . S
C514 N511 1.350 . S
C514 C513 1.434 . S
C515 C516 1.369 . S
C515 C517 1.419 . S
C515 H519 0.930 . S
C516 C515 1.369 . S
C516 C525 1.429 1_554 S
C517 C515 1.419 . S
C517 C518 1.363 . S
C517 H520 0.929 . S
C518 C517 1.363 . S
C518 C524 1.428 1_554 S
H519 C515 0.930 . S
H520 C517 0.929 . S
S521 N522 1.613 . S
S521 N523 1.610 . S
N522 S521 1.613 . S
N522 C525 1.350 . S
N523 S521 1.610 . S
N523 C524 1.351 . S
C524 C518 1.428 1_556 S
C524 N523 1.351 . S
C524 C525 1.434 . S
C525 C516 1.429 1_556 S
C525 N522 1.350 . S
C525 C524 1.434 . S
C526 C527 1.369 . S
C526 C528 1.419 . S
C526 H530 0.930 . S
C527 C526 1.369 . S
C527 C536 1.429 1_554 S
C528 C526 1.419 . S
C528 C529 1.363 . S
C528 H531 0.929 . S
C529 C528 1.363 . S
C529 C535 1.428 1_554 S
H530 C526 0.930 . S
H531 C528 0.929 . S
S532 N533 1.613 . S
S532 N534 1.610 . S
N533 S532 1.613 . S
N533 C536 1.350 . S
N534 S532 1.610 . S
N534 C535 1.351 . S
C535 C529 1.428 1_556 S
C535 N534 1.351 . S
C535 C536 1.434 . S
C536 C527 1.429 1_556 S
C536 N533 1.350 . S
C536 C535 1.434 . S
C537 C538 1.369 . S
C537 C539 1.419 1_655 S
C537 H541 0.930 . S
C538 C537 1.369 . S
C538 C547 1.429 . S
C539 C537 1.419 1_455 S
C539 C540 1.363 . S
C539 H542 0.929 . S
C540 C539 1.363 . S
C540 C546 1.428 . S
H541 C537 0.930 . S
H542 C539 0.929 . S
S543 N544 1.613 1_455 S
S543 N545 1.610 . S
N544 S543 1.613 1_655 S
N544 C547 1.350 . S
N545 S543 1.610 . S
N545 C546 1.351 . S
C546 C540 1.428 . S
C546 N545 1.351 . S
C546 C547 1.434 1_455 S
C547 C538 1.429 . S
C547 N544 1.350 . S
C547 C546 1.434 1_655 S
C548 C549 1.369 . S
C548 C550 1.419 . S
C548 H552 0.930 . S
C549 C548 1.369 . S
C549 C558 1.429 . S
C550 C548 1.419 . S
C550 C551 1.363 . S
C550 H553 0.929 . S
C551 C550 1.363 . S
C551 C557 1.428 . S
H552 C548 0.930 . S
H553 C550 0.929 . S
S554 N555 1.613 . S
S554 N556 1.610 . S
N555 S554 1.613 . S
N555 C558 1.350 . S
N556 S554 1.610 . S
N556 C557 1.351 . S
C557 C551 1.428 . S
C557 N556 1.351 . S
C557 C558 1.434 . S
C558 C549 1.429 . S
C558 N555 1.350 . S
C558 C557 1.434 . S
C559 C560 1.369 . S
C559 C561 1.419 1_545 S
C559 H563 0.930 . S
C560 C559 1.369 . S
C560 C569 1.429 . S
C561 C559 1.419 1_565 S
C561 C562 1.363 . S
C561 H564 0.929 . S
C562 C561 1.363 . S
C562 C568 1.428 . S
H563 C559 0.930 . S
H564 C561 0.929 . S
S565 N566 1.613 1_565 S
S565 N567 1.610 . S
N566 S565 1.613 1_545 S
N566 C569 1.350 . S
N567 S565 1.610 . S
N567 C568 1.351 . S
C568 C562 1.428 . S
C568 N567 1.351 . S
C568 C569 1.434 1_565 S
C569 C560 1.429 . S
C569 N566 1.350 . S
C569 C568 1.434 1_545 S
C570 C571 1.369 . S
C570 C572 1.419 . S
C570 H574 0.930 . S
C571 C570 1.369 . S
C571 C580 1.429 . S
C572 C570 1.419 . S
C572 C573 1.363 . S
C572 H575 0.929 . S
C573 C572 1.363 . S
C573 C579 1.428 . S
H574 C570 0.930 . S
H575 C572 0.929 . S
S576 N577 1.613 . S
S576 N578 1.610 . S
N577 S576 1.613 . S
N577 C580 1.350 . S
N578 S576 1.610 . S
N578 C579 1.351 . S
C579 C573 1.428 . S
C579 N578 1.351 . S
C579 C580 1.434 . S
C580 C571 1.429 . S
C580 N577 1.350 . S
C580 C579 1.434 . S
C581 C582 1.369 . S
C581 C583 1.419 . S
C581 H585 0.930 . S
C582 C581 1.369 . S
C582 C591 1.429 . S
C583 C581 1.419 . S
C583 C584 1.363 . S
C583 H586 0.929 . S
C584 C583 1.363 . S
C584 C590 1.428 . S
H585 C581 0.930 . S
H586 C583 0.929 . S
S587 N588 1.613 . S
S587 N589 1.610 . S
N588 S587 1.613 . S
N588 C591 1.350 . S
N589 S587 1.610 . S
N589 C590 1.351 . S
C590 C584 1.428 . S
C590 N589 1.351 . S
C590 C591 1.434 . S
C591 C582 1.429 . S
C591 N588 1.350 . S
C591 C590 1.434 . S
C592 C593 1.369 . S
C592 C594 1.419 . S
C592 H596 0.930 . S
C593 C592 1.369 . S
C593 C602 1.429 . S
C594 C592 1.419 . S
C594 C595 1.363 . S
C594 H597 0.929 . S
C595 C594 1.363 . S
C595 C601 1.428 . S
H596 C592 0.930 . S
H597 C594 0.929 . S
S598 N599 1.613 . S
S598 N600 1.610 . S
N599 S598 1.613 . S
N599 C602 1.350 . S
N600 S598 1.610 . S
N600 C601 1.351 . S
C601 C595 1.428 . S
C601 N600 1.351 . S
C601 C602 1.434 . S
C602 C593 1.429 . S
C602 N599 1.350 . S
C602 C601 1.434 . S
C603 C604 1.369 . S
C603 C605 1.419 . S
C603 H607 0.930 . S
C604 C603 1.369 . S
C604 C613 1.429 . S
C605 C603 1.419 . S
C605 C606 1.363 . S
C605 H608 0.929 . S
C606 C605 1.363 . S
C606 C612 1.428 . S
H607 C603 0.930 . S
H608 C605 0.929 . S
S609 N610 1.613 . S
S609 N611 1.610 . S
N610 S609 1.613 . S
N610 C613 1.350 . S
N611 S609 1.610 . S
N611 C612 1.351 . S
C612 C606 1.428 . S
C612 N611 1.351 . S
C612 C613 1.434 . S
C613 C604 1.429 . S
C613 N610 1.350 . S
C613 C612 1.434 . S
C614 C615 1.369 . S
C614 C616 1.419 . S
C614 H618 0.930 . S
C615 C614 1.369 . S
C615 C624 1.429 . S
C616 C614 1.419 . S
C616 C617 1.363 . S
C616 H619 0.929 . S
C617 C616 1.363 . S
C617 C623 1.428 . S
H618 C614 0.930 . S
H619 C616 0.929 . S
S620 N621 1.613 . S
S620 N622 1.610 . S
N621 S620 1.613 . S
N621 C624 1.350 . S
N622 S620 1.610 . S
N622 C623 1.351 . S
C623 C617 1.428 . S
C623 N622 1.351 . S
C623 C624 1.434 . S
C624 C615 1.429 . S
C624 N621 1.350 . S
C624 C623 1.434 . S
C625 C626 1.369 . S
C625 C627 1.419 . S
C625 H629 0.930 . S
C626 C625 1.369 . S
C626 C635 1.429 . S
C627 C625 1.419 . S
C627 C628 1.363 . S
C627 H630 0.929 . S
C628 C627 1.363 . S
C628 C634 1.428 . S
H629 C625 0.930 . S
H630 C627 0.929 . S
S631 N632 1.613 . S
S631 N633 1.610 . S
N632 S631 1.613 . S
N632 C635 1.350 . S
N633 S631 1.610 . S
N633 C634 1.351 . S
C634 C628 1.428 . S
C634 N633 1.351 . S
C634 C635 1.434 . S
C635 C626 1.429 . S
C635 N632 1.350 . S
C635 C634 1.434 . S
C636 C637 1.370 . S
C636 C638 1.419 . S
C636 H640 0.930 . S
C637 C636 1.370 . S
C637 C646 1.431 . S
C638 C636 1.419 . S
C638 C639 1.363 . S
C638 H641 0.929 . S
C639 C638 1.363 . S
C639 C645 1.428 . S
H640 C636 0.930 . S
H641 C638 0.929 . S
S642 N643 1.613 . S
S642 N644 1.610 . S
N643 S642 1.613 . S
N643 C646 1.350 . S
N644 S642 1.610 . S
N644 C645 1.351 . S
C645 C639 1.428 . S
C645 N644 1.351 . S
C645 C646 1.434 . S
C646 C637 1.431 . S
C646 N643 1.350 . S
C646 C645 1.434 . S
C647 C648 1.369 1_455 S
C647 C649 1.419 . S
C647 H651 0.930 . S
C648 C647 1.369 1_655 S
C648 C657 1.429 1_655 S
C649 C647 1.419 . S
C649 C650 1.363 . S
C649 H652 0.929 . S
C650 C649 1.363 . S
C650 C656 1.428 . S
H651 C647 0.930 . S
H652 C649 0.929 . S
S653 N654 1.612 . S
S653 N655 1.610 . S
N654 S653 1.612 . S
N654 C657 1.350 . S
N655 S653 1.610 . S
N655 C656 1.351 . S
C656 C650 1.428 . S
C656 N655 1.351 . S
C656 C657 1.434 . S
C657 C648 1.429 1_455 S
C657 N654 1.350 . S
C657 C656 1.434 . S
C658 C659 1.369 . S
C658 C660 1.419 . S
C658 H662 0.930 . S
C659 C658 1.369 . S
C659 C668 1.429 . S
C660 C658 1.419 . S
C660 C661 1.363 . S
C660 H663 0.929 . S
C661 C660 1.363 . S
C661 C667 1.428 . S
H662 C658 0.930 . S
H663 C660 0.929 . S
S664 N665 1.613 . S
S664 N666 1.610 . S
N665 S664 1.613 . S
N665 C668 1.350 . S
N666 S664 1.610 . S
N666 C667 1.351 . S
C667 C661 1.428 . S
C667 N666 1.351 . S
C667 C668 1.434 . S
C668 C659 1.429 . S
C668 N665 1.350 . S
C668 C667 1.434 . S
C669 C670 1.369 . S
C669 C671 1.419 . S
C669 H673 0.930 . S
C670 C669 1.369 . S
C670 C679 1.429 . S
C671 C669 1.419 . S
C671 C672 1.363 . S
C671 H674 0.929 . S
C672 C671 1.363 . S
C672 C678 1.428 . S
H673 C669 0.930 . S
H674 C671 0.929 . S
S675 N676 1.613 . S
S675 N677 1.610 . S
N676 S675 1.613 . S
N676 C679 1.350 . S
N677 S675 1.610 . S
N677 C678 1.351 . S
C678 C672 1.428 . S
C678 N677 1.351 . S
C678 C679 1.434 . S
C679 C670 1.429 . S
C679 N676 1.350 . S
C679 C678 1.434 . S
C680 C681 1.369 . S
C680 C682 1.419 . S
C680 H684 0.930 . S
C681 C680 1.369 . S
C681 C690 1.429 . S
C682 C680 1.419 . S
C682 C683 1.363 . S
C682 H685 0.929 . S
C683 C682 1.363 . S
C683 C689 1.428 . S
H684 C680 0.930 . S
H685 C682 0.929 . S
S686 N687 1.613 . S
S686 N688 1.610 . S
N687 S686 1.613 . S
N687 C690 1.350 . S
N688 S686 1.610 . S
N688 C689 1.351 . S
C689 C683 1.428 . S
C689 N688 1.351 . S
C689 C690 1.434 . S
C690 C681 1.429 . S
C690 N687 1.350 . S
C690 C689 1.434 . S
C691 C692 1.369 . S
C691 C693 1.419 . S
C691 H695 0.930 . S
C692 C691 1.369 . S
C692 C701 1.429 . S
C693 C691 1.419 . S
C693 C694 1.363 . S
C693 H696 0.929 . S
C694 C693 1.363 . S
C694 C700 1.428 . S
H695 C691 0.930 . S
H696 C693 0.929 . S
S697 N698 1.613 . S
S697 N699 1.610 . S
N698 S697 1.613 . S
N698 C701 1.350 . S
N699 S697 1.610 . S
N699 C700 1.351 . S
C700 C694 1.428 . S
C700 N699 1.351 . S
C700 C701 1.434 . S
C701 C692 1.429 . S
C701 N698 1.350 . S
C701 C700 1.434 . S
C702 C703 1.369 . S
C702 C704 1.419 1_565 S
C702 H706 0.930 . S
C703 C702 1.369 . S
C703 C712 1.429 . S
C704 C702 1.419 1_545 S
C704 C705 1.363 . S
C704 H707 0.929 . S
C705 C704 1.363 . S
C705 C711 1.428 . S
H706 C702 0.930 . S
H707 C704 0.929 . S
S708 N709 1.613 1_545 S
S708 N710 1.610 . S
N709 S708 1.613 1_565 S
N709 C712 1.350 . S
N710 S708 1.610 . S
N710 C711 1.351 . S
C711 C705 1.428 . S
C711 N710 1.351 . S
C711 C712 1.434 1_545 S
C712 C703 1.429 . S
C712 N709 1.350 . S
C712 C711 1.434 1_565 S
C713 C714 1.369 . S
C713 C715 1.419 1_455 S
C713 H717 0.930 . S
C714 C713 1.369 . S
C714 C723 1.429 . S
C715 C713 1.419 1_655 S
C715 C716 1.363 . S
C715 H718 0.929 . S
C716 C715 1.363 . S
C716 C722 1.428 . S
H717 C713 0.930 . S
H718 C715 0.929 . S
S719 N720 1.613 . S
S719 N721 1.610 1_455 S
N720 S719 1.613 . S
N720 C723 1.350 . S
N721 S719 1.610 1_655 S
N721 C722 1.351 . S
C722 C716 1.428 . S
C722 N721 1.351 . S
C722 C723 1.434 1_655 S
C723 C714 1.429 . S
C723 N720 1.350 . S
C723 C722 1.434 1_455 S
C724 C725 1.369 . S
C724 C726 1.419 . S
C724 H728 0.930 . S
C725 C724 1.369 . S
C725 C734 1.429 . S
C726 C724 1.419 . S
C726 C727 1.363 . S
C726 H729 0.929 . S
C727 C726 1.363 . S
C727 C733 1.428 . S
H728 C724 0.930 . S
H729 C726 0.929 . S
S730 N731 1.613 . S
S730 N732 1.610 . S
N731 S730 1.613 . S
N731 C734 1.350 . S
N732 S730 1.610 . S
N732 C733 1.351 . S
C733 C727 1.428 . S
C733 N732 1.351 . S
C733 C734 1.434 . S
C734 C725 1.429 . S
C734 N731 1.350 . S
C734 C733 1.434 . S
C735 C736 1.369 1_655 S
C735 C737 1.419 . S
C735 H739 0.930 1_655 S
C736 C735 1.369 1_455 S
C736 C745 1.429 1_455 S
C737 C735 1.419 . S
C737 C738 1.363 . S
C737 H740 0.929 . S
C738 C737 1.363 . S
C738 C744 1.428 . S
H739 C735 0.930 1_455 S
H740 C737 0.929 . S
S741 N742 1.613 1_655 S
S741 N743 1.610 . S
N742 S741 1.613 1_455 S
N742 C745 1.350 1_455 S
N743 S741 1.610 . S
N743 C744 1.351 . S
C744 C738 1.428 . S
C744 N743 1.351 . S
C744 C745 1.434 . S
C745 C736 1.429 1_655 S
C745 N742 1.350 1_655 S
C745 C744 1.434 . S
C746 C747 1.369 . S
C746 C748 1.419 . S
C746 H750 0.930 . S
C747 C746 1.369 . S
C747 C756 1.429 . S
C748 C746 1.419 . S
C748 C749 1.363 . S
C748 H751 0.929 . S
C749 C748 1.363 . S
C749 C755 1.428 . S
H750 C746 0.930 . S
H751 C748 0.929 . S
S752 N753 1.613 . S
S752 N754 1.610 . S
N753 S752 1.613 . S
N753 C756 1.350 . S
N754 S752 1.610 . S
N754 C755 1.351 . S
C755 C749 1.428 . S
C755 N754 1.351 . S
C755 C756 1.434 . S
C756 C747 1.429 . S
C756 N753 1.350 . S
C756 C755 1.434 . S
C757 C758 1.369 . S
C757 C759 1.419 . S
C757 H761 0.930 . S
C758 C757 1.369 . S
C758 C767 1.429 . S
C759 C757 1.419 . S
C759 C760 1.363 . S
C759 H762 0.929 . S
C760 C759 1.363 . S
C760 C766 1.428 . S
H761 C757 0.930 . S
H762 C759 0.929 . S
S763 N764 1.613 . S
S763 N765 1.610 . S
N764 S763 1.613 . S
N764 C767 1.350 . S
N765 S763 1.610 . S
N765 C766 1.351 . S
C766 C760 1.428 . S
C766 N765 1.351 . S
C766 C767 1.434 . S
C767 C758 1.429 . S
C767 N764 1.350 . S
C767 C766 1.434 . S
C768 C769 1.369 . S
C768 C770 1.419 . S
C768 H772 0.930 . S
C769 C768 1.369 . S
C769 C778 1.429 . S
C770 C768 1.419 . S
C770 C771 1.363 . S
C770 H773 0.929 . S
C771 C770 1.363 . S
C771 C777 1.428 . S
H772 C768 0.930 . S
H773 C770 0.929 . S
S774 N775 1.613 . S
S774 N776 1.610 . S
N775 S774 1.613 . S
N775 C778 1.350 . S
N776 S774 1.610 . S
N776 C777 1.351 . S
C777 C771 1.428 . S
C777 N776 1.351 . S
C777 C778 1.434 . S
C778 C769 1.429 . S
C778 N775 1.350 . S
C778 C777 1.434 . S
C779 C780 1.369 . S
C779 C781 1.419 . S
C779 H783 0.930 . S
C780 C779 1.369 . S
C780 C789 1.429 . S
C781 C779 1.419 . S
C781 C782 1.363 . S
C781 H784 0.929 . S
C782 C781 1.363 . S
C782 C788 1.428 . S
H783 C779 0.930 . S
H784 C781 0.929 . S
S785 N786 1.613 . S
S785 N787 1.610 . S
N786 S785 1.613 . S
N786 C789 1.350 . S
N787 S785 1.610 . S
N787 C788 1.351 . S
C788 C782 1.428 . S
C788 N787 1.351 . S
C788 C789 1.434 . S
C789 C780 1.429 . S
C789 N786 1.350 . S
C789 C788 1.434 . S
C790 C791 1.369 . S
C790 C792 1.419 . S
C790 H794 0.930 . S
C791 C790 1.369 . S
C791 C800 1.429 . S
C792 C790 1.419 . S
C792 C793 1.363 . S
C792 H795 0.929 . S
C793 C792 1.363 . S
C793 C799 1.428 . S
H794 C790 0.930 . S
H795 C792 0.929 . S
S796 N797 1.613 . S
S796 N798 1.610 . S
N797 S796 1.613 . S
N797 C800 1.350 . S
N798 S796 1.610 . S
N798 C799 1.351 . S
C799 C793 1.428 . S
C799 N798 1.351 . S
C799 C800 1.434 . S
C800 C791 1.429 . S
C800 N797 1.350 . S
C800 C799 1.434 . S
C801 C802 1.369 . S
C801 C803 1.419 . S
C801 H805 0.930 . S
C802 C801 1.369 . S
C802 C811 1.429 . S
C803 C801 1.419 . S
C803 C804 1.363 . S
C803 H806 0.929 . S
C804 C803 1.363 . S
C804 C810 1.428 . S
H805 C801 0.930 . S
H806 C803 0.929 . S
S807 N808 1.613 1_545 S
S807 N809 1.610 . S
N808 S807 1.613 1_565 S
N808 C811 1.350 . S
N809 S807 1.610 . S
N809 C810 1.351 1_545 S
C810 C804 1.428 . S
C810 N809 1.351 1_565 S
C810 C811 1.434 . S
C811 C802 1.429 . S
C811 N808 1.350 . S
C811 C810 1.434 . S
C812 C813 1.369 . S
C812 C814 1.419 . S
C812 H816 0.930 . S
C813 C812 1.369 . S
C813 C822 1.429 . S
C814 C812 1.419 . S
C814 C815 1.363 . S
C814 H817 0.929 . S
C815 C814 1.363 . S
C815 C821 1.428 . S
H816 C812 0.930 . S
H817 C814 0.929 . S
S818 N819 1.613 . S
S818 N820 1.610 . S
N819 S818 1.613 . S
N819 C822 1.350 . S
N820 S818 1.610 . S
N820 C821 1.351 . S
C821 C815 1.428 . S
C821 N820 1.351 . S
C821 C822 1.434 . S
C822 C813 1.429 . S
C822 N819 1.350 . S
C822 C821 1.434 . S
C823 C824 1.369 . S
C823 C825 1.419 . S
C823 H827 0.930 . S
C824 C823 1.369 . S
C824 C833 1.429 . S
C825 C823 1.419 . S
C825 C826 1.363 . S
C825 H828 0.929 . S
C826 C825 1.363 . S
C826 C832 1.428 . S
H827 C823 0.930 . S
H828 C825 0.929 . S
S829 N830 1.613 . S
S829 N831 1.610 . S
N830 S829 1.613 . S
N830 C833 1.350 . S
N831 S829 1.610 . S
N831 C832 1.351 . S
C832 C826 1.428 . S
C832 N831 1.351 . S
C832 C833 1.434 . S
C833 C824 1.429 . S
C833 N830 1.350 . S
C833 C832 1.434 . S
C834 C835 1.369 . S
C834 C836 1.419 . S
C834 H838 0.930 . S
C835 C834 1.369 . S
C835 C844 1.429 . S
C836 C834 1.419 . S
C836 C837 1.363 . S
C836 H839 0.929 . S
C837 C836 1.363 . S
C837 C843 1.428 . S
H838 C834 0.930 . S
H839 C836 0.929 . S
S840 N841 1.613 . S
S840 N842 1.610 . S
N841 S840 1.613 . S
N841 C844 1.350 . S
N842 S840 1.610 . S
N842 C843 1.351 . S
C843 C837 1.428 . S
C843 N842 1.351 . S
C843 C844 1.434 . S
C844 C835 1.429 . S
C844 N841 1.350 . S
C844 C843 1.434 . S
C845 C846 1.369 . S
C845 C847 1.419 . S
C845 H849 0.930 . S
C846 C845 1.369 . S
C846 C855 1.429 . S
C847 C845 1.419 . S
C847 C848 1.363 . S
C847 H850 0.929 . S
C848 C847 1.363 . S
C848 C854 1.428 . S
H849 C845 0.930 . S
H850 C847 0.929 . S
S851 N852 1.613 . S
S851 N853 1.610 . S
N852 S851 1.613 . S
N852 C855 1.350 . S
N853 S851 1.610 . S
N853 C854 1.351 . S
C854 C848 1.428 . S
C854 N853 1.351 . S
C854 C855 1.434 . S
C855 C846 1.429 . S
C855 N852 1.350 . S
C855 C854 1.434 . S
C856 C857 1.369 . S
C856 C858 1.419 . S
C856 H860 0.930 . S
C857 C856 1.369 . S
C857 C866 1.429 . S
C858 C856 1.419 . S
C858 C859 1.363 . S
C858 H861 0.929 . S
C859 C858 1.363 . S
C859 C865 1.428 . S
H860 C856 0.930 . S
H861 C858 0.929 . S
S862 N863 1.613 1_565 S
S862 N864 1.605 1_565 S
N863 S862 1.613 1_545 S
N863 C866 1.350 . S
N864 S862 1.605 1_545 S
N864 C865 1.362 . S
C865 C859 1.428 . S
C865 N864 1.362 . S
C865 C866 1.434 . S
C866 C857 1.429 . S
C866 N863 1.350 . S
C866 C865 1.434 . S
C867 C868 1.369 . S
C867 C869 1.419 . S
C867 H871 0.930 . S
C868 C867 1.369 . S
C868 C877 1.429 . S
C869 C867 1.419 . S
C869 C870 1.363 . S
C869 H872 0.929 . S
C870 C869 1.363 . S
C870 C876 1.428 . S
H871 C867 0.930 . S
H872 C869 0.929 . S
S873 N874 1.613 . S
S873 N875 1.610 . S
N874 S873 1.613 . S
N874 C877 1.350 . S
N875 S873 1.610 . S
N875 C876 1.351 . S
C876 C870 1.428 . S
C876 N875 1.351 . S
C876 C877 1.434 . S
C877 C868 1.429 . S
C877 N874 1.350 . S
C877 C876 1.434 . S
C878 C879 1.369 . S
C878 C880 1.419 . S
C878 H882 0.930 . S
C879 C878 1.369 . S
C879 C888 1.429 . S
C880 C878 1.419 . S
C880 C881 1.363 . S
C880 H883 0.929 . S
C881 C880 1.363 . S
C881 C887 1.428 . S
H882 C878 0.930 . S
H883 C880 0.929 . S
S884 N885 1.613 . S
S884 N886 1.610 . S
N885 S884 1.613 . S
N885 C888 1.350 . S
N886 S884 1.610 . S
N886 C887 1.351 . S
C887 C881 1.428 . S
C887 N886 1.351 . S
C887 C888 1.434 . S
C888 C879 1.429 . S
C888 N885 1.350 . S
C888 C887 1.434 . S
C889 C890 1.369 . S
C889 C891 1.419 . S
C889 H893 0.930 . S
C890 C889 1.369 . S
C890 C899 1.429 . S
C891 C889 1.419 . S
C891 C892 1.363 . S
C891 H894 0.929 . S
C892 C891 1.363 . S
C892 C898 1.428 . S
H893 C889 0.930 . S
H894 C891 0.929 . S
S895 N896 1.613 . S
S895 N897 1.610 . S
N896 S895 1.613 . S
N896 C899 1.350 . S
N897 S895 1.610 . S
N897 C898 1.351 . S
C898 C892 1.428 . S
C898 N897 1.351 . S
C898 C899 1.434 . S
C899 C890 1.429 . S
C899 N896 1.350 . S
C899 C898 1.434 . S
C900 C901 1.369 . S
C900 C902 1.419 . S
C900 H904 0.930 . S
C901 C900 1.369 . S
C901 C910 1.429 . S
C902 C900 1.419 . S
C902 C903 1.363 . S
C902 H905 0.929 . S
C903 C902 1.363 . S
C903 C909 1.428 . S
H904 C900 0.930 . S
H905 C902 0.929 . S
S906 N907 1.613 . S
S906 N908 1.610 . S
N907 S906 1.613 . S
N907 C910 1.350 . S
N908 S906 1.610 . S
N908 C909 1.351 . S
C909 C903 1.428 . S
C909 N908 1.351 . S
C909 C910 1.434 . S
C910 C901 1.429 . S
C910 N907 1.350 . S
C910 C909 1.434 . S
C911 C912 1.369 . S
C911 C913 1.419 . S
C911 H915 0.930 . S
C912 C911 1.369 . S
C912 C921 1.429 . S
C913 C911 1.419 . S
C913 C914 1.363 . S
C913 H916 0.929 . S
C914 C913 1.363 . S
C914 C920 1.428 . S
H915 C911 0.930 . S
H916 C913 0.929 . S
S917 N918 1.613 . S
S917 N919 1.610 . S
N918 S917 1.613 . S
N918 C921 1.350 . S
N919 S917 1.610 . S
N919 C920 1.351 . S
C920 C914 1.428 . S
C920 N919 1.351 . S
C920 C921 1.434 . S
C921 C912 1.429 . S
C921 N918 1.350 . S
C921 C920 1.434 . S
C922 C923 1.369 . S
C922 C924 1.419 . S
C922 H926 0.930 . S
C923 C922 1.369 . S
C923 C932 1.429 . S
C924 C922 1.419 . S
C924 C925 1.363 . S
C924 H927 0.929 . S
C925 C924 1.363 . S
C925 C931 1.428 . S
H926 C922 0.930 . S
H927 C924 0.929 . S
S928 N929 1.613 . S
S928 N930 1.610 . S
N929 S928 1.613 . S
N929 C932 1.350 . S
N930 S928 1.610 . S
N930 C931 1.351 . S
C931 C925 1.428 . S
C931 N930 1.351 . S
C931 C932 1.434 . S
C932 C923 1.429 . S
C932 N929 1.350 . S
C932 C931 1.434 . S
C933 C934 1.369 . S
C933 C935 1.419 . S
C933 H937 0.930 . S
C934 C933 1.369 . S
C934 C943 1.429 . S
C935 C933 1.419 . S
C935 C936 1.363 . S
C935 H938 0.929 . S
C936 C935 1.363 . S
C936 C942 1.428 . S
H937 C933 0.930 . S
H938 C935 0.929 . S
S939 N940 1.613 . S
S939 N941 1.610 . S
N940 S939 1.613 . S
N940 C943 1.350 . S
N941 S939 1.610 . S
N941 C942 1.351 . S
C942 C936 1.428 . S
C942 N941 1.351 . S
C942 C943 1.434 . S
C943 C934 1.429 . S
C943 N940 1.350 . S
C943 C942 1.434 . S
C944 C945 1.369 . S
C944 C946 1.419 . S
C944 H948 0.930 . S
C945 C944 1.369 . S
C945 C954 1.429 . S
C946 C944 1.419 . S
C946 C947 1.363 . S
C946 H949 0.929 . S
C947 C946 1.363 . S
C947 C953 1.428 . S
H948 C944 0.930 . S
H949 C946 0.929 . S
S950 N951 1.613 . S
S950 N952 1.610 . S
N951 S950 1.613 . S
N951 C954 1.350 . S
N952 S950 1.610 . S
N952 C953 1.351 . S
C953 C947 1.428 . S
C953 N952 1.351 . S
C953 C954 1.434 . S
C954 C945 1.429 . S
C954 N951 1.350 . S
C954 C953 1.434 . S
C955 C956 1.369 . S
C955 C957 1.419 . S
C955 H959 0.930 . S
C956 C955 1.369 . S
C956 C965 1.429 . S
C957 C955 1.419 . S
C957 C958 1.363 . S
C957 H960 0.929 . S
C958 C957 1.363 . S
C958 C964 1.428 . S
H959 C955 0.930 . S
H960 C957 0.929 . S
S961 N962 1.613 . S
S961 N963 1.610 . S
N962 S961 1.613 . S
N962 C965 1.350 . S
N963 S961 1.610 . S
N963 C964 1.351 . S
C964 C958 1.428 . S
C964 N963 1.351 . S
C964 C965 1.434 . S
C965 C956 1.429 . S
C965 N962 1.350 . S
C965 C964 1.434 . S
C966 C967 1.369 . S
C966 C968 1.419 . S
C966 H970 0.930 . S
C967 C966 1.369 . S
C967 C976 1.429 . S
C968 C966 1.419 . S
C968 C969 1.363 . S
C968 H971 0.929 . S
C969 C968 1.363 . S
C969 C975 1.428 . S
H970 C966 0.930 . S
H971 C968 0.929 . S
S972 N973 1.613 . S
S972 N974 1.610 . S
N973 S972 1.613 . S
N973 C976 1.350 . S
N974 S972 1.610 . S
N974 C975 1.351 . S
C975 C969 1.428 . S
C975 N974 1.351 . S
C975 C976 1.434 . S
C976 C967 1.429 . S
C976 N973 1.350 . S
C976 C975 1.434 . S
C977 C978 1.369 . S
C977 C979 1.419 . S
C977 H981 0.930 . S
C978 C977 1.369 . S
C978 C987 1.429 . S
C979 C977 1.419 . S
C979 C980 1.363 . S
C979 H982 0.929 . S
C980 C979 1.363 . S
C980 C986 1.428 . S
H981 C977 0.930 . S
H982 C979 0.929 . S
S983 N984 1.613 . S
S983 N985 1.610 . S
N984 S983 1.613 . S
N984 C987 1.350 . S
N985 S983 1.610 . S
N985 C986 1.351 . S
C986 C980 1.428 . S
C986 N985 1.351 . S
C986 C987 1.434 . S
C987 C978 1.429 . S
C987 N984 1.350 . S
C987 C986 1.434 . S
C988 C989 1.369 . S
C988 C990 1.419 . S
C988 H992 0.930 . S
C989 C988 1.369 . S
C989 C998 1.429 . S
C990 C988 1.419 . S
C990 C991 1.363 . S
C990 H993 0.929 . S
C991 C990 1.363 . S
C991 C997 1.428 . S
H992 C988 0.930 . S
H993 C990 0.929 . S
S994 N995 1.613 . S
S994 N996 1.610 . S
N995 S994 1.613 . S
N995 C998 1.350 . S
N996 S994 1.610 . S
N996 C997 1.351 . S
C997 C991 1.428 . S
C997 N996 1.351 . S
C997 C998 1.434 . S
C998 C989 1.429 . S
C998 N995 1.350 . S
C998 C997 1.434 . S
C406 C162 1.459 . S
C408 C233 1.432 . S
C417 C174 1.439 . S
C419 C254 1.400 . S
C428 C150 1.413 . S
C430 C276 1.252 . S
C439 C138 1.405 1_554 S
C441 C255 1.233 . S
C452 C275 1.411 . S
C450 C114 1.444 . S
C461 C126 1.417 . S
C463 C234 1.263 . S
C474 C229 1.445 . S
C472 C136 1.475 . S
C485 C250 1.450 . S
C483 C112 1.444 . S
C494 C124 1.520 . S
C496 C273 1.272 . S
C505 C160 1.494 1_556 S
C507 C252 1.260 1_554 S
C516 C172 1.453 . S
C518 C271 1.430 . S
C529 C231 1.277 1_554 S
C527 C148 1.527 . S
C540 C296 1.434 . S
C538 C18 1.458 . S
C549 C30 1.440 . S
C551 C317 1.406 . S
C560 C6 1.409 . S
C562 C339 1.266 . S
C571 C210 1.404 . S
C573 C318 1.232 . S
C582 C186 1.449 . S
C584 C338 1.415 . S
C593 C198 1.418 . S
C595 C297 1.263 . S
C604 C208 1.472 . S
C606 C292 1.438 . S
C615 C184 1.441 . S
C617 C313 1.446 . S
C628 C336 1.275 . S
C626 C196 1.519 . S
C637 C16 1.487 1_565 S
C639 C315 1.275 . S
C650 C334 1.428 . S
C648 C28 1.452 . S
C659 C4 1.519 . S
C661 C294 1.282 . S
C672 C359 1.434 . S
C670 C90 1.459 . S
C681 C102 1.439 . S
C683 C380 1.405 . S
C694 C402 1.264 . S
C692 C78 1.412 . S
C705 C381 1.243 . S
C703 C66 1.397 . S
C716 C401 1.410 . S
C714 C42 1.450 . S
C725 C54 1.423 . S
C727 C360 1.252 . S
C736 C64 1.467 . S
C738 C355 1.443 . S
C747 C40 1.448 . S
C749 C376 1.451 . S
C760 C399 1.278 . S
C758 C52 1.517 1_545 S
C769 C88 1.491 . S
C771 C378 1.274 . S
C780 C100 1.452 . S
C782 C397 1.434 . S
C791 C76 1.520 . S
C793 C357 1.280 . S
C802 C189 1.501 . S
C804 C232 1.484 . S
C815 C253 1.528 . S
C813 C201 1.541 . S
C824 C213 1.551 . S
C826 C272 1.490 . S
C835 C81 1.609 . S
C837 C251 1.548 . S
C846 C93 1.563 . S
C848 C274 1.546 . S
C859 C230 1.508 . S
C857 C105 1.575 . S
C868 C45 1.504 . S
C870 C295 1.489 . S
C879 C57 1.540 . S
C881 C316 1.526 . S
C890 C69 1.555 . S
C892 C335 1.486 . S
C901 C153 1.609 . S
C903 C314 1.548 . S
C914 C337 1.546 . S
C912 C165 1.563 . S
C923 C177 1.571 . S
C925 C293 1.514 . S
C934 C117 1.501 . S
C936 C358 1.487 . S
C945 C129 1.537 . S
C947 C379 1.524 . S
C958 C398 1.486 . S
C956 C141 1.553 . S
C967 C9 1.612 . S
C969 C377 1.541 . S
C978 C21 1.562 . S
C980 C400 1.545 . S
C989 C33 1.571 . S
C991 C356 1.514 . S
