# Generated by pormake.
# Topology pyr, (3,6)-cn, num edge types: 1
# Building blocks:
#     Node 0, Type 0, BuildingBlock: BELTOD_clean_linker_0, # of connection points: 3
#     Node 1, Type 0, BuildingBlock: BELTOD_clean_linker_0, # of connection points: 3
#     Node 2, Type 0, BuildingBlock: BELTOD_clean_linker_0, # of connection points: 3
#     Node 3, Type 0, BuildingBlock: BELTOD_clean_linker_0, # of connection points: 3
#     Node 4, Type 0, BuildingBlock: BELTOD_clean_linker_0, # of connection points: 3
#     Node 5, Type 0, BuildingBlock: BELTOD_clean_linker_0, # of connection points: 3
#     Node 6, Type 0, BuildingBlock: BELTOD_clean_linker_0, # of connection points: 3
#     Node 7, Type 0, BuildingBlock: BELTOD_clean_linker_0, # of connection points: 3
#     Node 8, Type 1, BuildingBlock: BETDEL_clean_sbu_0, # of connection points: 6
#     Node 9, Type 1, BuildingBlock: BETDEL_clean_sbu_0, # of connection points: 6
#     Node 10, Type 1, BuildingBlock: BETDEL_clean_sbu_0, # of connection points: 6
#     Node 11, Type 1, BuildingBlock: BETDEL_clean_sbu_0, # of connection points: 6
#     Edge 12, Type (0, 1), BuildingBlock: TEMPAE_clean_linker_10, # of connection points: 2
#     Edge 13, Type (0, 1), BuildingBlock: TEMPAE_clean_linker_10, # of connection points: 2
#     Edge 14, Type (0, 1), BuildingBlock: TEMPAE_clean_linker_10, # of connection points: 2
#     Edge 15, Type (0, 1), BuildingBlock: TEMPAE_clean_linker_10, # of connection points: 2
#     Edge 16, Type (0, 1), BuildingBlock: TEMPAE_clean_linker_10, # of connection points: 2
#     Edge 17, Type (0, 1), BuildingBlock: TEMPAE_clean_linker_10, # of connection points: 2
#     Edge 18, Type (0, 1), BuildingBlock: TEMPAE_clean_linker_10, # of connection points: 2
#     Edge 19, Type (0, 1), BuildingBlock: TEMPAE_clean_linker_10, # of connection points: 2
#     Edge 20, Type (0, 1), BuildingBlock: TEMPAE_clean_linker_10, # of connection points: 2
#     Edge 21, Type (0, 1), BuildingBlock: TEMPAE_clean_linker_10, # of connection points: 2
#     Edge 22, Type (0, 1), BuildingBlock: TEMPAE_clean_linker_10, # of connection points: 2
#     Edge 23, Type (0, 1), BuildingBlock: TEMPAE_clean_linker_10, # of connection points: 2
#     Edge 24, Type (0, 1), BuildingBlock: TEMPAE_clean_linker_10, # of connection points: 2
#     Edge 25, Type (0, 1), BuildingBlock: TEMPAE_clean_linker_10, # of connection points: 2
#     Edge 26, Type (0, 1), BuildingBlock: TEMPAE_clean_linker_10, # of connection points: 2
#     Edge 27, Type (0, 1), BuildingBlock: TEMPAE_clean_linker_10, # of connection points: 2
#     Edge 28, Type (0, 1), BuildingBlock: TEMPAE_clean_linker_10, # of connection points: 2
#     Edge 29, Type (0, 1), BuildingBlock: TEMPAE_clean_linker_10, # of connection points: 2
#     Edge 30, Type (0, 1), BuildingBlock: TEMPAE_clean_linker_10, # of connection points: 2
#     Edge 31, Type (0, 1), BuildingBlock: TEMPAE_clean_linker_10, # of connection points: 2
#     Edge 32, Type (0, 1), BuildingBlock: TEMPAE_clean_linker_10, # of connection points: 2
#     Edge 33, Type (0, 1), BuildingBlock: TEMPAE_clean_linker_10, # of connection points: 2
#     Edge 34, Type (0, 1), BuildingBlock: TEMPAE_clean_linker_10, # of connection points: 2
#     Edge 35, Type (0, 1), BuildingBlock: TEMPAE_clean_linker_10, # of connection points: 2
# Relax obj value: 0.027
# Max RMSD: 0.092
# Mean RMSD: 0.040
data_MOF--net-pyr--node1-BETDEL_clean_sbu_0--node2-BELTOD_clean_linker_0--edge1-TEMPAE_clean_linker_10
_symmetry_space_group_name_H-M    P1
_symmetry_Int_Tables_number       1
_symmetry_cell_setting            triclinic
loop_
_symmetry_equiv_pos_as_xyz
'x, y, z'
_cell_length_a     42.240673
_cell_length_b     44.39389
_cell_length_c     40.290637
_cell_angle_alpha  91.793048
_cell_angle_beta   89.416824
_cell_angle_gamma 94.831284
loop_
_atom_site_label
_atom_site_type_symbol
_atom_site_fract_x
_atom_site_fract_y
_atom_site_fract_z
_atom_type_partial_charge
P0 P 0.24318 0.2413 0.22106 0.0
H1 H 0.30825 0.24321 0.19619 0.0
H2 H 0.33849 0.20565 0.16708 0.0
H3 H 0.2569 0.14028 0.17186 0.0
H4 H 0.22692 0.17781 0.20104 0.0
H5 H 0.2191 0.30065 0.22502 0.0
H6 H 0.19044 0.32877 0.18564 0.0
H7 H 0.20284 0.25942 0.10998 0.0
H8 H 0.23052 0.23102 0.1498 0.0
H9 H 0.24284 0.20738 0.2815 0.0
H10 H 0.17362 0.23406 0.21259 0.0
O11 O 0.26682 0.26333 0.24631 0.0
H12 H 0.20076 0.17842 0.31178 0.0
H13 H 0.1314 0.20621 0.24334 0.0
C14 C 0.2657 0.21305 0.20146 0.0
C15 C 0.29704 0.22069 0.19126 0.0
C16 C 0.31414 0.19932 0.17438 0.0
C17 C 0.30004 0.17001 0.16729 0.0
C18 C 0.26851 0.16253 0.17742 0.0
C19 C 0.2514 0.18397 0.19416 0.0
C20 C 0.22736 0.26406 0.19021 0.0
C21 C 0.21621 0.29186 0.19975 0.0
C22 C 0.19991 0.30792 0.17716 0.0
C23 C 0.19442 0.29635 0.14461 0.0
C24 C 0.20644 0.26881 0.13492 0.0
C25 C 0.22258 0.25269 0.15762 0.0
C26 C 0.21138 0.22317 0.24512 0.0
C27 C 0.2185 0.20751 0.27333 0.0
C28 C 0.19439 0.19108 0.29066 0.0
C29 C 0.16265 0.19008 0.28004 0.0
C30 C 0.1556 0.20626 0.25198 0.0
C31 C 0.17978 0.22249 0.23454 0.0
P32 P 0.32112 0.85669 0.62693 0.0
H33 H 0.32667 0.91381 0.66412 0.0
H34 H 0.33557 0.92706 0.72284 0.0
H35 H 0.33232 0.83219 0.74471 0.0
H36 H 0.32302 0.81908 0.68606 0.0
H37 H 0.38046 0.8339 0.60453 0.0
H38 H 0.3968 0.78307 0.59408 0.0
H39 H 0.30231 0.74537 0.61923 0.0
H40 H 0.28591 0.79674 0.62948 0.0
H41 H 0.2977 0.87105 0.56237 0.0
H42 H 0.25848 0.85504 0.6601 0.0
O43 O 0.34664 0.88095 0.6073 0.0
H44 H 0.24637 0.8855 0.54377 0.0
H45 H 0.20696 0.86978 0.64167 0.0
C46 C 0.32489 0.86554 0.67064 0.0
C47 C 0.32772 0.89587 0.6816 0.0
C48 C 0.33286 0.9034 0.71511 0.0
C49 C 0.33504 0.88065 0.73829 0.0
C50 C 0.33066 0.85019 0.72744 0.0
C51 C 0.32559 0.84269 0.69383 0.0
C52 C 0.33182 0.81906 0.61712 0.0
C53 C 0.36306 0.81478 0.6073 0.0
C54 C 0.37239 0.7857 0.60134 0.0
C55 C 0.35075 0.76028 0.60559 0.0
C56 C 0.31945 0.76459 0.61577 0.0
C57 C 0.31002 0.79384 0.62138 0.0
C58 C 0.282 0.86263 0.61273 0.0
C59 C 0.27794 0.87043 0.57975 0.0
C60 C 0.24866 0.87881 0.56921 0.0
C61 C 0.22283 0.87929 0.59145 0.0
C62 C 0.22646 0.86968 0.62403 0.0
C63 C 0.25591 0.86139 0.6346 0.0
P64 P 0.67078 0.29944 0.81217 0.0
H65 H 0.73653 0.28765 0.82436 0.0
H66 H 0.77941 0.31515 0.85589 0.0
H67 H 0.71555 0.38152 0.88792 0.0
H68 H 0.67253 0.35378 0.85605 0.0
H69 H 0.63446 0.24304 0.79345 0.0
H70 H 0.60702 0.20285 0.82555 0.0
H71 H 0.62614 0.25587 0.91592 0.0
H72 H 0.65348 0.29623 0.88351 0.0
H73 H 0.69199 0.35257 0.77556 0.0
H74 H 0.6024 0.30406 0.79947 0.0
O75 O 0.68873 0.27971 0.78264 0.0
H76 H 0.66515 0.38496 0.73931 0.0
H77 H 0.57497 0.3371 0.76384 0.0
C78 C 0.70153 0.319 0.83738 0.0
C79 C 0.73169 0.30812 0.83811 0.0
C80 C 0.75623 0.3239 0.85608 0.0
C81 C 0.75095 0.35068 0.87407 0.0
C82 C 0.72031 0.36094 0.87432 0.0
C83 C 0.69579 0.34522 0.85604 0.0
C84 C 0.64648 0.27243 0.83608 0.0
C85 C 0.63255 0.24616 0.82014 0.0
C86 C 0.61705 0.22309 0.83856 0.0
C87 C 0.61493 0.22589 0.87338 0.0
C88 C 0.62746 0.25297 0.88916 0.0
C89 C 0.64315 0.27606 0.87064 0.0
C90 C 0.6492 0.32619 0.79063 0.0
C91 C 0.66635 0.34942 0.77367 0.0
C92 C 0.65088 0.36803 0.75294 0.0
C93 C 0.61777 0.36381 0.74856 0.0
C94 C 0.60051 0.34085 0.76629 0.0
C95 C 0.61612 0.3221 0.78698 0.0
P96 P 0.79737 0.68653 0.29421 0.0
H97 H 0.83753 0.73819 0.27123 0.0
H98 H 0.8688 0.7798 0.30031 0.0
H99 H 0.84628 0.73815 0.39393 0.0
H100 H 0.81618 0.69599 0.36476 0.0
H101 H 0.80817 0.68692 0.22256 0.0
H102 H 0.83889 0.657 0.18464 0.0
H103 H 0.86823 0.606 0.26702 0.0
H104 H 0.83844 0.63736 0.30518 0.0
H105 H 0.75678 0.70502 0.34835 0.0
H106 H 0.77771 0.62098 0.29976 0.0
O107 O 0.77383 0.70557 0.27103 0.0
H108 H 0.71825 0.67767 0.38428 0.0
H109 H 0.73879 0.59347 0.33532 0.0
C110 C 0.82383 0.71438 0.31584 0.0
C111 C 0.83972 0.73777 0.29797 0.0
C112 C 0.85759 0.76149 0.31456 0.0
C113 C 0.85953 0.76233 0.34936 0.0
C114 C 0.84472 0.73821 0.36711 0.0
C115 C 0.8274 0.71418 0.35042 0.0
C116 C 0.82026 0.6638 0.26662 0.0
C117 C 0.82107 0.66923 0.23254 0.0
C118 C 0.8386 0.65191 0.21075 0.0
C119 C 0.85571 0.62861 0.22252 0.0
C120 C 0.8555 0.62378 0.25696 0.0
C121 C 0.83822 0.64147 0.27883 0.0
C122 C 0.77107 0.66506 0.32212 0.0
C123 C 0.75348 0.6806 0.34576 0.0
C124 C 0.73116 0.66494 0.36606 0.0
C125 C 0.72545 0.63332 0.36277 0.0
C126 C 0.74304 0.61775 0.33894 0.0
C127 C 0.76544 0.63351 0.3186 0.0
P128 P 0.84262 0.86945 0.9169 0.0
H129 H 0.79723 0.87456 0.9707 0.0
H130 H 0.74035 0.88052 0.97212 0.0
H131 H 0.73761 0.87209 0.86499 0.0
H132 H 0.79476 0.86628 0.8638 0.0
H133 H 0.88933 0.84954 0.96249 0.0
H134 H 0.905 0.79968 0.97551 0.0
H135 H 0.83397 0.7585 0.90781 0.0
H136 H 0.81752 0.80858 0.89611 0.0
H137 H 0.84515 0.92463 0.88002 0.0
H138 H 0.87608 0.83493 0.86542 0.0
O139 O 0.85796 0.89523 0.9446 0.0
H140 H 0.86593 0.93804 0.82506 0.0
H141 H 0.89715 0.84827 0.81084 0.0
C142 C 0.80026 0.87082 0.91718 0.0
C143 C 0.78433 0.87377 0.94755 0.0
C144 C 0.75175 0.87686 0.9483 0.0
C145 C 0.73449 0.87687 0.91862 0.0
C146 C 0.75036 0.87252 0.88821 0.0
C147 C 0.78301 0.86928 0.88753 0.0
C148 C 0.85211 0.83263 0.9286 0.0
C149 C 0.87679 0.82975 0.95088 0.0
C150 C 0.88594 0.80121 0.95802 0.0
C151 C 0.87092 0.77505 0.94252 0.0
C152 C 0.84576 0.77809 0.92055 0.0
C153 C 0.83639 0.80668 0.91374 0.0
C154 C 0.85907 0.87887 0.87685 0.0
C155 C 0.8566 0.90791 0.86508 0.0
C156 C 0.86859 0.91556 0.83377 0.0
C157 C 0.88324 0.8942 0.81367 0.0
C158 C 0.8857 0.86509 0.82561 0.0
C159 C 0.87373 0.85749 0.85696 0.0
P160 P 0.77785 0.24195 0.30116 0.0
H161 H 0.78401 0.29407 0.34728 0.0
H162 H 0.74491 0.32485 0.37417 0.0
H163 H 0.66896 0.26544 0.33115 0.0
H164 H 0.70783 0.23491 0.30455 0.0
H165 H 0.8399 0.21853 0.29465 0.0
H166 H 0.8685 0.18529 0.32865 0.0
H167 H 0.79182 0.1826 0.40063 0.0
H168 H 0.76312 0.21546 0.36609 0.0
H169 H 0.75741 0.25292 0.23404 0.0
H170 H 0.7532 0.17813 0.30017 0.0
O171 O 0.80342 0.2669 0.28264 0.0
H172 H 0.72491 0.22199 0.19379 0.0
H173 H 0.72134 0.14694 0.25988 0.0
C174 C 0.74893 0.26253 0.32347 0.0
C175 C 0.75893 0.28759 0.34388 0.0
C176 C 0.73659 0.30507 0.3593 0.0
C177 C 0.70388 0.29773 0.35442 0.0
C178 C 0.694 0.27195 0.33487 0.0
C179 C 0.71631 0.25441 0.31969 0.0
C180 C 0.79973 0.21991 0.32819 0.0
C181 C 0.82948 0.21112 0.31799 0.0
C182 C 0.84582 0.19216 0.33749 0.0
C183 C 0.83252 0.18139 0.36744 0.0
C184 C 0.80263 0.19034 0.37759 0.0
C185 C 0.78632 0.20936 0.35805 0.0
C186 C 0.75825 0.21764 0.26976 0.0
C187 C 0.75014 0.22962 0.23953 0.0
C188 C 0.73157 0.21192 0.21656 0.0
C189 C 0.72054 0.18202 0.22366 0.0
C190 C 0.72922 0.16998 0.25381 0.0
C191 C 0.74776 0.1877 0.27673 0.0
P192 P 0.37244 0.65356 0.13961 0.0
H193 H 0.34845 0.61144 0.08658 0.0
H194 H 0.2952 0.59433 0.06778 0.0
H195 H 0.25546 0.65306 0.14189 0.0
H196 H 0.30929 0.66967 0.16116 0.0
H197 H 0.39661 0.68298 0.0802 0.0
H198 H 0.41102 0.73549 0.06677 0.0
H199 H 0.38254 0.76384 0.16546 0.0
H200 H 0.36694 0.71093 0.17823 0.0
H201 H 0.34389 0.60428 0.17908 0.0
H202 H 0.41449 0.67939 0.19302 0.0
O203 O 0.39803 0.63395 0.11786 0.0
H204 H 0.35717 0.58508 0.23262 0.0
H205 H 0.42677 0.66135 0.24764 0.0
C206 C 0.33284 0.64179 0.12535 0.0
C207 C 0.32837 0.62073 0.09882 0.0
C208 C 0.2978 0.61109 0.08789 0.0
C209 C 0.27095 0.62239 0.10318 0.0
C210 C 0.27556 0.64368 0.12974 0.0
C211 C 0.30628 0.65332 0.14068 0.0
C212 C 0.38174 0.69294 0.13059 0.0
C213 C 0.39353 0.70047 0.09902 0.0
C214 C 0.4019 0.73058 0.0914 0.0
C215 C 0.39862 0.75401 0.11521 0.0
C216 C 0.38546 0.74646 0.14649 0.0
C217 C 0.37682 0.71617 0.15399 0.0
C218 C 0.3774 0.64387 0.18237 0.0
C219 C 0.36145 0.61732 0.19423 0.0
C220 C 0.36912 0.60632 0.22505 0.0
C221 C 0.39308 0.62159 0.24481 0.0
C222 C 0.40847 0.64868 0.23311 0.0
C223 C 0.40104 0.65942 0.20203 0.0
P224 P 0.19782 0.31205 0.706 0.0
H225 H 0.21483 0.25651 0.67303 0.0
H226 H 0.18441 0.21504 0.64384 0.0
H227 H 0.09794 0.25807 0.66493 0.0
H228 H 0.12908 0.30048 0.69231 0.0
H229 H 0.22943 0.37312 0.71343 0.0
H230 H 0.26663 0.40288 0.67771 0.0
H231 H 0.25412 0.33342 0.60054 0.0
H232 H 0.21652 0.30419 0.6357 0.0
H233 H 0.18128 0.30336 0.77563 0.0
H234 H 0.16139 0.36539 0.69988 0.0
O235 O 0.22507 0.29642 0.728 0.0
H236 H 0.15131 0.33183 0.81612 0.0
H237 H 0.13176 0.39451 0.7405 0.0
C238 C 0.17426 0.28152 0.685 0.0
C239 C 0.18931 0.25704 0.67128 0.0
C240 C 0.17175 0.23313 0.65481 0.0
C241 C 0.1385 0.23281 0.65219 0.0
C242 C 0.12349 0.25756 0.66601 0.0
C243 C 0.14125 0.28179 0.682 0.0
C244 C 0.21965 0.33656 0.67721 0.0
C245 C 0.23389 0.3647 0.68845 0.0
C246 C 0.25522 0.38167 0.66808 0.0
C247 C 0.2633 0.37037 0.63642 0.0
C248 C 0.24841 0.34258 0.6249 0.0
C249 C 0.22676 0.32588 0.64506 0.0
C250 C 0.17419 0.33268 0.73496 0.0
C251 C 0.17058 0.32325 0.76775 0.0
C252 C 0.15354 0.33964 0.79094 0.0
C253 C 0.13948 0.36574 0.78174 0.0
C254 C 0.14221 0.37451 0.74844 0.0
C255 C 0.15932 0.35802 0.72523 0.0
Dy256 Dy 0.0045 0.01229 0.466 0.0
C257 C 0.95508 0.96389 0.58812 0.0
C258 C 0.02379 0.04459 0.41195 0.0
Dy259 Dy 0.97481 0.99239 0.53173 0.0
O260 O 0.03528 0.01986 0.4208 0.0
O261 O 0.00132 0.0514 0.43234 0.0
O262 O 0.03562 0.974 0.46593 0.0
O263 O 0.02284 0.99447 0.51131 0.0
C264 C 0.0367 0.97297 0.49809 0.0
C265 C 0.9438 0.03229 0.49904 0.0
O266 O 0.00595 0.03167 0.55178 0.0
O267 O 0.02082 0.05144 0.50065 0.0
O268 O 0.93722 0.97835 0.56924 0.0
O269 O 0.98377 0.96481 0.5761 0.0
O270 O 0.94505 0.03209 0.53123 0.0
O271 O 0.95696 0.0102 0.48647 0.0
O272 O 0.97026 0.97477 0.44705 0.0
O273 O 0.96406 0.95148 0.49775 0.0
C274 C 0.02001 0.05337 0.53362 0.0
C275 C 0.96093 0.95103 0.46495 0.0
Dy276 Dy 0.52046 0.01883 0.04577 0.0
C277 C 0.42353 0.95329 0.95648 0.0
C278 C 0.56618 0.0558 0.07696 0.0
Dy279 Dy 0.46721 0.98965 0.99149 0.0
O280 O 0.5679 0.0271 0.0704 0.0
O281 O 0.53937 0.06433 0.06651 0.0
O282 O 0.51111 0.98101 0.08277 0.0
O283 O 0.48579 0.98107 0.03951 0.0
C284 C 0.48901 0.9662 0.06497 0.0
C285 C 0.49885 0.04196 0.97182 0.0
O286 O 0.4378 0.01065 0.03145 0.0
O287 O 0.47718 0.04174 0.05986 0.0
O288 O 0.41961 0.98068 0.96722 0.0
O289 O 0.45114 0.94559 0.96552 0.0
O290 O 0.47658 0.02714 0.95436 0.0
O291 O 0.50202 0.02741 0.99754 0.0
O292 O 0.54935 0.99827 0.00574 0.0
O293 O 0.51061 0.96564 0.97872 0.0
C294 C 0.44699 0.03277 0.05333 0.0
C295 C 0.54073 0.9752 0.98503 0.0
Dy296 Dy 0.5096 0.47478 0.48417 0.0
C297 C 0.4529 0.56751 0.56011 0.0
C298 C 0.54703 0.43653 0.45078 0.0
Dy299 Dy 0.48852 0.52668 0.52845 0.0
O300 O 0.51944 0.42854 0.4638 0.0
O301 O 0.55385 0.46535 0.45563 0.0
O302 O 0.45908 0.45457 0.48122 0.0
O303 O 0.47523 0.47837 0.52458 0.0
C304 C 0.45117 0.46536 0.5103 0.0
C305 C 0.54649 0.5367 0.50089 0.0
O306 O 0.50471 0.49724 0.56795 0.0
O307 O 0.53512 0.46916 0.53245 0.0
O308 O 0.48361 0.5676 0.56192 0.0
O309 O 0.44165 0.54474 0.54153 0.0
O310 O 0.53883 0.54817 0.52964 0.0
O311 O 0.52223 0.52312 0.48776 0.0
O312 O 0.48864 0.50054 0.44421 0.0
O313 O 0.46518 0.53481 0.47955 0.0
C314 C 0.52658 0.47778 0.5629 0.0
C315 C 0.47007 0.52292 0.4494 0.0
Dy316 Dy 0.00862 0.46628 0.01907 0.0
C317 C 0.95934 0.57538 0.97905 0.0
C318 C 0.04039 0.41747 0.03343 0.0
Dy319 Dy 0.98954 0.52492 0.99043 0.0
O320 O 0.01761 0.42762 0.0513 0.0
O321 O 0.04548 0.43373 0.0074 0.0
O322 O 0.97275 0.47005 0.06024 0.0
O323 O 0.99565 0.50931 0.04029 0.0
C324 C 0.97426 0.4994 0.06013 0.0
C325 C 0.02483 0.49215 0.95003 0.0
O326 O 0.03465 0.54379 0.01468 0.0
O327 O 0.05331 0.49741 0.0257 0.0
O328 O 0.97411 0.56023 0.95651 0.0
O329 O 0.96115 0.56302 0.00759 0.0
O330 O 0.02635 0.52156 0.95013 0.0
O331 O 0.00298 0.48206 0.96926 0.0
O332 O 0.96514 0.44741 0.99212 0.0
O333 O 0.94469 0.49368 0.98484 0.0
C334 C 0.05743 0.52736 0.02452 0.0
C335 C 0.94159 0.46361 0.98389 0.0
C336 C 0.11406 0.15346 0.27915 0.0
C337 C 0.13735 0.17115 0.29737 0.0
C338 C 0.09159 0.13363 0.29506 0.0
C339 C 0.09273 0.13118 0.32993 0.0
C340 C 0.1154 0.14976 0.34857 0.0
C341 C 0.13733 0.16962 0.33207 0.0
C342 C 0.06753 0.1144 0.27443 0.0
C343 C 0.11737 0.14778 0.38585 0.0
C344 C 0.02623 0.09264 0.38127 0.0
C345 C 0.03829 0.06478 0.38672 0.0
C346 C 0.04286 0.11407 0.36129 0.0
C347 C 0.07225 0.10741 0.34681 0.0
C348 C 0.08356 0.07862 0.35083 0.0
C349 C 0.06632 0.05758 0.37065 0.0
C350 C 0.0298 0.14433 0.35709 0.0
C351 C 0.11482 0.07066 0.33583 0.0
H352 H 0.11406 0.15426 0.25229 0.0
H353 H 0.15483 0.18366 0.34636 0.0
H354 H 0.07315 0.09044 0.2745 0.0
H355 H 0.04336 0.11543 0.2852 0.0
H356 H 0.06729 0.12159 0.24827 0.0
H357 H 0.13521 0.16496 0.39684 0.0
H358 H 0.0939 0.15089 0.39747 0.0
H359 H 0.12391 0.125 0.39229 0.0
H360 H 0.00443 0.09814 0.39362 0.0
H361 H 0.07562 0.03599 0.37482 0.0
H362 H 0.03072 0.15049 0.33061 0.0
H363 H 0.04463 0.16207 0.37116 0.0
H364 H 0.00489 0.14447 0.36621 0.0
H365 H 0.11552 0.075 0.30887 0.0
H366 H 0.1191 0.04662 0.33935 0.0
H367 H 0.13457 0.08519 0.34752 0.0
C368 C 0.32821 0.87413 0.79979 0.0
C369 C 0.34387 0.8888 0.77317 0.0
C370 C 0.33714 0.88151 0.83277 0.0
C371 C 0.36246 0.90386 0.83909 0.0
C372 C 0.37832 0.91868 0.81226 0.0
C373 C 0.3688 0.91099 0.7797 0.0
C374 C 0.31958 0.86545 0.86079 0.0
C375 C 0.40562 0.9425 0.8179 0.0
C376 C 0.3765 0.94912 0.91937 0.0
C377 C 0.40326 0.9365 0.93141 0.0
C378 C 0.36113 0.93708 0.89061 0.0
C379 C 0.37298 0.91196 0.87356 0.0
C380 C 0.39828 0.89758 0.88732 0.0
C381 C 0.41312 0.91003 0.9162 0.0
C382 C 0.33397 0.95284 0.87698 0.0
C383 C 0.41152 0.87067 0.87002 0.0
H384 H 0.30879 0.85708 0.79482 0.0
H385 H 0.38136 0.922 0.75919 0.0
H386 H 0.33633 0.85343 0.87553 0.0
H387 H 0.30919 0.88216 0.87783 0.0
H388 H 0.30022 0.84883 0.85171 0.0
H389 H 0.41536 0.95188 0.7943 0.0
H390 H 0.3977 0.96137 0.83375 0.0
H391 H 0.42504 0.93272 0.83118 0.0
H392 H 0.36869 0.96948 0.93127 0.0
H393 H 0.4337 0.90011 0.92562 0.0
H394 H 0.31448 0.93615 0.86853 0.0
H395 H 0.3424 0.96595 0.85513 0.0
H396 H 0.32432 0.96867 0.89566 0.0
H397 H 0.39209 0.85385 0.86171 0.0
H398 H 0.42772 0.85941 0.88628 0.0
H399 H 0.42503 0.87823 0.84758 0.0
C400 C 0.57782 0.36877 0.70342 0.0
C401 C 0.60189 0.38222 0.72418 0.0
C402 C 0.56452 0.38519 0.67852 0.0
C403 C 0.57568 0.41579 0.67395 0.0
C404 C 0.59934 0.42974 0.69532 0.0
C405 C 0.612 0.41289 0.72023 0.0
C406 C 0.53915 0.36949 0.65645 0.0
C407 C 0.61195 0.46229 0.69131 0.0
C408 C 0.5666 0.44653 0.58765 0.0
C409 C 0.54003 0.46329 0.59178 0.0
C410 C 0.57867 0.43139 0.61427 0.0
C411 C 0.56366 0.43272 0.64583 0.0
C412 C 0.537 0.44981 0.65027 0.0
C413 C 0.52562 0.46501 0.62327 0.0
C414 C 0.60735 0.41371 0.60851 0.0
C415 C 0.52012 0.45157 0.68339 0.0
H416 H 0.57005 0.34505 0.70583 0.0
H417 H 0.63014 0.42373 0.73646 0.0
H418 H 0.51808 0.38281 0.65612 0.0
H419 H 0.54824 0.36788 0.63058 0.0
H420 H 0.53148 0.34633 0.66465 0.0
H421 H 0.62947 0.47018 0.71073 0.0
H422 H 0.62354 0.4649 0.66661 0.0
H423 H 0.59213 0.47718 0.69234 0.0
H424 H 0.578 0.44513 0.56349 0.0
H425 H 0.50494 0.4777 0.62671 0.0
H426 H 0.60103 0.38947 0.6133 0.0
H427 H 0.62646 0.42187 0.6261 0.0
H428 H 0.61683 0.41563 0.58278 0.0
H429 H 0.51072 0.42858 0.69059 0.0
H430 H 0.50009 0.46624 0.68297 0.0
H431 H 0.53705 0.46048 0.70291 0.0
C432 C 0.90291 0.59958 0.20736 0.0
C433 C 0.87343 0.60948 0.19881 0.0
C434 C 0.91974 0.58169 0.1851 0.0
C435 C 0.90705 0.57376 0.15331 0.0
C436 C 0.87746 0.58379 0.14441 0.0
C437 C 0.86092 0.60124 0.1673 0.0
C438 C 0.95115 0.57127 0.19561 0.0
C439 C 0.86322 0.57605 0.11065 0.0
C440 C 0.96346 0.54998 0.08487 0.0
C441 C 0.95716 0.51845 0.08387 0.0
C442 C 0.94711 0.5683 0.10707 0.0
C443 C 0.92452 0.55468 0.12945 0.0
C444 C 0.91846 0.52279 0.12888 0.0
C445 C 0.93469 0.50508 0.10593 0.0
C446 C 0.95387 0.60222 0.10644 0.0
C447 C 0.89483 0.50736 0.15253 0.0
H448 H 0.9131 0.60611 0.23135 0.0
H449 H 0.83793 0.60819 0.16054 0.0
H450 H 0.95021 0.54621 0.19403 0.0
H451 H 0.9703 0.57998 0.17853 0.0
H452 H 0.95755 0.57897 0.22136 0.0
H453 H 0.84036 0.58621 0.10727 0.0
H454 H 0.88004 0.58416 0.09089 0.0
H455 H 0.85904 0.55116 0.10715 0.0
H456 H 0.98126 0.56038 0.06834 0.0
H457 H 0.92987 0.4807 0.10537 0.0
H458 H 0.96251 0.61109 0.13105 0.0
H459 H 0.93169 0.61292 0.10132 0.0
H460 H 0.97188 0.60925 0.08728 0.0
H461 H 0.90159 0.51358 0.17855 0.0
H462 H 0.8933 0.48233 0.14936 0.0
H463 H 0.87091 0.51513 0.14861 0.0
C464 C 0.33662 0.15564 0.12142 0.0
C465 C 0.31821 0.14739 0.14933 0.0
C466 C 0.35518 0.13495 0.10511 0.0
C467 C 0.3554 0.10534 0.1171 0.0
C468 C 0.33614 0.09657 0.14468 0.0
C469 C 0.31771 0.11773 0.16047 0.0
C470 C 0.37529 0.14508 0.07565 0.0
C471 C 0.33591 0.06524 0.15825 0.0
C472 C 0.39106 0.04726 0.05991 0.0
C473 C 0.4225 0.04906 0.07119 0.0
C474 C 0.36857 0.06486 0.07517 0.0
C475 C 0.37778 0.08449 0.10239 0.0
C476 C 0.40911 0.08551 0.11464 0.0
C477 C 0.43107 0.06784 0.09887 0.0
C478 C 0.33532 0.06325 0.06149 0.0
C479 C 0.41978 0.10598 0.14379 0.0
H480 H 0.33662 0.1784 0.11242 0.0
H481 H 0.30365 0.11134 0.18218 0.0
H482 H 0.40082 0.14498 0.08182 0.0
H483 H 0.37059 0.12914 0.05417 0.0
H484 H 0.37078 0.16818 0.06808 0.0
H485 H 0.31768 0.06122 0.17804 0.0
H486 H 0.33135 0.04789 0.13807 0.0
H487 H 0.35956 0.06204 0.1687 0.0
H488 H 0.38425 0.03283 0.03853 0.0
H489 H 0.4552 0.06914 0.10805 0.0
H490 H 0.33096 0.08528 0.0509 0.0
H491 H 0.3176 0.0589 0.08166 0.0
H492 H 0.33129 0.04529 0.0418 0.0
H493 H 0.41861 0.12995 0.13725 0.0
H494 H 0.44445 0.10281 0.15143 0.0
H495 H 0.40368 0.1017 0.16537 0.0
C496 C 0.19435 0.91853 0.56381 0.0
C497 C 0.19294 0.89148 0.581 0.0
C498 C 0.16666 0.93036 0.55299 0.0
C499 C 0.13673 0.9147 0.55937 0.0
C500 C 0.13504 0.88765 0.57727 0.0
C501 C 0.16322 0.8764 0.58804 0.0
C502 C 0.16952 0.95944 0.53426 0.0
C503 C 0.10356 0.87029 0.58437 0.0
C504 C 0.06689 0.96201 0.54879 0.0
C505 C 0.05896 0.95519 0.51555 0.0
C506 C 0.09114 0.9478 0.56411 0.0
C507 C 0.10758 0.92619 0.54574 0.0
C508 C 0.09826 0.91795 0.51282 0.0
C509 C 0.07411 0.93263 0.49809 0.0
C510 C 0.10035 0.95719 0.59926 0.0
C511 C 0.11495 0.89481 0.49249 0.0
H512 H 0.21724 0.93058 0.5589 0.0
H513 H 0.16207 0.85544 0.60127 0.0
H514 H 0.16027 0.95517 0.50872 0.0
H515 H 0.15495 0.97625 0.54661 0.0
H516 H 0.19446 0.96946 0.53255 0.0
H517 H 0.10616 0.85059 0.60017 0.0
H518 H 0.08718 0.88531 0.59696 0.0
H519 H 0.09229 0.86202 0.56068 0.0
H520 H 0.05508 0.97937 0.56239 0.0
H521 H 0.06776 0.92708 0.47248 0.0
H522 H 0.12386 0.97038 0.59911 0.0
H523 H 0.10263 0.93703 0.61438 0.0
H524 H 0.08282 0.97132 0.61144 0.0
H525 H 0.13958 0.90403 0.48679 0.0
H526 H 0.10266 0.88859 0.4687 0.0
H527 H 0.11657 0.87402 0.50673 0.0
C528 C 0.77399 0.37905 0.92442 0.0
C529 C 0.77767 0.36813 0.89168 0.0
C530 C 0.79947 0.39494 0.94137 0.0
C531 C 0.82917 0.40034 0.92502 0.0
C532 C 0.83283 0.38972 0.89181 0.0
C533 C 0.80711 0.37365 0.87563 0.0
C534 C 0.79474 0.40563 0.97686 0.0
C535 C 0.86396 0.39531 0.87333 0.0
C536 C 0.88917 0.46376 0.95519 0.0
C537 C 0.91165 0.44771 0.97102 0.0
C538 C 0.86184 0.44873 0.94079 0.0
C539 C 0.85664 0.41688 0.94253 0.0
C540 C 0.87868 0.40066 0.95943 0.0
C541 C 0.90598 0.41623 0.97332 0.0
C542 C 0.83906 0.46683 0.92277 0.0
C543 C 0.87384 0.36674 0.96215 0.0
H544 H 0.75134 0.37463 0.937 0.0
H545 H 0.80993 0.36563 0.85017 0.0
H546 H 0.81151 0.39528 0.99323 0.0
H547 H 0.80004 0.4305 0.97916 0.0
H548 H 0.77013 0.39981 0.98596 0.0
H549 H 0.86271 0.38606 0.84739 0.0
H550 H 0.87093 0.41995 0.87276 0.0
H551 H 0.883 0.38478 0.88639 0.0
H552 H 0.8933 0.48807 0.95322 0.0
H553 H 0.92305 0.40362 0.98569 0.0
H554 H 0.81458 0.46207 0.9326 0.0
H555 H 0.83867 0.46003 0.89602 0.0
H556 H 0.84564 0.49156 0.92507 0.0
H557 H 0.84993 0.36016 0.97259 0.0
H558 H 0.89198 0.35774 0.97804 0.0
H559 H 0.87502 0.3558 0.93708 0.0
C560 C 0.6712 0.62918 0.38893 0.0
C561 C 0.70044 0.61697 0.38336 0.0
C562 C 0.64738 0.61442 0.40851 0.0
C563 C 0.6528 0.58664 0.42292 0.0
C564 C 0.68214 0.57401 0.41723 0.0
C565 C 0.70561 0.5893 0.39749 0.0
C566 C 0.61634 0.62856 0.41372 0.0
C567 C 0.68878 0.54442 0.43213 0.0
C568 C 0.5996 0.56595 0.49694 0.0
C569 C 0.57544 0.54682 0.48194 0.0
C570 C 0.62565 0.57815 0.47828 0.0
C571 C 0.62753 0.57099 0.44382 0.0
C572 C 0.60382 0.55065 0.42889 0.0
C573 C 0.57802 0.5389 0.44811 0.0
C574 C 0.65047 0.59965 0.49516 0.0
C575 C 0.60496 0.54229 0.39231 0.0
H576 H 0.66674 0.65023 0.37762 0.0
H577 H 0.72821 0.57983 0.39352 0.0
H578 H 0.59638 0.61283 0.4044 0.0
H579 H 0.61211 0.63276 0.44062 0.0
H580 H 0.61592 0.6503 0.40087 0.0
H581 H 0.71268 0.53749 0.42514 0.0
H582 H 0.68713 0.54636 0.4596 0.0
H583 H 0.67064 0.52628 0.42386 0.0
H584 H 0.59774 0.57206 0.52311 0.0
H585 H 0.55934 0.52421 0.43634 0.0
H586 H 0.64954 0.62262 0.48532 0.0
H587 H 0.67458 0.59251 0.48973 0.0
H588 H 0.64698 0.60098 0.52251 0.0
H589 H 0.60146 0.56246 0.37763 0.0
H590 H 0.58638 0.52407 0.3852 0.0
H591 H 0.62856 0.5347 0.38537 0.0
C592 C 0.17693 0.34365 0.12091 0.0
C593 C 0.17434 0.312 0.12179 0.0
C594 C 0.15553 0.35886 0.10262 0.0
C595 C 0.13114 0.34197 0.08455 0.0
C596 C 0.12948 0.31001 0.0838 0.0
C597 C 0.15101 0.29538 0.1026 0.0
C598 C 0.15808 0.39303 0.10399 0.0
C599 C 0.104 0.29128 0.06452 0.0
C600 C 0.05659 0.38247 0.0757 0.0
C601 C 0.06098 0.39457 0.04417 0.0
C602 C 0.07872 0.36427 0.0886 0.0
C603 C 0.10568 0.35787 0.06931 0.0
C604 C 0.10925 0.3686 0.03666 0.0
C605 C 0.08684 0.38702 0.02448 0.0
C606 C 0.07408 0.35326 0.12357 0.0
C607 C 0.13744 0.36182 0.0152 0.0
H608 H 0.19528 0.35659 0.13518 0.0
H609 H 0.14862 0.27092 0.10338 0.0
H610 H 0.15855 0.40188 0.07854 0.0
H611 H 0.13691 0.40109 0.11692 0.0
H612 H 0.17968 0.40275 0.11727 0.0
H613 H 0.10849 0.26697 0.0629 0.0
H614 H 0.08063 0.2933 0.07683 0.0
H615 H 0.10232 0.29968 0.03901 0.0
H616 H 0.03654 0.38829 0.09091 0.0
H617 H 0.09015 0.39632 1.0 0.0
H618 H 0.09335 0.36392 0.13964 0.0
H619 H 0.07549 0.32844 0.12394 0.0
H620 H 0.05089 0.35866 0.13446 0.0
H621 H 0.15928 0.37411 0.02552 0.0
H622 H 0.13472 0.36871 0.98917 0.0
H623 H 0.14089 0.33732 0.01513 0.0
C624 C 0.60786 0.17056 0.88492 0.0
C625 C 0.60044 0.20017 0.89287 0.0
C626 C 0.59308 0.14569 0.90142 0.0
C627 C 0.57011 0.15041 0.92647 0.0
C628 C 0.56342 0.18034 0.93558 0.0
C629 C 0.57874 0.20487 0.91874 0.0
C630 C 0.60116 0.11424 0.89107 0.0
C631 C 0.53906 0.18635 0.96209 0.0
C632 C 0.50628 0.08552 0.93458 0.0
C633 C 0.51639 0.07066 0.96224 0.0
C634 C 0.52302 0.11197 0.92347 0.0
C635 C 0.55079 0.12389 0.9403 0.0
C636 C 0.56076 0.10936 0.96881 0.0
C637 C 0.54341 0.08283 0.97944 0.0
C638 C 0.51137 0.12672 0.89311 0.0
C639 C 0.59022 0.12128 0.98746 0.0
H640 H 0.62512 0.16678 0.86545 0.0
H641 H 0.57286 0.22767 0.92501 0.0
H642 H 0.60709 0.10154 0.91313 0.0
H643 H 0.58024 0.1017 0.87914 0.0
H644 H 0.62147 0.11454 0.87331 0.0
H645 H 0.53898 0.21082 0.96873 0.0
H646 H 0.51506 0.17797 0.95317 0.0
H647 H 0.54362 0.17396 0.98481 0.0
H648 H 0.48532 0.07623 0.92127 0.0
H649 H 0.55141 0.07123 0.00066 0.0
H650 H 0.52927 0.12577 0.87284 0.0
H651 H 0.50828 0.15092 0.89875 0.0
H652 H 0.48843 0.11557 0.88397 0.0
H653 H 0.61149 0.11837 0.97169 0.0
H654 H 0.59285 0.10938 0.01102 0.0
H655 H 0.5897 0.14583 0.99323 0.0
C656 C 0.90662 0.79975 0.35894 0.0
C657 C 0.87544 0.7891 0.36713 0.0
C658 C 0.92145 0.82567 0.37502 0.0
C659 C 0.90436 0.84172 0.39924 0.0
C660 C 0.87278 0.83106 0.40745 0.0
C661 C 0.85884 0.80469 0.39156 0.0
C662 C 0.95538 0.83588 0.36612 0.0
C663 C 0.85351 0.84783 0.43258 0.0
C664 C 0.94821 0.89497 0.46241 0.0
C665 C 0.94661 0.92315 0.448 0.0
C666 C 0.93513 0.86824 0.44651 0.0
C667 C 0.91936 0.86979 0.41583 0.0
C668 C 0.91746 0.89823 0.40129 0.0
C669 C 0.93146 0.92453 0.41735 0.0
C670 C 0.93829 0.83832 0.46246 0.0
C671 C 0.90026 0.90093 0.36899 0.0
H672 H 0.91947 0.78761 0.34012 0.0
H673 H 0.83458 0.79664 0.3976 0.0
H674 H 0.95658 0.85876 0.35565 0.0
H675 H 0.97024 0.8375 0.38877 0.0
H676 H 0.96576 0.82025 0.34775 0.0
H677 H 0.82914 0.83678 0.43584 0.0
H678 H 0.86553 0.84927 0.45699 0.0
H679 H 0.8517 0.87134 0.42464 0.0
H680 H 0.96019 0.89374 0.48594 0.0
H681 H 0.93001 0.94628 0.4062 0.0
H682 H 0.94994 0.82288 0.44492 0.0
H683 H 0.91442 0.82734 0.46835 0.0
H684 H 0.95234 0.84088 0.48569 0.0
H685 H 0.9113 0.88749 0.34902 0.0
H686 H 0.90056 0.92473 0.36118 0.0
H687 H 0.87518 0.89157 0.37153 0.0
C688 C 0.37926 0.72297 0.57154 0.0
C689 C 0.36137 0.72952 0.59995 0.0
C690 C 0.39175 0.69487 0.56692 0.0
C691 C 0.38641 0.6728 0.59144 0.0
C692 C 0.36766 0.67896 0.6198 0.0
C693 C 0.35522 0.70726 0.62365 0.0
C694 C 0.41129 0.68907 0.53613 0.0
C695 C 0.36161 0.65605 0.64652 0.0
C696 C 0.40266 0.59323 0.5629 0.0
C697 C 0.43436 0.5923 0.57246 0.0
C698 C 0.38614 0.61881 0.57026 0.0
C699 C 0.4017 0.64387 0.58776 0.0
C700 C 0.43314 0.64227 0.5991 0.0
C701 C 0.44915 0.61652 0.59118 0.0
C702 C 0.35269 0.61965 0.55767 0.0
C703 C 0.45045 0.66839 0.61813 0.0
H704 H 0.38371 0.74003 0.553 0.0
H705 H 0.34161 0.71237 0.64577 0.0
H706 H 0.43602 0.68565 0.5432 0.0
H707 H 0.40151 0.66809 0.52288 0.0
H708 H 0.41193 0.70804 0.51873 0.0
H709 H 0.34493 0.66358 0.66597 0.0
H710 H 0.35171 0.63408 0.63553 0.0
H711 H 0.38437 0.65207 0.65847 0.0
H712 H 0.39117 0.5745 0.5484 0.0
H713 H 0.47364 0.61578 0.59869 0.0
H714 H 0.35254 0.63625 0.53766 0.0
H715 H 0.33681 0.62719 0.57781 0.0
H716 H 0.34282 0.59726 0.54763 0.0
H717 H 0.45511 0.68782 0.60159 0.0
H718 H 0.4735 0.66243 0.62801 0.0
H719 H 0.43559 0.67597 0.63915 0.0
C720 C 0.91253 0.93034 0.77546 0.0
C721 C 0.89559 0.90225 0.78024 0.0
C722 C 0.92322 0.93882 0.74379 0.0
C723 C 0.91685 0.9187 0.71626 0.0
C724 C 0.9004 0.89004 0.72101 0.0
C725 C 0.88992 0.88216 0.75298 0.0
C726 C 0.94078 0.96957 0.73968 0.0
C727 C 0.89319 0.86802 0.69221 0.0
C728 C 0.91436 0.9546 0.63237 0.0
C729 C 0.94475 0.95047 0.61978 0.0
C730 C 0.90478 0.94384 0.66353 0.0
C731 C 0.92607 0.92838 0.68233 0.0
C732 C 0.95649 0.92337 0.66927 0.0
C733 C 0.96555 0.93464 0.63811 0.0
C734 C 0.8722 0.94976 0.67672 0.0
C735 C 0.97966 0.9067 0.6885 0.0
H736 H 0.91741 0.94573 0.79655 0.0
H737 H 0.87657 0.86054 0.75651 0.0
H738 H 0.96413 0.96717 0.72747 0.0
H739 H 0.92705 0.9833 0.72339 0.0
H740 H 0.9448 0.98208 0.76378 0.0
H741 H 0.8819 0.84595 0.70038 0.0
H742 H 0.87699 0.87773 0.6747 0.0
H743 H 0.91533 0.86402 0.67832 0.0
H744 H 0.89827 0.96688 0.61818 0.0
H745 H 0.98905 0.93138 0.62828 0.0
H746 H 0.87454 0.9642 0.6997 0.0
H747 H 0.85881 0.92819 0.68337 0.0
H748 H 0.85812 0.96119 0.65849 0.0
H749 H 0.98631 0.91964 0.71175 0.0
H750 H 0.00166 0.90321 0.67404 0.0
H751 H 0.96843 0.88434 0.6957 0.0
C752 C 0.67215 0.14674 0.21274 0.0
C753 C 0.69888 0.16389 0.20043 0.0
C754 C 0.65116 0.12975 0.19128 0.0
C755 C 0.65698 0.12991 0.15663 0.0
C756 C 0.68385 0.14722 0.14398 0.0
C757 C 0.70449 0.16404 0.16605 0.0
C758 C 0.62269 0.11166 0.20572 0.0
C759 C 0.69085 0.14785 0.10717 0.0
C760 C 0.61764 0.06327 0.10692 0.0
C761 C 0.59045 0.07538 0.0952 0.0
C762 C 0.64001 0.08105 0.12616 0.0
C763 C 0.63499 0.11164 0.13381 0.0
C764 C 0.60801 0.12421 0.12116 0.0
C765 C 0.58601 0.10588 0.10197 0.0
C766 C 0.66851 0.06686 0.13913 0.0
C767 C 0.6019 0.15675 0.1287 0.0
H768 H 0.66736 0.14696 0.23922 0.0
H769 H 0.72525 0.17705 0.15643 0.0
H770 H 0.6005 0.11912 0.19536 0.0
H771 H 0.62349 0.08736 0.19873 0.0
H772 H 0.62153 0.11401 0.23323 0.0
H773 H 0.71249 0.16278 0.10131 0.0
H774 H 0.69414 0.12466 0.09743 0.0
H775 H 0.67043 0.15585 0.09385 0.0
H776 H 0.62116 0.0397 0.10159 0.0
H777 H 0.56504 0.11529 0.09276 0.0
H778 H 0.66733 0.06648 0.16664 0.0
H779 H 0.69071 0.08052 0.13236 0.0
H780 H 0.66993 0.04335 0.12929 0.0
H781 H 0.59791 0.16016 0.15577 0.0
H782 H 0.58088 0.16354 0.11534 0.0
H783 H 0.62295 0.17197 0.12176 0.0
C784 C 0.38085 0.59229 0.29683 0.0
C785 C 0.40311 0.60835 0.27641 0.0
C786 C 0.39032 0.57813 0.32543 0.0
C787 C 0.4228 0.58046 0.33433 0.0
C788 C 0.4453 0.5972 0.31437 0.0
C789 C 0.43527 0.61066 0.28559 0.0
C790 C 0.3656 0.5603 0.34588 0.0
C791 C 0.48011 0.60058 0.32317 0.0
C792 C 0.44539 0.56585 0.42339 0.0
C793 C 0.45629 0.53685 0.42034 0.0
C794 C 0.43423 0.5802 0.39572 0.0
C795 C 0.43341 0.56506 0.36424 0.0
C796 C 0.44358 0.53547 0.36116 0.0
C797 C 0.45514 0.52185 0.38915 0.0
C798 C 0.42409 0.61192 0.40003 0.0
C799 C 0.44259 0.51832 0.32818 0.0
H800 H 0.3559 0.5907 0.29047 0.0
H801 H 0.45288 0.62243 0.26987 0.0
H802 H 0.37149 0.53646 0.34697 0.0
H803 H 0.36554 0.56961 0.37174 0.0
H804 H 0.34132 0.56059 0.33561 0.0
H805 H 0.49437 0.61554 0.30602 0.0
H806 H 0.48321 0.61002 0.34887 0.0
H807 H 0.48975 0.57808 0.32236 0.0
H808 H 0.44636 0.57776 0.44731 0.0
H809 H 0.46333 0.4994 0.38655 0.0
H810 H 0.39938 0.61275 0.39127 0.0
H811 H 0.43951 0.62753 0.38466 0.0
H812 H 0.42541 0.62031 0.42629 0.0
H813 H 0.41824 0.51705 0.31786 0.0
H814 H 0.44985 0.49497 0.33024 0.0
H815 H 0.45865 0.53045 0.31016 0.0
C816 C 0.09385 0.39576 0.79925 0.0
C817 C 0.12255 0.3839 0.80696 0.0
C818 C 0.0778 0.41298 0.82285 0.0
C819 C 0.09077 0.41859 0.85497 0.0
C820 C 0.11966 0.40661 0.86296 0.0
C821 C 0.13519 0.38946 0.8389 0.0
C822 C 0.04694 0.4252 0.81342 0.0
C823 C 0.13435 0.41214 0.89686 0.0
C824 C 0.0652 0.4867 0.90497 0.0
C825 C 0.04233 0.47323 0.92652 0.0
C826 C 0.08131 0.46917 0.88175 0.0
C827 C 0.07434 0.43737 0.88003 0.0
C828 C 0.0515 0.42363 0.90206 0.0
C829 C 0.03576 0.44173 0.92504 0.0
C830 C 0.10561 0.48469 0.85888 0.0
C831 C 0.04347 0.38983 0.90114 0.0
H832 H 0.08369 0.39126 0.77482 0.0
H833 H 0.15757 0.38078 0.84496 0.0
H834 H 0.02767 0.41682 0.83055 0.0
H835 H 0.04918 0.45025 0.81591 0.0
H836 H 0.03985 0.41858 0.78756 0.0
H837 H 0.15666 0.40086 0.89932 0.0
H838 H 0.13964 0.43678 0.90172 0.0
H839 H 0.11736 0.40377 0.91634 0.0
H840 H 0.0704 0.51104 0.90611 0.0
H841 H 0.01805 0.43122 0.94164 0.0
H842 H 0.09833 0.48036 0.83266 0.0
H843 H 0.12892 0.47532 0.86178 0.0
H844 H 0.10869 0.50953 0.86376 0.0
H845 H 0.03421 0.3823 0.87631 0.0
H846 H 0.02546 0.38263 0.92023 0.0
H847 H 0.0652 0.37807 0.90522 0.0
C848 C 0.68021 0.87241 0.94438 0.0
C849 C 0.70088 0.88424 0.91969 0.0
C850 C 0.65075 0.88399 0.95027 0.0
C851 C 0.64178 0.90791 0.93093 0.0
C852 C 0.66117 0.9179 0.90392 0.0
C853 C 0.6906 0.90599 0.89866 0.0
C854 C 0.63063 0.87251 0.97916 0.0
C855 C 0.65227 0.94311 0.88247 0.0
C856 C 0.55957 0.935 0.94598 0.0
C857 C 0.56638 0.95888 0.96919 0.0
C858 C 0.58391 0.91852 0.93251 0.0
C859 C 0.61563 0.92597 0.94277 0.0
C860 C 0.62266 0.9504 0.96565 0.0
C861 C 0.59803 0.96658 0.97842 0.0
C862 C 0.57566 0.89284 0.90785 0.0
C863 C 0.65619 0.95907 0.97733 0.0
H864 H 0.6878 0.85512 0.96022 0.0
H865 H 0.70645 0.91529 0.87954 0.0
H866 H 0.6325 0.88964 0.99986 0.0
H867 H 0.60525 0.86897 0.9721 0.0
H868 H 0.63832 0.85096 0.98833 0.0
H869 H 0.66645 0.94426 0.8591 0.0
H870 H 0.62667 0.94023 0.87616 0.0
H871 H 0.65662 0.96504 0.89634 0.0
H872 H 0.53521 0.92894 0.93858 0.0
H873 H 0.60368 0.98495 0.99628 0.0
H874 H 0.58036 0.87108 0.91887 0.0
H875 H 0.59086 0.89542 0.88532 0.0
H876 H 0.55034 0.89156 0.90032 0.0
H877 H 0.66544 0.9398 0.98999 0.0
H878 H 0.65767 0.97898 0.99481 0.0
H879 H 0.67202 0.96435 0.95578 0.0
C880 C 0.83261 0.13487 0.40118 0.0
C881 C 0.84938 0.16019 0.38744 0.0
C882 C 0.84825 0.11422 0.41939 0.0
C883 C 0.8815 0.11899 0.42404 0.0
C884 C 0.89859 0.14453 0.41035 0.0
C885 C 0.88233 0.16482 0.39222 0.0
C886 C 0.82924 0.08712 0.43339 0.0
C887 C 0.93406 0.15039 0.41484 0.0
C888 C 0.91634 0.07972 0.49601 0.0
C889 C 0.92833 0.05465 0.47985 0.0
C890 C 0.9014 0.10107 0.47809 0.0
C891 C 0.89832 0.09715 0.44321 0.0
C892 C 0.91067 0.07196 0.42676 0.0
C893 C 0.92551 0.05099 0.44531 0.0
C894 C 0.88871 0.12772 0.49648 0.0
C895 C 0.90794 0.06701 0.38962 0.0
H896 H 0.80725 0.13087 0.39714 0.0
H897 H 0.89539 0.1845 0.38198 0.0
H898 H 0.83828 0.06599 0.42307 0.0
H899 H 0.83206 0.08709 0.46073 0.0
H900 H 0.80353 0.08677 0.42771 0.0
H901 H 0.94386 0.17127 0.40258 0.0
H902 H 0.93974 0.15256 0.44168 0.0
H903 H 0.94629 0.13101 0.40443 0.0
H904 H 0.91863 0.08265 0.52272 0.0
H905 H 0.93474 0.03157 0.43277 0.0
H906 H 0.86264 0.1272 0.49309 0.0
H907 H 0.89939 0.14916 0.48616 0.0
H908 H 0.89374 0.12791 0.5235 0.0
H909 H 0.88254 0.06467 0.38243 0.0
H910 H 0.91917 0.04651 0.38059 0.0
H911 H 0.91937 0.08688 0.37678 0.0
C912 C 0.23223 0.60667 0.05762 0.0
C913 C 0.23841 0.61144 0.09165 0.0
C914 C 0.20236 0.5944 0.04639 0.0
C915 C 0.1779 0.58681 0.06969 0.0
C916 C 0.18365 0.59238 0.10401 0.0
C917 C 0.21381 0.60458 0.11458 0.0
C918 C 0.19723 0.58891 0.00958 0.0
C919 C 0.15818 0.58466 0.12965 0.0
C920 C 0.09265 0.57446 0.03871 0.0
C921 C 0.08825 0.54279 0.03579 0.0
C922 C 0.1216 0.58912 0.04988 0.0
C923 C 0.14683 0.57174 0.05821 0.0
C924 C 0.14257 0.53979 0.05522 0.0
C925 C 0.1134 0.52574 0.04412 0.0
C926 C 0.12517 0.62322 0.05283 0.0
C927 C 0.1689 0.52039 0.06369 0.0
H928 H 0.25088 0.61239 0.03967 0.0
H929 H 0.2184 0.60789 0.14091 0.0
H930 H 0.19205 0.56434 0.00414 0.0
H931 H 0.17638 0.60032 0.00149 0.0
H932 H 0.21825 0.59717 0.99461 0.0
H933 H 0.16577 0.59206 0.15516 0.0
H934 H 0.13624 0.59545 0.12374 0.0
H935 H 0.15204 0.55986 0.12923 0.0
H936 H 0.07341 0.58788 0.03245 0.0
H937 H 0.11038 0.50127 0.04193 0.0
H938 H 0.14506 0.63221 0.0368 0.0
H939 H 0.13113 0.63056 0.07876 0.0
H940 H 0.10324 0.63347 0.04563 0.0
H941 H 0.19004 0.52621 0.04786 0.0
H942 H 0.16174 0.49585 0.06019 0.0
H943 H 0.17617 0.52489 0.08987 0.0
C944 C 0.28892 0.41709 0.61028 0.0
C945 C 0.28902 0.38621 0.61655 0.0
C946 C 0.31368 0.43216 0.59199 0.0
C947 C 0.33944 0.41609 0.58045 0.0
C948 C 0.33963 0.38492 0.5869 0.0
C949 C 0.31429 0.37033 0.60458 0.0
C950 C 0.31231 0.46524 0.58505 0.0
C951 C 0.36691 0.36707 0.57568 0.0
C952 C 0.3949 0.44278 0.51034 0.0
C953 C 0.42139 0.45559 0.52795 0.0
C954 C 0.36739 0.43117 0.5271 0.0
C955 C 0.3667 0.43177 0.56229 0.0
C956 C 0.39313 0.44545 0.58013 0.0
C957 C 0.42001 0.45751 0.56273 0.0
C958 C 0.33944 0.41743 0.50717 0.0
C959 C 0.39366 0.4461 0.61762 0.0
H960 H 0.26932 0.42936 0.61943 0.0
H961 H 0.31461 0.34655 0.60979 0.0
H962 H 0.33278 0.47867 0.59678 0.0
H963 H 0.31414 0.46872 0.55792 0.0
H964 H 0.29003 0.47415 0.59452 0.0
H965 H 0.36353 0.34306 0.58292 0.0
H966 H 0.36964 0.36769 0.5483 0.0
H967 H 0.38941 0.37742 0.58664 0.0
H968 H 0.39585 0.4415 0.48344 0.0
H969 H 0.44046 0.46738 0.57646 0.0
H970 H 0.31724 0.42688 0.51599 0.0
H971 H 0.33647 0.39267 0.51068 0.0
H972 H 0.34245 0.42149 0.4802 0.0
H973 H 0.37259 0.4566 0.62785 0.0
H974 H 0.41542 0.45878 0.62776 0.0
H975 H 0.3925 0.42263 0.62654 0.0
C976 C 0.86082 0.71921 0.95096 0.0
C977 C 0.88233 0.74491 0.94828 0.0
C978 C 0.87156 0.69061 0.95577 0.0
C979 C 0.90455 0.68776 0.95835 0.0
C980 C 0.92636 0.71358 0.95588 0.0
C981 C 0.91501 0.74177 0.95061 0.0
C982 C 0.84766 0.66346 0.95801 0.0
C983 C 0.96174 0.71144 0.95871 0.0
C984 C 0.93401 0.62056 0.0008 0.0
C985 C 0.94378 0.60318 0.97356 0.0
C986 C 0.92061 0.64793 0.9962 0.0
C987 C 0.91649 0.65779 0.96357 0.0
C988 C 0.92541 0.63977 0.93595 0.0
C989 C 0.93924 0.61272 0.94131 0.0
C990 C 0.91178 0.66671 0.02626 0.0
C991 C 0.9209 0.64935 0.9008 0.0
H992 H 0.83552 0.72148 0.94956 0.0
H993 H 0.93186 0.76135 0.94786 0.0
H994 H 0.85281 0.64622 0.93862 0.0
H995 H 0.84954 0.65288 0.98241 0.0
H996 H 0.82287 0.66944 0.95493 0.0
H997 H 0.97545 0.73384 0.95711 0.0
H998 H 0.96717 0.70146 0.9827 0.0
H999 H 0.97003 0.69627 0.93864 0.0
H1000 H 0.93754 0.61312 0.02577 0.0
H1001 H 0.94662 0.59911 0.92028 0.0
H1002 H 0.88659 0.67186 0.02484 0.0
H1003 H 0.92652 0.68863 0.02682 0.0
H1004 H 0.91525 0.65518 0.04988 0.0
H1005 H 0.89587 0.65422 0.89703 0.0
H1006 H 0.92709 0.63181 0.88213 0.0
H1007 H 0.93601 0.6705 0.89622 0.0
C1008 C 0.39263 0.81019 0.11841 0.0
C1009 C 0.40976 0.78592 0.10749 0.0
C1010 C 0.40332 0.84025 0.1114 0.0
C1011 C 0.43177 0.84625 0.09294 0.0
C1012 C 0.44897 0.82186 0.0816 0.0
C1013 C 0.43788 0.79213 0.08913 0.0
C1014 C 0.38435 0.86563 0.12403 0.0
C1015 C 0.47944 0.8272 0.0619 0.0
C1016 C 0.45052 0.92159 0.05089 0.0
C1017 C 0.47269 0.93641 0.07275 0.0
C1018 C 0.43643 0.89247 0.05741 0.0
C1019 C 0.44451 0.87802 0.08668 0.0
C1020 C 0.46619 0.89338 0.1093 0.0
C1021 C 0.48007 0.92231 0.102 0.0
C1022 C 0.41354 0.8769 0.03257 0.0
C1023 C 0.47536 0.87895 0.14087 0.0
H1024 H 0.3707 0.8057 0.13225 0.0
H1025 H 0.45168 0.7737 0.08107 0.0
H1026 H 0.39902 0.88085 0.14125 0.0
H1027 H 0.37778 0.8794 0.10305 0.0
H1028 H 0.36231 0.8572 0.13726 0.0
H1029 H 0.48924 0.80574 0.05361 0.0
H1030 H 0.47533 0.84049 0.03972 0.0
H1031 H 0.49754 0.8406 0.07724 0.0
H1032 H 0.44453 0.93258 0.02848 0.0
H1033 H 0.49709 0.93377 0.11906 0.0
H1034 H 0.39068 0.8698 0.04497 0.0
H1035 H 0.42335 0.85614 0.02224 0.0
H1036 H 0.40881 0.89165 0.0117 0.0
H1037 H 0.45379 0.87168 0.15545 0.0
H1038 H 0.49118 0.89452 0.1567 0.0
H1039 H 0.48778 0.85842 0.1347 0.0
C1040 C 0.09295 0.2112 0.61621 0.0
C1041 C 0.11981 0.20673 0.63518 0.0
C1042 C 0.07556 0.18682 0.5998 0.0
C1043 C 0.08556 0.15728 0.60178 0.0
C1044 C 0.11259 0.15257 0.6208 0.0
C1045 C 0.12908 0.1772 0.63755 0.0
C1046 C 0.04656 0.19271 0.58019 0.0
C1047 C 0.12426 0.12148 0.62328 0.0
C1048 C 0.02818 0.08805 0.58362 0.0
C1049 C 0.03622 0.08037 0.55074 0.0
C1050 C 0.0435 0.11342 0.60025 0.0
C1051 C 0.06792 0.13123 0.58385 0.0
C1052 C 0.07611 0.12361 0.55064 0.0
C1053 C 0.05995 0.09847 0.53438 0.0
C1054 C 0.03363 0.12112 0.63542 0.0
C1055 C 0.10239 0.14165 0.53247 0.0
H1056 H 0.08571 0.23384 0.6137 0.0
H1057 H 0.14926 0.17318 0.65269 0.0
H1058 H 0.05021 0.18663 0.5536 0.0
H1059 H 0.02562 0.17828 0.58902 0.0
H1060 H 0.0411 0.21675 0.58226 0.0
H1061 H 0.14614 0.12172 0.63839 0.0
H1062 H 0.10559 0.10588 0.63458 0.0
H1063 H 0.12932 0.11214 0.59809 0.0
H1064 H 0.00966 0.07435 0.59633 0.0
H1065 H 0.06641 0.09261 0.50903 0.0
H1066 H 0.02696 0.14477 0.63723 0.0
H1067 H 0.05385 0.11954 0.65244 0.0
H1068 H 0.01324 0.10585 0.6441 0.0
H1069 H 0.09723 0.16571 0.53175 0.0
H1070 H 0.10564 0.13298 0.5066 0.0
H1071 H 0.1251 0.14094 0.54593 0.0
C1072 C 0.68225 0.32815 0.40167 0.0
C1073 C 0.68012 0.31744 0.3686 0.0
C1074 C 0.66002 0.34707 0.4151 0.0
C1075 C 0.63532 0.35573 0.39483 0.0
C1076 C 0.63309 0.34498 0.36143 0.0
C1077 C 0.65544 0.32589 0.34876 0.0
C1078 C 0.66299 0.35783 0.45094 0.0
C1079 C 0.60733 0.35398 0.33893 0.0
C1080 C 0.56191 0.38443 0.43636 0.0
C1081 C 0.5687 0.41581 0.43514 0.0
C1082 C 0.58338 0.36456 0.42331 0.0
C1083 C 0.61211 0.37644 0.40842 0.0
C1084 C 0.61876 0.40815 0.40663 0.0
C1085 C 0.59702 0.42746 0.42017 0.0
C1086 C 0.57557 0.33089 0.42588 0.0
C1087 C 0.64895 0.4217 0.39065 0.0
H1088 H 0.70113 0.32145 0.41715 0.0
H1089 H 0.65396 0.31799 0.32304 0.0
H1090 H 0.66654 0.38288 0.45242 0.0
H1091 H 0.64072 0.35113 0.46466 0.0
H1092 H 0.68311 0.34849 0.46356 0.0
H1093 H 0.60871 0.34343 0.31365 0.0
H1094 H 0.58361 0.3473 0.34974 0.0
H1095 H 0.60919 0.37892 0.33674 0.0
H1096 H 0.54007 0.37541 0.44808 0.0
H1097 H 0.60229 0.45175 0.4192 0.0
H1098 H 0.59418 0.32106 0.44034 0.0
H1099 H 0.57531 0.31986 0.40079 0.0
H1100 H 0.55217 0.32531 0.43803 0.0
H1101 H 0.66987 0.41489 0.40408 0.0
H1102 H 0.65017 0.44679 0.39057 0.0
H1103 H 0.65072 0.41297 0.36465 0.0
loop_
_geom_bond_atom_site_label_1
_geom_bond_atom_site_label_2
_geom_bond_distance
_geom_bond_site_symmetry_2
_ccdc_geom_bond_type
P0 O11 1.490 . S
P0 C14 1.812 . S
P0 C20 1.803 . S
P0 C26 1.819 . S
H1 C15 0.941 . S
H2 C16 0.939 . S
H3 C18 0.940 . S
H4 C19 0.940 . S
H5 C21 0.939 . S
H6 C22 0.942 . S
H7 C24 0.940 . S
H8 C25 0.939 . S
H9 C27 0.941 . S
H10 C31 0.939 . S
O11 P0 1.490 . S
H12 C28 0.939 . S
H13 C30 0.940 . S
C14 P0 1.812 . S
C14 C15 1.389 . S
C14 C19 1.391 . S
C15 H1 0.941 . S
C15 C14 1.389 . S
C15 C16 1.397 . S
C16 H2 0.939 . S
C16 C15 1.397 . S
C16 C17 1.378 . S
C17 C16 1.378 . S
C17 C18 1.378 . S
C18 H3 0.940 . S
C18 C17 1.378 . S
C18 C19 1.396 . S
C19 H4 0.940 . S
C19 C14 1.391 . S
C19 C18 1.396 . S
C20 P0 1.803 . S
C20 C21 1.378 . S
C20 C25 1.400 . S
C21 H5 0.939 . S
C21 C20 1.378 . S
C21 C22 1.361 . S
C22 H6 0.942 . S
C22 C21 1.361 . S
C22 C23 1.369 . S
C23 C22 1.369 . S
C23 C24 1.404 . S
C24 H7 0.940 . S
C24 C23 1.404 . S
C24 C25 1.389 . S
C25 H8 0.939 . S
C25 C20 1.400 . S
C25 C24 1.389 . S
C26 P0 1.819 . S
C26 C27 1.391 . S
C26 C31 1.391 . S
C27 H9 0.941 . S
C27 C26 1.391 . S
C27 C28 1.396 . S
C28 H12 0.939 . S
C28 C27 1.396 . S
C28 C29 1.397 . S
C29 C28 1.397 . S
C29 C30 1.385 . S
C30 H13 0.940 . S
C30 C29 1.385 . S
C30 C31 1.388 . S
C31 H10 0.939 . S
C31 C26 1.391 . S
C31 C30 1.388 . S
P32 O43 1.490 . S
P32 C46 1.812 . S
P32 C52 1.803 . S
P32 C58 1.819 . S
H33 C47 0.941 . S
H34 C48 0.939 . S
H35 C50 0.940 . S
H36 C51 0.940 . S
H37 C53 0.939 . S
H38 C54 0.942 . S
H39 C56 0.940 . S
H40 C57 0.939 . S
H41 C59 0.941 . S
H42 C63 0.939 . S
O43 P32 1.490 . S
H44 C60 0.939 . S
H45 C62 0.940 . S
C46 P32 1.812 . S
C46 C47 1.389 . S
C46 C51 1.391 . S
C47 H33 0.941 . S
C47 C46 1.389 . S
C47 C48 1.397 . S
C48 H34 0.939 . S
C48 C47 1.397 . S
C48 C49 1.378 . S
C49 C48 1.378 . S
C49 C50 1.378 . S
C50 H35 0.940 . S
C50 C49 1.378 . S
C50 C51 1.396 . S
C51 H36 0.940 . S
C51 C46 1.391 . S
C51 C50 1.396 . S
C52 P32 1.803 . S
C52 C53 1.378 . S
C52 C57 1.400 . S
C53 H37 0.939 . S
C53 C52 1.378 . S
C53 C54 1.361 . S
C54 H38 0.942 . S
C54 C53 1.361 . S
C54 C55 1.369 . S
C55 C54 1.369 . S
C55 C56 1.404 . S
C56 H39 0.940 . S
C56 C55 1.404 . S
C56 C57 1.389 . S
C57 H40 0.939 . S
C57 C52 1.400 . S
C57 C56 1.389 . S
C58 P32 1.819 . S
C58 C59 1.391 . S
C58 C63 1.391 . S
C59 H41 0.941 . S
C59 C58 1.391 . S
C59 C60 1.396 . S
C60 H44 0.939 . S
C60 C59 1.396 . S
C60 C61 1.397 . S
C61 C60 1.397 . S
C61 C62 1.385 . S
C62 H45 0.940 . S
C62 C61 1.385 . S
C62 C63 1.388 . S
C63 H42 0.939 . S
C63 C58 1.391 . S
C63 C62 1.388 . S
P64 O75 1.490 . S
P64 C78 1.812 . S
P64 C84 1.803 . S
P64 C90 1.819 . S
H65 C79 0.941 . S
H66 C80 0.939 . S
H67 C82 0.940 . S
H68 C83 0.940 . S
H69 C85 0.939 . S
H70 C86 0.942 . S
H71 C88 0.940 . S
H72 C89 0.939 . S
H73 C91 0.941 . S
H74 C95 0.939 . S
O75 P64 1.490 . S
H76 C92 0.939 . S
H77 C94 0.940 . S
C78 P64 1.812 . S
C78 C79 1.389 . S
C78 C83 1.391 . S
C79 H65 0.941 . S
C79 C78 1.389 . S
C79 C80 1.397 . S
C80 H66 0.939 . S
C80 C79 1.397 . S
C80 C81 1.378 . S
C81 C80 1.378 . S
C81 C82 1.378 . S
C82 H67 0.940 . S
C82 C81 1.378 . S
C82 C83 1.396 . S
C83 H68 0.940 . S
C83 C78 1.391 . S
C83 C82 1.396 . S
C84 P64 1.803 . S
C84 C85 1.378 . S
C84 C89 1.400 . S
C85 H69 0.939 . S
C85 C84 1.378 . S
C85 C86 1.361 . S
C86 H70 0.942 . S
C86 C85 1.361 . S
C86 C87 1.369 . S
C87 C86 1.369 . S
C87 C88 1.404 . S
C88 H71 0.940 . S
C88 C87 1.404 . S
C88 C89 1.389 . S
C89 H72 0.939 . S
C89 C84 1.400 . S
C89 C88 1.389 . S
C90 P64 1.819 . S
C90 C91 1.391 . S
C90 C95 1.391 . S
C91 H73 0.941 . S
C91 C90 1.391 . S
C91 C92 1.396 . S
C92 H76 0.939 . S
C92 C91 1.396 . S
C92 C93 1.397 . S
C93 C92 1.397 . S
C93 C94 1.385 . S
C94 H77 0.940 . S
C94 C93 1.385 . S
C94 C95 1.388 . S
C95 H74 0.939 . S
C95 C90 1.391 . S
C95 C94 1.388 . S
P96 O107 1.490 . S
P96 C110 1.812 . S
P96 C116 1.803 . S
P96 C122 1.819 . S
H97 C111 0.941 . S
H98 C112 0.939 . S
H99 C114 0.940 . S
H100 C115 0.940 . S
H101 C117 0.939 . S
H102 C118 0.942 . S
H103 C120 0.940 . S
H104 C121 0.939 . S
H105 C123 0.941 . S
H106 C127 0.939 . S
O107 P96 1.490 . S
H108 C124 0.939 . S
H109 C126 0.940 . S
C110 P96 1.812 . S
C110 C111 1.389 . S
C110 C115 1.391 . S
C111 H97 0.941 . S
C111 C110 1.389 . S
C111 C112 1.397 . S
C112 H98 0.939 . S
C112 C111 1.397 . S
C112 C113 1.378 . S
C113 C112 1.378 . S
C113 C114 1.378 . S
C114 H99 0.940 . S
C114 C113 1.378 . S
C114 C115 1.396 . S
C115 H100 0.940 . S
C115 C110 1.391 . S
C115 C114 1.396 . S
C116 P96 1.803 . S
C116 C117 1.378 . S
C116 C121 1.400 . S
C117 H101 0.939 . S
C117 C116 1.378 . S
C117 C118 1.361 . S
C118 H102 0.942 . S
C118 C117 1.361 . S
C118 C119 1.369 . S
C119 C118 1.369 . S
C119 C120 1.404 . S
C120 H103 0.940 . S
C120 C119 1.404 . S
C120 C121 1.389 . S
C121 H104 0.939 . S
C121 C116 1.400 . S
C121 C120 1.389 . S
C122 P96 1.819 . S
C122 C123 1.391 . S
C122 C127 1.391 . S
C123 H105 0.941 . S
C123 C122 1.391 . S
C123 C124 1.396 . S
C124 H108 0.939 . S
C124 C123 1.396 . S
C124 C125 1.397 . S
C125 C124 1.397 . S
C125 C126 1.385 . S
C126 H109 0.940 . S
C126 C125 1.385 . S
C126 C127 1.388 . S
C127 H106 0.939 . S
C127 C122 1.391 . S
C127 C126 1.388 . S
P128 O139 1.490 . S
P128 C142 1.812 . S
P128 C148 1.803 . S
P128 C154 1.819 . S
H129 C143 0.941 . S
H130 C144 0.939 . S
H131 C146 0.940 . S
H132 C147 0.940 . S
H133 C149 0.939 . S
H134 C150 0.942 . S
H135 C152 0.940 . S
H136 C153 0.939 . S
H137 C155 0.941 . S
H138 C159 0.939 . S
O139 P128 1.490 . S
H140 C156 0.939 . S
H141 C158 0.940 . S
C142 P128 1.812 . S
C142 C143 1.389 . S
C142 C147 1.391 . S
C143 H129 0.941 . S
C143 C142 1.389 . S
C143 C144 1.397 . S
C144 H130 0.939 . S
C144 C143 1.397 . S
C144 C145 1.378 . S
C145 C144 1.378 . S
C145 C146 1.378 . S
C146 H131 0.940 . S
C146 C145 1.378 . S
C146 C147 1.396 . S
C147 H132 0.940 . S
C147 C142 1.391 . S
C147 C146 1.396 . S
C148 P128 1.803 . S
C148 C149 1.378 . S
C148 C153 1.400 . S
C149 H133 0.939 . S
C149 C148 1.378 . S
C149 C150 1.361 . S
C150 H134 0.942 . S
C150 C149 1.361 . S
C150 C151 1.369 . S
C151 C150 1.369 . S
C151 C152 1.404 . S
C152 H135 0.940 . S
C152 C151 1.404 . S
C152 C153 1.389 . S
C153 H136 0.939 . S
C153 C148 1.400 . S
C153 C152 1.389 . S
C154 P128 1.819 . S
C154 C155 1.391 . S
C154 C159 1.391 . S
C155 H137 0.941 . S
C155 C154 1.391 . S
C155 C156 1.396 . S
C156 H140 0.939 . S
C156 C155 1.396 . S
C156 C157 1.397 . S
C157 C156 1.397 . S
C157 C158 1.385 . S
C158 H141 0.940 . S
C158 C157 1.385 . S
C158 C159 1.388 . S
C159 H138 0.939 . S
C159 C154 1.391 . S
C159 C158 1.388 . S
P160 O171 1.490 . S
P160 C174 1.812 . S
P160 C180 1.803 . S
P160 C186 1.819 . S
H161 C175 0.941 . S
H162 C176 0.939 . S
H163 C178 0.940 . S
H164 C179 0.940 . S
H165 C181 0.939 . S
H166 C182 0.942 . S
H167 C184 0.940 . S
H168 C185 0.939 . S
H169 C187 0.941 . S
H170 C191 0.939 . S
O171 P160 1.490 . S
H172 C188 0.939 . S
H173 C190 0.940 . S
C174 P160 1.812 . S
C174 C175 1.389 . S
C174 C179 1.391 . S
C175 H161 0.941 . S
C175 C174 1.389 . S
C175 C176 1.397 . S
C176 H162 0.939 . S
C176 C175 1.397 . S
C176 C177 1.378 . S
C177 C176 1.378 . S
C177 C178 1.378 . S
C178 H163 0.940 . S
C178 C177 1.378 . S
C178 C179 1.396 . S
C179 H164 0.940 . S
C179 C174 1.391 . S
C179 C178 1.396 . S
C180 P160 1.803 . S
C180 C181 1.378 . S
C180 C185 1.400 . S
C181 H165 0.939 . S
C181 C180 1.378 . S
C181 C182 1.361 . S
C182 H166 0.942 . S
C182 C181 1.361 . S
C182 C183 1.369 . S
C183 C182 1.369 . S
C183 C184 1.404 . S
C184 H167 0.940 . S
C184 C183 1.404 . S
C184 C185 1.389 . S
C185 H168 0.939 . S
C185 C180 1.400 . S
C185 C184 1.389 . S
C186 P160 1.819 . S
C186 C187 1.391 . S
C186 C191 1.391 . S
C187 H169 0.941 . S
C187 C186 1.391 . S
C187 C188 1.396 . S
C188 H172 0.939 . S
C188 C187 1.396 . S
C188 C189 1.397 . S
C189 C188 1.397 . S
C189 C190 1.385 . S
C190 H173 0.940 . S
C190 C189 1.385 . S
C190 C191 1.388 . S
C191 H170 0.939 . S
C191 C186 1.391 . S
C191 C190 1.388 . S
P192 O203 1.490 . S
P192 C206 1.812 . S
P192 C212 1.803 . S
P192 C218 1.819 . S
H193 C207 0.941 . S
H194 C208 0.939 . S
H195 C210 0.940 . S
H196 C211 0.940 . S
H197 C213 0.939 . S
H198 C214 0.942 . S
H199 C216 0.940 . S
H200 C217 0.939 . S
H201 C219 0.941 . S
H202 C223 0.939 . S
O203 P192 1.490 . S
H204 C220 0.939 . S
H205 C222 0.940 . S
C206 P192 1.812 . S
C206 C207 1.389 . S
C206 C211 1.391 . S
C207 H193 0.941 . S
C207 C206 1.389 . S
C207 C208 1.397 . S
C208 H194 0.939 . S
C208 C207 1.397 . S
C208 C209 1.378 . S
C209 C208 1.378 . S
C209 C210 1.378 . S
C210 H195 0.940 . S
C210 C209 1.378 . S
C210 C211 1.396 . S
C211 H196 0.940 . S
C211 C206 1.391 . S
C211 C210 1.396 . S
C212 P192 1.803 . S
C212 C213 1.378 . S
C212 C217 1.400 . S
C213 H197 0.939 . S
C213 C212 1.378 . S
C213 C214 1.361 . S
C214 H198 0.942 . S
C214 C213 1.361 . S
C214 C215 1.369 . S
C215 C214 1.369 . S
C215 C216 1.404 . S
C216 H199 0.940 . S
C216 C215 1.404 . S
C216 C217 1.389 . S
C217 H200 0.939 . S
C217 C212 1.400 . S
C217 C216 1.389 . S
C218 P192 1.819 . S
C218 C219 1.391 . S
C218 C223 1.391 . S
C219 H201 0.941 . S
C219 C218 1.391 . S
C219 C220 1.396 . S
C220 H204 0.939 . S
C220 C219 1.396 . S
C220 C221 1.397 . S
C221 C220 1.397 . S
C221 C222 1.385 . S
C222 H205 0.940 . S
C222 C221 1.385 . S
C222 C223 1.388 . S
C223 H202 0.939 . S
C223 C218 1.391 . S
C223 C222 1.388 . S
P224 O235 1.490 . S
P224 C238 1.812 . S
P224 C244 1.803 . S
P224 C250 1.819 . S
H225 C239 0.941 . S
H226 C240 0.939 . S
H227 C242 0.940 . S
H228 C243 0.940 . S
H229 C245 0.939 . S
H230 C246 0.942 . S
H231 C248 0.940 . S
H232 C249 0.939 . S
H233 C251 0.941 . S
H234 C255 0.939 . S
O235 P224 1.490 . S
H236 C252 0.939 . S
H237 C254 0.940 . S
C238 P224 1.812 . S
C238 C239 1.389 . S
C238 C243 1.391 . S
C239 H225 0.941 . S
C239 C238 1.389 . S
C239 C240 1.397 . S
C240 H226 0.939 . S
C240 C239 1.397 . S
C240 C241 1.378 . S
C241 C240 1.378 . S
C241 C242 1.378 . S
C242 H227 0.940 . S
C242 C241 1.378 . S
C242 C243 1.396 . S
C243 H228 0.940 . S
C243 C238 1.391 . S
C243 C242 1.396 . S
C244 P224 1.803 . S
C244 C245 1.378 . S
C244 C249 1.400 . S
C245 H229 0.939 . S
C245 C244 1.378 . S
C245 C246 1.361 . S
C246 H230 0.942 . S
C246 C245 1.361 . S
C246 C247 1.369 . S
C247 C246 1.369 . S
C247 C248 1.404 . S
C248 H231 0.940 . S
C248 C247 1.404 . S
C248 C249 1.389 . S
C249 H232 0.939 . S
C249 C244 1.400 . S
C249 C248 1.389 . S
C250 P224 1.819 . S
C250 C251 1.391 . S
C250 C255 1.391 . S
C251 H233 0.941 . S
C251 C250 1.391 . S
C251 C252 1.396 . S
C252 H236 0.939 . S
C252 C251 1.396 . S
C252 C253 1.397 . S
C253 C252 1.397 . S
C253 C254 1.385 . S
C254 H237 0.940 . S
C254 C253 1.385 . S
C254 C255 1.388 . S
C255 H234 0.939 . S
C255 C250 1.391 . S
C255 C254 1.388 . S
Dy256 O260 2.398 . S
Dy256 O261 2.491 . S
Dy256 O262 2.403 1_545 S
Dy256 O263 2.664 1_545 S
Dy256 O267 2.326 . S
Dy256 O271 2.310 1_455 S
Dy256 O272 2.351 1_445 S
C257 O268 1.185 . S
C257 O269 1.355 . S
C258 O260 1.185 . S
C258 O261 1.355 . S
Dy259 O263 2.308 1_645 S
Dy259 O266 2.356 1_655 S
Dy259 O268 2.395 1_545 S
Dy259 O269 2.486 1_545 S
Dy259 O270 2.406 . S
Dy259 O271 2.667 . S
Dy259 O273 2.323 1_545 S
O260 Dy256 2.398 . S
O260 C258 1.185 . S
O261 Dy256 2.491 . S
O261 C258 1.355 . S
O262 Dy256 2.403 1_565 S
O262 C264 1.254 . S
O263 Dy256 2.664 1_565 S
O263 Dy259 2.308 1_465 S
O263 C264 1.268 . S
C264 O262 1.254 . S
C264 O263 1.268 . S
C265 O270 1.254 . S
C265 O271 1.268 . S
O266 Dy259 2.356 1_455 S
O266 C274 1.249 . S
O267 Dy256 2.326 . S
O267 C274 1.267 . S
O268 C257 1.185 . S
O268 Dy259 2.395 1_565 S
O269 C257 1.355 . S
O269 Dy259 2.486 1_565 S
O270 Dy259 2.406 . S
O270 C265 1.254 . S
O271 Dy256 2.310 1_655 S
O271 Dy259 2.667 . S
O271 C265 1.268 . S
O272 Dy256 2.351 1_665 S
O272 C275 1.249 . S
O273 Dy259 2.323 1_565 S
O273 C275 1.267 . S
C274 O266 1.249 . S
C274 O267 1.267 . S
C275 O272 1.249 . S
C275 O273 1.267 . S
Dy276 O280 2.398 . S
Dy276 O281 2.491 . S
Dy276 O282 2.403 1_545 S
Dy276 O283 2.664 1_545 S
Dy276 O287 2.326 . S
Dy276 O291 2.310 . S
Dy276 O292 2.351 1_544 S
C277 O288 1.211 . S
C277 O289 1.355 . S
C278 O280 1.185 . S
C278 O281 1.355 . S
Dy279 O283 2.310 1_546 S
Dy279 O286 2.351 1_556 S
Dy279 O288 2.395 1_545 S
Dy279 O289 2.491 1_545 S
Dy279 O290 2.403 . S
Dy279 O291 2.664 1_556 S
Dy279 O293 2.326 1_545 S
O280 Dy276 2.398 . S
O280 C278 1.185 . S
O281 Dy276 2.491 . S
O281 C278 1.355 . S
O282 Dy276 2.403 1_565 S
O282 C284 1.254 . S
O283 Dy276 2.664 1_565 S
O283 Dy279 2.310 1_564 S
O283 C284 1.268 . S
C284 O282 1.254 . S
C284 O283 1.268 . S
C285 O290 1.254 . S
C285 O291 1.268 1_556 S
O286 Dy279 2.351 1_554 S
O286 C294 1.249 . S
O287 Dy276 2.326 . S
O287 C294 1.267 . S
O288 C277 1.211 . S
O288 Dy279 2.395 1_565 S
O289 C277 1.355 . S
O289 Dy279 2.491 1_565 S
O290 Dy279 2.403 . S
O290 C285 1.254 . S
O291 Dy276 2.310 . S
O291 Dy279 2.664 1_554 S
O291 C285 1.268 1_554 S
O292 Dy276 2.351 1_566 S
O292 C295 1.249 . S
O293 Dy279 2.326 1_565 S
O293 C295 1.267 . S
C294 O286 1.249 . S
C294 O287 1.267 . S
C295 O292 1.249 . S
C295 O293 1.267 . S
Dy296 O300 2.398 . S
Dy296 O301 2.491 . S
Dy296 O302 2.403 . S
Dy296 O303 2.664 . S
Dy296 O307 2.326 . S
Dy296 O311 2.310 . S
Dy296 O312 2.351 . S
C297 O308 1.185 . S
C297 O309 1.355 . S
C298 O300 1.185 . S
C298 O301 1.355 . S
Dy299 O303 2.310 . S
Dy299 O306 2.351 . S
Dy299 O308 2.398 . S
Dy299 O309 2.491 . S
Dy299 O310 2.403 . S
Dy299 O311 2.664 . S
Dy299 O313 2.326 . S
O300 Dy296 2.398 . S
O300 C298 1.185 . S
O301 Dy296 2.491 . S
O301 C298 1.355 . S
O302 Dy296 2.403 . S
O302 C304 1.254 . S
O303 Dy296 2.664 . S
O303 Dy299 2.310 . S
O303 C304 1.268 . S
C304 O302 1.254 . S
C304 O303 1.268 . S
C305 O310 1.254 . S
C305 O311 1.268 . S
O306 Dy299 2.351 . S
O306 C314 1.249 . S
O307 Dy296 2.326 . S
O307 C314 1.267 . S
O308 C297 1.185 . S
O308 Dy299 2.398 . S
O309 C297 1.355 . S
O309 Dy299 2.491 . S
O310 Dy299 2.403 . S
O310 C305 1.254 . S
O311 Dy296 2.310 . S
O311 Dy299 2.664 . S
O311 C305 1.268 . S
O312 Dy296 2.351 . S
O312 C315 1.249 . S
O313 Dy299 2.326 . S
O313 C315 1.267 . S
C314 O306 1.249 . S
C314 O307 1.267 . S
C315 O312 1.249 . S
C315 O313 1.267 . S
Dy316 O320 2.398 . S
Dy316 O321 2.491 . S
Dy316 O322 2.403 1_455 S
Dy316 O323 2.664 1_455 S
Dy316 O327 2.326 . S
Dy316 O331 2.310 1_554 S
Dy316 O332 2.349 1_454 S
C317 O328 1.185 . S
C317 O329 1.355 . S
C318 O320 1.185 . S
C318 O321 1.355 . S
Dy319 O323 2.310 1_556 S
Dy319 O326 2.351 1_656 S
Dy319 O328 2.398 . S
Dy319 O329 2.491 . S
Dy319 O330 2.403 1_655 S
Dy319 O331 2.664 1_655 S
Dy319 O333 2.326 . S
O320 Dy316 2.398 . S
O320 C318 1.185 . S
O321 Dy316 2.491 . S
O321 C318 1.355 . S
O322 Dy316 2.403 1_655 S
O322 C324 1.254 . S
O323 Dy316 2.664 1_655 S
O323 Dy319 2.310 1_554 S
O323 C324 1.268 . S
C324 O322 1.254 . S
C324 O323 1.268 . S
C325 O330 1.254 . S
C325 O331 1.268 . S
O326 Dy319 2.351 1_454 S
O326 C334 1.249 . S
O327 Dy316 2.326 . S
O327 C334 1.267 . S
O328 C317 1.185 . S
O328 Dy319 2.398 . S
O329 C317 1.355 . S
O329 Dy319 2.491 . S
O330 Dy319 2.403 1_455 S
O330 C325 1.254 . S
O331 Dy316 2.310 1_556 S
O331 Dy319 2.664 1_455 S
O331 C325 1.268 . S
O332 Dy316 2.349 1_656 S
O332 C335 1.252 . S
O333 Dy319 2.326 . S
O333 C335 1.267 . S
C334 O326 1.249 . S
C334 O327 1.267 . S
C335 O332 1.252 . S
C335 O333 1.267 . S
C336 C337 1.391 . S
C336 C338 1.394 . S
C336 H352 0.931 . S
C337 C336 1.391 . S
C337 C341 1.376 . S
C338 C336 1.394 . S
C338 C339 1.369 . S
C338 C342 1.531 . S
C339 C338 1.369 . S
C339 C340 1.410 . S
C339 C347 1.503 . S
C340 C339 1.410 . S
C340 C341 1.392 . S
C340 C343 1.511 . S
C341 C337 1.376 . S
C341 C340 1.392 . S
C341 H353 0.929 . S
C342 C338 1.531 . S
C342 H354 0.960 . S
C342 H355 0.962 . S
C342 H356 0.960 . S
C343 C340 1.511 . S
C343 H357 0.961 . S
C343 H358 0.961 . S
C343 H359 0.961 . S
C344 C345 1.370 . S
C344 C346 1.363 . S
C344 H360 0.931 . S
C345 C344 1.370 . S
C345 C349 1.408 . S
C346 C344 1.363 . S
C346 C347 1.370 . S
C346 C350 1.524 . S
C347 C339 1.503 . S
C347 C346 1.370 . S
C347 C348 1.403 . S
C348 C347 1.403 . S
C348 C349 1.404 . S
C348 C351 1.539 . S
C349 C345 1.408 . S
C349 C348 1.404 . S
C349 H361 0.930 . S
C350 C346 1.524 . S
C350 H362 0.956 . S
C350 H363 0.961 . S
C350 H364 0.961 . S
C351 C348 1.539 . S
C351 H365 0.958 . S
C351 H366 0.961 . S
C351 H367 0.960 . S
H352 C336 0.931 . S
H353 C341 0.929 . S
H354 C342 0.960 . S
H355 C342 0.962 . S
H356 C342 0.960 . S
H357 C343 0.961 . S
H358 C343 0.961 . S
H359 C343 0.961 . S
H360 C344 0.931 . S
H361 C349 0.930 . S
H362 C350 0.956 . S
H363 C350 0.961 . S
H364 C350 0.961 . S
H365 C351 0.958 . S
H366 C351 0.961 . S
H367 C351 0.960 . S
C368 C369 1.391 . S
C368 C370 1.394 . S
C368 H384 0.931 . S
C369 C368 1.391 . S
C369 C373 1.376 . S
C370 C368 1.394 . S
C370 C371 1.369 . S
C370 C374 1.531 . S
C371 C370 1.369 . S
C371 C372 1.410 . S
C371 C379 1.503 . S
C372 C371 1.410 . S
C372 C373 1.392 . S
C372 C375 1.511 . S
C373 C369 1.376 . S
C373 C372 1.392 . S
C373 H385 0.929 . S
C374 C370 1.531 . S
C374 H386 0.960 . S
C374 H387 0.962 . S
C374 H388 0.960 . S
C375 C372 1.511 . S
C375 H389 0.961 . S
C375 H390 0.961 . S
C375 H391 0.961 . S
C376 C377 1.370 . S
C376 C378 1.363 . S
C376 H392 0.931 . S
C377 C376 1.370 . S
C377 C381 1.408 . S
C378 C376 1.363 . S
C378 C379 1.370 . S
C378 C382 1.524 . S
C379 C371 1.503 . S
C379 C378 1.370 . S
C379 C380 1.403 . S
C380 C379 1.403 . S
C380 C381 1.404 . S
C380 C383 1.539 . S
C381 C377 1.408 . S
C381 C380 1.404 . S
C381 H393 0.930 . S
C382 C378 1.524 . S
C382 H394 0.956 . S
C382 H395 0.961 . S
C382 H396 0.961 1_565 S
C383 C380 1.539 . S
C383 H397 0.958 . S
C383 H398 0.961 . S
C383 H399 0.960 . S
H384 C368 0.931 . S
H385 C373 0.929 . S
H386 C374 0.960 . S
H387 C374 0.962 . S
H388 C374 0.960 . S
H389 C375 0.961 . S
H390 C375 0.961 . S
H391 C375 0.961 . S
H392 C376 0.931 . S
H393 C381 0.930 . S
H394 C382 0.956 . S
H395 C382 0.961 . S
H396 C382 0.961 1_545 S
H397 C383 0.958 . S
H398 C383 0.961 . S
H399 C383 0.960 . S
C400 C401 1.391 . S
C400 C402 1.394 . S
C400 H416 0.931 . S
C401 C400 1.391 . S
C401 C405 1.376 . S
C402 C400 1.394 . S
C402 C403 1.369 . S
C402 C406 1.531 . S
C403 C402 1.369 . S
C403 C404 1.410 . S
C403 C411 1.503 . S
C404 C403 1.410 . S
C404 C405 1.392 . S
C404 C407 1.511 . S
C405 C401 1.376 . S
C405 C404 1.392 . S
C405 H417 0.929 . S
C406 C402 1.531 . S
C406 H418 0.960 . S
C406 H419 0.962 . S
C406 H420 0.960 . S
C407 C404 1.511 . S
C407 H421 0.961 . S
C407 H422 0.961 . S
C407 H423 0.961 . S
C408 C409 1.370 . S
C408 C410 1.363 . S
C408 H424 0.931 . S
C409 C408 1.370 . S
C409 C413 1.408 . S
C410 C408 1.363 . S
C410 C411 1.370 . S
C410 C414 1.524 . S
C411 C403 1.503 . S
C411 C410 1.370 . S
C411 C412 1.403 . S
C412 C411 1.403 . S
C412 C413 1.404 . S
C412 C415 1.539 . S
C413 C409 1.408 . S
C413 C412 1.404 . S
C413 H425 0.930 . S
C414 C410 1.524 . S
C414 H426 0.956 . S
C414 H427 0.961 . S
C414 H428 0.961 . S
C415 C412 1.539 . S
C415 H429 0.958 . S
C415 H430 0.961 . S
C415 H431 0.960 . S
H416 C400 0.931 . S
H417 C405 0.929 . S
H418 C406 0.960 . S
H419 C406 0.962 . S
H420 C406 0.960 . S
H421 C407 0.961 . S
H422 C407 0.961 . S
H423 C407 0.961 . S
H424 C408 0.931 . S
H425 C413 0.930 . S
H426 C414 0.956 . S
H427 C414 0.961 . S
H428 C414 0.961 . S
H429 C415 0.958 . S
H430 C415 0.961 . S
H431 C415 0.960 . S
C432 C433 1.391 . S
C432 C434 1.394 . S
C432 H448 0.931 . S
C433 C432 1.391 . S
C433 C437 1.376 . S
C434 C432 1.394 . S
C434 C435 1.369 . S
C434 C438 1.531 . S
C435 C434 1.369 . S
C435 C436 1.410 . S
C435 C443 1.503 . S
C436 C435 1.410 . S
C436 C437 1.392 . S
C436 C439 1.511 . S
C437 C433 1.376 . S
C437 C436 1.392 . S
C437 H449 0.929 . S
C438 C434 1.531 . S
C438 H450 0.960 . S
C438 H451 0.962 . S
C438 H452 0.960 . S
C439 C436 1.511 . S
C439 H453 0.961 . S
C439 H454 0.961 . S
C439 H455 0.961 . S
C440 C441 1.370 . S
C440 C442 1.363 . S
C440 H456 0.931 . S
C441 C440 1.370 . S
C441 C445 1.408 . S
C442 C440 1.363 . S
C442 C443 1.370 . S
C442 C446 1.524 . S
C443 C435 1.503 . S
C443 C442 1.370 . S
C443 C444 1.403 . S
C444 C443 1.403 . S
C444 C445 1.404 . S
C444 C447 1.539 . S
C445 C441 1.408 . S
C445 C444 1.404 . S
C445 H457 0.930 . S
C446 C442 1.524 . S
C446 H458 0.956 . S
C446 H459 0.961 . S
C446 H460 0.961 . S
C447 C444 1.539 . S
C447 H461 0.955 1_655 S
C447 H462 0.961 . S
C447 H463 0.960 . S
H448 C432 0.931 . S
H449 C437 0.929 . S
H450 C438 0.960 . S
H451 C438 0.962 . S
H452 C438 0.960 . S
H453 C439 0.961 . S
H454 C439 0.961 . S
H455 C439 0.961 . S
H456 C440 0.931 . S
H457 C445 0.930 . S
H458 C446 0.956 . S
H459 C446 0.961 . S
H460 C446 0.961 . S
H461 C447 0.955 1_455 S
H462 C447 0.961 . S
H463 C447 0.960 . S
C464 C465 1.391 . S
C464 C466 1.394 . S
C464 H480 0.931 . S
C465 C464 1.391 . S
C465 C469 1.376 . S
C466 C464 1.394 . S
C466 C467 1.369 . S
C466 C470 1.531 . S
C467 C466 1.369 . S
C467 C468 1.410 . S
C467 C475 1.503 . S
C468 C467 1.410 . S
C468 C469 1.392 . S
C468 C471 1.511 . S
C469 C465 1.376 . S
C469 C468 1.392 . S
C469 H481 0.929 . S
C470 C466 1.531 . S
C470 H482 0.960 . S
C470 H483 0.962 . S
C470 H484 0.960 . S
C471 C468 1.511 . S
C471 H485 0.961 . S
C471 H486 0.961 . S
C471 H487 0.961 . S
C472 C473 1.370 . S
C472 C474 1.363 . S
C472 H488 0.931 . S
C473 C472 1.370 . S
C473 C477 1.408 . S
C474 C472 1.363 . S
C474 C475 1.370 . S
C474 C478 1.524 . S
C475 C467 1.503 . S
C475 C474 1.370 . S
C475 C476 1.403 . S
C476 C475 1.403 . S
C476 C477 1.404 . S
C476 C479 1.539 . S
C477 C473 1.408 . S
C477 C476 1.404 . S
C477 H489 0.930 . S
C478 C474 1.524 . S
C478 H490 0.956 . S
C478 H491 0.961 . S
C478 H492 0.961 . S
C479 C476 1.539 . S
C479 H493 0.958 . S
C479 H494 0.961 . S
C479 H495 0.960 . S
H480 C464 0.931 . S
H481 C469 0.929 . S
H482 C470 0.960 . S
H483 C470 0.962 . S
H484 C470 0.960 . S
H485 C471 0.961 . S
H486 C471 0.961 . S
H487 C471 0.961 . S
H488 C472 0.931 . S
H489 C477 0.930 . S
H490 C478 0.956 . S
H491 C478 0.961 . S
H492 C478 0.961 . S
H493 C479 0.958 . S
H494 C479 0.961 . S
H495 C479 0.960 . S
C496 C497 1.391 . S
C496 C498 1.394 . S
C496 H512 0.931 . S
C497 C496 1.391 . S
C497 C501 1.376 . S
C498 C496 1.394 . S
C498 C499 1.369 . S
C498 C502 1.531 . S
C499 C498 1.369 . S
C499 C500 1.410 . S
C499 C507 1.503 . S
C500 C499 1.410 . S
C500 C501 1.392 . S
C500 C503 1.511 . S
C501 C497 1.376 . S
C501 C500 1.392 . S
C501 H513 0.929 . S
C502 C498 1.531 . S
C502 H514 0.960 . S
C502 H515 0.962 . S
C502 H516 0.960 . S
C503 C500 1.511 . S
C503 H517 0.961 . S
C503 H518 0.961 . S
C503 H519 0.961 . S
C504 C505 1.370 . S
C504 C506 1.363 . S
C504 H520 0.931 . S
C505 C504 1.370 . S
C505 C509 1.408 . S
C506 C504 1.363 . S
C506 C507 1.370 . S
C506 C510 1.524 . S
C507 C499 1.503 . S
C507 C506 1.370 . S
C507 C508 1.403 . S
C508 C507 1.403 . S
C508 C509 1.404 . S
C508 C511 1.539 . S
C509 C505 1.408 . S
C509 C508 1.404 . S
C509 H521 0.930 1_565 S
C510 C506 1.524 . S
C510 H522 0.956 . S
C510 H523 0.961 . S
C510 H524 0.961 . S
C511 C508 1.539 . S
C511 H525 0.958 1_565 S
C511 H526 0.961 . S
C511 H527 0.960 . S
H512 C496 0.931 . S
H513 C501 0.929 . S
H514 C502 0.960 . S
H515 C502 0.962 . S
H516 C502 0.960 . S
H517 C503 0.961 . S
H518 C503 0.961 . S
H519 C503 0.961 . S
H520 C504 0.931 . S
H521 C509 0.930 1_545 S
H522 C510 0.956 . S
H523 C510 0.961 . S
H524 C510 0.961 . S
H525 C511 0.958 1_545 S
H526 C511 0.961 . S
H527 C511 0.960 . S
C528 C529 1.391 . S
C528 C530 1.394 . S
C528 H544 0.931 . S
C529 C528 1.391 . S
C529 C533 1.376 . S
C530 C528 1.394 . S
C530 C531 1.369 . S
C530 C534 1.531 . S
C531 C530 1.369 . S
C531 C532 1.410 . S
C531 C539 1.503 . S
C532 C531 1.410 . S
C532 C533 1.392 . S
C532 C535 1.511 . S
C533 C529 1.376 . S
C533 C532 1.392 . S
C533 H545 0.929 . S
C534 C530 1.531 . S
C534 H546 0.960 . S
C534 H547 0.962 . S
C534 H548 0.960 . S
C535 C532 1.511 . S
C535 H549 0.961 . S
C535 H550 0.961 . S
C535 H551 0.961 . S
C536 C537 1.370 . S
C536 C538 1.363 . S
C536 H552 0.931 . S
C537 C536 1.370 . S
C537 C541 1.408 . S
C538 C536 1.363 . S
C538 C539 1.370 . S
C538 C542 1.524 . S
C539 C531 1.503 . S
C539 C538 1.370 . S
C539 C540 1.403 . S
C540 C539 1.403 . S
C540 C541 1.404 . S
C540 C543 1.539 . S
C541 C537 1.408 . S
C541 C540 1.404 . S
C541 H553 0.930 . S
C542 C538 1.524 . S
C542 H554 0.956 . S
C542 H555 0.961 . S
C542 H556 0.961 . S
C543 C540 1.539 . S
C543 H557 0.958 . S
C543 H558 0.961 . S
C543 H559 0.960 . S
H544 C528 0.931 . S
H545 C533 0.929 . S
H546 C534 0.960 . S
H547 C534 0.962 . S
H548 C534 0.960 . S
H549 C535 0.961 . S
H550 C535 0.961 . S
H551 C535 0.961 . S
H552 C536 0.931 . S
H553 C541 0.930 . S
H554 C542 0.956 . S
H555 C542 0.961 . S
H556 C542 0.961 . S
H557 C543 0.958 . S
H558 C543 0.961 . S
H559 C543 0.960 . S
C560 C561 1.391 . S
C560 C562 1.394 . S
C560 H576 0.931 . S
C561 C560 1.391 . S
C561 C565 1.376 . S
C562 C560 1.394 . S
C562 C563 1.369 . S
C562 C566 1.531 . S
C563 C562 1.369 . S
C563 C564 1.410 . S
C563 C571 1.503 . S
C564 C563 1.410 . S
C564 C565 1.392 . S
C564 C567 1.511 . S
C565 C561 1.376 . S
C565 C564 1.392 . S
C565 H577 0.929 . S
C566 C562 1.531 . S
C566 H578 0.960 . S
C566 H579 0.962 . S
C566 H580 0.960 . S
C567 C564 1.511 . S
C567 H581 0.961 . S
C567 H582 0.961 . S
C567 H583 0.961 . S
C568 C569 1.370 . S
C568 C570 1.363 . S
C568 H584 0.931 . S
C569 C568 1.370 . S
C569 C573 1.408 . S
C570 C568 1.363 . S
C570 C571 1.370 . S
C570 C574 1.524 . S
C571 C563 1.503 . S
C571 C570 1.370 . S
C571 C572 1.403 . S
C572 C571 1.403 . S
C572 C573 1.404 . S
C572 C575 1.539 . S
C573 C569 1.408 . S
C573 C572 1.404 . S
C573 H585 0.930 . S
C574 C570 1.524 . S
C574 H586 0.956 . S
C574 H587 0.961 . S
C574 H588 0.961 . S
C575 C572 1.539 . S
C575 H589 0.958 . S
C575 H590 0.961 . S
C575 H591 0.960 . S
H576 C560 0.931 . S
H577 C565 0.929 . S
H578 C566 0.960 . S
H579 C566 0.962 . S
H580 C566 0.960 . S
H581 C567 0.961 . S
H582 C567 0.961 . S
H583 C567 0.961 . S
H584 C568 0.931 . S
H585 C573 0.930 . S
H586 C574 0.956 . S
H587 C574 0.961 . S
H588 C574 0.961 . S
H589 C575 0.958 . S
H590 C575 0.961 . S
H591 C575 0.960 . S
C592 C593 1.391 . S
C592 C594 1.394 . S
C592 H608 0.931 . S
C593 C592 1.391 . S
C593 C597 1.376 . S
C594 C592 1.394 . S
C594 C595 1.369 . S
C594 C598 1.531 . S
C595 C594 1.369 . S
C595 C596 1.410 . S
C595 C603 1.503 . S
C596 C595 1.410 . S
C596 C597 1.392 . S
C596 C599 1.511 . S
C597 C593 1.376 . S
C597 C596 1.392 . S
C597 H609 0.929 . S
C598 C594 1.531 . S
C598 H610 0.960 . S
C598 H611 0.962 . S
C598 H612 0.960 . S
C599 C596 1.511 . S
C599 H613 0.961 . S
C599 H614 0.961 . S
C599 H615 0.961 . S
C600 C601 1.370 . S
C600 C602 1.363 . S
C600 H616 0.931 . S
C601 C600 1.370 . S
C601 C605 1.408 . S
C602 C600 1.363 . S
C602 C603 1.370 . S
C602 C606 1.524 . S
C603 C595 1.503 . S
C603 C602 1.370 . S
C603 C604 1.403 . S
C604 C603 1.403 . S
C604 C605 1.404 . S
C604 C607 1.539 . S
C605 C601 1.408 . S
C605 C604 1.404 . S
C605 H617 0.930 . S
C606 C602 1.524 . S
C606 H618 0.956 . S
C606 H619 0.961 . S
C606 H620 0.961 . S
C607 C604 1.539 . S
C607 H621 0.958 . S
C607 H622 0.961 . S
C607 H623 0.960 . S
H608 C592 0.931 . S
H609 C597 0.929 . S
H610 C598 0.960 . S
H611 C598 0.962 . S
H612 C598 0.960 . S
H613 C599 0.961 . S
H614 C599 0.961 . S
H615 C599 0.961 . S
H616 C600 0.931 . S
H617 C605 0.930 . S
H618 C606 0.956 . S
H619 C606 0.961 . S
H620 C606 0.961 . S
H621 C607 0.958 . S
H622 C607 0.961 . S
H623 C607 0.960 . S
C624 C625 1.391 . S
C624 C626 1.394 . S
C624 H640 0.931 . S
C625 C624 1.391 . S
C625 C629 1.376 . S
C626 C624 1.394 . S
C626 C627 1.369 . S
C626 C630 1.531 . S
C627 C626 1.369 . S
C627 C628 1.410 . S
C627 C635 1.503 . S
C628 C627 1.410 . S
C628 C629 1.392 . S
C628 C631 1.511 . S
C629 C625 1.376 . S
C629 C628 1.392 . S
C629 H641 0.929 . S
C630 C626 1.531 . S
C630 H642 0.960 . S
C630 H643 0.962 . S
C630 H644 0.960 . S
C631 C628 1.511 . S
C631 H645 0.961 . S
C631 H646 0.961 . S
C631 H647 0.961 . S
C632 C633 1.370 . S
C632 C634 1.363 . S
C632 H648 0.931 . S
C633 C632 1.370 . S
C633 C637 1.408 . S
C634 C632 1.363 . S
C634 C635 1.370 . S
C634 C638 1.524 . S
C635 C627 1.503 . S
C635 C634 1.370 . S
C635 C636 1.403 . S
C636 C635 1.403 . S
C636 C637 1.404 . S
C636 C639 1.539 . S
C637 C633 1.408 . S
C637 C636 1.404 . S
C637 H649 0.930 1_556 S
C638 C634 1.524 . S
C638 H650 0.956 . S
C638 H651 0.961 . S
C638 H652 0.961 . S
C639 C636 1.539 . S
C639 H653 0.958 . S
C639 H654 0.961 1_556 S
C639 H655 0.960 . S
H640 C624 0.931 . S
H641 C629 0.929 . S
H642 C630 0.960 . S
H643 C630 0.962 . S
H644 C630 0.960 . S
H645 C631 0.961 . S
H646 C631 0.961 . S
H647 C631 0.961 . S
H648 C632 0.931 . S
H649 C637 0.930 1_554 S
H650 C638 0.956 . S
H651 C638 0.961 . S
H652 C638 0.961 . S
H653 C639 0.958 . S
H654 C639 0.961 1_554 S
H655 C639 0.960 . S
C656 C657 1.391 . S
C656 C658 1.394 . S
C656 H672 0.931 . S
C657 C656 1.391 . S
C657 C661 1.376 . S
C658 C656 1.394 . S
C658 C659 1.369 . S
C658 C662 1.531 . S
C659 C658 1.369 . S
C659 C660 1.410 . S
C659 C667 1.503 . S
C660 C659 1.410 . S
C660 C661 1.392 . S
C660 C663 1.511 . S
C661 C657 1.376 . S
C661 C660 1.392 . S
C661 H673 0.929 . S
C662 C658 1.531 . S
C662 H674 0.960 . S
C662 H675 0.962 . S
C662 H676 0.960 . S
C663 C660 1.511 . S
C663 H677 0.961 . S
C663 H678 0.961 . S
C663 H679 0.961 . S
C664 C665 1.370 . S
C664 C666 1.363 . S
C664 H680 0.931 . S
C665 C664 1.370 . S
C665 C669 1.408 . S
C666 C664 1.363 . S
C666 C667 1.370 . S
C666 C670 1.524 . S
C667 C659 1.503 . S
C667 C666 1.370 . S
C667 C668 1.403 . S
C668 C667 1.403 . S
C668 C669 1.404 . S
C668 C671 1.539 . S
C669 C665 1.408 . S
C669 C668 1.404 . S
C669 H681 0.930 . S
C670 C666 1.524 . S
C670 H682 0.956 . S
C670 H683 0.961 . S
C670 H684 0.961 . S
C671 C668 1.539 . S
C671 H685 0.958 . S
C671 H686 0.961 . S
C671 H687 0.960 . S
H672 C656 0.931 . S
H673 C661 0.929 . S
H674 C662 0.960 . S
H675 C662 0.962 . S
H676 C662 0.960 . S
H677 C663 0.961 . S
H678 C663 0.961 . S
H679 C663 0.961 . S
H680 C664 0.931 . S
H681 C669 0.930 . S
H682 C670 0.956 . S
H683 C670 0.961 . S
H684 C670 0.961 . S
H685 C671 0.958 . S
H686 C671 0.961 . S
H687 C671 0.960 . S
C688 C689 1.391 . S
C688 C690 1.394 . S
C688 H704 0.931 . S
C689 C688 1.391 . S
C689 C693 1.376 . S
C690 C688 1.394 . S
C690 C691 1.369 . S
C690 C694 1.531 . S
C691 C690 1.369 . S
C691 C692 1.410 . S
C691 C699 1.503 . S
C692 C691 1.410 . S
C692 C693 1.392 . S
C692 C695 1.511 . S
C693 C689 1.376 . S
C693 C692 1.392 . S
C693 H705 0.929 . S
C694 C690 1.531 . S
C694 H706 0.960 . S
C694 H707 0.962 . S
C694 H708 0.960 . S
C695 C692 1.511 . S
C695 H709 0.961 . S
C695 H710 0.961 . S
C695 H711 0.961 . S
C696 C697 1.370 . S
C696 C698 1.363 . S
C696 H712 0.931 . S
C697 C696 1.370 . S
C697 C701 1.408 . S
C698 C696 1.363 . S
C698 C699 1.370 . S
C698 C702 1.524 . S
C699 C691 1.503 . S
C699 C698 1.370 . S
C699 C700 1.403 . S
C700 C699 1.403 . S
C700 C701 1.404 . S
C700 C703 1.539 . S
C701 C697 1.408 . S
C701 C700 1.404 . S
C701 H713 0.930 . S
C702 C698 1.524 . S
C702 H714 0.956 . S
C702 H715 0.961 . S
C702 H716 0.961 . S
C703 C700 1.539 . S
C703 H717 0.958 . S
C703 H718 0.961 . S
C703 H719 0.960 . S
H704 C688 0.931 . S
H705 C693 0.929 . S
H706 C694 0.960 . S
H707 C694 0.962 . S
H708 C694 0.960 . S
H709 C695 0.961 . S
H710 C695 0.961 . S
H711 C695 0.961 . S
H712 C696 0.931 . S
H713 C701 0.930 . S
H714 C702 0.956 . S
H715 C702 0.961 . S
H716 C702 0.961 . S
H717 C703 0.958 . S
H718 C703 0.961 . S
H719 C703 0.960 . S
C720 C721 1.391 . S
C720 C722 1.394 . S
C720 H736 0.931 . S
C721 C720 1.391 . S
C721 C725 1.376 . S
C722 C720 1.394 . S
C722 C723 1.369 . S
C722 C726 1.531 . S
C723 C722 1.369 . S
C723 C724 1.410 . S
C723 C731 1.503 . S
C724 C723 1.410 . S
C724 C725 1.392 . S
C724 C727 1.511 . S
C725 C721 1.376 . S
C725 C724 1.392 . S
C725 H737 0.929 . S
C726 C722 1.531 . S
C726 H738 0.960 . S
C726 H739 0.962 . S
C726 H740 0.960 . S
C727 C724 1.511 . S
C727 H741 0.961 . S
C727 H742 0.961 . S
C727 H743 0.961 . S
C728 C729 1.370 . S
C728 C730 1.363 . S
C728 H744 0.931 . S
C729 C728 1.370 . S
C729 C733 1.408 . S
C730 C728 1.363 . S
C730 C731 1.370 . S
C730 C734 1.524 . S
C731 C723 1.503 . S
C731 C730 1.370 . S
C731 C732 1.403 . S
C732 C731 1.403 . S
C732 C733 1.404 . S
C732 C735 1.539 . S
C733 C729 1.408 . S
C733 C732 1.404 . S
C733 H745 0.930 . S
C734 C730 1.524 . S
C734 H746 0.956 . S
C734 H747 0.961 . S
C734 H748 0.961 . S
C735 C732 1.539 . S
C735 H749 0.958 . S
C735 H750 0.961 . S
C735 H751 0.960 . S
H736 C720 0.931 . S
H737 C725 0.929 . S
H738 C726 0.960 . S
H739 C726 0.962 . S
H740 C726 0.960 . S
H741 C727 0.961 . S
H742 C727 0.961 . S
H743 C727 0.961 . S
H744 C728 0.931 . S
H745 C733 0.930 . S
H746 C734 0.956 . S
H747 C734 0.961 . S
H748 C734 0.961 . S
H749 C735 0.958 . S
H750 C735 0.961 . S
H751 C735 0.960 . S
C752 C753 1.391 . S
C752 C754 1.394 . S
C752 H768 0.931 . S
C753 C752 1.391 . S
C753 C757 1.376 . S
C754 C752 1.394 . S
C754 C755 1.369 . S
C754 C758 1.531 . S
C755 C754 1.369 . S
C755 C756 1.410 . S
C755 C763 1.503 . S
C756 C755 1.410 . S
C756 C757 1.392 . S
C756 C759 1.511 . S
C757 C753 1.376 . S
C757 C756 1.392 . S
C757 H769 0.929 . S
C758 C754 1.531 . S
C758 H770 0.960 . S
C758 H771 0.962 . S
C758 H772 0.960 . S
C759 C756 1.511 . S
C759 H773 0.961 . S
C759 H774 0.961 . S
C759 H775 0.961 . S
C760 C761 1.370 . S
C760 C762 1.363 . S
C760 H776 0.931 . S
C761 C760 1.370 . S
C761 C765 1.408 . S
C762 C760 1.363 . S
C762 C763 1.370 . S
C762 C766 1.524 . S
C763 C755 1.503 . S
C763 C762 1.370 . S
C763 C764 1.403 . S
C764 C763 1.403 . S
C764 C765 1.404 . S
C764 C767 1.539 . S
C765 C761 1.408 . S
C765 C764 1.404 . S
C765 H777 0.930 . S
C766 C762 1.524 . S
C766 H778 0.956 . S
C766 H779 0.961 . S
C766 H780 0.961 . S
C767 C764 1.539 . S
C767 H781 0.958 . S
C767 H782 0.961 . S
C767 H783 0.960 . S
H768 C752 0.931 . S
H769 C757 0.929 . S
H770 C758 0.960 . S
H771 C758 0.962 . S
H772 C758 0.960 . S
H773 C759 0.961 . S
H774 C759 0.961 . S
H775 C759 0.961 . S
H776 C760 0.931 . S
H777 C765 0.930 . S
H778 C766 0.956 . S
H779 C766 0.961 . S
H780 C766 0.961 . S
H781 C767 0.958 . S
H782 C767 0.961 . S
H783 C767 0.960 . S
C784 C785 1.391 . S
C784 C786 1.394 . S
C784 H800 0.931 . S
C785 C784 1.391 . S
C785 C789 1.376 . S
C786 C784 1.394 . S
C786 C787 1.369 . S
C786 C790 1.531 . S
C787 C786 1.369 . S
C787 C788 1.410 . S
C787 C795 1.503 . S
C788 C787 1.410 . S
C788 C789 1.392 . S
C788 C791 1.511 . S
C789 C785 1.376 . S
C789 C788 1.392 . S
C789 H801 0.929 . S
C790 C786 1.531 . S
C790 H802 0.960 . S
C790 H803 0.962 . S
C790 H804 0.960 . S
C791 C788 1.511 . S
C791 H805 0.961 . S
C791 H806 0.961 . S
C791 H807 0.961 . S
C792 C793 1.370 . S
C792 C794 1.363 . S
C792 H808 0.931 . S
C793 C792 1.370 . S
C793 C797 1.408 . S
C794 C792 1.363 . S
C794 C795 1.370 . S
C794 C798 1.524 . S
C795 C787 1.503 . S
C795 C794 1.370 . S
C795 C796 1.403 . S
C796 C795 1.403 . S
C796 C797 1.404 . S
C796 C799 1.539 . S
C797 C793 1.408 . S
C797 C796 1.404 . S
C797 H809 0.930 . S
C798 C794 1.524 . S
C798 H810 0.956 . S
C798 H811 0.961 . S
C798 H812 0.961 . S
C799 C796 1.539 . S
C799 H813 0.958 . S
C799 H814 0.961 . S
C799 H815 0.960 . S
H800 C784 0.931 . S
H801 C789 0.929 . S
H802 C790 0.960 . S
H803 C790 0.962 . S
H804 C790 0.960 . S
H805 C791 0.961 . S
H806 C791 0.961 . S
H807 C791 0.961 . S
H808 C792 0.931 . S
H809 C797 0.930 . S
H810 C798 0.956 . S
H811 C798 0.961 . S
H812 C798 0.961 . S
H813 C799 0.958 . S
H814 C799 0.961 . S
H815 C799 0.960 . S
C816 C817 1.391 . S
C816 C818 1.394 . S
C816 H832 0.931 . S
C817 C816 1.391 . S
C817 C821 1.376 . S
C818 C816 1.394 . S
C818 C819 1.369 . S
C818 C822 1.531 . S
C819 C818 1.369 . S
C819 C820 1.410 . S
C819 C827 1.503 . S
C820 C819 1.410 . S
C820 C821 1.392 . S
C820 C823 1.511 . S
C821 C817 1.376 . S
C821 C820 1.392 . S
C821 H833 0.929 . S
C822 C818 1.531 . S
C822 H834 0.960 . S
C822 H835 0.962 . S
C822 H836 0.960 . S
C823 C820 1.511 . S
C823 H837 0.961 . S
C823 H838 0.961 . S
C823 H839 0.961 . S
C824 C825 1.370 . S
C824 C826 1.363 . S
C824 H840 0.931 . S
C825 C824 1.370 . S
C825 C829 1.408 . S
C826 C824 1.363 . S
C826 C827 1.370 . S
C826 C830 1.524 . S
C827 C819 1.503 . S
C827 C826 1.370 . S
C827 C828 1.403 . S
C828 C827 1.403 . S
C828 C829 1.404 . S
C828 C831 1.539 . S
C829 C825 1.408 . S
C829 C828 1.404 . S
C829 H841 0.930 . S
C830 C826 1.524 . S
C830 H842 0.956 . S
C830 H843 0.961 . S
C830 H844 0.961 . S
C831 C828 1.539 . S
C831 H845 0.958 . S
C831 H846 0.961 . S
C831 H847 0.960 . S
H832 C816 0.931 . S
H833 C821 0.929 . S
H834 C822 0.960 . S
H835 C822 0.962 . S
H836 C822 0.960 . S
H837 C823 0.961 . S
H838 C823 0.961 . S
H839 C823 0.961 . S
H840 C824 0.931 . S
H841 C829 0.930 . S
H842 C830 0.956 . S
H843 C830 0.961 . S
H844 C830 0.961 . S
H845 C831 0.958 . S
H846 C831 0.961 . S
H847 C831 0.960 . S
C848 C849 1.391 . S
C848 C850 1.394 . S
C848 H864 0.931 . S
C849 C848 1.391 . S
C849 C853 1.376 . S
C850 C848 1.394 . S
C850 C851 1.369 . S
C850 C854 1.531 . S
C851 C850 1.369 . S
C851 C852 1.410 . S
C851 C859 1.503 . S
C852 C851 1.410 . S
C852 C853 1.392 . S
C852 C855 1.511 . S
C853 C849 1.376 . S
C853 C852 1.392 . S
C853 H865 0.929 . S
C854 C850 1.531 . S
C854 H866 0.960 . S
C854 H867 0.962 . S
C854 H868 0.960 . S
C855 C852 1.511 . S
C855 H869 0.961 . S
C855 H870 0.961 . S
C855 H871 0.961 . S
C856 C857 1.370 . S
C856 C858 1.363 . S
C856 H872 0.931 . S
C857 C856 1.370 . S
C857 C861 1.408 . S
C858 C856 1.363 . S
C858 C859 1.370 . S
C858 C862 1.524 . S
C859 C851 1.503 . S
C859 C858 1.370 . S
C859 C860 1.403 . S
C860 C859 1.403 . S
C860 C861 1.404 . S
C860 C863 1.539 . S
C861 C857 1.408 . S
C861 C860 1.404 . S
C861 H873 0.930 . S
C862 C858 1.524 . S
C862 H874 0.956 . S
C862 H875 0.961 . S
C862 H876 0.961 . S
C863 C860 1.539 . S
C863 H877 0.958 . S
C863 H878 0.961 . S
C863 H879 0.960 . S
H864 C848 0.931 . S
H865 C853 0.929 . S
H866 C854 0.960 . S
H867 C854 0.962 . S
H868 C854 0.960 . S
H869 C855 0.961 . S
H870 C855 0.961 . S
H871 C855 0.961 . S
H872 C856 0.931 . S
H873 C861 0.930 . S
H874 C862 0.956 . S
H875 C862 0.961 . S
H876 C862 0.961 . S
H877 C863 0.958 . S
H878 C863 0.961 . S
H879 C863 0.960 . S
C880 C881 1.391 . S
C880 C882 1.394 . S
C880 H896 0.931 . S
C881 C880 1.391 . S
C881 C885 1.376 . S
C882 C880 1.394 . S
C882 C883 1.369 . S
C882 C886 1.531 . S
C883 C882 1.369 . S
C883 C884 1.410 . S
C883 C891 1.503 . S
C884 C883 1.410 . S
C884 C885 1.392 . S
C884 C887 1.511 . S
C885 C881 1.376 . S
C885 C884 1.392 . S
C885 H897 0.929 . S
C886 C882 1.531 . S
C886 H898 0.960 . S
C886 H899 0.962 . S
C886 H900 0.960 . S
C887 C884 1.511 . S
C887 H901 0.961 . S
C887 H902 0.961 . S
C887 H903 0.961 . S
C888 C889 1.370 . S
C888 C890 1.363 . S
C888 H904 0.931 . S
C889 C888 1.370 . S
C889 C893 1.408 . S
C890 C888 1.363 . S
C890 C891 1.370 . S
C890 C894 1.524 . S
C891 C883 1.503 . S
C891 C890 1.370 . S
C891 C892 1.403 . S
C892 C891 1.403 . S
C892 C893 1.404 . S
C892 C895 1.539 . S
C893 C889 1.408 . S
C893 C892 1.404 . S
C893 H905 0.930 . S
C894 C890 1.524 . S
C894 H906 0.956 . S
C894 H907 0.961 . S
C894 H908 0.961 . S
C895 C892 1.539 . S
C895 H909 0.958 . S
C895 H910 0.961 . S
C895 H911 0.960 . S
H896 C880 0.931 . S
H897 C885 0.929 . S
H898 C886 0.960 . S
H899 C886 0.962 . S
H900 C886 0.960 . S
H901 C887 0.961 . S
H902 C887 0.961 . S
H903 C887 0.961 . S
H904 C888 0.931 . S
H905 C893 0.930 . S
H906 C894 0.956 . S
H907 C894 0.961 . S
H908 C894 0.961 . S
H909 C895 0.958 . S
H910 C895 0.961 . S
H911 C895 0.960 . S
C912 C913 1.391 . S
C912 C914 1.394 . S
C912 H928 0.931 . S
C913 C912 1.391 . S
C913 C917 1.376 . S
C914 C912 1.394 . S
C914 C915 1.369 . S
C914 C918 1.531 . S
C915 C914 1.369 . S
C915 C916 1.410 . S
C915 C923 1.503 . S
C916 C915 1.410 . S
C916 C917 1.392 . S
C916 C919 1.511 . S
C917 C913 1.376 . S
C917 C916 1.392 . S
C917 H929 0.929 . S
C918 C914 1.531 . S
C918 H930 0.960 . S
C918 H931 0.962 . S
C918 H932 0.960 . S
C919 C916 1.511 . S
C919 H933 0.961 . S
C919 H934 0.961 . S
C919 H935 0.961 . S
C920 C921 1.370 . S
C920 C922 1.363 . S
C920 H936 0.931 . S
C921 C920 1.370 . S
C921 C925 1.408 . S
C922 C920 1.363 . S
C922 C923 1.370 . S
C922 C926 1.524 . S
C923 C915 1.503 . S
C923 C922 1.370 . S
C923 C924 1.403 . S
C924 C923 1.403 . S
C924 C925 1.404 . S
C924 C927 1.539 . S
C925 C921 1.408 . S
C925 C924 1.404 . S
C925 H937 0.930 . S
C926 C922 1.524 . S
C926 H938 0.956 . S
C926 H939 0.961 . S
C926 H940 0.961 . S
C927 C924 1.539 . S
C927 H941 0.958 . S
C927 H942 0.961 . S
C927 H943 0.960 . S
H928 C912 0.931 . S
H929 C917 0.929 . S
H930 C918 0.960 . S
H931 C918 0.962 . S
H932 C918 0.960 . S
H933 C919 0.961 . S
H934 C919 0.961 . S
H935 C919 0.961 . S
H936 C920 0.931 . S
H937 C925 0.930 . S
H938 C926 0.956 . S
H939 C926 0.961 . S
H940 C926 0.961 . S
H941 C927 0.958 . S
H942 C927 0.961 . S
H943 C927 0.960 . S
C944 C945 1.391 . S
C944 C946 1.394 . S
C944 H960 0.931 . S
C945 C944 1.391 . S
C945 C949 1.376 . S
C946 C944 1.394 . S
C946 C947 1.369 . S
C946 C950 1.531 . S
C947 C946 1.369 . S
C947 C948 1.410 . S
C947 C955 1.503 . S
C948 C947 1.410 . S
C948 C949 1.392 . S
C948 C951 1.511 . S
C949 C945 1.376 . S
C949 C948 1.392 . S
C949 H961 0.929 . S
C950 C946 1.531 . S
C950 H962 0.960 . S
C950 H963 0.962 . S
C950 H964 0.960 . S
C951 C948 1.511 . S
C951 H965 0.961 . S
C951 H966 0.961 . S
C951 H967 0.961 . S
C952 C953 1.370 . S
C952 C954 1.363 . S
C952 H968 0.931 . S
C953 C952 1.370 . S
C953 C957 1.408 . S
C954 C952 1.363 . S
C954 C955 1.370 . S
C954 C958 1.524 . S
C955 C947 1.503 . S
C955 C954 1.370 . S
C955 C956 1.403 . S
C956 C955 1.403 . S
C956 C957 1.404 . S
C956 C959 1.539 . S
C957 C953 1.408 . S
C957 C956 1.404 . S
C957 H969 0.930 . S
C958 C954 1.524 . S
C958 H970 0.956 . S
C958 H971 0.961 . S
C958 H972 0.961 . S
C959 C956 1.539 . S
C959 H973 0.958 . S
C959 H974 0.961 . S
C959 H975 0.960 . S
H960 C944 0.931 . S
H961 C949 0.929 . S
H962 C950 0.960 . S
H963 C950 0.962 . S
H964 C950 0.960 . S
H965 C951 0.961 . S
H966 C951 0.961 . S
H967 C951 0.961 . S
H968 C952 0.931 . S
H969 C957 0.930 . S
H970 C958 0.956 . S
H971 C958 0.961 . S
H972 C958 0.961 . S
H973 C959 0.958 . S
H974 C959 0.961 . S
H975 C959 0.960 . S
C976 C977 1.391 . S
C976 C978 1.394 . S
C976 H992 0.931 . S
C977 C976 1.391 . S
C977 C981 1.376 . S
C978 C976 1.394 . S
C978 C979 1.369 . S
C978 C982 1.531 . S
C979 C978 1.369 . S
C979 C980 1.410 . S
C979 C987 1.503 . S
C980 C979 1.410 . S
C980 C981 1.392 . S
C980 C983 1.511 . S
C981 C977 1.376 . S
C981 C980 1.392 . S
C981 H993 0.929 . S
C982 C978 1.531 . S
C982 H994 0.960 . S
C982 H995 0.962 . S
C982 H996 0.960 . S
C983 C980 1.511 . S
C983 H997 0.961 . S
C983 H998 0.961 . S
C983 H999 0.961 . S
C984 C985 1.370 . S
C984 C986 1.363 . S
C984 H1000 0.931 . S
C985 C984 1.370 . S
C985 C989 1.408 . S
C986 C984 1.363 . S
C986 C987 1.370 . S
C986 C990 1.524 . S
C987 C979 1.503 . S
C987 C986 1.370 . S
C987 C988 1.403 . S
C988 C987 1.403 . S
C988 C989 1.404 . S
C988 C991 1.539 . S
C989 C985 1.408 . S
C989 C988 1.404 . S
C989 H1001 0.930 . S
C990 C986 1.524 . S
C990 H1002 0.956 . S
C990 H1003 0.961 . S
C990 H1004 0.961 . S
C991 C988 1.539 . S
C991 H1005 0.958 . S
C991 H1006 0.961 . S
C991 H1007 0.960 . S
H992 C976 0.931 . S
H993 C981 0.929 . S
H994 C982 0.960 . S
H995 C982 0.962 . S
H996 C982 0.960 . S
H997 C983 0.961 . S
H998 C983 0.961 . S
H999 C983 0.961 . S
H1000 C984 0.931 . S
H1001 C989 0.930 . S
H1002 C990 0.956 . S
H1003 C990 0.961 . S
H1004 C990 0.961 . S
H1005 C991 0.958 . S
H1006 C991 0.961 . S
H1007 C991 0.960 . S
C1008 C1009 1.391 . S
C1008 C1010 1.394 . S
C1008 H1024 0.931 . S
C1009 C1008 1.391 . S
C1009 C1013 1.376 . S
C1010 C1008 1.394 . S
C1010 C1011 1.369 . S
C1010 C1014 1.531 . S
C1011 C1010 1.369 . S
C1011 C1012 1.410 . S
C1011 C1019 1.503 . S
C1012 C1011 1.410 . S
C1012 C1013 1.392 . S
C1012 C1015 1.511 . S
C1013 C1009 1.376 . S
C1013 C1012 1.392 . S
C1013 H1025 0.929 . S
C1014 C1010 1.531 . S
C1014 H1026 0.960 . S
C1014 H1027 0.962 . S
C1014 H1028 0.960 . S
C1015 C1012 1.511 . S
C1015 H1029 0.961 . S
C1015 H1030 0.961 . S
C1015 H1031 0.961 . S
C1016 C1017 1.370 . S
C1016 C1018 1.363 . S
C1016 H1032 0.931 . S
C1017 C1016 1.370 . S
C1017 C1021 1.408 . S
C1018 C1016 1.363 . S
C1018 C1019 1.370 . S
C1018 C1022 1.524 . S
C1019 C1011 1.503 . S
C1019 C1018 1.370 . S
C1019 C1020 1.403 . S
C1020 C1019 1.403 . S
C1020 C1021 1.404 . S
C1020 C1023 1.539 . S
C1021 C1017 1.408 . S
C1021 C1020 1.404 . S
C1021 H1033 0.930 . S
C1022 C1018 1.524 . S
C1022 H1034 0.956 . S
C1022 H1035 0.961 . S
C1022 H1036 0.961 . S
C1023 C1020 1.539 . S
C1023 H1037 0.958 . S
C1023 H1038 0.961 . S
C1023 H1039 0.960 . S
H1024 C1008 0.931 . S
H1025 C1013 0.929 . S
H1026 C1014 0.960 . S
H1027 C1014 0.962 . S
H1028 C1014 0.960 . S
H1029 C1015 0.961 . S
H1030 C1015 0.961 . S
H1031 C1015 0.961 . S
H1032 C1016 0.931 . S
H1033 C1021 0.930 . S
H1034 C1022 0.956 . S
H1035 C1022 0.961 . S
H1036 C1022 0.961 . S
H1037 C1023 0.958 . S
H1038 C1023 0.961 . S
H1039 C1023 0.960 . S
C1040 C1041 1.391 . S
C1040 C1042 1.394 . S
C1040 H1056 0.931 . S
C1041 C1040 1.391 . S
C1041 C1045 1.376 . S
C1042 C1040 1.394 . S
C1042 C1043 1.369 . S
C1042 C1046 1.531 . S
C1043 C1042 1.369 . S
C1043 C1044 1.410 . S
C1043 C1051 1.503 . S
C1044 C1043 1.410 . S
C1044 C1045 1.392 . S
C1044 C1047 1.511 . S
C1045 C1041 1.376 . S
C1045 C1044 1.392 . S
C1045 H1057 0.929 . S
C1046 C1042 1.531 . S
C1046 H1058 0.960 . S
C1046 H1059 0.962 . S
C1046 H1060 0.960 . S
C1047 C1044 1.511 . S
C1047 H1061 0.961 . S
C1047 H1062 0.961 . S
C1047 H1063 0.961 . S
C1048 C1049 1.370 . S
C1048 C1050 1.363 . S
C1048 H1064 0.931 . S
C1049 C1048 1.370 . S
C1049 C1053 1.408 . S
C1050 C1048 1.363 . S
C1050 C1051 1.370 . S
C1050 C1054 1.524 . S
C1051 C1043 1.503 . S
C1051 C1050 1.370 . S
C1051 C1052 1.403 . S
C1052 C1051 1.403 . S
C1052 C1053 1.404 . S
C1052 C1055 1.539 . S
C1053 C1049 1.408 . S
C1053 C1052 1.404 . S
C1053 H1065 0.930 . S
C1054 C1050 1.524 . S
C1054 H1066 0.956 . S
C1054 H1067 0.961 . S
C1054 H1068 0.961 . S
C1055 C1052 1.539 . S
C1055 H1069 0.958 . S
C1055 H1070 0.961 . S
C1055 H1071 0.960 . S
H1056 C1040 0.931 . S
H1057 C1045 0.929 . S
H1058 C1046 0.960 . S
H1059 C1046 0.962 . S
H1060 C1046 0.960 . S
H1061 C1047 0.961 . S
H1062 C1047 0.961 . S
H1063 C1047 0.961 . S
H1064 C1048 0.931 . S
H1065 C1053 0.930 . S
H1066 C1054 0.956 . S
H1067 C1054 0.961 . S
H1068 C1054 0.961 . S
H1069 C1055 0.958 . S
H1070 C1055 0.961 . S
H1071 C1055 0.960 . S
C1072 C1073 1.391 . S
C1072 C1074 1.394 . S
C1072 H1088 0.931 . S
C1073 C1072 1.391 . S
C1073 C1077 1.376 . S
C1074 C1072 1.394 . S
C1074 C1075 1.369 . S
C1074 C1078 1.531 . S
C1075 C1074 1.369 . S
C1075 C1076 1.410 . S
C1075 C1083 1.503 . S
C1076 C1075 1.410 . S
C1076 C1077 1.392 . S
C1076 C1079 1.511 . S
C1077 C1073 1.376 . S
C1077 C1076 1.392 . S
C1077 H1089 0.929 . S
C1078 C1074 1.531 . S
C1078 H1090 0.960 . S
C1078 H1091 0.962 . S
C1078 H1092 0.960 . S
C1079 C1076 1.511 . S
C1079 H1093 0.961 . S
C1079 H1094 0.961 . S
C1079 H1095 0.961 . S
C1080 C1081 1.370 . S
C1080 C1082 1.363 . S
C1080 H1096 0.931 . S
C1081 C1080 1.370 . S
C1081 C1085 1.408 . S
C1082 C1080 1.363 . S
C1082 C1083 1.370 . S
C1082 C1086 1.524 . S
C1083 C1075 1.503 . S
C1083 C1082 1.370 . S
C1083 C1084 1.403 . S
C1084 C1083 1.403 . S
C1084 C1085 1.404 . S
C1084 C1087 1.539 . S
C1085 C1081 1.408 . S
C1085 C1084 1.404 . S
C1085 H1097 0.930 . S
C1086 C1082 1.524 . S
C1086 H1098 0.956 . S
C1086 H1099 0.961 . S
C1086 H1100 0.961 . S
C1087 C1084 1.539 . S
C1087 H1101 0.958 . S
C1087 H1102 0.961 . S
C1087 H1103 0.960 . S
H1088 C1072 0.931 . S
H1089 C1077 0.929 . S
H1090 C1078 0.960 . S
H1091 C1078 0.962 . S
H1092 C1078 0.960 . S
H1093 C1079 0.961 . S
H1094 C1079 0.961 . S
H1095 C1079 0.961 . S
H1096 C1080 0.931 . S
H1097 C1085 0.930 . S
H1098 C1086 0.956 . S
H1099 C1086 0.961 . S
H1100 C1086 0.961 . S
H1101 C1087 0.958 . S
H1102 C1087 0.961 . S
H1103 C1087 0.960 . S
C337 C29 1.544 . S
C345 C258 1.519 . S
C369 C49 1.310 . S
C377 C277 1.300 . S
C409 C314 1.771 . S
C401 C93 1.767 . S
C433 C119 1.635 . S
C441 C324 1.604 . S
C473 C294 1.902 . S
C465 C17 1.900 . S
C505 C264 1.420 . S
C497 C61 1.487 . S
C537 C335 1.490 . S
C529 C81 1.478 . S
C569 C305 1.453 . S
C561 C125 1.427 . S
C593 C23 1.685 . S
C601 C318 1.675 . S
C633 C285 1.685 . S
C625 C87 1.683 . S
C657 C113 1.690 . S
C665 C275 1.759 . S
C689 C55 1.197 . S
C697 C297 1.232 . S
C729 C257 1.491 . S
C721 C157 1.369 . S
C753 C189 1.298 . S
C761 C278 1.343 . S
C785 C221 1.727 . S
C793 C315 1.740 . S
C817 C253 1.641 . S
C825 C325 1.697 . S
C849 C145 1.814 . S
C857 C295 1.964 . S
C889 C265 1.389 . S
C881 C183 1.369 . S
C921 C334 1.539 . S
C913 C209 1.514 . S
C953 C304 1.403 . S
C945 C247 1.353 . S
C977 C151 1.618 . S
C985 C317 1.689 . S
C1017 C284 1.664 . S
C1009 C215 1.712 . S
C1049 C274 1.729 . S
C1041 C241 1.672 . S
C1073 C177 1.177 . S
C1081 C298 1.230 . S
