# Generated by pormake.
# Topology dag, (6,3)-cn, num edge types: 1
# Building blocks:
#     Node 0, Type 0, BuildingBlock: MIDCAF_clean_sbu_0, # of connection points: 6
#     Node 1, Type 0, BuildingBlock: MIDCAF_clean_sbu_0, # of connection points: 6
#     Node 2, Type 0, BuildingBlock: MIDCAF_clean_sbu_0, # of connection points: 6
#     Node 3, Type 0, BuildingBlock: MIDCAF_clean_sbu_0, # of connection points: 6
#     Node 4, Type 1, BuildingBlock: MIDCAF_clean_linker_0, # of connection points: 3
#     Node 5, Type 1, BuildingBlock: MIDCAF_clean_linker_0, # of connection points: 3
#     Node 6, Type 1, BuildingBlock: MIDCAF_clean_linker_0, # of connection points: 3
#     Node 7, Type 1, BuildingBlock: MIDCAF_clean_linker_0, # of connection points: 3
#     Node 8, Type 1, BuildingBlock: MIDCAF_clean_linker_0, # of connection points: 3
#     Node 9, Type 1, BuildingBlock: MIDCAF_clean_linker_0, # of connection points: 3
#     Node 10, Type 1, BuildingBlock: MIDCAF_clean_linker_0, # of connection points: 3
#     Node 11, Type 1, BuildingBlock: MIDCAF_clean_linker_0, # of connection points: 3
#     Edge 12, Type (0, 1), BuildingBlock: EZIPEK_clean_linker_0, # of connection points: 2
#     Edge 13, Type (0, 1), BuildingBlock: EZIPEK_clean_linker_0, # of connection points: 2
#     Edge 14, Type (0, 1), BuildingBlock: EZIPEK_clean_linker_0, # of connection points: 2
#     Edge 15, Type (0, 1), BuildingBlock: EZIPEK_clean_linker_0, # of connection points: 2
#     Edge 16, Type (0, 1), BuildingBlock: EZIPEK_clean_linker_0, # of connection points: 2
#     Edge 17, Type (0, 1), BuildingBlock: EZIPEK_clean_linker_0, # of connection points: 2
#     Edge 18, Type (0, 1), BuildingBlock: EZIPEK_clean_linker_0, # of connection points: 2
#     Edge 19, Type (0, 1), BuildingBlock: EZIPEK_clean_linker_0, # of connection points: 2
#     Edge 20, Type (0, 1), BuildingBlock: EZIPEK_clean_linker_0, # of connection points: 2
#     Edge 21, Type (0, 1), BuildingBlock: EZIPEK_clean_linker_0, # of connection points: 2
#     Edge 22, Type (0, 1), BuildingBlock: EZIPEK_clean_linker_0, # of connection points: 2
#     Edge 23, Type (0, 1), BuildingBlock: EZIPEK_clean_linker_0, # of connection points: 2
#     Edge 24, Type (0, 1), BuildingBlock: EZIPEK_clean_linker_0, # of connection points: 2
#     Edge 25, Type (0, 1), BuildingBlock: EZIPEK_clean_linker_0, # of connection points: 2
#     Edge 26, Type (0, 1), BuildingBlock: EZIPEK_clean_linker_0, # of connection points: 2
#     Edge 27, Type (0, 1), BuildingBlock: EZIPEK_clean_linker_0, # of connection points: 2
#     Edge 28, Type (0, 1), BuildingBlock: EZIPEK_clean_linker_0, # of connection points: 2
#     Edge 29, Type (0, 1), BuildingBlock: EZIPEK_clean_linker_0, # of connection points: 2
#     Edge 30, Type (0, 1), BuildingBlock: EZIPEK_clean_linker_0, # of connection points: 2
#     Edge 31, Type (0, 1), BuildingBlock: EZIPEK_clean_linker_0, # of connection points: 2
#     Edge 32, Type (0, 1), BuildingBlock: EZIPEK_clean_linker_0, # of connection points: 2
#     Edge 33, Type (0, 1), BuildingBlock: EZIPEK_clean_linker_0, # of connection points: 2
#     Edge 34, Type (0, 1), BuildingBlock: EZIPEK_clean_linker_0, # of connection points: 2
#     Edge 35, Type (0, 1), BuildingBlock: EZIPEK_clean_linker_0, # of connection points: 2
# Relax obj value: 0.310
# Max RMSD: 0.193
# Mean RMSD: 0.182
data_MOF--net-dag--node1-MIDCAF_clean_sbu_0--node2-MIDCAF_clean_linker_0--edge1-EZIPEK_clean_linker_0
_symmetry_space_group_name_H-M    P1
_symmetry_Int_Tables_number       1
_symmetry_cell_setting            triclinic
loop_
_symmetry_equiv_pos_as_xyz
'x, y, z'
_cell_length_a     37.601855
_cell_length_b     38.600409
_cell_length_c     28.547156
_cell_angle_alpha  86.383628
_cell_angle_beta   90.267562
_cell_angle_gamma 90.079222
loop_
_atom_site_label
_atom_site_type_symbol
_atom_site_fract_x
_atom_site_fract_y
_atom_site_fract_z
_atom_type_partial_charge
Zn0 Zn 0.23422 0.80653 0.09425 0.0
Zn1 Zn 0.12573 0.82068 0.91089 0.0
Zn2 Zn 0.17404 0.81954 0.97602 0.0
C3 C 0.15275 0.88858 0.91525 0.0
C4 C 0.09452 0.79911 0.9974 0.0
O5 O 0.21462 0.78198 0.96273 0.0
O6 O 0.22669 0.80674 0.02595 0.0
C7 C 0.21865 0.87412 0.01714 0.0
O8 O 0.17365 0.8732 0.94565 0.0
O9 O 0.12859 0.87186 0.89558 0.0
O10 O 0.08754 0.80226 0.95401 0.0
O11 O 0.12586 0.80529 0.01254 0.0
O12 O 0.22444 0.84842 0.04616 0.0
O13 O 0.19852 0.86949 0.98177 0.0
O14 O 0.15418 0.80647 0.05064 0.0
O15 O 0.18449 0.7961 0.11929 0.0
C16 C 0.15543 0.79882 0.09576 0.0
O17 O 0.19278 0.78358 0.92388 0.0
O18 O 0.15153 0.79039 0.86852 0.0
C19 C 0.23398 0.78327 0.99909 0.0
C20 C 0.1808 0.77753 0.88284 0.0
Zn21 Zn 0.70664 0.6622 0.50161 0.0
Zn22 Zn 0.63668 0.67772 0.66797 0.0
Zn23 Zn 0.674 0.67124 0.58752 0.0
C24 C 0.65249 0.60685 0.65846 0.0
C25 C 0.59301 0.70169 0.59526 0.0
O26 O 0.71951 0.70686 0.58465 0.0
O27 O 0.74051 0.70041 0.51312 0.0
C28 C 0.71038 0.59962 0.55639 0.0
O29 O 0.67062 0.61968 0.62344 0.0
O30 O 0.63374 0.62623 0.68249 0.0
O31 O 0.59438 0.70186 0.63945 0.0
O32 O 0.61943 0.69021 0.57222 0.0
O33 O 0.72128 0.61314 0.51765 0.0
O34 O 0.69222 0.6174 0.58453 0.0
O35 O 0.63616 0.68336 0.53043 0.0
O36 O 0.66218 0.67132 0.46381 0.0
C37 C 0.63503 0.68058 0.48573 0.0
O38 O 0.70474 0.70664 0.62958 0.0
O39 O 0.67496 0.7047 0.69662 0.0
C40 C 0.74172 0.71488 0.5516 0.0
C41 C 0.70125 0.71508 0.67221 0.0
Zn42 Zn 0.7688 0.15562 0.00583 0.0
Zn43 Zn 0.85495 0.17929 0.16075 0.0
Zn44 Zn 0.8104 0.16923 0.08516 0.0
C45 C 0.89424 0.1907 0.0784 0.0
C46 C 0.83212 0.10938 0.16368 0.0
O47 O 0.76518 0.20463 0.08619 0.0
O48 O 0.73341 0.19054 0.02443 0.0
C49 C 0.83637 0.18126 0.97739 0.0
O50 O 0.86387 0.18393 0.06018 0.0
O51 O 0.89773 0.19184 0.12228 0.0
O52 O 0.85093 0.12988 0.1862 0.0
O53 O 0.81554 0.12014 0.12609 0.0
O54 O 0.80748 0.17074 0.96038 0.0
O55 O 0.8408 0.18198 0.022 0.0
O56 O 0.79472 0.11429 0.08688 0.0
O57 O 0.76245 0.10495 0.02367 0.0
C58 C 0.77732 0.09369 0.06136 0.0
O59 O 0.78495 0.2074 0.12806 0.0
O60 O 0.82336 0.2148 0.18587 0.0
C61 C 0.73789 0.20888 0.05915 0.0
C62 C 0.79389 0.22161 0.166 0.0
Zn63 Zn 0.29016 0.32315 0.56515 0.0
Zn64 Zn 0.34744 0.30599 0.41505 0.0
Zn65 Zn 0.31888 0.31692 0.48807 0.0
C66 C 0.40184 0.32207 0.47491 0.0
C67 C 0.30843 0.36797 0.3999 0.0
O68 O 0.27453 0.28051 0.49267 0.0
O69 O 0.24331 0.30294 0.54856 0.0
C70 C 0.35221 0.28349 0.58264 0.0
O71 O 0.37642 0.31461 0.50394 0.0
O72 O 0.39647 0.31804 0.43197 0.0
O73 O 0.32191 0.34386 0.37803 0.0
O74 O 0.3088 0.36519 0.4451 0.0
O75 O 0.32314 0.29103 0.60145 0.0
O76 O 0.35849 0.29625 0.54061 0.0
O77 O 0.30474 0.37171 0.49208 0.0
O78 O 0.29606 0.37426 0.56826 0.0
C79 C 0.30015 0.3895 0.52822 0.0
O80 O 0.29199 0.27656 0.44876 0.0
O81 O 0.33266 0.25877 0.40022 0.0
C82 C 0.24616 0.28128 0.51743 0.0
C83 C 0.30163 0.25646 0.41678 0.0
C84 C 0.06257 0.16991 0.00971 0.0
C85 C 0.03901 0.18353 0.0418 0.0
C86 C 0.05181 0.19233 0.08569 0.0
C87 C 0.08693 0.18528 0.09883 0.0
H88 H 0.14979 0.17715 0.21641 0.0
H89 H 0.17165 0.19699 0.29107 0.0
H90 H 0.27897 0.17219 0.25258 0.0
H91 H 0.25723 0.15126 0.17834 0.0
H92 H 0.26013 0.08997 0.09433 0.0
H93 H 0.27993 0.03178 0.07561 0.0
H94 H 0.1787 0.01362 0.01085 0.0
H95 H 0.15905 0.07172 0.02704 0.0
H96 H 0.11485 0.14994 0.99874 0.0
H97 H 0.05318 0.16322 0.97554 0.0
H98 H 0.03407 0.20314 0.11077 0.0
H99 H 0.09538 0.19101 0.13383 0.0
N100 N 0.15834 0.16662 0.12689 0.0
N101 N 0.20604 0.12789 0.12281 0.0
N102 N 0.1622 0.13079 0.06391 0.0
C103 C 0.1889 0.15285 0.14537 0.0
C104 C 0.19277 0.11664 0.08211 0.0
C105 C 0.14504 0.1561 0.08582 0.0
C106 C 0.20194 0.16323 0.19127 0.0
C107 C 0.17802 0.17566 0.224 0.0
C108 C 0.19035 0.18665 0.26681 0.0
C109 C 0.22687 0.1862 0.27701 0.0
C110 C 0.25068 0.17265 0.2452 0.0
C111 C 0.23826 0.16093 0.20278 0.0
C112 C 0.20786 0.0853 0.06265 0.0
C113 C 0.24248 0.07394 0.07479 0.0
C114 C 0.25388 0.04085 0.0641 0.0
C115 C 0.23035 0.01851 0.04247 0.0
C116 C 0.19693 0.0307 0.02751 0.0
C117 C 0.18585 0.06391 0.03694 0.0
C118 C 0.1099 0.16884 0.06849 0.0
C119 C 0.0977 0.16219 0.02318 0.0
C120 C 0.33507 0.55313 0.54879 0.0
C121 C 0.30541 0.53926 0.52654 0.0
C122 C 0.27841 0.56167 0.50874 0.0
C123 C 0.28042 0.59731 0.51499 0.0
H124 H 0.27447 0.64887 0.67135 0.0
H125 H 0.24845 0.66569 0.74489 0.0
H126 H 0.25725 0.7736 0.69721 0.0
H127 H 0.28469 0.757 0.62408 0.0
H128 H 0.37965 0.75214 0.58506 0.0
H129 H 0.4437 0.76152 0.58145 0.0
H130 H 0.45051 0.69737 0.46377 0.0
H131 H 0.38649 0.68759 0.46697 0.0
H132 H 0.36045 0.59889 0.57159 0.0
H133 H 0.35611 0.53629 0.56278 0.0
H134 H 0.25541 0.55138 0.4913 0.0
H135 H 0.25893 0.61417 0.50247 0.0
N136 N 0.29283 0.65926 0.58325 0.0
N137 N 0.32521 0.71142 0.57849 0.0
N138 N 0.33822 0.6677 0.52784 0.0
C139 C 0.29905 0.69127 0.59875 0.0
C140 C 0.34478 0.69988 0.54261 0.0
C141 C 0.31195 0.64765 0.54734 0.0
C142 C 0.28132 0.70168 0.64177 0.0
C143 C 0.27064 0.6762 0.67632 0.0
C144 C 0.25595 0.68571 0.71846 0.0
C145 C 0.25071 0.72082 0.72629 0.0
C146 C 0.26101 0.74634 0.69169 0.0
C147 C 0.27657 0.73686 0.64998 0.0
C148 C 0.37825 0.71769 0.52779 0.0
C149 C 0.39434 0.74136 0.55688 0.0
C150 C 0.43105 0.74702 0.55466 0.0
C151 C 0.45181 0.72923 0.52326 0.0
C152 C 0.43494 0.71079 0.48874 0.0
C153 C 0.39827 0.70507 0.49092 0.0
C154 C 0.31003 0.61091 0.53757 0.0
C155 C 0.33754 0.58874 0.55376 0.0
C156 C 0.86051 0.76964 0.44337 0.0
C157 C 0.85048 0.79276 0.47703 0.0
C158 C 0.86322 0.827 0.47319 0.0
C159 C 0.8817 0.83905 0.43298 0.0
H160 H 0.99059 0.78906 0.31374 0.0
H161 H 0.04496 0.77712 0.26984 0.0
H162 H -0.00061 0.82836 0.14539 0.0
H163 H 0.9455 0.84006 0.1879 0.0
H164 H 0.8816 0.88996 0.1927 0.0
H165 H 0.86078 0.94592 0.15864 0.0
H166 H 0.8295 0.9753 0.29563 0.0
H167 H 0.8502 0.91925 0.33033 0.0
H168 H 0.88523 0.7637 0.37682 0.0
H169 H 0.85126 0.74299 0.44606 0.0
H170 H 0.85617 0.84504 0.49918 0.0
H171 H 0.88856 0.86633 0.4285 0.0
N172 N 0.9259 0.81607 0.32589 0.0
N173 N 0.91369 0.85531 0.26173 0.0
N174 N 0.88077 0.85801 0.33053 0.0
C175 C 0.93325 0.8286 0.28128 0.0
C176 C 0.88742 0.87006 0.28584 0.0
C177 C 0.89961 0.83091 0.35056 0.0
C178 C 0.96372 0.81574 0.25449 0.0
C179 C 0.99183 0.79695 0.2767 0.0
C180 C 0.02288 0.79013 0.25174 0.0
C181 C 0.02599 0.80173 0.20427 0.0
C182 C -0.0027 0.8188 0.18169 0.0
C183 C 0.96656 0.82569 0.20638 0.0
C184 C 0.86833 0.90055 0.26439 0.0
C185 C 0.86959 0.90798 0.21553 0.0
C186 C 0.85738 0.93977 0.19586 0.0
C187 C 0.84392 0.96465 0.22474 0.0
C188 C 0.83981 0.95627 0.27291 0.0
C189 C 0.85178 0.9243 0.29264 0.0
C190 C 0.88907 0.81658 0.39737 0.0
C191 C 0.88 0.7814 0.40396 0.0
C192 C 0.62704 0.32604 0.969 0.0
C193 C 0.63777 0.29128 0.97555 0.0
C194 C 0.62714 0.2675 0.9429 0.0
C195 C 0.60836 0.27875 0.90247 0.0
H196 H 0.53896 0.2517 0.771 0.0
H197 H 0.49109 0.22589 0.72476 0.0
H198 H 0.44535 0.32745 0.69654 0.0
H199 H 0.4935 0.35327 0.74019 0.0
H200 H 0.59215 0.38713 0.68904 0.0
H201 H 0.61341 0.44216 0.65172 0.0
H202 H 0.64432 0.47618 0.78701 0.0
H203 H 0.62395 0.421 0.82459 0.0
H204 H 0.60317 0.36488 0.92188 0.0
H205 H 0.63452 0.34461 0.99421 0.0
H206 H 0.63483 0.24046 0.94766 0.0
H207 H 0.60193 0.26022 0.87674 0.0
N208 N 0.56175 0.30904 0.82464 0.0
N209 N 0.56433 0.35064 0.76101 0.0
N210 N 0.60103 0.35645 0.82647 0.0
C211 C 0.54994 0.32124 0.78164 0.0
C212 C 0.5902 0.36813 0.78292 0.0
C213 C 0.58705 0.32695 0.84739 0.0
C214 C 0.52012 0.30448 0.75822 0.0
C215 C 0.51858 0.26832 0.75482 0.0
C216 C 0.49146 0.25364 0.72846 0.0
C217 C 0.46549 0.27504 0.70603 0.0
C218 C 0.46581 0.31072 0.71237 0.0
C219 C 0.49324 0.32541 0.73732 0.0
C220 C 0.60583 0.39998 0.75988 0.0
C221 C 0.60384 0.40616 0.71081 0.0
C222 C 0.61622 0.4374 0.68937 0.0
C223 C 0.6301 0.4632 0.71676 0.0
C224 C 0.63368 0.4565 0.7654 0.0
C225 C 0.62187 0.42504 0.78679 0.0
C226 C 0.60064 0.31408 0.8937 0.0
C227 C 0.60927 0.33753 0.92777 0.0
C228 C 0.56925 0.35229 0.54108 0.0
C229 C 0.54895 0.32539 0.5238 0.0
C230 C 0.56601 0.29559 0.50925 0.0
C231 C 0.60311 0.29432 0.50749 0.0
H232 H 0.65959 0.31072 0.37763 0.0
H233 H 0.67474 0.29154 0.30019 0.0
H234 H 0.78608 0.2933 0.33675 0.0
H235 H 0.7712 0.31362 0.4141 0.0
H236 H 0.75631 0.40677 0.47024 0.0
H237 H 0.76207 0.46587 0.49516 0.0
H238 H 0.71829 0.43363 0.63019 0.0
H239 H 0.7124 0.37435 0.60568 0.0
H240 H 0.62121 0.37268 0.55165 0.0
H241 H 0.55648 0.37554 0.55212 0.0
H242 H 0.55061 0.27468 0.49563 0.0
H243 H 0.61576 0.27235 0.49264 0.0
N244 N 0.67229 0.31413 0.46728 0.0
N245 N 0.72585 0.34503 0.47307 0.0
N246 N 0.68267 0.34704 0.53187 0.0
C247 C 0.70462 0.32333 0.44949 0.0
C248 C 0.71506 0.35664 0.5148 0.0
C249 C 0.66123 0.32573 0.50859 0.0
C250 C 0.71426 0.31309 0.40219 0.0
C251 C 0.68734 0.30716 0.36918 0.0
C252 C 0.69588 0.29646 0.32482 0.0
C253 C 0.73142 0.29061 0.31313 0.0
C254 C 0.75846 0.29753 0.34538 0.0
C255 C 0.74997 0.30901 0.38948 0.0
C256 C 0.73294 0.38619 0.53555 0.0
C257 C 0.74967 0.41173 0.50608 0.0
C258 C 0.75289 0.4456 0.52022 0.0
C259 C 0.73986 0.45403 0.56404 0.0
C260 C 0.7283 0.42751 0.59617 0.0
C261 C 0.7249 0.39369 0.58198 0.0
C262 C 0.62346 0.3224 0.52157 0.0
C263 C 0.60625 0.35053 0.54077 0.0
C264 C 0.12315 0.17235 0.60038 0.0
C265 C 0.13671 0.20626 0.59665 0.0
C266 C 0.12842 0.22925 0.63121 0.0
C267 C 0.10969 0.21758 0.67125 0.0
H268 H -0.00162 0.21232 0.75999 0.0
H269 H 0.94417 0.22388 0.80409 0.0
H270 H 0.9931 0.17939 0.9307 0.0
H271 H 0.04715 0.16802 0.88742 0.0
H272 H 0.05598 0.07163 0.82576 0.0
H273 H 0.07896 0.01588 0.85837 0.0
H274 H 0.18586 0.04871 0.82352 0.0
H275 H 0.16255 0.10408 0.78819 0.0
H276 H 0.09753 0.13333 0.64519 0.0
H277 H 0.12892 0.15446 0.57367 0.0
H278 H 0.13838 0.25566 0.62857 0.0
H279 H 0.10551 0.23517 0.69883 0.0
N280 N 0.06409 0.1856 0.74935 0.0
N281 N 0.06919 0.14214 0.81028 0.0
N282 N 0.10265 0.13823 0.74197 0.0
C283 C 0.05468 0.17246 0.79289 0.0
C284 C 0.09326 0.1251 0.78526 0.0
C285 C 0.08804 0.16836 0.7238 0.0
C286 C 0.0266 0.18855 0.82016 0.0
C287 C -0.00194 0.20631 0.79756 0.0
C288 C 0.96715 0.21298 0.82264 0.0
C289 C 0.9648 0.20214 0.8704 0.0
C290 C 0.99461 0.1879 0.89389 0.0
C291 C 0.02532 0.1812 0.86898 0.0
C292 C 0.10758 0.0918 0.80442 0.0
C293 C 0.08434 0.0668 0.82481 0.0
C294 C 0.0974 0.03507 0.84337 0.0
C295 C 0.13404 0.02825 0.84322 0.0
C296 C 0.15749 0.05352 0.82366 0.0
C297 C 0.14422 0.08491 0.8035 0.0
C298 C 0.09972 0.18262 0.6775 0.0
C299 C 0.10541 0.16036 0.64114 0.0
C300 C 0.35067 0.71695 0.13606 0.0
C301 C 0.33149 0.69735 0.1047 0.0
C302 C 0.33339 0.66108 0.10889 0.0
C303 C 0.35176 0.64451 0.14642 0.0
H304 H 0.31137 0.57715 0.25809 0.0
H305 H 0.28267 0.52235 0.28439 0.0
H306 H 0.37571 0.49296 0.36598 0.0
H307 H 0.40436 0.54796 0.34124 0.0
H308 H 0.47934 0.60316 0.31643 0.0
H309 H 0.52895 0.62052 0.36536 0.0
H310 H 0.48505 0.72359 0.36772 0.0
H311 H 0.43581 0.70656 0.31642 0.0
H312 H 0.38265 0.71591 0.1986 0.0
H313 H 0.34943 0.74504 0.13311 0.0
H314 H 0.31882 0.64565 0.08482 0.0
H315 H 0.35134 0.61641 0.15022 0.0
N316 N 0.3667 0.61638 0.24004 0.0
N317 N 0.40678 0.6114 0.30286 0.0
N318 N 0.41053 0.65914 0.2476 0.0
C319 C 0.37832 0.59902 0.27984 0.0
C320 C 0.42281 0.64146 0.28716 0.0
C321 C 0.38271 0.64616 0.22347 0.0
C322 C 0.36022 0.56683 0.29751 0.0
C323 C 0.32559 0.55923 0.28214 0.0
C324 C 0.30903 0.52813 0.29729 0.0
C325 C 0.32696 0.50413 0.32769 0.0
C326 C 0.36123 0.51173 0.34354 0.0
C327 C 0.37763 0.54301 0.32901 0.0
C328 C 0.45403 0.65361 0.31269 0.0
C329 C 0.48064 0.6297 0.32668 0.0
C330 C 0.50891 0.63957 0.35455 0.0
C331 C 0.51067 0.67333 0.36997 0.0
C332 C 0.48429 0.69754 0.35567 0.0
C333 C 0.45635 0.68786 0.32648 0.0
C334 C 0.36893 0.66399 0.17993 0.0
C335 C 0.36955 0.70034 0.17337 0.0
C336 C 0.77016 0.93791 0.01783 0.0
C337 C 0.7793 0.94572 0.06363 0.0
C338 C 0.79069 0.91899 0.0958 0.0
C339 C 0.79636 0.88559 0.0808 0.0
H340 H 0.73983 0.81247 0.91258 0.0
H341 H 0.72192 0.79274 0.8358 0.0
H342 H 0.83102 0.76816 0.80613 0.0
H343 H 0.84893 0.78663 0.88323 0.0
H344 H 0.89621 0.76709 0.96655 0.0
H345 H 0.95889 0.7609 0.98558 0.0
H346 H 0.94047 0.79984 0.12143 0.0
H347 H 0.87738 0.80795 0.10196 0.0
H348 H 0.76943 0.89982 0.96679 0.0
H349 H 0.76097 0.9582 0.99271 0.0
H350 H 0.79733 0.92454 0.13151 0.0
H351 H 0.8074 0.8659 0.10539 0.0
N352 N 0.79046 0.83587 0.97278 0.0
N353 N 0.83487 0.79339 0.97248 0.0
N354 N 0.83097 0.82901 0.03561 0.0
C355 C 0.80646 0.80952 0.95157 0.0
C356 C 0.84716 0.80265 0.01462 0.0
C357 C 0.80254 0.84571 0.015 0.0
C358 C 0.7956 0.80045 0.90413 0.0
C359 C 0.75996 0.80306 0.88953 0.0
C360 C 0.74976 0.79192 0.84575 0.0
C361 C 0.77516 0.77868 0.8157 0.0
C362 C 0.81107 0.77803 0.82907 0.0
C363 C 0.82114 0.78835 0.8732 0.0
C364 C 0.88195 0.78925 0.03211 0.0
C365 C 0.90506 0.77364 0.00106 0.0
C366 C 0.94103 0.76991 0.0119 0.0
C367 C 0.95443 0.78105 0.05427 0.0
C368 C 0.93068 0.79188 0.08818 0.0
C369 C 0.89466 0.79655 0.07688 0.0
C370 C 0.78966 0.8783 0.03382 0.0
C371 C 0.77494 0.90445 0.00314 0.0
C372 C 0.24467 0.93159 0.99076 0.0
C373 C 0.23007 0.9096 0.0275 0.0
C374 C 0.2302 0.9582 0.07886 0.0
C375 C 0.23802 0.9811 0.03953 0.0
N376 N 0.25282 0.99052 0.95783 0.0
N377 N 0.20601 0.90294 0.10658 0.0
C378 C 0.24573 0.968 0.99548 0.0
C379 C 0.2228 0.92286 0.07198 0.0
N380 N 0.25808 0.91751 0.9518 0.0
N381 N 0.2289 0.97038 0.12278 0.0
H382 H 0.19984 0.87687 0.1048 0.0
H383 H 0.19536 0.91304 0.13643 0.0
H384 H 0.23242 -0.0036 0.12926 0.0
H385 H 0.22763 0.95419 0.15335 0.0
H386 H 0.27174 0.93185 0.9255 0.0
H387 H 0.25866 0.8908 0.94804 0.0
H388 H 0.25404 0.98306 0.92345 0.0
H389 H 0.2558 0.01717 0.96089 0.0
C390 C 0.55255 0.73516 0.5377 0.0
C391 C 0.55813 0.70729 0.57181 0.0
C392 C 0.49497 0.69231 0.57016 0.0
C393 C 0.48905 0.72047 0.53654 0.0
N394 N 0.51227 0.7636 0.48035 0.0
N395 N 0.53728 0.65348 0.60974 0.0
C396 C 0.51796 0.74029 0.51764 0.0
C397 C 0.53008 0.68413 0.58482 0.0
N398 N 0.5799 0.7573 0.5259 0.0
N399 N 0.46687 0.67379 0.58915 0.0
H400 H 0.56272 0.6464 0.62124 0.0
H401 H 0.51881 0.63351 0.61511 0.0
H402 H 0.44069 0.67701 0.5776 0.0
H403 H 0.46913 0.65649 0.6185 0.0
H404 H 0.57693 0.78003 0.50464 0.0
H405 H 0.60552 0.75388 0.53958 0.0
H406 H 0.53261 0.77649 0.46179 0.0
H407 H 0.4871 0.76797 0.46563 0.0
C408 C 0.8029 0.05256 0.18909 0.0
C409 C 0.83396 0.0718 0.17647 0.0
C410 C 0.87103 0.02107 0.19602 0.0
C411 C 0.83996 0.00112 0.20612 0.0
N412 N 0.7762 -0.00446 0.20323 0.0
N413 N 0.89583 0.07167 0.15409 0.0
C414 C 0.80575 0.01616 0.19986 0.0
C415 C 0.86752 0.05525 0.17575 0.0
N416 N 0.77103 0.0692 0.19227 0.0
N417 N 0.90394 0.00801 0.20758 0.0
H418 H 0.89414 0.09643 0.13733 0.0
H419 H 0.91986 0.05927 0.14829 0.0
H420 H 0.908 0.98323 0.22336 0.0
H421 H 0.92701 0.02301 0.2056 0.0
H422 H 0.74813 0.05714 0.20567 0.0
H423 H 0.76803 0.09581 0.18451 0.0
H424 H 0.75073 0.00436 0.19442 0.0
H425 H 0.77761 0.96879 0.21096 0.0
C426 C 0.37362 0.25673 0.66077 0.0
C427 C 0.38017 0.26475 0.61241 0.0
C428 C 0.44401 0.25758 0.62726 0.0
C429 C 0.4373 0.26126 0.67566 0.0
N430 N 0.39616 0.25876 0.74013 0.0
N431 N 0.41886 0.252 0.5491 0.0
C432 C 0.40219 0.25837 0.69304 0.0
C433 C 0.41472 0.25856 0.59517 0.0
N434 N 0.34076 0.24557 0.67521 0.0
N435 N 0.47824 0.2545 0.61229 0.0
H436 H 0.39702 0.24822 0.52733 0.0
H437 H 0.44311 0.24697 0.53358 0.0
H438 H 0.49976 0.25288 0.63548 0.0
H439 H 0.48563 0.25408 0.57729 0.0
H440 H 0.33505 0.23722 0.70977 0.0
H441 H 0.32076 0.23997 0.65135 0.0
H442 H 0.37088 0.26113 0.75437 0.0
H443 H 0.41681 0.25809 0.76474 0.0
C444 C 0.6883 0.53866 0.5597 0.0
C445 C 0.71633 0.56222 0.56742 0.0
C446 C 0.75724 0.51376 0.58582 0.0
C447 C 0.73073 0.49064 0.57122 0.0
N448 N 0.67121 0.48027 0.54281 0.0
N449 N 0.77692 0.57357 0.58943 0.0
C450 C 0.69607 0.50277 0.55862 0.0
C451 C 0.75062 0.55014 0.58142 0.0
N452 N 0.65433 0.55068 0.5529 0.0
N453 N 0.78845 0.50072 0.60417 0.0
H454 H 0.7723 0.60025 0.58895 0.0
H455 H 0.8035 0.56694 0.59481 0.0
H456 H 0.79373 0.47414 0.60757 0.0
H457 H 0.80793 0.51569 0.6192 0.0
H458 H 0.63207 0.53462 0.55293 0.0
H459 H 0.6478 0.57696 0.55102 0.0
H460 H 0.64715 0.48809 0.52742 0.0
H461 H 0.67531 0.45361 0.54215 0.0
C462 C 0.88351 0.22139 0.9436 0.0
C463 C 0.86732 0.18807 0.94658 0.0
C464 C 0.9116 0.1667 0.89308 0.0
C465 C 0.92983 0.19888 0.89377 0.0
N466 N 0.93606 0.25569 0.92307 0.0
N467 N 0.87005 0.12707 0.93242 0.0
C468 C 0.91656 0.22602 0.9199 0.0
C469 C 0.88228 0.16022 0.92329 0.0
N470 N 0.8669 0.24861 0.9627 0.0
N471 N 0.92229 0.14227 0.86344 0.0
H472 H 0.84912 0.12078 0.95524 0.0
H473 H 0.88285 0.10526 0.92096 0.0
H474 H 0.94431 0.14545 0.84152 0.0
H475 H 0.90755 0.12008 0.8576 0.0
H476 H 0.8756 0.27421 0.95814 0.0
H477 H 0.8427 0.24599 0.9803 0.0
H478 H 0.92994 0.27489 0.94575 0.0
H479 H 0.95987 0.26013 0.90503 0.0
C480 C 0.28241 0.42862 0.39618 0.0
C481 C 0.29831 0.4012 0.37331 0.0
C482 C 0.31992 0.44177 0.3111 0.0
C483 C 0.31157 0.46944 0.33951 0.0
N484 N 0.27907 0.49092 0.40421 0.0
N485 N 0.30839 0.38185 0.29586 0.0
C486 C 0.29035 0.46347 0.38024 0.0
C487 C 0.30974 0.40765 0.3264 0.0
N488 N 0.25789 0.42098 0.43033 0.0
N489 N 0.33877 0.44785 0.2706 0.0
H490 H 0.29621 0.35804 0.30465 0.0
H491 H 0.31421 0.38575 0.26028 0.0
H492 H 0.34558 0.47274 0.2572 0.0
H493 H 0.3493 0.42805 0.25175 0.0
H494 H 0.24292 0.43954 0.44626 0.0
H495 H 0.24987 0.39545 0.43884 0.0
H496 H 0.26552 0.48835 0.43591 0.0
H497 H 0.28416 0.51664 0.39271 0.0
C498 C 0.05132 0.76069 0.04236 0.0
C499 C 0.06442 0.79436 0.02997 0.0
C500 C 0.00767 0.82026 0.04923 0.0
C501 C 0.99341 0.78634 0.05827 0.0
N502 N 0.00317 0.72555 0.07683 0.0
N503 N 0.06021 0.856 0.03623 0.0
C504 C 0.01602 0.75693 0.05976 0.0
C505 C 0.04435 0.82406 0.03909 0.0
N506 N 0.07216 0.73254 0.03544 0.0
N507 N 0.98579 0.84859 0.04616 0.0
H508 H 0.0869 0.8595 0.02724 0.0
H509 H 0.04807 0.87832 0.04717 0.0
H510 H 0.95872 0.84748 0.05349 0.0
H511 H 0.994 0.87319 0.03353 0.0
H512 H 0.06325 0.70699 0.0392 0.0
H513 H 0.09859 0.7351 0.02471 0.0
H514 H 0.01862 0.70325 0.08161 0.0
H515 H 0.97739 0.72273 0.08998 0.0
C516 C 0.74764 0.03704 0.08427 0.0
C517 C 0.77908 0.05576 0.07229 0.0
C518 C 0.81248 0.00131 0.07141 0.0
C519 C 0.77996 0.98267 0.0754 0.0
N520 N 0.71668 0.98163 0.08759 0.0
N521 N 0.84149 0.05641 0.05236 0.0
C522 C 0.74757 0.00022 0.08302 0.0
C523 C 0.81173 0.03814 0.06631 0.0
N524 N 0.71817 0.05458 0.09752 0.0
N525 N 0.84407 0.98382 0.07149 0.0
H526 H 0.84232 0.0834 0.04793 0.0
H527 H 0.8649 0.0449 0.04186 0.0
H528 H 0.84581 0.95687 0.07216 0.0
H529 H 0.86869 -0.0042 0.07486 0.0
H530 H 0.69525 0.0425 0.11074 0.0
H531 H 0.7178 0.08152 0.09905 0.0
H532 H 0.69154 0.99286 0.08771 0.0
H533 H 0.7162 0.95454 0.0895 0.0
C534 C 0.4484 0.33434 0.53792 0.0
C535 C 0.43815 0.33334 0.49012 0.0
C536 C 0.50017 0.33845 0.46583 0.0
C537 C 0.51072 0.3311 0.51317 0.0
N538 N 0.49655 0.32919 0.59537 0.0
N539 N 0.4532 0.36023 0.41427 0.0
C540 C 0.48531 0.33162 0.54976 0.0
C541 C 0.46368 0.34303 0.45533 0.0
N542 N 0.42346 0.341 0.57076 0.0
N543 N 0.52491 0.34123 0.43083 0.0
H544 H 0.42719 0.36904 0.40882 0.0
H545 H 0.4709 0.37047 0.38906 0.0
H546 H 0.55225 0.34145 0.43707 0.0
H547 H 0.51817 0.34183 0.39534 0.0
H548 H 0.4286 0.34232 0.6064 0.0
H549 H 0.39804 0.3497 0.56136 0.0
H550 H 0.47959 0.32881 0.6238 0.0
H551 H 0.52317 0.32624 0.60518 0.0
C552 C 0.14691 0.95146 0.93162 0.0
C553 C 0.15714 0.92577 0.90099 0.0
C554 C 0.15963 0.9689 0.83451 0.0
C555 C 0.14723 -0.00557 0.8642 0.0
N556 N 0.13139 0.01187 0.94085 0.0
N557 N 0.18387 0.91114 0.82855 0.0
C558 C 0.14232 0.98633 0.91307 0.0
C559 C 0.16701 0.93497 0.85409 0.0
N560 N 0.14156 0.94232 0.97814 0.0
N561 N 0.16156 0.97619 0.78706 0.0
H562 H 0.18989 0.88613 0.84236 0.0
H563 H 0.195 0.91704 0.79568 0.0
H564 H 0.15605 0.00055 0.7709 0.0
H565 H 0.16605 0.95746 0.76308 0.0
H566 H 0.13629 0.95974 0.00352 0.0
H567 H 0.14381 0.91686 0.9923 0.0
H568 H 0.1222 0.00756 0.97499 0.0
H569 H 0.131 0.03805 0.92924 0.0
C570 C 0.57227 0.66076 0.47379 0.0
C571 C 0.60057 0.68371 0.46057 0.0
C572 C 0.56779 0.70393 0.38971 0.0
C573 C 0.53918 0.68164 0.40373 0.0
N574 N 0.50986 0.64705 0.46536 0.0
N575 N 0.62147 0.73334 0.41321 0.0
C576 C 0.53996 0.663 0.4481 0.0
C577 C 0.59704 0.7074 0.42084 0.0
N578 N 0.57695 0.63505 0.50851 0.0
N579 N 0.56808 0.72016 0.34578 0.0
H580 H 0.64295 0.73666 0.4358 0.0
H581 H 0.61854 0.75339 0.3873 0.0
H582 H 0.54723 0.71826 0.32189 0.0
H583 H 0.5901 0.73346 0.3318 0.0
H584 H 0.55837 0.61545 0.51592 0.0
H585 H 0.60061 0.63116 0.52722 0.0
H586 H 0.50795 0.63602 0.49952 0.0
H587 H 0.48577 0.64788 0.44705 0.0
C588 C 0.27144 0.44623 0.54256 0.0
C589 C 0.30016 0.42791 0.52373 0.0
C590 C 0.32861 0.48309 0.49881 0.0
C591 C 0.30246 0.50105 0.52354 0.0
N592 N 0.25278 0.49869 0.57715 0.0
N593 N 0.35936 0.42873 0.49093 0.0
C594 C 0.27478 0.48239 0.54756 0.0
C595 C 0.32964 0.44625 0.50348 0.0
N596 N 0.24049 0.42929 0.55435 0.0
N597 N 0.35191 0.50122 0.46998 0.0
H598 H 0.36183 0.40182 0.49514 0.0
H599 H 0.38297 0.44105 0.48061 0.0
H600 H 0.35101 0.52816 0.46418 0.0
H601 H 0.36983 0.48935 0.44844 0.0
H602 H 0.21752 0.44212 0.56389 0.0
H603 H 0.23655 0.40297 0.54965 0.0
H604 H 0.23465 0.4854 0.59917 0.0
H605 H 0.25501 0.52493 0.58336 0.0
C606 C 0.10759 0.83093 0.13499 0.0
C607 C 0.12187 0.79875 0.12271 0.0
C608 C 0.07285 0.7678 0.16354 0.0
C609 C 0.06031 0.79983 0.17889 0.0
N610 N 0.07013 0.86083 0.18804 0.0
N611 N 0.12136 0.73629 0.12986 0.0
C612 C 0.079 0.83111 0.16716 0.0
C613 C 0.10556 0.76704 0.13859 0.0
N614 N 0.12078 0.8614 0.11507 0.0
N615 N 0.05281 0.73844 0.17114 0.0
H616 H 0.14438 0.73493 0.10985 0.0
H617 H 0.11294 0.71234 0.14463 0.0
H618 H 0.02876 0.7381 0.1892 0.0
H619 H 0.05857 0.71505 0.15658 0.0
H620 H 0.10901 0.88546 0.11891 0.0
H621 H 0.14126 0.86242 0.09058 0.0
H622 H 0.08513 0.88354 0.18466 0.0
H623 H 0.0498 0.86188 0.21265 0.0
C624 C 0.6149 0.55386 0.66073 0.0
C625 C 0.6489 0.56878 0.66649 0.0
C626 C 0.67246 0.51166 0.69276 0.0
C627 C 0.63713 0.49865 0.69562 0.0
N628 N 0.57383 0.50902 0.68776 0.0
N629 N 0.71062 0.56258 0.6885 0.0
C630 C 0.60807 0.52009 0.68073 0.0
C631 C 0.67806 0.54781 0.68213 0.0
N632 N 0.58947 0.57159 0.63469 0.0
N633 N 0.70047 0.48938 0.69951 0.0
H634 H 0.71565 0.58886 0.68041 0.0
H635 H 0.73205 0.5493 0.7043 0.0
H636 H 0.69703 0.46281 0.70725 0.0
H637 H 0.7268 0.49661 0.69326 0.0
H638 H 0.56518 0.5607 0.6258 0.0
H639 H 0.59455 0.59558 0.61713 0.0
H640 H 0.55191 0.52525 0.68207 0.0
H641 H 0.56728 0.48472 0.70332 0.0
C642 C 0.94162 0.15807 0.04019 0.0
C643 C 0.92687 0.19059 0.04978 0.0
C644 C 0.98361 0.2188 0.03017 0.0
C645 C 0.0001 0.18574 0.03268 0.0
N646 N -0.00513 0.12313 0.04007 0.0
N647 N 0.93175 0.25261 0.04933 0.0
C648 C 0.97906 0.15508 0.03621 0.0
C649 C 0.94713 0.22133 0.04249 0.0
N650 N 0.92003 0.12983 0.03672 0.0
N651 N 0.00316 0.24752 0.01674 0.0
H652 H 0.90462 0.25494 0.05614 0.0
H653 H 0.94583 0.27584 0.04957 0.0
H654 H 0.02988 0.24583 0.00733 0.0
H655 H 0.99232 0.27222 0.01086 0.0
H656 H 0.92889 0.10626 0.02528 0.0
H657 H 0.89255 0.1309 0.04065 0.0
H658 H 0.98112 0.10026 0.04906 0.0
H659 H 0.02217 0.11941 0.03748 0.0
C660 C 0.29392 0.7556 0.00426 0.0
C661 C 0.25736 0.75459 0.01588 0.0
C662 C 0.26893 0.71353 0.08262 0.0
C663 C 0.30574 0.71467 0.07158 0.0
N664 N 0.3525 0.73002 0.01671 0.0
N665 N 0.20864 0.72579 0.05621 0.0
C666 C 0.318 0.7335 0.03051 0.0
C667 C 0.24443 0.73107 0.05171 0.0
N668 N 0.30566 0.77877 0.96956 0.0
N669 N 0.25757 0.69762 0.12407 0.0
H670 H 0.19013 0.73854 0.03389 0.0
H671 H 0.19766 0.70633 0.07861 0.0
H672 H 0.27457 0.68476 0.1483 0.0
H673 H 0.23167 0.69957 0.13636 0.0
H674 H 0.33241 0.7838 0.96279 0.0
H675 H 0.2883 0.79417 0.94862 0.0
H676 H 0.36237 0.74062 0.98495 0.0
H677 H 0.37066 0.71408 0.03553 0.0
C678 C 0.72902 0.7694 0.69863 0.0
C679 C 0.72992 0.73293 0.69641 0.0
C680 C 0.76533 0.72679 0.76819 0.0
C681 C 0.76357 0.76333 0.77172 0.0
N682 N 0.75259 0.82011 0.73448 0.0
N683 N 0.75806 0.67854 0.71847 0.0
C684 C 0.74838 0.78494 0.73479 0.0
C685 C 0.75159 0.7123 0.72748 0.0
N686 N 0.70831 0.78879 0.66755 0.0
N687 N 0.77742 0.70564 0.80509 0.0
H688 H 0.74798 0.66751 0.68867 0.0
H689 H 0.77615 0.66282 0.73762 0.0
H690 H 0.78661 0.71484 0.83648 0.0
H691 H 0.7755 0.67869 0.80625 0.0
H692 H 0.70311 0.81506 0.67034 0.0
H693 H 0.69517 0.77792 0.63972 0.0
H694 H 0.74463 0.83714 0.70669 0.0
H695 H 0.7669 0.83203 0.76044 0.0
C696 C 0.77631 0.27818 0.19665 0.0
C697 C 0.76849 0.24278 0.19111 0.0
C698 C 0.73175 0.24014 0.26152 0.0
C699 C 0.74044 0.27534 0.26821 0.0
N700 N 0.76243 0.33044 0.23606 0.0
N701 N 0.73029 0.19358 0.20842 0.0
C702 C 0.75988 0.29528 0.23356 0.0
C703 C 0.74294 0.22514 0.21996 0.0
N704 N 0.80054 0.29486 0.1677 0.0
N705 N 0.71533 0.22019 0.29637 0.0
H706 H 0.73847 0.18165 0.17855 0.0
H707 H 0.70914 0.18095 0.22568 0.0
H708 H 0.70752 0.22964 0.32812 0.0
H709 H 0.71215 0.19343 0.29558 0.0
H710 H 0.81074 0.31938 0.17306 0.0
H711 H 0.81146 0.28327 0.13899 0.0
H712 H 0.77373 0.34686 0.20988 0.0
H713 H 0.75038 0.34356 0.26263 0.0
C714 C 0.22558 0.22145 0.53684 0.0
C715 C 0.21831 0.25452 0.51504 0.0
C716 C 0.1547 0.24503 0.52743 0.0
C717 C 0.16317 0.21716 0.56027 0.0
N718 N 0.20735 0.17836 0.5968 0.0
N719 N 0.1765 0.29593 0.48162 0.0
C720 C 0.19863 0.2044 0.56409 0.0
C721 C 0.18281 0.26533 0.50688 0.0
N722 N 0.25859 0.20722 0.53329 0.0
N723 N 0.11989 0.25234 0.51721 0.0
H724 H 0.197 0.30999 0.46468 0.0
H725 H 0.1516 0.30759 0.47828 0.0
H726 H 0.09915 0.23743 0.53206 0.0
H727 H 0.11173 0.27102 0.49155 0.0
H728 H 0.2646 0.18184 0.54526 0.0
H729 H 0.27882 0.21946 0.5137 0.0
H730 H 0.23348 0.17129 0.60497 0.0
H731 H 0.1889 0.16531 0.61849 0.0
C732 C 0.76044 0.77494 0.53291 0.0
C733 C 0.76838 0.74249 0.55577 0.0
C734 C 0.83191 0.75395 0.54613 0.0
C735 C 0.82339 0.78141 0.51258 0.0
N736 N 0.77895 0.81911 0.47443 0.0
N737 N 0.81064 0.70263 0.59161 0.0
C738 C 0.78759 0.79308 0.50719 0.0
C739 C 0.80397 0.73293 0.56581 0.0
N740 N 0.72644 0.78719 0.534 0.0
N741 N 0.86667 0.74773 0.55784 0.0
H742 H 0.79017 0.68794 0.60761 0.0
H743 H 0.83583 0.6918 0.59631 0.0
H744 H 0.88729 0.76316 0.54366 0.0
H745 H 0.87481 0.72942 0.58401 0.0
H746 H 0.71913 0.81204 0.5212 0.0
H747 H 0.70635 0.77337 0.55214 0.0
H748 H 0.75288 0.82568 0.46527 0.0
H749 H 0.79761 0.83288 0.4539 0.0
C750 C 0.72393 0.27024 0.04077 0.0
C751 C 0.71333 0.23828 0.063 0.0
C752 C 0.65109 0.25319 0.04751 0.0
C753 C 0.66257 0.27946 0.01397 0.0
N754 N 0.71064 0.314 0.97903 0.0
N755 N 0.66744 0.20125 0.09553 0.0
C756 C 0.69909 0.28919 0.01176 0.0
C757 C 0.67689 0.23088 0.06999 0.0
N758 N 0.7582 0.28122 0.04535 0.0
N759 N 0.61564 0.2492 0.05642 0.0
H760 H 0.68642 0.18559 0.11334 0.0
H761 H 0.64151 0.1919 0.09814 0.0
H762 H 0.59658 0.26559 0.04014 0.0
H763 H 0.60546 0.23186 0.08239 0.0
H764 H 0.76707 0.30564 0.03285 0.0
H765 H 0.77668 0.26712 0.06614 0.0
H766 H 0.73742 0.31892 0.97225 0.0
H767 H 0.69374 0.32824 0.95621 0.0
C768 C 0.2775 0.20052 0.38978 0.0
C769 C 0.27488 0.23707 0.39088 0.0
C770 C 0.23869 0.2399 0.31944 0.0
C771 C 0.2407 0.20324 0.31853 0.0
N772 N 0.25469 0.1479 0.35802 0.0
N773 N 0.24455 0.29023 0.36492 0.0
C774 C 0.25772 0.18324 0.35555 0.0
C775 C 0.25231 0.25621 0.35878 0.0
N776 N 0.29968 0.18258 0.42057 0.0
N777 N 0.22633 0.2595 0.28118 0.0
H778 H 0.25448 0.30385 0.39244 0.0
H779 H 0.22527 0.30407 0.34526 0.0
H780 H 0.21715 0.24897 0.25064 0.0
H781 H 0.22843 0.28645 0.27776 0.0
H782 H 0.30604 0.1565 0.41827 0.0
H783 H 0.31305 0.19444 0.44742 0.0
H784 H 0.26386 0.13198 0.38629 0.0
H785 H 0.2402 0.13467 0.33348 0.0
C786 C 0.23691 0.76853 0.83694 0.0
C787 C 0.2019 0.75782 0.8498 0.0
C788 C 0.19902 0.72189 0.78224 0.0
C789 C 0.23466 0.73111 0.77087 0.0
N790 N 0.29064 0.75466 0.7957 0.0
N791 N 0.15416 0.71674 0.84286 0.0
C792 C 0.25467 0.75157 0.80108 0.0
C793 C 0.1845 0.73189 0.82513 0.0
N794 N 0.25234 0.79654 0.85595 0.0
N795 N 0.17826 0.70548 0.75103 0.0
H796 H 0.14339 0.723 0.8749 0.0
H797 H 0.14204 0.69555 0.82845 0.0
H798 H 0.1873 0.69876 0.71836 0.0
H799 H 0.15106 0.70151 0.7557 0.0
H800 H 0.27621 0.8074 0.8438 0.0
H801 H 0.23996 0.81115 0.88058 0.0
H802 H 0.3069 0.7666 0.81959 0.0
H803 H 0.3046 0.74211 0.7702 0.0
loop_
_geom_bond_atom_site_label_1
_geom_bond_atom_site_label_2
_geom_bond_distance
_geom_bond_site_symmetry_2
_ccdc_geom_bond_type
Zn0 O6 1.920 . S
Zn0 O12 1.898 . S
Zn0 O15 1.905 . S
Zn1 O9 1.905 . S
Zn1 O10 1.898 . S
Zn1 O18 1.920 . S
Zn2 O5 2.080 . S
Zn2 O8 2.114 1_554 S
Zn2 O11 2.120 1_554 S
Zn2 O13 2.120 . S
Zn2 O14 2.114 . S
Zn2 O17 2.080 1_554 S
C3 O8 1.166 . S
C3 O9 1.182 . S
C4 O10 1.167 . S
C4 O11 1.299 . S
O5 Zn2 2.080 . S
O5 C19 1.305 . S
O6 Zn0 1.920 . S
O6 C19 1.234 . S
C7 O12 1.167 . S
C7 O13 1.299 . S
O8 Zn2 2.114 1_556 S
O8 C3 1.166 . S
O9 Zn1 1.905 . S
O9 C3 1.182 . S
O10 Zn1 1.898 . S
O10 C4 1.167 . S
O11 Zn2 2.120 1_556 S
O11 C4 1.299 . S
O12 Zn0 1.898 . S
O12 C7 1.167 . S
O13 Zn2 2.120 . S
O13 C7 1.299 . S
O14 Zn2 2.114 . S
O14 C16 1.166 . S
O15 Zn0 1.905 . S
O15 C16 1.182 . S
C16 O14 1.166 . S
C16 O15 1.182 . S
O17 Zn2 2.080 1_556 S
O17 C20 1.305 . S
O18 Zn1 1.920 . S
O18 C20 1.234 . S
C19 O5 1.305 . S
C19 O6 1.234 . S
C20 O17 1.305 . S
C20 O18 1.234 . S
Zn21 O27 1.920 . S
Zn21 O33 1.898 . S
Zn21 O36 1.905 . S
Zn22 O30 1.905 . S
Zn22 O31 1.898 . S
Zn22 O39 1.920 . S
Zn23 O26 2.080 . S
Zn23 O29 2.114 . S
Zn23 O32 2.120 . S
Zn23 O34 2.120 . S
Zn23 O35 2.114 . S
Zn23 O38 2.080 . S
C24 O29 1.166 . S
C24 O30 1.182 . S
C25 O31 1.167 . S
C25 O32 1.299 . S
O26 Zn23 2.080 . S
O26 C40 1.305 . S
O27 Zn21 1.920 . S
O27 C40 1.234 . S
C28 O33 1.167 . S
C28 O34 1.299 . S
O29 Zn23 2.114 . S
O29 C24 1.166 . S
O30 Zn22 1.905 . S
O30 C24 1.182 . S
O31 Zn22 1.898 . S
O31 C25 1.167 . S
O32 Zn23 2.120 . S
O32 C25 1.299 . S
O33 Zn21 1.898 . S
O33 C28 1.167 . S
O34 Zn23 2.120 . S
O34 C28 1.299 . S
O35 Zn23 2.114 . S
O35 C37 1.166 . S
O36 Zn21 1.905 . S
O36 C37 1.182 . S
C37 O35 1.166 . S
C37 O36 1.182 . S
O38 Zn23 2.080 . S
O38 C41 1.305 . S
O39 Zn22 1.920 . S
O39 C41 1.234 . S
C40 O26 1.305 . S
C40 O27 1.234 . S
C41 O38 1.305 . S
C41 O39 1.234 . S
Zn42 O48 1.920 . S
Zn42 O54 1.898 . S
Zn42 O57 1.905 . S
Zn43 O51 1.905 . S
Zn43 O52 1.898 . S
Zn43 O60 1.920 . S
Zn44 O47 2.080 . S
Zn44 O50 2.114 . S
Zn44 O53 2.120 . S
Zn44 O55 2.120 . S
Zn44 O56 2.114 . S
Zn44 O59 2.080 . S
C45 O50 1.166 . S
C45 O51 1.182 . S
C46 O52 1.167 . S
C46 O53 1.299 . S
O47 Zn44 2.080 . S
O47 C61 1.305 . S
O48 Zn42 1.920 . S
O48 C61 1.234 1_556 S
C49 O54 1.167 . S
C49 O55 1.299 1_556 S
O50 Zn44 2.114 . S
O50 C45 1.166 . S
O51 Zn43 1.905 . S
O51 C45 1.182 . S
O52 Zn43 1.898 . S
O52 C46 1.167 . S
O53 Zn44 2.120 . S
O53 C46 1.299 . S
O54 Zn42 1.898 . S
O54 C49 1.167 . S
O55 Zn44 2.120 . S
O55 C49 1.299 1_554 S
O56 Zn44 2.114 . S
O56 C58 1.166 . S
O57 Zn42 1.905 . S
O57 C58 1.182 1_556 S
C58 O56 1.166 . S
C58 O57 1.182 1_554 S
O59 Zn44 2.080 . S
O59 C62 1.305 . S
O60 Zn43 1.920 . S
O60 C62 1.234 . S
C61 O47 1.305 . S
C61 O48 1.234 1_554 S
C62 O59 1.305 . S
C62 O60 1.234 . S
Zn63 O69 1.920 . S
Zn63 O75 1.898 . S
Zn63 O78 1.905 . S
Zn64 O72 1.905 . S
Zn64 O73 1.898 . S
Zn64 O81 1.920 . S
Zn65 O68 2.080 . S
Zn65 O71 2.114 . S
Zn65 O74 2.120 . S
Zn65 O76 2.120 . S
Zn65 O77 2.114 . S
Zn65 O80 2.080 . S
C66 O71 1.166 . S
C66 O72 1.182 . S
C67 O73 1.167 . S
C67 O74 1.299 . S
O68 Zn65 2.080 . S
O68 C82 1.305 . S
O69 Zn63 1.920 . S
O69 C82 1.234 . S
C70 O75 1.167 . S
C70 O76 1.299 . S
O71 Zn65 2.114 . S
O71 C66 1.166 . S
O72 Zn64 1.905 . S
O72 C66 1.182 . S
O73 Zn64 1.898 . S
O73 C67 1.167 . S
O74 Zn65 2.120 . S
O74 C67 1.299 . S
O75 Zn63 1.898 . S
O75 C70 1.167 . S
O76 Zn65 2.120 . S
O76 C70 1.299 . S
O77 Zn65 2.114 . S
O77 C79 1.166 . S
O78 Zn63 1.905 . S
O78 C79 1.182 . S
C79 O77 1.166 . S
C79 O78 1.182 . S
O80 Zn65 2.080 . S
O80 C83 1.305 . S
O81 Zn64 1.920 . S
O81 C83 1.234 . S
C82 O68 1.305 . S
C82 O69 1.234 . S
C83 O80 1.305 . S
C83 O81 1.234 . S
C84 C85 1.384 . S
C84 H97 0.947 . S
C84 C119 1.382 . S
C85 C84 1.384 . S
C85 C86 1.378 . S
C86 C85 1.378 . S
C86 C87 1.378 . S
C86 H98 0.952 . S
C87 C86 1.378 . S
C87 H99 0.950 . S
C87 C118 1.383 . S
H88 C107 0.947 . S
H89 C108 0.946 . S
H90 C110 0.953 . S
H91 C111 0.945 . S
H92 C113 0.952 . S
H93 C114 0.949 . S
H94 C116 0.950 . S
H95 C117 0.948 . S
H96 C119 0.951 . S
H97 C84 0.947 . S
H98 C86 0.952 . S
H99 C87 0.950 . S
N100 C103 1.382 . S
N100 C105 1.363 . S
N101 C103 1.371 . S
N101 C104 1.372 . S
N102 C104 1.361 . S
N102 C105 1.377 . S
C103 N100 1.382 . S
C103 N101 1.371 . S
C103 C106 1.480 . S
C104 N101 1.372 . S
C104 N102 1.361 . S
C104 C112 1.457 . S
C105 N100 1.363 . S
C105 N102 1.377 . S
C105 C118 1.479 . S
C106 C103 1.480 . S
C106 C107 1.383 . S
C106 C111 1.385 . S
C107 H88 0.947 . S
C107 C106 1.383 . S
C107 C108 1.388 . S
C108 H89 0.946 . S
C108 C107 1.388 . S
C108 C109 1.384 . S
C109 C108 1.384 . S
C109 C110 1.377 . S
C110 H90 0.953 . S
C110 C109 1.377 . S
C110 C111 1.369 . S
C111 H91 0.945 . S
C111 C106 1.385 . S
C111 C110 1.369 . S
C112 C104 1.457 . S
C112 C113 1.372 . S
C112 C117 1.364 . S
C113 H92 0.952 . S
C113 C112 1.372 . S
C113 C114 1.389 . S
C114 H93 0.949 . S
C114 C113 1.389 . S
C114 C115 1.387 . S
C115 C114 1.387 . S
C115 C116 1.372 . S
C116 H94 0.950 . S
C116 C115 1.372 . S
C116 C117 1.379 . S
C117 H95 0.948 . S
C117 C112 1.364 . S
C117 C116 1.379 . S
C118 C87 1.383 . S
C118 C105 1.479 . S
C118 C119 1.398 . S
C119 C84 1.382 . S
C119 H96 0.951 . S
C119 C118 1.398 . S
C120 C121 1.384 . S
C120 H133 0.947 . S
C120 C155 1.382 . S
C121 C120 1.384 . S
C121 C122 1.378 . S
C122 C121 1.378 . S
C122 C123 1.378 . S
C122 H134 0.952 . S
C123 C122 1.378 . S
C123 H135 0.950 . S
C123 C154 1.383 . S
H124 C143 0.947 . S
H125 C144 0.946 . S
H126 C146 0.953 . S
H127 C147 0.945 . S
H128 C149 0.952 . S
H129 C150 0.949 . S
H130 C152 0.950 . S
H131 C153 0.948 . S
H132 C155 0.951 . S
H133 C120 0.947 . S
H134 C122 0.952 . S
H135 C123 0.950 . S
N136 C139 1.382 . S
N136 C141 1.363 . S
N137 C139 1.371 . S
N137 C140 1.372 . S
N138 C140 1.361 . S
N138 C141 1.377 . S
C139 N136 1.382 . S
C139 N137 1.371 . S
C139 C142 1.480 . S
C140 N137 1.372 . S
C140 N138 1.361 . S
C140 C148 1.457 . S
C141 N136 1.363 . S
C141 N138 1.377 . S
C141 C154 1.479 . S
C142 C139 1.480 . S
C142 C143 1.383 . S
C142 C147 1.385 . S
C143 H124 0.947 . S
C143 C142 1.383 . S
C143 C144 1.388 . S
C144 H125 0.946 . S
C144 C143 1.388 . S
C144 C145 1.384 . S
C145 C144 1.384 . S
C145 C146 1.377 . S
C146 H126 0.953 . S
C146 C145 1.377 . S
C146 C147 1.369 . S
C147 H127 0.945 . S
C147 C142 1.385 . S
C147 C146 1.369 . S
C148 C140 1.457 . S
C148 C149 1.372 . S
C148 C153 1.364 . S
C149 H128 0.952 . S
C149 C148 1.372 . S
C149 C150 1.389 . S
C150 H129 0.949 . S
C150 C149 1.389 . S
C150 C151 1.387 . S
C151 C150 1.387 . S
C151 C152 1.372 . S
C152 H130 0.950 . S
C152 C151 1.372 . S
C152 C153 1.379 . S
C153 H131 0.948 . S
C153 C148 1.364 . S
C153 C152 1.379 . S
C154 C123 1.383 . S
C154 C141 1.479 . S
C154 C155 1.398 . S
C155 C120 1.382 . S
C155 H132 0.951 . S
C155 C154 1.398 . S
C156 C157 1.384 . S
C156 H169 0.947 . S
C156 C191 1.382 . S
C157 C156 1.384 . S
C157 C158 1.378 . S
C158 C157 1.378 . S
C158 C159 1.378 . S
C158 H170 0.952 . S
C159 C158 1.378 . S
C159 H171 0.950 . S
C159 C190 1.383 . S
H160 C179 0.947 . S
H161 C180 0.946 . S
H162 C182 0.953 1_455 S
H163 C183 0.945 . S
H164 C185 0.952 . S
H165 C186 0.949 . S
H166 C188 0.950 . S
H167 C189 0.948 . S
H168 C191 0.951 . S
H169 C156 0.947 . S
H170 C158 0.952 . S
H171 C159 0.950 . S
N172 C175 1.382 . S
N172 C177 1.363 . S
N173 C175 1.371 . S
N173 C176 1.372 . S
N174 C176 1.361 . S
N174 C177 1.377 . S
C175 N172 1.382 . S
C175 N173 1.371 . S
C175 C178 1.480 . S
C176 N173 1.372 . S
C176 N174 1.361 . S
C176 C184 1.457 . S
C177 N172 1.363 . S
C177 N174 1.377 . S
C177 C190 1.479 . S
C178 C175 1.480 . S
C178 C179 1.383 . S
C178 C183 1.385 . S
C179 H160 0.947 . S
C179 C178 1.383 . S
C179 C180 1.388 . S
C180 H161 0.946 . S
C180 C179 1.388 . S
C180 C181 1.384 1_655 S
C181 C180 1.384 1_455 S
C181 C182 1.377 1_455 S
C182 H162 0.953 1_655 S
C182 C181 1.377 1_655 S
C182 C183 1.369 . S
C183 H163 0.945 . S
C183 C178 1.385 . S
C183 C182 1.369 . S
C184 C176 1.457 . S
C184 C185 1.372 . S
C184 C189 1.364 . S
C185 H164 0.952 . S
C185 C184 1.372 . S
C185 C186 1.389 1_565 S
C186 H165 0.949 . S
C186 C185 1.389 1_545 S
C186 C187 1.387 . S
C187 C186 1.387 . S
C187 C188 1.372 . S
C188 H166 0.950 . S
C188 C187 1.372 . S
C188 C189 1.379 1_545 S
C189 H167 0.948 . S
C189 C184 1.364 . S
C189 C188 1.379 1_565 S
C190 C159 1.383 . S
C190 C177 1.479 . S
C190 C191 1.398 . S
C191 C156 1.382 . S
C191 H168 0.951 . S
C191 C190 1.398 . S
C192 C193 1.384 . S
C192 H205 0.947 . S
C192 C227 1.382 . S
C193 C192 1.384 . S
C193 C194 1.378 . S
C194 C193 1.378 . S
C194 C195 1.378 . S
C194 H206 0.952 . S
C195 C194 1.378 . S
C195 H207 0.950 . S
C195 C226 1.383 . S
H196 C215 0.947 . S
H197 C216 0.946 . S
H198 C218 0.953 . S
H199 C219 0.945 . S
H200 C221 0.952 . S
H201 C222 0.949 . S
H202 C224 0.950 . S
H203 C225 0.948 . S
H204 C227 0.951 . S
H205 C192 0.947 . S
H206 C194 0.952 . S
H207 C195 0.950 . S
N208 C211 1.382 . S
N208 C213 1.363 . S
N209 C211 1.371 . S
N209 C212 1.372 . S
N210 C212 1.361 . S
N210 C213 1.377 . S
C211 N208 1.382 . S
C211 N209 1.371 . S
C211 C214 1.480 . S
C212 N209 1.372 . S
C212 N210 1.361 . S
C212 C220 1.457 . S
C213 N208 1.363 . S
C213 N210 1.377 . S
C213 C226 1.479 . S
C214 C211 1.480 . S
C214 C215 1.383 . S
C214 C219 1.385 . S
C215 H196 0.947 . S
C215 C214 1.383 . S
C215 C216 1.388 . S
C216 H197 0.946 . S
C216 C215 1.388 . S
C216 C217 1.384 . S
C217 C216 1.384 . S
C217 C218 1.377 . S
C218 H198 0.953 . S
C218 C217 1.377 . S
C218 C219 1.369 . S
C219 H199 0.945 . S
C219 C214 1.385 . S
C219 C218 1.369 . S
C220 C212 1.457 . S
C220 C221 1.372 . S
C220 C225 1.364 . S
C221 H200 0.952 . S
C221 C220 1.372 . S
C221 C222 1.389 . S
C222 H201 0.949 . S
C222 C221 1.389 . S
C222 C223 1.387 . S
C223 C222 1.387 . S
C223 C224 1.372 . S
C224 H202 0.950 . S
C224 C223 1.372 . S
C224 C225 1.379 . S
C225 H203 0.948 . S
C225 C220 1.364 . S
C225 C224 1.379 . S
C226 C195 1.383 . S
C226 C213 1.479 . S
C226 C227 1.398 . S
C227 C192 1.382 . S
C227 H204 0.951 . S
C227 C226 1.398 . S
C228 C229 1.384 . S
C228 H241 0.947 . S
C228 C263 1.382 . S
C229 C228 1.384 . S
C229 C230 1.378 . S
C230 C229 1.378 . S
C230 C231 1.378 . S
C230 H242 0.952 . S
C231 C230 1.378 . S
C231 H243 0.950 . S
C231 C262 1.383 . S
H232 C251 0.947 . S
H233 C252 0.946 . S
H234 C254 0.953 . S
H235 C255 0.945 . S
H236 C257 0.952 . S
H237 C258 0.949 . S
H238 C260 0.950 . S
H239 C261 0.948 . S
H240 C263 0.951 . S
H241 C228 0.947 . S
H242 C230 0.952 . S
H243 C231 0.950 . S
N244 C247 1.382 . S
N244 C249 1.363 . S
N245 C247 1.371 . S
N245 C248 1.372 . S
N246 C248 1.361 . S
N246 C249 1.377 . S
C247 N244 1.382 . S
C247 N245 1.371 . S
C247 C250 1.480 . S
C248 N245 1.372 . S
C248 N246 1.361 . S
C248 C256 1.457 . S
C249 N244 1.363 . S
C249 N246 1.377 . S
C249 C262 1.479 . S
C250 C247 1.480 . S
C250 C251 1.383 . S
C250 C255 1.385 . S
C251 H232 0.947 . S
C251 C250 1.383 . S
C251 C252 1.388 . S
C252 H233 0.946 . S
C252 C251 1.388 . S
C252 C253 1.384 . S
C253 C252 1.384 . S
C253 C254 1.377 . S
C254 H234 0.953 . S
C254 C253 1.377 . S
C254 C255 1.369 . S
C255 H235 0.945 . S
C255 C250 1.385 . S
C255 C254 1.369 . S
C256 C248 1.457 . S
C256 C257 1.372 . S
C256 C261 1.364 . S
C257 H236 0.952 . S
C257 C256 1.372 . S
C257 C258 1.389 . S
C258 H237 0.949 . S
C258 C257 1.389 . S
C258 C259 1.387 . S
C259 C258 1.387 . S
C259 C260 1.372 . S
C260 H238 0.950 . S
C260 C259 1.372 . S
C260 C261 1.379 . S
C261 H239 0.948 . S
C261 C256 1.364 . S
C261 C260 1.379 . S
C262 C231 1.383 . S
C262 C249 1.479 . S
C262 C263 1.398 . S
C263 C228 1.382 . S
C263 H240 0.951 . S
C263 C262 1.398 . S
C264 C265 1.384 . S
C264 H277 0.947 . S
C264 C299 1.382 . S
C265 C264 1.384 . S
C265 C266 1.378 . S
C266 C265 1.378 . S
C266 C267 1.378 . S
C266 H278 0.952 . S
C267 C266 1.378 . S
C267 H279 0.950 . S
C267 C298 1.383 . S
H268 C287 0.947 1_455 S
H269 C288 0.946 . S
H270 C290 0.953 . S
H271 C291 0.945 . S
H272 C293 0.952 . S
H273 C294 0.949 . S
H274 C296 0.950 . S
H275 C297 0.948 . S
H276 C299 0.951 . S
H277 C264 0.947 . S
H278 C266 0.952 . S
H279 C267 0.950 . S
N280 C283 1.382 . S
N280 C285 1.363 . S
N281 C283 1.371 . S
N281 C284 1.372 . S
N282 C284 1.361 . S
N282 C285 1.377 . S
C283 N280 1.382 . S
C283 N281 1.371 . S
C283 C286 1.480 . S
C284 N281 1.372 . S
C284 N282 1.361 . S
C284 C292 1.457 . S
C285 N280 1.363 . S
C285 N282 1.377 . S
C285 C298 1.479 . S
C286 C283 1.480 . S
C286 C287 1.383 1_455 S
C286 C291 1.385 1_455 S
C287 H268 0.947 1_655 S
C287 C286 1.383 1_655 S
C287 C288 1.388 . S
C288 H269 0.946 . S
C288 C287 1.388 . S
C288 C289 1.384 . S
C289 C288 1.384 . S
C289 C290 1.377 . S
C290 H270 0.953 . S
C290 C289 1.377 . S
C290 C291 1.369 . S
C291 H271 0.945 . S
C291 C286 1.385 1_655 S
C291 C290 1.369 . S
C292 C284 1.457 . S
C292 C293 1.372 . S
C292 C297 1.364 . S
C293 H272 0.952 . S
C293 C292 1.372 . S
C293 C294 1.389 . S
C294 H273 0.949 . S
C294 C293 1.389 . S
C294 C295 1.387 . S
C295 C294 1.387 . S
C295 C296 1.372 . S
C296 H274 0.950 . S
C296 C295 1.372 . S
C296 C297 1.379 . S
C297 H275 0.948 . S
C297 C292 1.364 . S
C297 C296 1.379 . S
C298 C267 1.383 . S
C298 C285 1.479 . S
C298 C299 1.398 . S
C299 C264 1.382 . S
C299 H276 0.951 . S
C299 C298 1.398 . S
C300 C301 1.384 . S
C300 H313 0.947 . S
C300 C335 1.382 . S
C301 C300 1.384 . S
C301 C302 1.378 . S
C302 C301 1.378 . S
C302 C303 1.378 . S
C302 H314 0.952 . S
C303 C302 1.378 . S
C303 H315 0.950 . S
C303 C334 1.383 . S
H304 C323 0.947 . S
H305 C324 0.946 . S
H306 C326 0.953 . S
H307 C327 0.945 . S
H308 C329 0.952 . S
H309 C330 0.949 . S
H310 C332 0.950 . S
H311 C333 0.948 . S
H312 C335 0.951 . S
H313 C300 0.947 . S
H314 C302 0.952 . S
H315 C303 0.950 . S
N316 C319 1.382 . S
N316 C321 1.363 . S
N317 C319 1.371 . S
N317 C320 1.372 . S
N318 C320 1.361 . S
N318 C321 1.377 . S
C319 N316 1.382 . S
C319 N317 1.371 . S
C319 C322 1.480 . S
C320 N317 1.372 . S
C320 N318 1.361 . S
C320 C328 1.457 . S
C321 N316 1.363 . S
C321 N318 1.377 . S
C321 C334 1.479 . S
C322 C319 1.480 . S
C322 C323 1.383 . S
C322 C327 1.385 . S
C323 H304 0.947 . S
C323 C322 1.383 . S
C323 C324 1.388 . S
C324 H305 0.946 . S
C324 C323 1.388 . S
C324 C325 1.384 . S
C325 C324 1.384 . S
C325 C326 1.377 . S
C326 H306 0.953 . S
C326 C325 1.377 . S
C326 C327 1.369 . S
C327 H307 0.945 . S
C327 C322 1.385 . S
C327 C326 1.369 . S
C328 C320 1.457 . S
C328 C329 1.372 . S
C328 C333 1.364 . S
C329 H308 0.952 . S
C329 C328 1.372 . S
C329 C330 1.389 . S
C330 H309 0.949 . S
C330 C329 1.389 . S
C330 C331 1.387 . S
C331 C330 1.387 . S
C331 C332 1.372 . S
C332 H310 0.950 . S
C332 C331 1.372 . S
C332 C333 1.379 . S
C333 H311 0.948 . S
C333 C328 1.364 . S
C333 C332 1.379 . S
C334 C303 1.383 . S
C334 C321 1.479 . S
C334 C335 1.398 . S
C335 C300 1.382 . S
C335 H312 0.951 . S
C335 C334 1.398 . S
C336 C337 1.384 1_554 S
C336 H349 0.947 . S
C336 C371 1.382 1_554 S
C337 C336 1.384 1_556 S
C337 C338 1.378 . S
C338 C337 1.378 . S
C338 C339 1.378 . S
C338 H350 0.952 . S
C339 C338 1.378 . S
C339 H351 0.950 . S
C339 C370 1.383 . S
H340 C359 0.947 . S
H341 C360 0.946 . S
H342 C362 0.953 . S
H343 C363 0.945 . S
H344 C365 0.952 . S
H345 C366 0.949 . S
H346 C368 0.947 1_554 S
H347 C369 0.948 1_554 S
H348 C371 0.951 . S
H349 C336 0.947 . S
H350 C338 0.952 . S
H351 C339 0.950 . S
N352 C355 1.382 . S
N352 C357 1.363 . S
N353 C355 1.371 . S
N353 C356 1.372 . S
N354 C356 1.361 . S
N354 C357 1.377 . S
C355 N352 1.382 . S
C355 N353 1.371 . S
C355 C358 1.480 . S
C356 N353 1.372 . S
C356 N354 1.361 . S
C356 C364 1.457 . S
C357 N352 1.363 . S
C357 N354 1.377 . S
C357 C370 1.479 . S
C358 C355 1.480 . S
C358 C359 1.383 . S
C358 C363 1.385 . S
C359 H340 0.947 . S
C359 C358 1.383 . S
C359 C360 1.388 . S
C360 H341 0.946 . S
C360 C359 1.388 . S
C360 C361 1.384 . S
C361 C360 1.384 . S
C361 C362 1.377 . S
C362 H342 0.953 . S
C362 C361 1.377 . S
C362 C363 1.369 . S
C363 H343 0.945 . S
C363 C358 1.385 . S
C363 C362 1.369 . S
C364 C356 1.457 . S
C364 C365 1.372 . S
C364 C369 1.364 . S
C365 H344 0.952 . S
C365 C364 1.372 . S
C365 C366 1.389 . S
C366 H345 0.949 . S
C366 C365 1.389 . S
C366 C367 1.387 . S
C367 C366 1.387 . S
C367 C368 1.374 . S
C368 H346 0.947 1_556 S
C368 C367 1.374 . S
C368 C369 1.379 . S
C369 H347 0.948 1_556 S
C369 C364 1.364 . S
C369 C368 1.379 . S
C370 C339 1.383 . S
C370 C357 1.479 . S
C370 C371 1.398 . S
C371 C336 1.382 1_556 S
C371 H348 0.951 . S
C371 C370 1.398 . S
C372 C373 1.363 . S
C372 C378 1.379 . S
C372 N380 1.356 1_554 S
C373 C372 1.363 . S
C373 C379 1.363 . S
C374 C375 1.363 . S
C374 C379 1.379 . S
C374 N381 1.354 . S
C375 C374 1.363 . S
C375 C378 1.363 . S
N376 C378 1.356 . S
N376 H388 0.984 1_554 S
N376 H389 0.985 . S
N377 C379 1.356 . S
N377 H382 0.984 . S
N377 H383 0.985 . S
C378 C372 1.379 . S
C378 C375 1.363 . S
C378 N376 1.356 . S
C379 C373 1.363 . S
C379 C374 1.379 . S
C379 N377 1.356 . S
N380 C372 1.356 1_556 S
N380 H386 0.984 . S
N380 H387 0.984 . S
N381 C374 1.354 . S
N381 H384 0.987 1_565 S
N381 H385 0.985 1_565 S
H382 N377 0.984 . S
H383 N377 0.985 . S
H384 N381 0.987 1_545 S
H385 N381 0.985 1_545 S
H386 N380 0.984 . S
H387 N380 0.984 . S
H388 N376 0.984 1_556 S
H389 N376 0.985 . S
C390 C391 1.363 . S
C390 C396 1.379 . S
C390 N398 1.356 . S
C391 C390 1.363 . S
C391 C397 1.363 . S
C392 C393 1.363 . S
C392 C397 1.379 . S
C392 N399 1.356 . S
C393 C392 1.363 . S
C393 C396 1.363 . S
N394 C396 1.356 . S
N394 H406 0.984 . S
N394 H407 0.985 . S
N395 C397 1.356 . S
N395 H400 0.984 . S
N395 H401 0.985 . S
C396 C390 1.379 . S
C396 C393 1.363 . S
C396 N394 1.356 . S
C397 C391 1.363 . S
C397 C392 1.379 . S
C397 N395 1.356 . S
N398 C390 1.356 . S
N398 H404 0.984 . S
N398 H405 0.984 . S
N399 C392 1.356 . S
N399 H402 0.984 . S
N399 H403 0.985 . S
H400 N395 0.984 . S
H401 N395 0.985 . S
H402 N399 0.984 . S
H403 N399 0.985 . S
H404 N398 0.984 . S
H405 N398 0.984 . S
H406 N394 0.984 . S
H407 N394 0.985 . S
C408 C409 1.363 . S
C408 C414 1.379 . S
C408 N416 1.356 . S
C409 C408 1.363 . S
C409 C415 1.363 . S
C410 C411 1.363 . S
C410 C415 1.379 . S
C410 N417 1.356 . S
C411 C410 1.363 . S
C411 C414 1.363 . S
N412 C414 1.356 . S
N412 H424 0.984 1_545 S
N412 H425 0.985 1_545 S
N413 C415 1.356 . S
N413 H418 0.984 . S
N413 H419 0.985 . S
C414 C408 1.379 . S
C414 C411 1.363 . S
C414 N412 1.356 . S
C415 C409 1.363 . S
C415 C410 1.379 . S
C415 N413 1.356 . S
N416 C408 1.356 . S
N416 H422 0.984 . S
N416 H423 0.984 . S
N417 C410 1.356 . S
N417 H420 0.984 . S
N417 H421 0.985 . S
H418 N413 0.984 . S
H419 N413 0.985 . S
H420 N417 0.984 . S
H421 N417 0.985 . S
H422 N416 0.984 . S
H423 N416 0.984 . S
H424 N412 0.984 1_565 S
H425 N412 0.985 1_565 S
C426 C427 1.363 . S
C426 C432 1.379 . S
C426 N434 1.356 . S
C427 C426 1.363 . S
C427 C433 1.363 . S
C428 C429 1.363 . S
C428 C433 1.379 . S
C428 N435 1.356 . S
C429 C428 1.363 . S
C429 C432 1.363 . S
N430 C432 1.356 . S
N430 H442 0.984 . S
N430 H443 0.985 . S
N431 C433 1.356 . S
N431 H436 0.984 . S
N431 H437 0.985 . S
C432 C426 1.379 . S
C432 C429 1.363 . S
C432 N430 1.356 . S
C433 C427 1.363 . S
C433 C428 1.379 . S
C433 N431 1.356 . S
N434 C426 1.356 . S
N434 H440 0.984 . S
N434 H441 0.984 . S
N435 C428 1.356 . S
N435 H438 0.984 . S
N435 H439 0.985 . S
H436 N431 0.984 . S
H437 N431 0.985 . S
H438 N435 0.984 . S
H439 N435 0.985 . S
H440 N434 0.984 . S
H441 N434 0.984 . S
H442 N430 0.984 . S
H443 N430 0.985 . S
C444 C445 1.363 . S
C444 C450 1.379 . S
C444 N452 1.356 . S
C445 C444 1.363 . S
C445 C451 1.363 . S
C446 C447 1.363 . S
C446 C451 1.379 . S
C446 N453 1.356 . S
C447 C446 1.363 . S
C447 C450 1.363 . S
N448 C450 1.356 . S
N448 H460 0.984 . S
N448 H461 0.985 . S
N449 C451 1.356 . S
N449 H454 0.984 . S
N449 H455 0.985 . S
C450 C444 1.379 . S
C450 C447 1.363 . S
C450 N448 1.356 . S
C451 C445 1.363 . S
C451 C446 1.379 . S
C451 N449 1.356 . S
N452 C444 1.356 . S
N452 H458 0.984 . S
N452 H459 0.984 . S
N453 C446 1.356 . S
N453 H456 0.984 . S
N453 H457 0.985 . S
H454 N449 0.984 . S
H455 N449 0.985 . S
H456 N453 0.984 . S
H457 N453 0.985 . S
H458 N452 0.984 . S
H459 N452 0.984 . S
H460 N448 0.984 . S
H461 N448 0.985 . S
C462 C463 1.363 . S
C462 C468 1.379 . S
C462 N470 1.356 . S
C463 C462 1.363 . S
C463 C469 1.363 . S
C464 C465 1.363 . S
C464 C469 1.379 . S
C464 N471 1.356 . S
C465 C464 1.363 . S
C465 C468 1.363 . S
N466 C468 1.356 . S
N466 H478 0.984 . S
N466 H479 0.985 . S
N467 C469 1.356 . S
N467 H472 0.984 . S
N467 H473 0.985 . S
C468 C462 1.379 . S
C468 C465 1.363 . S
C468 N466 1.356 . S
C469 C463 1.363 . S
C469 C464 1.379 . S
C469 N467 1.356 . S
N470 C462 1.356 . S
N470 H476 0.984 . S
N470 H477 0.984 1_556 S
N471 C464 1.356 . S
N471 H474 0.984 . S
N471 H475 0.985 . S
H472 N467 0.984 . S
H473 N467 0.985 . S
H474 N471 0.984 . S
H475 N471 0.985 . S
H476 N470 0.984 . S
H477 N470 0.984 1_554 S
H478 N466 0.984 . S
H479 N466 0.985 . S
C480 C481 1.363 . S
C480 C486 1.379 . S
C480 N488 1.356 . S
C481 C480 1.363 . S
C481 C487 1.363 . S
C482 C483 1.363 . S
C482 C487 1.379 . S
C482 N489 1.356 . S
C483 C482 1.363 . S
C483 C486 1.363 . S
N484 C486 1.356 . S
N484 H496 0.984 . S
N484 H497 0.985 . S
N485 C487 1.356 . S
N485 H490 0.984 . S
N485 H491 0.985 . S
C486 C480 1.379 . S
C486 C483 1.363 . S
C486 N484 1.356 . S
C487 C481 1.363 . S
C487 C482 1.379 . S
C487 N485 1.356 . S
N488 C480 1.356 . S
N488 H494 0.984 . S
N488 H495 0.984 . S
N489 C482 1.356 . S
N489 H492 0.984 . S
N489 H493 0.985 . S
H490 N485 0.984 . S
H491 N485 0.985 . S
H492 N489 0.984 . S
H493 N489 0.985 . S
H494 N488 0.984 . S
H495 N488 0.984 . S
H496 N484 0.984 . S
H497 N484 0.985 . S
C498 C499 1.363 1_554 S
C498 C504 1.379 . S
C498 N506 1.356 . S
C499 C498 1.363 1_556 S
C499 C505 1.363 . S
C500 C501 1.364 . S
C500 C505 1.372 1_655 S
C500 N507 1.363 . S
C501 C500 1.364 . S
C501 C504 1.363 1_656 S
N502 C504 1.356 . S
N502 H514 0.984 . S
N502 H515 0.985 1_455 S
N503 C505 1.356 . S
N503 H508 0.984 . S
N503 H509 0.985 . S
C504 C498 1.379 . S
C504 C501 1.363 1_454 S
C504 N502 1.356 . S
C505 C499 1.363 . S
C505 C500 1.372 1_455 S
C505 N503 1.356 . S
N506 C498 1.356 . S
N506 H512 0.984 . S
N506 H513 0.984 . S
N507 C500 1.363 . S
N507 H510 0.984 . S
N507 H511 0.985 . S
H508 N503 0.984 . S
H509 N503 0.985 . S
H510 N507 0.984 . S
H511 N507 0.985 . S
H512 N506 0.984 . S
H513 N506 0.984 . S
H514 N502 0.984 . S
H515 N502 0.985 1_655 S
C516 C517 1.363 1_556 S
C516 C522 1.379 . S
C516 N524 1.356 . S
C517 C516 1.363 1_554 S
C517 C523 1.363 . S
C518 C519 1.363 . S
C518 C523 1.379 1_565 S
C518 N525 1.356 . S
C519 C518 1.363 . S
C519 C522 1.363 1_564 S
N520 C522 1.356 1_565 S
N520 H532 0.984 1_565 S
N520 H533 0.985 . S
N521 C523 1.356 . S
N521 H526 0.984 . S
N521 H527 0.985 . S
C522 C516 1.379 . S
C522 C519 1.363 1_546 S
C522 N520 1.356 1_545 S
C523 C517 1.363 . S
C523 C518 1.379 1_545 S
C523 N521 1.356 . S
N524 C516 1.356 . S
N524 H530 0.984 . S
N524 H531 0.984 . S
N525 C518 1.356 . S
N525 H528 0.984 . S
N525 H529 0.985 . S
H526 N521 0.984 . S
H527 N521 0.985 . S
H528 N525 0.984 . S
H529 N525 0.985 . S
H530 N524 0.984 . S
H531 N524 0.984 . S
H532 N520 0.984 1_545 S
H533 N520 0.985 . S
C534 C535 1.363 . S
C534 C540 1.379 . S
C534 N542 1.356 . S
C535 C534 1.363 . S
C535 C541 1.363 . S
C536 C537 1.363 . S
C536 C541 1.379 . S
C536 N543 1.356 . S
C537 C536 1.363 . S
C537 C540 1.363 . S
N538 C540 1.356 . S
N538 H550 0.984 . S
N538 H551 0.985 . S
N539 C541 1.356 . S
N539 H544 0.984 . S
N539 H545 0.985 . S
C540 C534 1.379 . S
C540 C537 1.363 . S
C540 N538 1.356 . S
C541 C535 1.363 . S
C541 C536 1.379 . S
C541 N539 1.356 . S
N542 C534 1.356 . S
N542 H548 0.984 . S
N542 H549 0.984 . S
N543 C536 1.356 . S
N543 H546 0.984 . S
N543 H547 0.985 . S
H544 N539 0.984 . S
H545 N539 0.985 . S
H546 N543 0.984 . S
H547 N543 0.985 . S
H548 N542 0.984 . S
H549 N542 0.984 . S
H550 N538 0.984 . S
H551 N538 0.985 . S
C552 C553 1.363 . S
C552 C558 1.379 . S
C552 N560 1.356 . S
C553 C552 1.363 . S
C553 C559 1.363 . S
C554 C555 1.363 . S
C554 C559 1.379 . S
C554 N561 1.356 . S
C555 C554 1.363 . S
C555 C558 1.363 . S
N556 C558 1.356 1_545 S
N556 H568 0.984 . S
N556 H569 0.985 . S
N557 C559 1.356 . S
N557 H562 0.984 . S
N557 H563 0.985 . S
C558 C552 1.379 . S
C558 C555 1.363 . S
C558 N556 1.356 1_565 S
C559 C553 1.363 . S
C559 C554 1.379 . S
C559 N557 1.356 . S
N560 C552 1.356 . S
N560 H566 0.984 . S
N560 H567 0.984 . S
N561 C554 1.356 . S
N561 H564 0.984 1_565 S
N561 H565 0.985 . S
H562 N557 0.984 . S
H563 N557 0.985 . S
H564 N561 0.984 1_545 S
H565 N561 0.985 . S
H566 N560 0.984 . S
H567 N560 0.984 . S
H568 N556 0.984 . S
H569 N556 0.985 . S
C570 C571 1.363 . S
C570 C576 1.379 . S
C570 N578 1.356 . S
C571 C570 1.363 . S
C571 C577 1.363 . S
C572 C573 1.363 . S
C572 C577 1.379 . S
C572 N579 1.356 . S
C573 C572 1.363 . S
C573 C576 1.363 . S
N574 C576 1.356 . S
N574 H586 0.984 . S
N574 H587 0.985 . S
N575 C577 1.356 . S
N575 H580 0.984 . S
N575 H581 0.985 . S
C576 C570 1.379 . S
C576 C573 1.363 . S
C576 N574 1.356 . S
C577 C571 1.363 . S
C577 C572 1.379 . S
C577 N575 1.356 . S
N578 C570 1.356 . S
N578 H584 0.984 . S
N578 H585 0.984 . S
N579 C572 1.356 . S
N579 H582 0.984 . S
N579 H583 0.985 . S
H580 N575 0.984 . S
H581 N575 0.985 . S
H582 N579 0.984 . S
H583 N579 0.985 . S
H584 N578 0.984 . S
H585 N578 0.984 . S
H586 N574 0.984 . S
H587 N574 0.985 . S
C588 C589 1.363 . S
C588 C594 1.379 . S
C588 N596 1.356 . S
C589 C588 1.363 . S
C589 C595 1.363 . S
C590 C591 1.363 . S
C590 C595 1.379 . S
C590 N597 1.356 . S
C591 C590 1.363 . S
C591 C594 1.363 . S
N592 C594 1.356 . S
N592 H604 0.984 . S
N592 H605 0.985 . S
N593 C595 1.356 . S
N593 H598 0.984 . S
N593 H599 0.985 . S
C594 C588 1.379 . S
C594 C591 1.363 . S
C594 N592 1.356 . S
C595 C589 1.363 . S
C595 C590 1.379 . S
C595 N593 1.356 . S
N596 C588 1.356 . S
N596 H602 0.984 . S
N596 H603 0.984 . S
N597 C590 1.356 . S
N597 H600 0.984 . S
N597 H601 0.985 . S
H598 N593 0.984 . S
H599 N593 0.985 . S
H600 N597 0.984 . S
H601 N597 0.985 . S
H602 N596 0.984 . S
H603 N596 0.984 . S
H604 N592 0.984 . S
H605 N592 0.985 . S
C606 C607 1.363 . S
C606 C612 1.379 . S
C606 N614 1.356 . S
C607 C606 1.363 . S
C607 C613 1.363 . S
C608 C609 1.363 . S
C608 C613 1.379 . S
C608 N615 1.356 . S
C609 C608 1.363 . S
C609 C612 1.363 . S
N610 C612 1.356 . S
N610 H622 0.984 . S
N610 H623 0.985 . S
N611 C613 1.356 . S
N611 H616 0.984 . S
N611 H617 0.985 . S
C612 C606 1.379 . S
C612 C609 1.363 . S
C612 N610 1.356 . S
C613 C607 1.363 . S
C613 C608 1.379 . S
C613 N611 1.356 . S
N614 C606 1.356 . S
N614 H620 0.984 . S
N614 H621 0.984 . S
N615 C608 1.356 . S
N615 H618 0.984 1_455 S
N615 H619 0.985 1_455 S
H616 N611 0.984 . S
H617 N611 0.985 . S
H618 N615 0.984 1_655 S
H619 N615 0.985 1_655 S
H620 N614 0.984 . S
H621 N614 0.984 . S
H622 N610 0.984 . S
H623 N610 0.985 . S
C624 C625 1.363 . S
C624 C630 1.379 . S
C624 N632 1.356 . S
C625 C624 1.363 . S
C625 C631 1.363 . S
C626 C627 1.363 . S
C626 C631 1.379 . S
C626 N633 1.356 . S
C627 C626 1.363 . S
C627 C630 1.363 . S
N628 C630 1.356 . S
N628 H640 0.984 . S
N628 H641 0.985 . S
N629 C631 1.356 . S
N629 H634 0.984 . S
N629 H635 0.985 . S
C630 C624 1.379 . S
C630 C627 1.363 . S
C630 N628 1.356 . S
C631 C625 1.363 . S
C631 C626 1.379 . S
C631 N629 1.356 . S
N632 C624 1.356 . S
N632 H638 0.984 . S
N632 H639 0.984 . S
N633 C626 1.356 . S
N633 H636 0.984 . S
N633 H637 0.985 . S
H634 N629 0.984 . S
H635 N629 0.985 . S
H636 N633 0.984 . S
H637 N633 0.985 . S
H638 N632 0.984 . S
H639 N632 0.984 . S
H640 N628 0.984 . S
H641 N628 0.985 . S
C642 C643 1.363 . S
C642 C648 1.379 1_655 S
C642 N650 1.356 . S
C643 C642 1.363 . S
C643 C649 1.363 . S
C644 C645 1.363 . S
C644 C649 1.379 1_455 S
C644 N651 1.356 . S
C645 C644 1.363 . S
C645 C648 1.363 . S
N646 C648 1.356 . S
N646 H658 0.984 . S
N646 H659 0.985 . S
N647 C649 1.356 . S
N647 H652 0.984 . S
N647 H653 0.985 1_554 S
C648 C642 1.379 1_455 S
C648 C645 1.363 . S
C648 N646 1.356 . S
C649 C643 1.363 . S
C649 C644 1.379 1_655 S
C649 N647 1.356 . S
N650 C642 1.356 . S
N650 H656 0.984 . S
N650 H657 0.984 . S
N651 C644 1.356 . S
N651 H654 0.984 . S
N651 H655 1.009 . S
H652 N647 0.984 . S
H653 N647 0.985 1_556 S
H654 N651 0.984 . S
H655 N651 1.009 . S
H656 N650 0.984 . S
H657 N650 0.984 . S
H658 N646 0.984 . S
H659 N646 0.985 . S
C660 C661 1.363 . S
C660 C666 1.379 . S
C660 N668 1.345 1_554 S
C661 C660 1.363 . S
C661 C667 1.363 . S
C662 C663 1.363 . S
C662 C667 1.379 . S
C662 N669 1.356 . S
C663 C662 1.363 . S
C663 C666 1.363 . S
N664 C666 1.356 . S
N664 H676 0.984 1_554 S
N664 H677 0.985 . S
N665 C667 1.356 . S
N665 H670 0.984 . S
N665 H671 0.985 . S
C666 C660 1.379 . S
C666 C663 1.363 . S
C666 N664 1.356 . S
C667 C661 1.363 . S
C667 C662 1.379 . S
C667 N665 1.356 . S
N668 C660 1.345 1_556 S
N668 H674 0.998 . S
N668 H675 0.982 1_556 S
N669 C662 1.356 . S
N669 H672 0.984 . S
N669 H673 0.985 . S
H670 N665 0.984 . S
H671 N665 0.985 . S
H672 N669 0.984 . S
H673 N669 0.985 . S
H674 N668 0.998 . S
H675 N668 0.982 1_554 S
H676 N664 0.984 1_556 S
H677 N664 0.985 . S
C678 C679 1.363 . S
C678 C684 1.379 . S
C678 N686 1.356 . S
C679 C678 1.363 . S
C679 C685 1.363 . S
C680 C681 1.363 . S
C680 C685 1.379 . S
C680 N687 1.356 . S
C681 C680 1.363 . S
C681 C684 1.363 . S
N682 C684 1.356 . S
N682 H694 0.984 . S
N682 H695 0.985 . S
N683 C685 1.356 . S
N683 H688 0.984 . S
N683 H689 0.985 . S
C684 C678 1.379 . S
C684 C681 1.363 . S
C684 N682 1.356 . S
C685 C679 1.363 . S
C685 C680 1.379 . S
C685 N683 1.356 . S
N686 C678 1.356 . S
N686 H692 0.984 . S
N686 H693 0.984 . S
N687 C680 1.356 . S
N687 H690 0.984 . S
N687 H691 0.985 . S
H688 N683 0.984 . S
H689 N683 0.985 . S
H690 N687 0.984 . S
H691 N687 0.985 . S
H692 N686 0.984 . S
H693 N686 0.984 . S
H694 N682 0.984 . S
H695 N682 0.985 . S
C696 C697 1.363 . S
C696 C702 1.379 . S
C696 N704 1.356 . S
C697 C696 1.363 . S
C697 C703 1.363 . S
C698 C699 1.363 . S
C698 C703 1.379 . S
C698 N705 1.356 . S
C699 C698 1.363 . S
C699 C702 1.363 . S
N700 C702 1.356 . S
N700 H712 0.984 . S
N700 H713 0.985 . S
N701 C703 1.356 . S
N701 H706 0.984 . S
N701 H707 0.985 . S
C702 C696 1.379 . S
C702 C699 1.363 . S
C702 N700 1.356 . S
C703 C697 1.363 . S
C703 C698 1.379 . S
C703 N701 1.356 . S
N704 C696 1.356 . S
N704 H710 0.984 . S
N704 H711 0.984 . S
N705 C698 1.356 . S
N705 H708 0.984 . S
N705 H709 0.985 . S
H706 N701 0.984 . S
H707 N701 0.985 . S
H708 N705 0.984 . S
H709 N705 0.985 . S
H710 N704 0.984 . S
H711 N704 0.984 . S
H712 N700 0.984 . S
H713 N700 0.985 . S
C714 C715 1.363 . S
C714 C720 1.379 . S
C714 N722 1.356 . S
C715 C714 1.363 . S
C715 C721 1.363 . S
C716 C717 1.363 . S
C716 C721 1.379 . S
C716 N723 1.356 . S
C717 C716 1.363 . S
C717 C720 1.363 . S
N718 C720 1.356 . S
N718 H730 0.984 . S
N718 H731 0.985 . S
N719 C721 1.356 . S
N719 H724 0.984 . S
N719 H725 0.985 . S
C720 C714 1.379 . S
C720 C717 1.363 . S
C720 N718 1.356 . S
C721 C715 1.363 . S
C721 C716 1.379 . S
C721 N719 1.356 . S
N722 C714 1.356 . S
N722 H728 0.984 . S
N722 H729 0.984 . S
N723 C716 1.356 . S
N723 H726 0.984 . S
N723 H727 0.985 . S
H724 N719 0.984 . S
H725 N719 0.985 . S
H726 N723 0.984 . S
H727 N723 0.985 . S
H728 N722 0.984 . S
H729 N722 0.984 . S
H730 N718 0.984 . S
H731 N718 0.985 . S
C732 C733 1.363 . S
C732 C738 1.379 . S
C732 N740 1.356 . S
C733 C732 1.363 . S
C733 C739 1.363 . S
C734 C735 1.363 . S
C734 C739 1.379 . S
C734 N741 1.356 . S
C735 C734 1.363 . S
C735 C738 1.363 . S
N736 C738 1.356 . S
N736 H748 0.984 . S
N736 H749 0.985 . S
N737 C739 1.356 . S
N737 H742 0.984 . S
N737 H743 0.985 . S
C738 C732 1.379 . S
C738 C735 1.363 . S
C738 N736 1.356 . S
C739 C733 1.363 . S
C739 C734 1.379 . S
C739 N737 1.356 . S
N740 C732 1.356 . S
N740 H746 0.984 . S
N740 H747 0.984 . S
N741 C734 1.356 . S
N741 H744 0.984 . S
N741 H745 0.985 . S
H742 N737 0.984 . S
H743 N737 0.985 . S
H744 N741 0.984 . S
H745 N741 0.985 . S
H746 N740 0.984 . S
H747 N740 0.984 . S
H748 N736 0.984 . S
H749 N736 0.985 . S
C750 C751 1.363 1_556 S
C750 C756 1.379 . S
C750 N758 1.356 . S
C751 C750 1.363 1_554 S
C751 C757 1.363 . S
C752 C753 1.363 1_554 S
C752 C757 1.379 . S
C752 N759 1.356 . S
C753 C752 1.363 1_556 S
C753 C756 1.363 . S
N754 C756 1.356 . S
N754 H766 0.984 . S
N754 H767 0.985 . S
N755 C757 1.356 . S
N755 H760 0.984 . S
N755 H761 0.985 . S
C756 C750 1.379 . S
C756 C753 1.363 . S
C756 N754 1.356 . S
C757 C751 1.363 . S
C757 C752 1.379 . S
C757 N755 1.356 . S
N758 C750 1.356 . S
N758 H764 0.984 . S
N758 H765 0.984 . S
N759 C752 1.356 . S
N759 H762 0.984 . S
N759 H763 0.985 . S
H760 N755 0.984 . S
H761 N755 0.985 . S
H762 N759 0.984 . S
H763 N759 0.985 . S
H764 N758 0.984 . S
H765 N758 0.984 . S
H766 N754 0.984 . S
H767 N754 0.985 . S
C768 C769 1.363 . S
C768 C774 1.379 . S
C768 N776 1.356 . S
C769 C768 1.363 . S
C769 C775 1.363 . S
C770 C771 1.363 . S
C770 C775 1.379 . S
C770 N777 1.356 . S
C771 C770 1.363 . S
C771 C774 1.363 . S
N772 C774 1.356 . S
N772 H784 0.984 . S
N772 H785 0.985 . S
N773 C775 1.356 . S
N773 H778 0.984 . S
N773 H779 0.985 . S
C774 C768 1.379 . S
C774 C771 1.363 . S
C774 N772 1.356 . S
C775 C769 1.363 . S
C775 C770 1.379 . S
C775 N773 1.356 . S
N776 C768 1.356 . S
N776 H782 0.984 . S
N776 H783 0.984 . S
N777 C770 1.356 . S
N777 H780 0.984 . S
N777 H781 0.985 . S
H778 N773 0.984 . S
H779 N773 0.985 . S
H780 N777 0.984 . S
H781 N777 0.985 . S
H782 N776 0.984 . S
H783 N776 0.984 . S
H784 N772 0.984 . S
H785 N772 0.985 . S
C786 C787 1.363 . S
C786 C792 1.379 . S
C786 N794 1.356 . S
C787 C786 1.363 . S
C787 C793 1.363 . S
C788 C789 1.363 . S
C788 C793 1.379 . S
C788 N795 1.356 . S
C789 C788 1.363 . S
C789 C792 1.363 . S
N790 C792 1.356 . S
N790 H802 0.984 . S
N790 H803 0.985 . S
N791 C793 1.356 . S
N791 H796 0.984 . S
N791 H797 0.985 . S
C792 C786 1.379 . S
C792 C789 1.363 . S
C792 N790 1.356 . S
C793 C787 1.363 . S
C793 C788 1.379 . S
C793 N791 1.356 . S
N794 C786 1.356 . S
N794 H800 0.984 . S
N794 H801 0.984 . S
N795 C788 1.356 . S
N795 H798 0.984 . S
N795 H799 0.985 . S
H796 N791 0.984 . S
H797 N791 0.985 . S
H798 N795 0.984 . S
H799 N795 0.985 . S
H800 N794 0.984 . S
H801 N794 0.984 . S
H802 N790 0.984 . S
H803 N790 0.985 . S
C373 C7 1.442 . S
C375 C115 1.338 1_565 S
C391 C25 1.309 . S
C393 C151 1.233 . S
C409 C46 1.008 . S
C411 C187 1.105 . S
C429 C217 1.203 . S
C427 C70 1.239 . S
C447 C259 1.349 . S
C445 C28 1.456 . S
C463 C49 1.257 . S
C465 C289 1.218 . S
C481 C67 1.006 . S
C483 C325 1.041 . S
C499 C4 1.302 . S
C501 C367 1.229 . S
C517 C58 2.060 . S
C519 C337 2.031 1_554 S
C537 C229 1.881 . S
C535 C66 1.831 . S
C555 C295 1.837 1_565 S
C553 C3 1.709 . S
C571 C37 1.647 . S
C573 C331 1.705 . S
C591 C121 2.043 . S
C589 C79 2.072 . S
C607 C16 1.632 . S
C609 C181 1.697 . S
C627 C223 1.850 . S
C625 C24 1.723 . S
C645 C85 1.873 . S
C643 C45 1.820 . S
C663 C301 1.246 . S
C661 C19 1.244 . S
C681 C361 1.501 . S
C679 C41 1.218 . S
C697 C62 1.331 . S
C699 C253 1.672 . S
C717 C265 1.413 . S
C715 C82 1.374 . S
C735 C157 1.273 . S
C733 C40 1.234 . S
C751 C61 1.378 . S
C753 C193 1.414 . S
C771 C109 1.661 . S
C769 C83 1.322 . S
C789 C145 1.514 . S
C787 C20 1.227 . S
