# Generated by pormake.
# Topology pyr, (3,6)-cn, num edge types: 1
# Building blocks:
#     Node 0, Type 0, BuildingBlock: CUQRIR_clean_linker_1, # of connection points: 3
#     Node 1, Type 0, BuildingBlock: CUQRIR_clean_linker_1, # of connection points: 3
#     Node 2, Type 0, BuildingBlock: CUQRIR_clean_linker_1, # of connection points: 3
#     Node 3, Type 0, BuildingBlock: CUQRIR_clean_linker_1, # of connection points: 3
#     Node 4, Type 0, BuildingBlock: CUQRIR_clean_linker_1, # of connection points: 3
#     Node 5, Type 0, BuildingBlock: CUQRIR_clean_linker_1, # of connection points: 3
#     Node 6, Type 0, BuildingBlock: CUQRIR_clean_linker_1, # of connection points: 3
#     Node 7, Type 0, BuildingBlock: CUQRIR_clean_linker_1, # of connection points: 3
#     Node 8, Type 1, BuildingBlock: BETGAK_clean_sbu_0, # of connection points: 6
#     Node 9, Type 1, BuildingBlock: BETGAK_clean_sbu_0, # of connection points: 6
#     Node 10, Type 1, BuildingBlock: BETGAK_clean_sbu_0, # of connection points: 6
#     Node 11, Type 1, BuildingBlock: BETGAK_clean_sbu_0, # of connection points: 6
#     Edge 12, Type (0, 1), BuildingBlock: AJUNOK_clean_linker_0, # of connection points: 2
#     Edge 13, Type (0, 1), BuildingBlock: AJUNOK_clean_linker_0, # of connection points: 2
#     Edge 14, Type (0, 1), BuildingBlock: AJUNOK_clean_linker_0, # of connection points: 2
#     Edge 15, Type (0, 1), BuildingBlock: AJUNOK_clean_linker_0, # of connection points: 2
#     Edge 16, Type (0, 1), BuildingBlock: AJUNOK_clean_linker_0, # of connection points: 2
#     Edge 17, Type (0, 1), BuildingBlock: AJUNOK_clean_linker_0, # of connection points: 2
#     Edge 18, Type (0, 1), BuildingBlock: AJUNOK_clean_linker_0, # of connection points: 2
#     Edge 19, Type (0, 1), BuildingBlock: AJUNOK_clean_linker_0, # of connection points: 2
#     Edge 20, Type (0, 1), BuildingBlock: AJUNOK_clean_linker_0, # of connection points: 2
#     Edge 21, Type (0, 1), BuildingBlock: AJUNOK_clean_linker_0, # of connection points: 2
#     Edge 22, Type (0, 1), BuildingBlock: AJUNOK_clean_linker_0, # of connection points: 2
#     Edge 23, Type (0, 1), BuildingBlock: AJUNOK_clean_linker_0, # of connection points: 2
#     Edge 24, Type (0, 1), BuildingBlock: AJUNOK_clean_linker_0, # of connection points: 2
#     Edge 25, Type (0, 1), BuildingBlock: AJUNOK_clean_linker_0, # of connection points: 2
#     Edge 26, Type (0, 1), BuildingBlock: AJUNOK_clean_linker_0, # of connection points: 2
#     Edge 27, Type (0, 1), BuildingBlock: AJUNOK_clean_linker_0, # of connection points: 2
#     Edge 28, Type (0, 1), BuildingBlock: AJUNOK_clean_linker_0, # of connection points: 2
#     Edge 29, Type (0, 1), BuildingBlock: AJUNOK_clean_linker_0, # of connection points: 2
#     Edge 30, Type (0, 1), BuildingBlock: AJUNOK_clean_linker_0, # of connection points: 2
#     Edge 31, Type (0, 1), BuildingBlock: AJUNOK_clean_linker_0, # of connection points: 2
#     Edge 32, Type (0, 1), BuildingBlock: AJUNOK_clean_linker_0, # of connection points: 2
#     Edge 33, Type (0, 1), BuildingBlock: AJUNOK_clean_linker_0, # of connection points: 2
#     Edge 34, Type (0, 1), BuildingBlock: AJUNOK_clean_linker_0, # of connection points: 2
#     Edge 35, Type (0, 1), BuildingBlock: AJUNOK_clean_linker_0, # of connection points: 2
# Relax obj value: 0.306
# Max RMSD: 0.275
# Mean RMSD: 0.177
data_MOF--net-pyr--node1-BETGAK_clean_sbu_0--node2-CUQRIR_clean_linker_1--edge1-AJUNOK_clean_linker_0
_symmetry_space_group_name_H-M    P1
_symmetry_Int_Tables_number       1
_symmetry_cell_setting            triclinic
loop_
_symmetry_equiv_pos_as_xyz
'x, y, z'
_cell_length_a     25.490067
_cell_length_b     25.485084
_cell_length_c     22.540523
_cell_angle_alpha  90.378398
_cell_angle_beta   89.497338
_cell_angle_gamma 110.19222
loop_
_atom_site_label
_atom_site_type_symbol
_atom_site_fract_x
_atom_site_fract_y
_atom_site_fract_z
_atom_type_partial_charge
C0 C 0.46171 0.52639 0.31224 0.0
N1 N 0.47767 0.48733 0.34111 0.0
N2 N 0.43748 0.50779 0.25931 0.0
C3 C 0.46751 0.5834 0.3365 0.0
C4 C 0.44979 0.46071 0.25124 0.0
N5 N 0.47375 0.4482 0.29991 0.0
C6 C 0.43322 0.42424 0.19696 0.0
H7 H 0.426 0.58421 0.35074 0.0
H8 H 0.48303 0.615 0.30092 0.0
H9 H 0.49705 0.59495 0.37426 0.0
H10 H 0.42834 0.44916 0.15854 0.0
H11 H 0.39257 0.39053 0.20517 0.0
H12 H 0.46487 0.4046 0.18638 0.0
C13 C 0.43575 0.15512 0.6385 0.0
N14 N 0.39802 0.16527 0.67526 0.0
N15 N 0.47608 0.14423 0.66969 0.0
C16 C 0.43358 0.1557 0.57185 0.0
C17 C 0.46191 0.14964 0.72706 0.0
N18 N 0.4151 0.16301 0.73019 0.0
C19 C 0.48808 0.13228 0.77992 0.0
H20 H 0.41128 1.11303 0.55469 0.0
H21 H 0.47658 0.16987 0.55307 0.0
H22 H 0.41124 0.18358 0.55667 0.0
H23 H 0.53135 0.16186 0.7855 0.0
H24 H 0.49006 1.0899 0.77263 0.0
H25 H 0.46492 0.13198 0.82182 0.0
C26 C 0.64422 0.47202 0.9416 0.0
N27 N 0.67669 0.46489 0.98639 0.0
N28 N 0.66498 0.52448 0.91948 0.0
C29 C 0.58938 0.42951 0.92272 0.0
C30 C 0.71102 0.54952 0.95251 0.0
N31 N 0.71815 0.51385 0.9938 0.0
C32 C 0.75077 0.60809 0.94181 0.0
H33 H 0.59752 0.40115 0.88917 0.0
H34 H 0.56191 0.44993 0.90242 0.0
H35 H 0.56719 0.40412 0.96105 0.0
H36 H 0.74013 0.6373 0.97233 0.0
H37 H 0.74759 0.62137 0.8956 0.0
H38 H 0.79451 0.61103 0.95034 0.0
C39 C 0.85794 0.78079 0.43918 0.0
N40 N 0.90898 0.8179 0.42344 0.0
N41 N 0.83085 0.80419 0.47709 0.0
C42 C 0.83579 0.72044 0.42005 0.0
C43 C 0.86656 0.8572 0.48358 0.0
N44 N 0.91423 0.86633 0.45127 0.0
C45 C 0.85612 0.89954 0.52475 0.0
H46 H 0.8447 0.71655 0.37228 0.0
H47 H 0.79016 0.70145 0.4281 0.0
H48 H 0.85715 0.69673 0.44561 0.0
H49 H 0.88226 0.9043 0.56491 0.0
H50 H 0.81159 0.88667 0.53853 0.0
H51 H 0.86801 0.94088 0.5029 0.0
C52 C 0.63303 0.89901 1.00431 0.0
N53 N 0.67017 0.88642 0.96902 0.0
N54 N 0.61082 0.9333 0.97635 0.0
C55 C 0.62633 0.88663 1.06961 0.0
C56 C 0.63478 0.93948 0.92183 0.0
N57 N 0.67195 0.91235 0.9177 0.0
C58 C 0.62842 0.97983 0.8764 0.0
H59 H 0.58486 0.88629 1.0855 0.0
H60 H 0.65917 0.91964 1.09419 0.0
H61 H 0.63105 0.8458 1.07898 0.0
H62 H 0.6507 1.02339 0.89123 0.0
H63 H 0.58362 0.97494 0.8726 0.0
H64 H 0.64512 0.97298 0.83251 0.0
C65 C 0.80749 0.31855 0.6543 0.0
N66 N 0.84612 0.31396 0.61424 0.0
N67 N 0.77848 0.34941 0.63175 0.0
C68 C 0.79776 0.29383 0.71537 0.0
C69 C 0.80071 0.36385 0.57717 0.0
N70 N 0.84143 0.3424 0.56636 0.0
C71 C 0.77753 0.39267 0.53114 0.0
H72 H 0.76575 0.25137 0.71315 0.0
H73 H 0.78164 0.31955 0.74541 0.0
H74 H 0.83689 0.29092 0.73377 0.0
H75 H 0.81135 0.43005 0.51421 0.0
H76 H 0.74372 0.40648 0.54884 0.0
H77 H 0.76124 0.36393 0.49309 0.0
C78 C 0.38226 0.80476 0.33756 0.0
N79 N 0.42862 0.84263 0.36226 0.0
N80 N 0.34756 0.82998 0.31637 0.0
C81 C 0.37069 0.74262 0.33472 0.0
C82 C 0.37384 0.88444 0.32909 0.0
N83 N 0.42358 0.89302 0.35608 0.0
C84 C 0.35224 0.93034 0.31208 0.0
H85 H 0.40748 0.73439 0.31606 0.0
H86 H 0.33424 0.72057 0.30655 0.0
H87 H 0.36307 0.72505 0.38021 0.0
H88 H 0.30591 0.91455 0.31008 0.0
H89 H 0.36904 0.94653 0.26767 0.0
H90 H 0.36605 0.96541 0.34433 0.0
C91 C 0.15735 0.4867 0.8707 0.0
N92 N 0.19202 0.48198 0.82614 0.0
N93 N 0.17414 0.53955 0.8936 0.0
C94 C 0.10913 0.43832 0.89406 0.0
C95 C 0.2209 0.56658 0.86114 0.0
N96 N 0.23207 0.53197 0.82052 0.0
C97 C 0.2533 0.62827 0.8657 0.0
H98 H 0.07224 0.43175 0.86539 0.0
H99 H 0.09828 0.44608 0.94027 0.0
H100 H 0.11947 0.39944 0.89257 0.0
H101 H 0.28745 0.63513 0.89825 0.0
H102 H 0.22601 0.65154 0.88087 0.0
H103 H 0.27227 0.6453 0.82231 0.0
La104 La 0.1053 0.20249 0.56931 0.0
La105 La 0.07055 0.14721 0.67712 0.0
C106 C 0.14787 0.27023 0.48746 0.0
C107 C 0.20694 0.30711 0.48491 0.0
C108 C 0.24249 0.29751 0.44173 0.0
C109 C 0.29973 0.32736 0.44306 0.0
C110 C 0.32263 0.36778 0.48722 0.0
C111 C 0.28734 0.37696 0.53099 0.0
C112 C 0.23004 0.34674 0.53007 0.0
C113 C 0.17838 0.1612 0.6161 0.0
C114 C 0.13029 0.27434 0.68854 0.0
C115 C 1.04883 1.07701 0.76008 0.0
C116 C 0.99683 1.03138 0.77405 0.0
C117 C 0.98546 1.01336 0.83279 0.0
C118 C 0.93085 0.9825 0.85005 0.0
C119 C 0.88728 0.96965 0.80867 0.0
C120 C 0.89958 0.98285 0.74877 0.0
C121 C 0.95421 1.01379 0.7315 0.0
C122 C 0.99712 0.19128 0.63986 0.0
C123 C 1.03997 1.07788 0.55426 0.0
O124 O 0.13973 0.217 0.48318 0.0
O125 O 0.11759 0.2803 0.52982 0.0
O126 O 0.16426 0.15741 0.56145 0.0
O127 O 0.15201 0.18741 0.64278 0.0
O128 O 0.11628 0.27301 0.63204 0.0
O129 O 0.12628 0.2268 0.71471 0.0
O130 O 1.04516 1.12664 0.76518 0.0
O131 O 0.07422 1.07183 0.71099 0.0
O132 O 1.00649 0.18349 0.69447 0.0
O133 O 1.02296 0.16812 0.6064 0.0
O134 O 1.05247 1.07772 0.61121 0.0
O135 O 1.04713 1.12643 0.52873 0.0
H136 H 0.22601 0.26663 0.40711 0.0
H137 H 0.32578 0.32053 0.40791 0.0
H138 H 0.30386 0.40809 0.56534 0.0
H139 H 0.20405 0.35435 0.56497 0.0
H140 H 1.01775 1.02701 0.86617 0.0
H141 H 0.92176 0.97303 0.89663 0.0
H142 H 0.86633 0.97386 0.71652 0.0
H143 H 0.96217 1.0279 0.68599 0.0
La144 La 0.61318 0.1985 0.21327 0.0
La145 La 0.50216 0.17339 0.16924 0.0
C146 C 0.71818 0.22563 0.21535 0.0
C147 C 0.76774 0.26883 0.23827 0.0
C148 C 0.76264 0.31428 0.26984 0.0
C149 C 0.80343 0.34207 0.31094 0.0
C150 C 0.84839 0.32337 0.32132 0.0
C151 C 0.85821 0.28482 0.28207 0.0
C152 C 0.81755 0.25722 0.24071 0.0
C153 C 0.54059 1.11424 0.27227 0.0
C154 C 0.53945 0.25533 0.27596 0.0
C155 C 0.40042 0.15324 0.14642 0.0
C156 C 0.37113 0.14202 1.089 0.0
C157 C 0.34789 0.18052 1.06694 0.0
C158 C 0.33438 0.17986 1.00688 0.0
C159 C 0.34344 0.14033 0.9682 0.0
C160 C 0.3614 1.09847 0.99166 0.0
C161 C 0.3751 1.09927 1.05149 0.0
C162 C 0.58042 0.25571 1.1115 0.0
C163 C 0.56839 1.11046 1.10538 0.0
O164 O 0.68443 0.1954 0.25595 0.0
O165 O 0.69123 0.23962 0.17281 0.0
O166 O 0.58223 0.15352 0.29605 0.0
O167 O 0.54094 1.12333 0.21698 0.0
O168 O 0.59174 0.2643 0.25929 0.0
O169 O 0.50007 0.2096 0.25714 0.0
O170 O 0.43697 0.20359 0.15186 0.0
O171 O 0.42013 1.11545 0.16577 0.0
O172 O 0.53981 0.2167 1.08633 0.0
O173 O 0.57531 0.24775 0.16642 0.0
O174 O 0.51767 1.11117 0.11382 0.0
O175 O 0.61087 0.14407 0.13614 0.0
H176 H 0.72439 0.32379 0.26797 0.0
H177 H 0.79513 0.37186 0.34077 0.0
H178 H 0.89273 0.27007 0.28938 0.0
H179 H 0.822 0.22234 0.21603 0.0
H180 H 0.34438 0.21382 1.09506 0.0
H181 H 0.32066 0.21259 0.98985 0.0
H182 H 0.36985 1.06809 0.96285 0.0
H183 H 0.39287 1.06896 1.06704 0.0
La184 La 0.51968 0.62435 0.60633 0.0
La185 La 0.54025 0.71846 0.68212 0.0
C186 C 0.52595 0.5388 0.55358 0.0
C187 C 0.54434 0.49315 0.57413 0.0
C188 C 0.53985 0.47786 0.63435 0.0
C189 C 0.56633 0.4419 0.6555 0.0
C190 C 0.59664 0.41987 0.61654 0.0
C191 C 0.59803 0.43237 0.55573 0.0
C192 C 0.57244 0.46907 0.53479 0.0
C193 C 0.42921 0.62081 0.66851 0.0
C194 C 0.56859 0.62336 0.73696 0.0
C195 C 0.53969 0.80396 0.7383 0.0
C196 C 0.54847 0.86093 0.71825 0.0
C197 C 0.55889 0.8749 0.65801 0.0
C198 C 0.56149 0.92745 0.63792 0.0
C199 C 0.55559 0.96713 0.67824 0.0
C200 C 0.54825 0.95413 0.73891 0.0
C201 C 0.54432 0.90111 0.75876 0.0
C202 C 0.63014 0.71928 0.62056 0.0
C203 C 0.4966 0.72595 0.55051 0.0
O204 O 0.48016 0.54148 0.57745 0.0
O205 O 0.56504 0.58799 0.55136 0.0
O206 O 0.43001 0.60895 0.61266 0.0
O207 O 0.47885 0.63582 0.68763 0.0
O208 O 0.56834 0.60729 0.68087 0.0
O209 O 0.54751 0.6623 0.75039 0.0
O210 O 0.58333 0.78853 0.73392 0.0
O211 O 0.49443 0.76544 0.71861 0.0
O212 O 0.63017 0.73448 0.67524 0.0
O213 O 0.58096 0.70606 0.60157 0.0
O214 O 0.50046 0.74373 0.60608 0.0
O215 O 0.50771 0.68004 0.53737 0.0
H216 H 0.51825 0.49585 0.6656 0.0
H217 H 0.56506 0.43308 0.70256 0.0
H218 H 0.62194 0.41649 0.52498 0.0
H219 H 0.5769 0.4807 0.48839 0.0
H220 H 0.56322 0.84465 0.62623 0.0
H221 H 0.56612 0.93645 0.59087 0.0
H222 H 0.54222 0.98391 0.77038 0.0
H223 H 0.53627 0.89087 0.8053 0.0
La224 La 1.02944 0.62272 0.19592 0.0
La225 La 1.03351 0.71818 0.12237 0.0
C226 C 0.06023 0.54812 0.24159 0.0
C227 C 0.11592 0.54199 0.2412 0.0
C228 C 0.13311 0.51776 0.28951 0.0
C229 C 0.18629 0.51303 0.28967 0.0
C230 C 0.22338 0.53238 0.24143 0.0
C231 C 0.20633 0.55751 0.1935 0.0
C232 C 0.15318 0.56221 0.19339 0.0
C233 C 0.98649 0.69373 0.24993 0.0
C234 C 0.13945 0.72946 0.1931 0.0
C235 C 1.01163 0.7969 1.0731 0.0
C236 C 0.95999 0.80659 1.0568 0.0
C237 C 0.96256 0.84979 1.01751 0.0
C238 C 0.91407 0.8608 1.00344 0.0
C239 C 0.86228 0.82846 1.0282 0.0
C240 C 0.85951 0.78431 1.06635 0.0
C241 C 0.90812 0.77379 1.08101 0.0
C242 C 0.08353 0.6528 1.07237 0.0
C243 C 0.92251 0.60743 0.12571 0.0
O244 O 0.05643 0.59083 0.27133 0.0
O245 O 1.03546 0.54269 0.19022 0.0
O246 O 0.96952 0.6399 0.25792 0.0
O247 O 1.02858 0.70559 0.21592 0.0
O248 O 0.11774 0.67461 0.1962 0.0
O249 O 0.11154 0.75893 0.16926 0.0
O250 O 1.02243 0.75731 1.0439 0.0
O251 O 1.02014 0.79465 0.12996 0.0
O252 O 0.10065 0.7068 1.068 0.0
O253 O 1.03806 0.63719 1.1017 0.0
O254 O 0.94496 0.66219 0.11727 0.0
O255 O 0.95031 0.57981 0.153 0.0
H256 H 0.10548 0.50268 0.32724 0.0
H257 H 0.19859 0.49469 0.32795 0.0
H258 H 0.23369 0.57271 0.15562 0.0
H259 H 0.14116 0.5816 0.15578 0.0
H260 H 1.00217 0.87546 0.99835 0.0
H261 H 0.917 0.8948 0.97351 0.0
H262 H 0.82006 0.75908 1.08617 0.0
H263 H 0.90528 0.7408 1.1121 0.0
C264 C 0.46701 0.42536 0.42877 0.0
C265 C 0.46125 0.47359 0.4032 0.0
C266 C 0.42354 0.38945 0.46203 0.0
C267 C 0.38013 0.40732 0.47888 0.0
H268 H 0.50043 0.41089 0.41562 0.0
H269 H 0.42187 0.3471 0.47041 0.0
S270 S 0.37399 0.56291 0.48344 0.0
N271 N 0.38723 0.50138 0.47422 0.0
N272 N 0.362 0.49537 0.49819 0.0
C273 C 0.38954 0.4688 0.47038 0.0
C274 C 0.42696 0.50197 0.42926 0.0
C275 C 0.39994 0.20723 0.82211 0.0
C276 C 0.38308 0.16152 0.78317 0.0
C277 C 0.38168 0.20145 0.88124 0.0
C278 C 0.34651 0.14945 0.90321 0.0
H279 H 0.43091 0.24625 0.80787 0.0
H280 H 0.39942 0.23653 0.91105 0.0
S281 S 0.28439 1.01956 0.81535 0.0
N282 N 0.32476 1.06493 0.7676 0.0
N283 N 0.28974 1.05359 0.87897 0.0
C284 C 0.3254 1.10488 0.86293 0.0
C285 C 0.3439 1.11103 0.80271 0.0
C286 C 0.63747 0.53098 0.81525 0.0
C287 C 0.64098 0.54939 0.87447 0.0
C288 C 0.61455 0.55537 0.77109 0.0
C289 C 0.59304 0.59823 0.78465 0.0
H290 H 0.65323 0.49798 0.803 0.0
H291 H 0.6141 0.54072 0.72595 0.0
S292 S 0.59287 0.66069 0.93437 0.0
N293 N 0.62184 0.61271 0.9448 0.0
N294 N 0.57791 0.65806 0.86303 0.0
C295 C 0.59647 0.61674 0.84423 0.0
C296 C 0.62052 0.59239 0.88876 0.0
C297 C 0.94063 0.80987 0.32033 0.0
C298 C 0.94646 0.80372 0.38199 0.0
C299 C 0.95617 0.77639 0.27769 0.0
C300 C 0.97704 0.73413 0.29476 0.0
H301 H 0.91962 0.83765 0.30522 0.0
H302 H 0.94845 0.7813 0.23124 0.0
S303 S 1.00516 0.70395 0.44975 0.0
N304 N 0.97901 0.75467 0.45671 0.0
N305 N 1.00703 0.69169 0.37782 0.0
C306 C 0.98598 0.72975 0.35586 0.0
C307 C 0.97123 0.76451 0.39891 0.0
C308 C 0.54633 0.40445 0.30601 0.0
C309 C 0.48968 0.39929 0.30555 0.0
C310 C 0.56248 0.35693 0.30269 0.0
C311 C 0.52245 0.30266 0.29791 0.0
H312 H 0.5782 0.44561 0.30626 0.0
H313 H 0.60666 0.36315 0.30003 0.0
S314 S 0.36824 0.26756 0.30607 0.0
N315 N 0.39366 0.33653 0.30856 0.0
N316 N 0.42301 0.24715 0.30207 0.0
C317 C 0.46549 0.29722 0.30284 0.0
C318 C 0.44934 0.34556 0.30625 0.0
C319 C 0.32451 0.2074 0.67828 0.0
C320 C 0.34286 0.16377 0.66029 0.0
C321 C 0.27012 0.20556 0.66578 0.0
C322 C 0.23294 0.16012 0.63454 0.0
H323 H 0.35263 0.24317 0.70169 0.0
H324 H 0.25766 0.24051 0.6791 0.0
S325 S 0.25847 1.03222 0.58529 0.0
N326 N 0.3177 1.07111 0.61637 0.0
N327 N 0.21644 1.06903 0.58987 0.0
C328 C 0.25032 1.11567 0.61785 0.0
C329 C 0.30513 1.11708 0.63155 0.0
C330 C 0.77371 0.57714 1.07168 0.0
C331 C 0.76304 0.5284 1.03688 0.0
C332 C 0.82442 0.60128 1.10204 0.0
C333 C 0.86608 0.57674 1.10057 0.0
H334 H 0.74365 0.59852 1.0726 0.0
H335 H 0.83163 0.64032 0.12559 0.0
S336 S 0.85722 0.44638 1.02012 0.0
N337 N 0.79744 0.45514 1.00507 0.0
N338 N 0.8916 0.49859 1.06452 0.0
C339 C 0.85437 0.52579 1.06944 0.0
C340 C 0.80309 0.50196 1.03724 0.0
C341 C 0.7277 0.7608 0.48592 0.0
C342 C 0.78096 0.77696 0.5118 0.0
C343 C 0.67875 0.73997 0.52089 0.0
C344 C 0.6816 0.73524 0.58301 0.0
H345 H 0.72403 0.76587 0.43865 0.0
H346 H 0.63855 0.72939 0.49941 0.0
S347 S 0.81165 0.76849 0.67094 0.0
N348 N 0.83385 0.78373 0.60198 0.0
N349 N 0.74268 0.74559 0.66794 0.0
C350 C 0.73487 0.74959 0.6088 0.0
C351 C 0.78433 0.77025 0.57318 0.0
C352 C 0.37832 0.55993 0.22555 0.0
C353 C 0.38261 0.50984 0.24707 0.0
C354 C 0.32729 0.56811 0.22295 0.0
C355 C 0.27925 0.52553 0.24109 0.0
H356 H 0.41586 0.59398 0.21313 0.0
H357 H 0.32578 0.60798 0.20838 0.0
S358 S 0.25419 0.36827 0.29423 0.0
N359 N 0.27765 0.43687 0.27062 0.0
N360 N 0.2438 0.42667 0.27281 0.0
C361 C 0.28566 0.47088 0.26016 0.0
C362 C 0.33663 0.46206 0.26539 0.0
C363 C 0.65213 0.36211 0.99185 0.0
C364 C 0.66455 0.4141 1.02104 0.0
C365 C 0.62638 0.31119 1.02172 0.0
C366 C 0.61348 0.3099 1.0826 0.0
H367 H 0.65968 0.36103 0.9446 0.0
H368 H 0.61529 0.27256 0.99658 0.0
S369 S 0.64227 0.43416 0.18083 0.0
N370 N 0.66426 0.46083 0.11484 0.0
N371 N 0.61935 0.36555 0.17202 0.0
C372 C 0.62941 0.36147 0.11325 0.0
C373 C 0.65427 0.41341 1.08233 0.0
C374 C 0.96455 0.96733 0.43596 0.0
C375 C 0.96326 0.91611 0.46086 0.0
C376 C 0.99145 1.01948 0.46453 0.0
C377 C 1.01793 1.02307 0.52001 0.0
H378 H 0.93964 0.96651 0.39707 0.0
H379 H 0.98828 1.05684 0.44469 0.0
S380 S 1.03282 0.90199 0.60046 0.0
N381 N 0.996 0.87354 0.54126 0.0
N382 N 1.04637 0.96998 0.5948 0.0
C383 C 1.02084 0.97253 0.54278 0.0
C384 C 0.99406 0.91981 0.51318 0.0
C385 C 0.47416 1.0548 0.62781 0.0
C386 C 0.50533 1.10773 0.65089 0.0
C387 C 0.49436 1.01046 0.63026 0.0
C388 C 0.54579 1.01739 0.65702 0.0
H389 H 0.43141 1.04582 0.61395 0.0
H390 H 0.46696 0.96923 0.61708 0.0
S391 S 0.64822 0.15005 0.71209 0.0
N392 N 0.59441 0.16708 0.69049 0.0
N393 N 0.63133 1.08242 0.69846 0.0
C394 C 0.57996 1.07121 0.67431 0.0
C395 C 0.56 1.11685 0.67014 0.0
C396 C 0.7355 0.88944 0.84721 0.0
C397 C 0.72112 0.92936 0.8806 0.0
C398 C 0.78908 0.90268 0.82183 0.0
C399 C 0.82954 0.95588 0.83031 0.0
H400 H 0.70591 0.84728 0.84304 0.0
H401 H 0.79959 0.87078 0.79758 0.0
S402 S 0.81221 1.07501 0.91284 0.0
N403 N 0.75138 1.02409 0.91972 0.0
N404 N 0.85133 1.04911 0.87163 0.0
C405 C 0.81493 0.99647 0.86176 0.0
C406 C 0.76081 0.9832 0.88704 0.0
C407 C 0.88781 0.38275 0.4728 0.0
C408 C 0.86007 0.33547 0.50749 0.0
C409 C 0.89094 0.37833 0.41104 0.0
C410 C 0.86766 0.32622 0.38291 0.0
H411 H 0.90274 0.42379 0.4932 0.0
H412 H 0.90696 0.41615 0.38493 0.0
S413 S 0.79796 0.18924 0.45558 0.0
N414 N 0.81389 0.23501 0.51051 0.0
N415 N 0.82237 0.22571 0.39492 0.0
C416 C 0.84597 0.27795 0.41808 0.0
C417 C 0.84145 0.28279 0.48049 0.0
C418 C 0.4879 0.78974 0.39802 0.0
C419 C 0.45804 0.82619 0.40983 0.0
C420 C 0.50014 0.75754 0.44325 0.0
C421 C 0.48409 0.76111 0.50279 0.0
H422 H 0.49899 0.78363 0.35268 0.0
H423 H 0.52169 0.72904 0.43119 0.0
S424 S 0.4087 0.85349 0.55812 0.0
N425 N 0.41489 0.86536 0.48603 0.0
N426 N 0.43973 0.8076 0.57113 0.0
C427 C 0.45725 0.80007 0.51565 0.0
C428 C 0.44407 0.83202 0.46939 0.0
C429 C 0.18233 0.59501 0.9871 0.0
C430 C 0.14901 0.56277 0.9411 0.0
C431 C 0.16038 0.62244 1.03022 0.0
C432 C 0.10355 0.61734 1.03086 0.0
H433 H 0.22621 0.60006 0.98904 0.0
H434 H 0.18836 0.6484 1.06314 0.0
S435 S 0.9979 0.53866 0.92085 0.0
N436 N 0.05594 0.52923 0.89848 0.0
N437 N 1.01424 0.57726 0.98167 0.0
C438 C 0.06923 0.58387 0.98651 0.0
C439 C 0.09195 0.55737 0.94134 0.0
C440 C 0.64218 1.0209 1.03266 0.0
C441 C 0.5985 0.97774 1.00603 0.0
C442 C 0.63214 1.06463 1.06259 0.0
C443 C 0.57785 1.06694 1.06709 0.0
H444 H 0.68443 1.02031 1.03065 0.0
H445 H 0.66729 1.09617 1.08335 0.0
S446 S 0.44996 0.96539 0.99986 0.0
N447 N 0.50016 0.94079 0.98213 0.0
N448 N 0.48012 1.02305 1.03869 0.0
C449 C 0.53395 1.0247 1.03856 0.0
C450 C 0.54456 0.98004 1.00794 0.0
C451 C 0.86559 0.22825 0.64379 0.0
C452 C 0.88365 0.28226 0.61892 0.0
C453 C 0.90165 0.19722 0.64733 0.0
C454 C 0.95579 0.21726 0.62262 0.0
H455 H 0.82347 0.20969 0.66075 0.0
H456 H 0.88732 0.15748 0.67025 0.0
S457 S 1.02168 0.3533 0.54746 0.0
N458 N 0.96036 0.35432 0.57015 0.0
N459 N 1.02371 0.29211 0.56831 0.0
C460 C 0.97289 0.2693 0.59438 0.0
C461 C 0.93798 0.30267 0.59455 0.0
C462 C 0.28823 0.82248 0.22809 0.0
C463 C 0.29525 0.80533 0.28589 0.0
C464 C 0.23719 0.79899 0.19811 0.0
C465 C 0.19227 0.75692 0.2248 0.0
H466 H 0.32262 0.85393 0.20596 0.0
H467 H 0.2333 0.81274 0.15352 0.0
S468 S 0.18833 0.701 0.37702 0.0
N469 N 0.25199 0.74733 0.37 0.0
N470 N 0.15708 0.70121 0.3132 0.0
C471 C 0.19872 0.74013 0.28282 0.0
C472 C 0.24999 0.76484 0.31353 0.0
C473 C 0.33479 0.5689 0.80489 0.0
C474 C 0.28049 0.54734 0.78107 0.0
C475 C 0.38237 0.59288 0.76858 0.0
C476 C 0.37787 0.59641 0.70657 0.0
H477 H 0.34024 0.56835 0.85244 0.0
H478 H 0.42298 0.60898 0.78941 0.0
S479 S 0.24502 0.54655 0.62196 0.0
N480 N 0.2251 0.53193 0.69168 0.0
N481 N 0.31385 0.57552 0.62312 0.0
C482 C 0.32372 0.57425 0.68212 0.0
C483 C 0.27531 0.55005 0.71931 0.0
C484 C 0.71675 0.81649 0.97732 0.0
C485 C 0.71535 0.86996 0.99004 0.0
C486 C 0.76406 0.80262 0.99096 0.0
C487 C 0.81167 0.84247 1.01631 0.0
H488 H 0.68159 0.7859 0.95556 0.0
H489 H 0.76409 0.76116 0.98007 0.0
S490 S 0.82749 0.9878 1.05898 0.0
N491 N 0.76404 0.96196 1.03093 0.0
N492 N 0.85359 0.93687 1.05503 0.0
C493 C 0.81019 0.8958 1.02977 0.0
C494 C 0.76181 0.90932 1.01703 0.0
C495 C 0.49047 0.95502 0.28626 0.0
C496 C 0.4691 0.94497 0.34467 0.0
C497 C 0.51377 1.00961 0.26344 0.0
C498 C 0.51837 1.05688 0.29859 0.0
H499 H 0.48381 0.92005 0.25616 0.0
H500 H 0.52685 1.01468 0.21733 0.0
S501 S 0.47545 1.0542 0.45655 0.0
N502 N 0.45787 0.98747 0.43817 0.0
N503 N 0.50487 1.09004 0.39683 0.0
C504 C 0.50176 1.04773 0.35853 0.0
C505 C 0.47667 0.99193 0.38125 0.0
C506 C 0.20993 0.39529 0.79413 0.0
C507 C 0.18162 0.43361 0.78723 0.0
C508 C 0.19342 0.3438 0.76244 0.0
C509 C 0.1484 0.32901 0.72212 0.0
H510 H 0.24385 0.40446 0.82551 0.0
H511 H 0.21603 0.3154 0.76957 0.0
S512 S 0.05889 0.41377 0.69176 0.0
N513 N 0.10534 0.45207 0.73948 0.0
N514 N 0.07494 0.35705 0.67987 0.0
C515 C 0.12029 0.36744 0.71512 0.0
C516 C 0.13662 0.41908 0.74769 0.0
C517 C 0.72682 0.40383 0.67813 0.0
C518 C 0.72636 0.35385 0.6512 0.0
C519 C 0.68105 0.42213 0.67267 0.0
C520 C 0.63398 0.39125 0.63925 0.0
H521 H 0.76503 0.4317 0.69766 0.0
H522 H 0.68499 0.46331 0.68929 0.0
S523 S 0.60907 0.25314 0.56903 0.0
N524 N 0.67216 0.27006 0.5979 0.0
N525 N 0.58646 0.30478 0.58641 0.0
C526 C 0.63066 0.33838 0.61789 0.0
C527 C 0.67675 0.31941 0.6245 0.0
loop_
_geom_bond_atom_site_label_1
_geom_bond_atom_site_label_2
_geom_bond_distance
_geom_bond_site_symmetry_2
_ccdc_geom_bond_type
C0 N1 1.317 . S
C0 N2 1.348 . S
C0 C3 1.485 . S
N1 C0 1.317 . S
N1 N5 1.370 . S
N2 C0 1.348 . S
N2 C4 1.346 . S
C3 C0 1.485 . S
C3 H7 0.960 . S
C3 H8 0.961 . S
C3 H9 0.960 . S
C4 N2 1.346 . S
C4 N5 1.307 . S
C4 C6 1.486 . S
N5 N1 1.370 . S
N5 C4 1.307 . S
C6 C4 1.486 . S
C6 H10 0.960 . S
C6 H11 0.960 . S
C6 H12 0.959 . S
H7 C3 0.960 . S
H8 C3 0.961 . S
H9 C3 0.960 . S
H10 C6 0.960 . S
H11 C6 0.960 . S
H12 C6 0.959 . S
C13 N14 1.317 . S
C13 N15 1.348 . S
C13 C16 1.485 . S
N14 C13 1.317 . S
N14 N18 1.370 . S
N15 C13 1.348 . S
N15 C17 1.346 . S
C16 C13 1.485 . S
C16 H20 0.960 . S
C16 H21 0.961 . S
C16 H22 0.960 . S
C17 N15 1.346 . S
C17 N18 1.307 . S
C17 C19 1.486 . S
N18 N14 1.370 . S
N18 C17 1.307 . S
C19 C17 1.486 . S
C19 H23 0.960 . S
C19 H24 0.960 . S
C19 H25 0.959 . S
H20 C16 0.960 . S
H21 C16 0.961 . S
H22 C16 0.960 . S
H23 C19 0.960 . S
H24 C19 0.960 . S
H25 C19 0.959 . S
C26 N27 1.317 . S
C26 N28 1.348 . S
C26 C29 1.485 . S
N27 C26 1.317 . S
N27 N31 1.370 . S
N28 C26 1.348 . S
N28 C30 1.346 . S
C29 C26 1.485 . S
C29 H33 0.960 . S
C29 H34 0.961 . S
C29 H35 0.960 . S
C30 N28 1.346 . S
C30 N31 1.307 . S
C30 C32 1.486 . S
N31 N27 1.370 . S
N31 C30 1.307 . S
C32 C30 1.486 . S
C32 H36 0.960 . S
C32 H37 0.960 . S
C32 H38 0.959 . S
H33 C29 0.960 . S
H34 C29 0.961 . S
H35 C29 0.960 . S
H36 C32 0.960 . S
H37 C32 0.960 . S
H38 C32 0.959 . S
C39 N40 1.317 . S
C39 N41 1.348 . S
C39 C42 1.485 . S
N40 C39 1.317 . S
N40 N44 1.370 . S
N41 C39 1.348 . S
N41 C43 1.346 . S
C42 C39 1.485 . S
C42 H46 0.960 . S
C42 H47 0.961 . S
C42 H48 0.960 . S
C43 N41 1.346 . S
C43 N44 1.307 . S
C43 C45 1.486 . S
N44 N40 1.370 . S
N44 C43 1.307 . S
C45 C43 1.486 . S
C45 H49 0.960 . S
C45 H50 0.960 . S
C45 H51 0.959 . S
H46 C42 0.960 . S
H47 C42 0.961 . S
H48 C42 0.960 . S
H49 C45 0.960 . S
H50 C45 0.960 . S
H51 C45 0.959 . S
C52 N53 1.317 . S
C52 N54 1.348 . S
C52 C55 1.485 . S
N53 C52 1.317 . S
N53 N57 1.370 . S
N54 C52 1.348 . S
N54 C56 1.346 . S
C55 C52 1.485 . S
C55 H59 0.960 . S
C55 H60 0.961 . S
C55 H61 0.960 . S
C56 N54 1.346 . S
C56 N57 1.307 . S
C56 C58 1.486 . S
N57 N53 1.370 . S
N57 C56 1.307 . S
C58 C56 1.486 . S
C58 H62 0.960 . S
C58 H63 0.960 . S
C58 H64 0.959 . S
H59 C55 0.960 . S
H60 C55 0.961 . S
H61 C55 0.960 . S
H62 C58 0.960 . S
H63 C58 0.960 . S
H64 C58 0.959 . S
C65 N66 1.317 . S
C65 N67 1.348 . S
C65 C68 1.485 . S
N66 C65 1.317 . S
N66 N70 1.370 . S
N67 C65 1.348 . S
N67 C69 1.346 . S
C68 C65 1.485 . S
C68 H72 0.960 . S
C68 H73 0.961 . S
C68 H74 0.960 . S
C69 N67 1.346 . S
C69 N70 1.307 . S
C69 C71 1.486 . S
N70 N66 1.370 . S
N70 C69 1.307 . S
C71 C69 1.486 . S
C71 H75 0.960 . S
C71 H76 0.960 . S
C71 H77 0.959 . S
H72 C68 0.960 . S
H73 C68 0.961 . S
H74 C68 0.960 . S
H75 C71 0.960 . S
H76 C71 0.960 . S
H77 C71 0.959 . S
C78 N79 1.317 . S
C78 N80 1.348 . S
C78 C81 1.485 . S
N79 C78 1.317 . S
N79 N83 1.370 . S
N80 C78 1.348 . S
N80 C82 1.346 . S
C81 C78 1.485 . S
C81 H85 0.960 . S
C81 H86 0.961 . S
C81 H87 0.960 . S
C82 N80 1.346 . S
C82 N83 1.307 . S
C82 C84 1.486 . S
N83 N79 1.370 . S
N83 C82 1.307 . S
C84 C82 1.486 . S
C84 H88 0.960 . S
C84 H89 0.960 . S
C84 H90 0.959 . S
H85 C81 0.960 . S
H86 C81 0.961 . S
H87 C81 0.960 . S
H88 C84 0.960 . S
H89 C84 0.960 . S
H90 C84 0.959 . S
C91 N92 1.317 . S
C91 N93 1.348 . S
C91 C94 1.485 . S
N92 C91 1.317 . S
N92 N96 1.370 . S
N93 C91 1.348 . S
N93 C95 1.346 . S
C94 C91 1.485 . S
C94 H98 0.960 . S
C94 H99 0.961 . S
C94 H100 0.960 . S
C95 N93 1.346 . S
C95 N96 1.307 . S
C95 C97 1.486 . S
N96 N92 1.370 . S
N96 C95 1.307 . S
C97 C95 1.486 . S
C97 H101 0.960 . S
C97 H102 0.960 . S
C97 H103 0.959 . S
H98 C94 0.960 . S
H99 C94 0.961 . S
H100 C94 0.960 . S
H101 C97 0.960 . S
H102 C97 0.960 . S
H103 C97 0.959 . S
La104 C106 2.928 . S
La104 O124 2.521 . S
La104 O125 2.628 . S
La104 O126 2.554 . S
La104 O127 2.757 . S
La104 O128 2.470 . S
La104 O133 2.482 . S
La104 O135 2.503 1_545 S
La105 C115 2.928 1_545 S
La105 O127 2.482 1_655 S
La105 O129 2.503 1_655 S
La105 O130 2.521 1_545 S
La105 O131 2.628 1_545 S
La105 O132 2.554 . S
La105 O133 2.757 1_655 S
La105 O134 2.470 1_545 S
C106 La104 2.928 . S
C106 C107 1.503 . S
C106 O124 1.261 . S
C106 O125 1.243 . S
C107 C106 1.503 . S
C107 C108 1.394 . S
C107 C112 1.373 . S
C108 C107 1.394 . S
C108 C109 1.380 . S
C108 H136 0.930 . S
C109 C108 1.380 . S
C109 C110 1.376 . S
C109 H137 0.930 . S
C110 C109 1.376 . S
C110 C111 1.370 . S
C111 C110 1.370 . S
C111 C112 1.396 . S
C111 H138 0.929 . S
C112 C107 1.373 . S
C112 C111 1.396 . S
C112 H139 0.929 . S
C113 O126 1.240 1_565 S
C113 O127 1.289 1_565 S
C114 O128 1.258 . S
C114 O129 1.256 . S
C115 La105 2.928 1_565 S
C115 C116 1.503 . S
C115 O130 1.261 . S
C115 O131 1.243 . S
C116 C115 1.503 . S
C116 C117 1.394 . S
C116 C121 1.373 . S
C117 C116 1.394 . S
C117 C118 1.380 . S
C117 H140 0.930 . S
C118 C117 1.380 . S
C118 C119 1.376 . S
C118 H141 0.930 . S
C119 C118 1.376 . S
C119 C120 1.370 . S
C120 C119 1.370 . S
C120 C121 1.396 . S
C120 H142 0.929 . S
C121 C116 1.373 . S
C121 C120 1.396 . S
C121 H143 0.929 . S
C122 O132 1.240 . S
C122 O133 1.289 1_655 S
C123 O134 1.258 . S
C123 O135 1.256 1_655 S
O124 La104 2.521 . S
O124 C106 1.261 . S
O125 La104 2.628 . S
O125 C106 1.243 . S
O126 La104 2.554 . S
O126 C113 1.240 1_545 S
O127 La104 2.757 . S
O127 La105 2.482 1_455 S
O127 C113 1.289 1_545 S
O128 La104 2.470 . S
O128 C114 1.258 . S
O129 La105 2.503 1_455 S
O129 C114 1.256 . S
O130 La105 2.521 1_565 S
O130 C115 1.261 . S
O131 La105 2.628 1_565 S
O131 C115 1.243 . S
O132 La105 2.554 . S
O132 C122 1.240 . S
O133 La104 2.482 . S
O133 La105 2.757 1_455 S
O133 C122 1.289 1_455 S
O134 La105 2.470 1_565 S
O134 C123 1.258 . S
O135 La104 2.503 1_565 S
O135 C123 1.256 1_455 S
H136 C108 0.930 . S
H137 C109 0.930 . S
H138 C111 0.929 . S
H139 C112 0.929 . S
H140 C117 0.930 . S
H141 C118 0.930 . S
H142 C120 0.929 . S
H143 C121 0.929 . S
La144 C146 2.928 . S
La144 O164 2.521 . S
La144 O165 2.628 . S
La144 O166 2.554 1_545 S
La144 O167 2.757 . S
La144 O168 2.470 . S
La144 O173 2.482 . S
La144 O175 2.503 . S
La145 C155 2.928 1_554 S
La145 O167 2.482 . S
La145 O169 2.503 . S
La145 O170 2.521 1_554 S
La145 O171 2.628 1_544 S
La145 O172 2.554 1_554 S
La145 O173 2.757 . S
La145 O174 2.470 1_554 S
C146 La144 2.928 . S
C146 C147 1.503 . S
C146 O164 1.261 . S
C146 O165 1.243 . S
C147 C146 1.503 . S
C147 C148 1.394 . S
C147 C152 1.373 . S
C148 C147 1.394 . S
C148 C149 1.380 . S
C148 H176 0.930 . S
C149 C148 1.380 . S
C149 C150 1.376 . S
C149 H177 0.930 . S
C150 C149 1.376 . S
C150 C151 1.370 . S
C151 C150 1.370 . S
C151 C152 1.396 . S
C151 H178 0.929 . S
C152 C147 1.373 . S
C152 C151 1.396 . S
C152 H179 0.929 . S
C153 O166 1.240 . S
C153 O167 1.289 1_565 S
C154 O168 1.258 . S
C154 O169 1.256 . S
C155 La145 2.928 1_556 S
C155 C156 1.503 1_545 S
C155 O170 1.261 . S
C155 O171 1.243 1_545 S
C156 C155 1.503 1_565 S
C156 C157 1.394 1_565 S
C156 C161 1.373 . S
C157 C156 1.394 1_545 S
C157 C158 1.380 1_545 S
C157 H180 0.930 . S
C158 C157 1.380 1_565 S
C158 C159 1.376 . S
C158 H181 0.930 . S
C159 C158 1.376 . S
C159 C160 1.370 . S
C160 C159 1.370 . S
C160 C161 1.396 . S
C160 H182 0.929 . S
C161 C156 1.373 . S
C161 C160 1.396 . S
C161 H183 0.929 . S
C162 O172 1.240 1_554 S
C162 O173 1.289 . S
C163 O174 1.258 . S
C163 O175 1.256 1_556 S
O164 La144 2.521 . S
O164 C146 1.261 . S
O165 La144 2.628 . S
O165 C146 1.243 . S
O166 La144 2.554 1_565 S
O166 C153 1.240 . S
O167 La144 2.757 . S
O167 La145 2.482 . S
O167 C153 1.289 1_545 S
O168 La144 2.470 . S
O168 C154 1.258 . S
O169 La145 2.503 . S
O169 C154 1.256 . S
O170 La145 2.521 1_556 S
O170 C155 1.261 . S
O171 La145 2.628 1_566 S
O171 C155 1.243 1_565 S
O172 La145 2.554 1_556 S
O172 C162 1.240 1_556 S
O173 La144 2.482 . S
O173 La145 2.757 . S
O173 C162 1.289 . S
O174 La145 2.470 1_556 S
O174 C163 1.258 . S
O175 La144 2.503 . S
O175 C163 1.256 1_554 S
H176 C148 0.930 . S
H177 C149 0.930 . S
H178 C151 0.929 . S
H179 C152 0.929 . S
H180 C157 0.930 . S
H181 C158 0.930 . S
H182 C160 0.929 . S
H183 C161 0.929 . S
La184 C186 2.928 . S
La184 O204 2.521 . S
La184 O205 2.628 . S
La184 O206 2.554 . S
La184 O207 2.757 . S
La184 O208 2.470 . S
La184 O213 2.482 . S
La184 O215 2.503 . S
La185 C195 2.928 . S
La185 O207 2.482 . S
La185 O209 2.503 . S
La185 O210 2.521 . S
La185 O211 2.628 . S
La185 O212 2.554 . S
La185 O213 2.757 . S
La185 O214 2.470 . S
C186 La184 2.928 . S
C186 C187 1.503 . S
C186 O204 1.261 . S
C186 O205 1.243 . S
C187 C186 1.503 . S
C187 C188 1.394 . S
C187 C192 1.373 . S
C188 C187 1.394 . S
C188 C189 1.380 . S
C188 H216 0.930 . S
C189 C188 1.380 . S
C189 C190 1.376 . S
C189 H217 0.930 . S
C190 C189 1.376 . S
C190 C191 1.370 . S
C191 C190 1.370 . S
C191 C192 1.396 . S
C191 H218 0.929 . S
C192 C187 1.373 . S
C192 C191 1.396 . S
C192 H219 0.929 . S
C193 O206 1.240 . S
C193 O207 1.289 . S
C194 O208 1.258 . S
C194 O209 1.256 . S
C195 La185 2.928 . S
C195 C196 1.503 . S
C195 O210 1.261 . S
C195 O211 1.243 . S
C196 C195 1.503 . S
C196 C197 1.394 . S
C196 C201 1.373 . S
C197 C196 1.394 . S
C197 C198 1.380 . S
C197 H220 0.930 . S
C198 C197 1.380 . S
C198 C199 1.376 . S
C198 H221 0.930 . S
C199 C198 1.376 . S
C199 C200 1.370 . S
C200 C199 1.370 . S
C200 C201 1.396 . S
C200 H222 0.929 . S
C201 C196 1.373 . S
C201 C200 1.396 . S
C201 H223 0.929 . S
C202 O212 1.240 . S
C202 O213 1.289 . S
C203 O214 1.258 . S
C203 O215 1.256 . S
O204 La184 2.521 . S
O204 C186 1.261 . S
O205 La184 2.628 . S
O205 C186 1.243 . S
O206 La184 2.554 . S
O206 C193 1.240 . S
O207 La184 2.757 . S
O207 La185 2.482 . S
O207 C193 1.289 . S
O208 La184 2.470 . S
O208 C194 1.258 . S
O209 La185 2.503 . S
O209 C194 1.256 . S
O210 La185 2.521 . S
O210 C195 1.261 . S
O211 La185 2.628 . S
O211 C195 1.243 . S
O212 La185 2.554 . S
O212 C202 1.240 . S
O213 La184 2.482 . S
O213 La185 2.757 . S
O213 C202 1.289 . S
O214 La185 2.470 . S
O214 C203 1.258 . S
O215 La184 2.503 . S
O215 C203 1.256 . S
H216 C188 0.930 . S
H217 C189 0.930 . S
H218 C191 0.929 . S
H219 C192 0.929 . S
H220 C197 0.930 . S
H221 C198 0.930 . S
H222 C200 0.929 . S
H223 C201 0.929 . S
La224 C226 2.928 . S
La224 O244 2.521 . S
La224 O245 2.628 . S
La224 O246 2.554 1_455 S
La224 O247 2.757 1_455 S
La224 O248 2.470 . S
La224 O253 2.482 1_554 S
La224 O255 2.503 1_455 S
La225 C235 2.928 1_455 S
La225 O247 2.482 1_456 S
La225 O249 2.503 1_556 S
La225 O250 2.521 1_455 S
La225 O251 2.628 1_455 S
La225 O252 2.554 . S
La225 O253 2.757 . S
La225 O254 2.470 1_455 S
C226 La224 2.928 . S
C226 C227 1.503 . S
C226 O244 1.261 . S
C226 O245 1.243 . S
C227 C226 1.503 . S
C227 C228 1.394 . S
C227 C232 1.373 . S
C228 C227 1.394 . S
C228 C229 1.380 . S
C228 H256 0.930 . S
C229 C228 1.380 . S
C229 C230 1.376 . S
C229 H257 0.930 . S
C230 C229 1.376 . S
C230 C231 1.370 . S
C231 C230 1.370 . S
C231 C232 1.396 . S
C231 H258 0.929 . S
C232 C227 1.373 . S
C232 C231 1.396 . S
C232 H259 0.929 . S
C233 O246 1.240 . S
C233 O247 1.289 . S
C234 O248 1.258 . S
C234 O249 1.256 . S
C235 La225 2.928 1_655 S
C235 C236 1.503 . S
C235 O250 1.261 . S
C235 O251 1.243 . S
C236 C235 1.503 . S
C236 C237 1.394 . S
C236 C241 1.373 . S
C237 C236 1.394 . S
C237 C238 1.380 . S
C237 H260 0.930 . S
C238 C237 1.380 . S
C238 C239 1.376 . S
C238 H261 0.930 . S
C239 C238 1.376 . S
C239 C240 1.370 . S
C240 C239 1.370 . S
C240 C241 1.396 . S
C240 H262 0.929 . S
C241 C236 1.373 . S
C241 C240 1.396 . S
C241 H263 0.929 . S
C242 O252 1.240 . S
C242 O253 1.289 . S
C243 O254 1.258 . S
C243 O255 1.256 1_556 S
O244 La224 2.521 . S
O244 C226 1.261 . S
O245 La224 2.628 . S
O245 C226 1.243 . S
O246 La224 2.554 1_655 S
O246 C233 1.240 . S
O247 La224 2.757 1_655 S
O247 La225 2.482 1_654 S
O247 C233 1.289 . S
O248 La224 2.470 . S
O248 C234 1.258 . S
O249 La225 2.503 1_554 S
O249 C234 1.256 . S
O250 La225 2.521 1_655 S
O250 C235 1.261 . S
O251 La225 2.628 1_655 S
O251 C235 1.243 . S
O252 La225 2.554 . S
O252 C242 1.240 . S
O253 La224 2.482 1_556 S
O253 La225 2.757 . S
O253 C242 1.289 . S
O254 La225 2.470 1_655 S
O254 C243 1.258 . S
O255 La224 2.503 1_655 S
O255 C243 1.256 1_554 S
H256 C228 0.930 . S
H257 C229 0.930 . S
H258 C231 0.929 . S
H259 C232 0.929 . S
H260 C237 0.930 . S
H261 C238 0.930 . S
H262 C240 0.929 . S
H263 C241 0.929 . S
C264 C265 1.369 . S
C264 C266 1.419 . S
C264 H268 0.930 . S
C265 C264 1.369 . S
C265 C274 1.429 . S
C266 C264 1.419 . S
C266 C267 1.363 . S
C266 H269 0.929 . S
C267 C266 1.363 . S
C267 C273 1.428 . S
H268 C264 0.930 . S
H269 C266 0.929 . S
S270 N271 1.613 . S
S270 N272 1.610 . S
N271 S270 1.613 . S
N271 C274 1.350 . S
N272 S270 1.610 . S
N272 C273 1.351 . S
C273 C267 1.428 . S
C273 N272 1.351 . S
C273 C274 1.434 . S
C274 C265 1.429 . S
C274 N271 1.350 . S
C274 C273 1.434 . S
C275 C276 1.369 . S
C275 C277 1.419 . S
C275 H279 0.930 . S
C276 C275 1.369 . S
C276 C285 1.429 . S
C277 C275 1.419 . S
C277 C278 1.363 . S
C277 H280 0.929 . S
C278 C277 1.363 . S
C278 C284 1.428 . S
H279 C275 0.930 . S
H280 C277 0.929 . S
S281 N282 1.613 . S
S281 N283 1.610 . S
N282 S281 1.613 . S
N282 C285 1.350 . S
N283 S281 1.610 . S
N283 C284 1.351 . S
C284 C278 1.428 . S
C284 N283 1.351 . S
C284 C285 1.434 . S
C285 C276 1.429 . S
C285 N282 1.350 . S
C285 C284 1.434 . S
C286 C287 1.369 . S
C286 C288 1.419 . S
C286 H290 0.930 . S
C287 C286 1.369 . S
C287 C296 1.429 . S
C288 C286 1.419 . S
C288 C289 1.363 . S
C288 H291 0.929 . S
C289 C288 1.363 . S
C289 C295 1.428 . S
H290 C286 0.930 . S
H291 C288 0.929 . S
S292 N293 1.613 . S
S292 N294 1.610 . S
N293 S292 1.613 . S
N293 C296 1.350 . S
N294 S292 1.610 . S
N294 C295 1.351 . S
C295 C289 1.428 . S
C295 N294 1.351 . S
C295 C296 1.434 . S
C296 C287 1.429 . S
C296 N293 1.350 . S
C296 C295 1.434 . S
C297 C298 1.369 . S
C297 C299 1.419 . S
C297 H301 0.930 . S
C298 C297 1.369 . S
C298 C307 1.429 . S
C299 C297 1.419 . S
C299 C300 1.363 . S
C299 H302 0.929 . S
C300 C299 1.363 . S
C300 C306 1.428 . S
H301 C297 0.930 . S
H302 C299 0.929 . S
S303 N304 1.613 1_455 S
S303 N305 1.610 . S
N304 S303 1.613 1_655 S
N304 C307 1.350 . S
N305 S303 1.610 . S
N305 C306 1.351 1_455 S
C306 C300 1.428 . S
C306 N305 1.351 1_655 S
C306 C307 1.434 . S
C307 C298 1.429 . S
C307 N304 1.350 . S
C307 C306 1.434 . S
C308 C309 1.369 . S
C308 C310 1.419 . S
C308 H312 0.930 . S
C309 C308 1.369 . S
C309 C318 1.429 . S
C310 C308 1.419 . S
C310 C311 1.363 . S
C310 H313 0.929 . S
C311 C310 1.363 . S
C311 C317 1.428 . S
H312 C308 0.930 . S
H313 C310 0.929 . S
S314 N315 1.613 . S
S314 N316 1.610 . S
N315 S314 1.613 . S
N315 C318 1.350 . S
N316 S314 1.610 . S
N316 C317 1.351 . S
C317 C311 1.428 . S
C317 N316 1.351 . S
C317 C318 1.434 . S
C318 C309 1.429 . S
C318 N315 1.350 . S
C318 C317 1.434 . S
C319 C320 1.369 . S
C319 C321 1.419 . S
C319 H323 0.930 . S
C320 C319 1.369 . S
C320 C329 1.429 . S
C321 C319 1.419 . S
C321 C322 1.363 . S
C321 H324 0.929 1_565 S
C322 C321 1.363 . S
C322 C328 1.428 . S
H323 C319 0.930 . S
H324 C321 0.929 1_545 S
S325 N326 1.613 . S
S325 N327 1.610 . S
N326 S325 1.613 . S
N326 C329 1.350 . S
N327 S325 1.610 . S
N327 C328 1.351 . S
C328 C322 1.428 . S
C328 N327 1.351 . S
C328 C329 1.434 . S
C329 C320 1.429 . S
C329 N326 1.350 . S
C329 C328 1.434 . S
C330 C331 1.369 . S
C330 C332 1.419 . S
C330 H334 0.930 . S
C331 C330 1.369 . S
C331 C340 1.429 . S
C332 C330 1.419 . S
C332 C333 1.363 . S
C332 H335 0.929 . S
C333 C332 1.363 . S
C333 C339 1.428 . S
H334 C330 0.930 . S
H335 C332 0.929 . S
S336 N337 1.613 1_554 S
S336 N338 1.610 . S
N337 S336 1.613 1_556 S
N337 C340 1.350 . S
N338 S336 1.610 . S
N338 C339 1.351 1_554 S
C339 C333 1.428 . S
C339 N338 1.351 1_556 S
C339 C340 1.434 . S
C340 C331 1.429 . S
C340 N337 1.350 . S
C340 C339 1.434 . S
C341 C342 1.369 . S
C341 C343 1.419 . S
C341 H345 0.930 . S
C342 C341 1.369 . S
C342 C351 1.429 . S
C343 C341 1.419 . S
C343 C344 1.363 . S
C343 H346 0.929 . S
C344 C343 1.363 . S
C344 C350 1.428 . S
H345 C341 0.930 . S
H346 C343 0.929 . S
S347 N348 1.613 . S
S347 N349 1.610 . S
N348 S347 1.613 . S
N348 C351 1.350 . S
N349 S347 1.610 . S
N349 C350 1.351 . S
C350 C344 1.428 . S
C350 N349 1.351 . S
C350 C351 1.434 . S
C351 C342 1.429 . S
C351 N348 1.350 . S
C351 C350 1.434 . S
C352 C353 1.369 . S
C352 C354 1.419 . S
C352 H356 0.930 . S
C353 C352 1.369 . S
C353 C362 1.429 . S
C354 C352 1.419 . S
C354 C355 1.363 . S
C354 H357 0.929 . S
C355 C354 1.363 . S
C355 C361 1.428 . S
H356 C352 0.930 . S
H357 C354 0.929 . S
S358 N359 1.613 . S
S358 N360 1.610 . S
N359 S358 1.613 . S
N359 C362 1.350 . S
N360 S358 1.610 . S
N360 C361 1.351 . S
C361 C355 1.428 . S
C361 N360 1.351 . S
C361 C362 1.434 . S
C362 C353 1.429 . S
C362 N359 1.350 . S
C362 C361 1.434 . S
C363 C364 1.369 . S
C363 C365 1.419 . S
C363 H367 0.930 . S
C364 C363 1.369 . S
C364 C373 1.429 . S
C365 C363 1.419 . S
C365 C366 1.363 . S
C365 H368 0.929 . S
C366 C365 1.363 . S
C366 C372 1.428 . S
H367 C363 0.930 . S
H368 C365 0.929 . S
S369 N370 1.613 . S
S369 N371 1.610 . S
N370 S369 1.613 . S
N370 C373 1.350 . S
N371 S369 1.610 . S
N371 C372 1.351 . S
C372 C366 1.428 . S
C372 N371 1.351 . S
C372 C373 1.434 . S
C373 C364 1.429 . S
C373 N370 1.350 . S
C373 C372 1.434 . S
C374 C375 1.369 . S
C374 C376 1.419 . S
C374 H378 0.930 . S
C375 C374 1.369 . S
C375 C384 1.429 . S
C376 C374 1.419 . S
C376 C377 1.363 . S
C376 H379 0.929 . S
C377 C376 1.363 . S
C377 C383 1.428 . S
H378 C374 0.930 . S
H379 C376 0.929 . S
S380 N381 1.613 . S
S380 N382 1.610 . S
N381 S380 1.613 . S
N381 C384 1.350 . S
N382 S380 1.610 . S
N382 C383 1.351 . S
C383 C377 1.428 . S
C383 N382 1.351 . S
C383 C384 1.434 . S
C384 C375 1.429 . S
C384 N381 1.350 . S
C384 C383 1.434 . S
C385 C386 1.369 . S
C385 C387 1.419 . S
C385 H389 0.930 . S
C386 C385 1.369 . S
C386 C395 1.429 . S
C387 C385 1.419 . S
C387 C388 1.363 . S
C387 H390 0.929 . S
C388 C387 1.363 . S
C388 C394 1.428 . S
H389 C385 0.930 . S
H390 C387 0.929 . S
S391 N392 1.613 . S
S391 N393 1.610 . S
N392 S391 1.613 . S
N392 C395 1.350 . S
N393 S391 1.610 . S
N393 C394 1.351 . S
C394 C388 1.428 . S
C394 N393 1.351 . S
C394 C395 1.434 . S
C395 C386 1.429 . S
C395 N392 1.350 . S
C395 C394 1.434 . S
C396 C397 1.369 . S
C396 C398 1.419 . S
C396 H400 0.930 . S
C397 C396 1.369 . S
C397 C406 1.429 . S
C398 C396 1.419 . S
C398 C399 1.363 . S
C398 H401 0.929 . S
C399 C398 1.363 . S
C399 C405 1.428 . S
H400 C396 0.930 . S
H401 C398 0.929 . S
S402 N403 1.613 . S
S402 N404 1.610 . S
N403 S402 1.613 . S
N403 C406 1.350 . S
N404 S402 1.610 . S
N404 C405 1.351 . S
C405 C399 1.428 . S
C405 N404 1.351 . S
C405 C406 1.434 . S
C406 C397 1.429 . S
C406 N403 1.350 . S
C406 C405 1.434 . S
C407 C408 1.369 . S
C407 C409 1.419 . S
C407 H411 0.930 . S
C408 C407 1.369 . S
C408 C417 1.429 . S
C409 C407 1.419 . S
C409 C410 1.363 . S
C409 H412 0.929 . S
C410 C409 1.363 . S
C410 C416 1.428 . S
H411 C407 0.930 . S
H412 C409 0.929 . S
S413 N414 1.613 . S
S413 N415 1.610 . S
N414 S413 1.613 . S
N414 C417 1.350 . S
N415 S413 1.610 . S
N415 C416 1.351 . S
C416 C410 1.428 . S
C416 N415 1.351 . S
C416 C417 1.434 . S
C417 C408 1.429 . S
C417 N414 1.350 . S
C417 C416 1.434 . S
C418 C419 1.369 . S
C418 C420 1.419 . S
C418 H422 0.930 . S
C419 C418 1.369 . S
C419 C428 1.429 . S
C420 C418 1.419 . S
C420 C421 1.363 . S
C420 H423 0.929 . S
C421 C420 1.363 . S
C421 C427 1.428 . S
H422 C418 0.930 . S
H423 C420 0.929 . S
S424 N425 1.613 . S
S424 N426 1.610 . S
N425 S424 1.613 . S
N425 C428 1.350 . S
N426 S424 1.610 . S
N426 C427 1.351 . S
C427 C421 1.428 . S
C427 N426 1.351 . S
C427 C428 1.434 . S
C428 C419 1.429 . S
C428 N425 1.350 . S
C428 C427 1.434 . S
C429 C430 1.369 . S
C429 C431 1.419 . S
C429 H433 0.930 . S
C430 C429 1.369 . S
C430 C439 1.429 . S
C431 C429 1.419 . S
C431 C432 1.363 . S
C431 H434 0.929 . S
C432 C431 1.363 . S
C432 C438 1.428 . S
H433 C429 0.930 . S
H434 C431 0.929 . S
S435 N436 1.613 1_655 S
S435 N437 1.610 . S
N436 S435 1.613 1_455 S
N436 C439 1.350 . S
N437 S435 1.610 . S
N437 C438 1.351 1_655 S
C438 C432 1.428 . S
C438 N437 1.351 1_455 S
C438 C439 1.434 . S
C439 C430 1.429 . S
C439 N436 1.350 . S
C439 C438 1.434 . S
C440 C441 1.369 . S
C440 C442 1.419 . S
C440 H444 0.930 . S
C441 C440 1.369 . S
C441 C450 1.429 . S
C442 C440 1.419 . S
C442 C443 1.363 . S
C442 H445 0.929 . S
C443 C442 1.363 . S
C443 C449 1.428 . S
H444 C440 0.930 . S
H445 C442 0.929 . S
S446 N447 1.613 1_554 S
S446 N448 1.610 . S
N447 S446 1.613 1_556 S
N447 C450 1.350 . S
N448 S446 1.610 . S
N448 C449 1.351 1_554 S
C449 C443 1.428 . S
C449 N448 1.351 1_556 S
C449 C450 1.434 . S
C450 C441 1.429 . S
C450 N447 1.350 . S
C450 C449 1.434 . S
C451 C452 1.369 . S
C451 C453 1.419 . S
C451 H455 0.930 . S
C452 C451 1.369 . S
C452 C461 1.429 . S
C453 C451 1.419 . S
C453 C454 1.363 . S
C453 H456 0.929 . S
C454 C453 1.363 . S
C454 C460 1.428 . S
H455 C451 0.930 . S
H456 C453 0.929 . S
S457 N458 1.613 1_455 S
S457 N459 1.610 . S
N458 S457 1.613 1_655 S
N458 C461 1.350 . S
N459 S457 1.610 . S
N459 C460 1.351 1_455 S
C460 C454 1.428 . S
C460 N459 1.351 1_655 S
C460 C461 1.434 . S
C461 C452 1.429 . S
C461 N458 1.350 . S
C461 C460 1.434 . S
C462 C463 1.369 . S
C462 C464 1.419 . S
C462 H466 0.930 . S
C463 C462 1.369 . S
C463 C472 1.429 . S
C464 C462 1.419 . S
C464 C465 1.363 . S
C464 H467 0.929 . S
C465 C464 1.363 . S
C465 C471 1.428 . S
H466 C462 0.930 . S
H467 C464 0.929 . S
S468 N469 1.613 . S
S468 N470 1.610 . S
N469 S468 1.613 . S
N469 C472 1.350 . S
N470 S468 1.610 . S
N470 C471 1.351 . S
C471 C465 1.428 . S
C471 N470 1.351 . S
C471 C472 1.434 . S
C472 C463 1.429 . S
C472 N469 1.350 . S
C472 C471 1.434 . S
C473 C474 1.369 . S
C473 C475 1.419 . S
C473 H477 0.930 . S
C474 C473 1.369 . S
C474 C483 1.429 . S
C475 C473 1.419 . S
C475 C476 1.363 . S
C475 H478 0.929 . S
C476 C475 1.363 . S
C476 C482 1.428 . S
H477 C473 0.930 . S
H478 C475 0.929 . S
S479 N480 1.613 . S
S479 N481 1.610 . S
N480 S479 1.613 . S
N480 C483 1.350 . S
N481 S479 1.610 . S
N481 C482 1.351 . S
C482 C476 1.428 . S
C482 N481 1.351 . S
C482 C483 1.434 . S
C483 C474 1.429 . S
C483 N480 1.350 . S
C483 C482 1.434 . S
C484 C485 1.369 . S
C484 C486 1.419 . S
C484 H488 0.930 . S
C485 C484 1.369 . S
C485 C494 1.429 . S
C486 C484 1.419 . S
C486 C487 1.363 . S
C486 H489 0.929 . S
C487 C486 1.363 . S
C487 C493 1.428 . S
H488 C484 0.930 . S
H489 C486 0.929 . S
S490 N491 1.613 . S
S490 N492 1.610 . S
N491 S490 1.613 . S
N491 C494 1.350 . S
N492 S490 1.610 . S
N492 C493 1.351 . S
C493 C487 1.428 . S
C493 N492 1.351 . S
C493 C494 1.434 . S
C494 C485 1.429 . S
C494 N491 1.350 . S
C494 C493 1.434 . S
C495 C496 1.369 . S
C495 C497 1.419 . S
C495 H499 0.930 . S
C496 C495 1.369 . S
C496 C505 1.429 . S
C497 C495 1.419 . S
C497 C498 1.363 . S
C497 H500 0.929 . S
C498 C497 1.363 . S
C498 C504 1.428 . S
H499 C495 0.930 . S
H500 C497 0.929 . S
S501 N502 1.613 . S
S501 N503 1.610 . S
N502 S501 1.613 . S
N502 C505 1.350 . S
N503 S501 1.610 . S
N503 C504 1.351 . S
C504 C498 1.428 . S
C504 N503 1.351 . S
C504 C505 1.434 . S
C505 C496 1.429 . S
C505 N502 1.350 . S
C505 C504 1.434 . S
C506 C507 1.369 . S
C506 C508 1.419 . S
C506 H510 0.930 . S
C507 C506 1.369 . S
C507 C516 1.429 . S
C508 C506 1.419 . S
C508 C509 1.363 . S
C508 H511 0.929 . S
C509 C508 1.363 . S
C509 C515 1.428 . S
H510 C506 0.930 . S
H511 C508 0.929 . S
S512 N513 1.613 . S
S512 N514 1.610 . S
N513 S512 1.613 . S
N513 C516 1.350 . S
N514 S512 1.610 . S
N514 C515 1.351 . S
C515 C509 1.428 . S
C515 N514 1.351 . S
C515 C516 1.434 . S
C516 C507 1.429 . S
C516 N513 1.350 . S
C516 C515 1.434 . S
C517 C518 1.369 . S
C517 C519 1.419 . S
C517 H521 0.930 . S
C518 C517 1.369 . S
C518 C527 1.429 . S
C519 C517 1.419 . S
C519 C520 1.363 . S
C519 H522 0.929 . S
C520 C519 1.363 . S
C520 C526 1.428 . S
H521 C517 0.930 . S
H522 C519 0.929 . S
S523 N524 1.613 . S
S523 N525 1.610 . S
N524 S523 1.613 . S
N524 C527 1.350 . S
N525 S523 1.610 . S
N525 C526 1.351 . S
C526 C520 1.428 . S
C526 N525 1.351 . S
C526 C527 1.434 . S
C527 C518 1.429 . S
C527 N524 1.350 . S
C527 C526 1.434 . S
C265 N1 0.949 . S
C267 C110 0.992 . S
C276 N18 1.103 . S
C278 C159 1.163 . S
C289 C194 2.190 . S
C287 N28 2.264 . S
C298 N40 2.696 . S
C300 C233 2.706 . S
C311 C154 2.266 . S
C309 N5 2.166 . S
C322 C113 0.568 . S
C320 N14 0.517 . S
C333 C243 2.039 . S
C331 N31 2.065 . S
C344 C202 1.594 . S
C342 N41 1.611 . S
C353 N2 1.301 . S
C355 C230 1.356 . S
C366 C162 2.477 1_556 S
C364 N27 2.565 . S
C375 N44 2.452 . S
C377 C123 2.512 . S
C386 N15 0.939 . S
C388 C199 0.955 . S
C399 C119 1.494 . S
C397 N57 1.575 . S
C408 N70 0.981 . S
C410 C150 1.047 . S
C419 N79 2.403 . S
C421 C203 2.414 . S
C430 N93 2.528 . S
C432 C242 2.508 . S
C441 N54 1.851 . S
C443 C163 2.035 1_565 S
C454 C122 1.315 . S
C452 N66 1.409 . S
C465 C234 1.575 . S
C463 N80 1.665 . S
C476 C193 1.832 . S
C474 N96 1.844 . S
C485 N53 1.530 . S
C487 C239 1.547 . S
C498 C153 2.208 . S
C496 N83 2.230 . S
C509 C114 2.686 . S
C507 N92 2.678 . S
C518 N67 1.157 . S
C520 C190 1.211 . S
