# Generated by pormake.
# Topology nom, (4,4)-cn, num edge types: 1
# Building blocks:
#     Node 0, Type 0, BuildingBlock: NAWXER_clean_linker_0, # of connection points: 4
#     Node 1, Type 0, BuildingBlock: NAWXER_clean_linker_0, # of connection points: 4
#     Node 2, Type 0, BuildingBlock: NAWXER_clean_linker_0, # of connection points: 4
#     Node 3, Type 0, BuildingBlock: NAWXER_clean_linker_0, # of connection points: 4
#     Node 4, Type 0, BuildingBlock: NAWXER_clean_linker_0, # of connection points: 4
#     Node 5, Type 0, BuildingBlock: NAWXER_clean_linker_0, # of connection points: 4
#     Node 6, Type 1, BuildingBlock: UXUYUI_clean_sbu_0, # of connection points: 4
#     Node 7, Type 1, BuildingBlock: UXUYUI_clean_sbu_0, # of connection points: 4
#     Node 8, Type 1, BuildingBlock: UXUYUI_clean_sbu_0, # of connection points: 4
#     Node 9, Type 1, BuildingBlock: UXUYUI_clean_sbu_0, # of connection points: 4
#     Node 10, Type 1, BuildingBlock: UXUYUI_clean_sbu_0, # of connection points: 4
#     Node 11, Type 1, BuildingBlock: UXUYUI_clean_sbu_0, # of connection points: 4
#     Edge 12, Type (0, 1), BuildingBlock: EZIPEK_clean_linker_0, # of connection points: 2
#     Edge 13, Type (0, 1), BuildingBlock: EZIPEK_clean_linker_0, # of connection points: 2
#     Edge 14, Type (0, 1), BuildingBlock: EZIPEK_clean_linker_0, # of connection points: 2
#     Edge 15, Type (0, 1), BuildingBlock: EZIPEK_clean_linker_0, # of connection points: 2
#     Edge 16, Type (0, 1), BuildingBlock: EZIPEK_clean_linker_0, # of connection points: 2
#     Edge 17, Type (0, 1), BuildingBlock: EZIPEK_clean_linker_0, # of connection points: 2
#     Edge 18, Type (0, 1), BuildingBlock: EZIPEK_clean_linker_0, # of connection points: 2
#     Edge 19, Type (0, 1), BuildingBlock: EZIPEK_clean_linker_0, # of connection points: 2
#     Edge 20, Type (0, 1), BuildingBlock: EZIPEK_clean_linker_0, # of connection points: 2
#     Edge 21, Type (0, 1), BuildingBlock: EZIPEK_clean_linker_0, # of connection points: 2
#     Edge 22, Type (0, 1), BuildingBlock: EZIPEK_clean_linker_0, # of connection points: 2
#     Edge 23, Type (0, 1), BuildingBlock: EZIPEK_clean_linker_0, # of connection points: 2
#     Edge 24, Type (0, 1), BuildingBlock: EZIPEK_clean_linker_0, # of connection points: 2
#     Edge 25, Type (0, 1), BuildingBlock: EZIPEK_clean_linker_0, # of connection points: 2
#     Edge 26, Type (0, 1), BuildingBlock: EZIPEK_clean_linker_0, # of connection points: 2
#     Edge 27, Type (0, 1), BuildingBlock: EZIPEK_clean_linker_0, # of connection points: 2
#     Edge 28, Type (0, 1), BuildingBlock: EZIPEK_clean_linker_0, # of connection points: 2
#     Edge 29, Type (0, 1), BuildingBlock: EZIPEK_clean_linker_0, # of connection points: 2
#     Edge 30, Type (0, 1), BuildingBlock: EZIPEK_clean_linker_0, # of connection points: 2
#     Edge 31, Type (0, 1), BuildingBlock: EZIPEK_clean_linker_0, # of connection points: 2
#     Edge 32, Type (0, 1), BuildingBlock: EZIPEK_clean_linker_0, # of connection points: 2
#     Edge 33, Type (0, 1), BuildingBlock: EZIPEK_clean_linker_0, # of connection points: 2
#     Edge 34, Type (0, 1), BuildingBlock: EZIPEK_clean_linker_0, # of connection points: 2
#     Edge 35, Type (0, 1), BuildingBlock: EZIPEK_clean_linker_0, # of connection points: 2
# Relax obj value: 0.041
# Max RMSD: 0.144
# Mean RMSD: 0.123
data_MOF--net-nom--node1-UXUYUI_clean_sbu_0--node2-NAWXER_clean_linker_0--edge1-EZIPEK_clean_linker_0
_symmetry_space_group_name_H-M    P1
_symmetry_Int_Tables_number       1
_symmetry_cell_setting            triclinic
loop_
_symmetry_equiv_pos_as_xyz
'x, y, z'
_cell_length_a     50.649932
_cell_length_b     50.629694
_cell_length_c     56.056566
_cell_angle_alpha  89.97087
_cell_angle_beta   90.060877
_cell_angle_gamma 120.0114
loop_
_atom_site_label
_atom_site_type_symbol
_atom_site_fract_x
_atom_site_fract_y
_atom_site_fract_z
_atom_type_partial_charge
C0 C 0.91461 0.50305 0.34377 0.0
C1 C 0.90425 0.48244 0.36285 0.0
C2 C 0.94394 0.51412 0.33477 0.0
C3 C 0.96327 0.50433 0.34442 0.0
C4 C 0.92337 0.47262 0.37265 0.0
C5 C 0.95277 0.4836 0.36354 0.0
C6 C 0.99531 0.51814 0.33619 0.0
C7 C 0.9399 0.46666 0.27256 0.0
C8 C 0.94212 0.48467 0.25281 0.0
C9 C 0.95968 0.47959 0.29194 0.0
C10 C 0.98181 0.51079 0.29193 0.0
C11 C 0.96423 0.51573 0.25266 0.0
C12 C 0.98405 0.52866 0.27201 0.0
C13 C 0.00375 0.52449 0.31195 0.0
C14 C 0.14166 0.59818 0.31319 0.0
C15 C 0.14479 0.62252 0.2991 0.0
C16 C 0.1128 0.57605 0.32141 0.0
C17 C 0.08692 0.57828 0.31571 0.0
C18 C 0.11897 0.62455 0.2933 0.0
C19 C 0.0903 0.60257 0.30144 0.0
C20 C 0.05588 0.5553 0.32351 0.0
C21 C 0.10946 0.59577 0.39199 0.0
C22 C 0.10982 0.57346 0.40664 0.0
C23 C 0.08965 0.58716 0.37242 0.0
C24 C 0.07008 0.55613 0.36727 0.0
C25 C 0.09034 0.54253 0.4015 0.0
C26 C 0.07046 0.53394 0.38205 0.0
C27 C 0.04779 0.54631 0.3475 0.0
H28 H 0.90018 0.51107 0.3362 0.0
H29 H 0.95177 0.53105 0.32072 0.0
H30 H 0.91567 0.45681 0.3875 0.0
H31 H 0.96739 0.47612 0.37155 0.0
H32 H 0.92304 0.44259 0.27284 0.0
H33 H 0.95798 0.46507 0.30675 0.0
H34 H 0.96624 0.52988 0.23749 0.0
H35 H 1.00106 0.55267 0.27147 0.0
H36 H 0.16145 0.59628 0.31769 0.0
H37 H 0.11067 0.55715 0.33194 0.0
H38 H 0.12105 0.64318 0.2824 0.0
H39 H 0.07068 0.60468 0.2967 0.0
H40 H 0.12425 0.61976 0.39587 0.0
H41 H 0.08924 0.60468 0.3616 0.0
H42 H 0.09024 0.52507 0.41274 0.0
H43 H 0.05533 0.5099 0.37853 0.0
N44 N 0.01774 0.52848 0.35295 0.0
N45 N 0.03359 0.54354 0.30665 0.0
C46 C 0.43035 0.91437 0.51065 0.0
C47 C 0.43935 0.90258 0.5296 0.0
C48 C 0.44984 0.94385 0.50231 0.0
C49 C 0.47883 0.96184 0.51259 0.0
C50 C 0.46816 0.92046 0.54003 0.0
C51 C 0.48771 0.95 0.53166 0.0
C52 C 0.49877 0.99376 0.50475 0.0
C53 C 0.49326 0.93605 0.44243 0.0
C54 C 0.48109 0.9407 0.42141 0.0
C55 C 0.50052 0.95608 0.46167 0.0
C56 C 0.49504 0.9807 0.46043 0.0
C57 C 0.47611 0.96554 0.41992 0.0
C58 C 0.48305 0.98538 0.43926 0.0
C59 C 0.50339 0.00263 0.48051 0.0
C60 C 0.57982 0.14044 0.48455 0.0
C61 C 0.56224 0.14718 0.469 0.0
C62 C 0.5691 0.11039 0.49206 0.0
C63 C 0.54044 0.0869 0.48441 0.0
C64 C 0.53411 0.12366 0.46083 0.0
C65 C 0.52334 0.09375 0.46842 0.0
C66 C 0.5279 0.05496 0.49235 0.0
C67 C 0.54203 0.11072 0.55946 0.0
C68 C 0.56077 0.10741 0.57625 0.0
C69 C 0.53044 0.09089 0.53993 0.0
C70 C 0.53791 0.06785 0.53674 0.0
C71 C 0.5678 0.08412 0.57329 0.0
C72 C 0.55638 0.06446 0.55374 0.0
C73 C 0.52562 0.04611 0.51655 0.0
H74 H 0.40807 0.90088 0.50257 0.0
H75 H 0.44198 0.95277 0.48814 0.0
H76 H 0.47532 0.91164 0.55475 0.0
H77 H 0.50976 0.96361 0.54008 0.0
H78 H 0.49748 0.91713 0.4438 0.0
H79 H 0.51083 0.9525 0.47736 0.0
H80 H 0.46685 0.96953 0.40378 0.0
H81 H 0.47894 0.00435 0.4377 0.0
H82 H 0.60171 0.15841 0.49086 0.0
H83 H 0.5831 0.10556 0.50386 0.0
H84 H 0.52037 0.12855 0.44876 0.0
H85 H 0.50132 0.07598 0.4621 0.0
H86 H 0.53622 0.12847 0.5616 0.0
H87 H 0.51551 0.09343 0.52746 0.0
H88 H 0.58211 0.08117 0.58615 0.0
H89 H 0.56214 0.04663 0.55181 0.0
N90 N 0.5108 0.01582 0.52176 0.0
N91 N 0.51707 0.03287 0.47532 0.0
C92 C 0.58804 0.50505 0.60974 0.0
C93 C 0.57304 0.48806 0.58939 0.0
C94 C 0.57152 0.50861 0.62811 0.0
C95 C 0.53965 0.49507 0.62651 0.0
C96 C 0.54128 0.47489 0.58749 0.0
C97 C 0.52469 0.47859 0.60589 0.0
C98 C 0.52238 0.49932 0.64601 0.0
C99 C 0.55479 0.43858 0.67458 0.0
C100 C 0.57733 0.45114 0.69265 0.0
C101 C 0.5387 0.45289 0.66729 0.0
C102 C 0.54391 0.47997 0.67819 0.0
C103 C 0.57969 0.47656 0.70517 0.0
C104 C 0.5637 0.49101 0.69774 0.0
C105 C 0.52719 0.49552 0.6703 0.0
C106 C 0.44624 0.52972 0.7247 0.0
C107 C 0.46803 0.55113 0.74043 0.0
C108 C 0.45546 0.51883 0.70531 0.0
C109 C 0.48658 0.52931 0.70148 0.0
C110 C 0.49903 0.56151 0.73661 0.0
C111 C 0.50821 0.55053 0.71739 0.0
C112 C 0.49715 0.51768 0.68163 0.0
C113 C 0.45345 0.56781 0.64852 0.0
C114 C 0.42942 0.54937 0.63302 0.0
C115 C 0.47344 0.55817 0.65649 0.0
C116 C 0.46934 0.52976 0.6493 0.0
C117 C 0.4257 0.52134 0.62543 0.0
C118 C 0.4456 0.51167 0.63344 0.0
C119 C 0.49008 0.51891 0.65738 0.0
H120 H 0.61258 0.51558 0.61137 0.0
H121 H 0.58371 0.52217 0.64351 0.0
H122 H 0.52942 0.46187 0.57179 0.0
H123 H 0.5002 0.4683 0.60416 0.0
H124 H 0.54896 0.41721 0.66601 0.0
H125 H 0.52183 0.44246 0.65329 0.0
H126 H 0.59305 0.48567 0.72104 0.0
H127 H 0.56685 0.51095 0.70736 0.0
H128 H 0.42219 0.52136 0.72754 0.0
H129 H 0.43835 0.50203 0.69353 0.0
H130 H 0.51607 0.5779 0.74868 0.0
H131 H 0.53229 0.55873 0.71485 0.0
H132 H 0.45671 0.58963 0.65438 0.0
H133 H 0.49213 0.57295 0.66813 0.0
H134 H 0.40734 0.50695 0.61337 0.0
H135 H 0.44224 0.48985 0.62746 0.0
N136 N 0.50333 0.51006 0.64047 0.0
N137 N 0.51508 0.50563 0.68714 0.0
C138 C 0.90796 0.43454 0.82421 0.0
C139 C 0.89556 0.44578 0.80697 0.0
C140 C 0.93883 0.45061 0.83025 0.0
C141 C 0.95872 0.47806 0.81877 0.0
C142 C 0.91687 0.47114 0.79336 0.0
C143 C 0.94772 0.48741 0.79957 0.0
C144 C 0.9913 0.49599 0.82567 0.0
C145 C 0.93823 0.49667 0.88953 0.0
C146 C 0.94048 0.48074 0.90916 0.0
C147 C 0.95793 0.5036 0.87013 0.0
C148 C 0.98002 0.49451 0.87006 0.0
C149 C 0.96274 0.472 0.9093 0.0
C150 C 0.98253 0.47904 0.88995 0.0
C151 C 1.00117 0.50193 0.84969 0.0
C152 C 0.12771 0.56902 0.86982 0.0
C153 C 0.14475 0.5571 0.85952 0.0
C154 C 0.09794 0.55906 0.86209 0.0
C155 C 0.08507 0.53747 0.84367 0.0
C156 C 0.132 0.53556 0.84112 0.0
C157 C 0.10236 0.52581 0.83324 0.0
C158 C 0.05285 0.52542 0.83675 0.0
C159 C 0.08014 0.5307 0.7525 0.0
C160 C 0.10298 0.56152 0.75285 0.0
C161 C 0.06082 0.51782 0.77211 0.0
C162 C 0.06448 0.53543 0.7925 0.0
C163 C 0.10652 0.57927 0.77309 0.0
C164 C 0.08744 0.56631 0.7928 0.0
C165 C 0.0431 0.52202 0.81277 0.0
H166 H 0.89415 0.41291 0.83302 0.0
H167 H 0.94716 0.44133 0.8438 0.0
H168 H 0.91073 0.47865 0.77744 0.0
H169 H 0.96302 0.50744 0.7893 0.0
H170 H 0.92125 0.50372 0.88927 0.0
H171 H 0.95604 0.5162 0.85524 0.0
H172 H 0.96479 0.4598 0.92441 0.0
H173 H 0.99957 0.47207 0.89037 0.0
H174 H 0.13728 0.58561 0.8841 0.0
H175 H 0.0849 0.56811 0.87054 0.0
H176 H 0.14489 0.52607 0.8331 0.0
H177 H 0.09267 0.50855 0.81944 0.0
H178 H 0.07709 0.51676 0.73694 0.0
H179 H 0.04309 0.49407 0.77141 0.0
H180 H 0.12395 0.60314 0.77354 0.0
H181 H 0.09022 0.58055 0.80809 0.0
N182 N 0.01268 0.50688 0.80812 0.0
N183 N 0.03154 0.51579 0.85431 0.0
C184 C 0.50601 0.90933 0.98505 0.0
C185 C 0.48458 0.89735 0.96654 0.0
C186 C 0.51668 0.93908 0.99307 0.0
C187 C 0.50571 0.95719 0.98296 0.0
C188 C 0.47356 0.91528 0.95633 0.0
C189 C 0.48418 0.94507 0.96442 0.0
C190 C 0.5187 0.98953 0.99019 0.0
C191 C 0.47012 0.93634 0.05558 0.0
C192 C 0.48887 0.94067 0.07534 0.0
C193 C 0.48189 0.95505 0.03551 0.0
C194 C 0.51267 0.97825 0.03483 0.0
C195 C 0.51954 0.96386 0.07479 0.0
C196 C 0.5313 0.98261 0.05474 0.0
C197 C 0.52498 0.99931 0.01419 0.0
C198 C 0.58284 0.13603 0.00968 0.0
C199 C 0.60901 0.14396 0.02338 0.0
C200 C 0.56413 0.10584 1.00219 0.0
C201 C 0.57148 0.08335 0.00829 0.0
C202 C 0.61616 0.12145 0.0296 0.0
C203 C 0.59744 0.09136 0.02224 0.0
C204 C 0.55196 0.05114 1.00116 0.0
C205 C 0.58906 0.10556 0.93326 0.0
C206 C 0.56614 0.10175 0.91718 0.0
C207 C 0.58199 0.08601 0.95285 0.0
C208 C 0.55177 0.0627 0.95684 0.0
C209 C 0.53611 0.07814 0.92088 0.0
C210 C 0.52902 0.05873 0.9405 0.0
C211 C 0.54357 0.04148 0.97731 0.0
H212 H 0.51493 0.89584 0.99294 0.0
H213 H 0.53411 0.94814 0.00676 0.0
H214 H 0.4571 0.90633 0.94194 0.0
H215 H 0.47571 0.95871 0.9561 0.0
H216 H 0.44633 0.91868 0.05583 0.0
H217 H 0.46676 0.95176 0.02073 0.0
H218 H 0.53427 0.96754 0.08995 0.0
H219 H 0.55499 1.00053 0.05476 0.0
H220 H 0.57693 0.15315 0.0049 0.0
H221 H 0.54385 0.10003 0.99186 0.0
H222 H 0.63619 0.1272 0.04024 0.0
H223 H 0.60337 0.07432 0.02729 0.0
H224 H 0.6124 0.12354 0.93054 0.0
H225 H 0.60014 0.08898 0.96473 0.0
H226 H 0.5182 0.0748 0.90856 0.0
H227 H 0.50565 0.0407 0.94305 0.0
N228 N 0.52757 0.011 0.97276 0.0
N229 N 0.542 0.02969 0.01865 0.0
C230 C 0.50112 0.61107 0.17686 0.0
C231 C 0.48412 0.60348 0.19803 0.0
C232 C 0.51181 0.59234 0.16809 0.0
C233 C 0.50462 0.56492 0.17977 0.0
C234 C 0.47738 0.57649 0.21003 0.0
C235 C 0.48735 0.55729 0.20089 0.0
C236 C 0.5178 0.54596 0.17175 0.0
C237 C 0.46476 0.54739 0.10794 0.0
C238 C 0.4825 0.56213 0.08782 0.0
C239 C 0.47777 0.54093 0.12749 0.0
C240 C 0.50879 0.54938 0.12727 0.0
C241 C 0.51336 0.57035 0.08744 0.0
C242 C 0.52636 0.56384 0.10696 0.0
C243 C 0.52263 0.54171 0.14752 0.0
C244 C 0.58208 0.46435 0.15016 0.0
C245 C 0.60827 0.48286 0.13659 0.0
C246 C 0.56328 0.4756 0.15783 0.0
C247 C 0.57046 0.50544 0.15193 0.0
C248 C 0.61522 0.51254 0.13056 0.0
C249 C 0.59632 0.52363 0.138 0.0
C250 C 0.55104 0.51796 0.15958 0.0
C251 C 0.59256 0.50412 0.22677 0.0
C252 C 0.57061 0.48536 0.24357 0.0
C253 C 0.58412 0.51529 0.20709 0.0
C254 C 0.55352 0.5075 0.20382 0.0
C255 C 0.54015 0.47775 0.24043 0.0
C256 C 0.53171 0.48886 0.22078 0.0
C257 C 0.544 0.51979 0.18367 0.0
H258 H 0.50689 0.63201 0.16751 0.0
H259 H 0.52645 0.59992 0.15258 0.0
H260 H 0.46453 0.57041 0.22652 0.0
H261 H 0.48194 0.53665 0.21055 0.0
H262 H 0.44085 0.54076 0.10841 0.0
H263 H 0.46351 0.52904 0.14266 0.0
H264 H 0.52731 0.58167 0.07199 0.0
H265 H 0.55021 0.57029 0.10625 0.0
H266 H 0.57631 0.44132 0.15483 0.0
H267 H 0.54314 0.46103 0.16823 0.0
H268 H 0.63529 0.52707 0.12005 0.0
H269 H 0.60211 0.54664 0.13314 0.0
H270 H 0.61622 0.51037 0.22906 0.0
H271 H 0.60154 0.53035 0.19467 0.0
H272 H 0.52298 0.46341 0.25331 0.0
H273 H 0.50806 0.48282 0.21877 0.0
N274 N 0.52801 0.53407 0.18878 0.0
N275 N 0.53976 0.52863 0.14245 0.0
Li276 Li 0.64349 0.41899 0.44077 0.0
Li277 Li 0.63476 0.37262 0.42143 0.0
Li278 Li 0.68277 0.41932 0.41443 0.0
Li279 Li 0.63468 0.41165 0.39584 0.0
C280 C 0.68456 0.40707 0.46492 0.0
N281 N 0.72026 0.42696 0.50552 0.0
C282 C 0.67838 0.38725 0.48417 0.0
C283 C 0.70906 0.4369 0.46624 0.0
C284 C 0.69663 0.39777 0.50457 0.0
C285 C 0.72681 0.44655 0.48693 0.0
C286 C 0.57882 0.36653 0.4304 0.0
C287 C 0.52526 0.33175 0.4239 0.0
N288 N 0.52327 0.31976 0.44599 0.0
C289 C 0.57624 0.35396 0.45306 0.0
C290 C 0.55317 0.35542 0.41568 0.0
C291 C 0.54796 0.33027 0.4606 0.0
C292 C 0.63381 0.46149 0.4668 0.0
N293 N 0.63608 0.436 0.46862 0.0
C294 C 0.62684 0.43373 0.51054 0.0
C295 C 0.6317 0.42151 0.48983 0.0
C296 C 0.62777 0.46215 0.51009 0.0
C297 C 0.62892 0.47448 0.48714 0.0
H298 H 0.63542 0.47158 0.44946 0.0
H299 H 0.63152 0.40013 0.4907 0.0
C300 C 0.63906 0.32347 0.43769 0.0
N301 N 0.61929 0.33009 0.42641 0.0
C302 C 0.63017 0.29348 0.44382 0.0
C303 C 0.58094 0.27734 0.42591 0.0
C304 C 0.59089 0.30772 0.41994 0.0
C305 C 0.60068 0.27021 0.43821 0.0
H306 H 0.6617 0.3416 0.44218 0.0
H307 H 0.57581 0.31341 0.41049 0.0
C308 C 0.68567 0.47793 0.41103 0.0
N309 N 0.72497 0.53965 0.40453 0.0
C310 C 0.69018 0.49073 0.38825 0.0
C311 C 0.70076 0.49663 0.43055 0.0
C312 C 0.71025 0.52195 0.38531 0.0
C313 C 0.72065 0.52775 0.42688 0.0
C314 C 0.64403 0.36524 0.37447 0.0
C315 C 0.66219 0.35452 0.36455 0.0
C316 C 0.61332 0.35178 0.36804 0.0
C317 C 0.64929 0.33049 0.34819 0.0
C318 C 0.60126 0.32778 0.35165 0.0
N319 N 0.61936 0.31774 0.34213 0.0
C320 C 0.73646 0.41677 0.41707 0.0
C321 C 0.74157 0.45839 0.39403 0.0
C322 C 0.76619 0.42404 0.41143 0.0
N323 N 0.72479 0.43388 0.40832 0.0
C324 C 0.77145 0.46655 0.38801 0.0
C325 C 0.78379 0.44903 0.39658 0.0
H326 H 0.72235 0.39699 0.42796 0.0
H327 H 0.73157 0.47107 0.3867 0.0
C328 C 0.59647 0.42757 0.36954 0.0
N329 N 0.61987 0.42174 0.36814 0.0
C330 C 0.58729 0.43701 0.34926 0.0
C331 C 0.62626 0.43391 0.32657 0.0
C332 C 0.63464 0.42451 0.34722 0.0
C333 C 0.6025 0.44048 0.32757 0.0
H334 H 0.58534 0.42541 0.38647 0.0
H335 H 0.65342 0.42007 0.34674 0.0
O336 O 0.66666 0.39714 0.44494 0.0
O337 O 0.60633 0.38952 0.42258 0.0
O338 O 0.66577 0.44746 0.41426 0.0
O339 O 0.65622 0.38858 0.39063 0.0
H340 H 0.65945 0.36408 0.48345 0.0
H341 H 0.71445 0.45236 0.45141 0.0
H342 H 0.69198 0.38274 0.51965 0.0
H343 H 0.74583 0.4696 0.48819 0.0
H344 H 0.50521 0.32287 0.4127 0.0
H345 H 0.59599 0.36197 0.46448 0.0
H346 H 0.55483 0.36491 0.39806 0.0
H347 H 0.54567 0.32016 0.47803 0.0
H348 H 0.6216 0.4201 0.5265 0.0
H349 H 0.62522 0.49339 0.4842 0.0
H350 H 0.6459 0.28852 0.4532 0.0
H351 H 0.55808 0.25968 0.42122 0.0
H352 H 0.67851 0.4767 0.37296 0.0
H353 H 0.697 0.48733 0.4484 0.0
H354 H 0.7141 0.53211 0.36776 0.0
H355 H 0.73254 0.54245 0.44183 0.0
H356 H 0.686 0.36468 0.36944 0.0
H357 H 0.59888 0.35961 0.37575 0.0
H358 H 0.66307 0.32197 0.34031 0.0
H359 H 0.57752 0.31711 0.34653 0.0
H360 H 0.77515 0.41001 0.41813 0.0
H361 H 0.78453 0.48581 0.37631 0.0
H362 H 0.5689 0.44202 0.35052 0.0
H363 H 0.63848 0.43653 0.31009 0.0
Li364 Li 0.24404 0.63781 0.6028 0.0
Li365 Li 0.28193 0.62935 0.58639 0.0
Li366 Li 0.28465 0.68 0.58036 0.0
Li367 Li 0.24536 0.63191 0.56017 0.0
C368 C 0.28962 0.67096 0.63324 0.0
N369 N 0.29211 0.69073 0.67959 0.0
C370 C 0.28257 0.65068 0.65232 0.0
C371 C 0.29814 0.70136 0.6378 0.0
C372 C 0.28387 0.6611 0.6756 0.0
C373 C 0.29925 0.7109 0.66134 0.0
C374 C 0.23803 0.57497 0.58907 0.0
C375 C 0.23874 0.53046 0.57461 0.0
N376 N 0.2426 0.52357 0.59733 0.0
C377 C 0.24182 0.56734 0.6123 0.0
C378 C 0.2364 0.55635 0.57006 0.0
C379 C 0.24417 0.54132 0.6161 0.0
C380 C 0.19478 0.59791 0.63177 0.0
N381 N 0.21623 0.62785 0.6292 0.0
C382 C 0.19961 0.6404 0.66522 0.0
C383 C 0.21825 0.64919 0.64502 0.0
C384 C 0.17835 0.60949 0.66872 0.0
C385 C 0.17551 0.58816 0.65155 0.0
H386 H 0.19294 0.58145 0.61867 0.0
H387 H 0.23481 0.67296 0.64234 0.0
C388 C 0.3129 0.59597 0.57561 0.0
N389 N 0.30813 0.61284 0.59213 0.0
C390 C 0.33218 0.58437 0.58081 0.0
C391 C 0.34172 0.60828 0.61962 0.0
C392 C 0.3223 0.61932 0.6137 0.0
C393 C 0.34674 0.59059 0.60307 0.0
H394 H 0.30168 0.5914 0.55848 0.0
H395 H 0.31869 0.63322 0.62634 0.0
C396 C 0.21688 0.66647 0.58537 0.0
N397 N 0.16869 0.67115 0.60342 0.0
C398 C 0.18699 0.64268 0.58209 0.0
C399 C 0.22232 0.69272 0.59767 0.0
C400 C 0.16293 0.64546 0.59141 0.0
C401 C 0.19762 0.69464 0.60668 0.0
C402 C 0.29505 0.65411 0.53282 0.0
C403 C 0.3078 0.68163 0.52025 0.0
C404 C 0.28607 0.62689 0.52054 0.0
C405 C 0.31107 0.68139 0.49552 0.0
C406 C 0.28962 0.62759 0.4958 0.0
N407 N 0.30195 0.6546 0.4839 0.0
C408 C 0.34159 0.73287 0.57987 0.0
C409 C 0.30135 0.73968 0.56528 0.0
C410 C 0.36305 0.76281 0.57383 0.0
N411 N 0.31151 0.72197 0.57535 0.0
C412 C 0.32205 0.7698 0.55897 0.0
C413 C 0.35326 0.78136 0.563 0.0
H414 H 0.3489 0.71797 0.58755 0.0
H415 H 0.27735 0.73009 0.56145 0.0
C416 C 0.19918 0.59001 0.52817 0.0
N417 N 0.22155 0.61941 0.53164 0.0
C418 C 0.18121 0.58192 0.50756 0.0
C419 C 0.20938 0.63454 0.49471 0.0
C420 C 0.22665 0.64164 0.51558 0.0
C421 C 0.18635 0.6044 0.49064 0.0
H422 H 0.19486 0.573 0.54159 0.0
H423 H 0.24395 0.66498 0.51916 0.0
O424 O 0.28857 0.66127 0.61027 0.0
O425 O 0.23659 0.60089 0.58497 0.0
O426 O 0.24074 0.66383 0.57693 0.0
O427 O 0.29113 0.65382 0.55698 0.0
H428 H 0.27578 0.62706 0.6492 0.0
H429 H 0.30358 0.71739 0.62334 0.0
H430 H 0.27822 0.64558 0.69049 0.0
H431 H 0.30568 0.73432 0.6651 0.0
H432 H 0.2377 0.51596 0.56005 0.0
H433 H 0.24328 0.58154 0.62721 0.0
H434 H 0.23385 0.56204 0.55194 0.0
H435 H 0.24735 0.53529 0.63397 0.0
H436 H 0.20207 0.65738 0.67814 0.0
H437 H 0.15906 0.56416 0.65375 0.0
H438 H 0.33576 0.57078 0.56768 0.0
H439 H 0.35281 0.61354 0.63689 0.0
H440 H 0.18249 0.62218 0.57266 0.0
H441 H 0.24537 0.71122 0.6005 0.0
H442 H 0.13967 0.62717 0.58914 0.0
H443 H 0.20146 0.71473 0.61637 0.0
H444 H 0.31495 0.70293 0.52943 0.0
H445 H 0.27588 0.60538 0.52994 0.0
H446 H 0.3208 0.7025 0.48555 0.0
H447 H 0.28247 0.60666 0.48604 0.0
H448 H 0.38706 0.7712 0.57701 0.0
H449 H 0.31398 0.78366 0.55048 0.0
H450 H 0.16327 0.55852 0.50496 0.0
H451 H 0.21357 0.6524 0.48206 0.0
Li452 Li 0.67652 0.28595 0.75295 0.0
Li453 Li 0.62921 0.24695 0.76951 0.0
Li454 Li 0.63813 0.24793 0.72693 0.0
Li455 Li 0.63005 0.28656 0.74472 0.0
C456 C 0.67564 0.233 0.76921 0.0
N457 N 0.7043 0.21564 0.80252 0.0
C458 C 0.68815 0.25038 0.78983 0.0
C459 C 0.67767 0.20678 0.76554 0.0
C460 C 0.70257 0.24124 0.80645 0.0
C461 C 0.69225 0.19838 0.7826 0.0
C462 C 0.63482 0.29786 0.79298 0.0
C463 C 0.58796 0.28908 0.81114 0.0
N464 N 0.60431 0.31113 0.82752 0.0
C465 C 0.65116 0.32044 0.80997 0.0
C466 C 0.60295 0.28202 0.79354 0.0
C467 C 0.63532 0.32681 0.8273 0.0
C468 C 0.7225 0.34131 0.767 0.0
N469 N 0.71818 0.31397 0.75937 0.0
C470 C 0.77098 0.3305 0.76519 0.0
C471 C 0.74168 0.30823 0.75796 0.0
C472 C 0.77564 0.35855 0.77383 0.0
C473 C 0.75117 0.364 0.77444 0.0
H474 H 0.70338 0.34521 0.76775 0.0
H475 H 0.73755 0.28625 0.75177 0.0
C476 C 0.59148 0.19125 0.79368 0.0
N477 N 0.61276 0.22114 0.79679 0.0
C478 C 0.58195 0.17117 0.81308 0.0
C479 C 0.61607 0.2131 0.83847 0.0
C480 C 0.62484 0.23235 0.81868 0.0
C481 C 0.5947 0.1821 0.83567 0.0
H482 H 0.58262 0.18288 0.77602 0.0
H483 H 0.64213 0.25603 0.82066 0.0
C484 C 0.6845 0.3 0.70514 0.0
N485 N 0.72934 0.31516 0.67119 0.0
C486 C 0.69211 0.3243 0.68954 0.0
C487 C 0.69972 0.28341 0.70349 0.0
C488 C 0.71483 0.33161 0.67249 0.0
C489 C 0.72231 0.29144 0.6862 0.0
C490 C 0.57804 0.23486 0.72676 0.0
C491 C 0.58386 0.25315 0.70655 0.0
C492 C 0.54938 0.20894 0.7297 0.0
C493 C 0.56084 0.2452 0.68962 0.0
C494 C 0.52695 0.20173 0.71236 0.0
N495 N 0.5331 0.21987 0.69285 0.0
C496 C 0.62019 0.19331 0.70127 0.0
C497 C 0.62931 0.23566 0.67728 0.0
C498 C 0.61016 0.17411 0.68135 0.0
N499 N 0.62925 0.2234 0.69891 0.0
C500 C 0.61937 0.21731 0.65696 0.0
C501 C 0.60935 0.18613 0.65898 0.0
H502 H 0.61997 0.18411 0.71874 0.0
H503 H 0.63609 0.25951 0.67588 0.0
C504 C 0.64147 0.34352 0.734 0.0
N505 N 0.61743 0.31557 0.73916 0.0
C506 C 0.63672 0.36726 0.72723 0.0
C507 C 0.58242 0.33339 0.73199 0.0
C508 C 0.58825 0.31014 0.73875 0.0
C509 C 0.60694 0.36213 0.72584 0.0
H510 H 0.66438 0.34711 0.7346 0.0
H511 H 0.56957 0.28769 0.74304 0.0
O512 O 0.66086 0.24105 0.75283 0.0
O513 O 0.65017 0.29146 0.77597 0.0
O514 O 0.6623 0.29271 0.72191 0.0
O515 O 0.60034 0.24172 0.7434 0.0
H516 H 0.68661 0.2706 0.7931 0.0
H517 H 0.66797 0.19301 0.74971 0.0
H518 H 0.71231 0.25447 0.8225 0.0
H519 H 0.69396 0.17811 0.78 0.0
H520 H 0.56331 0.277 0.81179 0.0
H521 H 0.67584 0.33285 0.80981 0.0
H522 H 0.58985 0.26445 0.7806 0.0
H523 H 0.64768 0.34421 0.84058 0.0
H524 H 0.78958 0.32576 0.76455 0.0
H525 H 0.75415 0.38546 0.78101 0.0
H526 H 0.56546 0.14727 0.81041 0.0
H527 H 0.6264 0.22212 0.85569 0.0
H528 H 0.68051 0.33734 0.69059 0.0
H529 H 0.69417 0.26451 0.71536 0.0
H530 H 0.72093 0.35035 0.66029 0.0
H531 H 0.73426 0.2788 0.68472 0.0
H532 H 0.60594 0.27321 0.70387 0.0
H533 H 0.54457 0.19446 0.7452 0.0
H534 H 0.56506 0.25915 0.67389 0.0
H535 H 0.50467 0.1817 0.7144 0.0
H536 H 0.60244 0.15005 0.68342 0.0
H537 H 0.61884 0.22716 0.63993 0.0
H538 H 0.65603 0.38923 0.72259 0.0
H539 H 0.55918 0.3289 0.73103 0.0
Li540 Li 0.40772 0.62652 0.93677 0.0
Li541 Li 0.41736 0.67362 0.91803 0.0
Li542 Li 0.36742 0.62657 0.91209 0.0
Li543 Li 0.41319 0.63267 0.89298 0.0
C544 C 0.3928 0.6653 0.9633 0.0
N545 N 0.40814 0.69935 0.00477 0.0
C546 C 0.42153 0.67609 0.97361 0.0
C547 C 0.37188 0.67187 0.97408 0.0
C548 C 0.42884 0.69322 0.99459 0.0
C549 C 0.38006 0.68912 0.99504 0.0
C550 C 0.47399 0.67756 0.91761 0.0
C551 C 0.51651 0.71916 0.89744 0.0
N552 N 0.53426 0.72364 0.91695 0.0
C553 C 0.49272 0.68243 0.9374 0.0
C554 C 0.48602 0.69593 0.89741 0.0
C555 C 0.5231 0.70589 0.93674 0.0
C556 C 0.44043 0.60472 0.96262 0.0
N557 N 0.41625 0.60936 0.96399 0.0
C558 C 0.40856 0.59443 0.00502 0.0
C559 C 0.39992 0.60386 0.98448 0.0
C560 C 0.43408 0.59056 0.00426 0.0
C561 C 0.44984 0.59528 0.98271 0.0
H562 H 0.45292 0.60921 0.94607 0.0
H563 H 0.38072 0.60764 0.98508 0.0
C564 C 0.41664 0.72807 0.91492 0.0
N565 N 0.43407 0.71641 0.92294 0.0
C566 C 0.42447 0.75803 0.92038 0.0
C567 C 0.4684 0.76368 0.94191 0.0
C568 C 0.45963 0.73357 0.93615 0.0
C569 C 0.45043 0.77592 0.93424 0.0
H570 H 0.39605 0.71371 0.90493 0.0
H571 H 0.47255 0.72366 0.94313 0.0
C572 C 0.3616 0.5699 0.92189 0.0
N573 N 0.32049 0.5155 0.94333 0.0
C574 C 0.35875 0.54248 0.91386 0.0
C575 C 0.34351 0.56969 0.9408 0.0
C576 C 0.33783 0.5152 0.92494 0.0
C577 C 0.32288 0.54194 0.95141 0.0
C578 C 0.39629 0.66627 0.86528 0.0
C579 C 0.37388 0.64791 0.84876 0.0
C580 C 0.42136 0.69369 0.8578 0.0
C581 C 0.37741 0.65684 0.82485 0.0
C582 C 0.42406 0.70186 0.83374 0.0
N583 N 0.40225 0.68338 0.81789 0.0
C584 C 0.31103 0.62506 0.91635 0.0
C585 C 0.31109 0.58794 0.89053 0.0
C586 C 0.28095 0.61587 0.91007 0.0
N587 N 0.3254 0.61116 0.90642 0.0
C588 C 0.28113 0.5782 0.88359 0.0
C589 C 0.266 0.5925 0.89325 0.0
H590 H 0.32324 0.64384 0.92857 0.0
H591 H 0.32333 0.57768 0.88269 0.0
C592 C 0.45454 0.62882 0.85977 0.0
N593 N 0.42506 0.62037 0.8647 0.0
C594 C 0.46167 0.61807 0.83918 0.0
C595 C 0.408 0.58995 0.82931 0.0
C596 C 0.4019 0.60103 0.85013 0.0
C597 C 0.43817 0.59844 0.82378 0.0
H598 H 0.47246 0.64339 0.87197 0.0
H599 H 0.3786 0.59391 0.85489 0.0
O600 O 0.38541 0.64908 0.94244 0.0
O601 O 0.44412 0.65483 0.91801 0.0
O602 O 0.38205 0.59673 0.9112 0.0
O603 O 0.39329 0.65782 0.88875 0.0
H604 H 0.4381 0.67149 0.96542 0.0
H605 H 0.34958 0.66381 0.96632 0.0
H606 H 0.45102 0.70173 1.00271 0.0
H607 H 0.3641 0.69441 1.00354 0.0
H608 H 0.52608 0.73358 0.88193 0.0
H609 H 0.48387 0.66844 0.9532 0.0
H610 H 0.47203 0.69215 0.88183 0.0
H611 H 0.5378 0.71002 0.95197 0.0
H612 H 0.39597 0.59088 0.02145 0.0
H613 H 0.46961 0.59242 0.98165 0.0
H614 H 0.41009 0.76692 0.91438 0.0
H615 H 0.48839 0.77696 0.95288 0.0
H616 H 0.37258 0.5423 0.89921 0.0
H617 H 0.34532 0.59065 0.94723 0.0
H618 H 0.33539 0.49379 0.91892 0.0
H619 H 0.30875 0.54144 0.96607 0.0
H620 H 0.35406 0.62687 0.85431 0.0
H621 H 0.43842 0.70867 0.87046 0.0
H622 H 0.36039 0.64269 0.81184 0.0
H623 H 0.44343 0.72295 0.82769 0.0
H624 H 0.26976 0.62736 0.91768 0.0
H625 H 0.27008 0.56017 0.87051 0.0
H626 H 0.48515 0.62468 0.83543 0.0
H627 H 0.38939 0.57452 0.81786 0.0
Li628 Li 0.76233 0.41361 0.08452 0.0
Li629 Li 0.80175 0.40725 0.10254 0.0
Li630 Li 0.80042 0.41325 0.05962 0.0
Li631 Li 0.76196 0.36654 0.07761 0.0
C632 C 0.81322 0.47038 0.07431 0.0
N633 N 0.82667 0.52476 0.0527 0.0
C634 C 0.83856 0.49766 0.08168 0.0
C635 C 0.79469 0.47075 0.05596 0.0
C636 C 0.84498 0.52493 0.07053 0.0
C637 C 0.80188 0.49847 0.04526 0.0
C638 C 0.74261 0.38648 0.12715 0.0
C639 C 0.69741 0.36918 0.15111 0.0
N640 N 0.71208 0.39499 0.16448 0.0
C641 C 0.75723 0.41289 0.14107 0.0
C642 C 0.71246 0.36445 0.13216 0.0
C643 C 0.74141 0.41676 0.15988 0.0
C644 C 0.70523 0.40948 0.08603 0.0
N645 N 0.73529 0.42867 0.09067 0.0
C646 C 0.7243 0.46503 0.10831 0.0
C647 C 0.74515 0.45604 0.10155 0.0
C648 C 0.6931 0.44538 0.10416 0.0
C649 C 0.68356 0.41739 0.09276 0.0
H650 H 0.69808 0.3876 0.07778 0.0
H651 H 0.76907 0.47048 0.10564 0.0
C652 C 0.85582 0.44185 0.12827 0.0
N653 N 0.82747 0.41693 0.12971 0.0
C654 C 0.87482 0.45174 0.14827 0.0
C655 C 0.83531 0.40973 0.17071 0.0
C656 C 0.81708 0.40061 0.15025 0.0
C657 C 0.86436 0.43578 0.16981 0.0
H658 H 0.86338 0.45439 0.11169 0.0
H659 H 0.79437 0.38096 0.15091 0.0
C660 C 0.74879 0.37723 0.03238 0.0
N661 N 0.73405 0.34671 0.98925 0.0
C662 C 0.76544 0.36389 0.02406 0.0
C663 C 0.72463 0.375 0.01878 0.0
C664 C 0.75765 0.34859 1.00221 0.0
C665 C 0.71754 0.35949 0.99702 0.0
C666 C 0.81453 0.36286 0.08727 0.0
C667 C 0.83905 0.36039 0.07856 0.0
C668 C 0.79774 0.34496 0.10665 0.0
C669 C 0.8464 0.34005 0.08942 0.0
C670 C 0.80582 0.3249 0.11703 0.0
N671 N 0.82978 0.32289 0.10828 0.0
C672 C 0.85344 0.43174 0.03288 0.0
C673 C 0.81568 0.43747 0.01224 0.0
C674 C 0.87225 0.44132 0.0128 0.0
N675 N 0.82564 0.42967 0.03214 0.0
C676 C 0.83377 0.44718 0.99175 0.0
C677 C 0.86223 0.44881 0.99192 0.0
H678 H 0.86075 0.42544 0.04896 0.0
H679 H 0.79345 0.43557 0.0121 0.0
C680 C 0.70486 0.31484 0.07309 0.0
N681 N 0.7351 0.32429 0.07174 0.0
C682 C 0.6832 0.28538 0.06602 0.0
C683 C 0.72424 0.27581 0.05645 0.0
C684 C 0.74513 0.30552 0.06359 0.0
C685 C 0.69295 0.26569 0.05743 0.0
H686 H 0.69763 0.33062 0.07885 0.0
H687 H 0.76926 0.31389 0.06175 0.0
O688 O 0.8069 0.44355 0.08503 0.0
O689 O 0.7576 0.38244 0.10847 0.0
O690 O 0.75552 0.39193 0.05392 0.0
O691 O 0.80733 0.3829 0.07683 0.0
H692 H 0.85313 0.49776 0.09586 0.0
H693 H 0.77493 0.44993 0.05003 0.0
H694 H 0.86454 0.54622 0.07605 0.0
H695 H 0.78774 0.49908 0.03104 0.0
H696 H 0.67406 0.35233 0.1552 0.0
H697 H 0.78041 0.4304 0.1372 0.0
H698 H 0.70081 0.3439 0.12154 0.0
H699 H 0.75239 0.43712 0.17075 0.0
H700 H 0.73227 0.48669 0.11724 0.0
H701 H 0.65959 0.4017 0.08948 0.0
H702 H 0.89716 0.47194 0.14712 0.0
H703 H 0.8267 0.39702 0.18715 0.0
H704 H 0.78415 0.36524 0.03433 0.0
H705 H 0.71143 0.38509 0.02504 0.0
H706 H 0.77034 0.33816 0.99557 0.0
H707 H 0.69887 0.35757 0.98631 0.0
H708 H 0.85226 0.37403 0.06355 0.0
H709 H 0.77856 0.34631 0.11358 0.0
H710 H 0.86533 0.33791 0.08286 0.0
H711 H 0.79301 0.31092 0.13202 0.0
H712 H 0.89417 0.44244 0.01341 0.0
H713 H 0.82552 0.45287 0.97583 0.0
H714 H 0.65917 0.27823 0.06673 0.0
H715 H 0.73236 0.26114 0.04963 0.0
Li716 Li 0.41926 0.79974 0.27165 0.0
Li717 Li 0.37065 0.76399 0.25058 0.0
Li718 Li 0.41576 0.76053 0.2441 0.0
Li719 Li 0.41276 0.80137 0.22703 0.0
C720 C 0.38745 0.72734 0.28283 0.0
N721 N 0.37616 0.67061 0.29772 0.0
C722 C 0.36608 0.70109 0.27079 0.0
C723 C 0.40306 0.72476 0.30244 0.0
C724 C 0.36071 0.67261 0.27858 0.0
C725 C 0.39701 0.69586 0.3097 0.0
C726 C 0.36788 0.81415 0.25943 0.0
C727 C 0.32036 0.81208 0.25011 0.0
N728 N 0.31951 0.82175 0.27258 0.0
C729 C 0.3666 0.82422 0.28239 0.0
C730 C 0.34467 0.8082 0.2431 0.0
C731 C 0.34195 0.82789 0.2887 0.0
C732 C 0.45283 0.85428 0.29704 0.0
N733 N 0.43499 0.82359 0.29965 0.0
C734 C 0.43454 0.82868 0.342 0.0
C735 C 0.42589 0.81051 0.32152 0.0
C736 C 0.45222 0.86048 0.33975 0.0
C737 C 0.46174 0.87331 0.31701 0.0
H738 H 0.45924 0.86399 0.27935 0.0
H739 H 0.41106 0.78613 0.32299 0.0
C740 C 0.30849 0.71999 0.24079 0.0
N741 N 0.32789 0.74105 0.25658 0.0
C742 C 0.27727 0.70333 0.24559 0.0
C743 C 0.28686 0.72831 0.28363 0.0
C744 C 0.31787 0.74439 0.27816 0.0
C745 C 0.2652 0.7091 0.26647 0.0
H746 H 0.31734 0.71544 0.22473 0.0
H747 H 0.33411 0.75929 0.29134 0.0
C748 C 0.4736 0.80195 0.24711 0.0
N749 N 0.52482 0.796 0.25055 0.0
C750 C 0.48478 0.79448 0.22696 0.0
C751 C 0.48861 0.80661 0.26897 0.0
C752 C 0.51065 0.79149 0.22909 0.0
C753 C 0.51446 0.80347 0.27034 0.0
C754 C 0.38237 0.76021 0.19616 0.0
C755 C 0.40536 0.7641 0.1803 0.0
C756 C 0.35654 0.7603 0.18744 0.0
C757 C 0.40198 0.76773 0.15599 0.0
C758 C 0.35405 0.76407 0.163 0.0
N759 N 0.37662 0.76766 0.14791 0.0
C760 C 0.41863 0.71404 0.21897 0.0
C761 C 0.44648 0.72697 0.25521 0.0
C762 C 0.42766 0.69287 0.21361 0.0
N763 N 0.42865 0.7311 0.23917 0.0
C764 C 0.4555 0.70545 0.25083 0.0
C765 C 0.44643 0.68852 0.22959 0.0
H766 H 0.40353 0.71675 0.20696 0.0
H767 H 0.45381 0.74044 0.27133 0.0
C768 C 0.40545 0.83594 0.18945 0.0
N769 N 0.42523 0.8291 0.20051 0.0
C770 C 0.41448 0.85439 0.16909 0.0
C771 C 0.46432 0.85927 0.17237 0.0
C772 C 0.45433 0.84071 0.19258 0.0
C773 C 0.44417 0.86601 0.16033 0.0
H774 H 0.38249 0.82657 0.19609 0.0
H775 H 0.46971 0.83525 0.20177 0.0
O776 O 0.39367 0.75547 0.275 0.0
O777 O 0.39156 0.80987 0.25305 0.0
O778 O 0.4481 0.80467 0.24551 0.0
O779 O 0.38542 0.75684 0.22009 0.0
H780 H 0.35416 0.70272 0.25534 0.0
H781 H 0.42002 0.74488 0.31173 0.0
H782 H 0.34438 0.65211 0.26935 0.0
H783 H 0.40902 0.69352 0.32479 0.0
H784 H 0.30211 0.80727 0.23772 0.0
H785 H 0.3843 0.82897 0.29529 0.0
H786 H 0.34508 0.80008 0.22536 0.0
H787 H 0.34062 0.83554 0.30644 0.0
H788 H 0.42674 0.81817 0.35934 0.0
H789 H 0.47528 0.8978 0.31473 0.0
H790 H 0.26346 0.68551 0.23313 0.0
H791 H 0.28059 0.73062 0.30156 0.0
H792 H 0.47334 0.79053 0.20994 0.0
H793 H 0.48029 0.81236 0.28476 0.0
H794 H 0.51938 0.78544 0.21369 0.0
H795 H 0.52622 0.80689 0.28717 0.0
H796 H 0.4258 0.76471 0.1867 0.0
H797 H 0.33879 0.75798 0.19938 0.0
H798 H 0.41962 0.77078 0.14356 0.0
H799 H 0.33424 0.7643 0.15604 0.0
H800 H 0.41998 0.67989 0.1972 0.0
H801 H 0.46977 0.70237 0.26363 0.0
H802 H 0.39844 0.85927 0.16013 0.0
H803 H 0.48742 0.86804 0.16602 0.0
C804 C 0.18303 0.64464 0.26605 0.0
C805 C 0.17489 0.6462 0.28999 0.0
C806 C 0.21941 0.69736 0.29328 0.0
C807 C 0.23108 0.69235 0.27181 0.0
N808 N 0.21126 0.67511 0.23232 0.0
N809 N 0.18484 0.67489 0.32655 0.0
C810 C 0.20947 0.66978 0.25627 0.0
C811 C 0.19288 0.67288 0.30367 0.0
N812 N 0.16573 0.6192 0.25262 0.0
N813 N 0.23049 0.7264 0.30144 0.0
H814 H 0.16517 0.65771 0.33464 0.0
H815 H 0.19897 0.6927 0.33794 0.0
H816 H 0.24636 0.74522 0.29162 0.0
H817 H 0.22101 0.73185 0.31578 0.0
H818 H 0.17252 0.61611 0.23578 0.0
H819 H 0.14596 0.60033 0.25905 0.0
H820 H 0.19455 0.66062 0.2203 0.0
H821 H 0.22707 0.69631 0.22523 0.0
C822 C 0.56617 0.19794 0.47583 0.0
C823 C 0.57288 0.179 0.46144 0.0
C824 C 0.59538 0.21892 0.43087 0.0
C825 C 0.5904 0.23851 0.44592 0.0
N826 N 0.57459 0.24871 0.48372 0.0
N827 N 0.59704 0.17201 0.42693 0.0
C828 C 0.57676 0.22858 0.46871 0.0
C829 C 0.58839 0.18965 0.43939 0.0
N830 N 0.54891 0.18628 0.49598 0.0
N831 N 0.60621 0.22813 0.40824 0.0
H832 H 0.59185 0.15026 0.43247 0.0
H833 H 0.61121 0.17959 0.41205 0.0
H834 H 0.61223 0.24969 0.40163 0.0
H835 H 0.60726 0.21385 0.39541 0.0
H836 H 0.54017 0.19762 0.50578 0.0
H837 H 0.54152 0.16423 0.50216 0.0
H838 H 0.56824 0.24409 0.50156 0.0
H839 H 0.58106 0.27102 0.47881 0.0
C840 C 0.41725 0.58208 0.6068 0.0
C841 C 0.40797 0.55935 0.62472 0.0
C842 C 0.35707 0.55385 0.62539 0.0
C843 C 0.36736 0.57876 0.60936 0.0
N844 N 0.40814 0.61939 0.58702 0.0
N845 N 0.37074 0.52637 0.6536 0.0
C846 C 0.39769 0.59361 0.60058 0.0
C847 C 0.37828 0.5459 0.63468 0.0
N848 N 0.44441 0.59206 0.5953 0.0
N849 N 0.32686 0.53741 0.63129 0.0
H850 H 0.38567 0.51996 0.6609 0.0
H851 H 0.35069 0.51845 0.66333 0.0
H852 H 0.31069 0.54264 0.62482 0.0
H853 H 0.31734 0.51709 0.64089 0.0
H854 H 0.45097 0.60612 0.58034 0.0
H855 H 0.45943 0.58428 0.5995 0.0
H856 H 0.43096 0.63325 0.58241 0.0
H857 H 0.39439 0.6283 0.5818 0.0
C858 C 0.84059 0.40506 0.81701 0.0
C859 C 0.86142 0.42871 0.80176 0.0
C860 C 0.82331 0.40929 0.76998 0.0
C861 C 0.80561 0.3822 0.78326 0.0
N862 N 0.79623 0.35466 0.82041 0.0
N863 N 0.85737 0.46312 0.77436 0.0
C864 C 0.8138 0.38022 0.80716 0.0
C865 C 0.84899 0.43404 0.78087 0.0
N866 N 0.84426 0.40867 0.84114 0.0
N867 N 0.81575 0.41157 0.74699 0.0
H868 H 0.87071 0.48155 0.78557 0.0
H869 H 0.84708 0.46821 0.76035 0.0
H870 H 0.79702 0.3939 0.73828 0.0
H871 H 0.8297 0.43016 0.73617 0.0
H872 H 0.82838 0.39368 0.8534 0.0
H873 H 0.86141 0.4289 0.84868 0.0
H874 H 0.80306 0.35077 0.83695 0.0
H875 H 0.77579 0.33644 0.81421 0.0
C876 C 0.45206 0.84055 0.97017 0.0
C877 C 0.47448 0.86621 0.95744 0.0
C878 C 0.4783 0.83254 0.9279 0.0
C879 C 0.45801 0.80699 0.94183 0.0
N880 N 0.42769 0.78605 0.97732 0.0
N881 N 0.5117 0.88738 0.92587 0.0
C882 C 0.44539 0.81081 0.96327 0.0
C883 C 0.48828 0.86243 0.93667 0.0
N884 N 0.43671 0.84467 0.98853 0.0
N885 N 0.48763 0.82815 0.90611 0.0
H886 H 0.51932 0.90967 0.93153 0.0
H887 H 0.52508 0.88603 0.91238 0.0
H888 H 0.48136 0.80657 0.8994 0.0
H889 H 0.49967 0.8456 0.89389 0.0
H890 H 0.4179 0.8269 0.99695 0.0
H891 H 0.44128 0.86618 0.99421 0.0
H892 H 0.42071 0.78762 0.99446 0.0
H893 H 0.42155 0.76379 0.97253 0.0
C894 C 0.63058 0.46638 0.10381 0.0
C895 C 0.62862 0.47138 0.12849 0.0
C896 C 0.66561 0.45496 0.13732 0.0
C897 C 0.67038 0.45372 0.11249 0.0
N898 N 0.6609 0.46281 0.07195 0.0
N899 N 0.6477 0.47511 0.16857 0.0
C900 C 0.65376 0.4606 0.09565 0.0
C901 C 0.64701 0.46687 0.14525 0.0
N902 N 0.60976 0.46635 0.08825 0.0
N903 N 0.67812 0.44394 0.1533 0.0
H904 H 0.6346 0.48415 0.17511 0.0
H905 H 0.66319 0.47548 0.18099 0.0
H906 H 0.6916 0.43472 0.14815 0.0
H907 H 0.67283 0.4413 0.17141 0.0
H908 H 0.60813 0.45977 0.07046 0.0
H909 H 0.5922 0.47011 0.09363 0.0
H910 H 0.65182 0.47099 0.05919 0.0
H911 H 0.67797 0.45907 0.06527 0.0
C912 C 0.41443 0.84578 0.52584 0.0
C913 C 0.41817 0.87153 0.53873 0.0
C914 C 0.38159 0.83807 0.56883 0.0
C915 C 0.37584 0.81244 0.5548 0.0
N916 N 0.38334 0.79147 0.5185 0.0
N917 N 0.40276 0.89287 0.57061 0.0
C918 C 0.39136 0.81616 0.5329 0.0
C919 C 0.4011 0.86789 0.55977 0.0
N920 N 0.43348 0.84967 0.50722 0.0
N921 N 0.36894 0.83386 0.59103 0.0
H922 H 0.41706 0.91511 0.56467 0.0
H923 H 0.38836 0.89152 0.58438 0.0
H924 H 0.35417 0.81233 0.59808 0.0
H925 H 0.37485 0.85147 0.60321 0.0
H926 H 0.43414 0.83174 0.49872 0.0
H927 H 0.45049 0.87109 0.50143 0.0
H928 H 0.39133 0.79312 0.50115 0.0
H929 H 0.36679 0.76932 0.52317 0.0
C930 C 0.60739 0.43712 0.72227 0.0
C931 C 0.59508 0.43519 0.69921 0.0
C932 C 0.59772 0.38879 0.69188 0.0
C933 C 0.60205 0.38683 0.71671 0.0
N934 N 0.61104 0.40943 0.75596 0.0
N935 N 0.60019 0.4214 0.6592 0.0
C936 C 0.60678 0.41104 0.73207 0.0
C937 C 0.59662 0.41452 0.68296 0.0
N938 N 0.62547 0.46489 0.73248 0.0
N939 N 0.59395 0.36583 0.67694 0.0
H940 H 0.60264 0.4419 0.65283 0.0
H941 H 0.60422 0.40887 0.64645 0.0
H942 H 0.59537 0.34699 0.68272 0.0
H943 H 0.58737 0.36446 0.65917 0.0
H944 H 0.63672 0.46768 0.74867 0.0
H945 H 0.63392 0.48487 0.72244 0.0
H946 H 0.61202 0.42563 0.76798 0.0
H947 H 0.61117 0.39082 0.76386 0.0
C948 C 0.17939 0.55163 0.8886 0.0
C949 C 0.17582 0.56657 0.86844 0.0
C950 C 0.23125 0.59997 0.86571 0.0
C951 C 0.23488 0.58381 0.88495 0.0
N952 N 0.21347 0.54259 0.91336 0.0
N953 N 0.19754 0.60259 0.83614 0.0
C954 C 0.20921 0.55918 0.89606 0.0
C955 C 0.20155 0.59013 0.85653 0.0
N956 N 0.1542 0.53056 0.90079 0.0
N957 N 0.25622 0.62509 0.85653 0.0
H958 H 0.17609 0.59683 0.82943 0.0
H959 H 0.21526 0.61725 0.82498 0.0
H960 H 0.27844 0.63231 0.86217 0.0
H961 H 0.25499 0.63999 0.8444 0.0
H962 H 0.15511 0.52135 0.91715 0.0
H963 H 0.13196 0.52349 0.89528 0.0
H964 H 0.19606 0.52224 0.92032 0.0
H965 H 0.23494 0.54816 0.91988 0.0
C966 C 0.64883 0.19853 0.01544 0.0
C967 C 0.62896 0.17577 0.03172 0.0
C968 C 0.65196 0.21156 0.06501 0.0
C969 C 0.67042 0.23486 0.04857 0.0
N970 N 0.68228 0.25246 0.00788 0.0
N971 N 0.60712 0.16197 0.07109 0.0
C972 C 0.66762 0.22892 0.02367 0.0
C973 C 0.62918 0.18272 0.05626 0.0
N974 N 0.65062 0.19088 0.99235 0.0
N975 N 0.65697 0.21664 0.08897 0.0
H976 H 0.58994 0.14067 0.06526 0.0
H977 H 0.60416 0.16687 0.0886 0.0
H978 H 0.67346 0.23748 0.09608 0.0
H979 H 0.64658 0.19952 0.10174 0.0
H980 H 0.66712 0.20569 0.98039 0.0
H981 H 0.63714 0.16891 0.98558 0.0
H982 H 0.67857 0.25005 0.98954 0.0
H983 H 0.69617 0.27506 0.01323 0.0
C984 C 0.44297 0.61503 0.21008 0.0
C985 C 0.47441 0.62454 0.20797 0.0
C986 C 0.48775 0.67638 0.21967 0.0
C987 C 0.45645 0.66623 0.22374 0.0
N988 N 0.40514 0.62421 0.22859 0.0
N989 N 0.52665 0.66214 0.21687 0.0
C990 C 0.4343 0.63498 0.22076 0.0
C991 C 0.49681 0.65459 0.21468 0.0
N992 N 0.42139 0.58763 0.20089 0.0
N993 N 0.50868 0.70686 0.21938 0.0
H994 H 0.53408 0.64654 0.21404 0.0
H995 H 0.5434 0.68288 0.2239 0.0
H996 H 0.50299 0.72374 0.22226 0.0
H997 H 0.53121 0.71545 0.21401 0.0
H998 H 0.39838 0.58108 0.19978 0.0
H999 H 0.42676 0.57267 0.19228 0.0
H1000 H 0.38883 0.60109 0.2289 0.0
H1001 H 0.39816 0.63803 0.23708 0.0
C1002 C 0.8702 0.48784 0.39255 0.0
C1003 C 0.87352 0.47205 0.37291 0.0
C1004 C 0.818 0.44109 0.36882 0.0
C1005 C 0.81469 0.45608 0.38903 0.0
N1006 N 0.83677 0.48984 0.42261 0.0
N1007 N 0.85152 0.43059 0.34473 0.0
C1008 C 0.84058 0.47829 0.40167 0.0
C1009 C 0.84765 0.44769 0.36177 0.0
N1010 N 0.89531 0.51264 0.40191 0.0
N1011 N 0.79284 0.42131 0.35592 0.0
H1012 H 0.87296 0.43511 0.33893 0.0
H1013 H 0.83375 0.41056 0.33765 0.0
H1014 H 0.77068 0.4153 0.36087 0.0
H1015 H 0.79389 0.41234 0.33949 0.0
H1016 H 0.8942 0.52733 0.41431 0.0
H1017 H 0.91746 0.51982 0.39613 0.0
H1018 H 0.85461 0.50362 0.43405 0.0
H1019 H 0.81536 0.48377 0.42954 0.0
C1020 C 0.11898 0.58657 0.45015 0.0
C1021 C 0.12986 0.58233 0.42799 0.0
C1022 C 0.17701 0.59068 0.44719 0.0
C1023 C 0.16687 0.5967 0.46904 0.0
N1024 N 0.13062 0.60482 0.49096 0.0
N1025 N 0.17035 0.58408 0.40426 0.0
C1026 C 0.1385 0.59588 0.47042 0.0
C1027 C 0.15925 0.58548 0.42617 0.0
N1028 N 0.08966 0.58092 0.45193 0.0
N1029 N 0.20321 0.58915 0.44674 0.0
H1030 H 0.15769 0.57966 0.38859 0.0
H1031 H 0.19275 0.58942 0.40127 0.0
H1032 H 0.21707 0.59343 0.46169 0.0
H1033 H 0.21024 0.58162 0.43209 0.0
H1034 H 0.0791 0.58003 0.46806 0.0
H1035 H 0.075 0.57504 0.43732 0.0
H1036 H 0.11199 0.60813 0.49234 0.0
H1037 H 0.14402 0.61116 0.50635 0.0
C1038 C 0.55343 0.12484 0.61646 0.0
C1039 C 0.573 0.12814 0.59718 0.0
C1040 C 0.61684 0.16748 0.61939 0.0
C1041 C 0.59688 0.16595 0.63777 0.0
N1042 N 0.54559 0.14742 0.65192 0.0
N1043 N 0.6222 0.15607 0.57826 0.0
C1044 C 0.56497 0.14581 0.63578 0.0
C1045 C 0.60442 0.15048 0.59806 0.0
N1046 N 0.52409 0.10103 0.6167 0.0
N1047 N 0.64769 0.18443 0.62263 0.0
H1048 H 0.61386 0.14416 0.56229 0.0
H1049 H 0.64444 0.17424 0.57695 0.0
H1050 H 0.65761 0.19715 0.63802 0.0
H1051 H 0.66342 0.18387 0.61101 0.0
H1052 H 0.5098 0.09545 0.63147 0.0
H1053 H 0.51474 0.08521 0.60287 0.0
H1054 H 0.52198 0.1357 0.64991 0.0
H1055 H 0.55311 0.16255 0.66628 0.0
C1056 C 0.45604 0.58883 0.75936 0.0
C1057 C 0.45859 0.56225 0.76144 0.0
C1058 C 0.4451 0.55797 0.80386 0.0
C1059 C 0.44498 0.58588 0.80222 0.0
N1060 N 0.45279 0.62961 0.77947 0.0
N1061 N 0.45847 0.52278 0.78559 0.0
C1062 C 0.45106 0.60177 0.78022 0.0
C1063 C 0.45383 0.5471 0.78368 0.0
N1064 N 0.45792 0.60132 0.73735 0.0
N1065 N 0.43627 0.54158 0.82462 0.0
H1066 H 0.46366 0.51339 0.77102 0.0
H1067 H 0.45905 0.51297 0.80176 0.0
H1068 H 0.43068 0.54928 0.84002 0.0
H1069 H 0.43243 0.51946 0.82626 0.0
H1070 H 0.4531 0.61871 0.73412 0.0
H1071 H 0.46226 0.59283 0.7218 0.0
H1072 H 0.46044 0.64403 0.76474 0.0
H1073 H 0.44838 0.63934 0.79424 0.0
C1074 C 0.89225 0.44461 0.93054 0.0
C1075 C 0.91956 0.47324 0.92977 0.0
C1076 C 0.90698 0.48737 0.96819 0.0
C1077 C 0.88132 0.4576 0.97008 0.0
N1078 N 0.85111 0.40648 0.9547 0.0
N1079 N 0.95492 0.52098 0.94843 0.0
C1080 C 0.87427 0.43584 0.95164 0.0
C1081 C 0.92746 0.49444 0.94874 0.0
N1082 N 0.88328 0.42605 0.91092 0.0
N1083 N 0.91127 0.50906 0.98469 0.0
H1084 H 0.9701 0.52735 0.93416 0.0
H1085 H 0.96364 0.53576 0.96292 0.0
H1086 H 0.89679 0.50459 0.99923 0.0
H1087 H 0.92763 0.53202 0.98301 0.0
H1088 H 0.86199 0.40647 0.90934 0.0
H1089 H 0.8962 0.43146 0.89533 0.0
H1090 H 0.84702 0.38871 0.94317 0.0
H1091 H 0.83722 0.39923 0.96979 0.0
C1092 C 0.47047 0.93331 0.11773 0.0
C1093 C 0.47629 0.92117 0.09686 0.0
C1094 C 0.45691 0.87171 0.11669 0.0
C1095 C 0.45419 0.8848 0.13828 0.0
N1096 N 0.46201 0.92894 0.16047 0.0
N1097 N 0.47904 0.88029 0.07714 0.0
C1098 C 0.46188 0.91585 0.13911 0.0
C1099 C 0.47052 0.89072 0.09649 0.0
N1100 N 0.47232 0.96118 0.1169 0.0
N1101 N 0.44574 0.84096 0.11536 0.0
H1102 H 0.48894 0.89347 0.06194 0.0
H1103 H 0.47857 0.8595 0.07685 0.0
H1104 H 0.43566 0.82637 0.12983 0.0
H1105 H 0.44403 0.82953 0.09949 0.0
H1106 H 0.46519 0.96985 0.13074 0.0
H1107 H 0.47857 0.97464 0.10156 0.0
H1108 H 0.47071 0.95227 0.16268 0.0
H1109 H 0.45557 0.91682 0.17648 0.0
C1110 C 0.57267 0.44328 0.2657 0.0
C1111 C 0.57947 0.47406 0.26486 0.0
C1112 C 0.60368 0.48342 0.30424 0.0
C1113 C 0.59433 0.45197 0.30602 0.0
N1114 N 0.56624 0.40093 0.29018 0.0
N1115 N 0.59723 0.52244 0.2845 0.0
C1116 C 0.57781 0.43158 0.2872 0.0
C1117 C 0.59385 0.4939 0.28446 0.0
N1118 N 0.56208 0.42548 0.24572 0.0
N1119 N 0.62279 0.50344 0.32105 0.0
H1120 H 0.59061 0.53108 0.27025 0.0
H1121 H 0.60434 0.53668 0.29937 0.0
H1122 H 0.63044 0.49666 0.33585 0.0
H1123 H 0.63313 0.52703 0.31935 0.0
H1124 H 0.55978 0.40393 0.24438 0.0
H1125 H 0.55793 0.43327 0.22969 0.0
H1126 H 0.55124 0.38459 0.2782 0.0
H1127 H 0.56964 0.39156 0.30566 0.0
C1128 C 0.44283 0.90005 0.39425 0.0
C1129 C 0.47372 0.91964 0.4008 0.0
C1130 C 0.49016 0.89757 0.36919 0.0
C1131 C 0.4596 0.88049 0.36104 0.0
N1132 N 0.40752 0.86976 0.36306 0.0
N1133 N 0.52723 0.94099 0.39206 0.0
C1134 C 0.43607 0.88287 0.37282 0.0
C1135 C 0.49756 0.91948 0.38761 0.0
N1136 N 0.41993 0.89713 0.40886 0.0
N1137 N 0.51197 0.89224 0.35982 0.0
H1138 H 0.53359 0.95765 0.40522 0.0
H1139 H 0.54532 0.94403 0.38133 0.0
H1140 H 0.50735 0.87619 0.34643 0.0
H1141 H 0.53392 0.90167 0.36678 0.0
H1142 H 0.39711 0.8808 0.40627 0.0
H1143 H 0.42397 0.9091 0.42485 0.0
H1144 H 0.3904 0.87352 0.3695 0.0
H1145 H 0.40168 0.85738 0.34717 0.0
C1146 C 0.5999 0.50384 0.54984 0.0
C1147 C 0.59105 0.48446 0.57011 0.0
C1148 C 0.62181 0.46294 0.55557 0.0
C1149 C 0.62354 0.47614 0.53288 0.0
N1150 N 0.63768 0.52637 0.51881 0.0
N1151 N 0.59468 0.44587 0.59295 0.0
C1152 C 0.61919 0.50171 0.53252 0.0
C1153 C 0.60258 0.46429 0.57332 0.0
N1154 N 0.59008 0.52434 0.54706 0.0
N1155 N 0.64186 0.45336 0.56126 0.0
H1156 H 0.58066 0.44617 0.60644 0.0
H1157 H 0.60023 0.42873 0.59479 0.0
H1158 H 0.6594 0.45674 0.54965 0.0
H1159 H 0.64361 0.44614 0.57831 0.0
H1160 H 0.59349 0.53668 0.53135 0.0
H1161 H 0.57696 0.52756 0.5598 0.0
H1162 H 0.63744 0.54682 0.51938 0.0
H1163 H 0.65635 0.52771 0.50979 0.0
C1164 C 0.11239 0.5852 0.71212 0.0
C1165 C 0.12298 0.57531 0.73176 0.0
C1166 C 0.1702 0.58855 0.71027 0.0
C1167 C 0.15989 0.59906 0.69086 0.0
N1168 N 0.12372 0.61151 0.67397 0.0
N1169 N 0.16298 0.57084 0.75131 0.0
C1170 C 0.1317 0.59863 0.692 0.0
C1171 C 0.15226 0.57802 0.73137 0.0
N1172 N 0.08357 0.58113 0.71257 0.0
N1173 N 0.19683 0.58796 0.70823 0.0
H1174 H 0.14999 0.56178 0.76672 0.0
H1175 H 0.18532 0.57547 0.75331 0.0
H1176 H 0.21132 0.59684 0.69355 0.0
H1177 H 0.20399 0.57731 0.72038 0.0
H1178 H 0.07296 0.58445 0.69791 0.0
H1179 H 0.06935 0.5728 0.72744 0.0
H1180 H 0.10516 0.61499 0.67469 0.0
H1181 H 0.1369 0.6207 0.65867 0.0
C1182 C 0.58936 0.11938 0.87654 0.0
C1183 C 0.57351 0.12235 0.89628 0.0
C1184 C 0.56852 0.16202 0.87505 0.0
C1185 C 0.58679 0.161 0.8563 0.0
N1186 N 0.61922 0.14267 0.84098 0.0
N1187 N 0.55234 0.14975 0.91623 0.0
C1188 C 0.59849 0.14074 0.85751 0.0
C1189 C 0.56426 0.14459 0.89607 0.0
N1190 N 0.59486 0.09557 0.87563 0.0
N1191 N 0.55454 0.17899 0.87246 0.0
H1192 H 0.54898 0.13751 0.93199 0.0
H1193 H 0.54822 0.16784 0.91802 0.0
H1194 H 0.55711 0.19202 0.8573 0.0
H1195 H 0.53837 0.17813 0.88437 0.0
H1196 H 0.60329 0.09026 0.86056 0.0
H1197 H 0.58857 0.07946 0.88924 0.0
H1198 H 0.63109 0.13087 0.84245 0.0
H1199 H 0.6266 0.15807 0.8268 0.0
C1200 C 0.47283 0.59861 0.06429 0.0
C1201 C 0.46879 0.56895 0.06696 0.0
C1202 C 0.43868 0.55249 0.03006 0.0
C1203 C 0.44523 0.58287 0.02623 0.0
N1204 N 0.4715 0.63586 0.03784 0.0
N1205 N 0.45103 0.51839 0.05148 0.0
C1206 C 0.46304 0.60622 0.04289 0.0
C1207 C 0.45249 0.54602 0.04962 0.0
N1208 N 0.48544 0.61926 0.08246 0.0
N1209 N 0.4187 0.52973 0.01529 0.0
H1210 H 0.46035 0.51262 0.06579 0.0
H1211 H 0.44254 0.50194 0.03809 0.0
H1212 H 0.40843 0.53374 1.00066 0.0
H1213 H 0.41039 0.50666 0.01853 0.0
H1214 H 0.48598 0.64009 0.08276 0.0
H1215 H 0.49325 0.61461 0.09826 0.0
H1216 H 0.48731 0.65434 0.04788 0.0
H1217 H 0.46446 0.64233 0.02252 0.0
C1218 C 0.92819 0.45504 0.21446 0.0
C1219 C 0.92144 0.47095 0.23205 0.0
C1220 C 0.8778 0.46457 0.20851 0.0
C1221 C 0.88347 0.44711 0.19162 0.0
N1222 N 0.91063 0.42136 0.18009 0.0
N1223 N 0.88738 0.48669 0.24817 0.0
C1224 C 0.90769 0.44106 0.19507 0.0
C1225 C 0.89549 0.47448 0.22976 0.0
N1226 N 0.95468 0.45413 0.21593 0.0
N1227 N 0.85619 0.47254 0.20383 0.0
H1228 H 0.90002 0.49454 0.26389 0.0
H1229 H 0.86691 0.48684 0.24874 0.0
H1230 H 0.84245 0.46535 0.18863 0.0
H1231 H 0.85334 0.4881 0.21405 0.0
H1232 H 0.96265 0.44594 0.20235 0.0
H1233 H 0.96998 0.46365 0.23009 0.0
H1234 H 0.92571 0.41339 0.18308 0.0
H1235 H 0.89621 0.41098 0.16555 0.0
loop_
_geom_bond_atom_site_label_1
_geom_bond_atom_site_label_2
_geom_bond_distance
_geom_bond_site_symmetry_2
_ccdc_geom_bond_type
C0 C1 1.384 . S
C0 C2 1.384 . S
C0 H28 0.931 . S
C1 C0 1.384 . S
C1 C4 1.382 . S
C2 C0 1.384 . S
C2 C3 1.381 . S
C2 H29 0.930 . S
C3 C2 1.381 . S
C3 C5 1.381 . S
C3 C6 1.487 . S
C4 C1 1.382 . S
C4 C5 1.387 . S
C4 H30 0.930 . S
C5 C3 1.381 . S
C5 C4 1.387 . S
C5 H31 0.931 . S
C6 C3 1.487 . S
C6 C13 1.399 1_655 S
C6 N44 1.343 1_655 S
C7 C8 1.384 . S
C7 C9 1.384 . S
C7 H32 0.931 . S
C8 C7 1.384 . S
C8 C11 1.382 . S
C9 C7 1.384 . S
C9 C10 1.381 . S
C9 H33 0.930 . S
C10 C9 1.381 . S
C10 C12 1.381 . S
C10 C13 1.487 1_655 S
C11 C8 1.382 . S
C11 C12 1.387 . S
C11 H34 0.930 . S
C12 C10 1.381 . S
C12 C11 1.387 . S
C12 H35 0.931 1_655 S
C13 C6 1.399 1_455 S
C13 C10 1.487 1_455 S
C13 N45 1.343 . S
C14 C15 1.384 . S
C14 C16 1.384 . S
C14 H36 0.931 . S
C15 C14 1.384 . S
C15 C18 1.382 . S
C16 C14 1.384 . S
C16 C17 1.381 . S
C16 H37 0.930 . S
C17 C16 1.381 . S
C17 C19 1.381 . S
C17 C20 1.487 . S
C18 C15 1.382 . S
C18 C19 1.387 . S
C18 H38 0.930 . S
C19 C17 1.381 . S
C19 C18 1.387 . S
C19 H39 0.931 . S
C20 C17 1.487 . S
C20 C27 1.399 . S
C20 N45 1.343 . S
C21 C22 1.384 . S
C21 C23 1.384 . S
C21 H40 0.931 . S
C22 C21 1.384 . S
C22 C25 1.382 . S
C23 C21 1.384 . S
C23 C24 1.381 . S
C23 H41 0.930 . S
C24 C23 1.381 . S
C24 C26 1.381 . S
C24 C27 1.487 . S
C25 C22 1.382 . S
C25 C26 1.387 . S
C25 H42 0.930 . S
C26 C24 1.381 . S
C26 C25 1.387 . S
C26 H43 0.931 . S
C27 C20 1.399 . S
C27 C24 1.487 . S
C27 N44 1.343 . S
H28 C0 0.931 . S
H29 C2 0.930 . S
H30 C4 0.930 . S
H31 C5 0.931 . S
H32 C7 0.931 . S
H33 C9 0.930 . S
H34 C11 0.930 . S
H35 C12 0.931 1_455 S
H36 C14 0.931 . S
H37 C16 0.930 . S
H38 C18 0.930 . S
H39 C19 0.931 . S
H40 C21 0.931 . S
H41 C23 0.930 . S
H42 C25 0.930 . S
H43 C26 0.931 . S
N44 C6 1.343 1_455 S
N44 C27 1.343 . S
N45 C13 1.343 . S
N45 C20 1.343 . S
C46 C47 1.384 . S
C46 C48 1.384 . S
C46 H74 0.931 . S
C47 C46 1.384 . S
C47 C50 1.382 . S
C48 C46 1.384 . S
C48 C49 1.381 . S
C48 H75 0.930 . S
C49 C48 1.381 . S
C49 C51 1.381 . S
C49 C52 1.487 . S
C50 C47 1.382 . S
C50 C51 1.387 . S
C50 H76 0.930 . S
C51 C49 1.381 . S
C51 C50 1.387 . S
C51 H77 0.931 . S
C52 C49 1.487 . S
C52 C59 1.399 1_565 S
C52 N90 1.343 1_565 S
C53 C54 1.384 . S
C53 C55 1.384 . S
C53 H78 0.931 . S
C54 C53 1.384 . S
C54 C57 1.382 . S
C55 C53 1.384 . S
C55 C56 1.381 . S
C55 H79 0.930 . S
C56 C55 1.381 . S
C56 C58 1.381 . S
C56 C59 1.487 1_565 S
C57 C54 1.382 . S
C57 C58 1.387 . S
C57 H80 0.930 . S
C58 C56 1.381 . S
C58 C57 1.387 . S
C58 H81 0.931 1_565 S
C59 C52 1.399 1_545 S
C59 C56 1.487 1_545 S
C59 N91 1.343 . S
C60 C61 1.384 . S
C60 C62 1.384 . S
C60 H82 0.931 . S
C61 C60 1.384 . S
C61 C64 1.382 . S
C62 C60 1.384 . S
C62 C63 1.381 . S
C62 H83 0.930 . S
C63 C62 1.381 . S
C63 C65 1.381 . S
C63 C66 1.487 . S
C64 C61 1.382 . S
C64 C65 1.387 . S
C64 H84 0.930 . S
C65 C63 1.381 . S
C65 C64 1.387 . S
C65 H85 0.931 . S
C66 C63 1.487 . S
C66 C73 1.399 . S
C66 N91 1.343 . S
C67 C68 1.384 . S
C67 C69 1.384 . S
C67 H86 0.931 . S
C68 C67 1.384 . S
C68 C71 1.382 . S
C69 C67 1.384 . S
C69 C70 1.381 . S
C69 H87 0.930 . S
C70 C69 1.381 . S
C70 C72 1.381 . S
C70 C73 1.487 . S
C71 C68 1.382 . S
C71 C72 1.387 . S
C71 H88 0.930 . S
C72 C70 1.381 . S
C72 C71 1.387 . S
C72 H89 0.931 . S
C73 C66 1.399 . S
C73 C70 1.487 . S
C73 N90 1.343 . S
H74 C46 0.931 . S
H75 C48 0.930 . S
H76 C50 0.930 . S
H77 C51 0.931 . S
H78 C53 0.931 . S
H79 C55 0.930 . S
H80 C57 0.930 . S
H81 C58 0.931 1_545 S
H82 C60 0.931 . S
H83 C62 0.930 . S
H84 C64 0.930 . S
H85 C65 0.931 . S
H86 C67 0.931 . S
H87 C69 0.930 . S
H88 C71 0.930 . S
H89 C72 0.931 . S
N90 C52 1.343 1_545 S
N90 C73 1.343 . S
N91 C59 1.343 . S
N91 C66 1.343 . S
C92 C93 1.384 . S
C92 C94 1.384 . S
C92 H120 0.931 . S
C93 C92 1.384 . S
C93 C96 1.382 . S
C94 C92 1.384 . S
C94 C95 1.381 . S
C94 H121 0.930 . S
C95 C94 1.381 . S
C95 C97 1.381 . S
C95 C98 1.487 . S
C96 C93 1.382 . S
C96 C97 1.387 . S
C96 H122 0.930 . S
C97 C95 1.381 . S
C97 C96 1.387 . S
C97 H123 0.931 . S
C98 C95 1.487 . S
C98 C105 1.399 . S
C98 N136 1.343 . S
C99 C100 1.384 . S
C99 C101 1.384 . S
C99 H124 0.931 . S
C100 C99 1.384 . S
C100 C103 1.382 . S
C101 C99 1.384 . S
C101 C102 1.381 . S
C101 H125 0.930 . S
C102 C101 1.381 . S
C102 C104 1.381 . S
C102 C105 1.487 . S
C103 C100 1.382 . S
C103 C104 1.387 . S
C103 H126 0.930 . S
C104 C102 1.381 . S
C104 C103 1.387 . S
C104 H127 0.931 . S
C105 C98 1.399 . S
C105 C102 1.487 . S
C105 N137 1.343 . S
C106 C107 1.384 . S
C106 C108 1.384 . S
C106 H128 0.931 . S
C107 C106 1.384 . S
C107 C110 1.382 . S
C108 C106 1.384 . S
C108 C109 1.381 . S
C108 H129 0.930 . S
C109 C108 1.381 . S
C109 C111 1.381 . S
C109 C112 1.487 . S
C110 C107 1.382 . S
C110 C111 1.387 . S
C110 H130 0.930 . S
C111 C109 1.381 . S
C111 C110 1.387 . S
C111 H131 0.931 . S
C112 C109 1.487 . S
C112 C119 1.399 . S
C112 N137 1.343 . S
C113 C114 1.384 . S
C113 C115 1.384 . S
C113 H132 0.931 . S
C114 C113 1.384 . S
C114 C117 1.382 . S
C115 C113 1.384 . S
C115 C116 1.381 . S
C115 H133 0.930 . S
C116 C115 1.381 . S
C116 C118 1.381 . S
C116 C119 1.487 . S
C117 C114 1.382 . S
C117 C118 1.387 . S
C117 H134 0.930 . S
C118 C116 1.381 . S
C118 C117 1.387 . S
C118 H135 0.931 . S
C119 C112 1.399 . S
C119 C116 1.487 . S
C119 N136 1.343 . S
H120 C92 0.931 . S
H121 C94 0.930 . S
H122 C96 0.930 . S
H123 C97 0.931 . S
H124 C99 0.931 . S
H125 C101 0.930 . S
H126 C103 0.930 . S
H127 C104 0.931 . S
H128 C106 0.931 . S
H129 C108 0.930 . S
H130 C110 0.930 . S
H131 C111 0.931 . S
H132 C113 0.931 . S
H133 C115 0.930 . S
H134 C117 0.930 . S
H135 C118 0.931 . S
N136 C98 1.343 . S
N136 C119 1.343 . S
N137 C105 1.343 . S
N137 C112 1.343 . S
C138 C139 1.384 . S
C138 C140 1.384 . S
C138 H166 0.931 . S
C139 C138 1.384 . S
C139 C142 1.382 . S
C140 C138 1.384 . S
C140 C141 1.381 . S
C140 H167 0.930 . S
C141 C140 1.381 . S
C141 C143 1.381 . S
C141 C144 1.487 . S
C142 C139 1.382 . S
C142 C143 1.387 . S
C142 H168 0.930 . S
C143 C141 1.381 . S
C143 C142 1.387 . S
C143 H169 0.931 . S
C144 C141 1.487 . S
C144 C151 1.399 1_655 S
C144 N182 1.343 1_655 S
C145 C146 1.384 . S
C145 C147 1.384 . S
C145 H170 0.931 . S
C146 C145 1.384 . S
C146 C149 1.382 . S
C147 C145 1.384 . S
C147 C148 1.381 . S
C147 H171 0.930 . S
C148 C147 1.381 . S
C148 C150 1.381 . S
C148 C151 1.487 1_655 S
C149 C146 1.382 . S
C149 C150 1.387 . S
C149 H172 0.930 . S
C150 C148 1.381 . S
C150 C149 1.387 . S
C150 H173 0.931 1_655 S
C151 C144 1.399 1_455 S
C151 C148 1.487 1_455 S
C151 N183 1.343 . S
C152 C153 1.384 . S
C152 C154 1.384 . S
C152 H174 0.931 . S
C153 C152 1.384 . S
C153 C156 1.382 . S
C154 C152 1.384 . S
C154 C155 1.381 . S
C154 H175 0.930 . S
C155 C154 1.381 . S
C155 C157 1.381 . S
C155 C158 1.487 . S
C156 C153 1.382 . S
C156 C157 1.387 . S
C156 H176 0.930 . S
C157 C155 1.381 . S
C157 C156 1.387 . S
C157 H177 0.931 . S
C158 C155 1.487 . S
C158 C165 1.399 . S
C158 N183 1.343 . S
C159 C160 1.384 . S
C159 C161 1.384 . S
C159 H178 0.931 . S
C160 C159 1.384 . S
C160 C163 1.382 . S
C161 C159 1.384 . S
C161 C162 1.381 . S
C161 H179 0.930 . S
C162 C161 1.381 . S
C162 C164 1.381 . S
C162 C165 1.487 . S
C163 C160 1.382 . S
C163 C164 1.387 . S
C163 H180 0.930 . S
C164 C162 1.381 . S
C164 C163 1.387 . S
C164 H181 0.931 . S
C165 C158 1.399 . S
C165 C162 1.487 . S
C165 N182 1.343 . S
H166 C138 0.931 . S
H167 C140 0.930 . S
H168 C142 0.930 . S
H169 C143 0.931 . S
H170 C145 0.931 . S
H171 C147 0.930 . S
H172 C149 0.930 . S
H173 C150 0.931 1_455 S
H174 C152 0.931 . S
H175 C154 0.930 . S
H176 C156 0.930 . S
H177 C157 0.931 . S
H178 C159 0.931 . S
H179 C161 0.930 . S
H180 C163 0.930 . S
H181 C164 0.931 . S
N182 C144 1.343 1_455 S
N182 C165 1.343 . S
N183 C151 1.343 . S
N183 C158 1.343 . S
C184 C185 1.384 . S
C184 C186 1.384 . S
C184 H212 0.931 . S
C185 C184 1.384 . S
C185 C188 1.382 . S
C186 C184 1.384 . S
C186 C187 1.381 . S
C186 H213 0.930 1_556 S
C187 C186 1.381 . S
C187 C189 1.381 . S
C187 C190 1.487 . S
C188 C185 1.382 . S
C188 C189 1.387 . S
C188 H214 0.930 . S
C189 C187 1.381 . S
C189 C188 1.387 . S
C189 H215 0.931 . S
C190 C187 1.487 . S
C190 C197 1.399 1_566 S
C190 N228 1.343 1_565 S
C191 C192 1.384 . S
C191 C193 1.384 . S
C191 H216 0.931 . S
C192 C191 1.384 . S
C192 C195 1.382 . S
C193 C191 1.384 . S
C193 C194 1.381 . S
C193 H217 0.930 . S
C194 C193 1.381 . S
C194 C196 1.381 . S
C194 C197 1.487 1_565 S
C195 C192 1.382 . S
C195 C196 1.387 . S
C195 H218 0.930 . S
C196 C194 1.381 . S
C196 C195 1.387 . S
C196 H219 0.931 1_565 S
C197 C190 1.399 1_544 S
C197 C194 1.487 1_545 S
C197 N229 1.343 . S
C198 C199 1.384 . S
C198 C200 1.384 1_554 S
C198 H220 0.931 . S
C199 C198 1.384 . S
C199 C202 1.382 . S
C200 C198 1.384 1_556 S
C200 C201 1.381 1_556 S
C200 H221 0.930 . S
C201 C200 1.381 1_554 S
C201 C203 1.381 . S
C201 C204 1.488 . S
C202 C199 1.382 . S
C202 C203 1.387 . S
C202 H222 0.930 . S
C203 C201 1.381 . S
C203 C202 1.387 . S
C203 H223 0.931 . S
C204 C201 1.488 . S
C204 C211 1.396 1_554 S
C204 N229 1.346 . S
C205 C206 1.384 . S
C205 C207 1.384 . S
C205 H224 0.931 . S
C206 C205 1.384 . S
C206 C209 1.382 . S
C207 C205 1.384 . S
C207 C208 1.381 . S
C207 H225 0.930 . S
C208 C207 1.381 . S
C208 C210 1.381 . S
C208 C211 1.487 . S
C209 C206 1.382 . S
C209 C210 1.387 . S
C209 H226 0.930 . S
C210 C208 1.381 . S
C210 C209 1.387 . S
C210 H227 0.931 . S
C211 C204 1.396 1_556 S
C211 C208 1.487 . S
C211 N228 1.343 . S
H212 C184 0.931 . S
H213 C186 0.930 1_554 S
H214 C188 0.930 . S
H215 C189 0.931 . S
H216 C191 0.931 . S
H217 C193 0.930 . S
H218 C195 0.930 . S
H219 C196 0.931 1_545 S
H220 C198 0.931 . S
H221 C200 0.930 . S
H222 C202 0.930 . S
H223 C203 0.931 . S
H224 C205 0.931 . S
H225 C207 0.930 . S
H226 C209 0.930 . S
H227 C210 0.931 . S
N228 C190 1.343 1_545 S
N228 C211 1.343 . S
N229 C197 1.343 . S
N229 C204 1.346 . S
C230 C231 1.384 . S
C230 C232 1.384 . S
C230 H258 0.931 . S
C231 C230 1.384 . S
C231 C234 1.382 . S
C232 C230 1.384 . S
C232 C233 1.381 . S
C232 H259 0.930 . S
C233 C232 1.381 . S
C233 C235 1.381 . S
C233 C236 1.487 . S
C234 C231 1.382 . S
C234 C235 1.387 . S
C234 H260 0.930 . S
C235 C233 1.381 . S
C235 C234 1.387 . S
C235 H261 0.931 . S
C236 C233 1.487 . S
C236 C243 1.399 . S
C236 N274 1.343 . S
C237 C238 1.384 . S
C237 C239 1.384 . S
C237 H262 0.931 . S
C238 C237 1.384 . S
C238 C241 1.382 . S
C239 C237 1.384 . S
C239 C240 1.381 . S
C239 H263 0.930 . S
C240 C239 1.381 . S
C240 C242 1.381 . S
C240 C243 1.487 . S
C241 C238 1.382 . S
C241 C242 1.387 . S
C241 H264 0.930 . S
C242 C240 1.381 . S
C242 C241 1.387 . S
C242 H265 0.931 . S
C243 C236 1.399 . S
C243 C240 1.487 . S
C243 N275 1.343 . S
C244 C245 1.384 . S
C244 C246 1.384 . S
C244 H266 0.931 . S
C245 C244 1.384 . S
C245 C248 1.382 . S
C246 C244 1.384 . S
C246 C247 1.381 . S
C246 H267 0.930 . S
C247 C246 1.381 . S
C247 C249 1.381 . S
C247 C250 1.487 . S
C248 C245 1.382 . S
C248 C249 1.387 . S
C248 H268 0.930 . S
C249 C247 1.381 . S
C249 C248 1.387 . S
C249 H269 0.931 . S
C250 C247 1.487 . S
C250 C257 1.399 . S
C250 N275 1.343 . S
C251 C252 1.384 . S
C251 C253 1.384 . S
C251 H270 0.931 . S
C252 C251 1.384 . S
C252 C255 1.382 . S
C253 C251 1.384 . S
C253 C254 1.381 . S
C253 H271 0.930 . S
C254 C253 1.381 . S
C254 C256 1.381 . S
C254 C257 1.487 . S
C255 C252 1.382 . S
C255 C256 1.387 . S
C255 H272 0.930 . S
C256 C254 1.381 . S
C256 C255 1.387 . S
C256 H273 0.931 . S
C257 C250 1.399 . S
C257 C254 1.487 . S
C257 N274 1.343 . S
H258 C230 0.931 . S
H259 C232 0.930 . S
H260 C234 0.930 . S
H261 C235 0.931 . S
H262 C237 0.931 . S
H263 C239 0.930 . S
H264 C241 0.930 . S
H265 C242 0.931 . S
H266 C244 0.931 . S
H267 C246 0.930 . S
H268 C248 0.930 . S
H269 C249 0.931 . S
H270 C251 0.931 . S
H271 C253 0.930 . S
H272 C255 0.930 . S
H273 C256 0.931 . S
N274 C236 1.343 . S
N274 C257 1.343 . S
N275 C243 1.343 . S
N275 C250 1.343 . S
Li276 N293 1.990 . S
Li276 O336 1.956 . S
Li276 O337 1.970 . S
Li276 O338 1.961 . S
Li277 N301 1.990 . S
Li277 O336 1.970 . S
Li277 O337 1.956 . S
Li277 O339 1.961 . S
Li278 N323 1.990 . S
Li278 O336 1.961 . S
Li278 O338 1.956 . S
Li278 O339 1.970 . S
Li279 N329 1.990 . S
Li279 O337 1.961 . S
Li279 O338 1.970 . S
Li279 O339 1.956 . S
C280 C282 1.348 . S
C280 C283 1.356 . S
C280 O336 1.325 . S
N281 C284 1.314 . S
N281 C285 1.279 . S
C282 C280 1.348 . S
C282 C284 1.353 . S
C282 H340 0.929 . S
C283 C280 1.356 . S
C283 C285 1.358 . S
C283 H341 0.930 . S
C284 N281 1.314 . S
C284 C282 1.353 . S
C284 H342 0.930 . S
C285 N281 1.279 . S
C285 C283 1.358 . S
C285 H343 0.930 . S
C286 C289 1.348 . S
C286 C290 1.356 . S
C286 O337 1.325 . S
C287 N288 1.279 . S
C287 C290 1.358 . S
C287 H344 0.930 . S
N288 C287 1.279 . S
N288 C291 1.314 . S
C289 C286 1.348 . S
C289 C291 1.353 . S
C289 H345 0.929 . S
C290 C286 1.356 . S
C290 C287 1.358 . S
C290 H346 0.930 . S
C291 N288 1.314 . S
C291 C289 1.353 . S
C291 H347 0.930 . S
C292 N293 1.314 . S
C292 C297 1.353 . S
C292 H298 0.930 . S
N293 Li276 1.990 . S
N293 C292 1.314 . S
N293 C295 1.279 . S
C294 C295 1.358 . S
C294 C296 1.356 . S
C294 H348 0.930 . S
C295 N293 1.279 . S
C295 C294 1.358 . S
C295 H299 0.930 . S
C296 C294 1.356 . S
C296 C297 1.348 . S
C297 C292 1.353 . S
C297 C296 1.348 . S
C297 H349 0.929 . S
H298 C292 0.930 . S
H299 C295 0.930 . S
C300 N301 1.314 . S
C300 C302 1.353 . S
C300 H306 0.930 . S
N301 Li277 1.990 . S
N301 C300 1.314 . S
N301 C304 1.279 . S
C302 C300 1.353 . S
C302 C305 1.348 . S
C302 H350 0.929 . S
C303 C304 1.358 . S
C303 C305 1.356 . S
C303 H351 0.930 . S
C304 N301 1.279 . S
C304 C303 1.358 . S
C304 H307 0.930 . S
C305 C302 1.348 . S
C305 C303 1.356 . S
H306 C300 0.930 . S
H307 C304 0.930 . S
C308 C310 1.348 . S
C308 C311 1.356 . S
C308 O338 1.325 . S
N309 C312 1.314 . S
N309 C313 1.279 . S
C310 C308 1.348 . S
C310 C312 1.353 . S
C310 H352 0.929 . S
C311 C308 1.356 . S
C311 C313 1.358 . S
C311 H353 0.930 . S
C312 N309 1.314 . S
C312 C310 1.353 . S
C312 H354 0.930 . S
C313 N309 1.279 . S
C313 C311 1.358 . S
C313 H355 0.930 . S
C314 C315 1.348 . S
C314 C316 1.356 . S
C314 O339 1.325 . S
C315 C314 1.348 . S
C315 C317 1.353 . S
C315 H356 0.929 . S
C316 C314 1.356 . S
C316 C318 1.358 . S
C316 H357 0.930 . S
C317 C315 1.353 . S
C317 N319 1.314 . S
C317 H358 0.930 . S
C318 C316 1.358 . S
C318 N319 1.279 . S
C318 H359 0.930 . S
N319 C317 1.314 . S
N319 C318 1.279 . S
C320 C322 1.353 . S
C320 N323 1.314 . S
C320 H326 0.930 . S
C321 N323 1.279 . S
C321 C324 1.358 . S
C321 H327 0.930 . S
C322 C320 1.353 . S
C322 C325 1.348 . S
C322 H360 0.929 . S
N323 Li278 1.990 . S
N323 C320 1.314 . S
N323 C321 1.279 . S
C324 C321 1.358 . S
C324 C325 1.356 . S
C324 H361 0.930 . S
C325 C322 1.348 . S
C325 C324 1.356 . S
H326 C320 0.930 . S
H327 C321 0.930 . S
C328 N329 1.314 . S
C328 C330 1.353 . S
C328 H334 0.930 . S
N329 Li279 1.990 . S
N329 C328 1.314 . S
N329 C332 1.279 . S
C330 C328 1.353 . S
C330 C333 1.348 . S
C330 H362 0.929 . S
C331 C332 1.358 . S
C331 C333 1.356 . S
C331 H363 0.930 . S
C332 N329 1.279 . S
C332 C331 1.358 . S
C332 H335 0.930 . S
C333 C330 1.348 . S
C333 C331 1.356 . S
H334 C328 0.930 . S
H335 C332 0.930 . S
O336 Li276 1.956 . S
O336 Li277 1.970 . S
O336 Li278 1.961 . S
O336 C280 1.325 . S
O337 Li276 1.970 . S
O337 Li277 1.956 . S
O337 Li279 1.961 . S
O337 C286 1.325 . S
O338 Li276 1.961 . S
O338 Li278 1.956 . S
O338 Li279 1.970 . S
O338 C308 1.325 . S
O339 Li277 1.961 . S
O339 Li278 1.970 . S
O339 Li279 1.956 . S
O339 C314 1.325 . S
H340 C282 0.929 . S
H341 C283 0.930 . S
H342 C284 0.930 . S
H343 C285 0.930 . S
H344 C287 0.930 . S
H345 C289 0.929 . S
H346 C290 0.930 . S
H347 C291 0.930 . S
H348 C294 0.930 . S
H349 C297 0.929 . S
H350 C302 0.929 . S
H351 C303 0.930 . S
H352 C310 0.929 . S
H353 C311 0.930 . S
H354 C312 0.930 . S
H355 C313 0.930 . S
H356 C315 0.929 . S
H357 C316 0.930 . S
H358 C317 0.930 . S
H359 C318 0.930 . S
H360 C322 0.929 . S
H361 C324 0.930 . S
H362 C330 0.929 . S
H363 C331 0.930 . S
Li364 N381 1.990 . S
Li364 O424 1.956 . S
Li364 O425 1.970 . S
Li364 O426 1.961 . S
Li365 N389 1.990 . S
Li365 O424 1.970 . S
Li365 O425 1.956 . S
Li365 O427 1.961 . S
Li366 N411 1.990 . S
Li366 O424 1.961 . S
Li366 O426 1.956 . S
Li366 O427 1.970 . S
Li367 N417 1.990 . S
Li367 O425 1.961 . S
Li367 O426 1.970 . S
Li367 O427 1.956 . S
C368 C370 1.348 . S
C368 C371 1.356 . S
C368 O424 1.325 . S
N369 C372 1.314 . S
N369 C373 1.279 . S
C370 C368 1.348 . S
C370 C372 1.353 . S
C370 H428 0.929 . S
C371 C368 1.356 . S
C371 C373 1.358 . S
C371 H429 0.930 . S
C372 N369 1.314 . S
C372 C370 1.353 . S
C372 H430 0.930 . S
C373 N369 1.279 . S
C373 C371 1.358 . S
C373 H431 0.930 . S
C374 C377 1.348 . S
C374 C378 1.356 . S
C374 O425 1.325 . S
C375 N376 1.279 . S
C375 C378 1.358 . S
C375 H432 0.930 . S
N376 C375 1.279 . S
N376 C379 1.314 . S
C377 C374 1.348 . S
C377 C379 1.353 . S
C377 H433 0.929 . S
C378 C374 1.356 . S
C378 C375 1.358 . S
C378 H434 0.930 . S
C379 N376 1.314 . S
C379 C377 1.353 . S
C379 H435 0.930 . S
C380 N381 1.314 . S
C380 C385 1.353 . S
C380 H386 0.930 . S
N381 Li364 1.990 . S
N381 C380 1.314 . S
N381 C383 1.279 . S
C382 C383 1.358 . S
C382 C384 1.356 . S
C382 H436 0.930 . S
C383 N381 1.279 . S
C383 C382 1.358 . S
C383 H387 0.930 . S
C384 C382 1.356 . S
C384 C385 1.348 . S
C385 C380 1.353 . S
C385 C384 1.348 . S
C385 H437 0.929 . S
H386 C380 0.930 . S
H387 C383 0.930 . S
C388 N389 1.314 . S
C388 C390 1.353 . S
C388 H394 0.930 . S
N389 Li365 1.990 . S
N389 C388 1.314 . S
N389 C392 1.279 . S
C390 C388 1.353 . S
C390 C393 1.348 . S
C390 H438 0.929 . S
C391 C392 1.358 . S
C391 C393 1.356 . S
C391 H439 0.930 . S
C392 N389 1.279 . S
C392 C391 1.358 . S
C392 H395 0.930 . S
C393 C390 1.348 . S
C393 C391 1.356 . S
H394 C388 0.930 . S
H395 C392 0.930 . S
C396 C398 1.348 . S
C396 C399 1.356 . S
C396 O426 1.325 . S
N397 C400 1.314 . S
N397 C401 1.279 . S
C398 C396 1.348 . S
C398 C400 1.353 . S
C398 H440 0.929 . S
C399 C396 1.356 . S
C399 C401 1.358 . S
C399 H441 0.930 . S
C400 N397 1.314 . S
C400 C398 1.353 . S
C400 H442 0.930 . S
C401 N397 1.279 . S
C401 C399 1.358 . S
C401 H443 0.930 . S
C402 C403 1.348 . S
C402 C404 1.356 . S
C402 O427 1.325 . S
C403 C402 1.348 . S
C403 C405 1.353 . S
C403 H444 0.929 . S
C404 C402 1.356 . S
C404 C406 1.358 . S
C404 H445 0.930 . S
C405 C403 1.353 . S
C405 N407 1.314 . S
C405 H446 0.930 . S
C406 C404 1.358 . S
C406 N407 1.279 . S
C406 H447 0.930 . S
N407 C405 1.314 . S
N407 C406 1.279 . S
C408 C410 1.353 . S
C408 N411 1.314 . S
C408 H414 0.930 . S
C409 N411 1.279 . S
C409 C412 1.358 . S
C409 H415 0.930 . S
C410 C408 1.353 . S
C410 C413 1.348 . S
C410 H448 0.929 . S
N411 Li366 1.990 . S
N411 C408 1.314 . S
N411 C409 1.279 . S
C412 C409 1.358 . S
C412 C413 1.356 . S
C412 H449 0.930 . S
C413 C410 1.348 . S
C413 C412 1.356 . S
H414 C408 0.930 . S
H415 C409 0.930 . S
C416 N417 1.314 . S
C416 C418 1.353 . S
C416 H422 0.930 . S
N417 Li367 1.990 . S
N417 C416 1.314 . S
N417 C420 1.279 . S
C418 C416 1.353 . S
C418 C421 1.348 . S
C418 H450 0.929 . S
C419 C420 1.358 . S
C419 C421 1.356 . S
C419 H451 0.930 . S
C420 N417 1.279 . S
C420 C419 1.358 . S
C420 H423 0.930 . S
C421 C418 1.348 . S
C421 C419 1.356 . S
H422 C416 0.930 . S
H423 C420 0.930 . S
O424 Li364 1.956 . S
O424 Li365 1.970 . S
O424 Li366 1.961 . S
O424 C368 1.325 . S
O425 Li364 1.970 . S
O425 Li365 1.956 . S
O425 Li367 1.961 . S
O425 C374 1.325 . S
O426 Li364 1.961 . S
O426 Li366 1.956 . S
O426 Li367 1.970 . S
O426 C396 1.325 . S
O427 Li365 1.961 . S
O427 Li366 1.970 . S
O427 Li367 1.956 . S
O427 C402 1.325 . S
H428 C370 0.929 . S
H429 C371 0.930 . S
H430 C372 0.930 . S
H431 C373 0.930 . S
H432 C375 0.930 . S
H433 C377 0.929 . S
H434 C378 0.930 . S
H435 C379 0.930 . S
H436 C382 0.930 . S
H437 C385 0.929 . S
H438 C390 0.929 . S
H439 C391 0.930 . S
H440 C398 0.929 . S
H441 C399 0.930 . S
H442 C400 0.930 . S
H443 C401 0.930 . S
H444 C403 0.929 . S
H445 C404 0.930 . S
H446 C405 0.930 . S
H447 C406 0.930 . S
H448 C410 0.929 . S
H449 C412 0.930 . S
H450 C418 0.929 . S
H451 C419 0.930 . S
Li452 N469 1.990 . S
Li452 O512 1.956 . S
Li452 O513 1.970 . S
Li452 O514 1.961 . S
Li453 N477 1.990 . S
Li453 O512 1.970 . S
Li453 O513 1.956 . S
Li453 O515 1.961 . S
Li454 N499 1.990 . S
Li454 O512 1.961 . S
Li454 O514 1.956 . S
Li454 O515 1.970 . S
Li455 N505 1.990 . S
Li455 O513 1.961 . S
Li455 O514 1.970 . S
Li455 O515 1.956 . S
C456 C458 1.348 . S
C456 C459 1.356 . S
C456 O512 1.325 . S
N457 C460 1.314 . S
N457 C461 1.279 . S
C458 C456 1.348 . S
C458 C460 1.353 . S
C458 H516 0.929 . S
C459 C456 1.356 . S
C459 C461 1.358 . S
C459 H517 0.930 . S
C460 N457 1.314 . S
C460 C458 1.353 . S
C460 H518 0.930 . S
C461 N457 1.279 . S
C461 C459 1.358 . S
C461 H519 0.930 . S
C462 C465 1.348 . S
C462 C466 1.356 . S
C462 O513 1.325 . S
C463 N464 1.279 . S
C463 C466 1.358 . S
C463 H520 0.930 . S
N464 C463 1.279 . S
N464 C467 1.314 . S
C465 C462 1.348 . S
C465 C467 1.353 . S
C465 H521 0.929 . S
C466 C462 1.356 . S
C466 C463 1.358 . S
C466 H522 0.930 . S
C467 N464 1.314 . S
C467 C465 1.353 . S
C467 H523 0.930 . S
C468 N469 1.314 . S
C468 C473 1.353 . S
C468 H474 0.930 . S
N469 Li452 1.990 . S
N469 C468 1.314 . S
N469 C471 1.279 . S
C470 C471 1.358 . S
C470 C472 1.356 . S
C470 H524 0.930 . S
C471 N469 1.279 . S
C471 C470 1.358 . S
C471 H475 0.930 . S
C472 C470 1.356 . S
C472 C473 1.348 . S
C473 C468 1.353 . S
C473 C472 1.348 . S
C473 H525 0.929 . S
H474 C468 0.930 . S
H475 C471 0.930 . S
C476 N477 1.314 . S
C476 C478 1.353 . S
C476 H482 0.930 . S
N477 Li453 1.990 . S
N477 C476 1.314 . S
N477 C480 1.279 . S
C478 C476 1.353 . S
C478 C481 1.348 . S
C478 H526 0.929 . S
C479 C480 1.358 . S
C479 C481 1.356 . S
C479 H527 0.930 . S
C480 N477 1.279 . S
C480 C479 1.358 . S
C480 H483 0.930 . S
C481 C478 1.348 . S
C481 C479 1.356 . S
H482 C476 0.930 . S
H483 C480 0.930 . S
C484 C486 1.348 . S
C484 C487 1.356 . S
C484 O514 1.325 . S
N485 C488 1.314 . S
N485 C489 1.279 . S
C486 C484 1.348 . S
C486 C488 1.353 . S
C486 H528 0.929 . S
C487 C484 1.356 . S
C487 C489 1.358 . S
C487 H529 0.930 . S
C488 N485 1.314 . S
C488 C486 1.353 . S
C488 H530 0.930 . S
C489 N485 1.279 . S
C489 C487 1.358 . S
C489 H531 0.930 . S
C490 C491 1.348 . S
C490 C492 1.356 . S
C490 O515 1.325 . S
C491 C490 1.348 . S
C491 C493 1.353 . S
C491 H532 0.929 . S
C492 C490 1.356 . S
C492 C494 1.358 . S
C492 H533 0.930 . S
C493 C491 1.353 . S
C493 N495 1.314 . S
C493 H534 0.930 . S
C494 C492 1.358 . S
C494 N495 1.279 . S
C494 H535 0.930 . S
N495 C493 1.314 . S
N495 C494 1.279 . S
C496 C498 1.353 . S
C496 N499 1.314 . S
C496 H502 0.930 . S
C497 N499 1.279 . S
C497 C500 1.358 . S
C497 H503 0.930 . S
C498 C496 1.353 . S
C498 C501 1.348 . S
C498 H536 0.929 . S
N499 Li454 1.990 . S
N499 C496 1.314 . S
N499 C497 1.279 . S
C500 C497 1.358 . S
C500 C501 1.356 . S
C500 H537 0.930 . S
C501 C498 1.348 . S
C501 C500 1.356 . S
H502 C496 0.930 . S
H503 C497 0.930 . S
C504 N505 1.314 . S
C504 C506 1.353 . S
C504 H510 0.930 . S
N505 Li455 1.990 . S
N505 C504 1.314 . S
N505 C508 1.279 . S
C506 C504 1.353 . S
C506 C509 1.348 . S
C506 H538 0.929 . S
C507 C508 1.358 . S
C507 C509 1.356 . S
C507 H539 0.930 . S
C508 N505 1.279 . S
C508 C507 1.358 . S
C508 H511 0.930 . S
C509 C506 1.348 . S
C509 C507 1.356 . S
H510 C504 0.930 . S
H511 C508 0.930 . S
O512 Li452 1.956 . S
O512 Li453 1.970 . S
O512 Li454 1.961 . S
O512 C456 1.325 . S
O513 Li452 1.970 . S
O513 Li453 1.956 . S
O513 Li455 1.961 . S
O513 C462 1.325 . S
O514 Li452 1.961 . S
O514 Li454 1.956 . S
O514 Li455 1.970 . S
O514 C484 1.325 . S
O515 Li453 1.961 . S
O515 Li454 1.970 . S
O515 Li455 1.956 . S
O515 C490 1.325 . S
H516 C458 0.929 . S
H517 C459 0.930 . S
H518 C460 0.930 . S
H519 C461 0.930 . S
H520 C463 0.930 . S
H521 C465 0.929 . S
H522 C466 0.930 . S
H523 C467 0.930 . S
H524 C470 0.930 . S
H525 C473 0.929 . S
H526 C478 0.929 . S
H527 C479 0.930 . S
H528 C486 0.929 . S
H529 C487 0.930 . S
H530 C488 0.930 . S
H531 C489 0.930 . S
H532 C491 0.929 . S
H533 C492 0.930 . S
H534 C493 0.930 . S
H535 C494 0.930 . S
H536 C498 0.929 . S
H537 C500 0.930 . S
H538 C506 0.929 . S
H539 C507 0.930 . S
Li540 N557 1.990 . S
Li540 O600 1.956 . S
Li540 O601 1.970 . S
Li540 O602 1.961 . S
Li541 N565 1.990 . S
Li541 O600 1.970 . S
Li541 O601 1.956 . S
Li541 O603 1.961 . S
Li542 N587 1.990 . S
Li542 O600 1.961 . S
Li542 O602 1.956 . S
Li542 O603 1.970 . S
Li543 N593 1.990 . S
Li543 O601 1.961 . S
Li543 O602 1.970 . S
Li543 O603 1.956 . S
C544 C546 1.348 . S
C544 C547 1.356 . S
C544 O600 1.325 . S
N545 C548 1.314 . S
N545 C549 1.279 . S
C546 C544 1.348 . S
C546 C548 1.353 . S
C546 H604 0.929 . S
C547 C544 1.356 . S
C547 C549 1.358 . S
C547 H605 0.930 . S
C548 N545 1.314 . S
C548 C546 1.353 . S
C548 H606 0.930 . S
C549 N545 1.279 . S
C549 C547 1.358 . S
C549 H607 0.930 . S
C550 C553 1.348 . S
C550 C554 1.356 . S
C550 O601 1.325 . S
C551 N552 1.279 . S
C551 C554 1.358 . S
C551 H608 0.930 . S
N552 C551 1.279 . S
N552 C555 1.314 . S
C553 C550 1.348 . S
C553 C555 1.353 . S
C553 H609 0.929 . S
C554 C550 1.356 . S
C554 C551 1.358 . S
C554 H610 0.930 . S
C555 N552 1.314 . S
C555 C553 1.353 . S
C555 H611 0.930 . S
C556 N557 1.314 . S
C556 C561 1.353 . S
C556 H562 0.930 . S
N557 Li540 1.990 . S
N557 C556 1.314 . S
N557 C559 1.279 . S
C558 C559 1.358 1_554 S
C558 C560 1.356 . S
C558 H612 0.930 . S
C559 N557 1.279 . S
C559 C558 1.358 1_556 S
C559 H563 0.930 . S
C560 C558 1.356 . S
C560 C561 1.348 1_554 S
C561 C556 1.353 . S
C561 C560 1.348 1_556 S
C561 H613 0.929 . S
H562 C556 0.930 . S
H563 C559 0.930 . S
C564 N565 1.314 . S
C564 C566 1.353 . S
C564 H570 0.930 . S
N565 Li541 1.990 . S
N565 C564 1.314 . S
N565 C568 1.279 . S
C566 C564 1.353 . S
C566 C569 1.348 . S
C566 H614 0.929 . S
C567 C568 1.358 . S
C567 C569 1.356 . S
C567 H615 0.930 . S
C568 N565 1.279 . S
C568 C567 1.358 . S
C568 H571 0.930 . S
C569 C566 1.348 . S
C569 C567 1.356 . S
H570 C564 0.930 . S
H571 C568 0.930 . S
C572 C574 1.348 . S
C572 C575 1.356 . S
C572 O602 1.325 . S
N573 C576 1.314 . S
N573 C577 1.279 . S
C574 C572 1.348 . S
C574 C576 1.353 . S
C574 H616 0.929 . S
C575 C572 1.356 . S
C575 C577 1.358 . S
C575 H617 0.930 . S
C576 N573 1.314 . S
C576 C574 1.353 . S
C576 H618 0.930 . S
C577 N573 1.279 . S
C577 C575 1.358 . S
C577 H619 0.930 . S
C578 C579 1.348 . S
C578 C580 1.356 . S
C578 O603 1.325 . S
C579 C578 1.348 . S
C579 C581 1.353 . S
C579 H620 0.929 . S
C580 C578 1.356 . S
C580 C582 1.358 . S
C580 H621 0.930 . S
C581 C579 1.353 . S
C581 N583 1.314 . S
C581 H622 0.930 . S
C582 C580 1.358 . S
C582 N583 1.279 . S
C582 H623 0.930 . S
N583 C581 1.314 . S
N583 C582 1.279 . S
C584 C586 1.353 . S
C584 N587 1.314 . S
C584 H590 0.930 . S
C585 N587 1.279 . S
C585 C588 1.358 . S
C585 H591 0.930 . S
C586 C584 1.353 . S
C586 C589 1.348 . S
C586 H624 0.929 . S
N587 Li542 1.990 . S
N587 C584 1.314 . S
N587 C585 1.279 . S
C588 C585 1.358 . S
C588 C589 1.356 . S
C588 H625 0.930 . S
C589 C586 1.348 . S
C589 C588 1.356 . S
H590 C584 0.930 . S
H591 C585 0.930 . S
C592 N593 1.314 . S
C592 C594 1.353 . S
C592 H598 0.930 . S
N593 Li543 1.990 . S
N593 C592 1.314 . S
N593 C596 1.279 . S
C594 C592 1.353 . S
C594 C597 1.348 . S
C594 H626 0.929 . S
C595 C596 1.358 . S
C595 C597 1.356 . S
C595 H627 0.930 . S
C596 N593 1.279 . S
C596 C595 1.358 . S
C596 H599 0.930 . S
C597 C594 1.348 . S
C597 C595 1.356 . S
H598 C592 0.930 . S
H599 C596 0.930 . S
O600 Li540 1.956 . S
O600 Li541 1.970 . S
O600 Li542 1.961 . S
O600 C544 1.325 . S
O601 Li540 1.970 . S
O601 Li541 1.956 . S
O601 Li543 1.961 . S
O601 C550 1.325 . S
O602 Li540 1.961 . S
O602 Li542 1.956 . S
O602 Li543 1.970 . S
O602 C572 1.325 . S
O603 Li541 1.961 . S
O603 Li542 1.970 . S
O603 Li543 1.956 . S
O603 C578 1.325 . S
H604 C546 0.929 . S
H605 C547 0.930 . S
H606 C548 0.930 . S
H607 C549 0.930 . S
H608 C551 0.930 . S
H609 C553 0.929 . S
H610 C554 0.930 . S
H611 C555 0.930 . S
H612 C558 0.930 . S
H613 C561 0.929 . S
H614 C566 0.929 . S
H615 C567 0.930 . S
H616 C574 0.929 . S
H617 C575 0.930 . S
H618 C576 0.930 . S
H619 C577 0.930 . S
H620 C579 0.929 . S
H621 C580 0.930 . S
H622 C581 0.930 . S
H623 C582 0.930 . S
H624 C586 0.929 . S
H625 C588 0.930 . S
H626 C594 0.929 . S
H627 C595 0.930 . S
Li628 N645 1.990 . S
Li628 O688 1.956 . S
Li628 O689 1.970 . S
Li628 O690 1.961 . S
Li629 N653 1.990 . S
Li629 O688 1.970 . S
Li629 O689 1.956 . S
Li629 O691 1.961 . S
Li630 N675 1.990 . S
Li630 O688 1.961 . S
Li630 O690 1.956 . S
Li630 O691 1.970 . S
Li631 N681 1.990 . S
Li631 O689 1.961 . S
Li631 O690 1.970 . S
Li631 O691 1.956 . S
C632 C634 1.348 . S
C632 C635 1.356 . S
C632 O688 1.325 . S
N633 C636 1.314 . S
N633 C637 1.279 . S
C634 C632 1.348 . S
C634 C636 1.353 . S
C634 H692 0.929 . S
C635 C632 1.356 . S
C635 C637 1.358 . S
C635 H693 0.930 . S
C636 N633 1.314 . S
C636 C634 1.353 . S
C636 H694 0.930 . S
C637 N633 1.279 . S
C637 C635 1.358 . S
C637 H695 0.930 . S
C638 C641 1.348 . S
C638 C642 1.356 . S
C638 O689 1.325 . S
C639 N640 1.279 . S
C639 C642 1.358 . S
C639 H696 0.930 . S
N640 C639 1.279 . S
N640 C643 1.314 . S
C641 C638 1.348 . S
C641 C643 1.353 . S
C641 H697 0.929 . S
C642 C638 1.356 . S
C642 C639 1.358 . S
C642 H698 0.930 . S
C643 N640 1.314 . S
C643 C641 1.353 . S
C643 H699 0.930 . S
C644 N645 1.314 . S
C644 C649 1.353 . S
C644 H650 0.930 . S
N645 Li628 1.990 . S
N645 C644 1.314 . S
N645 C647 1.279 . S
C646 C647 1.358 . S
C646 C648 1.356 . S
C646 H700 0.930 . S
C647 N645 1.279 . S
C647 C646 1.358 . S
C647 H651 0.930 . S
C648 C646 1.356 . S
C648 C649 1.348 . S
C649 C644 1.353 . S
C649 C648 1.348 . S
C649 H701 0.929 . S
H650 C644 0.930 . S
H651 C647 0.930 . S
C652 N653 1.314 . S
C652 C654 1.353 . S
C652 H658 0.930 . S
N653 Li629 1.990 . S
N653 C652 1.314 . S
N653 C656 1.279 . S
C654 C652 1.353 . S
C654 C657 1.348 . S
C654 H702 0.929 . S
C655 C656 1.358 . S
C655 C657 1.356 . S
C655 H703 0.930 . S
C656 N653 1.279 . S
C656 C655 1.358 . S
C656 H659 0.930 . S
C657 C654 1.348 . S
C657 C655 1.356 . S
H658 C652 0.930 . S
H659 C656 0.930 . S
C660 C662 1.348 . S
C660 C663 1.356 . S
C660 O690 1.325 . S
N661 C664 1.314 1_556 S
N661 C665 1.279 1_556 S
C662 C660 1.348 . S
C662 C664 1.353 . S
C662 H704 0.929 . S
C663 C660 1.356 . S
C663 C665 1.358 . S
C663 H705 0.930 . S
C664 N661 1.314 1_554 S
C664 C662 1.353 . S
C664 H706 0.930 1_554 S
C665 N661 1.279 1_554 S
C665 C663 1.358 . S
C665 H707 0.926 1_554 S
C666 C667 1.348 . S
C666 C668 1.356 . S
C666 O691 1.325 . S
C667 C666 1.348 . S
C667 C669 1.353 . S
C667 H708 0.929 . S
C668 C666 1.356 . S
C668 C670 1.358 . S
C668 H709 0.930 . S
C669 C667 1.353 . S
C669 N671 1.314 . S
C669 H710 0.930 . S
C670 C668 1.358 . S
C670 N671 1.279 . S
C670 H711 0.930 . S
N671 C669 1.314 . S
N671 C670 1.279 . S
C672 C674 1.353 . S
C672 N675 1.314 . S
C672 H678 0.930 . S
C673 N675 1.279 . S
C673 C676 1.358 1_554 S
C673 H679 0.930 . S
C674 C672 1.353 . S
C674 C677 1.348 1_554 S
C674 H712 0.929 . S
N675 Li630 1.990 . S
N675 C672 1.314 . S
N675 C673 1.279 . S
C676 C673 1.358 1_556 S
C676 C677 1.356 . S
C676 H713 0.930 . S
C677 C674 1.348 1_556 S
C677 C676 1.356 . S
H678 C672 0.930 . S
H679 C673 0.930 . S
C680 N681 1.314 . S
C680 C682 1.353 . S
C680 H686 0.930 . S
N681 Li631 1.990 . S
N681 C680 1.314 . S
N681 C684 1.279 . S
C682 C680 1.353 . S
C682 C685 1.348 . S
C682 H714 0.929 . S
C683 C684 1.358 . S
C683 C685 1.356 . S
C683 H715 0.930 . S
C684 N681 1.279 . S
C684 C683 1.358 . S
C684 H687 0.930 . S
C685 C682 1.348 . S
C685 C683 1.356 . S
H686 C680 0.930 . S
H687 C684 0.930 . S
O688 Li628 1.956 . S
O688 Li629 1.970 . S
O688 Li630 1.961 . S
O688 C632 1.325 . S
O689 Li628 1.970 . S
O689 Li629 1.956 . S
O689 Li631 1.961 . S
O689 C638 1.325 . S
O690 Li628 1.961 . S
O690 Li630 1.956 . S
O690 Li631 1.970 . S
O690 C660 1.325 . S
O691 Li629 1.961 . S
O691 Li630 1.970 . S
O691 Li631 1.956 . S
O691 C666 1.325 . S
H692 C634 0.929 . S
H693 C635 0.930 . S
H694 C636 0.930 . S
H695 C637 0.930 . S
H696 C639 0.930 . S
H697 C641 0.929 . S
H698 C642 0.930 . S
H699 C643 0.930 . S
H700 C646 0.930 . S
H701 C649 0.929 . S
H702 C654 0.929 . S
H703 C655 0.930 . S
H704 C662 0.929 . S
H705 C663 0.930 . S
H706 C664 0.930 1_556 S
H707 C665 0.926 1_556 S
H708 C667 0.929 . S
H709 C668 0.930 . S
H710 C669 0.930 . S
H711 C670 0.930 . S
H712 C674 0.929 . S
H713 C676 0.930 . S
H714 C682 0.929 . S
H715 C683 0.930 . S
Li716 N733 1.990 . S
Li716 O776 1.956 . S
Li716 O777 1.970 . S
Li716 O778 1.961 . S
Li717 N741 1.990 . S
Li717 O776 1.970 . S
Li717 O777 1.956 . S
Li717 O779 1.961 . S
Li718 N763 1.990 . S
Li718 O776 1.961 . S
Li718 O778 1.956 . S
Li718 O779 1.970 . S
Li719 N769 1.990 . S
Li719 O777 1.961 . S
Li719 O778 1.970 . S
Li719 O779 1.956 . S
C720 C722 1.348 . S
C720 C723 1.356 . S
C720 O776 1.325 . S
N721 C724 1.314 . S
N721 C725 1.279 . S
C722 C720 1.348 . S
C722 C724 1.353 . S
C722 H780 0.929 . S
C723 C720 1.356 . S
C723 C725 1.358 . S
C723 H781 0.930 . S
C724 N721 1.314 . S
C724 C722 1.353 . S
C724 H782 0.930 . S
C725 N721 1.279 . S
C725 C723 1.358 . S
C725 H783 0.930 . S
C726 C729 1.348 . S
C726 C730 1.356 . S
C726 O777 1.325 . S
C727 N728 1.279 . S
C727 C730 1.358 . S
C727 H784 0.930 . S
N728 C727 1.279 . S
N728 C731 1.314 . S
C729 C726 1.348 . S
C729 C731 1.353 . S
C729 H785 0.929 . S
C730 C726 1.356 . S
C730 C727 1.358 . S
C730 H786 0.930 . S
C731 N728 1.314 . S
C731 C729 1.353 . S
C731 H787 0.930 . S
C732 N733 1.314 . S
C732 C737 1.353 . S
C732 H738 0.930 . S
N733 Li716 1.990 . S
N733 C732 1.314 . S
N733 C735 1.279 . S
C734 C735 1.358 . S
C734 C736 1.356 . S
C734 H788 0.930 . S
C735 N733 1.279 . S
C735 C734 1.358 . S
C735 H739 0.930 . S
C736 C734 1.356 . S
C736 C737 1.348 . S
C737 C732 1.353 . S
C737 C736 1.348 . S
C737 H789 0.929 . S
H738 C732 0.930 . S
H739 C735 0.930 . S
C740 N741 1.314 . S
C740 C742 1.353 . S
C740 H746 0.930 . S
N741 Li717 1.990 . S
N741 C740 1.314 . S
N741 C744 1.279 . S
C742 C740 1.353 . S
C742 C745 1.348 . S
C742 H790 0.929 . S
C743 C744 1.358 . S
C743 C745 1.356 . S
C743 H791 0.930 . S
C744 N741 1.279 . S
C744 C743 1.358 . S
C744 H747 0.930 . S
C745 C742 1.348 . S
C745 C743 1.356 . S
H746 C740 0.930 . S
H747 C744 0.930 . S
C748 C750 1.348 . S
C748 C751 1.356 . S
C748 O778 1.325 . S
N749 C752 1.314 . S
N749 C753 1.279 . S
C750 C748 1.348 . S
C750 C752 1.353 . S
C750 H792 0.929 . S
C751 C748 1.356 . S
C751 C753 1.358 . S
C751 H793 0.930 . S
C752 N749 1.314 . S
C752 C750 1.353 . S
C752 H794 0.930 . S
C753 N749 1.279 . S
C753 C751 1.358 . S
C753 H795 0.930 . S
C754 C755 1.348 . S
C754 C756 1.356 . S
C754 O779 1.325 . S
C755 C754 1.348 . S
C755 C757 1.353 . S
C755 H796 0.929 . S
C756 C754 1.356 . S
C756 C758 1.358 . S
C756 H797 0.930 . S
C757 C755 1.353 . S
C757 N759 1.314 . S
C757 H798 0.930 . S
C758 C756 1.358 . S
C758 N759 1.279 . S
C758 H799 0.930 . S
N759 C757 1.314 . S
N759 C758 1.279 . S
C760 C762 1.353 . S
C760 N763 1.314 . S
C760 H766 0.930 . S
C761 N763 1.279 . S
C761 C764 1.358 . S
C761 H767 0.930 . S
C762 C760 1.353 . S
C762 C765 1.348 . S
C762 H800 0.929 . S
N763 Li718 1.990 . S
N763 C760 1.314 . S
N763 C761 1.279 . S
C764 C761 1.358 . S
C764 C765 1.356 . S
C764 H801 0.930 . S
C765 C762 1.348 . S
C765 C764 1.356 . S
H766 C760 0.930 . S
H767 C761 0.930 . S
C768 N769 1.314 . S
C768 C770 1.353 . S
C768 H774 0.930 . S
N769 Li719 1.990 . S
N769 C768 1.314 . S
N769 C772 1.279 . S
C770 C768 1.353 . S
C770 C773 1.348 . S
C770 H802 0.929 . S
C771 C772 1.358 . S
C771 C773 1.356 . S
C771 H803 0.930 . S
C772 N769 1.279 . S
C772 C771 1.358 . S
C772 H775 0.930 . S
C773 C770 1.348 . S
C773 C771 1.356 . S
H774 C768 0.930 . S
H775 C772 0.930 . S
O776 Li716 1.956 . S
O776 Li717 1.970 . S
O776 Li718 1.961 . S
O776 C720 1.325 . S
O777 Li716 1.970 . S
O777 Li717 1.956 . S
O777 Li719 1.961 . S
O777 C726 1.325 . S
O778 Li716 1.961 . S
O778 Li718 1.956 . S
O778 Li719 1.970 . S
O778 C748 1.325 . S
O779 Li717 1.961 . S
O779 Li718 1.970 . S
O779 Li719 1.956 . S
O779 C754 1.325 . S
H780 C722 0.929 . S
H781 C723 0.930 . S
H782 C724 0.930 . S
H783 C725 0.930 . S
H784 C727 0.930 . S
H785 C729 0.929 . S
H786 C730 0.930 . S
H787 C731 0.930 . S
H788 C734 0.930 . S
H789 C737 0.929 . S
H790 C742 0.929 . S
H791 C743 0.930 . S
H792 C750 0.929 . S
H793 C751 0.930 . S
H794 C752 0.930 . S
H795 C753 0.930 . S
H796 C755 0.929 . S
H797 C756 0.930 . S
H798 C757 0.930 . S
H799 C758 0.930 . S
H800 C762 0.929 . S
H801 C764 0.930 . S
H802 C770 0.929 . S
H803 C771 0.930 . S
C804 C805 1.363 . S
C804 C810 1.379 . S
C804 N812 1.356 . S
C805 C804 1.363 . S
C805 C811 1.363 . S
C806 C807 1.363 . S
C806 C811 1.379 . S
C806 N813 1.356 . S
C807 C806 1.363 . S
C807 C810 1.363 . S
N808 C810 1.356 . S
N808 H820 0.984 . S
N808 H821 0.985 . S
N809 C811 1.356 . S
N809 H814 0.984 . S
N809 H815 0.985 . S
C810 C804 1.379 . S
C810 C807 1.363 . S
C810 N808 1.356 . S
C811 C805 1.363 . S
C811 C806 1.379 . S
C811 N809 1.356 . S
N812 C804 1.356 . S
N812 H818 0.984 . S
N812 H819 0.984 . S
N813 C806 1.356 . S
N813 H816 0.984 . S
N813 H817 0.985 . S
H814 N809 0.984 . S
H815 N809 0.985 . S
H816 N813 0.984 . S
H817 N813 0.985 . S
H818 N812 0.984 . S
H819 N812 0.984 . S
H820 N808 0.984 . S
H821 N808 0.985 . S
C822 C823 1.363 . S
C822 C828 1.379 . S
C822 N830 1.356 . S
C823 C822 1.363 . S
C823 C829 1.363 . S
C824 C825 1.363 . S
C824 C829 1.379 . S
C824 N831 1.356 . S
C825 C824 1.363 . S
C825 C828 1.363 . S
N826 C828 1.356 . S
N826 H838 0.984 . S
N826 H839 0.985 . S
N827 C829 1.356 . S
N827 H832 0.984 . S
N827 H833 0.985 . S
C828 C822 1.379 . S
C828 C825 1.363 . S
C828 N826 1.356 . S
C829 C823 1.363 . S
C829 C824 1.379 . S
C829 N827 1.356 . S
N830 C822 1.356 . S
N830 H836 0.984 . S
N830 H837 0.984 . S
N831 C824 1.356 . S
N831 H834 0.984 . S
N831 H835 0.985 . S
H832 N827 0.984 . S
H833 N827 0.985 . S
H834 N831 0.984 . S
H835 N831 0.985 . S
H836 N830 0.984 . S
H837 N830 0.984 . S
H838 N826 0.984 . S
H839 N826 0.985 . S
C840 C841 1.363 . S
C840 C846 1.379 . S
C840 N848 1.356 . S
C841 C840 1.363 . S
C841 C847 1.363 . S
C842 C843 1.363 . S
C842 C847 1.379 . S
C842 N849 1.356 . S
C843 C842 1.363 . S
C843 C846 1.363 . S
N844 C846 1.356 . S
N844 H856 0.984 . S
N844 H857 0.985 . S
N845 C847 1.356 . S
N845 H850 0.984 . S
N845 H851 0.985 . S
C846 C840 1.379 . S
C846 C843 1.363 . S
C846 N844 1.356 . S
C847 C841 1.363 . S
C847 C842 1.379 . S
C847 N845 1.356 . S
N848 C840 1.356 . S
N848 H854 0.984 . S
N848 H855 0.984 . S
N849 C842 1.356 . S
N849 H852 0.984 . S
N849 H853 0.985 . S
H850 N845 0.984 . S
H851 N845 0.985 . S
H852 N849 0.984 . S
H853 N849 0.985 . S
H854 N848 0.984 . S
H855 N848 0.984 . S
H856 N844 0.984 . S
H857 N844 0.985 . S
C858 C859 1.363 . S
C858 C864 1.379 . S
C858 N866 1.356 . S
C859 C858 1.363 . S
C859 C865 1.363 . S
C860 C861 1.363 . S
C860 C865 1.379 . S
C860 N867 1.356 . S
C861 C860 1.363 . S
C861 C864 1.363 . S
N862 C864 1.356 . S
N862 H874 0.984 . S
N862 H875 0.985 . S
N863 C865 1.356 . S
N863 H868 0.984 . S
N863 H869 0.985 . S
C864 C858 1.379 . S
C864 C861 1.363 . S
C864 N862 1.356 . S
C865 C859 1.363 . S
C865 C860 1.379 . S
C865 N863 1.356 . S
N866 C858 1.356 . S
N866 H872 0.984 . S
N866 H873 0.984 . S
N867 C860 1.356 . S
N867 H870 0.984 . S
N867 H871 0.985 . S
H868 N863 0.984 . S
H869 N863 0.985 . S
H870 N867 0.984 . S
H871 N867 0.985 . S
H872 N866 0.984 . S
H873 N866 0.984 . S
H874 N862 0.984 . S
H875 N862 0.985 . S
C876 C877 1.363 . S
C876 C882 1.379 . S
C876 N884 1.356 . S
C877 C876 1.363 . S
C877 C883 1.363 . S
C878 C879 1.363 . S
C878 C883 1.379 . S
C878 N885 1.356 . S
C879 C878 1.363 . S
C879 C882 1.363 . S
N880 C882 1.356 . S
N880 H892 0.984 . S
N880 H893 0.985 . S
N881 C883 1.356 . S
N881 H886 0.984 . S
N881 H887 0.985 . S
C882 C876 1.379 . S
C882 C879 1.363 . S
C882 N880 1.356 . S
C883 C877 1.363 . S
C883 C878 1.379 . S
C883 N881 1.356 . S
N884 C876 1.356 . S
N884 H890 0.984 . S
N884 H891 0.984 . S
N885 C878 1.356 . S
N885 H888 0.984 . S
N885 H889 0.985 . S
H886 N881 0.984 . S
H887 N881 0.985 . S
H888 N885 0.984 . S
H889 N885 0.985 . S
H890 N884 0.984 . S
H891 N884 0.984 . S
H892 N880 0.984 . S
H893 N880 0.985 . S
C894 C895 1.363 . S
C894 C900 1.379 . S
C894 N902 1.356 . S
C895 C894 1.363 . S
C895 C901 1.363 . S
C896 C897 1.363 . S
C896 C901 1.379 . S
C896 N903 1.356 . S
C897 C896 1.363 . S
C897 C900 1.363 . S
N898 C900 1.356 . S
N898 H910 0.984 . S
N898 H911 0.985 . S
N899 C901 1.356 . S
N899 H904 0.984 . S
N899 H905 0.985 . S
C900 C894 1.379 . S
C900 C897 1.363 . S
C900 N898 1.356 . S
C901 C895 1.363 . S
C901 C896 1.379 . S
C901 N899 1.356 . S
N902 C894 1.356 . S
N902 H908 0.984 . S
N902 H909 0.984 . S
N903 C896 1.356 . S
N903 H906 0.984 . S
N903 H907 0.985 . S
H904 N899 0.984 . S
H905 N899 0.985 . S
H906 N903 0.984 . S
H907 N903 0.985 . S
H908 N902 0.984 . S
H909 N902 0.984 . S
H910 N898 0.984 . S
H911 N898 0.985 . S
C912 C913 1.363 . S
C912 C918 1.379 . S
C912 N920 1.356 . S
C913 C912 1.363 . S
C913 C919 1.363 . S
C914 C915 1.363 . S
C914 C919 1.379 . S
C914 N921 1.356 . S
C915 C914 1.363 . S
C915 C918 1.363 . S
N916 C918 1.356 . S
N916 H928 0.984 . S
N916 H929 0.985 . S
N917 C919 1.356 . S
N917 H922 0.984 . S
N917 H923 0.985 . S
C918 C912 1.379 . S
C918 C915 1.363 . S
C918 N916 1.356 . S
C919 C913 1.363 . S
C919 C914 1.379 . S
C919 N917 1.356 . S
N920 C912 1.356 . S
N920 H926 0.984 . S
N920 H927 0.984 . S
N921 C914 1.356 . S
N921 H924 0.984 . S
N921 H925 0.985 . S
H922 N917 0.984 . S
H923 N917 0.985 . S
H924 N921 0.984 . S
H925 N921 0.985 . S
H926 N920 0.984 . S
H927 N920 0.984 . S
H928 N916 0.984 . S
H929 N916 0.985 . S
C930 C931 1.363 . S
C930 C936 1.379 . S
C930 N938 1.356 . S
C931 C930 1.363 . S
C931 C937 1.363 . S
C932 C933 1.363 . S
C932 C937 1.379 . S
C932 N939 1.356 . S
C933 C932 1.363 . S
C933 C936 1.363 . S
N934 C936 1.356 . S
N934 H946 0.984 . S
N934 H947 0.985 . S
N935 C937 1.356 . S
N935 H940 0.984 . S
N935 H941 0.985 . S
C936 C930 1.379 . S
C936 C933 1.363 . S
C936 N934 1.356 . S
C937 C931 1.363 . S
C937 C932 1.379 . S
C937 N935 1.356 . S
N938 C930 1.356 . S
N938 H944 0.984 . S
N938 H945 0.984 . S
N939 C932 1.356 . S
N939 H942 0.984 . S
N939 H943 0.985 . S
H940 N935 0.984 . S
H941 N935 0.985 . S
H942 N939 0.984 . S
H943 N939 0.985 . S
H944 N938 0.984 . S
H945 N938 0.984 . S
H946 N934 0.984 . S
H947 N934 0.985 . S
C948 C949 1.363 . S
C948 C954 1.379 . S
C948 N956 1.356 . S
C949 C948 1.363 . S
C949 C955 1.363 . S
C950 C951 1.363 . S
C950 C955 1.379 . S
C950 N957 1.356 . S
C951 C950 1.363 . S
C951 C954 1.363 . S
N952 C954 1.356 . S
N952 H964 0.984 . S
N952 H965 0.985 . S
N953 C955 1.356 . S
N953 H958 0.984 . S
N953 H959 0.985 . S
C954 C948 1.379 . S
C954 C951 1.363 . S
C954 N952 1.356 . S
C955 C949 1.363 . S
C955 C950 1.379 . S
C955 N953 1.356 . S
N956 C948 1.356 . S
N956 H962 0.984 . S
N956 H963 0.984 . S
N957 C950 1.356 . S
N957 H960 0.984 . S
N957 H961 0.985 . S
H958 N953 0.984 . S
H959 N953 0.985 . S
H960 N957 0.984 . S
H961 N957 0.985 . S
H962 N956 0.984 . S
H963 N956 0.984 . S
H964 N952 0.984 . S
H965 N952 0.985 . S
C966 C967 1.363 . S
C966 C972 1.379 . S
C966 N974 1.356 . S
C967 C966 1.363 . S
C967 C973 1.363 . S
C968 C969 1.363 . S
C968 C973 1.379 . S
C968 N975 1.356 . S
C969 C968 1.363 . S
C969 C972 1.363 . S
N970 C972 1.356 . S
N970 H982 0.984 . S
N970 H983 0.985 . S
N971 C973 1.356 . S
N971 H976 0.984 . S
N971 H977 0.985 . S
C972 C966 1.379 . S
C972 C969 1.363 . S
C972 N970 1.356 . S
C973 C967 1.363 . S
C973 C968 1.379 . S
C973 N971 1.356 . S
N974 C966 1.356 . S
N974 H980 0.984 1_554 S
N974 H981 0.984 . S
N975 C968 1.356 . S
N975 H978 0.984 . S
N975 H979 0.985 . S
H976 N971 0.984 . S
H977 N971 0.985 . S
H978 N975 0.984 . S
H979 N975 0.985 . S
H980 N974 0.984 1_556 S
H981 N974 0.984 . S
H982 N970 0.984 . S
H983 N970 0.985 . S
C984 C985 1.363 . S
C984 C990 1.379 . S
C984 N992 1.356 . S
C985 C984 1.363 . S
C985 C991 1.363 . S
C986 C987 1.363 . S
C986 C991 1.379 . S
C986 N993 1.356 . S
C987 C986 1.363 . S
C987 C990 1.363 . S
N988 C990 1.356 . S
N988 H1000 0.984 . S
N988 H1001 0.985 . S
N989 C991 1.356 . S
N989 H994 0.984 . S
N989 H995 0.985 . S
C990 C984 1.379 . S
C990 C987 1.363 . S
C990 N988 1.356 . S
C991 C985 1.363 . S
C991 C986 1.379 . S
C991 N989 1.356 . S
N992 C984 1.356 . S
N992 H998 0.984 . S
N992 H999 0.984 . S
N993 C986 1.356 . S
N993 H996 0.984 . S
N993 H997 0.985 . S
H994 N989 0.984 . S
H995 N989 0.985 . S
H996 N993 0.984 . S
H997 N993 0.985 . S
H998 N992 0.984 . S
H999 N992 0.984 . S
H1000 N988 0.984 . S
H1001 N988 0.985 . S
C1002 C1003 1.363 . S
C1002 C1008 1.379 . S
C1002 N1010 1.356 . S
C1003 C1002 1.363 . S
C1003 C1009 1.363 . S
C1004 C1005 1.363 . S
C1004 C1009 1.379 . S
C1004 N1011 1.356 . S
C1005 C1004 1.363 . S
C1005 C1008 1.363 . S
N1006 C1008 1.356 . S
N1006 H1018 0.984 . S
N1006 H1019 0.985 . S
N1007 C1009 1.356 . S
N1007 H1012 0.984 . S
N1007 H1013 0.985 . S
C1008 C1002 1.379 . S
C1008 C1005 1.363 . S
C1008 N1006 1.356 . S
C1009 C1003 1.363 . S
C1009 C1004 1.379 . S
C1009 N1007 1.356 . S
N1010 C1002 1.356 . S
N1010 H1016 0.984 . S
N1010 H1017 0.984 . S
N1011 C1004 1.356 . S
N1011 H1014 0.984 . S
N1011 H1015 0.985 . S
H1012 N1007 0.984 . S
H1013 N1007 0.985 . S
H1014 N1011 0.984 . S
H1015 N1011 0.985 . S
H1016 N1010 0.984 . S
H1017 N1010 0.984 . S
H1018 N1006 0.984 . S
H1019 N1006 0.985 . S
C1020 C1021 1.363 . S
C1020 C1026 1.379 . S
C1020 N1028 1.356 . S
C1021 C1020 1.363 . S
C1021 C1027 1.363 . S
C1022 C1023 1.363 . S
C1022 C1027 1.379 . S
C1022 N1029 1.356 . S
C1023 C1022 1.363 . S
C1023 C1026 1.363 . S
N1024 C1026 1.356 . S
N1024 H1036 0.984 . S
N1024 H1037 0.985 . S
N1025 C1027 1.356 . S
N1025 H1030 0.984 . S
N1025 H1031 0.985 . S
C1026 C1020 1.379 . S
C1026 C1023 1.363 . S
C1026 N1024 1.356 . S
C1027 C1021 1.363 . S
C1027 C1022 1.379 . S
C1027 N1025 1.356 . S
N1028 C1020 1.356 . S
N1028 H1034 0.984 . S
N1028 H1035 0.984 . S
N1029 C1022 1.356 . S
N1029 H1032 0.984 . S
N1029 H1033 0.985 . S
H1030 N1025 0.984 . S
H1031 N1025 0.985 . S
H1032 N1029 0.984 . S
H1033 N1029 0.985 . S
H1034 N1028 0.984 . S
H1035 N1028 0.984 . S
H1036 N1024 0.984 . S
H1037 N1024 0.985 . S
C1038 C1039 1.363 . S
C1038 C1044 1.379 . S
C1038 N1046 1.356 . S
C1039 C1038 1.363 . S
C1039 C1045 1.363 . S
C1040 C1041 1.363 . S
C1040 C1045 1.379 . S
C1040 N1047 1.356 . S
C1041 C1040 1.363 . S
C1041 C1044 1.363 . S
N1042 C1044 1.356 . S
N1042 H1054 0.984 . S
N1042 H1055 0.985 . S
N1043 C1045 1.356 . S
N1043 H1048 0.984 . S
N1043 H1049 0.985 . S
C1044 C1038 1.379 . S
C1044 C1041 1.363 . S
C1044 N1042 1.356 . S
C1045 C1039 1.363 . S
C1045 C1040 1.379 . S
C1045 N1043 1.356 . S
N1046 C1038 1.356 . S
N1046 H1052 0.984 . S
N1046 H1053 0.984 . S
N1047 C1040 1.356 . S
N1047 H1050 0.984 . S
N1047 H1051 0.985 . S
H1048 N1043 0.984 . S
H1049 N1043 0.985 . S
H1050 N1047 0.984 . S
H1051 N1047 0.985 . S
H1052 N1046 0.984 . S
H1053 N1046 0.984 . S
H1054 N1042 0.984 . S
H1055 N1042 0.985 . S
C1056 C1057 1.363 . S
C1056 C1062 1.379 . S
C1056 N1064 1.356 . S
C1057 C1056 1.363 . S
C1057 C1063 1.363 . S
C1058 C1059 1.363 . S
C1058 C1063 1.379 . S
C1058 N1065 1.356 . S
C1059 C1058 1.363 . S
C1059 C1062 1.363 . S
N1060 C1062 1.356 . S
N1060 H1072 0.984 . S
N1060 H1073 0.985 . S
N1061 C1063 1.356 . S
N1061 H1066 0.984 . S
N1061 H1067 0.985 . S
C1062 C1056 1.379 . S
C1062 C1059 1.363 . S
C1062 N1060 1.356 . S
C1063 C1057 1.363 . S
C1063 C1058 1.379 . S
C1063 N1061 1.356 . S
N1064 C1056 1.356 . S
N1064 H1070 0.984 . S
N1064 H1071 0.984 . S
N1065 C1058 1.356 . S
N1065 H1068 0.984 . S
N1065 H1069 0.985 . S
H1066 N1061 0.984 . S
H1067 N1061 0.985 . S
H1068 N1065 0.984 . S
H1069 N1065 0.985 . S
H1070 N1064 0.984 . S
H1071 N1064 0.984 . S
H1072 N1060 0.984 . S
H1073 N1060 0.985 . S
C1074 C1075 1.363 . S
C1074 C1080 1.379 . S
C1074 N1082 1.356 . S
C1075 C1074 1.363 . S
C1075 C1081 1.363 . S
C1076 C1077 1.363 . S
C1076 C1081 1.379 . S
C1076 N1083 1.356 . S
C1077 C1076 1.363 . S
C1077 C1080 1.363 . S
N1078 C1080 1.356 . S
N1078 H1090 0.984 . S
N1078 H1091 0.985 . S
N1079 C1081 1.356 . S
N1079 H1084 0.984 . S
N1079 H1085 0.985 . S
C1080 C1074 1.379 . S
C1080 C1077 1.363 . S
C1080 N1078 1.356 . S
C1081 C1075 1.363 . S
C1081 C1076 1.379 . S
C1081 N1079 1.356 . S
N1082 C1074 1.356 . S
N1082 H1088 0.984 . S
N1082 H1089 0.984 . S
N1083 C1076 1.356 . S
N1083 H1086 0.979 1_556 S
N1083 H1087 0.985 . S
H1084 N1079 0.984 . S
H1085 N1079 0.985 . S
H1086 N1083 0.979 1_554 S
H1087 N1083 0.985 . S
H1088 N1082 0.984 . S
H1089 N1082 0.984 . S
H1090 N1078 0.984 . S
H1091 N1078 0.985 . S
C1092 C1093 1.363 . S
C1092 C1098 1.379 . S
C1092 N1100 1.356 . S
C1093 C1092 1.363 . S
C1093 C1099 1.363 . S
C1094 C1095 1.363 . S
C1094 C1099 1.379 . S
C1094 N1101 1.356 . S
C1095 C1094 1.363 . S
C1095 C1098 1.363 . S
N1096 C1098 1.356 . S
N1096 H1108 0.984 . S
N1096 H1109 0.985 . S
N1097 C1099 1.356 . S
N1097 H1102 0.984 . S
N1097 H1103 0.985 . S
C1098 C1092 1.379 . S
C1098 C1095 1.363 . S
C1098 N1096 1.356 . S
C1099 C1093 1.363 . S
C1099 C1094 1.379 . S
C1099 N1097 1.356 . S
N1100 C1092 1.356 . S
N1100 H1106 0.984 . S
N1100 H1107 0.984 . S
N1101 C1094 1.356 . S
N1101 H1104 0.984 . S
N1101 H1105 0.985 . S
H1102 N1097 0.984 . S
H1103 N1097 0.985 . S
H1104 N1101 0.984 . S
H1105 N1101 0.985 . S
H1106 N1100 0.984 . S
H1107 N1100 0.984 . S
H1108 N1096 0.984 . S
H1109 N1096 0.985 . S
C1110 C1111 1.363 . S
C1110 C1116 1.379 . S
C1110 N1118 1.356 . S
C1111 C1110 1.363 . S
C1111 C1117 1.363 . S
C1112 C1113 1.363 . S
C1112 C1117 1.379 . S
C1112 N1119 1.356 . S
C1113 C1112 1.363 . S
C1113 C1116 1.363 . S
N1114 C1116 1.356 . S
N1114 H1126 0.984 . S
N1114 H1127 0.985 . S
N1115 C1117 1.356 . S
N1115 H1120 0.984 . S
N1115 H1121 0.985 . S
C1116 C1110 1.379 . S
C1116 C1113 1.363 . S
C1116 N1114 1.356 . S
C1117 C1111 1.363 . S
C1117 C1112 1.379 . S
C1117 N1115 1.356 . S
N1118 C1110 1.356 . S
N1118 H1124 0.984 . S
N1118 H1125 0.984 . S
N1119 C1112 1.356 . S
N1119 H1122 0.984 . S
N1119 H1123 0.985 . S
H1120 N1115 0.984 . S
H1121 N1115 0.985 . S
H1122 N1119 0.984 . S
H1123 N1119 0.985 . S
H1124 N1118 0.984 . S
H1125 N1118 0.984 . S
H1126 N1114 0.984 . S
H1127 N1114 0.985 . S
C1128 C1129 1.363 . S
C1128 C1134 1.379 . S
C1128 N1136 1.356 . S
C1129 C1128 1.363 . S
C1129 C1135 1.363 . S
C1130 C1131 1.363 . S
C1130 C1135 1.379 . S
C1130 N1137 1.356 . S
C1131 C1130 1.363 . S
C1131 C1134 1.363 . S
N1132 C1134 1.356 . S
N1132 H1144 0.984 . S
N1132 H1145 0.985 . S
N1133 C1135 1.356 . S
N1133 H1138 0.984 . S
N1133 H1139 0.985 . S
C1134 C1128 1.379 . S
C1134 C1131 1.363 . S
C1134 N1132 1.356 . S
C1135 C1129 1.363 . S
C1135 C1130 1.379 . S
C1135 N1133 1.356 . S
N1136 C1128 1.356 . S
N1136 H1142 0.984 . S
N1136 H1143 0.984 . S
N1137 C1130 1.356 . S
N1137 H1140 0.984 . S
N1137 H1141 0.985 . S
H1138 N1133 0.984 . S
H1139 N1133 0.985 . S
H1140 N1137 0.984 . S
H1141 N1137 0.985 . S
H1142 N1136 0.984 . S
H1143 N1136 0.984 . S
H1144 N1132 0.984 . S
H1145 N1132 0.985 . S
C1146 C1147 1.363 . S
C1146 C1152 1.379 . S
C1146 N1154 1.356 . S
C1147 C1146 1.363 . S
C1147 C1153 1.363 . S
C1148 C1149 1.363 . S
C1148 C1153 1.379 . S
C1148 N1155 1.356 . S
C1149 C1148 1.363 . S
C1149 C1152 1.363 . S
N1150 C1152 1.356 . S
N1150 H1162 0.984 . S
N1150 H1163 0.985 . S
N1151 C1153 1.356 . S
N1151 H1156 0.984 . S
N1151 H1157 0.985 . S
C1152 C1146 1.379 . S
C1152 C1149 1.363 . S
C1152 N1150 1.356 . S
C1153 C1147 1.363 . S
C1153 C1148 1.379 . S
C1153 N1151 1.356 . S
N1154 C1146 1.356 . S
N1154 H1160 0.984 . S
N1154 H1161 0.984 . S
N1155 C1148 1.356 . S
N1155 H1158 0.984 . S
N1155 H1159 0.985 . S
H1156 N1151 0.984 . S
H1157 N1151 0.985 . S
H1158 N1155 0.984 . S
H1159 N1155 0.985 . S
H1160 N1154 0.984 . S
H1161 N1154 0.984 . S
H1162 N1150 0.984 . S
H1163 N1150 0.985 . S
C1164 C1165 1.363 . S
C1164 C1170 1.379 . S
C1164 N1172 1.356 . S
C1165 C1164 1.363 . S
C1165 C1171 1.363 . S
C1166 C1167 1.363 . S
C1166 C1171 1.379 . S
C1166 N1173 1.356 . S
C1167 C1166 1.363 . S
C1167 C1170 1.363 . S
N1168 C1170 1.356 . S
N1168 H1180 0.984 . S
N1168 H1181 0.985 . S
N1169 C1171 1.356 . S
N1169 H1174 0.984 . S
N1169 H1175 0.985 . S
C1170 C1164 1.379 . S
C1170 C1167 1.363 . S
C1170 N1168 1.356 . S
C1171 C1165 1.363 . S
C1171 C1166 1.379 . S
C1171 N1169 1.356 . S
N1172 C1164 1.356 . S
N1172 H1178 0.984 . S
N1172 H1179 0.984 . S
N1173 C1166 1.356 . S
N1173 H1176 0.984 . S
N1173 H1177 0.985 . S
H1174 N1169 0.984 . S
H1175 N1169 0.985 . S
H1176 N1173 0.984 . S
H1177 N1173 0.985 . S
H1178 N1172 0.984 . S
H1179 N1172 0.984 . S
H1180 N1168 0.984 . S
H1181 N1168 0.985 . S
C1182 C1183 1.363 . S
C1182 C1188 1.379 . S
C1182 N1190 1.356 . S
C1183 C1182 1.363 . S
C1183 C1189 1.363 . S
C1184 C1185 1.363 . S
C1184 C1189 1.379 . S
C1184 N1191 1.356 . S
C1185 C1184 1.363 . S
C1185 C1188 1.363 . S
N1186 C1188 1.356 . S
N1186 H1198 0.984 . S
N1186 H1199 0.985 . S
N1187 C1189 1.356 . S
N1187 H1192 0.984 . S
N1187 H1193 0.985 . S
C1188 C1182 1.379 . S
C1188 C1185 1.363 . S
C1188 N1186 1.356 . S
C1189 C1183 1.363 . S
C1189 C1184 1.379 . S
C1189 N1187 1.356 . S
N1190 C1182 1.356 . S
N1190 H1196 0.984 . S
N1190 H1197 0.984 . S
N1191 C1184 1.356 . S
N1191 H1194 0.984 . S
N1191 H1195 0.985 . S
H1192 N1187 0.984 . S
H1193 N1187 0.985 . S
H1194 N1191 0.984 . S
H1195 N1191 0.985 . S
H1196 N1190 0.984 . S
H1197 N1190 0.984 . S
H1198 N1186 0.984 . S
H1199 N1186 0.985 . S
C1200 C1201 1.363 . S
C1200 C1206 1.379 . S
C1200 N1208 1.356 . S
C1201 C1200 1.363 . S
C1201 C1207 1.363 . S
C1202 C1203 1.363 . S
C1202 C1207 1.379 . S
C1202 N1209 1.356 . S
C1203 C1202 1.363 . S
C1203 C1206 1.363 . S
N1204 C1206 1.356 . S
N1204 H1216 0.984 . S
N1204 H1217 0.985 . S
N1205 C1207 1.356 . S
N1205 H1210 0.984 . S
N1205 H1211 0.985 . S
C1206 C1200 1.379 . S
C1206 C1203 1.363 . S
C1206 N1204 1.356 . S
C1207 C1201 1.363 . S
C1207 C1202 1.379 . S
C1207 N1205 1.356 . S
N1208 C1200 1.356 . S
N1208 H1214 0.984 . S
N1208 H1215 0.984 . S
N1209 C1202 1.356 . S
N1209 H1212 0.984 1_554 S
N1209 H1213 0.985 . S
H1210 N1205 0.984 . S
H1211 N1205 0.985 . S
H1212 N1209 0.984 1_556 S
H1213 N1209 0.985 . S
H1214 N1208 0.984 . S
H1215 N1208 0.984 . S
H1216 N1204 0.984 . S
H1217 N1204 0.985 . S
C1218 C1219 1.363 . S
C1218 C1224 1.379 . S
C1218 N1226 1.356 . S
C1219 C1218 1.363 . S
C1219 C1225 1.363 . S
C1220 C1221 1.363 . S
C1220 C1225 1.379 . S
C1220 N1227 1.356 . S
C1221 C1220 1.363 . S
C1221 C1224 1.363 . S
N1222 C1224 1.356 . S
N1222 H1234 0.984 . S
N1222 H1235 0.985 . S
N1223 C1225 1.356 . S
N1223 H1228 0.984 . S
N1223 H1229 0.985 . S
C1224 C1218 1.379 . S
C1224 C1221 1.363 . S
C1224 N1222 1.356 . S
C1225 C1219 1.363 . S
C1225 C1220 1.379 . S
C1225 N1223 1.356 . S
N1226 C1218 1.356 . S
N1226 H1232 0.984 . S
N1226 H1233 0.984 . S
N1227 C1220 1.356 . S
N1227 H1230 0.984 . S
N1227 H1231 0.985 . S
H1228 N1223 0.984 . S
H1229 N1223 0.985 . S
H1230 N1227 0.984 . S
H1231 N1227 0.985 . S
H1232 N1226 0.984 . S
H1233 N1226 0.984 . S
H1234 N1222 0.984 . S
H1235 N1222 0.985 . S
C807 C745 1.756 . S
C805 C15 1.715 . S
C823 C61 1.715 . S
C825 C305 1.756 . S
C841 C114 1.715 . S
C843 C393 1.756 . S
C859 C139 1.743 . S
C861 C472 1.755 . S
C879 C569 1.756 . S
C877 C185 1.744 . S
C895 C245 1.715 . S
C897 C648 1.755 . S
C913 C47 1.743 . S
C915 C413 1.755 . S
C931 C100 1.744 . S
C933 C509 1.756 . S
C949 C153 1.715 . S
C951 C589 1.756 . S
C969 C685 1.756 . S
C967 C199 1.715 . S
C987 C765 1.755 . S
C985 C231 1.743 . S
C1005 C325 1.756 . S
C1003 C1 1.744 . S
C1021 C22 1.490 . S
C1023 C421 1.488 . S
C1039 C68 1.490 . S
C1041 C501 1.488 . S
C1059 C597 1.488 . S
C1057 C107 1.491 . S
C1075 C146 1.496 . S
C1077 C677 1.488 . S
C1095 C773 1.488 . S
C1093 C192 1.495 . S
C1113 C333 1.488 . S
C1111 C252 1.490 . S
C1131 C736 1.488 . S
C1129 C54 1.496 . S
C1147 C93 1.496 . S
C1149 C296 1.488 . S
C1167 C384 1.488 . S
C1165 C160 1.490 . S
C1183 C206 1.490 . S
C1185 C481 1.488 . S
C1201 C238 1.496 . S
C1203 C560 1.488 . S
C1219 C8 1.496 . S
C1221 C657 1.488 . S
