# Generated by pormake.
# Topology pyr, (3,6)-cn, num edge types: 1
# Building blocks:
#     Node 0, Type 0, BuildingBlock: CUQRIR_clean_linker_1, # of connection points: 3
#     Node 1, Type 0, BuildingBlock: CUQRIR_clean_linker_1, # of connection points: 3
#     Node 2, Type 0, BuildingBlock: CUQRIR_clean_linker_1, # of connection points: 3
#     Node 3, Type 0, BuildingBlock: CUQRIR_clean_linker_1, # of connection points: 3
#     Node 4, Type 0, BuildingBlock: CUQRIR_clean_linker_1, # of connection points: 3
#     Node 5, Type 0, BuildingBlock: CUQRIR_clean_linker_1, # of connection points: 3
#     Node 6, Type 0, BuildingBlock: CUQRIR_clean_linker_1, # of connection points: 3
#     Node 7, Type 0, BuildingBlock: CUQRIR_clean_linker_1, # of connection points: 3
#     Node 8, Type 1, BuildingBlock: PAMTUU_clean_sbu_0, # of connection points: 6
#     Node 9, Type 1, BuildingBlock: PAMTUU_clean_sbu_0, # of connection points: 6
#     Node 10, Type 1, BuildingBlock: PAMTUU_clean_sbu_0, # of connection points: 6
#     Node 11, Type 1, BuildingBlock: PAMTUU_clean_sbu_0, # of connection points: 6
#     Edge 12, Type (0, 1), BuildingBlock: XUDNAN_clean_linker_2, # of connection points: 2
#     Edge 13, Type (0, 1), BuildingBlock: XUDNAN_clean_linker_2, # of connection points: 2
#     Edge 14, Type (0, 1), BuildingBlock: XUDNAN_clean_linker_2, # of connection points: 2
#     Edge 15, Type (0, 1), BuildingBlock: XUDNAN_clean_linker_2, # of connection points: 2
#     Edge 16, Type (0, 1), BuildingBlock: XUDNAN_clean_linker_2, # of connection points: 2
#     Edge 17, Type (0, 1), BuildingBlock: XUDNAN_clean_linker_2, # of connection points: 2
#     Edge 18, Type (0, 1), BuildingBlock: XUDNAN_clean_linker_2, # of connection points: 2
#     Edge 19, Type (0, 1), BuildingBlock: XUDNAN_clean_linker_2, # of connection points: 2
#     Edge 20, Type (0, 1), BuildingBlock: XUDNAN_clean_linker_2, # of connection points: 2
#     Edge 21, Type (0, 1), BuildingBlock: XUDNAN_clean_linker_2, # of connection points: 2
#     Edge 22, Type (0, 1), BuildingBlock: XUDNAN_clean_linker_2, # of connection points: 2
#     Edge 23, Type (0, 1), BuildingBlock: XUDNAN_clean_linker_2, # of connection points: 2
#     Edge 24, Type (0, 1), BuildingBlock: XUDNAN_clean_linker_2, # of connection points: 2
#     Edge 25, Type (0, 1), BuildingBlock: XUDNAN_clean_linker_2, # of connection points: 2
#     Edge 26, Type (0, 1), BuildingBlock: XUDNAN_clean_linker_2, # of connection points: 2
#     Edge 27, Type (0, 1), BuildingBlock: XUDNAN_clean_linker_2, # of connection points: 2
#     Edge 28, Type (0, 1), BuildingBlock: XUDNAN_clean_linker_2, # of connection points: 2
#     Edge 29, Type (0, 1), BuildingBlock: XUDNAN_clean_linker_2, # of connection points: 2
#     Edge 30, Type (0, 1), BuildingBlock: XUDNAN_clean_linker_2, # of connection points: 2
#     Edge 31, Type (0, 1), BuildingBlock: XUDNAN_clean_linker_2, # of connection points: 2
#     Edge 32, Type (0, 1), BuildingBlock: XUDNAN_clean_linker_2, # of connection points: 2
#     Edge 33, Type (0, 1), BuildingBlock: XUDNAN_clean_linker_2, # of connection points: 2
#     Edge 34, Type (0, 1), BuildingBlock: XUDNAN_clean_linker_2, # of connection points: 2
#     Edge 35, Type (0, 1), BuildingBlock: XUDNAN_clean_linker_2, # of connection points: 2
# Relax obj value: 0.195
# Max RMSD: 0.251
# Mean RMSD: 0.165
data_MOF--net-pyr--node1-PAMTUU_clean_sbu_0--node2-CUQRIR_clean_linker_1--edge1-XUDNAN_clean_linker_2
_symmetry_space_group_name_H-M    P1
_symmetry_Int_Tables_number       1
_symmetry_cell_setting            triclinic
loop_
_symmetry_equiv_pos_as_xyz
'x, y, z'
_cell_length_a     35.8245
_cell_length_b     36.038391
_cell_length_c     33.096954
_cell_angle_alpha  88.99435
_cell_angle_beta   90.091863
_cell_angle_gamma 106.78622
loop_
_atom_site_label
_atom_site_type_symbol
_atom_site_fract_x
_atom_site_fract_y
_atom_site_fract_z
_atom_type_partial_charge
C0 C 0.37752 0.38922 0.2142 0.0
N1 N 0.39056 0.3576 0.21789 0.0
N2 N 0.37319 0.39812 0.17485 0.0
C3 C 0.36009 0.4055 0.24868 0.0
C4 C 0.38517 0.37126 0.15465 0.0
N5 N 0.39594 0.3469 0.18066 0.0
C6 C 0.38158 0.36605 0.10975 0.0
H7 H 0.32889 0.38885 0.25207 0.0
H8 H 0.36196 0.43635 0.24274 0.0
H9 H 0.37527 0.40312 0.27742 0.0
H10 H 0.38496 0.39437 0.09418 0.0
H11 H 0.3522 0.34665 0.10268 0.0
H12 H 0.40375 0.35269 0.0984 0.0
C13 C 0.15433 0.79826 0.74352 0.0
N14 N 0.15228 0.83377 0.75406 0.0
N15 N 0.17312 0.78309 0.7719 0.0
C16 C 0.14231 0.78003 0.7032 0.0
C17 C 0.18152 0.81035 0.80088 0.0
N18 N 0.1688 0.84114 0.79023 0.0
C19 C 0.20848 0.80988 0.83587 0.0
H20 H 0.1311 0.74806 0.70697 0.0
H21 H 0.16813 0.78645 0.68295 0.0
H22 H 0.11959 0.79129 0.68896 0.0
H23 H 0.23309 0.83696 0.8356 0.0
H24 H 0.22017 0.78456 0.83524 0.0
H25 H 0.19234 0.80834 0.86468 0.0
C26 C 0.63352 0.39092 0.89505 0.0
N27 N 0.65879 0.38348 0.92264 0.0
N28 N 0.64826 0.42656 0.87755 0.0
C29 C 0.59444 0.36331 0.88535 0.0
C30 C 0.68347 0.44049 0.89556 0.0
N31 N 0.68998 0.41466 0.92314 0.0
C32 C 0.7129 0.47817 0.88346 0.0
H33 H 0.59884 0.34027 0.86572 0.0
H34 H 0.57542 0.37822 0.86948 0.0
H35 H 0.57964 0.34916 0.91336 0.0
H36 H 0.70886 0.5017 0.90257 0.0
H37 H 0.70892 0.48578 0.85143 0.0
H38 H 0.7431 0.47641 0.88753 0.0
C39 C 0.8448 0.69563 0.39165 0.0
N40 N 0.88033 0.72066 0.38224 0.0
N41 N 0.82783 0.70861 0.42289 0.0
C42 C 0.82518 0.66028 0.36767 0.0
C43 C 0.85421 0.74264 0.4322 0.0
N44 N 0.88618 0.75033 0.40778 0.0
C45 C 0.84771 0.76973 0.46402 0.0
H46 H 0.8242 0.66856 0.33532 0.0
H47 H 0.79515 0.6459 0.37861 0.0
H48 H 0.84258 0.63937 0.36986 0.0
H49 H 0.86787 0.77026 0.48958 0.0
H50 H 0.81773 0.76066 0.4765 0.0
H51 H 0.85409 0.79963 0.45133 0.0
C52 C 0.6724 0.82064 0.97307 0.0
N53 N 0.7003 0.81474 0.9487 0.0
N54 N 0.64532 0.8317 0.95108 0.0
C55 C 0.67335 0.81901 1.01861 0.0
C56 C 0.65764 0.8316 0.91235 0.0
N57 N 0.69096 0.82113 0.91089 0.0
C58 C 0.63956 0.8457 0.87638 0.0
H59 H 0.64544 0.79972 1.03043 0.0
H60 H 0.67703 0.84843 1.03057 0.0
H61 H 0.69695 0.80759 1.03023 0.0
H62 H 0.65845 0.87465 0.86662 0.0
H63 H 0.60997 0.84772 0.88353 0.0
H64 H 0.63754 0.82576 0.85081 0.0
C65 C 0.8863 0.3543 0.5139 0.0
N66 N 0.89032 0.33417 0.48084 0.0
N67 N 0.86482 0.37902 0.50553 0.0
C68 C 0.89905 0.34606 0.55557 0.0
C69 C 0.8576 0.37411 0.4654 0.0
N70 N 0.8717 0.34598 0.45077 0.0
C71 C 0.83152 0.39272 0.44162 0.0
H72 H 0.88131 0.31684 0.56595 0.0
H73 H 0.8959 0.36808 0.5773 0.0
H74 H 0.92993 0.34579 0.55465 0.0
H75 H 0.84202 0.42463 0.44447 0.0
H76 H 0.80133 0.38253 0.45374 0.0
H77 H 0.83122 0.38609 0.409 0.0
C78 C 0.33027 0.70532 0.31056 0.0
N79 N 0.36569 0.73117 0.31693 0.0
N80 N 0.30998 0.71848 0.28182 0.0
C81 C 0.31689 0.6655 0.32988 0.0
C82 C 0.33417 0.75365 0.27125 0.0
N83 N 0.36823 0.76148 0.29211 0.0
C84 C 0.3269 0.77756 0.23583 0.0
H85 H 0.33611 0.64817 0.31981 0.0
H86 H 0.28623 0.65027 0.3221 0.0
H87 H 0.31925 0.66771 0.36321 0.0
H88 H 0.29605 0.77776 0.23526 0.0
H89 H 0.33296 0.76443 0.2074 0.0
H90 H 0.34563 0.80796 0.23677 0.0
C91 C 0.12569 0.38809 0.78268 0.0
N92 N 0.15027 0.3816 0.7538 0.0
N93 N 0.14343 0.41962 0.80501 0.0
C94 C 0.08316 0.36626 0.78648 0.0
C95 C 0.17964 0.43226 0.78844 0.0
N96 N 0.18387 0.40991 0.75697 0.0
C97 C 0.21172 0.46506 0.8054 0.0
H98 H 0.07082 0.35521 0.75678 0.0
H99 H 0.06629 0.38489 0.79893 0.0
H100 H 0.07991 0.34123 0.80755 0.0
H101 H 0.20738 0.46763 0.83831 0.0
H102 H 0.21118 0.49273 0.79053 0.0
H103 H 0.24071 0.4606 0.80028 0.0
Tb104 Tb 0.07334 0.08702 0.52126 0.0
Tb105 Tb 1.00172 0.05978 0.58585 0.0
C106 C 1.0077 1.00787 0.51223 0.0
C107 C 0.16202 0.13668 0.45683 0.0
C108 C 0.22504 0.19168 0.4189 0.0
C109 C 0.18643 0.19149 0.41074 0.0
C110 C 0.15516 0.1642 0.42948 0.0
C111 C 0.20062 0.13799 0.46627 0.0
C112 C 0.23186 0.16534 0.44766 0.0
C113 C 0.12998 0.10395 0.47243 0.0
O114 O 0.03998 0.1283 0.51236 0.0
O115 O 0.98222 0.08677 0.53392 0.0
O116 O 0.03106 0.12051 0.60101 0.0
O117 O 0.09022 0.12996 0.56888 0.0
O118 O 0.94191 1.03325 0.59437 0.0
O119 O 0.97869 0.05917 0.64425 0.0
O120 O 0.04797 1.0415 0.61441 0.0
O121 O 0.08244 1.03914 0.55687 0.0
O122 O 0.02787 1.04004 0.49371 0.0
O123 O 1.00063 1.00768 0.55133 0.0
C124 C 1.0019 0.11891 0.51543 0.0
O125 O 0.13245 0.09387 0.51013 0.0
O126 O 0.09424 0.10195 0.4621 0.0
C127 C 0.06754 0.14113 0.59441 0.0
C128 C 0.92388 1.00654 0.65962 0.0
C129 C 0.88159 0.94544 0.7103 0.0
C130 C 0.88335 0.98405 0.71861 0.0
C131 C 0.90431 1.01424 0.69352 0.0
C132 C 0.92291 0.96817 0.65132 0.0
C133 C 0.90167 0.93772 0.67646 0.0
C134 C 0.94394 1.03918 0.63314 0.0
C135 C 0.07455 1.03027 0.59513 0.0
H136 H 0.18038 0.21184 0.38904 0.0
H137 H 0.12574 0.16391 0.42154 0.0
H138 H 0.20669 0.11681 0.48694 0.0
H139 H 0.26125 0.16455 0.45426 0.0
H140 H 0.86756 0.99092 0.74393 0.0
H141 H 0.90468 1.04367 0.70023 0.0
H142 H 0.9381 0.96176 0.62526 0.0
H143 H 0.90086 0.90825 0.66945 0.0
Tb144 Tb 0.55223 0.08185 0.15309 0.0
Tb145 Tb 0.48942 0.06487 0.07904 0.0
C146 C 0.55658 1.02907 0.08119 0.0
C147 C 0.63677 0.12516 0.22225 0.0
C148 C 0.70126 0.18078 0.25509 0.0
C149 C 0.70508 0.14542 0.24145 0.0
C150 C 0.67308 0.11782 0.22535 0.0
C151 C 0.63316 0.16109 0.23445 0.0
C152 C 0.66516 0.18864 0.25083 0.0
C153 C 0.60322 0.09414 0.20775 0.0
O154 O 0.58095 0.12202 0.10436 0.0
O155 O 0.52666 0.12401 0.06839 0.0
O156 O 0.46318 0.08273 0.13119 0.0
O157 O 0.51892 0.12375 0.1556 0.0
O158 O 0.45934 1.02982 1.03235 0.0
O159 O 0.4523 0.08655 1.0426 0.0
O160 O 0.47378 1.01125 0.11579 0.0
O161 O 0.50359 1.03375 0.17605 0.0
O162 O 0.55589 1.03145 0.12055 0.0
O163 O 0.5414 0.05107 1.05852 0.0
C164 C 0.56363 0.13865 0.07741 0.0
O165 O 0.56826 0.09774 0.21287 0.0
O166 O 0.60751 0.08057 0.17238 0.0
C167 C 0.48111 0.11474 0.1497 0.0
C168 C 0.39993 1.04137 1.00985 0.0
C169 C 0.32783 1.01662 0.96954 0.0
C170 C 0.34612 0.05627 0.97487 0.0
C171 C 0.38183 0.06851 0.99478 0.0
C172 C 0.38023 1.00165 1.00729 0.0
C173 C 0.34435 0.98939 0.98745 0.0
C174 C 0.44141 0.05515 1.02142 0.0
C175 C 0.48001 1.00616 0.15461 0.0
H176 H 0.73236 0.13837 0.24482 0.0
H177 H 0.67645 0.09025 0.21616 0.0
H178 H 0.60555 0.16761 0.23209 0.0
H179 H 0.66154 0.21586 0.26083 0.0
H180 H 0.3339 0.07786 0.96159 0.0
H181 H 0.39647 0.09931 0.99613 0.0
H182 H 0.39352 0.98002 1.01841 0.0
H183 H 0.33107 0.95862 0.98346 0.0
Tb184 Tb 0.50821 0.52754 0.56137 0.0
Tb185 Tb 0.49848 0.60156 0.61022 0.0
C186 C 0.47161 0.59031 0.5208 0.0
C187 C 0.5577 0.45737 0.53267 0.0
C188 C 0.62728 0.43769 0.54828 0.0
C189 C 0.62041 0.45184 0.50995 0.0
C190 C 0.5859 0.46145 0.50221 0.0
C191 C 0.56428 0.44255 0.5708 0.0
C192 C 0.5986 0.43268 0.57842 0.0
C193 C 0.52409 0.4728 0.52593 0.0
O194 O 0.56656 0.56751 0.56727 0.0
O195 O 0.54884 0.62325 0.56999 0.0
O196 O 0.53964 0.57976 0.64535 0.0
O197 O 0.52179 0.51703 0.62426 0.0
O198 O 0.494 0.65843 0.61089 0.0
O199 O 0.49428 0.62627 0.6663 0.0
O200 O 0.44815 0.55347 0.62822 0.0
O201 O 0.44613 0.51066 0.5769 0.0
O202 O 0.49322 0.56657 0.5162 0.0
O203 O 0.46187 0.59857 0.55706 0.0
C204 C 0.57444 0.60494 0.5606 0.0
O205 O 0.49863 0.46757 0.55516 0.0
O206 O 0.53276 0.50803 0.51124 0.0
C207 C 0.53838 0.54319 0.65093 0.0
C208 C 0.45178 0.66441 0.66288 0.0
C209 C 0.38216 0.67659 0.69072 0.0
C210 C 0.41861 0.7005 0.70339 0.0
C211 C 0.45315 0.6944 0.68958 0.0
C212 C 0.41557 0.64034 0.65023 0.0
C213 C 0.38101 0.64633 0.66409 0.0
C214 C 0.48788 0.65686 0.64975 0.0
C215 C 0.43021 0.52197 0.60853 0.0
H216 H 0.64168 0.45542 0.48589 0.0
H217 H 0.58169 0.47303 0.47268 0.0
H218 H 0.54343 0.43946 0.5952 0.0
H219 H 0.6031 0.422 0.60827 0.0
H220 H 0.42043 0.72371 0.72435 0.0
H221 H 0.48089 0.71289 0.69996 0.0
H222 H 0.41409 0.61688 0.6297 0.0
H223 H 0.35346 0.62768 0.65346 0.0
Tb224 Tb 1.0092 0.60801 0.06507 0.0
Tb225 Tb 1.00576 0.53204 0.11977 0.0
C226 C 0.03918 0.54124 1.02949 0.0
C227 C 0.98665 0.69299 1.01677 0.0
C228 C 0.93459 0.73711 1.00214 0.0
C229 C 0.95026 0.72165 0.96981 0.0
C230 C 0.97621 0.6999 0.97709 0.0
C231 C 0.97139 0.70887 1.04909 0.0
C232 C 0.94567 0.73079 1.04181 0.0
C233 C 1.01276 0.66863 1.02391 0.0
O234 O 0.95559 0.56393 1.04673 0.0
O235 O 0.94599 0.51968 0.0998 0.0
O236 O 0.99172 0.57535 0.16014 0.0
O237 O 0.96851 0.6097 0.11278 0.0
O238 O 0.99691 0.47216 0.12948 0.0
O239 O 0.01831 0.5128 0.17695 0.0
O240 O 0.06633 0.56361 0.1112 0.0
O241 O 0.05723 0.62305 0.10887 0.0
O242 O 0.04507 0.57883 1.03255 0.0
O243 O 0.01981 0.51716 1.05793 0.0
C244 C 0.93409 0.53299 0.0665 0.0
O245 O 0.02682 0.66863 1.06022 0.0
O246 O 1.0014 0.63382 1.00936 0.0
C247 C 0.97318 0.60125 0.1508 0.0
C248 C 0.05081 0.46537 0.16791 0.0
C249 C 0.12642 0.4562 0.16567 0.0
C250 C 0.11555 0.47684 0.19691 0.0
C251 C 0.07806 0.48108 0.19824 0.0
C252 C 0.06095 0.44256 0.1381 0.0
C253 C 0.09839 0.43791 0.1371 0.0
C254 C 1.01506 0.47805 0.16405 0.0
C255 C 0.07937 0.60068 0.11737 0.0
H256 H 0.94237 0.72633 0.93892 0.0
H257 H 0.9878 0.68806 0.95173 0.0
H258 H 0.97887 0.70401 0.08004 0.0
H259 H 0.93361 0.74189 0.06734 0.0
H260 H 0.13642 0.49061 0.21976 0.0
H261 H 0.07112 0.49851 0.22183 0.0
H262 H 0.0407 0.42993 0.11432 0.0
H263 H 0.10604 0.42175 0.11274 0.0
H264 H 0.32593 0.29862 0.21966 0.0
H265 H 0.42582 0.35813 0.29067 0.0
H266 H 0.39641 0.31814 0.35108 0.0
H267 H 0.25681 0.29678 0.29003 0.0
H268 H 0.22484 0.24962 0.27827 0.0
H269 H 0.25663 0.27786 0.23995 0.0
H270 H 0.28725 0.22194 0.22815 0.0
H271 H 0.25476 0.19291 0.2657 0.0
H272 H 0.30668 0.20137 0.27041 0.0
H273 H 0.35138 0.27623 0.4047 0.0
H274 H 0.29679 0.23519 0.446 0.0
H275 H 0.22734 0.20435 0.33759 0.0
C276 C 0.3423 0.30177 0.24754 0.0
C277 C 0.37837 0.33029 0.25077 0.0
C278 C 0.39847 0.33555 0.28792 0.0
C279 C 0.38191 0.31315 0.32213 0.0
C280 C 0.34548 0.28577 0.31816 0.0
C281 C 0.32625 0.27978 0.28152 0.0
C282 C 0.28618 0.2513 0.28534 0.0
C283 C 0.25426 0.27003 0.27266 0.0
C284 C 0.28357 0.2147 0.26097 0.0
C285 C 0.2851 0.24293 0.33019 0.0
C286 C 0.3196 0.26263 0.3487 0.0
C287 C 0.32448 0.26031 0.39039 0.0
C288 C 0.29336 0.23705 0.41358 0.0
C289 C 0.2578 0.21688 0.39497 0.0
C290 C 0.25394 0.21986 0.35275 0.0
H291 H 0.15915 0.85553 0.86847 0.0
H292 H 0.21066 0.90976 0.75622 0.0
H293 H 0.24277 0.96939 0.79181 0.0
H294 H 0.15976 0.9462 0.92762 0.0
H295 H 0.17675 0.92688 0.97232 0.0
H296 H 0.14505 0.89464 0.93742 0.0
H297 H 0.19558 0.85618 0.93106 0.0
H298 H 0.22758 0.88833 0.96535 0.0
H299 H 0.24478 0.88132 0.9157 0.0
H300 H 0.28008 1.01729 0.8393 0.0
H301 H 0.32533 1.04596 0.89383 0.0
H302 H 0.25968 0.95711 0.97747 0.0
C303 C 0.17603 0.88062 0.8514 0.0
C304 C 0.18097 0.87843 0.80931 0.0
C305 C 0.20432 0.91126 0.78791 0.0
C306 C 0.22316 0.94531 0.80814 0.0
C307 C 0.2195 0.94576 0.85002 0.0
C308 C 0.19683 0.91402 0.87157 0.0
C309 C 0.20533 0.91798 0.91647 0.0
C310 C 0.16959 0.92166 0.93983 0.0
C311 C 0.21916 0.88396 0.93308 0.0
C312 C 0.23789 0.95574 0.91648 0.0
C313 C 0.24427 0.9721 0.87807 0.0
C314 C 0.27485 1.00524 0.86965 0.0
C315 C 0.30038 1.02139 0.90091 0.0
C316 C 0.29577 1.0039 0.93994 0.0
C317 C 0.26351 0.97126 0.948 0.0
H318 H 0.61951 0.40499 0.8018 0.0
H319 H 0.63629 0.49575 0.88984 0.0
H320 H 0.61053 0.53519 0.8414 0.0
H321 H 0.64641 0.4675 0.71426 0.0
H322 H 0.61014 0.43783 0.68145 0.0
H323 H 0.62896 0.41583 0.72303 0.0
H324 H 0.55897 0.38541 0.75044 0.0
H325 H 0.5399 0.40692 0.70862 0.0
H326 H 0.52823 0.41613 0.75975 0.0
H327 H 0.58585 0.56617 0.78283 0.0
H328 H 0.55967 0.58527 0.71945 0.0
H329 H 0.55591 0.47413 0.66824 0.0
C330 C 0.61716 0.43293 0.81087 0.0
C331 C 0.62996 0.44744 0.84964 0.0
C332 C 0.62689 0.48431 0.8603 0.0
C333 C 0.61227 0.50685 0.83297 0.0
C334 C 0.60047 0.49215 0.79485 0.0
C335 C 0.60234 0.45591 0.78378 0.0
C336 C 0.58776 0.44735 0.74067 0.0
C337 C 0.62026 0.4418 0.71324 0.0
C338 C 0.55155 0.41184 0.73983 0.0
C339 C 0.57749 0.48439 0.72937 0.0
C340 C 0.58537 0.50987 0.76109 0.0
C341 C 0.57933 0.54633 0.75788 0.0
C342 C 0.56454 0.55701 0.72155 0.0
C343 C 0.55549 0.53133 0.68861 0.0
C344 C 0.56221 0.49445 0.69279 0.0
H345 H 0.92304 0.66975 0.37293 0.0
H346 H 0.882 0.75619 0.30966 0.0
H347 H 0.90467 0.73713 0.24507 0.0
H348 H 1.00941 0.67474 0.30569 0.0
H349 H 1.00146 0.62303 0.30838 0.0
H350 H 0.98788 0.64768 0.35036 0.0
H351 H 0.91772 0.60153 0.34726 0.0
H352 H 0.9308 0.57719 0.30482 0.0
H353 H 0.89069 0.59784 0.30079 0.0
H354 H 0.92399 0.7035 0.18634 0.0
H355 H 0.94329 0.66197 0.13771 0.0
H356 H 0.97241 0.59432 0.23637 0.0
C357 C 0.92082 0.68596 0.34564 0.0
C358 C 0.90313 0.71663 0.34702 0.0
C359 C 0.89812 0.73505 0.31015 0.0
C360 C 0.9101 0.72358 0.27303 0.0
C361 C 0.92671 0.69293 0.27268 0.0
C362 C 0.93252 0.67454 0.30806 0.0
C363 C 0.94842 0.64048 0.29863 0.0
C364 C 0.98923 0.64687 0.31685 0.0
C365 C 0.92023 0.60198 0.31379 0.0
C366 C 0.95023 0.64235 0.25246 0.0
C367 C 0.93738 0.67288 0.2384 0.0
C368 C 0.93458 0.6799 0.19716 0.0
C369 C 0.94562 0.65575 0.16956 0.0
C370 C 0.95982 0.62451 0.18256 0.0
C371 C 0.96198 0.61785 0.22499 0.0
H372 H 0.46006 0.32474 0.19704 0.0
H373 H 0.34455 0.28623 0.14542 0.0
H374 H 0.35244 0.22091 0.13551 0.0
H375 H 0.50447 0.27143 0.12844 0.0
H376 H 0.53605 0.26089 0.1666 0.0
H377 H 0.52078 0.30419 0.16964 0.0
H378 H 0.49376 0.28334 0.24183 0.0
H379 H 0.50842 0.23967 0.23873 0.0
H380 H 0.45837 0.23676 0.2497 0.0
H381 H 0.37237 0.15985 0.13305 0.0
H382 H 0.40516 0.10855 0.13106 0.0
H383 H 0.50936 0.18732 0.18214 0.0
C384 C 0.43682 0.30249 0.18319 0.0
C385 C 0.402 0.31024 0.17131 0.0
C386 C 0.37173 0.28074 0.15374 0.0
C387 C 0.37584 0.24361 0.14846 0.0
C388 C 0.41055 0.23673 0.16065 0.0
C389 C 0.44079 0.26548 0.17706 0.0
C390 C 0.47551 0.25077 0.18638 0.0
C391 C 0.5113 0.27314 0.16127 0.0
C392 C 0.48454 0.25275 0.23187 0.0
C393 C 0.45999 0.20919 0.17288 0.0
C394 C 0.42233 0.20165 0.15852 0.0
C395 C 0.40189 0.16542 0.14411 0.0
C396 C 0.42077 0.13639 0.1433 0.0
C397 C 0.45989 0.14381 0.15649 0.0
C398 C 0.47941 0.18059 0.17208 0.0
H399 H 0.10091 0.8759 0.76223 0.0
H400 H 0.19095 0.85765 0.68458 0.0
H401 H 0.18215 0.9077 0.63677 0.0
H402 H 0.03791 0.89156 0.68262 0.0
H403 H 0.02372 0.92894 0.70857 0.0
H404 H 0.03731 0.89186 0.73708 0.0
H405 H 0.08966 0.94469 0.77484 0.0
H406 H 0.07638 0.98196 0.74626 0.0
H407 H 0.12619 0.98031 0.74622 0.0
H408 H 0.1636 0.95825 0.5973 0.0
H409 H 0.13488 1.00624 0.56653 0.0
H410 H 0.05658 0.99336 0.66938 0.0
C411 C 0.11844 0.88253 0.73499 0.0
C412 C 0.14587 0.86248 0.7263 0.0
C413 C 0.1689 0.87196 0.69082 0.0
C414 C 0.16445 0.9006 0.66385 0.0
C415 C 0.13697 0.91968 0.67295 0.0
C416 C 0.11425 0.91115 0.70753 0.0
C417 C 0.08652 0.9359 0.70945 0.0
C418 C 0.04384 0.91055 0.70941 0.0
C419 C 0.09522 0.96228 0.74639 0.0
C420 C 0.09701 0.95922 0.67035 0.0
C421 C 0.12638 0.94948 0.65003 0.0
C422 C 0.14064 0.96629 0.6129 0.0
C423 C 0.12408 0.99351 0.59566 0.0
C424 C 0.09348 1.00363 0.61548 0.0
C425 C 0.08013 0.98649 0.65359 0.0
H426 H 0.7192 0.47731 0.9702 0.0
H427 H 0.74035 0.37084 0.93226 0.0
H428 H 0.80148 0.38701 0.97072 0.0
H429 H 0.81661 0.53293 0.95107 0.0
H430 H 0.81895 0.56633 0.99156 0.0
H431 H 0.77286 0.54292 0.96835 0.0
H432 H 0.74381 0.51621 1.03819 0.0
H433 H 0.78977 0.53977 0.06171 0.0
H434 H 0.76792 0.48836 0.06894 0.0
H435 H 0.86229 0.41634 1.01115 0.0
H436 H 0.92057 0.45867 1.04451 0.0
H437 H 0.86655 0.55183 1.04599 0.0
C438 C 0.73635 0.45703 0.97072 0.0
C439 C 0.72361 0.42165 0.94964 0.0
C440 C 0.74756 0.39655 0.95017 0.0
C441 C 0.78301 0.40605 0.97139 0.0
C442 C 0.795 0.44149 0.99097 0.0
C443 C 0.77265 0.46692 0.99027 0.0
C444 C 0.79442 0.50524 1.00922 0.0
C445 C 0.8011 0.53884 0.9782 0.0
C446 C 0.77268 0.51283 1.04675 0.0
C447 C 0.83256 0.4974 1.02072 0.0
C448 C 0.83184 0.46009 1.01063 0.0
C449 C 0.8632 0.44562 1.01898 0.0
C450 C 0.89614 0.46983 1.03795 0.0
C451 C 0.89807 0.50845 1.04755 0.0
C452 C 0.86588 0.52248 1.03867 0.0
H453 H 0.79149 0.64393 0.46806 0.0
H454 H 0.77342 0.74473 0.40755 0.0
H455 H 0.70691 0.72907 0.43652 0.0
H456 H 0.68976 0.58097 0.45455 0.0
H457 H 0.68845 0.55709 0.50307 0.0
H458 H 0.73399 0.57516 0.4762 0.0
H459 H 0.76419 0.61526 0.53837 0.0
H460 H 0.71864 0.59771 0.56526 0.0
H461 H 0.74109 0.64912 0.55893 0.0
H462 H 0.6454 0.70652 0.4769 0.0
H463 H 0.58827 0.67345 0.51876 0.0
H464 H 0.64259 0.58379 0.55075 0.0
C465 C 0.77306 0.6621 0.46047 0.0
C466 C 0.78746 0.69574 0.4358 0.0
C467 C 0.76276 0.71901 0.42645 0.0
C468 C 0.72509 0.71038 0.4429 0.0
C469 C 0.71207 0.67782 0.46814 0.0
C470 C 0.73485 0.65345 0.47625 0.0
C471 C 0.71329 0.6202 0.50431 0.0
C472 C 0.70593 0.58104 0.48327 0.0
C473 C 0.73565 0.62062 0.54408 0.0
C474 C 0.67532 0.63024 0.51124 0.0
C475 C 0.67554 0.6638 0.49028 0.0
C476 C 0.64469 0.67996 0.49306 0.0
C477 C 0.61241 0.66107 0.51725 0.0
C478 C 0.61073 0.62598 0.53819 0.0
C479 C 0.64283 0.61048 0.53508 0.0
H480 H 0.29995 0.36009 0.15477 0.0
H481 H 0.37984 0.47451 0.16904 0.0
H482 H 0.32489 0.50326 0.16187 0.0
H483 H 0.23069 0.3878 0.08257 0.0
H484 H 0.18922 0.35363 0.10621 0.0
H485 H 0.23565 0.34356 0.10508 0.0
H486 H 0.23289 0.33473 0.18298 0.0
H487 H 0.18696 0.34554 0.18457 0.0
H488 H 0.22747 0.37356 0.21387 0.0
H489 H 0.26037 0.51774 0.16367 0.0
H490 H 0.19165 0.51794 0.16926 0.0
H491 H 0.15367 0.39347 0.15354 0.0
C492 C 0.30587 0.39131 0.1543 0.0
C493 C 0.34391 0.41545 0.16124 0.0
C494 C 0.35086 0.45599 0.16265 0.0
C495 C 0.31986 0.47235 0.15886 0.0
C496 C 0.28229 0.44757 0.15352 0.0
C497 C 0.27528 0.40792 0.15063 0.0
C498 C 0.23203 0.38727 0.14883 0.0
C499 C 0.22127 0.36687 0.10825 0.0
C500 C 0.2191 0.3586 0.18469 0.0
C501 C 0.21564 0.42136 0.1522 0.0
C502 C 0.2451 0.4559 0.15473 0.0
C503 C 0.23712 0.49098 0.16097 0.0
C504 C 0.19806 0.49077 0.16446 0.0
C505 C 0.16747 0.45575 0.16166 0.0
C506 C 0.17649 0.42071 0.15514 0.0
H507 H 0.61145 0.35685 0.98778 0.0
H508 H 0.68922 0.32584 0.90384 0.0
H509 H 0.67845 0.26237 0.93898 0.0
H510 H 0.62981 0.30443 0.07829 0.0
H511 H 0.57917 0.28747 0.09283 0.0
H512 H 0.59725 0.33263 0.06515 0.0
H513 H 0.54494 0.30803 1.01013 0.0
H514 H 0.5266 0.26295 1.03781 0.0
H515 H 0.54149 0.26279 0.98581 0.0
H516 H 0.6596 0.20216 0.98416 0.0
H517 H 0.62583 0.14577 1.02769 0.0
H518 H 0.55191 0.2109 0.07555 0.0
C519 C 0.62692 0.33694 0.97771 0.0
C520 C 0.65355 0.34729 0.94493 0.0
C521 C 0.67112 0.31956 0.93068 0.0
C522 C 0.66471 0.28326 0.95017 0.0
C523 C 0.63904 0.27416 0.98296 0.0
C524 C 0.61958 0.29982 0.99599 0.0
C525 C 0.58989 0.28093 1.02861 0.0
C526 C 0.59962 0.30267 0.06859 0.0
C527 C 0.54827 0.27853 1.01475 0.0
C528 C 0.59586 0.24084 1.03198 0.0
C529 C 0.62502 0.23791 1.00601 0.0
C530 C 0.63654 0.20408 1.00438 0.0
C531 C 0.61738 0.17225 1.02932 0.0
C532 C 0.58636 0.17398 1.05486 0.0
C533 C 0.57557 0.20882 1.05622 0.0
H534 H 0.93442 0.77826 0.4701 0.0
H535 H 0.90272 0.80769 0.35038 0.0
H536 H 0.93645 0.87659 0.36208 0.0
H537 H 0.90788 0.85213 0.51472 0.0
H538 H 0.94463 0.86268 0.55354 0.0
H539 H 0.92855 0.81489 0.53276 0.0
H540 H 0.9992 0.81823 0.51298 0.0
H541 H 1.01594 0.86564 0.53479 0.0
H542 H 0.02779 0.85876 0.48308 0.0
H543 H 0.96677 0.94411 0.39044 0.0
H544 H 0.98993 1.00271 0.43178 0.0
H545 H 0.9929 0.93069 0.53736 0.0
C546 C 0.93642 0.79907 0.44563 0.0
C547 C 0.91718 0.78684 0.40846 0.0
C548 C 0.91886 0.81539 0.37802 0.0
C549 C 0.93734 0.85502 0.38493 0.0
C550 C 0.95349 0.86617 0.42291 0.0
C551 C 0.95322 0.83889 0.45282 0.0
C552 C 0.9672 0.85851 0.4928 0.0
C553 C 0.93515 0.84632 0.52536 0.0
C554 C 1.00477 0.84977 0.50673 0.0
C555 C 0.97501 0.90109 0.48094 0.0
C556 C 0.96763 0.90486 0.44027 0.0
C557 C 0.9727 0.9413 0.42224 0.0
C558 C 0.98584 0.97456 0.44609 0.0
C559 C 0.99306 0.97163 0.48803 0.0
C560 C 0.98732 0.93412 0.50555 0.0
H561 H 0.24627 0.80835 0.74502 0.0
H562 H 0.15431 0.7046 0.77647 0.0
H563 H 0.19784 0.66428 0.75879 0.0
H564 H 0.2839 0.77037 0.65997 0.0
H565 H 0.33388 0.79664 0.67031 0.0
H566 H 0.29516 0.81607 0.68546 0.0
H567 H 0.32006 0.82023 0.75935 0.0
H568 H 0.35883 0.80076 0.74446 0.0
H569 H 0.32574 0.77736 0.78436 0.0
H570 H 0.25288 0.63642 0.73728 0.0
H571 H 0.31359 0.62321 0.71468 0.0
H572 H 0.36804 0.74668 0.69735 0.0
C573 C 0.23559 0.77709 0.7482 0.0
C574 C 0.19748 0.75915 0.76219 0.0
C575 C 0.18371 0.7184 0.7659 0.0
C576 C 0.20816 0.69555 0.75594 0.0
C577 C 0.24597 0.71426 0.74235 0.0
C578 C 0.25947 0.75418 0.73852 0.0
C579 C 0.301 0.7676 0.72341 0.0
C580 C 0.30362 0.78892 0.68235 0.0
C581 C 0.32799 0.79298 0.75477 0.0
C582 C 0.30909 0.72902 0.71928 0.0
C583 C 0.27711 0.6985 0.73023 0.0
C584 C 0.27802 0.66013 0.72863 0.0
C585 C 0.31254 0.65291 0.71559 0.0
C586 C 0.34561 0.68395 0.70446 0.0
C587 C 0.34354 0.72237 0.70629 0.0
H588 H 0.76024 0.87514 0.9078 0.0
H589 H 0.68175 0.7845 0.83911 0.0
H590 H 0.72796 0.8001 0.78095 0.0
H591 H 0.78998 0.94282 0.83293 0.0
H592 H 0.84015 0.96018 0.84862 0.0
H593 H 0.80287 0.93851 0.88513 0.0
H594 H 0.83943 0.88852 0.90556 0.0
H595 H 0.87708 0.91019 0.86903 0.0
H596 H 0.85195 0.8591 0.86738 0.0
H597 H 0.77929 0.83203 0.72839 0.0
H598 H 0.82951 0.87761 0.68602 0.0
H599 H 0.87669 0.94301 0.79247 0.0
C600 C 0.75346 0.85791 0.88087 0.0
C601 C 0.71792 0.82857 0.87758 0.0
C602 C 0.70902 0.8072 0.84171 0.0
C603 C 0.73521 0.8156 0.80893 0.0
C604 C 0.77031 0.84484 0.81321 0.0
C605 C 0.77955 0.86529 0.84858 0.0
C606 C 0.81774 0.89685 0.84515 0.0
C607 C 0.81233 0.93693 0.85342 0.0
C608 C 0.84837 0.88814 0.87345 0.0
C609 C 0.82747 0.89283 0.80138 0.0
C610 C 0.80027 0.86224 0.78354 0.0
C611 C 0.80125 0.85547 0.74224 0.0
C612 C 0.82995 0.8814 0.71842 0.0
C613 C 0.85691 0.91379 0.73604 0.0
C614 C 0.85643 0.91849 0.77823 0.0
H615 H 0.79616 0.30891 0.44118 0.0
H616 H 0.90961 0.32892 0.38572 0.0
H617 H 0.87867 0.28889 0.32717 0.0
H618 H 0.75602 0.21088 0.41078 0.0
H619 H 0.7079 0.21596 0.40305 0.0
H620 H 0.73984 0.24529 0.43971 0.0
H621 H 0.73222 0.30746 0.40426 0.0
H622 H 0.70042 0.27837 0.36733 0.0
H623 H 0.74348 0.31564 0.3512 0.0
H624 H 0.83331 0.24644 0.2748 0.0
H625 H 0.77914 0.205 0.23458 0.0
H626 H 0.69659 0.21596 0.32602 0.0
C627 C 0.81434 0.30514 0.41638 0.0
C628 C 0.85493 0.32242 0.417 0.0
C629 C 0.87832 0.3161 0.38506 0.0
C630 C 0.86098 0.29356 0.35195 0.0
C631 C 0.82044 0.2777 0.35183 0.0
C632 C 0.7976 0.28322 0.38345 0.0
C633 C 0.7549 0.26339 0.37677 0.0
C634 C 0.73873 0.23202 0.40951 0.0
C635 C 0.73138 0.29299 0.37476 0.0
C636 C 0.75689 0.24581 0.33616 0.0
C637 C 0.79484 0.2541 0.32214 0.0
C638 C 0.80354 0.23993 0.28549 0.0
C639 C 0.77267 0.21645 0.26292 0.0
C640 C 0.7337 0.2077 0.27705 0.0
C641 C 0.72595 0.22285 0.31401 0.0
H642 H 0.36778 0.72844 0.39837 0.0
H643 H 0.4272 0.70883 0.29102 0.0
H644 H 0.46329 0.6723 0.33205 0.0
H645 H 0.4499 0.73483 0.4721 0.0
H646 H 0.41647 0.70954 0.51092 0.0
H647 H 0.40121 0.73959 0.47411 0.0
H648 H 0.34261 0.68119 0.45574 0.0
H649 H 0.35818 0.65062 0.49159 0.0
H650 H 0.35128 0.63695 0.43936 0.0
H651 H 0.48552 0.62954 0.38401 0.0
H652 H 0.49777 0.59124 0.44254 0.0
H653 H 0.42304 0.63807 0.51679 0.0
C654 C 0.39004 0.71827 0.38404 0.0
C655 C 0.39577 0.72271 0.34165 0.0
C656 C 0.42353 0.70713 0.32352 0.0
C657 C 0.44364 0.68578 0.34663 0.0
C658 C 0.43576 0.6802 0.38806 0.0
C659 C 0.41014 0.69672 0.40675 0.0
C660 C 0.40446 0.68405 0.451 0.0
C661 C 0.41888 0.71909 0.47867 0.0
C662 C 0.36159 0.66189 0.45993 0.0
C663 C 0.43035 0.65732 0.45429 0.0
C664 C 0.44813 0.65543 0.41765 0.0
C665 C 0.47207 0.63132 0.41289 0.0
C666 C 0.47863 0.60933 0.44641 0.0
C667 C 0.46145 0.61132 0.48463 0.0
C668 C 0.4368 0.63571 0.48823 0.0
H669 H 0.10885 0.39567 0.87946 0.0
H670 H 0.1393 0.49226 0.79412 0.0
H671 H 0.11541 0.53217 0.84189 0.0
H672 H 0.01943 0.41455 0.91833 0.0
H673 H 0.02692 0.40126 0.96982 0.0
H674 H 0.04527 0.37931 0.92871 0.0
H675 H 0.11448 0.40168 0.95931 0.0
H676 H 0.09637 0.42387 1.00039 0.0
H677 H 0.13619 0.45231 0.96958 0.0
H678 H 0.09133 0.56288 0.8988 0.0
H679 H 0.06577 0.58281 0.96075 0.0
H680 H 0.04801 0.46738 1.01266 0.0
C681 C 0.10996 0.42508 0.87085 0.0
C682 C 0.12616 0.44098 0.83289 0.0
C683 C 0.12737 0.47966 0.82293 0.0
C684 C 0.11378 0.5025 0.84993 0.0
C685 C 0.09868 0.48646 0.8872 0.0
C686 C 0.09634 0.4486 0.89782 0.0
C687 C 0.07902 0.43924 0.94037 0.0
C688 C 0.04036 0.40665 0.93923 0.0
C689 C 0.10826 0.42864 0.96911 0.0
C690 C 0.07232 0.47779 0.95188 0.0
C691 C 0.08407 0.50441 0.9205 0.0
C692 C 0.08188 0.5422 0.92348 0.0
C693 C 0.06732 0.5533 0.9592 0.0
C694 C 0.05465 0.52695 0.99222 0.0
C695 C 0.05716 0.48838 0.9882 0.0
H696 H 0.64651 0.90563 0.93312 0.0
H697 H 0.58706 0.80441 1.00518 0.0
H698 H 0.5556 0.84444 1.04524 0.0
H699 H 0.66611 0.97347 1.00489 0.0
H700 H 0.65484 1.01204 0.9766 0.0
H701 H 0.66966 0.97525 0.9505 0.0
H702 H 0.60657 0.95871 0.90783 0.0
H703 H 0.59192 0.99629 0.93293 0.0
H704 H 0.55986 0.94745 0.93285 0.0
H705 H 0.54571 0.89775 0.08653 0.0
H706 H 0.54017 0.95802 0.11615 0.0
H707 H 0.59251 1.02284 1.0089 0.0
C708 C 0.62542 0.89156 0.95603 0.0
C709 C 0.61958 0.85214 0.96672 0.0
C710 C 0.59253 0.83481 0.99744 0.0
C711 C 0.57444 0.85723 1.02006 0.0
C712 C 0.58243 0.89648 1.01014 0.0
C713 C 0.60577 0.91318 0.97768 0.0
C714 C 0.60971 0.95617 0.97383 0.0
C715 C 0.65263 0.98065 0.97663 0.0
C716 C 0.59088 0.96518 0.93452 0.0
C717 C 0.58665 0.96136 1.01053 0.0
C718 C 0.57185 0.92657 1.03137 0.0
C719 C 0.55512 0.92475 0.06947 0.0
C720 C 0.55212 0.95913 0.08605 0.0
C721 C 0.56402 0.99454 0.06389 0.0
C722 C 0.58176 0.99577 1.02569 0.0
H723 H 0.96277 0.32539 0.48702 0.0
H724 H 0.84041 0.26238 0.47854 0.0
H725 H 0.85689 0.20033 0.47903 0.0
H726 H 1.00108 0.26047 0.42629 0.0
H727 H 0.04272 0.26442 0.45836 0.0
H728 H 0.0218 0.3042 0.45404 0.0
H729 H 1.01293 0.30338 0.53178 0.0
H730 H 0.03409 0.26385 0.53634 0.0
H731 H 0.98643 0.25895 0.5572 0.0
H732 H 0.88581 0.14571 0.4835 0.0
H733 H 0.92488 0.10071 0.49671 0.0
H734 H 0.02943 0.19812 0.5044 0.0
C735 C 0.93974 0.29838 0.48487 0.0
C736 C 0.90045 0.2983 0.48155 0.0
C737 C 0.87069 0.26273 0.47979 0.0
C738 C 0.87981 0.2275 0.4802 0.0
C739 C 0.91886 0.22839 0.48294 0.0
C740 C 0.94841 0.2628 0.48569 0.0
C741 C 0.98769 0.25525 0.49113 0.0
C742 C 1.01493 0.27209 0.45531 0.0
C743 C 1.00637 0.2713 0.53151 0.0
C744 C 0.97548 0.21126 0.49144 0.0
C745 C 0.93567 0.19651 0.48627 0.0
C746 C 0.91705 0.15685 0.48728 0.0
C747 C 0.93952 0.13153 0.4948 0.0
C748 C 0.98022 0.14588 0.50125 0.0
C749 C 0.99851 0.18628 0.49872 0.0
H750 H 0.23989 0.7312 0.26632 0.0
H751 H 0.31025 0.65479 0.24082 0.0
H752 H 0.25923 0.61727 0.19483 0.0
H753 H 0.14535 0.65896 0.26313 0.0
H754 H 0.12147 0.69078 0.23839 0.0
H755 H 0.16275 0.71053 0.27062 0.0
H756 H 0.19784 0.75552 0.21186 0.0
H757 H 0.15678 0.73568 0.17935 0.0
H758 H 0.20482 0.73469 0.16435 0.0
H759 H 0.20136 0.58844 0.15188 0.0
H760 H 0.13912 0.56851 0.11511 0.0
H761 H 0.1066 0.66568 0.16442 0.0
C762 C 0.24426 0.70645 0.25107 0.0
C763 C 0.27869 0.69545 0.25734 0.0
C764 C 0.28371 0.66307 0.23688 0.0
C765 C 0.25507 0.64188 0.21053 0.0
C766 C 0.2217 0.65372 0.20454 0.0
C767 C 0.21605 0.68522 0.22416 0.0
C768 C 0.17771 0.69205 0.21161 0.0
C769 C 0.15019 0.68781 0.24811 0.0
C770 C 0.18472 0.73185 0.19054 0.0
C771 C 0.16263 0.65934 0.18207 0.0
C772 C 0.18856 0.63762 0.17862 0.0
C773 C 0.18086 0.60523 0.15424 0.0
C774 C 0.14543 0.59423 0.13337 0.0
C775 C 0.11814 0.61576 0.13651 0.0
C776 C 0.12718 0.64908 0.16083 0.0
H777 H 0.22429 0.47926 0.72279 0.0
H778 H 0.22172 0.3585 0.73169 0.0
H779 H 0.28148 0.37291 0.68928 0.0
H780 H 0.26574 0.50279 0.62292 0.0
H781 H 0.29678 0.54971 0.63694 0.0
H782 H 0.25133 0.52885 0.66319 0.0
H783 H 0.28803 0.5362 0.73129 0.0
H784 H 0.33358 0.55702 0.70527 0.0
H785 H 0.32756 0.51505 0.73781 0.0
H786 H 0.34289 0.40187 0.64526 0.0
H787 H 0.40328 0.44266 0.61223 0.0
H788 H 0.37066 0.54578 0.64184 0.0
C789 C 0.23637 0.45581 0.71613 0.0
C790 C 0.21792 0.41756 0.73053 0.0
C791 C 0.23467 0.38778 0.72045 0.0
C792 C 0.26879 0.39583 0.69652 0.0
C793 C 0.28658 0.43405 0.68361 0.0
C794 C 0.27118 0.46365 0.69376 0.0
C795 C 0.29759 0.50279 0.67957 0.0
C796 C 0.2766 0.52216 0.64882 0.0
C797 C 0.31258 0.52932 0.71563 0.0
C798 C 0.33034 0.49075 0.65965 0.0
C799 C 0.32308 0.45091 0.66144 0.0
C800 C 0.34883 0.43307 0.64403 0.0
C801 C 0.383 0.45647 0.62509 0.0
C802 C 0.39184 0.49742 0.62446 0.0
C803 C 0.36488 0.51458 0.64192 0.0
H804 H 0.73175 0.75943 0.92441 0.0
H805 H 0.75303 0.86167 0.99766 0.0
H806 H 0.81803 0.85556 1.0162 0.0
H807 H 0.77706 0.70514 0.98779 0.0
H808 H 0.79799 0.68527 0.94695 0.0
H809 H 0.75388 0.69871 0.93898 0.0
H810 H 0.78657 0.74352 0.87893 0.0
H811 H 0.83098 0.73045 0.88692 0.0
H812 H 0.83181 0.78071 0.8868 0.0
H813 H 0.87864 0.83606 1.0294 0.0
H814 H 0.93126 0.80464 1.03642 0.0
H815 H 0.8712 0.71621 0.95251 0.0
C816 C 0.75021 0.78023 0.94452 0.0
C817 C 0.73732 0.8102 0.9608 0.0
C818 C 0.7622 0.83772 0.98622 0.0
C819 C 0.79919 0.83476 0.99639 0.0
C820 C 0.81096 0.80453 0.98018 0.0
C821 C 0.78733 0.77787 0.95462 0.0
C822 C 0.80677 0.74793 0.94167 0.0
C823 C 0.78248 0.70684 0.95464 0.0
C824 C 0.8145 0.75084 0.89586 0.0
C825 C 0.84441 0.76102 0.9652 0.0
C826 C 0.84645 0.79399 0.98684 0.0
C827 C 0.87759 0.81044 1.01233 0.0
C828 C 0.90717 0.79233 1.01628 0.0
C829 C 0.90528 0.75814 0.99491 0.0
C830 C 0.87376 0.74274 0.96861 0.0
H831 H 0.39339 0.83531 0.31917 0.0
H832 H 0.41582 0.75662 0.23185 0.0
H833 H 0.44892 0.81205 0.18743 0.0
H834 H 0.37124 0.89887 0.25598 0.0
H835 H 0.39611 0.9436 0.28022 0.0
H836 H 0.3809 0.89921 0.30948 0.0
H837 H 0.45134 0.90805 0.33424 0.0
H838 H 0.46674 0.95343 0.30645 0.0
H839 H 0.49045 0.91642 0.29788 0.0
H840 H 0.45946 0.87279 0.145 0.0
H841 H 0.47128 0.93844 0.11562 0.0
H842 H 0.45558 0.98229 0.2336 0.0
C843 C 0.40794 0.83007 0.29215 0.0
C844 C 0.40272 0.79152 0.27932 0.0
C845 C 0.42056 0.78576 0.24278 0.0
C846 C 0.43865 0.81715 0.21696 0.0
C847 C 0.44034 0.85453 0.22888 0.0
C848 C 0.42754 0.86147 0.26659 0.0
C849 C 0.43223 0.90465 0.27123 0.0
C850 C 0.39277 0.91198 0.27973 0.0
C851 C 0.46197 0.92165 0.30442 0.0
C852 C 0.44779 0.92045 0.22963 0.0
C853 C 0.45119 0.8907 0.20545 0.0
C854 C 0.45899 0.89664 0.16422 0.0
C855 C 0.46548 0.93415 0.14771 0.0
C856 C 0.46619 0.96604 0.17246 0.0
C857 C 0.45664 0.95883 0.21405 0.0
H858 H 0.11527 0.30405 0.76715 0.0
H859 H 0.16265 0.38896 0.67236 0.0
H860 H 0.14828 0.33671 0.62209 0.0
H861 H 0.14536 0.22473 0.72866 0.0
H862 H 0.1008 0.18816 0.74207 0.0
H863 H 0.11662 0.23185 0.7709 0.0
H864 H 0.05059 0.24563 0.75777 0.0
H865 H 0.03447 0.20188 0.72905 0.0
H866 H 0.03398 0.24765 0.70655 0.0
H867 H 0.13101 0.27403 0.58227 0.0
H868 H 0.1066 0.20789 0.55516 0.0
H869 H 0.06242 0.16391 0.67377 0.0
C870 C 0.12236 0.31171 0.73577 0.0
C871 C 0.14099 0.35082 0.72401 0.0
C872 C 0.1496 0.35934 0.68249 0.0
C873 C 0.1412 0.32976 0.65362 0.0
C874 C 0.1231 0.29159 0.66629 0.0
C875 C 0.11312 0.2826 0.70632 0.0
C876 C 0.09214 0.2395 0.71168 0.0
C877 C 0.11511 0.21991 0.74001 0.0
C878 C 0.05031 0.2333 0.72718 0.0
C879 C 0.09226 0.22548 0.66853 0.0
C880 C 0.11076 0.256 0.64294 0.0
C881 C 0.11617 0.25011 0.60205 0.0
C882 C 0.10233 0.21233 0.58691 0.0
C883 C 0.08245 0.18063 0.61217 0.0
C884 C 0.07715 0.18754 0.65356 0.0
H885 H 0.84815 0.44768 0.5094 0.0
H886 H 0.81757 0.3311 0.55969 0.0
H887 H 0.75801 0.34003 0.58893 0.0
H888 H 0.79422 0.49307 0.58602 0.0
H889 H 0.77782 0.51903 0.54595 0.0
H890 H 0.8245 0.50968 0.54206 0.0
H891 H 0.80375 0.47705 0.47326 0.0
H892 H 0.75686 0.48541 0.4773 0.0
H893 H 0.76003 0.43689 0.47048 0.0
H894 H 0.69552 0.3544 0.5985 0.0
H895 H 0.63545 0.3737 0.58875 0.0
H896 H 0.70193 0.47861 0.5259 0.0
C897 C 0.82964 0.42481 0.5281 0.0
C898 C 0.83797 0.389 0.53286 0.0
C899 C 0.81274 0.3593 0.55687 0.0
C900 C 0.77844 0.36399 0.57324 0.0
C901 C 0.76937 0.39839 0.565 0.0
C902 C 0.79437 0.42854 0.5432 0.0
C903 C 0.77446 0.4591 0.53166 0.0
C904 C 0.79391 0.4975 0.5527 0.0
C905 C 0.77373 0.46491 0.48545 0.0
C906 C 0.73391 0.44034 0.54841 0.0
C907 C 0.73196 0.40593 0.56855 0.0
C908 C 0.69689 0.38178 0.5837 0.0
C909 C 0.66287 0.39295 0.57796 0.0
C910 C 0.664 0.42769 0.55667 0.0
C911 C 0.70017 0.45187 0.54227 0.0
loop_
_geom_bond_atom_site_label_1
_geom_bond_atom_site_label_2
_geom_bond_distance
_geom_bond_site_symmetry_2
_ccdc_geom_bond_type
C0 N1 1.317 . S
C0 N2 1.348 . S
C0 C3 1.485 . S
N1 C0 1.317 . S
N1 N5 1.370 . S
N2 C0 1.348 . S
N2 C4 1.346 . S
C3 C0 1.485 . S
C3 H7 0.960 . S
C3 H8 0.961 . S
C3 H9 0.960 . S
C4 N2 1.346 . S
C4 N5 1.307 . S
C4 C6 1.486 . S
N5 N1 1.370 . S
N5 C4 1.307 . S
C6 C4 1.486 . S
C6 H10 0.960 . S
C6 H11 0.960 . S
C6 H12 0.959 . S
H7 C3 0.960 . S
H8 C3 0.961 . S
H9 C3 0.960 . S
H10 C6 0.960 . S
H11 C6 0.960 . S
H12 C6 0.959 . S
C13 N14 1.317 . S
C13 N15 1.348 . S
C13 C16 1.485 . S
N14 C13 1.317 . S
N14 N18 1.370 . S
N15 C13 1.348 . S
N15 C17 1.346 . S
C16 C13 1.485 . S
C16 H20 0.960 . S
C16 H21 0.961 . S
C16 H22 0.960 . S
C17 N15 1.346 . S
C17 N18 1.307 . S
C17 C19 1.486 . S
N18 N14 1.370 . S
N18 C17 1.307 . S
C19 C17 1.486 . S
C19 H23 0.960 . S
C19 H24 0.960 . S
C19 H25 0.959 . S
H20 C16 0.960 . S
H21 C16 0.961 . S
H22 C16 0.960 . S
H23 C19 0.960 . S
H24 C19 0.960 . S
H25 C19 0.959 . S
C26 N27 1.317 . S
C26 N28 1.348 . S
C26 C29 1.485 . S
N27 C26 1.317 . S
N27 N31 1.370 . S
N28 C26 1.348 . S
N28 C30 1.346 . S
C29 C26 1.485 . S
C29 H33 0.960 . S
C29 H34 0.961 . S
C29 H35 0.960 . S
C30 N28 1.346 . S
C30 N31 1.307 . S
C30 C32 1.486 . S
N31 N27 1.370 . S
N31 C30 1.307 . S
C32 C30 1.486 . S
C32 H36 0.960 . S
C32 H37 0.960 . S
C32 H38 0.959 . S
H33 C29 0.960 . S
H34 C29 0.961 . S
H35 C29 0.960 . S
H36 C32 0.960 . S
H37 C32 0.960 . S
H38 C32 0.959 . S
C39 N40 1.317 . S
C39 N41 1.348 . S
C39 C42 1.485 . S
N40 C39 1.317 . S
N40 N44 1.370 . S
N41 C39 1.348 . S
N41 C43 1.346 . S
C42 C39 1.485 . S
C42 H46 0.960 . S
C42 H47 0.961 . S
C42 H48 0.960 . S
C43 N41 1.346 . S
C43 N44 1.307 . S
C43 C45 1.486 . S
N44 N40 1.370 . S
N44 C43 1.307 . S
C45 C43 1.486 . S
C45 H49 0.960 . S
C45 H50 0.960 . S
C45 H51 0.959 . S
H46 C42 0.960 . S
H47 C42 0.961 . S
H48 C42 0.960 . S
H49 C45 0.960 . S
H50 C45 0.960 . S
H51 C45 0.959 . S
C52 N53 1.317 . S
C52 N54 1.348 . S
C52 C55 1.485 . S
N53 C52 1.317 . S
N53 N57 1.370 . S
N54 C52 1.348 . S
N54 C56 1.346 . S
C55 C52 1.485 . S
C55 H59 0.960 . S
C55 H60 0.961 . S
C55 H61 0.960 . S
C56 N54 1.346 . S
C56 N57 1.307 . S
C56 C58 1.486 . S
N57 N53 1.370 . S
N57 C56 1.307 . S
C58 C56 1.486 . S
C58 H62 0.960 . S
C58 H63 0.960 . S
C58 H64 0.959 . S
H59 C55 0.960 . S
H60 C55 0.961 . S
H61 C55 0.960 . S
H62 C58 0.960 . S
H63 C58 0.960 . S
H64 C58 0.959 . S
C65 N66 1.317 . S
C65 N67 1.348 . S
C65 C68 1.485 . S
N66 C65 1.317 . S
N66 N70 1.370 . S
N67 C65 1.348 . S
N67 C69 1.346 . S
C68 C65 1.485 . S
C68 H72 0.960 . S
C68 H73 0.961 . S
C68 H74 0.960 . S
C69 N67 1.346 . S
C69 N70 1.307 . S
C69 C71 1.486 . S
N70 N66 1.370 . S
N70 C69 1.307 . S
C71 C69 1.486 . S
C71 H75 0.960 . S
C71 H76 0.960 . S
C71 H77 0.959 . S
H72 C68 0.960 . S
H73 C68 0.961 . S
H74 C68 0.960 . S
H75 C71 0.960 . S
H76 C71 0.960 . S
H77 C71 0.959 . S
C78 N79 1.317 . S
C78 N80 1.348 . S
C78 C81 1.485 . S
N79 C78 1.317 . S
N79 N83 1.370 . S
N80 C78 1.348 . S
N80 C82 1.346 . S
C81 C78 1.485 . S
C81 H85 0.960 . S
C81 H86 0.961 . S
C81 H87 0.960 . S
C82 N80 1.346 . S
C82 N83 1.307 . S
C82 C84 1.486 . S
N83 N79 1.370 . S
N83 C82 1.307 . S
C84 C82 1.486 . S
C84 H88 0.960 . S
C84 H89 0.960 . S
C84 H90 0.959 . S
H85 C81 0.960 . S
H86 C81 0.961 . S
H87 C81 0.960 . S
H88 C84 0.960 . S
H89 C84 0.960 . S
H90 C84 0.959 . S
C91 N92 1.317 . S
C91 N93 1.348 . S
C91 C94 1.485 . S
N92 C91 1.317 . S
N92 N96 1.370 . S
N93 C91 1.348 . S
N93 C95 1.346 . S
C94 C91 1.485 . S
C94 H98 0.960 . S
C94 H99 0.961 . S
C94 H100 0.960 . S
C95 N93 1.346 . S
C95 N96 1.307 . S
C95 C97 1.486 . S
N96 N92 1.370 . S
N96 C95 1.307 . S
C97 C95 1.486 . S
C97 H101 0.960 . S
C97 H102 0.960 . S
C97 H103 0.959 . S
H98 C94 0.960 . S
H99 C94 0.961 . S
H100 C94 0.960 . S
H101 C97 0.960 . S
H102 C97 0.960 . S
H103 C97 0.959 . S
Tb104 C113 2.764 . S
Tb104 O114 2.325 . S
Tb104 O117 2.303 . S
Tb104 O121 2.322 1_545 S
Tb104 O122 2.349 1_545 S
Tb104 O125 2.415 . S
Tb104 O126 2.399 . S
Tb105 O115 2.322 . S
Tb105 O116 2.349 1_655 S
Tb105 O118 2.415 1_545 S
Tb105 O119 2.399 1_545 S
Tb105 O120 2.325 1_645 S
Tb105 O123 2.303 1_645 S
Tb105 C134 2.764 1_545 S
C106 O122 1.261 . S
C106 O123 1.257 . S
C107 C110 1.358 . S
C107 C111 1.332 . S
C107 C113 1.504 . S
C108 C109 1.373 . S
C108 C112 1.308 . S
C109 C108 1.373 . S
C109 C110 1.429 . S
C109 H136 0.932 . S
C110 C107 1.358 . S
C110 C109 1.429 . S
C110 H137 0.930 . S
C111 C107 1.332 . S
C111 C112 1.394 . S
C111 H138 0.932 . S
C112 C108 1.308 . S
C112 C111 1.394 . S
C112 H139 0.929 . S
C113 Tb104 2.764 . S
C113 C107 1.504 . S
C113 O125 1.239 . S
C113 O126 1.263 . S
O114 Tb104 2.325 . S
O114 C124 1.236 . S
O115 Tb105 2.322 . S
O115 C124 1.257 1_655 S
O116 Tb105 2.349 1_455 S
O116 C127 1.261 . S
O117 Tb104 2.303 . S
O117 C127 1.257 . S
O118 Tb105 2.415 1_565 S
O118 C134 1.239 . S
O119 Tb105 2.399 1_565 S
O119 C134 1.263 . S
O120 Tb105 2.325 1_465 S
O120 C135 1.236 . S
O121 Tb104 2.322 1_565 S
O121 C135 1.257 . S
O122 Tb104 2.349 1_565 S
O122 C106 1.261 . S
O123 Tb105 2.303 1_465 S
O123 C106 1.257 . S
C124 O114 1.236 . S
C124 O115 1.257 1_455 S
O125 Tb104 2.415 . S
O125 C113 1.239 . S
O126 Tb104 2.399 . S
O126 C113 1.263 . S
C127 O116 1.261 . S
C127 O117 1.257 . S
C128 C131 1.358 . S
C128 C132 1.332 . S
C128 C134 1.504 . S
C129 C130 1.373 . S
C129 C133 1.308 . S
C130 C129 1.373 . S
C130 C131 1.429 . S
C130 H140 0.932 . S
C131 C128 1.358 . S
C131 C130 1.429 . S
C131 H141 0.930 . S
C132 C128 1.332 . S
C132 C133 1.394 . S
C132 H142 0.932 . S
C133 C129 1.308 . S
C133 C132 1.394 . S
C133 H143 0.929 . S
C134 Tb105 2.764 1_565 S
C134 O118 1.239 . S
C134 O119 1.263 . S
C134 C128 1.504 . S
C135 O120 1.236 . S
C135 O121 1.257 . S
H136 C109 0.932 . S
H137 C110 0.930 . S
H138 C111 0.932 . S
H139 C112 0.929 . S
H140 C130 0.932 . S
H141 C131 0.930 . S
H142 C132 0.932 . S
H143 C133 0.929 . S
Tb144 C153 2.764 . S
Tb144 O154 2.325 . S
Tb144 O157 2.303 . S
Tb144 O161 2.322 1_545 S
Tb144 O162 2.346 1_545 S
Tb144 O165 2.415 . S
Tb144 O166 2.399 . S
Tb145 O155 2.322 . S
Tb145 O156 2.349 . S
Tb145 O158 2.415 1_544 S
Tb145 O159 2.399 1_545 S
Tb145 O160 2.325 1_545 S
Tb145 O163 2.303 . S
Tb145 C174 2.764 1_544 S
C146 O162 1.262 . S
C146 O163 1.257 1_565 S
C147 C150 1.358 . S
C147 C151 1.332 . S
C147 C153 1.504 . S
C148 C149 1.373 . S
C148 C152 1.308 . S
C149 C148 1.373 . S
C149 C150 1.429 . S
C149 H176 0.932 . S
C150 C147 1.358 . S
C150 C149 1.429 . S
C150 H177 0.930 . S
C151 C147 1.332 . S
C151 C152 1.394 . S
C151 H178 0.932 . S
C152 C148 1.308 . S
C152 C151 1.394 . S
C152 H179 0.929 . S
C153 Tb144 2.764 . S
C153 C147 1.504 . S
C153 O165 1.239 . S
C153 O166 1.263 . S
O154 Tb144 2.325 . S
O154 C164 1.236 . S
O155 Tb145 2.322 . S
O155 C164 1.257 . S
O156 Tb145 2.349 . S
O156 C167 1.261 . S
O157 Tb144 2.303 . S
O157 C167 1.257 . S
O158 Tb145 2.415 1_566 S
O158 C174 1.239 . S
O159 Tb145 2.399 1_565 S
O159 C174 1.263 1_554 S
O160 Tb145 2.325 1_565 S
O160 C175 1.236 . S
O161 Tb144 2.322 1_565 S
O161 C175 1.257 . S
O162 Tb144 2.346 1_565 S
O162 C146 1.262 . S
O163 Tb145 2.303 . S
O163 C146 1.257 1_545 S
C164 O154 1.236 . S
C164 O155 1.257 . S
O165 Tb144 2.415 . S
O165 C153 1.239 . S
O166 Tb144 2.399 . S
O166 C153 1.263 . S
C167 O156 1.261 . S
C167 O157 1.257 . S
C168 C171 1.358 . S
C168 C172 1.332 . S
C168 C174 1.504 . S
C169 C170 1.373 . S
C169 C173 1.308 . S
C170 C169 1.373 . S
C170 C171 1.429 . S
C170 H180 0.932 . S
C171 C168 1.358 . S
C171 C170 1.429 . S
C171 H181 0.930 . S
C172 C168 1.332 . S
C172 C173 1.394 . S
C172 H182 0.932 . S
C173 C169 1.308 . S
C173 C172 1.394 . S
C173 H183 0.929 . S
C174 Tb145 2.764 1_566 S
C174 O158 1.239 . S
C174 O159 1.263 1_556 S
C174 C168 1.504 . S
C175 O160 1.236 . S
C175 O161 1.257 . S
H176 C149 0.932 . S
H177 C150 0.930 . S
H178 C151 0.932 . S
H179 C152 0.929 . S
H180 C170 0.932 . S
H181 C171 0.930 . S
H182 C172 0.932 . S
H183 C173 0.929 . S
Tb184 C193 2.764 . S
Tb184 O194 2.325 . S
Tb184 O197 2.303 . S
Tb184 O201 2.322 . S
Tb184 O202 2.349 . S
Tb184 O205 2.415 . S
Tb184 O206 2.399 . S
Tb185 O195 2.322 . S
Tb185 O196 2.349 . S
Tb185 O198 2.415 . S
Tb185 O199 2.399 . S
Tb185 O200 2.325 . S
Tb185 O203 2.303 . S
Tb185 C214 2.764 . S
C186 O202 1.261 . S
C186 O203 1.257 . S
C187 C190 1.358 . S
C187 C191 1.332 . S
C187 C193 1.504 . S
C188 C189 1.373 . S
C188 C192 1.308 . S
C189 C188 1.373 . S
C189 C190 1.429 . S
C189 H216 0.932 . S
C190 C187 1.358 . S
C190 C189 1.429 . S
C190 H217 0.930 . S
C191 C187 1.332 . S
C191 C192 1.394 . S
C191 H218 0.932 . S
C192 C188 1.308 . S
C192 C191 1.394 . S
C192 H219 0.929 . S
C193 Tb184 2.764 . S
C193 C187 1.504 . S
C193 O205 1.239 . S
C193 O206 1.263 . S
O194 Tb184 2.325 . S
O194 C204 1.236 . S
O195 Tb185 2.322 . S
O195 C204 1.257 . S
O196 Tb185 2.349 . S
O196 C207 1.261 . S
O197 Tb184 2.303 . S
O197 C207 1.257 . S
O198 Tb185 2.415 . S
O198 C214 1.239 . S
O199 Tb185 2.399 . S
O199 C214 1.263 . S
O200 Tb185 2.325 . S
O200 C215 1.236 . S
O201 Tb184 2.322 . S
O201 C215 1.257 . S
O202 Tb184 2.349 . S
O202 C186 1.261 . S
O203 Tb185 2.303 . S
O203 C186 1.257 . S
C204 O194 1.236 . S
C204 O195 1.257 . S
O205 Tb184 2.415 . S
O205 C193 1.239 . S
O206 Tb184 2.399 . S
O206 C193 1.263 . S
C207 O196 1.261 . S
C207 O197 1.257 . S
C208 C211 1.358 . S
C208 C212 1.332 . S
C208 C214 1.504 . S
C209 C210 1.373 . S
C209 C213 1.308 . S
C210 C209 1.373 . S
C210 C211 1.429 . S
C210 H220 0.932 . S
C211 C208 1.358 . S
C211 C210 1.429 . S
C211 H221 0.930 . S
C212 C208 1.332 . S
C212 C213 1.394 . S
C212 H222 0.932 . S
C213 C209 1.308 . S
C213 C212 1.394 . S
C213 H223 0.929 . S
C214 Tb185 2.764 . S
C214 O198 1.239 . S
C214 O199 1.263 . S
C214 C208 1.504 . S
C215 O200 1.236 . S
C215 O201 1.257 . S
H216 C189 0.932 . S
H217 C190 0.930 . S
H218 C191 0.932 . S
H219 C192 0.929 . S
H220 C210 0.932 . S
H221 C211 0.930 . S
H222 C212 0.932 . S
H223 C213 0.929 . S
Tb224 C233 2.764 . S
Tb224 O234 2.325 . S
Tb224 O237 2.303 1_556 S
Tb224 O241 2.322 1_656 S
Tb224 O242 2.349 1_655 S
Tb224 O245 2.415 . S
Tb224 O246 2.399 . S
Tb225 O235 2.322 1_455 S
Tb225 O236 2.349 1_455 S
Tb225 O238 2.415 . S
Tb225 O239 2.399 . S
Tb225 O240 2.325 . S
Tb225 O243 2.303 1_554 S
Tb225 C254 2.764 . S
C226 O242 1.261 . S
C226 O243 1.257 . S
C227 C230 1.358 . S
C227 C231 1.332 . S
C227 C233 1.504 . S
C228 C229 1.373 . S
C228 C232 1.308 . S
C229 C228 1.373 . S
C229 C230 1.429 . S
C229 H256 0.932 . S
C230 C227 1.358 . S
C230 C229 1.429 . S
C230 H257 0.930 . S
C231 C227 1.332 . S
C231 C232 1.394 . S
C231 H258 0.932 . S
C232 C228 1.308 . S
C232 C231 1.394 . S
C232 H259 0.929 . S
C233 Tb224 2.764 . S
C233 C227 1.504 . S
C233 O245 1.239 . S
C233 O246 1.263 . S
O234 Tb224 2.325 . S
O234 C244 1.236 . S
O235 Tb225 2.322 1_655 S
O235 C244 1.257 1_554 S
O236 Tb225 2.349 1_655 S
O236 C247 1.261 . S
O237 Tb224 2.303 1_554 S
O237 C247 1.257 . S
O238 Tb225 2.415 . S
O238 C254 1.239 . S
O239 Tb225 2.399 . S
O239 C254 1.263 . S
O240 Tb225 2.325 . S
O240 C255 1.236 . S
O241 Tb224 2.322 1_454 S
O241 C255 1.257 . S
O242 Tb224 2.349 1_455 S
O242 C226 1.261 . S
O243 Tb225 2.303 1_556 S
O243 C226 1.257 . S
C244 O234 1.236 . S
C244 O235 1.257 1_556 S
O245 Tb224 2.415 . S
O245 C233 1.239 . S
O246 Tb224 2.399 . S
O246 C233 1.263 . S
C247 O236 1.261 . S
C247 O237 1.257 . S
C248 C251 1.358 . S
C248 C252 1.332 . S
C248 C254 1.504 . S
C249 C250 1.373 . S
C249 C253 1.308 . S
C250 C249 1.373 . S
C250 C251 1.429 . S
C250 H260 0.932 . S
C251 C248 1.358 . S
C251 C250 1.429 . S
C251 H261 0.930 . S
C252 C248 1.332 . S
C252 C253 1.394 . S
C252 H262 0.932 . S
C253 C249 1.308 . S
C253 C252 1.394 . S
C253 H263 0.929 . S
C254 Tb225 2.764 . S
C254 O238 1.239 . S
C254 O239 1.263 . S
C254 C248 1.504 . S
C255 O240 1.236 . S
C255 O241 1.257 . S
H256 C229 0.932 . S
H257 C230 0.930 . S
H258 C231 0.932 . S
H259 C232 0.929 . S
H260 C250 0.932 . S
H261 C251 0.930 . S
H262 C252 0.932 . S
H263 C253 0.929 . S
H264 C276 0.930 . S
H265 C278 0.930 . S
H266 C279 0.930 . S
H267 C283 0.959 . S
H268 C283 0.959 . S
H269 C283 0.961 . S
H270 C284 0.960 . S
H271 C284 0.961 . S
H272 C284 0.959 . S
H273 C287 0.929 . S
H274 C288 0.931 . S
H275 C290 0.930 . S
C276 H264 0.930 . S
C276 C277 1.399 . S
C276 C281 1.399 . S
C277 C276 1.399 . S
C277 C278 1.376 . S
C278 H265 0.930 . S
C278 C277 1.376 . S
C278 C279 1.388 . S
C279 H266 0.930 . S
C279 C278 1.388 . S
C279 C280 1.390 . S
C280 C279 1.390 . S
C280 C281 1.394 . S
C280 C286 1.465 . S
C281 C276 1.399 . S
C281 C280 1.394 . S
C281 C282 1.516 . S
C282 C281 1.516 . S
C282 C283 1.502 . S
C282 C284 1.561 . S
C282 C285 1.526 . S
C283 H267 0.959 . S
C283 H268 0.959 . S
C283 H269 0.961 . S
C283 C282 1.502 . S
C284 H270 0.960 . S
C284 H271 0.961 . S
C284 H272 0.959 . S
C284 C282 1.561 . S
C285 C282 1.526 . S
C285 C286 1.396 . S
C285 C290 1.390 . S
C286 C280 1.465 . S
C286 C285 1.396 . S
C286 C287 1.399 . S
C287 H273 0.929 . S
C287 C286 1.399 . S
C287 C288 1.385 . S
C288 H274 0.931 . S
C288 C287 1.385 . S
C288 C289 1.389 . S
C289 C288 1.389 . S
C289 C290 1.387 . S
C290 H275 0.930 . S
C290 C285 1.390 . S
C290 C289 1.387 . S
H291 C303 0.930 . S
H292 C305 0.930 . S
H293 C306 0.930 . S
H294 C310 0.959 . S
H295 C310 0.959 . S
H296 C310 0.961 . S
H297 C311 0.960 . S
H298 C311 0.961 . S
H299 C311 0.959 . S
H300 C314 0.929 . S
H301 C315 0.931 . S
H302 C317 0.930 . S
C303 H291 0.930 . S
C303 C304 1.399 . S
C303 C308 1.399 . S
C304 C303 1.399 . S
C304 C305 1.376 . S
C305 H292 0.930 . S
C305 C304 1.376 . S
C305 C306 1.388 . S
C306 H293 0.930 . S
C306 C305 1.388 . S
C306 C307 1.390 . S
C307 C306 1.390 . S
C307 C308 1.394 . S
C307 C313 1.465 . S
C308 C303 1.399 . S
C308 C307 1.394 . S
C308 C309 1.516 . S
C309 C308 1.516 . S
C309 C310 1.502 . S
C309 C311 1.561 . S
C309 C312 1.526 . S
C310 H294 0.959 . S
C310 H295 0.959 . S
C310 H296 0.961 . S
C310 C309 1.502 . S
C311 H297 0.960 . S
C311 H298 0.961 . S
C311 H299 0.959 . S
C311 C309 1.561 . S
C312 C309 1.526 . S
C312 C313 1.396 . S
C312 C317 1.390 . S
C313 C307 1.465 . S
C313 C312 1.396 . S
C313 C314 1.399 . S
C314 H300 0.929 . S
C314 C313 1.399 . S
C314 C315 1.385 . S
C315 H301 0.931 . S
C315 C314 1.385 . S
C315 C316 1.389 . S
C316 C315 1.389 . S
C316 C317 1.387 . S
C317 H302 0.930 . S
C317 C312 1.390 . S
C317 C316 1.387 . S
H318 C330 0.930 . S
H319 C332 0.930 . S
H320 C333 0.930 . S
H321 C337 0.959 . S
H322 C337 0.959 . S
H323 C337 0.961 . S
H324 C338 0.960 . S
H325 C338 0.961 . S
H326 C338 0.959 . S
H327 C341 0.929 . S
H328 C342 0.931 . S
H329 C344 0.930 . S
C330 H318 0.930 . S
C330 C331 1.399 . S
C330 C335 1.399 . S
C331 C330 1.399 . S
C331 C332 1.376 . S
C332 H319 0.930 . S
C332 C331 1.376 . S
C332 C333 1.388 . S
C333 H320 0.930 . S
C333 C332 1.388 . S
C333 C334 1.390 . S
C334 C333 1.390 . S
C334 C335 1.394 . S
C334 C340 1.465 . S
C335 C330 1.399 . S
C335 C334 1.394 . S
C335 C336 1.516 . S
C336 C335 1.516 . S
C336 C337 1.502 . S
C336 C338 1.561 . S
C336 C339 1.526 . S
C337 H321 0.959 . S
C337 H322 0.959 . S
C337 H323 0.961 . S
C337 C336 1.502 . S
C338 H324 0.960 . S
C338 H325 0.961 . S
C338 H326 0.959 . S
C338 C336 1.561 . S
C339 C336 1.526 . S
C339 C340 1.396 . S
C339 C344 1.390 . S
C340 C334 1.465 . S
C340 C339 1.396 . S
C340 C341 1.399 . S
C341 H327 0.929 . S
C341 C340 1.399 . S
C341 C342 1.385 . S
C342 H328 0.931 . S
C342 C341 1.385 . S
C342 C343 1.389 . S
C343 C342 1.389 . S
C343 C344 1.387 . S
C344 H329 0.930 . S
C344 C339 1.390 . S
C344 C343 1.387 . S
H345 C357 0.930 . S
H346 C359 0.930 . S
H347 C360 0.930 . S
H348 C364 0.959 . S
H349 C364 0.959 . S
H350 C364 0.961 . S
H351 C365 0.960 . S
H352 C365 0.961 . S
H353 C365 0.959 . S
H354 C368 0.929 . S
H355 C369 0.931 . S
H356 C371 0.930 . S
C357 H345 0.930 . S
C357 C358 1.399 . S
C357 C362 1.399 . S
C358 C357 1.399 . S
C358 C359 1.376 . S
C359 H346 0.930 . S
C359 C358 1.376 . S
C359 C360 1.388 . S
C360 H347 0.930 . S
C360 C359 1.388 . S
C360 C361 1.390 . S
C361 C360 1.390 . S
C361 C362 1.394 . S
C361 C367 1.465 . S
C362 C357 1.399 . S
C362 C361 1.394 . S
C362 C363 1.516 . S
C363 C362 1.516 . S
C363 C364 1.502 . S
C363 C365 1.561 . S
C363 C366 1.526 . S
C364 H348 0.959 . S
C364 H349 0.959 . S
C364 H350 0.961 . S
C364 C363 1.502 . S
C365 H351 0.960 . S
C365 H352 0.961 . S
C365 H353 0.959 . S
C365 C363 1.561 . S
C366 C363 1.526 . S
C366 C367 1.396 . S
C366 C371 1.390 . S
C367 C361 1.465 . S
C367 C366 1.396 . S
C367 C368 1.399 . S
C368 H354 0.929 . S
C368 C367 1.399 . S
C368 C369 1.385 . S
C369 H355 0.931 . S
C369 C368 1.385 . S
C369 C370 1.389 . S
C370 C369 1.389 . S
C370 C371 1.387 . S
C371 H356 0.930 . S
C371 C366 1.390 . S
C371 C370 1.387 . S
H372 C384 0.930 . S
H373 C386 0.930 . S
H374 C387 0.930 . S
H375 C391 0.959 . S
H376 C391 0.959 . S
H377 C391 0.961 . S
H378 C392 0.960 . S
H379 C392 0.961 . S
H380 C392 0.959 . S
H381 C395 0.929 . S
H382 C396 0.931 . S
H383 C398 0.930 . S
C384 H372 0.930 . S
C384 C385 1.399 . S
C384 C389 1.399 . S
C385 C384 1.399 . S
C385 C386 1.376 . S
C386 H373 0.930 . S
C386 C385 1.376 . S
C386 C387 1.388 . S
C387 H374 0.930 . S
C387 C386 1.388 . S
C387 C388 1.390 . S
C388 C387 1.390 . S
C388 C389 1.394 . S
C388 C394 1.465 . S
C389 C384 1.399 . S
C389 C388 1.394 . S
C389 C390 1.516 . S
C390 C389 1.516 . S
C390 C391 1.502 . S
C390 C392 1.561 . S
C390 C393 1.526 . S
C391 H375 0.959 . S
C391 H376 0.959 . S
C391 H377 0.961 . S
C391 C390 1.502 . S
C392 H378 0.960 . S
C392 H379 0.961 . S
C392 H380 0.959 . S
C392 C390 1.561 . S
C393 C390 1.526 . S
C393 C394 1.396 . S
C393 C398 1.390 . S
C394 C388 1.465 . S
C394 C393 1.396 . S
C394 C395 1.399 . S
C395 H381 0.929 . S
C395 C394 1.399 . S
C395 C396 1.385 . S
C396 H382 0.931 . S
C396 C395 1.385 . S
C396 C397 1.389 . S
C397 C396 1.389 . S
C397 C398 1.387 . S
C398 H383 0.930 . S
C398 C393 1.390 . S
C398 C397 1.387 . S
H399 C411 0.930 . S
H400 C413 0.930 . S
H401 C414 0.930 . S
H402 C418 0.959 . S
H403 C418 0.959 . S
H404 C418 0.961 . S
H405 C419 0.960 . S
H406 C419 0.961 . S
H407 C419 0.959 . S
H408 C422 0.929 . S
H409 C423 0.931 . S
H410 C425 0.930 . S
C411 H399 0.930 . S
C411 C412 1.399 . S
C411 C416 1.399 . S
C412 C411 1.399 . S
C412 C413 1.376 . S
C413 H400 0.930 . S
C413 C412 1.376 . S
C413 C414 1.388 . S
C414 H401 0.930 . S
C414 C413 1.388 . S
C414 C415 1.390 . S
C415 C414 1.390 . S
C415 C416 1.394 . S
C415 C421 1.465 . S
C416 C411 1.399 . S
C416 C415 1.394 . S
C416 C417 1.516 . S
C417 C416 1.516 . S
C417 C418 1.502 . S
C417 C419 1.561 . S
C417 C420 1.526 . S
C418 H402 0.959 . S
C418 H403 0.959 . S
C418 H404 0.961 . S
C418 C417 1.502 . S
C419 H405 0.960 . S
C419 H406 0.961 . S
C419 H407 0.959 . S
C419 C417 1.561 . S
C420 C417 1.526 . S
C420 C421 1.396 . S
C420 C425 1.390 . S
C421 C415 1.465 . S
C421 C420 1.396 . S
C421 C422 1.399 . S
C422 H408 0.929 . S
C422 C421 1.399 . S
C422 C423 1.385 . S
C423 H409 0.931 . S
C423 C422 1.385 . S
C423 C424 1.389 . S
C424 C423 1.389 . S
C424 C425 1.387 . S
C425 H410 0.930 . S
C425 C420 1.390 . S
C425 C424 1.387 . S
H426 C438 0.930 . S
H427 C440 0.930 . S
H428 C441 0.930 . S
H429 C445 0.959 . S
H430 C445 0.959 . S
H431 C445 0.961 . S
H432 C446 0.960 . S
H433 C446 0.961 . S
H434 C446 0.959 . S
H435 C449 0.929 . S
H436 C450 0.931 1_554 S
H437 C452 0.930 . S
C438 H426 0.930 . S
C438 C439 1.399 . S
C438 C443 1.399 . S
C439 C438 1.399 . S
C439 C440 1.376 . S
C440 H427 0.930 . S
C440 C439 1.376 . S
C440 C441 1.388 . S
C441 H428 0.930 . S
C441 C440 1.388 . S
C441 C442 1.390 . S
C442 C441 1.390 . S
C442 C443 1.394 . S
C442 C448 1.465 . S
C443 C438 1.399 . S
C443 C442 1.394 . S
C443 C444 1.516 . S
C444 C443 1.516 . S
C444 C445 1.502 . S
C444 C446 1.561 . S
C444 C447 1.526 . S
C445 H429 0.959 . S
C445 H430 0.959 . S
C445 H431 0.961 . S
C445 C444 1.502 . S
C446 H432 0.960 . S
C446 H433 0.961 . S
C446 H434 0.959 . S
C446 C444 1.561 . S
C447 C444 1.526 . S
C447 C448 1.396 . S
C447 C452 1.390 . S
C448 C442 1.465 . S
C448 C447 1.396 . S
C448 C449 1.399 . S
C449 H435 0.929 . S
C449 C448 1.399 . S
C449 C450 1.385 . S
C450 H436 0.931 1_556 S
C450 C449 1.385 . S
C450 C451 1.389 . S
C451 C450 1.389 . S
C451 C452 1.387 . S
C452 H437 0.930 . S
C452 C447 1.390 . S
C452 C451 1.387 . S
H453 C465 0.930 . S
H454 C467 0.930 . S
H455 C468 0.930 . S
H456 C472 0.959 . S
H457 C472 0.959 . S
H458 C472 0.961 . S
H459 C473 0.960 . S
H460 C473 0.961 . S
H461 C473 0.959 . S
H462 C476 0.929 . S
H463 C477 0.931 . S
H464 C479 0.930 . S
C465 H453 0.930 . S
C465 C466 1.399 . S
C465 C470 1.399 . S
C466 C465 1.399 . S
C466 C467 1.376 . S
C467 H454 0.930 . S
C467 C466 1.376 . S
C467 C468 1.388 . S
C468 H455 0.930 . S
C468 C467 1.388 . S
C468 C469 1.390 . S
C469 C468 1.390 . S
C469 C470 1.394 . S
C469 C475 1.465 . S
C470 C465 1.399 . S
C470 C469 1.394 . S
C470 C471 1.516 . S
C471 C470 1.516 . S
C471 C472 1.502 . S
C471 C473 1.561 . S
C471 C474 1.526 . S
C472 H456 0.959 . S
C472 H457 0.959 . S
C472 H458 0.961 . S
C472 C471 1.502 . S
C473 H459 0.960 . S
C473 H460 0.961 . S
C473 H461 0.959 . S
C473 C471 1.561 . S
C474 C471 1.526 . S
C474 C475 1.396 . S
C474 C479 1.390 . S
C475 C469 1.465 . S
C475 C474 1.396 . S
C475 C476 1.399 . S
C476 H462 0.929 . S
C476 C475 1.399 . S
C476 C477 1.385 . S
C477 H463 0.931 . S
C477 C476 1.385 . S
C477 C478 1.389 . S
C478 C477 1.389 . S
C478 C479 1.387 . S
C479 H464 0.930 . S
C479 C474 1.390 . S
C479 C478 1.387 . S
H480 C492 0.930 . S
H481 C494 0.930 . S
H482 C495 0.930 . S
H483 C499 0.959 . S
H484 C499 0.959 . S
H485 C499 0.961 . S
H486 C500 0.960 . S
H487 C500 0.961 . S
H488 C500 0.959 . S
H489 C503 0.929 . S
H490 C504 0.931 . S
H491 C506 0.930 . S
C492 H480 0.930 . S
C492 C493 1.399 . S
C492 C497 1.399 . S
C493 C492 1.399 . S
C493 C494 1.376 . S
C494 H481 0.930 . S
C494 C493 1.376 . S
C494 C495 1.388 . S
C495 H482 0.930 . S
C495 C494 1.388 . S
C495 C496 1.390 . S
C496 C495 1.390 . S
C496 C497 1.394 . S
C496 C502 1.465 . S
C497 C492 1.399 . S
C497 C496 1.394 . S
C497 C498 1.516 . S
C498 C497 1.516 . S
C498 C499 1.502 . S
C498 C500 1.561 . S
C498 C501 1.526 . S
C499 H483 0.959 . S
C499 H484 0.959 . S
C499 H485 0.961 . S
C499 C498 1.502 . S
C500 H486 0.960 . S
C500 H487 0.961 . S
C500 H488 0.959 . S
C500 C498 1.561 . S
C501 C498 1.526 . S
C501 C502 1.396 . S
C501 C506 1.390 . S
C502 C496 1.465 . S
C502 C501 1.396 . S
C502 C503 1.399 . S
C503 H489 0.929 . S
C503 C502 1.399 . S
C503 C504 1.385 . S
C504 H490 0.931 . S
C504 C503 1.385 . S
C504 C505 1.389 . S
C505 C504 1.389 . S
C505 C506 1.387 . S
C506 H491 0.930 . S
C506 C501 1.390 . S
C506 C505 1.387 . S
H507 C519 0.930 . S
H508 C521 0.930 . S
H509 C522 0.930 . S
H510 C526 0.959 . S
H511 C526 0.959 . S
H512 C526 0.961 . S
H513 C527 0.960 . S
H514 C527 0.961 . S
H515 C527 0.959 1_556 S
H516 C530 0.929 . S
H517 C531 0.931 . S
H518 C533 0.930 . S
C519 H507 0.930 . S
C519 C520 1.399 . S
C519 C524 1.399 . S
C520 C519 1.399 . S
C520 C521 1.376 . S
C521 H508 0.930 . S
C521 C520 1.376 . S
C521 C522 1.388 . S
C522 H509 0.930 . S
C522 C521 1.388 . S
C522 C523 1.390 . S
C523 C522 1.390 . S
C523 C524 1.394 . S
C523 C529 1.465 . S
C524 C519 1.399 . S
C524 C523 1.394 . S
C524 C525 1.516 . S
C525 C524 1.516 . S
C525 C526 1.502 1_556 S
C525 C527 1.561 1_556 S
C525 C528 1.526 . S
C526 H510 0.959 . S
C526 H511 0.959 . S
C526 H512 0.961 . S
C526 C525 1.502 1_554 S
C527 H513 0.960 . S
C527 H514 0.961 . S
C527 H515 0.959 1_554 S
C527 C525 1.561 1_554 S
C528 C525 1.526 . S
C528 C529 1.396 . S
C528 C533 1.390 1_556 S
C529 C523 1.465 . S
C529 C528 1.396 . S
C529 C530 1.399 . S
C530 H516 0.929 . S
C530 C529 1.399 . S
C530 C531 1.385 . S
C531 H517 0.931 . S
C531 C530 1.385 . S
C531 C532 1.389 1_556 S
C532 C531 1.389 1_554 S
C532 C533 1.387 . S
C533 H518 0.930 . S
C533 C528 1.390 1_554 S
C533 C532 1.387 . S
H534 C546 0.930 . S
H535 C548 0.930 . S
H536 C549 0.930 . S
H537 C553 0.959 . S
H538 C553 0.959 . S
H539 C553 0.961 . S
H540 C554 0.960 . S
H541 C554 0.961 . S
H542 C554 0.959 . S
H543 C557 0.929 . S
H544 C558 0.931 . S
H545 C560 0.930 . S
C546 H534 0.930 . S
C546 C547 1.399 . S
C546 C551 1.399 . S
C547 C546 1.399 . S
C547 C548 1.376 . S
C548 H535 0.930 . S
C548 C547 1.376 . S
C548 C549 1.388 . S
C549 H536 0.930 . S
C549 C548 1.388 . S
C549 C550 1.390 . S
C550 C549 1.390 . S
C550 C551 1.394 . S
C550 C556 1.465 . S
C551 C546 1.399 . S
C551 C550 1.394 . S
C551 C552 1.516 . S
C552 C551 1.516 . S
C552 C553 1.502 . S
C552 C554 1.561 . S
C552 C555 1.526 . S
C553 H537 0.959 . S
C553 H538 0.959 . S
C553 H539 0.961 . S
C553 C552 1.502 . S
C554 H540 0.960 . S
C554 H541 0.961 . S
C554 H542 0.959 . S
C554 C552 1.561 . S
C555 C552 1.526 . S
C555 C556 1.396 . S
C555 C560 1.390 . S
C556 C550 1.465 . S
C556 C555 1.396 . S
C556 C557 1.399 . S
C557 H543 0.929 . S
C557 C556 1.399 . S
C557 C558 1.385 . S
C558 H544 0.931 . S
C558 C557 1.385 . S
C558 C559 1.389 . S
C559 C558 1.389 . S
C559 C560 1.387 . S
C560 H545 0.930 . S
C560 C555 1.390 . S
C560 C559 1.387 . S
H561 C573 0.930 . S
H562 C575 0.930 . S
H563 C576 0.930 . S
H564 C580 0.959 . S
H565 C580 0.959 . S
H566 C580 0.961 . S
H567 C581 0.960 . S
H568 C581 0.961 . S
H569 C581 0.959 . S
H570 C584 0.929 . S
H571 C585 0.931 . S
H572 C587 0.930 . S
C573 H561 0.930 . S
C573 C574 1.399 . S
C573 C578 1.399 . S
C574 C573 1.399 . S
C574 C575 1.376 . S
C575 H562 0.930 . S
C575 C574 1.376 . S
C575 C576 1.388 . S
C576 H563 0.930 . S
C576 C575 1.388 . S
C576 C577 1.390 . S
C577 C576 1.390 . S
C577 C578 1.394 . S
C577 C583 1.465 . S
C578 C573 1.399 . S
C578 C577 1.394 . S
C578 C579 1.516 . S
C579 C578 1.516 . S
C579 C580 1.502 . S
C579 C581 1.561 . S
C579 C582 1.526 . S
C580 H564 0.959 . S
C580 H565 0.959 . S
C580 H566 0.961 . S
C580 C579 1.502 . S
C581 H567 0.960 . S
C581 H568 0.961 . S
C581 H569 0.959 . S
C581 C579 1.561 . S
C582 C579 1.526 . S
C582 C583 1.396 . S
C582 C587 1.390 . S
C583 C577 1.465 . S
C583 C582 1.396 . S
C583 C584 1.399 . S
C584 H570 0.929 . S
C584 C583 1.399 . S
C584 C585 1.385 . S
C585 H571 0.931 . S
C585 C584 1.385 . S
C585 C586 1.389 . S
C586 C585 1.389 . S
C586 C587 1.387 . S
C587 H572 0.930 . S
C587 C582 1.390 . S
C587 C586 1.387 . S
H588 C600 0.930 . S
H589 C602 0.930 . S
H590 C603 0.930 . S
H591 C607 0.959 . S
H592 C607 0.959 . S
H593 C607 0.961 . S
H594 C608 0.960 . S
H595 C608 0.961 . S
H596 C608 0.959 . S
H597 C611 0.929 . S
H598 C612 0.931 . S
H599 C614 0.930 . S
C600 H588 0.930 . S
C600 C601 1.399 . S
C600 C605 1.399 . S
C601 C600 1.399 . S
C601 C602 1.376 . S
C602 H589 0.930 . S
C602 C601 1.376 . S
C602 C603 1.388 . S
C603 H590 0.930 . S
C603 C602 1.388 . S
C603 C604 1.390 . S
C604 C603 1.390 . S
C604 C605 1.394 . S
C604 C610 1.465 . S
C605 C600 1.399 . S
C605 C604 1.394 . S
C605 C606 1.516 . S
C606 C605 1.516 . S
C606 C607 1.502 . S
C606 C608 1.561 . S
C606 C609 1.526 . S
C607 H591 0.959 . S
C607 H592 0.959 . S
C607 H593 0.961 . S
C607 C606 1.502 . S
C608 H594 0.960 . S
C608 H595 0.961 . S
C608 H596 0.959 . S
C608 C606 1.561 . S
C609 C606 1.526 . S
C609 C610 1.396 . S
C609 C614 1.390 . S
C610 C604 1.465 . S
C610 C609 1.396 . S
C610 C611 1.399 . S
C611 H597 0.929 . S
C611 C610 1.399 . S
C611 C612 1.385 . S
C612 H598 0.931 . S
C612 C611 1.385 . S
C612 C613 1.389 . S
C613 C612 1.389 . S
C613 C614 1.387 . S
C614 H599 0.930 . S
C614 C609 1.390 . S
C614 C613 1.387 . S
H615 C627 0.930 . S
H616 C629 0.930 . S
H617 C630 0.930 . S
H618 C634 0.959 . S
H619 C634 0.959 . S
H620 C634 0.961 . S
H621 C635 0.960 . S
H622 C635 0.961 . S
H623 C635 0.959 . S
H624 C638 0.929 . S
H625 C639 0.931 . S
H626 C641 0.930 . S
C627 H615 0.930 . S
C627 C628 1.399 . S
C627 C632 1.399 . S
C628 C627 1.399 . S
C628 C629 1.376 . S
C629 H616 0.930 . S
C629 C628 1.376 . S
C629 C630 1.388 . S
C630 H617 0.930 . S
C630 C629 1.388 . S
C630 C631 1.390 . S
C631 C630 1.390 . S
C631 C632 1.394 . S
C631 C637 1.465 . S
C632 C627 1.399 . S
C632 C631 1.394 . S
C632 C633 1.516 . S
C633 C632 1.516 . S
C633 C634 1.502 . S
C633 C635 1.561 . S
C633 C636 1.526 . S
C634 H618 0.959 . S
C634 H619 0.959 . S
C634 H620 0.961 . S
C634 C633 1.502 . S
C635 H621 0.960 . S
C635 H622 0.961 . S
C635 H623 0.959 . S
C635 C633 1.561 . S
C636 C633 1.526 . S
C636 C637 1.396 . S
C636 C641 1.390 . S
C637 C631 1.465 . S
C637 C636 1.396 . S
C637 C638 1.399 . S
C638 H624 0.929 . S
C638 C637 1.399 . S
C638 C639 1.385 . S
C639 H625 0.931 . S
C639 C638 1.385 . S
C639 C640 1.389 . S
C640 C639 1.389 . S
C640 C641 1.387 . S
C641 H626 0.930 . S
C641 C636 1.390 . S
C641 C640 1.387 . S
H642 C654 0.930 . S
H643 C656 0.930 . S
H644 C657 0.930 . S
H645 C661 0.959 . S
H646 C661 0.959 . S
H647 C661 0.961 . S
H648 C662 0.960 . S
H649 C662 0.961 . S
H650 C662 0.959 . S
H651 C665 0.929 . S
H652 C666 0.931 . S
H653 C668 0.930 . S
C654 H642 0.930 . S
C654 C655 1.399 . S
C654 C659 1.399 . S
C655 C654 1.399 . S
C655 C656 1.376 . S
C656 H643 0.930 . S
C656 C655 1.376 . S
C656 C657 1.388 . S
C657 H644 0.930 . S
C657 C656 1.388 . S
C657 C658 1.390 . S
C658 C657 1.390 . S
C658 C659 1.394 . S
C658 C664 1.465 . S
C659 C654 1.399 . S
C659 C658 1.394 . S
C659 C660 1.516 . S
C660 C659 1.516 . S
C660 C661 1.502 . S
C660 C662 1.561 . S
C660 C663 1.526 . S
C661 H645 0.959 . S
C661 H646 0.959 . S
C661 H647 0.961 . S
C661 C660 1.502 . S
C662 H648 0.960 . S
C662 H649 0.961 . S
C662 H650 0.959 . S
C662 C660 1.561 . S
C663 C660 1.526 . S
C663 C664 1.396 . S
C663 C668 1.390 . S
C664 C658 1.465 . S
C664 C663 1.396 . S
C664 C665 1.399 . S
C665 H651 0.929 . S
C665 C664 1.399 . S
C665 C666 1.385 . S
C666 H652 0.931 . S
C666 C665 1.385 . S
C666 C667 1.389 . S
C667 C666 1.389 . S
C667 C668 1.387 . S
C668 H653 0.930 . S
C668 C663 1.390 . S
C668 C667 1.387 . S
H669 C681 0.930 . S
H670 C683 0.930 . S
H671 C684 0.930 . S
H672 C688 0.959 . S
H673 C688 0.959 . S
H674 C688 0.961 . S
H675 C689 0.960 . S
H676 C689 0.961 . S
H677 C689 0.959 . S
H678 C692 0.929 . S
H679 C693 0.931 . S
H680 C695 0.930 . S
C681 H669 0.930 . S
C681 C682 1.399 . S
C681 C686 1.399 . S
C682 C681 1.399 . S
C682 C683 1.376 . S
C683 H670 0.930 . S
C683 C682 1.376 . S
C683 C684 1.388 . S
C684 H671 0.930 . S
C684 C683 1.388 . S
C684 C685 1.390 . S
C685 C684 1.390 . S
C685 C686 1.394 . S
C685 C691 1.465 . S
C686 C681 1.399 . S
C686 C685 1.394 . S
C686 C687 1.516 . S
C687 C686 1.516 . S
C687 C688 1.502 . S
C687 C689 1.561 . S
C687 C690 1.526 . S
C688 H672 0.959 . S
C688 H673 0.959 . S
C688 H674 0.961 . S
C688 C687 1.502 . S
C689 H675 0.960 . S
C689 H676 0.961 . S
C689 H677 0.959 . S
C689 C687 1.561 . S
C690 C687 1.526 . S
C690 C691 1.396 . S
C690 C695 1.390 . S
C691 C685 1.465 . S
C691 C690 1.396 . S
C691 C692 1.399 . S
C692 H678 0.929 . S
C692 C691 1.399 . S
C692 C693 1.385 . S
C693 H679 0.931 . S
C693 C692 1.385 . S
C693 C694 1.389 . S
C694 C693 1.389 . S
C694 C695 1.387 . S
C695 H680 0.930 . S
C695 C690 1.390 . S
C695 C694 1.387 . S
H696 C708 0.930 . S
H697 C710 0.930 . S
H698 C711 0.930 . S
H699 C715 0.959 . S
H700 C715 0.959 . S
H701 C715 0.961 . S
H702 C716 0.960 . S
H703 C716 0.961 . S
H704 C716 0.959 . S
H705 C719 0.929 . S
H706 C720 0.931 . S
H707 C722 0.930 . S
C708 H696 0.930 . S
C708 C709 1.399 . S
C708 C713 1.399 . S
C709 C708 1.399 . S
C709 C710 1.376 . S
C710 H697 0.930 . S
C710 C709 1.376 . S
C710 C711 1.388 . S
C711 H698 0.930 . S
C711 C710 1.388 . S
C711 C712 1.390 . S
C712 C711 1.390 . S
C712 C713 1.394 . S
C712 C718 1.465 . S
C713 C708 1.399 . S
C713 C712 1.394 . S
C713 C714 1.516 . S
C714 C713 1.516 . S
C714 C715 1.502 . S
C714 C716 1.561 . S
C714 C717 1.526 . S
C715 H699 0.959 . S
C715 H700 0.959 . S
C715 H701 0.961 . S
C715 C714 1.502 . S
C716 H702 0.960 . S
C716 H703 0.961 . S
C716 H704 0.959 . S
C716 C714 1.561 . S
C717 C714 1.526 . S
C717 C718 1.396 . S
C717 C722 1.390 . S
C718 C712 1.465 . S
C718 C717 1.396 . S
C718 C719 1.399 1_556 S
C719 H705 0.929 . S
C719 C718 1.399 1_554 S
C719 C720 1.385 . S
C720 H706 0.931 . S
C720 C719 1.385 . S
C720 C721 1.389 . S
C721 C720 1.389 . S
C721 C722 1.387 1_554 S
C722 H707 0.930 . S
C722 C717 1.390 . S
C722 C721 1.387 1_556 S
H723 C735 0.930 . S
H724 C737 0.930 . S
H725 C738 0.930 . S
H726 C742 0.959 . S
H727 C742 0.959 . S
H728 C742 0.961 . S
H729 C743 0.960 1_455 S
H730 C743 0.961 1_455 S
H731 C743 0.959 . S
H732 C746 0.929 . S
H733 C747 0.931 . S
H734 C749 0.930 1_455 S
C735 H723 0.930 . S
C735 C736 1.399 . S
C735 C740 1.399 . S
C736 C735 1.399 . S
C736 C737 1.376 . S
C737 H724 0.930 . S
C737 C736 1.376 . S
C737 C738 1.388 . S
C738 H725 0.930 . S
C738 C737 1.388 . S
C738 C739 1.390 . S
C739 C738 1.390 . S
C739 C740 1.394 . S
C739 C745 1.465 . S
C740 C735 1.399 . S
C740 C739 1.394 . S
C740 C741 1.516 . S
C741 C740 1.516 . S
C741 C742 1.502 1_655 S
C741 C743 1.561 . S
C741 C744 1.526 . S
C742 H726 0.959 . S
C742 H727 0.959 . S
C742 H728 0.961 . S
C742 C741 1.502 1_455 S
C743 H729 0.960 1_655 S
C743 H730 0.961 1_655 S
C743 H731 0.959 . S
C743 C741 1.561 . S
C744 C741 1.526 . S
C744 C745 1.396 . S
C744 C749 1.390 . S
C745 C739 1.465 . S
C745 C744 1.396 . S
C745 C746 1.399 . S
C746 H732 0.929 . S
C746 C745 1.399 . S
C746 C747 1.385 . S
C747 H733 0.931 . S
C747 C746 1.385 . S
C747 C748 1.389 . S
C748 C747 1.389 . S
C748 C749 1.387 . S
C749 H734 0.930 1_655 S
C749 C744 1.390 . S
C749 C748 1.387 . S
H750 C762 0.930 . S
H751 C764 0.930 . S
H752 C765 0.930 . S
H753 C769 0.959 . S
H754 C769 0.959 . S
H755 C769 0.961 . S
H756 C770 0.960 . S
H757 C770 0.961 . S
H758 C770 0.959 . S
H759 C773 0.929 . S
H760 C774 0.931 . S
H761 C776 0.930 . S
C762 H750 0.930 . S
C762 C763 1.399 . S
C762 C767 1.399 . S
C763 C762 1.399 . S
C763 C764 1.376 . S
C764 H751 0.930 . S
C764 C763 1.376 . S
C764 C765 1.388 . S
C765 H752 0.930 . S
C765 C764 1.388 . S
C765 C766 1.390 . S
C766 C765 1.390 . S
C766 C767 1.394 . S
C766 C772 1.465 . S
C767 C762 1.399 . S
C767 C766 1.394 . S
C767 C768 1.516 . S
C768 C767 1.516 . S
C768 C769 1.502 . S
C768 C770 1.561 . S
C768 C771 1.526 . S
C769 H753 0.959 . S
C769 H754 0.959 . S
C769 H755 0.961 . S
C769 C768 1.502 . S
C770 H756 0.960 . S
C770 H757 0.961 . S
C770 H758 0.959 . S
C770 C768 1.561 . S
C771 C768 1.526 . S
C771 C772 1.396 . S
C771 C776 1.390 . S
C772 C766 1.465 . S
C772 C771 1.396 . S
C772 C773 1.399 . S
C773 H759 0.929 . S
C773 C772 1.399 . S
C773 C774 1.385 . S
C774 H760 0.931 . S
C774 C773 1.385 . S
C774 C775 1.389 . S
C775 C774 1.389 . S
C775 C776 1.387 . S
C776 H761 0.930 . S
C776 C771 1.390 . S
C776 C775 1.387 . S
H777 C789 0.930 . S
H778 C791 0.930 . S
H779 C792 0.930 . S
H780 C796 0.959 . S
H781 C796 0.959 . S
H782 C796 0.961 . S
H783 C797 0.960 . S
H784 C797 0.961 . S
H785 C797 0.959 . S
H786 C800 0.929 . S
H787 C801 0.931 . S
H788 C803 0.930 . S
C789 H777 0.930 . S
C789 C790 1.399 . S
C789 C794 1.399 . S
C790 C789 1.399 . S
C790 C791 1.376 . S
C791 H778 0.930 . S
C791 C790 1.376 . S
C791 C792 1.388 . S
C792 H779 0.930 . S
C792 C791 1.388 . S
C792 C793 1.390 . S
C793 C792 1.390 . S
C793 C794 1.394 . S
C793 C799 1.465 . S
C794 C789 1.399 . S
C794 C793 1.394 . S
C794 C795 1.516 . S
C795 C794 1.516 . S
C795 C796 1.502 . S
C795 C797 1.561 . S
C795 C798 1.526 . S
C796 H780 0.959 . S
C796 H781 0.959 . S
C796 H782 0.961 . S
C796 C795 1.502 . S
C797 H783 0.960 . S
C797 H784 0.961 . S
C797 H785 0.959 . S
C797 C795 1.561 . S
C798 C795 1.526 . S
C798 C799 1.396 . S
C798 C803 1.390 . S
C799 C793 1.465 . S
C799 C798 1.396 . S
C799 C800 1.399 . S
C800 H786 0.929 . S
C800 C799 1.399 . S
C800 C801 1.385 . S
C801 H787 0.931 . S
C801 C800 1.385 . S
C801 C802 1.389 . S
C802 C801 1.389 . S
C802 C803 1.387 . S
C803 H788 0.930 . S
C803 C798 1.390 . S
C803 C802 1.387 . S
H804 C816 0.930 . S
H805 C818 0.930 . S
H806 C819 0.930 . S
H807 C823 0.959 . S
H808 C823 0.959 . S
H809 C823 0.961 . S
H810 C824 0.960 . S
H811 C824 0.961 . S
H812 C824 0.959 . S
H813 C827 0.929 . S
H814 C828 0.931 . S
H815 C830 0.930 . S
C816 H804 0.930 . S
C816 C817 1.399 . S
C816 C821 1.399 . S
C817 C816 1.399 . S
C817 C818 1.376 . S
C818 H805 0.930 . S
C818 C817 1.376 . S
C818 C819 1.388 . S
C819 H806 0.930 . S
C819 C818 1.388 . S
C819 C820 1.390 . S
C820 C819 1.390 . S
C820 C821 1.394 . S
C820 C826 1.465 . S
C821 C816 1.399 . S
C821 C820 1.394 . S
C821 C822 1.516 . S
C822 C821 1.516 . S
C822 C823 1.502 . S
C822 C824 1.561 . S
C822 C825 1.526 . S
C823 H807 0.959 . S
C823 H808 0.959 . S
C823 H809 0.961 . S
C823 C822 1.502 . S
C824 H810 0.960 . S
C824 H811 0.961 . S
C824 H812 0.959 . S
C824 C822 1.561 . S
C825 C822 1.526 . S
C825 C826 1.396 . S
C825 C830 1.390 . S
C826 C820 1.465 . S
C826 C825 1.396 . S
C826 C827 1.399 . S
C827 H813 0.929 . S
C827 C826 1.399 . S
C827 C828 1.385 . S
C828 H814 0.931 . S
C828 C827 1.385 . S
C828 C829 1.389 . S
C829 C828 1.389 . S
C829 C830 1.387 . S
C830 H815 0.930 . S
C830 C825 1.390 . S
C830 C829 1.387 . S
H831 C843 0.930 . S
H832 C845 0.930 . S
H833 C846 0.930 . S
H834 C850 0.959 . S
H835 C850 0.959 . S
H836 C850 0.961 . S
H837 C851 0.960 . S
H838 C851 0.961 . S
H839 C851 0.959 . S
H840 C854 0.929 . S
H841 C855 0.931 . S
H842 C857 0.930 . S
C843 H831 0.930 . S
C843 C844 1.399 . S
C843 C848 1.399 . S
C844 C843 1.399 . S
C844 C845 1.376 . S
C845 H832 0.930 . S
C845 C844 1.376 . S
C845 C846 1.388 . S
C846 H833 0.930 . S
C846 C845 1.388 . S
C846 C847 1.390 . S
C847 C846 1.390 . S
C847 C848 1.394 . S
C847 C853 1.465 . S
C848 C843 1.399 . S
C848 C847 1.394 . S
C848 C849 1.516 . S
C849 C848 1.516 . S
C849 C850 1.502 . S
C849 C851 1.561 . S
C849 C852 1.526 . S
C850 H834 0.959 . S
C850 H835 0.959 . S
C850 H836 0.961 . S
C850 C849 1.502 . S
C851 H837 0.960 . S
C851 H838 0.961 . S
C851 H839 0.959 . S
C851 C849 1.561 . S
C852 C849 1.526 . S
C852 C853 1.396 . S
C852 C857 1.390 . S
C853 C847 1.465 . S
C853 C852 1.396 . S
C853 C854 1.399 . S
C854 H840 0.929 . S
C854 C853 1.399 . S
C854 C855 1.385 . S
C855 H841 0.931 . S
C855 C854 1.385 . S
C855 C856 1.389 . S
C856 C855 1.389 . S
C856 C857 1.387 . S
C857 H842 0.930 . S
C857 C852 1.390 . S
C857 C856 1.387 . S
H858 C870 0.930 . S
H859 C872 0.930 . S
H860 C873 0.930 . S
H861 C877 0.959 . S
H862 C877 0.959 . S
H863 C877 0.961 . S
H864 C878 0.960 . S
H865 C878 0.961 . S
H866 C878 0.959 . S
H867 C881 0.929 . S
H868 C882 0.931 . S
H869 C884 0.930 . S
C870 H858 0.930 . S
C870 C871 1.399 . S
C870 C875 1.399 . S
C871 C870 1.399 . S
C871 C872 1.376 . S
C872 H859 0.930 . S
C872 C871 1.376 . S
C872 C873 1.388 . S
C873 H860 0.930 . S
C873 C872 1.388 . S
C873 C874 1.390 . S
C874 C873 1.390 . S
C874 C875 1.394 . S
C874 C880 1.465 . S
C875 C870 1.399 . S
C875 C874 1.394 . S
C875 C876 1.516 . S
C876 C875 1.516 . S
C876 C877 1.502 . S
C876 C878 1.561 . S
C876 C879 1.526 . S
C877 H861 0.959 . S
C877 H862 0.959 . S
C877 H863 0.961 . S
C877 C876 1.502 . S
C878 H864 0.960 . S
C878 H865 0.961 . S
C878 H866 0.959 . S
C878 C876 1.561 . S
C879 C876 1.526 . S
C879 C880 1.396 . S
C879 C884 1.390 . S
C880 C874 1.465 . S
C880 C879 1.396 . S
C880 C881 1.399 . S
C881 H867 0.929 . S
C881 C880 1.399 . S
C881 C882 1.385 . S
C882 H868 0.931 . S
C882 C881 1.385 . S
C882 C883 1.389 . S
C883 C882 1.389 . S
C883 C884 1.387 . S
C884 H869 0.930 . S
C884 C879 1.390 . S
C884 C883 1.387 . S
H885 C897 0.930 . S
H886 C899 0.930 . S
H887 C900 0.930 . S
H888 C904 0.959 . S
H889 C904 0.959 . S
H890 C904 0.961 . S
H891 C905 0.960 . S
H892 C905 0.961 . S
H893 C905 0.959 . S
H894 C908 0.929 . S
H895 C909 0.931 . S
H896 C911 0.930 . S
C897 H885 0.930 . S
C897 C898 1.399 . S
C897 C902 1.399 . S
C898 C897 1.399 . S
C898 C899 1.376 . S
C899 H886 0.930 . S
C899 C898 1.376 . S
C899 C900 1.388 . S
C900 H887 0.930 . S
C900 C899 1.388 . S
C900 C901 1.390 . S
C901 C900 1.390 . S
C901 C902 1.394 . S
C901 C907 1.465 . S
C902 C897 1.399 . S
C902 C901 1.394 . S
C902 C903 1.516 . S
C903 C902 1.516 . S
C903 C904 1.502 . S
C903 C905 1.561 . S
C903 C906 1.526 . S
C904 H888 0.959 . S
C904 H889 0.959 . S
C904 H890 0.961 . S
C904 C903 1.502 . S
C905 H891 0.960 . S
C905 H892 0.961 . S
C905 H893 0.959 . S
C905 C903 1.561 . S
C906 C903 1.526 . S
C906 C907 1.396 . S
C906 C911 1.390 . S
C907 C901 1.465 . S
C907 C906 1.396 . S
C907 C908 1.399 . S
C908 H894 0.929 . S
C908 C907 1.399 . S
C908 C909 1.385 . S
C909 H895 0.931 . S
C909 C908 1.385 . S
C909 C910 1.389 . S
C910 C909 1.389 . S
C910 C911 1.387 . S
C911 H896 0.930 . S
C911 C906 1.390 . S
C911 C910 1.387 . S
C277 N1 0.742 . S
C289 C108 0.755 . S
C304 N18 1.163 . S
C316 C169 1.206 . S
C343 C207 2.058 . S
C331 N28 2.144 . S
C358 N40 2.598 . S
C370 C247 2.604 . S
C397 C167 1.445 . S
C385 N5 1.478 . S
C424 C135 1.710 . S
C412 N14 1.577 . S
C451 C244 1.800 . S
C439 N31 1.817 . S
C478 C204 1.627 . S
C466 N41 1.628 . S
C493 N2 0.882 . S
C505 C249 0.990 . S
C532 C164 2.552 . S
C520 N27 2.536 . S
C547 N44 2.386 . S
C559 C106 2.376 1_655 S
C574 N15 1.131 . S
C586 C209 1.085 . S
C613 C129 1.287 . S
C601 N57 1.343 . S
C628 N70 0.947 . S
C640 C148 0.885 . S
C655 N79 2.362 . S
C667 C186 2.370 . S
C682 N93 2.306 . S
C694 C226 2.285 . S
C709 N54 1.144 . S
C721 C146 1.145 . S
C748 C124 2.297 1_655 S
C736 N66 2.253 . S
C775 C255 1.291 . S
C763 N80 1.344 . S
C802 C215 1.869 . S
C790 N96 1.876 . S
C817 N53 1.098 . S
C829 C228 1.124 . S
C856 C175 2.102 . S
C844 N83 2.017 . S
C883 C127 2.408 . S
C871 N92 2.465 . S
C898 N67 1.259 . S
C910 C188 1.298 . S
