# Generated by pormake.
# Topology ctn, (3,4)-cn, num edge types: 1
# Building blocks:
#     Node 0, Type 0, BuildingBlock: BETDIP_clean_linker_0, # of connection points: 3
#     Node 1, Type 0, BuildingBlock: BETDIP_clean_linker_0, # of connection points: 3
#     Node 2, Type 0, BuildingBlock: BETDIP_clean_linker_0, # of connection points: 3
#     Node 3, Type 0, BuildingBlock: BETDIP_clean_linker_0, # of connection points: 3
#     Node 4, Type 0, BuildingBlock: BETDIP_clean_linker_0, # of connection points: 3
#     Node 5, Type 0, BuildingBlock: BETDIP_clean_linker_0, # of connection points: 3
#     Node 6, Type 0, BuildingBlock: BETDIP_clean_linker_0, # of connection points: 3
#     Node 7, Type 0, BuildingBlock: BETDIP_clean_linker_0, # of connection points: 3
#     Node 8, Type 0, BuildingBlock: BETDIP_clean_linker_0, # of connection points: 3
#     Node 9, Type 0, BuildingBlock: BETDIP_clean_linker_0, # of connection points: 3
#     Node 10, Type 0, BuildingBlock: BETDIP_clean_linker_0, # of connection points: 3
#     Node 11, Type 0, BuildingBlock: BETDIP_clean_linker_0, # of connection points: 3
#     Node 12, Type 0, BuildingBlock: BETDIP_clean_linker_0, # of connection points: 3
#     Node 13, Type 0, BuildingBlock: BETDIP_clean_linker_0, # of connection points: 3
#     Node 14, Type 0, BuildingBlock: BETDIP_clean_linker_0, # of connection points: 3
#     Node 15, Type 0, BuildingBlock: BETDIP_clean_linker_0, # of connection points: 3
#     Node 16, Type 1, BuildingBlock: UXUYUI_clean_sbu_0, # of connection points: 4
#     Node 17, Type 1, BuildingBlock: UXUYUI_clean_sbu_0, # of connection points: 4
#     Node 18, Type 1, BuildingBlock: UXUYUI_clean_sbu_0, # of connection points: 4
#     Node 19, Type 1, BuildingBlock: UXUYUI_clean_sbu_0, # of connection points: 4
#     Node 20, Type 1, BuildingBlock: UXUYUI_clean_sbu_0, # of connection points: 4
#     Node 21, Type 1, BuildingBlock: UXUYUI_clean_sbu_0, # of connection points: 4
#     Node 22, Type 1, BuildingBlock: UXUYUI_clean_sbu_0, # of connection points: 4
#     Node 23, Type 1, BuildingBlock: UXUYUI_clean_sbu_0, # of connection points: 4
#     Node 24, Type 1, BuildingBlock: UXUYUI_clean_sbu_0, # of connection points: 4
#     Node 25, Type 1, BuildingBlock: UXUYUI_clean_sbu_0, # of connection points: 4
#     Node 26, Type 1, BuildingBlock: UXUYUI_clean_sbu_0, # of connection points: 4
#     Node 27, Type 1, BuildingBlock: UXUYUI_clean_sbu_0, # of connection points: 4
#     Edge 28, Type (0, 1), BuildingBlock: OJICUG_clean_linker_0, # of connection points: 2
#     Edge 29, Type (0, 1), BuildingBlock: OJICUG_clean_linker_0, # of connection points: 2
#     Edge 30, Type (0, 1), BuildingBlock: OJICUG_clean_linker_0, # of connection points: 2
#     Edge 31, Type (0, 1), BuildingBlock: OJICUG_clean_linker_0, # of connection points: 2
#     Edge 32, Type (0, 1), BuildingBlock: OJICUG_clean_linker_0, # of connection points: 2
#     Edge 33, Type (0, 1), BuildingBlock: OJICUG_clean_linker_0, # of connection points: 2
#     Edge 34, Type (0, 1), BuildingBlock: OJICUG_clean_linker_0, # of connection points: 2
#     Edge 35, Type (0, 1), BuildingBlock: OJICUG_clean_linker_0, # of connection points: 2
#     Edge 36, Type (0, 1), BuildingBlock: OJICUG_clean_linker_0, # of connection points: 2
#     Edge 37, Type (0, 1), BuildingBlock: OJICUG_clean_linker_0, # of connection points: 2
#     Edge 38, Type (0, 1), BuildingBlock: OJICUG_clean_linker_0, # of connection points: 2
#     Edge 39, Type (0, 1), BuildingBlock: OJICUG_clean_linker_0, # of connection points: 2
#     Edge 40, Type (0, 1), BuildingBlock: OJICUG_clean_linker_0, # of connection points: 2
#     Edge 41, Type (0, 1), BuildingBlock: OJICUG_clean_linker_0, # of connection points: 2
#     Edge 42, Type (0, 1), BuildingBlock: OJICUG_clean_linker_0, # of connection points: 2
#     Edge 43, Type (0, 1), BuildingBlock: OJICUG_clean_linker_0, # of connection points: 2
#     Edge 44, Type (0, 1), BuildingBlock: OJICUG_clean_linker_0, # of connection points: 2
#     Edge 45, Type (0, 1), BuildingBlock: OJICUG_clean_linker_0, # of connection points: 2
#     Edge 46, Type (0, 1), BuildingBlock: OJICUG_clean_linker_0, # of connection points: 2
#     Edge 47, Type (0, 1), BuildingBlock: OJICUG_clean_linker_0, # of connection points: 2
#     Edge 48, Type (0, 1), BuildingBlock: OJICUG_clean_linker_0, # of connection points: 2
#     Edge 49, Type (0, 1), BuildingBlock: OJICUG_clean_linker_0, # of connection points: 2
#     Edge 50, Type (0, 1), BuildingBlock: OJICUG_clean_linker_0, # of connection points: 2
#     Edge 51, Type (0, 1), BuildingBlock: OJICUG_clean_linker_0, # of connection points: 2
#     Edge 52, Type (0, 1), BuildingBlock: OJICUG_clean_linker_0, # of connection points: 2
#     Edge 53, Type (0, 1), BuildingBlock: OJICUG_clean_linker_0, # of connection points: 2
#     Edge 54, Type (0, 1), BuildingBlock: OJICUG_clean_linker_0, # of connection points: 2
#     Edge 55, Type (0, 1), BuildingBlock: OJICUG_clean_linker_0, # of connection points: 2
#     Edge 56, Type (0, 1), BuildingBlock: OJICUG_clean_linker_0, # of connection points: 2
#     Edge 57, Type (0, 1), BuildingBlock: OJICUG_clean_linker_0, # of connection points: 2
#     Edge 58, Type (0, 1), BuildingBlock: OJICUG_clean_linker_0, # of connection points: 2
#     Edge 59, Type (0, 1), BuildingBlock: OJICUG_clean_linker_0, # of connection points: 2
#     Edge 60, Type (0, 1), BuildingBlock: OJICUG_clean_linker_0, # of connection points: 2
#     Edge 61, Type (0, 1), BuildingBlock: OJICUG_clean_linker_0, # of connection points: 2
#     Edge 62, Type (0, 1), BuildingBlock: OJICUG_clean_linker_0, # of connection points: 2
#     Edge 63, Type (0, 1), BuildingBlock: OJICUG_clean_linker_0, # of connection points: 2
#     Edge 64, Type (0, 1), BuildingBlock: OJICUG_clean_linker_0, # of connection points: 2
#     Edge 65, Type (0, 1), BuildingBlock: OJICUG_clean_linker_0, # of connection points: 2
#     Edge 66, Type (0, 1), BuildingBlock: OJICUG_clean_linker_0, # of connection points: 2
#     Edge 67, Type (0, 1), BuildingBlock: OJICUG_clean_linker_0, # of connection points: 2
#     Edge 68, Type (0, 1), BuildingBlock: OJICUG_clean_linker_0, # of connection points: 2
#     Edge 69, Type (0, 1), BuildingBlock: OJICUG_clean_linker_0, # of connection points: 2
#     Edge 70, Type (0, 1), BuildingBlock: OJICUG_clean_linker_0, # of connection points: 2
#     Edge 71, Type (0, 1), BuildingBlock: OJICUG_clean_linker_0, # of connection points: 2
#     Edge 72, Type (0, 1), BuildingBlock: OJICUG_clean_linker_0, # of connection points: 2
#     Edge 73, Type (0, 1), BuildingBlock: OJICUG_clean_linker_0, # of connection points: 2
#     Edge 74, Type (0, 1), BuildingBlock: OJICUG_clean_linker_0, # of connection points: 2
#     Edge 75, Type (0, 1), BuildingBlock: OJICUG_clean_linker_0, # of connection points: 2
# Relax obj value: 0.071
# Max RMSD: 0.193
# Mean RMSD: 0.116
data_MOF--net-ctn--node1-UXUYUI_clean_sbu_0--node2-BETDIP_clean_linker_0--edge1-OJICUG_clean_linker_0
_symmetry_space_group_name_H-M    P1
_symmetry_Int_Tables_number       1
_symmetry_cell_setting            triclinic
loop_
_symmetry_equiv_pos_as_xyz
'x, y, z'
_cell_length_a     50.455988
_cell_length_b     50.758163
_cell_length_c     55.702593
_cell_angle_alpha  93.505143
_cell_angle_beta   93.723731
_cell_angle_gamma 92.824557
loop_
_atom_site_label
_atom_site_type_symbol
_atom_site_fract_x
_atom_site_fract_y
_atom_site_fract_z
_atom_type_partial_charge
H0 H 0.03511 0.0676 0.07016 0.0
H1 H 0.09275 0.03415 0.02572 0.0
H2 H 0.07167 0.99616 0.08927 0.0
H3 H 0.0695 0.05307 0.99648 0.0
C4 C 0.06404 0.07166 1.00499 0.0
C5 C 0.04882 0.05228 0.06657 0.0
C6 C 0.05192 0.03201 0.08249 0.0
C7 C 0.06261 0.05261 0.04559 0.0
C8 C 0.08066 0.03299 0.04098 0.0
C9 C 0.08406 0.01235 0.05648 0.0
C10 C 0.06937 0.01194 0.07717 0.0
N11 N 0.0583 0.07318 0.02971 0.0
H12 H 0.26899 0.69414 0.20232 0.0
H13 H 0.34217 0.73855 0.22302 0.0
H14 H 0.31941 0.67133 0.26203 0.0
H15 H 0.34089 0.74257 0.18162 0.0
C16 C 0.32012 0.74656 0.17787 0.0
C17 C 0.28706 0.69699 0.21401 0.0
C18 C 0.29178 0.68027 0.23287 0.0
C19 C 0.30554 0.71736 0.20986 0.0
C20 C 0.3286 0.72189 0.2254 0.0
C21 C 0.33372 0.70559 0.24455 0.0
C22 C 0.31525 0.68465 0.24795 0.0
N23 N 0.30014 0.73326 0.19017 0.0
H24 H 0.95859 0.49674 0.01044 0.0
H25 H 0.01509 0.46284 0.05894 0.0
H26 H 0.9726 0.5297 0.08352 0.0
H27 H 0.03309 0.4506 0.02383 0.0
C28 C 0.01548 0.44439 0.01221 0.0
C29 C 0.96899 0.49681 0.0281 0.0
C30 C 0.96347 0.51561 0.0464 0.0
C31 C 0.98769 0.47789 0.03235 0.0
C32 C 1.00083 0.47759 0.05537 0.0
C33 C 0.99569 0.49627 0.07396 0.0
C34 C 0.97685 0.51524 0.06934 0.0
N35 N 0.99215 0.45888 0.0134 0.0
H36 H 0.72139 0.7781 0.19066 0.0
H37 H 0.74937 0.84398 0.23938 0.0
H38 H 0.78999 0.82682 0.17556 0.0
H39 H 0.71022 0.83966 0.25383 0.0
C40 C 0.70298 0.81918 0.25082 0.0
C41 C 0.73555 0.79463 0.1954 0.0
C42 C 0.756 0.80047 0.18018 0.0
C43 C 0.73274 0.8102 0.21667 0.0
C44 C 0.75086 0.83191 0.22292 0.0
C45 C 0.77119 0.83832 0.20785 0.0
C46 C 0.77368 0.82243 0.18665 0.0
N47 N 0.71186 0.80301 0.23146 0.0
H48 H 0.03431 0.96397 0.44787 0.0
H49 H 0.10488 0.98806 0.49283 0.0
H50 H 0.08638 0.02793 0.42864 0.0
H51 H 0.10002 0.94902 0.50708 0.0
C52 C 0.07901 0.94305 0.50548 0.0
C53 C 0.05226 0.97662 0.45135 0.0
C54 C 0.0583 0.99635 0.43558 0.0
C55 C 0.06904 0.97313 0.47184 0.0
C56 C 0.09196 0.99005 0.47688 0.0
C57 C 0.09842 0.00985 0.46133 0.0
C58 C 0.08151 0.01273 0.44071 0.0
N59 N 0.06183 0.95287 0.4872 0.0
H60 H 0.22346 0.75108 0.81735 0.0
H61 H 0.25417 0.69227 0.76996 0.0
H62 H 0.29816 0.71779 0.83686 0.0
H63 H 0.2148 0.69158 0.75006 0.0
C64 C 0.20584 0.71014 0.75428 0.0
C65 C 0.23905 0.73784 0.81343 0.0
C66 C 0.26115 0.73652 0.82991 0.0
C67 C 0.23639 0.72221 0.79186 0.0
C68 C 0.2561 0.70454 0.78658 0.0
C69 C 0.27847 0.70256 0.80277 0.0
C70 C 0.28076 0.71862 0.82452 0.0
N71 N 0.21402 0.7258 0.77574 0.0
H72 H 0.99974 0.58746 0.46914 0.0
H73 H 0.95475 0.5144 0.45048 0.0
H74 H 0.93978 0.56051 0.51496 0.0
H75 H 0.99206 0.50359 0.43273 0.0
C76 C 0.99951 0.52183 0.42573 0.0
C77 C 0.98467 0.57288 0.47346 0.0
C78 C 0.97023 0.57707 0.49399 0.0
C79 C 0.97995 0.54995 0.45824 0.0
C80 C 0.95962 0.53139 0.46294 0.0
C81 C 0.94469 0.53527 0.4832 0.0
C82 C 0.95046 0.55796 0.4988 0.0
N83 N 0.99563 0.54654 0.43808 0.0
H84 H 0.79857 0.83524 0.77395 0.0
H85 H 0.83311 0.77846 0.81856 0.0
H86 H 0.7593 0.81186 0.83618 0.0
H87 H 0.8487 0.76368 0.7825 0.0
C88 C 0.85356 0.78184 0.77399 0.0
C89 C 0.79756 0.82339 0.78945 0.0
C90 C 0.77649 0.82576 0.80457 0.0
C91 C 0.8175 0.80587 0.79394 0.0
C92 C 0.81693 0.79099 0.8144 0.0
C93 C 0.79606 0.79296 0.82998 0.0
C94 C 0.77587 0.8105 0.82483 0.0
N95 N 0.83807 0.80418 0.77773 0.0
H96 H 0.2969 0.33083 0.27109 0.0
H97 H 0.33022 0.27322 0.31561 0.0
H98 H 0.25762 0.30832 0.33373 0.0
H99 H 0.34999 0.26059 0.28206 0.0
C100 C 0.35315 0.27828 0.27239 0.0
C101 C 0.2956 0.31896 0.28654 0.0
C102 C 0.27455 0.32171 0.30168 0.0
C103 C 0.31529 0.30114 0.291 0.0
C104 C 0.31446 0.28622 0.3114 0.0
C105 C 0.29381 0.2888 0.32709 0.0
C106 C 0.2739 0.30663 0.32207 0.0
N107 N 0.33591 0.29945 0.27482 0.0
H108 H 0.45875 0.99486 0.5126 0.0
H109 H 0.51618 0.96139 0.56027 0.0
H110 H 0.47894 0.0321 0.5835 0.0
H111 H 0.49727 0.92319 0.54068 0.0
C112 C 0.49634 0.9287 0.5221 0.0
C113 C 0.47016 0.9957 0.52983 0.0
C114 C 0.46688 0.01623 0.54735 0.0
C115 C 0.48714 0.97543 0.53466 0.0
C116 C 0.50193 0.97623 0.55697 0.0
C117 C 0.49915 0.99654 0.5748 0.0
C118 C 0.48143 0.01645 0.56985 0.0
N119 N 0.48914 0.95454 0.51673 0.0
H120 H 0.22584 0.27129 0.69289 0.0
H121 H 0.25184 0.3389 0.74032 0.0
H122 H 0.29234 0.32188 0.67626 0.0
H123 H 0.21085 0.33535 0.75204 0.0
C124 C 0.2052 0.31438 0.75096 0.0
C125 C 0.23942 0.28836 0.6973 0.0
C126 C 0.25937 0.2947 0.68176 0.0
C127 C 0.23622 0.30431 0.71824 0.0
C128 C 0.25368 0.32663 0.72402 0.0
C129 C 0.27374 0.33334 0.70875 0.0
C130 C 0.27643 0.31722 0.68773 0.0
N131 N 0.21553 0.2971 0.7332 0.0
H132 H 0.77139 0.19783 0.70498 0.0
H133 H 0.84518 0.24152 0.72542 0.0
H134 H 0.82119 0.17574 0.76553 0.0
H135 H 0.84342 0.24629 0.68431 0.0
C136 C 0.82265 0.25037 0.68071 0.0
C137 C 0.78942 0.20064 0.71673 0.0
C138 C 0.794 0.18396 0.73566 0.0
C139 C 0.80799 0.22096 0.71257 0.0
C140 C 0.83102 0.22544 0.72814 0.0
C141 C 0.83583 0.20929 0.7474 0.0
C142 C 0.81737 0.18844 0.75089 0.0
N143 N 0.80268 0.23685 0.69285 0.0
H144 H 0.53492 0.57039 0.56869 0.0
H145 H 0.5933 0.5373 0.52485 0.0
H146 H 0.57064 0.49849 0.58757 0.0
H147 H 0.60008 0.58046 0.5164 0.0
C148 C 0.57984 0.58679 0.51442 0.0
C149 C 0.54875 0.55513 0.56529 0.0
C150 C 0.55119 0.5345 0.58089 0.0
C151 C 0.56399 0.55642 0.54525 0.0
C152 C 0.58159 0.53645 0.54039 0.0
C153 C 0.58416 0.51531 0.55547 0.0
C154 C 0.56881 0.51454 0.57573 0.0
N155 N 0.56058 0.57764 0.52996 0.0
H156 H 0.52999 0.46675 0.94823 0.0
H157 H 0.5988 0.49168 0.99518 0.0
H158 H 0.58384 0.52957 0.92924 0.0
H159 H 0.59642 0.44782 1.00245 0.0
C160 C 0.57524 0.44398 1.00396 0.0
C161 C 0.54786 0.47943 0.95207 0.0
C162 C 0.55478 0.49866 0.93606 0.0
C163 C 0.56393 0.47629 0.97308 0.0
C164 C 0.58665 0.49329 0.97864 0.0
C165 C 0.59391 0.51249 0.96286 0.0
C166 C 0.57806 0.51489 0.94153 0.0
N167 N 0.55666 0.45607 0.98839 0.0
H168 H 0.72931 0.26008 0.31501 0.0
H169 H 0.75836 0.1992 0.26886 0.0
H170 H 0.79171 0.21234 0.34201 0.0
H171 H 0.71395 0.19646 0.25482 0.0
C172 C 0.70966 0.21719 0.25428 0.0
C173 C 0.74258 0.24412 0.31257 0.0
C174 C 0.7605 0.23798 0.33157 0.0
C175 C 0.74107 0.22965 0.29037 0.0
C176 C 0.75866 0.20953 0.28647 0.0
C177 C 0.77725 0.20322 0.30489 0.0
C178 C 0.77802 0.21756 0.32748 0.0
N179 N 0.72158 0.23585 0.27232 0.0
H180 H 0.50079 0.08561 0.97227 0.0
H181 H 0.45334 0.01475 0.9492 0.0
H182 H 0.4392 0.05718 0.01574 0.0
H183 H 0.46707 0.02402 0.91255 0.0
C184 C 0.48722 0.0325 0.91615 0.0
C185 C 0.48502 0.0712 0.9754 0.0
C186 C 0.47061 0.07424 0.99606 0.0
C187 C 0.4788 0.05015 0.95821 0.0
C188 C 0.45806 0.03156 0.96192 0.0
C189 C 0.4439 0.03406 0.98274 0.0
C190 C 0.45023 0.05535 0.99971 0.0
N191 N 0.49445 0.04795 0.93794 0.0
Li192 Li 0.28862 0.89762 0.00914 0.0
Li193 Li 0.27179 0.86134 0.03258 0.0
Li194 Li 0.26293 0.86045 0.98866 0.0
Li195 Li 0.24076 0.89146 0.01617 0.0
C196 C 0.30971 0.84066 0.99546 0.0
N197 N 0.33136 0.79985 0.96957 0.0
C198 C 0.30778 0.81498 1.00314 0.0
C199 C 0.32277 0.84564 0.9747 0.0
C200 C 0.31886 0.79461 0.98979 0.0
C201 C 0.33353 0.82471 0.96182 0.0
C202 C 0.27938 0.90306 0.06364 0.0
C203 C 0.2714 0.89786 0.10534 0.0
N204 N 0.29678 0.90712 0.11183 0.0
C205 C 0.30533 0.91265 0.0707 0.0
C206 C 0.2622 0.89574 0.08107 0.0
C207 C 0.31376 0.91452 0.09517 0.0
C208 C 0.31283 0.94918 0.0073 0.0
N209 N 0.3174 0.92297 0.00688 0.0
C210 C 0.36344 0.93206 1.00128 0.0
C211 C 0.34218 0.91421 1.00441 0.0
C212 C 0.35896 0.95904 1.0004 0.0
C213 C 0.33337 0.96764 1.00361 0.0
H214 H 0.29307 0.95568 0.0099 0.0
H215 H 0.34538 0.89334 1.00465 0.0
C216 C 0.26196 0.8223 0.06575 0.0
N217 N 0.28028 0.84043 0.05902 0.0
C218 C 0.26796 0.80694 0.08515 0.0
C219 C 0.31161 0.82918 0.09029 0.0
C220 C 0.30487 0.84385 0.0706 0.0
C221 C 0.29306 0.81033 0.09784 0.0
H222 H 0.24274 0.8196 0.05592 0.0
H223 H 0.3192 0.85814 0.06462 0.0
C224 C 0.26177 0.92067 0.97349 0.0
N225 N 0.27199 0.96637 0.95035 0.0
C226 C 0.24604 0.94232 0.97691 0.0
C227 C 0.28264 0.92224 0.9582 0.0
C228 C 0.25153 0.96524 0.96506 0.0
C229 C 0.28751 0.94553 0.94671 0.0
C230 C 0.21131 0.84625 0.01371 0.0
C231 C 0.19649 0.83829 0.99219 0.0
C232 C 0.19854 0.84903 0.03518 0.0
C233 C 0.16903 0.83335 0.99251 0.0
C234 C 0.17104 0.84396 0.03473 0.0
N235 N 0.15698 0.83629 0.01359 0.0
C236 C 0.2551 0.81128 0.96054 0.0
C237 C 0.26621 0.84837 0.9387 0.0
C238 C 0.2559 0.79437 0.9398 0.0
N239 N 0.26036 0.83773 0.95963 0.0
C240 C 0.26753 0.83223 0.91766 0.0
C241 C 0.26235 0.80476 0.91792 0.0
H242 H 0.2507 0.80328 0.97748 0.0
H243 H 0.27046 0.86935 0.93841 0.0
C244 C 0.21221 0.92841 0.04212 0.0
N245 N 0.20964 0.91044 0.02288 0.0
C246 C 0.19091 0.94344 0.04822 0.0
C247 C 0.16445 0.92133 0.01457 0.0
C248 C 0.18643 0.90689 0.00895 0.0
C249 C 0.16649 0.94003 0.03445 0.0
H250 H 0.231 0.93144 0.05259 0.0
H251 H 0.18497 0.89296 0.9934 0.0
O252 O 0.29829 0.86072 0.00786 0.0
O253 O 0.27087 0.9007 0.03976 0.0
O254 O 0.25668 0.89807 0.98498 0.0
O255 O 0.23818 0.85127 0.01376 0.0
H256 H 0.29757 0.81077 0.01907 0.0
H257 H 0.32419 0.86537 0.96838 0.0
H258 H 0.3174 0.7746 0.99544 0.0
H259 H 0.3435 0.82822 0.94561 0.0
H260 H 0.25839 0.89211 0.11902 0.0
H261 H 0.31887 0.91839 0.05743 0.0
H262 H 0.24206 0.88827 0.07586 0.0
H263 H 0.33382 0.92179 0.1009 0.0
H264 H 0.38302 0.92483 0.99898 0.0
H265 H 0.32936 0.98839 1.00333 0.0
H266 H 0.2532 0.79229 0.08987 0.0
H267 H 0.33107 0.8328 0.09959 0.0
H268 H 0.22979 0.94149 0.98862 0.0
H269 H 0.29542 0.90593 0.95573 0.0
H270 H 0.23954 0.98216 0.96758 0.0
H271 H 0.30376 0.9471 0.93504 0.0
H272 H 0.20605 0.83615 0.9754 0.0
H273 H 0.20972 0.8553 0.05197 0.0
H274 H 0.15729 0.82726 0.97598 0.0
H275 H 0.16087 0.84618 0.05118 0.0
H276 H 0.25135 0.77343 0.94091 0.0
H277 H 0.27307 0.84125 0.90147 0.0
H278 H 0.19386 0.95805 0.06327 0.0
H279 H 0.14607 0.9178 1.00343 0.0
Li280 Li 0.11906 0.50423 0.27938 0.0
Li281 Li 0.14937 0.47397 0.26099 0.0
Li282 Li 0.15426 0.5233 0.25589 0.0
Li283 Li 0.11776 0.49607 0.234 0.0
C284 C 0.16508 0.51097 0.30947 0.0
N285 N 0.17849 0.52569 0.35751 0.0
C286 C 0.17076 0.49182 0.32578 0.0
C287 C 0.16679 0.53766 0.31755 0.0
C288 C 0.17733 0.49963 0.35001 0.0
C289 C 0.17345 0.54469 0.34191 0.0
C290 C 0.10208 0.44463 0.25845 0.0
C291 C 0.09488 0.40198 0.2368 0.0
N292 N 0.0872 0.3914 0.25727 0.0
C293 C 0.09376 0.43341 0.27918 0.0
C294 C 0.10235 0.42887 0.23702 0.0
C295 C 0.08646 0.40644 0.27825 0.0
C296 C 0.07843 0.52667 0.30591 0.0
N297 N 0.09791 0.50909 0.30632 0.0
C298 C 0.08626 0.49591 0.34491 0.0
C299 C 0.10193 0.49371 0.32522 0.0
C300 C 0.06612 0.51405 0.34511 0.0
C301 C 0.06237 0.52965 0.32531 0.0
H302 H 0.07505 0.5381 0.29036 0.0
H303 H 0.11702 0.47935 0.32483 0.0
C304 C 0.18962 0.43772 0.25333 0.0
N305 N 0.16873 0.4431 0.26672 0.0
C306 C 0.20537 0.41659 0.25841 0.0
C307 C 0.17808 0.40702 0.29118 0.0
C308 C 0.16272 0.42821 0.28534 0.0
C309 C 0.19984 0.40104 0.27771 0.0
H310 H 0.19452 0.45027 0.23909 0.0
H311 H 0.14647 0.43325 0.29614 0.0
C312 C 0.11216 0.55643 0.25404 0.0
N313 N 0.10569 0.61024 0.25447 0.0
C314 C 0.10393 0.568 0.23286 0.0
C315 C 0.11656 0.57219 0.27553 0.0
C316 C 0.10093 0.59524 0.23341 0.0
C317 C 0.11332 0.59935 0.27537 0.0
C318 C 0.16152 0.48625 0.20827 0.0
C319 C 0.17086 0.50538 0.19341 0.0
C320 C 0.15734 0.46002 0.19913 0.0
C321 C 0.17521 0.49805 0.16946 0.0
C322 C 0.16195 0.45346 0.1751 0.0
N323 N 0.17066 0.47246 0.16086 0.0
C324 C 0.20152 0.5557 0.26772 0.0
C325 C 0.17416 0.56901 0.23496 0.0
C326 C 0.22004 0.57659 0.2652 0.0
N327 N 0.179 0.55246 0.25283 0.0
C328 C 0.19214 0.59008 0.23173 0.0
C329 C 0.21549 0.59408 0.24694 0.0
H330 H 0.20531 0.54185 0.28137 0.0
H331 H 0.15654 0.56559 0.22288 0.0
C332 C 0.07208 0.47871 0.20288 0.0
N333 N 0.09515 0.49397 0.20482 0.0
C334 C 0.05481 0.47858 0.18216 0.0
C335 C 0.08509 0.51019 0.166 0.0
C336 C 0.1018 0.50958 0.18692 0.0
C337 C 0.06114 0.49464 0.16342 0.0
H338 H 0.06682 0.46701 0.2176 0.0
H339 H 0.11982 0.52213 0.18913 0.0
O340 O 0.15849 0.50365 0.28567 0.0
O341 O 0.1095 0.47098 0.25907 0.0
O342 O 0.11545 0.52979 0.25378 0.0
O343 O 0.15702 0.49311 0.23176 0.0
H344 H 0.16993 0.47112 0.31987 0.0
H345 H 0.16337 0.55283 0.30512 0.0
H346 H 0.18153 0.48497 0.36284 0.0
H347 H 0.17475 0.56528 0.34838 0.0
H348 H 0.09509 0.38955 0.22034 0.0
H349 H 0.09311 0.44534 0.29585 0.0
H350 H 0.10798 0.43734 0.22066 0.0
H351 H 0.08019 0.39746 0.29422 0.0
H352 H 0.0899 0.48355 0.35983 0.0
H353 H 0.04676 0.54354 0.32455 0.0
H354 H 0.22224 0.413 0.24782 0.0
H355 H 0.17307 0.39554 0.30617 0.0
H356 H 0.10005 0.55614 0.21612 0.0
H357 H 0.12205 0.56351 0.29223 0.0
H358 H 0.09479 0.60446 0.2171 0.0
H359 H 0.11676 0.61176 0.29188 0.0
H360 H 0.17452 0.52571 0.20023 0.0
H361 H 0.1509 0.44481 0.21054 0.0
H362 H 0.18221 0.51271 0.15772 0.0
H363 H 0.1587 0.43323 0.16779 0.0
H364 H 0.238 0.57865 0.27706 0.0
H365 H 0.18775 0.60312 0.21748 0.0
H366 H 0.03639 0.46654 0.18109 0.0
H367 H 0.0909 0.52271 0.15196 0.0
Li368 Li 0.76337 0.64036 0.99832 0.0
Li369 Li 0.7853 0.67796 0.02589 0.0
Li370 Li 0.78965 0.67575 0.97977 0.0
Li371 Li 0.81157 0.64342 0.0067 0.0
C372 C 0.73371 0.6884 0.99133 0.0
N373 N 0.685 0.70695 0.97695 0.0
C374 C 0.71741 0.69889 0.00847 0.0
C375 C 0.72533 0.68754 0.96688 0.0
C376 C 0.69282 0.7081 1.00084 0.0
C377 C 0.70061 0.69696 0.95997 0.0
C378 C 0.79111 0.62131 0.04584 0.0
C379 C 0.82231 0.6075 0.07667 0.0
N380 N 0.8079 0.58418 0.07695 0.0
C381 C 0.77655 0.59725 0.04652 0.0
C382 C 0.81412 0.62655 0.06112 0.0
C383 C 0.78538 0.57872 0.06236 0.0
C384 C 0.73549 0.59082 0.98558 0.0
N385 N 0.73251 0.61632 0.99357 0.0
C386 C 0.68551 0.6078 0.99438 0.0
C387 C 0.70819 0.62481 0.99853 0.0
C388 C 0.68792 0.5818 0.98502 0.0
C389 C 0.71332 0.57327 0.98078 0.0
H390 H 0.75511 0.58407 0.98282 0.0
H391 H 0.70628 0.64475 1.00575 0.0
C392 C 0.77246 0.72582 0.05054 0.0
N393 N 0.781 0.70117 0.0535 0.0
C394 C 0.76781 0.7425 0.07061 0.0
C395 C 0.78164 0.7084 0.09637 0.0
C396 C 0.78561 0.69229 0.07583 0.0
C397 C 0.77233 0.73385 0.094 0.0
H398 H 0.76876 0.73234 0.03255 0.0
H399 H 0.79223 0.67262 0.07777 0.0
C400 C 0.78463 0.61791 0.95672 0.0
N401 N 0.76991 0.57927 0.92053 0.0
C402 C 0.80062 0.59657 0.95276 0.0
C403 C 0.7612 0.61965 0.94218 0.0
C404 C 0.79284 0.57723 0.93439 0.0
C405 C 0.75409 0.5999 0.92401 0.0
C406 C 0.8416 0.69464 0.01447 0.0
C407 C 0.8581 0.70404 0.99733 0.0
C408 C 0.85013 0.69731 0.03891 0.0
C409 C 0.88311 0.71576 1.00496 0.0
C410 C 0.87529 0.70913 0.0458 0.0
N411 N 0.89112 0.71803 0.02882 0.0
C412 C 0.7969 0.72368 0.95655 0.0
C413 C 0.7888 0.68559 0.92991 0.0
C414 C 0.79798 0.73983 0.93708 0.0
N415 N 0.79231 0.6971 0.95265 0.0
C416 C 0.78934 0.70097 0.90997 0.0
C417 C 0.79402 0.72856 0.91329 0.0
H418 H 0.79969 0.73236 0.97483 0.0
H419 H 0.78528 0.66447 0.92717 0.0
C420 C 0.83574 0.59547 0.01389 0.0
N421 N 0.84166 0.62166 0.01183 0.0
C422 C 0.85574 0.57849 0.01992 0.0
C423 C 0.88806 0.61515 0.01974 0.0
C424 C 0.86733 0.63159 0.01424 0.0
C425 C 0.88227 0.58835 0.02309 0.0
H426 H 0.81531 0.58782 0.01128 0.0
H427 H 0.87187 0.65224 0.01212 0.0
O428 O 0.75788 0.67937 0.99851 0.0
O429 O 0.78296 0.63947 0.03014 0.0
O430 O 0.79183 0.63681 0.97487 0.0
O431 O 0.81709 0.68314 0.00731 0.0
H432 H 0.72355 0.69962 0.02749 0.0
H433 H 0.7378 0.67982 0.95335 0.0
H434 H 0.67994 0.71614 0.01391 0.0
H435 H 0.69387 0.69639 0.9411 0.0
H436 H 0.8402 0.61121 0.08842 0.0
H437 H 0.75865 0.5929 0.03492 0.0
H438 H 0.82581 0.64492 0.06064 0.0
H439 H 0.77434 0.55999 0.06302 0.0
H440 H 0.66625 0.61506 0.99803 0.0
H441 H 0.71602 0.55317 0.97405 0.0
H442 H 0.76027 0.76174 0.06774 0.0
H443 H 0.78599 0.70093 0.1139 0.0
H444 H 0.81891 0.59499 0.9637 0.0
H445 H 0.74845 0.63585 0.94513 0.0
H446 H 0.80502 0.5606 0.93115 0.0
H447 H 0.73593 0.60093 0.91274 0.0
H448 H 0.85169 0.70219 0.97835 0.0
H449 H 0.83751 0.69031 0.05239 0.0
H450 H 0.89616 0.72305 0.9919 0.0
H451 H 0.88221 0.71126 0.06464 0.0
H452 H 0.80211 0.76088 0.94069 0.0
H453 H 0.78568 0.69124 0.89214 0.0
H454 H 0.85054 0.55782 0.02193 0.0
H455 H 0.90834 0.62342 0.0219 0.0
Li456 Li 0.90587 0.05302 0.26045 0.0
Li457 Li 0.93821 0.02398 0.27859 0.0
Li458 Li 0.9374 0.031 0.23376 0.0
Li459 Li 0.9027 1.00376 0.2509 0.0
C460 C 0.95482 0.08311 0.26351 0.0
N461 N 0.97359 0.1354 0.26647 0.0
C462 C 0.96144 0.09639 0.28598 0.0
C463 C 0.95791 0.09642 0.24252 0.0
C464 C 0.97083 0.12283 0.28711 0.0
C465 C 0.96739 0.12284 0.2444 0.0
C466 C 0.89628 0.02224 0.30614 0.0
C467 C 0.89461 0.99667 0.34118 0.0
N468 N 0.89091 0.01907 0.35497 0.0
C469 C 0.89235 0.04499 0.32066 0.0
C470 C 0.89729 0.99786 0.31646 0.0
C471 C 0.88971 0.04297 0.3453 0.0
C472 C 0.85886 0.07517 0.27253 0.0
N473 N 0.88398 0.08243 0.26714 0.0
C474 C 0.87533 0.12814 0.27444 0.0
C475 C 0.89233 0.10839 0.26775 0.0
C476 C 0.84941 0.12118 0.28058 0.0
C477 C 0.84127 0.09421 0.27942 0.0
H478 H 0.85268 0.05442 0.272 0.0
H479 H 0.91212 0.11399 0.26312 0.0
C480 C 0.97688 0.99869 0.30728 0.0
N481 N 0.96046 0.01914 0.30705 0.0
C482 C 0.99264 0.99437 0.32813 0.0
C483 C 0.97447 0.03235 0.34804 0.0
C484 C 0.95925 0.03602 0.3268 0.0
C485 C 0.9915 0.01129 0.34896 0.0
H486 H 0.97785 0.98575 0.29126 0.0
H487 H 0.94629 0.05227 0.32619 0.0
C488 C 0.89056 0.04391 0.20789 0.0
N489 N 0.87566 0.06675 0.16566 0.0
C490 C 0.8777 0.0285 0.18851 0.0
C491 C 0.89552 0.07098 0.20591 0.0
C492 C 0.87042 0.0404 0.16727 0.0
C493 C 0.88791 0.08215 0.18438 0.0
C494 C 0.94191 0.97124 0.2459 0.0
C495 C 0.94834 0.96122 0.22321 0.0
C496 C 0.93561 0.95381 0.26341 0.0
C497 C 0.94791 0.93387 0.21827 0.0
C498 C 0.93536 0.92659 0.25777 0.0
N499 N 0.94144 0.91727 0.2355 0.0
C500 C 0.9833 0.0447 0.20858 0.0
C501 C 0.9485 0.02075 0.1848 0.0
C502 C 0.9991 0.04505 0.18884 0.0
N503 N 0.95838 0.03291 0.20618 0.0
C504 C 0.96373 0.02032 0.1647 0.0
C505 C 0.98941 0.0326 0.16654 0.0
H506 H 0.99105 0.0536 0.22592 0.0
H507 H 0.929 0.01077 0.18349 0.0
C508 C 0.86088 0.96656 0.25954 0.0
N509 N 0.87855 0.97378 0.24343 0.0
C510 C 0.8433 0.94452 0.25422 0.0
C511 C 0.86221 0.93797 0.21568 0.0
C512 C 0.8793 0.9602 0.22171 0.0
C513 C 0.84385 0.92981 0.23204 0.0
H514 H 0.86025 0.97804 0.27646 0.0
H515 H 0.89329 0.9666 0.20907 0.0
O516 O 0.94583 0.05715 0.26206 0.0
O517 O 0.89904 0.02382 0.28197 0.0
O518 O 0.89794 0.03252 0.22875 0.0
O519 O 0.94172 0.99796 0.25093 0.0
H520 H 0.95927 0.08647 0.3024 0.0
H521 H 0.95292 0.08655 0.22496 0.0
H522 H 0.97594 0.13335 0.3044 0.0
H523 H 0.96979 0.13338 0.22831 0.0
H524 H 0.89545 0.97794 0.3494 0.0
H525 H 0.89186 0.0641 0.31313 0.0
H526 H 0.90015 0.98003 0.30555 0.0
H527 H 0.88684 0.06045 0.35676 0.0
H528 H 0.88236 0.14865 0.27457 0.0
H529 H 0.82165 0.08777 0.28422 0.0
H530 H 1.00582 0.97818 0.32779 0.0
H531 H 0.97262 0.04574 0.36366 0.0
H532 H 0.87355 0.00753 0.18982 0.0
H533 H 0.90504 0.08325 0.22084 0.0
H534 H 0.86061 0.02868 0.15208 0.0
H535 H 0.89171 0.10308 0.18258 0.0
H536 H 0.9535 0.97438 0.20951 0.0
H537 H 0.93086 0.96121 0.28112 0.0
H538 H 0.9527 0.92585 0.20073 0.0
H539 H 0.93034 0.91289 0.27111 0.0
H540 H 0.01893 0.05442 0.19114 0.0
H541 H 0.95544 0.01054 0.14785 0.0
H542 H 0.82916 0.93935 0.26719 0.0
H543 H 0.86359 0.92716 0.19848 0.0
Li544 Li 0.28635 0.17689 0.52448 0.0
Li545 Li 0.26582 0.14111 0.49656 0.0
Li546 Li 0.31562 0.14486 0.50649 0.0
Li547 Li 0.29334 0.17553 0.47963 0.0
C548 C 0.2851 0.1338 0.5517 0.0
N549 N 0.28287 0.12541 0.6001 0.0
C550 C 0.26173 0.12322 0.56034 0.0
C551 C 0.30745 0.13972 0.56761 0.0
C552 C 0.26096 0.11923 0.58489 0.0
C553 C 0.30591 0.13545 0.59203 0.0
C554 C 0.23363 0.18145 0.4902 0.0
C555 C 0.19658 0.17559 0.46042 0.0
N556 N 0.18013 0.18443 0.47719 0.0
C557 C 0.21641 0.19073 0.50708 0.0
C558 C 0.22371 0.17405 0.46662 0.0
C559 C 0.1894 0.192 0.50018 0.0
C560 C 0.29762 0.22026 0.55893 0.0
N561 N 0.28092 0.19874 0.55273 0.0
C562 C 0.2563 0.20766 0.58734 0.0
C563 C 0.26035 0.19242 0.56629 0.0
C564 C 0.27339 0.22986 0.59436 0.0
C565 C 0.29422 0.23616 0.57977 0.0
H566 H 0.31362 0.22508 0.54769 0.0
H567 H 0.24695 0.17559 0.56069 0.0
C568 C 0.2367 0.09631 0.47399 0.0
N569 N 0.2356 0.11695 0.49056 0.0
C570 C 0.2149 0.07829 0.46914 0.0
C571 C 0.1913 0.10297 0.49866 0.0
C572 C 0.21362 0.12039 0.50304 0.0
C573 C 0.1917 0.08153 0.48148 0.0
H574 H 0.25459 0.09373 0.46464 0.0
H575 H 0.2134 0.13669 0.51643 0.0
C576 C 0.34602 0.19162 0.51255 0.0
N577 N 0.39941 0.20594 0.52196 0.0
C578 C 0.36146 0.19912 0.49392 0.0
C579 C 0.35765 0.19178 0.53603 0.0
C580 C 0.38843 0.20622 0.49903 0.0
C581 C 0.38469 0.19896 0.5404 0.0
C582 C 0.30121 0.13088 0.45148 0.0
C583 C 0.32726 0.12578 0.44623 0.0
C584 C 0.28129 0.13021 0.43277 0.0
C585 C 0.33303 0.12053 0.42226 0.0
C586 C 0.28786 0.12493 0.40904 0.0
N587 N 0.31339 0.12026 0.40432 0.0
C588 C 0.34058 0.10214 0.52583 0.0
C589 C 0.37063 0.12976 0.50655 0.0
C590 C 0.36085 0.08558 0.53213 0.0
N591 N 0.34575 0.12392 0.5135 0.0
C592 C 0.39152 0.1136 0.51236 0.0
C593 C 0.38678 0.0912 0.52544 0.0
H594 H 0.32058 0.09745 0.53067 0.0
H595 H 0.37429 0.14674 0.49627 0.0
C596 C 0.27698 0.21531 0.44942 0.0
N597 N 0.29542 0.19685 0.45213 0.0
C598 C 0.27631 0.23065 0.4294 0.0
C599 C 0.31421 0.20842 0.41554 0.0
C600 C 0.31409 0.19346 0.43582 0.0
C601 C 0.29498 0.22721 0.41196 0.0
H602 H 0.26256 0.21805 0.46274 0.0
H603 H 0.32898 0.17917 0.43849 0.0
O604 O 0.28613 0.13812 0.52776 0.0
O605 O 0.26009 0.17975 0.4967 0.0
O606 O 0.31957 0.18461 0.50786 0.0
O607 O 0.29522 0.13612 0.47483 0.0
H608 H 0.24432 0.11828 0.54826 0.0
H609 H 0.32583 0.14741 0.56115 0.0
H610 H 0.24295 0.11123 0.59185 0.0
H611 H 0.32304 0.14005 0.60455 0.0
H612 H 0.18862 0.16979 0.44226 0.0
H613 H 0.22378 0.19681 0.52533 0.0
H614 H 0.23682 0.1672 0.45327 0.0
H615 H 0.17582 0.199 0.51309 0.0
H616 H 0.23971 0.20235 0.5978 0.0
H617 H 0.30797 0.253 0.58457 0.0
H618 H 0.21636 0.06181 0.4561 0.0
H619 H 0.17383 0.10648 0.50845 0.0
H620 H 0.35276 0.19937 0.47571 0.0
H621 H 0.34592 0.18656 0.55075 0.0
H622 H 0.40065 0.21193 0.48475 0.0
H623 H 0.39397 0.19905 0.55847 0.0
H624 H 0.34288 0.12606 0.46046 0.0
H625 H 0.26096 0.13367 0.43652 0.0
H626 H 0.35313 0.11671 0.41793 0.0
H627 H 0.27266 0.12449 0.39438 0.0
H628 H 0.35611 0.06823 0.54175 0.0
H629 H 0.4112 0.1187 0.5068 0.0
H630 H 0.26098 0.2447 0.42742 0.0
H631 H 0.32938 0.20541 0.40291 0.0
Li632 Li 0.43741 0.52245 0.77682 0.0
Li633 Li 0.40516 0.55148 0.75883 0.0
Li634 Li 0.4019 0.5018 0.749 0.0
Li635 Li 0.43631 0.52971 0.73195 0.0
C636 C 0.39447 0.51746 0.80371 0.0
N637 N 0.38757 0.5082 0.85137 0.0
C638 C 0.38788 0.53797 0.81978 0.0
C639 C 0.39703 0.49214 0.81182 0.0
C640 C 0.38461 0.53293 0.84382 0.0
C641 C 0.39361 0.48787 0.83598 0.0
C642 C 0.45285 0.58186 0.7621 0.0
C643 C 0.46002 0.62328 0.74384 0.0
N644 N 0.46887 0.63491 0.76573 0.0
C645 C 0.4624 0.59413 0.78434 0.0
C646 C 0.45196 0.59647 0.74163 0.0
C647 C 0.47025 0.62099 0.78584 0.0
C648 C 0.47715 0.49883 0.80587 0.0
N649 N 0.45944 0.51817 0.80545 0.0
C650 C 0.47187 0.53163 0.84671 0.0
C651 C 0.45677 0.53462 0.82524 0.0
C652 C 0.49012 0.51162 0.84783 0.0
C653 C 0.49269 0.49513 0.82698 0.0
H654 H 0.47929 0.48631 0.78979 0.0
H655 H 0.44278 0.55003 0.8244 0.0
C656 C 0.36228 0.58516 0.75179 0.0
N657 N 0.38504 0.58202 0.76553 0.0
C658 C 0.34618 0.60605 0.75728 0.0
C659 C 0.37691 0.61993 0.79126 0.0
C660 C 0.39259 0.59896 0.78493 0.0
C661 C 0.35329 0.62364 0.77741 0.0
H662 H 0.35623 0.57106 0.73688 0.0
H663 H 0.41031 0.59567 0.79604 0.0
C664 C 0.44337 0.47004 0.74413 0.0
N665 N 0.44768 0.41645 0.7341 0.0
C666 C 0.45003 0.46053 0.72134 0.0
C667 C 0.43944 0.4523 0.76194 0.0
C668 C 0.45198 0.43337 0.71658 0.0
C669 C 0.44155 0.42528 0.7565 0.0
C670 C 0.38938 0.53875 0.70471 0.0
C671 C 0.37777 0.52026 0.687 0.0
C672 C 0.39291 0.5652 0.69943 0.0
C673 C 0.3705 0.52844 0.66411 0.0
C674 C 0.38535 0.57262 0.67634 0.0
N675 N 0.37444 0.55424 0.65929 0.0
C676 C 0.35929 0.46536 0.75722 0.0
C677 C 0.38057 0.45617 0.72121 0.0
C678 C 0.34211 0.44296 0.75233 0.0
N679 N 0.37821 0.47136 0.74184 0.0
C680 C 0.36381 0.43362 0.71558 0.0
C681 C 0.34427 0.4267 0.73127 0.0
H682 H 0.35739 0.47806 0.77323 0.0
H683 H 0.39547 0.46158 0.70905 0.0
C684 C 0.48081 0.54655 0.70621 0.0
N685 N 0.45701 0.5325 0.70425 0.0
C686 C 0.49653 0.54752 0.68643 0.0
C687 C 0.46323 0.51922 0.66307 0.0
C688 C 0.4481 0.51896 0.68321 0.0
C689 C 0.48787 0.53356 0.66451 0.0
H690 H 0.4878 0.5567 0.72325 0.0
H691 H 0.42954 0.5073 0.68222 0.0
O692 O 0.39813 0.52213 0.78015 0.0
O693 O 0.445 0.55557 0.76033 0.0
O694 O 0.44103 0.49658 0.74901 0.0
O695 O 0.39675 0.53103 0.72719 0.0
H696 H 0.38543 0.55759 0.81384 0.0
H697 H 0.40143 0.4759 0.79957 0.0
H698 H 0.37971 0.54868 0.85647 0.0
H699 H 0.39568 0.46838 0.84249 0.0
H700 H 0.45934 0.63482 0.72814 0.0
H701 H 0.46359 0.58308 0.80033 0.0
H702 H 0.44543 0.58716 0.72415 0.0
H703 H 0.47747 0.63078 0.80299 0.0
H704 H 0.46901 0.54466 0.86235 0.0
H705 H 0.50684 0.47977 0.82687 0.0
H706 H 0.32791 0.60791 0.74634 0.0
H707 H 0.38313 0.63302 0.80692 0.0
H708 H 0.45356 0.4739 0.70742 0.0
H709 H 0.43497 0.45928 0.77983 0.0
H710 H 0.45692 0.42575 0.69895 0.0
H711 H 0.4384 0.41135 0.77011 0.0
H712 H 0.37455 0.49977 0.69082 0.0
H713 H 0.40105 0.57992 0.7131 0.0
H714 H 0.3617 0.51429 0.65019 0.0
H715 H 0.38804 0.59303 0.67202 0.0
H716 H 0.32702 0.43866 0.76471 0.0
H717 H 0.36634 0.42159 0.69924 0.0
H718 H 0.51556 0.55854 0.68848 0.0
H719 H 0.45566 0.5083 0.64654 0.0
Li720 Li 0.78756 0.39886 0.51037 0.0
Li721 Li 0.77183 0.36406 0.53532 0.0
Li722 Li 0.76137 0.3595 0.49099 0.0
Li723 Li 0.73979 0.39192 0.51837 0.0
C724 C 0.81718 0.35571 0.49513 0.0
N725 N 0.85778 0.34396 0.46596 0.0
C726 C 0.8362 0.33819 0.50235 0.0
C727 C 0.81882 0.36731 0.47314 0.0
C728 C 0.85658 0.33248 0.48733 0.0
C729 C 0.83949 0.36111 0.45863 0.0
C730 C 0.779 0.40617 0.56502 0.0
C731 C 0.7715 0.40101 0.60684 0.0
N732 N 0.79665 0.41106 0.61317 0.0
C733 C 0.8047 0.41661 0.57194 0.0
C734 C 0.76217 0.39848 0.5826 0.0
C735 C 0.81327 0.41888 0.59637 0.0
C736 C 0.81101 0.44786 0.49715 0.0
N737 N 0.81612 0.4242 0.50613 0.0
C738 C 0.86285 0.43575 0.50944 0.0
C739 C 0.84144 0.41805 0.51257 0.0
C740 C 0.85819 0.46014 0.49971 0.0
C741 C 0.83178 0.46609 0.49361 0.0
H742 H 0.79083 0.45276 0.49277 0.0
H743 H 0.84503 0.39944 0.52032 0.0
C744 C 0.76315 0.32626 0.56951 0.0
N745 N 0.78135 0.34413 0.56218 0.0
C746 C 0.76951 0.31124 0.58905 0.0
C747 C 0.81324 0.33337 0.5932 0.0
C748 C 0.80613 0.34771 0.57337 0.0
C749 C 0.79483 0.31473 0.60131 0.0
H750 H 0.74375 0.32347 0.56003 0.0
H751 H 0.82033 0.36184 0.56695 0.0
C752 C 0.75212 0.41637 0.47112 0.0
N753 N 0.74503 0.45536 0.43911 0.0
C754 C 0.74006 0.43956 0.47817 0.0
C755 C 0.76036 0.41294 0.4477 0.0
C756 C 0.73671 0.45906 0.46175 0.0
C757 C 0.75667 0.43291 0.43182 0.0
C758 C 0.71087 0.34708 0.51777 0.0
C759 C 0.69597 0.33791 0.49663 0.0
C760 C 0.69818 0.35133 0.53914 0.0
C761 C 0.66848 0.33335 0.49717 0.0
C762 C 0.67065 0.34659 0.53892 0.0
N763 N 0.6565 0.33778 0.51811 0.0
C764 C 0.77319 0.31355 0.46337 0.0
C765 C 0.74372 0.34087 0.44288 0.0
C766 C 0.77375 0.29654 0.44273 0.0
N767 N 0.7587 0.33544 0.46297 0.0
C768 C 0.74338 0.32418 0.42192 0.0
C769 C 0.7588 0.30183 0.42159 0.0
H770 H 0.78467 0.30947 0.47967 0.0
H771 H 0.73226 0.35833 0.44306 0.0
C772 C 0.71076 0.42887 0.54361 0.0
N773 N 0.70844 0.41085 0.52441 0.0
C774 C 0.68958 0.44429 0.54914 0.0
C775 C 0.66366 0.42248 0.51501 0.0
C776 C 0.68554 0.40757 0.50999 0.0
C777 C 0.6655 0.44126 0.53483 0.0
H778 H 0.72932 0.43174 0.55443 0.0
H779 H 0.68429 0.39354 0.49452 0.0
O780 O 0.79704 0.36135 0.50959 0.0
O781 O 0.77038 0.40343 0.54116 0.0
O782 O 0.75524 0.39686 0.48684 0.0
O783 O 0.73776 0.35187 0.51756 0.0
H784 H 0.83517 0.32907 0.51936 0.0
H785 H 0.80436 0.38103 0.46743 0.0
H786 H 0.87143 0.31892 0.49266 0.0
H787 H 0.84101 0.36996 0.44156 0.0
H788 H 0.75877 0.39494 0.62062 0.0
H789 H 0.81793 0.42279 0.55859 0.0
H790 H 0.74222 0.39037 0.57755 0.0
H791 H 0.83315 0.42681 0.60198 0.0
H792 H 0.8828 0.43051 0.51489 0.0
H793 H 0.82716 0.48454 0.48591 0.0
H794 H 0.75483 0.29674 0.59419 0.0
H795 H 0.83287 0.33704 0.60216 0.0
H796 H 0.73374 0.44272 0.49624 0.0
H797 H 0.76945 0.39504 0.44176 0.0
H798 H 0.72756 0.47716 0.46703 0.0
H799 H 0.76302 0.43053 0.41366 0.0
H800 H 0.70549 0.33445 0.47997 0.0
H801 H 0.70942 0.35845 0.55565 0.0
H802 H 0.65668 0.32634 0.48092 0.0
H803 H 0.66053 0.34995 0.55528 0.0
H804 H 0.78561 0.27935 0.44333 0.0
H805 H 0.73166 0.32902 0.40596 0.0
H806 H 0.69238 0.45895 0.56417 0.0
H807 H 0.64554 0.41928 0.50347 0.0
Li808 Li 0.65133 0.97769 0.76308 0.0
Li809 Li 0.62009 0.00775 0.7807 0.0
Li810 Li 0.62083 0.99918 0.73557 0.0
Li811 Li 0.65649 0.02679 0.75799 0.0
C812 C 0.6054 0.9486 0.76469 0.0
N813 N 0.59351 0.89653 0.77359 0.0
C814 C 0.59886 0.94201 0.78765 0.0
C815 C 0.60549 0.92877 0.74616 0.0
C816 C 0.59302 0.91555 0.79182 0.0
C817 C 0.59954 0.90254 0.75104 0.0
C818 C 0.66812 0.01737 0.81064 0.0
C819 C 0.67654 0.05429 0.83997 0.0
N820 N 0.68605 0.03766 0.85632 0.0
C821 C 0.67828 1.00069 0.82765 0.0
C822 C 0.66748 0.04442 0.81678 0.0
C823 C 0.68713 0.0113 0.85067 0.0
C824 C 0.68894 0.93895 0.75409 0.0
N825 N 0.67055 0.94692 0.76938 0.0
C826 C 0.68204 0.91327 0.79593 0.0
C827 C 0.66687 0.93455 0.78998 0.0
C828 C 0.70143 0.90474 0.78063 0.0
C829 C 0.7046 0.91781 0.75935 0.0
H830 H 0.69196 0.94945 0.7381 0.0
H831 H 0.65255 0.94158 0.80213 0.0
C832 C 0.57262 0.02188 0.80029 0.0
N833 N 0.59715 0.01332 0.80625 0.0
C834 C 0.55441 0.02552 0.8179 0.0
C835 C 0.58702 0.01141 0.84746 0.0
C836 C 0.60452 0.00788 0.82925 0.0
C837 C 0.56156 0.02028 0.84186 0.0
H838 H 0.56718 0.02577 0.78179 0.0
H839 H 0.62373 1.00026 0.83346 0.0
C840 C 0.66337 0.99081 0.7102 0.0
N841 N 0.66904 0.97939 0.66172 0.0
C842 C 0.67463 0.00988 0.6963 0.0
C843 C 0.65535 0.96582 0.69952 0.0
C844 C 0.67724 1.00376 0.6718 0.0
C845 C 0.65828 0.96046 0.67497 0.0
C846 C 0.61208 0.05909 0.75644 0.0
C847 C 0.6055 0.07204 0.7356 0.0
C848 C 0.61188 0.07277 0.77898 0.0
C849 C 0.59958 0.09865 0.73762 0.0
C850 C 0.60581 0.09935 0.78026 0.0
N851 N 0.59989 0.11166 0.75973 0.0
C852 C 0.57702 0.98001 0.7033 0.0
C853 C 0.60506 0.01331 0.68864 0.0
C854 C 0.56001 0.97954 0.68239 0.0
N855 N 0.59903 0.99677 0.70602 0.0
C856 C 0.58872 0.01341 0.66743 0.0
C857 C 0.56567 0.99652 0.66411 0.0
H858 H 0.57239 0.96739 0.71758 0.0
H859 H 0.62241 0.02678 0.69139 0.0
C860 C 0.70405 0.05893 0.76985 0.0
N861 N 0.6812 0.05609 0.75536 0.0
C862 C 0.7225 0.07991 0.76743 0.0
C863 C 0.69395 0.0942 0.73476 0.0
C864 C 0.67601 0.07307 0.73793 0.0
C865 C 0.71758 0.09784 0.74962 0.0
H866 H 0.70817 0.04469 0.78309 0.0
H867 H 0.65818 0.06989 0.72609 0.0
O868 O 0.61139 0.97437 0.76032 0.0
O869 O 0.65928 0.00723 0.78803 0.0
O870 O 0.6603 0.99656 0.73414 0.0
O871 O 0.61778 0.03296 0.75476 0.0
H872 H 0.59857 0.9571 0.80217 0.0
H873 H 0.61001 0.93357 0.72819 0.0
H874 H 0.58813 0.91014 0.80955 0.0
H875 H 0.59966 0.88698 0.73689 0.0
H876 H 0.67613 0.0752 0.84494 0.0
H877 H 0.67923 0.97975 0.82318 0.0
H878 H 0.6605 0.05775 0.80366 0.0
H879 H 0.69488 0.99859 0.86405 0.0
H880 H 0.67871 0.90374 0.81242 0.0
H881 H 0.71963 0.91234 0.74722 0.0
H882 H 0.53503 0.03253 0.81284 0.0
H883 H 0.59314 0.00667 0.86562 0.0
H884 H 0.68117 0.02924 0.70431 0.0
H885 H 0.64695 0.95075 0.71009 0.0
H886 H 0.68577 0.01838 0.6608 0.0
H887 H 0.65201 0.94124 0.66645 0.0
H888 H 0.60514 0.06173 0.71802 0.0
H889 H 0.61603 0.06294 0.79535 0.0
H890 H 0.59469 0.10895 0.72162 0.0
H891 H 0.60569 0.11016 0.7976 0.0
H892 H 0.5423 0.96644 0.68084 0.0
H893 H 0.59417 0.02658 0.65378 0.0
H894 H 0.7407 0.08169 0.77897 0.0
H895 H 0.68933 0.10756 0.72082 0.0
Li896 Li 0.05752 0.25848 0.86439 0.0
Li897 Li 0.02936 0.27747 0.89448 0.0
Li898 Li 0.03811 0.22928 0.89377 0.0
Li899 Li 0.00793 0.24728 0.86314 0.0
C900 C 0.08975 0.25786 0.90796 0.0
N901 N 0.1421 0.2522 0.92383 0.0
C902 C 0.10448 0.27888 0.9207 0.0
C903 C 0.10155 0.23385 0.90363 0.0
C904 C 0.13094 0.27567 0.92846 0.0
C905 C 0.12805 0.2314 0.91171 0.0
C906 C 0.02405 0.30819 0.85838 0.0
C907 C 0.9965 0.3456 0.86136 0.0
N908 N 0.01799 0.36199 0.85831 0.0
C909 C 0.04582 0.32538 0.85508 0.0
C910 C 0.99913 0.31833 0.86136 0.0
C911 C 0.04236 0.35252 0.85516 0.0
C912 C 0.08515 0.25535 0.82184 0.0
N913 N 0.08661 0.26569 0.84502 0.0
C914 C 0.12761 0.28938 0.83923 0.0
C915 C 0.10732 0.28238 0.8539 0.0
C916 C 0.12652 0.27928 0.81509 0.0
C917 C 0.10505 0.26178 0.80653 0.0
H918 H 0.0682 0.24252 0.81509 0.0
H919 H 0.10772 0.29092 0.87216 0.0
C920 C 1.00392 0.31083 0.92783 0.0
N921 N 0.02575 0.30842 0.91497 0.0
C922 C 1.00145 0.33337 0.94306 0.0
C923 C 0.04405 0.35044 0.9316 0.0
C924 C 0.04564 0.32763 0.91655 0.0
C925 C 0.02177 0.35349 0.94519 0.0
H926 H 0.98854 0.29514 0.9265 0.0
H927 H 0.06276 0.32521 0.90608 0.0
C928 C 0.04521 0.19988 0.84859 0.0
N929 N 0.06053 0.15209 0.82897 0.0
C930 C 0.02605 0.18029 0.83965 0.0
C931 C 0.07218 0.19533 0.84706 0.0
C932 C 0.03418 0.1562 0.82996 0.0
C933 C 0.07952 0.17101 0.83721 0.0
C934 C 0.97837 0.23903 0.90063 0.0
C935 C 0.97186 0.21389 0.90816 0.0
C936 C 0.95812 0.25594 0.89507 0.0
C937 C 0.94514 0.20595 0.90967 0.0
C938 C 0.93164 0.24726 0.89677 0.0
N939 N 0.92575 0.22264 0.90395 0.0
C940 C 0.05491 0.20552 0.93629 0.0
C941 C 0.03564 0.17513 0.90533 0.0
C942 C 0.05874 0.18512 0.9517 0.0
N943 N 0.04373 0.2002 0.91352 0.0
C944 C 0.03907 0.15414 0.9201 0.0
C945 C 0.05079 0.15896 0.94366 0.0
H946 H 0.0608 0.22569 0.94252 0.0
H947 H 0.02595 0.17145 0.88753 0.0
C948 C 0.97056 0.25685 0.82515 0.0
N949 N 0.97676 0.2395 0.84202 0.0
C950 C 0.94779 0.25217 0.80954 0.0
C951 C 0.93827 0.21171 0.82879 0.0
C952 C 0.96131 0.2171 0.84392 0.0
C953 C 0.93117 0.2294 0.8113 0.0
H954 H 0.98338 0.27431 0.82374 0.0
H955 H 0.96678 0.20346 0.85731 0.0
O956 O 0.06382 0.26074 0.9002 0.0
O957 O 0.02715 0.2816 0.85886 0.0
O958 O 0.03754 0.22368 0.85794 0.0
O959 O 1.00442 0.24705 0.89886 0.0
H960 H 0.09561 0.29752 0.92448 0.0
H961 H 0.09029 0.21717 0.89444 0.0
H962 H 0.14261 0.29183 0.93821 0.0
H963 H 0.13741 0.21292 0.90844 0.0
H964 H 0.97736 0.35373 0.8638 0.0
H965 H 0.06521 0.31788 0.85269 0.0
H966 H 0.98204 0.30531 0.86375 0.0
H967 H 0.05908 0.36607 0.85278 0.0
H968 H 0.14385 0.30278 0.84667 0.0
H969 H 0.10317 0.25383 0.78797 0.0
H970 H 0.98411 0.33474 0.95346 0.0
H971 H 0.06004 0.36558 0.93248 0.0
H972 H 1.00511 0.18352 0.84038 0.0
H973 H 0.08733 0.21049 0.85313 0.0
H974 H 0.01954 0.1408 0.82318 0.0
H975 H 0.10032 0.16723 0.83601 0.0
H976 H 0.98723 0.20061 0.91272 0.0
H977 H 0.96278 0.27547 0.88928 0.0
H978 H 0.93981 0.18651 0.91536 0.0
H979 H 0.91578 0.26007 0.89234 0.0
H980 H 0.06801 0.18976 0.96964 0.0
H981 H 0.03209 0.1344 0.9133 0.0
H982 H 0.94346 0.26612 0.79605 0.0
H983 H 0.92598 0.19406 0.83104 0.0
Li984 Li 0.55452 0.75817 0.3614 0.0
Li985 Li 0.52461 0.77578 0.39293 0.0
Li986 Li 0.53634 0.73003 0.39102 0.0
Li987 Li 0.50509 0.74461 0.36113 0.0
C988 C 0.57765 0.75512 0.41492 0.0
N989 N 0.61035 0.73807 0.45185 0.0
C990 C 0.57113 0.75917 0.43881 0.0
C991 C 0.60085 0.74259 0.40977 0.0
C992 C 0.58791 0.75035 0.45724 0.0
C993 C 0.61712 0.73408 0.42871 0.0
C994 C 0.51926 0.8064 0.35531 0.0
C995 C 0.49181 0.84396 0.35703 0.0
N996 N 0.51296 0.85985 0.35198 0.0
C997 C 0.54067 0.82306 0.34996 0.0
C998 C 0.49457 0.81687 0.3587 0.0
C999 C 0.53709 0.85004 0.3484 0.0
C1000 C 0.58019 0.75973 0.31795 0.0
N1001 N 0.58296 0.76671 0.34196 0.0
C1002 C 0.62535 0.78846 0.33771 0.0
C1003 C 0.60501 0.78066 0.35205 0.0
C1004 C 0.62296 0.78184 0.31274 0.0
C1005 C 0.60009 0.76703 0.30294 0.0
H1006 H 0.5623 0.74882 0.31042 0.0
H1007 H 0.60657 0.78611 0.37119 0.0
C1008 C 0.50115 0.80154 0.43155 0.0
N1009 N 0.51881 0.80537 0.41451 0.0
C1010 C 0.49683 0.82186 0.44863 0.0
C1011 C 0.52899 0.84984 0.43045 0.0
C1012 C 0.53289 0.82884 0.41382 0.0
C1013 C 0.51089 0.84638 0.44828 0.0
H1014 H 0.49074 0.78251 0.43217 0.0
H1015 H 0.54749 0.83113 0.40064 0.0
C1016 C 0.54232 0.69695 0.35194 0.0
N1017 N 0.55517 0.64488 0.34508 0.0
C1018 C 0.52465 0.6766 0.35771 0.0
C1019 C 0.56647 0.69085 0.34257 0.0
C1020 C 0.53154 0.65039 0.35417 0.0
C1021 C 0.57261 0.66439 0.33924 0.0
C1022 C 0.47512 0.73698 0.39744 0.0
C1023 C 0.46714 0.71098 0.40159 0.0
C1024 C 0.45595 0.75563 0.39414 0.0
C1025 C 0.44006 0.70402 0.40217 0.0
C1026 C 0.42907 0.74788 0.3948 0.0
N1027 N 0.42174 0.72245 0.39876 0.0
C1028 C 0.53134 0.70164 0.43233 0.0
C1029 C 0.56451 0.68546 0.40804 0.0
C1030 C 0.53663 0.68293 0.44913 0.0
N1031 N 0.54494 0.70237 0.41208 0.0
C1032 C 0.57033 0.66626 0.42427 0.0
C1033 C 0.55626 0.66474 0.44518 0.0
H1034 H 0.5166 0.71593 0.43567 0.0
H1035 H 0.57589 0.68701 0.3924 0.0
C1036 C 0.46711 0.75424 0.32366 0.0
N1037 N 0.4741 0.73621 0.3397 0.0
C1038 C 0.44455 0.74938 0.3078 0.0
C1039 C 0.43674 0.70746 0.32515 0.0
C1040 C 0.45968 0.71294 0.34041 0.0
C1041 C 0.42894 0.72582 0.30859 0.0
H1042 H 0.47908 0.77241 0.32314 0.0
H1043 H 0.46586 0.69861 0.35285 0.0
O1044 O 0.56105 0.76286 0.39661 0.0
O1045 O 0.52243 0.77996 0.35708 0.0
O1046 O 0.53596 0.72272 0.35521 0.0
O1047 O 0.50153 0.74416 0.3966 0.0
H1048 H 0.55315 0.76874 0.44304 0.0
H1049 H 0.60601 0.73913 0.39132 0.0
H1050 H 0.58305 0.75317 0.47582 0.0
H1051 H 0.63505 0.72418 0.42501 0.0
H1052 H 0.47285 0.85235 0.35973 0.0
H1053 H 0.55989 0.81531 0.34719 0.0
H1054 H 0.47773 0.80423 0.3626 0.0
H1055 H 0.55353 0.86319 0.34439 0.0
H1056 H 0.64273 0.7996 0.34608 0.0
H1057 H 0.59724 0.76177 0.28378 0.0
H1058 H 0.48265 0.81838 0.46203 0.0
H1059 H 0.54057 0.8683 0.42982 0.0
H1060 H 0.50605 0.681 0.36527 0.0
H1061 H 0.58038 0.70639 0.33805 0.0
H1062 H 0.51814 0.63444 0.35872 0.0
H1063 H 0.59126 0.65936 0.33207 0.0
H1064 H 0.48165 0.69619 0.40396 0.0
H1065 H 0.46177 0.77585 0.39106 0.0
H1066 H 0.4336 0.68393 0.40521 0.0
H1067 H 0.41403 0.76209 0.39217 0.0
H1068 H 0.52576 0.6831 0.46526 0.0
H1069 H 0.58561 0.6527 0.42036 0.0
H1070 H 0.43915 0.76407 0.29531 0.0
H1071 H 0.42543 0.68889 0.32606 0.0
Li1072 Li 0.02254 0.79346 0.61585 0.0
Li1073 Li 0.99623 0.77277 0.64501 0.0
Li1074 Li 0.04382 0.76304 0.64379 0.0
Li1075 Li 0.01062 0.74544 0.61222 0.0
C1076 C 0.02078 0.82039 0.66322 0.0
N1077 N 1.00505 0.86574 0.68705 0.0
C1078 C 1.00221 0.83596 0.65198 0.0
C1079 C 0.03139 0.82789 0.68657 0.0
C1080 C 0.99449 0.8588 0.66432 0.0
C1081 C 0.02319 0.8509 0.69831 0.0
C1082 C 0.96061 0.78016 0.6073 0.0
C1083 C 0.91448 0.76615 0.60938 0.0
N1084 N 0.90725 0.79018 0.60249 0.0
C1085 C 0.95271 0.80462 0.6 0.0
C1086 C 0.94135 0.76068 0.6118 0.0
C1087 C 0.92564 0.80934 0.59776 0.0
C1088 C 0.0202 0.82188 0.57411 0.0
N1089 N 0.02964 0.82328 0.59759 0.0
C1090 C 0.0524 0.86493 0.59309 0.0
C1091 C 0.04532 0.84431 0.60731 0.0
C1092 C 0.04332 0.86387 0.56862 0.0
C1093 C 0.02672 0.8421 0.55925 0.0
H1094 H 0.00808 0.80472 0.56681 0.0
H1095 H 0.05282 0.84479 0.62597 0.0
C1096 C 0.97139 0.76115 0.6865 0.0
N1097 N 0.96945 0.77695 0.66769 0.0
C1098 C 0.95302 0.76215 0.70416 0.0
C1099 C 0.93103 0.79602 0.68308 0.0
C1100 C 0.95004 0.79454 0.66591 0.0
C1101 C 0.93226 0.77956 0.70252 0.0
H1102 H 0.98736 0.74777 0.68785 0.0
H1103 H 0.94915 0.80738 0.65117 0.0
C1104 C 0.06993 0.77354 0.60211 0.0
N1105 N 0.11814 0.79456 0.58927 0.0
C1106 C 0.08018 0.76469 0.58053 0.0
C1107 C 0.08418 0.79309 0.61716 0.0
C1108 C 0.10461 0.77555 0.57437 0.0
C1109 C 0.10851 0.80347 0.61035 0.0
C1110 C 0.00798 0.71212 0.64772 0.0
C1111 C 0.02907 0.69538 0.64975 0.0
C1112 C 0.98182 0.7015 0.64652 0.0
C1113 C 0.02361 0.66815 0.65004 0.0
C1114 C 0.97717 0.67417 0.64686 0.0
N1115 N 0.99798 0.6582 0.64857 0.0
C1116 C 0.07529 0.7607 0.68682 0.0
C1117 C 0.09467 0.74213 0.65248 0.0
C1118 C 0.09681 0.75393 0.70181 0.0
N1119 N 0.07469 0.75484 0.66267 0.0
C1120 C 0.11663 0.73506 0.66678 0.0
C1121 C 0.11789 0.7409 0.69185 0.0
H1122 H 0.05877 0.77018 0.69447 0.0
H1123 H 0.09341 0.73717 0.63327 0.0
C1124 C 0.97986 0.71356 0.57564 0.0
N1125 N 1.00265 0.71557 0.59019 0.0
C1126 C 0.97424 0.69143 0.55963 0.0
C1127 C 0.01571 0.67396 0.57378 0.0
C1128 C 0.02068 0.69659 0.58926 0.0
C1129 C 0.9922 0.67109 0.55863 0.0
H1130 H 0.96616 0.72923 0.5763 0.0
H1131 H 0.03893 0.69899 0.60066 0.0
O1132 O 0.02838 0.79779 0.65154 0.0
O1133 O 0.98703 0.7752 0.60956 0.0
O1134 O 0.04588 0.76328 0.6082 0.0
O1135 O 0.01294 0.73881 0.64713 0.0
H1136 H 0.99377 0.8304 0.63397 0.0
H1137 H 0.04583 0.8161 0.69553 0.0
H1138 H 0.98008 0.87099 0.65584 0.0
H1139 H 0.03125 0.85696 0.71639 0.0
H1140 H 0.89938 0.7513 0.61295 0.0
H1141 H 0.96731 0.81982 0.59611 0.0
H1142 H 0.9471 0.74156 0.61715 0.0
H1143 H 0.91926 0.82821 0.59225 0.0
H1144 H 0.06502 0.88144 0.60113 0.0
H1145 H 0.01957 0.84026 0.54044 0.0
H1146 H 0.9553 0.74956 0.71907 0.0
H1147 H 0.91535 0.80966 0.6809 0.0
H1148 H 0.06933 0.74959 0.56867 0.0
H1149 H 0.07654 0.80023 0.63391 0.0
H1150 H 0.11279 0.76888 0.55772 0.0
H1151 H 0.11973 0.81863 0.62181 0.0
H1152 H 0.04945 0.70327 0.65083 0.0
H1153 H 0.96528 0.71422 0.64543 0.0
H1154 H 0.03974 0.65493 0.6514 0.0
H1155 H 0.95701 0.66567 0.64583 0.0
H1156 H 0.09664 0.75835 0.72107 0.0
H1157 H 0.13247 0.72521 0.65829 0.0
H1158 H 0.95617 0.69048 0.54794 0.0
H1159 H 0.03006 0.65879 0.57394 0.0
Li1160 Li 0.52452 0.29212 0.11457 0.0
Li1161 Li 0.49724 0.27271 0.14485 0.0
Li1162 Li 0.54566 0.26348 0.14294 0.0
Li1163 Li 0.51248 0.24305 0.1125 0.0
C1164 C 0.53235 0.32428 0.15556 0.0
N1165 N 0.53859 0.37829 0.16562 0.0
C1166 C 0.51048 0.33879 0.16113 0.0
C1167 C 0.55746 0.33717 0.15541 0.0
C1168 C 0.51403 0.3661 0.16611 0.0
C1169 C 0.56018 0.36451 0.16044 0.0
C1170 C 0.46243 0.27724 0.10447 0.0
C1171 C 0.41646 0.26115 0.10057 0.0
N1172 N 0.40918 0.28556 0.09485 0.0
C1173 C 0.4545 0.3021 0.09835 0.0
C1174 C 0.44329 0.25652 0.10539 0.0
C1175 C 0.42748 0.30593 0.09362 0.0
C1176 C 0.54742 0.31692 0.07683 0.0
N1177 N 0.53113 0.32136 0.09499 0.0
C1178 C 0.52637 0.36591 0.08408 0.0
C1179 C 0.5203 0.3452 0.09864 0.0
C1180 C 0.54386 0.362 0.06572 0.0
C1181 C 0.55426 0.33706 0.06209 0.0
H1182 H 0.55517 0.29766 0.07369 0.0
H1183 H 0.50694 0.34823 0.11279 0.0
C1184 C 0.47509 0.26503 0.18836 0.0
N1185 N 0.47031 0.27681 0.16735 0.0
C1186 C 0.45659 0.26558 0.20593 0.0
C1187 C 0.42872 0.29105 0.18029 0.0
C1188 C 0.44784 0.29005 0.16322 0.0
C1189 C 0.43286 0.2785 0.20194 0.0
H1190 H 0.49331 0.25499 0.19141 0.0
H1191 H 0.44464 0.29987 0.14674 0.0
C1192 C 0.5731 0.25901 0.10327 0.0
N1193 N 0.62614 0.25344 0.09561 0.0
C1194 C 0.5812 0.23572 0.09192 0.0
C1195 C 0.59191 0.27958 0.11042 0.0
C1196 C 0.60813 0.23326 0.08828 0.0
C1197 C 0.61864 0.27636 0.10648 0.0
C1198 C 0.50542 0.21417 0.15199 0.0
C1199 C 0.52287 0.19467 0.15795 0.0
C1200 C 0.478 0.2083 0.15077 0.0
C1201 C 0.51258 0.16942 0.1621 0.0
C1202 C 0.46848 0.18283 0.15507 0.0
N1203 N 0.48582 0.16406 0.16056 0.0
C1204 C 0.58514 0.27301 0.18138 0.0
C1205 C 0.59038 0.23486 0.1558 0.0
C1206 C 0.60743 0.26748 0.19607 0.0
N1207 N 0.57708 0.2567 0.16175 0.0
C1208 C 0.61297 0.22881 0.16972 0.0
C1209 C 0.62167 0.24502 0.19039 0.0
H1210 H 0.57392 0.29002 0.18591 0.0
H1211 H 0.58325 0.22194 0.14036 0.0
C1212 C 0.4847 0.21209 0.07387 0.0
N1213 N 0.50418 0.21211 0.09191 0.0
C1214 C 0.47869 0.18946 0.05857 0.0
C1215 C 0.51332 0.16753 0.08033 0.0
C1216 C 0.51858 0.19054 0.09525 0.0
C1217 C 0.4931 0.16678 0.06171 0.0
H1218 H 0.47404 0.22973 0.07116 0.0
H1219 H 0.53439 0.19132 0.10937 0.0
O1220 O 0.52927 0.29754 0.15068 0.0
O1221 O 0.48882 0.27315 0.10913 0.0
O1222 O 0.54686 0.2617 0.10724 0.0
O1223 O 0.51517 0.23895 0.1477 0.0
H1224 H 0.49094 0.32914 0.16138 0.0
H1225 H 0.57467 0.3262 0.15153 0.0
H1226 H 0.49725 0.3776 0.17029 0.0
H1227 H 0.57947 0.37477 0.16028 0.0
H1228 H 0.40145 0.24531 0.1013 0.0
H1229 H 0.46902 0.31829 0.09735 0.0
H1230 H 0.44907 0.23704 0.10964 0.0
H1231 H 0.42106 0.32511 0.08898 0.0
H1232 H 0.5179 0.38487 0.08742 0.0
H1233 H 0.5674 0.33309 0.04782 0.0
H1234 H 0.46096 0.25612 0.22253 0.0
H1235 H 0.4107 0.30116 0.17634 0.0
H1236 H 0.56689 0.21971 0.08604 0.0
H1237 H 0.5859 0.29781 0.11899 0.0
H1238 H 0.61471 0.2153 0.07964 0.0
H1239 H 0.63343 0.29207 0.11206 0.0
H1240 H 0.54414 0.19892 0.1592 0.0
H1241 H 0.46421 0.22329 0.14672 0.0
H1242 H 0.52586 0.15408 0.16656 0.0
H1243 H 0.4473 0.17801 0.15411 0.0
H1244 H 0.61298 0.28032 0.21203 0.0
H1245 H 0.62341 0.21152 0.16433 0.0
H1246 H 0.46329 0.1899 0.04414 0.0
H1247 H 0.52486 0.15048 0.08344 0.0
C1248 C 0.25515 0.78031 0.85183 0.0
C1249 C 0.26338 0.75426 0.85242 0.0
H1250 H 0.24744 0.81604 0.87167 0.0
C1251 C 0.27229 0.74516 0.87473 0.0
H1252 H 0.24864 0.78824 0.83495 0.0
C1253 C 0.27225 0.76152 0.89597 0.0
C1254 C 0.26322 0.78733 0.8954 0.0
H1255 H 0.27867 0.72519 0.87589 0.0
H1256 H 0.2793 0.7539 0.91283 0.0
C1257 C 0.25484 0.79648 0.87297 0.0
C1258 C 0.02607 0.5431 0.39475 0.0
C1259 C 0.01625 0.52022 0.40491 0.0
H1260 H 0.04969 0.55907 0.36793 0.0
C1261 C 0.02266 0.49538 0.39517 0.0
H1262 H 0.02144 0.56254 0.40186 0.0
C1263 C 0.03884 0.49339 0.37578 0.0
C1264 C 0.04881 0.51624 0.36563 0.0
H1265 H 0.01524 0.47745 0.40264 0.0
H1266 H 0.04331 0.47393 0.36857 0.0
C1267 C 0.04214 0.54112 0.37525 0.0
C1268 C 0.80461 0.75081 0.85031 0.0
C1269 C 0.79541 0.77657 0.85141 0.0
H1270 H 0.81228 0.71606 0.86876 0.0
C1271 C 0.78579 0.78644 0.87318 0.0
H1272 H 0.81177 0.74222 0.83384 0.0
C1273 C 0.78532 0.77099 0.89317 0.0
C1274 C 0.79469 0.74528 0.89208 0.0
H1275 H 0.77884 0.80626 0.87492 0.0
H1276 H 0.77728 0.77916 0.9094 0.0
C1277 C 0.80447 0.73553 0.87035 0.0
C1278 C 0.02882 0.97815 0.3995 0.0
C1279 C 0.04051 1.00002 0.41375 0.0
H1280 H 1.00401 0.96447 0.36813 0.0
C1281 C 0.03557 0.02556 0.40671 0.0
H1282 H 0.03237 0.9582 0.40426 0.0
C1283 C 0.01975 0.02916 0.38577 0.0
C1284 C 0.00821 0.00731 0.37137 0.0
H1285 H 0.04391 0.04289 0.41741 0.0
H1286 H 0.01692 0.04913 0.3807 0.0
C1287 C 0.01285 0.98175 0.37857 0.0
C1288 C 0.25969 0.25027 0.659 0.0
C1289 C 0.26244 0.278 0.65927 0.0
H1290 H 0.26129 0.21336 0.63846 0.0
C1291 C 0.2685 0.28971 0.63789 0.0
H1292 H 0.25541 0.24056 0.6752 0.0
C1293 C 0.27202 0.27412 0.61689 0.0
C1294 C 0.26944 0.24642 0.61668 0.0
H1295 H 0.27026 0.31101 0.63729 0.0
H1296 H 0.27643 0.28381 0.60071 0.0
C1297 C 0.2631 0.23467 0.63795 0.0
C1298 C 0.53284 0.55735 0.6171 0.0
C1299 C 0.53541 0.53405 0.6026 0.0
H1300 H 0.51588 0.57552 0.64786 0.0
C1301 C 0.52254 0.51049 0.60886 0.0
H1302 H 0.54273 0.57579 0.61295 0.0
C1303 C 0.5072 0.51033 0.62892 0.0
C1304 C 0.5045 0.53368 0.64334 0.0
H1305 H 0.52397 0.49224 0.598 0.0
H1306 H 0.49758 0.49183 0.63325 0.0
C1307 C 0.51766 0.55716 0.63726 0.0
C1308 C 0.83464 0.27472 0.64511 0.0
C1309 C 0.81542 0.26723 0.66083 0.0
H1310 H 0.84318 0.29483 0.61368 0.0
C1311 C 0.78952 0.27584 0.65727 0.0
H1312 H 0.85475 0.26826 0.64747 0.0
C1313 C 0.78296 0.29154 0.63821 0.0
C1314 C 0.80206 0.29872 0.6221 0.0
H1315 H 0.77434 0.27062 0.66928 0.0
H1316 H 0.76292 0.29819 0.63625 0.0
C1317 C 0.82802 0.29012 0.62586 0.0
C1318 C 0.52674 0.02057 0.6095 0.0
C1319 C 0.51502 0.99684 0.59837 0.0
H1320 H 0.5515 0.03919 0.63899 0.0
C1321 C 0.51936 0.97313 0.60953 0.0
H1322 H 0.52399 0.03917 0.60136 0.0
C1323 C 0.53553 0.97306 0.63088 0.0
C1324 C 0.5477 0.99671 0.64177 0.0
H1325 H 0.51034 0.95451 0.60168 0.0
H1326 H 0.53892 0.95432 0.63856 0.0
C1327 C 0.54285 0.02052 0.63092 0.0
C1328 C 0.86799 0.24017 0.77297 0.0
C1329 C 0.86012 0.21433 0.7639 0.0
H1330 H 0.89608 0.26512 0.79538 0.0
C1331 C 0.87567 0.19342 0.77062 0.0
H1332 H 0.85619 0.25664 0.76838 0.0
C1333 C 0.8987 0.19828 0.78593 0.0
C1334 C 0.90663 0.22416 0.79501 0.0
H1335 H 0.87027 0.17334 0.76368 0.0
H1336 H 0.91052 0.18178 0.79031 0.0
C1337 C 0.8909 0.24502 0.78839 0.0
C1338 C 0.50091 0.91401 0.4786 0.0
C1339 C 0.5001 0.90808 0.50287 0.0
H1340 H 0.50501 0.89905 0.44222 0.0
C1341 C 0.5031 0.88196 0.50903 0.0
H1342 H 0.49876 0.93402 0.47333 0.0
C1343 C 0.50656 0.86202 0.4913 0.0
C1344 C 0.50733 0.8678 0.46699 0.0
H1345 H 0.50267 0.87692 0.52763 0.0
H1346 H 0.50895 0.84207 0.49667 0.0
C1347 C 0.50464 0.89404 0.46082 0.0
C1348 C 0.17541 0.32282 0.78416 0.0
C1349 C 0.18527 0.30483 0.76725 0.0
H1350 H 0.14903 0.32899 0.81225 0.0
C1351 C 0.17592 0.27822 0.76621 0.0
H1352 H 0.18225 0.34346 0.78528 0.0
C1353 C 0.15693 0.26984 0.78178 0.0
C1354 C 0.14702 0.28788 0.79873 0.0
H1355 H 0.18321 0.26386 0.75341 0.0
H1356 H 0.1502 0.24918 0.78069 0.0
C1357 C 0.15652 0.31447 0.79971 0.0
C1358 C 0.54729 0.61388 0.49192 0.0
C1359 C 0.57351 0.6067 0.49685 0.0
H1360 H 0.52119 0.63728 0.47139 0.0
C1361 C 0.59399 0.61852 0.48467 0.0
H1362 H 0.53102 0.60494 0.50087 0.0
C1363 C 0.58845 0.63735 0.46799 0.0
C1364 C 0.56221 0.64461 0.46293 0.0
H1365 H 0.6144 0.61335 0.4882 0.0
H1366 H 0.60484 0.64648 0.45933 0.0
C1367 C 0.54169 0.63256 0.47508 0.0
C1368 C 0.88458 0.75776 0.7486 0.0
C1369 C 0.87383 0.78166 0.75594 0.0
H1370 H 0.9107 0.73815 0.72559 0.0
C1371 C 0.88239 0.80498 0.74573 0.0
H1372 H 0.87821 0.73949 0.75611 0.0
C1373 C 0.90136 0.80436 0.72849 0.0
C1374 C 0.91206 0.78037 0.72093 0.0
H1375 H 0.87458 0.82377 0.75116 0.0
H1376 H 0.90788 0.82277 0.72133 0.0
C1377 C 0.90334 0.75707 0.73121 0.0
C1378 C 0.08704 0.91397 0.53932 0.0
C1379 C 0.06928 0.92319 0.5217 0.0
H1380 H 0.09289 0.88794 0.56776 0.0
C1381 C 0.04271 0.91318 0.51979 0.0
H1382 H 0.10764 0.92134 0.54113 0.0
C1383 C 0.03418 0.8941 0.53513 0.0
C1384 C 0.05201 0.88473 0.55273 0.0
H1385 H 0.02851 0.91997 0.50643 0.0
H1386 H 0.01357 0.8868 0.53331 0.0
C1387 C 0.07853 0.89499 0.55468 0.0
C1388 C 0.17232 0.74272 0.74239 0.0
C1389 C 0.18362 0.71825 0.73818 0.0
H1390 H 0.14314 0.76924 0.73083 0.0
C1391 C 0.17353 0.70142 0.71844 0.0
H1392 H 0.17978 0.75628 0.75734 0.0
C1393 C 0.15231 0.70878 0.7033 0.0
C1394 C 0.14082 0.7332 0.70758 0.0
H1395 H 0.1819 0.68244 0.71484 0.0
H1396 H 0.1446 0.69512 0.68851 0.0
C1397 C 0.15119 0.75012 0.72724 0.0
C1398 C 1.00199 0.61204 0.5153 0.0
C1399 C 0.97583 0.60128 0.51043 0.0
H1400 H 0.0276 0.64265 0.53362 0.0
C1401 C 0.95508 0.61382 0.52144 0.0
H1402 H 0.01856 0.60279 0.50743 0.0
C1403 C 0.96037 0.63633 0.53708 0.0
C1404 C 0.98653 0.64713 0.5419 0.0
H1405 H 0.93463 0.60638 0.51789 0.0
H1406 H 0.94391 0.64506 0.54558 0.0
C1407 C 0.00725 0.63474 0.53069 0.0
C1408 C 0.80119 0.86685 0.23777 0.0
C1409 C 0.78984 0.86168 0.21414 0.0
H1410 H 0.8275 0.89198 0.26186 0.0
C1411 C 0.79636 0.87905 0.19646 0.0
H1412 H 0.79683 0.85364 0.25172 0.0
C1413 C 0.81377 0.90112 0.20227 0.0
C1414 C 0.82524 0.90631 0.22589 0.0
H1415 H 0.78763 0.87581 0.17816 0.0
H1416 H 0.81791 0.91434 0.18828 0.0
C1417 C 0.81873 0.88887 0.24357 0.0
C1418 C 0.82265 0.1844 0.30813 0.0
C1419 C 0.79559 0.1816 0.30015 0.0
H1420 H 0.86081 0.16759 0.30843 0.0
C1421 C 0.78629 0.15838 0.28644 0.0
H1422 H 0.83052 0.20207 0.31861 0.0
C1423 C 0.80367 0.13885 0.28028 0.0
C1424 C 0.83086 0.14184 0.28778 0.0
H1425 H 0.7655 0.15534 0.28026 0.0
H1426 H 0.7958 0.12164 0.26915 0.0
C1427 C 0.84009 0.16477 0.302 0.0
C1428 C 0.4247 0.99884 0.00685 0.0
C1429 C 0.42243 0.01442 0.98692 0.0
H1430 H 0.40631 0.96862 0.0265 0.0
C1431 C 0.39931 0.01164 0.97138 0.0
H1432 H 0.44242 1.00075 0.01903 0.0
C1433 C 0.37851 0.9938 0.97594 0.0
C1434 C 0.38083 0.97808 0.99578 0.0
H1435 H 0.39719 0.02359 0.95597 0.0
H1436 H 0.36071 0.99207 0.96385 0.0
C1437 C 0.40417 0.98055 0.01108 0.0
C1438 C 0.2437 0.35696 0.31417 0.0
C1439 C 0.25361 0.34055 0.29595 0.0
H1440 H 0.21912 0.38906 0.32271 0.0
C1441 C 0.24433 0.34317 0.27186 0.0
H1442 H 0.25056 0.35566 0.33287 0.0
C1443 C 0.22652 0.36239 0.26605 0.0
C1444 C 0.21729 0.37938 0.28416 0.0
H1445 H 0.25103 0.33046 0.2574 0.0
H1446 H 0.22003 0.36404 0.2473 0.0
C1447 C 0.2257 0.37614 0.30834 0.0
C1448 C 0.13847 0.03504 0.44797 0.0
C1449 C 0.12267 0.02773 0.46662 0.0
H1450 H 0.17218 0.05795 0.43788 0.0
C1451 C 0.13 0.03797 0.49028 0.0
H1452 H 0.13363 0.02727 0.42958 0.0
C1453 C 0.15245 0.05521 0.49513 0.0
C1454 C 0.16808 0.06276 0.47642 0.0
H1455 H 0.11815 0.03301 0.50506 0.0
H1456 H 0.15761 0.06251 0.5136 0.0
C1457 C 0.16082 0.05238 0.45279 0.0
C1458 C 0.7683 0.15563 0.7627 0.0
C1459 C 0.77449 0.16182 0.73935 0.0
H1460 H 0.74535 0.13078 0.78424 0.0
C1461 C 0.76189 0.14666 0.71948 0.0
H1462 H 0.77733 0.16712 0.7784 0.0
C1463 C 0.74345 0.12598 0.72283 0.0
C1464 C 0.73724 0.11984 0.74615 0.0
H1465 H 0.76654 0.15051 0.70127 0.0
H1466 H 0.73435 0.11451 0.70714 0.0
C1467 C 0.74994 0.13483 0.76606 0.0
C1468 C 0.42993 0.04464 0.55962 0.0
C1469 C 0.44755 0.0368 0.54232 0.0
H1470 H 0.39715 0.06803 0.56796 0.0
C1471 C 0.44578 0.04794 0.51979 0.0
H1472 H 0.4306 0.0363 0.57708 0.0
C1473 C 0.42652 0.06605 0.51451 0.0
C1474 C 0.40843 0.07333 0.53158 0.0
H1475 H 0.45922 0.04251 0.50614 0.0
H1476 H 0.42533 0.07376 0.49679 0.0
C1477 C 0.41057 0.06262 0.5543 0.0
C1478 C 0.60742 0.48576 0.52638 0.0
C1479 C 0.60344 0.4946 0.55028 0.0
H1480 H 0.6301 0.46254 0.50272 0.0
C1481 C 0.61891 0.48433 0.56908 0.0
H1482 H 0.59556 0.49278 0.51141 0.0
C1483 C 0.63834 0.46641 0.56409 0.0
C1484 C 0.64308 0.45841 0.54016 0.0
H1485 H 0.61662 0.49074 0.58769 0.0
H1486 H 0.6499 0.45907 0.57909 0.0
C1487 C 0.62702 0.46802 0.52138 0.0
C1488 C 0.78401 0.26035 0.36944 0.0
C1489 C 0.76026 0.25284 0.35554 0.0
H1490 H 0.80219 0.28183 0.40117 0.0
C1491 C 0.73603 0.26056 0.36427 0.0
H1492 H 0.80303 0.25497 0.36324 0.0
C1493 C 0.73561 0.27622 0.38573 0.0
C1494 C 0.75935 0.28427 0.39929 0.0
H1495 H 0.71726 0.25457 0.35446 0.0
H1496 H 0.71663 0.28198 0.39179 0.0
C1497 C 0.78354 0.27582 0.39113 0.0
C1498 C 0.53308 0.03874 0.90163 0.0
C1499 C 0.50634 0.02964 0.89724 0.0
H1500 H 0.57143 0.04304 0.88751 0.0
C1501 C 0.49783 0.01754 0.87453 0.0
H1502 H 0.54028 0.04811 0.91898 0.0
C1503 C 0.51568 0.01469 0.85648 0.0
C1504 C 0.54247 0.02368 0.86088 0.0
H1505 H 0.47734 0.0103 0.87074 0.0
H1506 H 0.50861 0.00507 0.8392 0.0
C1507 C 0.55097 0.03571 0.88366 0.0
C1508 C 0.29948 0.24616 0.34718 0.0
C1509 C 0.29333 0.27291 0.34874 0.0
H1510 H 0.30437 0.21075 0.36559 0.0
C1511 C 0.28739 0.28447 0.37121 0.0
H1512 H 0.30374 0.23651 0.33008 0.0
C1513 C 0.28794 0.26972 0.39167 0.0
C1514 C 0.29431 0.24299 0.39017 0.0
H1515 H 0.28292 0.30512 0.3731 0.0
H1516 H 0.28385 0.27946 0.40877 0.0
C1517 C 0.29992 0.23139 0.3676 0.0
C1518 C 0.5269 0.47969 0.89934 0.0
C1519 C 0.53785 0.50186 0.91363 0.0
H1520 H 0.50316 0.46533 0.86751 0.0
C1521 C 0.53281 0.52722 0.90618 0.0
H1522 H 0.53059 0.45988 0.90444 0.0
C1523 C 0.51735 0.53034 0.8849 0.0
C1524 C 0.5065 0.5082 0.87052 0.0
H1525 H 0.54068 0.54472 0.91689 0.0
H1526 H 0.51419 0.55017 0.87957 0.0
C1527 C 0.51144 0.48282 0.87802 0.0
C1528 C 0.76797 0.79464 0.13695 0.0
C1529 C 0.75924 0.78351 0.15779 0.0
H1530 H 0.77956 0.78795 0.10094 0.0
C1531 C 0.75419 0.75597 0.15718 0.0
H1532 H 0.77163 0.81579 0.13649 0.0
C1533 C 0.758 0.74002 0.13646 0.0
C1534 C 0.76734 0.75107 0.1158 0.0
H1535 H 0.74774 0.74655 0.17288 0.0
H1536 H 0.75354 0.71896 0.13669 0.0
C1537 C 0.77213 0.77864 0.11632 0.0
C1538 C 0.03512 0.05515 0.11927 0.0
C1539 C 0.03666 0.03186 0.1045 0.0
H1540 H 0.01913 0.07362 0.15041 0.0
C1541 C 0.02295 0.00867 0.11056 0.0
H1542 H 0.04561 0.07328 0.11516 0.0
C1543 C 0.00766 0.0089 0.13068 0.0
C1544 C 1.006 0.03224 0.14537 0.0
H1545 H 0.02361 0.99047 0.09946 0.0
H1546 H 0.99723 0.99075 0.13482 0.0
C1547 C 0.02011 0.0553 0.13955 0.0
C1548 C 0.33237 0.77052 0.14216 0.0
C1549 C 0.31296 0.76306 0.1577 0.0
H1550 H 0.34127 0.7905 0.11075 0.0
C1551 C 0.287 0.77137 0.1537 0.0
H1552 H 0.35252 0.76427 0.14483 0.0
C1553 C 0.28059 0.78686 0.13444 0.0
C1554 C 0.29994 0.79415 0.1186 0.0
H1555 H 0.27166 0.76611 0.16554 0.0
H1556 H 0.26052 0.79335 0.13215 0.0
C1557 C 0.32592 0.78573 0.12273 0.0
C1558 C 0.02217 0.51973 0.10944 0.0
C1559 C 0.01064 0.49614 0.09789 0.0
H1560 H 0.04704 0.53778 0.13919 0.0
C1561 C 0.01483 0.4722 0.10867 0.0
H1562 H 0.01946 0.53846 0.10153 0.0
C1563 C 0.03073 0.47177 0.13016 0.0
C1564 C 0.04297 0.49526 0.14132 0.0
H1565 H 1.006 0.45371 0.10034 0.0
H1566 H 0.03405 0.45293 0.13766 0.0
C1567 C 0.03822 0.51928 0.13086 0.0
C1568 C 0.38242 0.71927 0.25204 0.0
C1569 C 0.35827 0.71048 0.26097 0.0
H1570 H 0.42359 0.73099 0.26007 0.0
C1571 C 0.35775 0.70663 0.28575 0.0
H1572 H 0.3838 0.72197 0.23302 0.0
C1573 C 0.38073 0.71137 0.30114 0.0
C1574 C 0.40468 0.72041 0.29219 0.0
H1575 H 0.33947 0.70036 0.29341 0.0
H1576 H 0.37964 0.70846 0.32017 0.0
C1577 C 0.40529 0.72435 0.2675 0.0
C1578 C 0.9944 0.41183 0.97983 0.0
C1579 C 0.01683 0.42159 0.99456 0.0
H1580 H 0.97844 0.38274 0.9525 0.0
C1581 C 0.04087 0.40908 0.99277 0.0
H1582 H 0.97556 0.42105 0.98081 0.0
C1583 C 0.04251 0.38717 0.9766 0.0
C1584 C 0.02008 0.37719 0.96195 0.0
H1585 H 0.05841 0.41618 1.00402 0.0
H1586 H 0.06126 0.37771 0.97592 0.0
C1587 C 0.996 0.3898 0.96371 0.0
C1588 C 0.67112 0.78328 0.26289 0.0
C1589 C 0.68268 0.8091 0.26653 0.0
H1590 H 0.64336 0.75432 0.27477 0.0
C1591 C 0.67472 0.82571 0.2855 0.0
H1592 H 0.67689 0.76997 0.24845 0.0
C1593 C 0.65553 0.81679 0.30056 0.0
C1594 C 0.64379 0.79102 0.29694 0.0
H1595 H 0.68329 0.84571 0.28867 0.0
H1596 H 0.64956 0.83028 0.31479 0.0
C1597 C 0.65181 0.77436 0.27791 0.0
C1598 C 0.05281 0.11879 0.99921 0.0
C1599 C 0.0608 0.09435 0.98978 0.0
H1600 H 0.04311 0.15829 0.99199 0.0
C1601 C 0.06578 0.09141 0.9653 0.0
H1602 H 0.04882 0.12166 0.01803 0.0
C1603 C 0.06267 0.11238 0.95041 0.0
C1604 C 0.05451 0.13683 0.9597 0.0
H1605 H 0.0721 0.0728 0.95761 0.0
H1606 H 0.06692 0.10948 0.93165 0.0
C1607 C 0.04971 0.13982 0.98431 0.0
C1608 C 0.38808 0.25623 0.25004 0.0
C1609 C 0.37372 0.27875 0.25461 0.0
H1610 H 0.41756 0.23824 0.22955 0.0
C1611 C 0.37901 0.30133 0.24195 0.0
H1612 H 0.38432 0.23854 0.25951 0.0
C1613 C 0.39823 0.30131 0.22495 0.0
C1614 C 0.41254 0.27868 0.22019 0.0
H1615 H 0.36837 0.31909 0.24517 0.0
H1616 H 0.40207 0.31914 0.21574 0.0
C1617 C 0.40723 0.25615 0.23298 0.0
C1618 C 0.53983 0.419 0.02467 0.0
C1619 C 0.56669 0.42357 0.02011 0.0
H1620 H 0.51152 0.39594 0.04292 0.0
C1621 C 0.5859 0.40836 0.03113 0.0
H1622 H 0.5246 0.43055 0.0165 0.0
C1623 C 0.57844 0.38854 0.04604 0.0
C1624 C 0.55159 0.38372 0.05049 0.0
H1625 H 0.60675 0.41159 0.028 0.0
H1626 H 0.59371 0.37702 0.0542 0.0
C1627 C 0.53236 0.39933 0.03987 0.0
C1628 C 0.67101 0.20481 0.2251 0.0
C1629 C 0.68789 0.22462 0.23742 0.0
H1630 H 0.63647 0.19558 0.20133 0.0
C1631 C 0.6834 0.25123 0.23387 0.0
H1632 H 0.67402 0.18415 0.22765 0.0
C1633 C 0.6622 0.25787 0.21834 0.0
C1634 C 0.64486 0.23805 0.20628 0.0
H1635 H 0.69629 0.26693 0.243 0.0
H1636 H 0.65953 0.27856 0.21573 0.0
C1637 C 0.6496 0.21142 0.20987 0.0
C1638 C 0.50281 0.10612 0.02058 0.0
C1639 C 0.47643 0.09745 0.01347 0.0
H1640 H 0.52876 0.13486 0.04129 0.0
C1641 C 0.45557 0.11148 0.02266 0.0
H1642 H 0.51929 0.09559 0.01396 0.0
C1643 C 0.46098 0.13388 0.0384 0.0
C1644 C 0.48736 0.14267 0.04539 0.0
H1645 H 0.43504 0.10544 0.01733 0.0
H1646 H 0.44448 0.14426 0.04519 0.0
C1647 C 0.50822 0.12845 0.03642 0.0
C1648 C 0.29856 0.37393 0.69645 0.0
C1649 C 0.2918 0.35727 0.71462 0.0
H1650 H 0.32001 0.409 0.68748 0.0
C1651 C 0.30236 0.36369 0.73836 0.0
H1652 H 0.29043 0.36981 0.67805 0.0
C1653 C 0.31931 0.38621 0.74378 0.0
C1654 C 0.32613 0.40282 0.72558 0.0
H1655 H 0.29786 0.35109 0.75273 0.0
H1656 H 0.32743 0.39037 0.76218 0.0
C1657 C 0.31553 0.39641 0.70185 0.0
C1658 C 0.30636 0.6796 0.7728 0.0
C1659 C 0.29923 0.68368 0.79673 0.0
H1660 H 0.32897 0.65764 0.74802 0.0
C1661 C 0.31126 0.66876 0.8145 0.0
H1662 H 0.29808 0.69115 0.7587 0.0
C1663 C 0.32931 0.64975 0.80835 0.0
C1664 C 0.33562 0.64509 0.78428 0.0
H1665 H 0.30609 0.67114 0.83304 0.0
H1666 H 0.33765 0.63808 0.82233 0.0
C1667 C 0.32417 0.66045 0.76664 0.0
C1668 C 0.89882 0.52467 0.49625 0.0
C1669 C 0.92278 0.5159 0.48788 0.0
H1670 H 0.86 0.51411 0.50697 0.0
C1671 C 0.92547 0.48858 0.48377 0.0
H1672 H 0.89592 0.54557 0.49935 0.0
C1673 C 0.90463 0.4705 0.48773 0.0
C1674 C 0.88061 0.4793 0.49597 0.0
H1675 H 0.94375 0.4811 0.47758 0.0
H1676 H 0.90722 0.44963 0.48397 0.0
C1677 C 0.87805 0.50661 0.50031 0.0
C1678 C 0.74486 0.84585 0.77512 0.0
C1679 C 0.75542 0.8444 0.79897 0.0
H1680 H 0.71923 0.86549 0.75074 0.0
C1681 C 0.74682 0.86187 0.81704 0.0
H1682 H 0.75074 0.83234 0.76085 0.0
C1683 C 0.72886 0.88107 0.81121 0.0
C1684 C 0.71898 0.8831 0.78719 0.0
H1685 H 0.75476 0.86139 0.83554 0.0
H1686 H 0.7235 0.8949 0.82543 0.0
C1687 C 0.72686 0.86491 0.76931 0.0
C1688 C 0.6372 0.53294 0.95159 0.0
C1689 C 0.61811 0.53006 0.96864 0.0
H1690 H 0.67445 0.55142 0.94357 0.0
C1691 C 0.62222 0.54409 0.99121 0.0
H1692 H 0.63454 0.52221 0.93411 0.0
C1693 C 0.64486 0.56097 0.99653 0.0
C1694 C 0.66402 0.56376 0.97952 0.0
H1695 H 0.60772 0.54228 1.00461 0.0
H1696 H 0.64752 0.57167 0.01402 0.0
C1697 C 0.66006 0.54947 0.95706 0.0
C1698 C 0.25992 0.64276 0.21672 0.0
C1699 C 0.27238 0.65806 0.23657 0.0
H1700 H 0.23257 0.61046 0.20443 0.0
C1701 C 0.26612 0.652 0.25992 0.0
H1702 H 0.26464 0.64654 0.19851 0.0
C1703 C 0.24776 0.63122 0.26332 0.0
C1704 C 0.23518 0.61606 0.24344 0.0
H1705 H 0.27508 0.6636 0.27559 0.0
H1706 H 0.24307 0.62731 0.28151 0.0
C1707 C 0.24154 0.62205 0.22011 0.0
C1708 C 0.92156 0.5377 0.0555 0.0
C1709 C 0.94349 0.53538 0.04137 0.0
H1710 H 0.88474 0.55611 0.06052 0.0
C1711 C 0.94559 0.55119 0.02165 0.0
H1712 H 0.91943 0.52561 0.0707 0.0
C1713 C 0.92603 0.56888 0.01606 0.0
C1714 C 0.90371 0.57065 0.02977 0.0
H1715 H 0.96235 0.54978 0.01052 0.0
H1716 H 0.92799 0.58068 1.00065 0.0
C1717 C 0.9017 0.55497 0.04959 0.0
C1718 C 0.11988 0.98225 0.06969 0.0
C1719 C 0.10355 0.99189 0.05113 0.0
H1720 H 0.15191 0.95795 0.07914 0.0
C1721 C 0.10696 0.98286 0.02718 0.0
H1722 H 0.11799 0.9888 0.08833 0.0
C1723 C 0.1269 0.96567 0.02183 0.0
C1724 C 0.14385 0.9567 0.0403 0.0
H1725 H 0.09444 0.9894 0.01241 0.0
H1726 H 0.1295 0.96013 1.00308 0.0
C1727 C 0.13967 0.96481 0.06435 0.0
loop_
_geom_bond_atom_site_label_1
_geom_bond_atom_site_label_2
_geom_bond_distance
_geom_bond_site_symmetry_2
_ccdc_geom_bond_type
H0 C5 0.930 . S
H1 C8 0.930 . S
H2 C10 0.930 . S
H3 C4 1.016 . S
C4 H3 1.016 . S
C4 N11 1.286 1_556 S
C5 H0 0.930 . S
C5 C6 1.397 . S
C5 C7 1.361 . S
C6 C5 1.397 . S
C6 C10 1.390 . S
C7 C5 1.361 . S
C7 C8 1.393 . S
C7 N11 1.413 . S
C8 H1 0.930 . S
C8 C7 1.393 . S
C8 C9 1.399 . S
C9 C8 1.399 . S
C9 C10 1.381 . S
C10 H2 0.930 . S
C10 C6 1.390 . S
C10 C9 1.381 . S
N11 C4 1.286 1_554 S
N11 C7 1.413 . S
H12 C17 0.930 . S
H13 C20 0.930 . S
H14 C22 0.930 . S
H15 C16 1.016 . S
C16 H15 1.016 . S
C16 N23 1.286 . S
C17 H12 0.930 . S
C17 C18 1.397 . S
C17 C19 1.361 . S
C18 C17 1.397 . S
C18 C22 1.390 . S
C19 C17 1.361 . S
C19 C20 1.393 . S
C19 N23 1.413 . S
C20 H13 0.930 . S
C20 C19 1.393 . S
C20 C21 1.399 . S
C21 C20 1.399 . S
C21 C22 1.381 . S
C22 H14 0.930 . S
C22 C18 1.390 . S
C22 C21 1.381 . S
N23 C16 1.286 . S
N23 C19 1.413 . S
H24 C29 0.930 . S
H25 C32 0.930 1_455 S
H26 C34 0.930 . S
H27 C28 1.016 1_454 S
C28 H27 1.016 1_656 S
C28 N35 1.286 1_556 S
C29 H24 0.930 . S
C29 C30 1.397 . S
C29 C31 1.361 . S
C30 C29 1.397 . S
C30 C34 1.390 . S
C31 C29 1.361 . S
C31 C32 1.393 . S
C31 N35 1.413 . S
C32 H25 0.930 1_655 S
C32 C31 1.393 . S
C32 C33 1.399 . S
C33 C32 1.399 . S
C33 C34 1.381 . S
C34 H26 0.930 . S
C34 C30 1.390 . S
C34 C33 1.381 . S
N35 C28 1.286 1_554 S
N35 C31 1.413 . S
H36 C41 0.930 . S
H37 C44 0.930 . S
H38 C46 0.930 . S
H39 C40 1.016 . S
C40 H39 1.016 . S
C40 N47 1.286 . S
C41 H36 0.930 . S
C41 C42 1.397 . S
C41 C43 1.361 . S
C42 C41 1.397 . S
C42 C46 1.390 . S
C43 C41 1.361 . S
C43 C44 1.393 . S
C43 N47 1.413 . S
C44 H37 0.930 . S
C44 C43 1.393 . S
C44 C45 1.399 . S
C45 C44 1.399 . S
C45 C46 1.381 . S
C46 H38 0.930 . S
C46 C42 1.390 . S
C46 C45 1.381 . S
N47 C40 1.286 . S
N47 C43 1.413 . S
H48 C53 0.930 . S
H49 C56 0.930 . S
H50 C58 0.930 . S
H51 C52 1.016 . S
C52 H51 1.016 . S
C52 N59 1.286 . S
C53 H48 0.930 . S
C53 C54 1.397 . S
C53 C55 1.361 . S
C54 C53 1.397 . S
C54 C58 1.390 1_565 S
C55 C53 1.361 . S
C55 C56 1.393 . S
C55 N59 1.413 . S
C56 H49 0.930 . S
C56 C55 1.393 . S
C56 C57 1.399 1_565 S
C57 C56 1.399 1_545 S
C57 C58 1.381 . S
C58 H50 0.930 . S
C58 C54 1.390 1_545 S
C58 C57 1.381 . S
N59 C52 1.286 . S
N59 C55 1.413 . S
H60 C65 0.930 . S
H61 C68 0.930 . S
H62 C70 0.930 . S
H63 C64 1.016 . S
C64 H63 1.016 . S
C64 N71 1.286 . S
C65 H60 0.930 . S
C65 C66 1.397 . S
C65 C67 1.361 . S
C66 C65 1.397 . S
C66 C70 1.390 . S
C67 C65 1.361 . S
C67 C68 1.393 . S
C67 N71 1.413 . S
C68 H61 0.930 . S
C68 C67 1.393 . S
C68 C69 1.399 . S
C69 C68 1.399 . S
C69 C70 1.381 . S
C70 H62 0.930 . S
C70 C66 1.390 . S
C70 C69 1.381 . S
N71 C64 1.286 . S
N71 C67 1.413 . S
H72 C77 0.941 . S
H73 C80 0.930 . S
H74 C82 0.930 . S
H75 C76 1.016 . S
C76 H75 1.016 . S
C76 N83 1.286 . S
C77 H72 0.941 . S
C77 C78 1.387 1_455 S
C77 C79 1.360 1_455 S
C78 C77 1.387 1_655 S
C78 C82 1.390 . S
C79 C77 1.360 1_655 S
C79 C80 1.393 . S
C79 N83 1.413 1_655 S
C80 H73 0.930 . S
C80 C79 1.393 . S
C80 C81 1.399 . S
C81 C80 1.399 . S
C81 C82 1.381 . S
C82 H74 0.930 . S
C82 C78 1.390 . S
C82 C81 1.381 . S
N83 C76 1.286 . S
N83 C79 1.413 1_455 S
H84 C89 0.930 . S
H85 C92 0.930 . S
H86 C94 0.930 . S
H87 C88 1.016 . S
C88 H87 1.016 . S
C88 N95 1.286 . S
C89 H84 0.930 . S
C89 C90 1.397 . S
C89 C91 1.361 . S
C90 C89 1.397 . S
C90 C94 1.390 . S
C91 C89 1.361 . S
C91 C92 1.393 . S
C91 N95 1.413 . S
C92 H85 0.930 . S
C92 C91 1.393 . S
C92 C93 1.399 . S
C93 C92 1.399 . S
C93 C94 1.381 . S
C94 H86 0.930 . S
C94 C90 1.390 . S
C94 C93 1.381 . S
N95 C88 1.286 . S
N95 C91 1.413 . S
H96 C101 0.930 . S
H97 C104 0.930 . S
H98 C106 0.930 . S
H99 C100 1.016 . S
C100 H99 1.016 . S
C100 N107 1.286 . S
C101 H96 0.930 . S
C101 C102 1.397 . S
C101 C103 1.361 . S
C102 C101 1.397 . S
C102 C106 1.390 . S
C103 C101 1.361 . S
C103 C104 1.393 . S
C103 N107 1.413 . S
C104 H97 0.930 . S
C104 C103 1.393 . S
C104 C105 1.399 . S
C105 C104 1.399 . S
C105 C106 1.381 . S
C106 H98 0.930 . S
C106 C102 1.390 . S
C106 C105 1.381 . S
N107 C100 1.286 . S
N107 C103 1.413 . S
H108 C113 0.930 . S
H109 C116 0.930 . S
H110 C118 0.930 . S
H111 C112 1.016 . S
C112 H111 1.016 . S
C112 N119 1.286 . S
C113 H108 0.930 . S
C113 C114 1.397 1_565 S
C113 C115 1.361 . S
C114 C113 1.397 1_545 S
C114 C118 1.390 . S
C115 C113 1.361 . S
C115 C116 1.393 . S
C115 N119 1.413 . S
C116 H109 0.930 . S
C116 C115 1.393 . S
C116 C117 1.399 . S
C117 C116 1.399 . S
C117 C118 1.381 1_565 S
C118 H110 0.930 . S
C118 C114 1.390 . S
C118 C117 1.381 1_545 S
N119 C112 1.286 . S
N119 C115 1.413 . S
H120 C125 0.930 . S
H121 C128 0.930 . S
H122 C130 0.930 . S
H123 C124 1.016 . S
C124 H123 1.016 . S
C124 N131 1.286 . S
C125 H120 0.930 . S
C125 C126 1.397 . S
C125 C127 1.361 . S
C126 C125 1.397 . S
C126 C130 1.390 . S
C127 C125 1.361 . S
C127 C128 1.393 . S
C127 N131 1.413 . S
C128 H121 0.930 . S
C128 C127 1.393 . S
C128 C129 1.399 . S
C129 C128 1.399 . S
C129 C130 1.381 . S
C130 H122 0.930 . S
C130 C126 1.390 . S
C130 C129 1.381 . S
N131 C124 1.286 . S
N131 C127 1.413 . S
H132 C137 0.930 . S
H133 C140 0.930 . S
H134 C142 0.930 . S
H135 C136 1.016 . S
C136 H135 1.016 . S
C136 N143 1.286 . S
C137 H132 0.930 . S
C137 C138 1.397 . S
C137 C139 1.361 . S
C138 C137 1.397 . S
C138 C142 1.390 . S
C139 C137 1.361 . S
C139 C140 1.393 . S
C139 N143 1.413 . S
C140 H133 0.930 . S
C140 C139 1.393 . S
C140 C141 1.399 . S
C141 C140 1.399 . S
C141 C142 1.381 . S
C142 H134 0.930 . S
C142 C138 1.390 . S
C142 C141 1.381 . S
N143 C136 1.286 . S
N143 C139 1.413 . S
H144 C149 0.930 . S
H145 C152 0.930 . S
H146 C154 0.930 . S
H147 C148 1.016 . S
C148 H147 1.016 . S
C148 N155 1.286 . S
C149 H144 0.930 . S
C149 C150 1.397 . S
C149 C151 1.361 . S
C150 C149 1.397 . S
C150 C154 1.390 . S
C151 C149 1.361 . S
C151 C152 1.393 . S
C151 N155 1.413 . S
C152 H145 0.930 . S
C152 C151 1.393 . S
C152 C153 1.399 . S
C153 C152 1.399 . S
C153 C154 1.381 . S
C154 H146 0.930 . S
C154 C150 1.390 . S
C154 C153 1.381 . S
N155 C148 1.286 . S
N155 C151 1.413 . S
H156 C161 0.930 . S
H157 C164 0.930 1_554 S
H158 C166 0.930 . S
H159 C160 1.016 . S
C160 H159 1.016 . S
C160 N167 1.286 1_554 S
C161 H156 0.930 . S
C161 C162 1.397 . S
C161 C163 1.361 . S
C162 C161 1.397 . S
C162 C166 1.390 . S
C163 C161 1.361 . S
C163 C164 1.393 . S
C163 N167 1.413 . S
C164 H157 0.930 1_556 S
C164 C163 1.393 . S
C164 C165 1.399 . S
C165 C164 1.399 . S
C165 C166 1.381 . S
C166 H158 0.930 . S
C166 C162 1.390 . S
C166 C165 1.381 . S
N167 C160 1.286 1_556 S
N167 C163 1.413 . S
H168 C173 0.930 . S
H169 C176 0.930 . S
H170 C178 0.930 . S
H171 C172 1.016 . S
C172 H171 1.016 . S
C172 N179 1.286 . S
C173 H168 0.930 . S
C173 C174 1.397 . S
C173 C175 1.361 . S
C174 C173 1.397 . S
C174 C178 1.390 . S
C175 C173 1.361 . S
C175 C176 1.393 . S
C175 N179 1.413 . S
C176 H169 0.930 . S
C176 C175 1.393 . S
C176 C177 1.399 . S
C177 C176 1.399 . S
C177 C178 1.381 . S
C178 H170 0.930 . S
C178 C174 1.390 . S
C178 C177 1.381 . S
N179 C172 1.286 . S
N179 C175 1.413 . S
H180 C185 0.930 . S
H181 C188 0.930 . S
H182 C190 0.930 1_554 S
H183 C184 1.016 1_565 S
C184 H183 1.016 1_545 S
C184 N191 1.286 . S
C185 H180 0.930 . S
C185 C186 1.397 . S
C185 C187 1.361 . S
C186 C185 1.397 . S
C186 C190 1.390 . S
C187 C185 1.361 . S
C187 C188 1.393 . S
C187 N191 1.413 . S
C188 H181 0.930 . S
C188 C187 1.393 . S
C188 C189 1.399 . S
C189 C188 1.399 . S
C189 C190 1.381 . S
C190 H182 0.930 1_556 S
C190 C186 1.390 . S
C190 C189 1.381 . S
N191 C184 1.286 . S
N191 C187 1.413 . S
Li192 N209 1.990 . S
Li192 O252 1.956 . S
Li192 O253 1.970 . S
Li192 O254 1.961 1_554 S
Li193 N217 1.990 . S
Li193 O252 1.970 . S
Li193 O253 1.956 . S
Li193 O255 1.961 . S
Li194 N239 1.990 . S
Li194 O252 1.961 1_556 S
Li194 O254 1.956 . S
Li194 O255 1.970 1_556 S
Li195 N245 1.990 . S
Li195 O253 1.961 . S
Li195 O254 1.970 1_554 S
Li195 O255 1.956 . S
C196 C198 1.348 . S
C196 C199 1.356 1_554 S
C196 O252 1.325 . S
N197 C200 1.280 1_556 S
N197 C201 1.308 . S
C198 C196 1.348 . S
C198 C200 1.353 . S
C198 H256 0.929 . S
C199 C196 1.356 1_556 S
C199 C201 1.358 . S
C199 H257 0.930 . S
C200 N197 1.280 1_554 S
C200 C198 1.353 . S
C200 H258 0.930 . S
C201 N197 1.308 . S
C201 C199 1.358 . S
C201 H259 0.930 . S
C202 C205 1.348 . S
C202 C206 1.356 . S
C202 O253 1.325 . S
C203 N204 1.279 . S
C203 C206 1.358 . S
C203 H260 0.930 . S
N204 C203 1.279 . S
N204 C207 1.314 . S
C205 C202 1.348 . S
C205 C207 1.353 . S
C205 H261 0.929 . S
C206 C202 1.356 . S
C206 C203 1.358 . S
C206 H262 0.930 . S
C207 N204 1.314 . S
C207 C205 1.353 . S
C207 H263 0.930 . S
C208 N209 1.316 . S
C208 C213 1.352 1_554 S
C208 H214 0.929 1_554 S
N209 Li192 1.990 . S
N209 C208 1.316 . S
N209 C211 1.279 . S
C210 C211 1.358 . S
C210 C212 1.356 . S
C210 H264 0.930 . S
C211 N209 1.279 . S
C211 C210 1.358 . S
C211 H215 0.930 . S
C212 C210 1.356 . S
C212 C213 1.348 1_554 S
C213 C208 1.352 1_556 S
C213 C212 1.348 1_556 S
C213 H265 0.929 . S
H214 C208 0.929 1_556 S
H215 C211 0.930 . S
C216 N217 1.314 . S
C216 C218 1.353 . S
C216 H222 0.930 . S
N217 Li193 1.990 . S
N217 C216 1.314 . S
N217 C220 1.279 . S
C218 C216 1.353 . S
C218 C221 1.348 . S
C218 H266 0.929 . S
C219 C220 1.358 . S
C219 C221 1.356 . S
C219 H267 0.930 . S
C220 N217 1.279 . S
C220 C219 1.358 . S
C220 H223 0.930 . S
C221 C218 1.348 . S
C221 C219 1.356 . S
H222 C216 0.930 . S
H223 C220 0.930 . S
C224 C226 1.348 . S
C224 C227 1.356 . S
C224 O254 1.325 . S
N225 C228 1.314 . S
N225 C229 1.279 . S
C226 C224 1.348 . S
C226 C228 1.353 . S
C226 H268 0.929 . S
C227 C224 1.356 . S
C227 C229 1.358 . S
C227 H269 0.930 . S
C228 N225 1.314 . S
C228 C226 1.353 . S
C228 H270 0.930 . S
C229 N225 1.279 . S
C229 C227 1.358 . S
C229 H271 0.930 . S
C230 C231 1.348 1_554 S
C230 C232 1.356 . S
C230 O255 1.325 . S
C231 C230 1.348 1_556 S
C231 C233 1.353 . S
C231 H272 0.929 . S
C232 C230 1.356 . S
C232 C234 1.358 . S
C232 H273 0.930 . S
C233 C231 1.353 . S
C233 N235 1.314 1_556 S
C233 H274 0.930 . S
C234 C232 1.358 . S
C234 N235 1.279 . S
C234 H275 0.930 . S
N235 C233 1.314 1_554 S
N235 C234 1.279 . S
C236 C238 1.353 . S
C236 N239 1.314 . S
C236 H242 0.930 . S
C237 N239 1.279 . S
C237 C240 1.358 . S
C237 H243 0.930 . S
C238 C236 1.353 . S
C238 C241 1.348 . S
C238 H276 0.929 . S
N239 Li194 1.990 . S
N239 C236 1.314 . S
N239 C237 1.279 . S
C240 C237 1.358 . S
C240 C241 1.356 . S
C240 H277 0.930 . S
C241 C238 1.348 . S
C241 C240 1.356 . S
H242 C236 0.930 . S
H243 C237 0.930 . S
C244 N245 1.314 . S
C244 C246 1.353 . S
C244 H250 0.930 . S
N245 Li195 1.990 . S
N245 C244 1.314 . S
N245 C248 1.279 . S
C246 C244 1.353 . S
C246 C249 1.348 . S
C246 H278 0.929 . S
C247 C248 1.358 . S
C247 C249 1.356 . S
C247 H279 0.930 . S
C248 N245 1.279 . S
C248 C247 1.358 . S
C248 H251 0.930 . S
C249 C246 1.348 . S
C249 C247 1.356 . S
H250 C244 0.930 . S
H251 C248 0.930 . S
O252 Li192 1.956 . S
O252 Li193 1.970 . S
O252 Li194 1.961 1_554 S
O252 C196 1.325 . S
O253 Li192 1.970 . S
O253 Li193 1.956 . S
O253 Li195 1.961 . S
O253 C202 1.325 . S
O254 Li192 1.961 1_556 S
O254 Li194 1.956 . S
O254 Li195 1.970 1_556 S
O254 C224 1.325 . S
O255 Li193 1.961 . S
O255 Li194 1.970 1_554 S
O255 Li195 1.956 . S
O255 C230 1.325 . S
H256 C198 0.929 . S
H257 C199 0.930 . S
H258 C200 0.930 . S
H259 C201 0.930 . S
H260 C203 0.930 . S
H261 C205 0.929 . S
H262 C206 0.930 . S
H263 C207 0.930 . S
H264 C210 0.930 . S
H265 C213 0.929 . S
H266 C218 0.929 . S
H267 C219 0.930 . S
H268 C226 0.929 . S
H269 C227 0.930 . S
H270 C228 0.930 . S
H271 C229 0.930 . S
H272 C231 0.929 . S
H273 C232 0.930 . S
H274 C233 0.930 . S
H275 C234 0.930 . S
H276 C238 0.929 . S
H277 C240 0.930 . S
H278 C246 0.929 . S
H279 C247 0.930 . S
Li280 N297 1.990 . S
Li280 O340 1.956 . S
Li280 O341 1.970 . S
Li280 O342 1.961 . S
Li281 N305 1.990 . S
Li281 O340 1.970 . S
Li281 O341 1.956 . S
Li281 O343 1.961 . S
Li282 N327 1.990 . S
Li282 O340 1.961 . S
Li282 O342 1.956 . S
Li282 O343 1.970 . S
Li283 N333 1.990 . S
Li283 O341 1.961 . S
Li283 O342 1.970 . S
Li283 O343 1.956 . S
C284 C286 1.348 . S
C284 C287 1.356 . S
C284 O340 1.325 . S
N285 C288 1.314 . S
N285 C289 1.279 . S
C286 C284 1.348 . S
C286 C288 1.353 . S
C286 H344 0.929 . S
C287 C284 1.356 . S
C287 C289 1.358 . S
C287 H345 0.930 . S
C288 N285 1.314 . S
C288 C286 1.353 . S
C288 H346 0.930 . S
C289 N285 1.279 . S
C289 C287 1.358 . S
C289 H347 0.930 . S
C290 C293 1.348 . S
C290 C294 1.356 . S
C290 O341 1.325 . S
C291 N292 1.279 . S
C291 C294 1.358 . S
C291 H348 0.930 . S
N292 C291 1.279 . S
N292 C295 1.314 . S
C293 C290 1.348 . S
C293 C295 1.353 . S
C293 H349 0.929 . S
C294 C290 1.356 . S
C294 C291 1.358 . S
C294 H350 0.930 . S
C295 N292 1.314 . S
C295 C293 1.353 . S
C295 H351 0.930 . S
C296 N297 1.314 . S
C296 C301 1.353 . S
C296 H302 0.930 . S
N297 Li280 1.990 . S
N297 C296 1.314 . S
N297 C299 1.279 . S
C298 C299 1.358 . S
C298 C300 1.356 . S
C298 H352 0.930 . S
C299 N297 1.279 . S
C299 C298 1.358 . S
C299 H303 0.930 . S
C300 C298 1.356 . S
C300 C301 1.348 . S
C301 C296 1.353 . S
C301 C300 1.348 . S
C301 H353 0.929 . S
H302 C296 0.930 . S
H303 C299 0.930 . S
C304 N305 1.314 . S
C304 C306 1.353 . S
C304 H310 0.930 . S
N305 Li281 1.990 . S
N305 C304 1.314 . S
N305 C308 1.279 . S
C306 C304 1.353 . S
C306 C309 1.348 . S
C306 H354 0.929 . S
C307 C308 1.358 . S
C307 C309 1.356 . S
C307 H355 0.930 . S
C308 N305 1.279 . S
C308 C307 1.358 . S
C308 H311 0.930 . S
C309 C306 1.348 . S
C309 C307 1.356 . S
H310 C304 0.930 . S
H311 C308 0.930 . S
C312 C314 1.348 . S
C312 C315 1.356 . S
C312 O342 1.325 . S
N313 C316 1.314 . S
N313 C317 1.279 . S
C314 C312 1.348 . S
C314 C316 1.353 . S
C314 H356 0.929 . S
C315 C312 1.356 . S
C315 C317 1.358 . S
C315 H357 0.930 . S
C316 N313 1.314 . S
C316 C314 1.353 . S
C316 H358 0.930 . S
C317 N313 1.279 . S
C317 C315 1.358 . S
C317 H359 0.930 . S
C318 C319 1.348 . S
C318 C320 1.356 . S
C318 O343 1.325 . S
C319 C318 1.348 . S
C319 C321 1.353 . S
C319 H360 0.929 . S
C320 C318 1.356 . S
C320 C322 1.358 . S
C320 H361 0.930 . S
C321 C319 1.353 . S
C321 N323 1.314 . S
C321 H362 0.930 . S
C322 C320 1.358 . S
C322 N323 1.279 . S
C322 H363 0.930 . S
N323 C321 1.314 . S
N323 C322 1.279 . S
C324 C326 1.353 . S
C324 N327 1.314 . S
C324 H330 0.930 . S
C325 N327 1.279 . S
C325 C328 1.358 . S
C325 H331 0.930 . S
C326 C324 1.353 . S
C326 C329 1.348 . S
C326 H364 0.929 . S
N327 Li282 1.990 . S
N327 C324 1.314 . S
N327 C325 1.279 . S
C328 C325 1.358 . S
C328 C329 1.356 . S
C328 H365 0.930 . S
C329 C326 1.348 . S
C329 C328 1.356 . S
H330 C324 0.930 . S
H331 C325 0.930 . S
C332 N333 1.314 . S
C332 C334 1.353 . S
C332 H338 0.930 . S
N333 Li283 1.990 . S
N333 C332 1.314 . S
N333 C336 1.279 . S
C334 C332 1.353 . S
C334 C337 1.348 . S
C334 H366 0.929 . S
C335 C336 1.358 . S
C335 C337 1.356 . S
C335 H367 0.930 . S
C336 N333 1.279 . S
C336 C335 1.358 . S
C336 H339 0.930 . S
C337 C334 1.348 . S
C337 C335 1.356 . S
H338 C332 0.930 . S
H339 C336 0.930 . S
O340 Li280 1.956 . S
O340 Li281 1.970 . S
O340 Li282 1.961 . S
O340 C284 1.325 . S
O341 Li280 1.970 . S
O341 Li281 1.956 . S
O341 Li283 1.961 . S
O341 C290 1.325 . S
O342 Li280 1.961 . S
O342 Li282 1.956 . S
O342 Li283 1.970 . S
O342 C312 1.325 . S
O343 Li281 1.961 . S
O343 Li282 1.970 . S
O343 Li283 1.956 . S
O343 C318 1.325 . S
H344 C286 0.929 . S
H345 C287 0.930 . S
H346 C288 0.930 . S
H347 C289 0.930 . S
H348 C291 0.930 . S
H349 C293 0.929 . S
H350 C294 0.930 . S
H351 C295 0.930 . S
H352 C298 0.930 . S
H353 C301 0.929 . S
H354 C306 0.929 . S
H355 C307 0.930 . S
H356 C314 0.929 . S
H357 C315 0.930 . S
H358 C316 0.930 . S
H359 C317 0.930 . S
H360 C319 0.929 . S
H361 C320 0.930 . S
H362 C321 0.930 . S
H363 C322 0.930 . S
H364 C326 0.929 . S
H365 C328 0.930 . S
H366 C334 0.929 . S
H367 C335 0.930 . S
Li368 N385 1.990 . S
Li368 O428 1.956 . S
Li368 O429 1.970 1_556 S
Li368 O430 1.961 . S
Li369 N393 1.990 . S
Li369 O428 1.970 1_554 S
Li369 O429 1.956 . S
Li369 O431 1.961 . S
Li370 N415 1.990 . S
Li370 O428 1.961 . S
Li370 O430 1.956 . S
Li370 O431 1.970 1_556 S
Li371 N421 1.990 . S
Li371 O429 1.961 . S
Li371 O430 1.970 1_554 S
Li371 O431 1.956 . S
C372 C374 1.348 1_556 S
C372 C375 1.356 . S
C372 O428 1.325 . S
N373 C376 1.314 1_556 S
N373 C377 1.279 . S
C374 C372 1.348 1_554 S
C374 C376 1.353 . S
C374 H432 0.929 . S
C375 C372 1.356 . S
C375 C377 1.358 . S
C375 H433 0.930 . S
C376 N373 1.314 1_554 S
C376 C374 1.353 . S
C376 H434 0.930 . S
C377 N373 1.279 . S
C377 C375 1.358 . S
C377 H435 0.930 . S
C378 C381 1.348 . S
C378 C382 1.356 . S
C378 O429 1.325 . S
C379 N380 1.279 . S
C379 C382 1.358 . S
C379 H436 0.930 . S
N380 C379 1.279 . S
N380 C383 1.314 . S
C381 C378 1.348 . S
C381 C383 1.353 . S
C381 H437 0.929 . S
C382 C378 1.356 . S
C382 C379 1.358 . S
C382 H438 0.930 . S
C383 N380 1.314 . S
C383 C381 1.353 . S
C383 H439 0.930 . S
C384 N385 1.314 . S
C384 C389 1.353 . S
C384 H390 0.930 . S
N385 Li368 1.990 . S
N385 C384 1.314 . S
N385 C387 1.279 . S
C386 C387 1.358 . S
C386 C388 1.356 . S
C386 H440 0.930 . S
C387 N385 1.279 . S
C387 C386 1.358 . S
C387 H391 0.930 . S
C388 C386 1.356 . S
C388 C389 1.348 . S
C389 C384 1.353 . S
C389 C388 1.348 . S
C389 H441 0.929 . S
H390 C384 0.930 . S
H391 C387 0.930 . S
C392 N393 1.314 . S
C392 C394 1.353 . S
C392 H398 0.930 . S
N393 Li369 1.990 . S
N393 C392 1.314 . S
N393 C396 1.279 . S
C394 C392 1.353 . S
C394 C397 1.348 . S
C394 H442 0.929 . S
C395 C396 1.358 . S
C395 C397 1.356 . S
C395 H443 0.930 . S
C396 N393 1.279 . S
C396 C395 1.358 . S
C396 H399 0.930 . S
C397 C394 1.348 . S
C397 C395 1.356 . S
H398 C392 0.930 . S
H399 C396 0.930 . S
C400 C402 1.348 . S
C400 C403 1.356 . S
C400 O430 1.325 . S
N401 C404 1.314 . S
N401 C405 1.279 . S
C402 C400 1.348 . S
C402 C404 1.353 . S
C402 H444 0.929 . S
C403 C400 1.356 . S
C403 C405 1.358 . S
C403 H445 0.930 . S
C404 N401 1.314 . S
C404 C402 1.353 . S
C404 H446 0.930 . S
C405 N401 1.279 . S
C405 C403 1.358 . S
C405 H447 0.930 . S
C406 C407 1.348 1_554 S
C406 C408 1.356 . S
C406 O431 1.325 . S
C407 C406 1.348 1_556 S
C407 C409 1.353 . S
C407 H448 0.929 . S
C408 C406 1.356 . S
C408 C410 1.358 . S
C408 H449 0.930 . S
C409 C407 1.353 . S
C409 N411 1.314 1_556 S
C409 H450 0.930 . S
C410 C408 1.358 . S
C410 N411 1.279 . S
C410 H451 0.930 . S
N411 C409 1.314 1_554 S
N411 C410 1.279 . S
C412 C414 1.353 . S
C412 N415 1.314 . S
C412 H418 0.930 . S
C413 N415 1.279 . S
C413 C416 1.358 . S
C413 H419 0.930 . S
C414 C412 1.353 . S
C414 C417 1.348 . S
C414 H452 0.929 . S
N415 Li370 1.990 . S
N415 C412 1.314 . S
N415 C413 1.279 . S
C416 C413 1.358 . S
C416 C417 1.356 . S
C416 H453 0.930 . S
C417 C414 1.348 . S
C417 C416 1.356 . S
H418 C412 0.930 . S
H419 C413 0.930 . S
C420 N421 1.314 . S
C420 C422 1.353 . S
C420 H426 0.930 . S
N421 Li371 1.990 . S
N421 C420 1.314 . S
N421 C424 1.279 . S
C422 C420 1.353 . S
C422 C425 1.348 . S
C422 H454 0.929 . S
C423 C424 1.358 . S
C423 C425 1.356 . S
C423 H455 0.930 . S
C424 N421 1.279 . S
C424 C423 1.358 . S
C424 H427 0.930 . S
C425 C422 1.348 . S
C425 C423 1.356 . S
H426 C420 0.930 . S
H427 C424 0.930 . S
O428 Li368 1.956 . S
O428 Li369 1.970 1_556 S
O428 Li370 1.961 . S
O428 C372 1.325 . S
O429 Li368 1.970 1_554 S
O429 Li369 1.956 . S
O429 Li371 1.961 . S
O429 C378 1.325 . S
O430 Li368 1.961 . S
O430 Li370 1.956 . S
O430 Li371 1.970 1_556 S
O430 C400 1.325 . S
O431 Li369 1.961 . S
O431 Li370 1.970 1_554 S
O431 Li371 1.956 . S
O431 C406 1.325 . S
H432 C374 0.929 . S
H433 C375 0.930 . S
H434 C376 0.930 . S
H435 C377 0.930 . S
H436 C379 0.930 . S
H437 C381 0.929 . S
H438 C382 0.930 . S
H439 C383 0.930 . S
H440 C386 0.930 . S
H441 C389 0.929 . S
H442 C394 0.929 . S
H443 C395 0.930 . S
H444 C402 0.929 . S
H445 C403 0.930 . S
H446 C404 0.930 . S
H447 C405 0.930 . S
H448 C407 0.929 . S
H449 C408 0.930 . S
H450 C409 0.930 . S
H451 C410 0.930 . S
H452 C414 0.929 . S
H453 C416 0.930 . S
H454 C422 0.929 . S
H455 C423 0.930 . S
Li456 N473 1.990 . S
Li456 O516 1.956 . S
Li456 O517 1.970 . S
Li456 O518 1.961 . S
Li457 N481 1.990 . S
Li457 O516 1.970 . S
Li457 O517 1.956 . S
Li457 O519 1.961 1_545 S
Li458 N503 1.990 . S
Li458 O516 1.961 . S
Li458 O518 1.956 . S
Li458 O519 1.970 1_545 S
Li459 N509 1.990 . S
Li459 O517 1.961 1_565 S
Li459 O518 1.970 1_565 S
Li459 O519 1.956 . S
C460 C462 1.348 . S
C460 C463 1.356 . S
C460 O516 1.325 . S
N461 C464 1.314 . S
N461 C465 1.279 . S
C462 C460 1.348 . S
C462 C464 1.353 . S
C462 H520 0.929 . S
C463 C460 1.356 . S
C463 C465 1.358 . S
C463 H521 0.930 . S
C464 N461 1.314 . S
C464 C462 1.353 . S
C464 H522 0.927 1_655 S
C465 N461 1.279 . S
C465 C463 1.358 . S
C465 H523 0.930 . S
C466 C469 1.348 . S
C466 C470 1.356 1_545 S
C466 O517 1.325 . S
C467 N468 1.279 1_565 S
C467 C470 1.358 . S
C467 H524 0.930 . S
N468 C467 1.279 1_545 S
N468 C471 1.314 . S
C469 C466 1.348 . S
C469 C471 1.353 . S
C469 H525 0.929 . S
C470 C466 1.356 1_565 S
C470 C467 1.358 . S
C470 H526 0.930 . S
C471 N468 1.314 . S
C471 C469 1.353 . S
C471 H527 0.930 . S
C472 N473 1.314 . S
C472 C477 1.353 . S
C472 H478 0.930 . S
N473 Li456 1.990 . S
N473 C472 1.314 . S
N473 C475 1.279 . S
C474 C475 1.358 . S
C474 C476 1.356 . S
C474 H528 0.930 . S
C475 N473 1.279 . S
C475 C474 1.358 . S
C475 H479 0.930 . S
C476 C474 1.356 . S
C476 C477 1.348 . S
C477 C472 1.353 . S
C477 C476 1.348 . S
C477 H529 0.929 . S
H478 C472 0.930 . S
H479 C475 0.930 . S
C480 N481 1.314 . S
C480 C482 1.353 1_655 S
C480 H486 0.930 . S
N481 Li457 1.990 . S
N481 C480 1.314 . S
N481 C484 1.279 . S
C482 C480 1.353 1_455 S
C482 C485 1.348 . S
C482 H530 0.938 . S
C483 C484 1.358 . S
C483 C485 1.356 1_655 S
C483 H531 0.930 . S
C484 N481 1.279 . S
C484 C483 1.358 . S
C484 H487 0.930 . S
C485 C482 1.348 . S
C485 C483 1.356 1_455 S
H486 C480 0.930 . S
H487 C484 0.930 . S
C488 C490 1.348 . S
C488 C491 1.356 . S
C488 O518 1.325 . S
N489 C492 1.314 . S
N489 C493 1.279 . S
C490 C488 1.348 . S
C490 C492 1.353 . S
C490 H532 0.929 1_545 S
C491 C488 1.356 . S
C491 C493 1.358 . S
C491 H533 0.930 . S
C492 N489 1.314 . S
C492 C490 1.353 . S
C492 H534 0.930 1_545 S
C493 N489 1.279 . S
C493 C491 1.358 . S
C493 H535 0.930 . S
C494 C495 1.348 . S
C494 C496 1.356 . S
C494 O519 1.325 . S
C495 C494 1.348 . S
C495 C497 1.353 . S
C495 H536 0.929 . S
C496 C494 1.356 . S
C496 C498 1.358 . S
C496 H537 0.930 . S
C497 C495 1.353 . S
C497 N499 1.314 . S
C497 H538 0.930 . S
C498 C496 1.358 . S
C498 N499 1.279 . S
C498 H539 0.930 . S
N499 C497 1.314 . S
N499 C498 1.279 . S
C500 C502 1.353 1_655 S
C500 N503 1.314 . S
C500 H506 0.930 . S
C501 N503 1.279 . S
C501 C504 1.358 . S
C501 H507 0.930 . S
C502 C500 1.353 1_455 S
C502 C505 1.348 1_455 S
C502 H540 0.929 . S
N503 Li458 1.990 . S
N503 C500 1.314 . S
N503 C501 1.279 . S
C504 C501 1.358 . S
C504 C505 1.356 . S
C504 H541 0.930 . S
C505 C502 1.348 1_655 S
C505 C504 1.356 . S
H506 C500 0.930 . S
H507 C501 0.930 . S
C508 N509 1.314 . S
C508 C510 1.353 . S
C508 H514 0.930 . S
N509 Li459 1.990 . S
N509 C508 1.314 . S
N509 C512 1.279 . S
C510 C508 1.353 . S
C510 C513 1.348 . S
C510 H542 0.929 . S
C511 C512 1.358 . S
C511 C513 1.356 . S
C511 H543 0.930 . S
C512 N509 1.279 . S
C512 C511 1.358 . S
C512 H515 0.930 . S
C513 C510 1.348 . S
C513 C511 1.356 . S
H514 C508 0.930 . S
H515 C512 0.930 . S
O516 Li456 1.956 . S
O516 Li457 1.970 . S
O516 Li458 1.961 . S
O516 C460 1.325 . S
O517 Li456 1.970 . S
O517 Li457 1.956 . S
O517 Li459 1.961 1_545 S
O517 C466 1.325 . S
O518 Li456 1.961 . S
O518 Li458 1.956 . S
O518 Li459 1.970 1_545 S
O518 C488 1.325 . S
O519 Li457 1.961 1_565 S
O519 Li458 1.970 1_565 S
O519 Li459 1.956 . S
O519 C494 1.325 . S
H520 C462 0.929 . S
H521 C463 0.930 . S
H522 C464 0.927 1_455 S
H523 C465 0.930 . S
H524 C467 0.930 . S
H525 C469 0.929 . S
H526 C470 0.930 . S
H527 C471 0.930 . S
H528 C474 0.930 . S
H529 C477 0.929 . S
H530 C482 0.938 . S
H531 C483 0.930 . S
H532 C490 0.929 1_565 S
H533 C491 0.930 . S
H534 C492 0.930 1_565 S
H535 C493 0.930 . S
H536 C495 0.929 . S
H537 C496 0.930 . S
H538 C497 0.930 . S
H539 C498 0.930 . S
H540 C502 0.929 . S
H541 C504 0.930 . S
H542 C510 0.929 . S
H543 C511 0.930 . S
Li544 N561 1.990 . S
Li544 O604 1.956 . S
Li544 O605 1.970 . S
Li544 O606 1.961 . S
Li545 N569 1.990 . S
Li545 O604 1.970 . S
Li545 O605 1.956 . S
Li545 O607 1.961 . S
Li546 N591 1.990 . S
Li546 O604 1.961 . S
Li546 O606 1.956 . S
Li546 O607 1.970 . S
Li547 N597 1.990 . S
Li547 O605 1.961 . S
Li547 O606 1.970 . S
Li547 O607 1.956 . S
C548 C550 1.348 . S
C548 C551 1.356 . S
C548 O604 1.325 . S
N549 C552 1.314 . S
N549 C553 1.279 . S
C550 C548 1.348 . S
C550 C552 1.353 . S
C550 H608 0.929 . S
C551 C548 1.356 . S
C551 C553 1.358 . S
C551 H609 0.930 . S
C552 N549 1.314 . S
C552 C550 1.353 . S
C552 H610 0.930 . S
C553 N549 1.279 . S
C553 C551 1.358 . S
C553 H611 0.930 . S
C554 C557 1.348 . S
C554 C558 1.356 . S
C554 O605 1.325 . S
C555 N556 1.279 . S
C555 C558 1.358 . S
C555 H612 0.930 . S
N556 C555 1.279 . S
N556 C559 1.314 . S
C557 C554 1.348 . S
C557 C559 1.353 . S
C557 H613 0.929 . S
C558 C554 1.356 . S
C558 C555 1.358 . S
C558 H614 0.930 . S
C559 N556 1.314 . S
C559 C557 1.353 . S
C559 H615 0.930 . S
C560 N561 1.314 . S
C560 C565 1.353 . S
C560 H566 0.930 . S
N561 Li544 1.990 . S
N561 C560 1.314 . S
N561 C563 1.279 . S
C562 C563 1.358 . S
C562 C564 1.356 . S
C562 H616 0.930 . S
C563 N561 1.279 . S
C563 C562 1.358 . S
C563 H567 0.930 . S
C564 C562 1.356 . S
C564 C565 1.348 . S
C565 C560 1.353 . S
C565 C564 1.348 . S
C565 H617 0.929 . S
H566 C560 0.930 . S
H567 C563 0.930 . S
C568 N569 1.314 . S
C568 C570 1.353 . S
C568 H574 0.930 . S
N569 Li545 1.990 . S
N569 C568 1.314 . S
N569 C572 1.279 . S
C570 C568 1.353 . S
C570 C573 1.348 . S
C570 H618 0.929 . S
C571 C572 1.358 . S
C571 C573 1.356 . S
C571 H619 0.930 . S
C572 N569 1.279 . S
C572 C571 1.358 . S
C572 H575 0.930 . S
C573 C570 1.348 . S
C573 C571 1.356 . S
H574 C568 0.930 . S
H575 C572 0.930 . S
C576 C578 1.348 . S
C576 C579 1.356 . S
C576 O606 1.325 . S
N577 C580 1.314 . S
N577 C581 1.279 . S
C578 C576 1.348 . S
C578 C580 1.353 . S
C578 H620 0.929 . S
C579 C576 1.356 . S
C579 C581 1.358 . S
C579 H621 0.930 . S
C580 N577 1.314 . S
C580 C578 1.353 . S
C580 H622 0.930 . S
C581 N577 1.279 . S
C581 C579 1.358 . S
C581 H623 0.930 . S
C582 C583 1.348 . S
C582 C584 1.356 . S
C582 O607 1.325 . S
C583 C582 1.348 . S
C583 C585 1.353 . S
C583 H624 0.929 . S
C584 C582 1.356 . S
C584 C586 1.358 . S
C584 H625 0.930 . S
C585 C583 1.353 . S
C585 N587 1.314 . S
C585 H626 0.930 . S
C586 C584 1.358 . S
C586 N587 1.279 . S
C586 H627 0.930 . S
N587 C585 1.314 . S
N587 C586 1.279 . S
C588 C590 1.353 . S
C588 N591 1.314 . S
C588 H594 0.930 . S
C589 N591 1.279 . S
C589 C592 1.358 . S
C589 H595 0.930 . S
C590 C588 1.353 . S
C590 C593 1.348 . S
C590 H628 0.929 . S
N591 Li546 1.990 . S
N591 C588 1.314 . S
N591 C589 1.279 . S
C592 C589 1.358 . S
C592 C593 1.356 . S
C592 H629 0.930 . S
C593 C590 1.348 . S
C593 C592 1.356 . S
H594 C588 0.930 . S
H595 C589 0.930 . S
C596 N597 1.314 . S
C596 C598 1.353 . S
C596 H602 0.930 . S
N597 Li547 1.990 . S
N597 C596 1.314 . S
N597 C600 1.279 . S
C598 C596 1.353 . S
C598 C601 1.348 . S
C598 H630 0.929 . S
C599 C600 1.358 . S
C599 C601 1.356 . S
C599 H631 0.930 . S
C600 N597 1.279 . S
C600 C599 1.358 . S
C600 H603 0.930 . S
C601 C598 1.348 . S
C601 C599 1.356 . S
H602 C596 0.930 . S
H603 C600 0.930 . S
O604 Li544 1.956 . S
O604 Li545 1.970 . S
O604 Li546 1.961 . S
O604 C548 1.325 . S
O605 Li544 1.970 . S
O605 Li545 1.956 . S
O605 Li547 1.961 . S
O605 C554 1.325 . S
O606 Li544 1.961 . S
O606 Li546 1.956 . S
O606 Li547 1.970 . S
O606 C576 1.325 . S
O607 Li545 1.961 . S
O607 Li546 1.970 . S
O607 Li547 1.956 . S
O607 C582 1.325 . S
H608 C550 0.929 . S
H609 C551 0.930 . S
H610 C552 0.930 . S
H611 C553 0.930 . S
H612 C555 0.930 . S
H613 C557 0.929 . S
H614 C558 0.930 . S
H615 C559 0.930 . S
H616 C562 0.930 . S
H617 C565 0.929 . S
H618 C570 0.929 . S
H619 C571 0.930 . S
H620 C578 0.929 . S
H621 C579 0.930 . S
H622 C580 0.930 . S
H623 C581 0.930 . S
H624 C583 0.929 . S
H625 C584 0.930 . S
H626 C585 0.930 . S
H627 C586 0.930 . S
H628 C590 0.929 . S
H629 C592 0.930 . S
H630 C598 0.929 . S
H631 C599 0.930 . S
Li632 N649 1.990 . S
Li632 O692 1.956 . S
Li632 O693 1.970 . S
Li632 O694 1.961 . S
Li633 N657 1.990 . S
Li633 O692 1.970 . S
Li633 O693 1.956 . S
Li633 O695 1.961 . S
Li634 N679 1.990 . S
Li634 O692 1.961 . S
Li634 O694 1.956 . S
Li634 O695 1.970 . S
Li635 N685 1.990 . S
Li635 O693 1.961 . S
Li635 O694 1.970 . S
Li635 O695 1.956 . S
C636 C638 1.348 . S
C636 C639 1.356 . S
C636 O692 1.325 . S
N637 C640 1.314 . S
N637 C641 1.279 . S
C638 C636 1.348 . S
C638 C640 1.353 . S
C638 H696 0.929 . S
C639 C636 1.356 . S
C639 C641 1.358 . S
C639 H697 0.930 . S
C640 N637 1.314 . S
C640 C638 1.353 . S
C640 H698 0.930 . S
C641 N637 1.279 . S
C641 C639 1.358 . S
C641 H699 0.930 . S
C642 C645 1.348 . S
C642 C646 1.356 . S
C642 O693 1.325 . S
C643 N644 1.279 . S
C643 C646 1.358 . S
C643 H700 0.930 . S
N644 C643 1.279 . S
N644 C647 1.314 . S
C645 C642 1.348 . S
C645 C647 1.353 . S
C645 H701 0.929 . S
C646 C642 1.356 . S
C646 C643 1.358 . S
C646 H702 0.930 . S
C647 N644 1.314 . S
C647 C645 1.353 . S
C647 H703 0.930 . S
C648 N649 1.314 . S
C648 C653 1.353 . S
C648 H654 0.930 . S
N649 Li632 1.990 . S
N649 C648 1.314 . S
N649 C651 1.279 . S
C650 C651 1.358 . S
C650 C652 1.356 . S
C650 H704 0.930 . S
C651 N649 1.279 . S
C651 C650 1.358 . S
C651 H655 0.930 . S
C652 C650 1.356 . S
C652 C653 1.348 . S
C653 C648 1.353 . S
C653 C652 1.348 . S
C653 H705 0.929 . S
H654 C648 0.930 . S
H655 C651 0.930 . S
C656 N657 1.314 . S
C656 C658 1.353 . S
C656 H662 0.930 . S
N657 Li633 1.990 . S
N657 C656 1.314 . S
N657 C660 1.279 . S
C658 C656 1.353 . S
C658 C661 1.348 . S
C658 H706 0.929 . S
C659 C660 1.358 . S
C659 C661 1.356 . S
C659 H707 0.930 . S
C660 N657 1.279 . S
C660 C659 1.358 . S
C660 H663 0.930 . S
C661 C658 1.348 . S
C661 C659 1.356 . S
H662 C656 0.930 . S
H663 C660 0.930 . S
C664 C666 1.348 . S
C664 C667 1.356 . S
C664 O694 1.325 . S
N665 C668 1.314 . S
N665 C669 1.279 . S
C666 C664 1.348 . S
C666 C668 1.353 . S
C666 H708 0.929 . S
C667 C664 1.356 . S
C667 C669 1.358 . S
C667 H709 0.930 . S
C668 N665 1.314 . S
C668 C666 1.353 . S
C668 H710 0.930 . S
C669 N665 1.279 . S
C669 C667 1.358 . S
C669 H711 0.930 . S
C670 C671 1.348 . S
C670 C672 1.356 . S
C670 O695 1.325 . S
C671 C670 1.348 . S
C671 C673 1.353 . S
C671 H712 0.929 . S
C672 C670 1.356 . S
C672 C674 1.358 . S
C672 H713 0.930 . S
C673 C671 1.353 . S
C673 N675 1.314 . S
C673 H714 0.930 . S
C674 C672 1.358 . S
C674 N675 1.279 . S
C674 H715 0.930 . S
N675 C673 1.314 . S
N675 C674 1.279 . S
C676 C678 1.353 . S
C676 N679 1.314 . S
C676 H682 0.930 . S
C677 N679 1.279 . S
C677 C680 1.358 . S
C677 H683 0.930 . S
C678 C676 1.353 . S
C678 C681 1.348 . S
C678 H716 0.929 . S
N679 Li634 1.990 . S
N679 C676 1.314 . S
N679 C677 1.279 . S
C680 C677 1.358 . S
C680 C681 1.356 . S
C680 H717 0.930 . S
C681 C678 1.348 . S
C681 C680 1.356 . S
H682 C676 0.930 . S
H683 C677 0.930 . S
C684 N685 1.314 . S
C684 C686 1.353 . S
C684 H690 0.930 . S
N685 Li635 1.990 . S
N685 C684 1.314 . S
N685 C688 1.279 . S
C686 C684 1.353 . S
C686 C689 1.348 . S
C686 H718 0.929 . S
C687 C688 1.358 . S
C687 C689 1.356 . S
C687 H719 0.930 . S
C688 N685 1.279 . S
C688 C687 1.358 . S
C688 H691 0.930 . S
C689 C686 1.348 . S
C689 C687 1.356 . S
H690 C684 0.930 . S
H691 C688 0.930 . S
O692 Li632 1.956 . S
O692 Li633 1.970 . S
O692 Li634 1.961 . S
O692 C636 1.325 . S
O693 Li632 1.970 . S
O693 Li633 1.956 . S
O693 Li635 1.961 . S
O693 C642 1.325 . S
O694 Li632 1.961 . S
O694 Li634 1.956 . S
O694 Li635 1.970 . S
O694 C664 1.325 . S
O695 Li633 1.961 . S
O695 Li634 1.970 . S
O695 Li635 1.956 . S
O695 C670 1.325 . S
H696 C638 0.929 . S
H697 C639 0.930 . S
H698 C640 0.930 . S
H699 C641 0.930 . S
H700 C643 0.930 . S
H701 C645 0.929 . S
H702 C646 0.930 . S
H703 C647 0.930 . S
H704 C650 0.930 . S
H705 C653 0.929 . S
H706 C658 0.929 . S
H707 C659 0.930 . S
H708 C666 0.929 . S
H709 C667 0.930 . S
H710 C668 0.930 . S
H711 C669 0.930 . S
H712 C671 0.929 . S
H713 C672 0.930 . S
H714 C673 0.930 . S
H715 C674 0.930 . S
H716 C678 0.929 . S
H717 C680 0.930 . S
H718 C686 0.929 . S
H719 C687 0.930 . S
Li720 N737 1.990 . S
Li720 O780 1.956 . S
Li720 O781 1.970 . S
Li720 O782 1.961 . S
Li721 N745 1.990 . S
Li721 O780 1.970 . S
Li721 O781 1.956 . S
Li721 O783 1.961 . S
Li722 N767 1.990 . S
Li722 O780 1.961 . S
Li722 O782 1.956 . S
Li722 O783 1.970 . S
Li723 N773 1.990 . S
Li723 O781 1.961 . S
Li723 O782 1.970 . S
Li723 O783 1.956 . S
C724 C726 1.348 . S
C724 C727 1.356 . S
C724 O780 1.325 . S
N725 C728 1.314 . S
N725 C729 1.279 . S
C726 C724 1.348 . S
C726 C728 1.353 . S
C726 H784 0.929 . S
C727 C724 1.356 . S
C727 C729 1.358 . S
C727 H785 0.930 . S
C728 N725 1.314 . S
C728 C726 1.353 . S
C728 H786 0.930 . S
C729 N725 1.279 . S
C729 C727 1.358 . S
C729 H787 0.930 . S
C730 C733 1.348 . S
C730 C734 1.356 . S
C730 O781 1.325 . S
C731 N732 1.279 . S
C731 C734 1.358 . S
C731 H788 0.930 . S
N732 C731 1.279 . S
N732 C735 1.314 . S
C733 C730 1.348 . S
C733 C735 1.353 . S
C733 H789 0.929 . S
C734 C730 1.356 . S
C734 C731 1.358 . S
C734 H790 0.930 . S
C735 N732 1.314 . S
C735 C733 1.353 . S
C735 H791 0.930 . S
C736 N737 1.314 . S
C736 C741 1.353 . S
C736 H742 0.930 . S
N737 Li720 1.990 . S
N737 C736 1.314 . S
N737 C739 1.279 . S
C738 C739 1.358 . S
C738 C740 1.356 . S
C738 H792 0.930 . S
C739 N737 1.279 . S
C739 C738 1.358 . S
C739 H743 0.930 . S
C740 C738 1.356 . S
C740 C741 1.348 . S
C741 C736 1.353 . S
C741 C740 1.348 . S
C741 H793 0.929 . S
H742 C736 0.930 . S
H743 C739 0.930 . S
C744 N745 1.314 . S
C744 C746 1.353 . S
C744 H750 0.930 . S
N745 Li721 1.990 . S
N745 C744 1.314 . S
N745 C748 1.279 . S
C746 C744 1.353 . S
C746 C749 1.348 . S
C746 H794 0.929 . S
C747 C748 1.358 . S
C747 C749 1.356 . S
C747 H795 0.930 . S
C748 N745 1.279 . S
C748 C747 1.358 . S
C748 H751 0.930 . S
C749 C746 1.348 . S
C749 C747 1.356 . S
H750 C744 0.930 . S
H751 C748 0.930 . S
C752 C754 1.348 . S
C752 C755 1.356 . S
C752 O782 1.325 . S
N753 C756 1.314 . S
N753 C757 1.279 . S
C754 C752 1.348 . S
C754 C756 1.353 . S
C754 H796 0.929 . S
C755 C752 1.356 . S
C755 C757 1.358 . S
C755 H797 0.930 . S
C756 N753 1.314 . S
C756 C754 1.353 . S
C756 H798 0.930 . S
C757 N753 1.279 . S
C757 C755 1.358 . S
C757 H799 0.930 . S
C758 C759 1.348 . S
C758 C760 1.356 . S
C758 O783 1.325 . S
C759 C758 1.348 . S
C759 C761 1.353 . S
C759 H800 0.929 . S
C760 C758 1.356 . S
C760 C762 1.358 . S
C760 H801 0.930 . S
C761 C759 1.353 . S
C761 N763 1.314 . S
C761 H802 0.930 . S
C762 C760 1.358 . S
C762 N763 1.279 . S
C762 H803 0.930 . S
N763 C761 1.314 . S
N763 C762 1.279 . S
C764 C766 1.353 . S
C764 N767 1.314 . S
C764 H770 0.930 . S
C765 N767 1.279 . S
C765 C768 1.358 . S
C765 H771 0.930 . S
C766 C764 1.353 . S
C766 C769 1.348 . S
C766 H804 0.929 . S
N767 Li722 1.990 . S
N767 C764 1.314 . S
N767 C765 1.279 . S
C768 C765 1.358 . S
C768 C769 1.356 . S
C768 H805 0.930 . S
C769 C766 1.348 . S
C769 C768 1.356 . S
H770 C764 0.930 . S
H771 C765 0.930 . S
C772 N773 1.314 . S
C772 C774 1.353 . S
C772 H778 0.930 . S
N773 Li723 1.990 . S
N773 C772 1.314 . S
N773 C776 1.279 . S
C774 C772 1.353 . S
C774 C777 1.348 . S
C774 H806 0.929 . S
C775 C776 1.358 . S
C775 C777 1.356 . S
C775 H807 0.930 . S
C776 N773 1.279 . S
C776 C775 1.358 . S
C776 H779 0.930 . S
C777 C774 1.348 . S
C777 C775 1.356 . S
H778 C772 0.930 . S
H779 C776 0.930 . S
O780 Li720 1.956 . S
O780 Li721 1.970 . S
O780 Li722 1.961 . S
O780 C724 1.325 . S
O781 Li720 1.970 . S
O781 Li721 1.956 . S
O781 Li723 1.961 . S
O781 C730 1.325 . S
O782 Li720 1.961 . S
O782 Li722 1.956 . S
O782 Li723 1.970 . S
O782 C752 1.325 . S
O783 Li721 1.961 . S
O783 Li722 1.970 . S
O783 Li723 1.956 . S
O783 C758 1.325 . S
H784 C726 0.929 . S
H785 C727 0.930 . S
H786 C728 0.930 . S
H787 C729 0.930 . S
H788 C731 0.930 . S
H789 C733 0.929 . S
H790 C734 0.930 . S
H791 C735 0.930 . S
H792 C738 0.930 . S
H793 C741 0.929 . S
H794 C746 0.929 . S
H795 C747 0.930 . S
H796 C754 0.929 . S
H797 C755 0.930 . S
H798 C756 0.930 . S
H799 C757 0.930 . S
H800 C759 0.929 . S
H801 C760 0.930 . S
H802 C761 0.930 . S
H803 C762 0.930 . S
H804 C766 0.929 . S
H805 C768 0.930 . S
H806 C774 0.929 . S
H807 C775 0.930 . S
Li808 N825 1.990 . S
Li808 O868 1.956 . S
Li808 O869 1.970 1_565 S
Li808 O870 1.961 . S
Li809 N833 1.990 . S
Li809 O868 1.970 1_545 S
Li809 O869 1.956 . S
Li809 O871 1.961 . S
Li810 N855 1.990 . S
Li810 O868 1.961 . S
Li810 O870 1.956 . S
Li810 O871 1.970 1_565 S
Li811 N861 1.990 . S
Li811 O869 1.961 . S
Li811 O870 1.970 1_545 S
Li811 O871 1.956 . S
C812 C814 1.348 . S
C812 C815 1.356 . S
C812 O868 1.325 . S
N813 C816 1.314 . S
N813 C817 1.279 . S
C814 C812 1.348 . S
C814 C816 1.353 . S
C814 H872 0.929 . S
C815 C812 1.356 . S
C815 C817 1.358 . S
C815 H873 0.930 . S
C816 N813 1.314 . S
C816 C814 1.353 . S
C816 H874 0.930 . S
C817 N813 1.279 . S
C817 C815 1.358 . S
C817 H875 0.930 . S
C818 C821 1.348 1_545 S
C818 C822 1.356 . S
C818 O869 1.325 . S
C819 N820 1.279 . S
C819 C822 1.358 . S
C819 H876 0.930 . S
N820 C819 1.279 . S
N820 C823 1.314 1_545 S
C821 C818 1.348 1_565 S
C821 C823 1.353 . S
C821 H877 0.929 . S
C822 C818 1.356 . S
C822 C819 1.358 . S
C822 H878 0.930 . S
C823 N820 1.314 1_565 S
C823 C821 1.353 . S
C823 H879 0.930 . S
C824 N825 1.314 . S
C824 C829 1.353 . S
C824 H830 0.930 . S
N825 Li808 1.990 . S
N825 C824 1.314 . S
N825 C827 1.279 . S
C826 C827 1.358 . S
C826 C828 1.356 . S
C826 H880 0.930 . S
C827 N825 1.279 . S
C827 C826 1.358 . S
C827 H831 0.930 . S
C828 C826 1.356 . S
C828 C829 1.348 . S
C829 C824 1.353 . S
C829 C828 1.348 . S
C829 H881 0.929 . S
H830 C824 0.930 . S
H831 C827 0.930 . S
C832 N833 1.314 . S
C832 C834 1.353 . S
C832 H838 0.930 . S
N833 Li809 1.990 . S
N833 C832 1.314 . S
N833 C836 1.279 . S
C834 C832 1.353 . S
C834 C837 1.348 . S
C834 H882 0.929 . S
C835 C836 1.358 . S
C835 C837 1.356 . S
C835 H883 0.930 . S
C836 N833 1.279 . S
C836 C835 1.358 . S
C836 H839 0.930 . S
C837 C834 1.348 . S
C837 C835 1.356 . S
H838 C832 0.930 . S
H839 C836 0.930 . S
C840 C842 1.348 1_565 S
C840 C843 1.356 . S
C840 O870 1.325 . S
N841 C844 1.314 1_565 S
N841 C845 1.279 . S
C842 C840 1.348 1_545 S
C842 C844 1.353 . S
C842 H884 0.929 . S
C843 C840 1.356 . S
C843 C845 1.358 . S
C843 H885 0.930 . S
C844 N841 1.314 1_545 S
C844 C842 1.353 . S
C844 H886 0.930 . S
C845 N841 1.279 . S
C845 C843 1.358 . S
C845 H887 0.930 . S
C846 C847 1.348 . S
C846 C848 1.356 . S
C846 O871 1.325 . S
C847 C846 1.348 . S
C847 C849 1.353 . S
C847 H888 0.929 . S
C848 C846 1.356 . S
C848 C850 1.358 . S
C848 H889 0.930 . S
C849 C847 1.353 . S
C849 N851 1.314 . S
C849 H890 0.930 . S
C850 C848 1.358 . S
C850 N851 1.279 . S
C850 H891 0.930 . S
N851 C849 1.314 . S
N851 C850 1.279 . S
C852 C854 1.353 . S
C852 N855 1.314 . S
C852 H858 0.930 . S
C853 N855 1.279 . S
C853 C856 1.358 . S
C853 H859 0.930 . S
C854 C852 1.353 . S
C854 C857 1.348 . S
C854 H892 0.929 . S
N855 Li810 1.990 . S
N855 C852 1.314 . S
N855 C853 1.279 . S
C856 C853 1.358 . S
C856 C857 1.356 . S
C856 H893 0.930 . S
C857 C854 1.348 . S
C857 C856 1.356 . S
H858 C852 0.930 . S
H859 C853 0.930 . S
C860 N861 1.314 . S
C860 C862 1.353 . S
C860 H866 0.930 . S
N861 Li811 1.990 . S
N861 C860 1.314 . S
N861 C864 1.279 . S
C862 C860 1.353 . S
C862 C865 1.348 . S
C862 H894 0.929 . S
C863 C864 1.358 . S
C863 C865 1.356 . S
C863 H895 0.930 . S
C864 N861 1.279 . S
C864 C863 1.358 . S
C864 H867 0.930 . S
C865 C862 1.348 . S
C865 C863 1.356 . S
H866 C860 0.930 . S
H867 C864 0.930 . S
O868 Li808 1.956 . S
O868 Li809 1.970 1_565 S
O868 Li810 1.961 . S
O868 C812 1.325 . S
O869 Li808 1.970 1_545 S
O869 Li809 1.956 . S
O869 Li811 1.961 . S
O869 C818 1.325 . S
O870 Li808 1.961 . S
O870 Li810 1.956 . S
O870 Li811 1.970 1_565 S
O870 C840 1.325 . S
O871 Li809 1.961 . S
O871 Li810 1.970 1_545 S
O871 Li811 1.956 . S
O871 C846 1.325 . S
H872 C814 0.929 . S
H873 C815 0.930 . S
H874 C816 0.930 . S
H875 C817 0.930 . S
H876 C819 0.930 . S
H877 C821 0.929 . S
H878 C822 0.930 . S
H879 C823 0.930 . S
H880 C826 0.930 . S
H881 C829 0.929 . S
H882 C834 0.929 . S
H883 C835 0.930 . S
H884 C842 0.929 . S
H885 C843 0.930 . S
H886 C844 0.930 . S
H887 C845 0.930 . S
H888 C847 0.929 . S
H889 C848 0.930 . S
H890 C849 0.930 . S
H891 C850 0.930 . S
H892 C854 0.929 . S
H893 C856 0.930 . S
H894 C862 0.929 . S
H895 C863 0.930 . S
Li896 N913 1.990 . S
Li896 O956 1.956 . S
Li896 O957 1.970 . S
Li896 O958 1.961 . S
Li897 N921 1.990 1_455 S
Li897 O956 1.970 . S
Li897 O957 1.956 . S
Li897 O959 1.961 1_455 S
Li898 N943 1.990 . S
Li898 O956 1.961 . S
Li898 O958 1.956 . S
Li898 O959 1.970 1_455 S
Li899 N949 1.990 . S
Li899 O957 1.961 1_655 S
Li899 O958 1.970 1_655 S
Li899 O959 1.956 . S
C900 C902 1.348 . S
C900 C903 1.356 . S
C900 O956 1.325 . S
N901 C904 1.314 . S
N901 C905 1.279 . S
C902 C900 1.348 . S
C902 C904 1.353 . S
C902 H960 0.929 . S
C903 C900 1.356 . S
C903 C905 1.358 . S
C903 H961 0.930 . S
C904 N901 1.314 . S
C904 C902 1.353 . S
C904 H962 0.930 . S
C905 N901 1.279 . S
C905 C903 1.358 . S
C905 H963 0.930 . S
C906 C909 1.324 1_655 S
C906 C910 1.385 . S
C906 O957 1.320 1_655 S
C907 N908 1.279 . S
C907 C910 1.358 . S
C907 H964 0.930 . S
N908 C907 1.279 . S
N908 C911 1.314 1_655 S
C909 C906 1.324 1_455 S
C909 C911 1.353 . S
C909 H965 0.929 . S
C910 C906 1.385 . S
C910 C907 1.358 . S
C910 H966 0.930 . S
C911 N908 1.314 1_455 S
C911 C909 1.353 . S
C911 H967 0.930 . S
C912 N913 1.314 . S
C912 C917 1.353 . S
C912 H918 0.930 . S
N913 Li896 1.990 . S
N913 C912 1.314 . S
N913 C915 1.279 . S
C914 C915 1.358 . S
C914 C916 1.356 . S
C914 H968 0.930 . S
C915 N913 1.279 . S
C915 C914 1.358 . S
C915 H919 0.930 . S
C916 C914 1.356 . S
C916 C917 1.348 . S
C917 C912 1.353 . S
C917 C916 1.348 . S
C917 H969 0.929 . S
H918 C912 0.930 . S
H919 C915 0.930 . S
C920 N921 1.314 . S
C920 C922 1.353 . S
C920 H926 0.930 . S
N921 Li897 1.990 1_655 S
N921 C920 1.314 . S
N921 C924 1.278 1_655 S
C922 C920 1.353 . S
C922 C925 1.348 . S
C922 H970 0.929 . S
C923 C924 1.354 1_655 S
C923 C925 1.356 . S
C923 H971 0.929 1_655 S
C924 N921 1.278 1_455 S
C924 C923 1.354 1_455 S
C924 H927 0.939 . S
C925 C922 1.348 . S
C925 C923 1.356 . S
H926 C920 0.930 . S
H927 C924 0.939 . S
C928 C930 1.348 1_455 S
C928 C931 1.356 . S
C928 O958 1.325 . S
N929 C932 1.314 1_455 S
N929 C933 1.279 . S
C930 C928 1.348 1_655 S
C930 C932 1.353 . S
C930 H972 0.929 . S
C931 C928 1.356 . S
C931 C933 1.358 . S
C931 H973 0.930 . S
C932 N929 1.314 1_655 S
C932 C930 1.353 . S
C932 H974 0.930 . S
C933 N929 1.279 . S
C933 C931 1.358 . S
C933 H975 0.930 . S
C934 C935 1.348 . S
C934 C936 1.356 . S
C934 O959 1.325 . S
C935 C934 1.348 . S
C935 C937 1.353 . S
C935 H976 0.929 . S
C936 C934 1.356 . S
C936 C938 1.358 . S
C936 H977 0.930 . S
C937 C935 1.353 . S
C937 N939 1.314 . S
C937 H978 0.930 . S
C938 C936 1.358 . S
C938 N939 1.279 . S
C938 H979 0.930 . S
N939 C937 1.314 . S
N939 C938 1.279 . S
C940 C942 1.353 . S
C940 N943 1.314 . S
C940 H946 0.930 . S
C941 N943 1.279 . S
C941 C944 1.358 . S
C941 H947 0.930 . S
C942 C940 1.353 . S
C942 C945 1.348 . S
C942 H980 0.929 . S
N943 Li898 1.990 . S
N943 C940 1.314 . S
N943 C941 1.279 . S
C944 C941 1.358 . S
C944 C945 1.356 . S
C944 H981 0.930 . S
C945 C942 1.348 . S
C945 C944 1.356 . S
H946 C940 0.930 . S
H947 C941 0.930 . S
C948 N949 1.314 . S
C948 C950 1.353 . S
C948 H954 0.930 . S
N949 Li899 1.990 . S
N949 C948 1.314 . S
N949 C952 1.279 . S
C950 C948 1.353 . S
C950 C953 1.348 . S
C950 H982 0.929 . S
C951 C952 1.358 . S
C951 C953 1.356 . S
C951 H983 0.930 . S
C952 N949 1.279 . S
C952 C951 1.358 . S
C952 H955 0.930 . S
C953 C950 1.348 . S
C953 C951 1.356 . S
H954 C948 0.930 . S
H955 C952 0.930 . S
O956 Li896 1.956 . S
O956 Li897 1.970 . S
O956 Li898 1.961 . S
O956 C900 1.325 . S
O957 Li896 1.970 . S
O957 Li897 1.956 . S
O957 Li899 1.961 1_455 S
O957 C906 1.320 1_455 S
O958 Li896 1.961 . S
O958 Li898 1.956 . S
O958 Li899 1.970 1_455 S
O958 C928 1.325 . S
O959 Li897 1.961 1_655 S
O959 Li898 1.970 1_655 S
O959 Li899 1.956 . S
O959 C934 1.325 . S
H960 C902 0.929 . S
H961 C903 0.930 . S
H962 C904 0.930 . S
H963 C905 0.930 . S
H964 C907 0.930 . S
H965 C909 0.929 . S
H966 C910 0.930 . S
H967 C911 0.930 . S
H968 C914 0.930 . S
H969 C917 0.929 . S
H970 C922 0.929 . S
H971 C923 0.929 1_455 S
H972 C930 0.929 . S
H973 C931 0.930 . S
H974 C932 0.930 . S
H975 C933 0.930 . S
H976 C935 0.929 . S
H977 C936 0.930 . S
H978 C937 0.930 . S
H979 C938 0.930 . S
H980 C942 0.929 . S
H981 C944 0.930 . S
H982 C950 0.929 . S
H983 C951 0.930 . S
Li984 N1001 1.990 . S
Li984 O1044 1.956 . S
Li984 O1045 1.970 . S
Li984 O1046 1.961 . S
Li985 N1009 1.990 . S
Li985 O1044 1.970 . S
Li985 O1045 1.956 . S
Li985 O1047 1.961 . S
Li986 N1031 1.990 . S
Li986 O1044 1.961 . S
Li986 O1046 1.956 . S
Li986 O1047 1.970 . S
Li987 N1037 1.990 . S
Li987 O1045 1.961 . S
Li987 O1046 1.970 . S
Li987 O1047 1.956 . S
C988 C990 1.348 . S
C988 C991 1.356 . S
C988 O1044 1.325 . S
N989 C992 1.314 . S
N989 C993 1.279 . S
C990 C988 1.348 . S
C990 C992 1.353 . S
C990 H1048 0.929 . S
C991 C988 1.356 . S
C991 C993 1.358 . S
C991 H1049 0.930 . S
C992 N989 1.314 . S
C992 C990 1.353 . S
C992 H1050 0.930 . S
C993 N989 1.279 . S
C993 C991 1.358 . S
C993 H1051 0.930 . S
C994 C997 1.348 . S
C994 C998 1.356 . S
C994 O1045 1.325 . S
C995 N996 1.279 . S
C995 C998 1.358 . S
C995 H1052 0.930 . S
N996 C995 1.279 . S
N996 C999 1.314 . S
C997 C994 1.348 . S
C997 C999 1.353 . S
C997 H1053 0.929 . S
C998 C994 1.356 . S
C998 C995 1.358 . S
C998 H1054 0.930 . S
C999 N996 1.314 . S
C999 C997 1.353 . S
C999 H1055 0.930 . S
C1000 N1001 1.314 . S
C1000 C1005 1.353 . S
C1000 H1006 0.930 . S
N1001 Li984 1.990 . S
N1001 C1000 1.314 . S
N1001 C1003 1.279 . S
C1002 C1003 1.358 . S
C1002 C1004 1.356 . S
C1002 H1056 0.930 . S
C1003 N1001 1.279 . S
C1003 C1002 1.358 . S
C1003 H1007 0.930 . S
C1004 C1002 1.356 . S
C1004 C1005 1.348 . S
C1005 C1000 1.353 . S
C1005 C1004 1.348 . S
C1005 H1057 0.929 . S
H1006 C1000 0.930 . S
H1007 C1003 0.930 . S
C1008 N1009 1.314 . S
C1008 C1010 1.353 . S
C1008 H1014 0.930 . S
N1009 Li985 1.990 . S
N1009 C1008 1.314 . S
N1009 C1012 1.279 . S
C1010 C1008 1.353 . S
C1010 C1013 1.348 . S
C1010 H1058 0.929 . S
C1011 C1012 1.358 . S
C1011 C1013 1.356 . S
C1011 H1059 0.930 . S
C1012 N1009 1.279 . S
C1012 C1011 1.358 . S
C1012 H1015 0.930 . S
C1013 C1010 1.348 . S
C1013 C1011 1.356 . S
H1014 C1008 0.930 . S
H1015 C1012 0.930 . S
C1016 C1018 1.348 . S
C1016 C1019 1.356 . S
C1016 O1046 1.325 . S
N1017 C1020 1.314 . S
N1017 C1021 1.279 . S
C1018 C1016 1.348 . S
C1018 C1020 1.353 . S
C1018 H1060 0.929 . S
C1019 C1016 1.356 . S
C1019 C1021 1.358 . S
C1019 H1061 0.930 . S
C1020 N1017 1.314 . S
C1020 C1018 1.353 . S
C1020 H1062 0.930 . S
C1021 N1017 1.279 . S
C1021 C1019 1.358 . S
C1021 H1063 0.930 . S
C1022 C1023 1.348 . S
C1022 C1024 1.356 . S
C1022 O1047 1.325 . S
C1023 C1022 1.348 . S
C1023 C1025 1.353 . S
C1023 H1064 0.929 . S
C1024 C1022 1.356 . S
C1024 C1026 1.358 . S
C1024 H1065 0.930 . S
C1025 C1023 1.353 . S
C1025 N1027 1.314 . S
C1025 H1066 0.930 . S
C1026 C1024 1.358 . S
C1026 N1027 1.279 . S
C1026 H1067 0.930 . S
N1027 C1025 1.314 . S
N1027 C1026 1.279 . S
C1028 C1030 1.353 . S
C1028 N1031 1.314 . S
C1028 H1034 0.930 . S
C1029 N1031 1.279 . S
C1029 C1032 1.358 . S
C1029 H1035 0.930 . S
C1030 C1028 1.353 . S
C1030 C1033 1.348 . S
C1030 H1068 0.929 . S
N1031 Li986 1.990 . S
N1031 C1028 1.314 . S
N1031 C1029 1.279 . S
C1032 C1029 1.358 . S
C1032 C1033 1.356 . S
C1032 H1069 0.930 . S
C1033 C1030 1.348 . S
C1033 C1032 1.356 . S
H1034 C1028 0.930 . S
H1035 C1029 0.930 . S
C1036 N1037 1.314 . S
C1036 C1038 1.353 . S
C1036 H1042 0.930 . S
N1037 Li987 1.990 . S
N1037 C1036 1.314 . S
N1037 C1040 1.279 . S
C1038 C1036 1.353 . S
C1038 C1041 1.348 . S
C1038 H1070 0.929 . S
C1039 C1040 1.358 . S
C1039 C1041 1.356 . S
C1039 H1071 0.930 . S
C1040 N1037 1.279 . S
C1040 C1039 1.358 . S
C1040 H1043 0.930 . S
C1041 C1038 1.348 . S
C1041 C1039 1.356 . S
H1042 C1036 0.930 . S
H1043 C1040 0.930 . S
O1044 Li984 1.956 . S
O1044 Li985 1.970 . S
O1044 Li986 1.961 . S
O1044 C988 1.325 . S
O1045 Li984 1.970 . S
O1045 Li985 1.956 . S
O1045 Li987 1.961 . S
O1045 C994 1.325 . S
O1046 Li984 1.961 . S
O1046 Li986 1.956 . S
O1046 Li987 1.970 . S
O1046 C1016 1.325 . S
O1047 Li985 1.961 . S
O1047 Li986 1.970 . S
O1047 Li987 1.956 . S
O1047 C1022 1.325 . S
H1048 C990 0.929 . S
H1049 C991 0.930 . S
H1050 C992 0.930 . S
H1051 C993 0.930 . S
H1052 C995 0.930 . S
H1053 C997 0.929 . S
H1054 C998 0.930 . S
H1055 C999 0.930 . S
H1056 C1002 0.930 . S
H1057 C1005 0.929 . S
H1058 C1010 0.929 . S
H1059 C1011 0.930 . S
H1060 C1018 0.929 . S
H1061 C1019 0.930 . S
H1062 C1020 0.930 . S
H1063 C1021 0.930 . S
H1064 C1023 0.929 . S
H1065 C1024 0.930 . S
H1066 C1025 0.930 . S
H1067 C1026 0.930 . S
H1068 C1030 0.929 . S
H1069 C1032 0.930 . S
H1070 C1038 0.929 . S
H1071 C1039 0.930 . S
Li1072 N1089 1.990 . S
Li1072 O1132 1.956 . S
Li1072 O1133 1.970 1_455 S
Li1072 O1134 1.961 . S
Li1073 N1097 1.990 . S
Li1073 O1132 1.970 1_655 S
Li1073 O1133 1.956 . S
Li1073 O1135 1.961 1_655 S
Li1074 N1119 1.990 . S
Li1074 O1132 1.961 . S
Li1074 O1134 1.956 . S
Li1074 O1135 1.970 . S
Li1075 N1125 1.990 1_455 S
Li1075 O1133 1.961 1_455 S
Li1075 O1134 1.970 . S
Li1075 O1135 1.956 . S
C1076 C1078 1.348 . S
C1076 C1079 1.356 . S
C1076 O1132 1.325 . S
N1077 C1080 1.314 . S
N1077 C1081 1.279 . S
C1078 C1076 1.348 . S
C1078 C1080 1.353 . S
C1078 H1136 0.929 1_455 S
C1079 C1076 1.356 . S
C1079 C1081 1.358 . S
C1079 H1137 0.930 . S
C1080 N1077 1.314 . S
C1080 C1078 1.353 . S
C1080 H1138 0.930 1_455 S
C1081 N1077 1.279 . S
C1081 C1079 1.358 . S
C1081 H1139 0.930 . S
C1082 C1085 1.348 . S
C1082 C1086 1.356 . S
C1082 O1133 1.325 . S
C1083 N1084 1.279 . S
C1083 C1086 1.358 . S
C1083 H1140 0.930 . S
N1084 C1083 1.279 . S
N1084 C1087 1.314 . S
C1085 C1082 1.348 . S
C1085 C1087 1.353 . S
C1085 H1141 0.929 . S
C1086 C1082 1.356 . S
C1086 C1083 1.358 . S
C1086 H1142 0.930 . S
C1087 N1084 1.314 . S
C1087 C1085 1.353 . S
C1087 H1143 0.930 . S
C1088 N1089 1.314 . S
C1088 C1093 1.353 . S
C1088 H1094 0.930 . S
N1089 Li1072 1.990 . S
N1089 C1088 1.314 . S
N1089 C1091 1.279 . S
C1090 C1091 1.358 . S
C1090 C1092 1.356 . S
C1090 H1144 0.930 . S
C1091 N1089 1.279 . S
C1091 C1090 1.358 . S
C1091 H1095 0.930 . S
C1092 C1090 1.356 . S
C1092 C1093 1.348 . S
C1093 C1088 1.353 . S
C1093 C1092 1.348 . S
C1093 H1145 0.929 . S
H1094 C1088 0.930 . S
H1095 C1091 0.930 . S
C1096 N1097 1.314 . S
C1096 C1098 1.353 . S
C1096 H1102 0.930 . S
N1097 Li1073 1.990 . S
N1097 C1096 1.314 . S
N1097 C1100 1.279 . S
C1098 C1096 1.353 . S
C1098 C1101 1.348 . S
C1098 H1146 0.929 . S
C1099 C1100 1.358 . S
C1099 C1101 1.356 . S
C1099 H1147 0.930 . S
C1100 N1097 1.279 . S
C1100 C1099 1.358 . S
C1100 H1103 0.930 . S
C1101 C1098 1.348 . S
C1101 C1099 1.356 . S
H1102 C1096 0.930 . S
H1103 C1100 0.930 . S
C1104 C1106 1.348 . S
C1104 C1107 1.356 . S
C1104 O1134 1.325 . S
N1105 C1108 1.314 . S
N1105 C1109 1.279 . S
C1106 C1104 1.348 . S
C1106 C1108 1.353 . S
C1106 H1148 0.929 . S
C1107 C1104 1.356 . S
C1107 C1109 1.358 . S
C1107 H1149 0.930 . S
C1108 N1105 1.314 . S
C1108 C1106 1.353 . S
C1108 H1150 0.930 . S
C1109 N1105 1.279 . S
C1109 C1107 1.358 . S
C1109 H1151 0.930 . S
C1110 C1111 1.348 . S
C1110 C1112 1.356 1_455 S
C1110 O1135 1.325 . S
C1111 C1110 1.348 . S
C1111 C1113 1.353 . S
C1111 H1152 0.929 . S
C1112 C1110 1.356 1_655 S
C1112 C1114 1.358 . S
C1112 H1153 0.930 . S
C1113 C1111 1.353 . S
C1113 N1115 1.314 1_455 S
C1113 H1154 0.930 . S
C1114 C1112 1.358 . S
C1114 N1115 1.279 . S
C1114 H1155 0.930 . S
N1115 C1113 1.314 1_655 S
N1115 C1114 1.279 . S
C1116 C1118 1.353 . S
C1116 N1119 1.314 . S
C1116 H1122 0.930 . S
C1117 N1119 1.279 . S
C1117 C1120 1.358 . S
C1117 H1123 0.930 . S
C1118 C1116 1.353 . S
C1118 C1121 1.348 . S
C1118 H1156 0.929 . S
N1119 Li1074 1.990 . S
N1119 C1116 1.314 . S
N1119 C1117 1.279 . S
C1120 C1117 1.358 . S
C1120 C1121 1.356 . S
C1120 H1157 0.930 . S
C1121 C1118 1.348 . S
C1121 C1120 1.356 . S
H1122 C1116 0.930 . S
H1123 C1117 0.930 . S
C1124 N1125 1.314 . S
C1124 C1126 1.353 . S
C1124 H1130 0.930 . S
N1125 Li1075 1.990 1_655 S
N1125 C1124 1.314 . S
N1125 C1128 1.276 1_655 S
C1126 C1124 1.353 . S
C1126 C1129 1.348 . S
C1126 H1158 0.929 . S
C1127 C1128 1.358 1_655 S
C1127 C1129 1.356 . S
C1127 H1159 0.930 . S
C1128 N1125 1.276 1_455 S
C1128 C1127 1.358 1_455 S
C1128 H1131 0.937 . S
C1129 C1126 1.348 . S
C1129 C1127 1.356 . S
H1130 C1124 0.930 . S
H1131 C1128 0.937 . S
O1132 Li1072 1.956 . S
O1132 Li1073 1.970 1_455 S
O1132 Li1074 1.961 . S
O1132 C1076 1.325 . S
O1133 Li1072 1.970 1_655 S
O1133 Li1073 1.956 . S
O1133 Li1075 1.961 1_655 S
O1133 C1082 1.325 . S
O1134 Li1072 1.961 . S
O1134 Li1074 1.956 . S
O1134 Li1075 1.970 . S
O1134 C1104 1.325 . S
O1135 Li1073 1.961 1_455 S
O1135 Li1074 1.970 . S
O1135 Li1075 1.956 . S
O1135 C1110 1.325 . S
H1136 C1078 0.929 1_655 S
H1137 C1079 0.930 . S
H1138 C1080 0.930 1_655 S
H1139 C1081 0.930 . S
H1140 C1083 0.930 . S
H1141 C1085 0.929 . S
H1142 C1086 0.930 . S
H1143 C1087 0.930 . S
H1144 C1090 0.930 . S
H1145 C1093 0.929 . S
H1146 C1098 0.929 . S
H1147 C1099 0.930 . S
H1148 C1106 0.929 . S
H1149 C1107 0.930 . S
H1150 C1108 0.930 . S
H1151 C1109 0.930 . S
H1152 C1111 0.929 . S
H1153 C1112 0.930 . S
H1154 C1113 0.930 . S
H1155 C1114 0.930 . S
H1156 C1118 0.929 . S
H1157 C1120 0.930 . S
H1158 C1126 0.929 . S
H1159 C1127 0.930 . S
Li1160 N1177 1.990 . S
Li1160 O1220 1.956 . S
Li1160 O1221 1.970 . S
Li1160 O1222 1.961 . S
Li1161 N1185 1.990 . S
Li1161 O1220 1.970 . S
Li1161 O1221 1.956 . S
Li1161 O1223 1.961 . S
Li1162 N1207 1.990 . S
Li1162 O1220 1.961 . S
Li1162 O1222 1.956 . S
Li1162 O1223 1.970 . S
Li1163 N1213 1.990 . S
Li1163 O1221 1.961 . S
Li1163 O1222 1.970 . S
Li1163 O1223 1.956 . S
C1164 C1166 1.348 . S
C1164 C1167 1.356 . S
C1164 O1220 1.325 . S
N1165 C1168 1.314 . S
N1165 C1169 1.279 . S
C1166 C1164 1.348 . S
C1166 C1168 1.353 . S
C1166 H1224 0.929 . S
C1167 C1164 1.356 . S
C1167 C1169 1.358 . S
C1167 H1225 0.930 . S
C1168 N1165 1.314 . S
C1168 C1166 1.353 . S
C1168 H1226 0.930 . S
C1169 N1165 1.279 . S
C1169 C1167 1.358 . S
C1169 H1227 0.930 . S
C1170 C1173 1.348 . S
C1170 C1174 1.356 . S
C1170 O1221 1.325 . S
C1171 N1172 1.279 . S
C1171 C1174 1.358 . S
C1171 H1228 0.930 . S
N1172 C1171 1.279 . S
N1172 C1175 1.314 . S
C1173 C1170 1.348 . S
C1173 C1175 1.353 . S
C1173 H1229 0.929 . S
C1174 C1170 1.356 . S
C1174 C1171 1.358 . S
C1174 H1230 0.930 . S
C1175 N1172 1.314 . S
C1175 C1173 1.353 . S
C1175 H1231 0.930 . S
C1176 N1177 1.314 . S
C1176 C1181 1.353 . S
C1176 H1182 0.930 . S
N1177 Li1160 1.990 . S
N1177 C1176 1.314 . S
N1177 C1179 1.279 . S
C1178 C1179 1.358 . S
C1178 C1180 1.356 . S
C1178 H1232 0.930 . S
C1179 N1177 1.279 . S
C1179 C1178 1.358 . S
C1179 H1183 0.930 . S
C1180 C1178 1.356 . S
C1180 C1181 1.348 . S
C1181 C1176 1.353 . S
C1181 C1180 1.348 . S
C1181 H1233 0.929 . S
H1182 C1176 0.930 . S
H1183 C1179 0.930 . S
C1184 N1185 1.314 . S
C1184 C1186 1.353 . S
C1184 H1190 0.930 . S
N1185 Li1161 1.990 . S
N1185 C1184 1.314 . S
N1185 C1188 1.279 . S
C1186 C1184 1.353 . S
C1186 C1189 1.348 . S
C1186 H1234 0.929 . S
C1187 C1188 1.358 . S
C1187 C1189 1.356 . S
C1187 H1235 0.930 . S
C1188 N1185 1.279 . S
C1188 C1187 1.358 . S
C1188 H1191 0.930 . S
C1189 C1186 1.348 . S
C1189 C1187 1.356 . S
H1190 C1184 0.930 . S
H1191 C1188 0.930 . S
C1192 C1194 1.348 . S
C1192 C1195 1.356 . S
C1192 O1222 1.325 . S
N1193 C1196 1.314 . S
N1193 C1197 1.279 . S
C1194 C1192 1.348 . S
C1194 C1196 1.353 . S
C1194 H1236 0.929 . S
C1195 C1192 1.356 . S
C1195 C1197 1.358 . S
C1195 H1237 0.930 . S
C1196 N1193 1.314 . S
C1196 C1194 1.353 . S
C1196 H1238 0.930 . S
C1197 N1193 1.279 . S
C1197 C1195 1.358 . S
C1197 H1239 0.930 . S
C1198 C1199 1.348 . S
C1198 C1200 1.356 . S
C1198 O1223 1.325 . S
C1199 C1198 1.348 . S
C1199 C1201 1.353 . S
C1199 H1240 0.929 . S
C1200 C1198 1.356 . S
C1200 C1202 1.358 . S
C1200 H1241 0.930 . S
C1201 C1199 1.353 . S
C1201 N1203 1.314 . S
C1201 H1242 0.930 . S
C1202 C1200 1.358 . S
C1202 N1203 1.279 . S
C1202 H1243 0.930 . S
N1203 C1201 1.314 . S
N1203 C1202 1.279 . S
C1204 C1206 1.353 . S
C1204 N1207 1.314 . S
C1204 H1210 0.930 . S
C1205 N1207 1.279 . S
C1205 C1208 1.358 . S
C1205 H1211 0.930 . S
C1206 C1204 1.353 . S
C1206 C1209 1.348 . S
C1206 H1244 0.929 . S
N1207 Li1162 1.990 . S
N1207 C1204 1.314 . S
N1207 C1205 1.279 . S
C1208 C1205 1.358 . S
C1208 C1209 1.356 . S
C1208 H1245 0.930 . S
C1209 C1206 1.348 . S
C1209 C1208 1.356 . S
H1210 C1204 0.930 . S
H1211 C1205 0.930 . S
C1212 N1213 1.314 . S
C1212 C1214 1.353 . S
C1212 H1218 0.930 . S
N1213 Li1163 1.990 . S
N1213 C1212 1.314 . S
N1213 C1216 1.279 . S
C1214 C1212 1.353 . S
C1214 C1217 1.348 . S
C1214 H1246 0.929 . S
C1215 C1216 1.358 . S
C1215 C1217 1.356 . S
C1215 H1247 0.930 . S
C1216 N1213 1.279 . S
C1216 C1215 1.358 . S
C1216 H1219 0.930 . S
C1217 C1214 1.348 . S
C1217 C1215 1.356 . S
H1218 C1212 0.930 . S
H1219 C1216 0.930 . S
O1220 Li1160 1.956 . S
O1220 Li1161 1.970 . S
O1220 Li1162 1.961 . S
O1220 C1164 1.325 . S
O1221 Li1160 1.970 . S
O1221 Li1161 1.956 . S
O1221 Li1163 1.961 . S
O1221 C1170 1.325 . S
O1222 Li1160 1.961 . S
O1222 Li1162 1.956 . S
O1222 Li1163 1.970 . S
O1222 C1192 1.325 . S
O1223 Li1161 1.961 . S
O1223 Li1162 1.970 . S
O1223 Li1163 1.956 . S
O1223 C1198 1.325 . S
H1224 C1166 0.929 . S
H1225 C1167 0.930 . S
H1226 C1168 0.930 . S
H1227 C1169 0.930 . S
H1228 C1171 0.930 . S
H1229 C1173 0.929 . S
H1230 C1174 0.930 . S
H1231 C1175 0.930 . S
H1232 C1178 0.930 . S
H1233 C1181 0.929 . S
H1234 C1186 0.929 . S
H1235 C1187 0.930 . S
H1236 C1194 0.929 . S
H1237 C1195 0.930 . S
H1238 C1196 0.930 . S
H1239 C1197 0.930 . S
H1240 C1199 0.929 . S
H1241 C1200 0.930 . S
H1242 C1201 0.930 . S
H1243 C1202 0.930 . S
H1244 C1206 0.929 . S
H1245 C1208 0.930 . S
H1246 C1214 0.929 . S
H1247 C1215 0.930 . S
C1248 C1249 1.387 . S
C1248 H1252 0.950 . S
C1248 C1257 1.390 . S
C1249 C1248 1.387 . S
C1249 C1251 1.387 . S
H1250 C1257 0.950 . S
C1251 C1249 1.387 . S
C1251 C1253 1.390 . S
C1251 H1255 0.950 . S
H1252 C1248 0.950 . S
C1253 C1251 1.390 . S
C1253 C1254 1.387 . S
C1253 H1256 0.950 . S
C1254 C1253 1.387 . S
C1254 C1257 1.387 . S
H1255 C1251 0.950 . S
H1256 C1253 0.950 . S
C1257 C1248 1.390 . S
C1257 H1250 0.950 . S
C1257 C1254 1.387 . S
C1258 C1259 1.387 . S
C1258 H1262 0.950 . S
C1258 C1267 1.390 . S
C1259 C1258 1.387 . S
C1259 C1261 1.387 . S
H1260 C1267 0.950 . S
C1261 C1259 1.387 . S
C1261 C1263 1.390 . S
C1261 H1265 0.950 . S
H1262 C1258 0.950 . S
C1263 C1261 1.390 . S
C1263 C1264 1.387 . S
C1263 H1266 0.950 . S
C1264 C1263 1.387 . S
C1264 C1267 1.387 . S
H1265 C1261 0.950 . S
H1266 C1263 0.950 . S
C1267 C1258 1.390 . S
C1267 H1260 0.950 . S
C1267 C1264 1.387 . S
C1268 C1269 1.387 . S
C1268 H1272 0.950 . S
C1268 C1277 1.390 . S
C1269 C1268 1.387 . S
C1269 C1271 1.387 . S
H1270 C1277 0.950 . S
C1271 C1269 1.387 . S
C1271 C1273 1.390 . S
C1271 H1275 0.950 . S
H1272 C1268 0.950 . S
C1273 C1271 1.390 . S
C1273 C1274 1.387 . S
C1273 H1276 0.950 . S
C1274 C1273 1.387 . S
C1274 C1277 1.387 . S
H1275 C1271 0.950 . S
H1276 C1273 0.950 . S
C1277 C1268 1.390 . S
C1277 H1270 0.950 . S
C1277 C1274 1.387 . S
C1278 C1279 1.387 . S
C1278 H1282 0.950 . S
C1278 C1287 1.390 . S
C1279 C1278 1.387 . S
C1279 C1281 1.387 1_565 S
H1280 C1287 0.950 . S
C1281 C1279 1.387 1_545 S
C1281 C1283 1.390 . S
C1281 H1285 0.950 . S
H1282 C1278 0.950 . S
C1283 C1281 1.390 . S
C1283 C1284 1.387 . S
C1283 H1286 0.950 . S
C1284 C1283 1.387 . S
C1284 C1287 1.387 1_545 S
H1285 C1281 0.950 . S
H1286 C1283 0.950 . S
C1287 C1278 1.390 . S
C1287 H1280 0.950 . S
C1287 C1284 1.387 1_565 S
C1288 C1289 1.387 . S
C1288 H1292 0.950 . S
C1288 C1297 1.390 . S
C1289 C1288 1.387 . S
C1289 C1291 1.387 . S
H1290 C1297 0.950 . S
C1291 C1289 1.387 . S
C1291 C1293 1.390 . S
C1291 H1295 0.950 . S
H1292 C1288 0.950 . S
C1293 C1291 1.390 . S
C1293 C1294 1.387 . S
C1293 H1296 0.950 . S
C1294 C1293 1.387 . S
C1294 C1297 1.387 . S
H1295 C1291 0.950 . S
H1296 C1293 0.950 . S
C1297 C1288 1.390 . S
C1297 H1290 0.950 . S
C1297 C1294 1.387 . S
C1298 C1299 1.387 . S
C1298 H1302 0.950 . S
C1298 C1307 1.390 . S
C1299 C1298 1.387 . S
C1299 C1301 1.387 . S
H1300 C1307 0.950 . S
C1301 C1299 1.387 . S
C1301 C1303 1.390 . S
C1301 H1305 0.950 . S
H1302 C1298 0.950 . S
C1303 C1301 1.390 . S
C1303 C1304 1.387 . S
C1303 H1306 0.950 . S
C1304 C1303 1.387 . S
C1304 C1307 1.387 . S
H1305 C1301 0.950 . S
H1306 C1303 0.950 . S
C1307 C1298 1.390 . S
C1307 H1300 0.950 . S
C1307 C1304 1.387 . S
C1308 C1309 1.387 . S
C1308 H1312 0.950 . S
C1308 C1317 1.390 . S
C1309 C1308 1.387 . S
C1309 C1311 1.387 . S
H1310 C1317 0.950 . S
C1311 C1309 1.387 . S
C1311 C1313 1.390 . S
C1311 H1315 0.950 . S
H1312 C1308 0.950 . S
C1313 C1311 1.390 . S
C1313 C1314 1.387 . S
C1313 H1316 0.950 . S
C1314 C1313 1.387 . S
C1314 C1317 1.387 . S
H1315 C1311 0.950 . S
H1316 C1313 0.950 . S
C1317 C1308 1.390 . S
C1317 H1310 0.950 . S
C1317 C1314 1.387 . S
C1318 C1319 1.387 1_545 S
C1318 H1322 0.950 . S
C1318 C1327 1.390 . S
C1319 C1318 1.387 1_565 S
C1319 C1321 1.387 . S
H1320 C1327 0.950 . S
C1321 C1319 1.387 . S
C1321 C1323 1.390 . S
C1321 H1325 0.950 . S
H1322 C1318 0.950 . S
C1323 C1321 1.390 . S
C1323 C1324 1.387 . S
C1323 H1326 0.950 . S
C1324 C1323 1.387 . S
C1324 C1327 1.387 1_565 S
H1325 C1321 0.950 . S
H1326 C1323 0.950 . S
C1327 C1318 1.390 . S
C1327 H1320 0.950 . S
C1327 C1324 1.387 1_545 S
C1328 C1329 1.387 . S
C1328 H1332 0.950 . S
C1328 C1337 1.390 . S
C1329 C1328 1.387 . S
C1329 C1331 1.387 . S
H1330 C1337 0.950 . S
C1331 C1329 1.387 . S
C1331 C1333 1.390 . S
C1331 H1335 0.950 . S
H1332 C1328 0.950 . S
C1333 C1331 1.390 . S
C1333 C1334 1.387 . S
C1333 H1336 0.950 . S
C1334 C1333 1.387 . S
C1334 C1337 1.387 . S
H1335 C1331 0.950 . S
H1336 C1333 0.950 . S
C1337 C1328 1.390 . S
C1337 H1330 0.950 . S
C1337 C1334 1.387 . S
C1338 C1339 1.387 . S
C1338 H1342 0.950 . S
C1338 C1347 1.390 . S
C1339 C1338 1.387 . S
C1339 C1341 1.387 . S
H1340 C1347 0.950 . S
C1341 C1339 1.387 . S
C1341 C1343 1.390 . S
C1341 H1345 0.950 . S
H1342 C1338 0.950 . S
C1343 C1341 1.390 . S
C1343 C1344 1.387 . S
C1343 H1346 0.950 . S
C1344 C1343 1.387 . S
C1344 C1347 1.387 . S
H1345 C1341 0.950 . S
H1346 C1343 0.950 . S
C1347 C1338 1.390 . S
C1347 H1340 0.950 . S
C1347 C1344 1.387 . S
C1348 C1349 1.387 . S
C1348 H1352 0.950 . S
C1348 C1357 1.390 . S
C1349 C1348 1.387 . S
C1349 C1351 1.387 . S
H1350 C1357 0.950 . S
C1351 C1349 1.387 . S
C1351 C1353 1.390 . S
C1351 H1355 0.950 . S
H1352 C1348 0.950 . S
C1353 C1351 1.390 . S
C1353 C1354 1.387 . S
C1353 H1356 0.950 . S
C1354 C1353 1.387 . S
C1354 C1357 1.387 . S
H1355 C1351 0.950 . S
H1356 C1353 0.950 . S
C1357 C1348 1.390 . S
C1357 H1350 0.950 . S
C1357 C1354 1.387 . S
C1358 C1359 1.387 . S
C1358 H1362 0.950 . S
C1358 C1367 1.390 . S
C1359 C1358 1.387 . S
C1359 C1361 1.387 . S
H1360 C1367 0.950 . S
C1361 C1359 1.387 . S
C1361 C1363 1.390 . S
C1361 H1365 0.950 . S
H1362 C1358 0.950 . S
C1363 C1361 1.390 . S
C1363 C1364 1.387 . S
C1363 H1366 0.950 . S
C1364 C1363 1.387 . S
C1364 C1367 1.387 . S
H1365 C1361 0.950 . S
H1366 C1363 0.950 . S
C1367 C1358 1.390 . S
C1367 H1360 0.950 . S
C1367 C1364 1.387 . S
C1368 C1369 1.387 . S
C1368 H1372 0.950 . S
C1368 C1377 1.390 . S
C1369 C1368 1.387 . S
C1369 C1371 1.387 . S
H1370 C1377 0.950 . S
C1371 C1369 1.387 . S
C1371 C1373 1.390 . S
C1371 H1375 0.950 . S
H1372 C1368 0.950 . S
C1373 C1371 1.390 . S
C1373 C1374 1.387 . S
C1373 H1376 0.950 . S
C1374 C1373 1.387 . S
C1374 C1377 1.387 . S
H1375 C1371 0.950 . S
H1376 C1373 0.950 . S
C1377 C1368 1.390 . S
C1377 H1370 0.950 . S
C1377 C1374 1.387 . S
C1378 C1379 1.387 . S
C1378 H1382 0.950 . S
C1378 C1387 1.390 . S
C1379 C1378 1.387 . S
C1379 C1381 1.387 . S
H1380 C1387 0.950 . S
C1381 C1379 1.387 . S
C1381 C1383 1.390 . S
C1381 H1385 0.950 . S
H1382 C1378 0.950 . S
C1383 C1381 1.390 . S
C1383 C1384 1.387 . S
C1383 H1386 0.950 1_455 S
C1384 C1383 1.387 . S
C1384 C1387 1.387 . S
H1385 C1381 0.950 . S
H1386 C1383 0.950 1_655 S
C1387 C1378 1.390 . S
C1387 H1380 0.950 . S
C1387 C1384 1.387 . S
C1388 C1389 1.387 . S
C1388 H1392 0.950 . S
C1388 C1397 1.390 . S
C1389 C1388 1.387 . S
C1389 C1391 1.387 . S
H1390 C1397 0.950 . S
C1391 C1389 1.387 . S
C1391 C1393 1.390 . S
C1391 H1395 0.950 . S
H1392 C1388 0.950 . S
C1393 C1391 1.390 . S
C1393 C1394 1.387 . S
C1393 H1396 0.950 . S
C1394 C1393 1.387 . S
C1394 C1397 1.387 . S
H1395 C1391 0.950 . S
H1396 C1393 0.950 . S
C1397 C1388 1.390 . S
C1397 H1390 0.950 . S
C1397 C1394 1.387 . S
C1398 C1399 1.387 1_455 S
C1398 H1402 0.950 . S
C1398 C1407 1.390 . S
C1399 C1398 1.387 1_655 S
C1399 C1401 1.387 . S
H1400 C1407 0.950 . S
C1401 C1399 1.387 . S
C1401 C1403 1.390 . S
C1401 H1405 0.950 . S
H1402 C1398 0.950 . S
C1403 C1401 1.390 . S
C1403 C1404 1.387 . S
C1403 H1406 0.950 . S
C1404 C1403 1.387 . S
C1404 C1407 1.387 1_655 S
H1405 C1401 0.950 . S
H1406 C1403 0.950 . S
C1407 C1398 1.390 . S
C1407 H1400 0.950 . S
C1407 C1404 1.387 1_455 S
C1408 C1409 1.387 . S
C1408 H1412 0.950 . S
C1408 C1417 1.390 . S
C1409 C1408 1.387 . S
C1409 C1411 1.387 . S
H1410 C1417 0.950 . S
C1411 C1409 1.387 . S
C1411 C1413 1.390 . S
C1411 H1415 0.950 . S
H1412 C1408 0.950 . S
C1413 C1411 1.390 . S
C1413 C1414 1.387 . S
C1413 H1416 0.950 . S
C1414 C1413 1.387 . S
C1414 C1417 1.387 . S
H1415 C1411 0.950 . S
H1416 C1413 0.950 . S
C1417 C1408 1.390 . S
C1417 H1410 0.950 . S
C1417 C1414 1.387 . S
C1418 C1419 1.387 . S
C1418 H1422 0.950 . S
C1418 C1427 1.390 . S
C1419 C1418 1.387 . S
C1419 C1421 1.387 . S
H1420 C1427 0.950 . S
C1421 C1419 1.387 . S
C1421 C1423 1.390 . S
C1421 H1425 0.950 . S
H1422 C1418 0.950 . S
C1423 C1421 1.390 . S
C1423 C1424 1.387 . S
C1423 H1426 0.950 . S
C1424 C1423 1.387 . S
C1424 C1427 1.387 . S
H1425 C1421 0.950 . S
H1426 C1423 0.950 . S
C1427 C1418 1.390 . S
C1427 H1420 0.950 . S
C1427 C1424 1.387 . S
C1428 C1429 1.387 1_544 S
C1428 H1432 0.950 . S
C1428 C1437 1.390 1_545 S
C1429 C1428 1.387 1_566 S
C1429 C1431 1.387 . S
H1430 C1437 0.950 . S
C1431 C1429 1.387 . S
C1431 C1433 1.390 . S
C1431 H1435 0.950 . S
H1432 C1428 0.950 . S
C1433 C1431 1.390 . S
C1433 C1434 1.387 . S
C1433 H1436 0.950 . S
C1434 C1433 1.387 . S
C1434 C1437 1.387 1_556 S
H1435 C1431 0.950 . S
H1436 C1433 0.950 . S
C1437 C1428 1.390 1_565 S
C1437 H1430 0.950 . S
C1437 C1434 1.387 1_554 S
C1438 C1439 1.387 . S
C1438 H1442 0.950 . S
C1438 C1447 1.390 . S
C1439 C1438 1.387 . S
C1439 C1441 1.387 . S
H1440 C1447 0.950 . S
C1441 C1439 1.387 . S
C1441 C1443 1.390 . S
C1441 H1445 0.950 . S
H1442 C1438 0.950 . S
C1443 C1441 1.390 . S
C1443 C1444 1.387 . S
C1443 H1446 0.950 . S
C1444 C1443 1.387 . S
C1444 C1447 1.387 . S
H1445 C1441 0.950 . S
H1446 C1443 0.950 . S
C1447 C1438 1.390 . S
C1447 H1440 0.950 . S
C1447 C1444 1.387 . S
C1448 C1449 1.387 . S
C1448 H1452 0.950 . S
C1448 C1457 1.390 . S
C1449 C1448 1.387 . S
C1449 C1451 1.387 . S
H1450 C1457 0.950 . S
C1451 C1449 1.387 . S
C1451 C1453 1.390 . S
C1451 H1455 0.950 . S
H1452 C1448 0.950 . S
C1453 C1451 1.390 . S
C1453 C1454 1.387 . S
C1453 H1456 0.950 . S
C1454 C1453 1.387 . S
C1454 C1457 1.387 . S
H1455 C1451 0.950 . S
H1456 C1453 0.950 . S
C1457 C1448 1.390 . S
C1457 H1450 0.950 . S
C1457 C1454 1.387 . S
C1458 C1459 1.387 . S
C1458 H1462 0.950 . S
C1458 C1467 1.390 . S
C1459 C1458 1.387 . S
C1459 C1461 1.387 . S
H1460 C1467 0.950 . S
C1461 C1459 1.387 . S
C1461 C1463 1.390 . S
C1461 H1465 0.950 . S
H1462 C1458 0.950 . S
C1463 C1461 1.390 . S
C1463 C1464 1.387 . S
C1463 H1466 0.950 . S
C1464 C1463 1.387 . S
C1464 C1467 1.387 . S
H1465 C1461 0.950 . S
H1466 C1463 0.950 . S
C1467 C1458 1.390 . S
C1467 H1460 0.950 . S
C1467 C1464 1.387 . S
C1468 C1469 1.387 . S
C1468 H1472 0.950 . S
C1468 C1477 1.390 . S
C1469 C1468 1.387 . S
C1469 C1471 1.387 . S
H1470 C1477 0.950 . S
C1471 C1469 1.387 . S
C1471 C1473 1.390 . S
C1471 H1475 0.950 . S
H1472 C1468 0.950 . S
C1473 C1471 1.390 . S
C1473 C1474 1.387 . S
C1473 H1476 0.950 . S
C1474 C1473 1.387 . S
C1474 C1477 1.387 . S
H1475 C1471 0.950 . S
H1476 C1473 0.950 . S
C1477 C1468 1.390 . S
C1477 H1470 0.950 . S
C1477 C1474 1.387 . S
C1478 C1479 1.387 . S
C1478 H1482 0.950 . S
C1478 C1487 1.390 . S
C1479 C1478 1.387 . S
C1479 C1481 1.387 . S
H1480 C1487 0.950 . S
C1481 C1479 1.387 . S
C1481 C1483 1.390 . S
C1481 H1485 0.950 . S
H1482 C1478 0.950 . S
C1483 C1481 1.390 . S
C1483 C1484 1.387 . S
C1483 H1486 0.950 . S
C1484 C1483 1.387 . S
C1484 C1487 1.387 . S
H1485 C1481 0.950 . S
H1486 C1483 0.950 . S
C1487 C1478 1.390 . S
C1487 H1480 0.950 . S
C1487 C1484 1.387 . S
C1488 C1489 1.387 . S
C1488 H1492 0.950 . S
C1488 C1497 1.390 . S
C1489 C1488 1.387 . S
C1489 C1491 1.387 . S
H1490 C1497 0.950 . S
C1491 C1489 1.387 . S
C1491 C1493 1.390 . S
C1491 H1495 0.950 . S
H1492 C1488 0.950 . S
C1493 C1491 1.390 . S
C1493 C1494 1.387 . S
C1493 H1496 0.950 . S
C1494 C1493 1.387 . S
C1494 C1497 1.387 . S
H1495 C1491 0.950 . S
H1496 C1493 0.950 . S
C1497 C1488 1.390 . S
C1497 H1490 0.950 . S
C1497 C1494 1.387 . S
C1498 C1499 1.387 . S
C1498 H1502 0.950 . S
C1498 C1507 1.390 . S
C1499 C1498 1.387 . S
C1499 C1501 1.387 1_545 S
H1500 C1507 0.950 . S
C1501 C1499 1.387 1_565 S
C1501 C1503 1.390 . S
C1501 H1505 0.950 . S
H1502 C1498 0.950 . S
C1503 C1501 1.390 . S
C1503 C1504 1.387 1_565 S
C1503 H1506 0.950 . S
C1504 C1503 1.387 1_545 S
C1504 C1507 1.387 . S
H1505 C1501 0.950 . S
H1506 C1503 0.950 . S
C1507 C1498 1.390 . S
C1507 H1500 0.950 . S
C1507 C1504 1.387 . S
C1508 C1509 1.387 . S
C1508 H1512 0.950 . S
C1508 C1517 1.390 . S
C1509 C1508 1.387 . S
C1509 C1511 1.387 . S
H1510 C1517 0.950 . S
C1511 C1509 1.387 . S
C1511 C1513 1.390 . S
C1511 H1515 0.950 . S
H1512 C1508 0.950 . S
C1513 C1511 1.390 . S
C1513 C1514 1.387 . S
C1513 H1516 0.950 . S
C1514 C1513 1.387 . S
C1514 C1517 1.387 . S
H1515 C1511 0.950 . S
H1516 C1513 0.950 . S
C1517 C1508 1.390 . S
C1517 H1510 0.950 . S
C1517 C1514 1.387 . S
C1518 C1519 1.387 . S
C1518 H1522 0.950 . S
C1518 C1527 1.390 . S
C1519 C1518 1.387 . S
C1519 C1521 1.387 . S
H1520 C1527 0.950 . S
C1521 C1519 1.387 . S
C1521 C1523 1.390 . S
C1521 H1525 0.950 . S
H1522 C1518 0.950 . S
C1523 C1521 1.390 . S
C1523 C1524 1.387 . S
C1523 H1526 0.950 . S
C1524 C1523 1.387 . S
C1524 C1527 1.387 . S
H1525 C1521 0.950 . S
H1526 C1523 0.950 . S
C1527 C1518 1.390 . S
C1527 H1520 0.950 . S
C1527 C1524 1.387 . S
C1528 C1529 1.387 . S
C1528 H1532 0.950 . S
C1528 C1537 1.390 . S
C1529 C1528 1.387 . S
C1529 C1531 1.387 . S
H1530 C1537 0.950 . S
C1531 C1529 1.387 . S
C1531 C1533 1.390 . S
C1531 H1535 0.950 . S
H1532 C1528 0.950 . S
C1533 C1531 1.390 . S
C1533 C1534 1.387 . S
C1533 H1536 0.950 . S
C1534 C1533 1.387 . S
C1534 C1537 1.387 . S
H1535 C1531 0.950 . S
H1536 C1533 0.950 . S
C1537 C1528 1.390 . S
C1537 H1530 0.950 . S
C1537 C1534 1.387 . S
C1538 C1539 1.387 . S
C1538 H1542 0.950 . S
C1538 C1547 1.390 . S
C1539 C1538 1.387 . S
C1539 C1541 1.387 . S
H1540 C1547 0.950 . S
C1541 C1539 1.387 . S
C1541 C1543 1.390 . S
C1541 H1545 0.950 1_545 S
H1542 C1538 0.950 . S
C1543 C1541 1.390 . S
C1543 C1544 1.387 . S
C1543 H1546 0.950 1_545 S
C1544 C1543 1.387 . S
C1544 C1547 1.387 . S
H1545 C1541 0.950 1_565 S
H1546 C1543 0.950 1_565 S
C1547 C1538 1.390 . S
C1547 H1540 0.950 . S
C1547 C1544 1.387 . S
C1548 C1549 1.387 . S
C1548 H1552 0.950 . S
C1548 C1557 1.390 . S
C1549 C1548 1.387 . S
C1549 C1551 1.387 . S
H1550 C1557 0.950 . S
C1551 C1549 1.387 . S
C1551 C1553 1.390 . S
C1551 H1555 0.950 . S
H1552 C1548 0.950 . S
C1553 C1551 1.390 . S
C1553 C1554 1.387 . S
C1553 H1556 0.950 . S
C1554 C1553 1.387 . S
C1554 C1557 1.387 . S
H1555 C1551 0.950 . S
H1556 C1553 0.950 . S
C1557 C1548 1.390 . S
C1557 H1550 0.950 . S
C1557 C1554 1.387 . S
C1558 C1559 1.387 . S
C1558 H1562 0.950 . S
C1558 C1567 1.390 . S
C1559 C1558 1.387 . S
C1559 C1561 1.387 1_455 S
H1560 C1567 0.950 . S
C1561 C1559 1.387 1_655 S
C1561 C1563 1.390 1_655 S
C1561 H1565 0.951 . S
H1562 C1558 0.950 . S
C1563 C1561 1.390 1_455 S
C1563 C1564 1.387 . S
C1563 H1566 0.950 . S
C1564 C1563 1.387 . S
C1564 C1567 1.387 . S
H1565 C1561 0.951 . S
H1566 C1563 0.950 . S
C1567 C1558 1.390 . S
C1567 H1560 0.950 . S
C1567 C1564 1.387 . S
C1568 C1569 1.387 . S
C1568 H1572 0.950 . S
C1568 C1577 1.390 . S
C1569 C1568 1.387 . S
C1569 C1571 1.387 . S
H1570 C1577 0.950 . S
C1571 C1569 1.387 . S
C1571 C1573 1.390 . S
C1571 H1575 0.950 . S
H1572 C1568 0.950 . S
C1573 C1571 1.390 . S
C1573 C1574 1.387 . S
C1573 H1576 0.950 . S
C1574 C1573 1.387 . S
C1574 C1577 1.387 . S
H1575 C1571 0.950 . S
H1576 C1573 0.950 . S
C1577 C1568 1.390 . S
C1577 H1570 0.950 . S
C1577 C1574 1.387 . S
C1578 C1579 1.387 . S
C1578 H1582 0.950 . S
C1578 C1587 1.390 . S
C1579 C1578 1.387 . S
C1579 C1581 1.387 1_655 S
H1580 C1587 0.950 . S
C1581 C1579 1.387 1_455 S
C1581 C1583 1.390 . S
C1581 H1585 0.950 . S
H1582 C1578 0.950 . S
C1583 C1581 1.390 . S
C1583 C1584 1.387 1_455 S
C1583 H1586 0.950 . S
C1584 C1583 1.387 1_655 S
C1584 C1587 1.387 . S
H1585 C1581 0.950 . S
H1586 C1583 0.950 . S
C1587 C1578 1.390 . S
C1587 H1580 0.950 . S
C1587 C1584 1.387 . S
C1588 C1589 1.387 . S
C1588 H1592 0.950 . S
C1588 C1597 1.390 . S
C1589 C1588 1.387 . S
C1589 C1591 1.387 . S
H1590 C1597 0.950 . S
C1591 C1589 1.387 . S
C1591 C1593 1.390 . S
C1591 H1595 0.950 . S
H1592 C1588 0.950 . S
C1593 C1591 1.390 . S
C1593 C1594 1.387 . S
C1593 H1596 0.950 . S
C1594 C1593 1.387 . S
C1594 C1597 1.387 . S
H1595 C1591 0.950 . S
H1596 C1593 0.950 . S
C1597 C1588 1.390 . S
C1597 H1590 0.950 . S
C1597 C1594 1.387 . S
C1598 C1599 1.387 . S
C1598 H1602 0.953 . S
C1598 C1607 1.390 . S
C1599 C1598 1.387 . S
C1599 C1601 1.387 . S
H1600 C1607 0.950 1_655 S
C1601 C1599 1.387 . S
C1601 C1603 1.390 . S
C1601 H1605 0.950 . S
H1602 C1598 0.953 . S
C1603 C1601 1.390 . S
C1603 C1604 1.387 . S
C1603 H1606 0.950 . S
C1604 C1603 1.387 . S
C1604 C1607 1.387 . S
H1605 C1601 0.950 . S
H1606 C1603 0.950 . S
C1607 C1598 1.390 . S
C1607 H1600 0.950 1_455 S
C1607 C1604 1.387 . S
C1608 C1609 1.387 . S
C1608 H1612 0.950 . S
C1608 C1617 1.390 . S
C1609 C1608 1.387 . S
C1609 C1611 1.387 . S
H1610 C1617 0.950 . S
C1611 C1609 1.387 . S
C1611 C1613 1.390 . S
C1611 H1615 0.950 . S
H1612 C1608 0.950 . S
C1613 C1611 1.390 . S
C1613 C1614 1.387 . S
C1613 H1616 0.950 . S
C1614 C1613 1.387 . S
C1614 C1617 1.387 . S
H1615 C1611 0.950 . S
H1616 C1613 0.950 . S
C1617 C1608 1.390 . S
C1617 H1610 0.950 . S
C1617 C1614 1.387 . S
C1618 C1619 1.387 . S
C1618 H1622 0.950 . S
C1618 C1627 1.390 . S
C1619 C1618 1.387 . S
C1619 C1621 1.387 . S
H1620 C1627 0.950 . S
C1621 C1619 1.387 . S
C1621 C1623 1.390 . S
C1621 H1625 0.931 1_554 S
H1622 C1618 0.950 . S
C1623 C1621 1.390 . S
C1623 C1624 1.387 . S
C1623 H1626 0.950 . S
C1624 C1623 1.387 . S
C1624 C1627 1.387 . S
H1625 C1621 0.931 1_556 S
H1626 C1623 0.950 . S
C1627 C1618 1.390 . S
C1627 H1620 0.950 . S
C1627 C1624 1.387 . S
C1628 C1629 1.387 . S
C1628 H1632 0.950 . S
C1628 C1637 1.390 . S
C1629 C1628 1.387 . S
C1629 C1631 1.387 . S
H1630 C1637 0.950 . S
C1631 C1629 1.387 . S
C1631 C1633 1.390 . S
C1631 H1635 0.950 . S
H1632 C1628 0.950 . S
C1633 C1631 1.390 . S
C1633 C1634 1.387 . S
C1633 H1636 0.950 . S
C1634 C1633 1.387 . S
C1634 C1637 1.387 . S
H1635 C1631 0.950 . S
H1636 C1633 0.950 . S
C1637 C1628 1.390 . S
C1637 H1630 0.950 . S
C1637 C1634 1.387 . S
C1638 C1639 1.387 . S
C1638 H1642 0.950 . S
C1638 C1647 1.390 . S
C1639 C1638 1.387 . S
C1639 C1641 1.387 . S
H1640 C1647 0.950 . S
C1641 C1639 1.387 . S
C1641 C1643 1.390 . S
C1641 H1645 0.950 . S
H1642 C1638 0.950 . S
C1643 C1641 1.390 . S
C1643 C1644 1.387 . S
C1643 H1646 0.950 . S
C1644 C1643 1.387 . S
C1644 C1647 1.387 . S
H1645 C1641 0.950 . S
H1646 C1643 0.950 . S
C1647 C1638 1.390 . S
C1647 H1640 0.950 . S
C1647 C1644 1.387 . S
C1648 C1649 1.387 . S
C1648 H1652 0.950 . S
C1648 C1657 1.390 . S
C1649 C1648 1.387 . S
C1649 C1651 1.387 . S
H1650 C1657 0.950 . S
C1651 C1649 1.387 . S
C1651 C1653 1.390 . S
C1651 H1655 0.950 . S
H1652 C1648 0.950 . S
C1653 C1651 1.390 . S
C1653 C1654 1.387 . S
C1653 H1656 0.950 . S
C1654 C1653 1.387 . S
C1654 C1657 1.387 . S
H1655 C1651 0.950 . S
H1656 C1653 0.950 . S
C1657 C1648 1.390 . S
C1657 H1650 0.950 . S
C1657 C1654 1.387 . S
C1658 C1659 1.387 . S
C1658 H1662 0.950 . S
C1658 C1667 1.390 . S
C1659 C1658 1.387 . S
C1659 C1661 1.387 . S
H1660 C1667 0.950 . S
C1661 C1659 1.387 . S
C1661 C1663 1.390 . S
C1661 H1665 0.950 . S
H1662 C1658 0.950 . S
C1663 C1661 1.390 . S
C1663 C1664 1.387 . S
C1663 H1666 0.950 . S
C1664 C1663 1.387 . S
C1664 C1667 1.387 . S
H1665 C1661 0.950 . S
H1666 C1663 0.950 . S
C1667 C1658 1.390 . S
C1667 H1660 0.950 . S
C1667 C1664 1.387 . S
C1668 C1669 1.387 . S
C1668 H1672 0.950 . S
C1668 C1677 1.390 . S
C1669 C1668 1.387 . S
C1669 C1671 1.387 . S
H1670 C1677 0.950 . S
C1671 C1669 1.387 . S
C1671 C1673 1.390 . S
C1671 H1675 0.950 . S
H1672 C1668 0.950 . S
C1673 C1671 1.390 . S
C1673 C1674 1.387 . S
C1673 H1676 0.950 . S
C1674 C1673 1.387 . S
C1674 C1677 1.387 . S
H1675 C1671 0.950 . S
H1676 C1673 0.950 . S
C1677 C1668 1.390 . S
C1677 H1670 0.950 . S
C1677 C1674 1.387 . S
C1678 C1679 1.387 . S
C1678 H1682 0.950 . S
C1678 C1687 1.390 . S
C1679 C1678 1.387 . S
C1679 C1681 1.387 . S
H1680 C1687 0.950 . S
C1681 C1679 1.387 . S
C1681 C1683 1.390 . S
C1681 H1685 0.950 . S
H1682 C1678 0.950 . S
C1683 C1681 1.390 . S
C1683 C1684 1.387 . S
C1683 H1686 0.950 . S
C1684 C1683 1.387 . S
C1684 C1687 1.387 . S
H1685 C1681 0.950 . S
H1686 C1683 0.950 . S
C1687 C1678 1.390 . S
C1687 H1680 0.950 . S
C1687 C1684 1.387 . S
C1688 C1689 1.387 . S
C1688 H1692 0.950 . S
C1688 C1697 1.390 . S
C1689 C1688 1.387 . S
C1689 C1691 1.395 . S
H1690 C1697 0.950 . S
C1691 C1689 1.395 . S
C1691 C1693 1.390 1_556 S
C1691 H1695 0.942 1_556 S
H1692 C1688 0.950 . S
C1693 C1691 1.390 1_554 S
C1693 C1694 1.387 1_554 S
C1693 H1696 0.950 . S
C1694 C1693 1.387 1_556 S
C1694 C1697 1.387 . S
H1695 C1691 0.942 1_554 S
H1696 C1693 0.950 . S
C1697 C1688 1.390 . S
C1697 H1690 0.950 . S
C1697 C1694 1.387 . S
C1698 C1699 1.387 . S
C1698 H1702 0.950 . S
C1698 C1707 1.390 . S
C1699 C1698 1.387 . S
C1699 C1701 1.387 . S
H1700 C1707 0.950 . S
C1701 C1699 1.387 . S
C1701 C1703 1.390 . S
C1701 H1705 0.950 . S
H1702 C1698 0.950 . S
C1703 C1701 1.390 . S
C1703 C1704 1.387 . S
C1703 H1706 0.950 . S
C1704 C1703 1.387 . S
C1704 C1707 1.387 . S
H1705 C1701 0.950 . S
H1706 C1703 0.950 . S
C1707 C1698 1.390 . S
C1707 H1700 0.950 . S
C1707 C1704 1.387 . S
C1708 C1709 1.387 . S
C1708 H1712 0.950 . S
C1708 C1717 1.390 . S
C1709 C1708 1.387 . S
C1709 C1711 1.387 . S
H1710 C1717 0.950 . S
C1711 C1709 1.387 . S
C1711 C1713 1.390 . S
C1711 H1715 0.950 1_554 S
H1712 C1708 0.950 . S
C1713 C1711 1.390 . S
C1713 C1714 1.387 . S
C1713 H1716 0.950 1_554 S
C1714 C1713 1.387 . S
C1714 C1717 1.387 . S
H1715 C1711 0.950 1_556 S
H1716 C1713 0.950 1_556 S
C1717 C1708 1.390 . S
C1717 H1710 0.950 . S
C1717 C1714 1.387 . S
C1718 C1719 1.387 . S
C1718 H1722 0.950 . S
C1718 C1727 1.390 . S
C1719 C1718 1.387 . S
C1719 C1721 1.387 . S
H1720 C1727 0.950 . S
C1721 C1719 1.387 . S
C1721 C1723 1.390 . S
C1721 H1725 0.950 1_564 S
H1722 C1718 0.950 . S
C1723 C1721 1.390 . S
C1723 C1724 1.387 . S
C1723 H1726 0.950 1_554 S
C1724 C1723 1.387 . S
C1724 C1727 1.387 . S
H1725 C1721 0.950 1_546 S
H1726 C1723 0.950 1_556 S
C1727 C1718 1.390 . S
C1727 H1720 0.950 . S
C1727 C1724 1.387 . S
C1254 C241 1.769 . S
C1249 C66 1.763 . S
C1264 C300 1.195 . S
C1259 C76 1.194 . S
C1269 C93 1.868 . S
C1274 C417 1.855 . S
C1284 C485 1.528 . S
C1279 C54 1.549 . S
C1294 C564 1.549 . S
C1289 C126 1.561 . S
C1304 C689 1.841 . S
C1299 C150 1.856 . S
C1309 C136 1.196 . S
C1314 C749 1.204 . S
C1324 C857 1.801 . S
C1319 C117 1.807 . S
C1329 C141 1.333 . S
C1334 C953 1.339 . S
C1344 C1013 1.352 . S
C1339 C112 1.348 . S
C1349 C124 1.549 . S
C1354 C916 1.547 . S
C1364 C1033 1.318 . S
C1359 C148 1.316 . S
C1369 C88 1.330 . S
C1374 C1101 1.328 . S
C1379 C52 1.602 . S
C1384 C1092 1.603 . S
C1389 C64 1.275 . S
C1394 C1121 1.277 . S
C1399 C78 1.243 . S
C1404 C1129 1.250 . S
C1409 C45 1.716 . S
C1414 C513 1.725 . S
C1419 C177 1.883 . S
C1424 C476 1.876 . S
C1434 C212 1.413 1_556 S
C1429 C189 1.411 1_565 S
C1444 C309 1.625 . S
C1439 C102 1.622 . S
C1449 C57 1.733 . S
C1454 C573 1.745 . S
C1464 C865 1.469 . S
C1459 C138 1.470 . S
C1474 C593 1.812 . S
C1469 C114 1.827 . S
C1484 C777 1.724 . S
C1479 C153 1.726 . S
C1494 C769 1.768 . S
C1489 C174 1.762 . S
C1499 C184 1.194 . S
C1504 C837 1.195 . S
C1509 C105 1.867 . S
C1514 C601 1.854 . S
C1524 C652 1.528 . S
C1519 C162 1.549 . S
C1529 C42 1.561 . S
C1534 C397 1.549 . S
C1544 C505 1.841 1_455 S
C1539 C6 1.856 . S
C1554 C221 1.204 . S
C1549 C16 1.196 . S
C1564 C337 1.800 . S
C1559 C33 1.806 1_455 S
C1569 C21 1.332 . S
C1574 C1041 1.338 . S
C1579 C28 1.347 . S
C1584 C925 1.352 . S
C1589 C40 1.549 . S
C1594 C1004 1.548 . S
C1599 C4 1.316 . S
C1604 C945 1.318 . S
C1614 C1189 1.328 . S
C1609 C100 1.330 . S
C1624 C1180 1.603 . S
C1619 C160 1.602 . S
C1634 C1209 1.277 . S
C1629 C172 1.274 . S
C1639 C186 1.243 1_554 S
C1644 C1217 1.250 . S
C1649 C129 1.716 . S
C1654 C681 1.725 . S
C1664 C661 1.877 . S
C1659 C69 1.883 . S
C1674 C740 1.413 . S
C1669 C81 1.411 . S
C1684 C828 1.624 . S
C1679 C90 1.622 . S
C1689 C165 1.733 . S
C1694 C388 1.745 . S
C1704 C329 1.469 . S
C1699 C18 1.470 . S
C1709 C30 1.827 . S
C1714 C425 1.812 . S
C1724 C249 1.724 . S
C1719 C9 1.726 1_565 S
