# Generated by pormake.
# Topology scu, (8,4)-cn, num edge types: 1
# Building blocks:
#     Node 0, Type 0, BuildingBlock: GIZVER_clean_sbu_0, # of connection points: 8
#     Node 1, Type 1, BuildingBlock: IZENUY_clean_linker_0, # of connection points: 4
#     Node 2, Type 1, BuildingBlock: IZENUY_clean_linker_0, # of connection points: 4
#     Edge 3, Type (0, 1), BuildingBlock: ZUJKAS_clean_linker_0, # of connection points: 2
#     Edge 4, Type (0, 1), BuildingBlock: ZUJKAS_clean_linker_0, # of connection points: 2
#     Edge 5, Type (0, 1), BuildingBlock: ZUJKAS_clean_linker_0, # of connection points: 2
#     Edge 6, Type (0, 1), BuildingBlock: ZUJKAS_clean_linker_0, # of connection points: 2
#     Edge 7, Type (0, 1), BuildingBlock: ZUJKAS_clean_linker_0, # of connection points: 2
#     Edge 8, Type (0, 1), BuildingBlock: ZUJKAS_clean_linker_0, # of connection points: 2
#     Edge 9, Type (0, 1), BuildingBlock: ZUJKAS_clean_linker_0, # of connection points: 2
#     Edge 10, Type (0, 1), BuildingBlock: ZUJKAS_clean_linker_0, # of connection points: 2
# Relax obj value: 0.123
# Max RMSD: 0.248
# Mean RMSD: 0.212
data_MOF--net-scu--node1-GIZVER_clean_sbu_0--node2-IZENUY_clean_linker_0--edge1-ZUJKAS_clean_linker_0
_symmetry_space_group_name_H-M    P1
_symmetry_Int_Tables_number       1
_symmetry_cell_setting            triclinic
loop_
_symmetry_equiv_pos_as_xyz
'x, y, z'
_cell_length_a     34.001297
_cell_length_b     34.482892
_cell_length_c     27.239551
_cell_angle_alpha  98.632766
_cell_angle_beta   82.52857
_cell_angle_gamma 108.79989
loop_
_atom_site_label
_atom_site_type_symbol
_atom_site_fract_x
_atom_site_fract_y
_atom_site_fract_z
_atom_type_partial_charge
Co0 Co 0.03846 0.9819 0.1067 0.0
Co1 Co 0.09998 0.04215 0.07769 0.0
Co2 Co 1.02472 0.0323 0.01421 0.0
O3 O 0.05721 1.00513 0.04497 0.0
H4 H 0.0684 0.98718 0.02047 0.0
O5 O 0.99223 0.05944 0.98347 0.0
Co6 Co 1.0098 0.08045 0.92042 0.0
Co7 Co 0.94848 1.02161 0.95325 0.0
H8 H 0.98178 0.07812 1.00759 0.0
O9 O 0.14652 1.02829 0.08066 0.0
O10 O 0.08993 1.01963 0.13699 0.0
O11 O 0.10091 0.09834 0.09035 0.0
O12 O 0.03963 0.086 0.06048 0.0
O13 O 0.07445 0.05382 0.96752 0.0
O14 O 1.02431 0.10365 0.86442 0.0
O15 O 0.98558 0.12131 0.93224 0.0
O16 O 0.04034 0.04189 0.89999 0.0
O17 O 1.00987 0.97873 0.96782 0.0
O18 O 0.94648 0.96489 0.94322 0.0
O19 O 0.95755 0.04175 0.89236 0.0
O20 O 0.90209 0.03551 0.95015 0.0
C21 C 0.04451 0.93351 0.13758 0.0
C22 C 0.97549 1.01809 0.10787 0.0
C23 C 0.07003 0.10966 0.08462 0.0
C24 C 0.12774 1.01764 0.12356 0.0
C25 C 1.0036 0.12781 0.88751 0.0
C26 C 0.07352 0.04614 0.92035 0.0
C27 C 0.97833 0.95425 0.94634 0.0
C28 C 0.91979 0.04386 0.90606 0.0
O29 O 1.02292 0.95664 0.16128 0.0
O30 O 0.06311 0.9414 0.09345 0.0
O31 O 0.97484 1.01077 0.06068 0.0
O32 O 1.00783 1.02025 0.12864 0.0
H33 H 0.03326 0.47585 0.44396 0.0
H34 H 1.01818 0.47736 0.6038 0.0
H35 H 1.02543 0.36758 0.50932 0.0
H36 H 0.02737 0.59308 0.5831 0.0
H37 H 0.04603 0.59106 0.42325 0.0
H38 H 0.05081 0.70453 0.51597 0.0
N39 N 0.02732 0.52386 0.5317 0.0
N40 N 0.03286 0.54427 0.4958 0.0
C41 C 0.02951 0.46033 0.47681 0.0
C42 C 0.03013 0.41937 0.47119 0.0
C43 C 1.02538 0.48152 0.52478 0.0
C44 C 1.02095 0.46095 0.56698 0.0
C45 C 1.02152 0.41991 0.56183 0.0
C46 C 0.02593 0.39951 0.51377 0.0
C47 C 0.03334 0.60889 0.55014 0.0
C48 C 0.03893 0.65152 0.55539 0.0
C49 C 0.03623 0.58695 0.50238 0.0
C50 C 0.04389 0.60787 0.45995 0.0
C51 C 0.04987 0.65046 0.46475 0.0
C52 C 0.04739 0.67189 0.51245 0.0
H53 H 0.57791 1.02395 0.43853 0.0
H54 H 0.58489 0.0351 0.59735 0.0
H55 H 0.69113 1.02824 0.49612 0.0
H56 H 0.46573 1.02339 0.58657 0.0
H57 H 0.4592 1.01677 0.42818 0.0
H58 H 0.34967 1.01002 0.52924 0.0
N59 N 0.53366 1.02774 0.52951 0.0
N60 N 0.51058 1.02328 0.49569 0.0
C61 C 0.59527 1.02646 0.47011 0.0
C62 C 0.63665 1.02555 0.46184 0.0
C63 C 0.57627 1.02951 0.51931 0.0
C64 C 0.59948 0.03287 0.55964 0.0
C65 C 0.6408 0.03198 0.55148 0.0
C66 C 0.65896 1.02828 0.50259 0.0
C67 C 0.44813 1.0206 0.55511 0.0
C68 C 0.40532 1.01619 0.56335 0.0
C69 C 0.46768 1.02038 0.50599 0.0
C70 C 0.44416 1.01658 0.4658 0.0
C71 C 0.4017 1.01349 0.47409 0.0
C72 C 0.38261 1.0129 0.52278 0.0
H73 H 1.00702 0.14385 0.08672 0.0
H74 H 0.99927 0.20597 0.13829 0.0
H75 H 0.11743 0.22676 0.19625 0.0
H76 H 0.12596 0.16571 0.14425 0.0
H77 H 0.99272 0.21795 0.23769 0.0
H78 H 0.12915 0.34125 0.16967 0.0
H79 H 0.11176 0.29069 0.1352 0.0
H80 H 0.14482 0.30001 0.18513 0.0
C81 C 0.0318 0.16214 0.10963 0.0
C82 C 0.06717 0.1497 0.11119 0.0
C83 C 0.02727 0.19763 0.13917 0.0
C84 C 0.05806 0.2215 0.17062 0.0
C85 C 0.09377 0.20963 0.17132 0.0
H86 H 0.08524 0.37656 0.44073 0.0
H87 H 0.08982 0.33288 0.362 0.0
C88 C 0.09843 0.17437 0.14174 0.0
C89 C 0.05132 0.25629 0.20643 0.0
H90 H 0.10019 0.35527 0.25434 0.0
C91 C 1.01572 0.24829 0.24055 0.0
C92 C 0.08126 0.29598 0.21017 0.0
C93 C 0.11864 0.3076 0.17269 0.0
C94 C 1.01062 0.27798 0.28009 0.0
C95 C 0.04183 0.31666 0.28551 0.0
C96 C 0.07641 0.32546 0.25013 0.0
C97 C 0.04114 0.34642 0.33061 0.0
C98 C 0.97307 0.26712 0.31749 0.0
C99 C 1.01286 0.36921 0.33844 0.0
C100 C 1.01033 0.39445 0.38341 0.0
C101 C 0.03576 0.3968 0.42124 0.0
C102 C 0.06499 0.37499 0.4124 0.0
C103 C 0.06776 0.35019 0.36744 0.0
H104 H 0.95309 0.23465 0.30989 0.0
H105 H 0.98321 0.27197 0.35569 0.0
H106 H 0.95402 0.28773 0.3166 0.0
H107 H 0.99216 0.36673 0.31027 0.0
H108 H 0.98744 0.41082 0.38939 0.0
H109 H 0.90396 1.021 0.07501 0.0
H110 H 0.8408 1.02736 0.1249 0.0
H111 H 0.89799 0.03363 0.25941 0.0
H112 H 0.96164 1.02782 0.20984 0.0
H113 H 0.79014 0.97466 0.18848 0.0
H114 H 0.85131 0.13029 0.29005 0.0
H115 H 0.87953 0.11164 0.23583 0.0
H116 H 0.88133 0.09724 0.29613 0.0
C117 C 0.90334 1.02407 0.11525 0.0
C118 C 0.93794 1.02385 0.13844 0.0
C119 C 0.86715 1.02774 0.14368 0.0
C120 C 0.86483 0.03152 0.19587 0.0
C121 C 0.8994 0.03167 0.2192 0.0
H122 H 0.66961 0.96532 0.42061 0.0
H123 H 0.71955 0.96725 0.34733 0.0
C124 C 0.93569 1.02808 0.19079 0.0
C125 C 0.82544 0.03275 0.22584 0.0
H126 H 0.78604 0.08685 0.32434 0.0
C127 C 0.78909 0.99949 0.21772 0.0
C128 C 0.82378 0.06553 0.26327 0.0
C129 C 0.86097 0.10341 0.27154 0.0
C130 C 0.75179 0.99701 0.24791 0.0
C131 C 0.75102 1.02829 0.28773 0.0
C132 C 0.78668 0.0627 0.29402 0.0
C133 C 0.71539 1.02389 0.3265 0.0
C134 C 0.71376 0.96057 0.23736 0.0
C135 C 0.69587 0.05478 0.33888 0.0
C136 C 0.66708 0.05359 0.38089 0.0
C137 C 0.65796 1.02179 0.41129 0.0
C138 C 0.67585 0.98988 0.39734 0.0
C139 C 0.70431 0.99093 0.35541 0.0
H140 H 0.71481 0.94786 0.1974 0.0
H141 H 0.71277 0.9358 0.25965 0.0
H142 H 0.68462 0.96903 0.24743 0.0
H143 H 0.70424 0.08065 0.31729 0.0
H144 H 0.65414 0.07884 0.39144 0.0
H145 H 0.99364 0.89648 0.2136 0.0
H146 H 1.00267 0.84537 0.26017 0.0
H147 H 0.11473 0.84397 0.16641 0.0
H148 H 0.1054 0.89509 0.11855 0.0
H149 H 0.06339 0.7645 0.18833 0.0
H150 H 0.09162 0.87508 0.35856 0.0
H151 H 0.04181 0.86897 0.33778 0.0
H152 H 0.0887 0.89073 0.29919 0.0
C153 C 1.02013 0.8852 0.20256 0.0
C154 C 0.04894 0.9 0.16253 0.0
C155 C 1.0253 0.85603 0.22937 0.0
C156 C 0.05976 0.8414 0.2174 0.0
C157 C 0.08798 0.85499 0.17638 0.0
H158 H 0.11449 0.71882 0.44565 0.0
H159 H 0.12303 0.76256 0.37967 0.0
C160 C 0.08259 0.88409 0.14905 0.0
C161 C 0.06636 0.81287 0.24905 0.0
H162 H 0.07298 0.80319 0.37025 0.0
C163 C 0.06606 0.77303 0.22801 0.0
C164 C 0.07058 0.82422 0.30068 0.0
C165 C 0.07365 0.86724 0.32523 0.0
C166 C 0.06797 0.74366 0.2577 0.0
C167 C 0.06942 0.75426 0.30991 0.0
C168 C 0.0715 0.79471 0.33039 0.0
C169 C 0.06766 0.72409 0.34467 0.0
C170 C 0.06853 0.70172 0.23274 0.0
C171 C 0.03426 0.68724 0.34649 0.0
C172 C 0.02978 0.66182 0.38381 0.0
C173 C 0.05811 0.67328 0.42055 0.0
C174 C 0.0922 0.70936 0.41776 0.0
C175 C 0.09704 0.73436 0.38011 0.0
H176 H 0.08153 0.70308 0.19321 0.0
H177 H 0.08718 0.6887 0.25235 0.0
H178 H 0.03611 0.68045 0.23306 0.0
H179 H 1.01051 0.67908 0.32058 0.0
H180 H 1.00293 0.63445 0.38559 0.0
H181 H 0.19876 0.99648 0.09993 0.0
H182 H 0.24298 0.98566 0.15659 0.0
H183 H 0.15457 1.00063 0.28094 0.0
H184 H 0.10946 1.011 0.22397 0.0
H185 H 0.27742 0.04694 0.22958 0.0
H186 H 0.18739 0.90236 0.31077 0.0
H187 H 0.17365 0.91621 0.25538 0.0
H188 H 0.16003 0.93969 0.31592 0.0
C189 C 0.18829 0.99691 0.13924 0.0
C190 C 0.15096 1.00539 0.15764 0.0
C191 C 0.21359 0.99054 0.17154 0.0
C192 C 0.20214 0.9924 0.22291 0.0
C193 C 0.16376 0.99858 0.24129 0.0
H194 H 0.35236 0.0605 0.46859 0.0
H195 H 0.3053 0.05317 0.40468 0.0
C196 C 0.13816 1.00477 0.20878 0.0
C197 C 0.23277 0.99284 0.25714 0.0
H198 H 0.24869 0.94442 0.34987 0.0
C199 C 0.27125 1.02426 0.25552 0.0
C200 C 0.2247 0.96316 0.2908 0.0
C201 C 0.18436 0.92818 0.29314 0.0
C202 C 0.30151 1.02738 0.28748 0.0
C203 C 0.29301 0.99845 0.32201 0.0
C204 C 0.25499 0.96646 0.32308 0.0
C205 C 0.32228 1.0029 0.3595 0.0
C206 C 0.34222 0.06189 0.28475 0.0
C207 C 0.34768 0.9773 0.35463 0.0
C208 C 0.37495 0.98168 0.39092 0.0
C209 C 0.37657 1.01132 0.43271 0.0
C210 C 0.35149 0.03726 0.43686 0.0
C211 C 0.32464 0.03311 0.40052 0.0
H212 H 0.34669 0.07774 0.25088 0.0
H213 H 0.34277 0.08495 0.31802 0.0
H214 H 0.36882 0.04987 0.28495 0.0
H215 H 0.34622 0.9539 0.32298 0.0
H216 H 0.39372 0.96112 0.38717 0.0
H217 H 0.91731 0.89324 0.89837 0.0
H218 H 0.92501 0.83329 0.8425 0.0
H219 H 0.05353 0.86589 0.8736 0.0
H220 H 0.04611 0.92577 0.93006 0.0
H221 H 0.97946 0.84085 0.75825 0.0
H222 H 1.01292 0.7409 0.87839 0.0
H223 H 0.9902 0.78127 0.90314 0.0
H224 H 0.04536 0.79369 0.88619 0.0
C225 C 0.94703 0.88728 0.89423 0.0
C226 C 0.98115 0.91455 0.91862 0.0
C227 C 0.95134 0.85293 0.86223 0.0
C228 C 0.98973 0.84489 0.85411 0.0
C229 C 1.02338 0.87098 0.88 0.0
H230 H 0.08963 0.72719 0.59002 0.0
H231 H 0.07719 0.77104 0.66582 0.0
C232 C 1.0191 0.90538 0.91213 0.0
C233 C 0.99579 0.81227 0.81434 0.0
H234 H 0.02667 0.72567 0.79031 0.0
C235 C 0.98939 0.81547 0.76542 0.0
C236 C 1.00861 0.77906 0.82371 0.0
C237 C 1.01433 0.77317 0.87576 0.0
C238 C 0.99646 0.78706 0.72549 0.0
C239 C 1.01069 0.75475 0.73455 0.0
C240 C 1.01606 0.75072 0.78354 0.0
C241 C 1.02108 0.72584 0.69282 0.0
C242 C 0.98898 0.79193 0.67366 0.0
C243 C 0.99437 0.68538 0.68387 0.0
C244 C 1.00126 0.66022 0.6403 0.0
C245 C 0.03497 0.67525 0.60513 0.0
C246 C 0.06297 0.71498 0.61592 0.0
C247 C 0.05605 0.74001 0.65928 0.0
H248 H 0.97048 0.81335 0.67422 0.0
H249 H 1.01942 0.80446 0.65213 0.0
H250 H 0.97238 0.76162 0.65379 0.0
H251 H 0.96718 0.67398 0.70939 0.0
H252 H 0.97905 0.62986 0.63296 0.0
H253 H 0.14754 0.04899 0.95224 0.0
H254 H 0.21123 0.04525 0.90143 0.0
H255 H 0.14961 1.02983 0.76789 0.0
H256 H 0.08575 0.03402 0.81835 0.0
H257 H 0.22575 0.98289 0.83055 0.0
H258 H 0.25529 0.12768 0.74685 0.0
H259 H 0.21866 0.11456 0.80058 0.0
H260 H 0.20404 0.09219 0.73903 0.0
C261 C 0.14745 0.04486 0.91203 0.0
C262 C 0.11156 0.04217 0.88935 0.0
C263 C 0.18392 0.04266 0.88309 0.0
C264 C 0.18538 0.03799 0.83094 0.0
C265 C 0.1494 0.03432 0.80812 0.0
H266 H 0.33778 0.95599 0.59594 0.0
H267 H 0.29012 0.9619 0.6698 0.0
C268 C 0.11284 0.03647 0.83703 0.0
C269 C 0.22444 0.03668 0.80033 0.0
H270 H 0.29451 0.08307 0.70885 0.0
C271 C 0.24108 1.00503 0.80429 0.0
C272 C 0.24497 0.06614 0.76696 0.0
C273 C 0.23012 0.10232 0.76335 0.0
C274 C 0.2765 1.00084 0.77386 0.0
C275 C 0.29539 1.02873 0.73819 0.0
C276 C 0.27995 0.06157 0.73605 0.0
C277 C 0.32826 1.02224 0.69931 0.0
C278 C 0.2931 0.96635 0.77987 0.0
C279 C 0.36603 0.05388 0.69165 0.0
C280 C 0.39342 0.05048 0.64925 0.0
C281 C 0.38306 1.01561 0.61377 0.0
C282 C 0.34655 0.98302 0.62306 0.0
C283 C 0.31938 0.98632 0.66536 0.0
H284 H 0.28511 0.9573 0.81826 0.0
H285 H 0.27868 0.93893 0.75372 0.0
H286 H 0.32748 0.97523 0.77151 0.0
H287 H 0.37332 0.082 0.71721 0.0
H288 H 0.42111 0.07621 0.64247 0.0
H289 H 0.95696 0.18098 0.91796 0.0
H290 H 0.95136 0.23515 0.8722 0.0
H291 H 0.03741 0.20471 0.75373 0.0
H292 H 0.04291 0.15096 0.79829 0.0
H293 H 1.01531 0.30544 0.8355 0.0
H294 H 0.93485 0.19645 0.68321 0.0
H295 H 0.94162 0.17983 0.74049 0.0
H296 H 0.98294 0.18802 0.69097 0.0
C297 C 0.97467 0.18593 0.88218 0.0
C298 C 1.00017 0.16142 0.8617 0.0
C299 C 0.97147 0.21688 0.85615 0.0
C300 C 0.9935 0.22352 0.80922 0.0
C301 C 1.01953 0.19964 0.78942 0.0
H302 H 0.06806 0.37217 0.57672 0.0
H303 H 0.05687 0.32816 0.64281 0.0
C304 C 1.02269 0.16891 0.81515 0.0
C305 C 0.98982 0.25507 0.77999 0.0
H306 H 0.97069 0.2664 0.66382 0.0
C307 C 1.00467 0.297 0.79839 0.0
C308 C 0.97576 0.24399 0.73165 0.0
C309 C 0.9575 0.19957 0.71064 0.0
C310 C 1.0084 0.32809 0.76831 0.0
C311 C 0.99682 0.31679 0.71894 0.0
C312 C 0.97983 0.27497 0.70163 0.0
C313 C 1.00574 0.34729 0.68275 0.0
C314 C 0.02681 0.37272 0.78822 0.0
C315 C 0.98111 0.37324 0.68383 0.0
C316 C 0.98728 0.39842 0.64571 0.0
C317 C 1.01799 0.3977 0.60588 0.0
C318 C 0.04367 0.37292 0.60636 0.0
C319 C 0.03747 0.34789 0.64422 0.0
H320 H 0.03582 0.37641 0.82682 0.0
H321 H 0.05477 0.38746 0.76371 0.0
H322 H 1.00378 0.38932 0.78797 0.0
H323 H 0.95623 0.37294 0.71312 0.0
H324 H 0.96687 0.41699 0.64624 0.0
H325 H 0.93751 0.04811 0.80506 0.0
H326 H 0.89072 0.0534 0.7466 0.0
H327 H 0.79989 0.06531 0.86929 0.0
H328 H 0.8458 0.05974 0.92748 0.0
H329 H 0.76904 1.00118 0.79522 0.0
H330 H 0.85159 0.14854 0.71594 0.0
H331 H 0.88194 0.11412 0.71402 0.0
H332 H 0.86454 0.13682 0.77312 0.0
C333 C 0.90787 0.05255 0.81956 0.0
C334 C 0.89508 0.05279 0.87079 0.0
C335 C 0.88128 0.05578 0.78618 0.0
C336 C 0.84185 0.05972 0.80372 0.0
C337 C 0.83011 0.06214 0.85502 0.0
H338 H 0.653 0.08864 0.63446 0.0
H339 H 0.70038 0.0963 0.69881 0.0
C340 C 0.85644 0.05883 0.8882 0.0
C341 C 0.8109 0.05712 0.76886 0.0
H342 H 0.79124 0.1046 0.67765 0.0
C343 C 0.7738 1.02392 0.76969 0.0
C344 C 0.81708 0.087 0.73598 0.0
C345 C 0.85575 0.12388 0.7348 0.0
C346 C 0.74302 1.01936 0.73784 0.0
C347 C 0.74968 0.04858 0.70401 0.0
C348 C 0.78635 0.08227 0.70374 0.0
C349 C 0.71981 0.04333 0.66686 0.0
C350 C 0.70357 0.9833 0.7405 0.0
C351 C 0.71499 1.01087 0.62817 0.0
C352 C 0.68815 1.00648 0.59171 0.0
C353 C 0.66564 0.03448 0.59328 0.0
C354 C 0.66971 0.06645 0.63275 0.0
C355 C 0.69692 0.07103 0.66914 0.0
H356 H 0.69905 0.9692 0.77573 0.0
H357 H 0.67591 0.99298 0.73744 0.0
H358 H 0.70533 0.95934 0.70892 0.0
H359 H 0.73261 0.98937 0.62567 0.0
H360 H 0.68544 0.98148 0.56177 0.0
loop_
_geom_bond_atom_site_label_1
_geom_bond_atom_site_label_2
_geom_bond_distance
_geom_bond_site_symmetry_2
_ccdc_geom_bond_type
Co0 O3 2.042 . S
Co0 O10 2.263 . S
Co0 O29 2.286 1_455 S
Co0 O30 2.069 . S
Co0 O32 2.015 1_455 S
Co1 O3 2.122 1_545 S
Co1 O9 2.073 . S
Co1 O10 2.328 1_545 S
Co1 O11 1.976 . S
Co2 O3 2.095 1_545 S
Co2 O5 2.079 1_454 S
Co2 O12 2.134 . S
Co2 O13 2.158 1_554 S
Co2 O17 2.089 1_444 S
Co2 O31 2.130 1_445 S
O3 Co0 2.042 . S
O3 Co1 2.122 1_565 S
O3 Co2 2.095 1_565 S
O3 H4 0.980 . S
H4 O3 0.980 . S
O5 Co2 2.079 1_656 S
O5 Co6 2.042 . S
O5 Co7 2.122 1_545 S
O5 H8 0.980 . S
Co6 O5 2.042 . S
Co6 O14 2.286 1_655 S
Co6 O15 2.069 . S
Co6 O16 2.015 1_655 S
Co6 O19 2.264 . S
Co7 O5 2.122 1_565 S
Co7 O18 1.976 . S
Co7 O19 2.327 1_565 S
Co7 O20 2.073 . S
H8 O5 0.980 . S
O9 Co1 2.073 . S
O9 C24 1.245 1_545 S
O10 Co0 2.263 . S
O10 Co1 2.328 1_565 S
O10 C24 1.257 . S
O11 Co1 1.976 . S
O11 C23 1.251 . S
O12 Co2 2.134 . S
O12 C23 1.274 . S
O13 Co2 2.158 1_556 S
O13 C26 1.246 . S
O14 Co6 2.286 1_455 S
O14 C25 1.259 1_455 S
O15 Co6 2.069 . S
O15 C25 1.289 . S
O16 Co6 2.015 1_455 S
O16 C26 1.257 . S
O17 Co2 2.089 1_666 S
O17 C27 1.274 . S
O18 Co7 1.976 . S
O18 C27 1.251 . S
O19 Co6 2.264 . S
O19 Co7 2.327 1_545 S
O19 C28 1.257 . S
O20 Co7 2.073 . S
O20 C28 1.245 1_565 S
C21 O29 1.259 1_455 S
C21 O30 1.289 . S
C22 O31 1.246 . S
C22 O32 1.257 . S
C23 O11 1.251 . S
C23 O12 1.274 . S
C24 O9 1.245 1_565 S
C24 O10 1.257 . S
C25 O14 1.259 1_655 S
C25 O15 1.289 . S
C26 O13 1.246 . S
C26 O16 1.257 . S
C27 O17 1.274 . S
C27 O18 1.251 . S
C28 O19 1.257 . S
C28 O20 1.245 1_545 S
O29 Co0 2.286 1_655 S
O29 C21 1.259 1_655 S
O30 Co0 2.069 . S
O30 C21 1.289 . S
O31 Co2 2.130 1_665 S
O31 C22 1.246 . S
O32 Co0 2.015 1_655 S
O32 C22 1.257 . S
H33 C41 0.940 . S
H34 C44 0.940 . S
H35 C46 0.940 . S
H36 C47 0.940 . S
H37 C50 0.940 . S
H38 C52 0.940 . S
N39 N40 1.190 . S
N39 C43 1.477 . S
N40 N39 1.190 . S
N40 C49 1.477 . S
C41 H33 0.940 . S
C41 C42 1.395 1_455 S
C41 C43 1.322 . S
C42 C41 1.395 1_655 S
C42 C46 1.364 . S
C43 N39 1.477 . S
C43 C41 1.322 . S
C43 C44 1.447 . S
C44 H34 0.940 . S
C44 C43 1.447 . S
C44 C45 1.373 . S
C45 C44 1.373 . S
C45 C46 1.417 1_455 S
C46 H35 0.940 . S
C46 C42 1.364 . S
C46 C45 1.417 1_655 S
C47 H36 0.940 . S
C47 C48 1.378 1_455 S
C47 C49 1.322 . S
C48 C47 1.378 1_655 S
C48 C52 1.377 . S
C49 N40 1.477 . S
C49 C47 1.322 . S
C49 C50 1.447 . S
C50 H37 0.940 . S
C50 C49 1.447 . S
C50 C51 1.373 . S
C51 C50 1.373 . S
C51 C52 1.417 1_455 S
C52 H38 0.940 . S
C52 C48 1.377 . S
C52 C51 1.417 1_655 S
H53 C61 0.940 . S
H54 C64 0.940 . S
H55 C66 0.940 . S
H56 C67 0.940 . S
H57 C70 0.940 . S
H58 C72 0.940 . S
N59 N60 1.190 . S
N59 C63 1.477 . S
N60 N59 1.190 . S
N60 C69 1.477 . S
C61 H53 0.940 . S
C61 C62 1.380 1_545 S
C61 C63 1.322 . S
C62 C61 1.380 1_565 S
C62 C66 1.378 . S
C63 N59 1.477 . S
C63 C61 1.322 . S
C63 C64 1.447 . S
C64 H54 0.940 . S
C64 C63 1.447 . S
C64 C65 1.373 . S
C65 C64 1.373 . S
C65 C66 1.417 1_545 S
C66 H55 0.940 . S
C66 C62 1.378 . S
C66 C65 1.417 1_565 S
C67 H56 0.940 . S
C67 C68 1.394 1_545 S
C67 C69 1.322 . S
C68 C67 1.394 1_565 S
C68 C72 1.363 . S
C69 N60 1.477 . S
C69 C67 1.322 . S
C69 C70 1.447 . S
C70 H57 0.940 . S
C70 C69 1.447 . S
C70 C71 1.373 . S
C71 C70 1.373 . S
C71 C72 1.417 1_545 S
C72 H58 0.940 . S
C72 C68 1.363 . S
C72 C71 1.417 1_565 S
H73 C81 0.929 . S
H74 C83 0.930 . S
H75 C85 0.930 . S
H76 C88 0.929 . S
H77 C91 0.930 . S
H78 C93 0.960 . S
H79 C93 0.960 . S
H80 C93 0.960 . S
C81 H73 0.929 . S
C81 C82 1.399 . S
C81 C83 1.384 . S
C82 C81 1.399 . S
C82 C88 1.373 1_655 S
C83 H74 0.930 . S
C83 C81 1.384 . S
C83 C84 1.372 . S
C84 C83 1.372 . S
C84 C85 1.400 1_655 S
C84 C89 1.490 . S
C85 H75 0.930 . S
C85 C84 1.400 1_455 S
C85 C88 1.386 . S
H86 C102 0.930 . S
H87 C103 0.931 . S
C88 H76 0.929 . S
C88 C82 1.373 1_455 S
C88 C85 1.386 . S
C89 C84 1.490 . S
C89 C91 1.395 . S
C89 C92 1.403 1_655 S
H90 C96 0.930 . S
C91 H77 0.930 . S
C91 C89 1.395 . S
C91 C94 1.403 . S
C92 C89 1.403 1_455 S
C92 C93 1.524 . S
C92 C96 1.400 . S
C93 H78 0.960 . S
C93 H79 0.960 . S
C93 H80 0.960 . S
C93 C92 1.524 . S
C94 C91 1.403 . S
C94 C95 1.392 . S
C94 C98 1.495 . S
C95 C94 1.392 . S
C95 C96 1.385 1_655 S
C95 C97 1.478 . S
C96 H90 0.930 . S
C96 C92 1.400 . S
C96 C95 1.385 1_455 S
C97 C95 1.478 . S
C97 C99 1.381 . S
C97 C103 1.383 1_655 S
C98 C94 1.495 . S
C98 H104 0.959 . S
C98 H105 0.961 . S
C98 H106 0.960 . S
C99 C97 1.381 . S
C99 C100 1.394 . S
C99 H107 0.930 . S
C100 C99 1.394 . S
C100 C101 1.383 . S
C100 H108 0.929 . S
C101 C100 1.383 . S
C101 C102 1.377 1_655 S
C102 H86 0.930 . S
C102 C101 1.377 1_455 S
C102 C103 1.379 . S
C103 H87 0.931 . S
C103 C97 1.383 1_455 S
C103 C102 1.379 . S
H104 C98 0.959 . S
H105 C98 0.961 . S
H106 C98 0.960 . S
H107 C99 0.930 . S
H108 C100 0.929 . S
H109 C117 0.929 . S
H110 C119 0.930 . S
H111 C121 0.930 . S
H112 C124 0.929 . S
H113 C127 0.930 . S
H114 C129 0.960 . S
H115 C129 0.960 . S
H116 C129 0.960 1_565 S
C117 H109 0.929 . S
C117 C118 1.377 1_545 S
C117 C119 1.384 . S
C118 C117 1.377 1_565 S
C118 C124 1.390 . S
C119 H110 0.930 . S
C119 C117 1.384 . S
C119 C120 1.356 1_545 S
C120 C119 1.356 1_565 S
C120 C121 1.419 . S
C120 C125 1.487 . S
C121 H111 0.930 . S
C121 C120 1.419 . S
C121 C124 1.386 . S
H122 C138 0.930 . S
H123 C139 0.931 . S
C124 H112 0.929 . S
C124 C118 1.390 . S
C124 C121 1.386 . S
C125 C120 1.487 . S
C125 C127 1.395 . S
C125 C128 1.403 1_565 S
H126 C132 0.930 . S
C127 H113 0.930 . S
C127 C125 1.395 . S
C127 C130 1.403 . S
C128 C125 1.403 1_545 S
C128 C129 1.524 . S
C128 C132 1.400 . S
C129 H114 0.960 . S
C129 H115 0.960 . S
C129 H116 0.960 1_545 S
C129 C128 1.524 . S
C130 C127 1.403 . S
C130 C131 1.392 . S
C130 C134 1.495 . S
C131 C130 1.392 . S
C131 C132 1.385 1_565 S
C131 C133 1.478 . S
C132 H126 0.930 . S
C132 C128 1.400 . S
C132 C131 1.385 1_545 S
C133 C131 1.478 . S
C133 C135 1.381 1_565 S
C133 C139 1.383 . S
C134 C130 1.495 . S
C134 H140 0.959 . S
C134 H141 0.961 . S
C134 H142 0.960 1_565 S
C135 C133 1.381 1_545 S
C135 C136 1.394 . S
C135 H143 0.930 . S
C136 C135 1.394 . S
C136 C137 1.383 1_545 S
C136 H144 0.929 . S
C137 C136 1.383 1_565 S
C137 C138 1.377 . S
C138 H122 0.930 . S
C138 C137 1.377 . S
C138 C139 1.379 . S
C139 H123 0.931 . S
C139 C133 1.383 . S
C139 C138 1.379 . S
H140 C134 0.959 . S
H141 C134 0.961 . S
H142 C134 0.960 1_545 S
H143 C135 0.930 . S
H144 C136 0.929 . S
H145 C153 0.929 . S
H146 C155 0.930 . S
H147 C157 0.930 . S
H148 C160 0.929 . S
H149 C163 0.930 . S
H150 C165 0.960 . S
H151 C165 0.960 . S
H152 C165 0.960 . S
C153 H145 0.929 . S
C153 C154 1.377 1_655 S
C153 C155 1.384 . S
C154 C153 1.377 1_455 S
C154 C160 1.390 . S
C155 H146 0.930 . S
C155 C153 1.384 . S
C155 C156 1.372 1_655 S
C156 C155 1.372 1_455 S
C156 C157 1.400 . S
C156 C161 1.490 . S
C157 H147 0.930 . S
C157 C156 1.400 . S
C157 C160 1.386 . S
H158 C174 0.930 . S
H159 C175 0.931 . S
C160 H148 0.929 . S
C160 C154 1.390 . S
C160 C157 1.386 . S
C161 C156 1.490 . S
C161 C163 1.395 1_455 S
C161 C164 1.403 . S
H162 C168 0.930 . S
C163 H149 0.930 . S
C163 C161 1.395 1_655 S
C163 C166 1.403 . S
C164 C161 1.403 . S
C164 C165 1.524 . S
C164 C168 1.400 . S
C165 H150 0.960 . S
C165 H151 0.960 . S
C165 H152 0.960 . S
C165 C164 1.524 . S
C166 C163 1.403 . S
C166 C167 1.392 1_655 S
C166 C170 1.495 . S
C167 C166 1.392 1_455 S
C167 C168 1.385 . S
C167 C169 1.478 . S
C168 H162 0.930 . S
C168 C164 1.400 . S
C168 C167 1.385 . S
C169 C167 1.478 . S
C169 C171 1.381 1_455 S
C169 C175 1.383 . S
C170 C166 1.495 . S
C170 H176 0.959 . S
C170 H177 0.961 1_655 S
C170 H178 0.960 . S
C171 C169 1.381 1_655 S
C171 C172 1.394 . S
C171 H179 0.930 . S
C172 C171 1.394 . S
C172 C173 1.383 1_655 S
C172 H180 0.929 . S
C173 C172 1.383 1_455 S
C173 C174 1.377 . S
C174 H158 0.930 . S
C174 C173 1.377 . S
C174 C175 1.379 . S
C175 H159 0.931 . S
C175 C169 1.383 . S
C175 C174 1.379 . S
H176 C170 0.959 . S
H177 C170 0.961 1_455 S
H178 C170 0.960 . S
H179 C171 0.930 . S
H180 C172 0.929 . S
H181 C189 0.929 . S
H182 C191 0.930 . S
H183 C193 0.930 . S
H184 C196 0.929 . S
H185 C199 0.930 . S
H186 C201 0.960 . S
H187 C201 0.960 . S
H188 C201 0.960 . S
C189 H181 0.929 . S
C189 C190 1.377 . S
C189 C191 1.384 . S
C190 C189 1.377 . S
C190 C196 1.390 1_565 S
C191 H182 0.930 . S
C191 C189 1.384 . S
C191 C192 1.372 . S
C192 C191 1.372 . S
C192 C193 1.400 1_565 S
C192 C197 1.490 . S
C193 H183 0.930 . S
C193 C192 1.400 1_545 S
C193 C196 1.386 . S
H194 C210 0.930 . S
H195 C211 0.931 . S
C196 H184 0.929 . S
C196 C190 1.390 1_545 S
C196 C193 1.386 . S
C197 C192 1.490 . S
C197 C199 1.395 . S
C197 C200 1.403 . S
H198 C204 0.930 . S
C199 H185 0.930 . S
C199 C197 1.395 . S
C199 C202 1.395 . S
C200 C197 1.403 . S
C200 C201 1.524 . S
C200 C204 1.400 . S
C201 H186 0.960 . S
C201 H187 0.960 . S
C201 H188 0.960 . S
C201 C200 1.524 . S
C202 C199 1.395 . S
C202 C203 1.399 . S
C202 C206 1.497 1_565 S
C203 C202 1.399 . S
C203 C204 1.385 . S
C203 C205 1.474 . S
C204 H198 0.930 . S
C204 C200 1.400 . S
C204 C203 1.385 . S
C205 C203 1.474 . S
C205 C207 1.392 . S
C205 C211 1.375 1_565 S
C206 C202 1.497 1_545 S
C206 H212 0.959 . S
C206 H213 0.961 . S
C206 H214 0.960 1_545 S
C207 C205 1.392 . S
C207 C208 1.394 . S
C207 H215 0.930 . S
C208 C207 1.394 . S
C208 C209 1.383 1_565 S
C208 H216 0.929 . S
C209 C208 1.383 1_545 S
C209 C210 1.377 . S
C210 H194 0.930 . S
C210 C209 1.377 . S
C210 C211 1.379 . S
C211 H195 0.931 . S
C211 C205 1.375 1_545 S
C211 C210 1.379 . S
H212 C206 0.959 . S
H213 C206 0.961 . S
H214 C206 0.960 1_565 S
H215 C207 0.930 . S
H216 C208 0.929 . S
H217 C225 0.929 . S
H218 C227 0.930 . S
H219 C229 0.930 . S
H220 C232 0.929 . S
H221 C235 0.930 . S
H222 C237 0.960 . S
H223 C237 0.960 . S
H224 C237 0.960 . S
C225 H217 0.929 . S
C225 C226 1.377 1_655 S
C225 C227 1.384 . S
C226 C225 1.377 1_455 S
C226 C232 1.390 . S
C227 H218 0.930 . S
C227 C225 1.384 . S
C227 C228 1.372 . S
C228 C227 1.372 . S
C228 C229 1.400 1_655 S
C228 C233 1.490 . S
C229 H219 0.930 . S
C229 C228 1.400 1_455 S
C229 C232 1.386 . S
H230 C246 0.930 . S
H231 C247 0.931 . S
C232 H220 0.929 . S
C232 C226 1.390 . S
C232 C229 1.386 . S
C233 C228 1.490 . S
C233 C235 1.395 . S
C233 C236 1.403 1_655 S
H234 C240 0.930 . S
C235 H221 0.930 . S
C235 C233 1.395 . S
C235 C238 1.403 . S
C236 C233 1.403 1_455 S
C236 C237 1.524 . S
C236 C240 1.400 . S
C237 H222 0.960 . S
C237 H223 0.960 . S
C237 H224 0.960 . S
C237 C236 1.524 . S
C238 C235 1.403 . S
C238 C239 1.392 . S
C238 C242 1.495 . S
C239 C238 1.392 . S
C239 C240 1.385 1_655 S
C239 C241 1.478 . S
C240 H234 0.930 . S
C240 C236 1.400 . S
C240 C239 1.385 1_455 S
C241 C239 1.478 . S
C241 C243 1.381 . S
C241 C247 1.383 1_655 S
C242 C238 1.495 . S
C242 H248 0.959 . S
C242 H249 0.961 . S
C242 H250 0.960 . S
C243 C241 1.381 . S
C243 C244 1.394 . S
C243 H251 0.930 . S
C244 C243 1.394 . S
C244 C245 1.383 . S
C244 H252 0.929 . S
C245 C244 1.383 . S
C245 C246 1.377 1_655 S
C246 H230 0.930 . S
C246 C245 1.377 1_455 S
C246 C247 1.379 . S
C247 H231 0.931 . S
C247 C241 1.383 1_455 S
C247 C246 1.379 . S
H248 C242 0.959 . S
H249 C242 0.961 . S
H250 C242 0.960 . S
H251 C243 0.930 . S
H252 C244 0.929 . S
H253 C261 0.929 . S
H254 C263 0.930 . S
H255 C265 0.930 . S
H256 C268 0.929 . S
H257 C271 0.930 . S
H258 C273 0.960 . S
H259 C273 0.960 . S
H260 C273 0.960 1_565 S
C261 H253 0.929 . S
C261 C262 1.377 . S
C261 C263 1.384 . S
C262 C261 1.377 . S
C262 C268 1.390 1_545 S
C263 H254 0.930 . S
C263 C261 1.384 . S
C263 C264 1.372 . S
C264 C263 1.372 . S
C264 C265 1.400 1_545 S
C264 C269 1.490 . S
C265 H255 0.930 . S
C265 C264 1.400 1_565 S
C265 C268 1.386 . S
H266 C282 0.930 . S
H267 C283 0.931 . S
C268 H256 0.929 . S
C268 C262 1.390 1_565 S
C268 C265 1.386 . S
C269 C264 1.490 . S
C269 C271 1.395 1_545 S
C269 C272 1.403 . S
H270 C276 0.930 . S
C271 H257 0.930 . S
C271 C269 1.395 1_565 S
C271 C274 1.403 . S
C272 C269 1.403 . S
C272 C273 1.524 . S
C272 C276 1.400 . S
C273 H258 0.960 . S
C273 H259 0.960 . S
C273 H260 0.960 1_545 S
C273 C272 1.524 . S
C274 C271 1.403 . S
C274 C275 1.395 . S
C274 C278 1.495 . S
C275 C274 1.395 . S
C275 C276 1.381 1_565 S
C275 C277 1.479 . S
C276 H270 0.930 . S
C276 C272 1.400 . S
C276 C275 1.381 1_545 S
C277 C275 1.479 . S
C277 C279 1.381 1_565 S
C277 C283 1.383 . S
C278 C274 1.495 . S
C278 H284 0.959 . S
C278 H285 0.961 . S
C278 H286 0.960 1_565 S
C279 C277 1.381 1_545 S
C279 C280 1.394 . S
C279 H287 0.930 . S
C280 C279 1.394 . S
C280 C281 1.383 1_545 S
C280 H288 0.929 . S
C281 C280 1.383 1_565 S
C281 C282 1.377 . S
C282 H266 0.930 . S
C282 C281 1.377 . S
C282 C283 1.379 . S
C283 H267 0.931 . S
C283 C277 1.383 . S
C283 C282 1.379 . S
H284 C278 0.959 . S
H285 C278 0.961 . S
H286 C278 0.960 1_545 S
H287 C279 0.930 . S
H288 C280 0.929 . S
H289 C297 0.929 . S
H290 C299 0.930 . S
H291 C301 0.930 . S
H292 C304 0.929 . S
H293 C307 0.930 . S
H294 C309 0.961 1_455 S
H295 C309 0.960 . S
H296 C309 0.960 1_455 S
C297 H289 0.929 . S
C297 C298 1.377 . S
C297 C299 1.384 . S
C298 C297 1.377 . S
C298 C304 1.390 1_655 S
C299 H290 0.930 . S
C299 C297 1.384 . S
C299 C300 1.372 . S
C300 C299 1.372 . S
C300 C301 1.400 1_655 S
C300 C305 1.490 . S
C301 H291 0.930 . S
C301 C300 1.400 1_455 S
C301 C304 1.386 . S
H302 C318 0.930 . S
H303 C319 0.931 . S
C304 H292 0.929 . S
C304 C298 1.390 1_455 S
C304 C301 1.386 . S
C305 C300 1.490 . S
C305 C307 1.395 . S
C305 C308 1.403 . S
H306 C312 0.930 1_455 S
C307 H293 0.930 . S
C307 C305 1.395 . S
C307 C310 1.403 . S
C308 C305 1.403 . S
C308 C309 1.524 . S
C308 C312 1.400 . S
C309 H294 0.961 1_655 S
C309 H295 0.960 . S
C309 H296 0.960 1_655 S
C309 C308 1.524 . S
C310 C307 1.403 . S
C310 C311 1.392 . S
C310 C314 1.495 . S
C311 C310 1.392 . S
C311 C312 1.385 . S
C311 C313 1.470 . S
C312 H306 0.930 1_655 S
C312 C308 1.400 . S
C312 C311 1.385 . S
C313 C311 1.470 . S
C313 C315 1.409 . S
C313 C319 1.362 1_655 S
C314 C310 1.495 . S
C314 H320 0.959 . S
C314 H321 0.961 1_655 S
C314 H322 0.960 . S
C315 C313 1.409 . S
C315 C316 1.394 . S
C315 H323 0.930 . S
C316 C315 1.394 . S
C316 C317 1.383 1_655 S
C316 H324 0.929 . S
C317 C316 1.383 1_455 S
C317 C318 1.377 . S
C318 H302 0.930 . S
C318 C317 1.377 . S
C318 C319 1.379 . S
C319 H303 0.931 . S
C319 C313 1.362 1_455 S
C319 C318 1.379 . S
H320 C314 0.959 . S
H321 C314 0.961 1_455 S
H322 C314 0.960 . S
H323 C315 0.930 . S
H324 C316 0.929 . S
H325 C333 0.929 . S
H326 C335 0.930 . S
H327 C337 0.930 . S
H328 C340 0.929 . S
H329 C343 0.930 . S
H330 C345 0.960 . S
H331 C345 0.960 . S
H332 C345 0.960 . S
C333 H325 0.929 . S
C333 C334 1.377 1_565 S
C333 C335 1.384 . S
C334 C333 1.377 1_545 S
C334 C340 1.390 . S
C335 H326 0.930 . S
C335 C333 1.384 . S
C335 C336 1.372 1_565 S
C336 C335 1.372 1_545 S
C336 C337 1.400 . S
C336 C341 1.490 . S
C337 H327 0.930 . S
C337 C336 1.400 . S
C337 C340 1.386 . S
H338 C354 0.930 . S
H339 C355 0.931 . S
C340 H328 0.929 . S
C340 C334 1.390 . S
C340 C337 1.386 . S
C341 C336 1.490 . S
C341 C343 1.395 1_545 S
C341 C344 1.403 . S
H342 C348 0.930 . S
C343 H329 0.930 . S
C343 C341 1.395 1_565 S
C343 C346 1.403 . S
C344 C341 1.403 . S
C344 C345 1.524 . S
C344 C348 1.400 . S
C345 H330 0.960 . S
C345 H331 0.960 . S
C345 H332 0.960 . S
C345 C344 1.524 . S
C346 C343 1.403 . S
C346 C347 1.392 1_565 S
C346 C350 1.495 . S
C347 C346 1.392 1_545 S
C347 C348 1.385 . S
C347 C349 1.478 . S
C348 H342 0.930 . S
C348 C344 1.400 . S
C348 C347 1.385 . S
C349 C347 1.478 . S
C349 C351 1.381 1_545 S
C349 C355 1.383 . S
C350 C346 1.495 . S
C350 H356 0.959 . S
C350 H357 0.961 . S
C350 H358 0.960 . S
C351 C349 1.381 1_565 S
C351 C352 1.394 . S
C351 H359 0.930 . S
C352 C351 1.394 . S
C352 C353 1.383 1_565 S
C352 H360 0.929 . S
C353 C352 1.383 1_545 S
C353 C354 1.377 . S
C354 H338 0.930 . S
C354 C353 1.377 . S
C354 C355 1.379 . S
C355 H339 0.931 . S
C355 C349 1.383 . S
C355 C354 1.379 . S
H356 C350 0.959 . S
H357 C350 0.961 . S
H358 C350 0.960 . S
H359 C351 0.930 . S
H360 C352 0.929 . S
C82 C23 1.503 1_655 S
C101 C42 1.539 . S
C118 C22 1.659 . S
C137 C62 1.678 . S
C154 C21 2.064 . S
C173 C51 2.061 . S
C190 C24 1.731 . S
C209 C71 1.800 . S
C226 C27 1.505 1_455 S
C245 C48 1.547 . S
C262 C26 1.658 . S
C281 C68 1.676 . S
C317 C45 2.065 . S
C298 C25 2.070 . S
C334 C28 1.724 . S
C353 C65 1.790 . S
