# Generated by pormake.
# Topology anh, (6,3)-cn, num edge types: 1
# Building blocks:
#     Node 0, Type 0, BuildingBlock: PAMTOO_clean_sbu_0, # of connection points: 6
#     Node 1, Type 0, BuildingBlock: PAMTOO_clean_sbu_0, # of connection points: 6
#     Node 2, Type 0, BuildingBlock: PAMTOO_clean_sbu_0, # of connection points: 6
#     Node 3, Type 1, BuildingBlock: BETDAH_clean_linker_0, # of connection points: 3
#     Node 4, Type 1, BuildingBlock: BETDAH_clean_linker_0, # of connection points: 3
#     Node 5, Type 1, BuildingBlock: BETDAH_clean_linker_0, # of connection points: 3
#     Node 6, Type 1, BuildingBlock: BETDAH_clean_linker_0, # of connection points: 3
#     Node 7, Type 1, BuildingBlock: BETDAH_clean_linker_0, # of connection points: 3
#     Node 8, Type 1, BuildingBlock: BETDAH_clean_linker_0, # of connection points: 3
#     Edge 9, Type (0, 1), BuildingBlock: TEMPAE_clean_linker_10, # of connection points: 2
#     Edge 10, Type (0, 1), BuildingBlock: TEMPAE_clean_linker_10, # of connection points: 2
#     Edge 11, Type (0, 1), BuildingBlock: TEMPAE_clean_linker_10, # of connection points: 2
#     Edge 12, Type (0, 1), BuildingBlock: TEMPAE_clean_linker_10, # of connection points: 2
#     Edge 13, Type (0, 1), BuildingBlock: TEMPAE_clean_linker_10, # of connection points: 2
#     Edge 14, Type (0, 1), BuildingBlock: TEMPAE_clean_linker_10, # of connection points: 2
#     Edge 15, Type (0, 1), BuildingBlock: TEMPAE_clean_linker_10, # of connection points: 2
#     Edge 16, Type (0, 1), BuildingBlock: TEMPAE_clean_linker_10, # of connection points: 2
#     Edge 17, Type (0, 1), BuildingBlock: TEMPAE_clean_linker_10, # of connection points: 2
#     Edge 18, Type (0, 1), BuildingBlock: TEMPAE_clean_linker_10, # of connection points: 2
#     Edge 19, Type (0, 1), BuildingBlock: TEMPAE_clean_linker_10, # of connection points: 2
#     Edge 20, Type (0, 1), BuildingBlock: TEMPAE_clean_linker_10, # of connection points: 2
#     Edge 21, Type (0, 1), BuildingBlock: TEMPAE_clean_linker_10, # of connection points: 2
#     Edge 22, Type (0, 1), BuildingBlock: TEMPAE_clean_linker_10, # of connection points: 2
#     Edge 23, Type (0, 1), BuildingBlock: TEMPAE_clean_linker_10, # of connection points: 2
#     Edge 24, Type (0, 1), BuildingBlock: TEMPAE_clean_linker_10, # of connection points: 2
#     Edge 25, Type (0, 1), BuildingBlock: TEMPAE_clean_linker_10, # of connection points: 2
#     Edge 26, Type (0, 1), BuildingBlock: TEMPAE_clean_linker_10, # of connection points: 2
# Relax obj value: 0.144
# Max RMSD: 0.159
# Mean RMSD: 0.105
data_MOF--net-anh--node1-PAMTOO_clean_sbu_0--node2-BETDAH_clean_linker_0--edge1-TEMPAE_clean_linker_10
_symmetry_space_group_name_H-M    P1
_symmetry_Int_Tables_number       1
_symmetry_cell_setting            triclinic
loop_
_symmetry_equiv_pos_as_xyz
'x, y, z'
_cell_length_a     31.524608
_cell_length_b     30.372971
_cell_length_c     49.789546
_cell_angle_alpha  94.225703
_cell_angle_beta   96.984621
_cell_angle_gamma 103.41982
loop_
_atom_site_label
_atom_site_type_symbol
_atom_site_fract_x
_atom_site_fract_y
_atom_site_fract_z
_atom_type_partial_charge
Dy0 Dy 0.09262 0.54848 0.13783 0.0
Dy1 Dy 0.07014 0.44309 0.15061 0.0
C2 C 0.06843 0.46765 0.09006 0.0
O3 O 1.01906 0.53401 0.14083 0.0
O4 O 1.00168 0.45617 0.1408 0.0
O5 O 0.12263 0.60244 0.115 0.0
O6 O 0.08907 0.6174 0.14879 0.0
O7 O 1.0606 0.4853 0.18654 0.0
O8 O 0.11531 0.54594 0.18209 0.0
O9 O 0.14582 0.46259 0.15539 0.0
O10 O 0.15709 0.5285 0.13458 0.0
O11 O 0.07625 0.39325 0.17871 0.0
O12 O 1.03895 0.37229 0.13836 0.0
C13 C 0.98934 0.49498 0.14016 0.0
O14 O 1.06214 0.50763 0.0979 0.0
O15 O 0.08224 0.44248 0.10773 0.0
C16 C 0.15366 0.67133 0.14293 0.0
C17 C 0.22932 0.74116 0.16371 0.0
C18 C 0.20949 0.73826 0.1365 0.0
C19 C 0.17197 0.70372 0.12626 0.0
C20 C 0.1733 0.67402 0.17008 0.0
C21 C 0.21054 0.70872 0.1804 0.0
C22 C 0.11512 0.63411 0.13162 0.0
C23 C 0.0901 0.52175 0.19744 0.0
C24 C 0.17241 0.49543 0.1449 0.0
C25 C 1.01072 0.33546 0.17422 0.0
C26 C 0.93261 0.28693 0.19105 0.0
C27 C 0.943 0.33478 0.19297 0.0
C28 C 0.98168 0.35881 0.18458 0.0
C29 C 1.00125 0.28794 0.17296 0.0
C30 C 0.96253 0.26381 0.18136 0.0
C31 C 1.04864 0.36038 0.16257 0.0
H32 H 0.22343 0.76215 0.12293 0.0
H33 H 0.15754 0.70198 0.1052 0.0
H34 H 0.16 0.64921 0.18334 0.0
H35 H 0.22447 0.71021 0.20152 0.0
H36 H 0.9209 0.35361 0.20058 0.0
H37 H 0.98841 0.39559 0.18553 0.0
H38 H 1.02313 0.26942 0.16475 0.0
H39 H 0.95521 0.22698 0.17925 0.0
Dy40 Dy 0.57547 0.07811 0.52237 0.0
Dy41 Dy 0.68358 0.10593 0.53147 0.0
C42 C 0.62863 0.09002 0.58167 0.0
O43 O 0.59563 0.15292 0.53585 0.0
O44 O 0.66236 0.16855 0.52025 0.0
O45 O 0.51234 0.07191 0.53657 0.0
O46 O 0.51563 0.05395 0.49408 0.0
O47 O 0.66225 0.08399 0.48705 0.0
O48 O 0.59641 0.10345 0.48405 0.0
O49 O 0.66473 0.03328 0.54055 0.0
O50 O 0.59616 0.01296 0.51509 0.0
O51 O 0.74562 0.09415 0.52235 0.0
O52 O 0.74475 0.15053 0.5513 0.0
C53 C 0.62914 0.18217 0.52877 0.0
O54 O 0.59493 0.06484 0.56496 0.0
O55 O 0.66292 0.11476 0.57261 0.0
C56 C 0.45646 0.01087 0.51225 0.0
C57 C 0.39528 0.92547 0.50601 0.0
C58 C 0.43059 0.93645 0.52755 0.0
C59 C 0.46112 0.97868 0.53053 0.0
C60 C 0.42071 1.00062 0.49129 0.0
C61 C 0.39055 0.95834 0.4881 0.0
C62 C 0.49035 0.05345 0.51294 0.0
C63 C 0.62825 0.09269 0.47244 0.0
C64 C 0.63037 1.00188 0.5282 0.0
C65 C 0.80156 0.16138 0.52425 0.0
C66 C 0.86511 0.2229 0.50122 0.0
C67 C 0.81989 0.2166 0.49195 0.0
C68 C 0.78836 0.18605 0.50337 0.0
C69 C 0.84648 0.16705 0.53332 0.0
C70 C 0.878 0.19752 0.52193 0.0
C71 C 0.76883 0.13084 0.53731 0.0
H72 H 0.435 0.91222 0.5419 0.0
H73 H 0.48881 0.98575 0.54671 0.0
H74 H 0.41695 0.02482 0.47678 0.0
H75 H 0.36446 0.95091 0.47094 0.0
H76 H 0.80888 0.2353 0.47589 0.0
H77 H 0.7537 0.182 0.49613 0.0
H78 H 0.85717 0.14842 0.54952 0.0
H79 H 0.91245 0.20206 0.52986 0.0
Dy80 Dy 0.63909 0.65523 0.85092 0.0
Dy81 Dy 0.53187 0.62077 0.83545 0.0
C82 C 0.5917 0.63582 0.78977 0.0
O83 O 0.61764 0.71922 0.84483 0.0
O84 O 0.54224 0.69652 0.84299 0.0
O85 O 0.69947 0.69336 0.83918 0.0
O86 O 0.70127 0.65818 0.87543 0.0
O87 O 0.54986 0.60764 0.87848 0.0
O88 O 0.613 0.66389 0.89019 0.0
O89 O 0.55812 0.55914 0.82759 0.0
O90 O 0.62507 0.5804 0.85471 0.0
O91 O 0.46556 0.61895 0.84387 0.0
O92 O 0.47695 0.5744 0.81058 0.0
C93 C 0.57882 0.72849 0.84392 0.0
O94 O 0.62219 0.62653 0.80724 0.0
O95 O 0.55688 0.64596 0.79802 0.0
C96 C 0.75439 0.65421 0.84708 0.0
C97 C 0.81146 0.60367 0.82879 0.0
C98 C 0.82841 0.64742 0.84289 0.0
C99 C 0.79996 0.67252 0.85204 0.0
C100 C 0.73732 0.61154 0.83205 0.0
C101 C 0.76555 0.58644 0.82304 0.0
C102 C 0.72398 0.67853 0.85769 0.0
C103 C 0.58009 0.63378 0.89711 0.0
C104 C 0.59289 0.54889 0.84045 0.0
C105 C 0.40427 0.58562 0.80864 0.0
C106 C 0.31292 0.55856 0.79042 0.0
C107 C 0.33043 0.59596 0.8103 0.0
C108 C 0.37571 0.60905 0.81956 0.0
C109 C 0.38743 0.55237 0.78639 0.0
C110 C 0.34227 0.53894 0.77739 0.0
C111 C 0.44792 0.58723 0.82383 0.0
H112 H 0.86362 0.66174 0.84741 0.0
H113 H 0.81351 0.70567 0.86339 0.0
H114 H 0.70208 0.59706 0.82793 0.0
H115 H 0.75134 0.55261 0.81272 0.0
H116 H 0.30884 0.61266 0.82028 0.0
H117 H 0.38772 0.63495 0.83668 0.0
H118 H 0.40853 0.53351 0.77757 0.0
H119 H 0.33032 0.50995 0.76213 0.0
H120 H 0.50842 0.97612 0.27448 0.0
H121 H 0.61885 0.07595 0.25534 0.0
H122 H 0.51805 0.00248 0.19145 0.0
C123 C 0.52597 0.99427 0.25965 0.0
C124 C 0.50869 0.98437 0.23189 0.0
C125 C 0.56555 0.02756 0.26843 0.0
C126 C 0.58812 0.05072 0.2489 0.0
C127 C 0.57089 0.04139 0.22111 0.0
C128 C 0.53128 0.00873 0.21289 0.0
N129 N 0.59208 0.06434 0.20073 0.0
C130 C 0.63453 0.09207 0.20498 0.0
H131 H 0.61877 0.50555 0.59914 0.0
H132 H 0.61633 0.63917 0.57696 0.0
H133 H 0.63594 0.53785 0.51785 0.0
C134 C 0.62092 0.52961 0.58405 0.0
C135 C 0.6278 0.51588 0.55768 0.0
C136 C 0.61674 0.57391 0.59125 0.0
C137 C 0.61985 0.60514 0.57164 0.0
C138 C 0.6267 0.5922 0.54509 0.0
C139 C 0.63036 0.54755 0.53827 0.0
N140 N 0.63005 0.623 0.52477 0.0
C141 C 0.62906 0.66873 0.52877 0.0
H142 H 0.9534 0.38762 0.88824 0.0
H143 H 1.04458 0.30188 0.88871 0.0
H144 H 0.98374 0.33345 0.81283 0.0
C145 C 0.96939 0.36532 0.87737 0.0
C146 C 0.96394 0.36162 0.84887 0.0
C147 C 0.99861 0.3443 0.89199 0.0
C148 C 1.02108 0.31747 0.87771 0.0
C149 C 1.01565 0.31339 0.84917 0.0
C150 C 0.98709 0.33559 0.83484 0.0
N151 N 1.04291 0.29163 0.83519 0.0
C152 C 0.06782 0.31527 0.81734 0.0
H153 H 0.18367 0.6363 0.40114 0.0
H154 H 0.12198 0.49708 0.40981 0.0
H155 H 0.20436 0.58239 0.47796 0.0
C156 C 0.17747 0.60855 0.41375 0.0
C157 C 0.19693 0.6152 0.44115 0.0
C158 C 0.15114 0.56594 0.40212 0.0
C159 C 0.1423 0.53007 0.41856 0.0
C160 C 0.16101 0.53653 0.4461 0.0
C161 C 0.18887 0.57856 0.45699 0.0
N162 N 0.15435 0.50093 0.46317 0.0
C163 C 0.11582 0.46679 0.461 0.0
H164 H 0.60654 0.22426 0.77133 0.0
H165 H 0.58923 0.08735 0.79276 0.0
H166 H 0.59242 0.19641 0.85373 0.0
C167 C 0.60216 0.20048 0.78653 0.0
C168 C 0.60002 0.21654 0.81343 0.0
C169 C 0.59845 0.15406 0.77886 0.0
C170 C 0.5926 0.12317 0.79859 0.0
C171 C 0.59017 0.13838 0.82561 0.0
C172 C 0.59388 0.18492 0.83282 0.0
N173 N 0.58378 0.108 0.84605 0.0
C174 C 0.58069 0.06131 0.84226 0.0
H175 H 0.67466 0.53341 0.08128 0.0
H176 H 0.54139 0.52633 0.09489 0.0
H177 H 0.63103 0.48404 0.15469 0.0
C178 C 0.64907 0.52425 0.09399 0.0
C179 C 0.65911 0.50672 0.11873 0.0
C180 C 0.60711 0.53105 0.08521 0.0
C181 C 0.57372 0.52142 0.10184 0.0
C182 C 0.58148 0.50455 0.12705 0.0
C183 C 0.62468 0.49749 0.13547 0.0
N184 N 0.54676 0.49385 0.14391 0.0
C185 C 0.50226 0.49783 0.13901 0.0
C186 C 0.23961 0.4603 0.15339 0.0
C187 C 0.22114 0.49562 0.14425 0.0
C188 C 0.28477 0.46033 0.15234 0.0
C189 C 0.3135 0.49656 0.14191 0.0
C190 C 0.29504 0.53233 0.13276 0.0
C191 C 0.24986 0.5314 0.13398 0.0
C192 C 0.30181 0.42121 0.16245 0.0
C193 C 0.32322 0.57202 0.12157 0.0
C194 C 0.44105 0.51875 0.16179 0.0
C195 C 0.45492 0.49911 0.13891 0.0
C196 C 0.39592 0.51822 0.163 0.0
C197 C 0.36254 0.49738 0.14082 0.0
C198 C 0.37655 0.47767 0.11757 0.0
C199 C 0.422 0.47867 0.11693 0.0
C200 C 0.38391 0.53991 0.1883 0.0
C201 C 0.34327 0.45509 0.09325 0.0
H202 H 0.21865 0.43222 0.16136 0.0
H203 H 0.23699 0.5592 0.12678 0.0
H204 H 0.31493 0.40438 0.14589 0.0
H205 H 0.32944 0.4341 0.17929 0.0
H206 H 0.2759 0.39543 0.16982 0.0
H207 H 0.30453 0.59723 0.1152 0.0
H208 H 0.35152 0.58945 0.13716 0.0
H209 H 0.33692 0.55965 0.10379 0.0
H210 H 0.46568 0.53436 0.17908 0.0
H211 H 0.43171 0.46299 0.09916 0.0
H212 H 0.36048 0.51417 0.19745 0.0
H213 H 0.36707 0.56704 0.18299 0.0
H214 H 0.41318 0.55498 0.20378 0.0
H215 H 0.31855 0.42668 0.09941 0.0
H216 H 0.3588 0.44154 0.07665 0.0
H217 H 0.32527 0.47979 0.08523 0.0
C218 C 0.93881 0.24743 0.48541 0.0
C219 C 0.89883 0.25709 0.49029 0.0
C220 C 0.97268 0.28085 0.47773 0.0
C221 C 0.96645 0.32503 0.47479 0.0
C222 C 0.92544 0.33439 0.47843 0.0
C223 C 0.89215 0.30035 0.48618 0.0
C224 C 1.01586 0.26942 0.47395 0.0
C225 C 0.91747 0.38104 0.47546 0.0
C226 C 0.06882 0.42246 0.48989 0.0
C227 C 0.07746 0.43181 0.46378 0.0
C228 C 1.03251 0.38806 0.49368 0.0
C229 C 1.00424 0.36247 0.47069 0.0
C230 C 1.01275 0.37223 0.44416 0.0
C231 C 1.04952 0.40697 0.441 0.0
C232 C 1.0247 0.37881 0.5223 0.0
C233 C 0.9833 0.34577 0.41922 0.0
H234 H 0.94392 0.21385 0.48806 0.0
H235 H 0.86153 0.30825 0.49012 0.0
H236 H 1.02579 0.27947 0.45422 0.0
H237 H 1.04209 0.28891 0.49025 0.0
H238 H 1.01412 0.23258 0.47462 0.0
H239 H 0.88244 0.38145 0.47604 0.0
H240 H 0.93819 0.40567 0.49222 0.0
H241 H 0.92708 0.39303 0.45605 0.0
H242 H 0.09073 0.44196 0.50742 0.0
H243 H 1.05653 0.41453 0.42081 0.0
H244 H 1.02599 0.34332 0.52542 0.0
H245 H 0.99139 0.38234 0.52552 0.0
H246 H 1.04941 0.40227 0.53794 0.0
H247 H 0.9835 0.30925 0.41884 0.0
H248 H 0.99376 0.35834 0.40008 0.0
H249 H 0.94881 0.34805 0.41989 0.0
C250 C 0.61587 0.81135 0.8448 0.0
C251 C 0.57683 0.77706 0.84335 0.0
C252 C 0.61513 0.8573 0.84392 0.0
C253 C 0.57435 0.86972 0.84151 0.0
C254 C 0.53475 0.83541 0.83996 0.0
C255 C 0.53644 0.78955 0.84091 0.0
C256 C 0.65818 0.89266 0.84573 0.0
C257 C 0.49059 0.84719 0.83738 0.0
C258 C 0.57872 0.99281 0.86601 0.0
C259 C 0.57766 0.01286 0.84161 0.0
C260 C 0.57671 0.9461 0.86621 0.0
C261 C 0.57356 0.9188 0.84134 0.0
C262 C 0.57188 0.93905 0.81656 0.0
C263 C 0.57399 0.98597 0.817 0.0
C264 C 0.57875 0.92612 0.89308 0.0
C265 C 0.56857 0.91129 0.78963 0.0
H266 H 0.64736 0.8024 0.84666 0.0
H267 H 0.50605 0.7635 0.83968 0.0
H268 H 0.65806 0.91182 0.8276 0.0
H269 H 0.66222 0.91756 0.86387 0.0
H270 H 0.68707 0.8774 0.84712 0.0
H271 H 0.46278 0.81659 0.8359 0.0
H272 H 0.4892 0.87063 0.85525 0.0
H273 H 0.48612 0.86523 0.81905 0.0
H274 H 0.58151 0.01383 0.88503 0.0
H275 H 0.57309 1.00165 0.79813 0.0
H276 H 0.6087 0.91283 0.89652 0.0
H277 H 0.54988 0.89702 0.89276 0.0
H278 H 0.57945 0.95149 0.91048 0.0
H279 H 0.59816 0.8975 0.7892 0.0
H280 H 0.56573 0.93162 0.77213 0.0
H281 H 0.53952 0.88181 0.78705 0.0
C282 C 0.90856 0.45641 0.14398 0.0
C283 C 0.94038 0.49492 0.13894 0.0
C284 C 0.86304 0.4562 0.14311 0.0
C285 C 0.84748 0.49518 0.1366 0.0
C286 C 0.8795 0.53415 0.1316 0.0
C287 C 0.92489 0.53368 0.13303 0.0
C288 C 0.83139 0.4138 0.14909 0.0
C289 C 0.86564 0.57652 0.12421 0.0
C290 C 0.72586 0.48155 0.10422 0.0
C291 C 0.7056 0.49847 0.12525 0.0
C292 C 0.77085 0.47975 0.10779 0.0
C293 C 0.79789 0.49447 0.13332 0.0
C294 C 0.77736 0.50967 0.15511 0.0
C295 C 0.73202 0.51157 0.15087 0.0
C296 C 0.78985 0.4632 0.08368 0.0
C297 C 0.80371 0.52514 0.1829 0.0
H298 H 0.91928 0.42615 0.14884 0.0
H299 H 0.94832 0.56388 0.12907 0.0
H300 H 0.81215 0.42237 0.1651 0.0
H301 H 0.80755 0.39897 0.13058 0.0
H302 H 0.84852 0.38759 0.15589 0.0
H303 H 0.89406 0.60443 0.12147 0.0
H304 H 0.84207 0.56861 0.10503 0.0
H305 H 0.84837 0.58872 0.14028 0.0
H306 H 0.70648 0.47031 0.08436 0.0
H307 H 0.71778 0.52493 0.16746 0.0
H308 H 0.80437 0.43432 0.08862 0.0
H309 H 0.81677 0.49083 0.07884 0.0
H310 H 0.76475 0.45203 0.06527 0.0
H311 H 0.82072 0.49886 0.18965 0.0
H312 H 0.78282 0.53222 0.19832 0.0
H313 H 0.82953 0.55657 0.18197 0.0
C314 C 0.3202 0.87367 0.49093 0.0
C315 C 0.36488 0.87923 0.50108 0.0
C316 C 0.29235 0.83028 0.48301 0.0
C317 C 0.30926 0.79135 0.48591 0.0
C318 C 0.3536 0.7965 0.49756 0.0
C319 C 0.38101 0.84037 0.50475 0.0
C320 C 0.24534 0.82621 0.47042 0.0
C321 C 0.37258 0.75574 0.50146 0.0
C322 C 0.22597 0.67715 0.47989 0.0
C323 C 0.22641 0.65997 0.45297 0.0
C324 C 0.2535 0.71939 0.49115 0.0
C325 C 0.2814 0.74556 0.47492 0.0
C326 C 0.28209 0.72849 0.44779 0.0
C327 C 0.25505 0.68573 0.43728 0.0
C328 C 0.25248 0.73616 0.52032 0.0
C329 C 0.31106 0.75563 0.42972 0.0
H330 H 0.30712 0.90338 0.4886 0.0
H331 H 0.41552 0.84411 0.51227 0.0
H332 H 0.24033 0.811 0.44897 0.0
H333 H 0.22218 0.80321 0.4813 0.0
H334 H 0.23671 0.85967 0.47078 0.0
H335 H 0.40608 0.7653 0.51346 0.0
H336 H 0.3508 0.73058 0.51196 0.0
H337 H 0.37462 0.73867 0.48135 0.0
H338 H 0.20365 0.65789 0.49212 0.0
H339 H 0.25656 0.67243 0.41672 0.0
H340 H 0.24054 0.76776 0.52107 0.0
H341 H 0.28624 0.74471 0.53186 0.0
H342 H 0.23081 0.71059 0.53067 0.0
H343 H 0.30292 0.78904 0.42795 0.0
H344 H 0.30725 0.73777 0.40896 0.0
H345 H 0.34614 0.76252 0.43887 0.0
C346 C 0.62705 0.4861 0.85585 0.0
C347 C 0.59607 0.5006 0.83815 0.0
C348 C 0.62977 0.44033 0.85391 0.0
C349 C 0.60133 0.40834 0.83349 0.0
C350 C 0.57029 0.42292 0.81543 0.0
C351 C 0.56782 0.46863 0.8181 0.0
C352 C 0.66293 0.42615 0.87379 0.0
C353 C 0.53985 0.39025 0.79307 0.0
C354 C 0.63202 0.29949 0.80904 0.0
C355 C 0.6033 0.26612 0.82077 0.0
C356 C 0.63252 0.34588 0.81354 0.0
C357 C 0.60415 0.35971 0.83061 0.0
C358 C 0.57656 0.32657 0.84354 0.0
C359 C 0.57626 0.28026 0.83836 0.0
C360 C 0.6624 0.37992 0.79925 0.0
C361 C 0.54629 0.33987 0.86222 0.0
H362 H 0.64892 0.51043 0.87148 0.0
H363 H 0.54396 0.47941 0.80418 0.0
H364 H 0.64591 0.3983 0.88478 0.0
H365 H 0.68649 0.41272 0.8627 0.0
H366 H 0.68182 0.45479 0.88895 0.0
H367 H 0.51788 0.407 0.78051 0.0
H368 H 0.55945 0.37514 0.77956 0.0
H369 H 0.51912 0.36187 0.80195 0.0
H370 H 0.6539 0.2893 0.79596 0.0
H371 H 0.5537 0.25499 0.84742 0.0
H372 H 0.68371 0.40738 0.81423 0.0
H373 H 0.64225 0.39613 0.78507 0.0
H374 H 0.68374 0.36399 0.7875 0.0
H375 H 0.56497 0.36778 0.87786 0.0
H376 H 0.52993 0.31082 0.87263 0.0
H377 H 0.52047 0.35277 0.85035 0.0
C378 C 0.59184 0.91873 0.51852 0.0
C379 C 0.62977 0.95276 0.52933 0.0
C380 C 0.59079 0.87225 0.5193 0.0
C381 C 0.62863 0.85917 0.53107 0.0
C382 C 0.66685 0.89331 0.54227 0.0
C383 C 0.66694 0.93956 0.54131 0.0
C384 C 0.54927 0.8371 0.50722 0.0
C385 C 0.70791 0.88095 0.555 0.0
C386 C 0.61593 0.73854 0.55191 0.0
C387 C 0.62911 0.71661 0.52982 0.0
C388 C 0.61562 0.78497 0.55266 0.0
C389 C 0.62879 0.80983 0.53078 0.0
C390 C 0.64216 0.78744 0.50845 0.0
C391 C 0.64214 0.7411 0.50827 0.0
C392 C 0.60112 0.8074 0.57682 0.0
C393 C 0.65642 0.81243 0.4847 0.0
H394 H 0.56278 0.92834 0.50937 0.0
H395 H 0.69641 0.9654 0.54979 0.0
H396 H 0.55603 0.81594 0.48987 0.0
H397 H 0.53811 0.81394 0.52255 0.0
H398 H 0.52204 0.85276 0.4999 0.0
H399 H 0.73446 0.91143 0.56355 0.0
H400 H 0.70013 0.85909 0.57151 0.0
H401 H 0.72051 0.86106 0.53956 0.0
H402 H 0.60578 0.71941 0.56855 0.0
H403 H 0.65227 0.72392 0.49118 0.0
H404 H 0.57227 0.82095 0.56999 0.0
H405 H 0.6279 0.8367 0.58666 0.0
H406 H 0.5921 0.78352 0.59222 0.0
H407 H 0.62927 0.82618 0.47511 0.0
H408 H 0.66601 0.79021 0.46898 0.0
H409 H 0.68483 0.84181 0.49192 0.0
C410 C 0.83112 0.54296 0.79926 0.0
C411 C 0.84084 0.57351 0.82302 0.0
C412 C 0.85251 0.50754 0.79651 0.0
C413 C 0.88427 0.50283 0.81802 0.0
C414 C 0.89709 0.53606 0.84086 0.0
C415 C 0.87513 0.57095 0.84311 0.0
C416 C 0.83862 0.47331 0.7716 0.0
C417 C 0.93132 0.53258 0.86412 0.0
C418 C 0.8965 0.39047 0.8405 0.0
C419 C 0.93869 0.39028 0.83456 0.0
C420 C 0.8764 0.42498 0.83279 0.0
C421 C 0.8994 0.46021 0.81904 0.0
C422 C 0.94016 0.45767 0.81068 0.0
C423 C 0.95946 0.42257 0.81861 0.0
C424 C 0.83245 0.42601 0.84166 0.0
C425 C 0.96537 0.49416 0.79567 0.0
H426 H 0.80527 0.5454 0.78337 0.0
H427 H 0.88271 0.59417 0.8616 0.0
H428 H 0.86744 0.46296 0.76479 0.0
H429 H 0.81578 0.44232 0.77663 0.0
H430 H 0.82137 0.48692 0.75451 0.0
H431 H 0.94092 0.56368 0.87887 0.0
H432 H 0.91804 0.50307 0.87512 0.0
H433 H 0.9613 0.52679 0.85636 0.0
H434 H 0.88043 0.36514 0.85265 0.0
H435 H 0.99226 0.42253 0.81416 0.0
H436 H 0.80971 0.43306 0.82461 0.0
H437 H 0.83722 0.45379 0.85835 0.0
H438 H 0.81658 0.39344 0.84909 0.0
H439 H 0.94286 0.50594 0.78049 0.0
H440 H 0.99028 0.48197 0.78516 0.0
H441 H 0.98285 0.52391 0.81041 0.0
C442 C 0.27473 0.82176 0.16701 0.0
C443 C 0.26975 0.77741 0.17455 0.0
C444 C 0.31307 0.85594 0.17667 0.0
C445 C 0.34711 0.84572 0.19455 0.0
C446 C 0.34211 0.80126 0.20256 0.0
C447 C 0.30367 0.76761 0.19234 0.0
C448 C 0.31733 0.90289 0.16752 0.0
C449 C 0.37758 0.78909 0.22171 0.0
C450 C 0.46347 0.9192 0.19882 0.0
C451 C 0.46725 0.94861 0.22257 0.0
C452 C 0.42451 0.88582 0.18942 0.0
C453 C 0.38852 0.8812 0.2043 0.0
C454 C 0.39216 0.91035 0.22845 0.0
C455 C 0.43138 0.94386 0.23721 0.0
C456 C 0.42185 0.85552 0.1635 0.0
C457 C 0.35459 0.9062 0.24498 0.0
H458 H 0.24849 0.82991 0.15364 0.0
H459 H 0.30055 0.73334 0.19797 0.0
H460 H 0.32261 0.92851 0.18544 0.0
H461 H 0.34651 0.91187 0.15678 0.0
H462 H 0.28774 0.90541 0.15371 0.0
H463 H 0.36781 0.7535 0.22686 0.0
H464 H 0.40827 0.79334 0.21235 0.0
H465 H 0.38533 0.8124 0.24083 0.0
H466 H 0.49122 0.922 0.18762 0.0
H467 H 0.4337 0.96677 0.25537 0.0
H468 H 0.39388 0.8587 0.14856 0.0
H469 H 0.41558 0.8194 0.16773 0.0
H470 H 0.45253 0.864 0.15408 0.0
H471 H 0.32518 0.91197 0.23246 0.0
H472 H 0.36299 0.93089 0.26357 0.0
H473 H 0.34537 0.87127 0.25115 0.0
C474 C 0.59663 0.24722 0.54228 0.0
C475 C 0.62951 0.2315 0.53066 0.0
C476 C 0.59721 0.29379 0.54509 0.0
C477 C 0.63137 0.32573 0.53593 0.0
C478 C 0.66424 0.31007 0.52373 0.0
C479 C 0.66302 0.26326 0.52133 0.0
C480 C 0.56165 0.30892 0.55839 0.0
C481 C 0.70108 0.34285 0.51353 0.0
C482 C 0.6104 0.44291 0.52617 0.0
C483 C 0.63185 0.46833 0.55079 0.0
C484 C 0.61103 0.39688 0.52066 0.0
C485 C 0.63351 0.37557 0.54026 0.0
C486 C 0.65639 0.40146 0.56473 0.0
C487 C 0.65546 0.44738 0.56962 0.0
C488 C 0.58648 0.37066 0.49422 0.0
C489 C 0.68087 0.38029 0.58619 0.0
H490 H 0.57058 0.22316 0.5496 0.0
H491 H 0.68855 0.25162 0.51223 0.0
H492 H 0.57664 0.33186 0.57723 0.0
H493 H 0.54467 0.32851 0.54461 0.0
H494 H 0.53671 0.27979 0.56373 0.0
H495 H 0.72296 0.32514 0.50344 0.0
H496 H 0.68729 0.36348 0.49888 0.0
H497 H 0.72127 0.3668 0.53076 0.0
H498 H 0.59183 0.45855 0.51154 0.0
H499 H 0.67296 0.46687 0.58845 0.0
H500 H 0.55847 0.34364 0.49842 0.0
H501 H 0.6084 0.35361 0.48376 0.0
H502 H 0.57346 0.39286 0.48026 0.0
H503 H 0.65738 0.35267 0.59396 0.0
H504 H 0.69846 0.40544 0.60364 0.0
H505 H 0.70519 0.36471 0.57724 0.0
C506 C 0.24388 0.50897 0.76274 0.0
C507 C 0.26567 0.53369 0.78752 0.0
C508 C 0.20492 0.47483 0.76184 0.0
C509 C 0.18735 0.46562 0.78621 0.0
C510 C 0.20624 0.49403 0.81057 0.0
C511 C 0.24523 0.52755 0.81096 0.0
C512 C 0.18483 0.44615 0.73531 0.0
C513 C 0.18787 0.48609 0.83694 0.0
C514 C 0.07978 0.38414 0.79376 0.0
C515 C 0.09518 0.34764 0.80317 0.0
C516 C 0.10884 0.42173 0.7858 0.0
C517 C 0.15419 0.42255 0.78766 0.0
C518 C 0.169 0.38389 0.79518 0.0
C519 C 0.13918 0.34684 0.803 0.0
C520 C 0.09141 0.46183 0.77771 0.0
C521 C 0.21703 0.38318 0.79721 0.0
H522 H 0.25874 0.51428 0.74436 0.0
H523 H 0.26156 0.54607 0.8303 0.0
H524 H 0.19362 0.41283 0.73542 0.0
H525 H 0.14836 0.43934 0.7327 0.0
H526 H 0.19691 0.4627 0.71759 0.0
H527 H 0.203 0.5144 0.85319 0.0
H528 H 0.15169 0.48212 0.83386 0.0
H529 H 0.19424 0.45414 0.84408 0.0
H530 H 1.04555 0.38454 0.79406 0.0
H531 H 0.15082 0.31849 0.81052 0.0
H532 H 0.10978 0.47968 0.76242 0.0
H533 H 0.09517 0.48646 0.79595 0.0
H534 H 1.05585 0.45107 0.76931 0.0
H535 H 0.23041 0.394 0.77849 0.0
H536 H 0.22228 0.34889 0.80037 0.0
H537 H 0.23621 0.40758 0.81456 0.0
C538 C 0.85076 0.27415 0.18846 0.0
C539 C 0.88951 0.26105 0.19741 0.0
C540 C 0.80937 0.24798 0.19217 0.0
C541 C 0.80661 0.2076 0.20506 0.0
C542 C 0.84566 0.19505 0.21505 0.0
C543 C 0.88666 0.22193 0.21109 0.0
C544 C 0.76851 0.26251 0.18119 0.0
C545 C 0.84405 0.15235 0.22902 0.0
C546 C 0.69737 0.15292 0.22795 0.0
C547 C 0.67849 0.11995 0.20603 0.0
C548 C 0.73954 0.18144 0.22821 0.0
C549 C 0.76282 0.1766 0.20597 0.0
C550 C 0.74372 0.14269 0.18398 0.0
C551 C 0.70166 0.11473 0.18431 0.0
C552 C 0.75887 0.21715 0.25199 0.0
C553 C 0.7674 0.13641 0.15989 0.0
H554 H 0.85259 0.30401 0.17757 0.0
H555 H 0.91652 0.21199 0.21841 0.0
H556 H 0.7495 0.23753 0.16406 0.0
H557 H 0.74688 0.26313 0.19712 0.0
H558 H 0.77643 0.2967 0.17378 0.0
H559 H 0.87737 0.14938 0.23758 0.0
H560 H 0.82361 0.1517 0.24568 0.0
H561 H 0.8284 0.12207 0.21426 0.0
H562 H 0.67901 0.15669 0.24468 0.0
H563 H 0.68661 0.08907 0.16738 0.0
H564 H 0.76395 0.25154 0.24491 0.0
H565 H 0.7916 0.2132 0.26091 0.0
H566 H 0.73733 0.21526 0.26816 0.0
H567 H 0.77347 0.16801 0.14961 0.0
H568 H 0.74838 0.10776 0.14479 0.0
H569 H 0.79996 0.1299 0.16684 0.0
C570 C 1.05038 0.4765 0.04045 0.0
C571 C 1.05903 0.44926 0.06097 0.0
C572 C 1.04117 0.45849 0.01293 0.0
C573 C 1.04016 0.41213 0.00591 0.0
C574 C 1.04877 0.38454 0.02655 0.0
C575 C 1.05826 0.40345 0.05375 0.0
C576 C 1.03247 0.48902 0.99138 0.0
C577 C 1.04756 0.33487 0.01993 0.0
C578 C 0.97579 0.3552 0.93789 0.0
C579 C 1.0095 0.3561 0.92184 0.0
C580 C 0.98534 0.3728 0.96538 0.0
C581 C 1.02967 0.39216 0.977 0.0
C582 C 1.06394 0.39214 0.96106 0.0
C583 C 1.05344 0.37389 0.93367 0.0
C584 C 0.94796 0.37154 0.98184 0.0
C585 C 0.11157 0.41266 0.97271 0.0
H586 H 1.05098 0.51189 0.04584 0.0
H587 H 1.0646 0.38194 0.06944 0.0
H588 H 1.05612 0.48963 0.97655 0.0
H589 H 0.99891 0.47543 0.97994 0.0
H590 H 1.03532 0.52447 0.00014 0.0
H591 H 1.05499 0.31805 0.0384 0.0
H592 H 1.01453 0.3165 0.00923 0.0
H593 H 0.0718 0.33138 0.00602 0.0
H594 H 0.9418 0.3415 0.92871 0.0
H595 H 0.07949 0.37541 0.92116 0.0
H596 H 0.9469 0.40674 0.98888 0.0
H597 H 0.95334 0.3539 0.00023 0.0
H598 H 0.91548 0.35395 0.96999 0.0
H599 H 0.11624 0.44935 0.9794 0.0
H600 H 0.13434 0.40919 0.95776 0.0
H601 H 0.12082 0.39609 0.9909 0.0
C602 C 0.58395 0.08751 0.42666 0.0
C603 C 0.62421 0.08793 0.44232 0.0
C604 C 0.5781 0.07948 0.39821 0.0
C605 C 0.61352 0.07218 0.38495 0.0
C606 C 0.65472 0.07402 0.40053 0.0
C607 C 0.65951 0.0816 0.42907 0.0
C608 C 0.53353 0.07744 0.38238 0.0
C609 C 0.69341 0.06707 0.38708 0.0
C610 C 0.5792 0.00425 0.31546 0.0
C611 C 0.58233 0.0388 0.29804 0.0
C612 C 0.59075 0.01459 0.34373 0.0
C613 C 0.60641 0.0606 0.35489 0.0
C614 C 0.61178 0.09552 0.33737 0.0
C615 C 0.59944 0.08424 0.30917 0.0
C616 C 0.58446 0.97633 0.36171 0.0
C617 C 0.62885 0.14495 0.34846 0.0
H618 H 0.55641 0.09221 0.43667 0.0
H619 H 0.6908 0.08211 0.44099 0.0
H620 H 0.53684 0.10205 0.36691 0.0
H621 H 0.51964 0.04301 0.37135 0.0
H622 H 0.50975 0.0851 0.39569 0.0
H623 H 0.72402 0.07278 0.40187 0.0
H624 H 0.68594 0.03186 0.37689 0.0
H625 H 0.69948 0.09053 0.37114 0.0
H626 H 0.56699 0.96899 0.30703 0.0
H627 H 0.60169 0.11124 0.29596 0.0
H628 H 0.55873 0.97948 0.37459 0.0
H629 H 0.61535 0.97846 0.37558 0.0
H630 H 0.57442 0.94228 0.34979 0.0
H631 H 0.60408 0.15596 0.35964 0.0
H632 H 0.63584 0.16743 0.3321 0.0
H633 H 0.65941 0.14967 0.36312 0.0
C634 C 0.62811 0.61229 0.75111 0.0
C635 C 0.59521 0.63122 0.76032 0.0
C636 C 0.63087 0.60562 0.72326 0.0
C637 C 0.60028 0.6186 0.7041 0.0
C638 C 0.56764 0.63874 0.71325 0.0
C639 C 0.56535 0.6446 0.74127 0.0
C640 C 0.66593 0.58366 0.71433 0.0
C641 C 0.53476 0.65345 0.69343 0.0
C642 C 0.63256 0.62967 0.63329 0.0
C643 C 0.6097 0.58726 0.61946 0.0
C644 C 0.62861 0.64107 0.66059 0.0
C645 C 0.60148 0.60915 0.67446 0.0
C646 C 0.57729 0.5669 0.66038 0.0
C647 C 0.58145 0.55663 0.63305 0.0
C648 C 0.6546 0.68664 0.67485 0.0
C649 C 0.54805 0.53188 0.67443 0.0
H650 H 0.65133 0.60179 0.76564 0.0
H651 H 0.53999 0.65948 0.74821 0.0
H652 H 0.6502 0.55106 0.7016 0.0
H653 H 0.68632 0.60594 0.70165 0.0
H654 H 0.68795 0.57668 0.73184 0.0
H655 H 0.513 0.67082 0.70388 0.0
H656 H 0.55221 0.67684 0.68002 0.0
H657 H 0.5139 0.62336 0.68017 0.0
H658 H 0.65469 0.65343 0.62305 0.0
H659 H 0.56289 0.52421 0.62236 0.0
H660 H 0.68018 0.68158 0.69089 0.0
H661 H 0.63271 0.70416 0.68502 0.0
H662 H 0.67104 0.70916 0.66062 0.0
H663 H 0.56828 0.52073 0.69121 0.0
H664 H 0.53008 0.50144 0.66032 0.0
H665 H 0.52365 0.54697 0.68363 0.0
C666 C 0.59227 0.06395 0.62176 0.0
C667 C 0.62653 0.09291 0.61134 0.0
C668 C 0.58764 0.06911 0.64945 0.0
C669 C 0.61773 0.10433 0.66709 0.0
C670 C 0.65327 0.1326 0.65691 0.0
C671 C 0.65735 0.12642 0.6292 0.0
C672 C 0.54964 0.0379 0.6596 0.0
C673 C 0.68594 0.1707 0.67503 0.0
C674 C 0.57962 0.1563 0.72866 0.0
C675 C 0.60082 0.13834 0.75015 0.0
C676 C 0.58422 0.14478 0.70156 0.0
C677 C 0.61024 0.11406 0.69566 0.0
C678 C 0.63038 0.09439 0.71711 0.0
C679 C 0.62557 0.1069 0.74413 0.0
C680 C 0.5621 0.16646 0.67929 0.0
C681 C 0.65798 0.06114 0.71159 0.0
H682 H 0.56847 0.03771 0.60818 0.0
H683 H 0.68395 0.14896 0.6214 0.0
H684 H 0.5616 0.02329 0.67799 0.0
H685 H 0.52607 0.05759 0.66552 0.0
H686 H 0.53171 0.00959 0.64396 0.0
H687 H 0.71324 0.18781 0.66441 0.0
H688 H 0.66885 0.19648 0.68219 0.0
H689 H 0.7002 0.15747 0.69332 0.0
H690 H 0.55962 0.17981 0.73307 0.0
H691 H 0.64227 0.09305 0.76059 0.0
H692 H 0.54041 0.13979 0.66397 0.0
H693 H 0.58737 0.18715 0.66863 0.0
H694 H 0.54204 0.18875 0.68722 0.0
H695 H 0.63934 0.03321 0.69596 0.0
H696 H 0.66841 0.04611 0.73022 0.0
H697 H 0.68788 0.07867 0.70341 0.0
C698 C 0.61523 0.64632 0.9461 0.0
C699 C 0.57956 0.62499 0.9261 0.0
C700 C 0.61734 0.63395 0.97283 0.0
C701 C 0.58296 0.59946 0.97978 0.0
C702 C 0.54592 0.5794 0.96004 0.0
C703 C 0.54467 0.59237 0.9335 0.0
C704 C 0.65737 0.65628 0.99329 0.0
C705 C 0.50849 0.54263 0.96657 0.0
C706 C 0.61348 0.52857 0.03549 0.0
C707 C 0.59858 0.54748 0.05804 0.0
C708 C 0.60835 0.54505 0.01 0.0
C709 C 0.58764 0.58139 0.00681 0.0
C710 C 0.57168 0.60012 0.02933 0.0
C711 C 0.57726 0.58287 0.05468 0.0
C712 C 0.62549 0.52374 0.98652 0.0
C713 C 0.54936 0.63881 0.02673 0.0
H714 H 0.64233 0.6716 0.94068 0.0
H715 H 0.51677 0.57582 0.91832 0.0
H716 H 0.64726 0.66874 0.01244 0.0
H717 H 0.67656 0.63092 -0.00164 0.0
H718 H 0.67923 0.6853 0.98552 0.0
H719 H 0.48024 0.53357 0.94985 0.0
H720 H 0.52028 0.51159 0.97021 0.0
H721 H 0.49671 0.55364 0.98546 0.0
H722 H 0.62933 0.50071 0.0378 0.0
H723 H 0.56592 0.59783 0.07205 0.0
H724 H 0.65063 0.54986 0.97882 0.0
H725 H 0.59829 0.51028 0.96949 0.0
H726 H 0.64051 0.49552 0.99232 0.0
H727 H 0.57259 0.66891 0.02103 0.0
H728 H 0.53768 0.64873 0.04592 0.0
H729 H 0.5208 0.62911 0.01027 0.0
C730 C 0.13532 0.56145 0.24122 0.0
C731 C 0.09608 0.53301 0.22731 0.0
C732 C 0.14257 0.56823 0.26982 0.0
C733 C 0.10953 0.54658 0.28474 0.0
C734 C 0.06914 0.51944 0.2707 0.0
C735 C 1.06304 0.51277 0.2422 0.0
C736 C 0.18618 0.59721 0.2841 0.0
C737 C 1.0328 0.49641 0.2858 0.0
C738 C 0.14486 0.52218 0.35672 0.0
C739 C 0.13627 0.55858 0.37233 0.0
C740 C 0.13615 0.51783 0.3282 0.0
C741 C 0.11793 0.55039 0.315 0.0
C742 C 0.10785 0.58639 0.33071 0.0
C743 C 0.11739 0.59021 0.3592 0.0
C744 C 0.14757 0.47907 0.31217 0.0
C745 C 0.08764 0.62125 0.31741 0.0
H746 H 0.16097 0.57711 0.22982 0.0
H747 H 1.03241 0.49109 0.23157 0.0
H748 H 0.1808 0.62431 0.29853 0.0
H749 H 0.20383 0.57592 0.29617 0.0
H750 H 0.2076 0.61336 0.26961 0.0
H751 H 1.00224 0.47916 0.27185 0.0
H752 H 1.04392 0.47069 0.29773 0.0
H753 H 1.02489 0.52164 0.30043 0.0
H754 H 0.16005 0.49807 0.3668 0.0
H755 H 0.11054 0.61826 0.37127 0.0
H756 H 0.17215 0.49279 0.29883 0.0
H757 H 0.11784 0.45835 0.29879 0.0
H758 H 0.16124 0.45646 0.32552 0.0
H759 H 0.11047 0.64017 0.30458 0.0
H760 H 0.08017 0.64608 0.33255 0.0
H761 H 1.05672 0.60407 0.30383 0.0
loop_
_geom_bond_atom_site_label_1
_geom_bond_atom_site_label_2
_geom_bond_distance
_geom_bond_site_symmetry_2
_ccdc_geom_bond_type
Dy0 O3 2.307 1_455 S
Dy0 O5 2.395 . S
Dy0 O6 2.379 . S
Dy0 O8 2.339 . S
Dy0 O10 2.298 . S
Dy0 O14 2.275 . S
Dy0 C22 2.738 . S
Dy1 O4 2.298 . S
Dy1 O7 2.275 1_655 S
Dy1 O9 2.307 1_655 S
Dy1 O11 2.395 . S
Dy1 O12 2.379 . S
Dy1 O15 2.339 . S
Dy1 C31 2.738 . S
C2 O14 1.254 . S
C2 O15 1.257 1_455 S
O3 Dy0 2.307 1_655 S
O3 C13 1.266 . S
O4 Dy1 2.298 . S
O4 C13 1.236 . S
O5 Dy0 2.395 . S
O5 C22 1.255 . S
O6 Dy0 2.379 . S
O6 C22 1.249 . S
O7 Dy1 2.275 1_455 S
O7 C23 1.254 . S
O8 Dy0 2.339 . S
O8 C23 1.257 . S
O9 Dy1 2.307 1_455 S
O9 C24 1.266 . S
O10 Dy0 2.298 . S
O10 C24 1.236 . S
O11 Dy1 2.395 . S
O11 C31 1.255 . S
O12 Dy1 2.379 . S
O12 C31 1.249 . S
C13 O3 1.266 . S
C13 O4 1.236 . S
O14 Dy0 2.275 . S
O14 C2 1.254 . S
O15 Dy1 2.339 . S
O15 C2 1.257 1_655 S
C16 C19 1.344 . S
C16 C20 1.328 . S
C16 C22 1.516 . S
C17 C18 1.304 . S
C17 C21 1.323 . S
C18 C17 1.304 . S
C18 C19 1.371 . S
C18 H32 0.930 . S
C19 C16 1.344 . S
C19 C18 1.371 . S
C19 H33 0.931 . S
C20 C16 1.328 . S
C20 C21 1.433 . S
C20 H34 0.931 . S
C21 C17 1.323 . S
C21 C20 1.433 . S
C21 H35 0.933 . S
C22 Dy0 2.738 . S
C22 O5 1.255 . S
C22 O6 1.249 . S
C22 C16 1.516 . S
C23 O7 1.254 . S
C23 O8 1.257 . S
C24 O9 1.266 . S
C24 O10 1.236 . S
C25 C28 1.344 . S
C25 C29 1.328 . S
C25 C31 1.516 . S
C26 C27 1.304 . S
C26 C30 1.323 . S
C27 C26 1.304 . S
C27 C28 1.371 . S
C27 H36 0.930 . S
C28 C25 1.344 . S
C28 C27 1.371 . S
C28 H37 0.931 . S
C29 C25 1.328 . S
C29 C30 1.433 . S
C29 H38 0.931 . S
C30 C26 1.323 . S
C30 C29 1.433 . S
C30 H39 0.933 . S
C31 Dy1 2.738 . S
C31 O11 1.255 . S
C31 O12 1.249 . S
C31 C25 1.516 . S
H32 C18 0.930 . S
H33 C19 0.931 . S
H34 C20 0.931 . S
H35 C21 0.933 . S
H36 C27 0.930 . S
H37 C28 0.931 . S
H38 C29 0.931 . S
H39 C30 0.933 . S
Dy40 O43 2.307 . S
Dy40 O45 2.395 1_545 S
Dy40 O46 2.379 1_545 S
Dy40 O48 2.339 . S
Dy40 O50 2.298 1_545 S
Dy40 O54 2.275 . S
Dy40 C62 2.738 1_545 S
Dy41 O44 2.298 . S
Dy41 O47 2.275 . S
Dy41 O49 2.307 1_545 S
Dy41 O51 2.395 . S
Dy41 O52 2.379 . S
Dy41 O55 2.339 . S
Dy41 C71 2.738 . S
C42 O54 1.254 . S
C42 O55 1.257 . S
O43 Dy40 2.307 . S
O43 C53 1.266 . S
O44 Dy41 2.298 . S
O44 C53 1.236 . S
O45 Dy40 2.395 1_565 S
O45 C62 1.255 . S
O46 Dy40 2.379 1_565 S
O46 C62 1.249 . S
O47 Dy41 2.275 . S
O47 C63 1.254 . S
O48 Dy40 2.339 . S
O48 C63 1.257 . S
O49 Dy41 2.307 1_565 S
O49 C64 1.266 . S
O50 Dy40 2.298 1_565 S
O50 C64 1.236 . S
O51 Dy41 2.395 . S
O51 C71 1.255 . S
O52 Dy41 2.379 . S
O52 C71 1.249 . S
C53 O43 1.266 . S
C53 O44 1.236 . S
O54 Dy40 2.275 . S
O54 C42 1.254 . S
O55 Dy41 2.339 . S
O55 C42 1.257 . S
C56 C59 1.344 . S
C56 C60 1.328 . S
C56 C62 1.516 . S
C57 C58 1.304 . S
C57 C61 1.323 . S
C58 C57 1.304 . S
C58 C59 1.371 . S
C58 H72 0.930 . S
C59 C56 1.344 . S
C59 C58 1.371 . S
C59 H73 0.931 . S
C60 C56 1.328 . S
C60 C61 1.433 . S
C60 H74 0.931 . S
C61 C57 1.323 . S
C61 C60 1.433 . S
C61 H75 0.933 . S
C62 Dy40 2.738 1_565 S
C62 O45 1.255 . S
C62 O46 1.249 . S
C62 C56 1.516 . S
C63 O47 1.254 . S
C63 O48 1.257 . S
C64 O49 1.266 . S
C64 O50 1.236 . S
C65 C68 1.344 . S
C65 C69 1.328 . S
C65 C71 1.516 . S
C66 C67 1.304 . S
C66 C70 1.323 . S
C67 C66 1.304 . S
C67 C68 1.371 . S
C67 H76 0.930 . S
C68 C65 1.344 . S
C68 C67 1.371 . S
C68 H77 0.931 . S
C69 C65 1.328 . S
C69 C70 1.433 . S
C69 H78 0.931 . S
C70 C66 1.323 . S
C70 C69 1.433 . S
C70 H79 0.933 . S
C71 Dy41 2.738 . S
C71 O51 1.255 . S
C71 O52 1.249 . S
C71 C65 1.516 . S
H72 C58 0.930 . S
H73 C59 0.931 . S
H74 C60 0.931 . S
H75 C61 0.933 . S
H76 C67 0.930 . S
H77 C68 0.931 . S
H78 C69 0.931 . S
H79 C70 0.933 . S
Dy80 O83 2.307 . S
Dy80 O85 2.395 . S
Dy80 O86 2.379 . S
Dy80 O88 2.339 . S
Dy80 O90 2.298 . S
Dy80 O94 2.275 . S
Dy80 C102 2.738 . S
Dy81 O84 2.298 . S
Dy81 O87 2.275 . S
Dy81 O89 2.307 . S
Dy81 O91 2.395 . S
Dy81 O92 2.379 . S
Dy81 O95 2.339 . S
Dy81 C111 2.738 . S
C82 O94 1.254 . S
C82 O95 1.257 . S
O83 Dy80 2.307 . S
O83 C93 1.266 . S
O84 Dy81 2.298 . S
O84 C93 1.236 . S
O85 Dy80 2.395 . S
O85 C102 1.255 . S
O86 Dy80 2.379 . S
O86 C102 1.249 . S
O87 Dy81 2.275 . S
O87 C103 1.254 . S
O88 Dy80 2.339 . S
O88 C103 1.257 . S
O89 Dy81 2.307 . S
O89 C104 1.266 . S
O90 Dy80 2.298 . S
O90 C104 1.236 . S
O91 Dy81 2.395 . S
O91 C111 1.255 . S
O92 Dy81 2.379 . S
O92 C111 1.249 . S
C93 O83 1.266 . S
C93 O84 1.236 . S
O94 Dy80 2.275 . S
O94 C82 1.254 . S
O95 Dy81 2.339 . S
O95 C82 1.257 . S
C96 C99 1.344 . S
C96 C100 1.328 . S
C96 C102 1.516 . S
C97 C98 1.304 . S
C97 C101 1.323 . S
C98 C97 1.304 . S
C98 C99 1.371 . S
C98 H112 0.930 . S
C99 C96 1.344 . S
C99 C98 1.371 . S
C99 H113 0.931 . S
C100 C96 1.328 . S
C100 C101 1.433 . S
C100 H114 0.931 . S
C101 C97 1.323 . S
C101 C100 1.433 . S
C101 H115 0.933 . S
C102 Dy80 2.738 . S
C102 O85 1.255 . S
C102 O86 1.249 . S
C102 C96 1.516 . S
C103 O87 1.254 . S
C103 O88 1.257 . S
C104 O89 1.266 . S
C104 O90 1.236 . S
C105 C108 1.344 . S
C105 C109 1.328 . S
C105 C111 1.516 . S
C106 C107 1.304 . S
C106 C110 1.323 . S
C107 C106 1.304 . S
C107 C108 1.371 . S
C107 H116 0.930 . S
C108 C105 1.344 . S
C108 C107 1.371 . S
C108 H117 0.931 . S
C109 C105 1.328 . S
C109 C110 1.433 . S
C109 H118 0.931 . S
C110 C106 1.323 . S
C110 C109 1.433 . S
C110 H119 0.933 . S
C111 Dy81 2.738 . S
C111 O91 1.255 . S
C111 O92 1.249 . S
C111 C105 1.516 . S
H112 C98 0.930 . S
H113 C99 0.931 . S
H114 C100 0.931 . S
H115 C101 0.933 . S
H116 C107 0.930 . S
H117 C108 0.931 . S
H118 C109 0.931 . S
H119 C110 0.933 . S
H120 C123 0.929 . S
H121 C126 0.929 . S
H122 C128 0.930 . S
C123 H120 0.929 . S
C123 C124 1.398 . S
C123 C125 1.396 . S
C124 C123 1.398 . S
C124 C128 1.407 . S
C125 C123 1.396 . S
C125 C126 1.394 . S
C126 H121 0.929 . S
C126 C125 1.394 . S
C126 C127 1.382 . S
C127 C126 1.382 . S
C127 C128 1.392 . S
C127 N129 1.420 . S
C128 H122 0.930 . S
C128 C124 1.407 . S
C128 C127 1.392 . S
N129 C127 1.420 . S
N129 C130 1.244 . S
C130 N129 1.244 . S
H131 C134 0.929 . S
H132 C137 0.929 . S
H133 C139 0.930 . S
C134 H131 0.929 . S
C134 C135 1.398 . S
C134 C136 1.396 . S
C135 C134 1.398 . S
C135 C139 1.407 . S
C136 C134 1.396 . S
C136 C137 1.394 . S
C137 H132 0.929 . S
C137 C136 1.394 . S
C137 C138 1.382 . S
C138 C137 1.382 . S
C138 C139 1.392 . S
C138 N140 1.420 . S
C139 H133 0.930 . S
C139 C135 1.407 . S
C139 C138 1.392 . S
N140 C138 1.420 . S
N140 C141 1.244 . S
C141 N140 1.244 . S
H142 C145 0.929 . S
H143 C148 0.929 . S
H144 C150 0.930 . S
C145 H142 0.929 . S
C145 C146 1.398 . S
C145 C147 1.396 1_655 S
C146 C145 1.398 . S
C146 C150 1.407 1_655 S
C147 C145 1.396 1_455 S
C147 C148 1.394 . S
C148 H143 0.929 . S
C148 C147 1.394 . S
C148 C149 1.382 . S
C149 C148 1.382 . S
C149 C150 1.392 . S
C149 N151 1.420 . S
C150 H144 0.930 . S
C150 C146 1.407 1_455 S
C150 C149 1.392 . S
N151 C149 1.420 . S
N151 C152 1.244 . S
C152 N151 1.244 . S
H153 C156 0.929 . S
H154 C159 0.929 1_655 S
H155 C161 0.930 . S
C156 H153 0.929 . S
C156 C157 1.398 . S
C156 C158 1.396 . S
C157 C156 1.398 . S
C157 C161 1.407 . S
C158 C156 1.396 . S
C158 C159 1.394 . S
C159 H154 0.929 1_455 S
C159 C158 1.394 . S
C159 C160 1.382 . S
C160 C159 1.382 . S
C160 C161 1.392 . S
C160 N162 1.420 1_455 S
C161 H155 0.930 . S
C161 C157 1.407 . S
C161 C160 1.392 . S
N162 C160 1.420 1_655 S
N162 C163 1.244 . S
C163 N162 1.244 . S
H164 C167 0.929 . S
H165 C170 0.929 . S
H166 C172 0.930 . S
C167 H164 0.929 . S
C167 C168 1.398 . S
C167 C169 1.396 . S
C168 C167 1.398 . S
C168 C172 1.407 . S
C169 C167 1.396 . S
C169 C170 1.394 1_545 S
C170 H165 0.929 . S
C170 C169 1.394 1_565 S
C170 C171 1.382 . S
C171 C170 1.382 . S
C171 C172 1.392 1_565 S
C171 N173 1.420 . S
C172 H166 0.930 . S
C172 C168 1.407 . S
C172 C171 1.392 1_545 S
N173 C171 1.420 . S
N173 C174 1.244 . S
C174 N173 1.244 . S
H175 C178 0.929 . S
H176 C181 0.929 . S
H177 C183 0.930 . S
C178 H175 0.929 . S
C178 C179 1.398 . S
C178 C180 1.396 . S
C179 C178 1.398 . S
C179 C183 1.407 . S
C180 C178 1.396 . S
C180 C181 1.394 . S
C181 H176 0.929 . S
C181 C180 1.394 . S
C181 C182 1.382 . S
C182 C181 1.382 . S
C182 C183 1.392 . S
C182 N184 1.420 . S
C183 H177 0.930 . S
C183 C179 1.407 . S
C183 C182 1.392 . S
N184 C182 1.420 . S
N184 C185 1.244 . S
C185 N184 1.244 . S
C186 C187 1.391 . S
C186 C188 1.394 . S
C186 H202 0.931 . S
C187 C186 1.391 . S
C187 C191 1.376 . S
C188 C186 1.394 . S
C188 C189 1.369 . S
C188 C192 1.531 . S
C189 C188 1.369 . S
C189 C190 1.410 . S
C189 C197 1.503 . S
C190 C189 1.410 . S
C190 C191 1.392 . S
C190 C193 1.511 . S
C191 C187 1.376 . S
C191 C190 1.392 . S
C191 H203 0.929 . S
C192 C188 1.531 . S
C192 H204 0.960 . S
C192 H205 0.962 . S
C192 H206 0.960 . S
C193 C190 1.511 . S
C193 H207 0.961 . S
C193 H208 0.961 . S
C193 H209 0.961 . S
C194 C195 1.370 . S
C194 C196 1.363 . S
C194 H210 0.931 . S
C195 C194 1.370 . S
C195 C199 1.408 . S
C196 C194 1.363 . S
C196 C197 1.370 . S
C196 C200 1.524 . S
C197 C189 1.503 . S
C197 C196 1.370 . S
C197 C198 1.403 . S
C198 C197 1.403 . S
C198 C199 1.404 . S
C198 C201 1.539 . S
C199 C195 1.408 . S
C199 C198 1.404 . S
C199 H211 0.930 . S
C200 C196 1.524 . S
C200 H212 0.956 . S
C200 H213 0.961 . S
C200 H214 0.961 . S
C201 C198 1.539 . S
C201 H215 0.958 . S
C201 H216 0.961 . S
C201 H217 0.960 . S
H202 C186 0.931 . S
H203 C191 0.929 . S
H204 C192 0.960 . S
H205 C192 0.962 . S
H206 C192 0.960 . S
H207 C193 0.961 . S
H208 C193 0.961 . S
H209 C193 0.961 . S
H210 C194 0.931 . S
H211 C199 0.930 . S
H212 C200 0.956 . S
H213 C200 0.961 . S
H214 C200 0.961 . S
H215 C201 0.958 . S
H216 C201 0.961 . S
H217 C201 0.960 . S
C218 C219 1.391 . S
C218 C220 1.394 . S
C218 H234 0.931 . S
C219 C218 1.391 . S
C219 C223 1.376 . S
C220 C218 1.394 . S
C220 C221 1.369 . S
C220 C224 1.531 . S
C221 C220 1.369 . S
C221 C222 1.410 . S
C221 C229 1.503 . S
C222 C221 1.410 . S
C222 C223 1.392 . S
C222 C225 1.511 . S
C223 C219 1.376 . S
C223 C222 1.392 . S
C223 H235 0.929 . S
C224 C220 1.531 . S
C224 H236 0.960 . S
C224 H237 0.962 . S
C224 H238 0.960 . S
C225 C222 1.511 . S
C225 H239 0.961 . S
C225 H240 0.961 . S
C225 H241 0.961 . S
C226 C227 1.370 . S
C226 C228 1.363 . S
C226 H242 0.931 . S
C227 C226 1.370 . S
C227 C231 1.408 . S
C228 C226 1.363 . S
C228 C229 1.370 . S
C228 C232 1.524 . S
C229 C221 1.503 . S
C229 C228 1.370 . S
C229 C230 1.403 . S
C230 C229 1.403 . S
C230 C231 1.404 . S
C230 C233 1.539 . S
C231 C227 1.408 . S
C231 C230 1.404 . S
C231 H243 0.930 . S
C232 C228 1.524 . S
C232 H244 0.956 . S
C232 H245 0.961 . S
C232 H246 0.961 . S
C233 C230 1.539 . S
C233 H247 0.958 . S
C233 H248 0.961 . S
C233 H249 0.960 . S
H234 C218 0.931 . S
H235 C223 0.929 . S
H236 C224 0.960 . S
H237 C224 0.962 . S
H238 C224 0.960 . S
H239 C225 0.961 . S
H240 C225 0.961 . S
H241 C225 0.961 . S
H242 C226 0.931 . S
H243 C231 0.930 . S
H244 C232 0.956 . S
H245 C232 0.961 . S
H246 C232 0.961 . S
H247 C233 0.958 . S
H248 C233 0.961 . S
H249 C233 0.960 . S
C250 C251 1.391 . S
C250 C252 1.394 . S
C250 H266 0.931 . S
C251 C250 1.391 . S
C251 C255 1.376 . S
C252 C250 1.394 . S
C252 C253 1.369 . S
C252 C256 1.531 . S
C253 C252 1.369 . S
C253 C254 1.410 . S
C253 C261 1.503 . S
C254 C253 1.410 . S
C254 C255 1.392 . S
C254 C257 1.511 . S
C255 C251 1.376 . S
C255 C254 1.392 . S
C255 H267 0.929 . S
C256 C252 1.531 . S
C256 H268 0.960 . S
C256 H269 0.962 . S
C256 H270 0.960 . S
C257 C254 1.511 . S
C257 H271 0.961 . S
C257 H272 0.961 . S
C257 H273 0.961 . S
C258 C259 1.370 . S
C258 C260 1.363 . S
C258 H274 0.931 . S
C259 C258 1.370 . S
C259 C263 1.408 . S
C260 C258 1.363 . S
C260 C261 1.370 . S
C260 C264 1.524 . S
C261 C253 1.503 . S
C261 C260 1.370 . S
C261 C262 1.403 . S
C262 C261 1.403 . S
C262 C263 1.404 . S
C262 C265 1.539 . S
C263 C259 1.408 . S
C263 C262 1.404 . S
C263 H275 0.930 . S
C264 C260 1.524 . S
C264 H276 0.956 . S
C264 H277 0.961 . S
C264 H278 0.961 . S
C265 C262 1.539 . S
C265 H279 0.958 . S
C265 H280 0.961 . S
C265 H281 0.960 . S
H266 C250 0.931 . S
H267 C255 0.929 . S
H268 C256 0.960 . S
H269 C256 0.962 . S
H270 C256 0.960 . S
H271 C257 0.961 . S
H272 C257 0.961 . S
H273 C257 0.961 . S
H274 C258 0.931 . S
H275 C263 0.930 . S
H276 C264 0.956 . S
H277 C264 0.961 . S
H278 C264 0.961 . S
H279 C265 0.958 . S
H280 C265 0.961 . S
H281 C265 0.960 . S
C282 C283 1.391 . S
C282 C284 1.394 . S
C282 H298 0.931 . S
C283 C282 1.391 . S
C283 C287 1.376 . S
C284 C282 1.394 . S
C284 C285 1.369 . S
C284 C288 1.531 . S
C285 C284 1.369 . S
C285 C286 1.410 . S
C285 C293 1.503 . S
C286 C285 1.410 . S
C286 C287 1.392 . S
C286 C289 1.511 . S
C287 C283 1.376 . S
C287 C286 1.392 . S
C287 H299 0.929 . S
C288 C284 1.531 . S
C288 H300 0.960 . S
C288 H301 0.962 . S
C288 H302 0.960 . S
C289 C286 1.511 . S
C289 H303 0.961 . S
C289 H304 0.961 . S
C289 H305 0.961 . S
C290 C291 1.370 . S
C290 C292 1.363 . S
C290 H306 0.931 . S
C291 C290 1.370 . S
C291 C295 1.408 . S
C292 C290 1.363 . S
C292 C293 1.370 . S
C292 C296 1.524 . S
C293 C285 1.503 . S
C293 C292 1.370 . S
C293 C294 1.403 . S
C294 C293 1.403 . S
C294 C295 1.404 . S
C294 C297 1.539 . S
C295 C291 1.408 . S
C295 C294 1.404 . S
C295 H307 0.930 . S
C296 C292 1.524 . S
C296 H308 0.956 . S
C296 H309 0.961 . S
C296 H310 0.961 . S
C297 C294 1.539 . S
C297 H311 0.958 . S
C297 H312 0.961 . S
C297 H313 0.960 . S
H298 C282 0.931 . S
H299 C287 0.929 . S
H300 C288 0.960 . S
H301 C288 0.962 . S
H302 C288 0.960 . S
H303 C289 0.961 . S
H304 C289 0.961 . S
H305 C289 0.961 . S
H306 C290 0.931 . S
H307 C295 0.930 . S
H308 C296 0.956 . S
H309 C296 0.961 . S
H310 C296 0.961 . S
H311 C297 0.958 . S
H312 C297 0.961 . S
H313 C297 0.960 . S
C314 C315 1.391 . S
C314 C316 1.394 . S
C314 H330 0.931 . S
C315 C314 1.391 . S
C315 C319 1.376 . S
C316 C314 1.394 . S
C316 C317 1.369 . S
C316 C320 1.531 . S
C317 C316 1.369 . S
C317 C318 1.410 . S
C317 C325 1.503 . S
C318 C317 1.410 . S
C318 C319 1.392 . S
C318 C321 1.511 . S
C319 C315 1.376 . S
C319 C318 1.392 . S
C319 H331 0.929 . S
C320 C316 1.531 . S
C320 H332 0.960 . S
C320 H333 0.962 . S
C320 H334 0.960 . S
C321 C318 1.511 . S
C321 H335 0.961 . S
C321 H336 0.961 . S
C321 H337 0.961 . S
C322 C323 1.370 . S
C322 C324 1.363 . S
C322 H338 0.931 . S
C323 C322 1.370 . S
C323 C327 1.408 . S
C324 C322 1.363 . S
C324 C325 1.370 . S
C324 C328 1.524 . S
C325 C317 1.503 . S
C325 C324 1.370 . S
C325 C326 1.403 . S
C326 C325 1.403 . S
C326 C327 1.404 . S
C326 C329 1.539 . S
C327 C323 1.408 . S
C327 C326 1.404 . S
C327 H339 0.930 . S
C328 C324 1.524 . S
C328 H340 0.956 . S
C328 H341 0.961 . S
C328 H342 0.961 . S
C329 C326 1.539 . S
C329 H343 0.958 . S
C329 H344 0.961 . S
C329 H345 0.960 . S
H330 C314 0.931 . S
H331 C319 0.929 . S
H332 C320 0.960 . S
H333 C320 0.962 . S
H334 C320 0.960 . S
H335 C321 0.961 . S
H336 C321 0.961 . S
H337 C321 0.961 . S
H338 C322 0.931 . S
H339 C327 0.930 . S
H340 C328 0.956 . S
H341 C328 0.961 . S
H342 C328 0.961 . S
H343 C329 0.958 . S
H344 C329 0.961 . S
H345 C329 0.960 . S
C346 C347 1.391 . S
C346 C348 1.394 . S
C346 H362 0.931 . S
C347 C346 1.391 . S
C347 C351 1.376 . S
C348 C346 1.394 . S
C348 C349 1.369 . S
C348 C352 1.531 . S
C349 C348 1.369 . S
C349 C350 1.410 . S
C349 C357 1.503 . S
C350 C349 1.410 . S
C350 C351 1.392 . S
C350 C353 1.511 . S
C351 C347 1.376 . S
C351 C350 1.392 . S
C351 H363 0.929 . S
C352 C348 1.531 . S
C352 H364 0.960 . S
C352 H365 0.962 . S
C352 H366 0.960 . S
C353 C350 1.511 . S
C353 H367 0.961 . S
C353 H368 0.961 . S
C353 H369 0.961 . S
C354 C355 1.370 . S
C354 C356 1.363 . S
C354 H370 0.931 . S
C355 C354 1.370 . S
C355 C359 1.408 . S
C356 C354 1.363 . S
C356 C357 1.370 . S
C356 C360 1.524 . S
C357 C349 1.503 . S
C357 C356 1.370 . S
C357 C358 1.403 . S
C358 C357 1.403 . S
C358 C359 1.404 . S
C358 C361 1.539 . S
C359 C355 1.408 . S
C359 C358 1.404 . S
C359 H371 0.930 . S
C360 C356 1.524 . S
C360 H372 0.956 . S
C360 H373 0.961 . S
C360 H374 0.961 . S
C361 C358 1.539 . S
C361 H375 0.958 . S
C361 H376 0.961 . S
C361 H377 0.960 . S
H362 C346 0.931 . S
H363 C351 0.929 . S
H364 C352 0.960 . S
H365 C352 0.962 . S
H366 C352 0.960 . S
H367 C353 0.961 . S
H368 C353 0.961 . S
H369 C353 0.961 . S
H370 C354 0.931 . S
H371 C359 0.930 . S
H372 C360 0.956 . S
H373 C360 0.961 . S
H374 C360 0.961 . S
H375 C361 0.958 . S
H376 C361 0.961 . S
H377 C361 0.960 . S
C378 C379 1.391 . S
C378 C380 1.394 . S
C378 H394 0.931 . S
C379 C378 1.391 . S
C379 C383 1.376 . S
C380 C378 1.394 . S
C380 C381 1.369 . S
C380 C384 1.531 . S
C381 C380 1.369 . S
C381 C382 1.410 . S
C381 C389 1.503 . S
C382 C381 1.410 . S
C382 C383 1.392 . S
C382 C385 1.511 . S
C383 C379 1.376 . S
C383 C382 1.392 . S
C383 H395 0.929 . S
C384 C380 1.531 . S
C384 H396 0.960 . S
C384 H397 0.962 . S
C384 H398 0.960 . S
C385 C382 1.511 . S
C385 H399 0.961 . S
C385 H400 0.961 . S
C385 H401 0.961 . S
C386 C387 1.370 . S
C386 C388 1.363 . S
C386 H402 0.931 . S
C387 C386 1.370 . S
C387 C391 1.408 . S
C388 C386 1.363 . S
C388 C389 1.370 . S
C388 C392 1.524 . S
C389 C381 1.503 . S
C389 C388 1.370 . S
C389 C390 1.403 . S
C390 C389 1.403 . S
C390 C391 1.404 . S
C390 C393 1.539 . S
C391 C387 1.408 . S
C391 C390 1.404 . S
C391 H403 0.930 . S
C392 C388 1.524 . S
C392 H404 0.956 . S
C392 H405 0.961 . S
C392 H406 0.961 . S
C393 C390 1.539 . S
C393 H407 0.958 . S
C393 H408 0.961 . S
C393 H409 0.960 . S
H394 C378 0.931 . S
H395 C383 0.929 . S
H396 C384 0.960 . S
H397 C384 0.962 . S
H398 C384 0.960 . S
H399 C385 0.961 . S
H400 C385 0.961 . S
H401 C385 0.961 . S
H402 C386 0.931 . S
H403 C391 0.930 . S
H404 C392 0.956 . S
H405 C392 0.961 . S
H406 C392 0.961 . S
H407 C393 0.958 . S
H408 C393 0.961 . S
H409 C393 0.960 . S
C410 C411 1.391 . S
C410 C412 1.394 . S
C410 H426 0.931 . S
C411 C410 1.391 . S
C411 C415 1.376 . S
C412 C410 1.394 . S
C412 C413 1.369 . S
C412 C416 1.531 . S
C413 C412 1.369 . S
C413 C414 1.410 . S
C413 C421 1.503 . S
C414 C413 1.410 . S
C414 C415 1.392 . S
C414 C417 1.511 . S
C415 C411 1.376 . S
C415 C414 1.392 . S
C415 H427 0.929 . S
C416 C412 1.531 . S
C416 H428 0.960 . S
C416 H429 0.962 . S
C416 H430 0.960 . S
C417 C414 1.511 . S
C417 H431 0.961 . S
C417 H432 0.961 . S
C417 H433 0.961 . S
C418 C419 1.370 . S
C418 C420 1.363 . S
C418 H434 0.931 . S
C419 C418 1.370 . S
C419 C423 1.408 . S
C420 C418 1.363 . S
C420 C421 1.370 . S
C420 C424 1.524 . S
C421 C413 1.503 . S
C421 C420 1.370 . S
C421 C422 1.403 . S
C422 C421 1.403 . S
C422 C423 1.404 . S
C422 C425 1.539 . S
C423 C419 1.408 . S
C423 C422 1.404 . S
C423 H435 0.930 . S
C424 C420 1.524 . S
C424 H436 0.956 . S
C424 H437 0.961 . S
C424 H438 0.961 . S
C425 C422 1.539 . S
C425 H439 0.958 . S
C425 H440 0.961 . S
C425 H441 0.960 . S
H426 C410 0.931 . S
H427 C415 0.929 . S
H428 C416 0.960 . S
H429 C416 0.962 . S
H430 C416 0.960 . S
H431 C417 0.961 . S
H432 C417 0.961 . S
H433 C417 0.961 . S
H434 C418 0.931 . S
H435 C423 0.930 . S
H436 C424 0.956 . S
H437 C424 0.961 . S
H438 C424 0.961 . S
H439 C425 0.958 . S
H440 C425 0.961 . S
H441 C425 0.960 . S
C442 C443 1.391 . S
C442 C444 1.394 . S
C442 H458 0.931 . S
C443 C442 1.391 . S
C443 C447 1.376 . S
C444 C442 1.394 . S
C444 C445 1.369 . S
C444 C448 1.531 . S
C445 C444 1.369 . S
C445 C446 1.410 . S
C445 C453 1.503 . S
C446 C445 1.410 . S
C446 C447 1.392 . S
C446 C449 1.511 . S
C447 C443 1.376 . S
C447 C446 1.392 . S
C447 H459 0.929 . S
C448 C444 1.531 . S
C448 H460 0.957 1_565 S
C448 H461 0.962 . S
C448 H462 0.960 . S
C449 C446 1.511 . S
C449 H463 0.961 . S
C449 H464 0.961 . S
C449 H465 0.961 . S
C450 C451 1.370 1_565 S
C450 C452 1.363 . S
C450 H466 0.931 . S
C451 C450 1.370 1_545 S
C451 C455 1.408 . S
C452 C450 1.363 . S
C452 C453 1.370 . S
C452 C456 1.524 . S
C453 C445 1.503 . S
C453 C452 1.370 . S
C453 C454 1.403 . S
C454 C453 1.403 . S
C454 C455 1.404 1_565 S
C454 C457 1.539 1_565 S
C455 C451 1.408 . S
C455 C454 1.404 1_545 S
C455 H467 0.930 . S
C456 C452 1.524 . S
C456 H468 0.956 . S
C456 H469 0.961 . S
C456 H470 0.961 . S
C457 C454 1.539 1_545 S
C457 H471 0.958 . S
C457 H472 0.961 . S
C457 H473 0.960 1_545 S
H458 C442 0.931 . S
H459 C447 0.929 . S
H460 C448 0.957 1_545 S
H461 C448 0.962 . S
H462 C448 0.960 . S
H463 C449 0.961 . S
H464 C449 0.961 . S
H465 C449 0.961 . S
H466 C450 0.931 . S
H467 C455 0.930 . S
H468 C456 0.956 . S
H469 C456 0.961 . S
H470 C456 0.961 . S
H471 C457 0.958 . S
H472 C457 0.961 . S
H473 C457 0.960 1_565 S
C474 C475 1.391 . S
C474 C476 1.394 . S
C474 H490 0.931 . S
C475 C474 1.391 . S
C475 C479 1.376 . S
C476 C474 1.394 . S
C476 C477 1.369 . S
C476 C480 1.531 . S
C477 C476 1.369 . S
C477 C478 1.410 . S
C477 C485 1.503 . S
C478 C477 1.410 . S
C478 C479 1.392 . S
C478 C481 1.511 . S
C479 C475 1.376 . S
C479 C478 1.392 . S
C479 H491 0.929 . S
C480 C476 1.531 . S
C480 H492 0.960 . S
C480 H493 0.962 . S
C480 H494 0.960 . S
C481 C478 1.511 . S
C481 H495 0.961 . S
C481 H496 0.961 . S
C481 H497 0.961 . S
C482 C483 1.370 . S
C482 C484 1.363 . S
C482 H498 0.931 . S
C483 C482 1.370 . S
C483 C487 1.408 . S
C484 C482 1.363 . S
C484 C485 1.370 . S
C484 C488 1.524 . S
C485 C477 1.503 . S
C485 C484 1.370 . S
C485 C486 1.403 . S
C486 C485 1.403 . S
C486 C487 1.404 . S
C486 C489 1.539 . S
C487 C483 1.408 . S
C487 C486 1.404 . S
C487 H499 0.930 . S
C488 C484 1.524 . S
C488 H500 0.956 . S
C488 H501 0.961 . S
C488 H502 0.961 . S
C489 C486 1.539 . S
C489 H503 0.958 . S
C489 H504 0.961 . S
C489 H505 0.960 . S
H490 C474 0.931 . S
H491 C479 0.929 . S
H492 C480 0.960 . S
H493 C480 0.962 . S
H494 C480 0.960 . S
H495 C481 0.961 . S
H496 C481 0.961 . S
H497 C481 0.961 . S
H498 C482 0.931 . S
H499 C487 0.930 . S
H500 C488 0.956 . S
H501 C488 0.961 . S
H502 C488 0.961 . S
H503 C489 0.958 . S
H504 C489 0.961 . S
H505 C489 0.960 . S
C506 C507 1.391 . S
C506 C508 1.394 . S
C506 H522 0.931 . S
C507 C506 1.391 . S
C507 C511 1.376 . S
C508 C506 1.394 . S
C508 C509 1.369 . S
C508 C512 1.531 . S
C509 C508 1.369 . S
C509 C510 1.410 . S
C509 C517 1.503 . S
C510 C509 1.410 . S
C510 C511 1.392 . S
C510 C513 1.511 . S
C511 C507 1.376 . S
C511 C510 1.392 . S
C511 H523 0.929 . S
C512 C508 1.531 . S
C512 H524 0.960 . S
C512 H525 0.962 . S
C512 H526 0.960 . S
C513 C510 1.511 . S
C513 H527 0.961 . S
C513 H528 0.961 . S
C513 H529 0.961 . S
C514 C515 1.370 . S
C514 C516 1.363 . S
C514 H530 0.931 . S
C515 C514 1.370 . S
C515 C519 1.408 . S
C516 C514 1.363 . S
C516 C517 1.370 . S
C516 C520 1.524 . S
C517 C509 1.503 . S
C517 C516 1.370 . S
C517 C518 1.403 . S
C518 C517 1.403 . S
C518 C519 1.404 . S
C518 C521 1.539 . S
C519 C515 1.408 . S
C519 C518 1.404 . S
C519 H531 0.930 . S
C520 C516 1.524 . S
C520 H532 0.956 . S
C520 H533 0.961 . S
C520 H534 0.961 . S
C521 C518 1.539 . S
C521 H535 0.958 . S
C521 H536 0.961 . S
C521 H537 0.960 . S
H522 C506 0.931 . S
H523 C511 0.929 . S
H524 C512 0.960 . S
H525 C512 0.962 . S
H526 C512 0.960 . S
H527 C513 0.961 . S
H528 C513 0.961 . S
H529 C513 0.961 . S
H530 C514 0.931 . S
H531 C519 0.930 . S
H532 C520 0.956 . S
H533 C520 0.961 . S
H534 C520 0.961 . S
H535 C521 0.958 . S
H536 C521 0.961 . S
H537 C521 0.960 . S
C538 C539 1.391 . S
C538 C540 1.394 . S
C538 H554 0.931 . S
C539 C538 1.391 . S
C539 C543 1.376 . S
C540 C538 1.394 . S
C540 C541 1.369 . S
C540 C544 1.531 . S
C541 C540 1.369 . S
C541 C542 1.410 . S
C541 C549 1.503 . S
C542 C541 1.410 . S
C542 C543 1.392 . S
C542 C545 1.511 . S
C543 C539 1.376 . S
C543 C542 1.392 . S
C543 H555 0.929 . S
C544 C540 1.531 . S
C544 H556 0.960 . S
C544 H557 0.962 . S
C544 H558 0.960 . S
C545 C542 1.511 . S
C545 H559 0.961 . S
C545 H560 0.961 . S
C545 H561 0.961 . S
C546 C547 1.370 . S
C546 C548 1.363 . S
C546 H562 0.931 . S
C547 C546 1.370 . S
C547 C551 1.408 . S
C548 C546 1.363 . S
C548 C549 1.370 . S
C548 C552 1.524 . S
C549 C541 1.503 . S
C549 C548 1.370 . S
C549 C550 1.403 . S
C550 C549 1.403 . S
C550 C551 1.404 . S
C550 C553 1.539 . S
C551 C547 1.408 . S
C551 C550 1.404 . S
C551 H563 0.930 . S
C552 C548 1.524 . S
C552 H564 0.956 . S
C552 H565 0.961 . S
C552 H566 0.961 . S
C553 C550 1.539 . S
C553 H567 0.958 . S
C553 H568 0.961 . S
C553 H569 0.960 . S
H554 C538 0.931 . S
H555 C543 0.929 . S
H556 C544 0.960 . S
H557 C544 0.962 . S
H558 C544 0.960 . S
H559 C545 0.961 . S
H560 C545 0.961 . S
H561 C545 0.961 . S
H562 C546 0.931 . S
H563 C551 0.930 . S
H564 C552 0.956 . S
H565 C552 0.961 . S
H566 C552 0.961 . S
H567 C553 0.958 . S
H568 C553 0.961 . S
H569 C553 0.960 . S
C570 C571 1.391 . S
C570 C572 1.394 . S
C570 H586 0.931 1_455 S
C571 C570 1.391 . S
C571 C575 1.376 . S
C572 C570 1.394 . S
C572 C573 1.369 . S
C572 C576 1.531 1_455 S
C573 C572 1.369 . S
C573 C574 1.410 . S
C573 C581 1.503 . S
C574 C573 1.410 . S
C574 C575 1.392 . S
C574 C577 1.511 . S
C575 C571 1.376 . S
C575 C574 1.392 . S
C575 H587 0.929 . S
C576 C572 1.531 1_655 S
C576 H588 0.960 . S
C576 H589 0.962 . S
C576 H590 0.960 . S
C577 C574 1.511 . S
C577 H591 0.961 . S
C577 H592 0.961 . S
C577 H593 0.961 . S
C578 C579 1.370 . S
C578 C580 1.363 . S
C578 H594 0.931 1_455 S
C579 C578 1.370 . S
C579 C583 1.408 . S
C580 C578 1.363 . S
C580 C581 1.370 1_556 S
C580 C584 1.524 1_456 S
C581 C573 1.503 . S
C581 C580 1.370 1_554 S
C581 C582 1.403 1_554 S
C582 C581 1.403 1_556 S
C582 C583 1.404 . S
C582 C585 1.539 1_556 S
C583 C579 1.408 . S
C583 C582 1.404 . S
C583 H595 0.930 . S
C584 C580 1.524 1_654 S
C584 H596 0.956 . S
C584 H597 0.961 . S
C584 H598 0.961 1_554 S
C585 C582 1.539 1_554 S
C585 H599 0.958 . S
C585 H600 0.961 . S
C585 H601 0.960 . S
H586 C570 0.931 1_655 S
H587 C575 0.929 . S
H588 C576 0.960 . S
H589 C576 0.962 . S
H590 C576 0.960 . S
H591 C577 0.961 . S
H592 C577 0.961 . S
H593 C577 0.961 . S
H594 C578 0.931 1_655 S
H595 C583 0.930 . S
H596 C584 0.956 . S
H597 C584 0.961 . S
H598 C584 0.961 1_556 S
H599 C585 0.958 . S
H600 C585 0.961 . S
H601 C585 0.960 . S
C602 C603 1.391 . S
C602 C604 1.394 . S
C602 H618 0.931 . S
C603 C602 1.391 . S
C603 C607 1.376 . S
C604 C602 1.394 . S
C604 C605 1.369 . S
C604 C608 1.531 . S
C605 C604 1.369 . S
C605 C606 1.410 . S
C605 C613 1.503 . S
C606 C605 1.410 . S
C606 C607 1.392 . S
C606 C609 1.511 . S
C607 C603 1.376 . S
C607 C606 1.392 . S
C607 H619 0.929 . S
C608 C604 1.531 . S
C608 H620 0.960 . S
C608 H621 0.962 . S
C608 H622 0.960 . S
C609 C606 1.511 . S
C609 H623 0.961 . S
C609 H624 0.961 . S
C609 H625 0.961 . S
C610 C611 1.370 . S
C610 C612 1.363 . S
C610 H626 0.931 . S
C611 C610 1.370 . S
C611 C615 1.408 . S
C612 C610 1.363 . S
C612 C613 1.370 . S
C612 C616 1.524 1_545 S
C613 C605 1.503 . S
C613 C612 1.370 . S
C613 C614 1.403 . S
C614 C613 1.403 . S
C614 C615 1.404 . S
C614 C617 1.539 . S
C615 C611 1.408 . S
C615 C614 1.404 . S
C615 H627 0.930 . S
C616 C612 1.524 1_565 S
C616 H628 0.946 1_565 S
C616 H629 0.961 . S
C616 H630 0.961 . S
C617 C614 1.539 . S
C617 H631 0.958 . S
C617 H632 0.961 . S
C617 H633 0.960 . S
H618 C602 0.931 . S
H619 C607 0.929 . S
H620 C608 0.960 . S
H621 C608 0.962 . S
H622 C608 0.960 . S
H623 C609 0.961 . S
H624 C609 0.961 . S
H625 C609 0.961 . S
H626 C610 0.931 . S
H627 C615 0.930 . S
H628 C616 0.946 1_545 S
H629 C616 0.961 . S
H630 C616 0.961 . S
H631 C617 0.958 . S
H632 C617 0.961 . S
H633 C617 0.960 . S
C634 C635 1.391 . S
C634 C636 1.394 . S
C634 H650 0.931 . S
C635 C634 1.391 . S
C635 C639 1.376 . S
C636 C634 1.394 . S
C636 C637 1.369 . S
C636 C640 1.531 . S
C637 C636 1.369 . S
C637 C638 1.410 . S
C637 C645 1.503 . S
C638 C637 1.410 . S
C638 C639 1.392 . S
C638 C641 1.511 . S
C639 C635 1.376 . S
C639 C638 1.392 . S
C639 H651 0.929 . S
C640 C636 1.531 . S
C640 H652 0.960 . S
C640 H653 0.962 . S
C640 H654 0.960 . S
C641 C638 1.511 . S
C641 H655 0.961 . S
C641 H656 0.961 . S
C641 H657 0.961 . S
C642 C643 1.370 . S
C642 C644 1.363 . S
C642 H658 0.931 . S
C643 C642 1.370 . S
C643 C647 1.408 . S
C644 C642 1.363 . S
C644 C645 1.370 . S
C644 C648 1.524 . S
C645 C637 1.503 . S
C645 C644 1.370 . S
C645 C646 1.403 . S
C646 C645 1.403 . S
C646 C647 1.404 . S
C646 C649 1.539 . S
C647 C643 1.408 . S
C647 C646 1.404 . S
C647 H659 0.930 . S
C648 C644 1.524 . S
C648 H660 0.956 . S
C648 H661 0.961 . S
C648 H662 0.961 . S
C649 C646 1.539 . S
C649 H663 0.958 . S
C649 H664 0.961 . S
C649 H665 0.960 . S
H650 C634 0.931 . S
H651 C639 0.929 . S
H652 C640 0.960 . S
H653 C640 0.962 . S
H654 C640 0.960 . S
H655 C641 0.961 . S
H656 C641 0.961 . S
H657 C641 0.961 . S
H658 C642 0.931 . S
H659 C647 0.930 . S
H660 C648 0.956 . S
H661 C648 0.961 . S
H662 C648 0.961 . S
H663 C649 0.958 . S
H664 C649 0.961 . S
H665 C649 0.960 . S
C666 C667 1.391 . S
C666 C668 1.394 . S
C666 H682 0.931 1_545 S
C667 C666 1.391 . S
C667 C671 1.376 . S
C668 C666 1.394 . S
C668 C669 1.369 . S
C668 C672 1.531 1_545 S
C669 C668 1.369 . S
C669 C670 1.410 . S
C669 C677 1.503 . S
C670 C669 1.410 . S
C670 C671 1.392 . S
C670 C673 1.511 . S
C671 C667 1.376 . S
C671 C670 1.392 . S
C671 H683 0.929 . S
C672 C668 1.531 1_565 S
C672 H684 0.960 . S
C672 H685 0.962 . S
C672 H686 0.960 . S
C673 C670 1.511 . S
C673 H687 0.961 . S
C673 H688 0.961 . S
C673 H689 0.961 . S
C674 C675 1.370 . S
C674 C676 1.363 . S
C674 H690 0.931 . S
C675 C674 1.370 . S
C675 C679 1.408 1_545 S
C676 C674 1.363 . S
C676 C677 1.370 . S
C676 C680 1.524 . S
C677 C669 1.503 . S
C677 C676 1.370 . S
C677 C678 1.403 1_545 S
C678 C677 1.403 1_565 S
C678 C679 1.404 . S
C678 C681 1.539 . S
C679 C675 1.408 1_565 S
C679 C678 1.404 . S
C679 H691 0.930 . S
C680 C676 1.524 . S
C680 H692 0.956 . S
C680 H693 0.961 . S
C680 H694 0.961 . S
C681 C678 1.539 . S
C681 H695 0.958 . S
C681 H696 0.961 . S
C681 H697 0.960 . S
H682 C666 0.931 1_565 S
H683 C671 0.929 . S
H684 C672 0.960 . S
H685 C672 0.962 . S
H686 C672 0.960 . S
H687 C673 0.961 . S
H688 C673 0.961 . S
H689 C673 0.961 . S
H690 C674 0.931 . S
H691 C679 0.930 . S
H692 C680 0.956 . S
H693 C680 0.961 . S
H694 C680 0.961 . S
H695 C681 0.958 . S
H696 C681 0.961 . S
H697 C681 0.960 . S
C698 C699 1.391 . S
C698 C700 1.394 . S
C698 H714 0.931 . S
C699 C698 1.391 . S
C699 C703 1.376 . S
C700 C698 1.394 . S
C700 C701 1.369 . S
C700 C704 1.531 . S
C701 C700 1.369 . S
C701 C702 1.410 . S
C701 C709 1.480 1_556 S
C702 C701 1.410 . S
C702 C703 1.392 . S
C702 C705 1.511 . S
C703 C699 1.376 . S
C703 C702 1.392 . S
C703 H715 0.929 . S
C704 C700 1.531 . S
C704 H716 0.960 . S
C704 H717 0.962 . S
C704 H718 0.960 . S
C705 C702 1.511 . S
C705 H719 0.961 . S
C705 H720 0.961 . S
C705 H721 0.961 . S
C706 C707 1.370 . S
C706 C708 1.363 . S
C706 H722 0.931 . S
C707 C706 1.370 . S
C707 C711 1.408 . S
C708 C706 1.363 . S
C708 C709 1.385 . S
C708 C712 1.524 . S
C709 C701 1.480 1_554 S
C709 C708 1.385 . S
C709 C710 1.412 . S
C710 C709 1.412 . S
C710 C711 1.404 . S
C710 C713 1.539 1_554 S
C711 C707 1.408 . S
C711 C710 1.404 . S
C711 H723 0.930 . S
C712 C708 1.524 . S
C712 H724 0.956 1_554 S
C712 H725 0.961 1_554 S
C712 H726 0.961 . S
C713 C710 1.539 1_556 S
C713 H727 0.958 . S
C713 H728 0.961 1_556 S
C713 H729 0.960 . S
H714 C698 0.931 . S
H715 C703 0.929 . S
H716 C704 0.960 . S
H717 C704 0.962 . S
H718 C704 0.960 . S
H719 C705 0.961 . S
H720 C705 0.961 . S
H721 C705 0.961 . S
H722 C706 0.931 . S
H723 C711 0.930 . S
H724 C712 0.956 1_556 S
H725 C712 0.961 1_556 S
H726 C712 0.961 . S
H727 C713 0.958 . S
H728 C713 0.961 1_554 S
H729 C713 0.960 . S
C730 C731 1.391 . S
C730 C732 1.394 . S
C730 H746 0.931 . S
C731 C730 1.391 . S
C731 C735 1.376 1_455 S
C732 C730 1.394 . S
C732 C733 1.369 . S
C732 C736 1.531 . S
C733 C732 1.369 . S
C733 C734 1.410 1_455 S
C733 C741 1.503 . S
C734 C733 1.410 1_655 S
C734 C735 1.392 . S
C734 C737 1.511 . S
C735 C731 1.376 1_655 S
C735 C734 1.392 . S
C735 H747 0.929 . S
C736 C732 1.531 . S
C736 H748 0.960 . S
C736 H749 0.962 . S
C736 H750 0.960 . S
C737 C734 1.511 . S
C737 H751 0.961 . S
C737 H752 0.961 . S
C737 H753 0.961 . S
C738 C739 1.370 . S
C738 C740 1.363 . S
C738 H754 0.931 . S
C739 C738 1.370 . S
C739 C743 1.408 . S
C740 C738 1.363 . S
C740 C741 1.370 . S
C740 C744 1.524 . S
C741 C733 1.503 . S
C741 C740 1.370 . S
C741 C742 1.403 . S
C742 C741 1.403 . S
C742 C743 1.404 . S
C742 C745 1.539 1_455 S
C743 C739 1.408 . S
C743 C742 1.404 . S
C743 H755 0.930 1_455 S
C744 C740 1.524 . S
C744 H756 0.956 . S
C744 H757 0.961 . S
C744 H758 0.961 . S
C745 C742 1.539 1_655 S
C745 H759 0.958 1_655 S
C745 H760 0.961 . S
C745 H761 0.960 . S
H746 C730 0.931 . S
H747 C735 0.929 . S
H748 C736 0.960 . S
H749 C736 0.962 . S
H750 C736 0.960 . S
H751 C737 0.961 . S
H752 C737 0.961 . S
H753 C737 0.961 . S
H754 C738 0.931 . S
H755 C743 0.930 1_655 S
H756 C744 0.956 . S
H757 C744 0.961 . S
H758 C744 0.961 . S
H759 C745 0.958 1_455 S
H760 C745 0.961 . S
H761 C745 0.960 . S
C187 C24 3.034 . S
C195 C185 2.976 . S
C219 C66 1.155 . S
C227 C163 1.195 . S
C251 C93 1.822 . S
C259 C174 1.786 . S
C283 C13 2.989 . S
C291 C179 2.957 . S
C323 C157 1.090 . S
C315 C57 1.092 . S
C355 C168 1.832 . S
C347 C104 1.848 . S
C379 C64 1.977 . S
C387 C141 1.928 . S
C411 C97 0.474 . S
C419 C146 0.374 . S
C443 C17 1.215 . S
C451 C124 1.213 . S
C483 C135 1.692 . S
C475 C53 1.708 . S
C515 C152 0.275 . S
C507 C106 0.408 . S
C539 C26 1.234 . S
C547 C130 1.237 . S
C579 C147 1.225 . S
C571 C2 1.223 . S
C603 C63 1.495 . S
C611 C125 1.497 . S
C635 C82 1.436 . S
C643 C136 1.470 . S
C675 C169 1.456 . S
C667 C42 1.426 . S
C707 C180 1.745 . S
C699 C103 1.720 . S
C731 C23 1.532 . S
C739 C158 1.543 . S
