# Generated by pormake.
# Topology wbl, (4,4)-cn, num edge types: 1
# Building blocks:
#     Node 0, Type 0, BuildingBlock: MIFKUJ_clean_linker_1, # of connection points: 4
#     Node 1, Type 0, BuildingBlock: MIFKUJ_clean_linker_1, # of connection points: 4
#     Node 2, Type 0, BuildingBlock: MIFKUJ_clean_linker_1, # of connection points: 4
#     Node 3, Type 0, BuildingBlock: MIFKUJ_clean_linker_1, # of connection points: 4
#     Node 4, Type 0, BuildingBlock: MIFKUJ_clean_linker_1, # of connection points: 4
#     Node 5, Type 0, BuildingBlock: MIFKUJ_clean_linker_1, # of connection points: 4
#     Node 6, Type 0, BuildingBlock: MIFKUJ_clean_linker_1, # of connection points: 4
#     Node 7, Type 0, BuildingBlock: MIFKUJ_clean_linker_1, # of connection points: 4
#     Node 8, Type 1, BuildingBlock: QUQFOY_clean_sbu_3, # of connection points: 4
#     Node 9, Type 1, BuildingBlock: QUQFOY_clean_sbu_3, # of connection points: 4
#     Node 10, Type 1, BuildingBlock: QUQFOY_clean_sbu_3, # of connection points: 4
#     Node 11, Type 1, BuildingBlock: QUQFOY_clean_sbu_3, # of connection points: 4
#     Node 12, Type 1, BuildingBlock: QUQFOY_clean_sbu_3, # of connection points: 4
#     Node 13, Type 1, BuildingBlock: QUQFOY_clean_sbu_3, # of connection points: 4
#     Node 14, Type 1, BuildingBlock: QUQFOY_clean_sbu_3, # of connection points: 4
#     Node 15, Type 1, BuildingBlock: QUQFOY_clean_sbu_3, # of connection points: 4
#     Edge 16, Type (0, 1), BuildingBlock: MIFKUJ_clean_linker_0, # of connection points: 2
#     Edge 17, Type (0, 1), BuildingBlock: MIFKUJ_clean_linker_0, # of connection points: 2
#     Edge 18, Type (0, 1), BuildingBlock: MIFKUJ_clean_linker_0, # of connection points: 2
#     Edge 19, Type (0, 1), BuildingBlock: MIFKUJ_clean_linker_0, # of connection points: 2
#     Edge 20, Type (0, 1), BuildingBlock: MIFKUJ_clean_linker_0, # of connection points: 2
#     Edge 21, Type (0, 1), BuildingBlock: MIFKUJ_clean_linker_0, # of connection points: 2
#     Edge 22, Type (0, 1), BuildingBlock: MIFKUJ_clean_linker_0, # of connection points: 2
#     Edge 23, Type (0, 1), BuildingBlock: MIFKUJ_clean_linker_0, # of connection points: 2
#     Edge 24, Type (0, 1), BuildingBlock: MIFKUJ_clean_linker_0, # of connection points: 2
#     Edge 25, Type (0, 1), BuildingBlock: MIFKUJ_clean_linker_0, # of connection points: 2
#     Edge 26, Type (0, 1), BuildingBlock: MIFKUJ_clean_linker_0, # of connection points: 2
#     Edge 27, Type (0, 1), BuildingBlock: MIFKUJ_clean_linker_0, # of connection points: 2
#     Edge 28, Type (0, 1), BuildingBlock: MIFKUJ_clean_linker_0, # of connection points: 2
#     Edge 29, Type (0, 1), BuildingBlock: MIFKUJ_clean_linker_0, # of connection points: 2
#     Edge 30, Type (0, 1), BuildingBlock: MIFKUJ_clean_linker_0, # of connection points: 2
#     Edge 31, Type (0, 1), BuildingBlock: MIFKUJ_clean_linker_0, # of connection points: 2
#     Edge 32, Type (0, 1), BuildingBlock: MIFKUJ_clean_linker_0, # of connection points: 2
#     Edge 33, Type (0, 1), BuildingBlock: MIFKUJ_clean_linker_0, # of connection points: 2
#     Edge 34, Type (0, 1), BuildingBlock: MIFKUJ_clean_linker_0, # of connection points: 2
#     Edge 35, Type (0, 1), BuildingBlock: MIFKUJ_clean_linker_0, # of connection points: 2
#     Edge 36, Type (0, 1), BuildingBlock: MIFKUJ_clean_linker_0, # of connection points: 2
#     Edge 37, Type (0, 1), BuildingBlock: MIFKUJ_clean_linker_0, # of connection points: 2
#     Edge 38, Type (0, 1), BuildingBlock: MIFKUJ_clean_linker_0, # of connection points: 2
#     Edge 39, Type (0, 1), BuildingBlock: MIFKUJ_clean_linker_0, # of connection points: 2
#     Edge 40, Type (0, 1), BuildingBlock: MIFKUJ_clean_linker_0, # of connection points: 2
#     Edge 41, Type (0, 1), BuildingBlock: MIFKUJ_clean_linker_0, # of connection points: 2
#     Edge 42, Type (0, 1), BuildingBlock: MIFKUJ_clean_linker_0, # of connection points: 2
#     Edge 43, Type (0, 1), BuildingBlock: MIFKUJ_clean_linker_0, # of connection points: 2
#     Edge 44, Type (0, 1), BuildingBlock: MIFKUJ_clean_linker_0, # of connection points: 2
#     Edge 45, Type (0, 1), BuildingBlock: MIFKUJ_clean_linker_0, # of connection points: 2
#     Edge 46, Type (0, 1), BuildingBlock: MIFKUJ_clean_linker_0, # of connection points: 2
#     Edge 47, Type (0, 1), BuildingBlock: MIFKUJ_clean_linker_0, # of connection points: 2
# Relax obj value: 0.161
# Max RMSD: 0.159
# Mean RMSD: 0.136
data_MOF--net-wbl--node1-QUQFOY_clean_sbu_3--node2-MIFKUJ_clean_linker_1--edge1-MIFKUJ_clean_linker_0
_symmetry_space_group_name_H-M    P1
_symmetry_Int_Tables_number       1
_symmetry_cell_setting            triclinic
loop_
_symmetry_equiv_pos_as_xyz
'x, y, z'
_cell_length_a     58.046832
_cell_length_b     58.782188
_cell_length_c     93.929876
_cell_angle_alpha  90.727709
_cell_angle_beta   90.250057
_cell_angle_gamma 90.069366
loop_
_atom_site_label
_atom_site_type_symbol
_atom_site_fract_x
_atom_site_fract_y
_atom_site_fract_z
_atom_type_partial_charge
H0 H 0.00738 0.06903 0.33853 0.0
H1 H 0.97958 0.08933 0.35361 0.0
H2 H 0.92667 0.04141 0.34098 0.0
H3 H 0.95445 0.02148 0.32557 0.0
H4 H 0.0162 0.01937 0.34226 0.0
H5 H 0.98938 0.07428 0.30884 0.0
H6 H 0.95818 0.0935 0.29658 0.0
H7 H 0.94246 0.03121 0.27345 0.0
H8 H 0.97231 0.01159 0.28683 0.0
H9 H 0.02664 0.96561 0.29176 0.0
H10 H 0.05648 0.94133 0.28131 0.0
H11 H 0.10882 0.98684 0.29818 0.0
H12 H 0.07891 0.01023 0.30912 0.0
H13 H 0.01661 0.01383 0.28949 0.0
H14 H 0.03814 0.95815 0.32323 0.0
H15 H 0.06166 0.93498 0.33903 0.0
H16 H 0.08389 -0.00415 0.3615 0.0
H17 H 0.06128 0.01895 0.3452 0.0
C18 C 0.98288 0.04386 0.33095 0.0
C19 C 0.98969 0.06317 0.33883 0.0
C20 C 0.97381 0.07479 0.34734 0.0
C21 C 0.95104 0.06692 0.34836 0.0
C22 C 0.94414 0.04779 0.3403 0.0
C23 C 0.95992 0.03645 0.33153 0.0
C24 C 0.00021 0.03059 0.3229 0.0
C25 C 0.01658 0.01845 0.33071 0.0
C26 C -4e-05 0.02885 0.30785 0.0
C27 C 0.98275 0.04126 0.29914 0.0
C28 C 0.97897 0.06464 0.30131 0.0
C29 C 0.96132 0.07577 0.29404 0.0
C30 C 0.94747 0.06393 0.28407 0.0
C31 C 0.95226 0.0408 0.28131 0.0
C32 C 0.96958 0.02958 0.28884 0.0
C33 C 0.05064 0.98955 0.30129 0.0
C34 C 0.04457 0.97038 0.29306 0.0
C35 C 0.06168 0.95657 0.28707 0.0
C36 C 0.08516 0.96194 0.28901 0.0
C37 C 0.09101 0.98179 0.29676 0.0
C38 C 0.07393 -0.00466 0.30292 0.0
C39 C 0.03281 0.00286 0.3089 0.0
C40 C 0.01634 0.01493 0.30103 0.0
C41 C 0.03267 0.00432 0.32393 0.0
C42 C 0.04816 0.99034 0.3329 0.0
C43 C 0.04855 0.96655 0.33133 0.0
C44 C 0.06177 0.95328 0.34051 0.0
C45 C 0.07464 0.96352 0.35158 0.0
C46 C 0.07449 0.98739 0.35297 0.0
C47 C 0.0614 0.00064 0.34373 0.0
H48 H 0.99027 0.48265 0.53608 0.0
H49 H 0.97306 0.45056 0.52319 0.0
H50 H 0.90662 0.46759 0.54105 0.0
H51 H 0.92362 0.50059 0.55295 0.0
H52 H 0.98656 0.52675 0.5362 0.0
H53 H 0.97402 0.46968 0.57326 0.0
H54 H 0.95434 0.44427 0.58965 0.0
H55 H 0.90542 0.49758 0.59951 0.0
H56 H 0.92584 0.52308 0.58355 0.0
H57 H 0.97371 0.57866 0.58902 0.0
H58 H -0.00489 0.60256 0.60601 0.0
H59 H 0.05915 0.57622 0.58932 0.0
H60 H 0.03768 0.55247 0.57237 0.0
H61 H 0.97376 0.53337 0.58828 0.0
H62 H 0.98786 0.59132 0.55443 0.0
H63 H 0.01305 0.61997 0.54418 0.0
H64 H 0.059 0.5669 0.52948 0.0
H65 H 0.03325 0.53822 0.53951 0.0
C66 C 0.95837 0.49381 0.54575 0.0
C67 C 0.97192 0.47969 0.53702 0.0
C68 C 0.96207 0.46114 0.52978 0.0
C69 C 0.93846 0.45616 0.53121 0.0
C70 C 0.92479 0.47088 0.53956 0.0
C71 C 0.93459 0.48962 0.5466 0.0
C72 C 0.96924 0.51238 0.55432 0.0
C73 C 0.98386 0.52805 0.5476 0.0
C74 C 0.96533 0.51467 0.56914 0.0
C75 C 0.95141 0.49824 0.57726 0.0
C76 C 0.95882 0.4757 0.57879 0.0
C77 C 0.94745 0.46117 0.58812 0.0
C78 C 0.92839 0.46892 0.59604 0.0
C79 C 0.92032 0.49118 0.59384 0.0
C80 C 0.93185 0.50574 0.58465 0.0
C81 C 0.00407 0.56388 0.57936 0.0
C82 C -0.00764 0.57827 0.58891 0.0
C83 C 0.00462 0.59185 0.59864 0.0
C84 C 0.02883 0.5912 0.59906 0.0
C85 C 0.04053 0.57736 0.58915 0.0
C86 C 0.02827 0.56376 0.57944 0.0
C87 C 0.99108 0.5475 0.57023 0.0
C88 C 0.97616 0.53223 0.57684 0.0
C89 C -0.00539 0.54572 0.55537 0.0
C90 C 0.00882 0.56269 0.54785 0.0
C91 C 0.00326 0.58586 0.54889 0.0
C92 C 0.01778 0.60221 0.54311 0.0
C93 C 0.03827 0.59577 0.5362 0.0
C94 C 0.04332 0.57245 0.53466 0.0
C95 C 0.02865 0.55604 0.54039 0.0
H96 H 0.49342 0.53595 0.84241 0.0
H97 H 0.46734 0.55873 0.85704 0.0
H98 H 0.40901 0.52946 0.83466 0.0
H99 H 0.43538 0.50632 0.8201 0.0
H100 H 0.49597 0.48945 0.84029 0.0
H101 H 0.47759 0.55318 0.81075 0.0
H102 H 0.44903 0.57724 0.79935 0.0
H103 H 0.43001 0.5212 0.77136 0.0
H104 H 0.45719 0.49675 0.78371 0.0
H105 H 0.52368 0.43318 0.80699 0.0
H106 H 0.55481 0.41261 0.79527 0.0
H107 H 0.57565 0.47454 0.77448 0.0
H108 H 0.5457 0.49533 0.7872 0.0
H109 H 0.50165 0.49526 0.78779 0.0
H110 H 0.50123 0.44205 0.83806 0.0
H111 H 0.52584 0.42 0.85395 0.0
H112 H 0.58504 0.45855 0.84038 0.0
H113 H 0.56023 0.48065 0.82448 0.0
C114 C 0.46634 0.51952 0.83016 0.0
C115 C 0.47502 0.53446 0.84063 0.0
C116 C 0.4601 0.54764 0.84887 0.0
C117 C 0.43613 0.54606 0.84689 0.0
C118 C 0.4274 0.53101 0.83641 0.0
C119 C 0.44241 0.51787 0.82808 0.0
C120 C 0.48257 0.50562 0.82159 0.0
C121 C 0.49715 0.49063 0.8288 0.0
C122 C 0.48415 0.50736 0.80661 0.0
C123 C 0.46904 0.52292 0.79842 0.0
C124 C 0.46708 0.54601 0.80226 0.0
C125 C 0.45094 0.5599 0.79553 0.0
C126 C 0.43683 0.55117 0.78452 0.0
C127 C 0.44 0.52841 0.78007 0.0
C128 C 0.4558 0.51442 0.78701 0.0
C129 C 0.53267 0.46597 0.7983 0.0
C130 C 0.53514 0.4424 0.80005 0.0
C131 C 0.55279 0.43055 0.79313 0.0
C132 C 0.56803 0.44189 0.784 0.0
C133 C 0.5647 0.46529 0.78171 0.0
C134 C 0.54734 0.4772 0.78884 0.0
C135 C 0.51525 0.47912 0.80654 0.0
C136 C 0.5004 0.49396 0.79927 0.0
C137 C 0.5135 0.47746 0.82152 0.0
C138 C 0.52893 0.46292 0.83009 0.0
C139 C 0.51956 0.44555 0.83839 0.0
C140 C 0.53366 0.43287 0.84737 0.0
C141 C 0.55736 0.43753 0.84838 0.0
C142 C 0.56681 0.45466 0.83985 0.0
C143 C 0.55271 0.4672 0.83073 0.0
H144 H 0.50966 0.95538 0.03908 0.0
H145 H 0.49021 0.92352 0.02729 0.0
H146 H 0.42677 0.94194 0.04851 0.0
H147 H 0.44585 0.97482 0.05921 0.0
H148 H 0.50669 -0.00095 0.03865 0.0
H149 H 0.49699 0.94401 0.07632 0.0
H150 H 0.47717 0.91841 0.09268 0.0
H151 H 0.43372 0.97397 0.10655 0.0
H152 H 0.45338 -0.00067 0.09012 0.0
H153 H 0.49555 0.05653 0.08815 0.0
H154 H 0.51589 0.085 0.10264 0.0
H155 H 0.58101 0.05877 0.08752 0.0
H156 H 0.56049 0.03058 0.07288 0.0
H157 H 0.49922 0.0103 0.09087 0.0
H158 H 0.50763 0.06472 0.05342 0.0
H159 H 0.53124 0.09266 0.04111 0.0
H160 H 0.57836 0.03943 0.02832 0.0
H161 H 0.55463 0.01147 0.04082 0.0
C162 C 0.47939 0.96728 0.0503 0.0
C163 C 0.49147 0.95274 0.04102 0.0
C164 C 0.48034 0.93431 0.03441 0.0
C165 C 0.45692 0.92982 0.03707 0.0
C166 C 0.44473 0.94484 0.04606 0.0
C167 C 0.45576 0.96352 0.05242 0.0
C168 C 0.49157 0.98612 0.05792 0.0
C169 C 0.50523 0.00127 0.05009 0.0
C170 C 0.48942 0.98948 0.07282 0.0
C171 C 0.47658 0.97354 0.08199 0.0
C172 C 0.48298 0.95056 0.08276 0.0
C173 C 0.47174 0.936 0.09214 0.0
C174 C 0.45386 0.94419 0.10087 0.0
C175 C 0.4472 0.96709 0.09983 0.0
C176 C 0.45854 0.98164 0.09054 0.0
C177 C 0.5265 0.04146 0.07944 0.0
C178 C 0.5142 0.05708 0.08786 0.0
C179 C 0.52586 0.07329 0.09616 0.0
C180 C 0.5501 0.07405 0.09633 0.0
C181 C 0.56235 0.05884 0.08751 0.0
C182 C 0.55065 0.04266 0.07917 0.0
C183 C 0.5141 0.02307 0.07162 0.0
C184 C 0.50054 0.008 0.07942 0.0
C185 C 0.51636 0.01977 0.05677 0.0
C186 C 0.52948 0.03609 0.04808 0.0
C187 C 0.52291 0.05904 0.04783 0.0
C188 C 0.53635 0.07495 0.04073 0.0
C189 C 0.55665 0.06822 0.03376 0.0
C190 C 0.56289 0.0451 0.0337 0.0
C191 C 0.54929 0.02912 0.04072 0.0
H192 H -0.00393 0.58003 0.91169 0.0
H193 H 0.0231 0.60095 0.89686 0.0
H194 H 0.07909 0.56008 0.9129 0.0
H195 H 0.05183 0.53895 0.92759 0.0
H196 H 0.98783 0.5343 0.90904 0.0
H197 H 0.01602 0.58647 0.94429 0.0
H198 H 0.04727 0.60542 0.95704 0.0
H199 H 0.06479 0.54193 0.97721 0.0
H200 H 0.03475 0.52271 0.9634 0.0
H201 H 0.9806 0.47432 0.95526 0.0
H202 H 0.95128 0.44853 0.96453 0.0
H203 H 0.8985 0.49757 0.95407 0.0
H204 H 0.92778 0.52248 0.94417 0.0
H205 H 0.99067 0.52388 0.96136 0.0
H206 H 0.96845 0.47143 0.92442 0.0
H207 H 0.94418 0.44989 0.90775 0.0
H208 H 0.91691 0.51279 0.89139 0.0
H209 H 0.94123 0.53427 0.90815 0.0
C210 C 0.02195 0.55798 0.92075 0.0
C211 C 0.01422 0.57577 0.91213 0.0
C212 C 0.02971 0.58782 0.90375 0.0
C213 C 0.05324 0.58216 0.90372 0.0
C214 C 0.06105 0.56472 0.91265 0.0
C215 C 0.04553 0.55273 0.9211 0.0
C216 C 0.00506 0.54393 0.92854 0.0
C217 C 0.98823 0.53238 0.92051 0.0
C218 C 0.00612 0.54087 0.94348 0.0
C219 C 0.02341 0.55298 0.95253 0.0
C220 C 0.02677 0.57655 0.95132 0.0
C221 C 0.04448 0.58749 0.95886 0.0
C222 C 0.05887 0.57523 0.9681 0.0
C223 C 0.05454 0.55186 0.96991 0.0
C224 C 0.03712 0.54086 0.96215 0.0
C225 C 0.95627 0.50018 0.94899 0.0
C226 C 0.9627 0.4795 0.95512 0.0
C227 C 0.94589 0.46482 0.96044 0.0
C228 C 0.92239 0.47077 0.95991 0.0
C229 C 0.91628 0.49205 0.9543 0.0
C230 C 0.93302 0.50649 0.94879 0.0
C231 C 0.97351 0.51451 0.94179 0.0
C232 C 0.99029 0.52606 0.94991 0.0
C233 C 0.97262 0.51753 0.9269 0.0
C234 C 0.95649 0.50447 0.91762 0.0
C235 C 0.95685 0.48058 0.91748 0.0
C236 C 0.94297 0.46828 0.90793 0.0
C237 C 0.92865 0.47964 0.89824 0.0
C238 C 0.92795 0.50356 0.89863 0.0
C239 C 0.94178 0.51585 0.90821 0.0
H240 H 0.49748 0.54096 0.21098 0.0
H241 H 0.47655 0.57321 0.22126 0.0
H242 H 0.41203 0.54171 0.20886 0.0
H243 H 0.43317 0.50975 0.19835 0.0
H244 H 0.49774 0.49447 0.21517 0.0
H245 H 0.47743 0.54706 0.17865 0.0
H246 H 0.45558 0.57 0.16172 0.0
H247 H 0.42097 0.50951 0.14623 0.0
H248 H 0.44219 0.48668 0.16348 0.0
H249 H 0.48684 0.43418 0.16658 0.0
H250 H 0.50814 0.40823 0.15096 0.0
H251 H 0.57201 0.4401 0.16419 0.0
H252 H 0.55059 0.46578 0.17995 0.0
H253 H 0.48637 0.48001 0.16346 0.0
H254 H 0.50285 0.42805 0.20091 0.0
H255 H 0.5291 0.40269 0.21341 0.0
H256 H 0.57186 0.46016 0.22526 0.0
H257 H 0.54549 0.48554 0.21252 0.0
C258 C 0.46688 0.52312 0.20378 0.0
C259 C 0.47882 0.54089 0.21067 0.0
C260 C 0.4668 0.55928 0.21656 0.0
C261 C 0.44259 0.56014 0.21579 0.0
C262 C 0.43067 0.54181 0.20939 0.0
C263 C 0.44271 0.52347 0.20346 0.0
C264 C 0.47973 0.50493 0.1962 0.0
C265 C 0.49535 0.49143 0.20385 0.0
C266 C 0.47634 0.50069 0.18147 0.0
C267 C 0.46136 0.51512 0.17243 0.0
C268 C 0.46462 0.5388 0.17195 0.0
C269 C 0.45219 0.5519 0.16225 0.0
C270 C 0.43669 0.54146 0.15268 0.0
C271 C 0.43293 0.51791 0.15346 0.0
C272 C 0.44506 0.50489 0.16329 0.0
C273 C 0.51712 0.45189 0.17442 0.0
C274 C 0.50546 0.43533 0.16626 0.0
C275 C 0.51765 0.4206 0.1573 0.0
C276 C 0.54176 0.42226 0.15622 0.0
C277 C 0.55349 0.43822 0.16488 0.0
C278 C 0.54127 0.45293 0.17388 0.0
C279 C 0.5039 0.46935 0.18243 0.0
C280 C 0.48842 0.48289 0.17484 0.0
C281 C 0.50728 0.47352 0.19714 0.0
C282 C 0.52233 0.45862 0.20572 0.0
C283 C 0.51779 0.43521 0.20628 0.0
C284 C 0.53273 0.42077 0.21351 0.0
C285 C 0.55254 0.42944 0.22033 0.0
C286 C 0.55681 0.45299 0.22002 0.0
C287 C 0.54172 0.4675 0.21285 0.0
H288 H 0.51545 0.95353 0.41018 0.0
H289 H 0.48954 0.93028 0.39543 0.0
H290 H 0.43086 0.9607 0.41635 0.0
H291 H 0.45682 0.98434 0.43089 0.0
H292 H 0.51895 -0.00184 0.40989 0.0
H293 H 0.50742 0.94306 0.4468 0.0
H294 H 0.48065 0.91729 0.4585 0.0
H295 H 0.44033 0.9751 0.47263 0.0
H296 H 0.46779 0.00069 0.46138 0.0
H297 H 0.52442 0.05754 0.45775 0.0
H298 H 0.55265 0.0842 0.46805 0.0
H299 H 0.60768 0.03907 0.45502 0.0
H300 H 0.57949 0.01315 0.44437 0.0
H301 H 0.51825 0.00676 0.46254 0.0
H302 H 0.53361 0.06154 0.42414 0.0
H303 H 0.55608 0.08299 0.40683 0.0
H304 H 0.59125 0.02111 0.39434 0.0
H305 H 0.56813 -0.00019 0.41124 0.0
C306 C 0.48812 0.97065 0.42166 0.0
C307 C 0.49702 0.95505 0.41169 0.0
C308 C 0.48223 0.94177 0.4033 0.0
C309 C 0.45823 0.94378 0.40474 0.0
C310 C 0.4493 0.95865 0.41514 0.0
C311 C 0.46413 0.97214 0.42346 0.0
C312 C 0.50389 0.98646 0.4294 0.0
C313 C 0.51895 -0.00019 0.42141 0.0
C314 C 0.50375 0.98886 0.4444 0.0
C315 C 0.48946 0.97372 0.45319 0.0
C316 C 0.49304 0.95013 0.45268 0.0
C317 C 0.47759 0.93543 0.45926 0.0
C318 C 0.45812 0.94405 0.46637 0.0
C319 C 0.45525 0.96782 0.46742 0.0
C320 C 0.47089 0.98252 0.46097 0.0
C321 C 0.54996 0.03353 0.45025 0.0
C322 C 0.54259 0.05343 0.45723 0.0
C323 C 0.55873 0.06859 0.46313 0.0
C324 C 0.58248 0.06394 0.46222 0.0
C325 C 0.58962 0.04353 0.4556 0.0
C326 C 0.57353 0.02856 0.44963 0.0
C327 C 0.5333 0.01833 0.44295 0.0
C328 C 0.51815 0.00509 0.45103 0.0
C329 C 0.5337 0.0156 0.428 0.0
C330 C 0.54915 0.0291 0.41887 0.0
C331 C 0.54639 0.05273 0.41777 0.0
C332 C 0.55932 0.06496 0.40791 0.0
C333 C 0.57528 0.05373 0.39904 0.0
C334 C 0.57872 0.03022 0.40073 0.0
C335 C 0.56564 0.01802 0.41045 0.0
H336 H -7e-05 0.04388 0.717 0.0
H337 H 0.97698 0.0731 0.72878 0.0
H338 H 0.91878 0.05517 0.70195 0.0
H339 H 0.94125 0.02462 0.69117 0.0
H340 H 0.00044 0.00076 0.71433 0.0
H341 H 0.98938 0.06172 0.68118 0.0
H342 H 0.97052 0.08839 0.665 0.0
H343 H 0.94041 0.03187 0.64172 0.0
H344 H 0.95873 0.00533 0.65807 0.0
H345 H 0.00414 0.94863 0.6631 0.0
H346 H 0.03009 0.92632 0.64784 0.0
H347 H 0.08832 0.9634 0.66507 0.0
H348 H 0.06232 0.98545 0.68047 0.0
H349 H 0.00288 -0.0014 0.66154 0.0
H350 H 0.0099 0.93877 0.69629 0.0
H351 H 0.03413 0.91113 0.70851 0.0
H352 H 0.07523 0.96594 0.72626 0.0
H353 H 0.0508 -0.00637 0.71393 0.0
C354 C 0.97254 0.03234 0.70294 0.0
C355 C 0.98208 0.04593 0.71385 0.0
C356 C 0.96897 0.06291 0.72045 0.0
C357 C 0.94609 0.06698 0.71614 0.0
C358 C 0.93626 0.05261 0.70565 0.0
C359 C 0.94925 0.03528 0.69928 0.0
C360 C 0.98726 0.0158 0.69505 0.0
C361 C 0.001 0.00052 0.70279 0.0
C362 C 0.98795 0.01507 0.67995 0.0
C363 C 0.97535 0.0315 0.6709 0.0
C364 C 0.97833 0.05509 0.67278 0.0
C365 C 0.96759 0.0703 0.66354 0.0
C366 C 0.95413 0.06214 0.6521 0.0
C367 C 0.95088 0.03858 0.65038 0.0
C368 C 0.96133 0.02343 0.65971 0.0
C369 C 0.03137 0.96862 0.67288 0.0
C370 C 0.02254 0.95162 0.66377 0.0
C371 C 0.03735 0.93884 0.65514 0.0
C372 C 0.06116 0.9432 0.65531 0.0
C373 C 0.07002 0.95977 0.66476 0.0
C374 C 0.05524 0.97229 0.67355 0.0
C375 C 0.01557 0.98383 0.68081 0.0
C376 C 0.00191 -0.0011 0.67308 0.0
C377 C 0.01507 0.98455 0.69581 0.0
C378 C 0.02861 0.96818 0.70423 0.0
C379 C 0.02397 0.94483 0.70294 0.0
C380 C 0.03776 0.92909 0.70998 0.0
C381 C 0.05653 0.93641 0.71836 0.0
C382 C 0.06094 0.95986 0.71982 0.0
C383 C 0.04694 0.97565 0.71288 0.0
C384 C 0.36711 0.64503 0.02359 0.0
O385 O 0.3831 0.64341 0.01445 0.0
Cd386 Cd 0.38064 0.65691 0.99076 0.0
O387 O 0.34753 0.6533 0.02019 0.0
Cd388 Cd 0.32824 0.66741 -0.00201 0.0
C389 C 0.36447 0.7125 -0.00238 0.0
O390 O 0.34603 0.64045 0.98171 0.0
O391 O 0.32825 0.668 0.97158 0.0
O392 O 0.29517 0.64452 0.00439 0.0
C393 C 0.33877 0.6492 0.97031 0.0
O394 O 0.37956 0.69826 0.9934 0.0
C395 C 0.28023 0.66003 0.00282 0.0
O396 O 0.34415 0.70595 0.00064 0.0
O397 O 0.28768 0.6796 -0.0005 0.0
C398 C 0.37687 0.8463 0.23006 0.0
O399 O 0.39341 0.84362 0.23877 0.0
Cd400 Cd 0.38913 0.83223 0.26299 0.0
O401 O 0.35612 0.84297 0.23394 0.0
Cd402 Cd 0.33583 0.83098 0.25597 0.0
C403 C 0.36401 0.78053 0.25645 0.0
O404 O 0.35821 0.8543 0.27254 0.0
O405 O 0.33588 0.82967 0.28223 0.0
O406 O 0.30568 0.85792 0.24991 0.0
C407 C 0.34939 0.84649 0.28378 0.0
O408 O 0.38103 0.79163 0.26158 0.0
C409 C 0.28899 0.8443 0.25173 0.0
O410 O 0.34577 0.79074 0.25249 0.0
O411 O 0.29411 0.824 0.25498 0.0
C412 C 0.17581 0.87637 0.47734 0.0
O413 O 0.18133 0.89311 0.48534 0.0
Cd414 Cd 0.19277 0.89048 0.50986 0.0
O415 O 0.17662 0.85607 0.48195 0.0
Cd416 Cd 0.18805 0.83676 0.50435 0.0
C417 C 0.24202 0.85981 0.50474 0.0
O418 O 0.16768 0.86316 0.52009 0.0
O419 O 0.18765 0.83733 0.5306 0.0
O420 O 0.1577 0.80954 0.49865 0.0
C421 C 0.1737 0.85382 0.5316 0.0
O422 O 0.23251 0.87803 0.50919 0.0
C423 C 0.16971 0.79185 0.50071 0.0
O424 O 0.22993 0.84253 0.50114 0.0
O425 O 0.19078 0.79496 0.50394 0.0
C426 C 0.15855 0.64751 0.77546 0.0
O427 O 0.15816 0.63022 0.76722 0.0
Cd428 Cd 0.16796 0.63114 0.74259 0.0
O429 O 0.16422 0.66698 0.77075 0.0
Cd430 Cd 0.17634 0.68335 0.74748 0.0
C431 C 0.22371 0.64989 0.74615 0.0
O432 O 0.14813 0.66301 0.73277 0.0
O433 O 0.17464 0.6806 0.72127 0.0
O434 O 0.15305 0.71596 0.75433 0.0
C435 C 0.15576 0.66974 0.72094 0.0
O436 O 0.20974 0.63409 0.74258 0.0
C437 C 0.16766 0.73101 0.75098 0.0
O438 O 0.21629 0.66969 0.74937 0.0
O439 O 0.18699 0.72394 0.74644 0.0
C440 C 0.85743 0.14656 0.47861 0.0
O441 O 0.85684 0.13052 0.48753 0.0
Cd442 Cd 0.84623 0.13457 0.5119 0.0
O443 O 0.85279 0.16694 0.48248 0.0
Cd444 Cd 0.842 0.18734 0.50508 0.0
C445 C 0.79224 0.15721 0.50707 0.0
O446 O 0.86752 0.16649 0.52069 0.0
O447 O 0.84281 0.18772 0.53148 0.0
O448 O 0.86793 0.21832 0.49905 0.0
C449 C 0.8602 0.17477 0.53231 0.0
O450 O 0.80479 0.14068 0.51101 0.0
C451 C 0.85314 0.23407 0.50041 0.0
O452 O 0.80129 0.17611 0.50363 0.0
O453 O 0.83273 0.22805 0.50346 0.0
C454 C 0.87033 0.35123 0.72309 0.0
O455 O 0.88752 0.34953 0.7314 0.0
Cd456 Cd 0.8851 0.33957 0.75589 0.0
O457 O 0.84999 0.34728 0.72754 0.0
Cd458 Cd 0.83206 0.33525 0.75044 0.0
C459 C 0.86252 0.28612 0.75178 0.0
O460 O 0.85397 0.36128 0.76567 0.0
O461 O 0.834 0.33619 0.77672 0.0
O462 O 0.80019 0.36056 0.74506 0.0
C463 C 0.84617 0.35409 0.77735 0.0
O464 O 0.87936 0.29865 0.75565 0.0
C465 C 0.78431 0.34613 0.74708 0.0
O466 O 0.84326 0.29495 0.74838 0.0
O467 O 0.7906 0.32608 0.75015 0.0
C468 C 0.65098 0.36109 0.97875 0.0
O469 O 0.65026 0.37765 0.98754 0.0
Cd470 Cd 0.66206 0.37568 0.01182 0.0
O471 O 0.65783 0.34153 0.98269 0.0
Cd472 Cd 0.67209 0.32386 0.00521 0.0
C473 C 0.71799 0.35934 0.00552 0.0
O474 O 0.64489 0.34224 0.02129 0.0
O475 O 0.67359 0.32574 0.03145 0.0
O476 O 0.64915 0.29093 -0.0018 0.0
C477 C 0.6543 0.33562 0.03269 0.0
O478 O 0.70382 0.37421 0.01011 0.0
C479 C 0.66425 0.27612 0.00118 0.0
O480 O 0.71109 0.33942 0.00206 0.0
O481 O 0.68368 0.28352 0.00549 0.0
C482 C 0.66217 0.14107 0.26939 0.0
O483 O 0.66172 0.12538 0.25997 0.0
Cd484 Cd 0.6737 0.12981 0.23597 0.0
O485 O 0.66851 0.16116 0.26618 0.0
Cd486 Cd 0.68094 0.18158 0.2442 0.0
C487 C 0.72888 0.14919 0.24237 0.0
O488 O 0.6543 0.16293 0.22774 0.0
O489 O 0.68131 0.1822 0.21786 0.0
O490 O 0.65654 0.21264 0.25235 0.0
C491 C 0.66272 0.17105 0.21648 0.0
O492 O 0.71547 0.13358 0.23774 0.0
C493 C 0.67102 0.22839 0.25015 0.0
O494 O 0.72091 0.16849 0.2462 0.0
O495 O 0.69072 0.22233 0.24565 0.0
H496 H 0.08547 0.93722 0.26389 0.0
H497 H 0.11551 0.91155 0.25516 0.0
H498 H 0.15706 0.92754 0.29216 0.0
H499 H 0.1266 0.95174 0.30144 0.0
H500 H 0.15718 0.91805 0.24709 0.0
H501 H 0.19094 0.88529 0.30163 0.0
H502 H 0.17559 0.87611 0.32529 0.0
H503 H 0.10868 0.86411 0.30699 0.0
H504 H 0.12373 0.87285 0.28316 0.0
H505 H 0.27384 0.88739 0.2469 0.0
H506 H 0.23491 0.90202 0.24987 0.0
H507 H 0.21043 0.83436 0.25882 0.0
H508 H 0.24965 0.81964 0.2562 0.0
H509 H 0.19597 0.86232 0.27832 0.0
H510 H 0.19388 0.86241 0.22806 0.0
H511 H 0.20744 0.86932 0.20366 0.0
H512 H 0.2072 0.94135 0.21184 0.0
H513 H 0.19395 0.93488 0.23637 0.0
C514 C 0.10081 0.93494 0.27031 0.0
C515 C 0.10352 0.9466 0.2834 0.0
C516 C 0.11808 0.92041 0.26522 0.0
C517 C 0.13843 0.91729 0.27309 0.0
C518 C 0.14132 0.92919 0.28603 0.0
C519 C 0.12398 0.94341 0.29121 0.0
C520 C 0.15707 0.90222 0.26766 0.0
C521 C 0.16555 0.90573 0.25388 0.0
C522 C 0.1676 0.88562 0.27634 0.0
C523 C 0.15846 0.87987 0.2906 0.0
C524 C 0.17299 0.88054 0.30263 0.0
C525 C 0.16433 0.87545 0.31608 0.0
C526 C 0.14115 0.8696 0.31765 0.0
C527 C 0.12662 0.86872 0.30576 0.0
C528 C 0.13521 0.87375 0.29228 0.0
C529 C 0.26013 0.87552 0.24924 0.0
C530 C 0.26486 0.85236 0.25139 0.0
C531 C 0.2378 0.8839 0.25086 0.0
C532 C 0.21965 0.86928 0.25447 0.0
C533 C 0.22415 0.84597 0.25603 0.0
C534 C 0.24656 0.83756 0.25448 0.0
C535 C 0.19665 0.87883 0.25798 0.0
C536 C 0.18735 0.87432 0.27142 0.0
C537 C 0.18508 0.8941 0.24886 0.0
C538 C 0.19302 0.89813 0.2341 0.0
C539 C 0.19686 0.87972 0.22469 0.0
C540 C 0.20448 0.88356 0.21083 0.0
C541 C 0.20821 0.90576 0.20621 0.0
C542 C 0.20429 0.92416 0.21544 0.0
C543 C 0.19669 0.92042 0.22932 0.0
H544 H 0.2141 0.90869 0.19547 0.0
H545 H 0.13446 0.86572 0.32809 0.0
H546 H 0.05013 0.63561 0.54959 0.0
H547 H 0.07541 0.6655 0.54105 0.0
H548 H 0.08993 0.62554 0.50331 0.0
H549 H 0.06364 0.59586 0.5115 0.0
H550 H 0.11925 0.66767 0.53565 0.0
H551 H 0.09937 0.66204 0.47557 0.0
H552 H 0.06809 0.64957 0.45937 0.0
H553 H 0.01822 0.66309 0.49203 0.0
H554 H 0.04916 0.67589 0.50834 0.0
H555 H 0.19083 0.75062 0.50447 0.0
H556 H 0.17211 0.71362 0.50746 0.0
H557 H 0.10577 0.74466 0.50042 0.0
H558 H 0.12434 0.78137 0.497 0.0
H559 H 0.10572 0.70392 0.48894 0.0
H560 H 0.12826 0.73668 0.53441 0.0
H561 H 0.15575 0.7524 0.55207 0.0
H562 H 0.19387 0.68984 0.55113 0.0
H563 H 0.16674 0.67385 0.53332 0.0
C564 C 0.05844 0.63324 0.53938 0.0
C565 C 0.05455 0.61345 0.53114 0.0
C566 C 0.07315 0.65026 0.53459 0.0
C567 C 0.08445 0.6479 0.52148 0.0
C568 C 0.08116 0.62788 0.51338 0.0
C569 C 0.06628 0.61085 0.51813 0.0
C570 C 0.09915 0.66676 0.51631 0.0
C571 C 0.11643 0.67544 0.52537 0.0
C572 C 0.09537 0.67709 0.50296 0.0
C573 C 0.07661 0.66963 0.49322 0.0
C574 C 0.08172 0.66238 0.47927 0.0
C575 C 0.06405 0.65526 0.47007 0.0
C576 C 0.0412 0.65545 0.47469 0.0
C577 C 0.03594 0.66285 0.48849 0.0
C578 C 0.05354 0.67002 0.49772 0.0
C579 C 0.17229 0.74945 0.5033 0.0
C580 C 0.15905 0.76896 0.50064 0.0
C581 C 0.16161 0.72832 0.50507 0.0
C582 C 0.13748 0.72643 0.50442 0.0
C583 C 0.12439 0.74567 0.50099 0.0
C584 C 0.13505 0.7667 0.49909 0.0
C585 C 0.12557 0.70503 0.50838 0.0
C586 C 0.10886 0.69585 0.49909 0.0
C587 C 0.12938 0.69463 0.5217 0.0
C588 C 0.14566 0.70419 0.53242 0.0
C589 C 0.14261 0.72635 0.5379 0.0
C590 C 0.1581 0.73529 0.54794 0.0
C591 C 0.17659 0.72215 0.55268 0.0
C592 C 0.17958 0.70001 0.54742 0.0
C593 C 0.16415 0.691 0.53736 0.0
H594 H 0.18856 0.72911 0.56046 0.0
H595 H 0.02755 0.64991 0.46755 0.0
H596 H 0.39413 0.53712 0.77541 0.0
H597 H 0.36299 0.5601 0.76588 0.0
H598 H 0.40463 0.62046 0.77073 0.0
H599 H 0.43664 0.59742 0.77958 0.0
H600 H 0.35777 0.62219 0.7829 0.0
H601 H 0.39658 0.6061 0.73924 0.0
H602 H 0.41609 0.58189 0.7214 0.0
H603 H 0.35438 0.5424 0.71572 0.0
H604 H 0.33459 0.56616 0.73369 0.0
H605 H 0.25964 0.67856 0.75334 0.0
H606 H 0.3001 0.66814 0.75707 0.0
H607 H 0.28408 0.59841 0.746 0.0
H608 H 0.24414 0.60869 0.74188 0.0
H609 H 0.3236 0.60912 0.73497 0.0
H610 H 0.28786 0.61866 0.78134 0.0
H611 H 0.26763 0.64009 0.80025 0.0
H612 H 0.32251 0.68914 0.80175 0.0
H613 H 0.34292 0.66811 0.78271 0.0
C614 C 0.39706 0.55516 0.77413 0.0
C615 C 0.41812 0.56529 0.77822 0.0
C616 C 0.3791 0.56831 0.76878 0.0
C617 C 0.38159 0.59192 0.76756 0.0
C618 C 0.40243 0.60223 0.77162 0.0
C619 C 0.42063 0.58901 0.77676 0.0
C620 C 0.36188 0.60561 0.76251 0.0
C621 C 0.35056 0.61985 0.7723 0.0
C622 C 0.35236 0.60213 0.74878 0.0
C623 C 0.36414 0.58786 0.73789 0.0
C624 C 0.38722 0.59215 0.73427 0.0
C625 C 0.39832 0.57852 0.72412 0.0
C626 C 0.38649 0.5606 0.71744 0.0
C627 C 0.36352 0.55629 0.72089 0.0
C628 C 0.35234 0.56986 0.73105 0.0
C629 C 0.26482 0.66107 0.75155 0.0
C630 C 0.24857 0.64444 0.74741 0.0
C631 C 0.28793 0.65512 0.75374 0.0
C632 C 0.2951 0.63242 0.75199 0.0
C633 C 0.27903 0.61604 0.7474 0.0
C634 C 0.25609 0.62196 0.7451 0.0
C635 C 0.31893 0.62512 0.75553 0.0
C636 C 0.33106 0.61202 0.74545 0.0
C637 C 0.32901 0.62936 0.76907 0.0
C638 C 0.31675 0.642 0.78049 0.0
C639 C 0.29551 0.63412 0.78563 0.0
C640 C 0.28403 0.64617 0.79638 0.0
C641 C 0.29374 0.66601 0.80216 0.0
C642 C 0.31498 0.6738 0.79723 0.0
C643 C 0.32651 0.66183 0.78647 0.0
H644 H 0.28483 0.67532 0.81049 0.0
H645 H 0.39512 0.55007 0.70958 0.0
H646 H 0.41189 0.9249 0.02803 0.0
H647 H 0.39279 0.89017 0.01952 0.0
H648 H 0.45678 0.85353 0.02292 0.0
H649 H 0.4758 0.88763 0.0322 0.0
H650 H 0.43004 0.84692 0.99617 0.0
H651 H 0.42272 0.8462 0.04784 0.0
H652 H 0.41093 0.8629 0.0709 0.0
H653 H 0.3408 0.86601 0.05633 0.0
H654 H 0.35226 0.84965 0.03308 0.0
H655 H 0.40773 0.73042 0.99662 0.0
H656 H 0.41948 0.76956 0.00104 0.0
H657 H 0.34853 0.78889 0.00736 0.0
H658 H 0.3366 0.74928 0.00338 0.0
H659 H 0.37388 0.80774 0.02715 0.0
H660 H 0.37885 0.80433 0.97689 0.0
H661 H 0.38923 0.78895 0.95324 0.0
H662 H 0.46105 0.79546 0.96364 0.0
H663 H 0.45112 0.81057 0.98745 0.0
C664 C 0.42192 0.90944 0.02713 0.0
C665 C 0.44546 0.90918 0.0309 0.0
C666 C 0.41098 0.88967 0.02214 0.0
C667 C 0.42342 0.86938 0.02061 0.0
C668 C 0.44696 0.86913 0.02394 0.0
C669 C 0.45783 0.88874 0.02917 0.0
C670 C 0.41183 0.84808 0.01605 0.0
C671 C 0.41784 0.83822 0.00293 0.0
C672 C 0.39528 0.83732 0.02468 0.0
C673 C 0.38839 0.84698 0.03867 0.0
C674 C 0.40482 0.85066 0.04951 0.0
C675 C 0.3982 0.86001 0.06262 0.0
C676 C 0.37514 0.86558 0.06506 0.0
C677 C 0.35866 0.86173 0.05441 0.0
C678 C 0.36521 0.85241 0.04127 0.0
C679 C 0.39453 0.74296 -0.00118 0.0
C680 C 0.37118 0.73668 -0.0004 0.0
C681 C 0.40129 0.76544 0.00127 0.0
C682 C 0.38487 0.78233 0.00427 0.0
C683 C 0.3615 0.77618 0.00499 0.0
C684 C 0.35471 0.75355 0.00269 0.0
C685 C 0.39248 0.80606 0.00733 0.0
C686 C 0.38575 0.81647 0.02019 0.0
C687 C 0.40811 0.81751 -0.00167 0.0
C688 C 0.41422 0.80846 0.984 0.0
C689 C 0.39686 0.80233 0.97418 0.0
C690 C 0.40267 0.79368 0.96073 0.0
C691 C 0.42578 0.79119 0.95695 0.0
C692 C 0.44315 0.79739 0.96659 0.0
C693 C 0.43744 0.80604 0.98006 0.0
H694 H 0.43024 0.78449 0.94654 0.0
H695 H 0.37005 0.87282 0.07522 0.0
H696 H 0.1013 0.55686 0.97386 0.0
H697 H 0.13486 0.57569 0.98425 0.0
H698 H 0.09676 0.63833 0.98798 0.0
H699 H 0.06245 0.61935 0.97832 0.0
H700 H 0.14122 0.64046 0.97321 0.0
H701 H 0.10843 0.6161 0.01705 0.0
H702 H 0.09079 0.5887 0.03341 0.0
H703 H 0.15143 0.54706 0.03131 0.0
H704 H 0.16932 0.57404 0.01476 0.0
H705 H 0.24383 0.68966 0.00111 0.0
H706 H 0.20283 0.67991 -0.00052 0.0
H707 H 0.21968 0.60883 0.00382 0.0
H708 H 0.26033 0.61849 0.00597 0.0
H709 H 0.18166 0.61677 0.01723 0.0
H710 H 0.21109 0.63496 0.97061 0.0
H711 H 0.22937 0.65933 0.95268 0.0
H712 H 0.1761 0.70922 0.95836 0.0
H713 H 0.15765 0.68523 0.97645 0.0
C714 C 0.09968 0.57446 0.97723 0.0
C715 C 0.07898 0.58649 0.97522 0.0
C716 C 0.11901 0.58524 0.98309 0.0
C717 C 0.11821 0.60835 0.9869 0.0
C718 C 0.09766 0.62046 0.98507 0.0
C719 C 0.07814 0.60958 0.97944 0.0
C720 C 0.13941 0.61993 0.99197 0.0
C721 C 0.14985 0.63576 0.98301 0.0
C722 C 0.1508 0.61327 0.00457 0.0
C723 C 0.14016 0.59704 0.01458 0.0
C724 C 0.11794 0.60101 0.01998 0.0
C725 C 0.1079 0.58557 0.02931 0.0
C726 C 0.11996 0.56613 0.03338 0.0
C727 C 0.1421 0.56212 0.02815 0.0
C728 C 0.15222 0.5775 0.01881 0.0
C729 C 0.23871 0.67201 0.00195 0.0
C730 C 0.25533 0.65483 0.00354 0.0
C731 C 0.21529 0.66644 0.00095 0.0
C732 C 0.20817 0.64358 0.00125 0.0
C733 C 0.22469 0.62658 0.00354 0.0
C734 C 0.24799 0.63214 0.00472 0.0
C735 C 0.18388 0.63694 -0.00173 0.0
C736 C 0.17285 0.62196 0.00759 0.0
C737 C 0.1721 0.64403 0.98584 0.0
C738 C 0.18318 0.65847 0.975 0.0
C739 C 0.20339 0.65121 0.96811 0.0
C740 C 0.21375 0.66494 0.95791 0.0
C741 C 0.20395 0.68585 0.95442 0.0
C742 C 0.18371 0.69305 0.9611 0.0
C743 C 0.17329 0.6794 0.97132 0.0
H744 H 0.21199 0.69645 0.94652 0.0
H745 H 0.11216 0.5542 0.0406 0.0
H746 H 0.45122 0.58558 0.23991 0.0
H747 H 0.43229 0.62071 0.24749 0.0
H748 H 0.38597 0.61568 0.21153 0.0
H749 H 0.40555 0.58112 0.20349 0.0
H750 H 0.40227 0.65706 0.21373 0.0
H751 H 0.36752 0.6056 0.24599 0.0
H752 H 0.36607 0.57528 0.26386 0.0
H753 H 0.40537 0.61682 0.29303 0.0
H754 H 0.40734 0.64728 0.27526 0.0
H755 H 0.33851 0.75279 0.23877 0.0
H756 H 0.3461 0.7128 0.23278 0.0
H757 H 0.40256 0.71235 0.26277 0.0
H758 H 0.39523 0.75221 0.26876 0.0
H759 H 0.37582 0.67234 0.2631 0.0
H760 H 0.41413 0.72139 0.22945 0.0
H761 H 0.41554 0.75162 0.2115 0.0
H762 H 0.36848 0.71389 0.18484 0.0
H763 H 0.36655 0.68356 0.20274 0.0
C764 C 0.43703 0.59195 0.23359 0.0
C765 C 0.42994 0.58051 0.22108 0.0
C766 C 0.42602 0.6119 0.23804 0.0
C767 C 0.40749 0.6207 0.23018 0.0
C768 C 0.40014 0.60915 0.2178 0.0
C769 C 0.41124 0.58927 0.2133 0.0
C770 C 0.39674 0.64265 0.23444 0.0
C771 C 0.39602 0.6602 0.22445 0.0
C772 C 0.38891 0.64692 0.24848 0.0
C773 C 0.38771 0.62867 0.25924 0.0
C774 C 0.376 0.60821 0.25617 0.0
C775 C 0.37506 0.59101 0.2663 0.0
C776 C 0.38566 0.59411 0.27956 0.0
C777 C 0.39717 0.61444 0.28275 0.0
C778 C 0.39818 0.63169 0.27266 0.0
C779 C 0.35229 0.74406 0.24426 0.0
C780 C 0.36641 0.75571 0.25414 0.0
C781 C 0.35663 0.72126 0.2408 0.0
C782 C 0.37502 0.70974 0.24725 0.0
C783 C 0.3883 0.72096 0.25767 0.0
C784 C 0.38415 0.74377 0.26103 0.0
C785 C 0.38166 0.6866 0.24244 0.0
C786 C 0.38168 0.66893 0.25233 0.0
C787 C 0.38876 0.68216 0.22829 0.0
C788 C 0.38997 0.70035 0.21751 0.0
C789 C 0.40392 0.71964 0.21982 0.0
C790 C 0.40485 0.73677 0.20965 0.0
C791 C 0.39205 0.73472 0.19706 0.0
C792 C 0.37835 0.71548 0.19461 0.0
C793 C 0.37733 0.69831 0.20476 0.0
H794 H 0.3928 0.74799 0.18919 0.0
H795 H 0.38492 0.58077 0.28739 0.0
H796 H 0.44285 0.90402 0.45428 0.0
H797 H 0.41089 0.88027 0.46194 0.0
H798 H 0.39934 0.92551 0.49771 0.0
H799 H 0.43226 0.94857 0.49067 0.0
H800 H 0.3917 0.8827 0.50517 0.0
H801 H 0.36968 0.93044 0.46533 0.0
H802 H 0.37405 0.94434 0.44081 0.0
H803 H 0.36362 0.87662 0.42434 0.0
H804 H 0.35949 0.86227 0.44879 0.0
H805 H 0.27323 0.88758 0.51781 0.0
H806 H 0.31387 0.89197 0.51218 0.0
H807 H 0.30889 0.83709 0.48139 0.0
H808 H 0.26785 0.83256 0.48701 0.0
H809 H 0.32768 0.87564 0.47021 0.0
H810 H 0.34162 0.82982 0.51044 0.0
H811 H 0.33737 0.81655 0.53508 0.0
H812 H 0.36257 0.88072 0.55103 0.0
H813 H 0.36666 0.89452 0.52649 0.0
C814 C 0.43398 0.90862 0.46401 0.0
C815 C 0.44007 0.9284 0.47178 0.0
C816 C 0.4155 0.89512 0.46828 0.0
C817 C 0.4024 0.90136 0.48023 0.0
C818 C 0.40911 0.92042 0.4884 0.0
C819 C 0.42778 0.93377 0.48425 0.0
C820 C 0.38075 0.88919 0.48368 0.0
C821 C 0.37767 0.88118 0.49756 0.0
C822 C 0.36271 0.88651 0.47358 0.0
C823 C 0.36452 0.89525 0.45888 0.0
C824 C 0.3684 0.91851 0.45647 0.0
C825 C 0.37084 0.92646 0.44259 0.0
C826 C 0.36919 0.91136 0.43102 0.0
C827 C 0.36495 0.88829 0.43331 0.0
C828 C 0.36254 0.88024 0.44718 0.0
C829 C 0.28083 0.87614 0.51002 0.0
C830 C 0.2673 0.8598 0.5028 0.0
C831 C 0.30413 0.87858 0.50687 0.0
C832 C 0.31446 0.86477 0.49642 0.0
C833 C 0.30125 0.84785 0.48953 0.0
C834 C 0.27787 0.84522 0.4928 0.0
C835 C 0.33834 0.86984 0.49186 0.0
C836 C 0.34185 0.8766 0.47776 0.0
C837 C 0.35671 0.87145 0.50178 0.0
C838 C 0.35435 0.86324 0.51659 0.0
C839 C 0.34611 0.84117 0.51919 0.0
C840 C 0.34375 0.83354 0.53315 0.0
C841 C 0.34967 0.84779 0.54461 0.0
C842 C 0.358 0.86969 0.54214 0.0
C843 C 0.36038 0.87741 0.5282 0.0
H844 H 0.34783 0.84185 0.55541 0.0
H845 H 0.37115 0.91754 0.42029 0.0
H846 H 0.10361 0.93533 0.71822 0.0
H847 H 0.12863 0.90493 0.72702 0.0
H848 H 0.069 0.86866 0.74201 0.0
H849 H 0.044 0.89903 0.73338 0.0
H850 H 0.1062 0.867 0.76094 0.0
H851 H 0.09067 0.85553 0.71029 0.0
H852 H 0.09087 0.86759 0.68523 0.0
H853 H 0.16435 0.87584 0.68703 0.0
H854 H 0.16452 0.86404 0.71216 0.0
H855 H 0.12743 0.74998 0.75997 0.0
H856 H 0.11508 0.78929 0.7576 0.0
H857 H 0.18134 0.80691 0.7402 0.0
H858 H 0.19372 0.76721 0.74228 0.0
H859 H 0.14807 0.82268 0.72395 0.0
H860 H 0.16447 0.82715 0.77333 0.0
H861 H 0.16446 0.8155 0.79845 0.0
H862 H 0.09076 0.82125 0.7996 0.0
H863 H 0.09027 0.83261 0.77442 0.0
C864 C 0.09592 0.92108 0.72365 0.0
C865 C 0.07187 0.91943 0.72504 0.0
C866 C 0.1102 0.90371 0.7286 0.0
C867 C 0.10062 0.88448 0.73504 0.0
C868 C 0.07672 0.88336 0.73706 0.0
C869 C 0.06245 0.90061 0.73204 0.0
C870 C 0.11511 0.86468 0.73876 0.0
C871 C 0.11536 0.85724 0.75289 0.0
C872 C 0.12765 0.85245 0.7283 0.0
C873 C 0.12758 0.85916 0.71314 0.0
C874 C 0.10685 0.86004 0.70536 0.0
C875 C 0.1069 0.8668 0.69114 0.0
C876 C 0.1276 0.87253 0.68455 0.0
C877 C 0.14832 0.87141 0.69215 0.0
C878 C 0.14836 0.86467 0.70637 0.0
C879 C 0.13955 0.76225 0.75585 0.0
C880 C 0.16154 0.75545 0.75127 0.0
C881 C 0.1325 0.78481 0.75458 0.0
C882 C 0.14735 0.80117 0.74886 0.0
C883 C 0.16961 0.7946 0.74469 0.0
C884 C 0.17669 0.77194 0.74592 0.0
C885 C 0.1387 0.8245 0.74613 0.0
C886 C 0.13945 0.83263 0.73215 0.0
C887 C 0.12718 0.83742 0.75676 0.0
C888 C 0.12734 0.83063 0.77194 0.0
C889 C 0.14824 0.82578 0.7789 0.0
C890 C 0.14832 0.81925 0.79316 0.0
C891 C 0.12762 0.81761 0.80061 0.0
C892 C 0.10679 0.82253 0.79382 0.0
C893 C 0.1066 0.82906 0.77955 0.0
H894 H 0.12772 0.81255 0.81165 0.0
H895 H 0.12759 0.8778 0.67355 0.0
H896 H 0.61143 0.45835 0.77899 0.0
H897 H 0.64421 0.43822 0.76882 0.0
H898 H 0.60338 0.37721 0.76463 0.0
H899 H 0.5699 0.39751 0.77415 0.0
H900 H 0.64771 0.37237 0.77889 0.0
H901 H 0.61552 0.40078 0.73567 0.0
H902 H 0.5991 0.42998 0.72 0.0
H903 H 0.66192 0.46843 0.72291 0.0
H904 H 0.67861 0.43963 0.73878 0.0
H905 H 0.74609 0.31883 0.74892 0.0
H906 H 0.70595 0.33106 0.75143 0.0
H907 H 0.72737 0.40117 0.7484 0.0
H908 H 0.76716 0.38907 0.74535 0.0
H909 H 0.68849 0.39636 0.73525 0.0
H910 H 0.71807 0.37363 0.78113 0.0
H911 H 0.73527 0.34714 0.79833 0.0
H912 H 0.67862 0.30099 0.79203 0.0
H913 H 0.66122 0.32712 0.77466 0.0
C914 C 0.6091 0.44083 0.7756 0.0
C915 C 0.58784 0.42966 0.77736 0.0
C916 C 0.62797 0.4293 0.76987 0.0
C917 C 0.62613 0.4063 0.76592 0.0
C918 C 0.60507 0.39499 0.76763 0.0
C919 C 0.58602 0.40661 0.77317 0.0
C920 C 0.64668 0.39403 0.76061 0.0
C921 C 0.6564 0.37718 0.76917 0.0
C922 C 0.65818 0.40079 0.74812 0.0
C923 C 0.64827 0.4181 0.7385 0.0
C924 C 0.62578 0.41555 0.73306 0.0
C925 C 0.61643 0.43202 0.72412 0.0
C926 C 0.62944 0.45107 0.72048 0.0
C927 C 0.65186 0.45367 0.72574 0.0
C928 C 0.66128 0.43726 0.73469 0.0
C929 C 0.74215 0.33682 0.74857 0.0
C930 C 0.7598 0.353 0.74704 0.0
C931 C 0.71923 0.3438 0.75009 0.0
C932 C 0.71366 0.36707 0.75039 0.0
C933 C 0.73118 0.38313 0.74822 0.0
C934 C 0.75398 0.37617 0.74652 0.0
C935 C 0.68996 0.37502 0.75373 0.0
C936 C 0.67963 0.39113 0.74481 0.0
C937 C 0.67807 0.36788 0.76605 0.0
C938 C 0.68851 0.35217 0.77647 0.0
C939 C 0.70938 0.35775 0.78334 0.0
C940 C 0.71914 0.34282 0.79313 0.0
C941 C 0.70808 0.32236 0.79623 0.0
C942 C 0.68719 0.31682 0.78959 0.0
C943 C 0.67737 0.33168 0.77977 0.0
H944 H 0.71567 0.31082 0.80382 0.0
H945 H 0.62218 0.4638 0.71356 0.0
H946 H 0.60346 0.07231 0.03606 0.0
H947 H 0.6276 0.10345 0.02749 0.0
H948 H 0.5679 0.13474 0.00853 0.0
H949 H 0.54377 0.1035 0.01685 0.0
H950 H 0.6065 0.13803 0.99151 0.0
H951 H 0.5854 0.15112 0.04083 0.0
H952 H 0.58327 0.14077 0.06616 0.0
H953 H 0.65708 0.13724 0.06834 0.0
H954 H 0.65962 0.14721 0.04294 0.0
H955 H 0.62489 0.25619 0.9912 0.0
H956 H 0.61291 0.21674 0.99378 0.0
H957 H 0.67826 0.20088 0.0133 0.0
H958 H 0.69033 0.24063 0.01089 0.0
H959 H 0.64326 0.18601 0.02907 0.0
H960 H 0.66436 0.17902 0.98044 0.0
H961 H 0.66612 0.18933 0.95511 0.0
H962 H 0.59278 0.18152 0.95142 0.0
H963 H 0.59051 0.17147 0.97678 0.0
C964 C 0.59558 0.08558 0.0298 0.0
C965 C 0.5717 0.08558 0.02721 0.0
C966 C 0.60936 0.10341 0.02499 0.0
C967 C 0.59948 0.12152 0.01752 0.0
C968 C 0.57586 0.12095 0.0143 0.0
C969 C 0.56207 0.1032 0.01915 0.0
C970 C 0.61322 0.14192 0.01395 0.0
C971 C 0.61452 0.14859 -0.00031 0.0
C972 C 0.62419 0.1553 0.02463 0.0
C973 C 0.62269 0.14963 0.03995 0.0
C974 C 0.60117 0.14796 0.04669 0.0
C975 C 0.59988 0.14219 0.06106 0.0
C976 C 0.62002 0.13827 0.06885 0.0
C977 C 0.64149 0.14022 0.06229 0.0
C978 C 0.64286 0.14593 0.04791 0.0
C979 C 0.63691 0.24426 0.99581 0.0
C980 C 0.65855 0.25157 0.00088 0.0
C981 C 0.63007 0.22164 0.99722 0.0
C982 C 0.64474 0.20577 0.00365 0.0
C983 C 0.66669 0.21282 0.00828 0.0
C984 C 0.67359 0.23551 0.00684 0.0
C985 C 0.63619 0.18248 0.0066 0.0
C986 C 0.63575 0.17527 0.02079 0.0
C987 C 0.626 0.16862 0.99585 0.0
C988 C 0.62726 0.17461 0.98056 0.0
C989 C 0.64857 0.17966 0.97426 0.0
C990 C 0.64967 0.18543 0.95988 0.0
C991 C 0.62957 0.18611 0.95166 0.0
C992 C 0.60833 0.18098 0.9578 0.0
C993 C 0.60714 0.17521 0.97217 0.0
H994 H 0.63045 0.19059 0.94054 0.0
H995 H 0.619 0.13379 0.07997 0.0
H996 H 0.94358 0.1087 0.27585 0.0
H997 H 0.90941 0.12774 0.26644 0.0
H998 H 0.87234 0.06421 0.26644 0.0
H999 H 0.90568 0.04523 0.27665 0.0
H1000 H 0.8687 0.09281 0.24022 0.0
H1001 H 0.86211 0.09523 0.29216 0.0
H1002 H 0.87655 0.10529 0.31616 0.0
H1003 H 0.88006 0.17564 0.30457 0.0
H1004 H 0.86597 0.16591 0.28041 0.0
H1005 H 0.75001 0.10812 0.23906 0.0
H1006 H 0.79014 0.09879 0.24337 0.0
H1007 H 0.80469 0.16917 0.25354 0.0
H1008 H 0.76403 0.1786 0.24967 0.0
H1009 H 0.82405 0.14357 0.27243 0.0
H1010 H 0.82469 0.14338 0.22217 0.0
H1011 H 0.81158 0.13483 0.19768 0.0
H1012 H 0.82122 0.06343 0.20468 0.0
H1013 H 0.83408 0.0715 0.22928 0.0
C1014 C 0.92814 0.09874 0.27398 0.0
C1015 C 0.92751 0.07535 0.27712 0.0
C1016 C 0.90872 0.10965 0.26847 0.0
C1017 C 0.88847 0.09732 0.26575 0.0
C1018 C 0.88795 0.07393 0.26837 0.0
C1019 C 0.90715 0.06309 0.27413 0.0
C1020 C 0.8673 0.10885 0.26089 0.0
C1021 C 0.85883 0.10388 0.24722 0.0
C1022 C 0.85505 0.12396 0.26989 0.0
C1023 C 0.86329 0.12981 0.28444 0.0
C1024 C 0.86618 0.11281 0.29469 0.0
C1025 C 0.87426 0.11845 0.30833 0.0
C1026 C 0.8793 0.14108 0.31187 0.0
C1027 C 0.8762 0.15811 0.3018 0.0
C1028 C 0.86817 0.15254 0.28813 0.0
C1029 C 0.76172 0.12174 0.24206 0.0
C1030 C 0.75376 0.14414 0.244 0.0
C1031 C 0.78478 0.11638 0.24444 0.0
C1032 C 0.80061 0.13333 0.24853 0.0
C1033 C 0.79283 0.15581 0.25032 0.0
C1034 C 0.7696 0.16118 0.24807 0.0
C1035 C 0.82484 0.12703 0.2518 0.0
C1036 C 0.83399 0.13294 0.26521 0.0
C1037 C 0.83791 0.11307 0.24244 0.0
C1038 C 0.83024 0.10806 0.22762 0.0
C1039 C 0.82387 0.12584 0.21852 0.0
C1040 C 0.8165 0.12108 0.20461 0.0
C1041 C 0.81554 0.0986 0.19963 0.0
C1042 C 0.82198 0.08083 0.20855 0.0
C1043 C 0.82935 0.0855 0.22247 0.0
H1044 H 0.80982 0.09495 0.18886 0.0
H1045 H 0.88554 0.14542 0.32244 0.0
H1046 H 0.95874 0.41428 0.52797 0.0
H1047 H 0.94156 0.37937 0.51852 0.0
H1048 H 0.87773 0.41465 0.51092 0.0
H1049 H 0.89507 0.45011 0.51972 0.0
H1050 H 0.87381 0.37358 0.52692 0.0
H1051 H 0.906 0.39968 0.48326 0.0
H1052 H 0.93652 0.41461 0.46777 0.0
H1053 H 0.97741 0.35508 0.47523 0.0
H1054 H 0.94727 0.33993 0.49095 0.0
H1055 H 0.82498 0.27145 0.49972 0.0
H1056 H 0.83661 0.31149 0.50092 0.0
H1057 H 0.90808 0.2913 0.50124 0.0
H1058 H 0.8966 0.25146 0.49946 0.0
H1059 H 0.90417 0.32783 0.48642 0.0
H1060 H 0.87687 0.30452 0.53247 0.0
H1061 H 0.8487 0.28917 0.54945 0.0
H1062 H 0.8014 0.34269 0.53917 0.0
H1063 H 0.8292 0.35819 0.522 0.0
C1064 C 0.94124 0.4149 0.52396 0.0
C1065 C 0.92835 0.43516 0.52464 0.0
C1066 C 0.93141 0.39483 0.51863 0.0
C1067 C 0.90842 0.39449 0.51399 0.0
C1068 C 0.89551 0.41461 0.51448 0.0
C1069 C 0.90543 0.43481 0.51962 0.0
C1070 C 0.89765 0.37272 0.50944 0.0
C1071 C 0.88006 0.36376 0.51787 0.0
C1072 C 0.90629 0.35975 0.49788 0.0
C1073 C 0.92442 0.36875 0.48837 0.0
C1074 C 0.92157 0.38985 0.48169 0.0
C1075 C 0.93879 0.39834 0.47285 0.0
C1076 C 0.95891 0.38582 0.47054 0.0
C1077 C 0.96182 0.36476 0.47704 0.0
C1078 C 0.94466 0.3562 0.4859 0.0
C1079 C 0.84317 0.27559 0.49984 0.0
C1080 C 0.85987 0.2583 0.49962 0.0
C1081 C 0.8498 0.29847 0.5006 0.0
C1082 C 0.87324 0.30443 0.50148 0.0
C1083 C 0.8899 0.28718 0.50061 0.0
C1084 C 0.8833 0.26437 0.49963 0.0
C1085 C 0.88057 0.32838 0.50408 0.0
C1086 C 0.89758 0.33777 0.49532 0.0
C1087 C 0.87169 0.34162 0.51552 0.0
C1088 C 0.85498 0.33234 0.52583 0.0
C1089 C 0.86038 0.31291 0.53376 0.0
C1090 C 0.8445 0.3042 0.54343 0.0
C1091 C 0.82324 0.3149 0.54535 0.0
C1092 C 0.81785 0.33438 0.53765 0.0
C1093 C 0.83366 0.34314 0.52795 0.0
H1094 H 0.81097 0.30814 0.55285 0.0
H1095 H 0.97222 0.39242 0.46369 0.0
H1096 H 0.58058 0.08982 0.48681 0.0
H1097 H 0.61035 0.1152 0.49654 0.0
H1098 H 0.65402 0.09913 0.46073 0.0
H1099 H 0.62397 0.0751 0.45056 0.0
H1100 H 0.65039 0.10621 0.50599 0.0
H1101 H 0.69061 0.13915 0.45288 0.0
H1102 H 0.67705 0.15204 0.42942 0.0
H1103 H 0.611 0.16846 0.44717 0.0
H1104 H 0.62425 0.15599 0.47079 0.0
H1105 H 0.76867 0.11742 0.50978 0.0
H1106 H 0.72816 0.11031 0.50509 0.0
H1107 H 0.71774 0.18151 0.49645 0.0
H1108 H 0.75884 0.18869 0.50067 0.0
H1109 H 0.69782 0.15804 0.47686 0.0
H1110 H 0.69411 0.15592 0.52671 0.0
H1111 H 0.70541 0.1464 0.55125 0.0
H1112 H 0.69399 0.0755 0.54216 0.0
H1113 H 0.68295 0.08453 0.51751 0.0
C1114 C 0.59631 0.09214 0.48085 0.0
C1115 C 0.59991 0.08027 0.46794 0.0
C1116 C 0.61339 0.10653 0.48648 0.0
C1117 C 0.63438 0.10934 0.47931 0.0
C1118 C 0.63783 0.09772 0.46634 0.0
C1119 C 0.62073 0.0836 0.46065 0.0
C1120 C 0.65351 0.12283 0.48577 0.0
C1121 C 0.6606 0.11776 0.49968 0.0
C1122 C 0.66638 0.13864 0.47778 0.0
C1123 C 0.65843 0.14653 0.46362 0.0
C1124 C 0.67325 0.14567 0.45182 0.0
C1125 C 0.6656 0.15286 0.43848 0.0
C1126 C 0.64317 0.16103 0.4368 0.0
C1127 C 0.62836 0.16207 0.44848 0.0
C1128 C 0.63592 0.15492 0.46184 0.0
C1129 C 0.75779 0.1317 0.50707 0.0
C1130 C 0.76706 0.15364 0.50558 0.0
C1131 C 0.73449 0.12761 0.5045 0.0
C1132 C 0.71972 0.14542 0.50065 0.0
C1133 C 0.72877 0.1675 0.49947 0.0
C1134 C 0.75225 0.17159 0.5019 0.0
C1135 C 0.6954 0.14029 0.49673 0.0
C1136 C 0.68732 0.14695 0.48331 0.0
C1137 C 0.68124 0.12654 0.50535 0.0
C1138 C 0.68775 0.12093 0.52022 0.0
C1139 C 0.69413 0.13828 0.52991 0.0
C1140 C 0.70048 0.13297 0.54385 0.0
C1141 C 0.70043 0.11036 0.54826 0.0
C1142 C 0.69399 0.09301 0.53874 0.0
C1143 C 0.68764 0.09823 0.52478 0.0
H1144 H 0.70536 0.10628 0.55905 0.0
H1145 H 0.63728 0.16656 0.42646 0.0
H1146 H 0.96301 0.10894 0.72383 0.0
H1147 H 0.94188 0.14175 0.73282 0.0
H1148 H 0.87826 0.10413 0.72976 0.0
H1149 H 0.89942 0.07046 0.72149 0.0
H1150 H 0.87993 0.15022 0.71635 0.0
H1151 H 0.89269 0.11295 0.76057 0.0
H1152 H 0.91554 0.09274 0.77862 0.0
H1153 H 0.96027 0.1506 0.78329 0.0
H1154 H 0.93791 0.17105 0.7651 0.0
H1155 H 0.83078 0.25289 0.74478 0.0
H1156 H 0.838 0.21208 0.74141 0.0
H1157 H 0.90961 0.22257 0.75217 0.0
H1158 H 0.90248 0.26287 0.75594 0.0
H1159 H 0.89538 0.18519 0.7638 0.0
H1160 H 0.88911 0.21877 0.71693 0.0
H1161 H 0.86928 0.23944 0.69775 0.0
H1162 H 0.81533 0.18938 0.69707 0.0
H1163 H 0.83473 0.16856 0.71637 0.0
C1164 C 0.94462 0.10726 0.72538 0.0
C1165 C 0.93304 0.08682 0.722 0.0
C1166 C 0.93254 0.12618 0.73041 0.0
C1167 C 0.90858 0.12527 0.73199 0.0
C1168 C 0.89679 0.10509 0.72859 0.0
C1169 C 0.90894 0.08593 0.72378 0.0
C1170 C 0.89611 0.14588 0.73679 0.0
C1171 C 0.88274 0.15766 0.72685 0.0
C1172 C 0.90024 0.15564 0.75038 0.0
C1173 C 0.91368 0.14348 0.7614 0.0
C1174 C 0.9075 0.12131 0.76537 0.0
C1175 C 0.92035 0.10982 0.77563 0.0
C1176 C 0.93936 0.12037 0.78208 0.0
C1177 C 0.94554 0.14245 0.77829 0.0
C1178 C 0.93276 0.15401 0.76801 0.0
C1179 C 0.848 0.24643 0.74656 0.0
C1180 C 0.86607 0.2612 0.75055 0.0
C1181 C 0.85212 0.22312 0.74458 0.0
C1182 C 0.87442 0.21427 0.74638 0.0
C1183 C 0.89225 0.22893 0.75076 0.0
C1184 C 0.88814 0.25207 0.75285 0.0
C1185 C 0.87983 0.19005 0.74318 0.0
C1186 C 0.89195 0.17756 0.75343 0.0
C1187 C 0.87484 0.17979 0.72978 0.0
C1188 C 0.86319 0.1923 0.71821 0.0
C1189 C 0.87292 0.21228 0.71276 0.0
C1190 C 0.86178 0.224 0.70186 0.0
C1191 C 0.84101 0.21578 0.69623 0.0
C1192 C 0.83138 0.19577 0.70147 0.0
C1193 C 0.84244 0.184 0.71238 0.0
H1194 H 0.83242 0.22487 0.68779 0.0
H1195 H 0.94929 0.11144 0.79003 0.0
H1196 H 0.8794 0.46377 0.9485 0.0
H1197 H 0.84858 0.4401 0.95756 0.0
H1198 H 0.89366 0.41596 0.99074 0.0
H1199 H 0.92413 0.44112 0.98242 0.0
H1200 H 0.84075 0.39804 0.96042 0.0
H1201 H 0.86294 0.40398 0.02027 0.0
H1202 H 0.88286 0.42972 0.03728 0.0
H1203 H 0.86823 0.4866 0.01047 0.0
H1204 H 0.84801 0.46124 0.99341 0.0
H1205 H 0.75363 0.33364 0.99465 0.0
H1206 H 0.79232 0.34693 0.98846 0.0
H1207 H 0.77534 0.41408 0.00424 0.0
H1208 H 0.73724 0.40091 0.0108 0.0
H1209 H 0.81743 0.40546 0.011 0.0
H1210 H 0.77159 0.3993 0.96816 0.0
H1211 H 0.74754 0.37963 0.95009 0.0
H1212 H 0.80274 0.33304 0.94127 0.0
H1213 H 0.82703 0.35233 0.95938 0.0
C1214 C 0.88274 0.45377 0.95788 0.0
C1215 C 0.9042 0.45483 0.96489 0.0
C1216 C 0.86514 0.43989 0.96292 0.0
C1217 C 0.8686 0.42642 0.97497 0.0
C1218 C 0.89036 0.42652 0.98159 0.0
C1219 C 0.9079 0.44076 0.9767 0.0
C1220 C 0.849 0.41321 0.98083 0.0
C1221 C 0.83581 0.39951 0.97152 0.0
C1222 C 0.84228 0.41525 0.99528 0.0
C1223 C 0.85426 0.43067 0.0055 0.0
C1224 C 0.86396 0.42199 0.01803 0.0
C1225 C 0.87529 0.43651 0.02768 0.0
C1226 C 0.87689 0.45976 0.02493 0.0
C1227 C 0.86707 0.46857 0.01256 0.0
C1228 C 0.85569 0.45413 0.0029 0.0
C1229 C 0.75828 0.35114 0.99699 0.0
C1230 C 0.74223 0.36624 0.00311 0.0
C1231 C 0.78037 0.35874 0.99338 0.0
C1232 C 0.78665 0.3816 0.99569 0.0
C1233 C 0.77097 0.39637 0.00236 0.0
C1234 C 0.74907 0.38879 0.00605 0.0
C1235 C 0.8089 0.39081 0.9905 0.0
C1236 C 0.82267 0.40362 -3e-05 0.0
C1237 C 0.81559 0.38875 0.97607 0.0
C1238 C 0.801 0.37705 0.96524 0.0
C1239 C 0.77852 0.38474 0.96244 0.0
C1240 C 0.76486 0.37369 0.95218 0.0
C1241 C 0.77357 0.35504 0.94458 0.0
C1242 C 0.79599 0.34745 0.94719 0.0
C1243 C 0.80972 0.35844 0.95744 0.0
H1244 H 0.76298 0.34652 0.93663 0.0
H1245 H 0.88569 0.47097 0.0324 0.0
H1246 H 0.54278 0.39376 0.23764 0.0
H1247 H 0.5694 0.36498 0.24642 0.0
H1248 H 0.62626 0.40056 0.22732 0.0
H1249 H 0.59954 0.42922 0.21821 0.0
H1250 H 0.62607 0.35653 0.21984 0.0
H1251 H 0.62198 0.39794 0.26344 0.0
H1252 H 0.60347 0.4182 0.28347 0.0
H1253 H 0.56868 0.35683 0.29532 0.0
H1254 H 0.58671 0.33626 0.27523 0.0
H1255 H 0.69643 0.26603 0.24333 0.0
H1256 H 0.6828 0.3054 0.24216 0.0
H1257 H 0.61673 0.28462 0.2584 0.0
H1258 H 0.63029 0.24547 0.25981 0.0
H1259 H 0.62869 0.32607 0.26884 0.0
H1260 H 0.62634 0.28772 0.22269 0.0
H1261 H 0.64342 0.26718 0.20225 0.0
H1262 H 0.68932 0.3232 0.1951 0.0
H1263 H 0.67268 0.34394 0.21562 0.0
C1264 C 0.56098 0.39558 0.23543 0.0
C1265 C 0.56905 0.41367 0.22717 0.0
C1266 C 0.57622 0.37925 0.24058 0.0
C1267 C 0.59987 0.38072 0.23764 0.0
C1268 C 0.6081 0.39917 0.22978 0.0
C1269 C 0.59284 0.41559 0.22466 0.0
C1270 C 0.61542 0.36177 0.24158 0.0
C1271 C 0.62714 0.35025 0.23063 0.0
C1272 C 0.61649 0.35331 0.25561 0.0
C1273 C 0.60563 0.36558 0.26776 0.0
C1274 C 0.61026 0.38879 0.27025 0.0
C1275 C 0.59987 0.40033 0.28163 0.0
C1276 C 0.58489 0.38882 0.29065 0.0
C1277 C 0.5803 0.36573 0.28832 0.0
C1278 C 0.59063 0.35411 0.27695 0.0
C1279 C 0.67916 0.26995 0.24692 0.0
C1280 C 0.66433 0.2526 0.2515 0.0
C1281 C 0.67138 0.29243 0.2462 0.0
C1282 C 0.64862 0.29787 0.24997 0.0
C1283 C 0.63434 0.28082 0.25541 0.0
C1284 C 0.64209 0.2584 0.25615 0.0
C1285 C 0.6388 0.32064 0.24704 0.0
C1286 C 0.6281 0.33278 0.25814 0.0
C1287 C 0.63855 0.32967 0.23313 0.0
C1288 C 0.64849 0.31724 0.22079 0.0
C1289 C 0.6402 0.29557 0.21682 0.0
C1290 C 0.64978 0.28391 0.20522 0.0
C1291 C 0.6675 0.29385 0.19741 0.0
C1292 C 0.67563 0.3155 0.20117 0.0
C1293 C 0.66614 0.32722 0.21279 0.0
H1294 H 0.67489 0.2848 0.18843 0.0
H1295 H 0.57686 0.39778 0.29945 0.0
H1296 H 0.1168 0.97184 0.36387 0.0
H1297 H 0.13526 0.95091 0.38303 0.0
H1298 H 0.07987 0.90187 0.38207 0.0
H1299 H 0.06068 0.92341 0.3634 0.0
H1300 H 0.08767 0.91402 0.40809 0.0
H1301 H 0.13483 0.888 0.37065 0.0
H1302 H 0.15916 0.89009 0.3493 0.0
H1303 H 0.20919 0.92965 0.37261 0.0
H1304 H 0.18494 0.92815 0.39408 0.0
H1305 H 0.14886 0.84907 0.46029 0.0
H1306 H 0.13332 0.85797 0.43666 0.0
H1307 H 0.16962 0.922 0.43753 0.0
H1308 H 0.18481 0.91352 0.4612 0.0
H1309 H 0.17101 0.89562 0.41023 0.0
H1310 H 0.11807 0.92471 0.44661 0.0
H1311 H 0.09292 0.92008 0.46747 0.0
H1312 H 0.05307 0.86982 0.44469 0.0
H1313 H 0.07823 0.87394 0.42375 0.0
C1314 C 0.10853 0.9566 0.36772 0.0
C1315 C 0.08718 0.94941 0.36213 0.0
C1316 C 0.11927 0.94445 0.37856 0.0
C1317 C 0.10909 0.92464 0.38392 0.0
C1318 C 0.0881 0.91706 0.37808 0.0
C1319 C 0.07725 0.9293 0.3673 0.0
C1320 C 0.1195 0.91298 0.39633 0.0
C1321 C 0.10579 0.90954 0.40839 0.0
C1322 C 0.14318 0.90717 0.39682 0.0
C1323 C 0.15795 0.9081 0.38397 0.0
C1324 C 0.15093 0.8973 0.37121 0.0
C1325 C 0.16473 0.89836 0.35908 0.0
C1326 C 0.1857 0.91002 0.35958 0.0
C1327 C 0.19293 0.92063 0.37223 0.0
C1328 C 0.17917 0.91966 0.3844 0.0
C1329 C 0.15373 0.86493 0.45537 0.0
C1330 C 0.1679 0.88069 0.46263 0.0
C1331 C 0.14486 0.86995 0.44189 0.0
C1332 C 0.15036 0.89062 0.4354 0.0
C1333 C 0.16528 0.90593 0.44236 0.0
C1334 C 0.1738 0.90112 0.45592 0.0
C1335 C 0.13923 0.89725 0.42189 0.0
C1336 C 0.15282 0.89975 0.4097 0.0
C1337 C 0.11536 0.90176 0.42115 0.0
C1338 C 0.10018 0.89942 0.43369 0.0
C1339 C 0.10407 0.91252 0.4461 0.0
C1340 C 0.0898 0.91003 0.45793 0.0
C1341 C 0.07146 0.89461 0.45743 0.0
C1342 C 0.06732 0.88171 0.44507 0.0
C1343 C 0.08157 0.88413 0.43322 0.0
H1344 H 0.06042 0.8927 0.46659 0.0
H1345 H 0.19636 0.91081 0.35018 0.0
H1346 H 0.06913 0.61535 0.5967 0.0
H1347 H 0.09173 0.63301 0.61598 0.0
H1348 H 0.04055 0.61223 0.64635 0.0
H1349 H 0.01797 0.59463 0.62723 0.0
H1350 H 0.05499 0.65449 0.65216 0.0
H1351 H 0.09044 0.58199 0.64125 0.0
H1352 H 0.10891 0.55338 0.62564 0.0
H1353 H 0.16341 0.60042 0.61657 0.0
H1354 H 0.14507 0.62942 0.63199 0.0
H1355 H 0.11383 0.64944 0.71766 0.0
H1356 H 0.09346 0.64065 0.69548 0.0
H1357 H 0.14949 0.6691 0.67148 0.0
H1358 H 0.17011 0.67797 0.69372 0.0
H1359 H 0.13478 0.62754 0.66073 0.0
H1360 H 0.10108 0.69854 0.67421 0.0
H1361 H 0.08255 0.72631 0.69036 0.0
H1362 H 0.02466 0.68153 0.69506 0.0
H1363 H 0.04299 0.65333 0.67909 0.0
C1364 C 0.0627 0.61461 0.60749 0.0
C1365 C 0.04178 0.60355 0.61044 0.0
C1366 C 0.07561 0.62472 0.61848 0.0
C1367 C 0.06795 0.62372 0.63263 0.0
C1368 C 0.04676 0.61329 0.63552 0.0
C1369 C 0.03382 0.60328 0.62456 0.0
C1370 C 0.08225 0.63274 0.64456 0.0
C1371 C 0.07239 0.64851 0.65408 0.0
C1372 C 0.10518 0.62539 0.64686 0.0
C1373 C 0.11625 0.60795 0.63763 0.0
C1374 C 0.10626 0.58629 0.63584 0.0
C1375 C 0.11673 0.56999 0.62704 0.0
C1376 C 0.13729 0.57511 0.62008 0.0
C1377 C 0.14746 0.5965 0.62194 0.0
C1378 C 0.13705 0.61287 0.63071 0.0
C1379 C 0.12184 0.65387 0.70768 0.0
C1380 C 0.14357 0.66443 0.70744 0.0
C1381 C 0.11012 0.64894 0.69501 0.0
C1382 C 0.11985 0.65447 0.68185 0.0
C1383 C 0.14166 0.66479 0.68154 0.0
C1384 C 0.15338 0.66987 0.69424 0.0
C1385 C 0.10733 0.64891 0.66847 0.0
C1386 C 0.11751 0.63379 0.65869 0.0
C1387 C 0.08466 0.65678 0.66597 0.0
C1388 C 0.0735 0.67374 0.67553 0.0
C1389 C 0.08448 0.69453 0.67877 0.0
C1390 C 0.074 0.71037 0.68788 0.0
C1391 C 0.05246 0.70567 0.69375 0.0
C1392 C 0.04134 0.68514 0.69051 0.0
C1393 C 0.05176 0.66924 0.68141 0.0
H1394 H 0.04438 0.71795 0.7008 0.0
H1395 H 0.14536 0.56247 0.61328 0.0
H1396 H 0.43993 0.59075 0.85483 0.0
H1397 H 0.41843 0.61058 0.87355 0.0
H1398 H 0.37582 0.55122 0.87908 0.0
H1399 H 0.39732 0.53122 0.86037 0.0
H1400 H 0.35138 0.59227 0.88301 0.0
H1401 H 0.42144 0.55619 0.89901 0.0
H1402 H 0.46313 0.54827 0.89832 0.0
H1403 H 0.47771 0.61898 0.90614 0.0
H1404 H 0.43606 0.62737 0.90665 0.0
H1405 H 0.36092 0.60923 0.96529 0.0
H1406 H 0.37274 0.59312 0.94245 0.0
H1407 H 0.34231 0.65 0.92075 0.0
H1408 H 0.33008 0.6662 0.94371 0.0
H1409 H 0.40218 0.61091 0.92419 0.0
H1410 H 0.32571 0.63042 0.88677 0.0
H1411 H 0.28357 0.63552 0.88793 0.0
H1412 H 0.28071 0.59295 0.9247 0.0
H1413 H 0.32277 0.58735 0.92363 0.0
C1414 C 0.42575 0.58204 0.85989 0.0
C1415 C 0.42055 0.55931 0.85631 0.0
C1416 C 0.41341 0.59343 0.87051 0.0
C1417 C 0.39577 0.58224 0.87782 0.0
C1418 C 0.38936 0.56015 0.87354 0.0
C1419 C 0.40167 0.54875 0.86286 0.0
C1420 C 0.3862 0.59238 0.89103 0.0
C1421 C 0.36244 0.59651 0.892 0.0
C1422 C 0.40062 0.5975 0.90282 0.0
C1423 C 0.42566 0.59244 0.90272 0.0
C1424 C 0.43354 0.57007 0.90049 0.0
C1425 C 0.45716 0.56549 0.90013 0.0
C1426 C 0.47306 0.58312 0.90215 0.0
C1427 C 0.46537 0.60535 0.90456 0.0
C1428 C 0.44176 0.61003 0.90488 0.0
C1429 C 0.35656 0.61829 0.95566 0.0
C1430 C 0.34467 0.63908 0.9563 0.0
C1431 C 0.36337 0.60905 0.94262 0.0
C1432 C 0.35842 0.62033 0.9299 0.0
C1433 C 0.34612 0.6409 0.93043 0.0
C1434 C 0.33922 0.65018 0.94355 0.0
C1435 C 0.36728 0.61096 0.91626 0.0
C1436 C 0.39104 0.60696 0.91518 0.0
C1437 C 0.35275 0.60564 0.90453 0.0
C1438 C 0.32743 0.6087 0.90521 0.0
C1439 C 0.31608 0.62211 0.89507 0.0
C1440 C 0.2922 0.62509 0.89572 0.0
C1441 C 0.27948 0.61464 0.90641 0.0
C1442 C 0.2906 0.60112 0.91646 0.0
C1443 C 0.31446 0.59807 0.91585 0.0
H1444 H 0.26101 0.61697 0.9069 0.0
H1445 H 0.49134 0.57954 0.90187 0.0
H1446 H 0.40806 0.93974 0.10706 0.0
H1447 H 0.39098 0.91891 0.12681 0.0
H1448 H 0.45838 0.89505 0.13908 0.0
H1449 H 0.47547 0.91556 0.11926 0.0
H1450 H 0.42695 0.86235 0.14275 0.0
H1451 H 0.43406 0.94215 0.15486 0.0
H1452 H 0.42771 0.98321 0.15148 0.0
H1453 H 0.35454 0.97299 0.15351 0.0
H1454 H 0.36047 0.93179 0.15671 0.0
H1455 H 0.41874 0.84743 0.21699 0.0
H1456 H 0.42745 0.86001 0.19297 0.0
H1457 H 0.35546 0.87392 0.18564 0.0
H1458 H 0.3465 0.86126 0.20977 0.0
H1459 H 0.38431 0.9095 0.17802 0.0
H1460 H 0.37843 0.82961 0.16942 0.0
H1461 H 0.38612 0.78908 0.17391 0.0
H1462 H 0.45816 0.79969 0.1662 0.0
H1463 H 0.45098 0.84039 0.16191 0.0
C1464 C 0.41918 0.92986 0.1139 0.0
C1465 C 0.44312 0.92944 0.1117 0.0
C1466 C 0.40942 0.91797 0.12517 0.0
C1467 C 0.42345 0.90574 0.13458 0.0
C1468 C 0.44721 0.90436 0.13196 0.0
C1469 C 0.45696 0.91608 0.12062 0.0
C1470 C 0.41377 0.89576 0.14771 0.0
C1471 C 0.41771 0.87267 0.15049 0.0
C1472 C 0.40128 0.9091 0.15769 0.0
C1473 C 0.3977 0.93387 0.15585 0.0
C1474 C 0.41662 0.94864 0.15448 0.0
C1475 C 0.4131 0.97194 0.15261 0.0
C1476 C 0.39074 0.98069 0.15224 0.0
C1477 C 0.37185 0.96617 0.15377 0.0
C1478 C 0.37528 0.94285 0.15562 0.0
C1479 C 0.4047 0.85306 0.21028 0.0
C1480 C 0.38192 0.85338 0.21532 0.0
C1481 C 0.40971 0.86012 0.19651 0.0
C1482 C 0.39207 0.86768 0.18749 0.0
C1483 C 0.36929 0.86803 0.19244 0.0
C1484 C 0.36422 0.86077 0.2062 0.0
C1485 C 0.39778 0.87621 0.17315 0.0
C1486 C 0.39317 0.89906 0.17017 0.0
C1487 C 0.4098 0.86268 0.16307 0.0
C1488 C 0.41417 0.83812 0.16544 0.0
C1489 C 0.39594 0.82334 0.16878 0.0
C1490 C 0.4002 0.80033 0.17128 0.0
C1491 C 0.42262 0.79182 0.17037 0.0
C1492 C 0.44081 0.80631 0.16691 0.0
C1493 C 0.43664 0.82935 0.16443 0.0
H1494 H 0.42588 0.77401 0.17232 0.0
H1495 H 0.38804 -0.00127 0.15079 0.0
H1496 H 0.08538 0.5617 0.88683 0.0
H1497 H 0.10808 0.57885 0.86803 0.0
H1498 H 0.07945 0.64467 0.87847 0.0
H1499 H 0.05637 0.62743 0.89727 0.0
H1500 H 0.07628 0.63752 0.85124 0.0
H1501 H 0.13747 0.6324 0.88438 0.0
H1502 H 0.16285 0.61511 0.90234 0.0
H1503 H 0.1855 0.56552 0.87152 0.0
H1504 H 0.16 0.58229 0.85342 0.0
H1505 H 0.14618 0.68076 0.79473 0.0
H1506 H 0.13287 0.67548 0.81924 0.0
H1507 H 0.14298 0.60308 0.81475 0.0
H1508 H 0.15607 0.60813 0.79034 0.0
H1509 H 0.15848 0.62113 0.84119 0.0
H1510 H 0.0912 0.62364 0.80987 0.0
H1511 H 0.06594 0.64189 0.79219 0.0
H1512 H 0.05577 0.69865 0.82069 0.0
H1513 H 0.08124 0.68084 0.83847 0.0
C1514 C 0.08433 0.57992 0.88537 0.0
C1515 C 0.06908 0.59321 0.89354 0.0
C1516 C 0.09736 0.58974 0.87461 0.0
C1517 C 0.09571 0.61314 0.8719 0.0
C1518 C 0.08104 0.6266 0.88035 0.0
C1519 C 0.06784 0.61673 0.89107 0.0
C1520 C 0.10767 0.62293 0.85942 0.0
C1521 C 0.09441 0.63443 0.84925 0.0
C1522 C 0.13128 0.61877 0.8567 0.0
C1523 C 0.14669 0.60855 0.86755 0.0
C1524 C 0.14772 0.61771 0.88145 0.0
C1525 C 0.16216 0.60801 0.89166 0.0
C1526 C 0.17576 0.58921 0.88808 0.0
C1527 C 0.17496 0.58009 0.87428 0.0
C1528 C 0.16054 0.58971 0.86403 0.0
C1529 C 0.14577 0.66376 0.79902 0.0
C1530 C 0.15199 0.64484 0.79056 0.0
C1531 C 0.13816 0.66078 0.813 0.0
C1532 C 0.13689 0.63888 0.81876 0.0
C1533 C 0.1439 0.62012 0.81051 0.0
C1534 C 0.15123 0.62303 0.79653 0.0
C1535 C 0.1269 0.63506 0.83301 0.0
C1536 C 0.14051 0.62466 0.84345 0.0
C1537 C 0.1037 0.64044 0.83607 0.0
C1538 C 0.08834 0.65107 0.82541 0.0
C1539 C 0.08374 0.64011 0.81231 0.0
C1540 C 0.06935 0.65034 0.80229 0.0
C1541 C 0.05932 0.67145 0.8053 0.0
C1542 C 0.0636 0.68233 0.81836 0.0
C1543 C 0.07799 0.67217 0.82842 0.0
H1544 H 0.04819 0.67935 0.79753 0.0
H1545 H 0.18693 0.58173 0.896 0.0
H1546 H 0.41261 0.58153 0.15448 0.0
H1547 H 0.397 0.60377 0.13456 0.0
H1548 H 0.42276 0.55361 0.1048 0.0
H1549 H 0.43784 0.53119 0.12452 0.0
H1550 H 0.43474 0.60657 0.10223 0.0
H1551 H 0.37389 0.54804 0.1065 0.0
H1552 H 0.34384 0.52852 0.12027 0.0
H1553 H 0.31002 0.59236 0.12817 0.0
H1554 H 0.34011 0.61228 0.1146 0.0
H1555 H 0.40114 0.61661 0.03219 0.0
H1556 H 0.4096 0.6039 0.05615 0.0
H1557 H 0.35221 0.64287 0.07233 0.0
H1558 H 0.34307 0.65512 0.04804 0.0
H1559 H 0.35374 0.6035 0.08515 0.0
H1560 H 0.40839 0.66148 0.07746 0.0
H1561 H 0.43795 0.68347 0.06482 0.0
H1562 H 0.48333 0.62586 0.06525 0.0
H1563 H 0.45393 0.60339 0.07771 0.0
C1564 C 0.41472 0.57524 0.14367 0.0
C1565 C 0.42625 0.55461 0.14099 0.0
C1566 C 0.4058 0.58788 0.13237 0.0
C1567 C 0.40874 0.5802 0.11829 0.0
C1568 C 0.42028 0.55968 0.11562 0.0
C1569 C 0.42876 0.54688 0.12687 0.0
C1570 C 0.40069 0.59376 0.10614 0.0
C1571 C 0.41707 0.60596 0.09844 0.0
C1572 C 0.37745 0.59367 0.10166 0.0
C1573 C 0.35939 0.58166 0.10973 0.0
C1574 C 0.36019 0.55793 0.11132 0.0
C1575 C 0.34312 0.54679 0.11905 0.0
C1576 C 0.32508 0.5592 0.12514 0.0
C1577 C 0.32404 0.58277 0.12347 0.0
C1578 C 0.34108 0.59399 0.11576 0.0
C1579 C 0.39029 0.62255 0.04081 0.0
C1580 C 0.37155 0.63706 0.03822 0.0
C1581 C 0.39523 0.61536 0.05456 0.0
C1582 C 0.38193 0.62291 0.06613 0.0
C1583 C 0.36284 0.63699 0.06358 0.0
C1584 C 0.35765 0.64398 0.04972 0.0
C1585 C 0.38807 0.6156 0.08074 0.0
C1586 C 0.37136 0.60463 0.08899 0.0
C1587 C 0.411 0.61724 0.08591 0.0
C1588 C 0.42887 0.6307 0.07848 0.0
C1589 C 0.42462 0.65344 0.07479 0.0
C1590 C 0.44136 0.666 0.06766 0.0
C1591 C 0.46249 0.65606 0.06422 0.0
C1592 C 0.46695 0.63354 0.06793 0.0
C1593 C 0.45026 0.62089 0.07505 0.0
H1594 H 0.47543 0.66581 0.0587 0.0
H1595 H 0.31187 0.55055 0.13112 0.0
H1596 H 0.46202 0.94295 0.37603 0.0
H1597 H 0.43617 0.92506 0.35866 0.0
H1598 H 0.39334 0.90056 0.39261 0.0
H1599 H 0.41928 0.91876 0.41023 0.0
H1600 H 0.4066 0.86729 0.369 0.0
H1601 H 0.3704 0.939 0.37702 0.0
H1602 H 0.36897 0.98062 0.38044 0.0
H1603 H 0.39605 0.98994 0.33844 0.0
H1604 H 0.398 0.94836 0.33485 0.0
H1605 H 0.33407 0.83286 0.30993 0.0
H1606 H 0.3456 0.84815 0.33332 0.0
H1607 H 0.39102 0.89578 0.31293 0.0
H1608 H 0.37939 0.88093 0.28967 0.0
H1609 H 0.36734 0.91622 0.33374 0.0
H1610 H 0.41079 0.84605 0.32769 0.0
H1611 H 0.41488 0.80462 0.32403 0.0
H1612 H 0.37594 0.7926 0.36197 0.0
H1613 H 0.37139 0.83399 0.36575 0.0
C1614 C 0.44724 0.93357 0.37983 0.0
C1615 C 0.44271 0.93209 0.39446 0.0
C1616 C 0.43243 0.9235 0.3699 0.0
C1617 C 0.41287 0.91162 0.37439 0.0
C1618 C 0.40838 0.90971 0.38899 0.0
C1619 C 0.42311 0.92013 0.39899 0.0
C1620 C 0.39734 0.90153 0.36352 0.0
C1621 C 0.39741 0.87787 0.36149 0.0
C1622 C 0.38575 0.91547 0.35366 0.0
C1623 C 0.38445 0.94053 0.3557 0.0
C1624 C 0.37621 0.94991 0.36855 0.0
C1625 C 0.37528 0.97351 0.37051 0.0
C1626 C 0.38244 0.98792 0.35967 0.0
C1627 C 0.3905 0.97876 0.34683 0.0
C1628 C 0.39149 0.95517 0.34482 0.0
C1629 C 0.34646 0.84664 0.31046 0.0
C1630 C 0.35589 0.85565 0.29796 0.0
C1631 C 0.35306 0.85531 0.32382 0.0
C1632 C 0.36926 0.87303 0.32487 0.0
C1633 C 0.37842 0.88218 0.31238 0.0
C1634 C 0.37183 0.87359 0.29908 0.0
C1635 C 0.37729 0.88198 0.33886 0.0
C1636 C 0.37585 0.9055 0.34146 0.0
C1637 C 0.38774 0.8679 0.34917 0.0
C1638 C 0.39049 0.84307 0.34689 0.0
C1639 C 0.40294 0.83456 0.33518 0.0
C1640 C 0.40537 0.81109 0.3331 0.0
C1641 C 0.39561 0.79599 0.34273 0.0
C1642 C 0.38345 0.80432 0.3545 0.0
C1643 C 0.38094 0.82777 0.35662 0.0
H1644 H 0.39752 0.77783 0.3411 0.0
H1645 H 0.3817 0.00618 0.36121 0.0
H1646 H 0.06528 0.89774 0.64912 0.0
H1647 H 0.08739 0.88027 0.62954 0.0
H1648 H 0.11199 0.94651 0.61752 0.0
H1649 H 0.09042 0.96395 0.63717 0.0
H1650 H 0.08631 0.91595 0.59567 0.0
H1651 H 0.14922 0.91867 0.6303 0.0
H1652 H 0.16714 0.90943 0.65337 0.0
H1653 H 0.15925 0.8381 0.64418 0.0
H1654 H 0.14092 0.84693 0.62115 0.0
H1655 H 0.15972 0.89657 0.5385 0.0
H1656 H 0.14322 0.90988 0.56094 0.0
H1657 H 0.14974 0.84236 0.57809 0.0
H1658 H 0.16768 0.82936 0.55585 0.0
H1659 H 0.15817 0.87054 0.59822 0.0
H1660 H 0.09687 0.86441 0.56478 0.0
H1661 H 0.07598 0.86997 0.54218 0.0
H1662 H 0.07594 0.94223 0.54948 0.0
H1663 H 0.09712 0.93712 0.57204 0.0
C1664 C 0.07573 0.90845 0.64241 0.0
C1665 C 0.07625 0.93215 0.64463 0.0
C1666 C 0.08834 0.89849 0.6313 0.0
C1667 C 0.10127 0.91216 0.62217 0.0
C1668 C 0.10217 0.93573 0.62454 0.0
C1669 C 0.08995 0.94563 0.63578 0.0
C1670 C 0.11239 0.90225 0.60942 0.0
C1671 C 0.10216 0.90622 0.59616 0.0
C1672 C 0.13242 0.88873 0.61024 0.0
C1673 C 0.14347 0.88347 0.62408 0.0
C1674 C 0.15107 0.90102 0.63327 0.0
C1675 C 0.16136 0.89586 0.64632 0.0
C1676 C 0.16431 0.87319 0.65024 0.0
C1677 C 0.15695 0.85565 0.64113 0.0
C1678 C 0.14662 0.86072 0.62808 0.0
C1679 C 0.15775 0.88462 0.5471 0.0
C1680 C 0.16475 0.86191 0.54543 0.0
C1681 C 0.14818 0.89219 0.5599 0.0
C1682 C 0.14456 0.87699 0.57112 0.0
C1683 C 0.1522 0.85441 0.5696 0.0
C1684 C 0.16239 0.84697 0.55688 0.0
C1685 C 0.13243 0.88469 0.58425 0.0
C1686 C 0.14229 0.8802 0.59763 0.0
C1687 C 0.11159 0.89722 0.58359 0.0
C1688 C 0.09876 0.90038 0.57005 0.0
C1689 C 0.09254 0.88149 0.56152 0.0
C1690 C 0.08063 0.88456 0.54872 0.0
C1691 C 0.07468 0.90644 0.54438 0.0
C1692 C 0.08058 0.92529 0.55285 0.0
C1693 C 0.09252 0.92232 0.56566 0.0
H1694 H 0.06547 0.90878 0.53447 0.0
H1695 H 0.17234 0.86922 0.66032 0.0
H1696 H 0.55877 0.39195 0.85398 0.0
H1697 H 0.57892 0.37332 0.87361 0.0
H1698 H 0.60761 0.43798 0.88691 0.0
H1699 H 0.58794 0.45651 0.86717 0.0
H1700 H 0.63846 0.40575 0.89063 0.0
H1701 H 0.55779 0.41555 0.90186 0.0
H1702 H 0.51601 0.41075 0.89795 0.0
H1703 H 0.52366 0.33815 0.89921 0.0
H1704 H 0.56556 0.34253 0.90294 0.0
H1705 H 0.64823 0.40162 0.9652 0.0
H1706 H 0.63654 0.40852 0.94067 0.0
H1707 H 0.62638 0.33655 0.93376 0.0
H1708 H 0.63847 0.32936 0.95842 0.0
H1709 H 0.58868 0.3655 0.92501 0.0
H1710 H 0.66961 0.35762 0.91832 0.0
H1711 H 0.71063 0.36451 0.92378 0.0
H1712 H 0.70194 0.43559 0.91531 0.0
H1713 H 0.66076 0.42922 0.91003 0.0
C1714 C 0.5696 0.4021 0.86101 0.0
C1715 C 0.57167 0.4257 0.85911 0.0
C1716 C 0.58108 0.39146 0.87222 0.0
C1717 C 0.59445 0.40431 0.8819 0.0
C1718 C 0.59741 0.42769 0.87959 0.0
C1719 C 0.58617 0.43828 0.86829 0.0
C1720 C 0.60408 0.39392 0.89499 0.0
C1721 C 0.62756 0.39698 0.89815 0.0
C1722 C 0.59 0.382 0.90469 0.0
C1723 C 0.56482 0.37936 0.9025 0.0
C1724 C 0.55058 0.39856 0.9012 0.0
C1725 C 0.52688 0.39592 0.89903 0.0
C1726 C 0.5172 0.37416 0.89828 0.0
C1727 C 0.53119 0.35499 0.89975 0.0
C1728 C 0.55491 0.35754 0.9019 0.0
C1729 C 0.64359 0.3872 0.95849 0.0
C1730 C 0.64421 0.36493 0.96376 0.0
C1731 C 0.63704 0.39118 0.94444 0.0
C1732 C 0.63079 0.37303 0.9354 0.0
C1733 C 0.63127 0.35075 0.94059 0.0
C1734 C 0.6382 0.34669 0.95464 0.0
C1735 C 0.62285 0.37779 0.92075 0.0
C1736 C 0.59968 0.37377 0.91732 0.0
C1737 C 0.63715 0.38906 0.91092 0.0
C1738 C 0.66202 0.39295 0.91386 0.0
C1739 C 0.6764 0.37475 0.91771 0.0
C1740 C 0.69969 0.37856 0.92077 0.0
C1741 C 0.70888 0.40047 0.91991 0.0
C1742 C 0.6948 0.41862 0.91596 0.0
C1743 C 0.67148 0.41491 0.91292 0.0
H1744 H 0.72691 0.40339 0.9223 0.0
H1745 H 0.49884 0.37215 0.89661 0.0
H1746 H 0.53898 0.08327 0.12394 0.0
H1747 H 0.56002 0.10654 0.14119 0.0
H1748 H 0.61083 0.12228 0.10941 0.0
H1749 H 0.58956 0.09901 0.09187 0.0
H1750 H 0.63067 0.10945 0.13425 0.0
H1751 H 0.57472 0.16352 0.12063 0.0
H1752 H 0.53611 0.17817 0.11476 0.0
H1753 H 0.51352 0.16515 0.15736 0.0
H1754 H 0.55189 0.15009 0.16344 0.0
H1755 H 0.68065 0.17937 0.19005 0.0
H1756 H 0.66362 0.16917 0.16686 0.0
H1757 H 0.60445 0.14106 0.18802 0.0
H1758 H 0.62126 0.1511 0.2111 0.0
H1759 H 0.59251 0.16738 0.16493 0.0
H1760 H 0.64657 0.1069 0.17646 0.0
H1761 H 0.68511 0.09184 0.18217 0.0
H1762 H 0.71134 0.11783 0.14291 0.0
H1763 H 0.67298 0.13332 0.13706 0.0
C1764 C 0.55433 0.09205 0.12048 0.0
C1765 C 0.56247 0.0894 0.10648 0.0
C1766 C 0.5664 0.10534 0.13039 0.0
C1767 C 0.58683 0.11642 0.12654 0.0
C1768 C 0.59504 0.11394 0.11257 0.0
C1769 C 0.58292 0.1006 0.1026 0.0
C1770 C 0.59999 0.12943 0.13751 0.0
C1771 C 0.62255 0.12256 0.14073 0.0
C1772 C 0.58933 0.14639 0.14603 0.0
C1773 C 0.5662 0.15557 0.14247 0.0
C1774 C 0.56149 0.16364 0.12873 0.0
C1775 C 0.53964 0.17204 0.12536 0.0
C1776 C 0.52237 0.17257 0.13567 0.0
C1777 C 0.52692 0.16474 0.14938 0.0
C1778 C 0.54874 0.1563 0.1528 0.0
C1779 C 0.66396 0.17112 0.18973 0.0
C1780 C 0.65234 0.16591 0.20239 0.0
C1781 C 0.65429 0.16529 0.17649 0.0
C1782 C 0.63283 0.15428 0.17574 0.0
C1783 C 0.621 0.1496 0.18836 0.0
C1784 C 0.63069 0.15525 0.20155 0.0
C1785 C 0.62277 0.14677 0.16194 0.0
C1786 C 0.60081 0.15471 0.1582 0.0
C1787 C 0.63401 0.13088 0.15292 0.0
C1788 C 0.65701 0.12152 0.15642 0.0
C1789 C 0.66061 0.10957 0.16911 0.0
C1790 C 0.6824 0.10093 0.17236 0.0
C1791 C 0.70068 0.10394 0.16294 0.0
C1792 C 0.69718 0.11555 0.15022 0.0
C1793 C 0.67542 0.12426 0.14693 0.0
H1794 H 0.71754 0.09723 0.16547 0.0
H1795 H 0.50546 0.17908 0.13305 0.0
H1796 H 0.93869 0.11163 0.35091 0.0
H1797 H 0.91641 0.12933 0.37022 0.0
H1798 H 0.90747 0.06348 0.38933 0.0
H1799 H 0.9286 0.04577 0.36969 0.0
H1800 H 0.87055 0.08652 0.39336 0.0
H1801 H 0.95222 0.10351 0.39901 0.0
H1802 H 0.98947 0.11947 0.3914 0.0
H1803 H 0.95891 0.18574 0.38836 0.0
H1804 H 0.92142 0.1701 0.3958 0.0
H1805 H 0.86696 0.1049 0.46699 0.0
H1806 H 0.87716 0.09575 0.4425 0.0
H1807 H 0.87166 0.16657 0.43153 0.0
H1808 H 0.86159 0.17605 0.45624 0.0
H1809 H 0.91083 0.14705 0.42112 0.0
H1810 H 0.83052 0.1295 0.42035 0.0
H1811 H 0.79453 0.1123 0.42902 0.0
H1812 H 0.82367 0.0456 0.42394 0.0
H1813 H 0.85995 0.06239 0.41543 0.0
C1814 C 0.93156 0.10099 0.35914 0.0
C1815 C 0.93535 0.0774 0.3589 0.0
C1816 C 0.91897 0.11109 0.3702 0.0
C1817 C 0.9107 0.09783 0.38144 0.0
C1818 C 0.91366 0.07411 0.38081 0.0
C1819 C 0.92575 0.06398 0.3696 0.0
C1820 C 0.90028 0.10848 0.39434 0.0
C1821 C 0.87941 0.09971 0.39944 0.0
C1822 C 0.91143 0.12619 0.40212 0.0
C1823 C 0.934 0.1356 0.3978 0.0
C1824 C 0.95344 0.12147 0.39664 0.0
C1825 C 0.97458 0.13045 0.39237 0.0
C1826 C 0.97653 0.15359 0.38936 0.0
C1827 C 0.95736 0.16782 0.39067 0.0
C1828 C 0.93617 0.1589 0.39491 0.0
C1829 C 0.86781 0.1186 0.45941 0.0
C1830 C 0.86342 0.14124 0.46361 0.0
C1831 C 0.8735 0.11328 0.44536 0.0
C1832 C 0.8748 0.13041 0.43513 0.0
C1833 C 0.87059 0.15307 0.43925 0.0
C1834 C 0.86484 0.15844 0.45336 0.0
C1835 C 0.8816 0.12449 0.42034 0.0
C1836 C 0.90174 0.13419 0.41489 0.0
C1837 C 0.86994 0.10743 0.41234 0.0
C1838 C 0.84801 0.09724 0.4173 0.0
C1839 C 0.82931 0.11116 0.42115 0.0
C1840 C 0.80885 0.10148 0.42604 0.0
C1841 C 0.80683 0.07787 0.42705 0.0
C1842 C 0.82525 0.06389 0.42315 0.0
C1843 C 0.84576 0.07348 0.41827 0.0
H1844 H 0.79098 0.07042 0.43084 0.0
H1845 H -0.00708 0.16052 0.38604 0.0
H1846 H 0.91331 0.48299 0.62225 0.0
H1847 H 0.90041 0.45967 0.64186 0.0
H1848 H 0.90917 0.39916 0.61603 0.0
H1849 H 0.9211 0.42257 0.59595 0.0
H1850 H 0.87142 0.3957 0.63318 0.0
H1851 H 0.95108 0.41471 0.63851 0.0
H1852 H 0.98487 0.44015 0.63949 0.0
H1853 H 0.95592 0.47585 0.67533 0.0
H1854 H 0.92177 0.45083 0.67443 0.0
H1855 H 0.91027 0.34919 0.70808 0.0
H1856 H 0.91789 0.36452 0.68458 0.0
H1857 H 0.84713 0.38642 0.68135 0.0
H1858 H 0.8392 0.37031 0.70474 0.0
H1859 H 0.91739 0.40607 0.67745 0.0
H1860 H 0.83153 0.39213 0.64648 0.0
H1861 H 0.80026 0.36376 0.64469 0.0
H1862 H 0.84638 0.31167 0.659 0.0
H1863 H 0.87799 0.33965 0.66068 0.0
C1864 C 0.91192 0.46479 0.62052 0.0
C1865 C 0.91838 0.45468 0.60748 0.0
C1866 C 0.90475 0.45144 0.63184 0.0
C1867 C 0.90422 0.42766 0.63049 0.0
C1868 C 0.90957 0.41749 0.61732 0.0
C1869 C 0.91662 0.43089 0.6059 0.0
C1870 C 0.89973 0.41354 0.64316 0.0
C1871 C 0.88144 0.39789 0.64288 0.0
C1872 C 0.91319 0.41602 0.65568 0.0
C1873 C 0.93378 0.43101 0.65633 0.0
C1874 C 0.95185 0.42809 0.64654 0.0
C1875 C 0.97107 0.44242 0.64709 0.0
C1876 C 0.97252 0.45964 0.65745 0.0
C1877 C 0.95476 0.46252 0.6673 0.0
C1878 C 0.93548 0.44826 0.66679 0.0
C1879 C 0.89624 0.357 0.70229 0.0
C1880 C 0.87416 0.35867 0.7083 0.0
C1881 C 0.90062 0.36578 0.68885 0.0
C1882 C 0.88312 0.37665 0.68115 0.0
C1883 C 0.86085 0.3778 0.68695 0.0
C1884 C 0.85635 0.36868 0.70036 0.0
C1885 C 0.88877 0.38834 0.66766 0.0
C1886 C 0.90733 0.40368 0.66778 0.0
C1887 C 0.8759 0.38507 0.65494 0.0
C1888 C 0.85706 0.36806 0.65384 0.0
C1889 C 0.83502 0.37461 0.64919 0.0
C1890 C 0.81723 0.35859 0.6482 0.0
C1891 C 0.82131 0.33594 0.65177 0.0
C1892 C 0.84321 0.32924 0.65629 0.0
C1893 C 0.86106 0.34518 0.65728 0.0
H1894 H 0.80752 0.32358 0.65101 0.0
H1895 H 0.98742 0.47072 0.65785 0.0
H1896 H 0.58401 0.03821 0.3721 0.0
H1897 H 0.60316 0.05795 0.35288 0.0
H1898 H 0.61174 0.11731 0.37983 0.0
H1899 H 0.59299 0.09733 0.39946 0.0
H1900 H 0.59489 0.127 0.35224 0.0
H1901 H 0.65779 0.08786 0.37316 0.0
H1902 H 0.67828 0.0553 0.38357 0.0
H1903 H 0.67185 0.01824 0.34406 0.0
H1904 H 0.651 0.05045 0.33347 0.0
H1905 H 0.66064 0.16966 0.29284 0.0
H1906 H 0.64978 0.15977 0.31722 0.0
H1907 H 0.63757 0.09042 0.30361 0.0
H1908 H 0.64853 0.09996 0.27946 0.0
H1909 H 0.66206 0.09206 0.32792 0.0
H1910 H 0.59336 0.12827 0.30881 0.0
H1911 H 0.57174 0.16014 0.29838 0.0
H1912 H 0.5889 0.2024 0.33453 0.0
H1913 H 0.61087 0.17083 0.34508 0.0
C1914 C 0.59033 0.0553 0.37411 0.0
C1915 C 0.58721 0.06604 0.38743 0.0
C1916 C 0.60117 0.06662 0.36305 0.0
C1917 C 0.60912 0.08898 0.36499 0.0
C1918 C 0.60577 0.10001 0.37815 0.0
C1919 C 0.59501 0.08859 0.38932 0.0
C1920 C 0.62053 0.10059 0.35301 0.0
C1921 C 0.60993 0.11974 0.3471 0.0
C1922 C 0.64001 0.09096 0.34627 0.0
C1923 C 0.65273 0.07156 0.35254 0.0
C1924 C 0.66061 0.07272 0.36672 0.0
C1925 C 0.67231 0.05432 0.37265 0.0
C1926 C 0.67634 0.0347 0.36449 0.0
C1927 C 0.66872 0.03345 0.35037 0.0
C1928 C 0.65699 0.05179 0.34439 0.0
C1929 C 0.65564 0.15231 0.29506 0.0
C1930 C 0.65545 0.13562 0.28418 0.0
C1931 C 0.6494 0.14671 0.30899 0.0
C1932 C 0.64282 0.12436 0.31222 0.0
C1933 C 0.6427 0.10774 0.30138 0.0
C1934 C 0.6489 0.11329 0.28754 0.0
C1935 C 0.63585 0.11788 0.3268 0.0
C1936 C 0.64737 0.09969 0.33323 0.0
C1937 C 0.61721 0.12839 0.33398 0.0
C1938 C 0.604 0.14731 0.32764 0.0
C1939 C 0.59268 0.14442 0.31447 0.0
C1940 C 0.58034 0.16241 0.30855 0.0
C1941 C 0.57902 0.18331 0.31576 0.0
C1942 C 0.58999 0.18623 0.32894 0.0
C1943 C 0.60238 0.1683 0.33489 0.0
H1944 H 0.56945 0.19721 0.31116 0.0
H1945 H 0.6854 0.02048 0.3691 0.0
H1946 H 0.9577 0.05882 0.62337 0.0
H1947 H 0.94181 0.08438 0.60554 0.0
H1948 H 0.913 0.12665 0.63882 0.0
H1949 H 0.92911 0.10102 0.65685 0.0
H1950 H 0.88177 0.11478 0.61566 0.0
H1951 H 0.95598 0.14766 0.62316 0.0
H1952 H -0.00179 0.14771 0.62603 0.0
H1953 H 0.00582 0.12067 0.58363 0.0
H1954 H 0.9636 0.12013 0.58058 0.0
H1955 H 0.8481 0.18915 0.55917 0.0
H1956 H 0.86411 0.1762 0.58187 0.0
H1957 H 0.91019 0.1312 0.55916 0.0
H1958 H 0.8947 0.14434 0.53658 0.0
H1959 H 0.93231 0.15183 0.58031 0.0
H1960 H 0.85934 0.11242 0.57434 0.0
H1961 H 0.8172 0.11011 0.57115 0.0
H1962 H 0.8074 0.1475 0.61023 0.0
H1963 H 0.84953 0.15027 0.61355 0.0
C1964 C 0.94793 0.07352 0.62689 0.0
C1965 C 0.94454 0.07793 0.64146 0.0
C1966 C 0.939 0.08817 0.61671 0.0
C1967 C 0.92638 0.10744 0.62089 0.0
C1968 C 0.92277 0.11187 0.63543 0.0
C1969 C 0.93202 0.09733 0.64567 0.0
C1970 C 0.91673 0.12248 0.60986 0.0
C1971 C 0.89275 0.12339 0.60811 0.0
C1972 C 0.93115 0.13333 0.59993 0.0
C1973 C 0.95659 0.13374 0.60168 0.0
C1974 C 0.96664 0.14157 0.61448 0.0
C1975 C 0.99059 0.14171 0.61614 0.0
C1976 C 0.00469 0.13417 0.60503 0.0
C1977 C -0.00513 0.12651 0.59223 0.0
C1978 C 0.97093 0.12631 0.59052 0.0
C1979 C 0.86171 0.17658 0.55905 0.0
C1980 C 0.87007 0.16769 0.5461 0.0
C1981 C 0.8708 0.16915 0.57201 0.0
C1982 C 0.88822 0.15258 0.57222 0.0
C1983 C 0.89681 0.14405 0.55928 0.0
C1984 C 0.88785 0.15151 0.54636 0.0
C1985 C 0.89732 0.14349 0.58579 0.0
C1986 C 0.92125 0.14371 0.58803 0.0
C1987 C 0.88285 0.1335 0.59608 0.0
C1988 C 0.85755 0.13181 0.5941 0.0
C1989 C 0.84819 0.12031 0.58219 0.0
C1990 C 0.82432 0.11888 0.58037 0.0
C1991 C 0.80963 0.12872 0.59046 0.0
C1992 C 0.81879 0.13994 0.60241 0.0
C1993 C 0.84266 0.14144 0.60427 0.0
H1994 H 0.79115 0.12759 0.58903 0.0
H1995 H 0.02322 0.13429 0.60633 0.0
H1996 H 0.90396 0.44017 0.90129 0.0
H1997 H 0.88509 0.41753 0.8825 0.0
H1998 H 0.9057 0.4669 0.85141 0.0
H1999 H 0.92443 0.48955 0.87007 0.0
H2000 H 0.86267 0.45318 0.84646 0.0
H2001 H 0.9358 0.41708 0.85645 0.0
H2002 H 0.96473 0.39867 0.87176 0.0
H2003 H 0.91624 0.34608 0.88178 0.0
H2004 H 0.88691 0.36437 0.86666 0.0
H2005 H 0.868 0.39473 0.78101 0.0
H2006 H 0.87687 0.41454 0.80335 0.0
H2007 H 0.84572 0.36008 0.82687 0.0
H2008 H 0.83665 0.34003 0.80443 0.0
H2009 H 0.88862 0.37383 0.83773 0.0
H2010 H 0.81721 0.40787 0.82473 0.0
H2011 H 0.78929 0.42629 0.80875 0.0
H2012 H 0.83528 0.48289 0.80383 0.0
H2013 H 0.86364 0.46465 0.81962 0.0
C2014 C 0.90439 0.44619 0.89045 0.0
C2015 C 0.91572 0.46662 0.88716 0.0
C2016 C 0.8936 0.43326 0.87973 0.0
C2017 C 0.8942 0.4404 0.86553 0.0
C2018 C 0.90494 0.4611 0.8623 0.0
C2019 C 0.9156 0.47406 0.873 0.0
C2020 C 0.88444 0.42609 0.85385 0.0
C2021 C 0.86842 0.43587 0.84452 0.0
C2022 C 0.89145 0.40327 0.85153 0.0
C2023 C 0.90909 0.39224 0.86058 0.0
C2024 C 0.93126 0.40169 0.86201 0.0
C2025 C 0.94773 0.39126 0.87064 0.0
C2026 C 0.94231 0.37126 0.87778 0.0
C2027 C 0.9204 0.3616 0.87627 0.0
C2028 C 0.90385 0.37199 0.86767 0.0
C2029 C 0.86299 0.38693 0.79092 0.0
C2030 C 0.8516 0.36583 0.79097 0.0
C2031 C 0.86798 0.39834 0.80367 0.0
C2032 C 0.86171 0.38889 0.81673 0.0
C2033 C 0.85059 0.36768 0.81687 0.0
C2034 C 0.84541 0.35629 0.80407 0.0
C2035 C 0.86733 0.40116 0.83018 0.0
C2036 C 0.88256 0.391 0.83982 0.0
C2037 C 0.8597 0.42368 0.83274 0.0
C2038 C 0.84263 0.4348 0.8233 0.0
C2039 C 0.82145 0.42416 0.82016 0.0
C2040 C 0.80553 0.43459 0.81115 0.0
C2041 C 0.81052 0.45573 0.80526 0.0
C2042 C 0.83143 0.46651 0.8084 0.0
C2043 C 0.84743 0.45615 0.8174 0.0
H2044 H 0.79817 0.46377 0.79829 0.0
H2045 H 0.95509 0.36321 0.88445 0.0
H2046 H 0.52847 0.41368 0.12882 0.0
H2047 H 0.54962 0.39347 0.1103 0.0
H2048 H 0.60499 0.38062 0.1399 0.0
H2049 H 0.58372 0.40091 0.15866 0.0
H2050 H 0.6212 0.39598 0.11515 0.0
H2051 H 0.5702 0.33714 0.12873 0.0
H2052 H 0.53313 0.31942 0.13496 0.0
H2053 H 0.50683 0.33307 0.09314 0.0
H2054 H 0.54362 0.35118 0.08671 0.0
H2055 H 0.67342 0.32948 0.0591 0.0
H2056 H 0.65639 0.33924 0.08224 0.0
H2057 H 0.59513 0.3632 0.06106 0.0
H2058 H 0.61194 0.35354 0.03799 0.0
H2059 H 0.58542 0.33645 0.08431 0.0
H2060 H 0.63482 0.40026 0.07253 0.0
H2061 H 0.67194 0.41807 0.06648 0.0
H2062 H 0.70153 0.39402 0.10547 0.0
H2063 H 0.66463 0.3758 0.11165 0.0
C2064 C 0.54492 0.40616 0.13152 0.0
C2065 C 0.55431 0.40873 0.14527 0.0
C2066 C 0.55703 0.39462 0.12089 0.0
C2067 C 0.57874 0.38521 0.12376 0.0
C2068 C 0.58821 0.38766 0.13748 0.0
C2069 C 0.57607 0.39929 0.14816 0.0
C2070 C 0.59183 0.37395 0.11212 0.0
C2071 C 0.61361 0.38257 0.10861 0.0
C2072 C 0.58183 0.35662 0.10349 0.0
C2073 C 0.55966 0.34564 0.10727 0.0
C2074 C 0.55646 0.3365 0.12089 0.0
C2075 C 0.5355 0.32637 0.12445 0.0
C2076 C 0.51763 0.32515 0.11446 0.0
C2077 C 0.52069 0.33403 0.10087 0.0
C2078 C 0.54162 0.3442 0.09725 0.0
C2079 C 0.6563 0.33676 0.0594 0.0
C2080 C 0.64405 0.34085 0.04673 0.0
C2081 C 0.64663 0.34234 0.07261 0.0
C2082 C 0.62456 0.35203 0.07334 0.0
C2083 C 0.61217 0.35569 0.06072 0.0
C2084 C 0.62185 0.35026 0.04755 0.0
C2085 C 0.61438 0.35898 0.08715 0.0
C2086 C 0.59317 0.34951 0.09105 0.0
C2087 C 0.62494 0.37543 0.09617 0.0
C2088 C 0.64707 0.38643 0.09247 0.0
C2089 C 0.6493 0.3986 0.07975 0.0
C2090 C 0.67028 0.40881 0.07631 0.0
C2091 C 0.68911 0.40712 0.08556 0.0
C2092 C 0.68696 0.39528 0.0983 0.0
C2093 C 0.66601 0.38501 0.10178 0.0
H2094 H 0.70534 0.41503 0.08288 0.0
H2095 H 0.50141 0.3173 0.11724 0.0
loop_
_geom_bond_atom_site_label_1
_geom_bond_atom_site_label_2
_geom_bond_distance
_geom_bond_site_symmetry_2
_ccdc_geom_bond_type
H0 C19 0.949 1_455 S
H1 C20 0.950 . S
H2 C22 0.950 . S
H3 C23 0.950 . S
H4 C25 0.950 . S
H5 C28 0.950 . S
H6 C29 0.950 . S
H7 C31 0.951 . S
H8 C32 0.949 . S
H9 C34 0.949 . S
H10 C35 0.950 . S
H11 C37 0.950 . S
H12 C38 0.950 1_545 S
H13 C40 0.950 . S
H14 C43 0.950 . S
H15 C44 0.950 . S
H16 C46 0.951 . S
H17 C47 0.949 . S
C18 C19 1.376 . S
C18 C23 1.386 . S
C18 C24 1.509 . S
C19 H0 0.949 1_655 S
C19 C18 1.376 . S
C19 C20 1.397 . S
C20 H1 0.950 . S
C20 C19 1.397 . S
C20 C21 1.391 . S
C21 C20 1.391 . S
C21 C22 1.405 . S
C22 H2 0.950 . S
C22 C21 1.405 . S
C22 C23 1.367 . S
C23 H3 0.950 . S
C23 C18 1.386 . S
C23 C22 1.367 . S
C24 C18 1.509 . S
C24 C25 1.353 1_655 S
C24 C26 1.406 . S
C25 H4 0.950 . S
C25 C24 1.353 1_455 S
C25 C41 1.411 . S
C26 C24 1.406 . S
C26 C27 1.489 . S
C26 C40 1.411 1_655 S
C27 C26 1.489 . S
C27 C28 1.383 . S
C27 C32 1.382 . S
C28 H5 0.950 . S
C28 C27 1.383 . S
C28 C29 1.395 . S
C29 H6 0.950 . S
C29 C28 1.395 . S
C29 C30 1.288 . S
C30 C29 1.288 . S
C30 C31 1.392 . S
C31 H7 0.951 . S
C31 C30 1.392 . S
C31 C32 1.392 . S
C32 H8 0.949 . S
C32 C27 1.382 . S
C32 C31 1.392 . S
C33 C34 1.376 . S
C33 C38 1.386 . S
C33 C39 1.483 . S
C34 H9 0.949 . S
C34 C33 1.376 . S
C34 C35 1.397 . S
C35 H10 0.950 . S
C35 C34 1.397 . S
C35 C36 1.391 . S
C36 C35 1.391 . S
C36 C37 1.405 . S
C37 H11 0.950 . S
C37 C36 1.405 . S
C37 C38 1.367 . S
C38 H12 0.950 1_565 S
C38 C33 1.386 . S
C38 C37 1.367 . S
C39 C33 1.483 . S
C39 C40 1.382 1_565 S
C39 C41 1.403 1_565 S
C40 H13 0.950 . S
C40 C26 1.411 1_455 S
C40 C39 1.382 1_545 S
C41 C25 1.411 . S
C41 C39 1.403 1_545 S
C41 C42 1.489 1_545 S
C42 C41 1.489 1_565 S
C42 C43 1.383 . S
C42 C47 1.382 1_565 S
C43 H14 0.950 . S
C43 C42 1.383 . S
C43 C44 1.395 . S
C44 H15 0.950 . S
C44 C43 1.395 . S
C44 C45 1.288 . S
C45 C44 1.288 . S
C45 C46 1.392 . S
C46 H16 0.951 . S
C46 C45 1.392 . S
C46 C47 1.392 1_565 S
C47 H17 0.949 . S
C47 C42 1.382 1_545 S
C47 C46 1.392 1_545 S
H48 C67 0.949 1_455 S
H49 C68 0.950 . S
H50 C70 0.950 . S
H51 C71 0.950 . S
H52 C73 0.950 . S
H53 C76 0.950 . S
H54 C77 0.950 . S
H55 C79 0.951 . S
H56 C80 0.949 . S
H57 C82 0.949 . S
H58 C83 0.950 . S
H59 C85 0.950 . S
H60 C86 0.950 . S
H61 C88 0.950 . S
H62 C91 0.950 . S
H63 C92 0.950 . S
H64 C94 0.951 . S
H65 C95 0.949 . S
C66 C67 1.376 . S
C66 C71 1.386 . S
C66 C72 1.483 . S
C67 H48 0.949 1_655 S
C67 C66 1.376 . S
C67 C68 1.397 . S
C68 H49 0.950 . S
C68 C67 1.397 . S
C68 C69 1.391 . S
C69 C68 1.391 . S
C69 C70 1.405 . S
C70 H50 0.950 . S
C70 C69 1.405 . S
C70 C71 1.367 . S
C71 H51 0.950 . S
C71 C66 1.386 . S
C71 C70 1.367 . S
C72 C66 1.483 . S
C72 C73 1.382 1_655 S
C72 C74 1.403 . S
C73 H52 0.950 . S
C73 C72 1.382 1_455 S
C73 C89 1.411 . S
C74 C72 1.403 . S
C74 C75 1.489 . S
C74 C88 1.411 1_655 S
C75 C74 1.489 . S
C75 C76 1.383 . S
C75 C80 1.382 . S
C76 H53 0.950 . S
C76 C75 1.383 . S
C76 C77 1.395 . S
C77 H54 0.950 . S
C77 C76 1.395 . S
C77 C78 1.288 . S
C78 C77 1.288 . S
C78 C79 1.392 . S
C79 H55 0.951 . S
C79 C78 1.392 . S
C79 C80 1.392 . S
C80 H56 0.949 . S
C80 C75 1.382 . S
C80 C79 1.392 . S
C81 C82 1.376 . S
C81 C86 1.386 . S
C81 C87 1.483 . S
C82 H57 0.949 . S
C82 C81 1.376 . S
C82 C83 1.397 . S
C83 H58 0.950 . S
C83 C82 1.397 . S
C83 C84 1.391 . S
C84 C83 1.391 . S
C84 C85 1.405 . S
C85 H59 0.950 . S
C85 C84 1.405 . S
C85 C86 1.367 . S
C86 H60 0.950 . S
C86 C81 1.386 . S
C86 C85 1.367 . S
C87 C81 1.483 . S
C87 C88 1.382 . S
C87 C89 1.403 . S
C88 H61 0.950 . S
C88 C74 1.411 1_455 S
C88 C87 1.382 . S
C89 C73 1.411 . S
C89 C87 1.403 . S
C89 C90 1.489 . S
C90 C89 1.489 . S
C90 C91 1.383 . S
C90 C95 1.382 . S
C91 H62 0.950 . S
C91 C90 1.383 . S
C91 C92 1.395 . S
C92 H63 0.950 . S
C92 C91 1.395 . S
C92 C93 1.288 . S
C93 C92 1.288 . S
C93 C94 1.392 . S
C94 H64 0.951 . S
C94 C93 1.392 . S
C94 C95 1.392 . S
C95 H65 0.949 . S
C95 C90 1.382 . S
C95 C94 1.392 . S
H96 C115 0.949 . S
H97 C116 0.950 . S
H98 C118 0.950 . S
H99 C119 0.950 . S
H100 C121 0.950 . S
H101 C124 0.950 . S
H102 C125 0.950 . S
H103 C127 0.951 . S
H104 C128 0.949 . S
H105 C130 0.949 . S
H106 C131 0.950 . S
H107 C133 0.950 . S
H108 C134 0.950 . S
H109 C136 0.950 . S
H110 C139 0.950 . S
H111 C140 0.950 . S
H112 C142 0.951 . S
H113 C143 0.949 . S
C114 C115 1.376 . S
C114 C119 1.386 . S
C114 C120 1.483 . S
C115 H96 0.949 . S
C115 C114 1.376 . S
C115 C116 1.397 . S
C116 H97 0.950 . S
C116 C115 1.397 . S
C116 C117 1.391 . S
C117 C116 1.391 . S
C117 C118 1.405 . S
C118 H98 0.950 . S
C118 C117 1.405 . S
C118 C119 1.367 . S
C119 H99 0.950 . S
C119 C114 1.386 . S
C119 C118 1.367 . S
C120 C114 1.483 . S
C120 C121 1.382 . S
C120 C122 1.403 . S
C121 H100 0.950 . S
C121 C120 1.382 . S
C121 C137 1.411 . S
C122 C120 1.403 . S
C122 C123 1.489 . S
C122 C136 1.411 . S
C123 C122 1.489 . S
C123 C124 1.383 . S
C123 C128 1.382 . S
C124 H101 0.950 . S
C124 C123 1.383 . S
C124 C125 1.395 . S
C125 H102 0.950 . S
C125 C124 1.395 . S
C125 C126 1.288 . S
C126 C125 1.288 . S
C126 C127 1.392 . S
C127 H103 0.951 . S
C127 C126 1.392 . S
C127 C128 1.392 . S
C128 H104 0.949 . S
C128 C123 1.382 . S
C128 C127 1.392 . S
C129 C130 1.376 . S
C129 C134 1.386 . S
C129 C135 1.483 . S
C130 H105 0.949 . S
C130 C129 1.376 . S
C130 C131 1.397 . S
C131 H106 0.950 . S
C131 C130 1.397 . S
C131 C132 1.391 . S
C132 C131 1.391 . S
C132 C133 1.405 . S
C133 H107 0.950 . S
C133 C132 1.405 . S
C133 C134 1.367 . S
C134 H108 0.950 . S
C134 C129 1.386 . S
C134 C133 1.367 . S
C135 C129 1.483 . S
C135 C136 1.382 . S
C135 C137 1.403 . S
C136 H109 0.950 . S
C136 C122 1.411 . S
C136 C135 1.382 . S
C137 C121 1.411 . S
C137 C135 1.403 . S
C137 C138 1.489 . S
C138 C137 1.489 . S
C138 C139 1.383 . S
C138 C143 1.382 . S
C139 H110 0.950 . S
C139 C138 1.383 . S
C139 C140 1.395 . S
C140 H111 0.950 . S
C140 C139 1.395 . S
C140 C141 1.288 . S
C141 C140 1.288 . S
C141 C142 1.392 . S
C142 H112 0.951 . S
C142 C141 1.392 . S
C142 C143 1.392 . S
C143 H113 0.949 . S
C143 C138 1.382 . S
C143 C142 1.392 . S
H144 C163 0.949 . S
H145 C164 0.950 . S
H146 C166 0.950 . S
H147 C167 0.950 . S
H148 C169 0.950 . S
H149 C172 0.950 . S
H150 C173 0.950 . S
H151 C175 0.951 . S
H152 C176 0.949 . S
H153 C178 0.949 . S
H154 C179 0.950 . S
H155 C181 0.950 . S
H156 C182 0.950 . S
H157 C184 0.950 . S
H158 C187 0.950 . S
H159 C188 0.950 . S
H160 C190 0.951 . S
H161 C191 0.949 . S
C162 C163 1.376 . S
C162 C167 1.386 . S
C162 C168 1.483 . S
C163 H144 0.949 . S
C163 C162 1.376 . S
C163 C164 1.397 . S
C164 H145 0.950 . S
C164 C163 1.397 . S
C164 C165 1.391 . S
C165 C164 1.391 . S
C165 C166 1.405 . S
C166 H146 0.950 . S
C166 C165 1.405 . S
C166 C167 1.367 . S
C167 H147 0.950 . S
C167 C162 1.386 . S
C167 C166 1.367 . S
C168 C162 1.483 . S
C168 C169 1.382 . S
C168 C170 1.403 . S
C169 H148 0.950 . S
C169 C168 1.382 . S
C169 C185 1.411 1_565 S
C170 C168 1.403 . S
C170 C171 1.489 . S
C170 C184 1.411 1_565 S
C171 C170 1.489 . S
C171 C172 1.383 . S
C171 C176 1.382 . S
C172 H149 0.950 . S
C172 C171 1.383 . S
C172 C173 1.395 . S
C173 H150 0.950 . S
C173 C172 1.395 . S
C173 C174 1.288 . S
C174 C173 1.288 . S
C174 C175 1.392 . S
C175 H151 0.951 . S
C175 C174 1.392 . S
C175 C176 1.392 . S
C176 H152 0.949 . S
C176 C171 1.382 . S
C176 C175 1.392 . S
C177 C178 1.376 . S
C177 C182 1.386 . S
C177 C183 1.483 . S
C178 H153 0.949 . S
C178 C177 1.376 . S
C178 C179 1.397 . S
C179 H154 0.950 . S
C179 C178 1.397 . S
C179 C180 1.391 . S
C180 C179 1.391 . S
C180 C181 1.405 . S
C181 H155 0.950 . S
C181 C180 1.405 . S
C181 C182 1.367 . S
C182 H156 0.950 . S
C182 C177 1.386 . S
C182 C181 1.367 . S
C183 C177 1.483 . S
C183 C184 1.382 . S
C183 C185 1.403 . S
C184 H157 0.950 . S
C184 C170 1.411 1_545 S
C184 C183 1.382 . S
C185 C169 1.411 1_545 S
C185 C183 1.403 . S
C185 C186 1.489 . S
C186 C185 1.489 . S
C186 C187 1.383 . S
C186 C191 1.382 . S
C187 H158 0.950 . S
C187 C186 1.383 . S
C187 C188 1.395 . S
C188 H159 0.950 . S
C188 C187 1.395 . S
C188 C189 1.288 . S
C189 C188 1.288 . S
C189 C190 1.392 . S
C190 H160 0.951 . S
C190 C189 1.392 . S
C190 C191 1.392 . S
C191 H161 0.949 . S
C191 C186 1.382 . S
C191 C190 1.392 . S
H192 C211 0.949 . S
H193 C212 0.950 . S
H194 C214 0.950 . S
H195 C215 0.950 . S
H196 C217 0.950 . S
H197 C220 0.950 . S
H198 C221 0.950 . S
H199 C223 0.951 . S
H200 C224 0.949 . S
H201 C226 0.949 . S
H202 C227 0.950 . S
H203 C229 0.950 . S
H204 C230 0.950 . S
H205 C232 0.950 . S
H206 C235 0.950 . S
H207 C236 0.950 . S
H208 C238 0.951 . S
H209 C239 0.949 . S
C210 C211 1.376 . S
C210 C215 1.386 . S
C210 C216 1.483 . S
C211 H192 0.949 . S
C211 C210 1.376 . S
C211 C212 1.397 . S
C212 H193 0.950 . S
C212 C211 1.397 . S
C212 C213 1.391 . S
C213 C212 1.391 . S
C213 C214 1.405 . S
C214 H194 0.950 . S
C214 C213 1.405 . S
C214 C215 1.367 . S
C215 H195 0.950 . S
C215 C210 1.386 . S
C215 C214 1.367 . S
C216 C210 1.483 . S
C216 C217 1.382 1_455 S
C216 C218 1.403 . S
C217 H196 0.950 . S
C217 C216 1.382 1_655 S
C217 C233 1.411 . S
C218 C216 1.403 . S
C218 C219 1.489 . S
C218 C232 1.411 . S
C219 C218 1.489 . S
C219 C220 1.383 . S
C219 C224 1.382 . S
C220 H197 0.950 . S
C220 C219 1.383 . S
C220 C221 1.395 . S
C221 H198 0.950 . S
C221 C220 1.395 . S
C221 C222 1.288 . S
C222 C221 1.288 . S
C222 C223 1.392 . S
C223 H199 0.951 . S
C223 C222 1.392 . S
C223 C224 1.392 . S
C224 H200 0.949 . S
C224 C219 1.382 . S
C224 C223 1.392 . S
C225 C226 1.376 . S
C225 C230 1.386 . S
C225 C231 1.483 . S
C226 H201 0.949 . S
C226 C225 1.376 . S
C226 C227 1.397 . S
C227 H202 0.950 . S
C227 C226 1.397 . S
C227 C228 1.391 . S
C228 C227 1.391 . S
C228 C229 1.405 . S
C229 H203 0.950 . S
C229 C228 1.405 . S
C229 C230 1.367 . S
C230 H204 0.950 . S
C230 C225 1.386 . S
C230 C229 1.367 . S
C231 C225 1.483 . S
C231 C232 1.382 1_655 S
C231 C233 1.403 . S
C232 H205 0.950 . S
C232 C218 1.411 . S
C232 C231 1.382 1_455 S
C233 C217 1.411 . S
C233 C231 1.403 . S
C233 C234 1.489 . S
C234 C233 1.489 . S
C234 C235 1.383 . S
C234 C239 1.382 . S
C235 H206 0.950 . S
C235 C234 1.383 . S
C235 C236 1.395 . S
C236 H207 0.950 . S
C236 C235 1.395 . S
C236 C237 1.288 . S
C237 C236 1.288 . S
C237 C238 1.392 . S
C238 H208 0.951 . S
C238 C237 1.392 . S
C238 C239 1.392 . S
C239 H209 0.949 . S
C239 C234 1.382 . S
C239 C238 1.392 . S
H240 C259 0.949 . S
H241 C260 0.950 . S
H242 C262 0.950 . S
H243 C263 0.950 . S
H244 C265 0.950 . S
H245 C268 0.950 . S
H246 C269 0.950 . S
H247 C271 0.951 . S
H248 C272 0.949 . S
H249 C274 0.949 . S
H250 C275 0.950 . S
H251 C277 0.950 . S
H252 C278 0.950 . S
H253 C280 0.950 . S
H254 C283 0.950 . S
H255 C284 0.950 . S
H256 C286 0.951 . S
H257 C287 0.949 . S
C258 C259 1.376 . S
C258 C263 1.386 . S
C258 C264 1.483 . S
C259 H240 0.949 . S
C259 C258 1.376 . S
C259 C260 1.397 . S
C260 H241 0.950 . S
C260 C259 1.397 . S
C260 C261 1.391 . S
C261 C260 1.391 . S
C261 C262 1.405 . S
C262 H242 0.950 . S
C262 C261 1.405 . S
C262 C263 1.367 . S
C263 H243 0.950 . S
C263 C258 1.386 . S
C263 C262 1.367 . S
C264 C258 1.483 . S
C264 C265 1.382 . S
C264 C266 1.403 . S
C265 H244 0.950 . S
C265 C264 1.382 . S
C265 C281 1.411 . S
C266 C264 1.403 . S
C266 C267 1.489 . S
C266 C280 1.411 . S
C267 C266 1.489 . S
C267 C268 1.383 . S
C267 C272 1.382 . S
C268 H245 0.950 . S
C268 C267 1.383 . S
C268 C269 1.395 . S
C269 H246 0.950 . S
C269 C268 1.395 . S
C269 C270 1.288 . S
C270 C269 1.288 . S
C270 C271 1.392 . S
C271 H247 0.951 . S
C271 C270 1.392 . S
C271 C272 1.392 . S
C272 H248 0.949 . S
C272 C267 1.382 . S
C272 C271 1.392 . S
C273 C274 1.376 . S
C273 C278 1.386 . S
C273 C279 1.483 . S
C274 H249 0.949 . S
C274 C273 1.376 . S
C274 C275 1.397 . S
C275 H250 0.950 . S
C275 C274 1.397 . S
C275 C276 1.391 . S
C276 C275 1.391 . S
C276 C277 1.405 . S
C277 H251 0.950 . S
C277 C276 1.405 . S
C277 C278 1.367 . S
C278 H252 0.950 . S
C278 C273 1.386 . S
C278 C277 1.367 . S
C279 C273 1.483 . S
C279 C280 1.382 . S
C279 C281 1.403 . S
C280 H253 0.950 . S
C280 C266 1.411 . S
C280 C279 1.382 . S
C281 C265 1.411 . S
C281 C279 1.403 . S
C281 C282 1.489 . S
C282 C281 1.489 . S
C282 C283 1.383 . S
C282 C287 1.382 . S
C283 H254 0.950 . S
C283 C282 1.383 . S
C283 C284 1.395 . S
C284 H255 0.950 . S
C284 C283 1.395 . S
C284 C285 1.288 . S
C285 C284 1.288 . S
C285 C286 1.392 . S
C286 H256 0.951 . S
C286 C285 1.392 . S
C286 C287 1.392 . S
C287 H257 0.949 . S
C287 C282 1.382 . S
C287 C286 1.392 . S
H288 C307 0.949 . S
H289 C308 0.950 . S
H290 C310 0.950 . S
H291 C311 0.950 . S
H292 C313 0.950 . S
H293 C316 0.950 . S
H294 C317 0.950 . S
H295 C319 0.951 . S
H296 C320 0.949 1_545 S
H297 C322 0.949 . S
H298 C323 0.950 . S
H299 C325 0.950 . S
H300 C326 0.950 . S
H301 C328 0.950 . S
H302 C331 0.950 . S
H303 C332 0.950 . S
H304 C334 0.951 . S
H305 C335 0.949 . S
C306 C307 1.376 . S
C306 C311 1.386 . S
C306 C312 1.483 . S
C307 H288 0.949 . S
C307 C306 1.376 . S
C307 C308 1.397 . S
C308 H289 0.950 . S
C308 C307 1.397 . S
C308 C309 1.391 . S
C309 C308 1.391 . S
C309 C310 1.405 . S
C310 H290 0.950 . S
C310 C309 1.405 . S
C310 C311 1.367 . S
C311 H291 0.950 . S
C311 C306 1.386 . S
C311 C310 1.367 . S
C312 C306 1.483 . S
C312 C313 1.382 1_565 S
C312 C314 1.403 . S
C313 H292 0.950 . S
C313 C312 1.382 1_545 S
C313 C329 1.411 . S
C314 C312 1.403 . S
C314 C315 1.489 . S
C314 C328 1.411 1_565 S
C315 C314 1.489 . S
C315 C316 1.383 . S
C315 C320 1.382 . S
C316 H293 0.950 . S
C316 C315 1.383 . S
C316 C317 1.395 . S
C317 H294 0.950 . S
C317 C316 1.395 . S
C317 C318 1.288 . S
C318 C317 1.288 . S
C318 C319 1.392 . S
C319 H295 0.951 . S
C319 C318 1.392 . S
C319 C320 1.392 . S
C320 H296 0.949 1_565 S
C320 C315 1.382 . S
C320 C319 1.392 . S
C321 C322 1.376 . S
C321 C326 1.386 . S
C321 C327 1.483 . S
C322 H297 0.949 . S
C322 C321 1.376 . S
C322 C323 1.397 . S
C323 H298 0.950 . S
C323 C322 1.397 . S
C323 C324 1.391 . S
C324 C323 1.391 . S
C324 C325 1.405 . S
C325 H299 0.950 . S
C325 C324 1.405 . S
C325 C326 1.367 . S
C326 H300 0.950 . S
C326 C321 1.386 . S
C326 C325 1.367 . S
C327 C321 1.483 . S
C327 C328 1.382 . S
C327 C329 1.403 . S
C328 H301 0.950 . S
C328 C314 1.411 1_545 S
C328 C327 1.382 . S
C329 C313 1.411 . S
C329 C327 1.403 . S
C329 C330 1.489 . S
C330 C329 1.489 . S
C330 C331 1.383 . S
C330 C335 1.382 . S
C331 H302 0.950 . S
C331 C330 1.383 . S
C331 C332 1.395 . S
C332 H303 0.950 . S
C332 C331 1.395 . S
C332 C333 1.288 . S
C333 C332 1.288 . S
C333 C334 1.392 . S
C334 H304 0.951 . S
C334 C333 1.392 . S
C334 C335 1.392 . S
C335 H305 0.949 . S
C335 C330 1.382 . S
C335 C334 1.392 . S
H336 C355 0.949 . S
H337 C356 0.950 1_455 S
H338 C358 0.950 . S
H339 C359 0.950 . S
H340 C361 0.950 . S
H341 C364 0.950 1_455 S
H342 C365 0.950 . S
H343 C367 0.951 . S
H344 C368 0.949 . S
H345 C370 0.949 . S
H346 C371 0.950 . S
H347 C373 0.950 . S
H348 C374 0.950 1_545 S
H349 C376 0.950 . S
H350 C379 0.950 . S
H351 C380 0.950 . S
H352 C382 0.951 . S
H353 C383 0.949 . S
C354 C355 1.376 1_655 S
C354 C359 1.386 . S
C354 C360 1.483 1_655 S
C355 H336 0.949 . S
C355 C354 1.376 1_455 S
C355 C356 1.397 1_455 S
C356 H337 0.950 1_655 S
C356 C355 1.397 1_655 S
C356 C357 1.391 . S
C357 C356 1.391 . S
C357 C358 1.405 . S
C358 H338 0.950 . S
C358 C357 1.405 . S
C358 C359 1.367 . S
C359 H339 0.950 . S
C359 C354 1.386 . S
C359 C358 1.367 . S
C360 C354 1.483 1_455 S
C360 C361 1.382 . S
C360 C362 1.403 . S
C361 H340 0.950 . S
C361 C360 1.382 . S
C361 C377 1.411 . S
C362 C360 1.403 . S
C362 C363 1.489 1_455 S
C362 C376 1.411 . S
C363 C362 1.489 1_655 S
C363 C364 1.383 . S
C363 C368 1.382 . S
C364 H341 0.950 1_655 S
C364 C363 1.383 . S
C364 C365 1.395 . S
C365 H342 0.950 . S
C365 C364 1.395 . S
C365 C366 1.288 . S
C366 C365 1.288 . S
C366 C367 1.392 . S
C367 H343 0.951 . S
C367 C366 1.392 . S
C367 C368 1.392 . S
C368 H344 0.949 . S
C368 C363 1.382 . S
C368 C367 1.392 . S
C369 C370 1.376 . S
C369 C374 1.386 . S
C369 C375 1.483 1_565 S
C370 H345 0.949 . S
C370 C369 1.376 . S
C370 C371 1.397 . S
C371 H346 0.950 . S
C371 C370 1.397 . S
C371 C372 1.391 . S
C372 C371 1.391 . S
C372 C373 1.405 . S
C373 H347 0.950 . S
C373 C372 1.405 . S
C373 C374 1.367 . S
C374 H348 0.950 1_565 S
C374 C369 1.386 . S
C374 C373 1.367 . S
C375 C369 1.483 1_545 S
C375 C376 1.382 . S
C375 C377 1.403 . S
C376 H349 0.950 . S
C376 C362 1.411 . S
C376 C375 1.382 . S
C377 C361 1.411 . S
C377 C375 1.403 . S
C377 C378 1.489 1_545 S
C378 C377 1.489 1_565 S
C378 C379 1.383 . S
C378 C383 1.382 1_565 S
C379 H350 0.950 . S
C379 C378 1.383 . S
C379 C380 1.395 . S
C380 H351 0.950 . S
C380 C379 1.395 . S
C380 C381 1.288 . S
C381 C380 1.288 . S
C381 C382 1.392 . S
C382 H352 0.951 . S
C382 C381 1.392 . S
C382 C383 1.392 1_565 S
C383 H353 0.949 . S
C383 C378 1.382 1_545 S
C383 C382 1.392 1_545 S
C384 O385 1.306 . S
C384 O387 1.160 . S
O385 C384 1.306 . S
O385 Cd386 2.228 . S
Cd386 O385 2.228 . S
Cd386 O390 2.273 1_554 S
Cd386 O394 2.277 . S
O387 C384 1.160 . S
O387 Cd388 2.203 . S
Cd388 O387 2.203 . S
Cd388 O390 2.411 1_554 S
Cd388 O391 2.333 1_554 S
Cd388 O392 2.352 . S
Cd388 O396 2.277 . S
Cd388 O397 2.364 . S
C389 O394 1.209 . S
C389 O396 1.226 . S
O390 Cd386 2.273 1_556 S
O390 Cd388 2.411 1_556 S
O390 C393 1.320 . S
O391 Cd388 2.333 1_556 S
O391 C393 1.214 . S
O392 Cd388 2.352 . S
O392 C395 1.271 . S
C393 O390 1.320 . S
C393 O391 1.214 . S
O394 Cd386 2.277 . S
O394 C389 1.209 . S
C395 O392 1.271 . S
C395 O397 1.281 . S
O396 Cd388 2.277 . S
O396 C389 1.226 . S
O397 Cd388 2.364 . S
O397 C395 1.281 . S
C398 O399 1.306 . S
C398 O401 1.160 . S
O399 C398 1.306 . S
O399 Cd400 2.228 . S
Cd400 O399 2.228 . S
Cd400 O404 2.273 . S
Cd400 O408 2.277 . S
O401 C398 1.160 . S
O401 Cd402 2.203 . S
Cd402 O401 2.203 . S
Cd402 O404 2.411 . S
Cd402 O405 2.333 . S
Cd402 O406 2.352 . S
Cd402 O410 2.277 . S
Cd402 O411 2.356 . S
C403 O408 1.209 . S
C403 O410 1.226 . S
O404 Cd400 2.273 . S
O404 Cd402 2.411 . S
O404 C407 1.320 . S
O405 Cd402 2.333 . S
O405 C407 1.214 . S
O406 Cd402 2.352 . S
O406 C409 1.258 . S
C407 O404 1.320 . S
C407 O405 1.214 . S
O408 Cd400 2.277 . S
O408 C403 1.209 . S
C409 O406 1.258 . S
C409 O411 1.282 . S
O410 Cd402 2.277 . S
O410 C403 1.226 . S
O411 Cd402 2.356 . S
O411 C409 1.282 . S
C412 O413 1.306 . S
C412 O415 1.160 . S
O413 C412 1.306 . S
O413 Cd414 2.228 . S
Cd414 O413 2.228 . S
Cd414 O418 2.273 . S
Cd414 O422 2.277 . S
O415 C412 1.160 . S
O415 Cd416 2.203 . S
Cd416 O415 2.203 . S
Cd416 O418 2.411 . S
Cd416 O419 2.333 . S
Cd416 O420 2.352 . S
Cd416 O424 2.277 . S
Cd416 O425 2.356 . S
C417 O422 1.209 . S
C417 O424 1.226 . S
O418 Cd414 2.273 . S
O418 Cd416 2.411 . S
O418 C421 1.320 . S
O419 Cd416 2.333 . S
O419 C421 1.214 . S
O420 Cd416 2.352 . S
O420 C423 1.258 . S
C421 O418 1.320 . S
C421 O419 1.214 . S
O422 Cd414 2.277 . S
O422 C417 1.209 . S
C423 O420 1.258 . S
C423 O425 1.282 . S
O424 Cd416 2.277 . S
O424 C417 1.226 . S
O425 Cd416 2.356 . S
O425 C423 1.282 . S
C426 O427 1.306 . S
C426 O429 1.160 . S
O427 C426 1.306 . S
O427 Cd428 2.228 . S
Cd428 O427 2.228 . S
Cd428 O432 2.273 . S
Cd428 O436 2.277 . S
O429 C426 1.160 . S
O429 Cd430 2.203 . S
Cd430 O429 2.203 . S
Cd430 O432 2.411 . S
Cd430 O433 2.333 . S
Cd430 O434 2.352 . S
Cd430 O438 2.277 . S
Cd430 O439 2.356 . S
C431 O436 1.209 . S
C431 O438 1.226 . S
O432 Cd428 2.273 . S
O432 Cd430 2.411 . S
O432 C435 1.320 . S
O433 Cd430 2.333 . S
O433 C435 1.214 . S
O434 Cd430 2.352 . S
O434 C437 1.258 . S
C435 O432 1.320 . S
C435 O433 1.214 . S
O436 Cd428 2.277 . S
O436 C431 1.209 . S
C437 O434 1.258 . S
C437 O439 1.282 . S
O438 Cd430 2.277 . S
O438 C431 1.226 . S
O439 Cd430 2.356 . S
O439 C437 1.282 . S
C440 O441 1.306 . S
C440 O443 1.160 . S
O441 C440 1.306 . S
O441 Cd442 2.228 . S
Cd442 O441 2.228 . S
Cd442 O446 2.273 . S
Cd442 O450 2.277 . S
O443 C440 1.160 . S
O443 Cd444 2.203 . S
Cd444 O443 2.203 . S
Cd444 O446 2.411 . S
Cd444 O447 2.333 . S
Cd444 O448 2.352 . S
Cd444 O452 2.277 . S
Cd444 O453 2.356 . S
C445 O450 1.209 . S
C445 O452 1.226 . S
O446 Cd442 2.273 . S
O446 Cd444 2.411 . S
O446 C449 1.320 . S
O447 Cd444 2.333 . S
O447 C449 1.214 . S
O448 Cd444 2.352 . S
O448 C451 1.258 . S
C449 O446 1.320 . S
C449 O447 1.214 . S
O450 Cd442 2.277 . S
O450 C445 1.209 . S
C451 O448 1.258 . S
C451 O453 1.282 . S
O452 Cd444 2.277 . S
O452 C445 1.226 . S
O453 Cd444 2.356 . S
O453 C451 1.282 . S
C454 O455 1.306 . S
C454 O457 1.160 . S
O455 C454 1.306 . S
O455 Cd456 2.228 . S
Cd456 O455 2.228 . S
Cd456 O460 2.273 . S
Cd456 O464 2.277 . S
O457 C454 1.160 . S
O457 Cd458 2.203 . S
Cd458 O457 2.203 . S
Cd458 O460 2.411 . S
Cd458 O461 2.333 . S
Cd458 O462 2.352 . S
Cd458 O466 2.277 . S
Cd458 O467 2.356 . S
C459 O464 1.209 . S
C459 O466 1.226 . S
O460 Cd456 2.273 . S
O460 Cd458 2.411 . S
O460 C463 1.320 . S
O461 Cd458 2.333 . S
O461 C463 1.214 . S
O462 Cd458 2.352 . S
O462 C465 1.258 . S
C463 O460 1.320 . S
C463 O461 1.214 . S
O464 Cd456 2.277 . S
O464 C459 1.209 . S
C465 O462 1.258 . S
C465 O467 1.282 . S
O466 Cd458 2.277 . S
O466 C459 1.226 . S
O467 Cd458 2.356 . S
O467 C465 1.282 . S
C468 O469 1.306 . S
C468 O471 1.160 . S
O469 C468 1.306 . S
O469 Cd470 2.260 . S
Cd470 O469 2.260 . S
Cd470 O474 2.247 1_556 S
Cd470 O478 2.281 . S
O471 C468 1.160 . S
O471 Cd472 2.203 1_556 S
Cd472 O471 2.203 1_554 S
Cd472 O474 2.411 . S
Cd472 O475 2.333 . S
Cd472 O476 2.352 . S
Cd472 O480 2.277 1_554 S
Cd472 O481 2.356 . S
C473 O478 1.209 . S
C473 O480 1.226 . S
O474 Cd470 2.247 1_554 S
O474 Cd472 2.411 . S
O474 C477 1.320 . S
O475 Cd472 2.333 . S
O475 C477 1.214 . S
O476 Cd472 2.352 . S
O476 C479 1.258 . S
C477 O474 1.320 . S
C477 O475 1.214 . S
O478 Cd470 2.281 . S
O478 C473 1.209 . S
C479 O476 1.258 . S
C479 O481 1.282 . S
O480 Cd472 2.277 1_556 S
O480 C473 1.226 . S
O481 Cd472 2.356 . S
O481 C479 1.282 . S
C482 O483 1.306 . S
C482 O485 1.160 . S
O483 C482 1.306 . S
O483 Cd484 2.228 . S
Cd484 O483 2.228 . S
Cd484 O488 2.273 . S
Cd484 O492 2.277 . S
O485 C482 1.160 . S
O485 Cd486 2.203 . S
Cd486 O485 2.203 . S
Cd486 O488 2.411 . S
Cd486 O489 2.333 . S
Cd486 O490 2.352 . S
Cd486 O494 2.277 . S
Cd486 O495 2.356 . S
C487 O492 1.209 . S
C487 O494 1.226 . S
O488 Cd484 2.273 . S
O488 Cd486 2.411 . S
O488 C491 1.320 . S
O489 Cd486 2.333 . S
O489 C491 1.214 . S
O490 Cd486 2.352 . S
O490 C493 1.258 . S
C491 O488 1.320 . S
C491 O489 1.214 . S
O492 Cd484 2.277 . S
O492 C487 1.209 . S
C493 O490 1.258 . S
C493 O495 1.282 . S
O494 Cd486 2.277 . S
O494 C487 1.226 . S
O495 Cd486 2.356 . S
O495 C493 1.282 . S
H496 C514 0.951 . S
H497 C516 0.951 . S
H498 C518 0.950 . S
H499 C519 0.950 . S
H500 C521 0.950 . S
H501 C524 0.950 . S
H502 C525 0.950 . S
H503 C527 0.950 . S
H504 C528 0.950 . S
H505 C529 0.951 . S
H506 C531 0.951 . S
H507 C533 0.950 . S
H508 C534 0.950 . S
H509 C536 0.950 . S
H510 C539 0.950 . S
H511 C540 0.950 . S
H512 C542 0.950 . S
H513 C543 0.950 . S
C514 H496 0.951 . S
C514 C515 1.366 . S
C514 C516 1.388 . S
C515 C514 1.366 . S
C515 C519 1.385 . S
C516 H497 0.951 . S
C516 C514 1.388 . S
C516 C517 1.366 . S
C517 C516 1.366 . S
C517 C518 1.414 . S
C517 C520 1.499 . S
C518 H498 0.950 . S
C518 C517 1.414 . S
C518 C519 1.374 . S
C519 H499 0.950 . S
C519 C515 1.385 . S
C519 C518 1.374 . S
C520 C517 1.499 . S
C520 C521 1.373 . S
C520 C522 1.389 . S
C521 H500 0.950 . S
C521 C520 1.373 . S
C521 C537 1.377 . S
C522 C520 1.389 . S
C522 C523 1.524 . S
C522 C536 1.377 . S
C523 C522 1.524 . S
C523 C524 1.397 . S
C523 C528 1.363 . S
C524 H501 0.950 . S
C524 C523 1.397 . S
C524 C525 1.334 . S
C525 H502 0.950 . S
C525 C524 1.334 . S
C525 C526 1.287 . S
C526 C525 1.287 . S
C526 C527 1.524 . S
C526 H545 0.913 . S
C527 H503 0.950 . S
C527 C526 1.524 . S
C527 C528 1.415 . S
C528 H504 0.950 . S
C528 C523 1.363 . S
C528 C527 1.415 . S
C529 H505 0.951 . S
C529 C530 1.366 . S
C529 C531 1.388 . S
C530 C529 1.366 . S
C530 C534 1.385 . S
C531 H506 0.951 . S
C531 C529 1.388 . S
C531 C532 1.366 . S
C532 C531 1.366 . S
C532 C533 1.414 . S
C532 C535 1.499 . S
C533 H507 0.950 . S
C533 C532 1.414 . S
C533 C534 1.374 . S
C534 H508 0.950 . S
C534 C530 1.385 . S
C534 C533 1.374 . S
C535 C532 1.499 . S
C535 C536 1.373 . S
C535 C537 1.389 . S
C536 H509 0.950 . S
C536 C522 1.377 . S
C536 C535 1.373 . S
C537 C521 1.377 . S
C537 C535 1.389 . S
C537 C538 1.524 . S
C538 C537 1.524 . S
C538 C539 1.397 . S
C538 C543 1.363 . S
C539 H510 0.950 . S
C539 C538 1.397 . S
C539 C540 1.334 . S
C540 H511 0.950 . S
C540 C539 1.334 . S
C540 C541 1.287 . S
C541 C540 1.287 . S
C541 C542 1.524 . S
C541 H544 0.999 . S
C542 H512 0.950 . S
C542 C541 1.524 . S
C542 C543 1.415 . S
C543 H513 0.950 . S
C543 C538 1.363 . S
C543 C542 1.415 . S
H544 C541 0.999 . S
H545 C526 0.913 . S
H546 C564 0.951 . S
H547 C566 0.951 . S
H548 C568 0.950 . S
H549 C569 0.950 . S
H550 C571 0.950 . S
H551 C574 0.950 . S
H552 C575 0.950 . S
H553 C577 0.950 . S
H554 C578 0.950 . S
H555 C579 0.951 . S
H556 C581 0.951 . S
H557 C583 0.950 . S
H558 C584 0.950 . S
H559 C586 0.950 . S
H560 C589 0.950 . S
H561 C590 0.950 . S
H562 C592 0.950 . S
H563 C593 0.950 . S
C564 H546 0.951 . S
C564 C565 1.366 . S
C564 C566 1.388 . S
C565 C564 1.366 . S
C565 C569 1.385 . S
C566 H547 0.951 . S
C566 C564 1.388 . S
C566 C567 1.366 . S
C567 C566 1.366 . S
C567 C568 1.414 . S
C567 C570 1.499 . S
C568 H548 0.950 . S
C568 C567 1.414 . S
C568 C569 1.374 . S
C569 H549 0.950 . S
C569 C565 1.385 . S
C569 C568 1.374 . S
C570 C567 1.499 . S
C570 C571 1.373 . S
C570 C572 1.389 . S
C571 H550 0.950 . S
C571 C570 1.373 . S
C571 C587 1.377 . S
C572 C570 1.389 . S
C572 C573 1.524 . S
C572 C586 1.377 . S
C573 C572 1.524 . S
C573 C574 1.397 . S
C573 C578 1.363 . S
C574 H551 0.950 . S
C574 C573 1.397 . S
C574 C575 1.334 . S
C575 H552 0.950 . S
C575 C574 1.334 . S
C575 C576 1.287 . S
C576 C575 1.287 . S
C576 C577 1.524 . S
C576 H595 0.913 . S
C577 H553 0.950 . S
C577 C576 1.524 . S
C577 C578 1.415 . S
C578 H554 0.950 . S
C578 C573 1.363 . S
C578 C577 1.415 . S
C579 H555 0.951 . S
C579 C580 1.366 . S
C579 C581 1.388 . S
C580 C579 1.366 . S
C580 C584 1.385 . S
C581 H556 0.951 . S
C581 C579 1.388 . S
C581 C582 1.366 . S
C582 C581 1.366 . S
C582 C583 1.414 . S
C582 C585 1.499 . S
C583 H557 0.950 . S
C583 C582 1.414 . S
C583 C584 1.374 . S
C584 H558 0.950 . S
C584 C580 1.385 . S
C584 C583 1.374 . S
C585 C582 1.499 . S
C585 C586 1.373 . S
C585 C587 1.389 . S
C586 H559 0.950 . S
C586 C572 1.377 . S
C586 C585 1.373 . S
C587 C571 1.377 . S
C587 C585 1.389 . S
C587 C588 1.524 . S
C588 C587 1.524 . S
C588 C589 1.397 . S
C588 C593 1.363 . S
C589 H560 0.950 . S
C589 C588 1.397 . S
C589 C590 1.334 . S
C590 H561 0.950 . S
C590 C589 1.334 . S
C590 C591 1.287 . S
C591 C590 1.287 . S
C591 C592 1.524 . S
C591 H594 0.999 . S
C592 H562 0.950 . S
C592 C591 1.524 . S
C592 C593 1.415 . S
C593 H563 0.950 . S
C593 C588 1.363 . S
C593 C592 1.415 . S
H594 C591 0.999 . S
H595 C576 0.913 . S
H596 C614 0.951 . S
H597 C616 0.951 . S
H598 C618 0.950 . S
H599 C619 0.950 . S
H600 C621 0.950 . S
H601 C624 0.950 . S
H602 C625 0.950 . S
H603 C627 0.950 . S
H604 C628 0.950 . S
H605 C629 0.951 . S
H606 C631 0.951 . S
H607 C633 0.950 . S
H608 C634 0.950 . S
H609 C636 0.950 . S
H610 C639 0.950 . S
H611 C640 0.950 . S
H612 C642 0.950 . S
H613 C643 0.950 . S
C614 H596 0.951 . S
C614 C615 1.366 . S
C614 C616 1.388 . S
C615 C614 1.366 . S
C615 C619 1.385 . S
C616 H597 0.951 . S
C616 C614 1.388 . S
C616 C617 1.366 . S
C617 C616 1.366 . S
C617 C618 1.414 . S
C617 C620 1.499 . S
C618 H598 0.950 . S
C618 C617 1.414 . S
C618 C619 1.374 . S
C619 H599 0.950 . S
C619 C615 1.385 . S
C619 C618 1.374 . S
C620 C617 1.499 . S
C620 C621 1.373 . S
C620 C622 1.389 . S
C621 H600 0.950 . S
C621 C620 1.373 . S
C621 C637 1.377 . S
C622 C620 1.389 . S
C622 C623 1.524 . S
C622 C636 1.377 . S
C623 C622 1.524 . S
C623 C624 1.397 . S
C623 C628 1.363 . S
C624 H601 0.950 . S
C624 C623 1.397 . S
C624 C625 1.334 . S
C625 H602 0.950 . S
C625 C624 1.334 . S
C625 C626 1.287 . S
C626 C625 1.287 . S
C626 C627 1.524 . S
C626 H645 0.913 . S
C627 H603 0.950 . S
C627 C626 1.524 . S
C627 C628 1.415 . S
C628 H604 0.950 . S
C628 C623 1.363 . S
C628 C627 1.415 . S
C629 H605 0.951 . S
C629 C630 1.366 . S
C629 C631 1.388 . S
C630 C629 1.366 . S
C630 C634 1.385 . S
C631 H606 0.951 . S
C631 C629 1.388 . S
C631 C632 1.366 . S
C632 C631 1.366 . S
C632 C633 1.414 . S
C632 C635 1.499 . S
C633 H607 0.950 . S
C633 C632 1.414 . S
C633 C634 1.374 . S
C634 H608 0.950 . S
C634 C630 1.385 . S
C634 C633 1.374 . S
C635 C632 1.499 . S
C635 C636 1.373 . S
C635 C637 1.389 . S
C636 H609 0.950 . S
C636 C622 1.377 . S
C636 C635 1.373 . S
C637 C621 1.377 . S
C637 C635 1.389 . S
C637 C638 1.524 . S
C638 C637 1.524 . S
C638 C639 1.397 . S
C638 C643 1.363 . S
C639 H610 0.950 . S
C639 C638 1.397 . S
C639 C640 1.334 . S
C640 H611 0.950 . S
C640 C639 1.334 . S
C640 C641 1.287 . S
C641 C640 1.287 . S
C641 C642 1.524 . S
C641 H644 0.999 . S
C642 H612 0.950 . S
C642 C641 1.524 . S
C642 C643 1.415 . S
C643 H613 0.950 . S
C643 C638 1.363 . S
C643 C642 1.415 . S
H644 C641 0.999 . S
H645 C626 0.913 . S
H646 C664 0.951 . S
H647 C666 0.951 . S
H648 C668 0.950 . S
H649 C669 0.950 . S
H650 C671 0.950 . S
H651 C674 0.950 . S
H652 C675 0.950 . S
H653 C677 0.950 . S
H654 C678 0.950 . S
H655 C679 0.951 . S
H656 C681 0.951 . S
H657 C683 0.950 . S
H658 C684 0.950 . S
H659 C686 0.950 . S
H660 C689 0.950 . S
H661 C690 0.950 . S
H662 C692 0.950 . S
H663 C693 0.950 . S
C664 H646 0.951 . S
C664 C665 1.366 . S
C664 C666 1.388 . S
C665 C664 1.366 . S
C665 C669 1.385 . S
C666 H647 0.951 . S
C666 C664 1.388 . S
C666 C667 1.366 . S
C667 C666 1.366 . S
C667 C668 1.414 . S
C667 C670 1.499 . S
C668 H648 0.950 . S
C668 C667 1.414 . S
C668 C669 1.374 . S
C669 H649 0.950 . S
C669 C665 1.385 . S
C669 C668 1.374 . S
C670 C667 1.499 . S
C670 C671 1.373 . S
C670 C672 1.389 . S
C671 H650 0.950 . S
C671 C670 1.373 . S
C671 C687 1.377 . S
C672 C670 1.389 . S
C672 C673 1.524 . S
C672 C686 1.377 . S
C673 C672 1.524 . S
C673 C674 1.397 . S
C673 C678 1.363 . S
C674 H651 0.950 . S
C674 C673 1.397 . S
C674 C675 1.334 . S
C675 H652 0.950 . S
C675 C674 1.334 . S
C675 C676 1.287 . S
C676 C675 1.287 . S
C676 C677 1.524 . S
C676 H695 0.913 . S
C677 H653 0.950 . S
C677 C676 1.524 . S
C677 C678 1.415 . S
C678 H654 0.950 . S
C678 C673 1.363 . S
C678 C677 1.415 . S
C679 H655 0.951 . S
C679 C680 1.366 . S
C679 C681 1.388 . S
C680 C679 1.366 . S
C680 C684 1.385 . S
C681 H656 0.951 . S
C681 C679 1.388 . S
C681 C682 1.366 . S
C682 C681 1.366 . S
C682 C683 1.414 . S
C682 C685 1.499 . S
C683 H657 0.950 . S
C683 C682 1.414 . S
C683 C684 1.374 . S
C684 H658 0.950 . S
C684 C680 1.385 . S
C684 C683 1.374 . S
C685 C682 1.499 . S
C685 C686 1.373 . S
C685 C687 1.389 . S
C686 H659 0.950 . S
C686 C672 1.377 . S
C686 C685 1.373 . S
C687 C671 1.377 . S
C687 C685 1.389 . S
C687 C688 1.524 1_554 S
C688 C687 1.524 1_556 S
C688 C689 1.397 . S
C688 C693 1.363 . S
C689 H660 0.950 . S
C689 C688 1.397 . S
C689 C690 1.334 . S
C690 H661 0.950 . S
C690 C689 1.334 . S
C690 C691 1.287 . S
C691 C690 1.287 . S
C691 C692 1.524 . S
C691 H694 0.999 . S
C692 H662 0.950 . S
C692 C691 1.524 . S
C692 C693 1.415 . S
C693 H663 0.950 . S
C693 C688 1.363 . S
C693 C692 1.415 . S
H694 C691 0.999 . S
H695 C676 0.913 . S
H696 C714 0.951 . S
H697 C716 0.951 . S
H698 C718 0.950 . S
H699 C719 0.950 . S
H700 C721 0.950 . S
H701 C724 0.950 . S
H702 C725 0.950 . S
H703 C727 0.950 . S
H704 C728 0.950 . S
H705 C729 0.951 . S
H706 C731 0.951 . S
H707 C733 0.950 . S
H708 C734 0.962 . S
H709 C736 0.950 1_554 S
H710 C739 0.950 . S
H711 C740 0.950 . S
H712 C742 0.950 . S
H713 C743 0.950 . S
C714 H696 0.951 . S
C714 C715 1.366 . S
C714 C716 1.388 . S
C715 C714 1.366 . S
C715 C719 1.385 . S
C716 H697 0.951 . S
C716 C714 1.388 . S
C716 C717 1.366 . S
C717 C716 1.366 . S
C717 C718 1.414 . S
C717 C720 1.499 . S
C718 H698 0.950 . S
C718 C717 1.414 . S
C718 C719 1.374 . S
C719 H699 0.950 . S
C719 C715 1.385 . S
C719 C718 1.374 . S
C720 C717 1.499 . S
C720 C721 1.373 . S
C720 C722 1.389 . S
C721 H700 0.950 . S
C721 C720 1.373 . S
C721 C737 1.377 . S
C722 C720 1.389 . S
C722 C723 1.524 1_556 S
C722 C736 1.377 . S
C723 C722 1.524 1_554 S
C723 C724 1.397 . S
C723 C728 1.363 . S
C724 H701 0.950 . S
C724 C723 1.397 . S
C724 C725 1.334 . S
C725 H702 0.950 . S
C725 C724 1.334 . S
C725 C726 1.287 . S
C726 C725 1.287 . S
C726 C727 1.524 . S
C726 H745 0.913 . S
C727 H703 0.950 . S
C727 C726 1.524 . S
C727 C728 1.415 . S
C728 H704 0.950 . S
C728 C723 1.363 . S
C728 C727 1.415 . S
C729 H705 0.951 . S
C729 C730 1.394 . S
C729 C731 1.388 . S
C730 C729 1.394 . S
C730 C734 1.377 1_556 S
C731 H706 0.951 . S
C731 C729 1.388 . S
C731 C732 1.366 . S
C732 C731 1.366 . S
C732 C733 1.414 . S
C732 C735 1.499 . S
C733 H707 0.950 . S
C733 C732 1.414 . S
C733 C734 1.366 1_556 S
C734 H708 0.962 . S
C734 C730 1.377 1_554 S
C734 C733 1.366 1_554 S
C735 C732 1.499 . S
C735 C736 1.373 . S
C735 C737 1.389 . S
C736 H709 0.950 1_556 S
C736 C722 1.377 . S
C736 C735 1.373 . S
C737 C721 1.377 . S
C737 C735 1.389 . S
C737 C738 1.524 . S
C738 C737 1.524 . S
C738 C739 1.397 . S
C738 C743 1.363 . S
C739 H710 0.950 . S
C739 C738 1.397 . S
C739 C740 1.334 . S
C740 H711 0.950 . S
C740 C739 1.334 . S
C740 C741 1.287 . S
C741 C740 1.287 . S
C741 C742 1.524 . S
C741 H744 0.999 . S
C742 H712 0.950 . S
C742 C741 1.524 . S
C742 C743 1.415 . S
C743 H713 0.950 . S
C743 C738 1.363 . S
C743 C742 1.415 . S
H744 C741 0.999 . S
H745 C726 0.913 . S
H746 C764 0.951 . S
H747 C766 0.951 . S
H748 C768 0.950 . S
H749 C769 0.950 . S
H750 C771 0.950 . S
H751 C774 0.950 . S
H752 C775 0.950 . S
H753 C777 0.950 . S
H754 C778 0.950 . S
H755 C779 0.951 . S
H756 C781 0.951 . S
H757 C783 0.950 . S
H758 C784 0.950 . S
H759 C786 0.950 . S
H760 C789 0.950 . S
H761 C790 0.950 . S
H762 C792 0.950 . S
H763 C793 0.950 . S
C764 H746 0.951 . S
C764 C765 1.366 . S
C764 C766 1.388 . S
C765 C764 1.366 . S
C765 C769 1.385 . S
C766 H747 0.951 . S
C766 C764 1.388 . S
C766 C767 1.366 . S
C767 C766 1.366 . S
C767 C768 1.414 . S
C767 C770 1.499 . S
C768 H748 0.950 . S
C768 C767 1.414 . S
C768 C769 1.374 . S
C769 H749 0.950 . S
C769 C765 1.385 . S
C769 C768 1.374 . S
C770 C767 1.499 . S
C770 C771 1.373 . S
C770 C772 1.389 . S
C771 H750 0.950 . S
C771 C770 1.373 . S
C771 C787 1.377 . S
C772 C770 1.389 . S
C772 C773 1.524 . S
C772 C786 1.377 . S
C773 C772 1.524 . S
C773 C774 1.397 . S
C773 C778 1.363 . S
C774 H751 0.950 . S
C774 C773 1.397 . S
C774 C775 1.334 . S
C775 H752 0.950 . S
C775 C774 1.334 . S
C775 C776 1.287 . S
C776 C775 1.287 . S
C776 C777 1.524 . S
C776 H795 0.913 . S
C777 H753 0.950 . S
C777 C776 1.524 . S
C777 C778 1.415 . S
C778 H754 0.950 . S
C778 C773 1.363 . S
C778 C777 1.415 . S
C779 H755 0.951 . S
C779 C780 1.366 . S
C779 C781 1.388 . S
C780 C779 1.366 . S
C780 C784 1.385 . S
C781 H756 0.951 . S
C781 C779 1.388 . S
C781 C782 1.366 . S
C782 C781 1.366 . S
C782 C783 1.414 . S
C782 C785 1.499 . S
C783 H757 0.950 . S
C783 C782 1.414 . S
C783 C784 1.374 . S
C784 H758 0.950 . S
C784 C780 1.385 . S
C784 C783 1.374 . S
C785 C782 1.499 . S
C785 C786 1.373 . S
C785 C787 1.389 . S
C786 H759 0.950 . S
C786 C772 1.377 . S
C786 C785 1.373 . S
C787 C771 1.377 . S
C787 C785 1.389 . S
C787 C788 1.524 . S
C788 C787 1.524 . S
C788 C789 1.397 . S
C788 C793 1.363 . S
C789 H760 0.950 . S
C789 C788 1.397 . S
C789 C790 1.334 . S
C790 H761 0.950 . S
C790 C789 1.334 . S
C790 C791 1.287 . S
C791 C790 1.287 . S
C791 C792 1.524 . S
C791 H794 0.999 . S
C792 H762 0.950 . S
C792 C791 1.524 . S
C792 C793 1.415 . S
C793 H763 0.950 . S
C793 C788 1.363 . S
C793 C792 1.415 . S
H794 C791 0.999 . S
H795 C776 0.913 . S
H796 C814 0.951 . S
H797 C816 0.951 . S
H798 C818 0.950 . S
H799 C819 0.950 . S
H800 C821 0.950 . S
H801 C824 0.950 . S
H802 C825 0.950 . S
H803 C827 0.950 . S
H804 C828 0.950 . S
H805 C829 0.951 . S
H806 C831 0.951 . S
H807 C833 0.950 . S
H808 C834 0.950 . S
H809 C836 0.950 . S
H810 C839 0.950 . S
H811 C840 0.950 . S
H812 C842 0.950 . S
H813 C843 0.950 . S
C814 H796 0.951 . S
C814 C815 1.366 . S
C814 C816 1.388 . S
C815 C814 1.366 . S
C815 C819 1.385 . S
C816 H797 0.951 . S
C816 C814 1.388 . S
C816 C817 1.366 . S
C817 C816 1.366 . S
C817 C818 1.414 . S
C817 C820 1.499 . S
C818 H798 0.950 . S
C818 C817 1.414 . S
C818 C819 1.374 . S
C819 H799 0.950 . S
C819 C815 1.385 . S
C819 C818 1.374 . S
C820 C817 1.499 . S
C820 C821 1.373 . S
C820 C822 1.389 . S
C821 H800 0.950 . S
C821 C820 1.373 . S
C821 C837 1.377 . S
C822 C820 1.389 . S
C822 C823 1.524 . S
C822 C836 1.377 . S
C823 C822 1.524 . S
C823 C824 1.397 . S
C823 C828 1.363 . S
C824 H801 0.950 . S
C824 C823 1.397 . S
C824 C825 1.334 . S
C825 H802 0.950 . S
C825 C824 1.334 . S
C825 C826 1.287 . S
C826 C825 1.287 . S
C826 C827 1.524 . S
C826 H845 0.913 . S
C827 H803 0.950 . S
C827 C826 1.524 . S
C827 C828 1.415 . S
C828 H804 0.950 . S
C828 C823 1.363 . S
C828 C827 1.415 . S
C829 H805 0.951 . S
C829 C830 1.366 . S
C829 C831 1.388 . S
C830 C829 1.366 . S
C830 C834 1.385 . S
C831 H806 0.951 . S
C831 C829 1.388 . S
C831 C832 1.366 . S
C832 C831 1.366 . S
C832 C833 1.414 . S
C832 C835 1.499 . S
C833 H807 0.950 . S
C833 C832 1.414 . S
C833 C834 1.374 . S
C834 H808 0.950 . S
C834 C830 1.385 . S
C834 C833 1.374 . S
C835 C832 1.499 . S
C835 C836 1.373 . S
C835 C837 1.389 . S
C836 H809 0.950 . S
C836 C822 1.377 . S
C836 C835 1.373 . S
C837 C821 1.377 . S
C837 C835 1.389 . S
C837 C838 1.524 . S
C838 C837 1.524 . S
C838 C839 1.397 . S
C838 C843 1.363 . S
C839 H810 0.950 . S
C839 C838 1.397 . S
C839 C840 1.334 . S
C840 H811 0.950 . S
C840 C839 1.334 . S
C840 C841 1.287 . S
C841 C840 1.287 . S
C841 C842 1.524 . S
C841 H844 0.999 . S
C842 H812 0.950 . S
C842 C841 1.524 . S
C842 C843 1.415 . S
C843 H813 0.950 . S
C843 C838 1.363 . S
C843 C842 1.415 . S
H844 C841 0.999 . S
H845 C826 0.913 . S
H846 C864 0.951 . S
H847 C866 0.951 . S
H848 C868 0.950 . S
H849 C869 0.950 . S
H850 C871 0.950 . S
H851 C874 0.950 . S
H852 C875 0.950 . S
H853 C877 0.950 . S
H854 C878 0.950 . S
H855 C879 0.951 . S
H856 C881 0.951 . S
H857 C883 0.950 . S
H858 C884 0.950 . S
H859 C886 0.950 . S
H860 C889 0.950 . S
H861 C890 0.950 . S
H862 C892 0.950 . S
H863 C893 0.950 . S
C864 H846 0.951 . S
C864 C865 1.366 . S
C864 C866 1.388 . S
C865 C864 1.366 . S
C865 C869 1.385 . S
C866 H847 0.951 . S
C866 C864 1.388 . S
C866 C867 1.366 . S
C867 C866 1.366 . S
C867 C868 1.414 . S
C867 C870 1.499 . S
C868 H848 0.950 . S
C868 C867 1.414 . S
C868 C869 1.374 . S
C869 H849 0.950 . S
C869 C865 1.385 . S
C869 C868 1.374 . S
C870 C867 1.499 . S
C870 C871 1.373 . S
C870 C872 1.389 . S
C871 H850 0.950 . S
C871 C870 1.373 . S
C871 C887 1.377 . S
C872 C870 1.389 . S
C872 C873 1.524 . S
C872 C886 1.377 . S
C873 C872 1.524 . S
C873 C874 1.397 . S
C873 C878 1.363 . S
C874 H851 0.950 . S
C874 C873 1.397 . S
C874 C875 1.334 . S
C875 H852 0.950 . S
C875 C874 1.334 . S
C875 C876 1.287 . S
C876 C875 1.287 . S
C876 C877 1.524 . S
C876 H895 0.913 . S
C877 H853 0.950 . S
C877 C876 1.524 . S
C877 C878 1.415 . S
C878 H854 0.950 . S
C878 C873 1.363 . S
C878 C877 1.415 . S
C879 H855 0.951 . S
C879 C880 1.366 . S
C879 C881 1.388 . S
C880 C879 1.366 . S
C880 C884 1.385 . S
C881 H856 0.951 . S
C881 C879 1.388 . S
C881 C882 1.366 . S
C882 C881 1.366 . S
C882 C883 1.414 . S
C882 C885 1.499 . S
C883 H857 0.950 . S
C883 C882 1.414 . S
C883 C884 1.374 . S
C884 H858 0.950 . S
C884 C880 1.385 . S
C884 C883 1.374 . S
C885 C882 1.499 . S
C885 C886 1.373 . S
C885 C887 1.389 . S
C886 H859 0.950 . S
C886 C872 1.377 . S
C886 C885 1.373 . S
C887 C871 1.377 . S
C887 C885 1.389 . S
C887 C888 1.524 . S
C888 C887 1.524 . S
C888 C889 1.397 . S
C888 C893 1.363 . S
C889 H860 0.950 . S
C889 C888 1.397 . S
C889 C890 1.334 . S
C890 H861 0.950 . S
C890 C889 1.334 . S
C890 C891 1.287 . S
C891 C890 1.287 . S
C891 C892 1.524 . S
C891 H894 0.999 . S
C892 H862 0.950 . S
C892 C891 1.524 . S
C892 C893 1.415 . S
C893 H863 0.950 . S
C893 C888 1.363 . S
C893 C892 1.415 . S
H894 C891 0.999 . S
H895 C876 0.913 . S
H896 C914 0.951 . S
H897 C916 0.951 . S
H898 C918 0.950 . S
H899 C919 0.950 . S
H900 C921 0.950 . S
H901 C924 0.950 . S
H902 C925 0.950 . S
H903 C927 0.950 . S
H904 C928 0.950 . S
H905 C929 0.951 . S
H906 C931 0.951 . S
H907 C933 0.950 . S
H908 C934 0.950 . S
H909 C936 0.950 . S
H910 C939 0.950 . S
H911 C940 0.950 . S
H912 C942 0.950 . S
H913 C943 0.950 . S
C914 H896 0.951 . S
C914 C915 1.366 . S
C914 C916 1.388 . S
C915 C914 1.366 . S
C915 C919 1.385 . S
C916 H897 0.951 . S
C916 C914 1.388 . S
C916 C917 1.366 . S
C917 C916 1.366 . S
C917 C918 1.414 . S
C917 C920 1.499 . S
C918 H898 0.950 . S
C918 C917 1.414 . S
C918 C919 1.374 . S
C919 H899 0.950 . S
C919 C915 1.385 . S
C919 C918 1.374 . S
C920 C917 1.499 . S
C920 C921 1.373 . S
C920 C922 1.389 . S
C921 H900 0.950 . S
C921 C920 1.373 . S
C921 C937 1.377 . S
C922 C920 1.389 . S
C922 C923 1.524 . S
C922 C936 1.377 . S
C923 C922 1.524 . S
C923 C924 1.397 . S
C923 C928 1.363 . S
C924 H901 0.950 . S
C924 C923 1.397 . S
C924 C925 1.334 . S
C925 H902 0.950 . S
C925 C924 1.334 . S
C925 C926 1.287 . S
C926 C925 1.287 . S
C926 C927 1.524 . S
C926 H945 0.913 . S
C927 H903 0.950 . S
C927 C926 1.524 . S
C927 C928 1.415 . S
C928 H904 0.950 . S
C928 C923 1.363 . S
C928 C927 1.415 . S
C929 H905 0.951 . S
C929 C930 1.366 . S
C929 C931 1.388 . S
C930 C929 1.366 . S
C930 C934 1.385 . S
C931 H906 0.951 . S
C931 C929 1.388 . S
C931 C932 1.366 . S
C932 C931 1.366 . S
C932 C933 1.414 . S
C932 C935 1.499 . S
C933 H907 0.950 . S
C933 C932 1.414 . S
C933 C934 1.374 . S
C934 H908 0.950 . S
C934 C930 1.385 . S
C934 C933 1.374 . S
C935 C932 1.499 . S
C935 C936 1.373 . S
C935 C937 1.389 . S
C936 H909 0.950 . S
C936 C922 1.377 . S
C936 C935 1.373 . S
C937 C921 1.377 . S
C937 C935 1.389 . S
C937 C938 1.524 . S
C938 C937 1.524 . S
C938 C939 1.397 . S
C938 C943 1.363 . S
C939 H910 0.950 . S
C939 C938 1.397 . S
C939 C940 1.334 . S
C940 H911 0.950 . S
C940 C939 1.334 . S
C940 C941 1.287 . S
C941 C940 1.287 . S
C941 C942 1.524 . S
C941 H944 0.999 . S
C942 H912 0.950 . S
C942 C941 1.524 . S
C942 C943 1.415 . S
C943 H913 0.950 . S
C943 C938 1.363 . S
C943 C942 1.415 . S
H944 C941 0.999 . S
H945 C926 0.913 . S
H946 C964 0.951 . S
H947 C966 0.951 . S
H948 C968 0.950 . S
H949 C969 0.950 . S
H950 C971 0.950 . S
H951 C974 0.950 . S
H952 C975 0.950 . S
H953 C977 0.950 . S
H954 C978 0.950 . S
H955 C979 0.951 1_556 S
H956 C981 0.951 . S
H957 C983 0.950 . S
H958 C984 0.950 . S
H959 C986 0.950 . S
H960 C989 0.950 . S
H961 C990 0.950 . S
H962 C992 0.950 . S
H963 C993 0.950 . S
C964 H946 0.951 . S
C964 C965 1.366 . S
C964 C966 1.388 . S
C965 C964 1.366 . S
C965 C969 1.385 . S
C966 H947 0.951 . S
C966 C964 1.388 . S
C966 C967 1.366 . S
C967 C966 1.366 . S
C967 C968 1.414 . S
C967 C970 1.499 . S
C968 H948 0.950 . S
C968 C967 1.414 . S
C968 C969 1.374 . S
C969 H949 0.950 . S
C969 C965 1.385 . S
C969 C968 1.374 . S
C970 C967 1.499 . S
C970 C971 1.373 . S
C970 C972 1.389 . S
C971 H950 0.950 . S
C971 C970 1.373 . S
C971 C987 1.377 . S
C972 C970 1.389 . S
C972 C973 1.524 . S
C972 C986 1.377 . S
C973 C972 1.524 . S
C973 C974 1.397 . S
C973 C978 1.363 . S
C974 H951 0.950 . S
C974 C973 1.397 . S
C974 C975 1.334 . S
C975 H952 0.950 . S
C975 C974 1.334 . S
C975 C976 1.287 . S
C976 C975 1.287 . S
C976 C977 1.524 . S
C976 H995 0.913 . S
C977 H953 0.950 . S
C977 C976 1.524 . S
C977 C978 1.415 . S
C978 H954 0.950 . S
C978 C973 1.363 . S
C978 C977 1.415 . S
C979 H955 0.951 1_554 S
C979 C980 1.366 . S
C979 C981 1.388 . S
C980 C979 1.366 . S
C980 C984 1.385 . S
C981 H956 0.951 . S
C981 C979 1.388 . S
C981 C982 1.366 . S
C982 C981 1.366 . S
C982 C983 1.414 . S
C982 C985 1.499 . S
C983 H957 0.950 . S
C983 C982 1.414 . S
C983 C984 1.374 . S
C984 H958 0.950 . S
C984 C980 1.385 . S
C984 C983 1.374 . S
C985 C982 1.499 . S
C985 C986 1.373 . S
C985 C987 1.389 . S
C986 H959 0.950 . S
C986 C972 1.377 . S
C986 C985 1.373 . S
C987 C971 1.377 . S
C987 C985 1.389 . S
C987 C988 1.524 1_554 S
C988 C987 1.524 1_556 S
C988 C989 1.397 . S
C988 C993 1.363 . S
C989 H960 0.950 . S
C989 C988 1.397 . S
C989 C990 1.334 . S
C990 H961 0.950 . S
C990 C989 1.334 . S
C990 C991 1.287 . S
C991 C990 1.287 . S
C991 C992 1.524 . S
C991 H994 0.999 . S
C992 H962 0.950 . S
C992 C991 1.524 . S
C992 C993 1.415 . S
C993 H963 0.950 . S
C993 C988 1.363 . S
C993 C992 1.415 . S
H994 C991 0.999 . S
H995 C976 0.913 . S
H996 C1014 0.951 . S
H997 C1016 0.951 . S
H998 C1018 0.950 . S
H999 C1019 0.950 . S
H1000 C1021 0.950 . S
H1001 C1024 0.950 . S
H1002 C1025 0.950 . S
H1003 C1027 0.950 . S
H1004 C1028 0.950 . S
H1005 C1029 0.951 . S
H1006 C1031 0.951 . S
H1007 C1033 0.950 . S
H1008 C1034 0.950 . S
H1009 C1036 0.950 . S
H1010 C1039 0.950 . S
H1011 C1040 0.950 . S
H1012 C1042 0.950 . S
H1013 C1043 0.950 . S
C1014 H996 0.951 . S
C1014 C1015 1.366 . S
C1014 C1016 1.388 . S
C1015 C1014 1.366 . S
C1015 C1019 1.385 . S
C1016 H997 0.951 . S
C1016 C1014 1.388 . S
C1016 C1017 1.366 . S
C1017 C1016 1.366 . S
C1017 C1018 1.414 . S
C1017 C1020 1.499 . S
C1018 H998 0.950 . S
C1018 C1017 1.414 . S
C1018 C1019 1.374 . S
C1019 H999 0.950 . S
C1019 C1015 1.385 . S
C1019 C1018 1.374 . S
C1020 C1017 1.499 . S
C1020 C1021 1.373 . S
C1020 C1022 1.389 . S
C1021 H1000 0.950 . S
C1021 C1020 1.373 . S
C1021 C1037 1.377 . S
C1022 C1020 1.389 . S
C1022 C1023 1.524 . S
C1022 C1036 1.377 . S
C1023 C1022 1.524 . S
C1023 C1024 1.397 . S
C1023 C1028 1.363 . S
C1024 H1001 0.950 . S
C1024 C1023 1.397 . S
C1024 C1025 1.334 . S
C1025 H1002 0.950 . S
C1025 C1024 1.334 . S
C1025 C1026 1.287 . S
C1026 C1025 1.287 . S
C1026 C1027 1.524 . S
C1026 H1045 0.913 . S
C1027 H1003 0.950 . S
C1027 C1026 1.524 . S
C1027 C1028 1.415 . S
C1028 H1004 0.950 . S
C1028 C1023 1.363 . S
C1028 C1027 1.415 . S
C1029 H1005 0.951 . S
C1029 C1030 1.366 . S
C1029 C1031 1.388 . S
C1030 C1029 1.366 . S
C1030 C1034 1.385 . S
C1031 H1006 0.951 . S
C1031 C1029 1.388 . S
C1031 C1032 1.366 . S
C1032 C1031 1.366 . S
C1032 C1033 1.414 . S
C1032 C1035 1.499 . S
C1033 H1007 0.950 . S
C1033 C1032 1.414 . S
C1033 C1034 1.374 . S
C1034 H1008 0.950 . S
C1034 C1030 1.385 . S
C1034 C1033 1.374 . S
C1035 C1032 1.499 . S
C1035 C1036 1.373 . S
C1035 C1037 1.389 . S
C1036 H1009 0.950 . S
C1036 C1022 1.377 . S
C1036 C1035 1.373 . S
C1037 C1021 1.377 . S
C1037 C1035 1.389 . S
C1037 C1038 1.524 . S
C1038 C1037 1.524 . S
C1038 C1039 1.397 . S
C1038 C1043 1.363 . S
C1039 H1010 0.950 . S
C1039 C1038 1.397 . S
C1039 C1040 1.334 . S
C1040 H1011 0.950 . S
C1040 C1039 1.334 . S
C1040 C1041 1.287 . S
C1041 C1040 1.287 . S
C1041 C1042 1.524 . S
C1041 H1044 0.999 . S
C1042 H1012 0.950 . S
C1042 C1041 1.524 . S
C1042 C1043 1.415 . S
C1043 H1013 0.950 . S
C1043 C1038 1.363 . S
C1043 C1042 1.415 . S
H1044 C1041 0.999 . S
H1045 C1026 0.913 . S
H1046 C1064 0.951 . S
H1047 C1066 0.951 . S
H1048 C1068 0.950 . S
H1049 C1069 0.950 . S
H1050 C1071 0.950 . S
H1051 C1074 0.950 . S
H1052 C1075 0.950 . S
H1053 C1077 0.950 . S
H1054 C1078 0.950 . S
H1055 C1079 0.951 . S
H1056 C1081 0.951 . S
H1057 C1083 0.950 . S
H1058 C1084 0.950 . S
H1059 C1086 0.950 . S
H1060 C1089 0.950 . S
H1061 C1090 0.950 . S
H1062 C1092 0.950 . S
H1063 C1093 0.950 . S
C1064 H1046 0.951 . S
C1064 C1065 1.366 . S
C1064 C1066 1.388 . S
C1065 C1064 1.366 . S
C1065 C1069 1.385 . S
C1066 H1047 0.951 . S
C1066 C1064 1.388 . S
C1066 C1067 1.366 . S
C1067 C1066 1.366 . S
C1067 C1068 1.414 . S
C1067 C1070 1.499 . S
C1068 H1048 0.950 . S
C1068 C1067 1.414 . S
C1068 C1069 1.374 . S
C1069 H1049 0.950 . S
C1069 C1065 1.385 . S
C1069 C1068 1.374 . S
C1070 C1067 1.499 . S
C1070 C1071 1.373 . S
C1070 C1072 1.389 . S
C1071 H1050 0.950 . S
C1071 C1070 1.373 . S
C1071 C1087 1.377 . S
C1072 C1070 1.389 . S
C1072 C1073 1.524 . S
C1072 C1086 1.377 . S
C1073 C1072 1.524 . S
C1073 C1074 1.397 . S
C1073 C1078 1.363 . S
C1074 H1051 0.950 . S
C1074 C1073 1.397 . S
C1074 C1075 1.334 . S
C1075 H1052 0.950 . S
C1075 C1074 1.334 . S
C1075 C1076 1.287 . S
C1076 C1075 1.287 . S
C1076 C1077 1.524 . S
C1076 H1095 0.913 1_655 S
C1077 H1053 0.950 . S
C1077 C1076 1.524 . S
C1077 C1078 1.415 . S
C1078 H1054 0.950 . S
C1078 C1073 1.363 . S
C1078 C1077 1.415 . S
C1079 H1055 0.951 . S
C1079 C1080 1.366 . S
C1079 C1081 1.388 . S
C1080 C1079 1.366 . S
C1080 C1084 1.385 . S
C1081 H1056 0.951 . S
C1081 C1079 1.388 . S
C1081 C1082 1.366 . S
C1082 C1081 1.366 . S
C1082 C1083 1.414 . S
C1082 C1085 1.499 . S
C1083 H1057 0.950 . S
C1083 C1082 1.414 . S
C1083 C1084 1.374 . S
C1084 H1058 0.950 . S
C1084 C1080 1.385 . S
C1084 C1083 1.374 . S
C1085 C1082 1.499 . S
C1085 C1086 1.373 . S
C1085 C1087 1.389 . S
C1086 H1059 0.950 . S
C1086 C1072 1.377 . S
C1086 C1085 1.373 . S
C1087 C1071 1.377 . S
C1087 C1085 1.389 . S
C1087 C1088 1.524 . S
C1088 C1087 1.524 . S
C1088 C1089 1.397 . S
C1088 C1093 1.363 . S
C1089 H1060 0.950 . S
C1089 C1088 1.397 . S
C1089 C1090 1.334 . S
C1090 H1061 0.950 . S
C1090 C1089 1.334 . S
C1090 C1091 1.287 . S
C1091 C1090 1.287 . S
C1091 C1092 1.524 . S
C1091 H1094 0.999 . S
C1092 H1062 0.950 . S
C1092 C1091 1.524 . S
C1092 C1093 1.415 . S
C1093 H1063 0.950 . S
C1093 C1088 1.363 . S
C1093 C1092 1.415 . S
H1094 C1091 0.999 . S
H1095 C1076 0.913 1_455 S
H1096 C1114 0.951 . S
H1097 C1116 0.951 . S
H1098 C1118 0.950 . S
H1099 C1119 0.950 . S
H1100 C1121 0.950 . S
H1101 C1124 0.950 . S
H1102 C1125 0.950 . S
H1103 C1127 0.950 . S
H1104 C1128 0.950 . S
H1105 C1129 0.951 . S
H1106 C1131 0.951 . S
H1107 C1133 0.950 . S
H1108 C1134 0.950 . S
H1109 C1136 0.950 . S
H1110 C1139 0.950 . S
H1111 C1140 0.950 . S
H1112 C1142 0.950 . S
H1113 C1143 0.950 . S
C1114 H1096 0.951 . S
C1114 C1115 1.366 . S
C1114 C1116 1.388 . S
C1115 C1114 1.366 . S
C1115 C1119 1.385 . S
C1116 H1097 0.951 . S
C1116 C1114 1.388 . S
C1116 C1117 1.366 . S
C1117 C1116 1.366 . S
C1117 C1118 1.414 . S
C1117 C1120 1.499 . S
C1118 H1098 0.950 . S
C1118 C1117 1.414 . S
C1118 C1119 1.374 . S
C1119 H1099 0.950 . S
C1119 C1115 1.385 . S
C1119 C1118 1.374 . S
C1120 C1117 1.499 . S
C1120 C1121 1.373 . S
C1120 C1122 1.389 . S
C1121 H1100 0.950 . S
C1121 C1120 1.373 . S
C1121 C1137 1.377 . S
C1122 C1120 1.389 . S
C1122 C1123 1.524 . S
C1122 C1136 1.377 . S
C1123 C1122 1.524 . S
C1123 C1124 1.397 . S
C1123 C1128 1.363 . S
C1124 H1101 0.950 . S
C1124 C1123 1.397 . S
C1124 C1125 1.334 . S
C1125 H1102 0.950 . S
C1125 C1124 1.334 . S
C1125 C1126 1.287 . S
C1126 C1125 1.287 . S
C1126 C1127 1.524 . S
C1126 H1145 0.913 . S
C1127 H1103 0.950 . S
C1127 C1126 1.524 . S
C1127 C1128 1.415 . S
C1128 H1104 0.950 . S
C1128 C1123 1.363 . S
C1128 C1127 1.415 . S
C1129 H1105 0.951 . S
C1129 C1130 1.366 . S
C1129 C1131 1.388 . S
C1130 C1129 1.366 . S
C1130 C1134 1.385 . S
C1131 H1106 0.951 . S
C1131 C1129 1.388 . S
C1131 C1132 1.366 . S
C1132 C1131 1.366 . S
C1132 C1133 1.414 . S
C1132 C1135 1.499 . S
C1133 H1107 0.950 . S
C1133 C1132 1.414 . S
C1133 C1134 1.374 . S
C1134 H1108 0.950 . S
C1134 C1130 1.385 . S
C1134 C1133 1.374 . S
C1135 C1132 1.499 . S
C1135 C1136 1.373 . S
C1135 C1137 1.389 . S
C1136 H1109 0.950 . S
C1136 C1122 1.377 . S
C1136 C1135 1.373 . S
C1137 C1121 1.377 . S
C1137 C1135 1.389 . S
C1137 C1138 1.524 . S
C1138 C1137 1.524 . S
C1138 C1139 1.397 . S
C1138 C1143 1.363 . S
C1139 H1110 0.950 . S
C1139 C1138 1.397 . S
C1139 C1140 1.334 . S
C1140 H1111 0.950 . S
C1140 C1139 1.334 . S
C1140 C1141 1.287 . S
C1141 C1140 1.287 . S
C1141 C1142 1.524 . S
C1141 H1144 0.999 . S
C1142 H1112 0.950 . S
C1142 C1141 1.524 . S
C1142 C1143 1.415 . S
C1143 H1113 0.950 . S
C1143 C1138 1.363 . S
C1143 C1142 1.415 . S
H1144 C1141 0.999 . S
H1145 C1126 0.913 . S
H1146 C1164 0.951 . S
H1147 C1166 0.951 . S
H1148 C1168 0.950 . S
H1149 C1169 0.950 . S
H1150 C1171 0.950 . S
H1151 C1174 0.950 . S
H1152 C1175 0.950 . S
H1153 C1177 0.950 . S
H1154 C1178 0.950 . S
H1155 C1179 0.951 . S
H1156 C1181 0.951 . S
H1157 C1183 0.950 . S
H1158 C1184 0.950 . S
H1159 C1186 0.950 . S
H1160 C1189 0.950 . S
H1161 C1190 0.950 . S
H1162 C1192 0.950 . S
H1163 C1193 0.950 . S
C1164 H1146 0.951 . S
C1164 C1165 1.366 . S
C1164 C1166 1.388 . S
C1165 C1164 1.366 . S
C1165 C1169 1.385 . S
C1166 H1147 0.951 . S
C1166 C1164 1.388 . S
C1166 C1167 1.366 . S
C1167 C1166 1.366 . S
C1167 C1168 1.414 . S
C1167 C1170 1.499 . S
C1168 H1148 0.950 . S
C1168 C1167 1.414 . S
C1168 C1169 1.374 . S
C1169 H1149 0.950 . S
C1169 C1165 1.385 . S
C1169 C1168 1.374 . S
C1170 C1167 1.499 . S
C1170 C1171 1.373 . S
C1170 C1172 1.389 . S
C1171 H1150 0.950 . S
C1171 C1170 1.373 . S
C1171 C1187 1.377 . S
C1172 C1170 1.389 . S
C1172 C1173 1.524 . S
C1172 C1186 1.377 . S
C1173 C1172 1.524 . S
C1173 C1174 1.397 . S
C1173 C1178 1.363 . S
C1174 H1151 0.950 . S
C1174 C1173 1.397 . S
C1174 C1175 1.334 . S
C1175 H1152 0.950 . S
C1175 C1174 1.334 . S
C1175 C1176 1.287 . S
C1176 C1175 1.287 . S
C1176 C1177 1.524 . S
C1176 H1195 0.913 . S
C1177 H1153 0.950 . S
C1177 C1176 1.524 . S
C1177 C1178 1.415 . S
C1178 H1154 0.950 . S
C1178 C1173 1.363 . S
C1178 C1177 1.415 . S
C1179 H1155 0.951 . S
C1179 C1180 1.366 . S
C1179 C1181 1.388 . S
C1180 C1179 1.366 . S
C1180 C1184 1.385 . S
C1181 H1156 0.951 . S
C1181 C1179 1.388 . S
C1181 C1182 1.366 . S
C1182 C1181 1.366 . S
C1182 C1183 1.414 . S
C1182 C1185 1.499 . S
C1183 H1157 0.950 . S
C1183 C1182 1.414 . S
C1183 C1184 1.374 . S
C1184 H1158 0.950 . S
C1184 C1180 1.385 . S
C1184 C1183 1.374 . S
C1185 C1182 1.499 . S
C1185 C1186 1.373 . S
C1185 C1187 1.389 . S
C1186 H1159 0.950 . S
C1186 C1172 1.377 . S
C1186 C1185 1.373 . S
C1187 C1171 1.377 . S
C1187 C1185 1.389 . S
C1187 C1188 1.524 . S
C1188 C1187 1.524 . S
C1188 C1189 1.397 . S
C1188 C1193 1.363 . S
C1189 H1160 0.950 . S
C1189 C1188 1.397 . S
C1189 C1190 1.334 . S
C1190 H1161 0.950 . S
C1190 C1189 1.334 . S
C1190 C1191 1.287 . S
C1191 C1190 1.287 . S
C1191 C1192 1.524 . S
C1191 H1194 0.999 . S
C1192 H1162 0.950 . S
C1192 C1191 1.524 . S
C1192 C1193 1.415 . S
C1193 H1163 0.950 . S
C1193 C1188 1.363 . S
C1193 C1192 1.415 . S
H1194 C1191 0.999 . S
H1195 C1176 0.913 . S
H1196 C1214 0.951 . S
H1197 C1216 0.951 . S
H1198 C1218 0.950 . S
H1199 C1219 0.950 . S
H1200 C1221 0.950 . S
H1201 C1224 0.931 1_554 S
H1202 C1225 0.950 . S
H1203 C1227 0.950 . S
H1204 C1228 0.950 . S
H1205 C1229 0.951 1_554 S
H1206 C1231 0.951 . S
H1207 C1233 0.950 . S
H1208 C1234 0.950 . S
H1209 C1236 0.950 . S
H1210 C1239 0.950 . S
H1211 C1240 0.950 . S
H1212 C1242 0.950 . S
H1213 C1243 0.950 . S
C1214 H1196 0.951 . S
C1214 C1215 1.366 . S
C1214 C1216 1.388 . S
C1215 C1214 1.366 . S
C1215 C1219 1.385 . S
C1216 H1197 0.951 . S
C1216 C1214 1.388 . S
C1216 C1217 1.366 . S
C1217 C1216 1.366 . S
C1217 C1218 1.414 . S
C1217 C1220 1.499 . S
C1218 H1198 0.950 . S
C1218 C1217 1.414 . S
C1218 C1219 1.374 . S
C1219 H1199 0.950 . S
C1219 C1215 1.385 . S
C1219 C1218 1.374 . S
C1220 C1217 1.499 . S
C1220 C1221 1.373 . S
C1220 C1222 1.389 . S
C1221 H1200 0.950 . S
C1221 C1220 1.373 . S
C1221 C1237 1.377 . S
C1222 C1220 1.389 . S
C1222 C1223 1.524 . S
C1222 C1236 1.377 . S
C1223 C1222 1.524 . S
C1223 C1224 1.445 . S
C1223 C1228 1.363 . S
C1224 H1201 0.931 1_556 S
C1224 C1223 1.445 . S
C1224 C1225 1.310 1_556 S
C1225 H1202 0.950 . S
C1225 C1224 1.310 1_554 S
C1225 C1226 1.310 . S
C1226 C1225 1.310 . S
C1226 C1227 1.473 1_554 S
C1226 H1245 0.943 . S
C1227 H1203 0.950 . S
C1227 C1226 1.473 1_556 S
C1227 C1228 1.415 . S
C1228 H1204 0.950 . S
C1228 C1223 1.363 . S
C1228 C1227 1.415 . S
C1229 H1205 0.951 1_556 S
C1229 C1230 1.366 . S
C1229 C1231 1.388 . S
C1230 C1229 1.366 . S
C1230 C1234 1.385 . S
C1231 H1206 0.951 . S
C1231 C1229 1.388 . S
C1231 C1232 1.366 . S
C1232 C1231 1.366 . S
C1232 C1233 1.414 . S
C1232 C1235 1.499 . S
C1233 H1207 0.950 . S
C1233 C1232 1.414 . S
C1233 C1234 1.374 . S
C1234 H1208 0.950 . S
C1234 C1230 1.385 . S
C1234 C1233 1.374 . S
C1235 C1232 1.499 . S
C1235 C1236 1.373 . S
C1235 C1237 1.389 . S
C1236 H1209 0.950 . S
C1236 C1222 1.377 . S
C1236 C1235 1.373 . S
C1237 C1221 1.377 . S
C1237 C1235 1.389 . S
C1237 C1238 1.524 . S
C1238 C1237 1.524 . S
C1238 C1239 1.397 . S
C1238 C1243 1.363 . S
C1239 H1210 0.950 . S
C1239 C1238 1.397 . S
C1239 C1240 1.334 . S
C1240 H1211 0.950 . S
C1240 C1239 1.334 . S
C1240 C1241 1.287 . S
C1241 C1240 1.287 . S
C1241 C1242 1.524 . S
C1241 H1244 0.999 . S
C1242 H1212 0.950 . S
C1242 C1241 1.524 . S
C1242 C1243 1.415 . S
C1243 H1213 0.950 . S
C1243 C1238 1.363 . S
C1243 C1242 1.415 . S
H1244 C1241 0.999 . S
H1245 C1226 0.943 . S
H1246 C1264 0.951 . S
H1247 C1266 0.951 . S
H1248 C1268 0.950 . S
H1249 C1269 0.950 . S
H1250 C1271 0.950 . S
H1251 C1274 0.950 . S
H1252 C1275 0.950 . S
H1253 C1277 0.950 . S
H1254 C1278 0.950 . S
H1255 C1279 0.951 . S
H1256 C1281 0.951 . S
H1257 C1283 0.950 . S
H1258 C1284 0.950 . S
H1259 C1286 0.950 . S
H1260 C1289 0.950 . S
H1261 C1290 0.950 . S
H1262 C1292 0.950 . S
H1263 C1293 0.950 . S
C1264 H1246 0.951 . S
C1264 C1265 1.366 . S
C1264 C1266 1.388 . S
C1265 C1264 1.366 . S
C1265 C1269 1.385 . S
C1266 H1247 0.951 . S
C1266 C1264 1.388 . S
C1266 C1267 1.366 . S
C1267 C1266 1.366 . S
C1267 C1268 1.414 . S
C1267 C1270 1.499 . S
C1268 H1248 0.950 . S
C1268 C1267 1.414 . S
C1268 C1269 1.374 . S
C1269 H1249 0.950 . S
C1269 C1265 1.385 . S
C1269 C1268 1.374 . S
C1270 C1267 1.499 . S
C1270 C1271 1.373 . S
C1270 C1272 1.389 . S
C1271 H1250 0.950 . S
C1271 C1270 1.373 . S
C1271 C1287 1.377 . S
C1272 C1270 1.389 . S
C1272 C1273 1.524 . S
C1272 C1286 1.377 . S
C1273 C1272 1.524 . S
C1273 C1274 1.397 . S
C1273 C1278 1.363 . S
C1274 H1251 0.950 . S
C1274 C1273 1.397 . S
C1274 C1275 1.334 . S
C1275 H1252 0.950 . S
C1275 C1274 1.334 . S
C1275 C1276 1.287 . S
C1276 C1275 1.287 . S
C1276 C1277 1.524 . S
C1276 H1295 0.913 . S
C1277 H1253 0.950 . S
C1277 C1276 1.524 . S
C1277 C1278 1.415 . S
C1278 H1254 0.950 . S
C1278 C1273 1.363 . S
C1278 C1277 1.415 . S
C1279 H1255 0.951 . S
C1279 C1280 1.366 . S
C1279 C1281 1.388 . S
C1280 C1279 1.366 . S
C1280 C1284 1.385 . S
C1281 H1256 0.951 . S
C1281 C1279 1.388 . S
C1281 C1282 1.366 . S
C1282 C1281 1.366 . S
C1282 C1283 1.414 . S
C1282 C1285 1.499 . S
C1283 H1257 0.950 . S
C1283 C1282 1.414 . S
C1283 C1284 1.374 . S
C1284 H1258 0.950 . S
C1284 C1280 1.385 . S
C1284 C1283 1.374 . S
C1285 C1282 1.499 . S
C1285 C1286 1.373 . S
C1285 C1287 1.389 . S
C1286 H1259 0.950 . S
C1286 C1272 1.377 . S
C1286 C1285 1.373 . S
C1287 C1271 1.377 . S
C1287 C1285 1.389 . S
C1287 C1288 1.524 . S
C1288 C1287 1.524 . S
C1288 C1289 1.397 . S
C1288 C1293 1.363 . S
C1289 H1260 0.950 . S
C1289 C1288 1.397 . S
C1289 C1290 1.334 . S
C1290 H1261 0.950 . S
C1290 C1289 1.334 . S
C1290 C1291 1.287 . S
C1291 C1290 1.287 . S
C1291 C1292 1.524 . S
C1291 H1294 0.999 . S
C1292 H1262 0.950 . S
C1292 C1291 1.524 . S
C1292 C1293 1.415 . S
C1293 H1263 0.950 . S
C1293 C1288 1.363 . S
C1293 C1292 1.415 . S
H1294 C1291 0.999 . S
H1295 C1276 0.913 . S
H1296 C1314 0.951 . S
H1297 C1316 0.951 . S
H1298 C1318 0.950 . S
H1299 C1319 0.950 . S
H1300 C1321 0.950 . S
H1301 C1324 0.950 . S
H1302 C1325 0.950 . S
H1303 C1327 0.950 . S
H1304 C1328 0.950 . S
H1305 C1329 0.951 . S
H1306 C1331 0.951 . S
H1307 C1333 0.950 . S
H1308 C1334 0.950 . S
H1309 C1336 0.950 . S
H1310 C1339 0.950 . S
H1311 C1340 0.950 . S
H1312 C1342 0.950 . S
H1313 C1343 0.950 . S
C1314 H1296 0.951 . S
C1314 C1315 1.366 . S
C1314 C1316 1.388 . S
C1315 C1314 1.366 . S
C1315 C1319 1.385 . S
C1316 H1297 0.951 . S
C1316 C1314 1.388 . S
C1316 C1317 1.366 . S
C1317 C1316 1.366 . S
C1317 C1318 1.414 . S
C1317 C1320 1.499 . S
C1318 H1298 0.950 . S
C1318 C1317 1.414 . S
C1318 C1319 1.374 . S
C1319 H1299 0.950 . S
C1319 C1315 1.385 . S
C1319 C1318 1.374 . S
C1320 C1317 1.499 . S
C1320 C1321 1.373 . S
C1320 C1322 1.389 . S
C1321 H1300 0.950 . S
C1321 C1320 1.373 . S
C1321 C1337 1.377 . S
C1322 C1320 1.389 . S
C1322 C1323 1.524 . S
C1322 C1336 1.377 . S
C1323 C1322 1.524 . S
C1323 C1324 1.397 . S
C1323 C1328 1.363 . S
C1324 H1301 0.950 . S
C1324 C1323 1.397 . S
C1324 C1325 1.334 . S
C1325 H1302 0.950 . S
C1325 C1324 1.334 . S
C1325 C1326 1.287 . S
C1326 C1325 1.287 . S
C1326 C1327 1.524 . S
C1326 H1345 0.913 . S
C1327 H1303 0.950 . S
C1327 C1326 1.524 . S
C1327 C1328 1.415 . S
C1328 H1304 0.950 . S
C1328 C1323 1.363 . S
C1328 C1327 1.415 . S
C1329 H1305 0.951 . S
C1329 C1330 1.366 . S
C1329 C1331 1.388 . S
C1330 C1329 1.366 . S
C1330 C1334 1.385 . S
C1331 H1306 0.951 . S
C1331 C1329 1.388 . S
C1331 C1332 1.366 . S
C1332 C1331 1.366 . S
C1332 C1333 1.414 . S
C1332 C1335 1.499 . S
C1333 H1307 0.950 . S
C1333 C1332 1.414 . S
C1333 C1334 1.374 . S
C1334 H1308 0.950 . S
C1334 C1330 1.385 . S
C1334 C1333 1.374 . S
C1335 C1332 1.499 . S
C1335 C1336 1.373 . S
C1335 C1337 1.389 . S
C1336 H1309 0.950 . S
C1336 C1322 1.377 . S
C1336 C1335 1.373 . S
C1337 C1321 1.377 . S
C1337 C1335 1.389 . S
C1337 C1338 1.524 . S
C1338 C1337 1.524 . S
C1338 C1339 1.397 . S
C1338 C1343 1.363 . S
C1339 H1310 0.950 . S
C1339 C1338 1.397 . S
C1339 C1340 1.334 . S
C1340 H1311 0.950 . S
C1340 C1339 1.334 . S
C1340 C1341 1.287 . S
C1341 C1340 1.287 . S
C1341 C1342 1.524 . S
C1341 H1344 0.999 . S
C1342 H1312 0.950 . S
C1342 C1341 1.524 . S
C1342 C1343 1.415 . S
C1343 H1313 0.950 . S
C1343 C1338 1.363 . S
C1343 C1342 1.415 . S
H1344 C1341 0.999 . S
H1345 C1326 0.913 . S
H1346 C1364 0.951 . S
H1347 C1366 0.951 . S
H1348 C1368 0.950 . S
H1349 C1369 0.950 . S
H1350 C1371 0.950 . S
H1351 C1374 0.950 . S
H1352 C1375 0.950 . S
H1353 C1377 0.950 . S
H1354 C1378 0.950 . S
H1355 C1379 0.951 . S
H1356 C1381 0.951 . S
H1357 C1383 0.950 . S
H1358 C1384 0.950 . S
H1359 C1386 0.950 . S
H1360 C1389 0.950 . S
H1361 C1390 0.950 . S
H1362 C1392 0.950 . S
H1363 C1393 0.950 . S
C1364 H1346 0.951 . S
C1364 C1365 1.366 . S
C1364 C1366 1.388 . S
C1365 C1364 1.366 . S
C1365 C1369 1.385 . S
C1366 H1347 0.951 . S
C1366 C1364 1.388 . S
C1366 C1367 1.366 . S
C1367 C1366 1.366 . S
C1367 C1368 1.414 . S
C1367 C1370 1.499 . S
C1368 H1348 0.950 . S
C1368 C1367 1.414 . S
C1368 C1369 1.374 . S
C1369 H1349 0.950 . S
C1369 C1365 1.385 . S
C1369 C1368 1.374 . S
C1370 C1367 1.499 . S
C1370 C1371 1.373 . S
C1370 C1372 1.389 . S
C1371 H1350 0.950 . S
C1371 C1370 1.373 . S
C1371 C1387 1.377 . S
C1372 C1370 1.389 . S
C1372 C1373 1.524 . S
C1372 C1386 1.377 . S
C1373 C1372 1.524 . S
C1373 C1374 1.397 . S
C1373 C1378 1.363 . S
C1374 H1351 0.950 . S
C1374 C1373 1.397 . S
C1374 C1375 1.334 . S
C1375 H1352 0.950 . S
C1375 C1374 1.334 . S
C1375 C1376 1.287 . S
C1376 C1375 1.287 . S
C1376 C1377 1.524 . S
C1376 H1395 0.913 . S
C1377 H1353 0.950 . S
C1377 C1376 1.524 . S
C1377 C1378 1.415 . S
C1378 H1354 0.950 . S
C1378 C1373 1.363 . S
C1378 C1377 1.415 . S
C1379 H1355 0.951 . S
C1379 C1380 1.366 . S
C1379 C1381 1.388 . S
C1380 C1379 1.366 . S
C1380 C1384 1.385 . S
C1381 H1356 0.951 . S
C1381 C1379 1.388 . S
C1381 C1382 1.366 . S
C1382 C1381 1.366 . S
C1382 C1383 1.414 . S
C1382 C1385 1.499 . S
C1383 H1357 0.950 . S
C1383 C1382 1.414 . S
C1383 C1384 1.374 . S
C1384 H1358 0.950 . S
C1384 C1380 1.385 . S
C1384 C1383 1.374 . S
C1385 C1382 1.499 . S
C1385 C1386 1.373 . S
C1385 C1387 1.389 . S
C1386 H1359 0.950 . S
C1386 C1372 1.377 . S
C1386 C1385 1.373 . S
C1387 C1371 1.377 . S
C1387 C1385 1.389 . S
C1387 C1388 1.524 . S
C1388 C1387 1.524 . S
C1388 C1389 1.397 . S
C1388 C1393 1.363 . S
C1389 H1360 0.950 . S
C1389 C1388 1.397 . S
C1389 C1390 1.334 . S
C1390 H1361 0.950 . S
C1390 C1389 1.334 . S
C1390 C1391 1.287 . S
C1391 C1390 1.287 . S
C1391 C1392 1.524 . S
C1391 H1394 0.999 . S
C1392 H1362 0.950 . S
C1392 C1391 1.524 . S
C1392 C1393 1.415 . S
C1393 H1363 0.950 . S
C1393 C1388 1.363 . S
C1393 C1392 1.415 . S
H1394 C1391 0.999 . S
H1395 C1376 0.913 . S
H1396 C1414 0.951 . S
H1397 C1416 0.951 . S
H1398 C1418 0.950 . S
H1399 C1419 0.950 . S
H1400 C1421 0.950 . S
H1401 C1424 0.950 . S
H1402 C1425 0.950 . S
H1403 C1427 0.950 . S
H1404 C1428 0.950 . S
H1405 C1429 0.951 . S
H1406 C1431 0.951 . S
H1407 C1433 0.950 . S
H1408 C1434 0.950 . S
H1409 C1436 0.950 . S
H1410 C1439 0.950 . S
H1411 C1440 0.950 . S
H1412 C1442 0.950 . S
H1413 C1443 0.950 . S
C1414 H1396 0.951 . S
C1414 C1415 1.366 . S
C1414 C1416 1.388 . S
C1415 C1414 1.366 . S
C1415 C1419 1.385 . S
C1416 H1397 0.951 . S
C1416 C1414 1.388 . S
C1416 C1417 1.366 . S
C1417 C1416 1.366 . S
C1417 C1418 1.414 . S
C1417 C1420 1.499 . S
C1418 H1398 0.950 . S
C1418 C1417 1.414 . S
C1418 C1419 1.374 . S
C1419 H1399 0.950 . S
C1419 C1415 1.385 . S
C1419 C1418 1.374 . S
C1420 C1417 1.499 . S
C1420 C1421 1.373 . S
C1420 C1422 1.389 . S
C1421 H1400 0.950 . S
C1421 C1420 1.373 . S
C1421 C1437 1.377 . S
C1422 C1420 1.389 . S
C1422 C1423 1.524 . S
C1422 C1436 1.377 . S
C1423 C1422 1.524 . S
C1423 C1424 1.397 . S
C1423 C1428 1.363 . S
C1424 H1401 0.950 . S
C1424 C1423 1.397 . S
C1424 C1425 1.334 . S
C1425 H1402 0.950 . S
C1425 C1424 1.334 . S
C1425 C1426 1.287 . S
C1426 C1425 1.287 . S
C1426 C1427 1.524 . S
C1426 H1445 0.913 . S
C1427 H1403 0.950 . S
C1427 C1426 1.524 . S
C1427 C1428 1.415 . S
C1428 H1404 0.950 . S
C1428 C1423 1.363 . S
C1428 C1427 1.415 . S
C1429 H1405 0.951 . S
C1429 C1430 1.366 . S
C1429 C1431 1.388 . S
C1430 C1429 1.366 . S
C1430 C1434 1.385 . S
C1431 H1406 0.951 . S
C1431 C1429 1.388 . S
C1431 C1432 1.366 . S
C1432 C1431 1.366 . S
C1432 C1433 1.414 . S
C1432 C1435 1.499 . S
C1433 H1407 0.950 . S
C1433 C1432 1.414 . S
C1433 C1434 1.374 . S
C1434 H1408 0.950 . S
C1434 C1430 1.385 . S
C1434 C1433 1.374 . S
C1435 C1432 1.499 . S
C1435 C1436 1.373 . S
C1435 C1437 1.389 . S
C1436 H1409 0.950 . S
C1436 C1422 1.377 . S
C1436 C1435 1.373 . S
C1437 C1421 1.377 . S
C1437 C1435 1.389 . S
C1437 C1438 1.524 . S
C1438 C1437 1.524 . S
C1438 C1439 1.397 . S
C1438 C1443 1.363 . S
C1439 H1410 0.950 . S
C1439 C1438 1.397 . S
C1439 C1440 1.334 . S
C1440 H1411 0.950 . S
C1440 C1439 1.334 . S
C1440 C1441 1.287 . S
C1441 C1440 1.287 . S
C1441 C1442 1.524 . S
C1441 H1444 0.999 . S
C1442 H1412 0.950 . S
C1442 C1441 1.524 . S
C1442 C1443 1.415 . S
C1443 H1413 0.950 . S
C1443 C1438 1.363 . S
C1443 C1442 1.415 . S
H1444 C1441 0.999 . S
H1445 C1426 0.913 . S
H1446 C1464 0.951 . S
H1447 C1466 0.951 . S
H1448 C1468 0.950 . S
H1449 C1469 0.950 . S
H1450 C1471 0.950 . S
H1451 C1474 0.950 . S
H1452 C1475 0.950 . S
H1453 C1477 0.950 . S
H1454 C1478 0.950 . S
H1455 C1479 0.951 . S
H1456 C1481 0.951 . S
H1457 C1483 0.950 . S
H1458 C1484 0.950 . S
H1459 C1486 0.950 . S
H1460 C1489 0.950 . S
H1461 C1490 0.950 . S
H1462 C1492 0.950 . S
H1463 C1493 0.950 . S
C1464 H1446 0.951 . S
C1464 C1465 1.366 . S
C1464 C1466 1.388 . S
C1465 C1464 1.366 . S
C1465 C1469 1.385 . S
C1466 H1447 0.951 . S
C1466 C1464 1.388 . S
C1466 C1467 1.366 . S
C1467 C1466 1.366 . S
C1467 C1468 1.414 . S
C1467 C1470 1.499 . S
C1468 H1448 0.950 . S
C1468 C1467 1.414 . S
C1468 C1469 1.374 . S
C1469 H1449 0.950 . S
C1469 C1465 1.385 . S
C1469 C1468 1.374 . S
C1470 C1467 1.499 . S
C1470 C1471 1.373 . S
C1470 C1472 1.389 . S
C1471 H1450 0.950 . S
C1471 C1470 1.373 . S
C1471 C1487 1.377 . S
C1472 C1470 1.389 . S
C1472 C1473 1.524 . S
C1472 C1486 1.377 . S
C1473 C1472 1.524 . S
C1473 C1474 1.397 . S
C1473 C1478 1.363 . S
C1474 H1451 0.950 . S
C1474 C1473 1.397 . S
C1474 C1475 1.334 . S
C1475 H1452 0.950 . S
C1475 C1474 1.334 . S
C1475 C1476 1.287 . S
C1476 C1475 1.287 . S
C1476 C1477 1.524 . S
C1476 H1495 0.913 . S
C1477 H1453 0.950 . S
C1477 C1476 1.524 . S
C1477 C1478 1.415 . S
C1478 H1454 0.950 . S
C1478 C1473 1.363 . S
C1478 C1477 1.415 . S
C1479 H1455 0.951 . S
C1479 C1480 1.366 . S
C1479 C1481 1.388 . S
C1480 C1479 1.366 . S
C1480 C1484 1.385 . S
C1481 H1456 0.951 . S
C1481 C1479 1.388 . S
C1481 C1482 1.366 . S
C1482 C1481 1.366 . S
C1482 C1483 1.414 . S
C1482 C1485 1.499 . S
C1483 H1457 0.950 . S
C1483 C1482 1.414 . S
C1483 C1484 1.374 . S
C1484 H1458 0.950 . S
C1484 C1480 1.385 . S
C1484 C1483 1.374 . S
C1485 C1482 1.499 . S
C1485 C1486 1.373 . S
C1485 C1487 1.389 . S
C1486 H1459 0.950 . S
C1486 C1472 1.377 . S
C1486 C1485 1.373 . S
C1487 C1471 1.377 . S
C1487 C1485 1.389 . S
C1487 C1488 1.524 . S
C1488 C1487 1.524 . S
C1488 C1489 1.397 . S
C1488 C1493 1.363 . S
C1489 H1460 0.950 . S
C1489 C1488 1.397 . S
C1489 C1490 1.334 . S
C1490 H1461 0.950 . S
C1490 C1489 1.334 . S
C1490 C1491 1.287 . S
C1491 C1490 1.287 . S
C1491 C1492 1.524 . S
C1491 H1494 0.999 . S
C1492 H1462 0.950 . S
C1492 C1491 1.524 . S
C1492 C1493 1.415 . S
C1493 H1463 0.950 . S
C1493 C1488 1.363 . S
C1493 C1492 1.415 . S
H1494 C1491 0.999 . S
H1495 C1476 0.913 . S
H1496 C1514 0.951 . S
H1497 C1516 0.951 . S
H1498 C1518 0.950 . S
H1499 C1519 0.950 . S
H1500 C1521 0.950 . S
H1501 C1524 0.950 . S
H1502 C1525 0.950 . S
H1503 C1527 0.950 . S
H1504 C1528 0.950 . S
H1505 C1529 0.951 . S
H1506 C1531 0.951 . S
H1507 C1533 0.950 . S
H1508 C1534 0.950 . S
H1509 C1536 0.950 . S
H1510 C1539 0.950 . S
H1511 C1540 0.950 . S
H1512 C1542 0.950 . S
H1513 C1543 0.950 . S
C1514 H1496 0.951 . S
C1514 C1515 1.366 . S
C1514 C1516 1.388 . S
C1515 C1514 1.366 . S
C1515 C1519 1.385 . S
C1516 H1497 0.951 . S
C1516 C1514 1.388 . S
C1516 C1517 1.366 . S
C1517 C1516 1.366 . S
C1517 C1518 1.414 . S
C1517 C1520 1.499 . S
C1518 H1498 0.950 . S
C1518 C1517 1.414 . S
C1518 C1519 1.374 . S
C1519 H1499 0.950 . S
C1519 C1515 1.385 . S
C1519 C1518 1.374 . S
C1520 C1517 1.499 . S
C1520 C1521 1.373 . S
C1520 C1522 1.389 . S
C1521 H1500 0.950 . S
C1521 C1520 1.373 . S
C1521 C1537 1.377 . S
C1522 C1520 1.389 . S
C1522 C1523 1.524 . S
C1522 C1536 1.377 . S
C1523 C1522 1.524 . S
C1523 C1524 1.397 . S
C1523 C1528 1.363 . S
C1524 H1501 0.950 . S
C1524 C1523 1.397 . S
C1524 C1525 1.334 . S
C1525 H1502 0.950 . S
C1525 C1524 1.334 . S
C1525 C1526 1.287 . S
C1526 C1525 1.287 . S
C1526 C1527 1.524 . S
C1526 H1545 0.913 . S
C1527 H1503 0.950 . S
C1527 C1526 1.524 . S
C1527 C1528 1.415 . S
C1528 H1504 0.950 . S
C1528 C1523 1.363 . S
C1528 C1527 1.415 . S
C1529 H1505 0.951 . S
C1529 C1530 1.366 . S
C1529 C1531 1.388 . S
C1530 C1529 1.366 . S
C1530 C1534 1.385 . S
C1531 H1506 0.951 . S
C1531 C1529 1.388 . S
C1531 C1532 1.366 . S
C1532 C1531 1.366 . S
C1532 C1533 1.414 . S
C1532 C1535 1.499 . S
C1533 H1507 0.950 . S
C1533 C1532 1.414 . S
C1533 C1534 1.374 . S
C1534 H1508 0.950 . S
C1534 C1530 1.385 . S
C1534 C1533 1.374 . S
C1535 C1532 1.499 . S
C1535 C1536 1.373 . S
C1535 C1537 1.389 . S
C1536 H1509 0.950 . S
C1536 C1522 1.377 . S
C1536 C1535 1.373 . S
C1537 C1521 1.377 . S
C1537 C1535 1.389 . S
C1537 C1538 1.524 . S
C1538 C1537 1.524 . S
C1538 C1539 1.397 . S
C1538 C1543 1.363 . S
C1539 H1510 0.950 . S
C1539 C1538 1.397 . S
C1539 C1540 1.334 . S
C1540 H1511 0.950 . S
C1540 C1539 1.334 . S
C1540 C1541 1.287 . S
C1541 C1540 1.287 . S
C1541 C1542 1.524 . S
C1541 H1544 0.999 . S
C1542 H1512 0.950 . S
C1542 C1541 1.524 . S
C1542 C1543 1.415 . S
C1543 H1513 0.950 . S
C1543 C1538 1.363 . S
C1543 C1542 1.415 . S
H1544 C1541 0.999 . S
H1545 C1526 0.913 . S
H1546 C1564 0.951 . S
H1547 C1566 0.951 . S
H1548 C1568 0.950 . S
H1549 C1569 0.950 . S
H1550 C1571 0.950 . S
H1551 C1574 0.950 . S
H1552 C1575 0.950 . S
H1553 C1577 0.950 . S
H1554 C1578 0.950 . S
H1555 C1579 0.951 . S
H1556 C1581 0.951 . S
H1557 C1583 0.950 . S
H1558 C1584 0.950 . S
H1559 C1586 0.950 . S
H1560 C1589 0.950 . S
H1561 C1590 0.950 . S
H1562 C1592 0.950 . S
H1563 C1593 0.950 . S
C1564 H1546 0.951 . S
C1564 C1565 1.366 . S
C1564 C1566 1.388 . S
C1565 C1564 1.366 . S
C1565 C1569 1.385 . S
C1566 H1547 0.951 . S
C1566 C1564 1.388 . S
C1566 C1567 1.366 . S
C1567 C1566 1.366 . S
C1567 C1568 1.414 . S
C1567 C1570 1.499 . S
C1568 H1548 0.950 . S
C1568 C1567 1.414 . S
C1568 C1569 1.374 . S
C1569 H1549 0.950 . S
C1569 C1565 1.385 . S
C1569 C1568 1.374 . S
C1570 C1567 1.499 . S
C1570 C1571 1.373 . S
C1570 C1572 1.389 . S
C1571 H1550 0.950 . S
C1571 C1570 1.373 . S
C1571 C1587 1.377 . S
C1572 C1570 1.389 . S
C1572 C1573 1.524 . S
C1572 C1586 1.377 . S
C1573 C1572 1.524 . S
C1573 C1574 1.397 . S
C1573 C1578 1.363 . S
C1574 H1551 0.950 . S
C1574 C1573 1.397 . S
C1574 C1575 1.334 . S
C1575 H1552 0.950 . S
C1575 C1574 1.334 . S
C1575 C1576 1.287 . S
C1576 C1575 1.287 . S
C1576 C1577 1.524 . S
C1576 H1595 0.913 . S
C1577 H1553 0.950 . S
C1577 C1576 1.524 . S
C1577 C1578 1.415 . S
C1578 H1554 0.950 . S
C1578 C1573 1.363 . S
C1578 C1577 1.415 . S
C1579 H1555 0.951 . S
C1579 C1580 1.366 . S
C1579 C1581 1.388 . S
C1580 C1579 1.366 . S
C1580 C1584 1.385 . S
C1581 H1556 0.951 . S
C1581 C1579 1.388 . S
C1581 C1582 1.366 . S
C1582 C1581 1.366 . S
C1582 C1583 1.414 . S
C1582 C1585 1.499 . S
C1583 H1557 0.950 . S
C1583 C1582 1.414 . S
C1583 C1584 1.374 . S
C1584 H1558 0.950 . S
C1584 C1580 1.385 . S
C1584 C1583 1.374 . S
C1585 C1582 1.499 . S
C1585 C1586 1.373 . S
C1585 C1587 1.389 . S
C1586 H1559 0.950 . S
C1586 C1572 1.377 . S
C1586 C1585 1.373 . S
C1587 C1571 1.377 . S
C1587 C1585 1.389 . S
C1587 C1588 1.524 . S
C1588 C1587 1.524 . S
C1588 C1589 1.397 . S
C1588 C1593 1.363 . S
C1589 H1560 0.950 . S
C1589 C1588 1.397 . S
C1589 C1590 1.334 . S
C1590 H1561 0.950 . S
C1590 C1589 1.334 . S
C1590 C1591 1.287 . S
C1591 C1590 1.287 . S
C1591 C1592 1.524 . S
C1591 H1594 0.999 . S
C1592 H1562 0.950 . S
C1592 C1591 1.524 . S
C1592 C1593 1.415 . S
C1593 H1563 0.950 . S
C1593 C1588 1.363 . S
C1593 C1592 1.415 . S
H1594 C1591 0.999 . S
H1595 C1576 0.913 . S
H1596 C1614 0.951 . S
H1597 C1616 0.951 . S
H1598 C1618 0.950 . S
H1599 C1619 0.950 . S
H1600 C1621 0.950 . S
H1601 C1624 0.950 . S
H1602 C1625 0.950 . S
H1603 C1627 0.950 . S
H1604 C1628 0.950 . S
H1605 C1629 0.951 . S
H1606 C1631 0.951 . S
H1607 C1633 0.950 . S
H1608 C1634 0.950 . S
H1609 C1636 0.950 . S
H1610 C1639 0.950 . S
H1611 C1640 0.950 . S
H1612 C1642 0.950 . S
H1613 C1643 0.950 . S
C1614 H1596 0.951 . S
C1614 C1615 1.366 . S
C1614 C1616 1.388 . S
C1615 C1614 1.366 . S
C1615 C1619 1.385 . S
C1616 H1597 0.951 . S
C1616 C1614 1.388 . S
C1616 C1617 1.366 . S
C1617 C1616 1.366 . S
C1617 C1618 1.414 . S
C1617 C1620 1.499 . S
C1618 H1598 0.950 . S
C1618 C1617 1.414 . S
C1618 C1619 1.374 . S
C1619 H1599 0.950 . S
C1619 C1615 1.385 . S
C1619 C1618 1.374 . S
C1620 C1617 1.499 . S
C1620 C1621 1.373 . S
C1620 C1622 1.389 . S
C1621 H1600 0.950 . S
C1621 C1620 1.373 . S
C1621 C1637 1.377 . S
C1622 C1620 1.389 . S
C1622 C1623 1.524 . S
C1622 C1636 1.377 . S
C1623 C1622 1.524 . S
C1623 C1624 1.397 . S
C1623 C1628 1.363 . S
C1624 H1601 0.950 . S
C1624 C1623 1.397 . S
C1624 C1625 1.334 . S
C1625 H1602 0.950 . S
C1625 C1624 1.334 . S
C1625 C1626 1.287 . S
C1626 C1625 1.287 . S
C1626 C1627 1.524 . S
C1626 H1645 0.913 . S
C1627 H1603 0.950 . S
C1627 C1626 1.524 . S
C1627 C1628 1.415 . S
C1628 H1604 0.950 . S
C1628 C1623 1.363 . S
C1628 C1627 1.415 . S
C1629 H1605 0.951 . S
C1629 C1630 1.366 . S
C1629 C1631 1.388 . S
C1630 C1629 1.366 . S
C1630 C1634 1.385 . S
C1631 H1606 0.951 . S
C1631 C1629 1.388 . S
C1631 C1632 1.366 . S
C1632 C1631 1.366 . S
C1632 C1633 1.414 . S
C1632 C1635 1.499 . S
C1633 H1607 0.950 . S
C1633 C1632 1.414 . S
C1633 C1634 1.374 . S
C1634 H1608 0.950 . S
C1634 C1630 1.385 . S
C1634 C1633 1.374 . S
C1635 C1632 1.499 . S
C1635 C1636 1.373 . S
C1635 C1637 1.389 . S
C1636 H1609 0.950 . S
C1636 C1622 1.377 . S
C1636 C1635 1.373 . S
C1637 C1621 1.377 . S
C1637 C1635 1.389 . S
C1637 C1638 1.524 . S
C1638 C1637 1.524 . S
C1638 C1639 1.397 . S
C1638 C1643 1.363 . S
C1639 H1610 0.950 . S
C1639 C1638 1.397 . S
C1639 C1640 1.334 . S
C1640 H1611 0.950 . S
C1640 C1639 1.334 . S
C1640 C1641 1.287 . S
C1641 C1640 1.287 . S
C1641 C1642 1.524 . S
C1641 H1644 0.999 . S
C1642 H1612 0.950 . S
C1642 C1641 1.524 . S
C1642 C1643 1.415 . S
C1643 H1613 0.950 . S
C1643 C1638 1.363 . S
C1643 C1642 1.415 . S
H1644 C1641 0.999 . S
H1645 C1626 0.913 . S
H1646 C1664 0.951 . S
H1647 C1666 0.951 . S
H1648 C1668 0.950 . S
H1649 C1669 0.950 . S
H1650 C1671 0.950 . S
H1651 C1674 0.950 . S
H1652 C1675 0.950 . S
H1653 C1677 0.950 . S
H1654 C1678 0.950 . S
H1655 C1679 0.951 . S
H1656 C1681 0.951 . S
H1657 C1683 0.950 . S
H1658 C1684 0.950 . S
H1659 C1686 0.950 . S
H1660 C1689 0.950 . S
H1661 C1690 0.950 . S
H1662 C1692 0.950 . S
H1663 C1693 0.950 . S
C1664 H1646 0.951 . S
C1664 C1665 1.366 . S
C1664 C1666 1.388 . S
C1665 C1664 1.366 . S
C1665 C1669 1.385 . S
C1666 H1647 0.951 . S
C1666 C1664 1.388 . S
C1666 C1667 1.366 . S
C1667 C1666 1.366 . S
C1667 C1668 1.414 . S
C1667 C1670 1.499 . S
C1668 H1648 0.950 . S
C1668 C1667 1.414 . S
C1668 C1669 1.374 . S
C1669 H1649 0.950 . S
C1669 C1665 1.385 . S
C1669 C1668 1.374 . S
C1670 C1667 1.499 . S
C1670 C1671 1.373 . S
C1670 C1672 1.389 . S
C1671 H1650 0.950 . S
C1671 C1670 1.373 . S
C1671 C1687 1.377 . S
C1672 C1670 1.389 . S
C1672 C1673 1.524 . S
C1672 C1686 1.377 . S
C1673 C1672 1.524 . S
C1673 C1674 1.397 . S
C1673 C1678 1.363 . S
C1674 H1651 0.950 . S
C1674 C1673 1.397 . S
C1674 C1675 1.334 . S
C1675 H1652 0.950 . S
C1675 C1674 1.334 . S
C1675 C1676 1.287 . S
C1676 C1675 1.287 . S
C1676 C1677 1.524 . S
C1676 H1695 0.913 . S
C1677 H1653 0.950 . S
C1677 C1676 1.524 . S
C1677 C1678 1.415 . S
C1678 H1654 0.950 . S
C1678 C1673 1.363 . S
C1678 C1677 1.415 . S
C1679 H1655 0.951 . S
C1679 C1680 1.366 . S
C1679 C1681 1.388 . S
C1680 C1679 1.366 . S
C1680 C1684 1.385 . S
C1681 H1656 0.951 . S
C1681 C1679 1.388 . S
C1681 C1682 1.366 . S
C1682 C1681 1.366 . S
C1682 C1683 1.414 . S
C1682 C1685 1.499 . S
C1683 H1657 0.950 . S
C1683 C1682 1.414 . S
C1683 C1684 1.374 . S
C1684 H1658 0.950 . S
C1684 C1680 1.385 . S
C1684 C1683 1.374 . S
C1685 C1682 1.499 . S
C1685 C1686 1.373 . S
C1685 C1687 1.389 . S
C1686 H1659 0.950 . S
C1686 C1672 1.377 . S
C1686 C1685 1.373 . S
C1687 C1671 1.377 . S
C1687 C1685 1.389 . S
C1687 C1688 1.524 . S
C1688 C1687 1.524 . S
C1688 C1689 1.397 . S
C1688 C1693 1.363 . S
C1689 H1660 0.950 . S
C1689 C1688 1.397 . S
C1689 C1690 1.334 . S
C1690 H1661 0.950 . S
C1690 C1689 1.334 . S
C1690 C1691 1.287 . S
C1691 C1690 1.287 . S
C1691 C1692 1.524 . S
C1691 H1694 0.999 . S
C1692 H1662 0.950 . S
C1692 C1691 1.524 . S
C1692 C1693 1.415 . S
C1693 H1663 0.950 . S
C1693 C1688 1.363 . S
C1693 C1692 1.415 . S
H1694 C1691 0.999 . S
H1695 C1676 0.913 . S
H1696 C1714 0.951 . S
H1697 C1716 0.951 . S
H1698 C1718 0.950 . S
H1699 C1719 0.950 . S
H1700 C1721 0.950 . S
H1701 C1724 0.950 . S
H1702 C1725 0.950 . S
H1703 C1727 0.950 . S
H1704 C1728 0.950 . S
H1705 C1729 0.951 . S
H1706 C1731 0.951 . S
H1707 C1733 0.950 . S
H1708 C1734 0.950 . S
H1709 C1736 0.950 . S
H1710 C1739 0.950 . S
H1711 C1740 0.950 . S
H1712 C1742 0.950 . S
H1713 C1743 0.950 . S
C1714 H1696 0.951 . S
C1714 C1715 1.366 . S
C1714 C1716 1.388 . S
C1715 C1714 1.366 . S
C1715 C1719 1.385 . S
C1716 H1697 0.951 . S
C1716 C1714 1.388 . S
C1716 C1717 1.366 . S
C1717 C1716 1.366 . S
C1717 C1718 1.414 . S
C1717 C1720 1.499 . S
C1718 H1698 0.950 . S
C1718 C1717 1.414 . S
C1718 C1719 1.374 . S
C1719 H1699 0.950 . S
C1719 C1715 1.385 . S
C1719 C1718 1.374 . S
C1720 C1717 1.499 . S
C1720 C1721 1.373 . S
C1720 C1722 1.389 . S
C1721 H1700 0.950 . S
C1721 C1720 1.373 . S
C1721 C1737 1.377 . S
C1722 C1720 1.389 . S
C1722 C1723 1.524 . S
C1722 C1736 1.377 . S
C1723 C1722 1.524 . S
C1723 C1724 1.397 . S
C1723 C1728 1.363 . S
C1724 H1701 0.950 . S
C1724 C1723 1.397 . S
C1724 C1725 1.334 . S
C1725 H1702 0.950 . S
C1725 C1724 1.334 . S
C1725 C1726 1.287 . S
C1726 C1725 1.287 . S
C1726 C1727 1.524 . S
C1726 H1745 0.913 . S
C1727 H1703 0.950 . S
C1727 C1726 1.524 . S
C1727 C1728 1.415 . S
C1728 H1704 0.950 . S
C1728 C1723 1.363 . S
C1728 C1727 1.415 . S
C1729 H1705 0.951 . S
C1729 C1730 1.366 . S
C1729 C1731 1.388 . S
C1730 C1729 1.366 . S
C1730 C1734 1.385 . S
C1731 H1706 0.951 . S
C1731 C1729 1.388 . S
C1731 C1732 1.366 . S
C1732 C1731 1.366 . S
C1732 C1733 1.414 . S
C1732 C1735 1.499 . S
C1733 H1707 0.950 . S
C1733 C1732 1.414 . S
C1733 C1734 1.374 . S
C1734 H1708 0.950 . S
C1734 C1730 1.385 . S
C1734 C1733 1.374 . S
C1735 C1732 1.499 . S
C1735 C1736 1.373 . S
C1735 C1737 1.389 . S
C1736 H1709 0.950 . S
C1736 C1722 1.377 . S
C1736 C1735 1.373 . S
C1737 C1721 1.377 . S
C1737 C1735 1.389 . S
C1737 C1738 1.524 . S
C1738 C1737 1.524 . S
C1738 C1739 1.397 . S
C1738 C1743 1.363 . S
C1739 H1710 0.950 . S
C1739 C1738 1.397 . S
C1739 C1740 1.334 . S
C1740 H1711 0.950 . S
C1740 C1739 1.334 . S
C1740 C1741 1.287 . S
C1741 C1740 1.287 . S
C1741 C1742 1.524 . S
C1741 H1744 0.999 . S
C1742 H1712 0.950 . S
C1742 C1741 1.524 . S
C1742 C1743 1.415 . S
C1743 H1713 0.950 . S
C1743 C1738 1.363 . S
C1743 C1742 1.415 . S
H1744 C1741 0.999 . S
H1745 C1726 0.913 . S
H1746 C1764 0.951 . S
H1747 C1766 0.951 . S
H1748 C1768 0.950 . S
H1749 C1769 0.950 . S
H1750 C1771 0.950 . S
H1751 C1774 0.950 . S
H1752 C1775 0.950 . S
H1753 C1777 0.950 . S
H1754 C1778 0.950 . S
H1755 C1779 0.951 . S
H1756 C1781 0.951 . S
H1757 C1783 0.950 . S
H1758 C1784 0.950 . S
H1759 C1786 0.950 . S
H1760 C1789 0.950 . S
H1761 C1790 0.950 . S
H1762 C1792 0.950 . S
H1763 C1793 0.950 . S
C1764 H1746 0.951 . S
C1764 C1765 1.366 . S
C1764 C1766 1.388 . S
C1765 C1764 1.366 . S
C1765 C1769 1.385 . S
C1766 H1747 0.951 . S
C1766 C1764 1.388 . S
C1766 C1767 1.366 . S
C1767 C1766 1.366 . S
C1767 C1768 1.414 . S
C1767 C1770 1.499 . S
C1768 H1748 0.950 . S
C1768 C1767 1.414 . S
C1768 C1769 1.374 . S
C1769 H1749 0.950 . S
C1769 C1765 1.385 . S
C1769 C1768 1.374 . S
C1770 C1767 1.499 . S
C1770 C1771 1.373 . S
C1770 C1772 1.389 . S
C1771 H1750 0.950 . S
C1771 C1770 1.373 . S
C1771 C1787 1.377 . S
C1772 C1770 1.389 . S
C1772 C1773 1.524 . S
C1772 C1786 1.377 . S
C1773 C1772 1.524 . S
C1773 C1774 1.397 . S
C1773 C1778 1.363 . S
C1774 H1751 0.950 . S
C1774 C1773 1.397 . S
C1774 C1775 1.334 . S
C1775 H1752 0.950 . S
C1775 C1774 1.334 . S
C1775 C1776 1.287 . S
C1776 C1775 1.287 . S
C1776 C1777 1.524 . S
C1776 H1795 0.913 . S
C1777 H1753 0.950 . S
C1777 C1776 1.524 . S
C1777 C1778 1.415 . S
C1778 H1754 0.950 . S
C1778 C1773 1.363 . S
C1778 C1777 1.415 . S
C1779 H1755 0.951 . S
C1779 C1780 1.366 . S
C1779 C1781 1.388 . S
C1780 C1779 1.366 . S
C1780 C1784 1.385 . S
C1781 H1756 0.951 . S
C1781 C1779 1.388 . S
C1781 C1782 1.366 . S
C1782 C1781 1.366 . S
C1782 C1783 1.414 . S
C1782 C1785 1.499 . S
C1783 H1757 0.950 . S
C1783 C1782 1.414 . S
C1783 C1784 1.374 . S
C1784 H1758 0.950 . S
C1784 C1780 1.385 . S
C1784 C1783 1.374 . S
C1785 C1782 1.499 . S
C1785 C1786 1.373 . S
C1785 C1787 1.389 . S
C1786 H1759 0.950 . S
C1786 C1772 1.377 . S
C1786 C1785 1.373 . S
C1787 C1771 1.377 . S
C1787 C1785 1.389 . S
C1787 C1788 1.524 . S
C1788 C1787 1.524 . S
C1788 C1789 1.397 . S
C1788 C1793 1.363 . S
C1789 H1760 0.950 . S
C1789 C1788 1.397 . S
C1789 C1790 1.334 . S
C1790 H1761 0.950 . S
C1790 C1789 1.334 . S
C1790 C1791 1.287 . S
C1791 C1790 1.287 . S
C1791 C1792 1.524 . S
C1791 H1794 0.999 . S
C1792 H1762 0.950 . S
C1792 C1791 1.524 . S
C1792 C1793 1.415 . S
C1793 H1763 0.950 . S
C1793 C1788 1.363 . S
C1793 C1792 1.415 . S
H1794 C1791 0.999 . S
H1795 C1776 0.913 . S
H1796 C1814 0.951 . S
H1797 C1816 0.951 . S
H1798 C1818 0.950 . S
H1799 C1819 0.950 . S
H1800 C1821 0.950 . S
H1801 C1824 0.950 . S
H1802 C1825 0.950 . S
H1803 C1827 0.950 . S
H1804 C1828 0.950 . S
H1805 C1829 0.951 . S
H1806 C1831 0.951 . S
H1807 C1833 0.950 . S
H1808 C1834 0.950 . S
H1809 C1836 0.950 . S
H1810 C1839 0.950 . S
H1811 C1840 0.950 . S
H1812 C1842 0.950 . S
H1813 C1843 0.950 . S
C1814 H1796 0.951 . S
C1814 C1815 1.366 . S
C1814 C1816 1.388 . S
C1815 C1814 1.366 . S
C1815 C1819 1.385 . S
C1816 H1797 0.951 . S
C1816 C1814 1.388 . S
C1816 C1817 1.366 . S
C1817 C1816 1.366 . S
C1817 C1818 1.414 . S
C1817 C1820 1.499 . S
C1818 H1798 0.950 . S
C1818 C1817 1.414 . S
C1818 C1819 1.374 . S
C1819 H1799 0.950 . S
C1819 C1815 1.385 . S
C1819 C1818 1.374 . S
C1820 C1817 1.499 . S
C1820 C1821 1.373 . S
C1820 C1822 1.389 . S
C1821 H1800 0.950 . S
C1821 C1820 1.373 . S
C1821 C1837 1.377 . S
C1822 C1820 1.389 . S
C1822 C1823 1.524 . S
C1822 C1836 1.377 . S
C1823 C1822 1.524 . S
C1823 C1824 1.397 . S
C1823 C1828 1.363 . S
C1824 H1801 0.950 . S
C1824 C1823 1.397 . S
C1824 C1825 1.334 . S
C1825 H1802 0.950 . S
C1825 C1824 1.334 . S
C1825 C1826 1.287 . S
C1826 C1825 1.287 . S
C1826 C1827 1.524 . S
C1826 H1845 0.913 . S
C1827 H1803 0.950 . S
C1827 C1826 1.524 . S
C1827 C1828 1.415 . S
C1828 H1804 0.950 . S
C1828 C1823 1.363 . S
C1828 C1827 1.415 . S
C1829 H1805 0.951 . S
C1829 C1830 1.366 . S
C1829 C1831 1.388 . S
C1830 C1829 1.366 . S
C1830 C1834 1.385 . S
C1831 H1806 0.951 . S
C1831 C1829 1.388 . S
C1831 C1832 1.366 . S
C1832 C1831 1.366 . S
C1832 C1833 1.414 . S
C1832 C1835 1.499 . S
C1833 H1807 0.950 . S
C1833 C1832 1.414 . S
C1833 C1834 1.374 . S
C1834 H1808 0.950 . S
C1834 C1830 1.385 . S
C1834 C1833 1.374 . S
C1835 C1832 1.499 . S
C1835 C1836 1.373 . S
C1835 C1837 1.389 . S
C1836 H1809 0.950 . S
C1836 C1822 1.377 . S
C1836 C1835 1.373 . S
C1837 C1821 1.377 . S
C1837 C1835 1.389 . S
C1837 C1838 1.524 . S
C1838 C1837 1.524 . S
C1838 C1839 1.397 . S
C1838 C1843 1.363 . S
C1839 H1810 0.950 . S
C1839 C1838 1.397 . S
C1839 C1840 1.334 . S
C1840 H1811 0.950 . S
C1840 C1839 1.334 . S
C1840 C1841 1.287 . S
C1841 C1840 1.287 . S
C1841 C1842 1.524 . S
C1841 H1844 0.999 . S
C1842 H1812 0.950 . S
C1842 C1841 1.524 . S
C1842 C1843 1.415 . S
C1843 H1813 0.950 . S
C1843 C1838 1.363 . S
C1843 C1842 1.415 . S
H1844 C1841 0.999 . S
H1845 C1826 0.913 . S
H1846 C1864 0.951 . S
H1847 C1866 0.951 . S
H1848 C1868 0.950 . S
H1849 C1869 0.950 . S
H1850 C1871 0.950 . S
H1851 C1874 0.950 . S
H1852 C1875 0.950 . S
H1853 C1877 0.950 . S
H1854 C1878 0.950 . S
H1855 C1879 0.951 . S
H1856 C1881 0.951 . S
H1857 C1883 0.950 . S
H1858 C1884 0.950 . S
H1859 C1886 0.950 . S
H1860 C1889 0.950 . S
H1861 C1890 0.950 . S
H1862 C1892 0.950 . S
H1863 C1893 0.950 . S
C1864 H1846 0.951 . S
C1864 C1865 1.366 . S
C1864 C1866 1.388 . S
C1865 C1864 1.366 . S
C1865 C1869 1.385 . S
C1866 H1847 0.951 . S
C1866 C1864 1.388 . S
C1866 C1867 1.366 . S
C1867 C1866 1.366 . S
C1867 C1868 1.414 . S
C1867 C1870 1.499 . S
C1868 H1848 0.950 . S
C1868 C1867 1.414 . S
C1868 C1869 1.374 . S
C1869 H1849 0.950 . S
C1869 C1865 1.385 . S
C1869 C1868 1.374 . S
C1870 C1867 1.499 . S
C1870 C1871 1.373 . S
C1870 C1872 1.389 . S
C1871 H1850 0.950 . S
C1871 C1870 1.373 . S
C1871 C1887 1.377 . S
C1872 C1870 1.389 . S
C1872 C1873 1.524 . S
C1872 C1886 1.377 . S
C1873 C1872 1.524 . S
C1873 C1874 1.397 . S
C1873 C1878 1.363 . S
C1874 H1851 0.950 . S
C1874 C1873 1.397 . S
C1874 C1875 1.334 . S
C1875 H1852 0.950 . S
C1875 C1874 1.334 . S
C1875 C1876 1.287 . S
C1876 C1875 1.287 . S
C1876 C1877 1.524 . S
C1876 H1895 0.913 . S
C1877 H1853 0.950 . S
C1877 C1876 1.524 . S
C1877 C1878 1.415 . S
C1878 H1854 0.950 . S
C1878 C1873 1.363 . S
C1878 C1877 1.415 . S
C1879 H1855 0.951 . S
C1879 C1880 1.366 . S
C1879 C1881 1.388 . S
C1880 C1879 1.366 . S
C1880 C1884 1.385 . S
C1881 H1856 0.951 . S
C1881 C1879 1.388 . S
C1881 C1882 1.366 . S
C1882 C1881 1.366 . S
C1882 C1883 1.414 . S
C1882 C1885 1.499 . S
C1883 H1857 0.950 . S
C1883 C1882 1.414 . S
C1883 C1884 1.374 . S
C1884 H1858 0.950 . S
C1884 C1880 1.385 . S
C1884 C1883 1.374 . S
C1885 C1882 1.499 . S
C1885 C1886 1.373 . S
C1885 C1887 1.389 . S
C1886 H1859 0.950 . S
C1886 C1872 1.377 . S
C1886 C1885 1.373 . S
C1887 C1871 1.377 . S
C1887 C1885 1.389 . S
C1887 C1888 1.524 . S
C1888 C1887 1.524 . S
C1888 C1889 1.397 . S
C1888 C1893 1.363 . S
C1889 H1860 0.950 . S
C1889 C1888 1.397 . S
C1889 C1890 1.334 . S
C1890 H1861 0.950 . S
C1890 C1889 1.334 . S
C1890 C1891 1.287 . S
C1891 C1890 1.287 . S
C1891 C1892 1.524 . S
C1891 H1894 0.999 . S
C1892 H1862 0.950 . S
C1892 C1891 1.524 . S
C1892 C1893 1.415 . S
C1893 H1863 0.950 . S
C1893 C1888 1.363 . S
C1893 C1892 1.415 . S
H1894 C1891 0.999 . S
H1895 C1876 0.913 . S
H1896 C1914 0.951 . S
H1897 C1916 0.951 . S
H1898 C1918 0.950 . S
H1899 C1919 0.950 . S
H1900 C1921 0.950 . S
H1901 C1924 0.950 . S
H1902 C1925 0.950 . S
H1903 C1927 0.950 . S
H1904 C1928 0.950 . S
H1905 C1929 0.951 . S
H1906 C1931 0.951 . S
H1907 C1933 0.950 . S
H1908 C1934 0.950 . S
H1909 C1936 0.950 . S
H1910 C1939 0.950 . S
H1911 C1940 0.950 . S
H1912 C1942 0.950 . S
H1913 C1943 0.950 . S
C1914 H1896 0.951 . S
C1914 C1915 1.366 . S
C1914 C1916 1.388 . S
C1915 C1914 1.366 . S
C1915 C1919 1.385 . S
C1916 H1897 0.951 . S
C1916 C1914 1.388 . S
C1916 C1917 1.366 . S
C1917 C1916 1.366 . S
C1917 C1918 1.414 . S
C1917 C1920 1.499 . S
C1918 H1898 0.950 . S
C1918 C1917 1.414 . S
C1918 C1919 1.374 . S
C1919 H1899 0.950 . S
C1919 C1915 1.385 . S
C1919 C1918 1.374 . S
C1920 C1917 1.499 . S
C1920 C1921 1.373 . S
C1920 C1922 1.389 . S
C1921 H1900 0.950 . S
C1921 C1920 1.373 . S
C1921 C1937 1.377 . S
C1922 C1920 1.389 . S
C1922 C1923 1.524 . S
C1922 C1936 1.377 . S
C1923 C1922 1.524 . S
C1923 C1924 1.397 . S
C1923 C1928 1.363 . S
C1924 H1901 0.950 . S
C1924 C1923 1.397 . S
C1924 C1925 1.334 . S
C1925 H1902 0.950 . S
C1925 C1924 1.334 . S
C1925 C1926 1.287 . S
C1926 C1925 1.287 . S
C1926 C1927 1.524 . S
C1926 H1945 0.913 . S
C1927 H1903 0.950 . S
C1927 C1926 1.524 . S
C1927 C1928 1.415 . S
C1928 H1904 0.950 . S
C1928 C1923 1.363 . S
C1928 C1927 1.415 . S
C1929 H1905 0.951 . S
C1929 C1930 1.366 . S
C1929 C1931 1.388 . S
C1930 C1929 1.366 . S
C1930 C1934 1.385 . S
C1931 H1906 0.951 . S
C1931 C1929 1.388 . S
C1931 C1932 1.366 . S
C1932 C1931 1.366 . S
C1932 C1933 1.414 . S
C1932 C1935 1.499 . S
C1933 H1907 0.950 . S
C1933 C1932 1.414 . S
C1933 C1934 1.374 . S
C1934 H1908 0.950 . S
C1934 C1930 1.385 . S
C1934 C1933 1.374 . S
C1935 C1932 1.499 . S
C1935 C1936 1.373 . S
C1935 C1937 1.389 . S
C1936 H1909 0.950 . S
C1936 C1922 1.377 . S
C1936 C1935 1.373 . S
C1937 C1921 1.377 . S
C1937 C1935 1.389 . S
C1937 C1938 1.524 . S
C1938 C1937 1.524 . S
C1938 C1939 1.397 . S
C1938 C1943 1.363 . S
C1939 H1910 0.950 . S
C1939 C1938 1.397 . S
C1939 C1940 1.334 . S
C1940 H1911 0.950 . S
C1940 C1939 1.334 . S
C1940 C1941 1.287 . S
C1941 C1940 1.287 . S
C1941 C1942 1.524 . S
C1941 H1944 0.999 . S
C1942 H1912 0.950 . S
C1942 C1941 1.524 . S
C1942 C1943 1.415 . S
C1943 H1913 0.950 . S
C1943 C1938 1.363 . S
C1943 C1942 1.415 . S
H1944 C1941 0.999 . S
H1945 C1926 0.913 . S
H1946 C1964 0.951 . S
H1947 C1966 0.951 . S
H1948 C1968 0.950 . S
H1949 C1969 0.950 . S
H1950 C1971 0.950 . S
H1951 C1974 0.950 . S
H1952 C1975 0.950 . S
H1953 C1977 0.950 . S
H1954 C1978 0.950 . S
H1955 C1979 0.951 . S
H1956 C1981 0.951 . S
H1957 C1983 0.950 . S
H1958 C1984 0.950 . S
H1959 C1986 0.950 . S
H1960 C1989 0.950 . S
H1961 C1990 0.950 . S
H1962 C1992 0.950 . S
H1963 C1993 0.950 . S
C1964 H1946 0.951 . S
C1964 C1965 1.366 . S
C1964 C1966 1.388 . S
C1965 C1964 1.366 . S
C1965 C1969 1.385 . S
C1966 H1947 0.951 . S
C1966 C1964 1.388 . S
C1966 C1967 1.366 . S
C1967 C1966 1.366 . S
C1967 C1968 1.414 . S
C1967 C1970 1.499 . S
C1968 H1948 0.950 . S
C1968 C1967 1.414 . S
C1968 C1969 1.374 . S
C1969 H1949 0.950 . S
C1969 C1965 1.385 . S
C1969 C1968 1.374 . S
C1970 C1967 1.499 . S
C1970 C1971 1.373 . S
C1970 C1972 1.389 . S
C1971 H1950 0.950 . S
C1971 C1970 1.373 . S
C1971 C1987 1.377 . S
C1972 C1970 1.389 . S
C1972 C1973 1.524 . S
C1972 C1986 1.377 . S
C1973 C1972 1.524 . S
C1973 C1974 1.397 . S
C1973 C1978 1.363 . S
C1974 H1951 0.950 . S
C1974 C1973 1.397 . S
C1974 C1975 1.334 . S
C1975 H1952 0.950 . S
C1975 C1974 1.334 . S
C1975 C1976 1.287 . S
C1976 C1975 1.287 . S
C1976 C1977 1.524 . S
C1976 H1995 0.913 1_655 S
C1977 H1953 0.950 . S
C1977 C1976 1.524 . S
C1977 C1978 1.415 . S
C1978 H1954 0.950 . S
C1978 C1973 1.363 . S
C1978 C1977 1.415 . S
C1979 H1955 0.951 . S
C1979 C1980 1.366 . S
C1979 C1981 1.388 . S
C1980 C1979 1.366 . S
C1980 C1984 1.385 . S
C1981 H1956 0.951 . S
C1981 C1979 1.388 . S
C1981 C1982 1.366 . S
C1982 C1981 1.366 . S
C1982 C1983 1.414 . S
C1982 C1985 1.499 . S
C1983 H1957 0.950 . S
C1983 C1982 1.414 . S
C1983 C1984 1.374 . S
C1984 H1958 0.950 . S
C1984 C1980 1.385 . S
C1984 C1983 1.374 . S
C1985 C1982 1.499 . S
C1985 C1986 1.373 . S
C1985 C1987 1.389 . S
C1986 H1959 0.950 . S
C1986 C1972 1.377 . S
C1986 C1985 1.373 . S
C1987 C1971 1.377 . S
C1987 C1985 1.389 . S
C1987 C1988 1.524 . S
C1988 C1987 1.524 . S
C1988 C1989 1.397 . S
C1988 C1993 1.363 . S
C1989 H1960 0.950 . S
C1989 C1988 1.397 . S
C1989 C1990 1.334 . S
C1990 H1961 0.950 . S
C1990 C1989 1.334 . S
C1990 C1991 1.287 . S
C1991 C1990 1.287 . S
C1991 C1992 1.524 . S
C1991 H1994 0.999 . S
C1992 H1962 0.950 . S
C1992 C1991 1.524 . S
C1992 C1993 1.415 . S
C1993 H1963 0.950 . S
C1993 C1988 1.363 . S
C1993 C1992 1.415 . S
H1994 C1991 0.999 . S
H1995 C1976 0.913 1_455 S
H1996 C2014 0.951 . S
H1997 C2016 0.951 . S
H1998 C2018 0.950 . S
H1999 C2019 0.950 . S
H2000 C2021 0.950 . S
H2001 C2024 0.950 . S
H2002 C2025 0.950 . S
H2003 C2027 0.950 . S
H2004 C2028 0.950 . S
H2005 C2029 0.951 . S
H2006 C2031 0.951 . S
H2007 C2033 0.950 . S
H2008 C2034 0.950 . S
H2009 C2036 0.950 . S
H2010 C2039 0.950 . S
H2011 C2040 0.950 . S
H2012 C2042 0.950 . S
H2013 C2043 0.950 . S
C2014 H1996 0.951 . S
C2014 C2015 1.366 . S
C2014 C2016 1.388 . S
C2015 C2014 1.366 . S
C2015 C2019 1.385 . S
C2016 H1997 0.951 . S
C2016 C2014 1.388 . S
C2016 C2017 1.366 . S
C2017 C2016 1.366 . S
C2017 C2018 1.414 . S
C2017 C2020 1.499 . S
C2018 H1998 0.950 . S
C2018 C2017 1.414 . S
C2018 C2019 1.374 . S
C2019 H1999 0.950 . S
C2019 C2015 1.385 . S
C2019 C2018 1.374 . S
C2020 C2017 1.499 . S
C2020 C2021 1.373 . S
C2020 C2022 1.389 . S
C2021 H2000 0.950 . S
C2021 C2020 1.373 . S
C2021 C2037 1.377 . S
C2022 C2020 1.389 . S
C2022 C2023 1.524 . S
C2022 C2036 1.377 . S
C2023 C2022 1.524 . S
C2023 C2024 1.397 . S
C2023 C2028 1.363 . S
C2024 H2001 0.950 . S
C2024 C2023 1.397 . S
C2024 C2025 1.334 . S
C2025 H2002 0.950 . S
C2025 C2024 1.334 . S
C2025 C2026 1.287 . S
C2026 C2025 1.287 . S
C2026 C2027 1.524 . S
C2026 H2045 0.913 . S
C2027 H2003 0.950 . S
C2027 C2026 1.524 . S
C2027 C2028 1.415 . S
C2028 H2004 0.950 . S
C2028 C2023 1.363 . S
C2028 C2027 1.415 . S
C2029 H2005 0.951 . S
C2029 C2030 1.366 . S
C2029 C2031 1.388 . S
C2030 C2029 1.366 . S
C2030 C2034 1.385 . S
C2031 H2006 0.951 . S
C2031 C2029 1.388 . S
C2031 C2032 1.366 . S
C2032 C2031 1.366 . S
C2032 C2033 1.414 . S
C2032 C2035 1.499 . S
C2033 H2007 0.950 . S
C2033 C2032 1.414 . S
C2033 C2034 1.374 . S
C2034 H2008 0.950 . S
C2034 C2030 1.385 . S
C2034 C2033 1.374 . S
C2035 C2032 1.499 . S
C2035 C2036 1.373 . S
C2035 C2037 1.389 . S
C2036 H2009 0.950 . S
C2036 C2022 1.377 . S
C2036 C2035 1.373 . S
C2037 C2021 1.377 . S
C2037 C2035 1.389 . S
C2037 C2038 1.524 . S
C2038 C2037 1.524 . S
C2038 C2039 1.397 . S
C2038 C2043 1.363 . S
C2039 H2010 0.950 . S
C2039 C2038 1.397 . S
C2039 C2040 1.334 . S
C2040 H2011 0.950 . S
C2040 C2039 1.334 . S
C2040 C2041 1.287 . S
C2041 C2040 1.287 . S
C2041 C2042 1.524 . S
C2041 H2044 0.999 . S
C2042 H2012 0.950 . S
C2042 C2041 1.524 . S
C2042 C2043 1.415 . S
C2043 H2013 0.950 . S
C2043 C2038 1.363 . S
C2043 C2042 1.415 . S
H2044 C2041 0.999 . S
H2045 C2026 0.913 . S
H2046 C2064 0.951 . S
H2047 C2066 0.951 . S
H2048 C2068 0.950 . S
H2049 C2069 0.950 . S
H2050 C2071 0.950 . S
H2051 C2074 0.950 . S
H2052 C2075 0.950 . S
H2053 C2077 0.950 . S
H2054 C2078 0.950 . S
H2055 C2079 0.951 . S
H2056 C2081 0.951 . S
H2057 C2083 0.950 . S
H2058 C2084 0.950 . S
H2059 C2086 0.950 . S
H2060 C2089 0.950 . S
H2061 C2090 0.950 . S
H2062 C2092 0.950 . S
H2063 C2093 0.950 . S
C2064 H2046 0.951 . S
C2064 C2065 1.366 . S
C2064 C2066 1.388 . S
C2065 C2064 1.366 . S
C2065 C2069 1.385 . S
C2066 H2047 0.951 . S
C2066 C2064 1.388 . S
C2066 C2067 1.366 . S
C2067 C2066 1.366 . S
C2067 C2068 1.414 . S
C2067 C2070 1.499 . S
C2068 H2048 0.950 . S
C2068 C2067 1.414 . S
C2068 C2069 1.374 . S
C2069 H2049 0.950 . S
C2069 C2065 1.385 . S
C2069 C2068 1.374 . S
C2070 C2067 1.499 . S
C2070 C2071 1.373 . S
C2070 C2072 1.389 . S
C2071 H2050 0.950 . S
C2071 C2070 1.373 . S
C2071 C2087 1.377 . S
C2072 C2070 1.389 . S
C2072 C2073 1.524 . S
C2072 C2086 1.377 . S
C2073 C2072 1.524 . S
C2073 C2074 1.397 . S
C2073 C2078 1.363 . S
C2074 H2051 0.950 . S
C2074 C2073 1.397 . S
C2074 C2075 1.334 . S
C2075 H2052 0.950 . S
C2075 C2074 1.334 . S
C2075 C2076 1.287 . S
C2076 C2075 1.287 . S
C2076 C2077 1.524 . S
C2076 H2095 0.913 . S
C2077 H2053 0.950 . S
C2077 C2076 1.524 . S
C2077 C2078 1.415 . S
C2078 H2054 0.950 . S
C2078 C2073 1.363 . S
C2078 C2077 1.415 . S
C2079 H2055 0.951 . S
C2079 C2080 1.366 . S
C2079 C2081 1.388 . S
C2080 C2079 1.366 . S
C2080 C2084 1.385 . S
C2081 H2056 0.951 . S
C2081 C2079 1.388 . S
C2081 C2082 1.366 . S
C2082 C2081 1.366 . S
C2082 C2083 1.414 . S
C2082 C2085 1.499 . S
C2083 H2057 0.950 . S
C2083 C2082 1.414 . S
C2083 C2084 1.374 . S
C2084 H2058 0.950 . S
C2084 C2080 1.385 . S
C2084 C2083 1.374 . S
C2085 C2082 1.499 . S
C2085 C2086 1.373 . S
C2085 C2087 1.389 . S
C2086 H2059 0.950 . S
C2086 C2072 1.377 . S
C2086 C2085 1.373 . S
C2087 C2071 1.377 . S
C2087 C2085 1.389 . S
C2087 C2088 1.524 . S
C2088 C2087 1.524 . S
C2088 C2089 1.397 . S
C2088 C2093 1.363 . S
C2089 H2060 0.950 . S
C2089 C2088 1.397 . S
C2089 C2090 1.334 . S
C2090 H2061 0.950 . S
C2090 C2089 1.334 . S
C2090 C2091 1.287 . S
C2091 C2090 1.287 . S
C2091 C2092 1.524 . S
C2091 H2094 0.999 . S
C2092 H2062 0.950 . S
C2092 C2091 1.524 . S
C2092 C2093 1.415 . S
C2093 H2063 0.950 . S
C2093 C2088 1.363 . S
C2093 C2092 1.415 . S
H2094 C2091 0.999 . S
H2095 C2076 0.913 . S
C530 C409 1.233 . S
C515 C36 1.206 . S
C580 C423 1.243 . S
C565 C93 1.229 . S
C630 C431 1.278 . S
C615 C126 1.261 . S
C665 C165 1.210 . S
C680 C389 1.233 . S
C715 C222 1.170 . S
C730 C395 1.179 1_556 S
C765 C261 1.177 . S
C780 C403 1.202 . S
C830 C417 1.321 . S
C815 C318 1.295 . S
C880 C437 1.275 . S
C865 C381 1.263 . S
C915 C132 1.178 . S
C930 C465 1.203 . S
C980 C479 1.305 . S
C965 C189 1.291 . S
C1015 C30 1.191 . S
C1030 C487 1.212 . S
C1080 C451 1.152 . S
C1065 C69 1.127 . S
C1115 C324 1.235 . S
C1130 C445 1.259 . S
C1165 C357 1.251 . S
C1180 C459 1.274 . S
C1230 C473 1.273 . S
C1215 C228 1.255 . S
C1265 C285 1.283 . S
C1280 C493 1.298 . S
C1330 C412 1.694 . S
C1315 C45 1.727 . S
C1380 C435 1.722 . S
C1365 C84 1.733 . S
C1415 C117 1.731 . S
C1430 C393 1.727 . S
C1465 C174 1.722 . S
C1480 C398 1.715 . S
C1515 C213 1.714 . S
C1530 C426 1.669 . S
C1580 C384 1.680 . S
C1565 C270 1.695 . S
C1630 C407 1.712 . S
C1615 C309 1.720 . S
C1680 C421 1.720 . S
C1665 C372 1.734 . S
C1730 C468 1.674 . S
C1715 C141 1.710 . S
C1780 C491 1.707 . S
C1765 C180 1.719 . S
C1815 C21 1.701 . S
C1830 C440 1.664 . S
C1880 C454 1.656 . S
C1865 C78 1.675 . S
C1930 C482 1.721 . S
C1915 C333 1.760 . S
C1965 C366 1.723 . S
C1980 C449 1.745 . S
C2030 C463 1.734 . S
C2015 C237 1.744 . S
C2080 C477 1.736 . S
C2065 C276 1.747 . S
