# Generated by pormake.
# Topology apo, (3,6)-cn, num edge types: 1
# Building blocks:
#     Node 0, Type 0, BuildingBlock: PAMTOO_clean_linker_0, # of connection points: 3
#     Node 1, Type 0, BuildingBlock: PAMTOO_clean_linker_0, # of connection points: 3
#     Node 2, Type 0, BuildingBlock: PAMTOO_clean_linker_0, # of connection points: 3
#     Node 3, Type 0, BuildingBlock: PAMTOO_clean_linker_0, # of connection points: 3
#     Node 4, Type 0, BuildingBlock: PAMTOO_clean_linker_0, # of connection points: 3
#     Node 5, Type 0, BuildingBlock: PAMTOO_clean_linker_0, # of connection points: 3
#     Node 6, Type 0, BuildingBlock: PAMTOO_clean_linker_0, # of connection points: 3
#     Node 7, Type 0, BuildingBlock: PAMTOO_clean_linker_0, # of connection points: 3
#     Node 8, Type 1, BuildingBlock: KUMJIN_clean_sbu_1, # of connection points: 6
#     Node 9, Type 1, BuildingBlock: KUMJIN_clean_sbu_1, # of connection points: 6
#     Node 10, Type 1, BuildingBlock: KUMJIN_clean_sbu_1, # of connection points: 6
#     Node 11, Type 1, BuildingBlock: KUMJIN_clean_sbu_1, # of connection points: 6
#     Edge 12, Type (0, 1), BuildingBlock: TEMPAE_clean_linker_10, # of connection points: 2
#     Edge 13, Type (0, 1), BuildingBlock: TEMPAE_clean_linker_10, # of connection points: 2
#     Edge 14, Type (0, 1), BuildingBlock: TEMPAE_clean_linker_10, # of connection points: 2
#     Edge 15, Type (0, 1), BuildingBlock: TEMPAE_clean_linker_10, # of connection points: 2
#     Edge 16, Type (0, 1), BuildingBlock: TEMPAE_clean_linker_10, # of connection points: 2
#     Edge 17, Type (0, 1), BuildingBlock: TEMPAE_clean_linker_10, # of connection points: 2
#     Edge 18, Type (0, 1), BuildingBlock: TEMPAE_clean_linker_10, # of connection points: 2
#     Edge 19, Type (0, 1), BuildingBlock: TEMPAE_clean_linker_10, # of connection points: 2
#     Edge 20, Type (0, 1), BuildingBlock: TEMPAE_clean_linker_10, # of connection points: 2
#     Edge 21, Type (0, 1), BuildingBlock: TEMPAE_clean_linker_10, # of connection points: 2
#     Edge 22, Type (0, 1), BuildingBlock: TEMPAE_clean_linker_10, # of connection points: 2
#     Edge 23, Type (0, 1), BuildingBlock: TEMPAE_clean_linker_10, # of connection points: 2
#     Edge 24, Type (0, 1), BuildingBlock: TEMPAE_clean_linker_10, # of connection points: 2
#     Edge 25, Type (0, 1), BuildingBlock: TEMPAE_clean_linker_10, # of connection points: 2
#     Edge 26, Type (0, 1), BuildingBlock: TEMPAE_clean_linker_10, # of connection points: 2
#     Edge 27, Type (0, 1), BuildingBlock: TEMPAE_clean_linker_10, # of connection points: 2
#     Edge 28, Type (0, 1), BuildingBlock: TEMPAE_clean_linker_10, # of connection points: 2
#     Edge 29, Type (0, 1), BuildingBlock: TEMPAE_clean_linker_10, # of connection points: 2
#     Edge 30, Type (0, 1), BuildingBlock: TEMPAE_clean_linker_10, # of connection points: 2
#     Edge 31, Type (0, 1), BuildingBlock: TEMPAE_clean_linker_10, # of connection points: 2
#     Edge 32, Type (0, 1), BuildingBlock: TEMPAE_clean_linker_10, # of connection points: 2
#     Edge 33, Type (0, 1), BuildingBlock: TEMPAE_clean_linker_10, # of connection points: 2
#     Edge 34, Type (0, 1), BuildingBlock: TEMPAE_clean_linker_10, # of connection points: 2
#     Edge 35, Type (0, 1), BuildingBlock: TEMPAE_clean_linker_10, # of connection points: 2
# Relax obj value: 0.040
# Max RMSD: 0.223
# Mean RMSD: 0.161
data_MOF--net-apo--node1-KUMJIN_clean_sbu_1--node2-PAMTOO_clean_linker_0--edge1-TEMPAE_clean_linker_10
_symmetry_space_group_name_H-M    P1
_symmetry_Int_Tables_number       1
_symmetry_cell_setting            triclinic
loop_
_symmetry_equiv_pos_as_xyz
'x, y, z'
_cell_length_a     27.723412
_cell_length_b     42.958071
_cell_length_c     51.639278
_cell_angle_alpha  89.933878
_cell_angle_beta   90.029384
_cell_angle_gamma 89.972552
loop_
_atom_site_label
_atom_site_type_symbol
_atom_site_fract_x
_atom_site_fract_y
_atom_site_fract_z
_atom_type_partial_charge
H0 H 0.36389 0.44073 0.43207 0.0
H1 H 0.31897 0.39194 0.36291 0.0
H2 H 0.28732 0.35401 0.43749 0.0
H3 H 0.31022 0.30798 0.40212 0.0
C4 C 0.29939 0.31858 0.38334 0.0
O5 O 0.27682 0.34675 0.38772 0.0
H6 H 0.33237 0.32256 0.37149 0.0
C7 C 0.34695 0.42111 0.42258 0.0
C8 C 0.32722 0.3973 0.43798 0.0
C9 C 0.34401 0.41996 0.39529 0.0
C10 C 0.32075 0.39426 0.38376 0.0
C11 C 0.29986 0.37093 0.39901 0.0
C12 C 0.30277 0.37261 0.42598 0.0
H13 H 0.16984 0.06845 0.9276 0.0
H14 H 0.24255 0.15545 0.94011 0.0
H15 H 0.21725 0.12393 0.8626 0.0
H16 H 0.3148 0.14642 0.87215 0.0
C17 C 0.30704 0.16534 0.88623 0.0
O18 O 0.25801 0.16675 0.89095 0.0
H19 H 0.32613 0.16001 0.90469 0.0
C20 C 0.18697 0.08907 0.91976 0.0
C21 C 0.1904 0.09315 0.89273 0.0
C22 C 0.20471 0.1116 0.93698 0.0
C23 C 0.22804 0.13805 0.92708 0.0
C24 C 0.23361 0.14188 0.90031 0.0
C25 C 0.21407 0.11986 0.88323 0.0
H26 H 0.84367 0.0895 0.58362 0.0
H27 H 0.78222 0.12791 0.65303 0.0
H28 H 0.76829 0.17758 0.58152 0.0
H29 H 0.79079 0.21585 0.62871 0.0
C30 C 0.76999 0.20213 0.6432 0.0
O31 O 0.74732 0.17771 0.63076 0.0
H32 H 0.79545 0.19292 0.658 0.0
C33 C 0.82444 0.10817 0.59321 0.0
C34 C 0.80678 0.13365 0.57874 0.0
C35 C 0.81591 0.10594 0.61999 0.0
C36 C 0.78913 0.12929 0.6324 0.0
C37 C 0.77241 0.15509 0.61849 0.0
C38 C 0.78128 0.15729 0.59185 0.0
H39 H 0.6908 0.4273 0.0846 0.0
H40 H 0.76458 0.33863 0.08568 0.0
H41 H 0.74781 0.39046 0.15579 0.0
H42 H 0.84536 0.36419 0.14401 0.0
C43 C 0.83374 0.34088 0.13694 0.0
O44 O 0.78404 0.34023 0.13505 0.0
H45 H 0.84984 0.33691 0.1175 0.0
C46 C 0.70909 0.40875 0.09491 0.0
C47 C 0.71625 0.41171 0.12176 0.0
C48 C 0.72691 0.38269 0.08132 0.0
C49 C 0.7514 0.35933 0.09532 0.0
C50 C 0.75939 0.36242 0.12198 0.0
C51 C 0.74189 0.38852 0.13511 0.0
H52 H 0.66624 0.56805 0.591 0.0
H53 H 0.74095 0.6542 0.57727 0.0
H54 H 0.71876 0.62306 0.65507 0.0
H55 H 0.70278 0.68987 0.64311 0.0
C56 C 0.73623 0.69374 0.63161 0.0
O57 O 0.75815 0.66564 0.6262 0.0
H58 H 0.72559 0.70529 0.61318 0.0
C59 C 0.68448 0.58842 0.5985 0.0
C60 C 0.68983 0.59235 0.62549 0.0
C61 C 0.70185 0.61082 0.58091 0.0
C62 C 0.72657 0.63693 0.59048 0.0
C63 C 0.73319 0.64086 0.61717 0.0
C64 C 0.71446 0.61891 0.63453 0.0
H65 H 0.87532 0.93973 0.08846 0.0
H66 H 0.82565 0.88887 0.15567 0.0
H67 H 0.79484 0.85488 0.07974 0.0
H68 H 0.71227 0.85406 0.11505 0.0
C69 C 0.7314 0.85029 0.13376 0.0
O70 O 0.78017 0.84672 0.12926 0.0
H71 H 0.72501 0.87122 0.146 0.0
C72 C 0.85772 0.91983 0.0972 0.0
C73 C 0.83726 0.89717 0.08087 0.0
C74 C 0.85387 0.91756 0.12442 0.0
C75 C 0.8287 0.89198 0.13493 0.0
C76 C 0.80671 0.86997 0.11882 0.0
C77 C 0.81142 0.87238 0.09193 0.0
H78 H 0.19117 0.92931 0.43437 0.0
H79 H 0.26865 0.84266 0.44242 0.0
H80 H 0.26422 0.88891 0.36897 0.0
H81 H 0.24997 0.82287 0.36708 0.0
C82 C 0.27564 0.81498 0.3823 0.0
O83 O 0.29647 0.84043 0.39419 0.0
H84 H 0.25539 0.80132 0.39705 0.0
C85 C 0.21245 0.91063 0.4261 0.0
C86 C 0.22521 0.912 0.39975 0.0
C87 C 0.22836 0.88596 0.44196 0.0
C88 C 0.25671 0.86227 0.43086 0.0
C89 C 0.26951 0.86343 0.40466 0.0
C90 C 0.2543 0.88841 0.38926 0.0
H91 H 0.35102 0.59349 0.93147 0.0
H92 H 0.27582 0.6306 0.86519 0.0
H93 H 0.26387 0.67619 0.93864 0.0
H94 H 0.17281 0.67271 0.908 0.0
C95 C 0.18836 0.67414 0.88817 0.0
O96 O 0.23779 0.6776 0.89 0.0
H97 H 0.17985 0.65224 0.87764 0.0
C98 C 0.32794 0.61106 0.92286 0.0
C99 C 0.30908 0.63501 0.93845 0.0
C100 C 0.31582 0.609 0.89644 0.0
C101 C 0.28501 0.6315 0.88557 0.0
C102 C 0.26633 0.65558 0.90083 0.0
C103 C 0.27823 0.65725 0.92715 0.0
Eu104 Eu 0.09262 0.12723 0.23702 0.0
C105 C 0.90297 0.07482 0.27383 0.0
N106 N 0.91449 0.10539 0.27121 0.0
C107 C 0.84291 0.11422 0.24622 0.0
C108 C 0.86152 0.06247 0.26184 0.0
C109 C 0.88457 0.12537 0.25833 0.0
C110 C 0.83156 0.08257 0.24775 0.0
C111 C 0.92229 0.02404 0.29146 0.0
C112 C 0.93328 0.05588 0.28828 0.0
C113 C 0.88168 0.01141 0.27904 0.0
C114 C 0.8513 0.0306 0.26432 0.0
Eu115 Eu 0.98654 0.12227 0.29126 0.0
N116 N 0.97243 0.06878 0.29998 0.0
C117 C 0.95168 0.00605 0.30764 0.0
C118 C 0.99856 0.05193 0.31747 0.0
C119 C 0.98937 0.02023 0.32111 0.0
H120 H 0.89326 0.14983 0.25722 0.0
H121 H 0.01081 0.00691 0.33464 0.0
H122 H 0.17458 0.07334 0.25734 0.0
H123 H 0.12439 0.24822 0.21113 0.0
H124 H 0.02588 0.06295 0.32915 0.0
H125 H 0.94445 0.98152 0.31065 0.0
H126 H 0.07962 0.19832 0.21275 0.0
H127 H 0.81964 0.13 0.23566 0.0
H128 H 0.87293 0.98695 0.28109 0.0
H129 H 0.81968 0.02065 0.25521 0.0
H130 H 0.25449 0.07241 0.27794 0.0
H131 H 0.79942 0.07395 0.23821 0.0
H132 H 0.20435 0.25239 0.23221 0.0
N133 N 0.17133 0.12286 0.25489 0.0
C134 C 0.19696 0.14977 0.25653 0.0
C135 C 0.23845 0.09441 0.27238 0.0
C136 C 0.24399 0.15011 0.26699 0.0
C137 C 0.19251 0.09513 0.26121 0.0
C138 C 0.26403 0.12209 0.27568 0.0
N139 N 0.13287 0.17541 0.23533 0.0
C140 C 0.1143 0.20023 0.22213 0.0
C141 C 0.20453 0.20449 0.24538 0.0
C142 C 0.17752 0.1767 0.24599 0.0
C143 C 0.18474 0.2306 0.23305 0.0
C144 C 0.13961 0.22836 0.22113 0.0
H145 H 0.29997 0.12139 0.28391 0.0
H146 H 0.30639 0.17876 0.27544 0.0
H147 H 0.27204 0.22624 0.25612 0.0
O148 O 0.07269 0.12822 0.19612 0.0
O149 O 0.08045 0.16756 0.26468 0.0
O150 O 0.05784 0.14451 0.30273 0.0
O151 O 0.1441 0.1134 0.20713 0.0
O152 O 0.02117 0.15106 0.22757 0.0
O153 O 0.9845 0.16589 0.26628 0.0
O154 O 0.96313 0.11744 0.33135 0.0
O155 O 0.97782 0.10455 0.24981 0.0
O156 O 0.05046 0.08256 0.241 0.0
O157 O 0.94122 0.15788 0.30965 0.0
O158 O 0.06095 0.10417 0.30243 0.0
O159 O 0.09159 0.08515 0.26405 0.0
C160 C 0.08224 0.16576 0.28997 0.0
C161 C 0.11107 0.09173 0.1692 0.0
C162 C 0.12092 0.07384 0.1247 0.0
C163 C 0.10428 0.04425 0.13221 0.0
C164 C 0.09503 0.06203 0.17645 0.0
C165 C 0.09184 0.0384 0.158 0.0
C166 C 0.12427 0.0975 0.14342 0.0
C167 C 0.99153 0.16895 0.24106 0.0
C168 C 0.11371 0.11705 0.18818 0.0
C169 C 0.2703 0.17805 0.2674 0.0
C170 C 0.25073 0.20511 0.25645 0.0
C171 C 0.0034 0.08208 0.23955 0.0
C172 C 0.88976 0.14007 0.34367 0.0
C173 C 0.84207 0.13583 0.38334 0.0
C174 C 0.8009 0.12983 0.36826 0.0
C175 C 0.84822 0.13421 0.32896 0.0
C176 C 0.8864 0.14116 0.37083 0.0
C177 C 0.804 0.12925 0.34124 0.0
C178 C 0.08915 0.08504 0.28953 0.0
C179 C 0.93759 0.14274 0.33145 0.0
H180 H 0.10165 0.02555 0.11822 0.0
H181 H 0.08511 0.05715 0.19631 0.0
H182 H 0.07986 0.01546 0.16377 0.0
H183 H 0.13647 0.12054 0.13787 0.0
H184 H 0.76629 0.12577 0.37738 0.0
H185 H 0.84996 0.1331 0.30809 0.0
H186 H 0.91862 0.14519 0.38227 0.0
H187 H 0.77208 0.12463 0.3298 0.0
Eu188 Eu 0.44607 0.38676 0.74121 0.0
C189 C 0.63655 0.44036 0.77863 0.0
N190 N 0.62583 0.40974 0.77566 0.0
C191 C 0.69749 0.40227 0.75045 0.0
C192 C 0.67749 0.45347 0.7667 0.0
C193 C 0.65632 0.39037 0.76257 0.0
C194 C 0.70784 0.43404 0.75226 0.0
C195 C 0.61673 0.49024 0.79762 0.0
C196 C 0.60625 0.45848 0.79365 0.0
C197 C 0.65657 0.50374 0.78509 0.0
C198 C 0.68693 0.48537 0.7697 0.0
Eu199 Eu 0.5536 0.39172 0.79498 0.0
N200 N 0.56796 0.4447 0.80543 0.0
C201 C 0.58783 0.50718 0.81477 0.0
C202 C 0.54255 0.4604 0.82389 0.0
C203 C 0.55131 0.49198 0.82841 0.0
H204 H 0.64828 0.36585 0.76116 0.0
H205 H 0.53042 0.5044 0.84271 0.0
H206 H 0.36403 0.43773 0.76614 0.0
H207 H 0.41906 0.26488 0.71653 0.0
H208 H 0.51594 0.44851 0.83548 0.0
H209 H 0.59472 0.53161 0.81843 0.0
H210 H 0.46008 0.31617 0.716 0.0
H211 H 0.7211 0.38698 0.73966 0.0
H212 H 0.66487 0.52818 0.78768 0.0
H213 H 0.71808 0.49593 0.76059 0.0
H214 H 0.28866 0.43587 0.79107 0.0
H215 H 0.73959 0.44324 0.74273 0.0
H216 H 0.3439 0.25802 0.74177 0.0
N217 N 0.37085 0.38841 0.76328 0.0
C218 C 0.34769 0.36068 0.76603 0.0
C219 C 0.30527 0.41447 0.78452 0.0
C220 C 0.30311 0.35869 0.7791 0.0
C221 C 0.3488 0.41534 0.77089 0.0
C222 C 0.28271 0.38595 0.78905 0.0
N223 N 0.40938 0.33727 0.74131 0.0
C224 C 0.42744 0.3131 0.72715 0.0
C225 C 0.34235 0.30581 0.75506 0.0
C226 C 0.36703 0.33447 0.7543 0.0
C227 C 0.36179 0.28043 0.74162 0.0
C228 C 0.40424 0.2842 0.72736 0.0
H229 H 0.24858 0.3854 0.79926 0.0
H230 H 0.24518 0.32791 0.79093 0.0
H231 H 0.27911 0.28181 0.76939 0.0
O232 O 0.45615 0.38445 0.6991 0.0
O233 O 0.46212 0.34663 0.76865 0.0
O234 O 0.48176 0.37051 0.80656 0.0
O235 O 0.39075 0.40383 0.71469 0.0
O236 O 0.51768 0.36416 0.73002 0.0
O237 O 0.55612 0.34932 0.76843 0.0
O238 O 0.57819 0.39458 0.83498 0.0
O239 O 0.56306 0.40913 0.75362 0.0
O240 O 0.49084 0.43088 0.74269 0.0
O241 O 0.59654 0.35416 0.81239 0.0
O242 O 0.47933 0.41068 0.80535 0.0
O243 O 0.44938 0.42986 0.76688 0.0
C244 C 0.4602 0.34803 0.79394 0.0
C245 C 0.38454 0.37715 0.67496 0.0
C246 C 0.3614 0.36652 0.63019 0.0
C247 C 0.33063 0.34275 0.63899 0.0
C248 C 0.35256 0.35388 0.68329 0.0
C249 C 0.32618 0.3366 0.66539 0.0
C250 C 0.38851 0.38363 0.64834 0.0
C251 C 0.54902 0.3469 0.74312 0.0
C252 C 0.41322 0.395 0.69386 0.0
C253 C 0.27935 0.32989 0.78088 0.0
C254 C 0.29872 0.30359 0.76869 0.0
C255 C 0.53808 0.43153 0.74286 0.0
C256 C 0.64998 0.36935 0.84641 0.0
C257 C 0.69828 0.37294 0.88588 0.0
C258 C 0.73992 0.37646 0.87066 0.0
C259 C 0.69197 0.37258 0.83151 0.0
C260 C 0.65342 0.36917 0.87357 0.0
C261 C 0.73673 0.37601 0.84364 0.0
C262 C 0.45389 0.43118 0.79224 0.0
C263 C 0.60181 0.36853 0.83442 0.0
H264 H 0.30908 0.32943 0.62545 0.0
H265 H 0.34746 0.34922 0.70362 0.0
H266 H 0.30177 0.31863 0.67202 0.0
H267 H 0.41266 0.40186 0.64179 0.0
H268 H 0.77491 0.37935 0.87969 0.0
H269 H 0.6902 0.37282 0.81061 0.0
H270 H 0.62093 0.3671 0.88514 0.0
H271 H 0.769 0.37865 0.83206 0.0
Eu272 Eu 0.0458 0.88404 0.73366 0.0
C273 C 0.83393 0.8558 0.7616 0.0
N274 N 0.85523 0.88412 0.75881 0.0
C275 C 0.78919 0.90203 0.73282 0.0
C276 C 0.78938 0.84938 0.74954 0.0
C277 C 0.83343 0.90734 0.74504 0.0
C278 C 0.76712 0.87291 0.73502 0.0
C279 C 0.83598 0.80338 0.77913 0.0
C280 C 0.85745 0.83294 0.77603 0.0
C281 C 0.79184 0.79686 0.76695 0.0
C282 C 0.76866 0.81976 0.75217 0.0
Eu283 Eu 0.92922 0.89116 0.78043 0.0
N284 N 0.90023 0.83987 0.78773 0.0
C285 C 0.85877 0.78146 0.79502 0.0
C286 C 0.91984 0.81957 0.8052 0.0
C287 C 0.90039 0.78982 0.80848 0.0
H288 H 0.85024 0.92995 0.74356 0.0
H289 H 0.91689 0.77361 0.8219 0.0
H290 H 0.12179 0.8371 0.76546 0.0
H291 H 0.06699 0.00675 0.70625 0.0
H292 H 0.94951 0.82631 0.81741 0.0
H293 H 0.84346 0.75851 0.79785 0.0
H294 H 0.03049 0.95476 0.70472 0.0
H295 H 0.77213 0.92039 0.72174 0.0
H296 H 0.77498 0.77426 0.76914 0.0
H297 H 0.73457 0.81435 0.74294 0.0
H298 H 0.1985 0.8409 0.78972 0.0
H299 H 0.73294 0.86883 0.72542 0.0
H300 H 0.14124 0.01552 0.73179 0.0
N301 N 0.12026 0.88509 0.75572 0.0
C302 C 0.1436 0.91294 0.75642 0.0
C303 C 0.18333 0.86136 0.78056 0.0
C304 C 0.18752 0.91617 0.76992 0.0
C305 C 0.13975 0.8593 0.76703 0.0
C306 C 0.20718 0.88995 0.78215 0.0
N307 N 0.07957 0.93479 0.73173 0.0
C308 C 0.061 0.95847 0.71718 0.0
C309 C 0.14575 0.96771 0.74487 0.0
C310 C 0.12258 0.93849 0.74419 0.0
C311 C 0.12462 0.99269 0.73168 0.0
C312 C 0.08252 0.9879 0.71742 0.0
H313 H 0.24083 0.89149 0.79275 0.0
H314 H 0.24376 0.94836 0.78137 0.0
H315 H 0.20756 0.99333 0.75917 0.0
O316 O 0.0547 0.88737 0.69162 0.0
O317 O 0.05333 0.90447 0.77418 0.0
O318 O 0.98297 0.93077 0.78172 0.0
O319 O 0.09848 0.85512 0.71336 0.0
O320 O 0.98065 0.91111 0.71853 0.0
O321 O 0.94411 0.93275 0.75466 0.0
O322 O 0.91742 0.89313 0.82297 0.0
O323 O 0.9205 0.87115 0.73983 0.0
O324 O 0.99087 0.84488 0.73154 0.0
O325 O 0.8735 0.92082 0.79648 0.0
O326 O 0.99551 0.86464 0.79515 0.0
O327 O 0.02863 0.84212 0.75853 0.0
C328 C 0.02997 0.92846 0.78347 0.0
C329 C 0.13395 0.87893 0.67655 0.0
C330 C 0.17379 0.89019 0.63532 0.0
C331 C 0.21404 0.90137 0.64904 0.0
C332 C 0.17482 0.88993 0.68975 0.0
C333 C 0.21449 0.90114 0.67604 0.0
C334 C 0.13372 0.87892 0.64929 0.0
C335 C 0.95325 0.93238 0.72965 0.0
C336 C 0.09106 0.8682 0.69096 0.0
C337 C 0.21012 0.94538 0.77097 0.0
C338 C 0.18937 0.97103 0.75843 0.0
C339 C 0.94384 0.8477 0.72946 0.0
C340 C 0.85344 0.92614 0.84184 0.0
C341 C 0.83624 0.93288 0.88806 0.0
C342 C 0.79679 0.95195 0.88144 0.0
C343 C 0.81398 0.94549 0.83598 0.0
C344 C 0.8644 0.91977 0.86802 0.0
C345 C 0.78593 0.9582 0.85564 0.0
C346 C 0.02144 0.84276 0.78373 0.0
C347 C 0.88208 0.9129 0.82029 0.0
H348 H 0.24559 0.90982 0.63886 0.0
H349 H 0.17629 0.8898 0.71063 0.0
H350 H 0.24581 0.90959 0.6864 0.0
H351 H 0.1022 0.87056 0.639 0.0
H352 H 0.77374 0.96177 0.89627 0.0
H353 H 0.80447 0.95075 0.81609 0.0
H354 H 0.8949 0.90504 0.87277 0.0
H355 H 0.75544 0.97288 0.85086 0.0
Eu356 Eu 0.47549 0.6272 0.23156 0.0
C357 C 0.69864 0.64389 0.26055 0.0
N358 N 0.6706 0.61806 0.26281 0.0
C359 C 0.7344 0.58625 0.24615 0.0
C360 C 0.74589 0.64182 0.25061 0.0
C361 C 0.68775 0.58943 0.25607 0.0
C362 C 0.76359 0.61255 0.24337 0.0
C363 C 0.70735 0.69996 0.26468 0.0
C364 C 0.67952 0.6727 0.2675 0.0
C365 C 0.75453 0.69791 0.25494 0.0
C366 C 0.77372 0.66895 0.24792 0.0
Eu367 Eu 0.59212 0.62599 0.27892 0.0
N368 N 0.63294 0.67418 0.27582 0.0
C369 C 0.68667 0.72857 0.27139 0.0
C370 C 0.61312 0.70188 0.28311 0.0
C371 C 0.63947 0.72949 0.28077 0.0
H372 H 0.66565 0.56896 0.25865 0.0
H373 H 0.6234 0.75147 0.28628 0.0
H374 H 0.38814 0.65518 0.26982 0.0
H375 H 0.48859 0.51311 0.18431 0.0
H376 H 0.57714 0.70292 0.29083 0.0
H377 H 0.70688 0.75003 0.26952 0.0
H378 H 0.50622 0.56871 0.19008 0.0
H379 H 0.74786 0.56352 0.24072 0.0
H380 H 0.77632 0.71864 0.25253 0.0
H381 H 0.81005 0.66781 0.24025 0.0
H382 H 0.31599 0.63574 0.29304 0.0
H383 H 0.79968 0.61001 0.23561 0.0
H384 H 0.42499 0.48802 0.21059 0.0
N385 N 0.40585 0.61099 0.25408 0.0
C386 C 0.39303 0.58064 0.25115 0.0
C387 C 0.3374 0.62002 0.28139 0.0
C388 C 0.35218 0.56861 0.26397 0.0
C389 C 0.37812 0.63096 0.26829 0.0
C390 C 0.32457 0.58866 0.27939 0.0
N391 N 0.45922 0.57409 0.22242 0.0
C392 C 0.481 0.55765 0.20304 0.0
C393 C 0.40779 0.53015 0.23165 0.0
C394 C 0.42097 0.56159 0.23532 0.0
C395 C 0.43394 0.51224 0.21392 0.0
C396 C 0.47 0.52626 0.19914 0.0
H397 H 0.29306 0.58023 0.28962 0.0
H398 H 0.30845 0.52758 0.27037 0.0
H399 H 0.35736 0.49382 0.24238 0.0
O400 O 0.45554 0.62836 0.18985 0.0
O401 O 0.47101 0.60958 0.27335 0.0
O402 O 0.54253 0.58432 0.27845 0.0
O403 O 0.41571 0.65561 0.21832 0.0
O404 O 0.54638 0.60684 0.21651 0.0
O405 O 0.57822 0.58436 0.25325 0.0
O406 O 0.5872 0.6338 0.32069 0.0
O407 O 0.60148 0.65088 0.24039 0.0
O408 O 0.5265 0.66805 0.22668 0.0
O409 O 0.64283 0.60377 0.30551 0.0
O410 O 0.52714 0.65458 0.29217 0.0
O411 O 0.48514 0.67046 0.25562 0.0
C412 C 0.49627 0.58652 0.28301 0.0
C413 C 0.38778 0.66066 0.17412 0.0
C414 C 0.36223 0.66672 0.12902 0.0
C415 C 0.32735 0.68842 0.13701 0.0
C416 C 0.35232 0.68235 0.1815 0.0
C417 C 0.32235 0.69602 0.16306 0.0
C418 C 0.39226 0.65257 0.14774 0.0
C419 C 0.57437 0.58609 0.22791 0.0
C420 C 0.42043 0.64783 0.19419 0.0
C421 C 0.33994 0.53716 0.26086 0.0
C422 C 0.36781 0.51793 0.24489 0.0
C423 C 0.57386 0.66978 0.22695 0.0
C424 C 0.61207 0.59178 0.34687 0.0
C425 C 0.61475 0.57714 0.39261 0.0
C426 C 0.59223 0.54877 0.38633 0.0
C427 C 0.58995 0.56329 0.34103 0.0
C428 C 0.62461 0.59859 0.37263 0.0
C429 C 0.58026 0.54191 0.36068 0.0
C430 C 0.49533 0.67263 0.28041 0.0
C431 C 0.62204 0.61452 0.32624 0.0
H432 H 0.30354 0.69932 0.12304 0.0
H433 H 0.34787 0.68903 0.20158 0.0
H434 H 0.29525 0.7127 0.16899 0.0
H435 H 0.41945 0.63597 0.14171 0.0
H436 H 0.58468 0.53164 0.4012 0.0
H437 H 0.58052 0.55751 0.32128 0.0
H438 H 0.64155 0.62068 0.37712 0.0
H439 H 0.56375 0.51985 0.35591 0.0
C440 C 0.15856 0.94592 0.38326 0.0
C441 C 0.20752 0.93781 0.38309 0.0
C442 C 0.14094 0.9699 0.36737 0.0
C443 C 0.17313 0.9864 0.35106 0.0
C444 C 0.22271 0.97842 0.35094 0.0
C445 C 0.23926 0.95405 0.36682 0.0
C446 C 0.08763 0.97702 0.36764 0.0
C447 C 0.25829 0.99578 0.33416 0.0
C448 C 0.11946 0.03052 0.29393 0.0
C449 C 0.11463 0.06052 0.30423 0.0
C450 C 0.13898 0.0062 0.30883 0.0
C451 C 0.15489 0.01224 0.33442 0.0
C452 C 0.15166 0.04282 0.34451 0.0
C453 C 0.13117 0.06653 0.32936 0.0
C454 C 0.14102 0.97385 0.29752 0.0
C455 C 0.16859 0.0503 0.37158 0.0
H456 H 0.13383 0.93307 0.39552 0.0
H457 H 0.27721 0.94795 0.3668 0.0
H458 H 0.08128 1.00239 0.36976 0.0
H459 H 0.07161 0.96969 0.34893 0.0
H460 H 0.06848 0.96467 0.3835 0.0
H461 H 0.29566 0.98683 0.33639 0.0
H462 H 0.2477 0.99388 0.31351 0.0
H463 H 0.25791 0.02089 0.3392 0.0
H464 H 0.10615 0.02579 0.27458 0.0
H465 H 0.12757 0.08979 0.33728 0.0
H466 H 0.11737 0.95809 0.30886 0.0
H467 H 0.17823 0.96447 0.29879 0.0
H468 H 0.12926 0.97332 0.27695 0.0
H469 H 0.14604 0.03763 0.38587 0.0
H470 H 0.16657 0.07561 0.37588 0.0
H471 H 0.20637 0.0424 0.3743 0.0
C472 C 0.30449 0.56608 0.86409 0.0
C473 C 0.33518 0.58327 0.88027 0.0
C474 C 0.32222 0.54127 0.84914 0.0
C475 C 0.37192 0.53371 0.85015 0.0
C476 C 0.40312 0.55128 0.86622 0.0
C477 C 0.38433 0.57572 0.88118 0.0
C478 C 0.28766 0.52286 0.83253 0.0
C479 C 0.45644 0.54441 0.86751 0.0
C480 C 0.41368 0.45234 0.83174 0.0
C481 C 0.43047 0.45694 0.80644 0.0
C482 C 0.39375 0.477 0.846 0.0
C483 C 0.39118 0.50708 0.8348 0.0
C484 C 0.40772 0.51174 0.80912 0.0
C485 C 0.42676 0.48652 0.79516 0.0
C486 C 0.37602 0.47095 0.87318 0.0
C487 C 0.40626 0.5435 0.7966 0.0
H488 H 0.26637 0.57168 0.86353 0.0
H489 H 0.40825 0.58921 0.89341 0.0
H490 H 0.29932 0.52365 0.812 0.0
H491 H 0.28794 0.49806 0.83859 0.0
H492 H 0.25012 0.53177 0.83381 0.0
H493 H 0.47556 0.55959 0.88156 0.0
H494 H 0.46242 0.51977 0.87311 0.0
H495 H 0.47273 0.54785 0.8481 0.0
H496 H 0.4163 0.4294 0.84041 0.0
H497 H 0.44014 0.49014 0.77566 0.0
H498 H 0.33786 0.47841 0.87505 0.0
H499 H 0.39743 0.48485 0.88716 0.0
H500 H 0.37873 0.44599 0.87865 0.0
H501 H 0.3688 0.55257 0.79653 0.0
H502 H 0.41987 0.54312 0.77637 0.0
H503 H 0.4285 0.56004 0.80798 0.0
C504 C 0.69167 0.56277 0.6679 0.0
C505 C 0.66905 0.56909 0.64406 0.0
C506 C 0.67196 0.54133 0.68557 0.0
C507 C 0.62952 0.52486 0.67896 0.0
C508 C 0.60679 0.53076 0.6549 0.0
C509 C 0.62621 0.55314 0.63804 0.0
C510 C 0.69663 0.53626 0.71131 0.0
C511 C 0.56193 0.5133 0.64687 0.0
C512 C 0.60174 0.44751 0.71158 0.0
C513 C 0.56314 0.45562 0.72768 0.0
C514 C 0.62433 0.46991 0.69593 0.0
C515 C 0.60871 0.50131 0.69701 0.0
C516 C 0.57116 0.50978 0.71424 0.0
C517 C 0.54822 0.48668 0.72906 0.0
C518 C 0.66356 0.45974 0.67753 0.0
C519 C 0.55482 0.54315 0.7168 0.0
H520 H 0.72514 0.57435 0.67278 0.0
H521 H 0.60735 0.55822 0.62017 0.0
H522 H 0.67028 0.5387 0.72735 0.0
H523 H 0.71135 0.51229 0.71226 0.0
H524 H 0.72666 0.55293 0.71454 0.0
H525 H 0.54994 0.51951 0.62699 0.0
H526 H 0.56869 0.48784 0.64763 0.0
H527 H 0.5321 0.51838 0.66053 0.0
H528 H 0.61319 0.4234 0.71059 0.0
H529 H 0.51885 0.49293 0.74191 0.0
H530 H 0.6968 0.4735 0.68085 0.0
H531 H 0.65191 0.46412 0.65728 0.0
H532 H 0.67244 0.43464 0.67964 0.0
H533 H 0.58628 0.55849 0.72047 0.0
H534 H 0.52834 0.54626 0.73274 0.0
H535 H 0.53792 0.55097 0.69844 0.0
C536 C 0.85427 0.94908 0.16581 0.0
C537 C 0.87526 0.94202 0.1417 0.0
C538 C 0.87462 0.97142 0.18241 0.0
C539 C 0.91566 0.98841 0.17431 0.0
C540 C 0.93632 0.98213 0.14979 0.0
C541 C 0.91673 0.95855 0.13418 0.0
C542 C 0.85229 0.97667 0.20871 0.0
C543 C 0.97991 0.99954 0.13994 0.0
C544 C 0.94041 0.06565 0.20788 0.0
C545 C 0.97992 0.05806 0.22356 0.0
C546 C 0.91931 0.04328 0.19162 0.0
C547 C 0.93727 0.01238 0.19168 0.0
C548 C 0.97652 1.00452 0.20802 0.0
C549 C 0.99782 0.02759 0.22349 0.0
C550 C 0.87902 0.05298 0.17368 0.0
C551 C 0.99622 0.9718 0.20904 0.0
H552 H 0.82163 0.93733 0.17184 0.0
H553 H 0.93453 0.95302 0.1161 0.0
H554 H 0.88034 0.97525 0.22402 0.0
H555 H 0.83639 1.00033 0.20958 0.0
H556 H 0.82354 0.95947 0.21315 0.0
H557 H 0.97957 1.0011 0.11846 0.0
H558 H 0.98234 0.02345 0.14792 0.0
H559 H 0.01284 0.98653 0.14558 0.0
H560 H 0.92695 0.08935 0.20776 0.0
H561 H 0.02825 0.02174 0.23578 0.0
H562 H 0.84634 0.03884 0.17745 0.0
H563 H 0.88991 0.04869 0.1533 0.0
H564 H 0.86952 0.07797 0.17584 0.0
H565 H 0.96652 0.95493 0.21232 0.0
H566 H 0.02358 0.96882 0.22458 0.0
H567 H 0.01322 0.96597 0.19022 0.0
C568 C 0.88488 0.07261 0.63445 0.0
C569 C 0.83547 0.07943 0.63516 0.0
C570 C 0.90436 0.04856 0.64968 0.0
C571 C 0.87345 0.03045 0.66552 0.0
C572 C 0.82332 0.03686 0.66584 0.0
C573 C 0.80501 0.06153 0.65089 0.0
C574 C 0.95812 0.04291 0.64921 0.0
C575 C 0.78904 0.01768 0.68202 0.0
C576 C 0.91949 0.95126 0.6876 0.0
C577 C 0.93238 0.95728 0.71335 0.0
C578 C 0.89958 0.97473 0.67192 0.0
C579 C 0.89368 1.00513 0.68205 0.0
C580 C 0.90722 0.01136 0.70799 0.0
C581 C 0.92581 0.98724 0.72344 0.0
C582 C 0.88459 0.96694 0.64457 0.0
C583 C 0.9026 0.04359 0.71935 0.0
H584 H 0.90847 0.08666 0.62246 0.0
H585 H 0.76674 0.06671 0.6513 0.0
H586 H 0.97316 0.04551 0.66901 0.0
H587 H 0.96574 0.01874 0.64287 0.0
H588 H 0.97723 0.05924 0.63605 0.0
H589 H 0.75084 0.02475 0.67923 0.0
H590 H 0.79268 0.99267 0.67702 0.0
H591 H 0.79823 0.02009 0.70283 0.0
H592 H 0.92424 0.92801 0.67985 0.0
H593 H 0.93627 0.992 0.74328 0.0
H594 H 0.90544 0.98123 0.63062 0.0
H595 H 0.8459 0.97265 0.64174 0.0
H596 H 0.89024 0.94197 0.63989 0.0
H597 H 0.92328 0.06047 0.70746 0.0
H598 H 0.91593 0.04475 0.73962 0.0
H599 H 0.86432 0.0511 0.71903 0.0
C600 C 0.72669 0.4565 0.15222 0.0
C601 C 0.69672 0.4389 0.136 0.0
C602 C 0.70827 0.48162 0.16652 0.0
C603 C 0.65849 0.48885 0.16497 0.0
C604 C 0.62814 0.47122 0.1485 0.0
C605 C 0.64775 0.44663 0.134 0.0
C606 C 0.74194 0.50024 0.18349 0.0
C607 C 0.5747 0.47775 0.14676 0.0
C608 C 0.60236 0.53146 0.22191 0.0
C609 C 0.59736 0.56168 0.21204 0.0
C610 C 0.62192 0.50752 0.20674 0.0
C611 C 0.63786 0.51415 0.18127 0.0
C612 C 0.6337 0.54482 0.17139 0.0
C613 C 0.61295 0.56817 0.18681 0.0
C614 C 0.62477 0.47503 0.21782 0.0
C615 C 0.65109 0.55292 0.14452 0.0
H616 H 0.76465 0.45065 0.1536 0.0
H617 H 0.6245 0.43282 0.12163 0.0
H618 H 0.73942 0.52534 0.17855 0.0
H619 H 0.73121 0.49776 0.20408 0.0
H620 H 0.78009 0.4927 0.18147 0.0
H621 H 0.55638 0.46265 0.13234 0.0
H622 H 0.55774 0.47391 0.16596 0.0
H623 H 0.56837 0.50243 0.14143 0.0
H624 H 0.58976 0.52633 0.24133 0.0
H625 H 0.60922 0.5916 0.17923 0.0
H626 H 0.66276 0.46693 0.21803 0.0
H627 H 0.60411 0.4587 0.20542 0.0
H628 H 0.61029 0.47371 0.23786 0.0
H629 H 0.6897 0.54657 0.14244 0.0
H630 H 0.64683 0.57808 0.14007 0.0
H631 H 0.63068 0.53931 0.12993 0.0
C632 C 0.40664 0.46154 0.38719 0.0
C633 C 0.36533 0.44534 0.37898 0.0
C634 C 0.42656 0.48569 0.37229 0.0
C635 C 0.40626 0.49301 0.34786 0.0
C636 C 0.36507 0.47654 0.33923 0.0
C637 C 0.34455 0.45348 0.35507 0.0
C638 C 0.47023 0.50247 0.38275 0.0
C639 C 0.34263 0.48319 0.31318 0.0
C640 C 0.4342 0.57073 0.31554 0.0
C641 C 0.47265 0.56272 0.29929 0.0
C642 C 0.41239 0.54835 0.33159 0.0
C643 C 0.42886 0.51712 0.33094 0.0
C644 C 0.46736 0.50893 0.31426 0.0
C645 C 0.48907 0.53189 0.29881 0.0
C646 C 0.37271 0.55831 0.34977 0.0
C647 C 0.48571 0.47591 0.31278 0.0
H648 H 0.42416 0.45521 0.40519 0.0
H649 H 0.312 0.44192 0.34862 0.0
H650 H 0.50301 0.48923 0.37726 0.0
H651 H 0.47344 0.52653 0.37512 0.0
H652 H 0.46923 0.50355 0.40424 0.0
H653 H 0.31404 0.46615 0.30809 0.0
H654 H 0.32642 0.50677 0.31338 0.0
H655 H 0.3706 0.48282 0.29781 0.0
H656 H 0.4219 0.59467 0.31613 0.0
H657 H 0.51866 0.52565 0.28611 0.0
H658 H 0.3835 0.55319 0.37005 0.0
H659 H 0.33936 0.54492 0.34577 0.0
H660 H 0.36437 0.58353 0.34808 0.0
H661 H 0.50141 0.46907 0.33171 0.0
H662 H 0.5137 0.47295 0.29759 0.0
H663 H 0.45542 0.45976 0.30865 0.0
C664 C 0.12606 0.05402 0.88168 0.0
C665 C 0.16861 0.06974 0.87474 0.0
C666 C 0.106 0.03105 0.8657 0.0
C667 C 0.12779 0.02426 0.84159 0.0
C668 C 0.16977 0.04061 0.83395 0.0
C669 C 0.19012 0.06276 0.85078 0.0
C670 C 0.06153 0.01387 0.87475 0.0
C671 C 0.19349 0.03456 0.80814 0.0
C672 C 0.09666 0.94551 0.81259 0.0
C673 C 0.05692 0.95307 0.79707 0.0
C674 C 0.12118 0.9686 0.82659 0.0
C675 C 0.10611 1.00004 0.82454 0.0
C676 C 0.06752 0.0079 0.80776 0.0
C677 C 0.04289 0.98423 0.79452 0.0
C678 C 0.16182 0.95915 0.8444 0.0
C679 C 0.05167 0.04124 0.80417 0.0
H680 H 0.10802 0.05971 0.89966 0.0
H681 H 0.22328 0.07429 0.84522 0.0
H682 H 0.03115 0.01835 0.86127 0.0
H683 H 0.06836 0.98841 0.87472 0.0
H684 H 0.05027 0.0209 0.89455 0.0
H685 H 0.22118 0.05236 0.80342 0.0
H686 H 0.21123 0.01142 0.80849 0.0
H687 H 0.1662 0.03418 0.79241 0.0
H688 H 0.10757 0.92136 0.81443 0.0
H689 H 0.01277 0.99009 0.78201 0.0
H690 H 0.15176 0.96436 0.86474 0.0
H691 H 0.19476 0.97274 0.83992 0.0
H692 H 0.17054 0.93397 0.84284 0.0
H693 H 0.0357 0.05009 0.82243 0.0
H694 H 0.02453 0.04376 0.78846 0.0
H695 H 0.0832 0.05616 0.79957 0.0
C696 C 0.20965 0.07953 0.9774 0.0
C697 C 0.19731 0.10762 0.96526 0.0
C698 C 0.1994 0.07449 1.0037 0.0
C699 C 0.17546 0.09792 0.01808 0.0
C700 C 0.16366 0.12656 1.00599 0.0
C701 C 0.1751 0.13116 0.97976 0.0
C702 C 0.21342 0.04388 0.01598 0.0
C703 C 0.13755 0.15195 0.02054 0.0
C704 C 0.10414 0.07153 0.07707 0.0
C705 C 0.13486 0.08007 0.09742 0.0
C706 C 0.11666 0.07756 0.05119 0.0
C707 C 0.16136 0.09202 0.04551 0.0
C708 C 0.19266 0.10051 0.066 0.0
C709 C 0.17885 0.09465 0.09172 0.0
C710 C 0.08195 0.06859 0.02993 0.0
C711 C 0.24094 0.11548 0.06073 0.0
H712 H 0.22713 0.06139 0.96623 0.0
H713 H 0.1651 0.15277 0.9703 0.0
H714 H 0.2353 0.04805 0.03364 0.0
H715 H 0.18056 0.0311 0.02205 0.0
H716 H 0.23437 0.02885 1.00258 0.0
H717 H 0.13223 0.17318 1.00857 0.0
H718 H 0.10171 0.14336 0.02691 0.0
H719 H 0.15798 0.15837 0.03821 0.0
H720 H 0.0699 0.06054 0.08145 0.0
H721 H 0.20286 0.10102 0.10742 0.0
H722 H 0.09919 0.05152 0.01676 0.0
H723 H 0.07258 0.08937 0.01817 0.0
H724 H 0.04814 0.05824 0.03763 0.0
H725 H 0.26316 0.09993 0.04841 0.0
H726 H 0.26118 0.12053 0.07882 0.0
H727 H 0.23586 0.13755 0.04991 0.0
C728 C 0.37972 0.40229 0.47722 0.0
C729 C 0.33384 0.39737 0.46651 0.0
C730 C 0.38751 0.39958 0.50401 0.0
C731 C 0.34837 0.39206 0.52047 0.0
C732 C 0.30163 0.38822 0.50984 0.0
C733 C 0.295 0.39074 0.48297 0.0
C734 C 0.43793 0.40354 0.51456 0.0
C735 C 0.25884 0.3806 0.52677 0.0
C736 C 0.36889 0.34972 0.58406 0.0
C737 C 0.36349 0.37378 0.60213 0.0
C738 C 0.36583 0.3556 0.55738 0.0
C739 C 0.35656 0.38626 0.54857 0.0
C740 C 0.35262 0.41085 0.56671 0.0
C741 C 0.35642 0.40433 0.59332 0.0
C742 C 0.37104 0.32882 0.53867 0.0
C743 C 0.34239 0.44378 0.55808 0.0
H744 H 0.40993 0.40712 0.46451 0.0
H745 H 0.25941 0.38725 0.47476 0.0
H746 H 0.43805 0.42062 0.53065 0.0
H747 H 0.45088 0.38105 0.52256 0.0
H748 H 0.46375 0.41145 0.49948 0.0
H749 H 0.22442 0.38047 0.51574 0.0
H750 H 0.26392 0.35734 0.53574 0.0
H751 H 0.25585 0.39776 0.54273 0.0
H752 H 0.37482 0.32614 0.59085 0.0
H753 H 0.35183 0.42292 0.60728 0.0
H754 H 0.39859 0.33437 0.5238 0.0
H755 H 0.33638 0.32496 0.52842 0.0
H756 H 0.3815 0.30683 0.54855 0.0
H757 H 0.36881 0.45114 0.54316 0.0
H758 H 0.34368 0.46055 0.57442 0.0
H759 H 0.30607 0.44491 0.54908 0.0
C760 C 0.67951 0.39164 0.0402 0.0
C761 C 0.72112 0.38026 0.05257 0.0
C762 C 0.67461 0.39053 0.01311 0.0
C763 C 0.71168 0.37707 0.99795 0.0
C764 C 0.75327 0.36495 1.01027 0.0
C765 C 0.75775 0.36703 0.03731 0.0
C766 C 0.62998 0.4041 1.00069 0.0
C767 C 0.79333 0.35 0.99486 0.0
C768 C 0.68128 0.35016 0.92961 0.0
C769 C 0.70142 0.374 0.91455 0.0
C770 C 0.68452 0.35076 0.95677 0.0
C771 C 0.70749 0.37617 0.96916 0.0
C772 C 0.72718 0.40056 0.95399 0.0
C773 C 0.72437 0.399 0.92686 0.0
C774 C 0.66399 0.32399 0.97219 0.0
C775 C 0.75103 0.42837 0.96643 0.0
H776 H 0.65051 0.40139 0.05167 0.0
H777 H 0.79052 0.35871 0.04642 0.0
H778 H 0.64032 0.42268 0.98682 0.0
H779 H 0.61073 0.3859 0.98953 0.0
H780 H 0.60471 0.4141 0.01516 0.0
H781 H 0.82205 0.34015 1.00745 0.0
H782 H 0.7786 0.33107 0.98257 0.0
H783 H 0.80986 0.36743 0.98172 0.0
H784 H 0.66377 0.33074 0.92007 0.0
H785 H 0.73948 0.41761 0.91522 0.0
H786 H 0.63619 0.33262 0.98586 0.0
H787 H 0.69291 0.31302 0.98395 0.0
H788 H 0.64749 0.30592 0.95963 0.0
H789 H 0.72562 0.43975 0.98006 0.0
H790 H 0.76305 0.44586 0.95194 0.0
H791 H 0.78281 0.42076 0.97786 0.0
C792 C 0.85652 0.12398 0.53858 0.0
C793 C 0.81394 0.1352 0.55004 0.0
C794 C 0.86271 0.12414 0.51155 0.0
C795 C 0.82588 0.13638 0.49548 0.0
C796 C 0.78332 0.14836 0.50687 0.0
C797 C 0.77766 0.14733 0.53389 0.0
C798 C 0.90841 0.11082 0.50016 0.0
C799 C 0.74339 0.16195 0.49046 0.0
C800 C 0.8575 0.16066 0.42651 0.0
C801 C 0.83888 0.1358 0.41207 0.0
C802 C 0.85353 0.16121 0.45367 0.0
C803 C 0.83125 0.13598 0.46671 0.0
C804 C 0.81322 0.11054 0.45219 0.0
C805 C 0.81684 0.11091 0.42506 0.0
C806 C 0.8724 0.18901 0.46836 0.0
C807 C 0.79007 0.08292 0.46534 0.0
H808 H 0.88525 0.11508 0.55074 0.0
H809 H 0.74422 0.15555 0.54231 0.0
H810 H 0.89946 0.09133 0.48692 0.0
H811 H 0.92724 0.12878 0.48851 0.0
H812 H 0.93356 0.1021 0.51528 0.0
H813 H 0.71378 0.17189 0.50235 0.0
H814 H 0.75794 0.18054 0.47773 0.0
H815 H 0.7281 0.14367 0.47773 0.0
H816 H 0.87426 0.18003 0.41649 0.0
H817 H 0.80291 0.09149 0.41394 0.0
H818 H 0.89974 0.18149 0.48275 0.0
H819 H 0.84253 0.20017 0.47923 0.0
H820 H 0.88897 0.20665 0.45537 0.0
H821 H 0.81536 0.0727 0.47968 0.0
H822 H 0.77945 0.06452 0.45135 0.0
H823 H 0.75748 0.09049 0.47607 0.0
C824 C 0.88654 0.90677 0.04086 0.0
C825 C 0.84183 0.89994 0.05225 0.0
C826 C 0.89102 0.91034 0.0139 0.0
C827 C 0.84966 0.90744 0.99797 0.0
C828 C 0.80459 0.90004 1.00936 0.0
C829 C 0.80128 0.89623 0.03631 0.0
C830 C 0.93981 0.91777 1.0025 0.0
C831 C 0.75947 0.89713 0.99314 0.0
C832 C 0.84214 0.95086 0.93407 0.0
C833 C 0.84648 0.92669 0.91594 0.0
C834 C 0.84468 0.94502 0.96076 0.0
C835 C 0.85249 0.91427 0.96968 0.0
C836 C 0.85978 0.89002 0.9515 0.0
C837 C 0.85653 0.89649 0.92481 0.0
C838 C 0.83678 0.9716 0.97942 0.0
C839 C 0.86896 0.85701 0.96024 0.0
H840 H 0.9181 0.90927 0.05308 0.0
H841 H 0.76658 0.89121 0.04503 0.0
H842 H 0.94854 0.90114 0.98676 0.0
H843 H 0.93921 0.9414 0.99382 0.0
H844 H 0.969 0.9169 0.01724 0.0
H845 H 0.72766 0.89002 1.0048 0.0
H846 H 0.7514 0.91978 0.98372 0.0
H847 H 0.76501 0.8798 0.97752 0.0
H848 H 0.83545 0.97439 0.92737 0.0
H849 H 0.8598 0.87767 0.91096 0.0
H850 H 0.86699 0.97294 0.99345 0.0
H851 H 0.80329 0.96749 0.99068 0.0
H852 H 0.83356 0.99439 0.96937 0.0
H853 H 0.89809 0.85641 0.97497 0.0
H854 H 0.87917 0.84158 0.94388 0.0
H855 H 0.83594 0.84752 0.96946 0.0
C856 C 0.67424 0.63218 0.53814 0.0
C857 C 0.69273 0.60724 0.55265 0.0
C858 C 0.66243 0.62859 0.51182 0.0
C859 C 0.66976 0.59945 0.49962 0.0
C860 C 0.68958 0.57443 0.51402 0.0
C861 C 0.70057 0.57858 0.54037 0.0
C862 C 0.64093 0.65576 0.49726 0.0
C863 C 0.69856 0.54311 0.50168 0.0
C864 C 0.59571 0.57821 0.44011 0.0
C865 C 0.62834 0.584 0.41992 0.0
C866 C 0.60847 0.58361 0.46605 0.0
C867 C 0.65524 0.59478 0.47204 0.0
C868 C 0.68824 0.6009 0.45173 0.0
C869 C 0.67431 0.59561 0.42591 0.0
C870 C 0.57197 0.57717 0.48708 0.0
C871 C 0.73858 0.6125 0.4573 0.0
H872 H 0.66763 0.65429 0.5476 0.0
H873 H 0.71534 0.55933 0.55142 0.0
H874 H 0.66265 0.66087 0.47973 0.0
H875 H 0.604 0.64976 0.49066 0.0
H876 H 0.63896 0.67714 0.5093 0.0
H877 H 0.71622 0.52649 0.51519 0.0
H878 H 0.66389 0.5329 0.49515 0.0
H879 H 0.72171 0.54584 0.48431 0.0
H880 H 0.55995 0.56958 0.43557 0.0
H881 H 0.69985 0.59982 0.41041 0.0
H882 H 0.56618 0.59841 0.49888 0.0
H883 H 0.58579 0.55881 0.50026 0.0
H884 H 0.53667 0.56949 0.47915 0.0
H885 H 0.73695 0.63451 0.46848 0.0
H886 H 0.75963 0.61665 0.43933 0.0
H887 H 0.75814 0.59525 0.46939 0.0
C888 C 0.36904 0.63284 0.97499 0.0
C889 C 0.3213 0.63673 0.9665 0.0
C890 C 0.3811 0.63547 1.00136 0.0
C891 C 0.34448 0.64194 0.0197 0.0
C892 C 0.29607 0.64512 0.01129 0.0
C893 C 0.28513 0.6426 0.98482 0.0
C894 C 0.43315 0.63219 1.00951 0.0
C895 C 0.25584 0.65176 0.03021 0.0
C896 C 0.3605 0.62872 0.09219 0.0
C897 C 0.36611 0.65932 0.10104 0.0
C898 C 0.35552 0.6224 0.06557 0.0
C899 C 0.3567 0.64728 0.0475 0.0
C900 C 0.36545 0.67795 0.05634 0.0
C901 C 0.36976 0.6836 0.08298 0.0
C902 C 0.34619 0.5894 0.05694 0.0
C903 C 0.36771 0.7051 0.03777 0.0
H904 H 0.39723 0.62852 0.9609 0.0
H905 H 0.24807 0.64514 0.97844 0.0
H906 H 0.44632 0.65466 0.01737 0.0
H907 H 0.43652 0.61465 0.02518 0.0
H908 H 0.45683 0.62522 0.99316 0.0
H909 H 0.21985 0.65198 0.02074 0.0
H910 H 0.25565 0.63399 0.04581 0.0
H911 H 0.26181 0.67472 0.03949 0.0
H912 H 0.35736 0.60997 0.10615 0.0
H913 H 0.37447 0.70726 0.08984 0.0
H914 H 0.37027 0.58312 0.04062 0.0
H915 H 0.30851 0.58739 0.04988 0.0
H916 H 0.35156 0.57237 0.07289 0.0
H917 H 0.39293 0.69997 0.02166 0.0
H918 H 0.37947 0.72691 0.04744 0.0
H919 H 0.33156 0.70907 0.02915 0.0
C920 C 0.17045 0.89439 0.47889 0.0
C921 C 0.21629 0.88529 0.47011 0.0
C922 C 0.1594 0.89491 0.50546 0.0
C923 C 0.19491 0.88596 0.52373 0.0
C924 C 0.24091 0.87623 0.51499 0.0
C925 C 0.25107 0.87612 0.48836 0.0
C926 C 0.10997 0.90548 0.51401 0.0
C927 C 0.2798 0.86647 0.53382 0.0
C928 C 0.19142 0.91604 0.59286 0.0
C929 C 0.17453 0.88999 0.60652 0.0
C930 C 0.19661 0.91538 0.56583 0.0
C931 C 0.18492 0.88791 0.55206 0.0
C932 C 0.16632 0.86185 0.56563 0.0
C933 C 0.16117 0.86325 0.59271 0.0
C934 C 0.21598 0.9438 0.5521 0.0
C935 C 0.15362 0.83211 0.55168 0.0
H936 H 0.14308 0.90107 0.46496 0.0
H937 H 0.28679 0.8695 0.48186 0.0
H938 H 0.09273 0.88723 0.52607 0.0
H939 H 0.11323 0.92664 0.52618 0.0
H940 H 0.08593 0.9108 0.49736 0.0
H941 H 0.31288 0.85815 0.52386 0.0
H942 H 0.28959 0.88641 0.54641 0.0
H943 H 0.26629 0.84762 0.5466 0.0
H944 H 0.20113 0.93692 0.60341 0.0
H945 H 0.14844 0.84298 0.60318 0.0
H946 H 0.1914 0.95069 0.53613 0.0
H947 H 0.2515 0.93833 0.54331 0.0
H948 H 0.22049 0.96392 0.56537 0.0
H949 H 0.12875 0.83703 0.53535 0.0
H950 H 0.13644 0.81477 0.56472 0.0
H951 H 0.18676 0.82165 0.54336 0.0
C952 C 0.21652 0.29546 0.37517 0.0
C953 C 0.26604 0.29621 0.36961 0.0
C954 C 0.18584 0.27405 0.36283 0.0
C955 C 0.20534 0.25236 0.34502 0.0
C956 C 0.25563 0.25228 0.34017 0.0
C957 C 0.28525 0.27427 0.35243 0.0
C958 C 0.13251 0.27478 0.3687 0.0
C959 C 0.27851 0.22975 0.32146 0.0
C960 C 0.13241 0.17995 0.32845 0.0
C961 C 0.1124 0.18818 0.30447 0.0
C962 C 0.16271 0.20061 0.34189 0.0
C963 C 0.17294 0.23024 0.33115 0.0
C964 C 0.15252 0.23868 0.30701 0.0
C965 C 0.12227 0.21762 0.29406 0.0
C966 C 0.18473 0.19045 0.36726 0.0
C967 C 0.16321 0.26977 0.29465 0.0
H968 H 0.20169 0.31176 0.38906 0.0
H969 H 0.32368 0.27432 0.34854 0.0
H970 H 0.11195 0.2795 0.35067 0.0
H971 H 0.12063 0.25175 0.37607 0.0
H972 H 0.12311 0.29282 0.38325 0.0
H973 H 0.31698 0.22546 0.32634 0.0
H974 H 0.25941 0.20709 0.32093 0.0
H975 H 0.27727 0.24015 0.30183 0.0
H976 H 0.12519 0.15709 0.33647 0.0
H977 H 0.10622 0.22426 0.27575 0.0
H978 H 0.17538 0.20729 0.38274 0.0
H979 H 0.22464 0.1902 0.36552 0.0
H980 H 0.17244 0.16691 0.37325 0.0
H981 H 0.15518 0.28892 0.30839 0.0
H982 H 0.14207 0.27358 0.27664 0.0
H983 H 0.20216 0.27111 0.28983 0.0
C984 C 0.37378 0.20422 0.8797 0.0
C985 C 0.32583 0.19553 0.87503 0.0
C986 C 0.39421 0.23028 0.86747 0.0
C987 C 0.36606 0.24812 0.85002 0.0
C988 C 0.31728 0.2398 0.84558 0.0
C989 C 0.298 0.21331 0.8578 0.0
C990 C 0.44648 0.23806 0.87253 0.0
C991 C 0.28586 0.25784 0.82703 0.0
C992 C 0.41381 0.32858 0.83227 0.0
C993 C 0.43605 0.32273 0.80841 0.0
C994 C 0.38987 0.3047 0.84579 0.0
C995 C 0.38878 0.27421 0.83532 0.0
C996 C 0.41104 0.26834 0.81114 0.0
C997 C 0.43447 0.29263 0.79805 0.0
C998 C 0.36549 0.31206 0.87117 0.0
C999 C 0.41041 0.23631 0.79913 0.0
H1000 H 0.39573 0.19011 0.89254 0.0
H1001 H 0.26133 0.20623 0.85351 0.0
H1002 H 0.46746 0.23571 0.85434 0.0
H1003 H 0.44989 0.26257 0.87901 0.0
H1004 H 0.46285 0.22268 0.88745 0.0
H1005 H 0.24693 0.25417 0.8311 0.0
H1006 H 0.29363 0.28316 0.8278 0.0
H1007 H 0.29315 0.2496 0.80708 0.0
H1008 H 0.41452 0.35195 0.84019 0.0
H1009 H 0.45211 0.28797 0.77974 0.0
H1010 H 0.38172 0.29792 0.88691 0.0
H1011 H 0.32671 0.30578 0.87005 0.0
H1012 H 0.36854 0.33707 0.87637 0.0
H1013 H 0.42716 0.21922 0.81253 0.0
H1014 H 0.42992 0.23556 0.78035 0.0
H1015 H 0.37262 0.22885 0.79582 0.0
C1016 C 0.69076 0.21121 0.6669 0.0
C1017 C 0.73401 0.22301 0.65673 0.0
C1018 C 0.6588 0.23049 0.68067 0.0
C1019 C 0.67096 0.2621 0.68497 0.0
C1020 C 0.71495 0.27396 0.67513 0.0
C1021 C 0.74591 0.25426 0.66119 0.0
C1022 C 0.61219 0.217 0.69079 0.0
C1023 C 0.7296 0.30738 0.6796 0.0
C1024 C 0.57344 0.3212 0.70147 0.0
C1025 C 0.57871 0.32412 0.72842 0.0
C1026 C 0.6026 0.30071 0.68718 0.0
C1027 C 0.63809 0.28274 0.70005 0.0
C1028 C 0.64312 0.28518 0.72727 0.0
C1029 C 0.61329 0.30571 0.74111 0.0
C1030 C 0.5959 0.29866 0.65821 0.0
C1031 C 0.68066 0.26652 0.74173 0.0
H1032 H 0.68192 0.18686 0.66417 0.0
H1033 H 0.77987 0.26322 0.65393 0.0
H1034 H 0.61134 0.21858 0.71222 0.0
H1035 H 0.58113 0.23063 0.68333 0.0
H1036 H 0.60736 0.19225 0.68513 0.0
H1037 H 0.76495 0.313 0.67063 0.0
H1038 H 0.70191 0.3233 0.67149 0.0
H1039 H 0.73189 0.31211 0.70069 0.0
H1040 H 0.54679 0.33515 0.6914 0.0
H1041 H 0.61767 0.30761 0.76191 0.0
H1042 H 0.5893 0.27417 0.65243 0.0
H1043 H 0.6293 0.30639 0.64827 0.0
H1044 H 0.56538 0.31321 0.65125 0.0
H1045 H 0.67562 0.24132 0.73795 0.0
H1046 H 0.67916 0.27048 0.76297 0.0
H1047 H 0.7172 0.27284 0.73473 0.0
C1048 C 0.89412 0.3211 0.16942 0.0
C1049 C 0.85199 0.31586 0.15506 0.0
C1050 C 0.91472 0.29743 0.18459 0.0
C1051 C 0.89275 0.26769 0.18535 0.0
C1052 C 0.84982 0.26234 0.17114 0.0
C1053 C 0.83029 0.28638 0.15589 0.0
C1054 C 0.96089 0.30396 0.19914 0.0
C1055 C 0.82525 0.23099 0.1715 0.0
C1056 C 0.97399 0.19879 0.20042 0.0
C1057 C 0.96509 0.1938 0.22687 0.0
C1058 C 0.95046 0.22258 0.18672 0.0
C1059 C 0.91657 0.2417 0.19962 0.0
C1060 C 0.90662 0.23648 0.22617 0.0
C1061 C 0.9312 0.21272 0.23952 0.0
C1062 C 0.96248 0.22752 0.15848 0.0
C1063 C 0.87029 0.25616 0.2405 0.0
H1064 H 0.91157 0.34364 0.16836 0.0
H1065 H 0.79839 0.28197 0.14432 0.0
H1066 H 0.95644 0.29818 0.21994 0.0
H1067 H 0.99026 0.28901 0.19151 0.0
H1068 H 0.97222 0.32869 0.19747 0.0
H1069 H 0.79015 0.23133 0.16112 0.0
H1070 H 0.84888 0.21337 0.16226 0.0
H1071 H 0.819 0.22335 0.19176 0.0
H1072 H 0.99987 0.18432 0.19032 0.0
H1073 H 0.92378 0.20903 0.2599 0.0
H1074 H 0.97705 0.25132 0.15558 0.0
H1075 H 0.92935 0.22556 0.14654 0.0
H1076 H 0.98939 0.21046 0.15124 0.0
H1077 H 0.88227 0.28079 0.24068 0.0
H1078 H 0.86517 0.24831 0.26083 0.0
H1079 H 0.83496 0.25541 0.23042 0.0
C1080 C 0.76691 0.71728 0.67328 0.0
C1081 C 0.77052 0.71447 0.64633 0.0
C1082 C 0.79712 0.73762 0.68707 0.0
C1083 C 0.83191 0.75553 0.67356 0.0
C1084 C 0.83691 0.75182 0.64643 0.0
C1085 C 0.80621 0.73125 0.63314 0.0
C1086 C 0.7899 0.7409 0.71589 0.0
C1087 C 0.87385 0.77018 0.63133 0.0
C1088 C 0.87211 0.83233 0.70311 0.0
C1089 C 0.91635 0.8243 0.71444 0.0
C1090 C 0.84425 0.81017 0.6899 0.0
C1091 C 0.8614 0.77925 0.68754 0.0
C1092 C 0.90649 0.7711 0.69858 0.0
C1093 C 0.93348 0.79374 0.71189 0.0
C1094 C 0.79612 0.81979 0.67878 0.0
C1095 C 0.92574 0.73832 0.69674 0.0
H1096 H 0.73964 0.70403 0.68353 0.0
H1097 H 0.80939 0.7287 0.61233 0.0
H1098 H 0.82458 0.74447 0.72619 0.0
H1099 H 0.76676 0.76149 0.71951 0.0
H1100 H 0.77159 0.72021 0.72426 0.0
H1101 H 0.8749 0.76343 0.61058 0.0
H1102 H 0.86544 0.79539 0.6326 0.0
H1103 H 0.91025 0.76673 0.6398 0.0
H1104 H 0.85916 0.85605 0.70457 0.0
H1105 H 0.96757 0.78737 0.72072 0.0
H1106 H 0.76686 0.80678 0.68867 0.0
H1107 H 0.79433 0.8139 0.65789 0.0
H1108 H 0.78917 0.84511 0.68107 0.0
H1109 H 0.90052 0.72204 0.70649 0.0
H1110 H 0.96194 0.73589 0.70577 0.0
H1111 H 0.92816 0.73113 0.67615 0.0
C1112 C 0.71268 0.81974 0.17426 0.0
C1113 C 0.7115 0.82191 0.1472 0.0
C1114 C 0.69183 0.79425 0.18713 0.0
C1115 C 0.66976 0.77027 0.17252 0.0
C1116 C 0.67015 0.77183 0.14512 0.0
C1117 C 0.69121 0.79762 0.13277 0.0
C1118 C 0.69276 0.7932 0.21636 0.0
C1119 C 0.64748 0.74658 0.12886 0.0
C1120 C 0.64664 0.69243 0.20537 0.0
C1121 C 0.59773 0.69492 0.21205 0.0
C1122 C 0.67057 0.71668 0.19247 0.0
C1123 C 0.64489 0.74407 0.18591 0.0
C1124 C 0.59531 0.74654 0.19226 0.0
C1125 C 0.5723 0.72191 0.20521 0.0
C1126 C 0.72341 0.71308 0.18608 0.0
C1127 C 0.56673 0.77542 0.18571 0.0
H1128 H 0.72912 0.83835 0.18535 0.0
H1129 H 0.69101 0.79913 0.11181 0.0
H1130 H 0.65546 0.79158 0.22403 0.0
H1131 H 0.71238 0.77213 0.22294 0.0
H1132 H 0.71046 0.814 0.22488 0.0
H1133 H 0.65253 0.75065 0.10779 0.0
H1134 H 0.66325 0.72363 0.13394 0.0
H1135 H 0.60825 0.74529 0.13296 0.0
H1136 H 0.66637 0.67144 0.21023 0.0
H1137 H 0.53457 0.72408 0.21042 0.0
H1138 H 0.74469 0.73075 0.19677 0.0
H1139 H 0.72952 0.71713 0.16512 0.0
H1140 H 0.73741 0.68963 0.19122 0.0
H1141 H 0.58294 0.79592 0.19544 0.0
H1142 H 0.52836 0.77355 0.1917 0.0
H1143 H 0.56809 0.77983 0.16455 0.0
C1144 C 0.30381 0.76281 0.36629 0.0
C1145 C 0.31324 0.79461 0.3696 0.0
C1146 C 0.33586 0.74359 0.35263 0.0
C1147 C 0.37842 0.7565 0.34193 0.0
C1148 C 0.38837 0.78857 0.34535 0.0
C1149 C 0.35532 0.80735 0.35883 0.0
C1150 C 0.3235 0.70962 0.34904 0.0
C1151 C 0.43341 0.80317 0.3343 0.0
C1152 C 0.47661 0.69908 0.32264 0.0
C1153 C 0.46822 0.69587 0.29596 0.0
C1154 C 0.44858 0.7194 0.33775 0.0
C1155 C 0.41101 0.73671 0.32597 0.0
C1156 C 0.40313 0.73413 0.29898 0.0
C1157 C 0.43201 0.71397 0.28431 0.0
C1158 C 0.45843 0.72181 0.36643 0.0
C1159 C 0.36318 0.75196 0.28568 0.0
H1160 H 0.27075 0.75309 0.37405 0.0
H1161 H 0.36221 0.83208 0.3607 0.0
H1162 H 0.3192 0.70444 0.32812 0.0
H1163 H 0.35329 0.69478 0.35638 0.0
H1164 H 0.28971 0.70301 0.35921 0.0
H1165 H 0.43754 0.82789 0.34019 0.0
H1166 H 0.46576 0.79002 0.34071 0.0
H1167 H 0.43235 0.80206 0.31284 0.0
H1168 H 0.50462 0.68537 0.33185 0.0
H1169 H 0.4252 0.71184 0.26372 0.0
H1170 H 0.42696 0.71292 0.37745 0.0
H1171 H 0.46355 0.74653 0.372 0.0
H1172 H 0.4909 0.70839 0.37234 0.0
H1173 H 0.32777 0.74469 0.29366 0.0
H1174 H 0.3628 0.74814 0.26441 0.0
H1175 H 0.36708 0.77725 0.28942 0.0
C1176 C 0.19179 0.72272 0.85948 0.0
C1177 C 0.16492 0.70096 0.87381 0.0
C1178 C 0.16879 0.74663 0.84552 0.0
C1179 C 0.11776 0.74852 0.84547 0.0
C1180 C 0.09055 0.7266 0.85981 0.0
C1181 C 0.11448 0.70315 0.87379 0.0
C1182 C 0.19905 0.76968 0.83054 0.0
C1183 C 0.0361 0.72758 0.86003 0.0
C1184 C 0.0566 0.82437 0.82576 0.0
C1185 C 0.04509 0.81855 0.79978 0.0
C1186 C 0.08057 0.8019 0.84084 0.0
C1187 C 0.09273 0.77279 0.82974 0.0
C1188 C 0.08067 0.76671 0.80357 0.0
C1189 C 0.05726 0.78972 0.78889 0.0
C1190 C 0.09327 0.8094 0.86856 0.0
C1191 C 0.09243 0.73586 0.79108 0.0
H1192 H 0.23076 0.72108 0.85901 0.0
H1193 H 0.09366 0.68614 0.88456 0.0
H1194 H 0.191 0.76778 0.80956 0.0
H1195 H 0.18998 0.79378 0.83651 0.0
H1196 H 0.23832 0.76589 0.83347 0.0
H1197 H 0.02027 0.70916 0.87253 0.0
H1198 H 0.02345 0.75058 0.86704 0.0
H1199 H 0.02209 0.72462 0.84005 0.0
H1200 H 0.04763 0.84673 0.8342 0.0
H1201 H 0.04817 0.78504 0.76884 0.0
H1202 H 0.13283 0.80748 0.87141 0.0
H1203 H 0.07602 0.79234 0.88178 0.0
H1204 H 0.08164 0.83319 0.87423 0.0
H1205 H 0.13194 0.73181 0.79157 0.0
H1206 H 0.08006 0.73469 0.77064 0.0
H1207 H 0.07522 0.71665 0.80208 0.0
loop_
_geom_bond_atom_site_label_1
_geom_bond_atom_site_label_2
_geom_bond_distance
_geom_bond_site_symmetry_2
_ccdc_geom_bond_type
H0 C7 0.929 . S
H1 C10 0.930 . S
H2 C12 0.929 . S
H3 C4 0.969 . S
C4 H3 0.969 . S
C4 O5 1.550 . S
C4 H6 0.973 . S
O5 C4 1.550 . S
O5 C11 1.412 . S
H6 C4 0.973 . S
C7 H0 0.929 . S
C7 C8 1.400 . S
C7 C9 1.364 . S
C8 C7 1.400 . S
C8 C12 1.377 . S
C9 C7 1.364 . S
C9 C10 1.374 . S
C10 H1 0.930 . S
C10 C9 1.374 . S
C10 C11 1.383 . S
C11 O5 1.412 . S
C11 C10 1.383 . S
C11 C12 1.394 . S
C12 H2 0.929 . S
C12 C8 1.377 . S
C12 C11 1.394 . S
H13 C20 0.929 . S
H14 C23 0.930 . S
H15 C25 0.929 . S
H16 C17 0.969 . S
C17 H16 0.969 . S
C17 O18 1.550 . S
C17 H19 0.973 . S
O18 C17 1.550 . S
O18 C24 1.412 . S
H19 C17 0.973 . S
C20 H13 0.929 . S
C20 C21 1.400 . S
C20 C22 1.364 . S
C21 C20 1.400 . S
C21 C25 1.377 . S
C22 C20 1.364 . S
C22 C23 1.374 . S
C23 H14 0.930 . S
C23 C22 1.374 . S
C23 C24 1.383 . S
C24 O18 1.412 . S
C24 C23 1.383 . S
C24 C25 1.394 . S
C25 H15 0.929 . S
C25 C21 1.377 . S
C25 C24 1.394 . S
H26 C33 0.929 . S
H27 C36 0.930 . S
H28 C38 0.929 . S
H29 C30 0.969 . S
C30 H29 0.969 . S
C30 O31 1.550 . S
C30 H32 0.973 . S
O31 C30 1.550 . S
O31 C37 1.412 . S
H32 C30 0.973 . S
C33 H26 0.929 . S
C33 C34 1.400 . S
C33 C35 1.364 . S
C34 C33 1.400 . S
C34 C38 1.377 . S
C35 C33 1.364 . S
C35 C36 1.374 . S
C36 H27 0.930 . S
C36 C35 1.374 . S
C36 C37 1.383 . S
C37 O31 1.412 . S
C37 C36 1.383 . S
C37 C38 1.394 . S
C38 H28 0.929 . S
C38 C34 1.377 . S
C38 C37 1.394 . S
H39 C46 0.929 . S
H40 C49 0.930 . S
H41 C51 0.929 . S
H42 C43 0.969 . S
C43 H42 0.969 . S
C43 O44 1.550 . S
C43 H45 0.973 . S
O44 C43 1.550 . S
O44 C50 1.412 . S
H45 C43 0.973 . S
C46 H39 0.929 . S
C46 C47 1.400 . S
C46 C48 1.364 . S
C47 C46 1.400 . S
C47 C51 1.377 . S
C48 C46 1.364 . S
C48 C49 1.374 . S
C49 H40 0.930 . S
C49 C48 1.374 . S
C49 C50 1.383 . S
C50 O44 1.412 . S
C50 C49 1.383 . S
C50 C51 1.394 . S
C51 H41 0.929 . S
C51 C47 1.377 . S
C51 C50 1.394 . S
H52 C59 0.929 . S
H53 C62 0.930 . S
H54 C64 0.929 . S
H55 C56 0.969 . S
C56 H55 0.969 . S
C56 O57 1.550 . S
C56 H58 0.973 . S
O57 C56 1.550 . S
O57 C63 1.412 . S
H58 C56 0.973 . S
C59 H52 0.929 . S
C59 C60 1.400 . S
C59 C61 1.364 . S
C60 C59 1.400 . S
C60 C64 1.377 . S
C61 C59 1.364 . S
C61 C62 1.374 . S
C62 H53 0.930 . S
C62 C61 1.374 . S
C62 C63 1.383 . S
C63 O57 1.412 . S
C63 C62 1.383 . S
C63 C64 1.394 . S
C64 H54 0.929 . S
C64 C60 1.377 . S
C64 C63 1.394 . S
H65 C72 0.929 . S
H66 C75 0.930 . S
H67 C77 0.929 . S
H68 C69 0.969 . S
C69 H68 0.969 . S
C69 O70 1.550 . S
C69 H71 0.973 . S
O70 C69 1.550 . S
O70 C76 1.412 . S
H71 C69 0.973 . S
C72 H65 0.929 . S
C72 C73 1.400 . S
C72 C74 1.364 . S
C73 C72 1.400 . S
C73 C77 1.377 . S
C74 C72 1.364 . S
C74 C75 1.374 . S
C75 H66 0.930 . S
C75 C74 1.374 . S
C75 C76 1.383 . S
C76 O70 1.412 . S
C76 C75 1.383 . S
C76 C77 1.394 . S
C77 H67 0.929 . S
C77 C73 1.377 . S
C77 C76 1.394 . S
H78 C85 0.929 . S
H79 C88 0.930 . S
H80 C90 0.929 . S
H81 C82 0.969 . S
C82 H81 0.969 . S
C82 O83 1.550 . S
C82 H84 0.973 . S
O83 C82 1.550 . S
O83 C89 1.412 . S
H84 C82 0.973 . S
C85 H78 0.929 . S
C85 C86 1.400 . S
C85 C87 1.364 . S
C86 C85 1.400 . S
C86 C90 1.377 . S
C87 C85 1.364 . S
C87 C88 1.374 . S
C88 H79 0.930 . S
C88 C87 1.374 . S
C88 C89 1.383 . S
C89 O83 1.412 . S
C89 C88 1.383 . S
C89 C90 1.394 . S
C90 H80 0.929 . S
C90 C86 1.377 . S
C90 C89 1.394 . S
H91 C98 0.929 . S
H92 C101 0.930 . S
H93 C103 0.929 . S
H94 C95 0.969 . S
C95 H94 0.969 . S
C95 O96 1.550 . S
C95 H97 0.973 . S
O96 C95 1.550 . S
O96 C102 1.412 . S
H97 C95 0.973 . S
C98 H91 0.929 . S
C98 C99 1.400 . S
C98 C100 1.364 . S
C99 C98 1.400 . S
C99 C103 1.377 . S
C100 C98 1.364 . S
C100 C101 1.374 . S
C101 H92 0.930 . S
C101 C100 1.374 . S
C101 C102 1.383 . S
C102 O96 1.412 . S
C102 C101 1.383 . S
C102 C103 1.394 . S
C103 H93 0.929 . S
C103 C99 1.377 . S
C103 C102 1.394 . S
Eu104 N133 2.600 . S
Eu104 N139 2.562 . S
Eu104 O148 2.462 . S
Eu104 O149 2.373 . S
Eu104 O151 2.432 . S
Eu104 O152 2.291 . S
Eu104 O156 2.335 . S
Eu104 O159 2.372 . S
Eu104 C168 2.787 . S
C105 N106 1.365 . S
C105 C108 1.405 . S
C105 C112 1.448 . S
N106 C105 1.365 . S
N106 C109 1.319 . S
N106 Eu115 2.600 . S
C107 C109 1.397 . S
C107 C110 1.367 . S
C107 H127 0.931 . S
C108 C105 1.405 . S
C108 C110 1.403 . S
C108 C114 1.439 . S
C109 N106 1.319 . S
C109 C107 1.397 . S
C109 H120 0.930 . S
C110 C107 1.367 . S
C110 C108 1.403 . S
C110 H131 0.929 . S
C111 C112 1.430 . S
C111 C113 1.387 . S
C111 C117 1.380 1_545 S
C112 C105 1.448 . S
C112 C111 1.430 . S
C112 N116 1.351 . S
C113 C111 1.387 . S
C113 C114 1.374 . S
C113 H128 0.931 . S
C114 C108 1.439 . S
C114 C113 1.374 . S
C114 H129 0.931 . S
Eu115 N106 2.600 . S
Eu115 N116 2.562 . S
Eu115 O150 2.335 1_655 S
Eu115 O153 2.372 . S
Eu115 O154 2.462 . S
Eu115 O155 2.373 . S
Eu115 O157 2.432 . S
Eu115 O158 2.291 1_655 S
Eu115 C179 2.787 . S
N116 C112 1.351 . S
N116 Eu115 2.562 . S
N116 C118 1.325 . S
C117 C111 1.380 1_565 S
C117 C119 1.364 1_565 S
C117 H125 0.957 . S
C118 N116 1.325 . S
C118 C119 1.444 . S
C118 H124 0.929 . S
C119 C117 1.364 1_545 S
C119 C118 1.444 . S
C119 H121 0.905 1_545 S
H120 C109 0.930 . S
H121 C119 0.905 1_565 S
H122 C137 0.930 . S
H123 C144 0.930 . S
H124 C118 0.929 . S
H125 C117 0.957 . S
H126 C140 0.929 . S
H127 C107 0.931 . S
H128 C113 0.931 . S
H129 C114 0.931 . S
H130 C135 0.931 . S
H131 C110 0.929 . S
H132 C143 0.930 . S
N133 Eu104 2.600 . S
N133 C134 1.365 . S
N133 C137 1.319 . S
C134 N133 1.365 . S
C134 C136 1.405 . S
C134 C142 1.448 . S
C135 H130 0.931 . S
C135 C137 1.397 . S
C135 C138 1.367 . S
C136 C134 1.405 . S
C136 C138 1.403 . S
C136 C169 1.439 . S
C137 H122 0.930 . S
C137 N133 1.319 . S
C137 C135 1.397 . S
C138 C135 1.367 . S
C138 C136 1.403 . S
C138 H145 0.929 . S
N139 Eu104 2.562 . S
N139 C140 1.325 . S
N139 C142 1.351 . S
C140 H126 0.929 . S
C140 N139 1.325 . S
C140 C144 1.416 . S
C141 C142 1.430 . S
C141 C143 1.404 . S
C141 C170 1.387 . S
C142 C134 1.448 . S
C142 N139 1.351 . S
C142 C141 1.430 . S
C143 H132 0.930 . S
C143 C141 1.404 . S
C143 C144 1.366 . S
C144 H123 0.930 . S
C144 C140 1.416 . S
C144 C143 1.366 . S
H145 C138 0.929 . S
H146 C169 0.931 . S
H147 C170 0.931 . S
O148 Eu104 2.462 . S
O148 C168 1.252 . S
O149 Eu104 2.373 . S
O149 C160 1.249 . S
O150 Eu115 2.335 1_455 S
O150 C160 1.264 . S
O151 Eu104 2.432 . S
O151 C168 1.268 . S
O152 Eu104 2.291 . S
O152 C167 1.255 1_455 S
O153 Eu115 2.372 . S
O153 C167 1.257 . S
O154 Eu115 2.462 . S
O154 C179 1.252 . S
O155 Eu115 2.373 . S
O155 C171 1.249 . S
O156 Eu104 2.335 . S
O156 C171 1.264 1_455 S
O157 Eu115 2.432 . S
O157 C179 1.268 . S
O158 Eu115 2.291 1_455 S
O158 C178 1.255 . S
O159 Eu104 2.372 . S
O159 C178 1.257 . S
C160 O149 1.249 . S
C160 O150 1.264 . S
C161 C164 1.382 . S
C161 C166 1.390 . S
C161 C168 1.506 . S
C162 C163 1.398 . S
C162 C166 1.392 . S
C163 C162 1.398 . S
C163 C165 1.372 . S
C163 H180 0.931 . S
C164 C161 1.382 . S
C164 C165 1.390 . S
C164 H181 0.931 . S
C165 C163 1.372 . S
C165 C164 1.390 . S
C165 H182 0.929 . S
C166 C161 1.390 . S
C166 C162 1.392 . S
C166 H183 0.930 . S
C167 O152 1.255 1_655 S
C167 O153 1.257 . S
C168 Eu104 2.787 . S
C168 O148 1.252 . S
C168 O151 1.268 . S
C168 C161 1.506 . S
C169 C136 1.439 . S
C169 H146 0.931 . S
C169 C170 1.374 . S
C170 C141 1.387 . S
C170 H147 0.931 . S
C170 C169 1.374 . S
C171 O155 1.249 . S
C171 O156 1.264 1_655 S
C172 C175 1.382 . S
C172 C176 1.390 . S
C172 C179 1.506 . S
C173 C174 1.398 . S
C173 C176 1.392 . S
C174 C173 1.398 . S
C174 C177 1.372 . S
C174 H184 0.931 . S
C175 C172 1.382 . S
C175 C177 1.390 . S
C175 H185 0.931 . S
C176 C172 1.390 . S
C176 C173 1.392 . S
C176 H186 0.930 . S
C177 C174 1.372 . S
C177 C175 1.390 . S
C177 H187 0.929 . S
C178 O158 1.255 . S
C178 O159 1.257 . S
C179 Eu115 2.787 . S
C179 O154 1.252 . S
C179 O157 1.268 . S
C179 C172 1.506 . S
H180 C163 0.931 . S
H181 C164 0.931 . S
H182 C165 0.929 . S
H183 C166 0.930 . S
H184 C174 0.931 . S
H185 C175 0.931 . S
H186 C176 0.930 . S
H187 C177 0.929 . S
Eu188 N217 2.600 . S
Eu188 N223 2.562 . S
Eu188 O232 2.462 . S
Eu188 O233 2.373 . S
Eu188 O235 2.432 . S
Eu188 O236 2.291 . S
Eu188 O240 2.335 . S
Eu188 O243 2.372 . S
Eu188 C252 2.787 . S
C189 N190 1.365 . S
C189 C192 1.405 . S
C189 C196 1.448 . S
N190 C189 1.365 . S
N190 C193 1.319 . S
N190 Eu199 2.600 . S
C191 C193 1.397 . S
C191 C194 1.367 . S
C191 H211 0.931 . S
C192 C189 1.405 . S
C192 C194 1.403 . S
C192 C198 1.439 . S
C193 N190 1.319 . S
C193 C191 1.397 . S
C193 H204 0.930 . S
C194 C191 1.367 . S
C194 C192 1.403 . S
C194 H215 0.929 . S
C195 C196 1.430 . S
C195 C197 1.387 . S
C195 C201 1.404 . S
C196 C189 1.448 . S
C196 C195 1.430 . S
C196 N200 1.351 . S
C197 C195 1.387 . S
C197 C198 1.374 . S
C197 H212 0.931 . S
C198 C192 1.439 . S
C198 C197 1.374 . S
C198 H213 0.931 . S
Eu199 N190 2.600 . S
Eu199 N200 2.562 . S
Eu199 O234 2.335 . S
Eu199 O237 2.372 . S
Eu199 O238 2.462 . S
Eu199 O239 2.373 . S
Eu199 O241 2.432 . S
Eu199 O242 2.291 . S
Eu199 C263 2.787 . S
N200 C196 1.351 . S
N200 Eu199 2.562 . S
N200 C202 1.325 . S
C201 C195 1.404 . S
C201 C203 1.366 . S
C201 H209 0.930 . S
C202 N200 1.325 . S
C202 C203 1.416 . S
C202 H208 0.929 . S
C203 C201 1.366 . S
C203 C202 1.416 . S
C203 H205 0.930 . S
H204 C193 0.930 . S
H205 C203 0.930 . S
H206 C221 0.930 . S
H207 C228 0.930 . S
H208 C202 0.929 . S
H209 C201 0.930 . S
H210 C224 0.929 . S
H211 C191 0.931 . S
H212 C197 0.931 . S
H213 C198 0.931 . S
H214 C219 0.931 . S
H215 C194 0.929 . S
H216 C227 0.930 . S
N217 Eu188 2.600 . S
N217 C218 1.365 . S
N217 C221 1.319 . S
C218 N217 1.365 . S
C218 C220 1.405 . S
C218 C226 1.448 . S
C219 H214 0.931 . S
C219 C221 1.397 . S
C219 C222 1.367 . S
C220 C218 1.405 . S
C220 C222 1.403 . S
C220 C253 1.439 . S
C221 H206 0.930 . S
C221 N217 1.319 . S
C221 C219 1.397 . S
C222 C219 1.367 . S
C222 C220 1.403 . S
C222 H229 0.929 . S
N223 Eu188 2.562 . S
N223 C224 1.325 . S
N223 C226 1.351 . S
C224 H210 0.929 . S
C224 N223 1.325 . S
C224 C228 1.416 . S
C225 C226 1.430 . S
C225 C227 1.404 . S
C225 C254 1.387 . S
C226 C218 1.448 . S
C226 N223 1.351 . S
C226 C225 1.430 . S
C227 H216 0.930 . S
C227 C225 1.404 . S
C227 C228 1.366 . S
C228 H207 0.930 . S
C228 C224 1.416 . S
C228 C227 1.366 . S
H229 C222 0.929 . S
H230 C253 0.931 . S
H231 C254 0.931 . S
O232 Eu188 2.462 . S
O232 C252 1.252 . S
O233 Eu188 2.373 . S
O233 C244 1.249 . S
O234 Eu199 2.335 . S
O234 C244 1.264 . S
O235 Eu188 2.432 . S
O235 C252 1.268 . S
O236 Eu188 2.291 . S
O236 C251 1.255 . S
O237 Eu199 2.372 . S
O237 C251 1.257 . S
O238 Eu199 2.462 . S
O238 C263 1.252 . S
O239 Eu199 2.373 . S
O239 C255 1.249 . S
O240 Eu188 2.335 . S
O240 C255 1.264 . S
O241 Eu199 2.432 . S
O241 C263 1.268 . S
O242 Eu199 2.291 . S
O242 C262 1.255 . S
O243 Eu188 2.372 . S
O243 C262 1.257 . S
C244 O233 1.249 . S
C244 O234 1.264 . S
C245 C248 1.382 . S
C245 C250 1.390 . S
C245 C252 1.506 . S
C246 C247 1.398 . S
C246 C250 1.392 . S
C247 C246 1.398 . S
C247 C249 1.372 . S
C247 H264 0.931 . S
C248 C245 1.382 . S
C248 C249 1.390 . S
C248 H265 0.931 . S
C249 C247 1.372 . S
C249 C248 1.390 . S
C249 H266 0.929 . S
C250 C245 1.390 . S
C250 C246 1.392 . S
C250 H267 0.930 . S
C251 O236 1.255 . S
C251 O237 1.257 . S
C252 Eu188 2.787 . S
C252 O232 1.252 . S
C252 O235 1.268 . S
C252 C245 1.506 . S
C253 C220 1.439 . S
C253 H230 0.931 . S
C253 C254 1.374 . S
C254 C225 1.387 . S
C254 H231 0.931 . S
C254 C253 1.374 . S
C255 O239 1.249 . S
C255 O240 1.264 . S
C256 C259 1.382 . S
C256 C260 1.390 . S
C256 C263 1.506 . S
C257 C258 1.398 . S
C257 C260 1.392 . S
C258 C257 1.398 . S
C258 C261 1.372 . S
C258 H268 0.931 . S
C259 C256 1.382 . S
C259 C261 1.390 . S
C259 H269 0.931 . S
C260 C256 1.390 . S
C260 C257 1.392 . S
C260 H270 0.930 . S
C261 C258 1.372 . S
C261 C259 1.390 . S
C261 H271 0.929 . S
C262 O242 1.255 . S
C262 O243 1.257 . S
C263 Eu199 2.787 . S
C263 O238 1.252 . S
C263 O241 1.268 . S
C263 C256 1.506 . S
H264 C247 0.931 . S
H265 C248 0.931 . S
H266 C249 0.929 . S
H267 C250 0.930 . S
H268 C258 0.931 . S
H269 C259 0.931 . S
H270 C260 0.930 . S
H271 C261 0.929 . S
Eu272 N301 2.600 . S
Eu272 N307 2.562 . S
Eu272 O316 2.462 . S
Eu272 O317 2.373 . S
Eu272 O319 2.432 . S
Eu272 O320 2.291 . S
Eu272 O324 2.335 . S
Eu272 O327 2.372 . S
Eu272 C336 2.787 . S
C273 N274 1.365 . S
C273 C276 1.405 . S
C273 C280 1.448 . S
N274 C273 1.365 . S
N274 C277 1.319 . S
N274 Eu283 2.600 . S
C275 C277 1.397 . S
C275 C278 1.367 . S
C275 H295 0.931 . S
C276 C273 1.405 . S
C276 C278 1.403 . S
C276 C282 1.439 . S
C277 N274 1.319 . S
C277 C275 1.397 . S
C277 H288 0.930 . S
C278 C275 1.367 . S
C278 C276 1.403 . S
C278 H299 0.929 . S
C279 C280 1.430 . S
C279 C281 1.387 . S
C279 C285 1.404 . S
C280 C273 1.448 . S
C280 C279 1.430 . S
C280 N284 1.351 . S
C281 C279 1.387 . S
C281 C282 1.374 . S
C281 H296 0.931 . S
C282 C276 1.439 . S
C282 C281 1.374 . S
C282 H297 0.931 . S
Eu283 N274 2.600 . S
Eu283 N284 2.562 . S
Eu283 O318 2.335 1_655 S
Eu283 O321 2.372 . S
Eu283 O322 2.462 . S
Eu283 O323 2.373 . S
Eu283 O325 2.432 . S
Eu283 O326 2.291 1_655 S
Eu283 C347 2.787 . S
N284 C280 1.351 . S
N284 Eu283 2.562 . S
N284 C286 1.325 . S
C285 C279 1.404 . S
C285 C287 1.366 . S
C285 H293 0.930 . S
C286 N284 1.325 . S
C286 C287 1.416 . S
C286 H292 0.929 . S
C287 C285 1.366 . S
C287 C286 1.416 . S
C287 H289 0.930 . S
H288 C277 0.930 . S
H289 C287 0.930 . S
H290 C305 0.930 . S
H291 C312 0.905 1_545 S
H292 C286 0.929 . S
H293 C285 0.930 . S
H294 C308 0.929 . S
H295 C275 0.931 . S
H296 C281 0.931 . S
H297 C282 0.931 . S
H298 C303 0.931 . S
H299 C278 0.929 . S
H300 C311 0.958 . S
N301 Eu272 2.600 . S
N301 C302 1.365 . S
N301 C305 1.319 . S
C302 N301 1.365 . S
C302 C304 1.405 . S
C302 C310 1.448 . S
C303 H298 0.931 . S
C303 C305 1.397 . S
C303 C306 1.367 . S
C304 C302 1.405 . S
C304 C306 1.403 . S
C304 C337 1.439 . S
C305 H290 0.930 . S
C305 N301 1.319 . S
C305 C303 1.397 . S
C306 C303 1.367 . S
C306 C304 1.403 . S
C306 H313 0.929 . S
N307 Eu272 2.562 . S
N307 C308 1.325 . S
N307 C310 1.351 . S
C308 H294 0.929 . S
C308 N307 1.325 . S
C308 C312 1.443 . S
C309 C310 1.430 . S
C309 C311 1.379 1_565 S
C309 C338 1.387 . S
C310 C302 1.448 . S
C310 N307 1.351 . S
C310 C309 1.430 . S
C311 H300 0.958 . S
C311 C309 1.379 1_545 S
C311 C312 1.364 1_545 S
C312 H291 0.905 1_565 S
C312 C308 1.443 . S
C312 C311 1.364 1_565 S
H313 C306 0.929 . S
H314 C337 0.931 . S
H315 C338 0.931 . S
O316 Eu272 2.462 . S
O316 C336 1.252 . S
O317 Eu272 2.373 . S
O317 C328 1.249 . S
O318 Eu283 2.335 1_455 S
O318 C328 1.264 . S
O319 Eu272 2.432 . S
O319 C336 1.268 . S
O320 Eu272 2.291 . S
O320 C335 1.255 1_455 S
O321 Eu283 2.372 . S
O321 C335 1.257 . S
O322 Eu283 2.462 . S
O322 C347 1.252 . S
O323 Eu283 2.373 . S
O323 C339 1.249 . S
O324 Eu272 2.335 . S
O324 C339 1.264 1_455 S
O325 Eu283 2.432 . S
O325 C347 1.268 . S
O326 Eu283 2.291 1_455 S
O326 C346 1.255 . S
O327 Eu272 2.372 . S
O327 C346 1.257 . S
C328 O317 1.249 . S
C328 O318 1.264 . S
C329 C332 1.382 . S
C329 C334 1.390 . S
C329 C336 1.506 . S
C330 C331 1.398 . S
C330 C334 1.392 . S
C331 C330 1.398 . S
C331 C333 1.372 . S
C331 H348 0.931 . S
C332 C329 1.382 . S
C332 C333 1.390 . S
C332 H349 0.931 . S
C333 C331 1.372 . S
C333 C332 1.390 . S
C333 H350 0.929 . S
C334 C329 1.390 . S
C334 C330 1.392 . S
C334 H351 0.930 . S
C335 O320 1.255 1_655 S
C335 O321 1.257 . S
C336 Eu272 2.787 . S
C336 O316 1.252 . S
C336 O319 1.268 . S
C336 C329 1.506 . S
C337 C304 1.439 . S
C337 H314 0.931 . S
C337 C338 1.374 . S
C338 C309 1.387 . S
C338 H315 0.931 . S
C338 C337 1.374 . S
C339 O323 1.249 . S
C339 O324 1.264 1_655 S
C340 C343 1.382 . S
C340 C344 1.390 . S
C340 C347 1.506 . S
C341 C342 1.398 . S
C341 C344 1.392 . S
C342 C341 1.398 . S
C342 C345 1.372 . S
C342 H352 0.931 . S
C343 C340 1.382 . S
C343 C345 1.390 . S
C343 H353 0.931 . S
C344 C340 1.390 . S
C344 C341 1.392 . S
C344 H354 0.930 . S
C345 C342 1.372 . S
C345 C343 1.390 . S
C345 H355 0.929 . S
C346 O326 1.255 . S
C346 O327 1.257 . S
C347 Eu283 2.787 . S
C347 O322 1.252 . S
C347 O325 1.268 . S
C347 C340 1.506 . S
H348 C331 0.931 . S
H349 C332 0.931 . S
H350 C333 0.929 . S
H351 C334 0.930 . S
H352 C342 0.931 . S
H353 C343 0.931 . S
H354 C344 0.930 . S
H355 C345 0.929 . S
Eu356 N385 2.600 . S
Eu356 N391 2.562 . S
Eu356 O400 2.462 . S
Eu356 O401 2.373 . S
Eu356 O403 2.432 . S
Eu356 O404 2.291 . S
Eu356 O408 2.335 . S
Eu356 O411 2.372 . S
Eu356 C420 2.787 . S
C357 N358 1.365 . S
C357 C360 1.405 . S
C357 C364 1.448 . S
N358 C357 1.365 . S
N358 C361 1.319 . S
N358 Eu367 2.600 . S
C359 C361 1.397 . S
C359 C362 1.367 . S
C359 H379 0.931 . S
C360 C357 1.405 . S
C360 C362 1.403 . S
C360 C366 1.439 . S
C361 N358 1.319 . S
C361 C359 1.397 . S
C361 H372 0.930 . S
C362 C359 1.367 . S
C362 C360 1.403 . S
C362 H383 0.929 . S
C363 C364 1.430 . S
C363 C365 1.387 . S
C363 C369 1.404 . S
C364 C357 1.448 . S
C364 C363 1.430 . S
C364 N368 1.351 . S
C365 C363 1.387 . S
C365 C366 1.374 . S
C365 H380 0.931 . S
C366 C360 1.439 . S
C366 C365 1.374 . S
C366 H381 0.931 . S
Eu367 N358 2.600 . S
Eu367 N368 2.562 . S
Eu367 O402 2.335 . S
Eu367 O405 2.372 . S
Eu367 O406 2.462 . S
Eu367 O407 2.373 . S
Eu367 O409 2.432 . S
Eu367 O410 2.291 . S
Eu367 C431 2.787 . S
N368 C364 1.351 . S
N368 Eu367 2.562 . S
N368 C370 1.325 . S
C369 C363 1.404 . S
C369 C371 1.366 . S
C369 H377 0.930 . S
C370 N368 1.325 . S
C370 C371 1.416 . S
C370 H376 0.929 . S
C371 C369 1.366 . S
C371 C370 1.416 . S
C371 H373 0.930 . S
H372 C361 0.930 . S
H373 C371 0.930 . S
H374 C389 0.930 . S
H375 C396 0.930 . S
H376 C370 0.929 . S
H377 C369 0.930 . S
H378 C392 0.929 . S
H379 C359 0.931 . S
H380 C365 0.931 . S
H381 C366 0.931 . S
H382 C387 0.931 . S
H383 C362 0.929 . S
H384 C395 0.930 . S
N385 Eu356 2.600 . S
N385 C386 1.365 . S
N385 C389 1.319 . S
C386 N385 1.365 . S
C386 C388 1.405 . S
C386 C394 1.448 . S
C387 H382 0.931 . S
C387 C389 1.397 . S
C387 C390 1.367 . S
C388 C386 1.405 . S
C388 C390 1.403 . S
C388 C421 1.439 . S
C389 H374 0.930 . S
C389 N385 1.319 . S
C389 C387 1.397 . S
C390 C387 1.367 . S
C390 C388 1.403 . S
C390 H397 0.929 . S
N391 Eu356 2.562 . S
N391 C392 1.325 . S
N391 C394 1.351 . S
C392 H378 0.929 . S
C392 N391 1.325 . S
C392 C396 1.416 . S
C393 C394 1.430 . S
C393 C395 1.404 . S
C393 C422 1.387 . S
C394 C386 1.448 . S
C394 N391 1.351 . S
C394 C393 1.430 . S
C395 H384 0.930 . S
C395 C393 1.404 . S
C395 C396 1.366 . S
C396 H375 0.930 . S
C396 C392 1.416 . S
C396 C395 1.366 . S
H397 C390 0.929 . S
H398 C421 0.931 . S
H399 C422 0.931 . S
O400 Eu356 2.462 . S
O400 C420 1.252 . S
O401 Eu356 2.373 . S
O401 C412 1.249 . S
O402 Eu367 2.335 . S
O402 C412 1.264 . S
O403 Eu356 2.432 . S
O403 C420 1.268 . S
O404 Eu356 2.291 . S
O404 C419 1.255 . S
O405 Eu367 2.372 . S
O405 C419 1.257 . S
O406 Eu367 2.462 . S
O406 C431 1.252 . S
O407 Eu367 2.373 . S
O407 C423 1.249 . S
O408 Eu356 2.335 . S
O408 C423 1.264 . S
O409 Eu367 2.432 . S
O409 C431 1.268 . S
O410 Eu367 2.291 . S
O410 C430 1.255 . S
O411 Eu356 2.372 . S
O411 C430 1.257 . S
C412 O401 1.249 . S
C412 O402 1.264 . S
C413 C416 1.382 . S
C413 C418 1.390 . S
C413 C420 1.506 . S
C414 C415 1.398 . S
C414 C418 1.392 . S
C415 C414 1.398 . S
C415 C417 1.372 . S
C415 H432 0.931 . S
C416 C413 1.382 . S
C416 C417 1.390 . S
C416 H433 0.931 . S
C417 C415 1.372 . S
C417 C416 1.390 . S
C417 H434 0.929 . S
C418 C413 1.390 . S
C418 C414 1.392 . S
C418 H435 0.930 . S
C419 O404 1.255 . S
C419 O405 1.257 . S
C420 Eu356 2.787 . S
C420 O400 1.252 . S
C420 O403 1.268 . S
C420 C413 1.506 . S
C421 C388 1.439 . S
C421 H398 0.931 . S
C421 C422 1.374 . S
C422 C393 1.387 . S
C422 H399 0.931 . S
C422 C421 1.374 . S
C423 O407 1.249 . S
C423 O408 1.264 . S
C424 C427 1.382 . S
C424 C428 1.390 . S
C424 C431 1.506 . S
C425 C426 1.398 . S
C425 C428 1.392 . S
C426 C425 1.398 . S
C426 C429 1.372 . S
C426 H436 0.931 . S
C427 C424 1.382 . S
C427 C429 1.390 . S
C427 H437 0.931 . S
C428 C424 1.390 . S
C428 C425 1.392 . S
C428 H438 0.930 . S
C429 C426 1.372 . S
C429 C427 1.390 . S
C429 H439 0.929 . S
C430 O410 1.255 . S
C430 O411 1.257 . S
C431 Eu367 2.787 . S
C431 O406 1.252 . S
C431 O409 1.268 . S
C431 C424 1.506 . S
H432 C415 0.931 . S
H433 C416 0.931 . S
H434 C417 0.929 . S
H435 C418 0.930 . S
H436 C426 0.931 . S
H437 C427 0.931 . S
H438 C428 0.930 . S
H439 C429 0.929 . S
C440 C441 1.391 . S
C440 C442 1.394 . S
C440 H456 0.931 . S
C441 C440 1.391 . S
C441 C445 1.376 . S
C442 C440 1.394 . S
C442 C443 1.369 . S
C442 C446 1.531 . S
C443 C442 1.369 . S
C443 C444 1.410 . S
C443 C451 1.503 . S
C444 C443 1.410 . S
C444 C445 1.392 . S
C444 C447 1.511 . S
C445 C441 1.376 . S
C445 C444 1.392 . S
C445 H457 0.929 . S
C446 C442 1.531 . S
C446 H458 0.960 . S
C446 H459 0.962 . S
C446 H460 0.960 . S
C447 C444 1.511 . S
C447 H461 0.961 . S
C447 H462 0.961 1_565 S
C447 H463 0.961 1_565 S
C448 C449 1.370 . S
C448 C450 1.363 1_545 S
C448 H464 0.931 . S
C449 C448 1.370 . S
C449 C453 1.408 . S
C450 C448 1.363 1_565 S
C450 C451 1.370 . S
C450 C454 1.524 . S
C451 C443 1.503 . S
C451 C450 1.370 . S
C451 C452 1.403 1_565 S
C452 C451 1.403 1_545 S
C452 C453 1.404 . S
C452 C455 1.539 . S
C453 C449 1.408 . S
C453 C452 1.404 . S
C453 H465 0.930 . S
C454 C450 1.524 . S
C454 H466 0.956 . S
C454 H467 0.961 . S
C454 H468 0.961 . S
C455 C452 1.539 . S
C455 H469 0.958 . S
C455 H470 0.961 . S
C455 H471 0.960 . S
H456 C440 0.931 . S
H457 C445 0.929 . S
H458 C446 0.960 . S
H459 C446 0.962 . S
H460 C446 0.960 . S
H461 C447 0.961 . S
H462 C447 0.961 1_545 S
H463 C447 0.961 1_545 S
H464 C448 0.931 . S
H465 C453 0.930 . S
H466 C454 0.956 . S
H467 C454 0.961 . S
H468 C454 0.961 . S
H469 C455 0.958 . S
H470 C455 0.961 . S
H471 C455 0.960 . S
C472 C473 1.391 . S
C472 C474 1.394 . S
C472 H488 0.931 . S
C473 C472 1.391 . S
C473 C477 1.376 . S
C474 C472 1.394 . S
C474 C475 1.369 . S
C474 C478 1.531 . S
C475 C474 1.369 . S
C475 C476 1.410 . S
C475 C483 1.503 . S
C476 C475 1.410 . S
C476 C477 1.392 . S
C476 C479 1.511 . S
C477 C473 1.376 . S
C477 C476 1.392 . S
C477 H489 0.929 . S
C478 C474 1.531 . S
C478 H490 0.960 . S
C478 H491 0.962 . S
C478 H492 0.960 . S
C479 C476 1.511 . S
C479 H493 0.961 . S
C479 H494 0.961 . S
C479 H495 0.961 . S
C480 C481 1.370 . S
C480 C482 1.363 . S
C480 H496 0.931 . S
C481 C480 1.370 . S
C481 C485 1.408 . S
C482 C480 1.363 . S
C482 C483 1.370 . S
C482 C486 1.524 . S
C483 C475 1.503 . S
C483 C482 1.370 . S
C483 C484 1.403 . S
C484 C483 1.403 . S
C484 C485 1.404 . S
C484 C487 1.539 . S
C485 C481 1.408 . S
C485 C484 1.404 . S
C485 H497 0.930 . S
C486 C482 1.524 . S
C486 H498 0.956 . S
C486 H499 0.961 . S
C486 H500 0.961 . S
C487 C484 1.539 . S
C487 H501 0.958 . S
C487 H502 0.961 . S
C487 H503 0.960 . S
H488 C472 0.931 . S
H489 C477 0.929 . S
H490 C478 0.960 . S
H491 C478 0.962 . S
H492 C478 0.960 . S
H493 C479 0.961 . S
H494 C479 0.961 . S
H495 C479 0.961 . S
H496 C480 0.931 . S
H497 C485 0.930 . S
H498 C486 0.956 . S
H499 C486 0.961 . S
H500 C486 0.961 . S
H501 C487 0.958 . S
H502 C487 0.961 . S
H503 C487 0.960 . S
C504 C505 1.391 . S
C504 C506 1.394 . S
C504 H520 0.931 . S
C505 C504 1.391 . S
C505 C509 1.376 . S
C506 C504 1.394 . S
C506 C507 1.369 . S
C506 C510 1.531 . S
C507 C506 1.369 . S
C507 C508 1.410 . S
C507 C515 1.503 . S
C508 C507 1.410 . S
C508 C509 1.392 . S
C508 C511 1.511 . S
C509 C505 1.376 . S
C509 C508 1.392 . S
C509 H521 0.929 . S
C510 C506 1.531 . S
C510 H522 0.960 . S
C510 H523 0.962 . S
C510 H524 0.960 . S
C511 C508 1.511 . S
C511 H525 0.961 . S
C511 H526 0.961 . S
C511 H527 0.961 . S
C512 C513 1.370 . S
C512 C514 1.363 . S
C512 H528 0.931 . S
C513 C512 1.370 . S
C513 C517 1.408 . S
C514 C512 1.363 . S
C514 C515 1.370 . S
C514 C518 1.524 . S
C515 C507 1.503 . S
C515 C514 1.370 . S
C515 C516 1.403 . S
C516 C515 1.403 . S
C516 C517 1.404 . S
C516 C519 1.539 . S
C517 C513 1.408 . S
C517 C516 1.404 . S
C517 H529 0.930 . S
C518 C514 1.524 . S
C518 H530 0.956 . S
C518 H531 0.961 . S
C518 H532 0.961 . S
C519 C516 1.539 . S
C519 H533 0.958 . S
C519 H534 0.961 . S
C519 H535 0.960 . S
H520 C504 0.931 . S
H521 C509 0.929 . S
H522 C510 0.960 . S
H523 C510 0.962 . S
H524 C510 0.960 . S
H525 C511 0.961 . S
H526 C511 0.961 . S
H527 C511 0.961 . S
H528 C512 0.931 . S
H529 C517 0.930 . S
H530 C518 0.956 . S
H531 C518 0.961 . S
H532 C518 0.961 . S
H533 C519 0.958 . S
H534 C519 0.961 . S
H535 C519 0.960 . S
C536 C537 1.391 . S
C536 C538 1.394 . S
C536 H552 0.931 . S
C537 C536 1.391 . S
C537 C541 1.376 . S
C538 C536 1.394 . S
C538 C539 1.369 . S
C538 C542 1.531 . S
C539 C538 1.369 . S
C539 C540 1.410 . S
C539 C547 1.503 . S
C540 C539 1.410 . S
C540 C541 1.392 . S
C540 C543 1.511 . S
C541 C537 1.376 . S
C541 C540 1.392 . S
C541 H553 0.929 . S
C542 C538 1.531 . S
C542 H554 0.960 . S
C542 H555 0.962 . S
C542 H556 0.960 . S
C543 C540 1.511 . S
C543 H557 0.961 . S
C543 H558 0.961 . S
C543 H559 0.961 . S
C544 C545 1.370 . S
C544 C546 1.363 . S
C544 H560 0.931 . S
C545 C544 1.370 . S
C545 C549 1.408 . S
C546 C544 1.363 . S
C546 C547 1.370 1_545 S
C546 C550 1.524 . S
C547 C539 1.503 . S
C547 C546 1.370 1_565 S
C547 C548 1.403 . S
C548 C547 1.403 . S
C548 C549 1.404 1_565 S
C548 C551 1.539 . S
C549 C545 1.408 . S
C549 C548 1.404 1_545 S
C549 H561 0.931 . S
C550 C546 1.524 . S
C550 H562 0.956 . S
C550 H563 0.961 . S
C550 H564 0.961 . S
C551 C548 1.539 . S
C551 H565 0.958 . S
C551 H566 0.961 . S
C551 H567 0.960 . S
H552 C536 0.931 . S
H553 C541 0.929 . S
H554 C542 0.960 . S
H555 C542 0.962 . S
H556 C542 0.960 . S
H557 C543 0.961 . S
H558 C543 0.961 . S
H559 C543 0.961 . S
H560 C544 0.931 . S
H561 C549 0.931 . S
H562 C550 0.956 . S
H563 C550 0.961 . S
H564 C550 0.961 . S
H565 C551 0.958 . S
H566 C551 0.961 . S
H567 C551 0.960 . S
C568 C569 1.391 . S
C568 C570 1.394 . S
C568 H584 0.931 . S
C569 C568 1.391 . S
C569 C573 1.376 . S
C570 C568 1.394 . S
C570 C571 1.369 . S
C570 C574 1.531 . S
C571 C570 1.369 . S
C571 C572 1.410 . S
C571 C579 1.503 . S
C572 C571 1.410 . S
C572 C573 1.392 . S
C572 C575 1.511 . S
C573 C569 1.376 . S
C573 C572 1.392 . S
C573 H585 0.929 . S
C574 C570 1.531 . S
C574 H586 0.960 . S
C574 H587 0.962 . S
C574 H588 0.960 . S
C575 C572 1.511 . S
C575 H589 0.961 . S
C575 H590 0.961 . S
C575 H591 0.961 . S
C576 C577 1.370 . S
C576 C578 1.363 . S
C576 H592 0.931 . S
C577 C576 1.370 . S
C577 C581 1.408 . S
C578 C576 1.363 . S
C578 C579 1.370 1_565 S
C578 C582 1.524 . S
C579 C571 1.503 . S
C579 C578 1.370 1_545 S
C579 C580 1.403 . S
C580 C579 1.403 . S
C580 C581 1.404 1_545 S
C580 C583 1.539 . S
C581 C577 1.408 . S
C581 C580 1.404 1_565 S
C581 H593 0.930 1_565 S
C582 C578 1.524 . S
C582 H594 0.956 . S
C582 H595 0.961 . S
C582 H596 0.961 . S
C583 C580 1.539 . S
C583 H597 0.958 . S
C583 H598 0.961 . S
C583 H599 0.960 . S
H584 C568 0.931 . S
H585 C573 0.929 . S
H586 C574 0.960 . S
H587 C574 0.962 . S
H588 C574 0.960 . S
H589 C575 0.961 . S
H590 C575 0.961 . S
H591 C575 0.961 . S
H592 C576 0.931 . S
H593 C581 0.930 1_545 S
H594 C582 0.956 . S
H595 C582 0.961 . S
H596 C582 0.961 . S
H597 C583 0.958 . S
H598 C583 0.961 . S
H599 C583 0.960 . S
C600 C601 1.391 . S
C600 C602 1.394 . S
C600 H616 0.931 . S
C601 C600 1.391 . S
C601 C605 1.376 . S
C602 C600 1.394 . S
C602 C603 1.369 . S
C602 C606 1.531 . S
C603 C602 1.369 . S
C603 C604 1.410 . S
C603 C611 1.503 . S
C604 C603 1.410 . S
C604 C605 1.392 . S
C604 C607 1.511 . S
C605 C601 1.376 . S
C605 C604 1.392 . S
C605 H617 0.929 . S
C606 C602 1.531 . S
C606 H618 0.960 . S
C606 H619 0.962 . S
C606 H620 0.960 . S
C607 C604 1.511 . S
C607 H621 0.961 . S
C607 H622 0.961 . S
C607 H623 0.961 . S
C608 C609 1.370 . S
C608 C610 1.363 . S
C608 H624 0.931 . S
C609 C608 1.370 . S
C609 C613 1.408 . S
C610 C608 1.363 . S
C610 C611 1.370 . S
C610 C614 1.524 . S
C611 C603 1.503 . S
C611 C610 1.370 . S
C611 C612 1.403 . S
C612 C611 1.403 . S
C612 C613 1.404 . S
C612 C615 1.539 . S
C613 C609 1.408 . S
C613 C612 1.404 . S
C613 H625 0.930 . S
C614 C610 1.524 . S
C614 H626 0.956 . S
C614 H627 0.961 . S
C614 H628 0.961 . S
C615 C612 1.539 . S
C615 H629 0.958 . S
C615 H630 0.961 . S
C615 H631 0.960 . S
H616 C600 0.931 . S
H617 C605 0.929 . S
H618 C606 0.960 . S
H619 C606 0.962 . S
H620 C606 0.960 . S
H621 C607 0.961 . S
H622 C607 0.961 . S
H623 C607 0.961 . S
H624 C608 0.931 . S
H625 C613 0.930 . S
H626 C614 0.956 . S
H627 C614 0.961 . S
H628 C614 0.961 . S
H629 C615 0.958 . S
H630 C615 0.961 . S
H631 C615 0.960 . S
C632 C633 1.391 . S
C632 C634 1.394 . S
C632 H648 0.931 . S
C633 C632 1.391 . S
C633 C637 1.376 . S
C634 C632 1.394 . S
C634 C635 1.369 . S
C634 C638 1.531 . S
C635 C634 1.369 . S
C635 C636 1.410 . S
C635 C643 1.503 . S
C636 C635 1.410 . S
C636 C637 1.392 . S
C636 C639 1.511 . S
C637 C633 1.376 . S
C637 C636 1.392 . S
C637 H649 0.929 . S
C638 C634 1.531 . S
C638 H650 0.960 . S
C638 H651 0.962 . S
C638 H652 0.960 . S
C639 C636 1.511 . S
C639 H653 0.961 . S
C639 H654 0.961 . S
C639 H655 0.961 . S
C640 C641 1.370 . S
C640 C642 1.363 . S
C640 H656 0.931 . S
C641 C640 1.370 . S
C641 C645 1.408 . S
C642 C640 1.363 . S
C642 C643 1.370 . S
C642 C646 1.524 . S
C643 C635 1.503 . S
C643 C642 1.370 . S
C643 C644 1.403 . S
C644 C643 1.403 . S
C644 C645 1.404 . S
C644 C647 1.539 . S
C645 C641 1.408 . S
C645 C644 1.404 . S
C645 H657 0.930 . S
C646 C642 1.524 . S
C646 H658 0.956 . S
C646 H659 0.961 . S
C646 H660 0.961 . S
C647 C644 1.539 . S
C647 H661 0.958 . S
C647 H662 0.961 . S
C647 H663 0.960 . S
H648 C632 0.931 . S
H649 C637 0.929 . S
H650 C638 0.960 . S
H651 C638 0.962 . S
H652 C638 0.960 . S
H653 C639 0.961 . S
H654 C639 0.961 . S
H655 C639 0.961 . S
H656 C640 0.931 . S
H657 C645 0.930 . S
H658 C646 0.956 . S
H659 C646 0.961 . S
H660 C646 0.961 . S
H661 C647 0.958 . S
H662 C647 0.961 . S
H663 C647 0.960 . S
C664 C665 1.391 . S
C664 C666 1.394 . S
C664 H680 0.931 . S
C665 C664 1.391 . S
C665 C669 1.376 . S
C666 C664 1.394 . S
C666 C667 1.369 . S
C666 C670 1.531 . S
C667 C666 1.369 . S
C667 C668 1.410 . S
C667 C675 1.503 . S
C668 C667 1.410 . S
C668 C669 1.392 . S
C668 C671 1.511 . S
C669 C665 1.376 . S
C669 C668 1.392 . S
C669 H681 0.929 . S
C670 C666 1.531 . S
C670 H682 0.960 . S
C670 H683 0.962 1_545 S
C670 H684 0.960 . S
C671 C668 1.511 . S
C671 H685 0.961 . S
C671 H686 0.961 . S
C671 H687 0.961 . S
C672 C673 1.370 . S
C672 C674 1.363 . S
C672 H688 0.931 . S
C673 C672 1.370 . S
C673 C677 1.408 . S
C674 C672 1.363 . S
C674 C675 1.370 1_565 S
C674 C678 1.524 . S
C675 C667 1.503 . S
C675 C674 1.370 1_545 S
C675 C676 1.403 . S
C676 C675 1.403 . S
C676 C677 1.404 1_545 S
C676 C679 1.539 . S
C677 C673 1.408 . S
C677 C676 1.404 1_565 S
C677 H689 0.930 . S
C678 C674 1.524 . S
C678 H690 0.956 . S
C678 H691 0.961 . S
C678 H692 0.961 . S
C679 C676 1.539 . S
C679 H693 0.958 . S
C679 H694 0.961 . S
C679 H695 0.960 . S
H680 C664 0.931 . S
H681 C669 0.929 . S
H682 C670 0.960 . S
H683 C670 0.962 1_565 S
H684 C670 0.960 . S
H685 C671 0.961 . S
H686 C671 0.961 . S
H687 C671 0.961 . S
H688 C672 0.931 . S
H689 C677 0.930 . S
H690 C678 0.956 . S
H691 C678 0.961 . S
H692 C678 0.961 . S
H693 C679 0.958 . S
H694 C679 0.961 . S
H695 C679 0.960 . S
C696 C697 1.391 . S
C696 C698 1.394 . S
C696 H712 0.931 . S
C697 C696 1.391 . S
C697 C701 1.376 . S
C698 C696 1.394 . S
C698 C699 1.369 1_556 S
C698 C702 1.531 1_556 S
C699 C698 1.369 1_554 S
C699 C700 1.410 1_554 S
C699 C707 1.503 . S
C700 C699 1.410 1_556 S
C700 C701 1.392 . S
C700 C703 1.511 . S
C701 C697 1.376 . S
C701 C700 1.392 . S
C701 H713 0.929 . S
C702 C698 1.531 1_554 S
C702 H714 0.960 . S
C702 H715 0.962 . S
C702 H716 0.960 . S
C703 C700 1.511 . S
C703 H717 0.961 . S
C703 H718 0.961 1_556 S
C703 H719 0.978 . S
C704 C705 1.370 . S
C704 C706 1.363 . S
C704 H720 0.931 . S
C705 C704 1.370 . S
C705 C709 1.408 . S
C706 C704 1.363 . S
C706 C707 1.370 . S
C706 C710 1.524 . S
C707 C699 1.503 . S
C707 C706 1.370 . S
C707 C708 1.403 . S
C708 C707 1.403 . S
C708 C709 1.404 . S
C708 C711 1.539 . S
C709 C705 1.408 . S
C709 C708 1.404 . S
C709 H721 0.930 . S
C710 C706 1.524 . S
C710 H722 0.956 . S
C710 H723 0.961 1_554 S
C710 H724 0.961 . S
C711 C708 1.539 . S
C711 H725 0.958 . S
C711 H726 0.961 . S
C711 H727 0.960 . S
H712 C696 0.931 . S
H713 C701 0.929 . S
H714 C702 0.960 . S
H715 C702 0.962 . S
H716 C702 0.960 . S
H717 C703 0.961 . S
H718 C703 0.961 1_554 S
H719 C703 0.978 . S
H720 C704 0.931 . S
H721 C709 0.930 . S
H722 C710 0.956 . S
H723 C710 0.961 1_556 S
H724 C710 0.961 . S
H725 C711 0.958 . S
H726 C711 0.961 . S
H727 C711 0.960 . S
C728 C729 1.391 . S
C728 C730 1.394 . S
C728 H744 0.931 . S
C729 C728 1.391 . S
C729 C733 1.376 . S
C730 C728 1.394 . S
C730 C731 1.369 . S
C730 C734 1.531 . S
C731 C730 1.369 . S
C731 C732 1.410 . S
C731 C739 1.503 . S
C732 C731 1.410 . S
C732 C733 1.392 . S
C732 C735 1.511 . S
C733 C729 1.376 . S
C733 C732 1.392 . S
C733 H745 0.929 . S
C734 C730 1.531 . S
C734 H746 0.960 . S
C734 H747 0.962 . S
C734 H748 0.960 . S
C735 C732 1.511 . S
C735 H749 0.961 . S
C735 H750 0.961 . S
C735 H751 0.961 . S
C736 C737 1.370 . S
C736 C738 1.363 . S
C736 H752 0.931 . S
C737 C736 1.370 . S
C737 C741 1.408 . S
C738 C736 1.363 . S
C738 C739 1.370 . S
C738 C742 1.524 . S
C739 C731 1.503 . S
C739 C738 1.370 . S
C739 C740 1.403 . S
C740 C739 1.403 . S
C740 C741 1.404 . S
C740 C743 1.539 . S
C741 C737 1.408 . S
C741 C740 1.404 . S
C741 H753 0.930 . S
C742 C738 1.524 . S
C742 H754 0.956 . S
C742 H755 0.961 . S
C742 H756 0.961 . S
C743 C740 1.539 . S
C743 H757 0.958 . S
C743 H758 0.961 . S
C743 H759 0.960 . S
H744 C728 0.931 . S
H745 C733 0.929 . S
H746 C734 0.960 . S
H747 C734 0.962 . S
H748 C734 0.960 . S
H749 C735 0.961 . S
H750 C735 0.961 . S
H751 C735 0.961 . S
H752 C736 0.931 . S
H753 C741 0.930 . S
H754 C742 0.956 . S
H755 C742 0.961 . S
H756 C742 0.961 . S
H757 C743 0.958 . S
H758 C743 0.961 . S
H759 C743 0.960 . S
C760 C761 1.391 . S
C760 C762 1.394 . S
C760 H776 0.931 . S
C761 C760 1.391 . S
C761 C765 1.376 . S
C762 C760 1.394 . S
C762 C763 1.377 . S
C762 C766 1.531 . S
C763 C762 1.377 . S
C763 C764 1.410 . S
C763 C771 1.495 1_554 S
C764 C763 1.410 . S
C764 C765 1.392 . S
C764 C767 1.511 1_554 S
C765 C761 1.376 . S
C765 C764 1.392 . S
C765 H777 0.929 . S
C766 C762 1.531 . S
C766 H778 0.960 . S
C766 H779 0.962 . S
C766 H780 0.960 . S
C767 C764 1.511 1_556 S
C767 H781 0.961 . S
C767 H782 0.961 . S
C767 H783 0.961 . S
C768 C769 1.370 . S
C768 C770 1.363 . S
C768 H784 0.931 . S
C769 C768 1.370 . S
C769 C773 1.408 . S
C770 C768 1.363 . S
C770 C771 1.370 . S
C770 C774 1.524 . S
C771 C763 1.495 1_556 S
C771 C770 1.370 . S
C771 C772 1.403 . S
C772 C771 1.403 . S
C772 C773 1.404 . S
C772 C775 1.539 . S
C773 C769 1.408 . S
C773 C772 1.404 . S
C773 H785 0.930 . S
C774 C770 1.524 . S
C774 H786 0.956 . S
C774 H787 0.961 . S
C774 H788 0.961 . S
C775 C772 1.539 . S
C775 H789 0.958 . S
C775 H790 0.961 . S
C775 H791 0.960 . S
H776 C760 0.931 . S
H777 C765 0.929 . S
H778 C766 0.960 . S
H779 C766 0.962 . S
H780 C766 0.960 . S
H781 C767 0.961 . S
H782 C767 0.961 . S
H783 C767 0.961 . S
H784 C768 0.931 . S
H785 C773 0.930 . S
H786 C774 0.956 . S
H787 C774 0.961 . S
H788 C774 0.961 . S
H789 C775 0.958 . S
H790 C775 0.961 . S
H791 C775 0.960 . S
C792 C793 1.391 . S
C792 C794 1.394 . S
C792 H808 0.931 . S
C793 C792 1.391 . S
C793 C797 1.376 . S
C794 C792 1.394 . S
C794 C795 1.369 . S
C794 C798 1.531 . S
C795 C794 1.369 . S
C795 C796 1.410 . S
C795 C803 1.503 . S
C796 C795 1.410 . S
C796 C797 1.392 . S
C796 C799 1.511 . S
C797 C793 1.376 . S
C797 C796 1.392 . S
C797 H809 0.929 . S
C798 C794 1.531 . S
C798 H810 0.960 . S
C798 H811 0.962 . S
C798 H812 0.960 . S
C799 C796 1.511 . S
C799 H813 0.961 . S
C799 H814 0.961 . S
C799 H815 0.961 . S
C800 C801 1.370 . S
C800 C802 1.363 . S
C800 H816 0.931 . S
C801 C800 1.370 . S
C801 C805 1.408 . S
C802 C800 1.363 . S
C802 C803 1.370 . S
C802 C806 1.524 . S
C803 C795 1.503 . S
C803 C802 1.370 . S
C803 C804 1.403 . S
C804 C803 1.403 . S
C804 C805 1.404 . S
C804 C807 1.539 . S
C805 C801 1.408 . S
C805 C804 1.404 . S
C805 H817 0.930 . S
C806 C802 1.524 . S
C806 H818 0.956 . S
C806 H819 0.961 . S
C806 H820 0.961 . S
C807 C804 1.539 . S
C807 H821 0.958 . S
C807 H822 0.961 . S
C807 H823 0.960 . S
H808 C792 0.931 . S
H809 C797 0.929 . S
H810 C798 0.960 . S
H811 C798 0.962 . S
H812 C798 0.960 . S
H813 C799 0.961 . S
H814 C799 0.961 . S
H815 C799 0.961 . S
H816 C800 0.931 . S
H817 C805 0.930 . S
H818 C806 0.956 . S
H819 C806 0.961 . S
H820 C806 0.961 . S
H821 C807 0.958 . S
H822 C807 0.961 . S
H823 C807 0.960 . S
C824 C825 1.391 . S
C824 C826 1.394 . S
C824 H840 0.931 . S
C825 C824 1.391 . S
C825 C829 1.376 . S
C826 C824 1.394 . S
C826 C827 1.369 1_554 S
C826 C830 1.531 . S
C827 C826 1.369 1_556 S
C827 C828 1.410 . S
C827 C835 1.503 . S
C828 C827 1.410 . S
C828 C829 1.392 1_556 S
C828 C831 1.511 . S
C829 C825 1.376 . S
C829 C828 1.392 1_554 S
C829 H841 0.929 . S
C830 C826 1.531 . S
C830 H842 0.960 1_554 S
C830 H843 0.962 . S
C830 H844 0.960 . S
C831 C828 1.511 . S
C831 H845 0.961 . S
C831 H846 0.961 . S
C831 H847 0.961 . S
C832 C833 1.370 . S
C832 C834 1.363 . S
C832 H848 0.931 . S
C833 C832 1.370 . S
C833 C837 1.408 . S
C834 C832 1.363 . S
C834 C835 1.370 . S
C834 C838 1.524 . S
C835 C827 1.503 . S
C835 C834 1.370 . S
C835 C836 1.403 . S
C836 C835 1.403 . S
C836 C837 1.404 . S
C836 C839 1.539 . S
C837 C833 1.408 . S
C837 C836 1.404 . S
C837 H849 0.930 . S
C838 C834 1.524 . S
C838 H850 0.956 . S
C838 H851 0.961 . S
C838 H852 0.961 . S
C839 C836 1.539 . S
C839 H853 0.958 . S
C839 H854 0.961 . S
C839 H855 0.960 . S
H840 C824 0.931 . S
H841 C829 0.929 . S
H842 C830 0.960 1_556 S
H843 C830 0.962 . S
H844 C830 0.960 . S
H845 C831 0.961 . S
H846 C831 0.961 . S
H847 C831 0.961 . S
H848 C832 0.931 . S
H849 C837 0.930 . S
H850 C838 0.956 . S
H851 C838 0.961 . S
H852 C838 0.961 . S
H853 C839 0.958 . S
H854 C839 0.961 . S
H855 C839 0.960 . S
C856 C857 1.391 . S
C856 C858 1.394 . S
C856 H872 0.931 . S
C857 C856 1.391 . S
C857 C861 1.376 . S
C858 C856 1.394 . S
C858 C859 1.369 . S
C858 C862 1.531 . S
C859 C858 1.369 . S
C859 C860 1.410 . S
C859 C867 1.503 . S
C860 C859 1.410 . S
C860 C861 1.392 . S
C860 C863 1.511 . S
C861 C857 1.376 . S
C861 C860 1.392 . S
C861 H873 0.929 . S
C862 C858 1.531 . S
C862 H874 0.960 . S
C862 H875 0.962 . S
C862 H876 0.960 . S
C863 C860 1.511 . S
C863 H877 0.961 . S
C863 H878 0.961 . S
C863 H879 0.961 . S
C864 C865 1.370 . S
C864 C866 1.363 . S
C864 H880 0.931 . S
C865 C864 1.370 . S
C865 C869 1.408 . S
C866 C864 1.363 . S
C866 C867 1.370 . S
C866 C870 1.524 . S
C867 C859 1.503 . S
C867 C866 1.370 . S
C867 C868 1.403 . S
C868 C867 1.403 . S
C868 C869 1.404 . S
C868 C871 1.539 . S
C869 C865 1.408 . S
C869 C868 1.404 . S
C869 H881 0.930 . S
C870 C866 1.524 . S
C870 H882 0.956 . S
C870 H883 0.961 . S
C870 H884 0.961 . S
C871 C868 1.539 . S
C871 H885 0.958 . S
C871 H886 0.961 . S
C871 H887 0.960 . S
H872 C856 0.931 . S
H873 C861 0.929 . S
H874 C862 0.960 . S
H875 C862 0.962 . S
H876 C862 0.960 . S
H877 C863 0.961 . S
H878 C863 0.961 . S
H879 C863 0.961 . S
H880 C864 0.931 . S
H881 C869 0.930 . S
H882 C870 0.956 . S
H883 C870 0.961 . S
H884 C870 0.961 . S
H885 C871 0.958 . S
H886 C871 0.961 . S
H887 C871 0.960 . S
C888 C889 1.391 . S
C888 C890 1.394 . S
C888 H904 0.931 . S
C889 C888 1.391 . S
C889 C893 1.376 . S
C890 C888 1.394 . S
C890 C891 1.369 1_556 S
C890 C894 1.531 . S
C891 C890 1.369 1_554 S
C891 C892 1.410 . S
C891 C899 1.503 . S
C892 C891 1.410 . S
C892 C893 1.392 1_554 S
C892 C895 1.511 . S
C893 C889 1.376 . S
C893 C892 1.392 1_556 S
C893 H905 0.929 . S
C894 C890 1.531 . S
C894 H906 0.960 1_556 S
C894 H907 0.954 1_556 S
C894 H908 0.960 . S
C895 C892 1.511 . S
C895 H909 0.961 . S
C895 H910 0.961 . S
C895 H911 0.961 . S
C896 C897 1.370 . S
C896 C898 1.363 . S
C896 H912 0.931 . S
C897 C896 1.370 . S
C897 C901 1.408 . S
C898 C896 1.363 . S
C898 C899 1.370 . S
C898 C902 1.524 . S
C899 C891 1.503 . S
C899 C898 1.370 . S
C899 C900 1.403 . S
C900 C899 1.403 . S
C900 C901 1.404 . S
C900 C903 1.539 . S
C901 C897 1.408 . S
C901 C900 1.404 . S
C901 H913 0.930 . S
C902 C898 1.524 . S
C902 H914 0.956 . S
C902 H915 0.961 . S
C902 H916 0.961 . S
C903 C900 1.539 . S
C903 H917 0.958 . S
C903 H918 0.961 . S
C903 H919 0.960 . S
H904 C888 0.931 . S
H905 C893 0.929 . S
H906 C894 0.960 1_554 S
H907 C894 0.954 1_554 S
H908 C894 0.960 . S
H909 C895 0.961 . S
H910 C895 0.961 . S
H911 C895 0.961 . S
H912 C896 0.931 . S
H913 C901 0.930 . S
H914 C902 0.956 . S
H915 C902 0.961 . S
H916 C902 0.961 . S
H917 C903 0.958 . S
H918 C903 0.961 . S
H919 C903 0.960 . S
C920 C921 1.391 . S
C920 C922 1.394 . S
C920 H936 0.931 . S
C921 C920 1.391 . S
C921 C925 1.376 . S
C922 C920 1.394 . S
C922 C923 1.369 . S
C922 C926 1.531 . S
C923 C922 1.369 . S
C923 C924 1.410 . S
C923 C931 1.503 . S
C924 C923 1.410 . S
C924 C925 1.392 . S
C924 C927 1.511 . S
C925 C921 1.376 . S
C925 C924 1.392 . S
C925 H937 0.929 . S
C926 C922 1.531 . S
C926 H938 0.960 . S
C926 H939 0.962 . S
C926 H940 0.960 . S
C927 C924 1.511 . S
C927 H941 0.961 . S
C927 H942 0.961 . S
C927 H943 0.961 . S
C928 C929 1.370 . S
C928 C930 1.363 . S
C928 H944 0.931 . S
C929 C928 1.370 . S
C929 C933 1.408 . S
C930 C928 1.363 . S
C930 C931 1.370 . S
C930 C934 1.524 . S
C931 C923 1.503 . S
C931 C930 1.370 . S
C931 C932 1.403 . S
C932 C931 1.403 . S
C932 C933 1.404 . S
C932 C935 1.539 . S
C933 C929 1.408 . S
C933 C932 1.404 . S
C933 H945 0.930 . S
C934 C930 1.524 . S
C934 H946 0.956 . S
C934 H947 0.961 . S
C934 H948 0.961 . S
C935 C932 1.539 . S
C935 H949 0.958 . S
C935 H950 0.961 . S
C935 H951 0.960 . S
H936 C920 0.931 . S
H937 C925 0.929 . S
H938 C926 0.960 . S
H939 C926 0.962 . S
H940 C926 0.960 . S
H941 C927 0.961 . S
H942 C927 0.961 . S
H943 C927 0.961 . S
H944 C928 0.931 . S
H945 C933 0.930 . S
H946 C934 0.956 . S
H947 C934 0.961 . S
H948 C934 0.961 . S
H949 C935 0.958 . S
H950 C935 0.961 . S
H951 C935 0.960 . S
C952 C953 1.391 . S
C952 C954 1.394 . S
C952 H968 0.931 . S
C953 C952 1.391 . S
C953 C957 1.376 . S
C954 C952 1.394 . S
C954 C955 1.369 . S
C954 C958 1.531 . S
C955 C954 1.369 . S
C955 C956 1.410 . S
C955 C963 1.503 . S
C956 C955 1.410 . S
C956 C957 1.392 . S
C956 C959 1.511 . S
C957 C953 1.376 . S
C957 C956 1.392 . S
C957 H969 0.929 . S
C958 C954 1.531 . S
C958 H970 0.960 . S
C958 H971 0.962 . S
C958 H972 0.960 . S
C959 C956 1.511 . S
C959 H973 0.961 . S
C959 H974 0.961 . S
C959 H975 0.961 . S
C960 C961 1.370 . S
C960 C962 1.363 . S
C960 H976 0.931 . S
C961 C960 1.370 . S
C961 C965 1.408 . S
C962 C960 1.363 . S
C962 C963 1.370 . S
C962 C966 1.524 . S
C963 C955 1.503 . S
C963 C962 1.370 . S
C963 C964 1.403 . S
C964 C963 1.403 . S
C964 C965 1.404 . S
C964 C967 1.539 . S
C965 C961 1.408 . S
C965 C964 1.404 . S
C965 H977 0.930 . S
C966 C962 1.524 . S
C966 H978 0.956 . S
C966 H979 0.961 . S
C966 H980 0.961 . S
C967 C964 1.539 . S
C967 H981 0.958 . S
C967 H982 0.961 . S
C967 H983 0.960 . S
H968 C952 0.931 . S
H969 C957 0.929 . S
H970 C958 0.960 . S
H971 C958 0.962 . S
H972 C958 0.960 . S
H973 C959 0.961 . S
H974 C959 0.961 . S
H975 C959 0.961 . S
H976 C960 0.931 . S
H977 C965 0.930 . S
H978 C966 0.956 . S
H979 C966 0.961 . S
H980 C966 0.961 . S
H981 C967 0.958 . S
H982 C967 0.961 . S
H983 C967 0.960 . S
C984 C985 1.391 . S
C984 C986 1.394 . S
C984 H1000 0.931 . S
C985 C984 1.391 . S
C985 C989 1.376 . S
C986 C984 1.394 . S
C986 C987 1.369 . S
C986 C990 1.531 . S
C987 C986 1.369 . S
C987 C988 1.410 . S
C987 C995 1.503 . S
C988 C987 1.410 . S
C988 C989 1.392 . S
C988 C991 1.511 . S
C989 C985 1.376 . S
C989 C988 1.392 . S
C989 H1001 0.929 . S
C990 C986 1.531 . S
C990 H1002 0.960 . S
C990 H1003 0.962 . S
C990 H1004 0.960 . S
C991 C988 1.511 . S
C991 H1005 0.961 . S
C991 H1006 0.961 . S
C991 H1007 0.961 . S
C992 C993 1.370 . S
C992 C994 1.363 . S
C992 H1008 0.931 . S
C993 C992 1.370 . S
C993 C997 1.408 . S
C994 C992 1.363 . S
C994 C995 1.370 . S
C994 C998 1.524 . S
C995 C987 1.503 . S
C995 C994 1.370 . S
C995 C996 1.403 . S
C996 C995 1.403 . S
C996 C997 1.404 . S
C996 C999 1.539 . S
C997 C993 1.408 . S
C997 C996 1.404 . S
C997 H1009 0.930 . S
C998 C994 1.524 . S
C998 H1010 0.956 . S
C998 H1011 0.961 . S
C998 H1012 0.961 . S
C999 C996 1.539 . S
C999 H1013 0.958 . S
C999 H1014 0.961 . S
C999 H1015 0.960 . S
H1000 C984 0.931 . S
H1001 C989 0.929 . S
H1002 C990 0.960 . S
H1003 C990 0.962 . S
H1004 C990 0.960 . S
H1005 C991 0.961 . S
H1006 C991 0.961 . S
H1007 C991 0.961 . S
H1008 C992 0.931 . S
H1009 C997 0.930 . S
H1010 C998 0.956 . S
H1011 C998 0.961 . S
H1012 C998 0.961 . S
H1013 C999 0.958 . S
H1014 C999 0.961 . S
H1015 C999 0.960 . S
C1016 C1017 1.391 . S
C1016 C1018 1.394 . S
C1016 H1032 0.931 . S
C1017 C1016 1.391 . S
C1017 C1021 1.376 . S
C1018 C1016 1.394 . S
C1018 C1019 1.369 . S
C1018 C1022 1.531 . S
C1019 C1018 1.369 . S
C1019 C1020 1.410 . S
C1019 C1027 1.503 . S
C1020 C1019 1.410 . S
C1020 C1021 1.392 . S
C1020 C1023 1.511 . S
C1021 C1017 1.376 . S
C1021 C1020 1.392 . S
C1021 H1033 0.929 . S
C1022 C1018 1.531 . S
C1022 H1034 0.960 . S
C1022 H1035 0.962 . S
C1022 H1036 0.960 . S
C1023 C1020 1.511 . S
C1023 H1037 0.961 . S
C1023 H1038 0.961 . S
C1023 H1039 0.961 . S
C1024 C1025 1.370 . S
C1024 C1026 1.363 . S
C1024 H1040 0.931 . S
C1025 C1024 1.370 . S
C1025 C1029 1.408 . S
C1026 C1024 1.363 . S
C1026 C1027 1.370 . S
C1026 C1030 1.524 . S
C1027 C1019 1.503 . S
C1027 C1026 1.370 . S
C1027 C1028 1.403 . S
C1028 C1027 1.403 . S
C1028 C1029 1.404 . S
C1028 C1031 1.539 . S
C1029 C1025 1.408 . S
C1029 C1028 1.404 . S
C1029 H1041 0.930 . S
C1030 C1026 1.524 . S
C1030 H1042 0.956 . S
C1030 H1043 0.961 . S
C1030 H1044 0.961 . S
C1031 C1028 1.539 . S
C1031 H1045 0.958 . S
C1031 H1046 0.961 . S
C1031 H1047 0.960 . S
H1032 C1016 0.931 . S
H1033 C1021 0.929 . S
H1034 C1022 0.960 . S
H1035 C1022 0.962 . S
H1036 C1022 0.960 . S
H1037 C1023 0.961 . S
H1038 C1023 0.961 . S
H1039 C1023 0.961 . S
H1040 C1024 0.931 . S
H1041 C1029 0.930 . S
H1042 C1030 0.956 . S
H1043 C1030 0.961 . S
H1044 C1030 0.961 . S
H1045 C1031 0.958 . S
H1046 C1031 0.961 . S
H1047 C1031 0.960 . S
C1048 C1049 1.391 . S
C1048 C1050 1.394 . S
C1048 H1064 0.931 . S
C1049 C1048 1.391 . S
C1049 C1053 1.376 . S
C1050 C1048 1.394 . S
C1050 C1051 1.369 . S
C1050 C1054 1.531 . S
C1051 C1050 1.369 . S
C1051 C1052 1.410 . S
C1051 C1059 1.503 . S
C1052 C1051 1.410 . S
C1052 C1053 1.392 . S
C1052 C1055 1.511 . S
C1053 C1049 1.376 . S
C1053 C1052 1.392 . S
C1053 H1065 0.929 . S
C1054 C1050 1.531 . S
C1054 H1066 0.960 . S
C1054 H1067 0.962 . S
C1054 H1068 0.960 . S
C1055 C1052 1.511 . S
C1055 H1069 0.961 . S
C1055 H1070 0.961 . S
C1055 H1071 0.961 . S
C1056 C1057 1.370 . S
C1056 C1058 1.363 . S
C1056 H1072 0.931 . S
C1057 C1056 1.370 . S
C1057 C1061 1.408 . S
C1058 C1056 1.363 . S
C1058 C1059 1.370 . S
C1058 C1062 1.524 . S
C1059 C1051 1.503 . S
C1059 C1058 1.370 . S
C1059 C1060 1.403 . S
C1060 C1059 1.403 . S
C1060 C1061 1.404 . S
C1060 C1063 1.539 . S
C1061 C1057 1.408 . S
C1061 C1060 1.404 . S
C1061 H1073 0.930 . S
C1062 C1058 1.524 . S
C1062 H1074 0.956 . S
C1062 H1075 0.961 . S
C1062 H1076 0.961 . S
C1063 C1060 1.539 . S
C1063 H1077 0.958 . S
C1063 H1078 0.961 . S
C1063 H1079 0.960 . S
H1064 C1048 0.931 . S
H1065 C1053 0.929 . S
H1066 C1054 0.960 . S
H1067 C1054 0.962 . S
H1068 C1054 0.960 . S
H1069 C1055 0.961 . S
H1070 C1055 0.961 . S
H1071 C1055 0.961 . S
H1072 C1056 0.931 . S
H1073 C1061 0.930 . S
H1074 C1062 0.956 . S
H1075 C1062 0.961 . S
H1076 C1062 0.961 . S
H1077 C1063 0.958 . S
H1078 C1063 0.961 . S
H1079 C1063 0.960 . S
C1080 C1081 1.391 . S
C1080 C1082 1.394 . S
C1080 H1096 0.931 . S
C1081 C1080 1.391 . S
C1081 C1085 1.376 . S
C1082 C1080 1.394 . S
C1082 C1083 1.369 . S
C1082 C1086 1.531 . S
C1083 C1082 1.369 . S
C1083 C1084 1.410 . S
C1083 C1091 1.503 . S
C1084 C1083 1.410 . S
C1084 C1085 1.392 . S
C1084 C1087 1.511 . S
C1085 C1081 1.376 . S
C1085 C1084 1.392 . S
C1085 H1097 0.929 . S
C1086 C1082 1.531 . S
C1086 H1098 0.960 . S
C1086 H1099 0.962 . S
C1086 H1100 0.960 . S
C1087 C1084 1.511 . S
C1087 H1101 0.961 . S
C1087 H1102 0.961 . S
C1087 H1103 0.961 . S
C1088 C1089 1.370 . S
C1088 C1090 1.363 . S
C1088 H1104 0.931 . S
C1089 C1088 1.370 . S
C1089 C1093 1.408 . S
C1090 C1088 1.363 . S
C1090 C1091 1.370 . S
C1090 C1094 1.524 . S
C1091 C1083 1.503 . S
C1091 C1090 1.370 . S
C1091 C1092 1.403 . S
C1092 C1091 1.403 . S
C1092 C1093 1.404 . S
C1092 C1095 1.539 . S
C1093 C1089 1.408 . S
C1093 C1092 1.404 . S
C1093 H1105 0.930 . S
C1094 C1090 1.524 . S
C1094 H1106 0.956 . S
C1094 H1107 0.961 . S
C1094 H1108 0.961 . S
C1095 C1092 1.539 . S
C1095 H1109 0.958 . S
C1095 H1110 0.961 . S
C1095 H1111 0.960 . S
H1096 C1080 0.931 . S
H1097 C1085 0.929 . S
H1098 C1086 0.960 . S
H1099 C1086 0.962 . S
H1100 C1086 0.960 . S
H1101 C1087 0.961 . S
H1102 C1087 0.961 . S
H1103 C1087 0.961 . S
H1104 C1088 0.931 . S
H1105 C1093 0.930 . S
H1106 C1094 0.956 . S
H1107 C1094 0.961 . S
H1108 C1094 0.961 . S
H1109 C1095 0.958 . S
H1110 C1095 0.961 . S
H1111 C1095 0.960 . S
C1112 C1113 1.391 . S
C1112 C1114 1.394 . S
C1112 H1128 0.931 . S
C1113 C1112 1.391 . S
C1113 C1117 1.376 . S
C1114 C1112 1.394 . S
C1114 C1115 1.369 . S
C1114 C1118 1.531 . S
C1115 C1114 1.369 . S
C1115 C1116 1.410 . S
C1115 C1123 1.503 . S
C1116 C1115 1.410 . S
C1116 C1117 1.392 . S
C1116 C1119 1.511 . S
C1117 C1113 1.376 . S
C1117 C1116 1.392 . S
C1117 H1129 0.929 . S
C1118 C1114 1.531 . S
C1118 H1130 0.960 . S
C1118 H1131 0.962 . S
C1118 H1132 0.960 . S
C1119 C1116 1.511 . S
C1119 H1133 0.961 . S
C1119 H1134 0.961 . S
C1119 H1135 0.961 . S
C1120 C1121 1.370 . S
C1120 C1122 1.363 . S
C1120 H1136 0.931 . S
C1121 C1120 1.370 . S
C1121 C1125 1.408 . S
C1122 C1120 1.363 . S
C1122 C1123 1.370 . S
C1122 C1126 1.524 . S
C1123 C1115 1.503 . S
C1123 C1122 1.370 . S
C1123 C1124 1.403 . S
C1124 C1123 1.403 . S
C1124 C1125 1.404 . S
C1124 C1127 1.539 . S
C1125 C1121 1.408 . S
C1125 C1124 1.404 . S
C1125 H1137 0.930 . S
C1126 C1122 1.524 . S
C1126 H1138 0.956 . S
C1126 H1139 0.961 . S
C1126 H1140 0.961 . S
C1127 C1124 1.539 . S
C1127 H1141 0.958 . S
C1127 H1142 0.961 . S
C1127 H1143 0.960 . S
H1128 C1112 0.931 . S
H1129 C1117 0.929 . S
H1130 C1118 0.960 . S
H1131 C1118 0.962 . S
H1132 C1118 0.960 . S
H1133 C1119 0.961 . S
H1134 C1119 0.961 . S
H1135 C1119 0.961 . S
H1136 C1120 0.931 . S
H1137 C1125 0.930 . S
H1138 C1126 0.956 . S
H1139 C1126 0.961 . S
H1140 C1126 0.961 . S
H1141 C1127 0.958 . S
H1142 C1127 0.961 . S
H1143 C1127 0.960 . S
C1144 C1145 1.391 . S
C1144 C1146 1.394 . S
C1144 H1160 0.931 . S
C1145 C1144 1.391 . S
C1145 C1149 1.376 . S
C1146 C1144 1.394 . S
C1146 C1147 1.369 . S
C1146 C1150 1.531 . S
C1147 C1146 1.369 . S
C1147 C1148 1.410 . S
C1147 C1155 1.503 . S
C1148 C1147 1.410 . S
C1148 C1149 1.392 . S
C1148 C1151 1.511 . S
C1149 C1145 1.376 . S
C1149 C1148 1.392 . S
C1149 H1161 0.929 . S
C1150 C1146 1.531 . S
C1150 H1162 0.960 . S
C1150 H1163 0.962 . S
C1150 H1164 0.960 . S
C1151 C1148 1.511 . S
C1151 H1165 0.961 . S
C1151 H1166 0.961 . S
C1151 H1167 0.961 . S
C1152 C1153 1.370 . S
C1152 C1154 1.363 . S
C1152 H1168 0.931 . S
C1153 C1152 1.370 . S
C1153 C1157 1.408 . S
C1154 C1152 1.363 . S
C1154 C1155 1.370 . S
C1154 C1158 1.524 . S
C1155 C1147 1.503 . S
C1155 C1154 1.370 . S
C1155 C1156 1.403 . S
C1156 C1155 1.403 . S
C1156 C1157 1.404 . S
C1156 C1159 1.539 . S
C1157 C1153 1.408 . S
C1157 C1156 1.404 . S
C1157 H1169 0.930 . S
C1158 C1154 1.524 . S
C1158 H1170 0.956 . S
C1158 H1171 0.961 . S
C1158 H1172 0.961 . S
C1159 C1156 1.539 . S
C1159 H1173 0.958 . S
C1159 H1174 0.961 . S
C1159 H1175 0.960 . S
H1160 C1144 0.931 . S
H1161 C1149 0.929 . S
H1162 C1150 0.960 . S
H1163 C1150 0.962 . S
H1164 C1150 0.960 . S
H1165 C1151 0.961 . S
H1166 C1151 0.961 . S
H1167 C1151 0.961 . S
H1168 C1152 0.931 . S
H1169 C1157 0.930 . S
H1170 C1158 0.956 . S
H1171 C1158 0.961 . S
H1172 C1158 0.961 . S
H1173 C1159 0.958 . S
H1174 C1159 0.961 . S
H1175 C1159 0.960 . S
C1176 C1177 1.391 . S
C1176 C1178 1.394 . S
C1176 H1192 0.931 . S
C1177 C1176 1.391 . S
C1177 C1181 1.376 . S
C1178 C1176 1.394 . S
C1178 C1179 1.369 . S
C1178 C1182 1.531 . S
C1179 C1178 1.369 . S
C1179 C1180 1.410 . S
C1179 C1187 1.503 . S
C1180 C1179 1.410 . S
C1180 C1181 1.392 . S
C1180 C1183 1.511 . S
C1181 C1177 1.376 . S
C1181 C1180 1.392 . S
C1181 H1193 0.929 . S
C1182 C1178 1.531 . S
C1182 H1194 0.960 . S
C1182 H1195 0.962 . S
C1182 H1196 0.960 . S
C1183 C1180 1.511 . S
C1183 H1197 0.961 . S
C1183 H1198 0.961 . S
C1183 H1199 0.961 . S
C1184 C1185 1.370 . S
C1184 C1186 1.363 . S
C1184 H1200 0.931 . S
C1185 C1184 1.370 . S
C1185 C1189 1.408 . S
C1186 C1184 1.363 . S
C1186 C1187 1.370 . S
C1186 C1190 1.524 . S
C1187 C1179 1.503 . S
C1187 C1186 1.370 . S
C1187 C1188 1.403 . S
C1188 C1187 1.403 . S
C1188 C1189 1.404 . S
C1188 C1191 1.539 . S
C1189 C1185 1.408 . S
C1189 C1188 1.404 . S
C1189 H1201 0.930 . S
C1190 C1186 1.524 . S
C1190 H1202 0.956 . S
C1190 H1203 0.961 . S
C1190 H1204 0.961 . S
C1191 C1188 1.539 . S
C1191 H1205 0.958 . S
C1191 H1206 0.961 . S
C1191 H1207 0.960 . S
H1192 C1176 0.931 . S
H1193 C1181 0.929 . S
H1194 C1182 0.960 . S
H1195 C1182 0.962 . S
H1196 C1182 0.960 . S
H1197 C1183 0.961 . S
H1198 C1183 0.961 . S
H1199 C1183 0.961 . S
H1200 C1184 0.931 . S
H1201 C1189 0.930 . S
H1202 C1190 0.956 . S
H1203 C1190 0.961 . S
H1204 C1190 0.961 . S
H1205 C1191 0.958 . S
H1206 C1191 0.961 . S
H1207 C1191 0.960 . S
C441 C86 1.634 . S
C449 C178 1.625 . S
C481 C262 1.676 . S
C473 C100 1.707 . S
C513 C255 1.628 . S
C505 C60 1.612 . S
C537 C74 1.692 . S
C545 C171 1.698 . S
C577 C335 1.677 . S
C569 C35 1.691 . S
C609 C419 1.625 . S
C601 C47 1.636 . S
C633 C9 1.691 . S
C641 C412 1.697 . S
C665 C21 1.619 . S
C673 C328 1.627 . S
C705 C162 1.439 . S
C697 C22 1.601 . S
C737 C246 1.415 . S
C729 C8 1.592 . S
C769 C257 1.399 . S
C761 C48 1.579 . S
C801 C173 1.402 . S
C793 C34 1.596 . S
C833 C341 1.447 . S
C825 C73 1.592 . S
C857 C61 1.601 . S
C865 C425 1.427 . S
C897 C414 1.398 . S
C889 C99 1.594 . S
C921 C87 1.604 . S
C929 C330 1.367 . S
C961 C160 1.603 . S
C953 C4 1.476 . S
C993 C244 1.500 . S
C985 C17 1.498 . S
C1017 C30 1.495 . S
C1025 C251 1.569 . S
C1057 C167 1.463 . S
C1049 C43 1.491 . S
C1089 C339 1.503 . S
C1081 C56 1.477 . S
C1113 C69 1.513 . S
C1121 C423 1.607 . S
C1145 C82 1.473 . S
C1153 C430 1.464 . S
C1177 C95 1.519 . S
C1185 C346 1.576 . S
