# Generated by pormake.
# Topology ssb, (4,4)-cn, num edge types: 1
# Building blocks:
#     Node 0, Type 0, BuildingBlock: MUDLON_clean_linker_0, # of connection points: 4
#     Node 1, Type 0, BuildingBlock: MUDLON_clean_linker_0, # of connection points: 4
#     Node 2, Type 0, BuildingBlock: MUDLON_clean_linker_0, # of connection points: 4
#     Node 3, Type 0, BuildingBlock: MUDLON_clean_linker_0, # of connection points: 4
#     Node 4, Type 0, BuildingBlock: MUDLON_clean_linker_0, # of connection points: 4
#     Node 5, Type 0, BuildingBlock: MUDLON_clean_linker_0, # of connection points: 4
#     Node 6, Type 0, BuildingBlock: MUDLON_clean_linker_0, # of connection points: 4
#     Node 7, Type 0, BuildingBlock: MUDLON_clean_linker_0, # of connection points: 4
#     Node 8, Type 1, BuildingBlock: KOZSID_clean_sbu_0, # of connection points: 4
#     Node 9, Type 1, BuildingBlock: KOZSID_clean_sbu_0, # of connection points: 4
#     Node 10, Type 1, BuildingBlock: KOZSID_clean_sbu_0, # of connection points: 4
#     Node 11, Type 1, BuildingBlock: KOZSID_clean_sbu_0, # of connection points: 4
#     Node 12, Type 1, BuildingBlock: KOZSID_clean_sbu_0, # of connection points: 4
#     Node 13, Type 1, BuildingBlock: KOZSID_clean_sbu_0, # of connection points: 4
#     Node 14, Type 1, BuildingBlock: KOZSID_clean_sbu_0, # of connection points: 4
#     Node 15, Type 1, BuildingBlock: KOZSID_clean_sbu_0, # of connection points: 4
#     Edge 16, Type (0, 1), None
#     Edge 17, Type (0, 1), None
#     Edge 18, Type (0, 1), None
#     Edge 19, Type (0, 1), None
#     Edge 20, Type (0, 1), None
#     Edge 21, Type (0, 1), None
#     Edge 22, Type (0, 1), None
#     Edge 23, Type (0, 1), None
#     Edge 24, Type (0, 1), None
#     Edge 25, Type (0, 1), None
#     Edge 26, Type (0, 1), None
#     Edge 27, Type (0, 1), None
#     Edge 28, Type (0, 1), None
#     Edge 29, Type (0, 1), None
#     Edge 30, Type (0, 1), None
#     Edge 31, Type (0, 1), None
#     Edge 32, Type (0, 1), None
#     Edge 33, Type (0, 1), None
#     Edge 34, Type (0, 1), None
#     Edge 35, Type (0, 1), None
#     Edge 36, Type (0, 1), None
#     Edge 37, Type (0, 1), None
#     Edge 38, Type (0, 1), None
#     Edge 39, Type (0, 1), None
#     Edge 40, Type (0, 1), None
#     Edge 41, Type (0, 1), None
#     Edge 42, Type (0, 1), None
#     Edge 43, Type (0, 1), None
#     Edge 44, Type (0, 1), None
#     Edge 45, Type (0, 1), None
#     Edge 46, Type (0, 1), None
#     Edge 47, Type (0, 1), None
# Relax obj value: 0.007
# Max RMSD: 0.074
# Mean RMSD: 0.031
data_MOF--net-ssb--node1-KOZSID_clean_sbu_0--node2-MUDLON_clean_linker_0--edge1-none
_symmetry_space_group_name_H-M    P1
_symmetry_Int_Tables_number       1
_symmetry_cell_setting            triclinic
loop_
_symmetry_equiv_pos_as_xyz
'x, y, z'
_cell_length_a     43.22734
_cell_length_b     43.134955
_cell_length_c     31.894755
_cell_angle_alpha  93.488194
_cell_angle_beta   96.999434
_cell_angle_gamma 89.912429
loop_
_atom_site_label
_atom_site_type_symbol
_atom_site_fract_x
_atom_site_fract_y
_atom_site_fract_z
_atom_type_partial_charge
H0 H 0.26595 0.33043 0.10717 0.0
N1 N 0.30812 0.31296 0.16883 0.0
H2 H 0.25964 0.38225 0.0801 0.0
H3 H 0.33364 0.36703 0.2084 0.0
H4 H 0.32656 0.41873 0.18288 0.0
H5 H 0.36434 0.32198 0.21762 0.0
H6 H 0.41569 0.31568 0.19302 0.0
H7 H 0.32053 0.28514 0.09629 0.0
H8 H 0.37182 0.27797 0.07183 0.0
H9 H 0.27833 0.25915 0.16689 0.0
H10 H 0.31483 0.33505 0.25258 0.0
H11 H 0.26155 0.23282 0.22606 0.0
H12 H 0.29691 0.30989 0.3114 0.0
H13 H 0.18036 0.18565 0.3823 0.0
H14 H 0.12987 0.19417 0.40714 0.0
H15 H 0.17111 0.26336 0.5011 0.0
H16 H 0.22147 0.25564 0.47432 0.0
H17 H 0.26192 0.19749 0.49214 0.0
H18 H 0.26731 0.1454 0.51846 0.0
H19 H 0.2354 0.10543 0.39348 0.0
H20 H 0.22939 0.1579 0.36733 0.0
H21 H 0.20782 0.208 0.33422 0.0
H22 H 0.22511 0.23306 0.27477 0.0
H23 H 0.30639 0.26866 0.35578 0.0
N24 N 0.23575 0.21245 0.41676 0.0
H25 H 0.28785 0.24468 0.41569 0.0
C26 C 0.29982 0.34461 0.16017 0.0
C27 C 0.2785 0.34982 0.12455 0.0
C28 C 0.27497 0.3795 0.10911 0.0
C29 C 0.29277 0.40472 0.12912 0.0
C30 C 0.3128 0.3998 0.16629 0.0
C31 C 0.31646 0.37011 0.18148 0.0
C32 C 0.33859 0.30417 0.15855 0.0
C33 C 0.36578 0.31197 0.18601 0.0
C34 C 0.39509 0.3084 0.17192 0.0
C35 C 0.39768 0.29642 0.13051 0.0
C36 C 0.37054 0.28695 0.10404 0.0
C37 C 0.34129 0.29099 0.11791 0.0
C38 C 0.29751 0.29924 0.20482 0.0
C39 C 0.28233 0.27034 0.19843 0.0
C40 C 0.2726 0.25541 0.23236 0.0
C41 C 0.27767 0.26915 0.27383 0.0
C42 C 0.29292 0.29825 0.28017 0.0
C43 C 0.30294 0.313 0.24618 0.0
C44 C 0.20476 0.2204 0.4261 0.0
C45 C 0.17842 0.20343 0.40721 0.0
C46 C 0.14954 0.20798 0.42205 0.0
C47 C 0.14635 0.22918 0.45662 0.0
C48 C 0.17248 0.24708 0.47419 0.0
C49 C 0.20133 0.24271 0.45899 0.0
C50 C 0.24543 0.18167 0.42788 0.0
C51 C 0.25711 0.17749 0.47009 0.0
C52 C 0.26018 0.14776 0.48505 0.0
C53 C 0.25198 0.12145 0.45788 0.0
C54 C 0.24217 0.1254 0.41487 0.0
C55 C 0.23876 0.15533 0.39995 0.0
C56 C 0.24639 0.22475 0.37983 0.0
C57 C 0.22928 0.22121 0.33939 0.0
C58 C 0.23944 0.23546 0.30509 0.0
C59 C 0.26715 0.25325 0.3102 0.0
C60 C 0.2846 0.25586 0.35056 0.0
C61 C 0.27424 0.24188 0.38484 0.0
H62 H 0.67609 0.35643 0.1768 0.0
N63 N 0.70864 0.30538 0.15087 0.0
H64 H 0.68201 0.40959 0.15703 0.0
H65 H 0.74961 0.32671 0.10361 0.0
H66 H 0.75598 0.38031 0.08423 0.0
H67 H 0.67725 0.28684 0.07688 0.0
H68 H 0.62061 0.28054 0.06073 0.0
H69 H 0.66729 0.30247 0.2095 0.0
H70 H 0.61078 0.29535 0.19336 0.0
H71 H 0.73001 0.34186 0.22328 0.0
H72 H 0.72708 0.2481 0.16706 0.0
H73 H 0.76214 0.32523 0.28478 0.0
H74 H 0.75713 0.23057 0.23086 0.0
H75 H 0.86502 0.2536 0.48802 0.0
H76 H 0.92139 0.2562 0.50992 0.0
H77 H 0.93815 0.23798 0.3803 0.0
H78 H 0.88225 0.23513 0.35828 0.0
H79 H 0.86301 0.18197 0.38495 0.0
H80 H 0.85194 0.12988 0.40532 0.0
H81 H 0.7825 0.16762 0.48047 0.0
H82 H 0.79362 0.21983 0.45968 0.0
H83 H 0.79721 0.28329 0.40787 0.0
H84 H 0.76424 0.29987 0.34577 0.0
H85 H 0.80581 0.22952 0.26794 0.0
N86 N 0.83643 0.23613 0.41216 0.0
H87 H 0.83613 0.21148 0.33062 0.0
C88 C 0.71227 0.33736 0.14111 0.0
C89 C 0.69343 0.36124 0.15631 0.0
C90 C 0.69686 0.39169 0.14515 0.0
C91 C 0.71943 0.39899 0.11919 0.0
C92 C 0.73862 0.37531 0.1047 0.0
C93 C 0.73495 0.34476 0.11552 0.0
C94 C 0.67654 0.29517 0.14418 0.0
C95 C 0.66298 0.28781 0.10258 0.0
C96 C 0.63077 0.28424 0.09342 0.0
C97 C 0.6117 0.28776 0.1259 0.0
C98 C 0.62528 0.29265 0.16798 0.0
C99 C 0.65751 0.29657 0.17714 0.0
C100 C 0.72637 0.29623 0.1896 0.0
C101 C 0.73593 0.31755 0.22401 0.0
C102 C 0.75419 0.30786 0.25991 0.0
C103 C 0.76256 0.27649 0.26313 0.0
C104 C 0.75203 0.25507 0.22931 0.0
C105 C 0.7345 0.26495 0.19289 0.0
C106 C 0.86907 0.24407 0.42167 0.0
C107 C 0.88081 0.25105 0.46416 0.0
C108 C 0.91287 0.25242 0.47663 0.0
C109 C 0.9337 0.24692 0.44667 0.0
C110 C 0.92225 0.24206 0.40379 0.0
C111 C 0.89015 0.24053 0.39129 0.0
C112 C 0.8291 0.20484 0.42106 0.0
C113 C 0.84516 0.17908 0.4054 0.0
C114 C 0.83892 0.1493 0.41716 0.0
C115 C 0.81637 0.14475 0.44439 0.0
C116 C 0.79971 0.17041 0.45894 0.0
C117 C 0.8061 0.20019 0.44736 0.0
C118 C 0.81966 0.24675 0.37394 0.0
C119 C 0.79922 0.27169 0.37724 0.0
C120 C 0.78052 0.28119 0.34155 0.0
C121 C 0.78234 0.26625 0.30139 0.0
C122 C 0.80322 0.24137 0.29819 0.0
C123 C 0.82122 0.23136 0.33412 0.0
H124 H 0.84862 0.81722 0.47427 0.0
N125 N 0.81841 0.8369 0.40318 0.0
H126 H 0.90506 0.80898 0.49064 0.0
H127 H 0.86229 0.8401 0.34798 0.0
H128 H 0.9183 0.83151 0.3642 0.0
H129 H 0.83768 0.88952 0.36909 0.0
H130 H 0.83042 0.94317 0.39562 0.0
H131 H 0.78454 0.85669 0.46364 0.0
H132 H 0.77798 0.91058 0.49096 0.0
H133 H 0.78589 0.78475 0.40268 0.0
H134 H 0.81062 0.85413 0.32082 0.0
H135 H 0.75777 0.75535 0.34183 0.0
H136 H 0.78414 0.82439 0.25979 0.0
H137 H 0.6908 0.66681 0.18837 0.0
H138 H 0.698 0.61146 0.16957 0.0
H139 H 0.75089 0.63544 0.06989 0.0
H140 H 0.74437 0.69092 0.08947 0.0
H141 H 0.68572 0.73175 0.07098 0.0
H142 H 0.63035 0.74032 0.04638 0.0
H143 H 0.60675 0.72342 0.17051 0.0
H144 H 0.66218 0.71502 0.19522 0.0
H145 H 0.74202 0.69318 0.22059 0.0
H146 H 0.76644 0.72363 0.28173 0.0
H147 H 0.7361 0.80804 0.22326 0.0
N148 N 0.71044 0.71577 0.14715 0.0
H149 H 0.71268 0.77739 0.16082 0.0
C150 C 0.85108 0.8292 0.41002 0.0
C151 C 0.86364 0.81985 0.4499 0.0
C152 C 0.89569 0.81506 0.45914 0.0
C153 C 0.91566 0.81952 0.42849 0.0
C154 C 0.90313 0.82775 0.38808 0.0
C155 C 0.8711 0.83273 0.37891 0.0
C156 C 0.81129 0.8689 0.41412 0.0
C157 C 0.82382 0.89375 0.39481 0.0
C158 C 0.81988 0.92445 0.41016 0.0
C159 C 0.80389 0.9308 0.44544 0.0
C160 C 0.79039 0.90616 0.46369 0.0
C161 C 0.79407 0.87549 0.4481 0.0
C162 C 0.80044 0.82159 0.36661 0.0
C163 C 0.7852 0.79364 0.37155 0.0
C164 C 0.76943 0.77672 0.33659 0.0
C165 C 0.76878 0.78723 0.29555 0.0
C166 C 0.78368 0.81563 0.2908 0.0
C167 C 0.79916 0.83269 0.32589 0.0
C168 C 0.71731 0.68311 0.14046 0.0
C169 C 0.70438 0.66024 0.16295 0.0
C170 C 0.70845 0.62867 0.1522 0.0
C171 C 0.7247 0.61939 0.11807 0.0
C172 C 0.73831 0.64212 0.09637 0.0
C173 C 0.73464 0.67369 0.10753 0.0
C174 C 0.67803 0.72269 0.13474 0.0
C175 C 0.66864 0.73031 0.09299 0.0
C176 C 0.63721 0.73529 0.07908 0.0
C177 C 0.61467 0.73273 0.10682 0.0
C178 C 0.62396 0.72577 0.14888 0.0
C179 C 0.65546 0.72077 0.16282 0.0
C180 C 0.72463 0.73276 0.1855 0.0
C181 C 0.74009 0.71812 0.22046 0.0
C182 C 0.75417 0.73575 0.25602 0.0
C183 C 0.75321 0.76844 0.25788 0.0
C184 C 0.73777 0.78299 0.22302 0.0
C185 C 0.72403 0.76541 0.18732 0.0
H186 H 0.33127 0.6809 0.06198 0.0
N187 N 0.29816 0.71826 0.1127 0.0
H188 H 0.38363 0.68723 0.04708 0.0
H189 H 0.3379 0.76866 0.13619 0.0
H190 H 0.39176 0.77319 0.12463 0.0
H191 H 0.31339 0.67971 0.17809 0.0
H192 H 0.30599 0.62385 0.17485 0.0
H193 H 0.26527 0.68311 0.05164 0.0
H194 H 0.26196 0.62626 0.04626 0.0
H195 H 0.24398 0.74779 0.11066 0.0
H196 H 0.32804 0.73053 0.19325 0.0
H197 H 0.22265 0.77649 0.16912 0.0
H198 H 0.3079 0.76034 0.25073 0.0
H199 H 0.20406 0.89071 0.32141 0.0
H200 H 0.21607 0.94192 0.35604 0.0
H201 H 0.26956 0.89943 0.46045 0.0
H202 H 0.25722 0.84803 0.42558 0.0
H203 H 0.20321 0.79818 0.41517 0.0
H204 H 0.1523 0.79203 0.44031 0.0
H205 H 0.11125 0.85268 0.34627 0.0
H206 H 0.16197 0.85764 0.32007 0.0
H207 H 0.20502 0.84918 0.274 0.0
H208 H 0.22567 0.82224 0.21394 0.0
H209 H 0.27142 0.7566 0.29802 0.0
N210 N 0.21725 0.83522 0.35694 0.0
H211 H 0.25235 0.78515 0.35797 0.0
C212 C 0.3304 0.72256 0.1043 0.0
C213 C 0.34404 0.70089 0.07709 0.0
C214 C 0.37457 0.70444 0.06847 0.0
C215 C 0.39281 0.7299 0.08634 0.0
C216 C 0.37884 0.7528 0.11098 0.0
C217 C 0.34783 0.7497 0.11864 0.0
C218 C 0.28985 0.68594 0.11485 0.0
C219 C 0.30094 0.66873 0.14974 0.0
C220 C 0.2975 0.63652 0.14752 0.0
C221 C 0.28511 0.62072 0.10955 0.0
C222 C 0.27212 0.63791 0.07575 0.0
C223 C 0.27391 0.67031 0.07879 0.0
C224 C 0.28761 0.7372 0.1472 0.0
C225 C 0.25801 0.75067 0.14119 0.0
C226 C 0.24597 0.76718 0.17462 0.0
C227 C 0.26347 0.7707 0.21484 0.0
C228 C 0.29338 0.75756 0.22058 0.0
C229 C 0.3051 0.74063 0.18747 0.0
C230 C 0.22958 0.86546 0.37123 0.0
C231 C 0.21905 0.89227 0.3511 0.0
C232 C 0.22589 0.92162 0.37096 0.0
C233 C 0.24356 0.92459 0.41098 0.0
C234 C 0.25618 0.89785 0.42937 0.0
C235 C 0.24911 0.86852 0.40964 0.0
C236 C 0.18639 0.82856 0.36625 0.0
C237 C 0.18303 0.80946 0.39934 0.0
C238 C 0.15407 0.80602 0.4136 0.0
C239 C 0.12807 0.82206 0.39526 0.0
C240 C 0.1311 0.84029 0.36098 0.0
C241 C 0.16003 0.84316 0.34612 0.0
C242 C 0.22789 0.81949 0.32054 0.0
C243 C 0.21991 0.82935 0.27952 0.0
C244 C 0.23142 0.81359 0.24507 0.0
C245 C 0.25058 0.78738 0.25104 0.0
C246 C 0.25756 0.77717 0.29219 0.0
C247 C 0.24649 0.79323 0.3265 0.0
H248 H 0.20286 0.88512 0.6728 0.0
N249 N 0.22021 0.83312 0.62781 0.0
H250 H 0.20894 0.93914 0.65512 0.0
H251 H 0.25043 0.85386 0.56693 0.0
H252 H 0.25572 0.90806 0.54841 0.0
H253 H 0.1928 0.81385 0.55131 0.0
H254 H 0.13666 0.80689 0.52858 0.0
H255 H 0.17367 0.83701 0.67902 0.0
H256 H 0.11763 0.82959 0.65641 0.0
H257 H 0.25786 0.86179 0.69677 0.0
H258 H 0.21801 0.77343 0.6461 0.0
H259 H 0.2818 0.83744 0.75875 0.0
H260 H 0.24162 0.74914 0.70915 0.0
H261 H 0.35299 0.7546 0.96424 0.0
H262 H 0.40956 0.75912 0.98434 0.0
H263 H 0.4245 0.73671 0.85485 0.0
H264 H 0.36819 0.73149 0.83484 0.0
H265 H 0.3463 0.68058 0.86105 0.0
H266 H 0.33709 0.62988 0.88766 0.0
H267 H 0.27158 0.67128 0.96607 0.0
H268 H 0.28117 0.72225 0.93954 0.0
H269 H 0.29591 0.79138 0.8846 0.0
H270 H 0.27027 0.81519 0.82191 0.0
H271 H 0.29036 0.73351 0.74472 0.0
N272 N 0.32315 0.73631 0.88895 0.0
H273 H 0.31504 0.70968 0.80772 0.0
C274 C 0.22653 0.86535 0.62136 0.0
C275 C 0.21476 0.88986 0.64592 0.0
C276 C 0.21802 0.92067 0.63563 0.0
C277 C 0.23213 0.92753 0.59985 0.0
C278 C 0.24449 0.90323 0.5759 0.0
C279 C 0.24166 0.87241 0.58657 0.0
C280 C 0.18745 0.82591 0.61671 0.0
C281 C 0.17654 0.81686 0.57451 0.0
C282 C 0.14464 0.81286 0.56162 0.0
C283 C 0.12312 0.81782 0.59085 0.0
C284 C 0.13396 0.82571 0.63345 0.0
C285 C 0.16587 0.82997 0.64629 0.0
C286 C 0.23464 0.81988 0.66646 0.0
C287 C 0.25339 0.83735 0.69888 0.0
C288 C 0.26736 0.82327 0.73485 0.0
C289 C 0.26343 0.79132 0.73946 0.0
C290 C 0.24537 0.77376 0.7068 0.0
C291 C 0.2315 0.78777 0.67079 0.0
C292 C 0.35615 0.74289 0.89813 0.0
C293 C 0.36843 0.75124 0.94006 0.0
C294 C 0.40062 0.75378 0.95149 0.0
C295 C 0.42114 0.74804 0.9211 0.0
C296 C 0.40899 0.7411 0.87875 0.0
C297 C 0.37677 0.73827 0.86734 0.0
C298 C 0.3144 0.70538 0.8984 0.0
C299 C 0.32949 0.67878 0.8833 0.0
C300 C 0.32435 0.64978 0.89873 0.0
C301 C 0.30373 0.64664 0.9291 0.0
C302 C 0.28738 0.67292 0.9424 0.0
C303 C 0.29281 0.70201 0.9273 0.0
C304 C 0.3073 0.74878 0.85112 0.0
C305 C 0.29453 0.77859 0.85414 0.0
C306 C 0.28014 0.79225 0.81815 0.0
C307 C 0.27828 0.7764 0.778 0.0
C308 C 0.29092 0.74631 0.77508 0.0
C309 C 0.30523 0.73262 0.8112 0.0
H310 H 0.35807 0.32786 0.01799 0.0
N311 N 0.32052 0.33359 0.94693 0.0
H312 H 0.41463 0.31972 0.02593 0.0
H313 H 0.35666 0.3219 0.88221 0.0
H314 H 0.41302 0.31367 0.89033 0.0
H315 H 0.33493 0.3741 0.88894 0.0
H316 H 0.32633 0.43024 0.89231 0.0
H317 H 0.29227 0.36697 0.00345 0.0
H318 H 0.28436 0.42341 0.00729 0.0
H319 H 0.28584 0.29068 0.97501 0.0
H320 H 0.30488 0.33147 0.86073 0.0
H321 H 0.24631 0.25691 0.93385 0.0
H322 H 0.2671 0.29694 0.81928 0.0
H323 H 0.15393 0.13079 0.75477 0.0
H324 H 0.17774 0.09207 0.70973 0.0
H325 H 0.24822 0.15907 0.69082 0.0
H326 H 0.22371 0.19782 0.73451 0.0
H327 H 0.17472 0.21757 0.69364 0.0
H328 H 0.13229 0.23021 0.63969 0.0
H329 H 0.06514 0.20274 0.71997 0.0
H330 H 0.10789 0.18972 0.77441 0.0
H331 H 0.20279 0.17899 0.84052 0.0
H332 H 0.23976 0.21337 0.88483 0.0
H333 H 0.21314 0.28821 0.80392 0.0
N334 N 0.16881 0.19067 0.76816 0.0
H335 H 0.17768 0.25391 0.7591 0.0
C336 C 0.35299 0.32536 0.94971 0.0
C337 C 0.36982 0.32423 0.98999 0.0
C338 C 0.40197 0.31961 0.99449 0.0
C339 C 0.41779 0.31586 0.95868 0.0
C340 C 0.40104 0.31619 0.91826 0.0
C341 C 0.36881 0.32093 0.91372 0.0
C342 C 0.31415 0.36631 0.9461 0.0
C343 C 0.32334 0.38444 0.91445 0.0
C344 C 0.31854 0.4165 0.91639 0.0
C345 C 0.30491 0.43086 0.95017 0.0
C346 C 0.29485 0.41268 0.98095 0.0
C347 C 0.29943 0.38063 0.97887 0.0
C348 C 0.29855 0.31332 0.92112 0.0
C349 C 0.28176 0.292 0.94098 0.0
C350 C 0.25933 0.27267 0.91736 0.0
C351 C 0.25343 0.27417 0.87316 0.0
C352 C 0.27055 0.29548 0.8533 0.0
C353 C 0.29266 0.31504 0.87703 0.0
C354 C 0.18683 0.16715 0.748 0.0
C355 C 0.17493 0.13681 0.74165 0.0
C356 C 0.18867 0.11472 0.71606 0.0
C357 C 0.21474 0.12259 0.69638 0.0
C358 C 0.22787 0.15244 0.70497 0.0
C359 C 0.21399 0.17457 0.7303 0.0
C360 C 0.14445 0.20259 0.73831 0.0
C361 C 0.15097 0.21455 0.7001 0.0
C362 C 0.12679 0.22189 0.66932 0.0
C363 C 0.09577 0.2173 0.676 0.0
C364 C 0.08906 0.20647 0.7145 0.0
C365 C 0.11331 0.19916 0.74545 0.0
C366 C 0.18755 0.21319 0.79588 0.0
C367 C 0.20483 0.20288 0.83252 0.0
C368 C 0.22587 0.22265 0.85793 0.0
C369 C 0.22977 0.25352 0.84768 0.0
C370 C 0.21142 0.26433 0.81212 0.0
C371 C 0.19074 0.24446 0.78636 0.0
H372 H 0.82445 0.26145 0.6083 0.0
N373 N 0.80571 0.21944 0.65811 0.0
H374 H 0.87686 0.26747 0.58721 0.0
H375 H 0.85884 0.19051 0.69123 0.0
H376 H 0.91085 0.19617 0.67011 0.0
H377 H 0.80587 0.17189 0.71153 0.0
H378 H 0.79872 0.11644 0.69 0.0
H379 H 0.78652 0.19433 0.58105 0.0
H380 H 0.78007 0.13884 0.55947 0.0
H381 H 0.74711 0.23437 0.66761 0.0
H382 H 0.83991 0.23741 0.73514 0.0
H383 H 0.72701 0.25962 0.72917 0.0
H384 H 0.82061 0.26457 0.7951 0.0
H385 H 0.72926 0.37787 0.85923 0.0
H386 H 0.7367 0.43279 0.88127 0.0
H387 H 0.75231 0.40999 0.01179 0.0
H388 H 0.74576 0.35458 0.98976 0.0
H389 H 0.71046 0.28612 0.96053 0.0
H390 H 0.65874 0.27809 0.98237 0.0
H391 H 0.62202 0.35101 0.9039 0.0
H392 H 0.67369 0.35876 0.88212 0.0
H393 H 0.70305 0.3321 0.82903 0.0
H394 H 0.72271 0.30553 0.76819 0.0
H395 H 0.79383 0.2622 0.85236 0.0
N396 N 0.72753 0.32975 0.91239 0.0
H397 H 0.77526 0.29096 0.91258 0.0
C398 C 0.83757 0.2255 0.65108 0.0
C399 C 0.8434 0.24764 0.62254 0.0
C400 C 0.8733 0.25106 0.6106 0.0
C401 C 0.89787 0.23213 0.62682 0.0
C402 C 0.89229 0.21083 0.65674 0.0
C403 C 0.86253 0.20762 0.66889 0.0
C404 C 0.79657 0.18736 0.64779 0.0
C405 C 0.79934 0.16501 0.67844 0.0
C406 C 0.7954 0.13338 0.66616 0.0
C407 C 0.78914 0.1236 0.62314 0.0
C408 C 0.78483 0.14593 0.59282 0.0
C409 C 0.78846 0.17752 0.6051 0.0
C410 C 0.79501 0.23396 0.696 0.0
C411 C 0.7632 0.24068 0.69556 0.0
C412 C 0.75181 0.25552 0.73081 0.0
C413 C 0.77208 0.26464 0.7675 0.0
C414 C 0.80399 0.25762 0.768 0.0
C415 C 0.81526 0.24219 0.73306 0.0
C416 C 0.73704 0.36173 0.92292 0.0
C417 C 0.73517 0.38424 0.89248 0.0
C418 C 0.73935 0.41577 0.90504 0.0
C419 C 0.74475 0.42541 0.94813 0.0
C420 C 0.74822 0.40299 0.97836 0.0
C421 C 0.7445 0.37145 0.9658 0.0
C422 C 0.69602 0.32295 0.91982 0.0
C423 C 0.69107 0.29987 0.94739 0.0
C424 C 0.66153 0.29532 0.95976 0.0
C425 C 0.63632 0.31401 0.94495 0.0
C426 C 0.64105 0.33644 0.91611 0.0
C427 C 0.67055 0.34075 0.90341 0.0
C428 C 0.73815 0.31403 0.87548 0.0
C429 C 0.72317 0.31728 0.83432 0.0
C430 C 0.73427 0.30157 0.79942 0.0
C431 C 0.7601 0.28152 0.80482 0.0
C432 C 0.77447 0.2779 0.84635 0.0
C433 C 0.76375 0.29414 0.88104 0.0
H434 H 0.7882 0.83091 0.5771 0.0
N435 N 0.81766 0.81099 0.64819 0.0
H436 H 0.77441 0.8846 0.56235 0.0
H437 H 0.81893 0.86022 0.70723 0.0
H438 H 0.80586 0.91383 0.69241 0.0
H439 H 0.8684 0.84566 0.68524 0.0
H440 H 0.91995 0.84552 0.66216 0.0
H441 H 0.83929 0.7715 0.59194 0.0
H442 H 0.8911 0.77145 0.56833 0.0
H443 H 0.76638 0.77776 0.64837 0.0
H444 H 0.84836 0.81101 0.72927 0.0
H445 H 0.74616 0.75665 0.70928 0.0
H446 H 0.82822 0.79052 0.78993 0.0
H447 H 0.68194 0.7125 0.85299 0.0
H448 H 0.62862 0.71716 0.87009 0.0
H449 H 0.661 0.77617 0.98103 0.0
H450 H 0.71448 0.77145 0.96355 0.0
H451 H 0.75887 0.71745 0.97781 0.0
H452 H 0.76408 0.66423 0.0007 0.0
H453 H 0.72992 0.62864 0.87412 0.0
H454 H 0.72587 0.68176 0.85101 0.0
H455 H 0.7042 0.76606 0.83503 0.0
H456 H 0.7262 0.78064 0.77308 0.0
H457 H 0.81485 0.74226 0.82106 0.0
N458 N 0.73455 0.73506 0.90246 0.0
H459 H 0.79293 0.72748 0.88388 0.0
C460 C 0.8049 0.84156 0.6429 0.0
C461 C 0.79121 0.84879 0.60264 0.0
C462 C 0.78326 0.87935 0.59438 0.0
C463 C 0.78924 0.90322 0.62631 0.0
C464 C 0.80115 0.89576 0.66733 0.0
C465 C 0.80867 0.86511 0.67572 0.0
C466 C 0.84974 0.80842 0.64022 0.0
C467 C 0.87312 0.8289 0.6603 0.0
C468 C 0.90267 0.829 0.64691 0.0
C469 C 0.90952 0.8086 0.61335 0.0
C470 C 0.88664 0.78719 0.59466 0.0
C471 C 0.85705 0.78718 0.60801 0.0
C472 C 0.80879 0.79587 0.68398 0.0
C473 C 0.78018 0.7801 0.67912 0.0
C474 C 0.76859 0.76834 0.71392 0.0
C475 C 0.78553 0.77216 0.75437 0.0
C476 C 0.81478 0.78698 0.75905 0.0
C477 C 0.82632 0.79881 0.72422 0.0
C478 C 0.70233 0.7417 0.90718 0.0
C479 C 0.6776 0.72675 0.88071 0.0
C480 C 0.6471 0.7294 0.89051 0.0
C481 C 0.64067 0.74689 0.92698 0.0
C482 C 0.66517 0.76288 0.95236 0.0
C483 C 0.69571 0.76022 0.94251 0.0
C484 C 0.74169 0.70358 0.91305 0.0
C485 C 0.75329 0.69812 0.95486 0.0
C486 C 0.75626 0.66784 0.96778 0.0
C487 C 0.74722 0.64257 0.93908 0.0
C488 C 0.73681 0.64788 0.89675 0.0
C489 C 0.73439 0.67816 0.88366 0.0
C490 C 0.74633 0.74388 0.86406 0.0
C491 C 0.7281 0.75972 0.83242 0.0
C492 C 0.74077 0.76833 0.79661 0.0
C493 C 0.77206 0.76206 0.79184 0.0
C494 C 0.79058 0.74724 0.82377 0.0
C495 C 0.77794 0.73854 0.85953 0.0
C496 C 0.06252 0.2532 0.62922 0.0
C497 C 0.07314 0.27963 0.65373 0.0
C498 C 0.06218 0.30447 0.63199 0.0
C499 C 0.04547 0.29186 0.5957 0.0
N500 N 0.04494 0.26043 0.59303 0.0
Co501 Co 0.02336 0.23263 0.54584 0.0
N502 N 0.00724 0.26919 0.51412 0.0
C503 C 0.0136 0.29957 0.52444 0.0
C504 C 0.99724 0.31919 0.49767 0.0
C505 C 0.97877 0.3002 0.46923 0.0
C506 C 0.98507 0.27011 0.48045 0.0
N507 N 0.00129 0.20494 0.49888 0.0
C508 C 0.97976 0.21238 0.46664 0.0
C509 C 0.96809 0.1862 0.44244 0.0
C510 C 0.9823 0.16123 0.46069 0.0
C511 C 0.00163 0.17354 0.49489 0.0
N512 N 0.03957 0.19593 0.57738 0.0
C513 C 0.03534 0.16553 0.56469 0.0
C514 C 0.04987 0.14568 0.59262 0.0
C515 C 0.06443 0.16446 0.62498 0.0
C516 C 0.05783 0.19486 0.61494 0.0
N517 N 0.98522 0.23288 0.57485 0.0
C518 C 0.92853 0.23273 0.61025 0.0
C519 C 0.94236 0.20501 0.5976 0.0
C520 C 0.97034 0.2056 0.58001 0.0
C521 C 0.94385 0.26061 0.60561 0.0
C522 C 0.97219 0.26014 0.58838 0.0
N523 N 0.06164 0.23228 0.51639 0.0
C524 C 0.09938 0.2038 0.47913 0.0
C525 C 0.11665 0.23075 0.47619 0.0
C526 C 0.10575 0.25861 0.49365 0.0
C527 C 0.07849 0.25883 0.51345 0.0
C528 C 0.0723 0.20511 0.49889 0.0
H529 H 0.07171 0.28077 0.5263 0.0
H530 H 0.06072 0.18361 0.49992 0.0
H531 H 0.97919 0.18369 0.57006 0.0
H532 H 0.98296 0.28208 0.58568 0.0
C533 C 0.03097 0.30889 0.56297 0.0
C534 C 0.07056 0.22185 0.64117 0.0
C535 C 0.96723 0.2434 0.46114 0.0
C536 C 0.01755 0.15631 0.52635 0.0
H537 H 0.08762 0.28078 0.68396 0.0
H538 H 0.06625 0.32882 0.64128 0.0
H539 H 0.9972 0.34433 0.50023 0.0
H540 H 0.96151 0.30756 0.44436 0.0
H541 H 0.95017 0.18513 0.4156 0.0
H542 H 0.97774 0.13693 0.45153 0.0
H543 H 0.05007 0.12055 0.58964 0.0
H544 H 0.07866 0.15661 0.65256 0.0
H545 H 0.93118 0.18284 0.60013 0.0
H546 H 0.93406 0.28265 0.61529 0.0
H547 H 0.10701 0.18142 0.46711 0.0
H548 H 0.11808 0.28025 0.49203 0.0
C549 C 0.76185 0.07437 0.58859 0.0
C550 C 0.73211 0.08489 0.59341 0.0
C551 C 0.712 0.06653 0.56625 0.0
C552 C 0.73056 0.04586 0.5466 0.0
N553 N 0.76126 0.04955 0.56026 0.0
Co554 Co 0.79658 0.02583 0.53871 0.0
N555 N 0.76788 0.0035 0.49247 0.0
C556 C 0.73688 0.00804 0.48325 0.0
C557 C 0.72322 0.98856 0.45065 0.0
C558 C 0.74679 0.97011 0.43887 0.0
C559 C 0.7735 0.97932 0.46525 0.0
N560 N 0.83184 0.00115 0.51826 0.0
C561 C 0.83123 0.97652 0.48952 0.0
C562 C 0.86072 0.96391 0.48813 0.0
C563 C 0.88053 0.98084 0.51729 0.0
C564 C 0.86214 0.00258 0.53502 0.0
N565 N 0.82551 0.04923 0.58379 0.0
C566 C 0.85679 0.04603 0.59151 0.0
C567 C 0.87082 0.06719 0.62159 0.0
C568 C 0.84724 0.08567 0.63296 0.0
C569 C 0.82001 0.07449 0.60924 0.0
N570 N 0.79056 0.99246 0.57706 0.0
C571 C 0.78759 0.93584 0.61494 0.0
C572 C 0.81383 0.95492 0.62417 0.0
C573 C 0.8148 0.98303 0.60508 0.0
C574 C 0.7616 0.94697 0.59026 0.0
C575 C 0.76335 0.97561 0.57257 0.0
N576 N 0.80262 0.0591 0.50042 0.0
C577 C 0.83692 0.0958 0.47494 0.0
C578 C 0.81153 0.11375 0.45994 0.0
C579 C 0.78157 0.10268 0.46257 0.0
C580 C 0.77767 0.07525 0.48232 0.0
C581 C 0.83197 0.06863 0.4948 0.0
H582 H 0.75426 0.06819 0.48392 0.0
H583 H 0.85225 0.05642 0.50681 0.0
H584 H 0.83601 0.99581 0.61185 0.0
H585 H 0.74287 0.98284 0.55375 0.0
C586 C 0.72064 0.02705 0.51015 0.0
C587 C 0.79002 0.09013 0.60908 0.0
C588 C 0.80307 0.96291 0.46538 0.0
C589 C 0.87242 0.02385 0.56849 0.0
H590 H 0.72582 0.10467 0.6131 0.0
H591 H 0.68703 0.06931 0.55956 0.0
H592 H 0.69874 0.98674 0.43857 0.0
H593 H 0.74438 0.95114 0.41486 0.0
H594 H 0.86725 0.94389 0.46915 0.0
H595 H 0.90522 0.97705 0.52562 0.0
H596 H 0.89542 0.06966 0.63268 0.0
H597 H 0.85011 0.10575 0.65509 0.0
H598 H 0.83441 0.94725 0.6436 0.0
H599 H 0.7405 0.93313 0.58333 0.0
H600 H 0.86059 0.10341 0.4733 0.0
H601 H 0.76121 0.1155 0.45029 0.0
C602 C 0.07241 0.84616 0.57049 0.0
C603 C 0.08383 0.87458 0.58878 0.0
C604 C 0.06402 0.89672 0.57272 0.0
C605 C 0.04179 0.88072 0.54561 0.0
N606 N 0.04579 0.84957 0.54399 0.0
Co607 Co 0.01997 0.81768 0.50682 0.0
N608 N 0.99353 0.8507 0.47891 0.0
C609 C 0.99706 0.88182 0.48576 0.0
C610 C 0.97433 0.8985 0.46351 0.0
C611 C 0.95464 0.87675 0.44194 0.0
C612 C 0.96661 0.84794 0.45235 0.0
N613 N 0.99367 0.78586 0.47022 0.0
C614 C 0.96604 0.78943 0.4459 0.0
C615 C 0.95357 0.7612 0.42879 0.0
C616 C 0.97367 0.73882 0.44376 0.0
C617 C 0.99715 0.75465 0.46906 0.0
N618 N 0.04684 0.78475 0.53423 0.0
C619 C 0.04404 0.75364 0.52619 0.0
C620 C 0.06735 0.73712 0.54768 0.0
C621 C 0.08659 0.75901 0.56998 0.0
C622 C 0.07386 0.78768 0.56071 0.0
N623 N 0.99067 0.81542 0.54977 0.0
C624 C 0.93945 0.8111 0.59556 0.0
C625 C 0.95526 0.78454 0.58323 0.0
C626 C 0.98084 0.78724 0.56098 0.0
C627 C 0.95136 0.84004 0.58785 0.0
C628 C 0.97699 0.84166 0.56529 0.0
N629 N 0.04921 0.81965 0.46364 0.0
C630 C 0.08515 0.79324 0.42145 0.0
C631 C 0.09869 0.82141 0.41437 0.0
C632 C 0.08569 0.84885 0.42956 0.0
C633 C 0.06111 0.84745 0.45407 0.0
C634 C 0.06023 0.79294 0.44535 0.0
H635 H 0.05296 0.86907 0.46624 0.0
H636 H 0.05108 0.77072 0.44981 0.0
H637 H 0.99144 0.76608 0.55176 0.0
H638 H 0.9845 0.8643 0.55924 0.0
C639 C 0.01931 0.89448 0.51754 0.0
C640 C 0.0892 0.81703 0.57587 0.0
C641 C 0.9499 0.81884 0.44038 0.0
C642 C 0.02072 0.74087 0.49569 0.0
H643 H 0.105 0.87911 0.61004 0.0
H644 H 0.06652 0.92165 0.57838 0.0
H645 H 0.97135 0.92345 0.46486 0.0
H646 H 0.93309 0.88164 0.42254 0.0
H647 H 0.93165 0.75724 0.40885 0.0
H648 H 0.97068 0.71391 0.43857 0.0
H649 H 0.07064 0.71222 0.54599 0.0
H650 H 0.1081 0.75451 0.58978 0.0
H651 H 0.94742 0.76166 0.58971 0.0
H652 H 0.94003 0.86134 0.59717 0.0
H653 H 0.09429 0.77148 0.40952 0.0
H654 H 0.09555 0.87121 0.42456 0.0
C655 C 0.26425 0.97657 0.5947 0.0
C656 C 0.29061 0.9657 0.6185 0.0
C657 C 0.31313 0.98822 0.61964 0.0
C658 C 0.29927 0.01154 0.5967 0.0
N659 N 0.26947 0.00508 0.58125 0.0
Co660 Co 0.24098 0.03215 0.54624 0.0
N661 N 0.27626 0.05696 0.53103 0.0
C662 C 0.30572 0.05699 0.55059 0.0
C663 C 0.32526 0.07634 0.53339 0.0
C664 C 0.30688 0.08977 0.50149 0.0
C665 C 0.27694 0.07805 0.50122 0.0
N666 N 0.21217 0.05937 0.51168 0.0
C667 C 0.21808 0.08068 0.48402 0.0
C668 C 0.19079 0.09569 0.46896 0.0
C669 C 0.16731 0.0837 0.48825 0.0
C670 C 0.18133 0.06215 0.51399 0.0
N671 N 0.20584 0.00713 0.56146 0.0
C672 C 0.1757 0.01552 0.55815 0.0
C673 C 0.15657 0.99286 0.56932 0.0
C674 C 0.17591 0.96874 0.58054 0.0
C675 C 0.20595 0.97823 0.57599 0.0
N676 N 0.23814 0.0604 0.59585 0.0
C677 C 0.22582 0.10103 0.66341 0.0
C678 C 0.22654 0.06888 0.66752 0.0
C679 C 0.23287 0.04898 0.63344 0.0
C680 C 0.23314 0.1124 0.62558 0.0
C681 C 0.23933 0.09178 0.5924 0.0
N682 N 0.24357 0.00375 0.49694 0.0
C683 C 0.21699 0.97042 0.44107 0.0
C684 C 0.24469 0.95445 0.43646 0.0
C685 C 0.27228 0.96512 0.46053 0.0
C686 C 0.27127 0.99014 0.49023 0.0
C687 C 0.21692 0.99492 0.47154 0.0
H688 H 0.29263 0.99737 0.50928 0.0
H689 H 0.19491 0.00548 0.47615 0.0
H690 H 0.23241 0.0243 0.63706 0.0
H691 H 0.24381 0.10136 0.56339 0.0
C692 C 0.3148 0.03631 0.58192 0.0
C693 C 0.23423 0.96014 0.58748 0.0
C694 C 0.24936 0.09068 0.47629 0.0
C695 C 0.16581 0.04182 0.53696 0.0
H696 H 0.29328 0.94377 0.6333 0.0
H697 H 0.33714 0.98701 0.63373 0.0
H698 H 0.34998 0.08 0.54258 0.0
H699 H 0.31443 0.10701 0.48157 0.0
H700 H 0.18811 0.1142 0.44744 0.0
H701 H 0.14289 0.08982 0.48375 0.0
H702 H 0.1314 0.99312 0.56739 0.0
H703 H 0.16852 0.94671 0.59049 0.0
H704 H 0.22153 0.05909 0.69645 0.0
H705 H 0.23257 0.13703 0.62066 0.0
H706 H 0.19509 0.96273 0.42334 0.0
H707 H 0.2942 0.9535 0.45753 0.0
C708 C 0.5659 0.76428 0.08563 0.0
C709 C 0.57671 0.79123 0.10855 0.0
C710 C 0.55887 0.8149 0.09234 0.0
C711 C 0.53826 0.80105 0.06059 0.0
N712 N 0.54142 0.76986 0.0563 0.0
Co713 Co 0.51854 0.74066 0.01188 0.0
N714 N 0.49666 0.77583 0.98261 0.0
C715 C 0.50078 0.80657 0.99286 0.0
C716 C 0.48061 0.82488 0.96876 0.0
C717 C 0.46199 0.80459 0.9424 0.0
C718 C 0.4719 0.77503 0.95209 0.0
N719 N 0.49516 0.71134 0.96798 0.0
C720 C 0.47051 0.71691 0.9389 0.0
C721 C 0.45897 0.6897 0.91709 0.0
C722 C 0.47642 0.66602 0.93374 0.0
C723 C 0.49743 0.68001 0.96472 0.0
N724 N 0.5409 0.70544 0.04058 0.0
C725 C 0.53775 0.67476 0.02924 0.0
C726 C 0.55801 0.6564 0.05303 0.0
C727 C 0.57584 0.67662 0.08038 0.0
C728 C 0.56528 0.70621 0.07163 0.0
N729 N 0.48376 0.73766 0.04666 0.0
C730 C 0.42564 0.7329 0.07716 0.0
C731 C 0.44354 0.7065 0.06984 0.0
C732 C 0.4722 0.70936 0.05454 0.0
C733 C 0.43905 0.76191 0.0733 0.0
C734 C 0.4682 0.76371 0.05897 0.0
N735 N 0.55323 0.74379 0.97699 0.0
C736 C 0.59255 0.71858 0.93953 0.0
C737 C 0.60913 0.74644 0.94058 0.0
C738 C 0.59615 0.77333 0.95744 0.0
C739 C 0.56822 0.77154 0.97494 0.0
C740 C 0.56478 0.71782 0.95759 0.0
H741 H 0.55981 0.79277 0.98786 0.0
H742 H 0.5537 0.69575 0.95686 0.0
H743 H 0.48394 0.68828 0.04781 0.0
H744 H 0.47694 0.78645 0.0562 0.0
C745 C 0.51967 0.81698 0.02989 0.0
C746 C 0.58118 0.73436 0.09028 0.0
C747 C 0.45522 0.74693 0.93465 0.0
C748 C 0.51733 0.66423 0.99393 0.0
H749 H 0.59637 0.79361 0.13304 0.0
H750 H 0.56196 0.83948 0.10079 0.0
H751 H 0.47824 0.84987 0.97204 0.0
H752 H 0.44228 0.81067 0.92017 0.0
H753 H 0.43908 0.68694 0.89309 0.0
H754 H 0.47302 0.64141 0.92582 0.0
H755 H 0.56055 0.63144 0.04949 0.0
H756 H 0.59533 0.67042 0.10289 0.0
H757 H 0.43515 0.68348 0.07455 0.0
H758 H 0.42665 0.78325 0.07909 0.0
H759 H 0.60166 0.6971 0.92667 0.0
H760 H 0.60782 0.79558 0.95795 0.0
C761 C 0.26025 0.56856 0.0857 0.0
C762 C 0.23035 0.57668 0.09348 0.0
C763 C 0.21042 0.55885 0.06535 0.0
C764 C 0.22931 0.5409 0.04226 0.0
N765 N 0.26005 0.54564 0.05482 0.0
Co766 Co 0.29587 0.52601 0.0292 0.0
N767 N 0.26707 0.50362 0.98349 0.0
C768 C 0.23571 0.50607 0.97624 0.0
C769 C 0.22241 0.48588 0.94415 0.0
C770 C 0.24665 0.46905 0.93099 0.0
C771 C 0.27332 0.48004 0.9559 0.0
N772 N 0.33171 0.50574 0.00402 0.0
C773 C 0.33139 0.48214 0.97402 0.0
C774 C 0.36131 0.47292 0.96759 0.0
C775 C 0.38128 0.49079 0.99549 0.0
C776 C 0.36246 0.5097 0.01729 0.0
N777 N 0.32476 0.54887 0.07454 0.0
C778 C 0.35624 0.54728 0.0805 0.0
C779 C 0.36976 0.56749 0.11215 0.0
C780 C 0.3456 0.58367 0.12635 0.0
C781 C 0.31847 0.57227 0.10252 0.0
N782 N 0.29396 0.49006 0.06522 0.0
C783 C 0.29261 0.43519 0.10927 0.0
C784 C 0.32039 0.45161 0.10859 0.0
C785 C 0.32051 0.47874 0.08683 0.0
C786 C 0.26528 0.44744 0.08874 0.0
C787 C 0.26645 0.47469 0.06719 0.0
N788 N 0.29783 0.56205 0.99321 0.0
C789 C 0.32822 0.60114 0.96487 0.0
C790 C 0.30131 0.61673 0.94938 0.0
C791 C 0.27253 0.60405 0.95519 0.0
C792 C 0.27131 0.57667 0.97653 0.0
C793 C 0.32598 0.57425 0.98661 0.0
H794 H 0.24867 0.56814 0.97986 0.0
H795 H 0.34747 0.56425 0.99861 0.0
H796 H 0.34256 0.48967 0.08705 0.0
H797 H 0.24492 0.48242 0.05149 0.0
C798 C 0.21923 0.52309 0.00493 0.0
C799 C 0.28774 0.58643 0.10351 0.0
C800 C 0.30345 0.4651 0.95578 0.0
C801 C 0.37261 0.52904 0.05302 0.0
H802 H 0.22379 0.59503 0.11531 0.0
H803 H 0.18526 0.56034 0.06039 0.0
H804 H 0.19783 0.48223 0.93376 0.0
H805 H 0.24487 0.44973 0.9075 0.0
H806 H 0.36807 0.45419 0.94658 0.0
H807 H 0.40641 0.48894 0.00092 0.0
H808 H 0.39439 0.57123 0.12212 0.0
H809 H 0.34832 0.60252 0.15031 0.0
H810 H 0.34234 0.44304 0.12351 0.0
H811 H 0.24306 0.43586 0.08876 0.0
H812 H 0.35108 0.61024 0.96152 0.0
H813 H 0.25102 0.61524 0.94341 0.0
C814 C 0.47 0.34109 0.98264 0.0
C815 C 0.46015 0.37127 0.97671 0.0
C816 C 0.47952 0.39001 0.00432 0.0
C817 C 0.49986 0.37015 0.02542 0.0
N818 N 0.49535 0.34 0.01185 0.0
Co819 Co 0.51641 0.30276 0.03668 0.0
N820 N 0.54093 0.32935 0.08268 0.0
C821 C 0.54039 0.3607 0.0883 0.0
C822 C 0.56133 0.37244 0.12109 0.0
C823 C 0.5768 0.34717 0.13659 0.0
C824 C 0.56423 0.32136 0.11229 0.0
N825 N 0.5366 0.2654 0.06221 0.0
C826 C 0.56022 0.26379 0.09395 0.0
C827 C 0.56857 0.23336 0.10109 0.0
C828 C 0.54989 0.21501 0.07201 0.0
C829 C 0.53129 0.23528 0.04895 0.0
N830 N 0.49238 0.27637 0.98999 0.0
C831 C 0.49474 0.24537 0.98198 0.0
C832 C 0.4732 0.23374 0.94966 0.0
C833 C 0.45553 0.25864 0.93724 0.0
C834 C 0.46744 0.28403 0.96276 0.0
N835 N 0.55128 0.30643 0.00158 0.0
C836 C 0.60586 0.31136 0.96177 0.0
C837 C 0.59265 0.28243 0.96632 0.0
C838 C 0.5654 0.28052 0.98567 0.0
C839 C 0.59045 0.33783 0.97563 0.0
C840 C 0.56349 0.33486 0.99528 0.0
N841 N 0.48179 0.29911 0.07181 0.0
C842 C 0.43785 0.27038 0.09026 0.0
C843 C 0.42809 0.29629 0.11344 0.0
C844 C 0.44645 0.32314 0.11718 0.0
C845 C 0.4729 0.3241 0.0961 0.0
C846 C 0.46482 0.27213 0.07036 0.0
H847 H 0.48517 0.34565 0.09883 0.0
H848 H 0.471 0.25163 0.05299 0.0
H849 H 0.55668 0.25776 0.98829 0.0
H850 H 0.5535 0.35595 0.00609 0.0
C851 C 0.52099 0.37855 0.06101 0.0
C852 C 0.45219 0.31404 0.96424 0.0
C853 C 0.57764 0.29039 0.11473 0.0
C854 C 0.51241 0.22727 0.01096 0.0
H855 H 0.43998 0.37865 0.95628 0.0
H856 H 0.47773 0.41489 0.01019 0.0
H857 H 0.56569 0.39657 0.13144 0.0
H858 H 0.59598 0.34794 0.16176 0.0
H859 H 0.58727 0.22549 0.12362 0.0
H860 H 0.5511 0.19005 0.06661 0.0
H861 H 0.46911 0.20964 0.9389 0.0
H862 H 0.43508 0.25791 0.91397 0.0
H863 H 0.60346 0.26126 0.95539 0.0
H864 H 0.59982 0.3608 0.97289 0.0
H865 H 0.42444 0.24898 0.08693 0.0
H866 H 0.43962 0.34387 0.1346 0.0
C867 C 0.69816 0.57052 0.08095 0.0
C868 C 0.66817 0.58174 0.08269 0.0
C869 C 0.64888 0.56363 0.05431 0.0
C870 C 0.66805 0.54258 0.03672 0.0
N871 N 0.69837 0.5455 0.05301 0.0
Co872 Co 0.73462 0.52221 0.03294 0.0
N873 N 0.7068 0.49889 0.98659 0.0
C874 C 0.67552 0.50158 0.97782 0.0
C875 C 0.66244 0.48077 0.94657 0.0
C876 C 0.68665 0.46306 0.93549 0.0
C877 C 0.71327 0.47427 0.96065 0.0
N878 N 0.77088 0.4994 0.0124 0.0
C879 C 0.77112 0.47469 0.98404 0.0
C880 C 0.80113 0.46431 0.98072 0.0
C881 C 0.82054 0.4826 0.00892 0.0
C882 C 0.80133 0.50308 0.0277 0.0
N883 N 0.76228 0.54515 0.07974 0.0
C884 C 0.79334 0.54149 0.08981 0.0
C885 C 0.80618 0.56202 0.12173 0.0
C886 C 0.78206 0.58038 0.13185 0.0
C887 C 0.75585 0.57001 0.10532 0.0
N888 N 0.72894 0.48814 0.07034 0.0
C889 C 0.72241 0.43098 0.10597 0.0
C890 C 0.75163 0.44486 0.10744 0.0
C891 C 0.75429 0.47352 0.09022 0.0
C892 C 0.69621 0.44744 0.08994 0.0
C893 C 0.69998 0.47593 0.07256 0.0
N894 N 0.74044 0.55611 0.99538 0.0
C895 C 0.7717 0.59885 0.97831 0.0
C896 C 0.74596 0.61117 0.95451 0.0
C897 C 0.71805 0.59444 0.94877 0.0
C898 C 0.71578 0.56712 0.96945 0.0
C899 C 0.76858 0.57111 0.99766 0.0
H900 H 0.69355 0.55605 0.9653 0.0
H901 H 0.789 0.56294 0.01557 0.0
H902 H 0.77723 0.48269 0.09184 0.0
H903 H 0.67926 0.48697 0.05955 0.0
C904 C 0.65878 0.52204 0.00197 0.0
C905 C 0.72601 0.58605 0.10312 0.0
C906 C 0.74345 0.45886 0.96215 0.0
C907 C 0.81041 0.52231 0.06412 0.0
H908 H 0.66095 0.60179 0.10099 0.0
H909 H 0.62408 0.56657 0.04581 0.0
H910 H 0.638 0.47779 0.93477 0.0
H911 H 0.68449 0.44329 0.91282 0.0
H912 H 0.80802 0.44466 0.96127 0.0
H913 H 0.84545 0.47998 0.01671 0.0
H914 H 0.83053 0.56467 0.13421 0.0
H915 H 0.78376 0.60011 0.15469 0.0
H916 H 0.77246 0.43334 0.12099 0.0
H917 H 0.67301 0.43772 0.08886 0.0
H918 H 0.79391 0.61096 0.98279 0.0
H919 H 0.69756 0.60326 0.93032 0.0
loop_
_geom_bond_atom_site_label_1
_geom_bond_atom_site_label_2
_geom_bond_distance
_geom_bond_site_symmetry_2
_ccdc_geom_bond_type
H0 C27 0.929 . S
N1 C26 1.433 . S
N1 C32 1.435 . S
N1 C38 1.423 . S
H2 C28 0.930 . S
H3 C31 0.931 . S
H4 C30 0.929 . S
H5 C33 0.930 . S
H6 C34 0.932 . S
H7 C37 0.929 . S
H8 C36 0.931 . S
H9 C39 0.929 . S
H10 C43 0.932 . S
H11 C40 0.931 . S
H12 C42 0.929 . S
H13 C45 0.929 . S
H14 C46 0.930 . S
H15 C48 0.929 . S
H16 C49 0.931 . S
H17 C51 0.930 . S
H18 C52 0.932 . S
H19 C54 0.931 . S
H20 C55 0.929 . S
H21 C57 0.929 . S
H22 C58 0.931 . S
H23 C60 0.929 . S
N24 C44 1.433 . S
N24 C50 1.435 . S
N24 C56 1.423 . S
H25 C61 0.932 . S
C26 N1 1.433 . S
C26 C27 1.363 . S
C26 C31 1.370 . S
C27 H0 0.929 . S
C27 C26 1.363 . S
C27 C28 1.385 . S
C28 H2 0.930 . S
C28 C27 1.385 . S
C28 C29 1.357 . S
C29 C28 1.357 . S
C29 C30 1.406 . S
C30 H4 0.929 . S
C30 C29 1.406 . S
C30 C31 1.391 . S
C31 H3 0.931 . S
C31 C26 1.370 . S
C31 C30 1.391 . S
C32 N1 1.435 . S
C32 C33 1.358 . S
C32 C37 1.371 . S
C33 H5 0.930 . S
C33 C32 1.358 . S
C33 C34 1.405 . S
C34 H6 0.932 . S
C34 C33 1.405 . S
C34 C35 1.383 . S
C35 C34 1.383 . S
C35 C36 1.393 . S
C36 H8 0.931 . S
C36 C35 1.393 . S
C36 C37 1.382 . S
C37 H7 0.929 . S
C37 C32 1.371 . S
C37 C36 1.382 . S
C38 N1 1.423 . S
C38 C39 1.362 . S
C38 C43 1.388 . S
C39 H9 0.929 . S
C39 C38 1.362 . S
C39 C40 1.376 . S
C40 H11 0.931 . S
C40 C39 1.376 . S
C40 C41 1.396 . S
C41 C40 1.396 . S
C41 C42 1.348 . S
C41 C59 1.472 . S
C42 H12 0.929 . S
C42 C41 1.348 . S
C42 C43 1.443 . S
C43 H10 0.932 . S
C43 C38 1.388 . S
C43 C42 1.443 . S
C44 N24 1.433 . S
C44 C45 1.363 . S
C44 C49 1.370 . S
C45 H13 0.929 . S
C45 C44 1.363 . S
C45 C46 1.385 . S
C46 H14 0.930 . S
C46 C45 1.385 . S
C46 C47 1.357 . S
C47 C46 1.357 . S
C47 C48 1.406 . S
C48 H15 0.929 . S
C48 C47 1.406 . S
C48 C49 1.391 . S
C49 H16 0.931 . S
C49 C44 1.370 . S
C49 C48 1.391 . S
C50 N24 1.435 . S
C50 C51 1.358 . S
C50 C55 1.371 . S
C51 H17 0.930 . S
C51 C50 1.358 . S
C51 C52 1.405 . S
C52 H18 0.932 . S
C52 C51 1.405 . S
C52 C53 1.383 . S
C53 C52 1.383 . S
C53 C54 1.393 . S
C54 H19 0.931 . S
C54 C53 1.393 . S
C54 C55 1.382 . S
C55 H20 0.929 . S
C55 C50 1.371 . S
C55 C54 1.382 . S
C56 N24 1.423 . S
C56 C57 1.362 . S
C56 C61 1.388 . S
C57 H21 0.929 . S
C57 C56 1.362 . S
C57 C58 1.376 . S
C58 H22 0.931 . S
C58 C57 1.376 . S
C58 C59 1.396 . S
C59 C41 1.472 . S
C59 C58 1.396 . S
C59 C60 1.348 . S
C60 H23 0.929 . S
C60 C59 1.348 . S
C60 C61 1.443 . S
C61 H25 0.932 . S
C61 C56 1.388 . S
C61 C60 1.443 . S
H62 C89 0.929 . S
N63 C88 1.433 . S
N63 C94 1.435 . S
N63 C100 1.423 . S
H64 C90 0.930 . S
H65 C93 0.931 . S
H66 C92 0.929 . S
H67 C95 0.930 . S
H68 C96 0.932 . S
H69 C99 0.929 . S
H70 C98 0.931 . S
H71 C101 0.929 . S
H72 C105 0.932 . S
H73 C102 0.931 . S
H74 C104 0.929 . S
H75 C107 0.929 . S
H76 C108 0.930 . S
H77 C110 0.929 . S
H78 C111 0.931 . S
H79 C113 0.930 . S
H80 C114 0.932 . S
H81 C116 0.931 . S
H82 C117 0.929 . S
H83 C119 0.929 . S
H84 C120 0.931 . S
H85 C122 0.929 . S
N86 C106 1.433 . S
N86 C112 1.435 . S
N86 C118 1.423 . S
H87 C123 0.932 . S
C88 N63 1.433 . S
C88 C89 1.363 . S
C88 C93 1.370 . S
C89 H62 0.929 . S
C89 C88 1.363 . S
C89 C90 1.385 . S
C90 H64 0.930 . S
C90 C89 1.385 . S
C90 C91 1.357 . S
C91 C90 1.357 . S
C91 C92 1.406 . S
C92 H66 0.929 . S
C92 C91 1.406 . S
C92 C93 1.391 . S
C93 H65 0.931 . S
C93 C88 1.370 . S
C93 C92 1.391 . S
C94 N63 1.435 . S
C94 C95 1.358 . S
C94 C99 1.371 . S
C95 H67 0.930 . S
C95 C94 1.358 . S
C95 C96 1.405 . S
C96 H68 0.932 . S
C96 C95 1.405 . S
C96 C97 1.383 . S
C97 C96 1.383 . S
C97 C98 1.393 . S
C98 H70 0.931 . S
C98 C97 1.393 . S
C98 C99 1.382 . S
C99 H69 0.929 . S
C99 C94 1.371 . S
C99 C98 1.382 . S
C100 N63 1.423 . S
C100 C101 1.362 . S
C100 C105 1.388 . S
C101 H71 0.929 . S
C101 C100 1.362 . S
C101 C102 1.376 . S
C102 H73 0.931 . S
C102 C101 1.376 . S
C102 C103 1.396 . S
C103 C102 1.396 . S
C103 C104 1.348 . S
C103 C121 1.472 . S
C104 H74 0.929 . S
C104 C103 1.348 . S
C104 C105 1.443 . S
C105 H72 0.932 . S
C105 C100 1.388 . S
C105 C104 1.443 . S
C106 N86 1.433 . S
C106 C107 1.363 . S
C106 C111 1.370 . S
C107 H75 0.929 . S
C107 C106 1.363 . S
C107 C108 1.385 . S
C108 H76 0.930 . S
C108 C107 1.385 . S
C108 C109 1.357 . S
C109 C108 1.357 . S
C109 C110 1.406 . S
C110 H77 0.929 . S
C110 C109 1.406 . S
C110 C111 1.391 . S
C111 H78 0.931 . S
C111 C106 1.370 . S
C111 C110 1.391 . S
C112 N86 1.435 . S
C112 C113 1.358 . S
C112 C117 1.371 . S
C113 H79 0.930 . S
C113 C112 1.358 . S
C113 C114 1.405 . S
C114 H80 0.932 . S
C114 C113 1.405 . S
C114 C115 1.383 . S
C115 C114 1.383 . S
C115 C116 1.393 . S
C116 H81 0.931 . S
C116 C115 1.393 . S
C116 C117 1.382 . S
C117 H82 0.929 . S
C117 C112 1.371 . S
C117 C116 1.382 . S
C118 N86 1.423 . S
C118 C119 1.362 . S
C118 C123 1.388 . S
C119 H83 0.929 . S
C119 C118 1.362 . S
C119 C120 1.376 . S
C120 H84 0.931 . S
C120 C119 1.376 . S
C120 C121 1.396 . S
C121 C103 1.472 . S
C121 C120 1.396 . S
C121 C122 1.348 . S
C122 H85 0.929 . S
C122 C121 1.348 . S
C122 C123 1.443 . S
C123 H87 0.932 . S
C123 C118 1.388 . S
C123 C122 1.443 . S
H124 C151 0.929 . S
N125 C150 1.433 . S
N125 C156 1.435 . S
N125 C162 1.423 . S
H126 C152 0.930 . S
H127 C155 0.931 . S
H128 C154 0.929 . S
H129 C157 0.930 . S
H130 C158 0.932 . S
H131 C161 0.929 . S
H132 C160 0.931 . S
H133 C163 0.929 . S
H134 C167 0.932 . S
H135 C164 0.931 . S
H136 C166 0.929 . S
H137 C169 0.929 . S
H138 C170 0.930 . S
H139 C172 0.929 . S
H140 C173 0.931 . S
H141 C175 0.930 . S
H142 C176 0.932 . S
H143 C178 0.931 . S
H144 C179 0.929 . S
H145 C181 0.929 . S
H146 C182 0.931 . S
H147 C184 0.929 . S
N148 C168 1.433 . S
N148 C174 1.435 . S
N148 C180 1.423 . S
H149 C185 0.932 . S
C150 N125 1.433 . S
C150 C151 1.363 . S
C150 C155 1.370 . S
C151 H124 0.929 . S
C151 C150 1.363 . S
C151 C152 1.385 . S
C152 H126 0.930 . S
C152 C151 1.385 . S
C152 C153 1.357 . S
C153 C152 1.357 . S
C153 C154 1.406 . S
C154 H128 0.929 . S
C154 C153 1.406 . S
C154 C155 1.391 . S
C155 H127 0.931 . S
C155 C150 1.370 . S
C155 C154 1.391 . S
C156 N125 1.435 . S
C156 C157 1.358 . S
C156 C161 1.371 . S
C157 H129 0.930 . S
C157 C156 1.358 . S
C157 C158 1.405 . S
C158 H130 0.932 . S
C158 C157 1.405 . S
C158 C159 1.383 . S
C159 C158 1.383 . S
C159 C160 1.393 . S
C160 H132 0.931 . S
C160 C159 1.393 . S
C160 C161 1.382 . S
C161 H131 0.929 . S
C161 C156 1.371 . S
C161 C160 1.382 . S
C162 N125 1.423 . S
C162 C163 1.362 . S
C162 C167 1.388 . S
C163 H133 0.929 . S
C163 C162 1.362 . S
C163 C164 1.376 . S
C164 H135 0.931 . S
C164 C163 1.376 . S
C164 C165 1.396 . S
C165 C164 1.396 . S
C165 C166 1.348 . S
C165 C183 1.472 . S
C166 H136 0.929 . S
C166 C165 1.348 . S
C166 C167 1.443 . S
C167 H134 0.932 . S
C167 C162 1.388 . S
C167 C166 1.443 . S
C168 N148 1.433 . S
C168 C169 1.363 . S
C168 C173 1.370 . S
C169 H137 0.929 . S
C169 C168 1.363 . S
C169 C170 1.385 . S
C170 H138 0.930 . S
C170 C169 1.385 . S
C170 C171 1.357 . S
C171 C170 1.357 . S
C171 C172 1.406 . S
C172 H139 0.929 . S
C172 C171 1.406 . S
C172 C173 1.391 . S
C173 H140 0.931 . S
C173 C168 1.370 . S
C173 C172 1.391 . S
C174 N148 1.435 . S
C174 C175 1.358 . S
C174 C179 1.371 . S
C175 H141 0.930 . S
C175 C174 1.358 . S
C175 C176 1.405 . S
C176 H142 0.932 . S
C176 C175 1.405 . S
C176 C177 1.383 . S
C177 C176 1.383 . S
C177 C178 1.393 . S
C178 H143 0.931 . S
C178 C177 1.393 . S
C178 C179 1.382 . S
C179 H144 0.929 . S
C179 C174 1.371 . S
C179 C178 1.382 . S
C180 N148 1.423 . S
C180 C181 1.362 . S
C180 C185 1.388 . S
C181 H145 0.929 . S
C181 C180 1.362 . S
C181 C182 1.376 . S
C182 H146 0.931 . S
C182 C181 1.376 . S
C182 C183 1.396 . S
C183 C165 1.472 . S
C183 C182 1.396 . S
C183 C184 1.348 . S
C184 H147 0.929 . S
C184 C183 1.348 . S
C184 C185 1.443 . S
C185 H149 0.932 . S
C185 C180 1.388 . S
C185 C184 1.443 . S
H186 C213 0.929 . S
N187 C212 1.433 . S
N187 C218 1.435 . S
N187 C224 1.423 . S
H188 C214 0.930 . S
H189 C217 0.931 . S
H190 C216 0.929 . S
H191 C219 0.930 . S
H192 C220 0.932 . S
H193 C223 0.929 . S
H194 C222 0.931 . S
H195 C225 0.929 . S
H196 C229 0.932 . S
H197 C226 0.931 . S
H198 C228 0.929 . S
H199 C231 0.929 . S
H200 C232 0.930 . S
H201 C234 0.929 . S
H202 C235 0.931 . S
H203 C237 0.930 . S
H204 C238 0.932 . S
H205 C240 0.931 . S
H206 C241 0.929 . S
H207 C243 0.929 . S
H208 C244 0.931 . S
H209 C246 0.929 . S
N210 C230 1.433 . S
N210 C236 1.435 . S
N210 C242 1.423 . S
H211 C247 0.932 . S
C212 N187 1.433 . S
C212 C213 1.363 . S
C212 C217 1.370 . S
C213 H186 0.929 . S
C213 C212 1.363 . S
C213 C214 1.385 . S
C214 H188 0.930 . S
C214 C213 1.385 . S
C214 C215 1.357 . S
C215 C214 1.357 . S
C215 C216 1.406 . S
C216 H190 0.929 . S
C216 C215 1.406 . S
C216 C217 1.391 . S
C217 H189 0.931 . S
C217 C212 1.370 . S
C217 C216 1.391 . S
C218 N187 1.435 . S
C218 C219 1.358 . S
C218 C223 1.371 . S
C219 H191 0.930 . S
C219 C218 1.358 . S
C219 C220 1.405 . S
C220 H192 0.932 . S
C220 C219 1.405 . S
C220 C221 1.383 . S
C221 C220 1.383 . S
C221 C222 1.393 . S
C222 H194 0.931 . S
C222 C221 1.393 . S
C222 C223 1.382 . S
C223 H193 0.929 . S
C223 C218 1.371 . S
C223 C222 1.382 . S
C224 N187 1.423 . S
C224 C225 1.362 . S
C224 C229 1.388 . S
C225 H195 0.929 . S
C225 C224 1.362 . S
C225 C226 1.376 . S
C226 H197 0.931 . S
C226 C225 1.376 . S
C226 C227 1.396 . S
C227 C226 1.396 . S
C227 C228 1.348 . S
C227 C245 1.472 . S
C228 H198 0.929 . S
C228 C227 1.348 . S
C228 C229 1.443 . S
C229 H196 0.932 . S
C229 C224 1.388 . S
C229 C228 1.443 . S
C230 N210 1.433 . S
C230 C231 1.363 . S
C230 C235 1.370 . S
C231 H199 0.929 . S
C231 C230 1.363 . S
C231 C232 1.385 . S
C232 H200 0.930 . S
C232 C231 1.385 . S
C232 C233 1.357 . S
C233 C232 1.357 . S
C233 C234 1.406 . S
C234 H201 0.929 . S
C234 C233 1.406 . S
C234 C235 1.391 . S
C235 H202 0.931 . S
C235 C230 1.370 . S
C235 C234 1.391 . S
C236 N210 1.435 . S
C236 C237 1.358 . S
C236 C241 1.371 . S
C237 H203 0.930 . S
C237 C236 1.358 . S
C237 C238 1.405 . S
C238 H204 0.932 . S
C238 C237 1.405 . S
C238 C239 1.383 . S
C239 C238 1.383 . S
C239 C240 1.393 . S
C240 H205 0.931 . S
C240 C239 1.393 . S
C240 C241 1.382 . S
C241 H206 0.929 . S
C241 C236 1.371 . S
C241 C240 1.382 . S
C242 N210 1.423 . S
C242 C243 1.362 . S
C242 C247 1.388 . S
C243 H207 0.929 . S
C243 C242 1.362 . S
C243 C244 1.376 . S
C244 H208 0.931 . S
C244 C243 1.376 . S
C244 C245 1.396 . S
C245 C227 1.472 . S
C245 C244 1.396 . S
C245 C246 1.348 . S
C246 H209 0.929 . S
C246 C245 1.348 . S
C246 C247 1.443 . S
C247 H211 0.932 . S
C247 C242 1.388 . S
C247 C246 1.443 . S
H248 C275 0.929 . S
N249 C274 1.433 . S
N249 C280 1.435 . S
N249 C286 1.423 . S
H250 C276 0.930 . S
H251 C279 0.931 . S
H252 C278 0.929 . S
H253 C281 0.930 . S
H254 C282 0.932 . S
H255 C285 0.929 . S
H256 C284 0.931 . S
H257 C287 0.929 . S
H258 C291 0.932 . S
H259 C288 0.931 . S
H260 C290 0.929 . S
H261 C293 0.929 . S
H262 C294 0.930 . S
H263 C296 0.929 . S
H264 C297 0.931 . S
H265 C299 0.930 . S
H266 C300 0.932 . S
H267 C302 0.931 . S
H268 C303 0.929 . S
H269 C305 0.929 . S
H270 C306 0.931 . S
H271 C308 0.929 . S
N272 C292 1.433 . S
N272 C298 1.435 . S
N272 C304 1.423 . S
H273 C309 0.932 . S
C274 N249 1.433 . S
C274 C275 1.363 . S
C274 C279 1.370 . S
C275 H248 0.929 . S
C275 C274 1.363 . S
C275 C276 1.385 . S
C276 H250 0.930 . S
C276 C275 1.385 . S
C276 C277 1.357 . S
C277 C276 1.357 . S
C277 C278 1.406 . S
C278 H252 0.929 . S
C278 C277 1.406 . S
C278 C279 1.391 . S
C279 H251 0.931 . S
C279 C274 1.370 . S
C279 C278 1.391 . S
C280 N249 1.435 . S
C280 C281 1.358 . S
C280 C285 1.371 . S
C281 H253 0.930 . S
C281 C280 1.358 . S
C281 C282 1.405 . S
C282 H254 0.932 . S
C282 C281 1.405 . S
C282 C283 1.383 . S
C283 C282 1.383 . S
C283 C284 1.393 . S
C284 H256 0.931 . S
C284 C283 1.393 . S
C284 C285 1.382 . S
C285 H255 0.929 . S
C285 C280 1.371 . S
C285 C284 1.382 . S
C286 N249 1.423 . S
C286 C287 1.362 . S
C286 C291 1.388 . S
C287 H257 0.929 . S
C287 C286 1.362 . S
C287 C288 1.376 . S
C288 H259 0.931 . S
C288 C287 1.376 . S
C288 C289 1.396 . S
C289 C288 1.396 . S
C289 C290 1.348 . S
C289 C307 1.472 . S
C290 H260 0.929 . S
C290 C289 1.348 . S
C290 C291 1.443 . S
C291 H258 0.932 . S
C291 C286 1.388 . S
C291 C290 1.443 . S
C292 N272 1.433 . S
C292 C293 1.363 . S
C292 C297 1.370 . S
C293 H261 0.929 . S
C293 C292 1.363 . S
C293 C294 1.385 . S
C294 H262 0.930 . S
C294 C293 1.385 . S
C294 C295 1.357 . S
C295 C294 1.357 . S
C295 C296 1.406 . S
C296 H263 0.929 . S
C296 C295 1.406 . S
C296 C297 1.391 . S
C297 H264 0.931 . S
C297 C292 1.370 . S
C297 C296 1.391 . S
C298 N272 1.435 . S
C298 C299 1.358 . S
C298 C303 1.371 . S
C299 H265 0.930 . S
C299 C298 1.358 . S
C299 C300 1.405 . S
C300 H266 0.932 . S
C300 C299 1.405 . S
C300 C301 1.383 . S
C301 C300 1.383 . S
C301 C302 1.393 . S
C302 H267 0.931 . S
C302 C301 1.393 . S
C302 C303 1.382 . S
C303 H268 0.929 . S
C303 C298 1.371 . S
C303 C302 1.382 . S
C304 N272 1.423 . S
C304 C305 1.362 . S
C304 C309 1.388 . S
C305 H269 0.929 . S
C305 C304 1.362 . S
C305 C306 1.376 . S
C306 H270 0.931 . S
C306 C305 1.376 . S
C306 C307 1.396 . S
C307 C289 1.472 . S
C307 C306 1.396 . S
C307 C308 1.348 . S
C308 H271 0.929 . S
C308 C307 1.348 . S
C308 C309 1.443 . S
C309 H273 0.932 . S
C309 C304 1.388 . S
C309 C308 1.443 . S
H310 C337 0.929 1_554 S
N311 C336 1.433 . S
N311 C342 1.435 . S
N311 C348 1.423 . S
H312 C338 0.930 1_554 S
H313 C341 0.931 . S
H314 C340 0.929 . S
H315 C343 0.930 . S
H316 C344 0.932 . S
H317 C347 0.929 . S
H318 C346 0.931 . S
H319 C349 0.929 . S
H320 C353 0.932 . S
H321 C350 0.931 . S
H322 C352 0.929 . S
H323 C355 0.929 . S
H324 C356 0.930 . S
H325 C358 0.929 . S
H326 C359 0.931 . S
H327 C361 0.930 . S
H328 C362 0.932 . S
H329 C364 0.931 . S
H330 C365 0.929 . S
H331 C367 0.929 . S
H332 C368 0.931 . S
H333 C370 0.929 . S
N334 C354 1.433 . S
N334 C360 1.435 . S
N334 C366 1.423 . S
H335 C371 0.932 . S
C336 N311 1.433 . S
C336 C337 1.363 . S
C336 C341 1.370 . S
C337 H310 0.929 1_556 S
C337 C336 1.363 . S
C337 C338 1.385 . S
C338 H312 0.930 1_556 S
C338 C337 1.385 . S
C338 C339 1.357 . S
C339 C338 1.357 . S
C339 C340 1.406 . S
C340 H314 0.929 . S
C340 C339 1.406 . S
C340 C341 1.391 . S
C341 H313 0.931 . S
C341 C336 1.370 . S
C341 C340 1.391 . S
C342 N311 1.435 . S
C342 C343 1.358 . S
C342 C347 1.371 . S
C343 H315 0.930 . S
C343 C342 1.358 . S
C343 C344 1.405 . S
C344 H316 0.932 . S
C344 C343 1.405 . S
C344 C345 1.383 . S
C345 C344 1.383 . S
C345 C346 1.393 . S
C346 H318 0.931 . S
C346 C345 1.393 . S
C346 C347 1.382 . S
C347 H317 0.929 . S
C347 C342 1.371 . S
C347 C346 1.382 . S
C348 N311 1.423 . S
C348 C349 1.362 . S
C348 C353 1.388 . S
C349 H319 0.929 . S
C349 C348 1.362 . S
C349 C350 1.376 . S
C350 H321 0.931 . S
C350 C349 1.376 . S
C350 C351 1.396 . S
C351 C350 1.396 . S
C351 C352 1.348 . S
C351 C369 1.472 . S
C352 H322 0.929 . S
C352 C351 1.348 . S
C352 C353 1.443 . S
C353 H320 0.932 . S
C353 C348 1.388 . S
C353 C352 1.443 . S
C354 N334 1.433 . S
C354 C355 1.363 . S
C354 C359 1.370 . S
C355 H323 0.929 . S
C355 C354 1.363 . S
C355 C356 1.385 . S
C356 H324 0.930 . S
C356 C355 1.385 . S
C356 C357 1.357 . S
C357 C356 1.357 . S
C357 C358 1.406 . S
C358 H325 0.929 . S
C358 C357 1.406 . S
C358 C359 1.391 . S
C359 H326 0.931 . S
C359 C354 1.370 . S
C359 C358 1.391 . S
C360 N334 1.435 . S
C360 C361 1.358 . S
C360 C365 1.371 . S
C361 H327 0.930 . S
C361 C360 1.358 . S
C361 C362 1.405 . S
C362 H328 0.932 . S
C362 C361 1.405 . S
C362 C363 1.383 . S
C363 C362 1.383 . S
C363 C364 1.393 . S
C364 H329 0.931 . S
C364 C363 1.393 . S
C364 C365 1.382 . S
C365 H330 0.929 . S
C365 C360 1.371 . S
C365 C364 1.382 . S
C366 N334 1.423 . S
C366 C367 1.362 . S
C366 C371 1.388 . S
C367 H331 0.929 . S
C367 C366 1.362 . S
C367 C368 1.376 . S
C368 H332 0.931 . S
C368 C367 1.376 . S
C368 C369 1.396 . S
C369 C351 1.472 . S
C369 C368 1.396 . S
C369 C370 1.348 . S
C370 H333 0.929 . S
C370 C369 1.348 . S
C370 C371 1.443 . S
C371 H335 0.932 . S
C371 C366 1.388 . S
C371 C370 1.443 . S
H372 C399 0.929 . S
N373 C398 1.433 . S
N373 C404 1.435 . S
N373 C410 1.423 . S
H374 C400 0.930 . S
H375 C403 0.931 . S
H376 C402 0.929 . S
H377 C405 0.930 . S
H378 C406 0.932 . S
H379 C409 0.929 . S
H380 C408 0.931 . S
H381 C411 0.929 . S
H382 C415 0.932 . S
H383 C412 0.931 . S
H384 C414 0.929 . S
H385 C417 0.929 . S
H386 C418 0.930 . S
H387 C420 0.929 . S
H388 C421 0.931 . S
H389 C423 0.930 . S
H390 C424 0.932 . S
H391 C426 0.931 . S
H392 C427 0.929 . S
H393 C429 0.929 . S
H394 C430 0.931 . S
H395 C432 0.929 . S
N396 C416 1.433 . S
N396 C422 1.435 . S
N396 C428 1.423 . S
H397 C433 0.932 . S
C398 N373 1.433 . S
C398 C399 1.363 . S
C398 C403 1.370 . S
C399 H372 0.929 . S
C399 C398 1.363 . S
C399 C400 1.385 . S
C400 H374 0.930 . S
C400 C399 1.385 . S
C400 C401 1.357 . S
C401 C400 1.357 . S
C401 C402 1.406 . S
C402 H376 0.929 . S
C402 C401 1.406 . S
C402 C403 1.391 . S
C403 H375 0.931 . S
C403 C398 1.370 . S
C403 C402 1.391 . S
C404 N373 1.435 . S
C404 C405 1.358 . S
C404 C409 1.371 . S
C405 H377 0.930 . S
C405 C404 1.358 . S
C405 C406 1.405 . S
C406 H378 0.932 . S
C406 C405 1.405 . S
C406 C407 1.383 . S
C407 C406 1.383 . S
C407 C408 1.393 . S
C408 H380 0.931 . S
C408 C407 1.393 . S
C408 C409 1.382 . S
C409 H379 0.929 . S
C409 C404 1.371 . S
C409 C408 1.382 . S
C410 N373 1.423 . S
C410 C411 1.362 . S
C410 C415 1.388 . S
C411 H381 0.929 . S
C411 C410 1.362 . S
C411 C412 1.376 . S
C412 H383 0.931 . S
C412 C411 1.376 . S
C412 C413 1.396 . S
C413 C412 1.396 . S
C413 C414 1.348 . S
C413 C431 1.472 . S
C414 H384 0.929 . S
C414 C413 1.348 . S
C414 C415 1.443 . S
C415 H382 0.932 . S
C415 C410 1.388 . S
C415 C414 1.443 . S
C416 N396 1.433 . S
C416 C417 1.363 . S
C416 C421 1.370 . S
C417 H385 0.929 . S
C417 C416 1.363 . S
C417 C418 1.385 . S
C418 H386 0.930 . S
C418 C417 1.385 . S
C418 C419 1.357 . S
C419 C418 1.357 . S
C419 C420 1.406 . S
C420 H387 0.929 . S
C420 C419 1.406 . S
C420 C421 1.391 . S
C421 H388 0.931 . S
C421 C416 1.370 . S
C421 C420 1.391 . S
C422 N396 1.435 . S
C422 C423 1.358 . S
C422 C427 1.371 . S
C423 H389 0.930 . S
C423 C422 1.358 . S
C423 C424 1.405 . S
C424 H390 0.932 . S
C424 C423 1.405 . S
C424 C425 1.383 . S
C425 C424 1.383 . S
C425 C426 1.393 . S
C426 H391 0.931 . S
C426 C425 1.393 . S
C426 C427 1.382 . S
C427 H392 0.929 . S
C427 C422 1.371 . S
C427 C426 1.382 . S
C428 N396 1.423 . S
C428 C429 1.362 . S
C428 C433 1.388 . S
C429 H393 0.929 . S
C429 C428 1.362 . S
C429 C430 1.376 . S
C430 H394 0.931 . S
C430 C429 1.376 . S
C430 C431 1.396 . S
C431 C413 1.472 . S
C431 C430 1.396 . S
C431 C432 1.348 . S
C432 H395 0.929 . S
C432 C431 1.348 . S
C432 C433 1.443 . S
C433 H397 0.932 . S
C433 C428 1.388 . S
C433 C432 1.443 . S
H434 C461 0.929 . S
N435 C460 1.433 . S
N435 C466 1.435 . S
N435 C472 1.423 . S
H436 C462 0.930 . S
H437 C465 0.931 . S
H438 C464 0.929 . S
H439 C467 0.930 . S
H440 C468 0.932 . S
H441 C471 0.929 . S
H442 C470 0.931 . S
H443 C473 0.929 . S
H444 C477 0.932 . S
H445 C474 0.931 . S
H446 C476 0.929 . S
H447 C479 0.929 . S
H448 C480 0.930 . S
H449 C482 0.929 . S
H450 C483 0.931 . S
H451 C485 0.930 . S
H452 C486 0.932 . S
H453 C488 0.931 . S
H454 C489 0.929 . S
H455 C491 0.929 . S
H456 C492 0.931 . S
H457 C494 0.929 . S
N458 C478 1.433 . S
N458 C484 1.435 . S
N458 C490 1.423 . S
H459 C495 0.932 . S
C460 N435 1.433 . S
C460 C461 1.363 . S
C460 C465 1.370 . S
C461 H434 0.929 . S
C461 C460 1.363 . S
C461 C462 1.385 . S
C462 H436 0.930 . S
C462 C461 1.385 . S
C462 C463 1.357 . S
C463 C462 1.357 . S
C463 C464 1.406 . S
C464 H438 0.929 . S
C464 C463 1.406 . S
C464 C465 1.391 . S
C465 H437 0.931 . S
C465 C460 1.370 . S
C465 C464 1.391 . S
C466 N435 1.435 . S
C466 C467 1.358 . S
C466 C471 1.371 . S
C467 H439 0.930 . S
C467 C466 1.358 . S
C467 C468 1.405 . S
C468 H440 0.932 . S
C468 C467 1.405 . S
C468 C469 1.383 . S
C469 C468 1.383 . S
C469 C470 1.393 . S
C470 H442 0.931 . S
C470 C469 1.393 . S
C470 C471 1.382 . S
C471 H441 0.929 . S
C471 C466 1.371 . S
C471 C470 1.382 . S
C472 N435 1.423 . S
C472 C473 1.362 . S
C472 C477 1.388 . S
C473 H443 0.929 . S
C473 C472 1.362 . S
C473 C474 1.376 . S
C474 H445 0.931 . S
C474 C473 1.376 . S
C474 C475 1.396 . S
C475 C474 1.396 . S
C475 C476 1.348 . S
C475 C493 1.472 . S
C476 H446 0.929 . S
C476 C475 1.348 . S
C476 C477 1.443 . S
C477 H444 0.932 . S
C477 C472 1.388 . S
C477 C476 1.443 . S
C478 N458 1.433 . S
C478 C479 1.363 . S
C478 C483 1.370 . S
C479 H447 0.929 . S
C479 C478 1.363 . S
C479 C480 1.385 . S
C480 H448 0.930 . S
C480 C479 1.385 . S
C480 C481 1.357 . S
C481 C480 1.357 . S
C481 C482 1.406 . S
C482 H449 0.929 . S
C482 C481 1.406 . S
C482 C483 1.391 . S
C483 H450 0.931 . S
C483 C478 1.370 . S
C483 C482 1.391 . S
C484 N458 1.435 . S
C484 C485 1.358 . S
C484 C489 1.371 . S
C485 H451 0.930 . S
C485 C484 1.358 . S
C485 C486 1.405 . S
C486 H452 0.932 . S
C486 C485 1.405 . S
C486 C487 1.383 . S
C487 C486 1.383 . S
C487 C488 1.393 . S
C488 H453 0.931 . S
C488 C487 1.393 . S
C488 C489 1.382 . S
C489 H454 0.929 . S
C489 C484 1.371 . S
C489 C488 1.382 . S
C490 N458 1.423 . S
C490 C491 1.362 . S
C490 C495 1.388 . S
C491 H455 0.929 . S
C491 C490 1.362 . S
C491 C492 1.376 . S
C492 H456 0.931 . S
C492 C491 1.376 . S
C492 C493 1.396 . S
C493 C475 1.472 . S
C493 C492 1.396 . S
C493 C494 1.348 . S
C494 H457 0.929 . S
C494 C493 1.348 . S
C494 C495 1.443 . S
C495 H459 0.932 . S
C495 C490 1.388 . S
C495 C494 1.443 . S
C496 C497 1.443 . S
C496 N500 1.376 . S
C496 C534 1.389 . S
C497 C496 1.443 . S
C497 C498 1.340 . S
C497 H537 0.951 . S
C498 C497 1.340 . S
C498 C499 1.439 . S
C498 H538 0.950 . S
C499 C498 1.439 . S
C499 N500 1.374 . S
C499 C533 1.395 . S
N500 C496 1.376 . S
N500 C499 1.374 . S
N500 Co501 2.008 . S
Co501 N500 2.008 . S
Co501 N502 1.995 1_455 S
Co501 N507 2.008 1_455 S
Co501 N512 1.995 . S
Co501 N517 2.282 1_455 S
Co501 N523 2.282 . S
N502 Co501 1.995 1_655 S
N502 C503 1.376 . S
N502 C506 1.383 . S
C503 N502 1.376 . S
C503 C504 1.446 . S
C503 C533 1.391 1_655 S
C504 C503 1.446 . S
C504 C505 1.339 . S
C504 H539 0.949 . S
C505 C504 1.339 . S
C505 C506 1.439 . S
C505 H540 0.950 . S
C506 N502 1.383 . S
C506 C505 1.439 . S
C506 C535 1.392 . S
N507 Co501 2.008 1_655 S
N507 C508 1.376 . S
N507 C511 1.374 . S
C508 N507 1.376 . S
C508 C509 1.443 . S
C508 C535 1.389 . S
C509 C508 1.443 . S
C509 C510 1.340 . S
C509 H541 0.951 . S
C510 C509 1.340 . S
C510 C511 1.439 . S
C510 H542 0.950 . S
C511 N507 1.374 . S
C511 C510 1.439 . S
C511 C536 1.395 1_655 S
N512 Co501 1.995 . S
N512 C513 1.376 . S
N512 C516 1.383 . S
C513 N512 1.376 . S
C513 C514 1.446 . S
C513 C536 1.391 . S
C514 C513 1.446 . S
C514 C515 1.339 . S
C514 H543 0.949 . S
C515 C514 1.339 . S
C515 C516 1.439 . S
C515 H544 0.950 . S
C516 N512 1.383 . S
C516 C515 1.439 . S
C516 C534 1.392 . S
N517 Co501 2.282 1_655 S
N517 C520 1.332 . S
N517 C522 1.332 . S
C518 C519 1.386 . S
C518 C521 1.388 . S
C519 C518 1.386 . S
C519 C520 1.382 . S
C519 H545 0.950 . S
C520 N517 1.332 . S
C520 C519 1.382 . S
C520 H531 0.952 . S
C521 C518 1.388 . S
C521 C522 1.382 . S
C521 H546 0.950 . S
C522 N517 1.332 . S
C522 C521 1.382 . S
C522 H532 0.948 . S
N523 Co501 2.282 . S
N523 C527 1.332 . S
N523 C528 1.332 . S
C524 C525 1.388 . S
C524 C528 1.382 . S
C524 H547 0.950 . S
C525 C524 1.388 . S
C525 C526 1.386 . S
C526 C525 1.386 . S
C526 C527 1.382 . S
C526 H548 0.950 . S
C527 N523 1.332 . S
C527 C526 1.382 . S
C527 H529 0.952 . S
C528 N523 1.332 . S
C528 C524 1.382 . S
C528 H530 0.948 . S
H529 C527 0.952 . S
H530 C528 0.948 . S
H531 C520 0.952 . S
H532 C522 0.948 . S
C533 C499 1.395 . S
C533 C503 1.391 1_455 S
C534 C496 1.389 . S
C534 C516 1.392 . S
C535 C506 1.392 . S
C535 C508 1.389 . S
C536 C511 1.395 1_455 S
C536 C513 1.391 . S
H537 C497 0.951 . S
H538 C498 0.950 . S
H539 C504 0.949 . S
H540 C505 0.950 . S
H541 C509 0.951 . S
H542 C510 0.950 . S
H543 C514 0.949 . S
H544 C515 0.950 . S
H545 C519 0.950 . S
H546 C521 0.950 . S
H547 C524 0.950 . S
H548 C526 0.950 . S
C549 C550 1.443 . S
C549 N553 1.376 . S
C549 C587 1.389 . S
C550 C549 1.443 . S
C550 C551 1.340 . S
C550 H590 0.951 . S
C551 C550 1.340 . S
C551 C552 1.439 . S
C551 H591 0.950 . S
C552 C551 1.439 . S
C552 N553 1.374 . S
C552 C586 1.395 . S
N553 C549 1.376 . S
N553 C552 1.374 . S
N553 Co554 2.008 . S
Co554 N553 2.008 . S
Co554 N555 1.995 1_545 S
Co554 N560 2.008 1_545 S
Co554 N565 1.995 . S
Co554 N570 2.282 1_545 S
Co554 N576 2.282 . S
N555 Co554 1.995 1_565 S
N555 C556 1.376 . S
N555 C559 1.383 . S
C556 N555 1.376 . S
C556 C557 1.446 . S
C556 C586 1.391 1_565 S
C557 C556 1.446 . S
C557 C558 1.339 . S
C557 H592 0.949 . S
C558 C557 1.339 . S
C558 C559 1.439 . S
C558 H593 0.950 . S
C559 N555 1.383 . S
C559 C558 1.439 . S
C559 C588 1.392 . S
N560 Co554 2.008 1_565 S
N560 C561 1.376 . S
N560 C564 1.374 . S
C561 N560 1.376 . S
C561 C562 1.443 . S
C561 C588 1.389 . S
C562 C561 1.443 . S
C562 C563 1.340 . S
C562 H594 0.951 . S
C563 C562 1.340 . S
C563 C564 1.439 . S
C563 H595 0.950 . S
C564 N560 1.374 . S
C564 C563 1.439 . S
C564 C589 1.395 1_565 S
N565 Co554 1.995 . S
N565 C566 1.376 . S
N565 C569 1.383 . S
C566 N565 1.376 . S
C566 C567 1.446 . S
C566 C589 1.391 . S
C567 C566 1.446 . S
C567 C568 1.339 . S
C567 H596 0.949 . S
C568 C567 1.339 . S
C568 C569 1.439 . S
C568 H597 0.950 . S
C569 N565 1.383 . S
C569 C568 1.439 . S
C569 C587 1.392 . S
N570 Co554 2.282 1_565 S
N570 C573 1.332 . S
N570 C575 1.332 . S
C571 C572 1.386 . S
C571 C574 1.388 . S
C572 C571 1.386 . S
C572 C573 1.382 . S
C572 H598 0.950 . S
C573 N570 1.332 . S
C573 C572 1.382 . S
C573 H584 0.952 . S
C574 C571 1.388 . S
C574 C575 1.382 . S
C574 H599 0.950 . S
C575 N570 1.332 . S
C575 C574 1.382 . S
C575 H585 0.948 . S
N576 Co554 2.282 . S
N576 C580 1.332 . S
N576 C581 1.332 . S
C577 C578 1.388 . S
C577 C581 1.382 . S
C577 H600 0.950 . S
C578 C577 1.388 . S
C578 C579 1.386 . S
C579 C578 1.386 . S
C579 C580 1.382 . S
C579 H601 0.950 . S
C580 N576 1.332 . S
C580 C579 1.382 . S
C580 H582 0.952 . S
C581 N576 1.332 . S
C581 C577 1.382 . S
C581 H583 0.948 . S
H582 C580 0.952 . S
H583 C581 0.948 . S
H584 C573 0.952 . S
H585 C575 0.948 . S
C586 C552 1.395 . S
C586 C556 1.391 1_545 S
C587 C549 1.389 . S
C587 C569 1.392 . S
C588 C559 1.392 . S
C588 C561 1.389 . S
C589 C564 1.395 1_545 S
C589 C566 1.391 . S
H590 C550 0.951 . S
H591 C551 0.950 . S
H592 C557 0.949 . S
H593 C558 0.950 . S
H594 C562 0.951 . S
H595 C563 0.950 . S
H596 C567 0.949 . S
H597 C568 0.950 . S
H598 C572 0.950 . S
H599 C574 0.950 . S
H600 C577 0.950 . S
H601 C579 0.950 . S
C602 C603 1.443 . S
C602 N606 1.376 . S
C602 C640 1.389 . S
C603 C602 1.443 . S
C603 C604 1.340 . S
C603 H643 0.951 . S
C604 C603 1.340 . S
C604 C605 1.439 . S
C604 H644 0.950 . S
C605 C604 1.439 . S
C605 N606 1.374 . S
C605 C639 1.395 . S
N606 C602 1.376 . S
N606 C605 1.374 . S
N606 Co607 2.008 . S
Co607 N606 2.008 . S
Co607 N608 1.995 1_455 S
Co607 N613 2.008 1_455 S
Co607 N618 1.995 . S
Co607 N623 2.282 1_455 S
Co607 N629 2.282 . S
N608 Co607 1.995 1_655 S
N608 C609 1.376 . S
N608 C612 1.383 . S
C609 N608 1.376 . S
C609 C610 1.446 . S
C609 C639 1.391 1_655 S
C610 C609 1.446 . S
C610 C611 1.339 . S
C610 H645 0.949 . S
C611 C610 1.339 . S
C611 C612 1.439 . S
C611 H646 0.950 . S
C612 N608 1.383 . S
C612 C611 1.439 . S
C612 C641 1.392 . S
N613 Co607 2.008 1_655 S
N613 C614 1.376 . S
N613 C617 1.374 . S
C614 N613 1.376 . S
C614 C615 1.443 . S
C614 C641 1.389 . S
C615 C614 1.443 . S
C615 C616 1.340 . S
C615 H647 0.951 . S
C616 C615 1.340 . S
C616 C617 1.439 . S
C616 H648 0.950 . S
C617 N613 1.374 . S
C617 C616 1.439 . S
C617 C642 1.395 1_655 S
N618 Co607 1.995 . S
N618 C619 1.376 . S
N618 C622 1.383 . S
C619 N618 1.376 . S
C619 C620 1.446 . S
C619 C642 1.391 . S
C620 C619 1.446 . S
C620 C621 1.339 . S
C620 H649 0.949 . S
C621 C620 1.339 . S
C621 C622 1.439 . S
C621 H650 0.950 . S
C622 N618 1.383 . S
C622 C621 1.439 . S
C622 C640 1.392 . S
N623 Co607 2.282 1_655 S
N623 C626 1.332 . S
N623 C628 1.332 . S
C624 C625 1.386 . S
C624 C627 1.388 . S
C625 C624 1.386 . S
C625 C626 1.382 . S
C625 H651 0.950 . S
C626 N623 1.332 . S
C626 C625 1.382 . S
C626 H637 0.952 . S
C627 C624 1.388 . S
C627 C628 1.382 . S
C627 H652 0.950 . S
C628 N623 1.332 . S
C628 C627 1.382 . S
C628 H638 0.948 . S
N629 Co607 2.282 . S
N629 C633 1.332 . S
N629 C634 1.332 . S
C630 C631 1.388 . S
C630 C634 1.382 . S
C630 H653 0.950 . S
C631 C630 1.388 . S
C631 C632 1.386 . S
C632 C631 1.386 . S
C632 C633 1.382 . S
C632 H654 0.950 . S
C633 N629 1.332 . S
C633 C632 1.382 . S
C633 H635 0.952 . S
C634 N629 1.332 . S
C634 C630 1.382 . S
C634 H636 0.948 . S
H635 C633 0.952 . S
H636 C634 0.948 . S
H637 C626 0.952 . S
H638 C628 0.948 . S
C639 C605 1.395 . S
C639 C609 1.391 1_455 S
C640 C602 1.389 . S
C640 C622 1.392 . S
C641 C612 1.392 . S
C641 C614 1.389 . S
C642 C617 1.395 1_455 S
C642 C619 1.391 . S
H643 C603 0.951 . S
H644 C604 0.950 . S
H645 C610 0.949 . S
H646 C611 0.950 . S
H647 C615 0.951 . S
H648 C616 0.950 . S
H649 C620 0.949 . S
H650 C621 0.950 . S
H651 C625 0.950 . S
H652 C627 0.950 . S
H653 C630 0.950 . S
H654 C632 0.950 . S
C655 C656 1.443 . S
C655 N659 1.376 . S
C655 C693 1.389 . S
C656 C655 1.443 . S
C656 C657 1.340 . S
C656 H696 0.951 . S
C657 C656 1.340 . S
C657 C658 1.439 . S
C657 H697 0.950 . S
C658 C657 1.439 . S
C658 N659 1.374 . S
C658 C692 1.395 1_565 S
N659 C655 1.376 . S
N659 C658 1.374 . S
N659 Co660 2.008 1_565 S
Co660 N659 2.008 1_545 S
Co660 N661 1.995 . S
Co660 N666 2.008 . S
Co660 N671 1.995 1_545 S
Co660 N676 2.282 . S
Co660 N682 2.282 1_545 S
N661 Co660 1.995 . S
N661 C662 1.376 . S
N661 C665 1.383 . S
C662 N661 1.376 . S
C662 C663 1.446 . S
C662 C692 1.391 . S
C663 C662 1.446 . S
C663 C664 1.339 . S
C663 H698 0.949 . S
C664 C663 1.339 . S
C664 C665 1.439 . S
C664 H699 0.950 . S
C665 N661 1.383 . S
C665 C664 1.439 . S
C665 C694 1.392 . S
N666 Co660 2.008 . S
N666 C667 1.376 . S
N666 C670 1.374 . S
C667 N666 1.376 . S
C667 C668 1.443 . S
C667 C694 1.389 . S
C668 C667 1.443 . S
C668 C669 1.340 . S
C668 H700 0.951 . S
C669 C668 1.340 . S
C669 C670 1.439 . S
C669 H701 0.950 . S
C670 N666 1.374 . S
C670 C669 1.439 . S
C670 C695 1.395 . S
N671 Co660 1.995 1_565 S
N671 C672 1.376 . S
N671 C675 1.383 . S
C672 N671 1.376 . S
C672 C673 1.446 . S
C672 C695 1.391 1_565 S
C673 C672 1.446 . S
C673 C674 1.339 . S
C673 H702 0.949 . S
C674 C673 1.339 . S
C674 C675 1.439 . S
C674 H703 0.950 . S
C675 N671 1.383 . S
C675 C674 1.439 . S
C675 C693 1.392 . S
N676 Co660 2.282 . S
N676 C679 1.332 . S
N676 C681 1.332 . S
C677 C678 1.386 . S
C677 C680 1.388 . S
C678 C677 1.386 . S
C678 C679 1.382 . S
C678 H704 0.950 . S
C679 N676 1.332 . S
C679 C678 1.382 . S
C679 H690 0.952 . S
C680 C677 1.388 . S
C680 C681 1.382 . S
C680 H705 0.950 . S
C681 N676 1.332 . S
C681 C680 1.382 . S
C681 H691 0.948 . S
N682 Co660 2.282 1_565 S
N682 C686 1.332 . S
N682 C687 1.332 . S
C683 C684 1.388 . S
C683 C687 1.382 . S
C683 H706 0.950 . S
C684 C683 1.388 . S
C684 C685 1.386 . S
C685 C684 1.386 . S
C685 C686 1.382 . S
C685 H707 0.950 . S
C686 N682 1.332 . S
C686 C685 1.382 . S
C686 H688 0.952 . S
C687 N682 1.332 . S
C687 C683 1.382 . S
C687 H689 0.948 . S
H688 C686 0.952 . S
H689 C687 0.948 . S
H690 C679 0.952 . S
H691 C681 0.948 . S
C692 C658 1.395 1_545 S
C692 C662 1.391 . S
C693 C655 1.389 . S
C693 C675 1.392 . S
C694 C665 1.392 . S
C694 C667 1.389 . S
C695 C670 1.395 . S
C695 C672 1.391 1_545 S
H696 C656 0.951 . S
H697 C657 0.950 . S
H698 C663 0.949 . S
H699 C664 0.950 . S
H700 C668 0.951 . S
H701 C669 0.950 . S
H702 C673 0.949 . S
H703 C674 0.950 . S
H704 C678 0.950 . S
H705 C680 0.950 . S
H706 C683 0.950 . S
H707 C685 0.950 . S
C708 C709 1.443 . S
C708 N712 1.376 . S
C708 C746 1.389 . S
C709 C708 1.443 . S
C709 C710 1.340 . S
C709 H749 0.951 . S
C710 C709 1.340 . S
C710 C711 1.439 . S
C710 H750 0.950 . S
C711 C710 1.439 . S
C711 N712 1.374 . S
C711 C745 1.395 . S
N712 C708 1.376 . S
N712 C711 1.374 . S
N712 Co713 2.009 . S
Co713 N712 2.009 . S
Co713 N714 1.994 1_554 S
Co713 N719 2.008 1_554 S
Co713 N724 1.995 . S
Co713 N729 2.283 . S
Co713 N735 2.282 1_554 S
N714 Co713 1.994 1_556 S
N714 C715 1.376 . S
N714 C718 1.383 . S
C715 N714 1.376 . S
C715 C716 1.446 . S
C715 C745 1.391 1_556 S
C716 C715 1.446 . S
C716 C717 1.339 . S
C716 H751 0.949 . S
C717 C716 1.339 . S
C717 C718 1.439 . S
C717 H752 0.950 . S
C718 N714 1.383 . S
C718 C717 1.439 . S
C718 C747 1.392 . S
N719 Co713 2.008 1_556 S
N719 C720 1.376 . S
N719 C723 1.374 . S
C720 N719 1.376 . S
C720 C721 1.443 . S
C720 C747 1.389 . S
C721 C720 1.443 . S
C721 C722 1.340 . S
C721 H753 0.951 . S
C722 C721 1.340 . S
C722 C723 1.439 . S
C722 H754 0.950 . S
C723 N719 1.374 . S
C723 C722 1.439 . S
C723 C748 1.395 . S
N724 Co713 1.995 . S
N724 C725 1.376 . S
N724 C728 1.383 . S
C725 N724 1.376 . S
C725 C726 1.446 . S
C725 C748 1.391 1_554 S
C726 C725 1.446 . S
C726 C727 1.339 . S
C726 H755 0.949 . S
C727 C726 1.339 . S
C727 C728 1.439 . S
C727 H756 0.950 . S
C728 N724 1.383 . S
C728 C727 1.439 . S
C728 C746 1.392 . S
N729 Co713 2.283 . S
N729 C732 1.332 . S
N729 C734 1.332 . S
C730 C731 1.386 . S
C730 C733 1.388 . S
C731 C730 1.386 . S
C731 C732 1.382 . S
C731 H757 0.950 . S
C732 N729 1.332 . S
C732 C731 1.382 . S
C732 H743 0.952 . S
C733 C730 1.388 . S
C733 C734 1.382 . S
C733 H758 0.950 . S
C734 N729 1.332 . S
C734 C733 1.382 . S
C734 H744 0.948 . S
N735 Co713 2.282 1_556 S
N735 C739 1.332 . S
N735 C740 1.332 . S
C736 C737 1.388 . S
C736 C740 1.382 . S
C736 H759 0.950 . S
C737 C736 1.388 . S
C737 C738 1.386 . S
C738 C737 1.386 . S
C738 C739 1.382 . S
C738 H760 0.950 . S
C739 N735 1.332 . S
C739 C738 1.382 . S
C739 H741 0.952 . S
C740 N735 1.332 . S
C740 C736 1.382 . S
C740 H742 0.948 . S
H741 C739 0.952 . S
H742 C740 0.948 . S
H743 C732 0.952 . S
H744 C734 0.948 . S
C745 C711 1.395 . S
C745 C715 1.391 1_554 S
C746 C708 1.389 . S
C746 C728 1.392 . S
C747 C718 1.392 . S
C747 C720 1.389 . S
C748 C723 1.395 . S
C748 C725 1.391 1_556 S
H749 C709 0.951 . S
H750 C710 0.950 . S
H751 C716 0.949 . S
H752 C717 0.950 . S
H753 C721 0.951 . S
H754 C722 0.950 . S
H755 C726 0.949 . S
H756 C727 0.950 . S
H757 C731 0.950 . S
H758 C733 0.950 . S
H759 C736 0.950 . S
H760 C738 0.950 . S
C761 C762 1.443 . S
C761 N765 1.376 . S
C761 C799 1.389 . S
C762 C761 1.443 . S
C762 C763 1.340 . S
C762 H802 0.951 . S
C763 C762 1.340 . S
C763 C764 1.439 . S
C763 H803 0.950 . S
C764 C763 1.439 . S
C764 N765 1.374 . S
C764 C798 1.395 . S
N765 C761 1.376 . S
N765 C764 1.374 . S
N765 Co766 2.008 . S
Co766 N765 2.008 . S
Co766 N767 1.995 . S
Co766 N772 2.008 . S
Co766 N777 1.995 . S
Co766 N782 2.282 . S
Co766 N788 2.282 . S
N767 Co766 1.995 . S
N767 C768 1.376 . S
N767 C771 1.383 1_554 S
C768 N767 1.376 . S
C768 C769 1.446 1_554 S
C768 C798 1.391 . S
C769 C768 1.446 1_556 S
C769 C770 1.339 . S
C769 H804 0.949 . S
C770 C769 1.339 . S
C770 C771 1.439 . S
C770 H805 0.950 . S
C771 N767 1.383 1_556 S
C771 C770 1.439 . S
C771 C800 1.392 . S
N772 Co766 2.008 . S
N772 C773 1.376 . S
N772 C776 1.374 . S
C773 N772 1.376 . S
C773 C774 1.443 . S
C773 C800 1.389 1_554 S
C774 C773 1.443 . S
C774 C775 1.340 . S
C774 H806 0.951 1_554 S
C775 C774 1.340 . S
C775 C776 1.439 . S
C775 H807 0.950 . S
C776 N772 1.374 . S
C776 C775 1.439 . S
C776 C801 1.395 . S
N777 Co766 1.995 . S
N777 C778 1.376 . S
N777 C781 1.383 . S
C778 N777 1.376 . S
C778 C779 1.446 . S
C778 C801 1.391 . S
C779 C778 1.446 . S
C779 C780 1.339 . S
C779 H808 0.949 . S
C780 C779 1.339 . S
C780 C781 1.439 . S
C780 H809 0.950 . S
C781 N777 1.383 . S
C781 C780 1.439 . S
C781 C799 1.392 . S
N782 Co766 2.282 . S
N782 C785 1.332 . S
N782 C787 1.332 . S
C783 C784 1.386 . S
C783 C786 1.388 . S
C784 C783 1.386 . S
C784 C785 1.382 . S
C784 H810 0.950 . S
C785 N782 1.332 . S
C785 C784 1.382 . S
C785 H796 0.952 . S
C786 C783 1.388 . S
C786 C787 1.382 . S
C786 H811 0.950 . S
C787 N782 1.332 . S
C787 C786 1.382 . S
C787 H797 0.948 . S
N788 Co766 2.282 . S
N788 C792 1.332 1_554 S
N788 C793 1.332 . S
C789 C790 1.388 . S
C789 C793 1.382 1_556 S
C789 H812 0.950 . S
C790 C789 1.388 . S
C790 C791 1.386 . S
C791 C790 1.386 . S
C791 C792 1.382 . S
C791 H813 0.950 . S
C792 N788 1.332 1_556 S
C792 C791 1.382 . S
C792 H794 0.952 . S
C793 N788 1.332 . S
C793 C789 1.382 1_554 S
C793 H795 0.948 . S
H794 C792 0.952 . S
H795 C793 0.948 . S
H796 C785 0.952 . S
H797 C787 0.948 . S
C798 C764 1.395 . S
C798 C768 1.391 . S
C799 C761 1.389 . S
C799 C781 1.392 . S
C800 C771 1.392 . S
C800 C773 1.389 1_556 S
C801 C776 1.395 . S
C801 C778 1.391 . S
H802 C762 0.951 . S
H803 C763 0.950 . S
H804 C769 0.949 . S
H805 C770 0.950 . S
H806 C774 0.951 1_556 S
H807 C775 0.950 . S
H808 C779 0.949 . S
H809 C780 0.950 . S
H810 C784 0.950 . S
H811 C786 0.950 . S
H812 C789 0.950 . S
H813 C791 0.950 . S
C814 C815 1.443 . S
C814 N818 1.376 1_556 S
C814 C852 1.389 . S
C815 C814 1.443 . S
C815 C816 1.340 1_556 S
C815 H855 0.951 . S
C816 C815 1.340 1_554 S
C816 C817 1.439 . S
C816 H856 0.950 . S
C817 C816 1.439 . S
C817 N818 1.374 . S
C817 C851 1.395 . S
N818 C814 1.376 1_554 S
N818 C817 1.374 . S
N818 Co819 2.008 . S
Co819 N818 2.008 . S
Co819 N820 1.995 . S
Co819 N825 2.008 . S
Co819 N830 1.995 . S
Co819 N835 2.282 1_554 S
Co819 N841 2.282 . S
N820 Co819 1.995 . S
N820 C821 1.376 . S
N820 C824 1.383 . S
C821 N820 1.376 . S
C821 C822 1.446 . S
C821 C851 1.391 . S
C822 C821 1.446 . S
C822 C823 1.339 . S
C822 H857 0.949 . S
C823 C822 1.339 . S
C823 C824 1.439 . S
C823 H858 0.950 . S
C824 N820 1.383 . S
C824 C823 1.439 . S
C824 C853 1.392 . S
N825 Co819 2.008 . S
N825 C826 1.376 . S
N825 C829 1.374 . S
C826 N825 1.376 . S
C826 C827 1.443 . S
C826 C853 1.389 . S
C827 C826 1.443 . S
C827 C828 1.340 . S
C827 H859 0.951 . S
C828 C827 1.340 . S
C828 C829 1.439 . S
C828 H860 0.950 . S
C829 N825 1.374 . S
C829 C828 1.439 . S
C829 C854 1.395 . S
N830 Co819 1.995 . S
N830 C831 1.376 . S
N830 C834 1.383 1_554 S
C831 N830 1.376 . S
C831 C832 1.446 1_554 S
C831 C854 1.391 . S
C832 C831 1.446 1_556 S
C832 C833 1.339 . S
C832 H861 0.949 . S
C833 C832 1.339 . S
C833 C834 1.439 . S
C833 H862 0.950 . S
C834 N830 1.383 1_556 S
C834 C833 1.439 . S
C834 C852 1.392 . S
N835 Co819 2.282 1_556 S
N835 C838 1.332 . S
N835 C840 1.332 . S
C836 C837 1.386 . S
C836 C839 1.388 . S
C837 C836 1.386 . S
C837 C838 1.382 . S
C837 H863 0.950 . S
C838 N835 1.332 . S
C838 C837 1.382 . S
C838 H849 0.952 . S
C839 C836 1.388 . S
C839 C840 1.382 . S
C839 H864 0.950 . S
C840 N835 1.332 . S
C840 C839 1.382 . S
C840 H850 0.948 1_556 S
N841 Co819 2.282 . S
N841 C845 1.332 . S
N841 C846 1.332 . S
C842 C843 1.388 . S
C842 C846 1.382 . S
C842 H865 0.950 . S
C843 C842 1.388 . S
C843 C844 1.386 . S
C844 C843 1.386 . S
C844 C845 1.382 . S
C844 H866 0.950 . S
C845 N841 1.332 . S
C845 C844 1.382 . S
C845 H847 0.952 . S
C846 N841 1.332 . S
C846 C842 1.382 . S
C846 H848 0.948 . S
H847 C845 0.952 . S
H848 C846 0.948 . S
H849 C838 0.952 . S
H850 C840 0.948 1_554 S
C851 C817 1.395 . S
C851 C821 1.391 . S
C852 C814 1.389 . S
C852 C834 1.392 . S
C853 C824 1.392 . S
C853 C826 1.389 . S
C854 C829 1.395 . S
C854 C831 1.391 . S
H855 C815 0.951 . S
H856 C816 0.950 . S
H857 C822 0.949 . S
H858 C823 0.950 . S
H859 C827 0.951 . S
H860 C828 0.950 . S
H861 C832 0.949 . S
H862 C833 0.950 . S
H863 C837 0.950 . S
H864 C839 0.950 . S
H865 C842 0.950 . S
H866 C844 0.950 . S
C867 C868 1.443 . S
C867 N871 1.376 . S
C867 C905 1.389 . S
C868 C867 1.443 . S
C868 C869 1.340 . S
C868 H908 0.951 . S
C869 C868 1.340 . S
C869 C870 1.439 . S
C869 H909 0.950 . S
C870 C869 1.439 . S
C870 N871 1.374 . S
C870 C904 1.395 . S
N871 C867 1.376 . S
N871 C870 1.374 . S
N871 Co872 2.008 . S
Co872 N871 2.008 . S
Co872 N873 1.984 1_554 S
Co872 N878 2.008 . S
Co872 N883 1.995 . S
Co872 N888 2.282 . S
Co872 N894 2.282 1_554 S
N873 Co872 1.984 1_556 S
N873 C874 1.376 . S
N873 C877 1.395 . S
C874 N873 1.376 . S
C874 C875 1.446 . S
C874 C904 1.391 1_556 S
C875 C874 1.446 . S
C875 C876 1.339 . S
C875 H910 0.949 . S
C876 C875 1.339 . S
C876 C877 1.439 . S
C876 H911 0.950 . S
C877 N873 1.395 . S
C877 C876 1.439 . S
C877 C906 1.392 . S
N878 Co872 2.008 . S
N878 C879 1.376 1_554 S
N878 C882 1.374 . S
C879 N878 1.376 1_556 S
C879 C880 1.443 . S
C879 C906 1.389 . S
C880 C879 1.443 . S
C880 C881 1.340 1_556 S
C880 H912 0.951 . S
C881 C880 1.340 1_554 S
C881 C882 1.439 . S
C881 H913 0.950 . S
C882 N878 1.374 . S
C882 C881 1.439 . S
C882 C907 1.395 . S
N883 Co872 1.995 . S
N883 C884 1.376 . S
N883 C887 1.383 . S
C884 N883 1.376 . S
C884 C885 1.446 . S
C884 C907 1.391 . S
C885 C884 1.446 . S
C885 C886 1.339 . S
C885 H914 0.949 . S
C886 C885 1.339 . S
C886 C887 1.439 . S
C886 H915 0.950 . S
C887 N883 1.383 . S
C887 C886 1.439 . S
C887 C905 1.392 . S
N888 Co872 2.282 . S
N888 C891 1.332 . S
N888 C893 1.332 . S
C889 C890 1.386 . S
C889 C892 1.388 . S
C890 C889 1.386 . S
C890 C891 1.382 . S
C890 H916 0.950 . S
C891 N888 1.332 . S
C891 C890 1.382 . S
C891 H902 0.952 . S
C892 C889 1.388 . S
C892 C893 1.382 . S
C892 H917 0.950 . S
C893 N888 1.332 . S
C893 C892 1.382 . S
C893 H903 0.948 . S
N894 Co872 2.282 1_556 S
N894 C898 1.332 . S
N894 C899 1.332 . S
C895 C896 1.388 . S
C895 C899 1.382 . S
C895 H918 0.950 . S
C896 C895 1.388 . S
C896 C897 1.386 . S
C897 C896 1.386 . S
C897 C898 1.382 . S
C897 H919 0.950 . S
C898 N894 1.332 . S
C898 C897 1.382 . S
C898 H900 0.952 . S
C899 N894 1.332 . S
C899 C895 1.382 . S
C899 H901 0.948 1_556 S
H900 C898 0.952 . S
H901 C899 0.948 1_554 S
H902 C891 0.952 . S
H903 C893 0.948 . S
C904 C870 1.395 . S
C904 C874 1.391 1_554 S
C905 C867 1.389 . S
C905 C887 1.392 . S
C906 C877 1.392 . S
C906 C879 1.389 . S
C907 C882 1.395 . S
C907 C884 1.391 . S
H908 C868 0.951 . S
H909 C869 0.950 . S
H910 C875 0.949 . S
H911 C876 0.950 . S
H912 C880 0.951 . S
H913 C881 0.950 . S
H914 C885 0.949 . S
H915 C886 0.950 . S
H916 C890 0.950 . S
H917 C892 0.950 . S
H918 C895 0.950 . S
H919 C897 0.950 . S
C525 C47 1.473 . S
C578 C115 1.246 . S
C641 C153 1.649 . S
C684 C233 1.354 . S
C283 C640 1.610 . S
C677 C357 1.190 . S
C518 C401 1.526 . S
C571 C463 1.685 . S
C624 C469 1.399 . S
C693 C277 1.983 . S
C534 C363 1.879 . S
C587 C407 1.850 . S
C535 C109 1.450 . S
C588 C159 1.826 . S
C631 C239 1.416 . S
C694 C53 2.075 . S
C737 C481 1.404 . S
C301 C790 1.782 . S
C339 C852 1.648 . S
C419 C906 1.961 . S
C97 C853 1.531 . S
C171 C905 2.098 . S
C215 C730 1.551 . S
C783 C29 1.952 . S
C843 C35 1.337 . S
C91 C889 1.064 . S
C177 C746 2.041 . S
C221 C799 1.610 . S
C747 C295 1.428 . S
C800 C345 1.202 . S
C425 C836 1.453 . S
C896 C487 1.371 . S
