# Generated by pormake.
# Topology rtl, (3,6)-cn, num edge types: 1
# Building blocks:
#     Node 0, Type 0, BuildingBlock: BETDIP_clean_linker_0, # of connection points: 3
#     Node 1, Type 0, BuildingBlock: BETDIP_clean_linker_0, # of connection points: 3
#     Node 2, Type 0, BuildingBlock: BETDIP_clean_linker_0, # of connection points: 3
#     Node 3, Type 0, BuildingBlock: BETDIP_clean_linker_0, # of connection points: 3
#     Node 4, Type 1, BuildingBlock: KUMJIN_clean_sbu_1, # of connection points: 6
#     Node 5, Type 1, BuildingBlock: KUMJIN_clean_sbu_1, # of connection points: 6
#     Edge 6, Type (0, 1), BuildingBlock: MIFKUJ_clean_linker_0, # of connection points: 2
#     Edge 7, Type (0, 1), BuildingBlock: MIFKUJ_clean_linker_0, # of connection points: 2
#     Edge 8, Type (0, 1), BuildingBlock: MIFKUJ_clean_linker_0, # of connection points: 2
#     Edge 9, Type (0, 1), BuildingBlock: MIFKUJ_clean_linker_0, # of connection points: 2
#     Edge 10, Type (0, 1), BuildingBlock: MIFKUJ_clean_linker_0, # of connection points: 2
#     Edge 11, Type (0, 1), BuildingBlock: MIFKUJ_clean_linker_0, # of connection points: 2
#     Edge 12, Type (0, 1), BuildingBlock: MIFKUJ_clean_linker_0, # of connection points: 2
#     Edge 13, Type (0, 1), BuildingBlock: MIFKUJ_clean_linker_0, # of connection points: 2
#     Edge 14, Type (0, 1), BuildingBlock: MIFKUJ_clean_linker_0, # of connection points: 2
#     Edge 15, Type (0, 1), BuildingBlock: MIFKUJ_clean_linker_0, # of connection points: 2
#     Edge 16, Type (0, 1), BuildingBlock: MIFKUJ_clean_linker_0, # of connection points: 2
#     Edge 17, Type (0, 1), BuildingBlock: MIFKUJ_clean_linker_0, # of connection points: 2
# Relax obj value: 0.051
# Max RMSD: 0.207
# Mean RMSD: 0.154
data_MOF--net-rtl--node1-KUMJIN_clean_sbu_1--node2-BETDIP_clean_linker_0--edge1-MIFKUJ_clean_linker_0
_symmetry_space_group_name_H-M    P1
_symmetry_Int_Tables_number       1
_symmetry_cell_setting            triclinic
loop_
_symmetry_equiv_pos_as_xyz
'x, y, z'
_cell_length_a     45.90276
_cell_length_b     45.826885
_cell_length_c     34.278149
_cell_angle_alpha  80.869554
_cell_angle_beta   100.16891
_cell_angle_gamma 90.781258
loop_
_atom_site_label
_atom_site_type_symbol
_atom_site_fract_x
_atom_site_fract_y
_atom_site_fract_z
_atom_type_partial_charge
H0 H 0.21413 0.81897 0.95556 0.0
H1 H 0.2215 0.80533 0.08393 0.0
H2 H 0.15658 0.86689 0.0101 0.0
H3 H 0.27059 0.79192 0.07891 0.0
C4 C 0.2664 0.77959 0.05397 0.0
C5 C 0.20698 0.82437 0.9821 0.0
C6 C 0.18401 0.84509 0.97815 0.0
C7 C 0.22088 0.81025 0.01987 0.0
C8 C 0.21146 0.81671 0.05459 0.0
C9 C 0.18781 0.8368 0.05116 0.0
C10 C 0.17431 0.85091 0.01283 0.0
N11 N 0.24304 0.78855 0.02126 0.0
H12 H 0.70808 0.71932 0.68477 0.0
H13 H 0.71082 0.7111 0.56187 0.0
H14 H 0.64942 0.66003 0.6243 0.0
H15 H 0.72491 0.75758 0.55823 0.0
C16 C 0.7398 0.75845 0.58638 0.0
C17 C 0.69997 0.70957 0.65818 0.0
C18 C 0.6771 0.68868 0.65869 0.0
C19 C 0.71167 0.71871 0.62292 0.0
C20 C 0.70136 0.70536 0.58877 0.0
C21 C 0.67867 0.6845 0.58886 0.0
C22 C 0.66657 0.67653 0.62381 0.0
N23 N 0.73374 0.74108 0.62243 0.0
H24 H 0.79098 0.2064 0.96356 0.0
H25 H 0.7972 0.19374 0.09187 0.0
H26 H 0.84806 0.13824 0.03791 0.0
H27 H 0.74654 0.20656 0.07113 0.0
C28 C 0.7487 0.22581 0.04885 0.0
C29 C 0.8001 0.19456 0.99307 0.0
C30 C 0.82056 0.17134 0.99697 0.0
C31 C 0.79057 0.20189 0.02705 0.0
C32 C 0.80312 0.18695 0.06541 0.0
C33 C 0.82436 0.16425 0.0698 0.0
C34 C 0.83228 0.15616 0.0352 0.0
N35 N 0.76893 0.22478 0.02204 0.0
H36 H 0.31299 0.30649 0.37188 0.0
H37 H 0.31518 0.30139 0.49883 0.0
H38 H 0.36919 0.36426 0.43874 0.0
H39 H 0.30666 0.25231 0.49276 0.0
C40 C 0.28872 0.25519 0.46707 0.0
C41 C 0.32159 0.3141 0.39998 0.0
C42 C 0.3421 0.33731 0.40084 0.0
C43 C 0.31213 0.30058 0.43532 0.0
C44 C 0.32312 0.3108 0.47169 0.0
C45 C 0.34358 0.33387 0.47315 0.0
C46 C 0.35285 0.34697 0.4376 0.0
N47 N 0.29102 0.27741 0.43358 0.0
Eu48 Eu 0.02967 0.98304 0.49604 0.0
C49 C 0.96976 0.10276 0.5064 0.0
N50 N 0.99534 0.08975 0.52789 0.0
C51 C 0.0198 0.13645 0.52113 0.0
C52 C 0.9685 0.13321 0.49076 0.0
C53 C 0.0197 0.10648 0.53725 0.0
C54 C 0.99419 0.14982 0.49733 0.0
C55 C 0.91668 0.09967 0.48407 0.0
C56 C 0.94409 0.08622 0.50293 0.0
C57 C 0.91557 0.12974 0.46753 0.0
C58 C 0.94141 0.14646 0.4709 0.0
Eu59 Eu 0.99236 0.03888 0.55378 0.0
N60 N 0.94561 0.05733 0.52 0.0
C61 C 0.89099 0.08279 0.48389 0.0
C62 C 0.92053 0.0412 0.52206 0.0
C63 C 0.89289 0.05351 0.50342 0.0
H64 H 0.03895 0.09709 0.55799 0.0
H65 H 0.87309 0.04052 0.50434 0.0
H66 H 0.99967 0.91948 0.53143 0.0
H67 H 0.14595 0.01543 0.51555 0.0
H68 H 0.92201 0.01873 0.53777 0.0
H69 H 0.86953 0.09236 0.46972 0.0
H70 H 0.09387 0.01818 0.48271 0.0
H71 H 0.0394 0.14941 0.52797 0.0
H72 H 0.89467 0.14047 0.45322 0.0
H73 H 0.94007 0.16989 0.4593 0.0
H74 H 0.01463 0.87419 0.58037 0.0
H75 H 0.99412 0.17323 0.48565 0.0
H76 H 0.16433 0.97345 0.56857 0.0
N77 N 0.04242 0.93827 0.54019 0.0
C78 C 0.07133 0.9344 0.55784 0.0
C79 C 0.03075 0.89101 0.57442 0.0
C80 C 0.08084 0.90898 0.58598 0.0
C81 C 0.02231 0.91668 0.54691 0.0
C82 C 0.06007 0.88726 0.59436 0.0
N83 N 0.08137 0.98047 0.52075 0.0
C84 C 0.10097 1.00066 0.50741 0.0
C85 C 0.12137 0.95302 0.56638 0.0
C86 C 0.09126 0.95628 0.54823 0.0
C87 C 0.14109 0.97496 0.55508 0.0
C88 C 0.13085 0.9987 0.52517 0.0
H89 H 0.0665 0.86742 0.61584 0.0
H90 H 0.11831 0.88679 0.6268 0.0
H91 H 0.15381 0.92532 0.60959 0.0
O92 O 0.05366 0.96846 0.45245 0.0
O93 O 0.02852 0.97451 0.56305 0.0
O94 O 0.03719 0.01915 0.58321 0.0
O95 O 0.00698 0.9601 0.44845 0.0
O96 O 0.04408 0.03123 0.48634 0.0
O97 O 0.04041 0.04761 0.54577 0.0
O98 O 0.97786 0.02085 0.61011 0.0
O99 O 0.97054 0.03213 0.49072 0.0
O100 O 0.01 0.02621 0.46021 0.0
O101 O 0.98385 0.06782 0.59548 0.0
O102 O 0.97456 0.992 0.55851 0.0
O103 O 0.98145 0.97361 0.5012 0.0
C104 C 0.04241 0.99069 0.58849 0.0
C105 C 0.03564 0.92626 0.42442 0.0
C106 C 0.05459 0.89568 0.38174 0.0
C107 C 0.04233 0.87072 0.40201 0.0
C108 C 0.02367 0.90097 0.44429 0.0
C109 C 0.02716 0.87338 0.43322 0.0
C110 C 0.0514 0.92342 0.39344 0.0
C111 C 0.05194 0.04914 0.51286 0.0
C112 C 0.03083 0.95586 0.43424 0.0
C113 C 0.11063 0.90605 0.60482 0.0
C114 C 0.13084 0.92801 0.59505 0.0
C115 C 0.98298 0.03585 0.45864 0.0
C116 C 0.98858 0.04815 0.66395 0.0
C117 C 0.98122 0.06327 0.72663 0.0
C118 C 0.01063 0.05495 0.74356 0.0
C119 C 0.01782 0.03966 0.68128 0.0
C120 C 0.97027 0.05961 0.68681 0.0
C121 C 0.02867 0.04296 0.72106 0.0
C122 C 0.968 0.97363 0.53227 0.0
C123 C 0.97686 0.04646 0.62174 0.0
H124 H 0.0446 0.84911 0.39378 0.0
H125 H 0.01129 0.90255 0.46797 0.0
H126 H 0.01781 0.85401 0.44862 0.0
H127 H 0.0604 0.94291 0.37767 0.0
H128 H 0.01951 0.05742 0.77429 0.0
H129 H 0.03221 0.03075 0.66405 0.0
H130 H 0.9477 0.06632 0.6733 0.0
H131 H 0.05113 0.03636 0.73453 0.0
Eu132 Eu 0.48307 0.49669 0.99438 0.0
C133 C 0.59144 0.57372 0.04154 0.0
N134 N 0.58848 0.54444 0.05434 0.0
C135 C 0.63726 0.53459 0.04341 0.0
C136 C 0.61715 0.58448 0.02729 0.0
C137 C 0.61118 0.52493 0.05688 0.0
C138 C 0.64009 0.56443 0.02797 0.0
C139 C 0.57212 0.6237 0.03291 0.0
C140 C 0.56916 0.593 0.0443 0.0
C141 C 0.59689 0.63443 0.01644 0.0
C142 C 0.61939 0.61486 0.01372 0.0
Eu143 Eu 0.54407 0.52971 0.07655 0.0
N144 N 0.54582 0.58196 0.06115 0.0
C145 C 0.55085 0.64278 0.04022 0.0
C146 C 0.52679 0.60061 0.07191 0.0
C147 C 0.5285 0.63117 0.06072 0.0
H148 H 0.60886 0.50188 0.06873 0.0
H149 H 0.51296 0.6457 0.06875 0.0
H150 H 0.42546 0.54531 0.97916 0.0
H151 H 0.48093 0.37758 0.04136 0.0
H152 H 0.51059 0.5921 0.08989 0.0
H153 H 0.55235 0.66651 0.03202 0.0
H154 H 0.50047 0.42501 0.01132 0.0
H155 H 0.65507 0.51903 0.04473 0.0
H156 H 0.59935 0.65791 0.00707 0.0
H157 H 0.63877 0.62353 1.00209 0.0
H158 H 0.37857 0.54968 1.00346 0.0
H159 H 0.66024 0.57184 0.01736 0.0
H160 H 0.435 0.3773 0.06989 0.0
N161 N 0.4358 0.5022 0.01192 0.0
C162 C 0.42481 0.47769 0.03197 0.0
C163 C 0.39161 0.52945 0.01239 0.0
C164 C 0.39733 0.4786 0.04483 0.0
C165 C 0.41866 0.52719 0.99956 0.0
C166 C 0.38119 0.50523 0.0359 0.0
N167 N 0.46615 0.45088 0.0236 0.0
C168 C 0.48041 0.4249 0.02381 0.0
C169 C 0.42823 0.42471 0.05472 0.0
C170 C 0.44006 0.45109 0.03712 0.0
C171 C 0.44339 0.39805 0.05666 0.0
C172 C 0.46939 0.39812 0.04066 0.0
H173 H 0.36002 0.50688 0.0453 0.0
H174 H 0.36542 0.45308 0.07518 0.0
H175 H 0.39245 0.40584 0.08368 0.0
O176 O 0.48957 0.47484 0.94383 0.0
O177 O 0.49507 0.47447 0.05999 0.0
O178 O 0.50087 0.51325 0.09439 0.0
O179 O 0.44956 0.49962 0.94004 0.0
O180 O 0.52963 0.47751 1.00262 0.0
O181 O 0.55271 0.48249 0.0676 0.0
O182 O 0.56368 0.54899 0.12943 0.0
O183 O 0.55313 0.52976 0.01322 0.0
O184 O 0.50762 0.53798 0.97286 0.0
O185 O 0.56626 0.50188 0.13119 0.0
O186 O 0.49642 0.5464 0.06571 0.0
O187 O 0.47889 0.54571 0.99863 0.0
C188 C 0.4912 0.48663 0.09091 0.0
C189 C 0.44544 0.4572 0.90866 0.0
C190 C 0.43001 0.42573 0.85751 0.0
C191 C 0.41159 0.41031 0.88224 0.0
C192 C 0.42615 0.44194 0.93202 0.0
C193 C 0.40965 0.41847 0.91913 0.0
C194 C 0.44708 0.44924 0.87102 0.0
C195 C 0.54979 0.46958 0.03521 0.0
C196 C 0.46324 0.48166 0.92336 0.0
C197 C 0.38629 0.45271 0.06463 0.0
C198 C 0.40163 0.42578 0.06936 0.0
C199 C 0.53648 0.54134 0.97919 0.0
C200 C 0.56057 0.51932 0.19106 0.0
C201 C 0.56265 0.53367 0.25729 0.0
C202 C 0.53963 0.51394 0.26395 0.0
C203 C 0.5376 0.49981 0.19847 0.0
C204 C 0.5731 0.53612 0.22063 0.0
C205 C 0.52722 0.49725 0.23468 0.0
C206 C 0.47945 0.55734 0.03154 0.0
C207 C 0.57046 0.52357 0.15189 0.0
H208 H 0.39795 0.39244 0.87249 0.0
H209 H 0.42341 0.44842 0.95999 0.0
H210 H 0.39495 0.40685 0.93755 0.0
H211 H 0.46148 0.46124 0.85239 0.0
H212 H 0.5313 0.51122 0.29195 0.0
H213 H 0.5275 0.48673 0.1762 0.0
H214 H 0.59044 0.5516 0.21462 0.0
H215 H 0.50934 0.48241 0.23999 0.0
H216 H 0.23662 0.25538 0.41201 0.0
H217 H 0.19511 0.22122 0.41634 0.0
H218 H 0.24219 0.17496 0.52877 0.0
H219 H 0.28351 0.20882 0.52446 0.0
H220 H 0.21863 0.13658 0.48129 0.0
H221 H 0.18521 0.22267 0.5256 0.0
H222 H 0.17253 0.27544 0.52025 0.0
H223 H 0.10675 0.2698 0.41589 0.0
H224 H 0.11935 0.21706 0.42028 0.0
H225 H 0.09348 0.07038 0.56865 0.0
H226 H 0.13304 0.1055 0.55633 0.0
H227 H 0.10259 0.11274 0.42882 0.0
H228 H 0.06344 0.07711 0.44086 0.0
H229 H 0.11626 0.17069 0.47976 0.0
H230 H 0.15443 0.08615 0.43144 0.0
H231 H 0.16983 0.03424 0.43532 0.0
H232 H 0.22662 0.03781 0.5483 0.0
H233 H 0.21149 0.08979 0.54499 0.0
C234 C 0.23809 0.23787 0.43754 0.0
C235 C 0.26335 0.23471 0.46789 0.0
C236 C 0.2143 0.21844 0.44012 0.0
C237 C 0.21537 0.19555 0.47305 0.0
C238 C 0.24077 0.19234 0.50305 0.0
C239 C 0.26437 0.21175 0.50058 0.0
C240 C 0.19038 0.17463 0.47649 0.0
C241 C 0.19631 0.14416 0.48115 0.0
C242 C 0.16105 0.18432 0.47571 0.0
C243 C 0.15348 0.21601 0.47298 0.0
C244 C 0.16824 0.23275 0.50128 0.0
C245 C 0.16103 0.26264 0.49847 0.0
C246 C 0.13892 0.27599 0.46767 0.0
C247 C 0.12392 0.25944 0.43968 0.0
C248 C 0.13107 0.22955 0.44232 0.0
C249 C 0.09517 0.07954 0.53801 0.0
C250 C 0.07533 0.07105 0.50572 0.0
C251 C 0.11782 0.09948 0.53101 0.0
C252 C 0.12079 0.1116 0.49166 0.0
C253 C 0.10076 0.10352 0.45939 0.0
C254 C 0.07844 0.08318 0.46633 0.0
C255 C 0.1447 0.1329 0.48445 0.0
C256 C 0.13857 0.16332 0.47946 0.0
C257 C 0.17387 0.12328 0.48487 0.0
C258 C 0.18154 0.09163 0.48823 0.0
C259 C 0.16988 0.07571 0.45736 0.0
C260 C 0.17878 0.04639 0.45925 0.0
C261 C 0.19928 0.03277 0.49197 0.0
C262 C 0.2108 0.0484 0.52294 0.0
C263 C 0.20211 0.07779 0.52104 0.0
H264 H 0.2061 0.01005 0.49342 0.0
H265 H 0.13336 0.29913 0.46556 0.0
H266 H 0.25906 0.73691 0.00547 0.0
H267 H 0.29537 0.69962 1.00028 0.0
H268 H 0.35909 0.73361 0.08961 0.0
H269 H 0.32254 0.77061 0.09566 0.0
H270 H 0.38022 0.72344 0.01539 0.0
H271 H 0.33012 0.67537 0.12102 0.0
H272 H 0.28618 0.65771 0.14955 0.0
H273 H 0.26292 0.60393 0.05722 0.0
H274 H 0.30653 0.62164 0.02778 0.0
H275 H 0.45692 0.56984 0.09537 0.0
H276 H 0.4214 0.60859 0.09666 0.0
H277 H 0.41677 0.63697 0.96951 0.0
H278 H 0.45316 0.59846 0.96829 0.0
H279 H 0.36555 0.61679 0.06065 0.0
H280 H 0.39943 0.70945 0.94695 0.0
H281 H 0.44322 0.72823 0.91873 0.0
H282 H 0.49979 0.69399 0.02973 0.0
H283 H 0.45634 0.6745 0.05846 0.0
C284 C 0.2808 0.73645 0.02402 0.0
C285 C 0.28806 0.75669 0.05097 0.0
C286 C 0.30149 0.71514 0.02101 0.0
C287 C 0.32992 0.71396 0.04444 0.0
C288 C 0.3373 0.73428 0.07114 0.0
C289 C 0.31641 0.75525 0.07472 0.0
C290 C 0.35179 0.69119 0.04157 0.0
C291 C 0.37705 0.7001 0.02524 0.0
C292 C 0.34754 0.66079 0.05423 0.0
C293 C 0.32138 0.65009 0.07194 0.0
C294 C 0.31547 0.66 0.10657 0.0
C295 C 0.29067 0.64994 0.12296 0.0
C296 C 0.27172 0.62978 0.10514 0.0
C297 C 0.27759 0.61959 0.07095 0.0
C298 C 0.30235 0.62962 0.05442 0.0
C299 C 0.44861 0.58451 0.06771 0.0
C300 C 0.45798 0.5812 0.03174 0.0
C301 C 0.42814 0.60657 0.06845 0.0
C302 C 0.41652 0.62591 0.03329 0.0
C303 C 0.42573 0.62263 0.99718 0.0
C304 C 0.44636 0.60052 0.99644 0.0
C305 C 0.39433 0.64895 0.03477 0.0
C306 C 0.3688 0.64009 0.05063 0.0
C307 C 0.39834 0.67939 0.02161 0.0
C308 C 0.42469 0.69037 0.00467 0.0
C309 C 0.42124 0.70584 0.96527 0.0
C310 C 0.44599 0.71648 0.94917 0.0
C311 C 0.47429 0.71205 0.97236 0.0
C312 C 0.47788 0.69699 0.01171 0.0
C313 C 0.45322 0.68604 0.02786 0.0
H314 H 0.49342 0.72043 0.95992 0.0
H315 H 0.25253 0.622 0.11788 0.0
H316 H 0.77899 0.7762 0.64939 0.0
H317 H 0.81997 0.81106 0.64423 0.0
H318 H 0.79901 0.82079 0.5151 0.0
H319 H 0.75819 0.78641 0.5201 0.0
H320 H 0.85918 0.81405 0.54322 0.0
H321 H 0.7772 0.87262 0.56247 0.0
H322 H 0.73847 0.88531 0.59874 0.0
H323 H 0.80457 0.89401 0.70164 0.0
H324 H 0.84367 0.88097 0.66613 0.0
H325 H 0.9348 0.94303 0.47796 0.0
H326 H 0.89776 0.90548 0.49053 0.0
H327 H 0.91413 0.91408 0.61608 0.0
H328 H 0.95006 0.95261 0.60323 0.0
H329 H 0.85871 0.90909 0.59502 0.0
H330 H 0.9414 0.85384 0.57636 0.0
H331 H 0.98097 0.84124 0.5414 0.0
H332 H 0.916 0.82489 0.44105 0.0
H333 H 0.87601 0.83771 0.47515 0.0
C334 C 0.78324 0.78572 0.61998 0.0
C335 C 0.76535 0.77865 0.58511 0.0
C336 C 0.80661 0.80567 0.61703 0.0
C337 C 0.81255 0.81865 0.57921 0.0
C338 C 0.79498 0.81106 0.54457 0.0
C339 C 0.77157 0.79148 0.54749 0.0
C340 C 0.8365 0.84068 0.57516 0.0
C341 C 0.85902 0.83491 0.55436 0.0
C342 C 0.83679 0.8676 0.59054 0.0
C343 C 0.81331 0.87548 0.61183 0.0
C344 C 0.78345 0.87699 0.59296 0.0
C345 C 0.76144 0.88429 0.61335 0.0
C346 C 0.76905 0.89037 0.65252 0.0
C347 C 0.7987 0.88923 0.67133 0.0
C348 C 0.82079 0.8819 0.65108 0.0
C349 C 0.93047 0.93693 0.50822 0.0
C350 C 0.94539 0.95085 0.53955 0.0
C351 C 0.9094 0.91525 0.5155 0.0
C352 C 0.9034 0.90633 0.5545 0.0
C353 C 0.91822 0.92041 0.58573 0.0
C354 C 0.93883 0.94249 0.57832 0.0
C355 C 0.88145 0.88268 0.56271 0.0
C356 C 0.85923 0.88813 0.58425 0.0
C357 C 0.88169 0.85527 0.54845 0.0
C358 C 0.9057 0.84696 0.52821 0.0
C359 C 0.93554 0.84769 0.54676 0.0
C360 C 0.95806 0.84053 0.52709 0.0
C361 C 0.95101 0.83239 0.48899 0.0
C362 C 0.92143 0.83124 0.47055 0.0
C363 C 0.89882 0.83841 0.49005 0.0
H364 H 0.96848 0.8269 0.47381 0.0
H365 H 0.75198 0.89603 0.66826 0.0
H366 H 0.75048 0.28121 0.00423 0.0
H367 H 0.71687 0.32323 1.00022 0.0
H368 H 0.66744 0.26987 0.08041 0.0
H369 H 0.70112 0.22798 0.08486 0.0
H370 H 0.63104 0.30228 0.01504 0.0
H371 H 0.71358 0.31732 0.11687 0.0
H372 H 0.76623 0.32308 0.14497 0.0
H373 H 0.77079 0.39963 0.05613 0.0
H374 H 0.71822 0.39406 0.02712 0.0
H375 H 0.59065 0.44221 0.09811 0.0
H376 H 0.62444 0.40148 0.0983 0.0
H377 H 0.59104 0.40137 0.97254 0.0
H378 H 0.55666 0.44162 0.97225 0.0
H379 H 0.66891 0.39542 0.06057 0.0
H380 H 0.59216 0.33261 0.95155 0.0
H381 H 0.53872 0.32575 0.92925 0.0
H382 H 0.52148 0.34159 0.04328 0.0
H383 H 0.57477 0.34849 0.06623 0.0
C384 C 0.73237 0.27843 0.02084 0.0
C385 C 0.72834 0.25134 0.04486 0.0
C386 C 0.71325 0.30245 0.01861 0.0
C387 C 0.68968 0.29968 0.04009 0.0
C388 C 0.6854 0.27247 0.0635 0.0
C389 C 0.70469 0.24862 0.06612 0.0
C390 C 0.66974 0.32521 0.0389 0.0
C391 C 0.63934 0.32271 0.02478 0.0
C392 C 0.68048 0.35168 0.05222 0.0
C393 C 0.71208 0.35506 0.06952 0.0
C394 C 0.72589 0.33521 0.10308 0.0
C395 C 0.75569 0.33847 0.11922 0.0
C396 C 0.77187 0.36165 0.10226 0.0
C397 C 0.75824 0.38165 0.06918 0.0
C398 C 0.72844 0.37846 0.05288 0.0
C399 C 0.59041 0.43355 0.07044 0.0
C400 C 0.57071 0.44513 0.03523 0.0
C401 C 0.60988 0.41029 0.07058 0.0
C402 C 0.61013 0.39809 0.03556 0.0
C403 C 0.59093 0.41001 1.00015 0.0
C404 C 0.5713 0.43313 1.00003 0.0
C405 C 0.63017 0.37264 0.03637 0.0
C406 C 0.66061 0.37512 0.05043 0.0
C407 C 0.61941 0.34594 0.02366 0.0
C408 C 0.58739 0.3413 0.01043 0.0
C409 C 0.57695 0.33454 0.97188 0.0
C410 C 0.54668 0.33072 0.95909 0.0
C411 C 0.52669 0.3334 0.98475 0.0
C412 C 0.53694 0.33976 0.02332 0.0
C413 C 0.56716 0.34366 0.0362 0.0
H414 H 0.50327 0.33045 0.9748 0.0
H415 H 0.79494 0.36415 0.11483 0.0
H416 H 0.21909 0.85281 0.12018 0.0
H417 H 0.19937 0.86566 0.17739 0.0
H418 H 0.11114 0.84622 0.1207 0.0
H419 H 0.1307 0.83466 0.06301 0.0
H420 H 0.10812 0.89375 0.14908 0.0
H421 H 0.15486 0.79916 0.20423 0.0
H422 H 0.19598 0.76269 0.2226 0.0
H423 H 0.24593 0.8194 0.29727 0.0
H424 H 0.20523 0.85638 0.27894 0.0
H425 H 0.0342 0.86889 0.31695 0.0
H426 H 0.05972 0.86225 0.26188 0.0
H427 H 0.13531 0.90823 0.31505 0.0
H428 H 0.10955 0.91539 0.3701 0.0
H429 H 0.14797 0.85155 0.29059 0.0
H430 H 0.09734 0.94414 0.2381 0.0
H431 H 0.05432 0.9783 0.22045 0.0
H432 H 0.00938 0.92195 0.14103 0.0
H433 H 0.05198 0.8872 0.15869 0.0
C434 C 0.19553 0.8511 0.12021 0.0
C435 C 0.17642 0.84276 0.08718 0.0
C436 C 0.18424 0.85836 0.15296 0.0
C437 C 0.15369 0.85667 0.15378 0.0
C438 C 0.13473 0.84791 0.1209 0.0
C439 C 0.14593 0.8412 0.08795 0.0
C440 C 0.14113 0.86456 0.1882 0.0
C441 C 0.11674 0.8842 0.17993 0.0
C442 C 0.15269 0.85287 0.22878 0.0
C443 C 0.17715 0.83066 0.23986 0.0
C444 C 0.17471 0.80394 0.22433 0.0
C445 C 0.19792 0.78316 0.23478 0.0
C446 C 0.22358 0.78876 0.26099 0.0
C447 C 0.22606 0.81512 0.27691 0.0
C448 C 0.20292 0.83598 0.26653 0.0
C449 C 0.05624 0.87764 0.31685 0.0
C450 C 0.06992 0.89263 0.3478 0.0
C451 C 0.07074 0.87391 0.28535 0.0
C452 C 0.09939 0.88476 0.28437 0.0
C453 C 0.11321 0.89968 0.31528 0.0
C454 C 0.09845 0.9039 0.34651 0.0
C455 C 0.11478 0.88008 0.25112 0.0
C456 C 0.13963 0.86115 0.25966 0.0
C457 C 0.10341 0.89204 0.21076 0.0
C458 C 0.07777 0.91292 0.20002 0.0
C459 C 0.07818 0.93889 0.21716 0.0
C460 C 0.05389 0.95839 0.20709 0.0
C461 C 0.0291 0.95226 0.17971 0.0
C462 C 0.02859 0.92665 0.16227 0.0
C463 C 0.05281 0.90706 0.17227 0.0
H464 H 0.01032 0.96739 0.17194 0.0
H465 H 0.24153 0.77265 0.26904 0.0
H466 H 0.61865 0.68752 0.66444 0.0
H467 H 0.59609 0.66535 0.72156 0.0
H468 H 0.68282 0.64419 0.79205 0.0
H469 H 0.70556 0.66666 0.73477 0.0
H470 H 0.64394 0.59585 0.79224 0.0
H471 H 0.64324 0.69675 0.81458 0.0
H472 H 0.63254 0.7502 0.79553 0.0
H473 H 0.53961 0.73297 0.76784 0.0
H474 H 0.54979 0.67937 0.78618 0.0
H475 H 0.59453 0.53878 0.97161 0.0
H476 H 0.61929 0.56724 0.92129 0.0
H477 H 0.5354 0.6061 0.85907 0.0
H478 H 0.51096 0.57959 0.91204 0.0
H479 H 0.57419 0.64653 0.85554 0.0
H480 H 0.57275 0.54731 0.82812 0.0
H481 H 0.5811 0.49335 0.84382 0.0
H482 H 0.67459 0.50624 0.87573 0.0
H483 H 0.66675 0.56031 0.86072 0.0
C484 C 0.63292 0.67855 0.69234 0.0
C485 C 0.66388 0.67887 0.69519 0.0
C486 C 0.62 0.66593 0.72498 0.0
C487 C 0.63773 0.65312 0.76117 0.0
C488 C 0.6687 0.65397 0.76444 0.0
C489 C 0.68168 0.667 0.73187 0.0
C490 C 0.62376 0.63747 0.7946 0.0
C491 C 0.62908 0.60701 0.8066 0.0
C492 C 0.6035 0.65178 0.81229 0.0
C493 C 0.59732 0.68402 0.80143 0.0
C494 C 0.62055 0.70434 0.80412 0.0
C495 C 0.61457 0.73467 0.79351 0.0
C496 C 0.58542 0.74497 0.7804 0.0
C497 C 0.56218 0.72496 0.77797 0.0
C498 C 0.56804 0.6946 0.78851 0.0
C499 C 0.58143 0.55394 0.94788 0.0
C500 C 0.55089 0.55738 0.94656 0.0
C501 C 0.59556 0.56982 0.91844 0.0
C502 C 0.57928 0.58859 0.88566 0.0
C503 C 0.54859 0.59183 0.88394 0.0
C504 C 0.53456 0.57644 0.91409 0.0
C505 C 0.59428 0.60472 0.85334 0.0
C506 C 0.58911 0.63528 0.84139 0.0
C507 C 0.61429 0.59037 0.8351 0.0
C508 C 0.61912 0.55786 0.84362 0.0
C509 C 0.59507 0.53864 0.83868 0.0
C510 C 0.59971 0.50803 0.84745 0.0
C511 C 0.62835 0.49637 0.86085 0.0
C512 C 0.65242 0.5153 0.86538 0.0
C513 C 0.64789 0.54593 0.85671 0.0
H514 H 0.6319 0.47267 0.86766 0.0
H515 H 0.58084 0.76847 0.77219 0.0
H516 H 0.88273 0.14816 0.09408 0.0
H517 H 0.90732 0.12439 0.16018 0.0
H518 H 0.82487 0.12438 0.20404 0.0
H519 H 0.79976 0.14762 0.13745 0.0
H520 H 0.8711 0.14564 0.25366 0.0
H521 H 0.85228 0.06085 0.18815 0.0
H522 H 0.85278 0.03097 0.13447 0.0
H523 H 0.94779 0.032 0.15515 0.0
H524 H 0.94786 0.06232 0.20854 0.0
H525 H 0.9235 0.0486 0.43855 0.0
H526 H 0.89592 0.07223 0.37396 0.0
H527 H 0.97606 0.07697 0.32407 0.0
H528 H 0.00407 0.05469 0.38923 0.0
H529 H 0.92908 0.05197 0.27793 0.0
H530 H 0.94915 0.13938 0.33647 0.0
H531 H 0.95063 0.1765 0.38151 0.0
H532 H 0.85604 0.17356 0.37071 0.0
H533 H 0.85401 0.13632 0.32566 0.0
C534 C 0.86961 0.14264 0.1175 0.0
C535 C 0.83916 0.14963 0.11027 0.0
C536 C 0.88377 0.12909 0.15534 0.0
C537 C 0.86785 0.12226 0.18688 0.0
C538 C 0.83753 0.12937 0.18001 0.0
C539 C 0.82326 0.14281 0.14202 0.0
C540 C 0.88331 0.109 0.22744 0.0
C541 C 0.88323 0.12479 0.25924 0.0
C542 C 0.90002 0.08238 0.23421 0.0
C543 C 0.90006 0.0641 0.20214 0.0
C544 C 0.87328 0.05494 0.18103 0.0
C545 C 0.87346 0.03788 0.15068 0.0
C546 C 0.90029 0.02966 0.14133 0.0
C547 C 0.92701 0.03842 0.16238 0.0
C548 C 0.92696 0.05552 0.19272 0.0
C549 C 0.93544 0.05543 0.41429 0.0
C550 C 0.9661 0.05021 0.41945 0.0
C551 C 0.91958 0.06876 0.37722 0.0
C552 C 0.93398 0.07655 0.34429 0.0
C553 C 0.96454 0.0712 0.34916 0.0
C554 C 0.98048 0.05837 0.38643 0.0
C555 C 0.91686 0.08866 0.30421 0.0
C556 C 0.91663 0.07261 0.27251 0.0
C557 C 0.90005 0.11519 0.29739 0.0
C558 C 0.90147 0.13484 0.32805 0.0
C559 C 0.92872 0.14623 0.34429 0.0
C560 C 0.92962 0.16753 0.36946 0.0
C561 C 0.90341 0.17757 0.37864 0.0
C562 C 0.8763 0.16591 0.36333 0.0
C563 C 0.87526 0.1447 0.338 0.0
H564 H 0.90412 0.19425 0.39787 0.0
H565 H 0.90039 0.01644 0.11784 0.0
H566 H 0.363 0.3001 0.54622 0.0
H567 H 0.38189 0.3169 0.61002 0.0
H568 H 0.36997 0.40759 0.55168 0.0
H569 H 0.35131 0.39087 0.48759 0.0
H570 H 0.42119 0.4009 0.60345 0.0
H571 H 0.3204 0.37442 0.60837 0.0
H572 H 0.27699 0.34204 0.6035 0.0
H573 H 0.32327 0.27808 0.69868 0.0
H574 H 0.36714 0.30991 0.70373 0.0
H575 H 0.42348 0.46251 0.78516 0.0
H576 H 0.41369 0.44803 0.71822 0.0
H577 H 0.4254 0.35628 0.77197 0.0
H578 H 0.43493 0.37064 0.83869 0.0
H579 H 0.37431 0.36482 0.72152 0.0
H580 H 0.47519 0.39256 0.71709 0.0
H581 H 0.51801 0.4257 0.72149 0.0
H582 H 0.4708 0.48849 0.62558 0.0
H583 H 0.42751 0.4559 0.62097 0.0
C584 C 0.36424 0.32362 0.54701 0.0
C585 C 0.35542 0.34415 0.51189 0.0
C586 C 0.3751 0.33321 0.5835 0.0
C587 C 0.37698 0.36355 0.58584 0.0
C588 C 0.36875 0.3841 0.55067 0.0
C589 C 0.35807 0.37451 0.51406 0.0
C590 C 0.38693 0.37373 0.62513 0.0
C591 C 0.41072 0.3933 0.62917 0.0
C592 C 0.37359 0.36352 0.6589 0.0
C593 C 0.34714 0.34444 0.65617 0.0
C594 C 0.32139 0.35336 0.62807 0.0
C595 C 0.29669 0.33512 0.62531 0.0
C596 C 0.2974 0.30799 0.6507 0.0
C597 C 0.32277 0.29908 0.679 0.0
C598 C 0.34755 0.31723 0.68185 0.0
C599 C 0.42474 0.43933 0.78257 0.0
C600 C 0.42976 0.41769 0.81712 0.0
C601 C 0.41908 0.43105 0.74431 0.0
C602 C 0.41868 0.40102 0.74 0.0
C603 C 0.42534 0.37955 0.77449 0.0
C604 C 0.43084 0.38778 0.8126 0.0
C605 C 0.40889 0.39168 0.70012 0.0
C606 C 0.38491 0.37237 0.6959 0.0
C607 C 0.42198 0.4023 0.66625 0.0
C608 C 0.44799 0.42191 0.66897 0.0
C609 C 0.47384 0.41355 0.69717 0.0
C610 C 0.49822 0.43221 0.69965 0.0
C611 C 0.4971 0.45922 0.67391 0.0
C612 C 0.47162 0.46758 0.64554 0.0
C613 C 0.44717 0.44901 0.64296 0.0
H614 H 0.516 0.47363 0.67587 0.0
H615 H 0.27826 0.29389 0.6485 0.0
H616 H 0.62114 0.67582 0.55593 0.0
H617 H 0.60268 0.65187 0.49774 0.0
H618 H 0.69229 0.63847 0.48131 0.0
H619 H 0.71091 0.66262 0.53949 0.0
H620 H 0.65679 0.65584 0.41029 0.0
H621 H 0.65384 0.58199 0.52545 0.0
H622 H 0.64087 0.56154 0.59108 0.0
H623 H 0.54844 0.5728 0.54076 0.0
H624 H 0.56086 0.59372 0.47494 0.0
H625 H 0.62105 0.54612 0.28221 0.0
H626 H 0.64173 0.57376 0.33602 0.0
H627 H 0.55375 0.5895 0.35691 0.0
H628 H 0.53297 0.5621 0.30317 0.0
H629 H 0.59002 0.57035 0.42582 0.0
H630 H 0.59304 0.64452 0.31063 0.0
H631 H 0.6061 0.66519 0.24514 0.0
H632 H 0.69848 0.6531 0.29537 0.0
H633 H 0.68596 0.63196 0.36106 0.0
C634 C 0.63693 0.66767 0.54002 0.0
C635 C 0.6675 0.6709 0.55252 0.0
C636 C 0.62635 0.65401 0.50674 0.0
C637 C 0.64611 0.64294 0.48549 0.0
C638 C 0.67663 0.6468 0.49725 0.0
C639 C 0.68723 0.66063 0.53047 0.0
C640 C 0.63489 0.62688 0.45152 0.0
C641 C 0.64252 0.63689 0.4138 0.0
C642 C 0.61583 0.60247 0.45587 0.0
C643 C 0.60829 0.58966 0.49535 0.0
C644 C 0.63075 0.58029 0.52845 0.0
C645 C 0.6235 0.56859 0.56567 0.0
C646 C 0.59385 0.56594 0.57011 0.0
C647 C 0.57139 0.5749 0.53729 0.0
C648 C 0.57853 0.58666 0.50001 0.0
C649 C 0.60609 0.55582 0.29789 0.0
C650 C 0.57535 0.55174 0.28851 0.0
C651 C 0.61794 0.5716 0.32869 0.0
C652 C 0.59929 0.58381 0.35046 0.0
C653 C 0.5686 0.58014 0.34071 0.0
C654 C 0.55676 0.56437 0.31005 0.0
C655 C 0.61165 0.59947 0.38443 0.0
C656 C 0.6043 0.58929 0.42225 0.0
C657 C 0.63098 0.62366 0.38012 0.0
C658 C 0.63855 0.63636 0.34065 0.0
C659 C 0.61614 0.64602 0.30762 0.0
C660 C 0.62344 0.65788 0.27048 0.0
C661 C 0.6531 0.66038 0.26606 0.0
C662 C 0.67552 0.6511 0.29881 0.0
C663 C 0.66833 0.6392 0.33601 0.0
H664 H 0.65871 0.66957 0.23729 0.0
H665 H 0.58829 0.55688 0.59896 0.0
H666 H 0.85219 0.20422 0.94628 0.0
H667 H 0.87563 0.18718 0.89486 0.0
H668 H 0.83467 0.10214 0.91698 0.0
H669 H 0.81261 0.11883 0.96981 0.0
H670 H 0.88812 0.0928 0.91545 0.0
H671 H 0.8145 0.15488 0.82707 0.0
H672 H 0.78477 0.20025 0.79944 0.0
H673 H 0.86302 0.24665 0.77473 0.0
H674 H 0.89331 0.20165 0.80274 0.0
H675 H 0.92713 0.04414 0.74125 0.0
H676 H 0.89606 0.06421 0.78252 0.0
H677 H 0.96063 0.13139 0.8056 0.0
H678 H 0.99217 0.11089 0.7653 0.0
H679 H 0.89339 0.14903 0.78077 0.0
H680 H 0.966 0.08406 0.87533 0.0
H681 H 0.99247 0.03637 0.89959 0.0
H682 H 0.90987 0.99276 0.90787 0.0
H683 H 0.88288 0.04017 0.883 0.0
C684 C 0.8478 0.18212 0.93944 0.0
C685 C 0.83055 0.16283 0.96162 0.0
C686 C 0.8611 0.17237 0.90999 0.0
C687 C 0.85677 0.14338 0.90159 0.0
C688 C 0.8385 0.12454 0.92287 0.0
C689 C 0.82573 0.1341 0.95282 0.0
C690 C 0.873 0.13193 0.87298 0.0
C691 C 0.88874 0.105 0.88578 0.0
C692 C 0.87434 0.14782 0.8343 0.0
C693 C 0.85622 0.17494 0.81737 0.0
C694 C 0.82541 0.17482 0.81604 0.0
C695 C 0.80845 0.20046 0.80025 0.0
C696 C 0.822 0.22633 0.78543 0.0
C697 C 0.85255 0.2266 0.78627 0.0
C698 C 0.86963 0.20102 0.80206 0.0
C699 C 0.93456 0.06327 0.75502 0.0
C700 C 0.96203 0.07594 0.75037 0.0
C701 C 0.91685 0.07469 0.77845 0.0
C702 C 0.92609 0.09929 0.7969 0.0
C703 C 0.95313 0.11247 0.79141 0.0
C704 C 0.97115 0.10066 0.7687 0.0
C705 C 0.90823 0.1103 0.82362 0.0
C706 C 0.89237 0.13701 0.81042 0.0
C707 C 0.9062 0.09398 0.86156 0.0
C708 C 0.92242 0.06557 0.87685 0.0
C709 C 0.95347 0.06425 0.88193 0.0
C710 C 0.96857 0.03729 0.89588 0.0
C711 C 0.95285 0.01153 0.90515 0.0
C712 C 0.92201 0.01272 0.9006 0.0
C713 C 0.90681 0.03962 0.88661 0.0
H714 H 0.96458 0.99068 0.91595 0.0
H715 H 0.80883 0.24616 0.77322 0.0
H716 H 0.34759 0.39621 0.37421 0.0
H717 H 0.37053 0.41925 0.31799 0.0
H718 H 0.38516 0.33332 0.28814 0.0
H719 H 0.36232 0.31006 0.34478 0.0
H720 H 0.4353 0.36743 0.29147 0.0
H721 H 0.33354 0.37908 0.22849 0.0
H722 H 0.28115 0.3935 0.22213 0.0
H723 H 0.30596 0.48393 0.22496 0.0
H724 H 0.35855 0.46999 0.23193 0.0
H725 H 0.48943 0.42688 0.11383 0.0
H726 H 0.46156 0.39972 0.16213 0.0
H727 H 0.43254 0.48222 0.18931 0.0
H728 H 0.459 0.50938 0.13911 0.0
H729 H 0.38798 0.44679 0.18421 0.0
H730 H 0.48825 0.43584 0.25521 0.0
H731 H 0.54142 0.42363 0.26325 0.0
H732 H 0.52008 0.33398 0.24876 0.0
H733 H 0.46679 0.34596 0.2399 0.0
C734 C 0.35547 0.38221 0.35548 0.0
C735 C 0.35316 0.35129 0.364 0.0
C736 C 0.36845 0.39543 0.3232 0.0
C737 C 0.37948 0.37806 0.29864 0.0
C738 C 0.37676 0.34719 0.30661 0.0
C739 C 0.36351 0.33393 0.33877 0.0
C740 C 0.39506 0.39221 0.26598 0.0
C741 C 0.42477 0.3844 0.26758 0.0
C742 C 0.38166 0.41495 0.23541 0.0
C743 C 0.35003 0.42343 0.23107 0.0
C744 C 0.32785 0.40201 0.22808 0.0
C745 C 0.29811 0.4101 0.2243 0.0
C746 C 0.29024 0.4396 0.22323 0.0
C747 C 0.31209 0.46108 0.22583 0.0
C748 C 0.34187 0.4531 0.22964 0.0
C749 C 0.47686 0.43918 0.12985 0.0
C750 C 0.47598 0.47021 0.1222 0.0
C751 C 0.4612 0.42364 0.15789 0.0
C752 C 0.44505 0.43881 0.17986 0.0
C753 C 0.44466 0.46991 0.17272 0.0
C754 C 0.46 0.48544 0.14426 0.0
C755 C 0.42842 0.42238 0.21004 0.0
C756 C 0.39848 0.4297 0.20794 0.0
C757 C 0.44169 0.39943 0.24047 0.0
C758 C 0.47364 0.39194 0.24636 0.0
C759 C 0.49498 0.41365 0.25337 0.0
C760 C 0.5251 0.40675 0.25813 0.0
C761 C 0.53413 0.37805 0.25638 0.0
C762 C 0.51305 0.35621 0.25002 0.0
C763 C 0.48289 0.36305 0.24514 0.0
H764 H 0.55745 0.37273 0.26007 0.0
H765 H 0.2672 0.44582 0.22031 0.0
H766 H 0.12504 0.85497 0.94768 0.0
H767 H 0.10266 0.8797 0.88053 0.0
H768 H 0.1895 0.89453 0.85013 0.0
H769 H 0.212 0.87019 0.91733 0.0
H770 H 0.15367 0.94376 0.82607 0.0
H771 H 0.1486 0.84091 0.81514 0.0
H772 H 0.13617 0.7887 0.83437 0.0
H773 H 0.04392 0.81225 0.81484 0.0
H774 H 0.05585 0.8647 0.79606 0.0
H775 H 0.10095 0.99302 0.61839 0.0
H776 H 0.12752 0.96686 0.6824 0.0
H777 H 0.04466 0.93218 0.71187 0.0
H778 H 0.01889 0.95578 0.64591 0.0
H779 H 0.08166 0.89193 0.7361 0.0
H780 H 0.08766 0.9962 0.74958 0.0
H781 H 0.10147 0.04831 0.73093 0.0
H782 H 0.19266 0.02209 0.74648 0.0
H783 H 0.17944 0.96996 0.76459 0.0
C784 C 0.13935 0.8637 0.92677 0.0
C785 C 0.17027 0.86053 0.93773 0.0
C786 C 0.12654 0.87762 0.88834 0.0
C787 C 0.14442 0.8887 0.8602 0.0
C788 C 0.1753 0.88605 0.87132 0.0
C789 C 0.1881 0.87197 0.90961 0.0
C790 C 0.13091 0.90306 0.81917 0.0
C791 C 0.1381 0.93241 0.80616 0.0
C792 C 0.11041 0.88831 0.79346 0.0
C793 C 0.10315 0.85677 0.80458 0.0
C794 C 0.12568 0.83499 0.81527 0.0
C795 C 0.11873 0.80535 0.82603 0.0
C796 C 0.08928 0.79717 0.82593 0.0
C797 C 0.06672 0.81862 0.81496 0.0
C798 C 0.07357 0.84831 0.80422 0.0
C799 C 0.08864 0.97962 0.63867 0.0
C800 C 0.05807 0.97625 0.62767 0.0
C801 C 0.1037 0.96495 0.67546 0.0
C802 C 0.08812 0.94807 0.70287 0.0
C803 C 0.05735 0.94499 0.69156 0.0
C804 C 0.04255 0.9586 0.65405 0.0
C805 C 0.10358 0.93324 0.74304 0.0
C806 C 0.09699 0.90357 0.75591 0.0
C807 C 0.12461 0.94779 0.76868 0.0
C808 C 0.13249 0.9792 0.75808 0.0
C809 C 0.11061 1.0016 0.7488 0.0
C810 C 0.11832 0.03109 0.73834 0.0
C811 C 0.14786 0.03844 0.73746 0.0
C812 C 0.16978 0.01636 0.74712 0.0
C813 C 0.1622 0.98686 0.75749 0.0
H814 H 0.15375 0.06127 0.72935 0.0
H815 H 0.08394 0.77421 0.83426 0.0
loop_
_geom_bond_atom_site_label_1
_geom_bond_atom_site_label_2
_geom_bond_distance
_geom_bond_site_symmetry_2
_ccdc_geom_bond_type
H0 C5 0.930 . S
H1 C8 0.930 . S
H2 C10 0.930 . S
H3 C4 1.016 . S
C4 H3 1.016 . S
C4 N11 1.286 . S
C5 H0 0.930 . S
C5 C6 1.397 . S
C5 C7 1.361 1_556 S
C6 C5 1.397 . S
C6 C10 1.390 1_556 S
C7 C5 1.361 1_554 S
C7 C8 1.393 . S
C7 N11 1.413 . S
C8 H1 0.930 . S
C8 C7 1.393 . S
C8 C9 1.399 . S
C9 C8 1.399 . S
C9 C10 1.381 . S
C10 H2 0.930 . S
C10 C6 1.390 1_554 S
C10 C9 1.381 . S
N11 C4 1.286 . S
N11 C7 1.413 . S
H12 C17 0.930 . S
H13 C20 0.930 . S
H14 C22 0.930 . S
H15 C16 1.016 . S
C16 H15 1.016 . S
C16 N23 1.286 . S
C17 H12 0.930 . S
C17 C18 1.397 . S
C17 C19 1.361 . S
C18 C17 1.397 . S
C18 C22 1.390 . S
C19 C17 1.361 . S
C19 C20 1.393 . S
C19 N23 1.413 . S
C20 H13 0.930 . S
C20 C19 1.393 . S
C20 C21 1.399 . S
C21 C20 1.399 . S
C21 C22 1.381 . S
C22 H14 0.930 . S
C22 C18 1.390 . S
C22 C21 1.381 . S
N23 C16 1.286 . S
N23 C19 1.413 . S
H24 C29 0.930 . S
H25 C32 0.930 . S
H26 C34 0.930 . S
H27 C28 1.016 . S
C28 H27 1.016 . S
C28 N35 1.286 . S
C29 H24 0.930 . S
C29 C30 1.397 . S
C29 C31 1.361 1_556 S
C30 C29 1.397 . S
C30 C34 1.390 1_556 S
C31 C29 1.361 1_554 S
C31 C32 1.393 . S
C31 N35 1.413 . S
C32 H25 0.930 . S
C32 C31 1.393 . S
C32 C33 1.399 . S
C33 C32 1.399 . S
C33 C34 1.381 . S
C34 H26 0.930 . S
C34 C30 1.390 1_554 S
C34 C33 1.381 . S
N35 C28 1.286 . S
N35 C31 1.413 . S
H36 C41 0.930 . S
H37 C44 0.930 . S
H38 C46 0.930 . S
H39 C40 1.016 . S
C40 H39 1.016 . S
C40 N47 1.286 . S
C41 H36 0.930 . S
C41 C42 1.397 . S
C41 C43 1.361 . S
C42 C41 1.397 . S
C42 C46 1.390 . S
C43 C41 1.361 . S
C43 C44 1.393 . S
C43 N47 1.413 . S
C44 H37 0.930 . S
C44 C43 1.393 . S
C44 C45 1.399 . S
C45 C44 1.399 . S
C45 C46 1.381 . S
C46 H38 0.930 . S
C46 C42 1.390 . S
C46 C45 1.381 . S
N47 C40 1.286 . S
N47 C43 1.413 . S
Eu48 N77 2.600 . S
Eu48 N83 2.562 . S
Eu48 O92 2.462 . S
Eu48 O93 2.373 . S
Eu48 O95 2.432 . S
Eu48 O96 2.291 1_565 S
Eu48 O100 2.335 1_465 S
Eu48 O103 2.372 1_455 S
Eu48 C112 2.787 . S
C49 N50 1.365 . S
C49 C52 1.405 . S
C49 C56 1.448 . S
N50 C49 1.365 . S
N50 C53 1.319 1_655 S
N50 Eu59 2.600 . S
C51 C53 1.397 . S
C51 C54 1.367 1_455 S
C51 H71 0.931 . S
C52 C49 1.405 . S
C52 C54 1.403 . S
C52 C58 1.439 . S
C53 N50 1.319 1_455 S
C53 C51 1.397 . S
C53 H64 0.930 . S
C54 C51 1.367 1_655 S
C54 C52 1.403 . S
C54 H75 0.929 . S
C55 C56 1.430 . S
C55 C57 1.387 . S
C55 C61 1.404 . S
C56 C49 1.448 . S
C56 C55 1.430 . S
C56 N60 1.351 . S
C57 C55 1.387 . S
C57 C58 1.374 . S
C57 H72 0.931 . S
C58 C52 1.439 . S
C58 C57 1.374 . S
C58 H73 0.931 . S
Eu59 N50 2.600 . S
Eu59 N60 2.562 . S
Eu59 O94 2.335 1_655 S
Eu59 O97 2.372 1_655 S
Eu59 O98 2.462 . S
Eu59 O99 2.373 . S
Eu59 O101 2.432 . S
Eu59 O102 2.291 1_545 S
Eu59 C123 2.787 . S
N60 C56 1.351 . S
N60 Eu59 2.562 . S
N60 C62 1.325 . S
C61 C55 1.404 . S
C61 C63 1.366 . S
C61 H69 0.930 . S
C62 N60 1.325 . S
C62 C63 1.416 . S
C62 H68 0.929 . S
C63 C61 1.366 . S
C63 C62 1.416 . S
C63 H65 0.930 . S
H64 C53 0.930 . S
H65 C63 0.930 . S
H66 C81 0.930 1_655 S
H67 C88 0.930 . S
H68 C62 0.929 . S
H69 C61 0.930 . S
H70 C84 0.929 . S
H71 C51 0.931 . S
H72 C57 0.931 . S
H73 C58 0.931 . S
H74 C79 0.931 1_655 S
H75 C54 0.929 . S
H76 C87 0.930 . S
N77 Eu48 2.600 . S
N77 C78 1.365 . S
N77 C81 1.319 . S
C78 N77 1.365 . S
C78 C80 1.405 . S
C78 C86 1.448 . S
C79 H74 0.931 1_455 S
C79 C81 1.397 . S
C79 C82 1.367 . S
C80 C78 1.405 . S
C80 C82 1.403 . S
C80 C113 1.439 . S
C81 H66 0.930 1_455 S
C81 N77 1.319 . S
C81 C79 1.397 . S
C82 C79 1.367 . S
C82 C80 1.403 . S
C82 H89 0.929 . S
N83 Eu48 2.562 . S
N83 C84 1.325 . S
N83 C86 1.351 . S
C84 H70 0.929 . S
C84 N83 1.325 . S
C84 C88 1.416 . S
C85 C86 1.430 . S
C85 C87 1.404 . S
C85 C114 1.387 . S
C86 C78 1.448 . S
C86 N83 1.351 . S
C86 C85 1.430 . S
C87 H76 0.930 . S
C87 C85 1.404 . S
C87 C88 1.366 . S
C88 H67 0.930 . S
C88 C84 1.416 . S
C88 C87 1.366 . S
H89 C82 0.929 . S
H90 C113 0.931 . S
H91 C114 0.931 . S
O92 Eu48 2.462 . S
O92 C112 1.252 . S
O93 Eu48 2.373 . S
O93 C104 1.249 . S
O94 Eu59 2.335 1_455 S
O94 C104 1.264 1_545 S
O95 Eu48 2.432 . S
O95 C112 1.268 . S
O96 Eu48 2.291 1_545 S
O96 C111 1.255 . S
O97 Eu59 2.372 1_455 S
O97 C111 1.257 . S
O98 Eu59 2.462 . S
O98 C123 1.252 . S
O99 Eu59 2.373 . S
O99 C115 1.249 . S
O100 Eu48 2.335 1_645 S
O100 C115 1.264 . S
O101 Eu59 2.432 . S
O101 C123 1.268 . S
O102 Eu59 2.291 1_565 S
O102 C122 1.255 . S
O103 Eu48 2.372 1_655 S
O103 C122 1.257 . S
C104 O93 1.249 . S
C104 O94 1.264 1_565 S
C105 C108 1.382 . S
C105 C110 1.390 . S
C105 C112 1.506 . S
C106 C107 1.398 . S
C106 C110 1.392 . S
C107 C106 1.398 . S
C107 C109 1.372 . S
C107 H124 0.931 . S
C108 C105 1.382 . S
C108 C109 1.390 . S
C108 H125 0.931 . S
C109 C107 1.372 . S
C109 C108 1.390 . S
C109 H126 0.929 . S
C110 C105 1.390 . S
C110 C106 1.392 . S
C110 H127 0.930 . S
C111 O96 1.255 . S
C111 O97 1.257 . S
C112 Eu48 2.787 . S
C112 O92 1.252 . S
C112 O95 1.268 . S
C112 C105 1.506 . S
C113 C80 1.439 . S
C113 H90 0.931 . S
C113 C114 1.374 . S
C114 C85 1.387 . S
C114 H91 0.931 . S
C114 C113 1.374 . S
C115 O99 1.249 . S
C115 O100 1.264 . S
C116 C119 1.382 . S
C116 C120 1.390 . S
C116 C123 1.506 . S
C117 C118 1.398 . S
C117 C120 1.392 . S
C118 C117 1.398 . S
C118 C121 1.372 . S
C118 H128 0.931 . S
C119 C116 1.382 . S
C119 C121 1.390 . S
C119 H129 0.931 . S
C120 C116 1.390 . S
C120 C117 1.392 . S
C120 H130 0.930 . S
C121 C118 1.372 . S
C121 C119 1.390 . S
C121 H131 0.929 . S
C122 O102 1.255 . S
C122 O103 1.257 . S
C123 Eu59 2.787 . S
C123 O98 1.252 . S
C123 O101 1.268 . S
C123 C116 1.506 . S
H124 C107 0.931 . S
H125 C108 0.931 . S
H126 C109 0.929 . S
H127 C110 0.930 . S
H128 C118 0.931 . S
H129 C119 0.931 . S
H130 C120 0.930 . S
H131 C121 0.929 . S
Eu132 N161 2.602 . S
Eu132 N167 2.562 1_556 S
Eu132 O176 2.462 . S
Eu132 O177 2.373 1_556 S
Eu132 O179 2.432 . S
Eu132 O180 2.291 1_556 S
Eu132 O184 2.335 . S
Eu132 O187 2.372 1_556 S
Eu132 C196 2.787 . S
C133 N134 1.365 . S
C133 C136 1.405 . S
C133 C140 1.448 . S
N134 C133 1.365 . S
N134 C137 1.319 . S
N134 Eu143 2.600 . S
C135 C137 1.397 . S
C135 C138 1.367 . S
C135 H155 0.931 . S
C136 C133 1.405 . S
C136 C138 1.403 . S
C136 C142 1.439 . S
C137 N134 1.319 . S
C137 C135 1.397 . S
C137 H148 0.930 . S
C138 C135 1.367 . S
C138 C136 1.403 . S
C138 H159 0.929 . S
C139 C140 1.430 . S
C139 C141 1.387 . S
C139 C145 1.404 . S
C140 C133 1.448 . S
C140 C139 1.430 . S
C140 N144 1.351 . S
C141 C139 1.387 . S
C141 C142 1.374 . S
C141 H156 0.931 . S
C142 C136 1.439 . S
C142 C141 1.374 . S
C142 H157 0.931 . S
Eu143 N134 2.600 . S
Eu143 N144 2.562 . S
Eu143 O178 2.335 . S
Eu143 O181 2.372 . S
Eu143 O182 2.462 . S
Eu143 O183 2.373 . S
Eu143 O185 2.432 . S
Eu143 O186 2.291 . S
Eu143 C207 2.787 . S
N144 C140 1.351 . S
N144 Eu143 2.562 . S
N144 C146 1.325 . S
C145 C139 1.404 . S
C145 C147 1.366 . S
C145 H153 0.930 . S
C146 N144 1.325 . S
C146 C147 1.416 . S
C146 H152 0.929 . S
C147 C145 1.366 . S
C147 C146 1.416 . S
C147 H149 0.930 . S
H148 C137 0.930 . S
H149 C147 0.930 . S
H150 C165 0.930 . S
H151 C172 0.930 . S
H152 C146 0.929 . S
H153 C145 0.930 . S
H154 C168 0.929 . S
H155 C135 0.931 . S
H156 C141 0.931 . S
H157 C142 0.931 . S
H158 C163 0.931 . S
H159 C138 0.929 . S
H160 C171 0.930 . S
N161 Eu132 2.602 . S
N161 C162 1.362 1_556 S
N161 C165 1.318 . S
C162 N161 1.362 1_554 S
C162 C164 1.405 . S
C162 C170 1.448 . S
C163 H158 0.931 . S
C163 C165 1.397 . S
C163 C166 1.367 1_556 S
C164 C162 1.405 . S
C164 C166 1.403 . S
C164 C197 1.439 . S
C165 H150 0.930 . S
C165 N161 1.318 . S
C165 C163 1.397 . S
C166 C163 1.367 1_554 S
C166 C164 1.403 . S
C166 H173 0.929 . S
N167 Eu132 2.562 1_554 S
N167 C168 1.325 . S
N167 C170 1.351 . S
C168 H154 0.929 . S
C168 N167 1.325 . S
C168 C172 1.416 . S
C169 C170 1.430 . S
C169 C171 1.404 . S
C169 C198 1.387 . S
C170 C162 1.448 . S
C170 N167 1.351 . S
C170 C169 1.430 . S
C171 H160 0.930 . S
C171 C169 1.404 . S
C171 C172 1.366 . S
C172 H151 0.930 . S
C172 C168 1.416 . S
C172 C171 1.366 . S
H173 C166 0.929 . S
H174 C197 0.931 . S
H175 C198 0.931 . S
O176 Eu132 2.462 . S
O176 C196 1.252 . S
O177 Eu132 2.373 1_554 S
O177 C188 1.249 . S
O178 Eu143 2.335 . S
O178 C188 1.264 . S
O179 Eu132 2.432 . S
O179 C196 1.268 . S
O180 Eu132 2.291 1_554 S
O180 C195 1.255 . S
O181 Eu143 2.372 . S
O181 C195 1.257 . S
O182 Eu143 2.462 . S
O182 C207 1.252 . S
O183 Eu143 2.373 . S
O183 C199 1.249 1_554 S
O184 Eu132 2.335 . S
O184 C199 1.264 . S
O185 Eu143 2.432 . S
O185 C207 1.268 . S
O186 Eu143 2.291 . S
O186 C206 1.255 . S
O187 Eu132 2.372 1_554 S
O187 C206 1.257 . S
C188 O177 1.249 . S
C188 O178 1.264 . S
C189 C192 1.382 . S
C189 C194 1.390 . S
C189 C196 1.506 . S
C190 C191 1.398 . S
C190 C194 1.392 . S
C191 C190 1.398 . S
C191 C193 1.372 . S
C191 H208 0.931 . S
C192 C189 1.382 . S
C192 C193 1.390 . S
C192 H209 0.931 . S
C193 C191 1.372 . S
C193 C192 1.390 . S
C193 H210 0.929 . S
C194 C189 1.390 . S
C194 C190 1.392 . S
C194 H211 0.930 . S
C195 O180 1.255 . S
C195 O181 1.257 . S
C196 Eu132 2.787 . S
C196 O176 1.252 . S
C196 O179 1.268 . S
C196 C189 1.506 . S
C197 C164 1.439 . S
C197 H174 0.931 . S
C197 C198 1.374 . S
C198 C169 1.387 . S
C198 H175 0.931 . S
C198 C197 1.374 . S
C199 O183 1.249 1_556 S
C199 O184 1.264 . S
C200 C203 1.382 . S
C200 C204 1.390 . S
C200 C207 1.506 . S
C201 C202 1.398 . S
C201 C204 1.392 . S
C202 C201 1.398 . S
C202 C205 1.372 . S
C202 H212 0.931 . S
C203 C200 1.382 . S
C203 C205 1.390 . S
C203 H213 0.931 . S
C204 C200 1.390 . S
C204 C201 1.392 . S
C204 H214 0.930 . S
C205 C202 1.372 . S
C205 C203 1.390 . S
C205 H215 0.929 . S
C206 O186 1.255 . S
C206 O187 1.257 . S
C207 Eu143 2.787 . S
C207 O182 1.252 . S
C207 O185 1.268 . S
C207 C200 1.506 . S
H208 C191 0.931 . S
H209 C192 0.931 . S
H210 C193 0.929 . S
H211 C194 0.930 . S
H212 C202 0.931 . S
H213 C203 0.931 . S
H214 C204 0.930 . S
H215 C205 0.929 . S
H216 C234 0.951 . S
H217 C236 0.951 . S
H218 C238 0.950 . S
H219 C239 0.950 . S
H220 C241 0.950 . S
H221 C244 0.950 . S
H222 C245 0.950 . S
H223 C247 0.950 . S
H224 C248 0.950 . S
H225 C249 0.951 . S
H226 C251 0.951 . S
H227 C253 0.950 . S
H228 C254 0.950 . S
H229 C256 0.950 . S
H230 C259 0.950 . S
H231 C260 0.950 . S
H232 C262 0.950 . S
H233 C263 0.950 . S
C234 H216 0.951 . S
C234 C235 1.366 . S
C234 C236 1.388 . S
C235 C234 1.366 . S
C235 C239 1.385 . S
C236 H217 0.951 . S
C236 C234 1.388 . S
C236 C237 1.366 . S
C237 C236 1.366 . S
C237 C238 1.414 . S
C237 C240 1.499 . S
C238 H218 0.950 . S
C238 C237 1.414 . S
C238 C239 1.374 . S
C239 H219 0.950 . S
C239 C235 1.385 . S
C239 C238 1.374 . S
C240 C237 1.499 . S
C240 C241 1.373 . S
C240 C242 1.389 . S
C241 H220 0.950 . S
C241 C240 1.373 . S
C241 C257 1.377 . S
C242 C240 1.389 . S
C242 C243 1.524 . S
C242 C256 1.377 . S
C243 C242 1.524 . S
C243 C244 1.397 . S
C243 C248 1.363 . S
C244 H221 0.950 . S
C244 C243 1.397 . S
C244 C245 1.334 . S
C245 H222 0.950 . S
C245 C244 1.334 . S
C245 C246 1.287 . S
C246 C245 1.287 . S
C246 C247 1.524 . S
C246 H265 0.913 . S
C247 H223 0.950 . S
C247 C246 1.524 . S
C247 C248 1.415 . S
C248 H224 0.950 . S
C248 C243 1.363 . S
C248 C247 1.415 . S
C249 H225 0.951 . S
C249 C250 1.366 . S
C249 C251 1.388 . S
C250 C249 1.366 . S
C250 C254 1.385 . S
C251 H226 0.951 . S
C251 C249 1.388 . S
C251 C252 1.366 . S
C252 C251 1.366 . S
C252 C253 1.414 . S
C252 C255 1.499 . S
C253 H227 0.950 . S
C253 C252 1.414 . S
C253 C254 1.374 . S
C254 H228 0.950 . S
C254 C250 1.385 . S
C254 C253 1.374 . S
C255 C252 1.499 . S
C255 C256 1.373 . S
C255 C257 1.389 . S
C256 H229 0.950 . S
C256 C242 1.377 . S
C256 C255 1.373 . S
C257 C241 1.377 . S
C257 C255 1.389 . S
C257 C258 1.524 . S
C258 C257 1.524 . S
C258 C259 1.397 . S
C258 C263 1.363 . S
C259 H230 0.950 . S
C259 C258 1.397 . S
C259 C260 1.334 . S
C260 H231 0.950 . S
C260 C259 1.334 . S
C260 C261 1.287 . S
C261 C260 1.287 . S
C261 C262 1.524 . S
C261 H264 0.999 . S
C262 H232 0.950 . S
C262 C261 1.524 . S
C262 C263 1.415 . S
C263 H233 0.950 . S
C263 C258 1.363 . S
C263 C262 1.415 . S
H264 C261 0.999 . S
H265 C246 0.913 . S
H266 C284 0.951 . S
H267 C286 0.951 . S
H268 C288 0.950 . S
H269 C289 0.950 . S
H270 C291 0.950 . S
H271 C294 0.950 . S
H272 C295 0.950 . S
H273 C297 0.950 . S
H274 C298 0.950 . S
H275 C299 0.951 . S
H276 C301 0.951 . S
H277 C303 0.950 . S
H278 C304 0.950 . S
H279 C306 0.950 . S
H280 C309 0.950 . S
H281 C310 0.950 . S
H282 C312 0.950 . S
H283 C313 0.950 1_554 S
C284 H266 0.951 . S
C284 C285 1.366 . S
C284 C286 1.388 . S
C285 C284 1.366 . S
C285 C289 1.385 . S
C286 H267 0.951 . S
C286 C284 1.388 . S
C286 C287 1.366 . S
C287 C286 1.366 . S
C287 C288 1.414 . S
C287 C290 1.499 . S
C288 H268 0.950 . S
C288 C287 1.414 . S
C288 C289 1.374 . S
C289 H269 0.950 . S
C289 C285 1.385 . S
C289 C288 1.374 . S
C290 C287 1.499 . S
C290 C291 1.373 . S
C290 C292 1.389 . S
C291 H270 0.950 . S
C291 C290 1.373 . S
C291 C307 1.377 . S
C292 C290 1.389 . S
C292 C293 1.524 . S
C292 C306 1.377 . S
C293 C292 1.524 . S
C293 C294 1.397 . S
C293 C298 1.363 . S
C294 H271 0.950 . S
C294 C293 1.397 . S
C294 C295 1.334 . S
C295 H272 0.950 . S
C295 C294 1.334 . S
C295 C296 1.287 . S
C296 C295 1.287 . S
C296 C297 1.524 . S
C296 H315 0.913 . S
C297 H273 0.950 . S
C297 C296 1.524 . S
C297 C298 1.415 . S
C298 H274 0.950 . S
C298 C293 1.363 . S
C298 C297 1.415 . S
C299 H275 0.951 . S
C299 C300 1.366 . S
C299 C301 1.388 . S
C300 C299 1.366 . S
C300 C304 1.385 . S
C301 H276 0.951 . S
C301 C299 1.388 . S
C301 C302 1.366 . S
C302 C301 1.366 . S
C302 C303 1.414 . S
C302 C305 1.499 . S
C303 H277 0.950 . S
C303 C302 1.414 . S
C303 C304 1.374 . S
C304 H278 0.950 . S
C304 C300 1.385 . S
C304 C303 1.374 . S
C305 C302 1.499 . S
C305 C306 1.373 . S
C305 C307 1.389 . S
C306 H279 0.950 . S
C306 C292 1.377 . S
C306 C305 1.373 . S
C307 C291 1.377 . S
C307 C305 1.389 . S
C307 C308 1.524 1_554 S
C308 C307 1.524 1_556 S
C308 C309 1.397 . S
C308 C313 1.363 . S
C309 H280 0.950 . S
C309 C308 1.397 . S
C309 C310 1.334 . S
C310 H281 0.950 . S
C310 C309 1.334 . S
C310 C311 1.287 . S
C311 C310 1.287 . S
C311 C312 1.524 . S
C311 H314 0.999 . S
C312 H282 0.950 . S
C312 C311 1.524 . S
C312 C313 1.415 . S
C313 H283 0.950 1_556 S
C313 C308 1.363 . S
C313 C312 1.415 . S
H314 C311 0.999 . S
H315 C296 0.913 . S
H316 C334 0.951 . S
H317 C336 0.951 . S
H318 C338 0.950 . S
H319 C339 0.950 . S
H320 C341 0.950 . S
H321 C344 0.950 . S
H322 C345 0.950 . S
H323 C347 0.950 . S
H324 C348 0.950 . S
H325 C349 0.951 . S
H326 C351 0.951 . S
H327 C353 0.950 . S
H328 C354 0.950 . S
H329 C356 0.950 . S
H330 C359 0.950 . S
H331 C360 0.950 . S
H332 C362 0.950 . S
H333 C363 0.950 . S
C334 H316 0.951 . S
C334 C335 1.366 . S
C334 C336 1.388 . S
C335 C334 1.366 . S
C335 C339 1.385 . S
C336 H317 0.951 . S
C336 C334 1.388 . S
C336 C337 1.366 . S
C337 C336 1.366 . S
C337 C338 1.414 . S
C337 C340 1.499 . S
C338 H318 0.950 . S
C338 C337 1.414 . S
C338 C339 1.374 . S
C339 H319 0.950 . S
C339 C335 1.385 . S
C339 C338 1.374 . S
C340 C337 1.499 . S
C340 C341 1.373 . S
C340 C342 1.389 . S
C341 H320 0.950 . S
C341 C340 1.373 . S
C341 C357 1.377 . S
C342 C340 1.389 . S
C342 C343 1.524 . S
C342 C356 1.377 . S
C343 C342 1.524 . S
C343 C344 1.397 . S
C343 C348 1.363 . S
C344 H321 0.950 . S
C344 C343 1.397 . S
C344 C345 1.334 . S
C345 H322 0.950 . S
C345 C344 1.334 . S
C345 C346 1.287 . S
C346 C345 1.287 . S
C346 C347 1.524 . S
C346 H365 0.913 . S
C347 H323 0.950 . S
C347 C346 1.524 . S
C347 C348 1.415 . S
C348 H324 0.950 . S
C348 C343 1.363 . S
C348 C347 1.415 . S
C349 H325 0.951 . S
C349 C350 1.366 . S
C349 C351 1.388 . S
C350 C349 1.366 . S
C350 C354 1.385 . S
C351 H326 0.951 . S
C351 C349 1.388 . S
C351 C352 1.366 . S
C352 C351 1.366 . S
C352 C353 1.414 . S
C352 C355 1.499 . S
C353 H327 0.950 . S
C353 C352 1.414 . S
C353 C354 1.374 . S
C354 H328 0.950 . S
C354 C350 1.385 . S
C354 C353 1.374 . S
C355 C352 1.499 . S
C355 C356 1.373 . S
C355 C357 1.389 . S
C356 H329 0.950 . S
C356 C342 1.377 . S
C356 C355 1.373 . S
C357 C341 1.377 . S
C357 C355 1.389 . S
C357 C358 1.524 . S
C358 C357 1.524 . S
C358 C359 1.397 . S
C358 C363 1.363 . S
C359 H330 0.950 . S
C359 C358 1.397 . S
C359 C360 1.334 . S
C360 H331 0.950 . S
C360 C359 1.334 . S
C360 C361 1.287 . S
C361 C360 1.287 . S
C361 C362 1.524 . S
C361 H364 0.999 . S
C362 H332 0.950 . S
C362 C361 1.524 . S
C362 C363 1.415 . S
C363 H333 0.950 . S
C363 C358 1.363 . S
C363 C362 1.415 . S
H364 C361 0.999 . S
H365 C346 0.913 . S
H366 C384 0.951 . S
H367 C386 0.951 . S
H368 C388 0.950 . S
H369 C389 0.950 . S
H370 C391 0.950 . S
H371 C394 0.950 . S
H372 C395 0.950 . S
H373 C397 0.950 . S
H374 C398 0.950 . S
H375 C399 0.951 . S
H376 C401 0.951 . S
H377 C403 0.950 . S
H378 C404 0.950 . S
H379 C406 0.950 . S
H380 C409 0.950 . S
H381 C410 0.950 . S
H382 C412 0.950 . S
H383 C413 0.950 . S
C384 H366 0.951 . S
C384 C385 1.366 . S
C384 C386 1.388 . S
C385 C384 1.366 . S
C385 C389 1.385 . S
C386 H367 0.951 . S
C386 C384 1.388 . S
C386 C387 1.366 . S
C387 C386 1.366 . S
C387 C388 1.414 . S
C387 C390 1.499 . S
C388 H368 0.950 . S
C388 C387 1.414 . S
C388 C389 1.374 . S
C389 H369 0.950 . S
C389 C385 1.385 . S
C389 C388 1.374 . S
C390 C387 1.499 . S
C390 C391 1.373 1_554 S
C390 C392 1.389 . S
C391 H370 0.950 . S
C391 C390 1.373 1_556 S
C391 C407 1.377 . S
C392 C390 1.389 . S
C392 C393 1.524 . S
C392 C406 1.377 . S
C393 C392 1.524 . S
C393 C394 1.397 . S
C393 C398 1.363 . S
C394 H371 0.950 . S
C394 C393 1.397 . S
C394 C395 1.334 . S
C395 H372 0.950 . S
C395 C394 1.334 . S
C395 C396 1.287 . S
C396 C395 1.287 . S
C396 C397 1.524 . S
C396 H415 0.913 . S
C397 H373 0.950 . S
C397 C396 1.524 . S
C397 C398 1.415 . S
C398 H374 0.950 . S
C398 C393 1.363 . S
C398 C397 1.415 . S
C399 H375 0.951 . S
C399 C400 1.366 . S
C399 C401 1.388 . S
C400 C399 1.366 . S
C400 C404 1.385 . S
C401 H376 0.951 . S
C401 C399 1.388 . S
C401 C402 1.366 . S
C402 C401 1.366 . S
C402 C403 1.414 . S
C402 C405 1.499 . S
C403 H377 0.950 . S
C403 C402 1.414 . S
C403 C404 1.374 . S
C404 H378 0.950 . S
C404 C400 1.385 . S
C404 C403 1.374 . S
C405 C402 1.499 . S
C405 C406 1.373 . S
C405 C407 1.389 1_554 S
C406 H379 0.950 . S
C406 C392 1.377 . S
C406 C405 1.373 . S
C407 C391 1.377 . S
C407 C405 1.389 1_556 S
C407 C408 1.524 . S
C408 C407 1.524 . S
C408 C409 1.397 . S
C408 C413 1.363 . S
C409 H380 0.950 . S
C409 C408 1.397 . S
C409 C410 1.334 . S
C410 H381 0.950 . S
C410 C409 1.334 . S
C410 C411 1.287 . S
C411 C410 1.287 . S
C411 C412 1.524 . S
C411 H414 0.999 . S
C412 H382 0.950 . S
C412 C411 1.524 . S
C412 C413 1.415 . S
C413 H383 0.950 . S
C413 C408 1.363 . S
C413 C412 1.415 . S
H414 C411 0.999 . S
H415 C396 0.913 . S
H416 C434 0.951 . S
H417 C436 0.951 . S
H418 C438 0.950 . S
H419 C439 0.950 . S
H420 C441 0.950 . S
H421 C444 0.950 . S
H422 C445 0.950 . S
H423 C447 0.950 . S
H424 C448 0.950 . S
H425 C449 0.951 . S
H426 C451 0.951 . S
H427 C453 0.950 . S
H428 C454 0.950 . S
H429 C456 0.950 . S
H430 C459 0.950 . S
H431 C460 0.950 . S
H432 C462 0.950 . S
H433 C463 0.950 . S
C434 H416 0.951 . S
C434 C435 1.366 . S
C434 C436 1.388 . S
C435 C434 1.366 . S
C435 C439 1.385 . S
C436 H417 0.951 . S
C436 C434 1.388 . S
C436 C437 1.366 . S
C437 C436 1.366 . S
C437 C438 1.414 . S
C437 C440 1.499 . S
C438 H418 0.950 . S
C438 C437 1.414 . S
C438 C439 1.374 . S
C439 H419 0.950 . S
C439 C435 1.385 . S
C439 C438 1.374 . S
C440 C437 1.499 . S
C440 C441 1.373 . S
C440 C442 1.389 . S
C441 H420 0.950 . S
C441 C440 1.373 . S
C441 C457 1.377 . S
C442 C440 1.389 . S
C442 C443 1.524 . S
C442 C456 1.377 . S
C443 C442 1.524 . S
C443 C444 1.397 . S
C443 C448 1.363 . S
C444 H421 0.950 . S
C444 C443 1.397 . S
C444 C445 1.334 . S
C445 H422 0.950 . S
C445 C444 1.334 . S
C445 C446 1.287 . S
C446 C445 1.287 . S
C446 C447 1.524 . S
C446 H465 0.913 . S
C447 H423 0.950 . S
C447 C446 1.524 . S
C447 C448 1.415 . S
C448 H424 0.950 . S
C448 C443 1.363 . S
C448 C447 1.415 . S
C449 H425 0.951 . S
C449 C450 1.366 . S
C449 C451 1.388 . S
C450 C449 1.366 . S
C450 C454 1.385 . S
C451 H426 0.951 . S
C451 C449 1.388 . S
C451 C452 1.366 . S
C452 C451 1.366 . S
C452 C453 1.414 . S
C452 C455 1.499 . S
C453 H427 0.950 . S
C453 C452 1.414 . S
C453 C454 1.374 . S
C454 H428 0.950 . S
C454 C450 1.385 . S
C454 C453 1.374 . S
C455 C452 1.499 . S
C455 C456 1.373 . S
C455 C457 1.389 . S
C456 H429 0.950 . S
C456 C442 1.377 . S
C456 C455 1.373 . S
C457 C441 1.377 . S
C457 C455 1.389 . S
C457 C458 1.524 . S
C458 C457 1.524 . S
C458 C459 1.397 . S
C458 C463 1.363 . S
C459 H430 0.950 . S
C459 C458 1.397 . S
C459 C460 1.334 1_565 S
C460 H431 0.950 . S
C460 C459 1.334 1_545 S
C460 C461 1.287 1_545 S
C461 C460 1.287 1_565 S
C461 C462 1.524 . S
C461 H464 0.999 1_565 S
C462 H432 0.950 . S
C462 C461 1.524 . S
C462 C463 1.415 . S
C463 H433 0.950 . S
C463 C458 1.363 . S
C463 C462 1.415 . S
H464 C461 0.999 1_545 S
H465 C446 0.913 . S
H466 C484 0.951 . S
H467 C486 0.951 . S
H468 C488 0.950 . S
H469 C489 0.950 . S
H470 C491 0.950 . S
H471 C494 0.950 . S
H472 C495 0.950 . S
H473 C497 0.950 . S
H474 C498 0.950 . S
H475 C499 0.951 . S
H476 C501 0.951 . S
H477 C503 0.950 . S
H478 C504 0.950 . S
H479 C506 0.950 . S
H480 C509 0.950 . S
H481 C510 0.950 . S
H482 C512 0.950 . S
H483 C513 0.950 . S
C484 H466 0.951 . S
C484 C485 1.366 . S
C484 C486 1.388 . S
C485 C484 1.366 . S
C485 C489 1.385 . S
C486 H467 0.951 . S
C486 C484 1.388 . S
C486 C487 1.366 . S
C487 C486 1.366 . S
C487 C488 1.414 . S
C487 C490 1.499 . S
C488 H468 0.950 . S
C488 C487 1.414 . S
C488 C489 1.374 . S
C489 H469 0.950 . S
C489 C485 1.385 . S
C489 C488 1.374 . S
C490 C487 1.499 . S
C490 C491 1.373 . S
C490 C492 1.389 . S
C491 H470 0.950 . S
C491 C490 1.373 . S
C491 C507 1.377 . S
C492 C490 1.389 . S
C492 C493 1.524 . S
C492 C506 1.377 . S
C493 C492 1.524 . S
C493 C494 1.397 . S
C493 C498 1.363 . S
C494 H471 0.950 . S
C494 C493 1.397 . S
C494 C495 1.334 . S
C495 H472 0.950 . S
C495 C494 1.334 . S
C495 C496 1.287 . S
C496 C495 1.287 . S
C496 C497 1.524 . S
C496 H515 0.913 . S
C497 H473 0.950 . S
C497 C496 1.524 . S
C497 C498 1.415 . S
C498 H474 0.950 . S
C498 C493 1.363 . S
C498 C497 1.415 . S
C499 H475 0.951 . S
C499 C500 1.366 . S
C499 C501 1.388 . S
C500 C499 1.366 . S
C500 C504 1.385 . S
C501 H476 0.951 . S
C501 C499 1.388 . S
C501 C502 1.366 . S
C502 C501 1.366 . S
C502 C503 1.414 . S
C502 C505 1.499 . S
C503 H477 0.950 . S
C503 C502 1.414 . S
C503 C504 1.374 . S
C504 H478 0.950 . S
C504 C500 1.385 . S
C504 C503 1.374 . S
C505 C502 1.499 . S
C505 C506 1.373 . S
C505 C507 1.389 . S
C506 H479 0.950 . S
C506 C492 1.377 . S
C506 C505 1.373 . S
C507 C491 1.377 . S
C507 C505 1.389 . S
C507 C508 1.524 . S
C508 C507 1.524 . S
C508 C509 1.397 . S
C508 C513 1.363 . S
C509 H480 0.950 . S
C509 C508 1.397 . S
C509 C510 1.334 . S
C510 H481 0.950 . S
C510 C509 1.334 . S
C510 C511 1.287 . S
C511 C510 1.287 . S
C511 C512 1.524 . S
C511 H514 0.999 . S
C512 H482 0.950 . S
C512 C511 1.524 . S
C512 C513 1.415 . S
C513 H483 0.950 . S
C513 C508 1.363 . S
C513 C512 1.415 . S
H514 C511 0.999 . S
H515 C496 0.913 . S
H516 C534 0.951 . S
H517 C536 0.951 . S
H518 C538 0.950 . S
H519 C539 0.950 . S
H520 C541 0.950 . S
H521 C544 0.950 . S
H522 C545 0.950 . S
H523 C547 0.950 . S
H524 C548 0.950 . S
H525 C549 0.951 . S
H526 C551 0.951 . S
H527 C553 0.950 . S
H528 C554 0.950 . S
H529 C556 0.950 . S
H530 C559 0.950 . S
H531 C560 0.950 . S
H532 C562 0.950 . S
H533 C563 0.950 . S
C534 H516 0.951 . S
C534 C535 1.366 . S
C534 C536 1.388 . S
C535 C534 1.366 . S
C535 C539 1.385 . S
C536 H517 0.951 . S
C536 C534 1.388 . S
C536 C537 1.366 . S
C537 C536 1.366 . S
C537 C538 1.414 . S
C537 C540 1.499 . S
C538 H518 0.950 . S
C538 C537 1.414 . S
C538 C539 1.374 . S
C539 H519 0.950 . S
C539 C535 1.385 . S
C539 C538 1.374 . S
C540 C537 1.499 . S
C540 C541 1.373 . S
C540 C542 1.389 . S
C541 H520 0.950 . S
C541 C540 1.373 . S
C541 C557 1.377 . S
C542 C540 1.389 . S
C542 C543 1.524 . S
C542 C556 1.377 . S
C543 C542 1.524 . S
C543 C544 1.397 . S
C543 C548 1.363 . S
C544 H521 0.950 . S
C544 C543 1.397 . S
C544 C545 1.334 . S
C545 H522 0.950 . S
C545 C544 1.334 . S
C545 C546 1.287 1_545 S
C546 C545 1.287 1_565 S
C546 C547 1.524 . S
C546 H565 0.913 . S
C547 H523 0.950 . S
C547 C546 1.524 . S
C547 C548 1.415 1_565 S
C548 H524 0.950 . S
C548 C543 1.363 . S
C548 C547 1.415 1_545 S
C549 H525 0.951 . S
C549 C550 1.366 . S
C549 C551 1.388 . S
C550 C549 1.366 . S
C550 C554 1.385 . S
C551 H526 0.951 . S
C551 C549 1.388 . S
C551 C552 1.366 . S
C552 C551 1.366 . S
C552 C553 1.414 . S
C552 C555 1.499 . S
C553 H527 0.950 . S
C553 C552 1.414 . S
C553 C554 1.374 . S
C554 H528 0.950 . S
C554 C550 1.385 . S
C554 C553 1.374 . S
C555 C552 1.499 . S
C555 C556 1.373 . S
C555 C557 1.389 . S
C556 H529 0.950 . S
C556 C542 1.377 . S
C556 C555 1.373 . S
C557 C541 1.377 . S
C557 C555 1.389 . S
C557 C558 1.524 . S
C558 C557 1.524 . S
C558 C559 1.397 . S
C558 C563 1.363 . S
C559 H530 0.950 . S
C559 C558 1.397 . S
C559 C560 1.334 . S
C560 H531 0.950 . S
C560 C559 1.334 . S
C560 C561 1.287 . S
C561 C560 1.287 . S
C561 C562 1.524 . S
C561 H564 0.999 . S
C562 H532 0.950 . S
C562 C561 1.524 . S
C562 C563 1.415 . S
C563 H533 0.950 . S
C563 C558 1.363 . S
C563 C562 1.415 . S
H564 C561 0.999 . S
H565 C546 0.913 . S
H566 C584 0.951 . S
H567 C586 0.951 . S
H568 C588 0.950 . S
H569 C589 0.950 . S
H570 C591 0.950 . S
H571 C594 0.950 . S
H572 C595 0.950 . S
H573 C597 0.950 . S
H574 C598 0.950 . S
H575 C599 0.951 . S
H576 C601 0.951 . S
H577 C603 0.950 . S
H578 C604 0.950 . S
H579 C606 0.950 . S
H580 C609 0.950 . S
H581 C610 0.950 . S
H582 C612 0.950 . S
H583 C613 0.950 . S
C584 H566 0.951 . S
C584 C585 1.366 . S
C584 C586 1.388 . S
C585 C584 1.366 . S
C585 C589 1.385 . S
C586 H567 0.951 . S
C586 C584 1.388 . S
C586 C587 1.366 . S
C587 C586 1.366 . S
C587 C588 1.414 . S
C587 C590 1.499 . S
C588 H568 0.950 . S
C588 C587 1.414 . S
C588 C589 1.374 . S
C589 H569 0.950 . S
C589 C585 1.385 . S
C589 C588 1.374 . S
C590 C587 1.499 . S
C590 C591 1.373 . S
C590 C592 1.389 . S
C591 H570 0.950 . S
C591 C590 1.373 . S
C591 C607 1.377 . S
C592 C590 1.389 . S
C592 C593 1.524 . S
C592 C606 1.377 . S
C593 C592 1.524 . S
C593 C594 1.397 . S
C593 C598 1.363 . S
C594 H571 0.950 . S
C594 C593 1.397 . S
C594 C595 1.334 . S
C595 H572 0.950 . S
C595 C594 1.334 . S
C595 C596 1.287 . S
C596 C595 1.287 . S
C596 C597 1.524 . S
C596 H615 0.913 . S
C597 H573 0.950 . S
C597 C596 1.524 . S
C597 C598 1.415 . S
C598 H574 0.950 . S
C598 C593 1.363 . S
C598 C597 1.415 . S
C599 H575 0.951 . S
C599 C600 1.366 . S
C599 C601 1.388 . S
C600 C599 1.366 . S
C600 C604 1.385 . S
C601 H576 0.951 . S
C601 C599 1.388 . S
C601 C602 1.366 . S
C602 C601 1.366 . S
C602 C603 1.414 . S
C602 C605 1.499 . S
C603 H577 0.950 . S
C603 C602 1.414 . S
C603 C604 1.374 . S
C604 H578 0.950 . S
C604 C600 1.385 . S
C604 C603 1.374 . S
C605 C602 1.499 . S
C605 C606 1.373 . S
C605 C607 1.389 . S
C606 H579 0.950 . S
C606 C592 1.377 . S
C606 C605 1.373 . S
C607 C591 1.377 . S
C607 C605 1.389 . S
C607 C608 1.524 . S
C608 C607 1.524 . S
C608 C609 1.397 . S
C608 C613 1.363 . S
C609 H580 0.950 . S
C609 C608 1.397 . S
C609 C610 1.334 . S
C610 H581 0.950 . S
C610 C609 1.334 . S
C610 C611 1.287 . S
C611 C610 1.287 . S
C611 C612 1.524 . S
C611 H614 0.999 . S
C612 H582 0.950 . S
C612 C611 1.524 . S
C612 C613 1.415 . S
C613 H583 0.950 . S
C613 C608 1.363 . S
C613 C612 1.415 . S
H614 C611 0.999 . S
H615 C596 0.913 . S
H616 C634 0.951 . S
H617 C636 0.951 . S
H618 C638 0.950 . S
H619 C639 0.950 . S
H620 C641 0.950 . S
H621 C644 0.950 . S
H622 C645 0.950 . S
H623 C647 0.950 . S
H624 C648 0.950 . S
H625 C649 0.951 . S
H626 C651 0.951 . S
H627 C653 0.950 . S
H628 C654 0.950 . S
H629 C656 0.950 . S
H630 C659 0.950 . S
H631 C660 0.950 . S
H632 C662 0.950 . S
H633 C663 0.950 . S
C634 H616 0.951 . S
C634 C635 1.366 . S
C634 C636 1.388 . S
C635 C634 1.366 . S
C635 C639 1.385 . S
C636 H617 0.951 . S
C636 C634 1.388 . S
C636 C637 1.366 . S
C637 C636 1.366 . S
C637 C638 1.414 . S
C637 C640 1.499 . S
C638 H618 0.950 . S
C638 C637 1.414 . S
C638 C639 1.374 . S
C639 H619 0.950 . S
C639 C635 1.385 . S
C639 C638 1.374 . S
C640 C637 1.499 . S
C640 C641 1.373 . S
C640 C642 1.389 . S
C641 H620 0.950 . S
C641 C640 1.373 . S
C641 C657 1.377 . S
C642 C640 1.389 . S
C642 C643 1.524 . S
C642 C656 1.377 . S
C643 C642 1.524 . S
C643 C644 1.397 . S
C643 C648 1.363 . S
C644 H621 0.950 . S
C644 C643 1.397 . S
C644 C645 1.334 . S
C645 H622 0.950 . S
C645 C644 1.334 . S
C645 C646 1.287 . S
C646 C645 1.287 . S
C646 C647 1.524 . S
C646 H665 0.913 . S
C647 H623 0.950 . S
C647 C646 1.524 . S
C647 C648 1.415 . S
C648 H624 0.950 . S
C648 C643 1.363 . S
C648 C647 1.415 . S
C649 H625 0.951 . S
C649 C650 1.366 . S
C649 C651 1.388 . S
C650 C649 1.366 . S
C650 C654 1.385 . S
C651 H626 0.951 . S
C651 C649 1.388 . S
C651 C652 1.366 . S
C652 C651 1.366 . S
C652 C653 1.414 . S
C652 C655 1.499 . S
C653 H627 0.950 . S
C653 C652 1.414 . S
C653 C654 1.374 . S
C654 H628 0.950 . S
C654 C650 1.385 . S
C654 C653 1.374 . S
C655 C652 1.499 . S
C655 C656 1.373 . S
C655 C657 1.389 . S
C656 H629 0.950 . S
C656 C642 1.377 . S
C656 C655 1.373 . S
C657 C641 1.377 . S
C657 C655 1.389 . S
C657 C658 1.524 . S
C658 C657 1.524 . S
C658 C659 1.397 . S
C658 C663 1.363 . S
C659 H630 0.950 . S
C659 C658 1.397 . S
C659 C660 1.334 . S
C660 H631 0.950 . S
C660 C659 1.334 . S
C660 C661 1.287 . S
C661 C660 1.287 . S
C661 C662 1.524 . S
C661 H664 0.999 . S
C662 H632 0.950 . S
C662 C661 1.524 . S
C662 C663 1.415 . S
C663 H633 0.950 . S
C663 C658 1.363 . S
C663 C662 1.415 . S
H664 C661 0.999 . S
H665 C646 0.913 . S
H666 C684 0.951 . S
H667 C686 0.951 . S
H668 C688 0.950 . S
H669 C689 0.950 . S
H670 C691 0.950 . S
H671 C694 0.950 . S
H672 C695 0.950 . S
H673 C697 0.950 . S
H674 C698 0.950 . S
H675 C699 0.951 . S
H676 C701 0.951 . S
H677 C703 0.950 . S
H678 C704 0.950 . S
H679 C706 0.950 . S
H680 C709 0.950 . S
H681 C710 0.950 . S
H682 C712 0.950 . S
H683 C713 0.950 . S
C684 H666 0.951 . S
C684 C685 1.366 . S
C684 C686 1.388 . S
C685 C684 1.366 . S
C685 C689 1.385 . S
C686 H667 0.951 . S
C686 C684 1.388 . S
C686 C687 1.366 . S
C687 C686 1.366 . S
C687 C688 1.414 . S
C687 C690 1.499 . S
C688 H668 0.950 . S
C688 C687 1.414 . S
C688 C689 1.374 . S
C689 H669 0.950 . S
C689 C685 1.385 . S
C689 C688 1.374 . S
C690 C687 1.499 . S
C690 C691 1.373 . S
C690 C692 1.389 . S
C691 H670 0.950 . S
C691 C690 1.373 . S
C691 C707 1.377 . S
C692 C690 1.389 . S
C692 C693 1.524 . S
C692 C706 1.377 . S
C693 C692 1.524 . S
C693 C694 1.397 . S
C693 C698 1.363 . S
C694 H671 0.950 . S
C694 C693 1.397 . S
C694 C695 1.334 . S
C695 H672 0.950 . S
C695 C694 1.334 . S
C695 C696 1.287 . S
C696 C695 1.287 . S
C696 C697 1.524 . S
C696 H715 0.913 . S
C697 H673 0.950 . S
C697 C696 1.524 . S
C697 C698 1.415 . S
C698 H674 0.950 . S
C698 C693 1.363 . S
C698 C697 1.415 . S
C699 H675 0.951 . S
C699 C700 1.366 . S
C699 C701 1.388 . S
C700 C699 1.366 . S
C700 C704 1.385 . S
C701 H676 0.951 . S
C701 C699 1.388 . S
C701 C702 1.366 . S
C702 C701 1.366 . S
C702 C703 1.414 . S
C702 C705 1.499 . S
C703 H677 0.950 . S
C703 C702 1.414 . S
C703 C704 1.374 . S
C704 H678 0.950 . S
C704 C700 1.385 . S
C704 C703 1.374 . S
C705 C702 1.499 . S
C705 C706 1.373 . S
C705 C707 1.389 . S
C706 H679 0.950 . S
C706 C692 1.377 . S
C706 C705 1.373 . S
C707 C691 1.377 . S
C707 C705 1.389 . S
C707 C708 1.524 . S
C708 C707 1.524 . S
C708 C709 1.397 . S
C708 C713 1.363 . S
C709 H680 0.950 . S
C709 C708 1.397 . S
C709 C710 1.334 . S
C710 H681 0.950 . S
C710 C709 1.334 . S
C710 C711 1.287 1_545 S
C711 C710 1.287 1_565 S
C711 C712 1.524 . S
C711 H714 0.999 . S
C712 H682 0.950 . S
C712 C711 1.524 . S
C712 C713 1.415 1_565 S
C713 H683 0.950 . S
C713 C708 1.363 . S
C713 C712 1.415 1_545 S
H714 C711 0.999 . S
H715 C696 0.913 . S
H716 C734 0.951 . S
H717 C736 0.951 . S
H718 C738 0.950 . S
H719 C739 0.950 . S
H720 C741 0.950 . S
H721 C744 0.950 . S
H722 C745 0.950 . S
H723 C747 0.950 . S
H724 C748 0.950 . S
H725 C749 0.951 . S
H726 C751 0.951 . S
H727 C753 0.950 . S
H728 C754 0.950 . S
H729 C756 0.950 . S
H730 C759 0.950 . S
H731 C760 0.950 . S
H732 C762 0.950 . S
H733 C763 0.950 . S
C734 H716 0.951 . S
C734 C735 1.366 . S
C734 C736 1.388 . S
C735 C734 1.366 . S
C735 C739 1.385 . S
C736 H717 0.951 . S
C736 C734 1.388 . S
C736 C737 1.366 . S
C737 C736 1.366 . S
C737 C738 1.414 . S
C737 C740 1.499 . S
C738 H718 0.950 . S
C738 C737 1.414 . S
C738 C739 1.374 . S
C739 H719 0.950 . S
C739 C735 1.385 . S
C739 C738 1.374 . S
C740 C737 1.499 . S
C740 C741 1.373 . S
C740 C742 1.389 . S
C741 H720 0.950 . S
C741 C740 1.373 . S
C741 C757 1.377 . S
C742 C740 1.389 . S
C742 C743 1.524 . S
C742 C756 1.377 . S
C743 C742 1.524 . S
C743 C744 1.397 . S
C743 C748 1.363 . S
C744 H721 0.950 . S
C744 C743 1.397 . S
C744 C745 1.334 . S
C745 H722 0.950 . S
C745 C744 1.334 . S
C745 C746 1.287 . S
C746 C745 1.287 . S
C746 C747 1.524 . S
C746 H765 0.913 . S
C747 H723 0.950 . S
C747 C746 1.524 . S
C747 C748 1.415 . S
C748 H724 0.950 . S
C748 C743 1.363 . S
C748 C747 1.415 . S
C749 H725 0.951 . S
C749 C750 1.366 . S
C749 C751 1.388 . S
C750 C749 1.366 . S
C750 C754 1.385 . S
C751 H726 0.951 . S
C751 C749 1.388 . S
C751 C752 1.366 . S
C752 C751 1.366 . S
C752 C753 1.414 . S
C752 C755 1.499 . S
C753 H727 0.950 . S
C753 C752 1.414 . S
C753 C754 1.374 . S
C754 H728 0.950 . S
C754 C750 1.385 . S
C754 C753 1.374 . S
C755 C752 1.499 . S
C755 C756 1.373 . S
C755 C757 1.389 . S
C756 H729 0.950 . S
C756 C742 1.377 . S
C756 C755 1.373 . S
C757 C741 1.377 . S
C757 C755 1.389 . S
C757 C758 1.524 . S
C758 C757 1.524 . S
C758 C759 1.397 . S
C758 C763 1.363 . S
C759 H730 0.950 . S
C759 C758 1.397 . S
C759 C760 1.334 . S
C760 H731 0.950 . S
C760 C759 1.334 . S
C760 C761 1.287 . S
C761 C760 1.287 . S
C761 C762 1.524 . S
C761 H764 0.999 . S
C762 H732 0.950 . S
C762 C761 1.524 . S
C762 C763 1.415 . S
C763 H733 0.950 . S
C763 C758 1.363 . S
C763 C762 1.415 . S
H764 C761 0.999 . S
H765 C746 0.913 . S
H766 C784 0.951 . S
H767 C786 0.951 . S
H768 C788 0.950 . S
H769 C789 0.950 . S
H770 C791 0.950 . S
H771 C794 0.950 . S
H772 C795 0.950 . S
H773 C797 0.950 . S
H774 C798 0.950 . S
H775 C799 0.951 . S
H776 C801 0.951 . S
H777 C803 0.950 . S
H778 C804 0.950 . S
H779 C806 0.950 . S
H780 C809 0.950 . S
H781 C810 0.950 . S
H782 C812 0.950 . S
H783 C813 0.965 . S
C784 H766 0.951 . S
C784 C785 1.366 . S
C784 C786 1.388 . S
C785 C784 1.366 . S
C785 C789 1.385 . S
C786 H767 0.951 . S
C786 C784 1.388 . S
C786 C787 1.366 . S
C787 C786 1.366 . S
C787 C788 1.414 . S
C787 C790 1.499 . S
C788 H768 0.950 . S
C788 C787 1.414 . S
C788 C789 1.374 . S
C789 H769 0.950 . S
C789 C785 1.385 . S
C789 C788 1.374 . S
C790 C787 1.499 . S
C790 C791 1.373 . S
C790 C792 1.389 . S
C791 H770 0.950 . S
C791 C790 1.373 . S
C791 C807 1.377 . S
C792 C790 1.389 . S
C792 C793 1.524 . S
C792 C806 1.377 . S
C793 C792 1.524 . S
C793 C794 1.397 . S
C793 C798 1.363 . S
C794 H771 0.950 . S
C794 C793 1.397 . S
C794 C795 1.334 . S
C795 H772 0.950 . S
C795 C794 1.334 . S
C795 C796 1.287 . S
C796 C795 1.287 . S
C796 C797 1.524 . S
C796 H815 0.913 . S
C797 H773 0.950 . S
C797 C796 1.524 . S
C797 C798 1.415 . S
C798 H774 0.950 . S
C798 C793 1.363 . S
C798 C797 1.415 . S
C799 H775 0.951 . S
C799 C800 1.366 . S
C799 C801 1.388 . S
C800 C799 1.366 . S
C800 C804 1.385 . S
C801 H776 0.951 . S
C801 C799 1.388 . S
C801 C802 1.366 . S
C802 C801 1.366 . S
C802 C803 1.414 . S
C802 C805 1.499 . S
C803 H777 0.950 . S
C803 C802 1.414 . S
C803 C804 1.374 . S
C804 H778 0.950 . S
C804 C800 1.385 . S
C804 C803 1.374 . S
C805 C802 1.499 . S
C805 C806 1.373 . S
C805 C807 1.389 . S
C806 H779 0.950 . S
C806 C792 1.377 . S
C806 C805 1.373 . S
C807 C791 1.377 . S
C807 C805 1.389 . S
C807 C808 1.524 . S
C808 C807 1.524 . S
C808 C809 1.397 1_565 S
C808 C813 1.370 . S
C809 H780 0.950 . S
C809 C808 1.397 1_545 S
C809 C810 1.334 . S
C810 H781 0.950 . S
C810 C809 1.334 . S
C810 C811 1.287 . S
C811 C810 1.287 . S
C811 C812 1.524 . S
C811 H814 0.999 . S
C812 H782 0.950 . S
C812 C811 1.524 . S
C812 C813 1.394 1_545 S
C813 H783 0.965 . S
C813 C808 1.370 . S
C813 C812 1.394 1_565 S
H814 C811 0.999 . S
H815 C796 0.913 . S
C250 C111 1.682 . S
C235 C40 1.690 . S
C285 C4 1.692 . S
C300 C206 1.672 . S
C335 C16 1.691 . S
C350 C122 1.698 . S
C385 C28 1.662 . S
C400 C195 1.659 . S
C450 C106 1.466 . S
C435 C9 1.633 . S
C500 C199 1.734 . S
C485 C18 1.735 . S
C535 C33 1.654 . S
C550 C115 1.666 . S
C585 C45 1.625 . S
C600 C190 1.458 . S
C650 C201 1.413 . S
C635 C21 1.579 . S
C700 C117 1.412 . S
C685 C30 1.584 . S
C750 C188 1.658 . S
C735 C42 1.650 . S
C785 C6 1.587 . S
C800 C104 1.598 . S
