# Generated by pormake.
# Topology pto, (3,4)-cn, num edge types: 1
# Building blocks:
#     Node 0, Type 0, BuildingBlock: OLANEW_clean_sbu_2, # of connection points: 3
#     Node 1, Type 0, BuildingBlock: OLANEW_clean_sbu_2, # of connection points: 3
#     Node 2, Type 0, BuildingBlock: OLANEW_clean_sbu_2, # of connection points: 3
#     Node 3, Type 0, BuildingBlock: OLANEW_clean_sbu_2, # of connection points: 3
#     Node 4, Type 0, BuildingBlock: OLANEW_clean_sbu_2, # of connection points: 3
#     Node 5, Type 0, BuildingBlock: OLANEW_clean_sbu_2, # of connection points: 3
#     Node 6, Type 0, BuildingBlock: OLANEW_clean_sbu_2, # of connection points: 3
#     Node 7, Type 0, BuildingBlock: OLANEW_clean_sbu_2, # of connection points: 3
#     Node 8, Type 1, BuildingBlock: MIFKUJ_clean_linker_1, # of connection points: 4
#     Node 9, Type 1, BuildingBlock: MIFKUJ_clean_linker_1, # of connection points: 4
#     Node 10, Type 1, BuildingBlock: MIFKUJ_clean_linker_1, # of connection points: 4
#     Node 11, Type 1, BuildingBlock: MIFKUJ_clean_linker_1, # of connection points: 4
#     Node 12, Type 1, BuildingBlock: MIFKUJ_clean_linker_1, # of connection points: 4
#     Node 13, Type 1, BuildingBlock: MIFKUJ_clean_linker_1, # of connection points: 4
#     Edge 14, Type (0, 1), BuildingBlock: OJICUG_clean_linker_0, # of connection points: 2
#     Edge 15, Type (0, 1), BuildingBlock: OJICUG_clean_linker_0, # of connection points: 2
#     Edge 16, Type (0, 1), BuildingBlock: OJICUG_clean_linker_0, # of connection points: 2
#     Edge 17, Type (0, 1), BuildingBlock: OJICUG_clean_linker_0, # of connection points: 2
#     Edge 18, Type (0, 1), BuildingBlock: OJICUG_clean_linker_0, # of connection points: 2
#     Edge 19, Type (0, 1), BuildingBlock: OJICUG_clean_linker_0, # of connection points: 2
#     Edge 20, Type (0, 1), BuildingBlock: OJICUG_clean_linker_0, # of connection points: 2
#     Edge 21, Type (0, 1), BuildingBlock: OJICUG_clean_linker_0, # of connection points: 2
#     Edge 22, Type (0, 1), BuildingBlock: OJICUG_clean_linker_0, # of connection points: 2
#     Edge 23, Type (0, 1), BuildingBlock: OJICUG_clean_linker_0, # of connection points: 2
#     Edge 24, Type (0, 1), BuildingBlock: OJICUG_clean_linker_0, # of connection points: 2
#     Edge 25, Type (0, 1), BuildingBlock: OJICUG_clean_linker_0, # of connection points: 2
#     Edge 26, Type (0, 1), BuildingBlock: OJICUG_clean_linker_0, # of connection points: 2
#     Edge 27, Type (0, 1), BuildingBlock: OJICUG_clean_linker_0, # of connection points: 2
#     Edge 28, Type (0, 1), BuildingBlock: OJICUG_clean_linker_0, # of connection points: 2
#     Edge 29, Type (0, 1), BuildingBlock: OJICUG_clean_linker_0, # of connection points: 2
#     Edge 30, Type (0, 1), BuildingBlock: OJICUG_clean_linker_0, # of connection points: 2
#     Edge 31, Type (0, 1), BuildingBlock: OJICUG_clean_linker_0, # of connection points: 2
#     Edge 32, Type (0, 1), BuildingBlock: OJICUG_clean_linker_0, # of connection points: 2
#     Edge 33, Type (0, 1), BuildingBlock: OJICUG_clean_linker_0, # of connection points: 2
#     Edge 34, Type (0, 1), BuildingBlock: OJICUG_clean_linker_0, # of connection points: 2
#     Edge 35, Type (0, 1), BuildingBlock: OJICUG_clean_linker_0, # of connection points: 2
#     Edge 36, Type (0, 1), BuildingBlock: OJICUG_clean_linker_0, # of connection points: 2
#     Edge 37, Type (0, 1), BuildingBlock: OJICUG_clean_linker_0, # of connection points: 2
# Relax obj value: 0.009
# Max RMSD: 0.120
# Mean RMSD: 0.052
data_MOF--net-pto--node1-OLANEW_clean_sbu_2--node2-MIFKUJ_clean_linker_1--edge1-OJICUG_clean_linker_0
_symmetry_space_group_name_H-M    P1
_symmetry_Int_Tables_number       1
_symmetry_cell_setting            triclinic
loop_
_symmetry_equiv_pos_as_xyz
'x, y, z'
_cell_length_a     30.949095
_cell_length_b     48.761606
_cell_length_c     39.54967
_cell_angle_alpha  92.617563
_cell_angle_beta   89.672711
_cell_angle_gamma 106.64192
loop_
_atom_site_label
_atom_site_type_symbol
_atom_site_fract_x
_atom_site_fract_y
_atom_site_fract_z
_atom_type_partial_charge
O0 O 0.34845 0.34837 0.27723 0.0
Cd1 Cd 0.31509 0.35367 0.33227 0.0
O2 O 0.39631 0.39152 0.28125 0.0
Cd3 Cd 0.35884 0.40431 0.32307 0.0
O4 O 0.30458 0.42037 0.34364 0.0
C5 C 0.28077 0.42746 0.32141 0.0
O6 O 0.29055 0.42446 0.28932 0.0
C7 C 0.38203 0.36719 0.26568 0.0
C8 C 0.33307 0.31395 0.37438 0.0
O9 O 0.296 0.30822 0.35759 0.0
O10 O 0.36128 0.33877 0.37185 0.0
O11 O 0.3212 0.90692 0.79005 0.0
Cd12 Cd 0.26206 0.90967 0.75107 0.0
O13 O 0.29347 0.86132 0.77782 0.0
Cd14 Cd 0.28197 0.81502 0.77473 0.0
O15 O 0.24279 0.77228 0.7568 0.0
C16 C 0.21041 0.75807 0.77451 0.0
O17 O 0.20307 0.76874 0.80437 0.0
C18 C 0.32199 0.88143 0.79428 0.0
C19 C 0.29343 0.94935 0.7019 0.0
O20 O 0.27801 0.95641 0.73011 0.0
O21 O 0.29436 0.92336 0.69696 0.0
O22 O 0.7733 0.77917 0.36055 0.0
Cd23 Cd 0.74945 0.73552 0.32434 0.0
O24 O 0.8158 0.80495 0.32202 0.0
Cd25 Cd 0.78976 0.77407 0.28016 0.0
O26 O 0.75464 0.77368 0.23234 0.0
C27 C 0.76521 0.79773 0.21853 0.0
O28 O 0.79668 0.8191 0.23289 0.0
C29 C 0.80107 0.80251 0.35212 0.0
C30 C 0.80176 0.69892 0.33653 0.0
O31 O 0.81105 0.71607 0.31217 0.0
O32 O 0.76766 0.69899 0.35502 0.0
O33 O 0.74731 0.30996 0.56778 0.0
Cd34 Cd 0.6934 0.26533 0.54732 0.0
O35 O 0.71864 0.30161 0.61813 0.0
Cd36 Cd 0.70414 0.30856 0.6715 0.0
O37 O 0.68285 0.30996 0.72406 0.0
C38 C 0.64938 0.31928 0.73118 0.0
O39 O 0.62907 0.32826 0.70671 0.0
C40 C 0.74687 0.31779 0.59882 0.0
C41 C 0.72761 0.21849 0.54974 0.0
O42 O 0.73386 0.23409 0.52392 0.0
O43 O 0.70533 0.22517 0.57464 0.0
O44 O 0.733 0.76851 0.56792 0.0
Cd45 Cd 0.7108 0.71673 0.57451 0.0
O46 O 0.73306 0.77587 0.62295 0.0
Cd47 Cd 0.73287 0.80073 0.67031 0.0
O48 O 0.71797 0.8127 0.72201 0.0
C49 C 0.68694 0.82461 0.72768 0.0
O50 O 0.66534 0.83077 0.70191 0.0
C51 C 0.73786 0.78582 0.59357 0.0
C52 C 0.77707 0.6943 0.59953 0.0
O53 O 0.77277 0.69674 0.56767 0.0
O54 O 0.75082 0.70322 0.61962 0.0
O55 O 0.87489 0.29114 0.31728 0.0
Cd56 Cd 0.84951 0.24457 0.28656 0.0
O57 O 0.81088 0.30148 0.31033 0.0
Cd58 Cd 0.77825 0.26589 0.27519 0.0
O59 O 0.73616 0.26255 0.23012 0.0
C60 C 0.7089 0.27771 0.23234 0.0
O61 O 0.70676 0.29183 0.26111 0.0
C62 C 0.85057 0.30793 0.32261 0.0
C63 C 0.84295 0.19895 0.3284 0.0
O64 O 0.88082 0.21256 0.31576 0.0
O65 O 0.80813 0.20693 0.32136 0.0
O66 O 0.23912 0.33602 0.79605 0.0
Cd67 Cd 0.19182 0.32869 0.74526 0.0
O68 O 0.29485 0.35163 0.76122 0.0
Cd69 Cd 0.36377 0.35917 0.74296 0.0
O70 O 0.39844 0.33795 0.70691 0.0
C71 C 0.40143 0.31373 0.71529 0.0
O72 O 0.3885 0.30526 0.74576 0.0
C73 C 0.2813 0.34496 0.79096 0.0
C74 C 0.14872 0.3705 0.73545 0.0
O75 O 0.12857 0.34748 0.75019 0.0
O76 O 0.18955 0.37395 0.72599 0.0
O77 O 0.40123 0.87104 0.27931 0.0
Cd78 Cd 0.36234 0.86905 0.33364 0.0
O79 O 0.3586 0.82788 0.26394 0.0
Cd80 Cd 0.31615 0.81901 0.30867 0.0
O81 O 0.26248 0.78607 0.33181 0.0
C82 C 0.24184 0.76627 0.31072 0.0
O83 O 0.25363 0.76829 0.27874 0.0
C84 C 0.39047 0.85007 0.25766 0.0
C85 C 0.37051 0.92262 0.36551 0.0
O86 O 0.4001 0.90934 0.37009 0.0
O87 O 0.33734 0.91073 0.34548 0.0
H88 H 0.93044 0.4881 0.33146 0.0
H89 H 0.89338 0.43688 0.32536 0.0
H90 H 0.97259 0.42233 0.4086 0.0
H91 H 0.00917 0.4741 0.41529 0.0
H92 H 0.93358 0.52743 0.37563 0.0
H93 H 0.04099 0.48685 0.32542 0.0
H94 H 0.09452 0.45938 0.31451 0.0
H95 H 0.17107 0.50019 0.40341 0.0
H96 H 0.11586 0.52649 0.4152 0.0
H97 H 0.10427 0.6129 0.41332 0.0
H98 H 0.15002 0.66082 0.3994 0.0
H99 H 0.06927 0.65569 0.30922 0.0
H100 H 0.0257 0.60736 0.32219 0.0
H101 H 0.10027 0.56525 0.37554 0.0
H102 H 0.98423 0.61016 0.41661 0.0
H103 H 0.93807 0.64281 0.40823 0.0
H104 H 0.88479 0.59561 0.31533 0.0
H105 H 0.93035 0.56288 0.32399 0.0
C106 C 0.97277 0.48507 0.37377 0.0
C107 C 0.9394 0.47405 0.34886 0.0
C108 C 0.91818 0.44471 0.34539 0.0
C109 C 0.92995 0.42562 0.36662 0.0
C110 C 0.96305 0.43657 0.3918 0.0
C111 C 0.98399 0.4661 0.39557 0.0
C112 C 0.99624 0.51632 0.37596 0.0
C113 C 0.97008 0.53561 0.37576 0.0
C114 C 0.0439 0.52721 0.37615 0.0
C115 C 0.07398 0.50847 0.37143 0.0
C116 C 0.06855 0.48929 0.34313 0.0
C117 C 0.09963 0.47389 0.33663 0.0
C118 C 0.1374 0.47773 0.3579 0.0
C119 C 0.14216 0.49642 0.38671 0.0
C120 C 0.11078 0.51164 0.39336 0.0
C121 C 0.06115 0.6066 0.36907 0.0
C122 C 0.09615 0.62228 0.39078 0.0
C123 C 0.12206 0.64978 0.3829 0.0
C124 C 0.11349 0.66209 0.35308 0.0
C125 C 0.07724 0.64673 0.33213 0.0
C126 C 0.05172 0.6192 0.33983 0.0
C127 C 0.03765 0.5761 0.37493 0.0
C128 C 0.06382 0.55698 0.37668 0.0
C129 C 0.99011 0.56524 0.37459 0.0
C130 C 0.96065 0.58414 0.37092 0.0
C131 C 0.96232 0.60675 0.39461 0.0
C132 C 0.93596 0.6253 0.38985 0.0
C133 C 0.90814 0.62173 0.36105 0.0
C134 C 0.90625 0.59892 0.33758 0.0
C135 C 0.93195 0.58013 0.34264 0.0
H136 H 0.08477 0.59624 0.66534 0.0
H137 H 0.13548 0.64181 0.68621 0.0
H138 H 0.02882 0.65666 0.74903 0.0
H139 H 0.97907 0.6102 0.72948 0.0
H140 H 0.05211 0.5518 0.6995 0.0
H141 H 0.98595 0.609 0.63328 0.0
H142 H 0.94851 0.6445 0.61744 0.0
H143 H 0.83711 0.60619 0.68266 0.0
H144 H 0.87526 0.57137 0.69909 0.0
H145 H 0.86835 0.48324 0.70176 0.0
H146 H 0.82108 0.43489 0.68506 0.0
H147 H 0.91595 0.42885 0.60656 0.0
H148 H 0.96306 0.47705 0.62341 0.0
H149 H 0.89393 0.5313 0.6597 0.0
H150 H 0.96692 0.4779 0.73001 0.0
H151 H 0.00454 0.4419 0.74314 0.0
H152 H 0.10112 0.4723 0.66392 0.0
H153 H 0.06432 0.50899 0.65212 0.0
C154 C 0.02799 0.59978 0.69568 0.0
C155 C 0.07221 0.60938 0.68347 0.0
C156 C 0.10111 0.63561 0.69526 0.0
C157 C 0.08636 0.65293 0.71944 0.0
C158 C 0.04156 0.64367 0.73083 0.0
C159 C 0.01278 0.61729 0.71924 0.0
C160 C 0.99946 0.5704 0.68615 0.0
C161 C 0.01777 0.54752 0.69023 0.0
C162 C 0.95418 0.56454 0.67499 0.0
C163 C 0.93352 0.5876 0.66752 0.0
C164 C 0.95389 0.60863 0.64469 0.0
C165 C 0.93225 0.62874 0.6354 0.0
C166 C 0.88976 0.62815 0.64872 0.0
C167 C 0.87005 0.60752 0.67226 0.0
C168 C 0.89165 0.58742 0.68147 0.0
C169 C 0.91918 0.48361 0.66387 0.0
C170 C 0.879 0.47139 0.68109 0.0
C171 C 0.85224 0.44378 0.67168 0.0
C172 C 0.86489 0.42821 0.64451 0.0
C173 C 0.9053 0.44047 0.62745 0.0
C174 C 0.9323 0.46789 0.63715 0.0
C175 C 0.94685 0.51316 0.67303 0.0
C176 C 0.92834 0.53591 0.66892 0.0
C177 C 0.99205 0.51907 0.68384 0.0
C178 C 0.01287 0.496 0.69009 0.0
C179 C 0.99604 0.4766 0.71539 0.0
C180 C 0.01753 0.45597 0.72274 0.0
C181 C 0.05608 0.4542 0.7047 0.0
C182 C 0.07216 0.47338 0.67885 0.0
C183 C 0.05099 0.49422 0.67183 0.0
H184 H 0.30328 0.08247 0.5651 0.0
H185 H 0.28149 0.04254 0.60258 0.0
H186 H 0.41026 0.02625 0.58626 0.0
H187 H 0.4318 0.06641 0.54808 0.0
H188 H 0.3861 0.12868 0.58373 0.0
H189 H 0.31606 0.05915 0.49121 0.0
H190 H 0.31203 0.0153 0.45711 0.0
H191 H 0.45089 0.05079 0.42779 0.0
H192 H 0.45483 0.09443 0.46243 0.0
H193 H 0.4493 0.18859 0.45785 0.0
H194 H 0.43563 0.22799 0.42705 0.0
H195 H 0.31397 0.2207 0.4844 0.0
H196 H 0.32737 0.18136 0.5146 0.0
H197 H 0.39653 0.13304 0.45887 0.0
H198 H 0.45701 0.20882 0.54168 0.0
H199 H 0.46504 0.2491 0.58314 0.0
H200 H 0.3459 0.20064 0.63435 0.0
H201 H 0.33743 0.16094 0.59287 0.0
C202 C 0.36917 0.07738 0.55409 0.0
C203 C 0.3265 0.06995 0.56908 0.0
C204 C 0.31423 0.04729 0.59063 0.0
C205 C 0.34455 0.0317 0.59781 0.0
C206 C 0.38631 0.03797 0.58113 0.0
C207 C 0.39864 0.06082 0.55939 0.0
C208 C 0.38381 0.1046 0.53668 0.0
C209 C 0.3884 0.12981 0.5564 0.0
C210 C 0.38907 0.1059 0.5013 0.0
C211 C 0.3859 0.07986 0.4796 0.0
C212 C 0.34563 0.05742 0.47748 0.0
C213 C 0.34328 0.0325 0.45777 0.0
C214 C 0.3812 0.02956 0.43983 0.0
C215 C 0.42129 0.05228 0.44164 0.0
C216 C 0.42352 0.07727 0.46121 0.0
C217 C 0.38964 0.18227 0.48875 0.0
C218 C 0.41994 0.19569 0.46392 0.0
C219 C 0.41221 0.21824 0.4465 0.0
C220 C 0.37366 0.22732 0.45331 0.0
C221 C 0.34373 0.214 0.47844 0.0
C222 C 0.35162 0.19171 0.49593 0.0
C223 C 0.39541 0.15716 0.50592 0.0
C224 C 0.39525 0.13232 0.48624 0.0
C225 C 0.39397 0.15612 0.5416 0.0
C226 C 0.39681 0.18173 0.56429 0.0
C227 C 0.43222 0.20709 0.56152 0.0
C228 C 0.43692 0.23001 0.58524 0.0
C229 C 0.40658 0.22771 0.61226 0.0
C230 C 0.37039 0.20272 0.61424 0.0
C231 C 0.36547 0.18005 0.59048 0.0
H232 H 0.50689 0.89833 0.96183 0.0
H233 H 0.4567 0.90512 0.91751 0.0
H234 H 0.44686 0.82044 0.87451 0.0
H235 H 0.49612 0.81349 0.9195 0.0
H236 H 0.48999 0.85986 0.00988 0.0
H237 H 0.59326 0.88431 0.91865 0.0
H238 H 0.62204 0.88127 0.86129 0.0
H239 H 0.62526 0.79472 0.87669 0.0
H240 H 0.59618 0.79779 0.9339 0.0
H241 H 0.60767 0.78989 0.03334 0.0
H242 H 0.65297 0.77919 0.07868 0.0
H243 H 0.66537 0.86257 0.1266 0.0
H244 H 0.6214 0.87347 0.08066 0.0
H245 H 0.62859 0.83041 0.98771 0.0
H246 H 0.52121 0.80512 0.07722 0.0
H247 H 0.48745 0.80675 0.13295 0.0
H248 H 0.48997 0.89474 0.12011 0.0
H249 H 0.52521 0.89325 0.06476 0.0
C250 C 0.50555 0.85552 0.94382 0.0
C251 C 0.49396 0.88126 0.94282 0.0
C252 C 0.46557 0.88518 0.91732 0.0
C253 C 0.44794 0.86335 0.89241 0.0
C254 C 0.45962 0.83757 0.89346 0.0
C255 C 0.4881 0.83369 0.91897 0.0
C256 C 0.53458 0.85113 0.97156 0.0
C257 C 0.52076 0.85392 0.00507 0.0
C258 C 0.57417 0.84279 0.9652 0.0
C259 C 0.59207 0.84115 0.93048 0.0
C260 C 0.59978 0.86458 0.90957 0.0
C261 C 0.61626 0.86284 0.87681 0.0
C262 C 0.6259 0.83775 0.86447 0.0
C263 C 0.61869 0.81447 0.88561 0.0
C264 C 0.60196 0.81616 0.91828 0.0
C265 C 0.61087 0.8324 0.05374 0.0
C266 C 0.62034 0.8059 0.05356 0.0
C267 C 0.6459 0.79971 0.07963 0.0
C268 C 0.66275 0.82001 0.10627 0.0
C269 C 0.65334 0.84659 0.10627 0.0
C270 C 0.62782 0.85275 0.0802 0.0
C271 C 0.58369 0.83881 0.02601 0.0
C272 C 0.59797 0.83652 0.99251 0.0
C273 C 0.54459 0.84773 0.03238 0.0
C274 C 0.5261 0.84914 0.06692 0.0
C275 C 0.51523 0.82492 0.08664 0.0
C276 C 0.49548 0.8258 0.11835 0.0
C277 C 0.4858 0.85085 0.13091 0.0
C278 C 0.49741 0.87523 0.11135 0.0
C279 C 0.51721 0.87433 0.0796 0.0
H280 H 0.72618 0.95575 0.54494 0.0
H281 H 0.70774 0.9079 0.56797 0.0
H282 H 0.84865 0.91141 0.56626 0.0
H283 H 0.86685 0.95896 0.54245 0.0
H284 H 0.79243 0.01345 0.56122 0.0
H285 H 0.75065 0.93563 0.47766 0.0
H286 H 0.75229 0.8905 0.44933 0.0
H287 H 0.89432 0.92635 0.42929 0.0
H288 H 0.89231 0.97167 0.45792 0.0
H289 H 0.88991 0.05893 0.43864 0.0
H290 H 0.8948 0.09779 0.40073 0.0
H291 H 0.76311 0.10196 0.43357 0.0
H292 H 0.75699 0.06154 0.46889 0.0
H293 H 0.83516 0.00649 0.44051 0.0
H294 H 0.86996 0.08914 0.51827 0.0
H295 H 0.85439 0.13478 0.53208 0.0
H296 H 0.71831 0.08919 0.55957 0.0
H297 H 0.73403 0.04363 0.54561 0.0
C298 C 0.79783 0.9608 0.54203 0.0
C299 C 0.75321 0.94657 0.55049 0.0
C300 C 0.7427 0.91924 0.56339 0.0
C301 C 0.77682 0.90609 0.56873 0.0
C302 C 0.82186 0.92125 0.56259 0.0
C303 C 0.83226 0.94834 0.54906 0.0
C304 C 0.80721 0.9862 0.52109 0.0
C305 C 0.80201 0.01206 0.53491 0.0
C306 C 0.81978 0.98435 0.48683 0.0
C307 C 0.82149 0.95684 0.47025 0.0
C308 C 0.78232 0.93361 0.4677 0.0
C309 C 0.78337 0.90779 0.45158 0.0
C310 C 0.82354 0.90475 0.43727 0.0
C311 C 0.86282 0.92807 0.43992 0.0
C312 C 0.86176 0.95393 0.45624 0.0
C313 C 0.8235 0.05763 0.45721 0.0
C314 C 0.86194 0.06806 0.43737 0.0
C315 C 0.86488 0.09059 0.41599 0.0
C316 C 0.82956 0.10341 0.41417 0.0
C317 C 0.79084 0.09257 0.43381 0.0
C318 C 0.78757 0.06968 0.45458 0.0
C319 C 0.82072 0.03404 0.48047 0.0
C320 C 0.82703 0.00835 0.46708 0.0
C321 C 0.80906 0.03612 0.51508 0.0
C322 C 0.80291 0.06304 0.53039 0.0
C323 C 0.83707 0.08899 0.52795 0.0
C324 C 0.82808 0.11502 0.53566 0.0
C325 C 0.78493 0.11554 0.54637 0.0
C326 C 0.75192 0.08946 0.55149 0.0
C327 C 0.76087 0.0634 0.54358 0.0
H328 H 0.47287 0.38087 0.95966 0.0
H329 H 0.42184 0.38484 0.91391 0.0
H330 H 0.40079 0.29549 0.88507 0.0
H331 H 0.45217 0.29171 0.93036 0.0
H332 H 0.45291 0.34413 0.01417 0.0
H333 H 0.5553 0.36702 0.9257 0.0
H334 H 0.58287 0.36537 0.86796 0.0
H335 H 0.58533 0.2781 0.87917 0.0
H336 H 0.55724 0.2798 0.93711 0.0
H337 H 0.5611 0.27067 0.04218 0.0
H338 H 0.59998 0.25855 0.09057 0.0
H339 H 0.62736 0.34566 0.13131 0.0
H340 H 0.58822 0.3575 0.08307 0.0
H341 H 0.58873 0.3112 0.99309 0.0
H342 H 0.48161 0.29288 0.08655 0.0
H343 H 0.45502 0.30103 0.14348 0.0
H344 H 0.46773 0.38902 0.12148 0.0
H345 H 0.49582 0.38099 0.06519 0.0
C346 C 0.46632 0.33603 0.94826 0.0
C347 C 0.45738 0.36221 0.94334 0.0
C348 C 0.42852 0.36449 0.91719 0.0
C349 C 0.40743 0.34044 0.89612 0.0
C350 C 0.41647 0.31428 0.90112 0.0
C351 C 0.44588 0.31214 0.92684 0.0
C352 C 0.49606 0.33318 0.97628 0.0
C353 C 0.483 0.33734 0.00962 0.0
C354 C 0.53526 0.32439 0.97021 0.0
C355 C 0.55347 0.32336 0.93554 0.0
C356 C 0.56134 0.34742 0.91566 0.0
C357 C 0.57711 0.34646 0.88266 0.0
C358 C 0.58589 0.32153 0.86894 0.0
C359 C 0.57908 0.29766 0.88914 0.0
C360 C 0.563 0.29858 0.92219 0.0
C361 C 0.57128 0.31487 0.05926 0.0
C362 C 0.57584 0.28718 0.06143 0.0
C363 C 0.59811 0.28031 0.08907 0.0
C364 C 0.61636 0.30106 0.11499 0.0
C365 C 0.61285 0.32901 0.11217 0.0
C366 C 0.59066 0.33586 0.08454 0.0
C367 C 0.54499 0.32151 0.03113 0.0
C368 C 0.55872 0.31803 0.99768 0.0
C369 C 0.50707 0.33176 0.03716 0.0
C370 C 0.49111 0.33641 0.07177 0.0
C371 C 0.47918 0.314 0.09419 0.0
C372 C 0.46361 0.31863 0.1266 0.0
C373 C 0.45936 0.3457 0.13706 0.0
C374 C 0.4713 0.36805 0.11446 0.0
C375 C 0.48694 0.36343 0.08215 0.0
C376 C 0.22051 0.44963 0.30612 0.0
C377 C 0.24339 0.4395 0.33109 0.0
H378 H 0.17004 0.46998 0.29498 0.0
C379 C 0.23049 0.44137 0.36507 0.0
H380 H 0.22968 0.44865 0.27971 0.0
C381 C 0.19565 0.45335 0.37384 0.0
C382 C 0.17309 0.46376 0.34882 0.0
H383 H 0.24733 0.43364 0.3849 0.0
H384 H 0.1863 0.45435 0.40019 0.0
C385 C 0.18595 0.46168 0.31487 0.0
C386 C 0.14712 0.71334 0.78141 0.0
C387 C 0.17947 0.73088 0.76065 0.0
H388 H 0.09306 0.67481 0.78494 0.0
C389 C 0.18096 0.7227 0.72623 0.0
H390 H 0.14521 0.719 0.80807 0.0
C391 C 0.15048 0.69764 0.71279 0.0
C392 C 0.11809 0.68001 0.73353 0.0
H393 H 0.20522 0.73589 0.70947 0.0
H394 H 0.152 0.6923 0.68601 0.0
C395 C 0.11692 0.68813 0.76805 0.0
C396 C 0.8583 0.6736 0.31797 0.0
C397 C 0.82946 0.6795 0.34305 0.0
H398 H 0.90554 0.65044 0.30403 0.0
C399 C 0.82717 0.66658 0.37433 0.0
H400 H 0.86075 0.68321 0.29361 0.0
C401 C 0.8533 0.64816 0.38042 0.0
C402 C 0.88151 0.64192 0.35512 0.0
H403 H 0.80537 0.67081 0.39418 0.0
H404 H 0.85086 0.63839 0.40468 0.0
C405 C 0.88377 0.65478 0.32385 0.0
C406 C 0.78919 0.35174 0.64546 0.0
C407 C 0.7774 0.3458 0.61107 0.0
H408 H 0.826 0.38259 0.68308 0.0
C409 C 0.79571 0.36695 0.58779 0.0
H410 H 0.77765 0.33561 0.66386 0.0
C411 C 0.82436 0.39354 0.59867 0.0
C412 C 0.83524 0.39969 0.63312 0.0
H413 H 0.78753 0.36308 0.56107 0.0
H414 H 0.83741 0.40952 0.58017 0.0
C415 C 0.81743 0.37855 0.65644 0.0
C416 C 0.38702 0.29645 0.40859 0.0
C417 C 0.3434 0.29223 0.39534 0.0
H418 H 0.43089 0.27912 0.43725 0.0
C419 C 0.30993 0.26665 0.40149 0.0
H420 H 0.41358 0.31591 0.40418 0.0
C421 C 0.31982 0.24573 0.42047 0.0
C422 C 0.36349 0.24981 0.43347 0.0
H423 H 0.27604 0.26271 0.39159 0.0
H424 H 0.29341 0.22611 0.42452 0.0
C425 C 0.39704 0.27536 0.42732 0.0
C426 C 0.34718 0.84947 0.83306 0.0
C427 C 0.35517 0.87592 0.81787 0.0
H428 H 0.37001 0.82481 0.86872 0.0
C429 C 0.39447 0.89792 0.82671 0.0
H430 H 0.31661 0.83241 0.82771 0.0
C431 C 0.42494 0.89366 0.85039 0.0
C432 C 0.41673 0.86733 0.86592 0.0
H433 H 0.40164 0.91856 0.81541 0.0
H434 H 0.45496 0.91103 0.85657 0.0
C435 C 0.37771 0.84518 0.85676 0.0
C436 C 0.83968 0.85441 0.36572 0.0
C437 C 0.81252 0.82781 0.3761 0.0
H438 H 0.86419 0.89956 0.37678 0.0
C439 C 0.79299 0.82631 0.4084 0.0
H440 H 0.85533 0.85634 0.34104 0.0
C441 C 0.79831 0.85114 0.42899 0.0
C442 C 0.82328 0.87797 0.41774 0.0
H443 H 0.77216 0.80614 0.41731 0.0
H444 H 0.78186 0.84943 0.45338 0.0
C445 C 0.84498 0.87922 0.38631 0.0
C446 C 0.59759 0.33138 0.77446 0.0
C447 C 0.63314 0.31971 0.76642 0.0
H448 H 0.55454 0.34082 0.81305 0.0
C449 C 0.65277 0.30832 0.79231 0.0
H450 H 0.5816 0.34023 0.75512 0.0
C451 C 0.63721 0.30866 0.82554 0.0
C452 C 0.60189 0.32054 0.8336 0.0
H453 H 0.6802 0.29914 0.78694 0.0
H454 H 0.65331 0.30004 0.84503 0.0
C455 C 0.5822 0.33184 0.80769 0.0
C456 C 0.32711 0.96334 0.64502 0.0
C457 C 0.30856 0.97052 0.67558 0.0
H458 H 0.35324 0.97717 0.59626 0.0
C459 C 0.30354 0.99812 0.68062 0.0
H460 H 0.33152 0.94224 0.64046 0.0
C461 C 0.31579 0.0179 0.65544 0.0
C462 C 0.33346 0.01062 0.62463 0.0
H463 H 0.28962 0.00442 0.7039 0.0
H464 H 0.31142 0.03901 0.66011 0.0
C465 C 0.33968 0.9833 0.61979 0.0
C466 C 0.7031 0.78105 0.17513 0.0
C467 C 0.7405 0.80252 0.18846 0.0
H468 H 0.64884 0.76983 0.13901 0.0
C469 C 0.75304 0.82934 0.17372 0.0
H470 H 0.6925 0.76019 0.18597 0.0
C471 C 0.7282 0.83481 0.14681 0.0
C472 C 0.69016 0.81362 0.13396 0.0
H473 H 0.78183 0.84632 0.18321 0.0
H474 H 0.73885 0.8557 0.13604 0.0
C475 C 0.67818 0.78655 0.14816 0.0
C476 C 0.73278 0.17385 0.57651 0.0
C477 C 0.74459 0.19307 0.55026 0.0
H478 H 0.7366 0.13429 0.59606 0.0
C479 C 0.77163 0.18728 0.5238 0.0
H480 H 0.71202 0.17773 0.59729 0.0
C481 C 0.78577 0.16253 0.5232 0.0
C482 C 0.77306 0.14294 0.54897 0.0
H483 H 0.78134 0.20164 0.50319 0.0
H484 H 0.80544 0.15827 0.5019 0.0
C485 C 0.74671 0.14895 0.57579 0.0
C486 C 0.44092 0.38155 0.22095 0.0
C487 C 0.4034 0.36108 0.23372 0.0
H488 H 0.48852 0.39254 0.18079 0.0
C489 C 0.38567 0.335 0.21515 0.0
H490 H 0.45561 0.40179 0.23471 0.0
C491 C 0.40435 0.3298 0.18412 0.0
C492 C 0.44125 0.35052 0.17098 0.0
H493 H 0.35676 0.31876 0.22423 0.0
H494 H 0.38904 0.30984 0.16999 0.0
C495 C 0.45965 0.37632 0.18995 0.0
C496 C 0.812 0.67585 0.64734 0.0
C497 C 0.80948 0.68002 0.61255 0.0
H498 H 0.8399 0.65665 0.68614 0.0
C499 C 0.83619 0.66881 0.5901 0.0
H500 H 0.79206 0.68433 0.66534 0.0
C501 C 0.86344 0.65284 0.60201 0.0
C502 C 0.86461 0.6477 0.63665 0.0
H503 H 0.83506 0.67163 0.56315 0.0
H504 H 0.88218 0.64355 0.58386 0.0
C505 C 0.83924 0.65986 0.65925 0.0
C506 C 0.84284 0.35523 0.34437 0.0
C507 C 0.86975 0.33653 0.33969 0.0
H508 H 0.84077 0.39795 0.35707 0.0
C509 C 0.91589 0.3466 0.34812 0.0
H510 H 0.8071 0.34816 0.3385 0.0
C511 C 0.93518 0.37528 0.35879 0.0
C512 C 0.9087 0.39437 0.36112 0.0
H513 H 0.93755 0.33275 0.34489 0.0
H514 H 0.97123 0.38287 0.36335 0.0
C515 C 0.86211 0.38382 0.3549 0.0
C516 C 0.14953 0.41955 0.71897 0.0
C517 C 0.12516 0.39211 0.72863 0.0
H518 H 0.14716 0.46085 0.70485 0.0
C519 C 0.07798 0.38524 0.73079 0.0
H520 H 0.18597 0.42553 0.71729 0.0
C521 C 0.05555 0.40529 0.72291 0.0
C522 C 0.07985 0.43279 0.71313 0.0
H523 H 0.05824 0.36417 0.73791 0.0
H524 H 0.01907 0.39899 0.72394 0.0
C525 C 0.12718 0.43972 0.71155 0.0
C526 C 0.19434 0.73752 0.35587 0.0
C527 C 0.20714 0.74054 0.32176 0.0
H528 H 0.15406 0.71058 0.39254 0.0
C529 C 0.18758 0.71814 0.29806 0.0
H530 H 0.20872 0.75445 0.37473 0.0
C531 C 0.15674 0.69303 0.30825 0.0
C532 C 0.14434 0.68969 0.3424 0.0
H533 H 0.19675 0.71967 0.2716 0.0
H534 H 0.14364 0.67589 0.28938 0.0
C535 C 0.16322 0.71234 0.36609 0.0
C536 C 0.72689 0.82581 0.56096 0.0
C537 C 0.74647 0.81675 0.5887 0.0
H538 H 0.7206 0.86133 0.53346 0.0
C539 C 0.77518 0.83737 0.6107 0.0
H540 H 0.70468 0.81034 0.5436 0.0
C541 C 0.78482 0.86658 0.60458 0.0
C542 C 0.76505 0.87554 0.57685 0.0
H543 H 0.7913 0.8309 0.63193 0.0
H544 H 0.80784 0.88215 0.62135 0.0
C545 C 0.73571 0.85493 0.5553 0.0
C546 C 0.65295 0.2985 0.20585 0.0
C547 C 0.68299 0.28172 0.20251 0.0
H548 H 0.60802 0.31736 0.18107 0.0
C549 C 0.6896 0.27028 0.17027 0.0
H550 H 0.6468 0.3075 0.23033 0.0
C551 C 0.66754 0.27618 0.14187 0.0
C552 C 0.63845 0.29363 0.14514 0.0
H553 H 0.7126 0.25732 0.16682 0.0
H554 H 0.67423 0.2677 0.11723 0.0
C555 C 0.63094 0.30436 0.17755 0.0
C556 C 0.41773 0.30042 0.65542 0.0
C557 C 0.41066 0.29322 0.68949 0.0
H558 H 0.42204 0.28518 0.60408 0.0
C559 C 0.40746 0.26508 0.69812 0.0
H560 H 0.42051 0.32195 0.64796 0.0
C561 C 0.40811 0.24415 0.67306 0.0
C562 C 0.41228 0.2509 0.63882 0.0
H563 H 0.40243 0.25884 0.72412 0.0
H564 H 0.40402 0.22241 0.68037 0.0
C565 C 0.41867 0.27942 0.63029 0.0
C566 C 0.40257 0.82726 0.20187 0.0
C567 C 0.41499 0.85085 0.22523 0.0
H568 H 0.41468 0.80895 0.15393 0.0
C569 C 0.45102 0.87467 0.21731 0.0
H570 H 0.37488 0.80857 0.207 0.0
C571 C 0.47415 0.87477 0.18672 0.0
C572 C 0.4618 0.85102 0.16354 0.0
H573 H 0.4615 0.89316 0.23475 0.0
H574 H 0.50207 0.89327 0.18143 0.0
C575 C 0.42564 0.82735 0.17147 0.0
C576 C 0.87811 0.17122 0.36601 0.0
C577 C 0.83952 0.17464 0.35032 0.0
H578 H 0.90518 0.14688 0.39925 0.0
C579 C 0.79766 0.15455 0.35562 0.0
H580 H 0.91081 0.1865 0.3626 0.0
C581 C 0.79451 0.13133 0.37592 0.0
C582 C 0.83304 0.12793 0.392 0.0
H583 H 0.76737 0.15648 0.3436 0.0
H584 H 0.76184 0.11587 0.37859 0.0
C585 C 0.87487 0.14831 0.38684 0.0
C586 C 0.30133 0.32377 0.84271 0.0
C587 C 0.31345 0.34456 0.81824 0.0
H588 H 0.32195 0.30603 0.88628 0.0
C589 C 0.35644 0.3645 0.81995 0.0
H590 H 0.26841 0.30813 0.84198 0.0
C591 C 0.38688 0.36351 0.8456 0.0
C592 C 0.37504 0.34226 0.86955 0.0
H593 H 0.36633 0.38104 0.80175 0.0
H594 H 0.41991 0.37902 0.84639 0.0
C595 C 0.33199 0.32245 0.86791 0.0
C596 C 0.41191 0.96419 0.40369 0.0
C597 C 0.37398 0.95051 0.38347 0.0
H598 H 0.44382 -0.00022 0.4374 0.0
C599 C 0.33889 0.96338 0.38128 0.0
H600 H 0.43951 0.95485 0.40596 0.0
C601 C 0.34137 0.98912 0.39935 0.0
C602 C 0.37911 0.00266 0.41982 0.0
H603 H 0.30922 0.95341 0.3659 0.0
H604 H 0.31378 0.9985 0.39718 0.0
C605 C 0.4145 0.99003 0.42158 0.0
C606 C 0.63876 0.84263 0.76925 0.0
C607 C 0.67314 0.82952 0.76283 0.0
H608 H 0.59671 0.85534 0.80636 0.0
C609 C 0.69295 0.82009 0.79023 0.0
H610 H 0.62277 0.85013 0.74872 0.0
C611 C 0.67799 0.82309 0.82322 0.0
C612 C 0.64305 0.8357 0.82958 0.0
H613 H 0.71959 0.80998 0.7862 0.0
H614 H 0.69382 0.81551 0.84378 0.0
C615 C 0.62394 0.84574 0.80229 0.0
loop_
_geom_bond_atom_site_label_1
_geom_bond_atom_site_label_2
_geom_bond_distance
_geom_bond_site_symmetry_2
_ccdc_geom_bond_type
O0 Cd1 2.300 . S
O0 C7 1.275 . S
Cd1 O0 2.300 . S
Cd1 O9 2.381 . S
Cd1 O10 2.378 . S
O2 Cd3 2.385 . S
O2 C7 1.255 . S
Cd3 O2 2.385 . S
Cd3 O4 2.317 . S
O4 Cd3 2.317 . S
O4 C5 1.232 . S
C5 O4 1.232 . S
C5 O6 1.218 . S
O6 C5 1.218 . S
C7 O0 1.275 . S
C7 O2 1.255 . S
C8 O9 1.258 . S
C8 O10 1.256 . S
O9 Cd1 2.381 . S
O9 C8 1.258 . S
O10 Cd1 2.378 . S
O10 C8 1.256 . S
O11 Cd12 2.300 . S
O11 C18 1.275 . S
Cd12 O11 2.300 . S
Cd12 O20 2.381 . S
Cd12 O21 2.378 . S
O13 Cd14 2.385 . S
O13 C18 1.255 . S
Cd14 O13 2.385 . S
Cd14 O15 2.317 . S
O15 Cd14 2.317 . S
O15 C16 1.232 . S
C16 O15 1.232 . S
C16 O17 1.218 . S
O17 C16 1.218 . S
C18 O11 1.275 . S
C18 O13 1.255 . S
C19 O20 1.258 . S
C19 O21 1.256 . S
O20 Cd12 2.381 . S
O20 C19 1.258 . S
O21 Cd12 2.378 . S
O21 C19 1.256 . S
O22 Cd23 2.300 . S
O22 C29 1.275 . S
Cd23 O22 2.300 . S
Cd23 O31 2.381 . S
Cd23 O32 2.378 . S
O24 Cd25 2.385 . S
O24 C29 1.255 . S
Cd25 O24 2.385 . S
Cd25 O26 2.317 . S
O26 Cd25 2.317 . S
O26 C27 1.232 . S
C27 O26 1.232 . S
C27 O28 1.218 . S
O28 C27 1.218 . S
C29 O22 1.275 . S
C29 O24 1.255 . S
C30 O31 1.258 . S
C30 O32 1.256 . S
O31 Cd23 2.381 . S
O31 C30 1.258 . S
O32 Cd23 2.378 . S
O32 C30 1.256 . S
O33 Cd34 2.300 . S
O33 C40 1.275 . S
Cd34 O33 2.300 . S
Cd34 O42 2.381 . S
Cd34 O43 2.378 . S
O35 Cd36 2.385 . S
O35 C40 1.255 . S
Cd36 O35 2.385 . S
Cd36 O37 2.317 . S
O37 Cd36 2.317 . S
O37 C38 1.232 . S
C38 O37 1.232 . S
C38 O39 1.218 . S
O39 C38 1.218 . S
C40 O33 1.275 . S
C40 O35 1.255 . S
C41 O42 1.258 . S
C41 O43 1.256 . S
O42 Cd34 2.381 . S
O42 C41 1.258 . S
O43 Cd34 2.378 . S
O43 C41 1.256 . S
O44 Cd45 2.300 . S
O44 C51 1.275 . S
Cd45 O44 2.300 . S
Cd45 O53 2.381 . S
Cd45 O54 2.378 . S
O46 Cd47 2.385 . S
O46 C51 1.255 . S
Cd47 O46 2.385 . S
Cd47 O48 2.317 . S
O48 Cd47 2.317 . S
O48 C49 1.232 . S
C49 O48 1.232 . S
C49 O50 1.218 . S
O50 C49 1.218 . S
C51 O44 1.275 . S
C51 O46 1.255 . S
C52 O53 1.258 . S
C52 O54 1.256 . S
O53 Cd45 2.381 . S
O53 C52 1.258 . S
O54 Cd45 2.378 . S
O54 C52 1.256 . S
O55 Cd56 2.300 . S
O55 C62 1.275 . S
Cd56 O55 2.300 . S
Cd56 O64 2.381 . S
Cd56 O65 2.378 . S
O57 Cd58 2.385 . S
O57 C62 1.255 . S
Cd58 O57 2.385 . S
Cd58 O59 2.317 . S
O59 Cd58 2.317 . S
O59 C60 1.232 . S
C60 O59 1.232 . S
C60 O61 1.218 . S
O61 C60 1.218 . S
C62 O55 1.275 . S
C62 O57 1.255 . S
C63 O64 1.258 . S
C63 O65 1.256 . S
O64 Cd56 2.381 . S
O64 C63 1.258 . S
O65 Cd56 2.378 . S
O65 C63 1.256 . S
O66 Cd67 2.300 . S
O66 C73 1.275 . S
Cd67 O66 2.300 . S
Cd67 O75 2.381 . S
Cd67 O76 2.378 . S
O68 Cd69 2.385 . S
O68 C73 1.255 . S
Cd69 O68 2.385 . S
Cd69 O70 2.317 . S
O70 Cd69 2.317 . S
O70 C71 1.232 . S
C71 O70 1.232 . S
C71 O72 1.218 . S
O72 C71 1.218 . S
C73 O66 1.275 . S
C73 O68 1.255 . S
C74 O75 1.258 . S
C74 O76 1.256 . S
O75 Cd67 2.381 . S
O75 C74 1.258 . S
O76 Cd67 2.378 . S
O76 C74 1.256 . S
O77 Cd78 2.300 . S
O77 C84 1.275 . S
Cd78 O77 2.300 . S
Cd78 O86 2.381 . S
Cd78 O87 2.378 . S
O79 Cd80 2.385 . S
O79 C84 1.255 . S
Cd80 O79 2.385 . S
Cd80 O81 2.317 . S
O81 Cd80 2.317 . S
O81 C82 1.232 . S
C82 O81 1.232 . S
C82 O83 1.218 . S
O83 C82 1.218 . S
C84 O77 1.275 . S
C84 O79 1.255 . S
C85 O86 1.258 . S
C85 O87 1.256 . S
O86 Cd78 2.381 . S
O86 C85 1.258 . S
O87 Cd78 2.378 . S
O87 C85 1.256 . S
H88 C107 0.949 . S
H89 C108 0.950 . S
H90 C110 0.950 . S
H91 C111 0.950 1_455 S
H92 C113 0.950 1_655 S
H93 C116 0.950 . S
H94 C117 0.950 . S
H95 C119 0.951 . S
H96 C120 0.949 . S
H97 C122 0.949 . S
H98 C123 0.950 . S
H99 C125 0.950 . S
H100 C126 0.950 . S
H101 C128 0.950 . S
H102 C131 0.949 . S
H103 C132 0.950 . S
H104 C134 0.951 . S
H105 C135 0.949 . S
C106 C107 1.376 . S
C106 C111 1.386 . S
C106 C112 1.483 1_655 S
C107 H88 0.949 . S
C107 C106 1.376 . S
C107 C108 1.397 . S
C108 H89 0.950 . S
C108 C107 1.397 . S
C108 C109 1.391 . S
C109 C108 1.391 . S
C109 C110 1.405 . S
C110 H90 0.950 . S
C110 C109 1.405 . S
C110 C111 1.367 . S
C111 H91 0.950 1_655 S
C111 C106 1.386 . S
C111 C110 1.367 . S
C112 C106 1.483 1_455 S
C112 C113 1.382 . S
C112 C114 1.403 . S
C113 H92 0.950 1_455 S
C113 C112 1.382 . S
C113 C129 1.411 . S
C114 C112 1.403 . S
C114 C115 1.489 . S
C114 C128 1.411 . S
C115 C114 1.489 . S
C115 C116 1.383 . S
C115 C120 1.382 . S
C116 H93 0.950 . S
C116 C115 1.383 . S
C116 C117 1.395 . S
C117 H94 0.950 . S
C117 C116 1.395 . S
C117 C118 1.288 . S
C118 C117 1.288 . S
C118 C119 1.392 . S
C119 H95 0.951 . S
C119 C118 1.392 . S
C119 C120 1.392 . S
C120 H96 0.949 . S
C120 C115 1.382 . S
C120 C119 1.392 . S
C121 C122 1.376 . S
C121 C126 1.386 . S
C121 C127 1.483 . S
C122 H97 0.949 . S
C122 C121 1.376 . S
C122 C123 1.397 . S
C123 H98 0.950 . S
C123 C122 1.397 . S
C123 C124 1.391 . S
C124 C123 1.391 . S
C124 C125 1.405 . S
C125 H99 0.950 . S
C125 C124 1.405 . S
C125 C126 1.367 . S
C126 H100 0.950 . S
C126 C121 1.386 . S
C126 C125 1.367 . S
C127 C121 1.483 . S
C127 C128 1.382 . S
C127 C129 1.403 . S
C128 H101 0.950 . S
C128 C114 1.411 . S
C128 C127 1.382 . S
C129 C113 1.411 . S
C129 C127 1.403 . S
C129 C130 1.489 1_455 S
C130 C129 1.489 1_655 S
C130 C131 1.383 1_655 S
C130 C135 1.382 . S
C131 H102 0.949 . S
C131 C130 1.383 1_455 S
C131 C132 1.396 1_455 S
C132 H103 0.950 . S
C132 C131 1.396 1_655 S
C132 C133 1.288 . S
C133 C132 1.288 . S
C133 C134 1.392 . S
C134 H104 0.951 . S
C134 C133 1.392 . S
C134 C135 1.392 . S
C135 H105 0.949 . S
C135 C130 1.382 . S
C135 C134 1.392 . S
H136 C155 0.949 . S
H137 C156 0.950 . S
H138 C158 0.950 . S
H139 C159 0.950 . S
H140 C161 0.950 . S
H141 C164 0.950 . S
H142 C165 0.950 . S
H143 C167 0.951 . S
H144 C168 0.949 . S
H145 C170 0.949 . S
H146 C171 0.950 . S
H147 C173 0.950 . S
H148 C174 0.950 . S
H149 C176 0.950 . S
H150 C179 0.950 . S
H151 C180 0.950 . S
H152 C182 0.951 . S
H153 C183 0.949 . S
C154 C155 1.376 . S
C154 C159 1.386 . S
C154 C160 1.483 . S
C155 H136 0.949 . S
C155 C154 1.376 . S
C155 C156 1.397 . S
C156 H137 0.950 . S
C156 C155 1.397 . S
C156 C157 1.391 . S
C157 C156 1.391 . S
C157 C158 1.405 . S
C158 H138 0.950 . S
C158 C157 1.405 . S
C158 C159 1.367 . S
C159 H139 0.950 . S
C159 C154 1.386 . S
C159 C158 1.367 . S
C160 C154 1.483 . S
C160 C161 1.382 . S
C160 C162 1.403 1_455 S
C161 H140 0.950 . S
C161 C160 1.382 . S
C161 C177 1.411 . S
C162 C160 1.403 1_655 S
C162 C163 1.489 . S
C162 C176 1.411 . S
C163 C162 1.489 . S
C163 C164 1.383 . S
C163 C168 1.382 . S
C164 H141 0.950 . S
C164 C163 1.383 . S
C164 C165 1.395 . S
C165 H142 0.950 . S
C165 C164 1.395 . S
C165 C166 1.288 . S
C166 C165 1.288 . S
C166 C167 1.392 . S
C167 H143 0.951 . S
C167 C166 1.392 . S
C167 C168 1.392 . S
C168 H144 0.949 . S
C168 C163 1.382 . S
C168 C167 1.392 . S
C169 C170 1.376 . S
C169 C174 1.386 . S
C169 C175 1.483 . S
C170 H145 0.949 . S
C170 C169 1.376 . S
C170 C171 1.397 . S
C171 H146 0.950 . S
C171 C170 1.397 . S
C171 C172 1.391 . S
C172 C171 1.391 . S
C172 C173 1.405 . S
C173 H147 0.950 . S
C173 C172 1.405 . S
C173 C174 1.367 . S
C174 H148 0.950 . S
C174 C169 1.386 . S
C174 C173 1.367 . S
C175 C169 1.483 . S
C175 C176 1.382 . S
C175 C177 1.403 1_655 S
C176 H149 0.950 . S
C176 C162 1.411 . S
C176 C175 1.382 . S
C177 C161 1.411 . S
C177 C175 1.403 1_455 S
C177 C178 1.489 . S
C178 C177 1.489 . S
C178 C179 1.383 . S
C178 C183 1.382 . S
C179 H150 0.950 . S
C179 C178 1.383 . S
C179 C180 1.395 . S
C180 H151 0.950 . S
C180 C179 1.395 . S
C180 C181 1.288 . S
C181 C180 1.288 . S
C181 C182 1.392 . S
C182 H152 0.951 . S
C182 C181 1.392 . S
C182 C183 1.392 . S
C183 H153 0.949 . S
C183 C178 1.382 . S
C183 C182 1.392 . S
H184 C203 0.949 . S
H185 C204 0.950 . S
H186 C206 0.950 . S
H187 C207 0.950 . S
H188 C209 0.950 . S
H189 C212 0.950 . S
H190 C213 0.975 . S
H191 C215 0.951 . S
H192 C216 0.949 . S
H193 C218 0.949 . S
H194 C219 0.950 . S
H195 C221 0.950 . S
H196 C222 0.950 . S
H197 C224 0.950 . S
H198 C227 0.950 . S
H199 C228 0.950 . S
H200 C230 0.951 . S
H201 C231 0.949 . S
C202 C203 1.376 . S
C202 C207 1.386 . S
C202 C208 1.483 . S
C203 H184 0.949 . S
C203 C202 1.376 . S
C203 C204 1.397 . S
C204 H185 0.950 . S
C204 C203 1.397 . S
C204 C205 1.391 . S
C205 C204 1.391 . S
C205 C206 1.405 . S
C206 H186 0.950 . S
C206 C205 1.405 . S
C206 C207 1.367 . S
C207 H187 0.950 . S
C207 C202 1.386 . S
C207 C206 1.367 . S
C208 C202 1.483 . S
C208 C209 1.382 . S
C208 C210 1.403 . S
C209 H188 0.950 . S
C209 C208 1.382 . S
C209 C225 1.411 . S
C210 C208 1.403 . S
C210 C211 1.489 . S
C210 C224 1.411 . S
C211 C210 1.489 . S
C211 C212 1.383 . S
C211 C216 1.382 . S
C212 H189 0.950 . S
C212 C211 1.383 . S
C212 C213 1.395 . S
C213 H190 0.975 . S
C213 C212 1.395 . S
C213 C214 1.288 . S
C214 C213 1.288 . S
C214 C215 1.392 . S
C215 H191 0.951 . S
C215 C214 1.392 . S
C215 C216 1.392 . S
C216 H192 0.949 . S
C216 C211 1.382 . S
C216 C215 1.392 . S
C217 C218 1.376 . S
C217 C222 1.386 . S
C217 C223 1.483 . S
C218 H193 0.949 . S
C218 C217 1.376 . S
C218 C219 1.397 . S
C219 H194 0.950 . S
C219 C218 1.397 . S
C219 C220 1.391 . S
C220 C219 1.391 . S
C220 C221 1.405 . S
C221 H195 0.950 . S
C221 C220 1.405 . S
C221 C222 1.367 . S
C222 H196 0.950 . S
C222 C217 1.386 . S
C222 C221 1.367 . S
C223 C217 1.483 . S
C223 C224 1.382 . S
C223 C225 1.403 . S
C224 H197 0.950 . S
C224 C210 1.411 . S
C224 C223 1.382 . S
C225 C209 1.411 . S
C225 C223 1.403 . S
C225 C226 1.489 . S
C226 C225 1.489 . S
C226 C227 1.383 . S
C226 C231 1.382 . S
C227 H198 0.950 . S
C227 C226 1.383 . S
C227 C228 1.395 . S
C228 H199 0.950 . S
C228 C227 1.395 . S
C228 C229 1.288 . S
C229 C228 1.288 . S
C229 C230 1.392 . S
C230 H200 0.951 . S
C230 C229 1.392 . S
C230 C231 1.392 . S
C231 H201 0.949 . S
C231 C226 1.382 . S
C231 C230 1.392 . S
H232 C251 0.949 . S
H233 C252 0.950 . S
H234 C254 0.950 . S
H235 C255 0.950 . S
H236 C257 0.950 . S
H237 C260 0.950 . S
H238 C261 0.950 . S
H239 C263 0.951 . S
H240 C264 0.949 . S
H241 C266 0.949 . S
H242 C267 0.950 . S
H243 C269 0.950 . S
H244 C270 0.950 . S
H245 C272 0.950 . S
H246 C275 0.950 . S
H247 C276 0.950 . S
H248 C278 0.951 . S
H249 C279 0.949 . S
C250 C251 1.376 . S
C250 C255 1.386 . S
C250 C256 1.483 . S
C251 H232 0.949 . S
C251 C250 1.376 . S
C251 C252 1.397 . S
C252 H233 0.950 . S
C252 C251 1.397 . S
C252 C253 1.391 . S
C253 C252 1.391 . S
C253 C254 1.405 . S
C254 H234 0.950 . S
C254 C253 1.405 . S
C254 C255 1.367 . S
C255 H235 0.950 . S
C255 C250 1.386 . S
C255 C254 1.367 . S
C256 C250 1.483 . S
C256 C257 1.382 1_556 S
C256 C258 1.403 . S
C257 H236 0.950 . S
C257 C256 1.382 1_554 S
C257 C273 1.411 . S
C258 C256 1.403 . S
C258 C259 1.489 . S
C258 C272 1.411 1_556 S
C259 C258 1.489 . S
C259 C260 1.383 . S
C259 C264 1.382 . S
C260 H237 0.950 . S
C260 C259 1.383 . S
C260 C261 1.395 . S
C261 H238 0.950 . S
C261 C260 1.395 . S
C261 C262 1.288 . S
C262 C261 1.288 . S
C262 C263 1.392 . S
C263 H239 0.951 . S
C263 C262 1.392 . S
C263 C264 1.392 . S
C264 H240 0.949 . S
C264 C259 1.382 . S
C264 C263 1.392 . S
C265 C266 1.376 . S
C265 C270 1.386 . S
C265 C271 1.483 . S
C266 H241 0.949 . S
C266 C265 1.376 . S
C266 C267 1.397 . S
C267 H242 0.950 . S
C267 C266 1.397 . S
C267 C268 1.391 . S
C268 C267 1.391 . S
C268 C269 1.405 . S
C269 H243 0.950 . S
C269 C268 1.405 . S
C269 C270 1.367 . S
C270 H244 0.950 . S
C270 C265 1.386 . S
C270 C269 1.367 . S
C271 C265 1.483 . S
C271 C272 1.382 . S
C271 C273 1.403 . S
C272 H245 0.950 . S
C272 C258 1.411 1_554 S
C272 C271 1.382 . S
C273 C257 1.411 . S
C273 C271 1.403 . S
C273 C274 1.489 . S
C274 C273 1.489 . S
C274 C275 1.383 . S
C274 C279 1.382 . S
C275 H246 0.950 . S
C275 C274 1.383 . S
C275 C276 1.395 . S
C276 H247 0.950 . S
C276 C275 1.395 . S
C276 C277 1.288 . S
C277 C276 1.288 . S
C277 C278 1.392 . S
C278 H248 0.951 . S
C278 C277 1.392 . S
C278 C279 1.392 . S
C279 H249 0.949 . S
C279 C274 1.382 . S
C279 C278 1.392 . S
H280 C299 0.949 . S
H281 C300 0.950 . S
H282 C302 0.950 . S
H283 C303 0.950 . S
H284 C305 0.950 . S
H285 C308 0.950 . S
H286 C309 0.950 . S
H287 C311 0.951 . S
H288 C312 0.949 . S
H289 C314 0.949 . S
H290 C315 0.950 . S
H291 C317 0.950 . S
H292 C318 0.950 . S
H293 C320 0.950 . S
H294 C323 0.950 . S
H295 C324 0.950 . S
H296 C326 0.951 . S
H297 C327 0.949 . S
C298 C299 1.376 . S
C298 C303 1.386 . S
C298 C304 1.483 . S
C299 H280 0.949 . S
C299 C298 1.376 . S
C299 C300 1.397 . S
C300 H281 0.950 . S
C300 C299 1.397 . S
C300 C301 1.391 . S
C301 C300 1.391 . S
C301 C302 1.405 . S
C302 H282 0.950 . S
C302 C301 1.405 . S
C302 C303 1.367 . S
C303 H283 0.950 . S
C303 C298 1.386 . S
C303 C302 1.367 . S
C304 C298 1.483 . S
C304 C305 1.382 1_565 S
C304 C306 1.403 . S
C305 H284 0.950 . S
C305 C304 1.382 1_545 S
C305 C321 1.411 . S
C306 C304 1.403 . S
C306 C307 1.489 . S
C306 C320 1.411 1_565 S
C307 C306 1.489 . S
C307 C308 1.383 . S
C307 C312 1.382 . S
C308 H285 0.950 . S
C308 C307 1.383 . S
C308 C309 1.395 . S
C309 H286 0.950 . S
C309 C308 1.395 . S
C309 C310 1.288 . S
C310 C309 1.288 . S
C310 C311 1.392 . S
C311 H287 0.951 . S
C311 C310 1.392 . S
C311 C312 1.392 . S
C312 H288 0.949 . S
C312 C307 1.382 . S
C312 C311 1.392 . S
C313 C314 1.376 . S
C313 C318 1.386 . S
C313 C319 1.483 . S
C314 H289 0.949 . S
C314 C313 1.376 . S
C314 C315 1.397 . S
C315 H290 0.950 . S
C315 C314 1.397 . S
C315 C316 1.391 . S
C316 C315 1.391 . S
C316 C317 1.405 . S
C317 H291 0.950 . S
C317 C316 1.405 . S
C317 C318 1.367 . S
C318 H292 0.950 . S
C318 C313 1.386 . S
C318 C317 1.367 . S
C319 C313 1.483 . S
C319 C320 1.382 . S
C319 C321 1.403 . S
C320 H293 0.950 . S
C320 C306 1.411 1_545 S
C320 C319 1.382 . S
C321 C305 1.411 . S
C321 C319 1.403 . S
C321 C322 1.489 . S
C322 C321 1.489 . S
C322 C323 1.383 . S
C322 C327 1.382 . S
C323 H294 0.950 . S
C323 C322 1.383 . S
C323 C324 1.395 . S
C324 H295 0.950 . S
C324 C323 1.395 . S
C324 C325 1.288 . S
C325 C324 1.288 . S
C325 C326 1.392 . S
C326 H296 0.951 . S
C326 C325 1.392 . S
C326 C327 1.392 . S
C327 H297 0.949 . S
C327 C322 1.382 . S
C327 C326 1.392 . S
H328 C347 0.949 . S
H329 C348 0.950 . S
H330 C350 0.950 . S
H331 C351 0.950 . S
H332 C353 0.950 . S
H333 C356 0.950 . S
H334 C357 0.950 . S
H335 C359 0.951 . S
H336 C360 0.949 . S
H337 C362 0.949 . S
H338 C363 0.950 . S
H339 C365 0.950 . S
H340 C366 0.950 . S
H341 C368 0.950 . S
H342 C371 0.950 . S
H343 C372 0.950 . S
H344 C374 0.951 . S
H345 C375 0.949 . S
C346 C347 1.376 . S
C346 C351 1.386 . S
C346 C352 1.483 . S
C347 H328 0.949 . S
C347 C346 1.376 . S
C347 C348 1.397 . S
C348 H329 0.950 . S
C348 C347 1.397 . S
C348 C349 1.391 . S
C349 C348 1.391 . S
C349 C350 1.405 . S
C350 H330 0.950 . S
C350 C349 1.405 . S
C350 C351 1.367 . S
C351 H331 0.950 . S
C351 C346 1.386 . S
C351 C350 1.367 . S
C352 C346 1.483 . S
C352 C353 1.382 1_556 S
C352 C354 1.403 . S
C353 H332 0.950 . S
C353 C352 1.382 1_554 S
C353 C369 1.411 . S
C354 C352 1.403 . S
C354 C355 1.489 . S
C354 C368 1.411 1_556 S
C355 C354 1.489 . S
C355 C356 1.383 . S
C355 C360 1.382 . S
C356 H333 0.950 . S
C356 C355 1.383 . S
C356 C357 1.395 . S
C357 H334 0.950 . S
C357 C356 1.395 . S
C357 C358 1.288 . S
C358 C357 1.288 . S
C358 C359 1.392 . S
C359 H335 0.951 . S
C359 C358 1.392 . S
C359 C360 1.392 . S
C360 H336 0.949 . S
C360 C355 1.382 . S
C360 C359 1.392 . S
C361 C362 1.376 . S
C361 C366 1.386 . S
C361 C367 1.483 . S
C362 H337 0.949 . S
C362 C361 1.376 . S
C362 C363 1.397 . S
C363 H338 0.950 . S
C363 C362 1.397 . S
C363 C364 1.391 . S
C364 C363 1.391 . S
C364 C365 1.405 . S
C365 H339 0.950 . S
C365 C364 1.405 . S
C365 C366 1.367 . S
C366 H340 0.950 . S
C366 C361 1.386 . S
C366 C365 1.367 . S
C367 C361 1.483 . S
C367 C368 1.382 . S
C367 C369 1.403 . S
C368 H341 0.950 . S
C368 C354 1.411 1_554 S
C368 C367 1.382 . S
C369 C353 1.411 . S
C369 C367 1.403 . S
C369 C370 1.489 . S
C370 C369 1.489 . S
C370 C371 1.383 . S
C370 C375 1.382 . S
C371 H342 0.950 . S
C371 C370 1.383 . S
C371 C372 1.395 . S
C372 H343 0.950 . S
C372 C371 1.395 . S
C372 C373 1.288 . S
C373 C372 1.288 . S
C373 C374 1.392 . S
C374 H344 0.951 . S
C374 C373 1.392 . S
C374 C375 1.392 . S
C375 H345 0.949 . S
C375 C370 1.382 . S
C375 C374 1.392 . S
C376 C377 1.387 . S
C376 H380 0.950 . S
C376 C385 1.390 . S
C377 C376 1.387 . S
C377 C379 1.387 . S
H378 C385 0.950 . S
C379 C377 1.387 . S
C379 C381 1.390 . S
C379 H383 0.950 . S
H380 C376 0.950 . S
C381 C379 1.390 . S
C381 C382 1.387 . S
C381 H384 0.950 . S
C382 C381 1.387 . S
C382 C385 1.387 . S
H383 C379 0.950 . S
H384 C381 0.950 . S
C385 C376 1.390 . S
C385 H378 0.950 . S
C385 C382 1.387 . S
C386 C387 1.387 . S
C386 H390 0.950 . S
C386 C395 1.390 . S
C387 C386 1.387 . S
C387 C389 1.387 . S
H388 C395 0.950 . S
C389 C387 1.387 . S
C389 C391 1.390 . S
C389 H393 0.950 . S
H390 C386 0.950 . S
C391 C389 1.390 . S
C391 C392 1.387 . S
C391 H394 0.950 . S
C392 C391 1.387 . S
C392 C395 1.387 . S
H393 C389 0.950 . S
H394 C391 0.950 . S
C395 C386 1.390 . S
C395 H388 0.950 . S
C395 C392 1.387 . S
C396 C397 1.387 . S
C396 H400 0.950 . S
C396 C405 1.390 . S
C397 C396 1.387 . S
C397 C399 1.387 . S
H398 C405 0.950 . S
C399 C397 1.387 . S
C399 C401 1.390 . S
C399 H403 0.950 . S
H400 C396 0.950 . S
C401 C399 1.390 . S
C401 C402 1.387 . S
C401 H404 0.950 . S
C402 C401 1.387 . S
C402 C405 1.387 . S
H403 C399 0.950 . S
H404 C401 0.950 . S
C405 C396 1.390 . S
C405 H398 0.950 . S
C405 C402 1.387 . S
C406 C407 1.387 . S
C406 H410 0.950 . S
C406 C415 1.390 . S
C407 C406 1.387 . S
C407 C409 1.387 . S
H408 C415 0.950 . S
C409 C407 1.387 . S
C409 C411 1.390 . S
C409 H413 0.950 . S
H410 C406 0.950 . S
C411 C409 1.390 . S
C411 C412 1.387 . S
C411 H414 0.950 . S
C412 C411 1.387 . S
C412 C415 1.387 . S
H413 C409 0.950 . S
H414 C411 0.950 . S
C415 C406 1.390 . S
C415 H408 0.950 . S
C415 C412 1.387 . S
C416 C417 1.387 . S
C416 H420 0.950 . S
C416 C425 1.390 . S
C417 C416 1.387 . S
C417 C419 1.387 . S
H418 C425 0.950 . S
C419 C417 1.387 . S
C419 C421 1.390 . S
C419 H423 0.950 . S
H420 C416 0.950 . S
C421 C419 1.390 . S
C421 C422 1.387 . S
C421 H424 0.950 . S
C422 C421 1.387 . S
C422 C425 1.387 . S
H423 C419 0.950 . S
H424 C421 0.950 . S
C425 C416 1.390 . S
C425 H418 0.950 . S
C425 C422 1.387 . S
C426 C427 1.387 . S
C426 H430 0.950 . S
C426 C435 1.390 . S
C427 C426 1.387 . S
C427 C429 1.387 . S
H428 C435 0.950 . S
C429 C427 1.387 . S
C429 C431 1.390 . S
C429 H433 0.950 . S
H430 C426 0.950 . S
C431 C429 1.390 . S
C431 C432 1.387 . S
C431 H434 0.950 . S
C432 C431 1.387 . S
C432 C435 1.387 . S
H433 C429 0.950 . S
H434 C431 0.950 . S
C435 C426 1.390 . S
C435 H428 0.950 . S
C435 C432 1.387 . S
C436 C437 1.387 . S
C436 H440 0.950 . S
C436 C445 1.390 . S
C437 C436 1.387 . S
C437 C439 1.387 . S
H438 C445 0.950 . S
C439 C437 1.387 . S
C439 C441 1.390 . S
C439 H443 0.950 . S
H440 C436 0.950 . S
C441 C439 1.390 . S
C441 C442 1.387 . S
C441 H444 0.950 . S
C442 C441 1.387 . S
C442 C445 1.387 . S
H443 C439 0.950 . S
H444 C441 0.950 . S
C445 C436 1.390 . S
C445 H438 0.950 . S
C445 C442 1.387 . S
C446 C447 1.387 . S
C446 H450 0.950 . S
C446 C455 1.390 . S
C447 C446 1.387 . S
C447 C449 1.387 . S
H448 C455 0.950 . S
C449 C447 1.387 . S
C449 C451 1.390 . S
C449 H453 0.950 . S
H450 C446 0.950 . S
C451 C449 1.390 . S
C451 C452 1.387 . S
C451 H454 0.950 . S
C452 C451 1.387 . S
C452 C455 1.387 . S
H453 C449 0.950 . S
H454 C451 0.950 . S
C455 C446 1.390 . S
C455 H448 0.950 . S
C455 C452 1.387 . S
C456 C457 1.387 . S
C456 H460 0.950 . S
C456 C465 1.390 . S
C457 C456 1.387 . S
C457 C459 1.387 . S
H458 C465 0.950 . S
C459 C457 1.387 . S
C459 C461 1.390 . S
C459 H463 0.950 . S
H460 C456 0.950 . S
C461 C459 1.390 . S
C461 C462 1.387 . S
C461 H464 0.950 1_565 S
C462 C461 1.387 . S
C462 C465 1.387 . S
H463 C459 0.950 . S
H464 C461 0.950 1_545 S
C465 C456 1.390 . S
C465 H458 0.950 . S
C465 C462 1.387 . S
C466 C467 1.387 . S
C466 H470 0.950 . S
C466 C475 1.390 . S
C467 C466 1.387 . S
C467 C469 1.387 . S
H468 C475 0.950 . S
C469 C467 1.387 . S
C469 C471 1.390 . S
C469 H473 0.950 . S
H470 C466 0.950 . S
C471 C469 1.390 . S
C471 C472 1.387 . S
C471 H474 0.950 . S
C472 C471 1.387 . S
C472 C475 1.387 . S
H473 C469 0.950 . S
H474 C471 0.950 . S
C475 C466 1.390 . S
C475 H468 0.950 . S
C475 C472 1.387 . S
C476 C477 1.387 . S
C476 H480 0.950 . S
C476 C485 1.390 . S
C477 C476 1.387 . S
C477 C479 1.387 . S
H478 C485 0.950 . S
C479 C477 1.387 . S
C479 C481 1.390 . S
C479 H483 0.950 . S
H480 C476 0.950 . S
C481 C479 1.390 . S
C481 C482 1.387 . S
C481 H484 0.950 . S
C482 C481 1.387 . S
C482 C485 1.387 . S
H483 C479 0.950 . S
H484 C481 0.950 . S
C485 C476 1.390 . S
C485 H478 0.950 . S
C485 C482 1.387 . S
C486 C487 1.387 . S
C486 H490 0.950 . S
C486 C495 1.390 . S
C487 C486 1.387 . S
C487 C489 1.387 . S
H488 C495 0.950 . S
C489 C487 1.387 . S
C489 C491 1.390 . S
C489 H493 0.950 . S
H490 C486 0.950 . S
C491 C489 1.390 . S
C491 C492 1.387 . S
C491 H494 0.950 . S
C492 C491 1.387 . S
C492 C495 1.387 . S
H493 C489 0.950 . S
H494 C491 0.950 . S
C495 C486 1.390 . S
C495 H488 0.950 . S
C495 C492 1.387 . S
C496 C497 1.387 . S
C496 H500 0.950 . S
C496 C505 1.390 . S
C497 C496 1.387 . S
C497 C499 1.387 . S
H498 C505 0.950 . S
C499 C497 1.387 . S
C499 C501 1.390 . S
C499 H503 0.950 . S
H500 C496 0.950 . S
C501 C499 1.390 . S
C501 C502 1.387 . S
C501 H504 0.950 . S
C502 C501 1.387 . S
C502 C505 1.387 . S
H503 C499 0.950 . S
H504 C501 0.950 . S
C505 C496 1.390 . S
C505 H498 0.950 . S
C505 C502 1.387 . S
C506 C507 1.387 . S
C506 H510 0.950 . S
C506 C515 1.390 . S
C507 C506 1.387 . S
C507 C509 1.387 . S
H508 C515 0.950 . S
C509 C507 1.387 . S
C509 C511 1.390 . S
C509 H513 0.950 . S
H510 C506 0.950 . S
C511 C509 1.390 . S
C511 C512 1.387 . S
C511 H514 0.950 . S
C512 C511 1.387 . S
C512 C515 1.387 . S
H513 C509 0.950 . S
H514 C511 0.950 . S
C515 C506 1.390 . S
C515 H508 0.950 . S
C515 C512 1.387 . S
C516 C517 1.387 . S
C516 H520 0.950 . S
C516 C525 1.390 . S
C517 C516 1.387 . S
C517 C519 1.387 . S
H518 C525 0.950 . S
C519 C517 1.387 . S
C519 C521 1.390 . S
C519 H523 0.950 . S
H520 C516 0.950 . S
C521 C519 1.390 . S
C521 C522 1.387 . S
C521 H524 0.950 . S
C522 C521 1.387 . S
C522 C525 1.387 . S
H523 C519 0.950 . S
H524 C521 0.950 . S
C525 C516 1.390 . S
C525 H518 0.950 . S
C525 C522 1.387 . S
C526 C527 1.387 . S
C526 H530 0.950 . S
C526 C535 1.390 . S
C527 C526 1.387 . S
C527 C529 1.387 . S
H528 C535 0.950 . S
C529 C527 1.387 . S
C529 C531 1.390 . S
C529 H533 0.950 . S
H530 C526 0.950 . S
C531 C529 1.390 . S
C531 C532 1.387 . S
C531 H534 0.950 . S
C532 C531 1.387 . S
C532 C535 1.387 . S
H533 C529 0.950 . S
H534 C531 0.950 . S
C535 C526 1.390 . S
C535 H528 0.950 . S
C535 C532 1.387 . S
C536 C537 1.387 . S
C536 H540 0.950 . S
C536 C545 1.390 . S
C537 C536 1.387 . S
C537 C539 1.387 . S
H538 C545 0.950 . S
C539 C537 1.387 . S
C539 C541 1.390 . S
C539 H543 0.950 . S
H540 C536 0.950 . S
C541 C539 1.390 . S
C541 C542 1.387 . S
C541 H544 0.950 . S
C542 C541 1.387 . S
C542 C545 1.387 . S
H543 C539 0.950 . S
H544 C541 0.950 . S
C545 C536 1.390 . S
C545 H538 0.950 . S
C545 C542 1.387 . S
C546 C547 1.387 . S
C546 H550 0.950 . S
C546 C555 1.390 . S
C547 C546 1.387 . S
C547 C549 1.387 . S
H548 C555 0.950 . S
C549 C547 1.387 . S
C549 C551 1.390 . S
C549 H553 0.950 . S
H550 C546 0.950 . S
C551 C549 1.390 . S
C551 C552 1.387 . S
C551 H554 0.950 . S
C552 C551 1.387 . S
C552 C555 1.387 . S
H553 C549 0.950 . S
H554 C551 0.950 . S
C555 C546 1.390 . S
C555 H548 0.950 . S
C555 C552 1.387 . S
C556 C557 1.387 . S
C556 H560 0.950 . S
C556 C565 1.390 . S
C557 C556 1.387 . S
C557 C559 1.387 . S
H558 C565 0.950 . S
C559 C557 1.387 . S
C559 C561 1.390 . S
C559 H563 0.950 . S
H560 C556 0.950 . S
C561 C559 1.390 . S
C561 C562 1.387 . S
C561 H564 0.950 . S
C562 C561 1.387 . S
C562 C565 1.387 . S
H563 C559 0.950 . S
H564 C561 0.950 . S
C565 C556 1.390 . S
C565 H558 0.950 . S
C565 C562 1.387 . S
C566 C567 1.387 . S
C566 H570 0.950 . S
C566 C575 1.390 . S
C567 C566 1.387 . S
C567 C569 1.387 . S
H568 C575 0.950 . S
C569 C567 1.387 . S
C569 C571 1.390 . S
C569 H573 0.950 . S
H570 C566 0.950 . S
C571 C569 1.390 . S
C571 C572 1.387 . S
C571 H574 0.950 . S
C572 C571 1.387 . S
C572 C575 1.387 . S
H573 C569 0.950 . S
H574 C571 0.950 . S
C575 C566 1.390 . S
C575 H568 0.950 . S
C575 C572 1.387 . S
C576 C577 1.387 . S
C576 H580 0.950 . S
C576 C585 1.390 . S
C577 C576 1.387 . S
C577 C579 1.387 . S
H578 C585 0.950 . S
C579 C577 1.387 . S
C579 C581 1.390 . S
C579 H583 0.950 . S
H580 C576 0.950 . S
C581 C579 1.390 . S
C581 C582 1.387 . S
C581 H584 0.950 . S
C582 C581 1.387 . S
C582 C585 1.387 . S
H583 C579 0.950 . S
H584 C581 0.950 . S
C585 C576 1.390 . S
C585 H578 0.950 . S
C585 C582 1.387 . S
C586 C587 1.387 . S
C586 H590 0.950 . S
C586 C595 1.390 . S
C587 C586 1.387 . S
C587 C589 1.387 . S
H588 C595 0.950 . S
C589 C587 1.387 . S
C589 C591 1.390 . S
C589 H593 0.950 . S
H590 C586 0.950 . S
C591 C589 1.390 . S
C591 C592 1.387 . S
C591 H594 0.950 . S
C592 C591 1.387 . S
C592 C595 1.387 . S
H593 C589 0.950 . S
H594 C591 0.950 . S
C595 C586 1.390 . S
C595 H588 0.950 . S
C595 C592 1.387 . S
C596 C597 1.387 . S
C596 H600 0.950 . S
C596 C605 1.390 . S
C597 C596 1.387 . S
C597 C599 1.387 . S
H598 C605 0.950 . S
C599 C597 1.387 . S
C599 C601 1.390 . S
C599 H603 0.950 . S
H600 C596 0.950 . S
C601 C599 1.390 . S
C601 C602 1.387 . S
C601 H604 0.954 . S
C602 C601 1.387 . S
C602 C605 1.387 . S
H603 C599 0.950 . S
H604 C601 0.954 . S
C605 C596 1.390 . S
C605 H598 0.950 . S
C605 C602 1.387 . S
C606 C607 1.387 . S
C606 H610 0.950 . S
C606 C615 1.390 . S
C607 C606 1.387 . S
C607 C609 1.387 . S
H608 C615 0.950 . S
C609 C607 1.387 . S
C609 C611 1.390 . S
C609 H613 0.950 . S
H610 C606 0.950 . S
C611 C609 1.390 . S
C611 C612 1.387 . S
C611 H614 0.950 . S
C612 C611 1.387 . S
C612 C615 1.387 . S
H613 C609 0.950 . S
H614 C611 0.950 . S
C615 C606 1.390 . S
C615 H608 0.950 . S
C615 C612 1.387 . S
C382 C118 1.539 . S
C377 C5 1.399 . S
C392 C157 1.593 . S
C387 C16 1.324 . S
C402 C133 1.676 . S
C397 C30 1.678 . S
C412 C172 1.670 . S
C407 C40 1.621 . S
C422 C220 1.512 . S
C417 C8 1.503 . S
C432 C253 1.517 . S
C427 C18 1.437 . S
C437 C29 1.752 . S
C442 C310 1.781 . S
C452 C358 1.541 . S
C447 C38 1.291 . S
C462 C205 1.492 1_565 S
C457 C19 1.484 . S
C467 C27 1.497 . S
C472 C268 1.616 . S
C482 C325 1.612 . S
C477 C41 1.601 . S
C492 C373 1.554 . S
C487 C7 1.516 . S
C497 C52 1.599 . S
C502 C166 1.612 . S
C512 C109 1.593 . S
C507 C62 1.555 . S
C517 C74 1.482 . S
C522 C181 1.506 . S
C527 C82 1.247 . S
C532 C124 1.426 . S
C542 C301 1.821 . S
C537 C51 1.704 . S
C552 C364 1.609 . S
C547 C60 1.341 . S
C562 C229 1.524 . S
C557 C71 1.251 . S
C567 C84 1.461 . S
C572 C277 1.549 . S
C582 C316 1.681 . S
C577 C63 1.688 . S
C592 C349 1.519 . S
C587 C73 1.454 . S
C602 C214 1.589 1_565 S
C597 C85 1.597 . S
C607 C49 1.323 . S
C612 C262 1.641 . S
