# Generated by pormake.
# Topology pyr, (3,6)-cn, num edge types: 1
# Building blocks:
#     Node 0, Type 0, BuildingBlock: KAKCAD_clean_linker_0, # of connection points: 3
#     Node 1, Type 0, BuildingBlock: KAKCAD_clean_linker_0, # of connection points: 3
#     Node 2, Type 0, BuildingBlock: KAKCAD_clean_linker_0, # of connection points: 3
#     Node 3, Type 0, BuildingBlock: KAKCAD_clean_linker_0, # of connection points: 3
#     Node 4, Type 0, BuildingBlock: KAKCAD_clean_linker_0, # of connection points: 3
#     Node 5, Type 0, BuildingBlock: KAKCAD_clean_linker_0, # of connection points: 3
#     Node 6, Type 0, BuildingBlock: KAKCAD_clean_linker_0, # of connection points: 3
#     Node 7, Type 0, BuildingBlock: KAKCAD_clean_linker_0, # of connection points: 3
#     Node 8, Type 1, BuildingBlock: VOLQOD_clean_sbu_1, # of connection points: 6
#     Node 9, Type 1, BuildingBlock: VOLQOD_clean_sbu_1, # of connection points: 6
#     Node 10, Type 1, BuildingBlock: VOLQOD_clean_sbu_1, # of connection points: 6
#     Node 11, Type 1, BuildingBlock: VOLQOD_clean_sbu_1, # of connection points: 6
#     Edge 12, Type (0, 1), BuildingBlock: CIFDUS_clean_linker_0, # of connection points: 2
#     Edge 13, Type (0, 1), BuildingBlock: CIFDUS_clean_linker_0, # of connection points: 2
#     Edge 14, Type (0, 1), BuildingBlock: CIFDUS_clean_linker_0, # of connection points: 2
#     Edge 15, Type (0, 1), BuildingBlock: CIFDUS_clean_linker_0, # of connection points: 2
#     Edge 16, Type (0, 1), BuildingBlock: CIFDUS_clean_linker_0, # of connection points: 2
#     Edge 17, Type (0, 1), BuildingBlock: CIFDUS_clean_linker_0, # of connection points: 2
#     Edge 18, Type (0, 1), BuildingBlock: CIFDUS_clean_linker_0, # of connection points: 2
#     Edge 19, Type (0, 1), BuildingBlock: CIFDUS_clean_linker_0, # of connection points: 2
#     Edge 20, Type (0, 1), BuildingBlock: CIFDUS_clean_linker_0, # of connection points: 2
#     Edge 21, Type (0, 1), BuildingBlock: CIFDUS_clean_linker_0, # of connection points: 2
#     Edge 22, Type (0, 1), BuildingBlock: CIFDUS_clean_linker_0, # of connection points: 2
#     Edge 23, Type (0, 1), BuildingBlock: CIFDUS_clean_linker_0, # of connection points: 2
#     Edge 24, Type (0, 1), BuildingBlock: CIFDUS_clean_linker_0, # of connection points: 2
#     Edge 25, Type (0, 1), BuildingBlock: CIFDUS_clean_linker_0, # of connection points: 2
#     Edge 26, Type (0, 1), BuildingBlock: CIFDUS_clean_linker_0, # of connection points: 2
#     Edge 27, Type (0, 1), BuildingBlock: CIFDUS_clean_linker_0, # of connection points: 2
#     Edge 28, Type (0, 1), BuildingBlock: CIFDUS_clean_linker_0, # of connection points: 2
#     Edge 29, Type (0, 1), BuildingBlock: CIFDUS_clean_linker_0, # of connection points: 2
#     Edge 30, Type (0, 1), BuildingBlock: CIFDUS_clean_linker_0, # of connection points: 2
#     Edge 31, Type (0, 1), BuildingBlock: CIFDUS_clean_linker_0, # of connection points: 2
#     Edge 32, Type (0, 1), BuildingBlock: CIFDUS_clean_linker_0, # of connection points: 2
#     Edge 33, Type (0, 1), BuildingBlock: CIFDUS_clean_linker_0, # of connection points: 2
#     Edge 34, Type (0, 1), BuildingBlock: CIFDUS_clean_linker_0, # of connection points: 2
#     Edge 35, Type (0, 1), BuildingBlock: CIFDUS_clean_linker_0, # of connection points: 2
# Relax obj value: 0.035
# Max RMSD: 0.119
# Mean RMSD: 0.043
data_MOF--net-pry--node1-VOLQOD_clean_sbu_1--node2-KAKCAD_clean_linker_0--edge1-CIFDUS_clean_linker_0
_symmetry_space_group_name_H-M    P1
_symmetry_Int_Tables_number       1
_symmetry_cell_setting            triclinic
loop_
_symmetry_equiv_pos_as_xyz
'x, y, z'
_cell_length_a     41.20133
_cell_length_b     41.153262
_cell_length_c     41.31734
_cell_angle_alpha  90.506068
_cell_angle_beta   89.953378
_cell_angle_gamma 90.230692
loop_
_atom_site_label
_atom_site_type_symbol
_atom_site_fract_x
_atom_site_fract_y
_atom_site_fract_z
_atom_type_partial_charge
C0 C 0.10373 0.07232 0.24741 0.0
C1 C 0.09706 0.09459 0.27249 0.0
C2 C 0.11526 0.0832 0.21757 0.0
C3 C 0.11991 0.11655 0.21221 0.0
C4 C 0.11286 0.13881 0.23718 0.0
C5 C 0.10167 0.12793 0.26707 0.0
C6 C 0.13289 0.12821 0.18098 0.0
C7 C 0.1185 0.15467 0.16551 0.0
C8 C 0.13186 0.16725 0.13697 0.0
C9 C 0.15997 0.15302 0.12388 0.0
C10 C 0.17469 0.12649 0.13913 0.0
C11 C 0.16071 0.114 0.16748 0.0
C12 C 0.2055 0.11276 0.12649 0.0
C13 C 0.21011 0.10749 0.09313 0.0
C14 C 0.23072 0.10502 0.14792 0.0
C15 C 0.25971 0.09194 0.13637 0.0
C16 C 0.26424 0.08631 0.10309 0.0
C17 C 0.11738 0.19643 0.1221 0.0
C18 C 0.08355 0.19912 0.11878 0.0
C19 C 0.13722 0.22252 0.11274 0.0
C20 C 0.12349 0.25101 0.10097 0.0
C21 C 0.08961 0.25398 0.09813 0.0
C22 C 0.06981 0.22759 0.10687 0.0
C23 C 0.23922 0.0944 0.08154 0.0
H24 H 0.10056 0.04647 0.25106 0.0
H25 H 0.12041 0.06557 0.19865 0.0
H26 H 0.11655 0.16463 0.23377 0.0
H27 H 0.09645 0.14561 0.28593 0.0
H28 H 0.09722 0.16594 0.17613 0.0
H29 H 0.17195 0.09364 0.17954 0.0
H30 H 0.17074 0.16304 0.10219 0.0
H31 H 0.19102 0.11301 0.07605 0.0
H32 H 0.22823 0.10947 0.17368 0.0
H33 H 0.27878 0.08661 0.15353 0.0
H34 H 0.06771 0.17922 0.12551 0.0
H35 H 0.16333 0.22134 0.11553 0.0
H36 H 0.24191 0.09008 0.05578 0.0
H37 H 0.04367 0.22893 0.10451 0.0
H38 H 0.13943 0.27108 0.09498 0.0
C39 C 0.38713 0.95919 0.74452 0.0
C40 C 0.42072 0.96193 0.74969 0.0
C41 C 0.37519 0.9451 0.71604 0.0
C42 C 0.3966 0.93361 0.69204 0.0
C43 C 0.43019 0.93741 0.69677 0.0
C44 C 0.44212 0.95136 0.72532 0.0
C45 C 0.38393 0.9163 0.66298 0.0
C46 C 0.35555 0.92696 0.64764 0.0
C47 C 0.34226 0.90948 0.6215 0.0
C48 C 0.35793 0.88133 0.61029 0.0
C49 C 0.38618 0.87006 0.62554 0.0
C50 C 0.39911 0.88784 0.65171 0.0
C51 C 0.4009 0.83859 0.61565 0.0
C52 C 0.38095 0.8117 0.60853 0.0
C53 C 0.43481 0.83483 0.61418 0.0
C54 C 0.44841 0.80486 0.60553 0.0
C55 C 0.42835 0.77815 0.59808 0.0
C56 C 0.31084 0.91943 0.60735 0.0
C57 C 0.28446 0.9266 0.62771 0.0
C58 C 0.30668 0.921 0.57365 0.0
C59 C 0.27664 0.92964 0.56058 0.0
C60 C 0.25016 0.93635 0.581 0.0
C61 C 0.2544 0.93481 0.61467 0.0
C62 C 0.3945 0.78189 0.59984 0.0
H63 H 0.37007 0.96672 0.76306 0.0
H64 H 0.3492 0.94211 0.71341 0.0
H65 H 0.44728 0.9293 0.67851 0.0
H66 H 0.46813 0.95357 0.72851 0.0
H67 H 0.34368 0.94893 0.65606 0.0
H68 H 0.42012 0.87862 0.66437 0.0
H69 H 0.34754 0.86767 0.59025 0.0
H70 H 0.35478 0.8135 0.61023 0.0
H71 H 0.45083 0.85514 0.61935 0.0
H72 H 0.47457 0.80275 0.60413 0.0
H73 H 0.28691 0.92526 0.65377 0.0
H74 H 0.32669 0.91568 0.55745 0.0
H75 H 0.3784 0.76158 0.59486 0.0
H76 H 0.23446 0.94015 0.63095 0.0
H77 H 0.27394 0.93053 0.53452 0.0
C78 C 0.73071 0.46412 0.91815 0.0
C79 C 0.75557 0.44304 0.92791 0.0
C80 C 0.70109 0.45176 0.90688 0.0
C81 C 0.69568 0.41804 0.90509 0.0
C82 C 0.7203 0.39702 0.91555 0.0
C83 C 0.74985 0.40936 0.92686 0.0
C84 C 0.66522 0.40459 0.8909 0.0
C85 C 0.65192 0.41818 0.86284 0.0
C86 C 0.62478 0.40399 0.84769 0.0
C87 C 0.61121 0.37552 0.86068 0.0
C88 C 0.62382 0.36167 0.88908 0.0
C89 C 0.65046 0.37697 0.90428 0.0
C90 C 0.61006 0.33073 0.90223 0.0
C91 C 0.57703 0.32268 0.89826 0.0
C92 C 0.63009 0.30855 0.91846 0.0
C93 C 0.61755 0.27951 0.93051 0.0
C94 C 0.58477 0.27098 0.92573 0.0
C95 C 0.61124 0.4185 0.81776 0.0
C96 C 0.60764 0.45235 0.81524 0.0
C97 C 0.6021 0.39869 0.79139 0.0
C98 C 0.58976 0.41241 0.76316 0.0
C99 C 0.58622 0.44627 0.76059 0.0
C100 C 0.59528 0.46608 0.787 0.0
C101 C 0.5647 0.29308 0.90941 0.0
H102 H 0.73421 0.49021 0.91909 0.0
H103 H 0.68247 0.46863 0.89944 0.0
H104 H 0.71718 0.3709 0.91399 0.0
H105 H 0.76865 0.39244 0.93371 0.0
H106 H 0.6635 0.4391 0.85196 0.0
H107 H 0.65992 0.36748 0.92671 0.0
H108 H 0.59096 0.36408 0.84835 0.0
H109 H 0.56048 0.33917 0.88652 0.0
H110 H 0.65577 0.3132 0.9216 0.0
H111 H 0.63383 0.26383 0.94363 0.0
H112 H 0.61408 0.46825 0.83529 0.0
H113 H 0.60508 0.37258 0.79232 0.0
H114 H 0.53944 0.28749 0.90474 0.0
H115 H 0.59247 0.49221 0.78598 0.0
H116 H 0.58356 0.39648 0.74307 0.0
C117 C 0.90249 0.54526 0.28217 0.0
C118 C 0.93584 0.54635 0.27542 0.0
C119 C 0.89048 0.55774 0.31126 0.0
C120 C 0.91155 0.57129 0.33461 0.0
C121 C 0.94511 0.5715 0.32822 0.0
C122 C 0.95711 0.55931 0.29883 0.0
C123 C 0.89794 0.58704 0.36425 0.0
C124 C 0.8697 0.57442 0.37867 0.0
C125 C 0.85253 0.5922 0.40227 0.0
C126 C 0.86564 0.62187 0.41329 0.0
C127 C 0.89488 0.63397 0.40067 0.0
C128 C 0.91085 0.61654 0.37605 0.0
C129 C 0.90729 0.66606 0.41167 0.0
C130 C 0.88612 0.69263 0.41406 0.0
C131 C 0.94003 0.67029 0.42032 0.0
C132 C 0.95122 0.70047 0.43166 0.0
C133 C 0.92994 0.727 0.43411 0.0
C134 C 0.81947 0.58162 0.41286 0.0
C135 C 0.79872 0.56517 0.39113 0.0
C136 C 0.80736 0.58992 0.44372 0.0
C137 C 0.77498 0.5837 0.45182 0.0
C138 C 0.75402 0.56816 0.42964 0.0
C139 C 0.76674 0.55806 0.39961 0.0
C140 C 0.89732 0.72275 0.42511 0.0
H141 H 0.88546 0.53598 0.26436 0.0
H142 H 0.86444 0.55787 0.31479 0.0
H143 H 0.96208 0.58139 0.34575 0.0
H144 H 0.98299 0.56023 0.29429 0.0
H145 H 0.86057 0.551 0.37067 0.0
H146 H 0.9322 0.62704 0.36486 0.0
H147 H 0.85267 0.63631 0.43105 0.0
H148 H 0.86084 0.69017 0.40722 0.0
H149 H 0.95681 0.65013 0.41878 0.0
H150 H 0.97654 0.70315 0.43824 0.0
H151 H 0.80661 0.55868 0.36695 0.0
H152 H 0.82263 0.60187 0.46152 0.0
H153 H 0.88028 0.74266 0.42701 0.0
H154 H 0.75186 0.5451 0.38216 0.0
H155 H 0.76627 0.59207 0.47515 0.0
C156 C 0.94083 0.89981 0.79155 0.0
C157 C 0.93067 0.92914 0.77775 0.0
C158 C 0.93733 0.89443 0.82459 0.0
C159 C 0.92452 0.91861 0.8452 0.0
C160 C 0.91541 0.94846 0.83164 0.0
C161 C 0.91812 0.95353 0.7983 0.0
C162 C 0.91869 0.91147 0.88008 0.0
C163 C 0.93856 0.88926 0.89629 0.0
C164 C 0.92917 0.87603 0.92609 0.0
C165 C 0.90158 0.88849 0.94177 0.0
C166 C 0.88258 0.9125 0.92707 0.0
C167 C 0.89104 0.92348 0.89606 0.0
C168 C 0.85195 0.92367 0.94236 0.0
C169 C 0.83042 0.90118 0.95625 0.0
C170 C 0.84319 0.95662 0.94156 0.0
C171 C 0.81314 0.96673 0.95357 0.0
C172 C 0.79119 0.94406 0.9665 0.0
C173 C 0.94501 0.84594 0.93793 0.0
C174 C 0.95442 0.82182 0.91551 0.0
C175 C 0.94804 0.83951 0.97119 0.0
C176 C 0.95879 0.80912 0.98166 0.0
C177 C 0.96676 0.78467 0.95905 0.0
C178 C 0.96541 0.79177 0.92593 0.0
C179 C 0.80038 0.91127 0.9682 0.0
H180 H 0.95137 0.88068 0.77683 0.0
H181 H 0.94395 0.87077 0.83364 0.0
H182 H 0.90581 0.96785 0.84665 0.0
H183 H 0.9097 0.97637 0.78867 0.0
H184 H 0.96064 0.88074 0.88485 0.0
H185 H 0.87477 0.93978 0.88365 0.0
H186 H 0.89394 0.8785 0.96472 0.0
H187 H 0.83626 0.87556 0.9569 0.0
H188 H 0.85941 0.97452 0.9312 0.0
H189 H 0.80665 0.99213 0.95169 0.0
H190 H 0.95195 0.82543 0.8897 0.0
H191 H 0.94137 0.85763 0.98912 0.0
H192 H 0.78411 0.8933 0.97836 0.0
H193 H 0.97204 0.77372 0.90789 0.0
H194 H 0.95962 0.80436 0.00738 0.0
C195 C 0.59364 0.06651 0.29486 0.0
C196 C 0.59379 0.08994 0.27031 0.0
C197 C 0.59724 0.07582 0.32726 0.0
C198 C 0.60082 0.10877 0.33574 0.0
C199 C 0.60115 0.13217 0.31118 0.0
C200 C 0.59774 0.12284 0.27879 0.0
C201 C 0.60459 0.11874 0.37009 0.0
C202 C 0.62634 0.10232 0.39026 0.0
C203 C 0.63166 0.11284 0.42232 0.0
C204 C 0.61398 0.13948 0.43439 0.0
C205 C 0.59265 0.15638 0.41428 0.0
C206 C 0.58795 0.14588 0.38228 0.0
C207 C 0.57822 0.18721 0.42543 0.0
C208 C 0.55786 0.18841 0.45261 0.0
C209 C 0.58587 0.21596 0.40916 0.0
C210 C 0.57362 0.24561 0.42003 0.0
C211 C 0.55278 0.24713 0.44703 0.0
C212 C 0.65849 0.09857 0.44149 0.0
C213 C 0.6654 0.06517 0.43944 0.0
C214 C 0.67948 0.11892 0.45938 0.0
C215 C 0.70753 0.10649 0.47343 0.0
C216 C 0.71537 0.07351 0.4697 0.0
C217 C 0.69365 0.05279 0.45328 0.0
C218 C 0.54494 0.21808 0.46313 0.0
H219 H 0.59089 0.04094 0.28899 0.0
H220 H 0.59683 0.0573 0.34572 0.0
H221 H 0.60432 0.15771 0.31697 0.0
H222 H 0.59767 0.14146 0.26041 0.0
H223 H 0.6406 0.08257 0.38025 0.0
H224 H 0.57152 0.15915 0.36678 0.0
H225 H 0.61797 0.14814 0.45893 0.0
H226 H 0.55173 0.16638 0.46546 0.0
H227 H 0.60201 0.21556 0.38844 0.0
H228 H 0.58111 0.26739 0.40752 0.0
H229 H 0.64946 0.04875 0.4263 0.0
H230 H 0.67529 0.14484 0.46104 0.0
H231 H 0.5287 0.21817 0.48374 0.0
H232 H 0.69896 0.02716 0.45041 0.0
H233 H 0.72402 0.1231 0.48563 0.0
C234 C 0.297 0.57485 0.08734 0.0
C235 C 0.29151 0.57237 0.05388 0.0
C236 C 0.32756 0.58326 0.09919 0.0
C237 C 0.35339 0.58945 0.07786 0.0
C238 C 0.34809 0.58663 0.04434 0.0
C239 C 0.31741 0.57792 0.03244 0.0
C240 C 0.38516 0.60026 0.09101 0.0
C241 C 0.3979 0.58534 0.1186 0.0
C242 C 0.42492 0.59851 0.13477 0.0
C243 C 0.4403 0.62608 0.12193 0.0
C244 C 0.42819 0.64115 0.094 0.0
C245 C 0.40073 0.62785 0.07854 0.0
C246 C 0.44188 0.67269 0.08307 0.0
C247 C 0.45032 0.69685 0.10585 0.0
C248 C 0.44487 0.67965 0.04993 0.0
C249 C 0.45529 0.71034 0.03985 0.0
C250 C 0.46291 0.73472 0.0627 0.0
C251 C 0.43459 0.5858 0.16693 0.0
C252 C 0.4106 0.57692 0.18945 0.0
C253 C 0.46739 0.58419 0.17616 0.0
C254 C 0.4759 0.57468 0.20747 0.0
C255 C 0.45177 0.56662 0.23016 0.0
C256 C 0.41908 0.5673 0.22055 0.0
C257 C 0.46081 0.7274 0.0958 0.0
H258 H 0.27757 0.57034 0.10442 0.0
H259 H 0.33074 0.58569 0.12512 0.0
H260 H 0.36761 0.59123 0.0274 0.0
H261 H 0.31375 0.57624 0.00652 0.0
H262 H 0.386 0.5639 0.12811 0.0
H263 H 0.3901 0.64025 0.05811 0.0
H264 H 0.46086 0.63671 0.13451 0.0
H265 H 0.44787 0.69255 0.13156 0.0
H266 H 0.4388 0.66149 0.03178 0.0
H267 H 0.45648 0.71525 0.01417 0.0
H268 H 0.38507 0.57835 0.18345 0.0
H269 H 0.48647 0.5906 0.15932 0.0
H270 H 0.46697 0.74546 0.11404 0.0
H271 H 0.39991 0.56071 0.23723 0.0
H272 H 0.5013 0.57454 0.21417 0.0
C273 C 0.09554 0.26854 0.58194 0.0
C274 C 0.06379 0.25723 0.58722 0.0
C275 C 0.1038 0.30079 0.58826 0.0
C276 C 0.08037 0.32312 0.59921 0.0
C277 C 0.04842 0.31204 0.60415 0.0
C278 C 0.04025 0.27942 0.59837 0.0
C279 C 0.09006 0.35735 0.60646 0.0
C280 C 0.11472 0.37209 0.58819 0.0
C281 C 0.12936 0.40118 0.59848 0.0
C282 C 0.11636 0.41774 0.6253 0.0
C283 C 0.09065 0.40428 0.64325 0.0
C284 C 0.07777 0.37392 0.63373 0.0
C285 C 0.07994 0.42004 0.67401 0.0
C286 C 0.10289 0.43449 0.69485 0.0
C287 C 0.04712 0.41967 0.68347 0.0
C288 C 0.03768 0.43273 0.71343 0.0
C289 C 0.06085 0.44648 0.73449 0.0
C290 C 0.16124 0.41113 0.58474 0.0
C291 C 0.18465 0.38727 0.57775 0.0
C292 C 0.16989 0.44406 0.58165 0.0
C293 C 0.20161 0.45284 0.57312 0.0
C294 C 0.22523 0.42884 0.56752 0.0
C295 C 0.21612 0.39601 0.56907 0.0
C296 C 0.09344 0.44776 0.72451 0.0
H297 H 0.11425 0.25252 0.57277 0.0
H298 H 0.12889 0.30797 0.58497 0.0
H299 H 0.0297 0.32853 0.61245 0.0
H300 H 0.0156 0.27156 0.60306 0.0
H301 H 0.12391 0.35997 0.5667 0.0
H302 H 0.05971 0.36227 0.64881 0.0
H303 H 0.12744 0.44032 0.63329 0.0
H304 H 0.12846 0.43477 0.68878 0.0
H305 H 0.02878 0.40899 0.66787 0.0
H306 H 0.01239 0.43118 0.72046 0.0
H307 H 0.1792 0.36166 0.58039 0.0
H308 H 0.1524 0.46304 0.58658 0.0
H309 H 0.11187 0.45866 0.73987 0.0
H310 H 0.23357 0.37694 0.56432 0.0
H311 H 0.20793 0.47838 0.57215 0.0
O312 O 0.97159 0.06951 0.53817 0.0
Zn313 Zn 0.95484 0.02374 0.53526 0.0
O314 O 0.98349 0.99587 0.51001 0.0
Zn315 Zn 0.96243 0.98542 0.46906 0.0
Zn316 Zn 0.02389 0.01942 0.50239 0.0
Zn317 Zn 0.99217 0.95579 0.53362 0.0
O318 O 0.95961 0.93728 0.46263 0.0
O319 O 0.9768 0.91593 0.50867 0.0
O320 O 0.91008 0.02509 0.51629 0.0
O321 O 0.91635 0.00151 0.46823 0.0
O322 O 0.98706 0.00411 0.43146 0.0
O323 O 0.03046 0.02632 0.45475 0.0
O324 O 0.06236 0.995 0.51954 0.0
O325 O 0.95147 0.00752 0.58065 0.0
O326 O 0.04026 0.95089 0.54109 0.0
O327 O 0.97159 0.95748 0.57802 0.0
C328 C -2e-05 0.08115 0.53444 0.0
C329 C 0.96519 0.9127 0.48022 0.0
C330 C 0.01392 0.01941 0.42957 0.0
C331 C 0.89863 0.01592 0.4891 0.0
C332 C 0.06507 0.96815 0.53437 0.0
C333 C 0.95795 0.98046 0.59376 0.0
O334 O 0.02308 0.06396 0.52317 0.0
O335 O 0.51731 0.08017 0.97618 0.0
Zn336 Zn 0.49376 0.03742 0.9825 0.0
O337 O 0.51905 0.00805 0.00995 0.0
Zn338 Zn 0.53063 0.9686 0.98603 0.0
Zn339 Zn 0.55876 0.02996 0.02452 0.0
Zn340 Zn 0.49304 0.9957 0.04724 0.0
O341 O 0.5122 0.92824 0.00659 0.0
O342 O 0.48607 0.94747 0.04952 0.0
O343 O 0.48679 0.01715 0.93825 0.0
O344 O 0.51373 0.97057 0.94069 0.0
O345 O 0.57892 0.96284 0.98382 0.0
O346 O 0.59856 0.0044 0.01229 0.0
O347 O 0.55887 0.03626 0.07311 0.0
O348 O 0.44969 0.04708 0.00192 0.0
O349 O 0.51431 0.0101 0.0885 0.0
O350 O 0.44934 0.0167 0.04601 0.0
C351 C 0.54506 0.09047 0.98533 0.0
C352 C 0.49504 0.92371 0.03179 0.0
C353 C 0.60283 0.97856 0.99568 0.0
C354 C 0.49658 0.99079 0.92513 0.0
C355 C 0.53981 0.02632 0.09527 0.0
C356 C 0.43545 0.03658 0.02716 0.0
O357 O 0.56341 0.07353 0.00328 0.0
O358 O 0.51767 0.52075 0.5802 0.0
Zn359 Zn 0.51398 0.5426 0.53648 0.0
O360 O 0.4876 0.51613 0.5062 0.0
Zn361 Zn 0.513 0.50359 0.46826 0.0
Zn362 Zn 0.472 0.47722 0.52823 0.0
Zn363 Zn 0.45061 0.54089 0.4909 0.0
O364 O 0.49503 0.52103 0.42671 0.0
O365 O 0.45044 0.54637 0.44264 0.0
O366 O 0.55992 0.5471 0.51948 0.0
O367 O 0.55839 0.52036 0.47244 0.0
O368 O 0.51439 0.45513 0.46314 0.0
O369 O 0.48683 0.43642 0.50535 0.0
O370 O 0.42316 0.47632 0.53031 0.0
O371 O 0.49457 0.58791 0.54251 0.0
O372 O 0.40835 0.52027 0.50344 0.0
O373 O 0.4516 0.58522 0.51016 0.0
C374 C 0.50667 0.49398 0.5911 0.0
C375 C 0.46978 0.53742 0.42031 0.0
C376 C 0.50318 0.43162 0.4796 0.0
C377 C 0.57366 0.53696 0.49367 0.0
C378 C 0.40118 0.49484 0.51923 0.0
C379 C 0.4696 0.60094 0.52982 0.0
O380 O 0.489 0.47537 0.57368 0.0
O381 O 0.98934 0.50065 0.08061 0.0
Zn382 Zn 0.99394 0.48184 0.03533 0.0
O383 O 0.0188 0.51132 0.00737 0.0
Zn384 Zn 0.99277 0.52328 0.96969 0.0
Zn385 Zn 0.03089 0.5503 0.0318 0.0
Zn386 Zn 0.0584 0.49021 0.99247 0.0
O387 O 0.01299 0.50766 0.92757 0.0
O388 O 0.05881 0.48537 0.94438 0.0
O389 O 0.9488 0.47394 0.01728 0.0
O390 O 0.94822 0.50347 0.97255 0.0
O391 O 0.98717 0.57179 0.9677 0.0
O392 O 0.01244 0.59031 0.01161 0.0
O393 O 0.07921 0.55628 0.03384 0.0
O394 O 0.01662 0.4385 0.03924 0.0
O395 O 0.09877 0.51467 0.00568 0.0
O396 O 0.0615 0.44539 0.01027 0.0
C397 C -0.00091 0.52711 0.09367 0.0
C398 C 0.03952 0.49293 0.92167 0.0
C399 C 0.99592 0.59522 0.98612 0.0
C400 C 0.93415 0.48446 0.99232 0.0
C401 C 0.10312 0.54049 0.02231 0.0
C402 C 0.04341 0.42785 0.02802 0.0
O403 O 0.01498 0.54806 0.07755 0.0
H404 H 0.04889 0.05111 0.28434 0.0
H405 H 0.11947 0.11268 0.33195 0.0
H406 H 0.10023 0.09449 0.38476 0.0
H407 H 0.06324 0.06147 0.41726 0.0
H408 H 0.99169 0.00066 0.36985 0.0
H409 H 0.01158 0.01807 0.31706 0.0
C410 C 0.06017 0.06031 0.30632 0.0
C411 C 0.08553 0.08314 0.30435 0.0
C412 C 0.04883 0.04994 0.33656 0.0
C413 C 0.0997 0.09528 0.33294 0.0
C414 C 0.08881 0.08481 0.36309 0.0
C415 C 0.05203 0.0519 0.39541 0.0
C416 C 0.02606 0.02974 0.39755 0.0
C417 C 0.06335 0.06222 0.36518 0.0
C418 C 0.01168 0.01781 0.36894 0.0
C419 C 0.02306 0.0277 0.33872 0.0
H420 H 0.46827 0.93495 0.78546 0.0
H421 H 0.40079 0.01479 0.78501 0.0
H422 H 0.41916 0.03163 0.83895 0.0
H423 H 0.45301 0.02228 0.88697 0.0
H424 H 0.51962 0.94145 0.88722 0.0
H425 H 0.50319 0.92667 0.83244 0.0
C426 C 0.45797 0.95636 0.79695 0.0
C427 C 0.43331 0.97366 0.78129 0.0
C428 C 0.46838 0.96564 0.82796 0.0
C429 C 0.41969 0.00096 0.79672 0.0
C430 C 0.43022 0.01062 0.82749 0.0
C431 C 0.4641 0.00156 0.87498 0.0
C432 C 0.48743 0.98297 0.89131 0.0
C433 C 0.45431 0.99291 0.84349 0.0
C434 C 0.50146 0.95613 0.87537 0.0
C435 C 0.49213 0.94763 0.84399 0.0
H436 H 0.53596 0.42455 0.72345 0.0
H437 H 0.60796 0.50078 0.72966 0.0
H438 H 0.58835 0.52358 0.67894 0.0
H439 H 0.55248 0.52032 0.63141 0.0
H440 H 0.4817 0.44284 0.62472 0.0
H441 H 0.49928 0.42209 0.67685 0.0
C442 C 0.5475 0.44605 0.71363 0.0
C443 C 0.57349 0.4608 0.73031 0.0
C444 C 0.53637 0.45882 0.68428 0.0
C445 C 0.58771 0.48906 0.71752 0.0
C446 C 0.57663 0.50203 0.6884 0.0
C447 C 0.54068 0.49907 0.64147 0.0
C448 C 0.51587 0.48315 0.624 0.0
C449 C 0.55116 0.48694 0.67141 0.0
C450 C 0.50096 0.45556 0.63746 0.0
C451 C 0.51101 0.4436 0.66732 0.0
H452 H 0.9773 0.5789 0.23631 0.0
H453 H 0.92036 0.49098 0.2418 0.0
H454 H 0.93562 0.47666 0.18627 0.0
H455 H 0.9631 0.49049 0.13536 0.0
H456 H 0.01909 0.57927 0.12989 0.0
H457 H 0.00637 0.59171 0.18619 0.0
C458 C 0.96872 0.55633 0.22552 0.0
C459 C 0.94779 0.536 0.24309 0.0
C460 C 0.97718 0.54852 0.19348 0.0
C461 C 0.93636 0.5071 0.22864 0.0
C462 C 0.94507 0.49892 0.19691 0.0
C463 C 0.97265 0.5125 0.14649 0.0
C464 C 0.99189 0.53394 0.12824 0.0
C465 C 0.96508 0.5197 0.17893 0.0
C466 C 0.00406 0.56234 0.14319 0.0
C467 C 0.99686 0.56951 0.17546 0.0
H468 H 0.29999 0.10451 0.05062 0.0
H469 H 0.29765 0.03583 0.12896 0.0
H470 H 0.34992 0.01405 0.11184 0.0
H471 H 0.39685 0.01552 0.07591 0.0
H472 H 0.39976 0.08373 0.99712 0.0
H473 H 0.3464 0.10431 0.01288 0.0
C474 C 0.31075 0.0845 0.06367 0.0
C475 C 0.29507 0.072 0.09119 0.0
C476 C 0.34088 0.07203 0.05368 0.0
C477 C 0.30947 0.04627 0.10804 0.0
C478 C 0.33928 0.03369 0.09819 0.0
C479 C 0.38587 0.03484 0.06206 0.0
C480 C 0.40245 0.04816 0.03548 0.0
C481 C 0.35534 0.04662 0.07128 0.0
C482 C 0.3876 0.07303 0.01773 0.0
C483 C 0.3571 0.08487 0.02675 0.0
H484 H 0.19182 0.91072 0.59725 0.0
H485 H 0.23674 0.98075 0.53424 0.0
H486 H 0.18339 0.9964 0.51365 0.0
H487 H 0.12392 0.99132 0.51498 0.0
H488 H 0.07929 0.92036 0.57746 0.0
H489 H 0.13261 0.90397 0.59685 0.0
C490 C 0.18985 0.92945 0.57905 0.0
C491 C 0.21805 0.94476 0.56742 0.0
C492 C 0.15921 0.93818 0.56729 0.0
C493 C 0.21532 0.96857 0.54344 0.0
C494 C 0.18485 0.9776 0.53179 0.0
C495 C 0.12584 0.97223 0.5328 0.0
C496 C 0.09759 0.95726 0.54488 0.0
C497 C 0.15661 0.96275 0.54375 0.0
C498 C 0.10059 0.93232 0.56772 0.0
C499 C 0.13108 0.92295 0.5789 0.0
H500 H 0.79369 0.4234 0.978 0.0
H501 H 0.79029 0.49149 0.89923 0.0
H502 H 0.84464 0.5109 0.91288 0.0
H503 H 0.89386 0.50713 0.94565 0.0
H504 H 0.89794 0.43874 0.02421 0.0
H505 H 0.8427 0.42071 0.01195 0.0
C506 C 0.80489 0.44244 0.96379 0.0
C507 C 0.78792 0.45593 0.93761 0.0
C508 C 0.83633 0.45332 0.9716 0.0
C509 C 0.8026 0.48094 0.91975 0.0
C510 C 0.8338 0.49189 0.92738 0.0
C511 C 0.88273 0.48829 0.96018 0.0
C512 C 0.90021 0.4742 0.98571 0.0
C513 C 0.85099 0.47805 0.95305 0.0
C514 C 0.88516 0.45001 0.00438 0.0
C515 C 0.85355 0.43964 0.99737 0.0
H516 H 0.7252 0.55714 0.48867 0.0
H517 H 0.70287 0.56985 0.38728 0.0
H518 H 0.6458 0.56051 0.39825 0.0
H519 H 0.60195 0.54859 0.43622 0.0
H520 H 0.62248 0.54182 0.53822 0.0
H521 H 0.68046 0.55017 0.5275 0.0
C522 C 0.70794 0.55842 0.46895 0.0
C523 C 0.71884 0.56356 0.43702 0.0
C524 C 0.67471 0.55435 0.47555 0.0
C525 C 0.69573 0.56477 0.41193 0.0
C526 C 0.66286 0.55984 0.4182 0.0
C527 C 0.61916 0.54903 0.4561 0.0
C528 C 0.60818 0.54434 0.48788 0.0
C529 C 0.65213 0.55444 0.44983 0.0
C530 C 0.6305 0.54547 0.51353 0.0
C531 C 0.66359 0.55007 0.50739 0.0
H532 H 0.11082 0.29257 0.04942 0.0
H533 H 0.03583 0.2849 0.12198 0.0
H534 H 0.01374 0.33719 0.10552 0.0
H535 H 0.01746 0.38641 0.07237 0.0
H536 H 0.09409 0.39461 0.00144 0.0
H537 H 0.11397 0.34103 0.01578 0.0
C538 C 0.08974 0.3024 0.06177 0.0
C539 C 0.07512 0.28489 0.08697 0.0
C540 C 0.07755 0.3327 0.05263 0.0
C541 C 0.04739 0.29769 0.10225 0.0
C542 C 0.03487 0.32772 0.09303 0.0
C543 C 0.03838 0.37641 0.05992 0.0
C544 C 0.0543 0.39465 0.03599 0.0
C545 C 0.04998 0.34561 0.06848 0.0
C546 C 0.08144 0.38127 0.02012 0.0
C547 C 0.09286 0.35057 0.02826 0.0
H548 H 0.61726 0.21328 0.93105 0.0
H549 H 0.52287 0.25617 0.94691 0.0
H550 H 0.50187 0.20391 0.96466 0.0
H551 H 0.5105 0.14594 0.97701 0.0
H552 H 0.60657 0.10569 0.96782 0.0
H553 H 0.62692 0.15738 0.9472 0.0
C554 C 0.59226 0.21171 0.93902 0.0
C555 C 0.57187 0.23908 0.93737 0.0
C556 C 0.5806 0.18193 0.95065 0.0
C557 C 0.53921 0.23566 0.94704 0.0
C558 C 0.52715 0.20575 0.95759 0.0
C559 C 0.53586 0.14861 0.97046 0.0
C560 C 0.55701 0.12213 0.97373 0.0
C561 C 0.54763 0.17872 0.95954 0.0
C562 C 0.5899 0.12585 0.9656 0.0
C563 C 0.60151 0.15533 0.95373 0.0
H564 H 0.91769 0.78565 0.4079 0.0
H565 H 0.96785 0.74031 0.48701 0.0
H566 H 0.98372 0.7938 0.50829 0.0
H567 H 0.98156 0.85364 0.50526 0.0
H568 H 0.93117 0.89814 0.42549 0.0
H569 H 0.91697 0.84482 0.40388 0.0
C570 C 0.93202 0.7875 0.42986 0.0
C571 C 0.94138 0.75915 0.446 0.0
C572 C 0.94088 0.81819 0.44194 0.0
C573 C 0.9605 0.76184 0.47406 0.0
C574 C 0.9694 0.79239 0.48633 0.0
C575 C 0.96747 0.85166 0.48315 0.0
C576 C 0.95735 0.87995 0.46718 0.0
C577 C 0.95944 0.82078 0.47062 0.0
C578 C 0.93934 0.87688 0.43837 0.0
C579 C 0.93114 0.84636 0.42594 0.0
H580 H 0.40856 0.7398 0.54853 0.0
H581 H 0.47959 0.74555 0.62494 0.0
H582 H 0.5 0.69163 0.60983 0.0
H583 H 0.49552 0.64156 0.57633 0.0
H584 H 0.42302 0.63694 0.50083 0.0
H585 H 0.40525 0.69146 0.51443 0.0
C586 C 0.42842 0.7292 0.562 0.0
C587 C 0.44229 0.74645 0.588 0.0
C588 C 0.43969 0.69826 0.55344 0.0
C589 C 0.46855 0.73275 0.60472 0.0
C590 C 0.48009 0.70187 0.59621 0.0
C591 C 0.47598 0.65257 0.56277 0.0
C592 C 0.46053 0.63491 0.53777 0.0
C593 C 0.46556 0.68419 0.57081 0.0
C594 C 0.43526 0.64967 0.5204 0.0
C595 C 0.42501 0.68097 0.52809 0.0
H596 H 0.94339 0.98546 0.7452 0.0
H597 H 0.9226 0.88348 0.7295 0.0
H598 H 0.92992 0.89018 0.67157 0.0
H599 H 0.94309 0.92473 0.62513 0.0
H600 H 0.9583 0.0275 0.64027 0.0
H601 H 0.95127 0.02085 0.69854 0.0
C602 C 0.93981 0.96474 0.72921 0.0
C603 C 0.93302 0.93389 0.74209 0.0
C604 C 0.94292 0.96889 0.69568 0.0
C605 C 0.92889 0.90737 0.72065 0.0
C606 C 0.93273 0.91118 0.68735 0.0
C607 C 0.94471 0.94563 0.64124 0.0
C608 C 0.95139 0.97647 0.62856 0.0
C609 C 0.94004 0.94176 0.67463 0.0
C610 C 0.95305 0.0035 0.64953 0.0
C611 C 0.94918 -0.00029 0.68284 0.0
H612 H 0.5492 0.04758 0.24635 0.0
H613 H 0.6275 0.11088 0.2174 0.0
H614 H 0.61823 0.0963 0.16063 0.0
H615 H 0.58716 0.06632 0.11924 0.0
H616 H 0.50841 0.00351 0.14867 0.0
H617 H 0.51887 0.01692 0.20522 0.0
C618 C 0.56449 0.05787 0.22763 0.0
C619 C 0.58899 0.08023 0.23602 0.0
C620 C 0.55893 0.04953 0.19513 0.0
C621 C 0.60826 0.09382 0.21148 0.0
C622 C 0.60306 0.08542 0.17906 0.0
C623 C 0.57236 0.05544 0.13801 0.0
C624 C 0.547 0.03399 0.12961 0.0
C625 C 0.57832 0.06344 0.17059 0.0
C626 C 0.52803 0.02021 0.15433 0.0
C627 C 0.53398 0.02783 0.18674 0.0
H628 H 0.42105 0.5867 0.2848 0.0
H629 H 0.50183 0.52878 0.25175 0.0
H630 H 0.51502 0.51523 0.30773 0.0
H631 H 0.50275 0.51892 0.36593 0.0
H632 H 0.4208 0.57582 0.39828 0.0
H633 H 0.40865 0.59019 0.34254 0.0
C634 C 0.44133 0.57079 0.28977 0.0
C635 C 0.46027 0.55859 0.26408 0.0
C636 C 0.44851 0.56282 0.32186 0.0
C637 C 0.48698 0.5387 0.27106 0.0
C638 C 0.49442 0.53079 0.30305 0.0
C639 C 0.48225 0.5345 0.36083 0.0
C640 C 0.46272 0.54621 0.38635 0.0
C641 C 0.47526 0.54262 0.32863 0.0
C642 C 0.43623 0.56636 0.3792 0.0
C643 C 0.42925 0.57464 0.3473 0.0
H644 H 0.09425 0.43767 0.79009 0.0
H645 H 0.00662 0.48072 0.7531 0.0
H646 H 0.99213 0.49914 0.80774 0.0
H647 H 0.00473 0.50305 0.86614 0.0
H648 H 0.09358 0.46073 0.9016 0.0
H649 H 0.10746 0.44273 0.84723 0.0
C650 C 0.0722 0.45153 0.79379 0.0
C651 C 0.0517 0.45799 0.76746 0.0
C652 C 0.06426 0.46231 0.82502 0.0
C653 C 0.02275 0.47519 0.77297 0.0
C654 C 0.01455 0.48589 0.80417 0.0
C655 C 0.02717 0.49001 0.86195 0.0
C656 C 0.048 0.48329 0.88807 0.0
C657 C 0.03516 0.47959 0.83042 0.0
C658 C 0.077 0.46631 0.8821 0.0
C659 C 0.08502 0.4559 0.85097 0.0
H660 H 0.73448 0.91323 0.95323 0.0
H661 H 0.77374 0.998 0.00157 0.0
H662 H 0.71888 0.01585 0.01553 0.0
H663 H 0.65982 0.00788 0.01286 0.0
H664 H 0.62097 0.92293 0.96414 0.0
H665 H 0.67575 0.90445 0.95191 0.0
C666 C 0.73108 0.93536 0.96725 0.0
C667 C 0.75813 0.95422 0.97643 0.0
C668 C 0.69957 0.94548 0.97508 0.0
C669 C 0.75327 0.9832 0.994 0.0
C670 C 0.72195 0.99335 0.00208 0.0
C671 C 0.66329 0.98524 -0.0003 0.0
C672 C 0.63623 0.96691 0.98938 0.0
C673 C 0.6949 0.97479 0.99253 0.0
C674 C 0.64128 0.93763 0.97232 0.0
C675 C 0.67263 0.927 0.96528 0.0
H676 H 0.75725 0.03678 0.43489 0.0
H677 H 0.74597 0.08475 0.52742 0.0
H678 H 0.80159 0.07028 0.542 0.0
H679 H 0.85404 0.0464 0.52724 0.0
H680 H 0.86544 -0.00064 0.43404 0.0
H681 H 0.80897 0.01093 0.42104 0.0
C682 C 0.76677 0.0435 0.45849 0.0
C683 C 0.74758 0.0617 0.48011 0.0
C684 C 0.79883 0.03556 0.46645 0.0
C685 C 0.76041 0.07084 0.51035 0.0
C686 C 0.79216 0.06261 0.51866 0.0
C687 C 0.8442 0.03855 0.50411 0.0
C688 C 0.8641 0.02221 0.4816 0.0
C689 C 0.81174 0.04542 0.49667 0.0
C690 C 0.8508 0.01214 0.45179 0.0
C691 C 0.81847 0.01869 0.44432 0.0
H692 H 0.2351 0.59968 0.07305 0.0
H693 H 0.27417 0.5276 0.00763 0.0
H694 H 0.21914 0.51205 0.99099 0.0
H695 H 0.15993 0.51716 0.99739 0.0
H696 H 0.12149 0.58959 0.0632 0.0
H697 H 0.17634 0.60665 0.07743 0.0
C698 C 0.23152 0.58054 0.05516 0.0
C699 C 0.25853 0.56454 0.04182 0.0
C700 C 0.19998 0.5717 0.04592 0.0
C701 C 0.25369 0.54028 0.01817 0.0
C702 C 0.22227 0.53129 0.00881 0.0
C703 C 0.16352 0.53675 0.01476 0.0
C704 C 0.13655 0.55185 0.02938 0.0
C705 C 0.19522 0.54654 0.02288 0.0
C706 C 0.14172 0.57743 0.05161 0.0
C707 C 0.17311 0.58722 0.05983 0.0
H708 H 0.24909 0.47711 0.52924 0.0
H709 H 0.2788 0.40052 0.59336 0.0
H710 H 0.3356 0.41376 0.5836 0.0
H711 H 0.37687 0.44699 0.55718 0.0
H712 H 0.34769 0.5247 0.49408 0.0
H713 H 0.29072 0.51132 0.50347 0.0
C714 C 0.268 0.46352 0.54125 0.0
C715 C 0.25968 0.43768 0.56173 0.0
C716 C 0.30073 0.47144 0.53578 0.0
C717 C 0.28451 0.42011 0.57695 0.0
C718 C 0.31703 0.42778 0.57157 0.0
C719 C 0.3581 0.46101 0.5454 0.0
C720 C 0.36662 0.48675 0.52491 0.0
C721 C 0.32541 0.45332 0.55098 0.0
C722 C 0.34188 0.50474 0.51001 0.0
C723 C 0.30925 0.49711 0.51534 0.0
H724 H 0.94536 0.72838 0.93223 0.0
H725 H 0.00549 0.76589 0.00955 0.0
H726 H 0.01911 0.71039 0.02536 0.0
H727 H 0.0151 0.6514 0.016 0.0
H728 H 0.95612 0.61464 0.93724 0.0
H729 H 0.94138 0.66992 0.92284 0.0
C730 C 0.96178 0.72448 0.95232 0.0
C731 C 0.97469 0.75123 0.96946 0.0
C732 C 0.96981 0.6927 0.96091 0.0
C733 C 0.99514 0.74571 0.99603 0.0
C734 C 0.00306 0.71401 0.00495 0.0
C735 C -0.00103 0.65544 0.99572 0.0
C736 C 0.98681 0.62884 0.9777 0.0
C737 C 0.99069 0.68734 0.9874 0.0
C738 C 0.96596 0.63459 0.95147 0.0
C739 C 0.95746 0.66621 0.94322 0.0
H740 H 0.44273 0.79186 0.0889 0.0
H741 H 0.50301 0.75241 0.0128 0.0
H742 H 0.51763 0.80738 0.99594 0.0
H743 H 0.51403 0.86663 0.00356 0.0
H744 H 0.45459 0.9055 0.0808 0.0
H745 H 0.43932 0.85068 0.09669 0.0
C746 C 0.45938 0.79523 0.06885 0.0
C747 C 0.4719 0.76803 0.05227 0.0
C748 C 0.46789 0.8268 0.05951 0.0
C749 C 0.49282 0.77291 0.02584 0.0
C750 C 0.50132 0.80433 0.01629 0.0
C751 C 0.49768 0.86314 0.02383 0.0
C752 C 0.48554 0.89025 0.04094 0.0
C753 C 0.48906 0.83146 0.03302 0.0
C754 C 0.46441 0.88517 0.06719 0.0
C755 C 0.45562 0.8538 0.07633 0.0
H756 H 0.00726 0.23167 0.5629 0.0
H757 H 0.10197 0.20404 0.59787 0.0
H758 H 0.09105 0.1477 0.58333 0.0
H759 H 0.05512 0.10614 0.5599 0.0
H760 H 0.95858 0.13232 0.52988 0.0
H761 H 0.96949 0.18927 0.54387 0.0
C762 C 0.02535 0.21334 0.5679 0.0
C763 C 0.05566 0.22244 0.58092 0.0
C764 C 0.01862 0.18065 0.56032 0.0
C765 C 0.07879 0.19811 0.58695 0.0
C766 C 0.07251 0.16574 0.57888 0.0
C767 C 0.03653 0.12438 0.5564 0.0
C768 C 0.00628 0.11527 0.54358 0.0
C769 C 0.04268 0.15679 0.56523 0.0
C770 C 0.98211 0.13889 0.5397 0.0
C771 C 0.98834 0.1714 0.54764 0.0
H772 H 0.53559 0.29908 0.4104 0.0
H773 H 0.54127 0.26739 0.50965 0.0
H774 H 0.52354 0.32083 0.52825 0.0
H775 H 0.51008 0.37784 0.51655 0.0
H776 H 0.51074 0.41058 0.41764 0.0
H777 H 0.52323 0.35564 0.39877 0.0
C778 C 0.53342 0.30382 0.43616 0.0
C779 C 0.54008 0.27908 0.45849 0.0
C780 C 0.52461 0.33497 0.4468 0.0
C781 C 0.53598 0.28566 0.49175 0.0
C782 C 0.52613 0.31638 0.50248 0.0
C783 C 0.51273 0.37281 0.49087 0.0
C784 C 0.50952 0.39812 0.46849 0.0
C785 C 0.52086 0.34136 0.48025 0.0
C786 C 0.51333 0.39147 0.43531 0.0
C787 C 0.52038 0.36009 0.42451 0.0
loop_
_geom_bond_atom_site_label_1
_geom_bond_atom_site_label_2
_geom_bond_distance
_geom_bond_site_symmetry_2
_ccdc_geom_bond_type
C0 C1 1.386 . S
C0 C2 1.397 . S
C0 H24 0.931 . S
C1 C0 1.386 . S
C1 C5 1.397 . S
C2 C0 1.397 . S
C2 C3 1.384 . S
C2 H25 0.930 . S
C3 C2 1.384 . S
C3 C4 1.377 . S
C3 C6 1.481 . S
C4 C3 1.377 . S
C4 C5 1.389 . S
C4 H26 0.929 . S
C5 C1 1.397 . S
C5 C4 1.389 . S
C5 H27 0.931 . S
C6 C3 1.481 . S
C6 C7 1.387 . S
C6 C11 1.390 . S
C7 C6 1.387 . S
C7 C8 1.401 . S
C7 H28 0.930 . S
C8 C7 1.401 . S
C8 C9 1.376 . S
C8 C17 1.511 . S
C9 C8 1.376 . S
C9 C10 1.392 . S
C9 H30 0.931 . S
C10 C9 1.392 . S
C10 C11 1.361 . S
C10 C12 1.500 . S
C11 C6 1.390 . S
C11 C10 1.361 . S
C11 H29 0.931 . S
C12 C10 1.500 . S
C12 C13 1.371 . S
C12 C14 1.365 . S
C13 C12 1.371 . S
C13 C23 1.386 . S
C13 H31 0.931 . S
C14 C12 1.365 . S
C14 C15 1.409 . S
C14 H32 0.929 . S
C15 C14 1.409 . S
C15 C16 1.380 . S
C15 H33 0.930 . S
C16 C15 1.380 . S
C16 C23 1.357 . S
C17 C8 1.511 . S
C17 C18 1.341 . S
C17 C19 1.371 . S
C18 C17 1.341 . S
C18 C22 1.394 . S
C18 H34 0.930 . S
C19 C17 1.371 . S
C19 C20 1.392 . S
C19 H35 0.931 . S
C20 C19 1.392 . S
C20 C21 1.331 . S
C20 H38 0.932 . S
C21 C20 1.331 . S
C21 C22 1.336 . S
C22 C18 1.394 . S
C22 C21 1.336 . S
C22 H37 0.929 . S
C23 C13 1.386 . S
C23 C16 1.357 . S
C23 H36 0.928 . S
H24 C0 0.931 . S
H25 C2 0.930 . S
H26 C4 0.929 . S
H27 C5 0.931 . S
H28 C7 0.930 . S
H29 C11 0.931 . S
H30 C9 0.931 . S
H31 C13 0.931 . S
H32 C14 0.929 . S
H33 C15 0.930 . S
H34 C18 0.930 . S
H35 C19 0.931 . S
H36 C23 0.928 . S
H37 C22 0.929 . S
H38 C20 0.932 . S
C39 C40 1.386 . S
C39 C41 1.397 . S
C39 H63 0.931 . S
C40 C39 1.386 . S
C40 C44 1.397 . S
C41 C39 1.397 . S
C41 C42 1.384 . S
C41 H64 0.930 . S
C42 C41 1.384 . S
C42 C43 1.377 . S
C42 C45 1.481 . S
C43 C42 1.377 . S
C43 C44 1.389 . S
C43 H65 0.929 . S
C44 C40 1.397 . S
C44 C43 1.389 . S
C44 H66 0.931 . S
C45 C42 1.481 . S
C45 C46 1.387 . S
C45 C50 1.390 . S
C46 C45 1.387 . S
C46 C47 1.401 . S
C46 H67 0.930 . S
C47 C46 1.401 . S
C47 C48 1.376 . S
C47 C56 1.511 . S
C48 C47 1.376 . S
C48 C49 1.392 . S
C48 H69 0.931 . S
C49 C48 1.392 . S
C49 C50 1.361 . S
C49 C51 1.500 . S
C50 C45 1.390 . S
C50 C49 1.361 . S
C50 H68 0.931 . S
C51 C49 1.500 . S
C51 C52 1.371 . S
C51 C53 1.365 . S
C52 C51 1.371 . S
C52 C62 1.386 . S
C52 H70 0.931 . S
C53 C51 1.365 . S
C53 C54 1.409 . S
C53 H71 0.929 . S
C54 C53 1.409 . S
C54 C55 1.380 . S
C54 H72 0.930 . S
C55 C54 1.380 . S
C55 C62 1.357 . S
C56 C47 1.511 . S
C56 C57 1.341 . S
C56 C58 1.371 . S
C57 C56 1.341 . S
C57 C61 1.394 . S
C57 H73 0.930 . S
C58 C56 1.371 . S
C58 C59 1.392 . S
C58 H74 0.931 . S
C59 C58 1.392 . S
C59 C60 1.331 . S
C59 H77 0.932 . S
C60 C59 1.331 . S
C60 C61 1.336 . S
C61 C57 1.394 . S
C61 C60 1.336 . S
C61 H76 0.929 . S
C62 C52 1.386 . S
C62 C55 1.357 . S
C62 H75 0.928 . S
H63 C39 0.931 . S
H64 C41 0.930 . S
H65 C43 0.929 . S
H66 C44 0.931 . S
H67 C46 0.930 . S
H68 C50 0.931 . S
H69 C48 0.931 . S
H70 C52 0.931 . S
H71 C53 0.929 . S
H72 C54 0.930 . S
H73 C57 0.930 . S
H74 C58 0.931 . S
H75 C62 0.928 . S
H76 C61 0.929 . S
H77 C59 0.932 . S
C78 C79 1.386 . S
C78 C80 1.397 . S
C78 H102 0.931 . S
C79 C78 1.386 . S
C79 C83 1.397 . S
C80 C78 1.397 . S
C80 C81 1.384 . S
C80 H103 0.930 . S
C81 C80 1.384 . S
C81 C82 1.377 . S
C81 C84 1.481 . S
C82 C81 1.377 . S
C82 C83 1.389 . S
C82 H104 0.929 . S
C83 C79 1.397 . S
C83 C82 1.389 . S
C83 H105 0.931 . S
C84 C81 1.481 . S
C84 C85 1.387 . S
C84 C89 1.390 . S
C85 C84 1.387 . S
C85 C86 1.401 . S
C85 H106 0.930 . S
C86 C85 1.401 . S
C86 C87 1.376 . S
C86 C95 1.511 . S
C87 C86 1.376 . S
C87 C88 1.392 . S
C87 H108 0.931 . S
C88 C87 1.392 . S
C88 C89 1.361 . S
C88 C90 1.500 . S
C89 C84 1.390 . S
C89 C88 1.361 . S
C89 H107 0.931 . S
C90 C88 1.500 . S
C90 C91 1.371 . S
C90 C92 1.365 . S
C91 C90 1.371 . S
C91 C101 1.386 . S
C91 H109 0.931 . S
C92 C90 1.365 . S
C92 C93 1.409 . S
C92 H110 0.929 . S
C93 C92 1.409 . S
C93 C94 1.380 . S
C93 H111 0.930 . S
C94 C93 1.380 . S
C94 C101 1.357 . S
C95 C86 1.511 . S
C95 C96 1.341 . S
C95 C97 1.371 . S
C96 C95 1.341 . S
C96 C100 1.394 . S
C96 H112 0.930 . S
C97 C95 1.371 . S
C97 C98 1.392 . S
C97 H113 0.931 . S
C98 C97 1.392 . S
C98 C99 1.331 . S
C98 H116 0.932 . S
C99 C98 1.331 . S
C99 C100 1.336 . S
C100 C96 1.394 . S
C100 C99 1.336 . S
C100 H115 0.929 . S
C101 C91 1.386 . S
C101 C94 1.357 . S
C101 H114 0.928 . S
H102 C78 0.931 . S
H103 C80 0.930 . S
H104 C82 0.929 . S
H105 C83 0.931 . S
H106 C85 0.930 . S
H107 C89 0.931 . S
H108 C87 0.931 . S
H109 C91 0.931 . S
H110 C92 0.929 . S
H111 C93 0.930 . S
H112 C96 0.930 . S
H113 C97 0.931 . S
H114 C101 0.928 . S
H115 C100 0.929 . S
H116 C98 0.932 . S
C117 C118 1.386 . S
C117 C119 1.397 . S
C117 H141 0.931 . S
C118 C117 1.386 . S
C118 C122 1.397 . S
C119 C117 1.397 . S
C119 C120 1.384 . S
C119 H142 0.930 . S
C120 C119 1.384 . S
C120 C121 1.377 . S
C120 C123 1.481 . S
C121 C120 1.377 . S
C121 C122 1.389 . S
C121 H143 0.929 . S
C122 C118 1.397 . S
C122 C121 1.389 . S
C122 H144 0.931 . S
C123 C120 1.481 . S
C123 C124 1.387 . S
C123 C128 1.390 . S
C124 C123 1.387 . S
C124 C125 1.401 . S
C124 H145 0.930 . S
C125 C124 1.401 . S
C125 C126 1.376 . S
C125 C134 1.511 . S
C126 C125 1.376 . S
C126 C127 1.392 . S
C126 H147 0.931 . S
C127 C126 1.392 . S
C127 C128 1.361 . S
C127 C129 1.500 . S
C128 C123 1.390 . S
C128 C127 1.361 . S
C128 H146 0.931 . S
C129 C127 1.500 . S
C129 C130 1.371 . S
C129 C131 1.365 . S
C130 C129 1.371 . S
C130 C140 1.386 . S
C130 H148 0.931 . S
C131 C129 1.365 . S
C131 C132 1.409 . S
C131 H149 0.929 . S
C132 C131 1.409 . S
C132 C133 1.380 . S
C132 H150 0.930 . S
C133 C132 1.380 . S
C133 C140 1.357 . S
C134 C125 1.511 . S
C134 C135 1.341 . S
C134 C136 1.371 . S
C135 C134 1.341 . S
C135 C139 1.394 . S
C135 H151 0.930 . S
C136 C134 1.371 . S
C136 C137 1.392 . S
C136 H152 0.931 . S
C137 C136 1.392 . S
C137 C138 1.331 . S
C137 H155 0.932 . S
C138 C137 1.331 . S
C138 C139 1.336 . S
C139 C135 1.394 . S
C139 C138 1.336 . S
C139 H154 0.929 . S
C140 C130 1.386 . S
C140 C133 1.357 . S
C140 H153 0.928 . S
H141 C117 0.931 . S
H142 C119 0.930 . S
H143 C121 0.929 . S
H144 C122 0.931 . S
H145 C124 0.930 . S
H146 C128 0.931 . S
H147 C126 0.931 . S
H148 C130 0.931 . S
H149 C131 0.929 . S
H150 C132 0.930 . S
H151 C135 0.930 . S
H152 C136 0.931 . S
H153 C140 0.928 . S
H154 C139 0.929 . S
H155 C137 0.932 . S
C156 C157 1.386 . S
C156 C158 1.397 . S
C156 H180 0.931 . S
C157 C156 1.386 . S
C157 C161 1.397 1_565 S
C158 C156 1.397 . S
C158 C159 1.384 . S
C158 H181 0.930 . S
C159 C158 1.384 . S
C159 C160 1.377 . S
C159 C162 1.481 . S
C160 C159 1.377 . S
C160 C161 1.389 1_565 S
C160 H182 0.929 1_565 S
C161 C157 1.397 1_545 S
C161 C160 1.389 1_545 S
C161 H183 0.931 . S
C162 C159 1.481 . S
C162 C163 1.387 . S
C162 C167 1.390 . S
C163 C162 1.387 . S
C163 C164 1.401 . S
C163 H184 0.930 . S
C164 C163 1.401 . S
C164 C165 1.376 . S
C164 C173 1.511 . S
C165 C164 1.376 . S
C165 C166 1.392 . S
C165 H186 0.931 . S
C166 C165 1.392 . S
C166 C167 1.361 . S
C166 C168 1.500 . S
C167 C162 1.390 . S
C167 C166 1.361 . S
C167 H185 0.931 . S
C168 C166 1.500 . S
C168 C169 1.371 . S
C168 C170 1.365 . S
C169 C168 1.371 . S
C169 C179 1.386 . S
C169 H187 0.931 . S
C170 C168 1.365 . S
C170 C171 1.409 1_565 S
C170 H188 0.929 1_565 S
C171 C170 1.409 1_545 S
C171 C172 1.380 1_545 S
C171 H189 0.930 . S
C172 C171 1.380 1_565 S
C172 C179 1.357 . S
C173 C164 1.511 . S
C173 C174 1.341 . S
C173 C175 1.371 . S
C174 C173 1.341 . S
C174 C178 1.394 . S
C174 H190 0.930 . S
C175 C173 1.371 . S
C175 C176 1.392 . S
C175 H191 0.931 . S
C176 C175 1.392 . S
C176 C177 1.331 . S
C176 H194 0.932 1_556 S
C177 C176 1.331 . S
C177 C178 1.336 . S
C178 C174 1.394 . S
C178 C177 1.336 . S
C178 H193 0.929 . S
C179 C169 1.386 . S
C179 C172 1.357 . S
C179 H192 0.928 . S
H180 C156 0.931 . S
H181 C158 0.930 . S
H182 C160 0.929 1_545 S
H183 C161 0.931 . S
H184 C163 0.930 . S
H185 C167 0.931 . S
H186 C165 0.931 . S
H187 C169 0.931 . S
H188 C170 0.929 1_545 S
H189 C171 0.930 . S
H190 C174 0.930 . S
H191 C175 0.931 . S
H192 C179 0.928 . S
H193 C178 0.929 . S
H194 C176 0.932 1_554 S
C195 C196 1.386 . S
C195 C197 1.397 . S
C195 H219 0.931 1_545 S
C196 C195 1.386 . S
C196 C200 1.397 . S
C197 C195 1.397 . S
C197 C198 1.384 . S
C197 H220 0.930 . S
C198 C197 1.384 . S
C198 C199 1.377 . S
C198 C201 1.481 . S
C199 C198 1.377 . S
C199 C200 1.389 . S
C199 H221 0.929 . S
C200 C196 1.397 . S
C200 C199 1.389 . S
C200 H222 0.931 . S
C201 C198 1.481 . S
C201 C202 1.387 . S
C201 C206 1.390 . S
C202 C201 1.387 . S
C202 C203 1.401 . S
C202 H223 0.930 . S
C203 C202 1.401 . S
C203 C204 1.376 . S
C203 C212 1.511 . S
C204 C203 1.376 . S
C204 C205 1.392 . S
C204 H225 0.931 . S
C205 C204 1.392 . S
C205 C206 1.361 . S
C205 C207 1.500 . S
C206 C201 1.390 . S
C206 C205 1.361 . S
C206 H224 0.931 . S
C207 C205 1.500 . S
C207 C208 1.371 . S
C207 C209 1.365 . S
C208 C207 1.371 . S
C208 C218 1.386 . S
C208 H226 0.931 . S
C209 C207 1.365 . S
C209 C210 1.409 . S
C209 H227 0.929 . S
C210 C209 1.409 . S
C210 C211 1.380 . S
C210 H228 0.930 . S
C211 C210 1.380 . S
C211 C218 1.357 . S
C212 C203 1.511 . S
C212 C213 1.341 . S
C212 C214 1.371 . S
C213 C212 1.341 . S
C213 C217 1.394 . S
C213 H229 0.930 . S
C214 C212 1.371 . S
C214 C215 1.392 . S
C214 H230 0.931 . S
C215 C214 1.392 . S
C215 C216 1.331 . S
C215 H233 0.932 . S
C216 C215 1.331 . S
C216 C217 1.336 . S
C217 C213 1.394 . S
C217 C216 1.336 . S
C217 H232 0.929 1_545 S
C218 C208 1.386 . S
C218 C211 1.357 . S
C218 H231 0.928 . S
H219 C195 0.931 1_565 S
H220 C197 0.930 . S
H221 C199 0.929 . S
H222 C200 0.931 . S
H223 C202 0.930 . S
H224 C206 0.931 . S
H225 C204 0.931 . S
H226 C208 0.931 . S
H227 C209 0.929 . S
H228 C210 0.930 . S
H229 C213 0.930 . S
H230 C214 0.931 . S
H231 C218 0.928 . S
H232 C217 0.929 1_565 S
H233 C215 0.932 . S
C234 C235 1.386 . S
C234 C236 1.397 . S
C234 H258 0.931 . S
C235 C234 1.386 . S
C235 C239 1.397 . S
C236 C234 1.397 . S
C236 C237 1.384 . S
C236 H259 0.930 . S
C237 C236 1.384 . S
C237 C238 1.377 . S
C237 C240 1.481 . S
C238 C237 1.377 . S
C238 C239 1.389 . S
C238 H260 0.929 . S
C239 C235 1.397 . S
C239 C238 1.389 . S
C239 H261 0.931 . S
C240 C237 1.481 . S
C240 C241 1.387 . S
C240 C245 1.390 . S
C241 C240 1.387 . S
C241 C242 1.401 . S
C241 H262 0.930 . S
C242 C241 1.401 . S
C242 C243 1.376 . S
C242 C251 1.511 . S
C243 C242 1.376 . S
C243 C244 1.392 . S
C243 H264 0.931 . S
C244 C243 1.392 . S
C244 C245 1.361 . S
C244 C246 1.500 . S
C245 C240 1.390 . S
C245 C244 1.361 . S
C245 H263 0.931 . S
C246 C244 1.500 . S
C246 C247 1.371 . S
C246 C248 1.365 . S
C247 C246 1.371 . S
C247 C257 1.386 . S
C247 H265 0.931 . S
C248 C246 1.365 . S
C248 C249 1.409 . S
C248 H266 0.929 . S
C249 C248 1.409 . S
C249 C250 1.380 . S
C249 H267 0.930 . S
C250 C249 1.380 . S
C250 C257 1.357 . S
C251 C242 1.511 . S
C251 C252 1.341 . S
C251 C253 1.371 . S
C252 C251 1.341 . S
C252 C256 1.394 . S
C252 H268 0.930 . S
C253 C251 1.371 . S
C253 C254 1.392 . S
C253 H269 0.931 . S
C254 C253 1.392 . S
C254 C255 1.331 . S
C254 H272 0.932 . S
C255 C254 1.331 . S
C255 C256 1.336 . S
C256 C252 1.394 . S
C256 C255 1.336 . S
C256 H271 0.929 . S
C257 C247 1.386 . S
C257 C250 1.357 . S
C257 H270 0.928 . S
H258 C234 0.931 . S
H259 C236 0.930 . S
H260 C238 0.929 . S
H261 C239 0.931 . S
H262 C241 0.930 . S
H263 C245 0.931 . S
H264 C243 0.931 . S
H265 C247 0.931 . S
H266 C248 0.929 . S
H267 C249 0.930 . S
H268 C252 0.930 . S
H269 C253 0.931 . S
H270 C257 0.928 . S
H271 C256 0.929 . S
H272 C254 0.932 . S
C273 C274 1.386 . S
C273 C275 1.397 . S
C273 H297 0.931 . S
C274 C273 1.386 . S
C274 C278 1.397 . S
C275 C273 1.397 . S
C275 C276 1.384 . S
C275 H298 0.930 . S
C276 C275 1.384 . S
C276 C277 1.377 . S
C276 C279 1.481 . S
C277 C276 1.377 . S
C277 C278 1.389 . S
C277 H299 0.929 . S
C278 C274 1.397 . S
C278 C277 1.389 . S
C278 H300 0.931 . S
C279 C276 1.481 . S
C279 C280 1.387 . S
C279 C284 1.390 . S
C280 C279 1.387 . S
C280 C281 1.401 . S
C280 H301 0.930 . S
C281 C280 1.401 . S
C281 C282 1.376 . S
C281 C290 1.511 . S
C282 C281 1.376 . S
C282 C283 1.392 . S
C282 H303 0.931 . S
C283 C282 1.392 . S
C283 C284 1.361 . S
C283 C285 1.500 . S
C284 C279 1.390 . S
C284 C283 1.361 . S
C284 H302 0.931 . S
C285 C283 1.500 . S
C285 C286 1.371 . S
C285 C287 1.365 . S
C286 C285 1.371 . S
C286 C296 1.386 . S
C286 H304 0.931 . S
C287 C285 1.365 . S
C287 C288 1.409 . S
C287 H305 0.929 . S
C288 C287 1.409 . S
C288 C289 1.380 . S
C288 H306 0.930 . S
C289 C288 1.380 . S
C289 C296 1.357 . S
C290 C281 1.511 . S
C290 C291 1.341 . S
C290 C292 1.371 . S
C291 C290 1.341 . S
C291 C295 1.394 . S
C291 H307 0.930 . S
C292 C290 1.371 . S
C292 C293 1.392 . S
C292 H308 0.931 . S
C293 C292 1.392 . S
C293 C294 1.331 . S
C293 H311 0.932 . S
C294 C293 1.331 . S
C294 C295 1.336 . S
C295 C291 1.394 . S
C295 C294 1.336 . S
C295 H310 0.929 . S
C296 C286 1.386 . S
C296 C289 1.357 . S
C296 H309 0.928 . S
H297 C273 0.931 . S
H298 C275 0.930 . S
H299 C277 0.929 . S
H300 C278 0.931 . S
H301 C280 0.930 . S
H302 C284 0.931 . S
H303 C282 0.931 . S
H304 C286 0.931 . S
H305 C287 0.929 . S
H306 C288 0.930 . S
H307 C291 0.930 . S
H308 C292 0.931 . S
H309 C296 0.928 . S
H310 C295 0.929 . S
H311 C293 0.932 . S
O312 Zn313 1.953 . S
O312 C328 1.225 1_655 S
Zn313 O312 1.953 . S
Zn313 O314 1.949 1_655 S
Zn313 O320 1.919 . S
Zn313 O325 1.924 . S
O314 Zn313 1.949 1_455 S
O314 Zn315 1.923 1_445 S
O314 Zn316 1.950 . S
O314 Zn317 1.945 1_545 S
Zn315 O314 1.923 1_665 S
Zn315 O318 1.933 . S
Zn315 O321 1.941 1_565 S
Zn315 O322 1.965 1_665 S
Zn316 O314 1.950 . S
Zn316 O323 1.938 . S
Zn316 O324 1.913 . S
Zn316 O334 1.953 . S
Zn317 O314 1.945 1_565 S
Zn317 O319 1.932 1_455 S
Zn317 O326 1.977 . S
Zn317 O327 1.910 1_455 S
O318 Zn315 1.933 . S
O318 C329 1.226 . S
O319 Zn317 1.932 1_655 S
O319 C329 1.307 . S
O320 Zn313 1.919 . S
O320 C331 1.253 . S
O321 Zn315 1.941 1_545 S
O321 C331 1.283 . S
O322 Zn315 1.965 1_445 S
O322 C330 1.303 . S
O323 Zn316 1.938 . S
O323 C330 1.247 . S
O324 Zn316 1.913 . S
O324 C332 1.294 1_545 S
O325 Zn313 1.924 . S
O325 C333 1.310 . S
O326 Zn317 1.977 . S
O326 C332 1.272 . S
O327 Zn317 1.910 1_655 S
O327 C333 1.232 1_565 S
C328 O312 1.225 1_455 S
C328 O334 1.298 . S
C329 O318 1.226 . S
C329 O319 1.307 . S
C330 O322 1.303 . S
C330 O323 1.247 . S
C331 O320 1.253 . S
C331 O321 1.283 . S
C332 O324 1.294 1_565 S
C332 O326 1.272 . S
C333 O325 1.310 . S
C333 O327 1.232 1_545 S
O334 Zn316 1.953 . S
O334 C328 1.298 . S
O335 Zn336 1.953 . S
O335 C351 1.225 . S
Zn336 O335 1.953 . S
Zn336 O337 1.949 1_556 S
Zn336 O343 1.919 . S
Zn336 O348 1.924 1_556 S
O337 Zn336 1.949 1_554 S
O337 Zn338 1.915 1_544 S
O337 Zn339 1.950 . S
O337 Zn340 1.945 1_545 S
Zn338 O337 1.915 1_566 S
Zn338 O341 1.924 1_556 S
Zn338 O344 1.960 . S
Zn338 O345 1.967 . S
Zn339 O337 1.950 . S
Zn339 O346 1.938 . S
Zn339 O347 1.906 . S
Zn339 O357 1.953 . S
Zn340 O337 1.945 1_565 S
Zn340 O342 1.932 . S
Zn340 O349 1.977 1_565 S
Zn340 O350 1.910 1_565 S
O341 Zn338 1.924 1_554 S
O341 C352 1.226 . S
O342 Zn340 1.932 . S
O342 C352 1.307 . S
O343 Zn336 1.919 . S
O343 C354 1.253 1_545 S
O344 Zn338 1.960 . S
O344 C354 1.283 . S
O345 Zn338 1.967 . S
O345 C353 1.303 . S
O346 Zn339 1.938 . S
O346 C353 1.247 1_544 S
O347 Zn339 1.906 . S
O347 C355 1.304 . S
O348 Zn336 1.924 1_554 S
O348 C356 1.311 . S
O349 Zn340 1.977 1_545 S
O349 C355 1.272 . S
O350 Zn340 1.910 1_545 S
O350 C356 1.231 . S
C351 O335 1.225 . S
C351 O357 1.298 1_556 S
C352 O341 1.226 . S
C352 O342 1.307 . S
C353 O345 1.303 . S
C353 O346 1.247 1_566 S
C354 O343 1.253 1_565 S
C354 O344 1.283 . S
C355 O347 1.304 . S
C355 O349 1.272 . S
C356 O348 1.311 . S
C356 O350 1.231 . S
O357 Zn339 1.953 . S
O357 C351 1.298 1_554 S
O358 Zn359 1.953 . S
O358 C374 1.225 . S
Zn359 O358 1.953 . S
Zn359 O360 1.949 . S
Zn359 O366 1.919 . S
Zn359 O371 1.924 . S
O360 Zn359 1.949 . S
O360 Zn361 1.923 . S
O360 Zn362 1.950 . S
O360 Zn363 1.945 . S
Zn361 O360 1.923 . S
Zn361 O364 1.933 . S
Zn361 O367 1.941 . S
Zn361 O368 1.965 . S
Zn362 O360 1.950 . S
Zn362 O369 1.938 . S
Zn362 O370 1.906 . S
Zn362 O380 1.953 . S
Zn363 O360 1.945 . S
Zn363 O365 1.932 . S
Zn363 O372 1.977 . S
Zn363 O373 1.910 . S
O364 Zn361 1.933 . S
O364 C375 1.226 . S
O365 Zn363 1.932 . S
O365 C375 1.307 . S
O366 Zn359 1.919 . S
O366 C377 1.253 . S
O367 Zn361 1.941 . S
O367 C377 1.283 . S
O368 Zn361 1.965 . S
O368 C376 1.303 . S
O369 Zn362 1.938 . S
O369 C376 1.247 . S
O370 Zn362 1.906 . S
O370 C378 1.304 . S
O371 Zn359 1.924 . S
O371 C379 1.311 . S
O372 Zn363 1.977 . S
O372 C378 1.272 . S
O373 Zn363 1.910 . S
O373 C379 1.231 . S
C374 O358 1.225 . S
C374 O380 1.298 . S
C375 O364 1.226 . S
C375 O365 1.307 . S
C376 O368 1.303 . S
C376 O369 1.247 . S
C377 O366 1.253 . S
C377 O367 1.283 . S
C378 O370 1.304 . S
C378 O372 1.272 . S
C379 O371 1.311 . S
C379 O373 1.231 . S
O380 Zn362 1.953 . S
O380 C374 1.298 . S
O381 Zn382 1.953 . S
O381 C397 1.225 . S
Zn382 O381 1.953 . S
Zn382 O383 1.949 1_655 S
Zn382 O389 1.919 . S
Zn382 O394 1.924 . S
O383 Zn382 1.949 1_455 S
O383 Zn384 1.923 1_454 S
O383 Zn385 1.950 . S
O383 Zn386 1.945 1_554 S
Zn384 O383 1.923 1_656 S
Zn384 O387 1.933 1_655 S
Zn384 O390 1.941 . S
Zn384 O391 1.965 . S
Zn385 O383 1.950 . S
Zn385 O392 1.938 . S
Zn385 O393 1.906 . S
Zn385 O403 1.953 . S
Zn386 O383 1.945 1_556 S
Zn386 O388 1.932 . S
Zn386 O395 1.977 1_556 S
Zn386 O396 1.910 1_556 S
O387 Zn384 1.933 1_455 S
O387 C398 1.226 . S
O388 Zn386 1.932 . S
O388 C398 1.307 . S
O389 Zn382 1.919 . S
O389 C400 1.253 1_554 S
O390 Zn384 1.941 . S
O390 C400 1.283 . S
O391 Zn384 1.965 . S
O391 C399 1.303 . S
O392 Zn385 1.938 . S
O392 C399 1.247 1_454 S
O393 Zn385 1.906 . S
O393 C401 1.304 . S
O394 Zn382 1.924 . S
O394 C402 1.311 1_655 S
O395 Zn386 1.977 1_554 S
O395 C401 1.272 . S
O396 Zn386 1.910 1_554 S
O396 C402 1.231 . S
C397 O381 1.225 . S
C397 O403 1.298 1_655 S
C398 O387 1.226 . S
C398 O388 1.307 . S
C399 O391 1.303 . S
C399 O392 1.247 1_656 S
C400 O389 1.253 1_556 S
C400 O390 1.283 . S
C401 O393 1.304 . S
C401 O395 1.272 . S
C402 O394 1.311 1_455 S
C402 O396 1.231 . S
O403 Zn385 1.953 . S
O403 C397 1.298 1_455 S
H404 C410 0.930 . S
H405 C413 0.930 . S
H406 C414 0.930 . S
H407 C415 0.930 . S
H408 C418 0.930 1_655 S
H409 C419 0.930 . S
C410 H404 0.930 . S
C410 C411 1.355 . S
C410 C412 1.415 . S
C411 C410 1.355 . S
C411 C413 1.419 . S
C412 C410 1.415 . S
C412 C417 1.425 . S
C412 C419 1.409 . S
C413 H405 0.930 . S
C413 C411 1.419 . S
C413 C414 1.362 . S
C414 H406 0.930 . S
C414 C413 1.362 . S
C414 C417 1.409 . S
C415 H407 0.930 . S
C415 C416 1.355 . S
C415 C417 1.415 . S
C416 C415 1.355 . S
C416 C418 1.419 . S
C417 C412 1.425 . S
C417 C414 1.409 . S
C417 C415 1.415 . S
C418 H408 0.930 1_455 S
C418 C416 1.419 . S
C418 C419 1.362 . S
C419 H409 0.930 . S
C419 C412 1.409 . S
C419 C418 1.362 . S
H420 C426 0.930 . S
H421 C429 0.930 . S
H422 C430 0.930 . S
H423 C431 0.930 . S
H424 C434 0.930 . S
H425 C435 0.930 . S
C426 H420 0.930 . S
C426 C427 1.355 . S
C426 C428 1.415 . S
C427 C426 1.355 . S
C427 C429 1.419 . S
C428 C426 1.415 . S
C428 C433 1.425 . S
C428 C435 1.409 . S
C429 H421 0.930 . S
C429 C427 1.419 . S
C429 C430 1.362 . S
C430 H422 0.930 . S
C430 C429 1.362 . S
C430 C433 1.409 . S
C431 H423 0.930 . S
C431 C432 1.355 . S
C431 C433 1.415 . S
C432 C431 1.355 . S
C432 C434 1.419 . S
C433 C428 1.425 . S
C433 C430 1.409 . S
C433 C431 1.415 . S
C434 H424 0.930 . S
C434 C432 1.419 . S
C434 C435 1.362 . S
C435 H425 0.930 . S
C435 C428 1.409 . S
C435 C434 1.362 . S
H436 C442 0.930 . S
H437 C445 0.930 . S
H438 C446 0.930 . S
H439 C447 0.930 . S
H440 C450 0.930 . S
H441 C451 0.930 . S
C442 H436 0.930 . S
C442 C443 1.355 . S
C442 C444 1.415 . S
C443 C442 1.355 . S
C443 C445 1.419 . S
C444 C442 1.415 . S
C444 C449 1.425 . S
C444 C451 1.409 . S
C445 H437 0.930 . S
C445 C443 1.419 . S
C445 C446 1.362 . S
C446 H438 0.930 . S
C446 C445 1.362 . S
C446 C449 1.409 . S
C447 H439 0.930 . S
C447 C448 1.355 . S
C447 C449 1.415 . S
C448 C447 1.355 . S
C448 C450 1.419 . S
C449 C444 1.425 . S
C449 C446 1.409 . S
C449 C447 1.415 . S
C450 H440 0.930 . S
C450 C448 1.419 . S
C450 C451 1.362 . S
C451 H441 0.930 . S
C451 C444 1.409 . S
C451 C450 1.362 . S
H452 C458 0.930 . S
H453 C461 0.930 . S
H454 C462 0.930 . S
H455 C463 0.930 . S
H456 C466 0.930 . S
H457 C467 0.930 . S
C458 H452 0.930 . S
C458 C459 1.355 . S
C458 C460 1.415 . S
C459 C458 1.355 . S
C459 C461 1.419 . S
C460 C458 1.415 . S
C460 C465 1.425 . S
C460 C467 1.409 . S
C461 H453 0.930 . S
C461 C459 1.419 . S
C461 C462 1.362 . S
C462 H454 0.930 . S
C462 C461 1.362 . S
C462 C465 1.409 . S
C463 H455 0.930 . S
C463 C464 1.355 . S
C463 C465 1.415 . S
C464 C463 1.355 . S
C464 C466 1.419 . S
C465 C460 1.425 . S
C465 C462 1.409 . S
C465 C463 1.415 . S
C466 H456 0.930 . S
C466 C464 1.419 . S
C466 C467 1.362 . S
C467 H457 0.930 . S
C467 C460 1.409 . S
C467 C466 1.362 . S
H468 C474 0.930 . S
H469 C477 0.930 . S
H470 C478 0.930 . S
H471 C479 0.930 . S
H472 C482 0.930 . S
H473 C483 0.930 . S
C474 H468 0.930 . S
C474 C475 1.355 . S
C474 C476 1.415 . S
C475 C474 1.355 . S
C475 C477 1.419 . S
C476 C474 1.415 . S
C476 C481 1.425 . S
C476 C483 1.409 . S
C477 H469 0.930 . S
C477 C475 1.419 . S
C477 C478 1.362 . S
C478 H470 0.930 . S
C478 C477 1.362 . S
C478 C481 1.409 . S
C479 H471 0.930 . S
C479 C480 1.355 . S
C479 C481 1.415 . S
C480 C479 1.355 . S
C480 C482 1.419 . S
C481 C476 1.425 . S
C481 C478 1.409 . S
C481 C479 1.415 . S
C482 H472 0.930 . S
C482 C480 1.419 . S
C482 C483 1.362 . S
C483 H473 0.930 . S
C483 C476 1.409 . S
C483 C482 1.362 . S
H484 C490 0.930 . S
H485 C493 0.930 . S
H486 C494 0.930 . S
H487 C495 0.930 . S
H488 C498 0.930 . S
H489 C499 0.930 . S
C490 H484 0.930 . S
C490 C491 1.355 . S
C490 C492 1.415 . S
C491 C490 1.355 . S
C491 C493 1.419 . S
C492 C490 1.415 . S
C492 C497 1.425 . S
C492 C499 1.409 . S
C493 H485 0.930 . S
C493 C491 1.419 . S
C493 C494 1.362 . S
C494 H486 0.930 . S
C494 C493 1.362 . S
C494 C497 1.409 . S
C495 H487 0.930 . S
C495 C496 1.355 . S
C495 C497 1.415 . S
C496 C495 1.355 . S
C496 C498 1.419 . S
C497 C492 1.425 . S
C497 C494 1.409 . S
C497 C495 1.415 . S
C498 H488 0.930 . S
C498 C496 1.419 . S
C498 C499 1.362 . S
C499 H489 0.930 . S
C499 C492 1.409 . S
C499 C498 1.362 . S
H500 C506 0.930 . S
H501 C509 0.930 . S
H502 C510 0.930 . S
H503 C511 0.930 . S
H504 C514 0.930 . S
H505 C515 0.930 . S
C506 H500 0.930 . S
C506 C507 1.355 . S
C506 C508 1.415 . S
C507 C506 1.355 . S
C507 C509 1.419 . S
C508 C506 1.415 . S
C508 C513 1.425 . S
C508 C515 1.409 . S
C509 H501 0.930 . S
C509 C507 1.419 . S
C509 C510 1.362 . S
C510 H502 0.930 . S
C510 C509 1.362 . S
C510 C513 1.409 . S
C511 H503 0.930 . S
C511 C512 1.355 . S
C511 C513 1.415 . S
C512 C511 1.355 . S
C512 C514 1.419 . S
C513 C508 1.425 . S
C513 C510 1.409 . S
C513 C511 1.415 . S
C514 H504 0.930 . S
C514 C512 1.419 . S
C514 C515 1.362 . S
C515 H505 0.930 . S
C515 C508 1.409 . S
C515 C514 1.362 . S
H516 C522 0.930 . S
H517 C525 0.930 . S
H518 C526 0.930 . S
H519 C527 0.930 . S
H520 C530 0.930 . S
H521 C531 0.930 . S
C522 H516 0.930 . S
C522 C523 1.355 . S
C522 C524 1.415 . S
C523 C522 1.355 . S
C523 C525 1.419 . S
C524 C522 1.415 . S
C524 C529 1.425 . S
C524 C531 1.409 . S
C525 H517 0.930 . S
C525 C523 1.419 . S
C525 C526 1.362 . S
C526 H518 0.930 . S
C526 C525 1.362 . S
C526 C529 1.409 . S
C527 H519 0.930 . S
C527 C528 1.355 . S
C527 C529 1.415 . S
C528 C527 1.355 . S
C528 C530 1.419 . S
C529 C524 1.425 . S
C529 C526 1.409 . S
C529 C527 1.415 . S
C530 H520 0.930 . S
C530 C528 1.419 . S
C530 C531 1.362 . S
C531 H521 0.930 . S
C531 C524 1.409 . S
C531 C530 1.362 . S
H532 C538 0.930 . S
H533 C541 0.930 . S
H534 C542 0.930 . S
H535 C543 0.930 . S
H536 C546 0.930 . S
H537 C547 0.930 . S
C538 H532 0.930 . S
C538 C539 1.355 . S
C538 C540 1.415 . S
C539 C538 1.355 . S
C539 C541 1.419 . S
C540 C538 1.415 . S
C540 C545 1.425 . S
C540 C547 1.409 . S
C541 H533 0.930 . S
C541 C539 1.419 . S
C541 C542 1.362 . S
C542 H534 0.930 . S
C542 C541 1.362 . S
C542 C545 1.409 . S
C543 H535 0.930 . S
C543 C544 1.355 . S
C543 C545 1.415 . S
C544 C543 1.355 . S
C544 C546 1.419 . S
C545 C540 1.425 . S
C545 C542 1.409 . S
C545 C543 1.415 . S
C546 H536 0.930 . S
C546 C544 1.419 . S
C546 C547 1.362 . S
C547 H537 0.930 . S
C547 C540 1.409 . S
C547 C546 1.362 . S
H548 C554 0.930 . S
H549 C557 0.930 . S
H550 C558 0.930 . S
H551 C559 0.930 . S
H552 C562 0.930 . S
H553 C563 0.930 . S
C554 H548 0.930 . S
C554 C555 1.355 . S
C554 C556 1.415 . S
C555 C554 1.355 . S
C555 C557 1.419 . S
C556 C554 1.415 . S
C556 C561 1.425 . S
C556 C563 1.409 . S
C557 H549 0.930 . S
C557 C555 1.419 . S
C557 C558 1.362 . S
C558 H550 0.930 . S
C558 C557 1.362 . S
C558 C561 1.409 . S
C559 H551 0.930 . S
C559 C560 1.355 . S
C559 C561 1.415 . S
C560 C559 1.355 . S
C560 C562 1.419 . S
C561 C556 1.425 . S
C561 C558 1.409 . S
C561 C559 1.415 . S
C562 H552 0.930 . S
C562 C560 1.419 . S
C562 C563 1.362 . S
C563 H553 0.930 . S
C563 C556 1.409 . S
C563 C562 1.362 . S
H564 C570 0.930 . S
H565 C573 0.930 1_455 S
H566 C574 0.943 . S
H567 C575 0.930 1_455 S
H568 C578 0.930 . S
H569 C579 0.930 . S
C570 H564 0.930 . S
C570 C571 1.355 . S
C570 C572 1.415 . S
C571 C570 1.355 . S
C571 C573 1.419 . S
C572 C570 1.415 . S
C572 C577 1.425 . S
C572 C579 1.409 . S
C573 H565 0.930 1_655 S
C573 C571 1.419 . S
C573 C574 1.357 1_655 S
C574 H566 0.943 . S
C574 C573 1.357 1_455 S
C574 C577 1.402 1_455 S
C575 H567 0.930 1_655 S
C575 C576 1.355 . S
C575 C577 1.415 . S
C576 C575 1.355 . S
C576 C578 1.419 . S
C577 C572 1.425 . S
C577 C574 1.402 1_655 S
C577 C575 1.415 . S
C578 H568 0.930 . S
C578 C576 1.419 . S
C578 C579 1.362 . S
C579 H569 0.930 . S
C579 C572 1.409 . S
C579 C578 1.362 . S
H580 C586 0.930 . S
H581 C589 0.930 . S
H582 C590 0.930 . S
H583 C591 0.930 . S
H584 C594 0.930 . S
H585 C595 0.930 . S
C586 H580 0.930 . S
C586 C587 1.355 . S
C586 C588 1.415 . S
C587 C586 1.355 . S
C587 C589 1.419 . S
C588 C586 1.415 . S
C588 C593 1.425 . S
C588 C595 1.409 . S
C589 H581 0.930 . S
C589 C587 1.419 . S
C589 C590 1.362 . S
C590 H582 0.930 . S
C590 C589 1.362 . S
C590 C593 1.409 . S
C591 H583 0.930 . S
C591 C592 1.355 . S
C591 C593 1.415 . S
C592 C591 1.355 . S
C592 C594 1.419 . S
C593 C588 1.425 . S
C593 C590 1.409 . S
C593 C591 1.415 . S
C594 H584 0.930 . S
C594 C592 1.419 . S
C594 C595 1.362 . S
C595 H585 0.930 . S
C595 C588 1.409 . S
C595 C594 1.362 . S
H596 C602 0.930 . S
H597 C605 0.930 . S
H598 C606 0.930 . S
H599 C607 0.930 . S
H600 C610 0.930 . S
H601 C611 0.930 . S
C602 H596 0.930 . S
C602 C603 1.355 1_545 S
C602 C604 1.415 . S
C603 C602 1.355 1_565 S
C603 C605 1.419 . S
C604 C602 1.415 . S
C604 C609 1.425 1_545 S
C604 C611 1.409 . S
C605 H597 0.930 . S
C605 C603 1.419 . S
C605 C606 1.362 . S
C606 H598 0.930 . S
C606 C605 1.362 . S
C606 C609 1.409 . S
C607 H599 0.930 . S
C607 C608 1.355 1_565 S
C607 C609 1.415 . S
C608 C607 1.355 1_545 S
C608 C610 1.419 . S
C609 C604 1.425 1_565 S
C609 C606 1.409 . S
C609 C607 1.415 . S
C610 H600 0.930 . S
C610 C608 1.419 . S
C610 C611 1.362 . S
C611 H601 0.930 . S
C611 C604 1.409 . S
C611 C610 1.362 . S
H612 C618 0.930 1_565 S
H613 C621 0.930 . S
H614 C622 0.930 . S
H615 C623 0.930 . S
H616 C626 0.930 . S
H617 C627 0.930 . S
C618 H612 0.930 1_545 S
C618 C619 1.355 . S
C618 C620 1.415 . S
C619 C618 1.355 . S
C619 C621 1.419 . S
C620 C618 1.415 . S
C620 C625 1.425 . S
C620 C627 1.409 1_545 S
C621 H613 0.930 . S
C621 C619 1.419 . S
C621 C622 1.362 . S
C622 H614 0.930 . S
C622 C621 1.362 . S
C622 C625 1.409 . S
C623 H615 0.930 . S
C623 C624 1.355 . S
C623 C625 1.415 . S
C624 C623 1.355 . S
C624 C626 1.419 1_545 S
C625 C620 1.425 . S
C625 C622 1.409 . S
C625 C623 1.415 . S
C626 H616 0.930 . S
C626 C624 1.419 1_565 S
C626 C627 1.362 . S
C627 H617 0.930 . S
C627 C620 1.409 1_565 S
C627 C626 1.362 . S
H628 C634 0.930 . S
H629 C637 0.930 . S
H630 C638 0.930 . S
H631 C639 0.930 . S
H632 C642 0.930 . S
H633 C643 0.930 . S
C634 H628 0.930 . S
C634 C635 1.355 . S
C634 C636 1.415 . S
C635 C634 1.355 . S
C635 C637 1.419 . S
C636 C634 1.415 . S
C636 C641 1.425 . S
C636 C643 1.409 . S
C637 H629 0.930 . S
C637 C635 1.419 . S
C637 C638 1.362 . S
C638 H630 0.930 . S
C638 C637 1.362 . S
C638 C641 1.409 . S
C639 H631 0.930 . S
C639 C640 1.355 . S
C639 C641 1.415 . S
C640 C639 1.355 . S
C640 C642 1.419 . S
C641 C636 1.425 . S
C641 C638 1.409 . S
C641 C639 1.415 . S
C642 H632 0.930 . S
C642 C640 1.419 . S
C642 C643 1.362 . S
C643 H633 0.930 . S
C643 C636 1.409 . S
C643 C642 1.362 . S
H644 C650 0.930 . S
H645 C653 0.930 1_655 S
H646 C654 0.930 1_655 S
H647 C655 0.930 1_655 S
H648 C658 0.930 . S
H649 C659 0.930 . S
C650 H644 0.930 . S
C650 C651 1.355 . S
C650 C652 1.415 . S
C651 C650 1.355 . S
C651 C653 1.419 . S
C652 C650 1.415 . S
C652 C657 1.425 . S
C652 C659 1.409 . S
C653 H645 0.930 1_455 S
C653 C651 1.419 . S
C653 C654 1.362 . S
C654 H646 0.930 1_455 S
C654 C653 1.362 . S
C654 C657 1.409 . S
C655 H647 0.930 1_455 S
C655 C656 1.355 . S
C655 C657 1.415 . S
C656 C655 1.355 . S
C656 C658 1.419 . S
C657 C652 1.425 . S
C657 C654 1.409 . S
C657 C655 1.415 . S
C658 H648 0.930 . S
C658 C656 1.419 . S
C658 C659 1.362 . S
C659 H649 0.930 . S
C659 C652 1.409 . S
C659 C658 1.362 . S
H660 C666 0.930 . S
H661 C669 0.930 . S
H662 C670 0.930 . S
H663 C671 0.934 . S
H664 C674 0.930 . S
H665 C675 0.930 . S
C666 H660 0.930 . S
C666 C667 1.355 1_545 S
C666 C668 1.415 . S
C667 C666 1.355 1_565 S
C667 C669 1.419 1_556 S
C668 C666 1.415 . S
C668 C673 1.425 1_545 S
C668 C675 1.409 . S
C669 H661 0.930 . S
C669 C667 1.419 1_554 S
C669 C670 1.362 . S
C670 H662 0.930 . S
C670 C669 1.362 . S
C670 C673 1.409 1_554 S
C671 H663 0.934 . S
C671 C672 1.352 1_554 S
C671 C673 1.414 1_554 S
C672 C671 1.352 1_556 S
C672 C674 1.419 1_565 S
C673 C668 1.425 1_565 S
C673 C670 1.409 1_556 S
C673 C671 1.414 1_556 S
C674 H664 0.930 . S
C674 C672 1.419 1_545 S
C674 C675 1.362 . S
C675 H665 0.930 . S
C675 C668 1.409 . S
C675 C674 1.362 . S
H676 C682 0.930 . S
H677 C685 0.930 1_565 S
H678 C686 0.916 1_565 S
H679 C687 0.947 . S
H680 C690 0.930 . S
H681 C691 0.930 . S
C682 H676 0.930 . S
C682 C683 1.355 . S
C682 C684 1.415 . S
C683 C682 1.355 . S
C683 C685 1.419 . S
C684 C682 1.415 . S
C684 C689 1.425 . S
C684 C691 1.409 . S
C685 H677 0.930 1_545 S
C685 C683 1.419 . S
C685 C686 1.366 . S
C686 H678 0.916 1_545 S
C686 C685 1.366 . S
C686 C689 1.420 . S
C687 H679 0.947 . S
C687 C688 1.355 . S
C687 C689 1.415 . S
C688 C687 1.355 . S
C688 C690 1.419 . S
C689 C684 1.425 . S
C689 C686 1.420 . S
C689 C687 1.415 . S
C690 H680 0.930 . S
C690 C688 1.419 . S
C690 C691 1.362 . S
C691 H681 0.930 . S
C691 C684 1.409 . S
C691 C690 1.362 . S
H692 C698 0.930 . S
H693 C701 0.930 . S
H694 C702 0.930 . S
H695 C703 0.930 . S
H696 C706 0.930 . S
H697 C707 0.930 . S
C698 H692 0.930 . S
C698 C699 1.355 . S
C698 C700 1.415 . S
C699 C698 1.355 . S
C699 C701 1.419 . S
C700 C698 1.415 . S
C700 C705 1.425 . S
C700 C707 1.409 1_554 S
C701 H693 0.930 . S
C701 C699 1.419 . S
C701 C702 1.362 . S
C702 H694 0.930 . S
C702 C701 1.362 . S
C702 C705 1.409 . S
C703 H695 0.930 . S
C703 C704 1.355 . S
C703 C705 1.415 . S
C704 C703 1.355 . S
C704 C706 1.419 1_554 S
C705 C700 1.425 . S
C705 C702 1.409 . S
C705 C703 1.415 . S
C706 H696 0.930 . S
C706 C704 1.419 1_556 S
C706 C707 1.362 . S
C707 H697 0.930 . S
C707 C700 1.409 1_556 S
C707 C706 1.362 . S
H708 C714 0.930 . S
H709 C717 0.930 . S
H710 C718 0.930 . S
H711 C719 0.930 . S
H712 C722 0.930 . S
H713 C723 0.930 . S
C714 H708 0.930 . S
C714 C715 1.355 . S
C714 C716 1.415 . S
C715 C714 1.355 . S
C715 C717 1.419 . S
C716 C714 1.415 . S
C716 C721 1.425 . S
C716 C723 1.409 . S
C717 H709 0.930 . S
C717 C715 1.419 . S
C717 C718 1.362 . S
C718 H710 0.930 . S
C718 C717 1.362 . S
C718 C721 1.409 . S
C719 H711 0.930 . S
C719 C720 1.355 . S
C719 C721 1.415 . S
C720 C719 1.355 . S
C720 C722 1.419 . S
C721 C716 1.425 . S
C721 C718 1.409 . S
C721 C719 1.415 . S
C722 H712 0.930 . S
C722 C720 1.419 . S
C722 C723 1.362 . S
C723 H713 0.930 . S
C723 C716 1.409 . S
C723 C722 1.362 . S
H724 C730 0.930 . S
H725 C733 0.930 . S
H726 C734 0.930 . S
H727 C735 0.930 . S
H728 C738 0.930 . S
H729 C739 0.930 . S
C730 H724 0.930 . S
C730 C731 1.355 . S
C730 C732 1.415 . S
C731 C730 1.355 . S
C731 C733 1.419 1_556 S
C732 C730 1.415 . S
C732 C737 1.425 . S
C732 C739 1.409 . S
C733 H725 0.930 . S
C733 C731 1.419 1_554 S
C733 C734 1.362 . S
C734 H726 0.930 . S
C734 C733 1.362 . S
C734 C737 1.409 1_554 S
C735 H727 0.930 . S
C735 C736 1.355 1_554 S
C735 C737 1.415 1_554 S
C736 C735 1.355 1_556 S
C736 C738 1.419 . S
C737 C732 1.425 . S
C737 C734 1.409 1_556 S
C737 C735 1.415 1_556 S
C738 H728 0.930 . S
C738 C736 1.419 . S
C738 C739 1.362 . S
C739 H729 0.930 . S
C739 C732 1.409 . S
C739 C738 1.362 . S
H740 C746 0.930 . S
H741 C749 0.930 . S
H742 C750 0.930 . S
H743 C751 0.930 . S
H744 C754 0.930 . S
H745 C755 0.930 . S
C746 H740 0.930 . S
C746 C747 1.355 . S
C746 C748 1.415 . S
C747 C746 1.355 . S
C747 C749 1.419 . S
C748 C746 1.415 . S
C748 C753 1.425 . S
C748 C755 1.409 . S
C749 H741 0.930 . S
C749 C747 1.419 . S
C749 C750 1.362 . S
C750 H742 0.930 . S
C750 C749 1.362 . S
C750 C753 1.409 . S
C751 H743 0.930 . S
C751 C752 1.355 . S
C751 C753 1.415 . S
C752 C751 1.355 . S
C752 C754 1.419 . S
C753 C748 1.425 . S
C753 C750 1.409 . S
C753 C751 1.415 . S
C754 H744 0.930 . S
C754 C752 1.419 . S
C754 C755 1.362 . S
C755 H745 0.930 . S
C755 C748 1.409 . S
C755 C754 1.362 . S
H756 C762 0.930 . S
H757 C765 0.930 . S
H758 C766 0.930 . S
H759 C767 0.930 . S
H760 C770 0.930 . S
H761 C771 0.930 . S
C762 H756 0.930 . S
C762 C763 1.355 . S
C762 C764 1.415 . S
C763 C762 1.355 . S
C763 C765 1.419 . S
C764 C762 1.415 . S
C764 C769 1.425 . S
C764 C771 1.409 1_455 S
C765 H757 0.930 . S
C765 C763 1.419 . S
C765 C766 1.362 . S
C766 H758 0.930 . S
C766 C765 1.362 . S
C766 C769 1.409 . S
C767 H759 0.930 . S
C767 C768 1.355 . S
C767 C769 1.415 . S
C768 C767 1.355 . S
C768 C770 1.419 1_455 S
C769 C764 1.425 . S
C769 C766 1.409 . S
C769 C767 1.415 . S
C770 H760 0.930 . S
C770 C768 1.419 1_655 S
C770 C771 1.362 . S
C771 H761 0.930 . S
C771 C764 1.409 1_655 S
C771 C770 1.362 . S
H772 C778 0.930 . S
H773 C781 0.930 . S
H774 C782 0.930 . S
H775 C783 0.930 . S
H776 C786 0.930 . S
H777 C787 0.930 . S
C778 H772 0.930 . S
C778 C779 1.355 . S
C778 C780 1.415 . S
C779 C778 1.355 . S
C779 C781 1.419 . S
C780 C778 1.415 . S
C780 C785 1.425 . S
C780 C787 1.409 . S
C781 H773 0.930 . S
C781 C779 1.419 . S
C781 C782 1.362 . S
C782 H774 0.930 . S
C782 C781 1.362 . S
C782 C785 1.409 . S
C783 H775 0.930 . S
C783 C784 1.355 . S
C783 C785 1.415 . S
C784 C783 1.355 . S
C784 C786 1.419 . S
C785 C780 1.425 . S
C785 C782 1.409 . S
C785 C783 1.415 . S
C786 H776 0.930 . S
C786 C784 1.419 . S
C786 C787 1.362 . S
C787 H777 0.930 . S
C787 C780 1.409 . S
C787 C786 1.362 . S
C411 C1 1.599 . S
C416 C330 1.603 . S
C427 C40 1.609 . S
C432 C354 1.593 . S
C448 C374 1.459 . S
C443 C99 1.438 . S
C459 C118 1.464 . S
C464 C397 1.479 . S
C480 C356 1.686 . S
C475 C16 1.713 . S
C496 C332 1.670 . S
C491 C60 1.684 . S
C512 C400 1.608 . S
C507 C79 1.654 . S
C528 C377 1.515 . S
C523 C138 1.568 . S
C539 C21 1.405 . S
C544 C402 1.353 . S
C560 C351 1.663 . S
C555 C94 1.651 . S
C571 C133 1.621 . S
C576 C329 1.635 . S
C587 C55 1.392 . S
C592 C379 1.338 . S
C608 C333 1.758 . S
C603 C157 1.668 . S
C619 C196 1.633 . S
C624 C355 1.674 . S
C635 C255 1.795 . S
C640 C375 1.829 . S
C651 C289 1.801 . S
C656 C398 1.828 . S
C667 C172 1.658 . S
C672 C353 1.668 . S
C688 C331 1.677 . S
C683 C216 1.667 . S
C704 C401 1.580 . S
C699 C235 1.552 . S
C720 C378 1.561 . S
C715 C294 1.530 . S
C731 C177 1.910 . S
C736 C399 1.880 . S
C752 C352 1.657 . S
C747 C250 1.633 . S
C768 C328 1.620 . S
C763 C274 1.570 . S
C779 C211 1.873 . S
C784 C376 1.843 . S
