# Generated by pormake.
# Topology ctn, (3,4)-cn, num edge types: 1
# Building blocks:
#     Node 0, Type 0, BuildingBlock: BELTOD_clean_linker_0, # of connection points: 3
#     Node 1, Type 0, BuildingBlock: BELTOD_clean_linker_0, # of connection points: 3
#     Node 2, Type 0, BuildingBlock: BELTOD_clean_linker_0, # of connection points: 3
#     Node 3, Type 0, BuildingBlock: BELTOD_clean_linker_0, # of connection points: 3
#     Node 4, Type 0, BuildingBlock: BELTOD_clean_linker_0, # of connection points: 3
#     Node 5, Type 0, BuildingBlock: BELTOD_clean_linker_0, # of connection points: 3
#     Node 6, Type 0, BuildingBlock: BELTOD_clean_linker_0, # of connection points: 3
#     Node 7, Type 0, BuildingBlock: BELTOD_clean_linker_0, # of connection points: 3
#     Node 8, Type 0, BuildingBlock: BELTOD_clean_linker_0, # of connection points: 3
#     Node 9, Type 0, BuildingBlock: BELTOD_clean_linker_0, # of connection points: 3
#     Node 10, Type 0, BuildingBlock: BELTOD_clean_linker_0, # of connection points: 3
#     Node 11, Type 0, BuildingBlock: BELTOD_clean_linker_0, # of connection points: 3
#     Node 12, Type 0, BuildingBlock: BELTOD_clean_linker_0, # of connection points: 3
#     Node 13, Type 0, BuildingBlock: BELTOD_clean_linker_0, # of connection points: 3
#     Node 14, Type 0, BuildingBlock: BELTOD_clean_linker_0, # of connection points: 3
#     Node 15, Type 0, BuildingBlock: BELTOD_clean_linker_0, # of connection points: 3
#     Node 16, Type 1, BuildingBlock: QUQFOY_clean_sbu_1, # of connection points: 4
#     Node 17, Type 1, BuildingBlock: QUQFOY_clean_sbu_1, # of connection points: 4
#     Node 18, Type 1, BuildingBlock: QUQFOY_clean_sbu_1, # of connection points: 4
#     Node 19, Type 1, BuildingBlock: QUQFOY_clean_sbu_1, # of connection points: 4
#     Node 20, Type 1, BuildingBlock: QUQFOY_clean_sbu_1, # of connection points: 4
#     Node 21, Type 1, BuildingBlock: QUQFOY_clean_sbu_1, # of connection points: 4
#     Node 22, Type 1, BuildingBlock: QUQFOY_clean_sbu_1, # of connection points: 4
#     Node 23, Type 1, BuildingBlock: QUQFOY_clean_sbu_1, # of connection points: 4
#     Node 24, Type 1, BuildingBlock: QUQFOY_clean_sbu_1, # of connection points: 4
#     Node 25, Type 1, BuildingBlock: QUQFOY_clean_sbu_1, # of connection points: 4
#     Node 26, Type 1, BuildingBlock: QUQFOY_clean_sbu_1, # of connection points: 4
#     Node 27, Type 1, BuildingBlock: QUQFOY_clean_sbu_1, # of connection points: 4
#     Edge 28, Type (0, 1), BuildingBlock: MIFKUJ_clean_linker_0, # of connection points: 2
#     Edge 29, Type (0, 1), BuildingBlock: MIFKUJ_clean_linker_0, # of connection points: 2
#     Edge 30, Type (0, 1), BuildingBlock: MIFKUJ_clean_linker_0, # of connection points: 2
#     Edge 31, Type (0, 1), BuildingBlock: MIFKUJ_clean_linker_0, # of connection points: 2
#     Edge 32, Type (0, 1), BuildingBlock: MIFKUJ_clean_linker_0, # of connection points: 2
#     Edge 33, Type (0, 1), BuildingBlock: MIFKUJ_clean_linker_0, # of connection points: 2
#     Edge 34, Type (0, 1), BuildingBlock: MIFKUJ_clean_linker_0, # of connection points: 2
#     Edge 35, Type (0, 1), BuildingBlock: MIFKUJ_clean_linker_0, # of connection points: 2
#     Edge 36, Type (0, 1), BuildingBlock: MIFKUJ_clean_linker_0, # of connection points: 2
#     Edge 37, Type (0, 1), BuildingBlock: MIFKUJ_clean_linker_0, # of connection points: 2
#     Edge 38, Type (0, 1), BuildingBlock: MIFKUJ_clean_linker_0, # of connection points: 2
#     Edge 39, Type (0, 1), BuildingBlock: MIFKUJ_clean_linker_0, # of connection points: 2
#     Edge 40, Type (0, 1), BuildingBlock: MIFKUJ_clean_linker_0, # of connection points: 2
#     Edge 41, Type (0, 1), BuildingBlock: MIFKUJ_clean_linker_0, # of connection points: 2
#     Edge 42, Type (0, 1), BuildingBlock: MIFKUJ_clean_linker_0, # of connection points: 2
#     Edge 43, Type (0, 1), BuildingBlock: MIFKUJ_clean_linker_0, # of connection points: 2
#     Edge 44, Type (0, 1), BuildingBlock: MIFKUJ_clean_linker_0, # of connection points: 2
#     Edge 45, Type (0, 1), BuildingBlock: MIFKUJ_clean_linker_0, # of connection points: 2
#     Edge 46, Type (0, 1), BuildingBlock: MIFKUJ_clean_linker_0, # of connection points: 2
#     Edge 47, Type (0, 1), BuildingBlock: MIFKUJ_clean_linker_0, # of connection points: 2
#     Edge 48, Type (0, 1), BuildingBlock: MIFKUJ_clean_linker_0, # of connection points: 2
#     Edge 49, Type (0, 1), BuildingBlock: MIFKUJ_clean_linker_0, # of connection points: 2
#     Edge 50, Type (0, 1), BuildingBlock: MIFKUJ_clean_linker_0, # of connection points: 2
#     Edge 51, Type (0, 1), BuildingBlock: MIFKUJ_clean_linker_0, # of connection points: 2
#     Edge 52, Type (0, 1), BuildingBlock: MIFKUJ_clean_linker_0, # of connection points: 2
#     Edge 53, Type (0, 1), BuildingBlock: MIFKUJ_clean_linker_0, # of connection points: 2
#     Edge 54, Type (0, 1), BuildingBlock: MIFKUJ_clean_linker_0, # of connection points: 2
#     Edge 55, Type (0, 1), BuildingBlock: MIFKUJ_clean_linker_0, # of connection points: 2
#     Edge 56, Type (0, 1), BuildingBlock: MIFKUJ_clean_linker_0, # of connection points: 2
#     Edge 57, Type (0, 1), BuildingBlock: MIFKUJ_clean_linker_0, # of connection points: 2
#     Edge 58, Type (0, 1), BuildingBlock: MIFKUJ_clean_linker_0, # of connection points: 2
#     Edge 59, Type (0, 1), BuildingBlock: MIFKUJ_clean_linker_0, # of connection points: 2
#     Edge 60, Type (0, 1), BuildingBlock: MIFKUJ_clean_linker_0, # of connection points: 2
#     Edge 61, Type (0, 1), BuildingBlock: MIFKUJ_clean_linker_0, # of connection points: 2
#     Edge 62, Type (0, 1), BuildingBlock: MIFKUJ_clean_linker_0, # of connection points: 2
#     Edge 63, Type (0, 1), BuildingBlock: MIFKUJ_clean_linker_0, # of connection points: 2
#     Edge 64, Type (0, 1), BuildingBlock: MIFKUJ_clean_linker_0, # of connection points: 2
#     Edge 65, Type (0, 1), BuildingBlock: MIFKUJ_clean_linker_0, # of connection points: 2
#     Edge 66, Type (0, 1), BuildingBlock: MIFKUJ_clean_linker_0, # of connection points: 2
#     Edge 67, Type (0, 1), BuildingBlock: MIFKUJ_clean_linker_0, # of connection points: 2
#     Edge 68, Type (0, 1), BuildingBlock: MIFKUJ_clean_linker_0, # of connection points: 2
#     Edge 69, Type (0, 1), BuildingBlock: MIFKUJ_clean_linker_0, # of connection points: 2
#     Edge 70, Type (0, 1), BuildingBlock: MIFKUJ_clean_linker_0, # of connection points: 2
#     Edge 71, Type (0, 1), BuildingBlock: MIFKUJ_clean_linker_0, # of connection points: 2
#     Edge 72, Type (0, 1), BuildingBlock: MIFKUJ_clean_linker_0, # of connection points: 2
#     Edge 73, Type (0, 1), BuildingBlock: MIFKUJ_clean_linker_0, # of connection points: 2
#     Edge 74, Type (0, 1), BuildingBlock: MIFKUJ_clean_linker_0, # of connection points: 2
#     Edge 75, Type (0, 1), BuildingBlock: MIFKUJ_clean_linker_0, # of connection points: 2
# Relax obj value: 0.036
# Max RMSD: 0.149
# Mean RMSD: 0.068
data_MOF--net-ctn--node1-QUQFOY_clean_sbu_1--node2-BELTOD_clean_linker_0--edge1-MIFKUJ_clean_linker_0
_symmetry_space_group_name_H-M    P1
_symmetry_Int_Tables_number       1
_symmetry_cell_setting            triclinic
loop_
_symmetry_equiv_pos_as_xyz
'x, y, z'
_cell_length_a     78.457538
_cell_length_b     78.961902
_cell_length_c     78.438423
_cell_angle_alpha  92.038773
_cell_angle_beta   90.133868
_cell_angle_gamma 95.179851
loop_
_atom_site_label
_atom_site_type_symbol
_atom_site_fract_x
_atom_site_fract_y
_atom_site_fract_z
_atom_type_partial_charge
P0 P 0.09432 0.12155 0.11262 0.0
H1 H 0.08676 0.13062 0.14828 0.0
H2 H 0.06066 0.12686 0.16525 0.0
H3 H 0.03386 0.10209 0.12163 0.0
H4 H 0.05974 0.10649 0.10468 0.0
H5 H 0.12399 0.10591 0.12589 0.0
H6 H 0.13468 0.07808 0.12057 0.0
H7 H 0.09169 0.06375 0.08686 0.0
H8 H 0.08166 0.09182 0.09159 0.0
H9 H 0.0687 0.14399 0.10221 0.0
H10 H 0.11061 0.11995 0.07908 0.0
O11 O 0.1091 0.13464 0.12293 0.0
H12 H 0.06189 0.15552 0.0748 0.0
H13 H 0.10386 0.13156 0.05155 0.0
C14 C 0.07517 0.11889 0.12521 0.0
C15 C 0.07523 0.12449 0.14236 0.0
C16 C 0.06031 0.12224 0.15207 0.0
C17 C 0.04511 0.11424 0.14479 0.0
C18 C 0.04521 0.10859 0.12758 0.0
C19 C 0.06009 0.11091 0.11791 0.0
C20 C 0.1021 0.10097 0.10904 0.0
C21 C 0.11693 0.09679 0.1173 0.0
C22 C 0.12294 0.08079 0.11436 0.0
C23 C 0.11409 0.06863 0.10323 0.0
C24 C 0.09902 0.07285 0.09526 0.0
C25 C 0.09315 0.08887 0.09809 0.0
C26 C 0.08979 0.13062 0.09255 0.0
C27 C 0.07636 0.14106 0.09121 0.0
C28 C 0.07247 0.14766 0.07553 0.0
C29 C 0.08219 0.14423 0.06099 0.0
C30 C 0.09613 0.13438 0.06254 0.0
C31 C 0.09992 0.12766 0.07822 0.0
P32 P 0.30971 0.72059 0.2009 0.0
H33 H 0.32577 0.75531 0.19966 0.0
H34 H 0.31533 0.78176 0.19029 0.0
H35 H 0.26494 0.75569 0.18241 0.0
H36 H 0.27539 0.72946 0.19203 0.0
H37 H 0.34139 0.7046 0.20544 0.0
H38 H 0.36188 0.70528 0.22906 0.0
H39 H 0.33296 0.74092 0.25712 0.0
H40 H 0.31261 0.74041 0.23329 0.0
H41 H 0.29296 0.69021 0.18325 0.0
H42 H 0.28935 0.71675 0.23195 0.0
O43 O 0.31868 0.71394 0.18289 0.0
H44 H 0.27083 0.66848 0.19198 0.0
H45 H 0.26728 0.69504 0.24077 0.0
C46 C 0.3013 0.74051 0.19685 0.0
C47 C 0.31238 0.75542 0.19632 0.0
C48 C 0.30643 0.77048 0.19084 0.0
C49 C 0.2893 0.77083 0.18561 0.0
C50 C 0.27812 0.75594 0.18663 0.0
C51 C 0.28411 0.74089 0.1921 0.0
C52 C 0.32565 0.72265 0.21754 0.0
C53 C 0.33962 0.71279 0.21654 0.0
C54 C 0.3513 0.71316 0.23004 0.0
C55 C 0.34898 0.72314 0.24489 0.0
C56 C 0.33497 0.73303 0.24585 0.0
C57 C 0.32342 0.73283 0.23223 0.0
C58 C 0.29302 0.70492 0.20708 0.0
C59 C 0.28743 0.69137 0.19582 0.0
C60 C 0.27472 0.67901 0.20078 0.0
C61 C 0.26744 0.68001 0.2171 0.0
C62 C 0.27287 0.6938 0.22822 0.0
C63 C 0.28548 0.70622 0.22319 0.0
P64 P 0.94518 0.46787 0.05263 0.0
H65 H 0.93723 0.45502 0.01808 0.0
H66 H 0.93459 0.42631 0.00509 0.0
H67 H 0.93901 0.40538 0.05489 0.0
H68 H 0.94158 0.43415 0.06783 0.0
H69 H 0.94128 0.50104 0.06851 0.0
H70 H 0.91797 0.51957 0.06851 0.0
H71 H 0.88575 0.48012 0.04153 0.0
H72 H 0.90909 0.46159 0.04165 0.0
H73 H 0.97999 0.46037 0.0592 0.0
H74 H 0.93621 0.47229 0.08897 0.0
O75 O 0.95811 0.47823 0.03886 0.0
H76 H 0.99707 0.46009 0.08529 0.0
H77 H 0.95332 0.47227 0.11514 0.0
C78 C 0.93997 0.4467 0.04383 0.0
C79 C 0.93733 0.44423 0.02622 0.0
C80 C 0.93571 0.42781 0.01884 0.0
C81 C 0.93677 0.41361 0.02897 0.0
C82 C 0.93838 0.41611 0.04676 0.0
C83 C 0.93985 0.43255 0.05415 0.0
C84 C 0.92688 0.47988 0.05525 0.0
C85 C 0.92905 0.49621 0.06299 0.0
C86 C 0.91571 0.50678 0.06302 0.0
C87 C 0.90004 0.50129 0.05501 0.0
C88 C 0.89772 0.48471 0.04772 0.0
C89 C 0.91105 0.47408 0.04784 0.0
C90 C 0.95705 0.46689 0.07214 0.0
C91 C 0.97407 0.46292 0.07138 0.0
C92 C 0.98376 0.46259 0.08628 0.0
C93 C 0.97654 0.46628 0.10221 0.0
C94 C 0.95924 0.4696 0.10299 0.0
C95 C 0.9495 0.46971 0.08805 0.0
P96 P 0.693 0.82821 0.21125 0.0
H97 H 0.71953 0.84469 0.18999 0.0
H98 H 0.74246 0.86718 0.19585 0.0
H99 H 0.72824 0.86824 0.24911 0.0
H100 H 0.70632 0.84513 0.24335 0.0
H101 H 0.6721 0.80362 0.19017 0.0
H102 H 0.67863 0.77978 0.17144 0.0
H103 H 0.73228 0.78971 0.18448 0.0
H104 H 0.72545 0.81308 0.20383 0.0
H105 H 0.67143 0.84496 0.23532 0.0
H106 H 0.69096 0.79577 0.2291 0.0
O107 O 0.67934 0.83865 0.2002 0.0
H108 H 0.65619 0.83563 0.261 0.0
H109 H 0.67533 0.78624 0.25458 0.0
C110 C 0.71126 0.8431 0.2162 0.0
C111 C 0.72165 0.84953 0.20299 0.0
C112 C 0.73463 0.86256 0.20634 0.0
C113 C 0.7372 0.8697 0.22296 0.0
C114 C 0.72691 0.86294 0.23621 0.0
C115 C 0.71416 0.84973 0.23287 0.0
C116 C 0.69833 0.81039 0.198 0.0
C117 C 0.68526 0.80064 0.18899 0.0
C118 C 0.68905 0.78706 0.17821 0.0
C119 C 0.70604 0.78298 0.17618 0.0
C120 C 0.71906 0.79245 0.18574 0.0
C121 C 0.7152 0.80597 0.19668 0.0
C122 C 0.68216 0.82102 0.23022 0.0
C123 C 0.67242 0.83215 0.23948 0.0
C124 C 0.66383 0.82686 0.2542 0.0
C125 C 0.66466 0.81024 0.25975 0.0
C126 C 0.67449 0.7991 0.2505 0.0
C127 C 0.68336 0.80453 0.23594 0.0
P128 P 0.07659 0.93279 0.41599 0.0
H129 H 0.11349 0.93668 0.42181 0.0
H130 H 0.13319 0.96095 0.43135 0.0
H131 H 0.09167 0.99341 0.43027 0.0
H132 H 0.07204 0.96903 0.42145 0.0
H133 H 0.05399 0.90245 0.42277 0.0
H134 H 0.04566 0.88809 0.4491 0.0
H135 H 0.07731 0.92634 0.47829 0.0
H136 H 0.08553 0.94056 0.45218 0.0
H137 H 0.07187 0.94232 0.38101 0.0
H138 H 0.04179 0.93917 0.4269 0.0
O139 O 0.08606 0.91903 0.40338 0.0
H140 H 0.04862 0.95452 0.36638 0.0
H141 H 0.0182 0.95075 0.41223 0.0
C142 C 0.09141 0.95112 0.42059 0.0
C143 C 0.10873 0.94909 0.42337 0.0
C144 C 0.11997 0.96299 0.4288 0.0
C145 C 0.11402 0.97915 0.43158 0.0
C146 C 0.09665 0.98112 0.42848 0.0
C147 C 0.08543 0.9672 0.4232 0.0
C148 C 0.0704 0.92252 0.43545 0.0
C149 C 0.05911 0.90772 0.43485 0.0
C150 C 0.05432 0.89958 0.44989 0.0
C151 C 0.06091 0.90607 0.46573 0.0
C152 C 0.07222 0.92092 0.46625 0.0
C153 C 0.07687 0.92911 0.45126 0.0
C154 C 0.05841 0.93949 0.40489 0.0
C155 C 0.06008 0.94388 0.3878 0.0
C156 C 0.04674 0.95082 0.37946 0.0
C157 C 0.03148 0.95357 0.3881 0.0
C158 C 0.02982 0.94897 0.40523 0.0
C159 C 0.04323 0.94211 0.41358 0.0
P160 P 0.23858 0.77373 0.79233 0.0
H161 H 0.2584 0.78866 0.82134 0.0
H162 H 0.25081 0.79616 0.85066 0.0
H163 H 0.19872 0.77533 0.8408 0.0
H164 H 0.20641 0.76807 0.81138 0.0
H165 H 0.26897 0.76395 0.77437 0.0
H166 H 0.28357 0.73797 0.77343 0.0
H167 H 0.24442 0.714 0.8056 0.0
H168 H 0.23023 0.74037 0.80693 0.0
H169 H 0.21831 0.80061 0.78223 0.0
H170 H 0.21781 0.74642 0.77287 0.0
O171 O 0.25261 0.78953 0.7863 0.0
H172 H 0.19279 0.80103 0.76439 0.0
H173 H 0.19244 0.74676 0.75478 0.0
C174 C 0.23289 0.7782 0.81412 0.0
C175 C 0.24536 0.78569 0.82551 0.0
C176 C 0.24102 0.78983 0.84231 0.0
C177 C 0.22412 0.78642 0.84805 0.0
C178 C 0.21178 0.77837 0.8367 0.0
C179 C 0.21616 0.7742 0.81989 0.0
C180 C 0.24866 0.75414 0.79092 0.0
C181 C 0.26354 0.75312 0.78124 0.0
C182 C 0.2718 0.73816 0.7806 0.0
C183 C 0.26523 0.72385 0.78948 0.0
C184 C 0.25003 0.72485 0.79886 0.0
C185 C 0.24184 0.73988 0.79957 0.0
C186 C 0.22005 0.77355 0.77872 0.0
C187 C 0.21278 0.78882 0.77619 0.0
C188 C 0.19824 0.78905 0.76593 0.0
C189 C 0.19064 0.77394 0.75806 0.0
C190 C 0.19791 0.75859 0.76075 0.0
C191 C 0.2125 0.7584 0.77103 0.0
P192 P 0.95647 0.55285 0.49091 0.0
H193 H 0.98676 0.57124 0.47681 0.0
H194 H 0.00084 0.56943 0.44908 0.0
H195 H 0.96093 0.53167 0.43136 0.0
H196 H 0.94659 0.53386 0.45887 0.0
H197 H 0.95328 0.5644 0.52609 0.0
H198 H 0.9539 0.59266 0.54005 0.0
H199 H 0.95935 0.61566 0.49102 0.0
H200 H 0.95815 0.58731 0.47702 0.0
H201 H 0.94408 0.51711 0.4917 0.0
H202 H 0.92219 0.56518 0.48998 0.0
O203 O 0.96898 0.54203 0.50291 0.0
H204 H 0.91548 0.50229 0.49289 0.0
H205 H 0.89347 0.55053 0.49189 0.0
C206 C 0.96541 0.55301 0.46981 0.0
C207 C 0.98077 0.56293 0.46681 0.0
C208 C 0.98882 0.56188 0.451 0.0
C209 C 0.98187 0.5505 0.43811 0.0
C210 C 0.96647 0.54059 0.4411 0.0
C211 C 0.95826 0.54188 0.45682 0.0
C212 C 0.95624 0.5738 0.50061 0.0
C213 C 0.95455 0.57552 0.51834 0.0
C214 C 0.95478 0.59163 0.52628 0.0
C215 C 0.95681 0.60628 0.51658 0.0
C216 C 0.95799 0.60453 0.49875 0.0
C217 C 0.95742 0.58836 0.49078 0.0
C218 C 0.93523 0.54223 0.49113 0.0
C219 C 0.93309 0.52447 0.49172 0.0
C220 C 0.91672 0.51604 0.4925 0.0
C221 C 0.90217 0.52524 0.49279 0.0
C222 C 0.90438 0.54305 0.49164 0.0
C223 C 0.92081 0.55146 0.49071 0.0
P224 P 0.80897 0.85008 0.82945 0.0
H225 H 0.84623 0.85416 0.82906 0.0
H226 H 0.86732 0.84758 0.80755 0.0
H227 H 0.8265 0.82986 0.77247 0.0
H228 H 0.80543 0.83653 0.79405 0.0
H229 H 0.79911 0.88469 0.82784 0.0
H230 H 0.77339 0.89642 0.81761 0.0
H231 H 0.75243 0.84605 0.80102 0.0
H232 H 0.77831 0.83431 0.8114 0.0
H233 H 0.82743 0.82047 0.83656 0.0
H234 H 0.77825 0.83824 0.84828 0.0
O235 O 0.81815 0.86434 0.84364 0.0
H236 H 0.82092 0.79618 0.85445 0.0
H237 H 0.77129 0.81354 0.86558 0.0
C238 C 0.82426 0.84616 0.81305 0.0
C239 C 0.8418 0.84905 0.81668 0.0
C240 C 0.85385 0.84514 0.80443 0.0
C241 C 0.84855 0.83823 0.78832 0.0
C242 C 0.83094 0.83538 0.7847 0.0
C243 C 0.81889 0.83919 0.79703 0.0
C244 C 0.79047 0.85861 0.82065 0.0
C245 C 0.78902 0.87615 0.822 0.0
C246 C 0.7743 0.88283 0.81619 0.0
C247 C 0.76083 0.87211 0.80873 0.0
C248 C 0.76262 0.8546 0.80671 0.0
C249 C 0.77735 0.84789 0.81267 0.0
C250 C 0.80315 0.83096 0.8407 0.0
C251 C 0.81504 0.81893 0.84261 0.0
C252 C 0.81126 0.80497 0.85284 0.0
C253 C 0.79554 0.80282 0.86144 0.0
C254 C 0.78359 0.81486 0.85931 0.0
C255 C 0.78746 0.82889 0.8492 0.0
P256 P 0.31097 0.34312 0.32934 0.0
H257 H 0.34567 0.35742 0.32167 0.0
H258 H 0.36625 0.35039 0.29978 0.0
H259 H 0.32886 0.31258 0.27734 0.0
H260 H 0.30835 0.31936 0.29962 0.0
H261 H 0.28923 0.36537 0.34751 0.0
H262 H 0.26498 0.38034 0.33907 0.0
H263 H 0.27002 0.3613 0.28711 0.0
H264 H 0.29373 0.34562 0.2959 0.0
H265 H 0.32524 0.3102 0.33194 0.0
H266 H 0.28072 0.3336 0.34999 0.0
O267 O 0.32175 0.35533 0.34428 0.0
H268 H 0.31676 0.28515 0.3482 0.0
H269 H 0.27269 0.30909 0.36698 0.0
C270 C 0.32548 0.33891 0.31225 0.0
C271 C 0.34183 0.34766 0.31204 0.0
C272 C 0.3536 0.34361 0.29957 0.0
C273 C 0.34912 0.33092 0.28696 0.0
C274 C 0.33257 0.32249 0.28689 0.0
C275 C 0.32087 0.32636 0.29956 0.0
C276 C 0.29342 0.35445 0.32236 0.0
C277 C 0.28511 0.3644 0.33429 0.0
C278 C 0.27129 0.37308 0.32939 0.0
C279 C 0.2656 0.37223 0.31233 0.0
C280 C 0.27391 0.36214 0.30038 0.0
C281 C 0.28763 0.35324 0.30539 0.0
C282 C 0.30339 0.32368 0.33933 0.0
C283 C 0.31346 0.30987 0.33913 0.0
C284 C 0.30873 0.29561 0.34868 0.0
C285 C 0.29404 0.29505 0.35898 0.0
C286 C 0.28388 0.30885 0.35895 0.0
C287 C 0.28853 0.323 0.34924 0.0
P288 P 0.45552 0.98182 0.54956 0.0
H289 H 0.47055 0.97256 0.51689 0.0
H290 H 0.46715 0.94679 0.49886 0.0
H291 H 0.42648 0.92633 0.53138 0.0
H292 H 0.43033 0.95219 0.54972 0.0
H293 H 0.44774 0.01279 0.53352 0.0
H294 H 0.42419 0.03071 0.53638 0.0
H295 H 0.40003 0.99651 0.57278 0.0
H296 H 0.42368 0.97831 0.56951 0.0
H297 H 0.47366 0.95249 0.55781 0.0
H298 H 0.45332 0.99459 0.58502 0.0
O299 O 0.47221 0.99415 0.54243 0.0
H300 H 0.48685 0.94421 0.58412 0.0
H301 H 0.4664 0.98626 0.61138 0.0
C302 C 0.45069 0.96426 0.53464 0.0
C303 C 0.46069 0.96269 0.52 0.0
C304 C 0.45865 0.94793 0.50962 0.0
C305 C 0.44656 0.93444 0.51369 0.0
C306 C 0.43604 0.9364 0.52801 0.0
C307 C 0.43811 0.95121 0.53841 0.0
C308 C 0.43763 0.99446 0.55159 0.0
C309 C 0.43744 0.00916 0.54218 0.0
C310 C 0.424 0.01947 0.54393 0.0
C311 C 0.4104 0.01525 0.5551 0.0
C312 C 0.41034 0.00015 0.56413 0.0
C313 C 0.42386 0.98978 0.56232 0.0
C314 C 0.46211 0.97391 0.56952 0.0
C315 C 0.47156 0.95964 0.56953 0.0
C316 C 0.47916 0.95495 0.58454 0.0
C317 C 0.47751 0.9645 0.59979 0.0
C318 C 0.46755 0.97844 0.59988 0.0
C319 C 0.46008 0.98322 0.58481 0.0
P320 P 0.18889 0.32818 0.70982 0.0
H321 H 0.18563 0.36461 0.71255 0.0
H322 H 0.20637 0.3893 0.71747 0.0
H323 H 0.24718 0.3561 0.71881 0.0
H324 H 0.22632 0.33142 0.71378 0.0
H325 H 0.18852 0.32111 0.67316 0.0
H326 H 0.19894 0.29838 0.65531 0.0
H327 H 0.2193 0.27667 0.70004 0.0
H328 H 0.20844 0.29938 0.7179 0.0
H329 H 0.19132 0.3432 0.74473 0.0
H330 H 0.16976 0.29666 0.71955 0.0
O331 O 0.17183 0.33433 0.69981 0.0
H332 H 0.17858 0.33403 0.77159 0.0
H333 H 0.15687 0.28744 0.74643 0.0
C334 C 0.20449 0.34623 0.71246 0.0
C335 C 0.19906 0.36266 0.7137 0.0
C336 C 0.21091 0.37674 0.71666 0.0
C337 C 0.22841 0.37464 0.71848 0.0
C338 C 0.23381 0.35813 0.71721 0.0
C339 C 0.22191 0.34402 0.71436 0.0
C340 C 0.19737 0.31169 0.69686 0.0
C341 C 0.19519 0.31144 0.67913 0.0
C342 C 0.20132 0.29851 0.66892 0.0
C343 C 0.20992 0.28564 0.67624 0.0
C344 C 0.21249 0.28622 0.69403 0.0
C345 C 0.20633 0.2992 0.70424 0.0
C346 C 0.18172 0.32048 0.73016 0.0
C347 C 0.18411 0.33087 0.745 0.0
C348 C 0.17672 0.32567 0.76036 0.0
C349 C 0.16674 0.31001 0.76113 0.0
C350 C 0.16472 0.29945 0.74631 0.0
C351 C 0.17205 0.30471 0.73093 0.0
P352 P 0.81062 0.21723 0.70172 0.0
H353 H 0.82323 0.24546 0.6811 0.0
H354 H 0.8102 0.27029 0.67121 0.0
H355 H 0.76517 0.25652 0.7011 0.0
H356 H 0.77823 0.23154 0.71074 0.0
H357 H 0.83455 0.19513 0.71494 0.0
H358 H 0.85642 0.19886 0.73733 0.0
H359 H 0.84382 0.25047 0.74708 0.0
H360 H 0.82201 0.24666 0.72455 0.0
H361 H 0.78817 0.19159 0.68297 0.0
H362 H 0.79672 0.2088 0.73534 0.0
O363 O 0.81975 0.20954 0.68424 0.0
H364 H 0.76635 0.16974 0.69204 0.0
H365 H 0.77472 0.18714 0.74452 0.0
C366 C 0.80156 0.23649 0.69633 0.0
C367 C 0.81061 0.24788 0.68564 0.0
C368 C 0.8032 0.26216 0.68013 0.0
C369 C 0.78659 0.26535 0.6853 0.0
C370 C 0.77788 0.25429 0.6967 0.0
C371 C 0.78535 0.24 0.70223 0.0
C372 C 0.82684 0.22066 0.71798 0.0
C373 C 0.83656 0.20727 0.72186 0.0
C374 C 0.84895 0.20937 0.73473 0.0
C375 C 0.85182 0.22496 0.74397 0.0
C376 C 0.84202 0.23838 0.74005 0.0
C377 C 0.82954 0.23621 0.72719 0.0
C378 C 0.7943 0.20151 0.70851 0.0
C379 C 0.78534 0.19064 0.69643 0.0
C380 C 0.77278 0.17825 0.70162 0.0
C381 C 0.76889 0.17663 0.71902 0.0
C382 C 0.77766 0.18786 0.73106 0.0
C383 C 0.7902 0.20026 0.72583 0.0
P384 P 0.59387 0.62312 0.61481 0.0
H385 H 0.58602 0.62538 0.65132 0.0
H386 H 0.55933 0.62012 0.66726 0.0
H387 H 0.53201 0.60743 0.61997 0.0
H388 H 0.55862 0.61272 0.60418 0.0
H389 H 0.62772 0.61106 0.62017 0.0
H390 H 0.63935 0.58391 0.61351 0.0
H391 H 0.59008 0.56362 0.5933 0.0
H392 H 0.57877 0.59091 0.59952 0.0
H393 H 0.57364 0.65115 0.60772 0.0
H394 H 0.60498 0.61817 0.57917 0.0
O395 O 0.6079 0.63596 0.62632 0.0
H396 H 0.56602 0.66431 0.58136 0.0
H397 H 0.59732 0.63124 0.55271 0.0
C398 C 0.57426 0.61959 0.62657 0.0
C399 C 0.57426 0.62157 0.6444 0.0
C400 C 0.55901 0.61862 0.65348 0.0
C401 C 0.54359 0.61339 0.64485 0.0
C402 C 0.54371 0.61131 0.62698 0.0
C403 C 0.55891 0.61438 0.61794 0.0
C404 C 0.60232 0.60295 0.61052 0.0
C405 C 0.61941 0.60074 0.61438 0.0
C406 C 0.62602 0.58517 0.61064 0.0
C407 C 0.61564 0.57155 0.6029 0.0
C408 C 0.5985 0.57388 0.59909 0.0
C409 C 0.59194 0.58944 0.6028 0.0
C410 C 0.58951 0.63341 0.59535 0.0
C411 C 0.57888 0.64674 0.59577 0.0
C412 C 0.5745 0.65422 0.5807 0.0
C413 C 0.5809 0.64865 0.56495 0.0
C414 C 0.59221 0.6358 0.56466 0.0
C415 C 0.59649 0.62824 0.57977 0.0
P416 P 0.56837 0.43714 0.92238 0.0
H417 H 0.6035 0.44033 0.93445 0.0
H418 H 0.62332 0.46479 0.94327 0.0
H419 H 0.58529 0.49863 0.93042 0.0
H420 H 0.56554 0.47422 0.92184 0.0
H421 H 0.56607 0.40118 0.93084 0.0
H422 H 0.56118 0.38669 0.95772 0.0
H423 H 0.55532 0.43496 0.98367 0.0
H424 H 0.56058 0.44944 0.95684 0.0
H425 H 0.55755 0.43715 0.88678 0.0
H426 H 0.53758 0.45141 0.93588 0.0
O427 O 0.57802 0.42423 0.90896 0.0
H428 H 0.53331 0.4482 0.87276 0.0
H429 H 0.5137 0.46315 0.92199 0.0
C430 C 0.58311 0.45542 0.92739 0.0
C431 C 0.59952 0.45304 0.93338 0.0
C432 C 0.61083 0.46702 0.93837 0.0
C433 C 0.60586 0.48364 0.93754 0.0
C434 C 0.58942 0.48597 0.9314 0.0
C435 C 0.57813 0.47198 0.92637 0.0
C436 C 0.56369 0.42637 0.94187 0.0
C437 C 0.56372 0.40865 0.94229 0.0
C438 C 0.56101 0.4004 0.95765 0.0
C439 C 0.55794 0.40974 0.97274 0.0
C440 C 0.55756 0.42746 0.97219 0.0
C441 C 0.56053 0.43572 0.95688 0.0
C442 C 0.54927 0.44322 0.91238 0.0
C443 C 0.54784 0.44248 0.89457 0.0
C444 C 0.53405 0.449 0.88656 0.0
C445 C 0.52157 0.45671 0.89622 0.0
C446 C 0.52289 0.45709 0.91413 0.0
C447 C 0.5366 0.45039 0.92212 0.0
P448 P 0.73822 0.2697 0.29163 0.0
H449 H 0.75512 0.27222 0.32475 0.0
H450 H 0.7462 0.28157 0.3531 0.0
H451 H 0.69558 0.28712 0.3333 0.0
H452 H 0.70487 0.27874 0.30497 0.0
H453 H 0.76815 0.25941 0.27343 0.0
H454 H 0.78311 0.23364 0.27331 0.0
H455 H 0.74562 0.21112 0.30811 0.0
H456 H 0.73101 0.23727 0.30852 0.0
H457 H 0.73146 0.28956 0.26193 0.0
H458 H 0.70716 0.24644 0.2875 0.0
O459 O 0.75257 0.28564 0.28665 0.0
H460 H 0.70714 0.28902 0.24251 0.0
H461 H 0.68232 0.24624 0.2686 0.0
C462 C 0.73066 0.27456 0.31276 0.0
C463 C 0.74205 0.27529 0.32659 0.0
C464 C 0.73687 0.28054 0.34284 0.0
C465 C 0.72013 0.28512 0.34556 0.0
C466 C 0.70864 0.28394 0.33168 0.0
C467 C 0.7139 0.2789 0.31542 0.0
C468 C 0.74868 0.25033 0.29122 0.0
C469 C 0.76319 0.24895 0.28108 0.0
C470 C 0.77164 0.23412 0.28091 0.0
C471 C 0.76562 0.22029 0.29075 0.0
C472 C 0.75079 0.22162 0.30062 0.0
C473 C 0.74237 0.23651 0.3008 0.0
C474 C 0.72107 0.26807 0.27619 0.0
C475 C 0.7209 0.27991 0.26333 0.0
C476 C 0.70687 0.27969 0.25231 0.0
C477 C 0.69261 0.26773 0.25408 0.0
C478 C 0.69311 0.25552 0.2667 0.0
C479 C 0.70728 0.25564 0.27758 0.0
P480 P 0.45511 0.04965 0.98371 0.0
H481 H 0.48299 0.07088 0.96818 0.0
H482 H 0.49592 0.07005 0.93987 0.0
H483 H 0.45877 0.02873 0.92419 0.0
H484 H 0.4456 0.02984 0.9524 0.0
H485 H 0.46117 0.05871 0.01954 0.0
H486 H 0.46429 0.0858 0.0356 0.0
H487 H 0.4569 0.11222 0.98916 0.0
H488 H 0.45309 0.08488 0.9733 0.0
H489 H 0.4382 0.01607 0.9901 0.0
H490 H 0.42339 0.06529 0.977 0.0
O491 O 0.46662 0.03627 0.9938 0.0
H492 H 0.40819 0.00501 0.99084 0.0
H493 H 0.3932 0.05423 0.97754 0.0
C494 C 0.46299 0.05079 0.96224 0.0
C495 C 0.47725 0.06203 0.9585 0.0
C496 C 0.48465 0.06153 0.94234 0.0
C497 C 0.47822 0.04943 0.92985 0.0
C498 C 0.46388 0.03824 0.93359 0.0
C499 C 0.45632 0.03893 0.94968 0.0
C500 C 0.45745 0.06985 0.99517 0.0
C501 C 0.46032 0.07034 0.0128 0.0
C502 C 0.46218 0.08587 0.02195 0.0
C503 C 0.46117 0.10124 0.01363 0.0
C504 C 0.45775 0.10064 0.99598 0.0
C505 C 0.45575 0.08504 0.98686 0.0
C506 C 0.43297 0.04157 0.98384 0.0
C507 C 0.42847 0.02451 0.98738 0.0
C508 C 0.4113 0.01815 0.98764 0.0
C509 C 0.39832 0.02876 0.98427 0.0
C510 C 0.40291 0.04582 0.9804 0.0
C511 C 0.42014 0.05214 0.98008 0.0
O512 O 0.22667 0.87651 0.01578 0.0
Cd513 Cd 0.23496 0.89329 0.03555 0.0
Cd514 Cd 0.21079 0.91128 0.02258 0.0
O515 O 0.20477 0.88976 0.00731 0.0
O516 O 0.25035 0.88034 0.04923 0.0
O517 O 0.22651 0.88949 0.05954 0.0
C518 C 0.23999 0.88157 0.06183 0.0
C519 C 0.19048 0.92421 0.03873 0.0
C520 C 0.2138 0.8772 0.00603 0.0
C521 C 0.24661 0.927 0.02079 0.0
O522 O 0.23134 0.92761 0.01563 0.0
O523 O 0.25046 0.91476 0.02969 0.0
O524 O 0.1909 0.92509 0.02235 0.0
O525 O 0.20114 0.91511 0.04596 0.0
O526 O 0.14482 0.53699 0.27811 0.0
Cd527 Cd 0.12963 0.5157 0.28544 0.0
Cd528 Cd 0.10752 0.52768 0.2627 0.0
O529 O 0.1283 0.54428 0.25734 0.0
O530 O 0.14564 0.50285 0.29838 0.0
O531 O 0.13314 0.49282 0.27435 0.0
C532 C 0.1435 0.49085 0.28681 0.0
C533 C 0.09149 0.51522 0.23978 0.0
C534 C 0.14218 0.54649 0.2658 0.0
C535 C 0.09651 0.52638 0.2992 0.0
O536 O 0.0939 0.53201 0.28456 0.0
O537 O 0.10959 0.51851 0.30202 0.0
O538 O 0.09085 0.53096 0.24439 0.0
O539 O 0.10159 0.5064 0.24812 0.0
O540 O 0.74894 0.67226 0.99142 0.0
Cd541 Cd 0.73917 0.65598 0.00975 0.0
Cd542 Cd 0.76363 0.63651 0.99614 0.0
O543 O 0.76966 0.65748 0.98172 0.0
O544 O 0.72501 0.6704 0.02413 0.0
O545 O 0.74783 0.65938 0.034 0.0
C546 C 0.73531 0.66869 0.03664 0.0
C547 C 0.78559 0.6225 0.00784 0.0
C548 C 0.76155 0.67069 0.98152 0.0
C549 C 0.72673 0.62215 0.99361 0.0
O550 O 0.7422 0.62076 0.98952 0.0
O551 O 0.72271 0.63509 0.00228 0.0
O552 O 0.78236 0.62167 0.99171 0.0
O553 O 0.77664 0.63189 0.01746 0.0
O554 O 0.90088 0.02729 0.28017 0.0
Cd555 Cd 0.88518 0.03684 0.26239 0.0
Cd556 Cd 0.86844 0.04424 0.29054 0.0
O557 O 0.89016 0.03875 0.30332 0.0
O558 O 0.89872 0.0359 0.24101 0.0
O559 O 0.89261 0.06006 0.25363 0.0
C560 C 0.90028 0.05228 0.24155 0.0
C561 C 0.85822 0.07097 0.29182 0.0
C562 C 0.90146 0.03041 0.29618 0.0
C563 C 0.85104 0.01785 0.26699 0.0
O564 O 0.85176 0.0239 0.28224 0.0
O565 O 0.86236 0.02282 0.25626 0.0
O566 O 0.85562 0.06065 0.30416 0.0
O567 O 0.86712 0.06623 0.27894 0.0
O568 O 0.24254 0.17035 0.49438 0.0
Cd569 Cd 0.23523 0.1542 0.51366 0.0
Cd570 Cd 0.26208 0.13829 0.50284 0.0
O571 O 0.26728 0.16005 0.48928 0.0
O572 O 0.22111 0.1673 0.5294 0.0
O573 O 0.24597 0.15846 0.53688 0.0
C574 C 0.2329 0.16666 0.54079 0.0
C575 C 0.28454 0.12623 0.51602 0.0
C576 C 0.25676 0.17101 0.48661 0.0
C577 C 0.227 0.11983 0.4979 0.0
O578 O 0.24277 0.12067 0.49405 0.0
O579 O 0.22119 0.13165 0.50694 0.0
O580 O 0.28292 0.12605 0.49967 0.0
O581 O 0.27362 0.13385 0.52509 0.0
O582 O 0.39862 0.53022 0.78227 0.0
Cd583 Cd 0.38401 0.53683 0.7621 0.0
Cd584 Cd 0.36291 0.54458 0.78778 0.0
O585 O 0.38221 0.53786 0.80346 0.0
O586 O 0.39981 0.53613 0.74233 0.0
O587 O 0.38993 0.55988 0.75228 0.0
C588 C 0.39955 0.55238 0.74163 0.0
C589 C 0.35337 0.57162 0.78937 0.0
C590 C 0.39581 0.53187 0.79816 0.0
C591 C 0.34919 0.51729 0.76281 0.0
O592 O 0.34666 0.52528 0.7768 0.0
O593 O 0.36301 0.5205 0.75463 0.0
O594 O 0.34885 0.56048 0.80055 0.0
O595 O 0.36374 0.56747 0.77746 0.0
O596 O 0.72021 0.37332 0.51436 0.0
Cd597 Cd 0.7302 0.38876 0.53444 0.0
Cd598 Cd 0.70896 0.41022 0.5208 0.0
O599 O 0.70107 0.38959 0.50497 0.0
O600 O 0.74454 0.37332 0.54632 0.0
O601 O 0.7227 0.38439 0.55873 0.0
C602 C 0.73515 0.37482 0.55961 0.0
C603 C 0.68998 0.42523 0.53665 0.0
C604 C 0.70824 0.37579 0.50404 0.0
C605 C 0.74607 0.42155 0.5202 0.0
O606 O 0.73135 0.42422 0.51471 0.0
O607 O 0.748 0.40864 0.52898 0.0
O608 O 0.69095 0.42629 0.5203 0.0
O609 O 0.69929 0.41487 0.54399 0.0
O610 O 0.64385 0.03232 0.774 0.0
Cd611 Cd 0.62695 0.01187 0.78034 0.0
Cd612 Cd 0.60715 0.02439 0.75713 0.0
O613 O 0.62882 0.04002 0.75232 0.0
O614 O 0.64082 0.99689 0.79333 0.0
O615 O 0.62894 0.98916 0.76831 0.0
C616 C 0.63822 0.9856 0.7811 0.0
C617 C 0.59249 0.00983 0.73457 0.0
C618 C 0.64229 0.04181 0.76144 0.0
C619 C 0.59406 0.02462 0.79257 0.0
O620 O 0.59251 0.03039 0.7778 0.0
O621 O 0.60644 0.01595 0.79594 0.0
O622 O 0.59229 0.02604 0.73696 0.0
O623 O 0.6014 0.00175 0.74491 0.0
O624 O 0.98566 0.26216 0.92489 0.0
Cd625 Cd 0.99458 0.24338 0.90932 0.0
Cd626 Cd 0.00981 0.26946 0.89317 0.0
O627 O 0.00228 0.28317 0.91431 0.0
O628 O 0.99409 0.22264 0.92301 0.0
O629 O 0.01803 0.23641 0.91392 0.0
C630 C 0.01061 0.22423 0.92256 0.0
C631 C 0.03764 0.27433 0.88287 0.0
C632 C 0.99133 0.27775 0.92522 0.0
C633 C 0.98166 0.2478 0.87445 0.0
O634 O 0.99136 0.26161 0.87504 0.0
O635 O 0.98175 0.2376 0.88662 0.0
O636 O 0.02657 0.28527 0.88117 0.0
O637 O 0.03304 0.26068 0.8909 0.0
O638 O 0.48205 0.76954 0.42525 0.0
Cd639 Cd 0.48779 0.7471 0.41345 0.0
Cd640 Cd 0.50196 0.76796 0.38947 0.0
O641 O 0.49372 0.78652 0.40593 0.0
O642 O 0.48743 0.73014 0.43154 0.0
O643 O 0.51087 0.73876 0.41743 0.0
C644 C 0.50364 0.72956 0.42917 0.0
C645 C 0.52829 0.77384 0.37602 0.0
C646 C 0.48568 0.7844 0.41986 0.0
C647 C 0.47271 0.74196 0.37873 0.0
O648 O 0.48392 0.7537 0.3746 0.0
O649 O 0.47179 0.7371 0.39399 0.0
O650 O 0.51495 0.78118 0.37191 0.0
O651 O 0.52688 0.76328 0.38824 0.0
O652 O 0.98575 0.7853 0.6693 0.0
Cd653 Cd 0.00476 0.77607 0.65427 0.0
Cd654 Cd 0.98986 0.795 0.63033 0.0
O655 O 0.97515 0.80184 0.65063 0.0
O656 O 0.01989 0.76576 0.67063 0.0
O657 O 0.0287 0.78776 0.65526 0.0
C658 C 0.03204 0.77691 0.66648 0.0
C659 C 0.00168 0.81575 0.61239 0.0
C660 C 0.97523 0.79592 0.66547 0.0
C661 C 0.98949 0.75751 0.62282 0.0
O662 O 0.98418 0.77149 0.61862 0.0
O663 O 0.99841 0.75675 0.63627 0.0
O664 O 0.98553 0.81102 0.61221 0.0
O665 O 0.0112 0.80906 0.62331 0.0
O666 O 0.48701 0.27859 0.16815 0.0
Cd667 Cd 0.50588 0.27023 0.1524 0.0
Cd668 Cd 0.49139 0.28973 0.12957 0.0
O669 O 0.47604 0.29525 0.14984 0.0
O670 O 0.52183 0.25946 0.16756 0.0
O671 O 0.52948 0.28263 0.15338 0.0
C672 C 0.5335 0.27123 0.16372 0.0
C673 C 0.50557 0.31153 0.11454 0.0
C674 C 0.47619 0.28899 0.16453 0.0
C675 C 0.49082 0.25291 0.12003 0.0
O676 O 0.48575 0.2671 0.11615 0.0
O677 O 0.49937 0.25168 0.13365 0.0
O678 O 0.48925 0.30795 0.11311 0.0
O679 O 0.51389 0.30294 0.12495 0.0
H680 H 0.19543 0.8014 0.85791 0.0
H681 H 0.189 0.81317 0.88618 0.0
H682 H 0.23577 0.79642 0.90591 0.0
H683 H 0.24205 0.78418 0.87779 0.0
H684 H 0.20944 0.79232 0.92891 0.0
H685 H 0.2349 0.83646 0.89329 0.0
H686 H 0.23698 0.85367 0.86763 0.0
H687 H 0.18727 0.87035 0.87775 0.0
H688 H 0.18481 0.85303 0.90336 0.0
H689 H 0.23243 0.85051 0.99759 0.0
H690 H 0.22927 0.83172 0.97226 0.0
H691 H 0.18429 0.85537 0.95746 0.0
H692 H 0.18759 0.87455 0.98264 0.0
H693 H 0.20578 0.85476 0.93201 0.0
H694 H 0.18199 0.81342 0.97004 0.0
H695 H 0.1803 0.79644 0.99585 0.0
H696 H 0.22665 0.77462 0.98173 0.0
H697 H 0.22876 0.79165 0.95595 0.0
C698 C 0.20416 0.79988 0.86834 0.0
C699 C 0.21934 0.79199 0.86556 0.0
C700 C 0.20052 0.80672 0.88446 0.0
C701 C 0.21202 0.80588 0.89808 0.0
C702 C 0.22674 0.79726 0.89557 0.0
C703 C 0.2304 0.79042 0.87945 0.0
C704 C 0.20944 0.81506 0.91457 0.0
C705 C 0.20872 0.80598 0.92965 0.0
C706 C 0.20808 0.83282 0.91545 0.0
C707 C 0.20959 0.8433 0.90011 0.0
C708 C 0.22436 0.84369 0.88996 0.0
C709 C 0.22562 0.85348 0.87545 0.0
C710 C 0.21224 0.86306 0.87103 0.0
C711 C 0.19761 0.8629 0.88116 0.0
C712 C 0.19627 0.8531 0.89568 0.0
C713 C 0.22167 0.85155 0.98913 0.0
C714 C 0.21034 0.86415 0.9921 0.0
C715 C 0.21982 0.84069 0.97467 0.0
C716 C 0.20648 0.84204 0.96297 0.0
C717 C 0.19469 0.8541 0.9663 0.0
C718 C 0.19658 0.86503 0.98073 0.0
C719 C 0.20591 0.83208 0.94651 0.0
C720 C 0.20616 0.84104 0.93137 0.0
C721 C 0.20684 0.81424 0.94563 0.0
C722 C 0.20559 0.80392 0.9611 0.0
C723 C 0.1919 0.8051 0.9725 0.0
C724 C 0.19085 0.79544 0.98712 0.0
C725 C 0.20337 0.78448 0.99045 0.0
C726 C 0.21696 0.78312 0.97914 0.0
C727 C 0.21807 0.79275 0.9645 0.0
H728 H 0.20254 0.77702 0.00178 0.0
H729 H 0.21324 0.87063 0.85979 0.0
H730 H 0.99124 0.52078 0.42422 0.0
H731 H 0.00955 0.51696 0.39934 0.0
H732 H 0.01228 0.57084 0.39116 0.0
H733 H 0.99426 0.57481 0.41634 0.0
H734 H 0.00587 0.54437 0.36011 0.0
H735 H 0.04349 0.563 0.40821 0.0
H736 H 0.05351 0.56102 0.43784 0.0
H737 H 0.06429 0.5093 0.4275 0.0
H738 H 0.05405 0.51091 0.39787 0.0
H739 H 0.07513 0.55161 0.30258 0.0
H740 H 0.05467 0.55589 0.32539 0.0
H741 H 0.0688 0.51064 0.34916 0.0
H742 H 0.09 0.5069 0.32686 0.0
H743 H 0.06574 0.53286 0.37243 0.0
H744 H 0.02995 0.51281 0.32527 0.0
H745 H 0.0185 0.51204 0.29592 0.0
H746 H 0.00252 0.56229 0.30404 0.0
H747 H 0.01409 0.56345 0.33337 0.0
C748 C 0.99554 0.53175 0.41694 0.0
C749 C 0.9914 0.54808 0.42213 0.0
C750 C 0.00598 0.52956 0.40281 0.0
C751 C 0.01219 0.54363 0.39351 0.0
C752 C 0.00751 0.55986 0.39821 0.0
C753 C 0.99733 0.56211 0.41257 0.0
C754 C 0.02455 0.54148 0.37964 0.0
C755 C 0.01904 0.54208 0.3627 0.0
C756 C 0.04148 0.53791 0.38317 0.0
C757 C 0.04783 0.53702 0.4009 0.0
C758 C 0.04784 0.55116 0.41231 0.0
C759 C 0.05359 0.55012 0.42909 0.0
C760 C 0.05949 0.53503 0.43456 0.0
C761 C 0.05969 0.52097 0.42325 0.0
C762 C 0.05393 0.52195 0.40646 0.0
C763 C 0.07385 0.54258 0.31269 0.0
C764 C 0.08411 0.5289 0.31296 0.0
C765 C 0.06205 0.54496 0.32566 0.0
C766 C 0.05988 0.53339 0.33885 0.0
C767 C 0.0702 0.51974 0.33913 0.0
C768 C 0.08229 0.5176 0.32639 0.0
C769 C 0.04721 0.53574 0.3526 0.0
C770 C 0.05261 0.53516 0.36963 0.0
C771 C 0.03006 0.53895 0.34909 0.0
C772 C 0.02304 0.53828 0.33147 0.0
C773 C 0.02411 0.52374 0.32075 0.0
C774 C 0.01758 0.52323 0.30413 0.0
C775 C 0.00983 0.53712 0.2981 0.0
C776 C 0.00855 0.55154 0.30871 0.0
C777 C 0.01507 0.55213 0.32535 0.0
H778 H 0.00478 0.5367 0.28523 0.0
H779 H 0.06393 0.53425 0.44756 0.0
H780 H 0.80399 0.7699 0.85745 0.0
H781 H 0.79944 0.74707 0.87759 0.0
H782 H 0.7739 0.78036 0.91185 0.0
H783 H 0.77927 0.8035 0.89228 0.0
H784 H 0.79505 0.76389 0.92909 0.0
H785 H 0.75184 0.7481 0.88653 0.0
H786 H 0.74054 0.74122 0.85751 0.0
H787 H 0.77157 0.69922 0.8529 0.0
H788 H 0.78324 0.70599 0.88183 0.0
H789 H 0.75118 0.7028 0.98136 0.0
H790 H 0.75844 0.72468 0.96067 0.0
H791 H 0.78997 0.69101 0.93332 0.0
H792 H 0.78287 0.66901 0.95404 0.0
H793 H 0.76728 0.70676 0.91233 0.0
H794 H 0.80924 0.72228 0.95601 0.0
H795 H 0.81945 0.7292 0.9854 0.0
H796 H 0.7893 0.77196 0.98818 0.0
H797 H 0.77871 0.76515 0.95887 0.0
C798 C 0.79752 0.77241 0.86932 0.0
C799 C 0.79197 0.78856 0.87319 0.0
C800 C 0.79475 0.75927 0.88075 0.0
C801 C 0.78614 0.76192 0.89616 0.0
C802 C 0.78053 0.77799 0.90002 0.0
C803 C 0.78343 0.79117 0.88869 0.0
C804 C 0.78331 0.74813 0.9085 0.0
C805 C 0.78879 0.75147 0.92544 0.0
C806 C 0.77554 0.73176 0.90367 0.0
C807 C 0.76855 0.72767 0.88628 0.0
C808 C 0.75636 0.73749 0.87928 0.0
C809 C 0.74987 0.73359 0.86285 0.0
C810 C 0.75537 0.71982 0.85335 0.0
C811 C 0.76735 0.7099 0.86027 0.0
C812 C 0.77389 0.71375 0.87668 0.0
C813 C 0.75973 0.70005 0.971 0.0
C814 C 0.76646 0.68416 0.96936 0.0
C815 C 0.76389 0.71259 0.95922 0.0
C816 C 0.77479 0.70946 0.94554 0.0
C817 C 0.78154 0.69364 0.94382 0.0
C818 C 0.77752 0.68113 0.95571 0.0
C819 C 0.77882 0.72265 0.93286 0.0
C820 C 0.7736 0.71918 0.91589 0.0
C821 C 0.78668 0.73894 0.93768 0.0
C822 C 0.79306 0.7431 0.95529 0.0
C823 C 0.80467 0.73307 0.96294 0.0
C824 C 0.81055 0.73699 0.97957 0.0
C825 C 0.80499 0.75099 0.98867 0.0
C826 C 0.79358 0.76111 0.98112 0.0
C827 C 0.78765 0.75724 0.96449 0.0
H828 H 0.80956 0.75401 0.00154 0.0
H829 H 0.75033 0.71682 0.84063 0.0
H830 H 0.01126 0.97728 0.40147 0.0
H831 H 0.98903 0.99117 0.38692 0.0
H832 H 0.99843 0.96275 0.34045 0.0
H833 H 0.02038 0.94846 0.35498 0.0
H834 H 0.99706 0.99723 0.33561 0.0
H835 H 0.96385 0.95169 0.36315 0.0
H836 H 0.95399 0.93476 0.38765 0.0
H837 H 0.93551 0.97904 0.41203 0.0
H838 H 0.94549 0.9963 0.38777 0.0
H839 H 0.92547 0.00963 0.28523 0.0
H840 H 0.94755 0.99811 0.30202 0.0
H841 H 0.93093 0.02481 0.34706 0.0
H842 H 0.90839 0.03615 0.33035 0.0
H843 H 0.93643 0.99314 0.35411 0.0
H844 H 0.96805 0.03858 0.32643 0.0
H845 H 0.97807 0.05603 0.30236 0.0
H846 H -4e-05 0.01312 0.27889 0.0
H847 H 0.98986 0.99533 0.30272 0.0
C848 C 0.00843 0.97376 0.38823 0.0
C849 C 0.01761 0.96171 0.37941 0.0
C850 C 0.99578 0.98179 0.37992 0.0
C851 C 0.99206 0.97794 0.36264 0.0
C852 C 0.00117 0.96595 0.35379 0.0
C853 C 0.01375 0.95784 0.3621 0.0
C854 C 0.97885 0.98659 0.35367 0.0
C855 C 0.98376 0.99621 0.33952 0.0
C856 C 0.96164 0.98569 0.35917 0.0
C857 C 0.95559 0.97532 0.37373 0.0
C858 C 0.95782 0.95785 0.3738 0.0
C859 C 0.95218 0.94819 0.38763 0.0
C860 C 0.94417 0.95583 0.40141 0.0
C861 C 0.94174 0.97314 0.40136 0.0
C862 C 0.94737 0.98287 0.38757 0.0
C863 C 0.92651 0.01316 0.29869 0.0
C864 C 0.91517 0.02388 0.30643 0.0
C865 C 0.93923 0.0066 0.30827 0.0
C866 C 0.94108 0.0108 0.32575 0.0
C867 C 0.92977 0.02145 0.33357 0.0
C868 C 0.91693 0.02795 0.32399 0.0
C869 C 0.95458 0.00363 0.33584 0.0
C870 C 0.94974 0.9943 0.35024 0.0
C871 C 0.97191 0.00491 0.33064 0.0
C872 C 0.97807 0.01558 0.31631 0.0
C873 C 0.97489 0.03282 0.31608 0.0
C874 C 0.98061 0.04278 0.30249 0.0
C875 C 0.98962 0.03568 0.28909 0.0
C876 C 0.99297 0.0186 0.28928 0.0
C877 C 0.98727 0.00858 0.30283 0.0
H878 H 0.99403 0.04341 0.27857 0.0
H879 H 0.93981 0.94833 0.4121 0.0
H880 H 0.208 0.2517 0.683 0.0
H881 H 0.2154 0.22823 0.66405 0.0
H882 H 0.2313 0.26397 0.62556 0.0
H883 H 0.22464 0.28747 0.64466 0.0
H884 H 0.20151 0.2179 0.63499 0.0
H885 H 0.2613 0.24955 0.60021 0.0
H886 H 0.28673 0.26927 0.60719 0.0
H887 H 0.2833 0.25574 0.65969 0.0
H888 H 0.258 0.23576 0.653 0.0
H889 H 0.20802 0.1865 0.55128 0.0
H890 H 0.2067 0.20308 0.5779 0.0
H891 H 0.25344 0.18406 0.59501 0.0
H892 H 0.25509 0.16764 0.56802 0.0
H893 H 0.25479 0.21703 0.60116 0.0
H894 H 0.21455 0.17062 0.61291 0.0
H895 H 0.19003 0.14925 0.60765 0.0
H896 H 0.15632 0.18899 0.60481 0.0
H897 H 0.18067 0.21062 0.60981 0.0
C898 C 0.21346 0.25459 0.67065 0.0
C899 C 0.21567 0.27147 0.66533 0.0
C900 C 0.21756 0.24114 0.65978 0.0
C901 C 0.22402 0.24431 0.64341 0.0
C902 C 0.2266 0.26118 0.63823 0.0
C903 C 0.22257 0.27462 0.64909 0.0
C904 C 0.22687 0.23002 0.63122 0.0
C905 C 0.21322 0.21762 0.62771 0.0
C906 C 0.24231 0.22935 0.62201 0.0
C907 C 0.25766 0.24122 0.6261 0.0
C908 C 0.26602 0.2507 0.61323 0.0
C909 C 0.28041 0.26195 0.61714 0.0
C910 C 0.28661 0.26379 0.63388 0.0
C911 C 0.27846 0.25435 0.64674 0.0
C912 C 0.26408 0.24308 0.64289 0.0
C913 C 0.21796 0.18568 0.56074 0.0
C914 C 0.23165 0.17571 0.55753 0.0
C915 C 0.21714 0.19512 0.57603 0.0
C916 C 0.22983 0.19464 0.5886 0.0
C917 C 0.24346 0.18458 0.58553 0.0
C918 C 0.24436 0.17516 0.57013 0.0
C919 C 0.22917 0.20539 0.60448 0.0
C920 C 0.2432 0.21713 0.60866 0.0
C921 C 0.21422 0.20521 0.61458 0.0
C922 C 0.19948 0.19225 0.61166 0.0
C923 C 0.20193 0.17481 0.61106 0.0
C924 C 0.18805 0.16265 0.60814 0.0
C925 C 0.17163 0.16776 0.60588 0.0
C926 C 0.16905 0.18505 0.60657 0.0
C927 C 0.18288 0.19726 0.60947 0.0
H928 H 0.16091 0.15832 0.60361 0.0
H929 H 0.29774 0.27251 0.63688 0.0
H930 H 0.51987 0.58616 0.64036 0.0
H931 H 0.4933 0.58008 0.65599 0.0
H932 H 0.50411 0.62638 0.68651 0.0
H933 H 0.53095 0.63239 0.67102 0.0
H934 H 0.49335 0.60161 0.70613 0.0
H935 H 0.47271 0.6229 0.65498 0.0
H936 H 0.46957 0.62575 0.62396 0.0
H937 H 0.44828 0.57378 0.61878 0.0
H938 H 0.45153 0.57053 0.64974 0.0
H939 H 0.41053 0.58632 0.74345 0.0
H940 H 0.43279 0.60104 0.72602 0.0
H941 H 0.43663 0.55486 0.69578 0.0
H942 H 0.41464 0.54008 0.71318 0.0
H943 H 0.43823 0.58465 0.67637 0.0
H944 H 0.46332 0.56325 0.72734 0.0
H945 H 0.46641 0.56101 0.75846 0.0
H946 H 0.47887 0.61503 0.76378 0.0
H947 H 0.47561 0.6176 0.73269 0.0
C948 C 0.5165 0.59514 0.65029 0.0
C949 C 0.52744 0.6098 0.6544 0.0
C950 C 0.50128 0.59168 0.65919 0.0
C951 C 0.4965 0.60294 0.67222 0.0
C952 C 0.50747 0.61755 0.67646 0.0
C953 C 0.52282 0.62094 0.66764 0.0
C954 C 0.48038 0.59901 0.68178 0.0
C955 C 0.48123 0.59829 0.69962 0.0
C956 C 0.46454 0.59454 0.67333 0.0
C957 C 0.46247 0.59644 0.65469 0.0
C958 C 0.46746 0.61204 0.64722 0.0
C959 C 0.46565 0.61373 0.62964 0.0
C960 C 0.45876 0.59995 0.6194 0.0
C961 C 0.45363 0.58445 0.62673 0.0
C962 C 0.45543 0.58268 0.6443 0.0
C963 C 0.4159 0.57942 0.73288 0.0
C964 C 0.41095 0.56202 0.72974 0.0
C965 C 0.42864 0.58782 0.72299 0.0
C966 C 0.43642 0.57897 0.70972 0.0
C967 C 0.43077 0.5619 0.70596 0.0
C968 C 0.41825 0.55346 0.71595 0.0
C969 C 0.45139 0.58692 0.70055 0.0
C970 C 0.45031 0.58835 0.68282 0.0
C971 C 0.46697 0.5922 0.70909 0.0
C972 C 0.46901 0.59064 0.72774 0.0
C973 C 0.46657 0.57466 0.73517 0.0
C974 C 0.46838 0.57333 0.7528 0.0
C975 C 0.47278 0.58788 0.7631 0.0
C976 C 0.47543 0.60378 0.75579 0.0
C977 C 0.4736 0.60518 0.73817 0.0
H978 H 0.47418 0.58683 0.77674 0.0
H979 H 0.45736 0.60128 0.6058 0.0
H980 H 0.75359 0.26431 0.67378 0.0
H981 H 0.74101 0.28531 0.65671 0.0
H982 H 0.78763 0.31853 0.6616 0.0
H983 H 0.80016 0.29778 0.67913 0.0
H984 H 0.75862 0.33662 0.66073 0.0
H985 H 0.78357 0.29129 0.62896 0.0
H986 H 0.787 0.26124 0.62123 0.0
H987 H 0.73401 0.25342 0.60663 0.0
H988 H 0.73021 0.28339 0.61454 0.0
H989 H 0.76133 0.35529 0.56465 0.0
H990 H 0.7669 0.33891 0.58939 0.0
H991 H 0.72256 0.35649 0.61449 0.0
H992 H 0.71693 0.37324 0.58959 0.0
H993 H 0.74729 0.31303 0.60188 0.0
H994 H 0.73164 0.35679 0.65879 0.0
H995 H 0.73087 0.38737 0.66609 0.0
H996 H 0.76965 0.39964 0.62885 0.0
H997 H 0.7708 0.36913 0.62149 0.0
C998 C 0.76099 0.27631 0.67172 0.0
C999 C 0.77798 0.27927 0.67761 0.0
C1000 C 0.75379 0.28827 0.66189 0.0
C1001 C 0.76348 0.30335 0.6577 0.0
C1002 C 0.77994 0.30695 0.66467 0.0
C1003 C 0.78715 0.295 0.67451 0.0
C1004 C 0.7575 0.31414 0.64423 0.0
C1005 C 0.75595 0.33147 0.64789 0.0
C1006 C 0.75426 0.30745 0.62745 0.0
C1007 C 0.75656 0.2895 0.62252 0.0
C1008 C 0.77262 0.28312 0.62422 0.0
C1009 C 0.77464 0.26612 0.61979 0.0
C1010 C 0.76072 0.25541 0.61349 0.0
C1011 C 0.74477 0.26171 0.61155 0.0
C1012 C 0.74268 0.2787 0.616 0.0
C1013 C 0.75275 0.35578 0.57542 0.0
C1014 C 0.73862 0.36552 0.57511 0.0
C1015 C 0.75595 0.34636 0.58956 0.0
C1016 C 0.74514 0.34644 0.60376 0.0
C1017 C 0.73113 0.35634 0.60369 0.0
C1018 C 0.72791 0.36585 0.58945 0.0
C1019 C 0.7485 0.33562 0.61826 0.0
C1020 C 0.74958 0.3182 0.61478 0.0
C1021 C 0.75159 0.34234 0.63507 0.0
C1022 C 0.75113 0.3607 0.63945 0.0
C1023 C 0.74002 0.36602 0.65219 0.0
C1024 C 0.73952 0.38334 0.65633 0.0
C1025 C 0.75015 0.39544 0.64789 0.0
C1026 C 0.76136 0.39025 0.63532 0.0
C1027 C 0.76192 0.37295 0.63114 0.0
H1028 H 0.74974 0.40884 0.65111 0.0
H1029 H 0.7623 0.24225 0.61006 0.0
H1030 H 0.46714 0.96237 0.63302 0.0
H1031 H 0.48563 0.96291 0.65831 0.0
H1032 H 0.52986 0.96135 0.62587 0.0
H1033 H 0.51144 0.96024 0.60072 0.0
H1034 H 0.53549 0.9459 0.65443 0.0
H1035 H 0.51467 0.99934 0.63895 0.0
H1036 H 0.49216 0.01824 0.63302 0.0
H1037 H 0.47238 0.01173 0.6836 0.0
H1038 H 0.49464 0.99256 0.68973 0.0
H1039 H 0.58182 0.02331 0.7056 0.0
H1040 H 0.56208 0.00988 0.68412 0.0
H1041 H 0.55898 0.9631 0.71128 0.0
H1042 H 0.57942 0.97642 0.73258 0.0
H1043 H 0.53052 0.99951 0.68823 0.0
H1044 H 0.54614 0.92968 0.68268 0.0
H1045 H 0.57072 0.91259 0.6858 0.0
H1046 H 0.6052 0.95562 0.67312 0.0
H1047 H 0.58081 0.97289 0.66973 0.0
C1048 C 0.48076 0.9617 0.63136 0.0
C1049 C 0.4879 0.96146 0.61496 0.0
C1050 C 0.49131 0.96198 0.64577 0.0
C1051 C 0.50917 0.96254 0.64396 0.0
C1052 C 0.51614 0.96092 0.62759 0.0
C1053 C 0.50559 0.96033 0.61321 0.0
C1054 C 0.52075 0.96739 0.65865 0.0
C1055 C 0.53432 0.95751 0.66198 0.0
C1056 C 0.51941 0.9827 0.6683 0.0
C1057 C 0.50617 0.99438 0.66472 0.0
C1058 C 0.50546 0.00187 0.64877 0.0
C1059 C 0.49275 0.01263 0.64537 0.0
C1060 C 0.48082 0.01615 0.65791 0.0
C1061 C 0.48161 0.00896 0.67389 0.0
C1062 C 0.49426 0.99815 0.67733 0.0
C1063 C 0.57713 0.01009 0.70687 0.0
C1064 C 0.58208 0.00092 0.72076 0.0
C1065 C 0.56579 0.00244 0.69462 0.0
C1066 C 0.55893 0.98551 0.69611 0.0
C1067 C 0.56422 0.97612 0.70975 0.0
C1068 C 0.57588 0.98373 0.72191 0.0
C1069 C 0.54561 0.97829 0.68377 0.0
C1070 C 0.53159 0.98771 0.68095 0.0
C1071 C 0.54691 0.96287 0.67428 0.0
C1072 C 0.56167 0.95262 0.67618 0.0
C1073 C 0.55897 0.93548 0.68054 0.0
C1074 C 0.57287 0.92576 0.68235 0.0
C1075 C 0.58952 0.93304 0.67973 0.0
C1076 C 0.5923 0.95002 0.67523 0.0
C1077 C 0.57845 0.95979 0.67338 0.0
H1078 H 0.60026 0.9255 0.68115 0.0
H1079 H 0.47099 0.02448 0.65526 0.0
H1080 H 0.87553 0.25209 0.75007 0.0
H1081 H 0.89792 0.25518 0.77204 0.0
H1082 H 0.88063 0.20572 0.79037 0.0
H1083 H 0.85801 0.2027 0.76866 0.0
H1084 H 0.88721 0.22935 0.81642 0.0
H1085 H 0.91558 0.21022 0.76606 0.0
H1086 H 0.92446 0.21101 0.73594 0.0
H1087 H 0.95066 0.26064 0.74514 0.0
H1088 H 0.94173 0.26024 0.77527 0.0
H1089 H 0.95895 0.21967 0.86885 0.0
H1090 H 0.93743 0.21488 0.84619 0.0
H1091 H 0.95503 0.26301 0.82505 0.0
H1092 H 0.97677 0.26776 0.84742 0.0
H1093 H 0.94832 0.23927 0.80027 0.0
H1094 H 0.91946 0.25907 0.85009 0.0
H1095 H 0.9104 0.25886 0.88018 0.0
H1096 H 0.88495 0.20876 0.872 0.0
H1097 H 0.89406 0.20858 0.8419 0.0
C1098 C 0.8764 0.24196 0.75889 0.0
C1099 C 0.86507 0.22712 0.7576 0.0
C1100 C 0.88927 0.24367 0.77133 0.0
C1101 C 0.89105 0.23058 0.78269 0.0
C1102 C 0.87952 0.21593 0.78167 0.0
C1103 C 0.86669 0.21418 0.7692 0.0
C1104 C 0.90496 0.23214 0.7956 0.0
C1105 C 0.90059 0.23128 0.81289 0.0
C1106 C 0.92238 0.23502 0.79098 0.0
C1107 C 0.92784 0.23526 0.77288 0.0
C1108 C 0.92312 0.22136 0.76163 0.0
C1109 C 0.92818 0.22173 0.74456 0.0
C1110 C 0.93808 0.23589 0.73862 0.0
C1111 C 0.94297 0.24969 0.74975 0.0
C1112 C 0.93793 0.24939 0.76683 0.0
C1113 C 0.95835 0.22917 0.8593 0.0
C1114 C 0.96951 0.24416 0.86003 0.0
C1115 C 0.94599 0.22645 0.8464 0.0
C1116 C 0.94445 0.23872 0.8341 0.0
C1117 C 0.95596 0.25339 0.83444 0.0
C1118 C 0.96836 0.2561 0.84728 0.0
C1119 C 0.93058 0.23653 0.82112 0.0
C1120 C 0.93495 0.23729 0.80381 0.0
C1121 C 0.91314 0.23363 0.82573 0.0
C1122 C 0.90759 0.23374 0.8438 0.0
C1123 C 0.91204 0.24795 0.85475 0.0
C1124 C 0.90688 0.24791 0.87179 0.0
C1125 C 0.89715 0.23378 0.87801 0.0
C1126 C 0.89251 0.21968 0.86717 0.0
C1127 C 0.89766 0.21965 0.85012 0.0
H1128 H 0.89317 0.23378 0.89121 0.0
H1129 H 0.94199 0.23615 0.7254 0.0
H1130 H 0.44932 0.92934 0.47909 0.0
H1131 H 0.45289 0.9026 0.46352 0.0
H1132 H 0.44588 0.87551 0.51017 0.0
H1133 H 0.44312 0.90232 0.52596 0.0
H1134 H 0.47324 0.86673 0.49452 0.0
H1135 H 0.41556 0.87123 0.47761 0.0
H1136 H 0.39106 0.88489 0.46631 0.0
H1137 H 0.41638 0.89067 0.41812 0.0
H1138 H 0.44115 0.87726 0.4292 0.0
H1139 H 0.47276 0.78524 0.4522 0.0
H1140 H 0.46348 0.80983 0.4683 0.0
H1141 H 0.47668 0.84172 0.42594 0.0
H1142 H 0.48606 0.81723 0.40973 0.0
H1143 H 0.44445 0.84665 0.44018 0.0
H1144 H 0.50287 0.84363 0.45847 0.0
H1145 H 0.52692 0.8295 0.47009 0.0
H1146 H 0.49905 0.82029 0.51639 0.0
H1147 H 0.47471 0.83416 0.50493 0.0
C1148 C 0.44844 0.91768 0.48602 0.0
C1149 C 0.44605 0.918 0.50379 0.0
C1150 C 0.45029 0.90236 0.47707 0.0
C1151 C 0.44956 0.88701 0.48565 0.0
C1152 C 0.44648 0.88719 0.50328 0.0
C1153 C 0.44473 0.90253 0.51226 0.0
C1154 C 0.45343 0.87104 0.4765 0.0
C1155 C 0.46669 0.86217 0.48282 0.0
C1156 C 0.44515 0.86527 0.46103 0.0
C1157 C 0.43028 0.87336 0.4543 0.0
C1158 C 0.41597 0.87554 0.46465 0.0
C1159 C 0.40202 0.88321 0.45827 0.0
C1160 C 0.40218 0.88868 0.44152 0.0
C1161 C 0.41628 0.88644 0.4311 0.0
C1162 C 0.43027 0.87879 0.43741 0.0
C1163 C 0.4737 0.79748 0.44629 0.0
C1164 C 0.48022 0.79929 0.4297 0.0
C1165 C 0.46841 0.8115 0.45552 0.0
C1166 C 0.46946 0.82756 0.44831 0.0
C1167 C 0.47575 0.8294 0.4317 0.0
C1168 C 0.4812 0.81541 0.42251 0.0
C1169 C 0.46426 0.84253 0.4582 0.0
C1170 C 0.45082 0.85119 0.45199 0.0
C1171 C 0.47226 0.84805 0.47384 0.0
C1172 C 0.4869 0.83976 0.48077 0.0
C1173 C 0.50181 0.83845 0.47106 0.0
C1174 C 0.5155 0.83052 0.47763 0.0
C1175 C 0.51449 0.82396 0.49395 0.0
C1176 C 0.4998 0.82536 0.50374 0.0
C1177 C 0.48606 0.83326 0.49722 0.0
H1178 H 0.52511 0.81782 0.49901 0.0
H1179 H 0.39136 0.89461 0.4366 0.0
H1180 H 0.16334 0.27898 0.77601 0.0
H1181 H 0.14576 0.27083 0.8007 0.0
H1182 H 0.13114 0.32212 0.80626 0.0
H1183 H 0.14879 0.33034 0.78183 0.0
H1184 H 0.13606 0.30988 0.83671 0.0
H1185 H 0.10567 0.28994 0.78499 0.0
H1186 H 0.10192 0.27375 0.75756 0.0
H1187 H 0.10738 0.22722 0.78293 0.0
H1188 H 0.11139 0.24319 0.8105 0.0
H1189 H 0.05263 0.30372 0.87036 0.0
H1190 H 0.07906 0.30754 0.85407 0.0
H1191 H 0.08749 0.25492 0.86053 0.0
H1192 H 0.06095 0.25098 0.87698 0.0
H1193 H 0.08907 0.26412 0.82695 0.0
H1194 H 0.1141 0.28481 0.87983 0.0
H1195 H 0.11656 0.30185 0.90682 0.0
H1196 H 0.11989 0.34788 0.879 0.0
H1197 H 0.1172 0.33112 0.85184 0.0
C1198 C 0.15645 0.28852 0.78259 0.0
C1199 C 0.15738 0.30528 0.77694 0.0
C1200 C 0.14643 0.28386 0.79669 0.0
C1201 C 0.13695 0.29582 0.8052 0.0
C1202 C 0.13838 0.31269 0.79995 0.0
C1203 C 0.1485 0.31738 0.78598 0.0
C1204 C 0.12471 0.29069 0.8189 0.0
C1205 C 0.12576 0.2999 0.83457 0.0
C1206 C 0.11152 0.27737 0.81629 0.0
C1207 C 0.10904 0.26777 0.79975 0.0
C1208 C 0.1062 0.27627 0.78469 0.0
C1209 C 0.10401 0.26714 0.76913 0.0
C1210 C 0.10447 0.24948 0.76849 0.0
C1211 C 0.10707 0.24091 0.78343 0.0
C1212 C 0.1093 0.24999 0.79903 0.0
C1213 C 0.06023 0.29301 0.86856 0.0
C1214 C 0.05468 0.27703 0.87489 0.0
C1215 C 0.07539 0.29524 0.85932 0.0
C1216 C 0.08529 0.28154 0.85618 0.0
C1217 C 0.08006 0.26567 0.86288 0.0
C1218 C 0.06493 0.26346 0.8723 0.0
C1219 C 0.10018 0.28359 0.84459 0.0
C1220 C 0.0996 0.27383 0.82927 0.0
C1221 C 0.11367 0.29652 0.84747 0.0
C1222 C 0.11535 0.30668 0.86378 0.0
C1223 C 0.11523 0.29856 0.87946 0.0
C1224 C 0.11669 0.30818 0.8948 0.0
C1225 C 0.11836 0.32593 0.89462 0.0
C1226 C 0.1186 0.33412 0.87911 0.0
C1227 C 0.11714 0.32457 0.86374 0.0
H1228 H 0.11949 0.33335 0.90651 0.0
H1229 H 0.10276 0.24242 0.75643 0.0
H1230 H 0.54841 0.65423 0.55598 0.0
H1231 H 0.53872 0.66603 0.52969 0.0
H1232 H 0.59056 0.67078 0.51109 0.0
H1233 H 0.60044 0.65907 0.53762 0.0
H1234 H 0.57329 0.69991 0.50663 0.0
H1235 H 0.56423 0.64031 0.49406 0.0
H1236 H 0.55427 0.61047 0.49943 0.0
H1237 H 0.50236 0.6235 0.50209 0.0
H1238 H 0.51202 0.65348 0.49699 0.0
H1239 H 0.53812 0.72582 0.42826 0.0
H1240 H 0.5545 0.71 0.44796 0.0
H1241 H 0.50807 0.69457 0.47484 0.0
H1242 H 0.49168 0.70993 0.45513 0.0
H1243 H 0.52716 0.66876 0.47146 0.0
H1244 H 0.53652 0.7285 0.48903 0.0
H1245 H 0.54596 0.75872 0.48492 0.0
H1246 H 0.59679 0.74565 0.47369 0.0
H1247 H 0.58758 0.7153 0.47754 0.0
C1248 C 0.55778 0.65788 0.54635 0.0
C1249 C 0.57519 0.65578 0.54887 0.0
C1250 C 0.55221 0.66448 0.53127 0.0
C1251 C 0.56391 0.66911 0.51838 0.0
C1252 C 0.58134 0.66719 0.52087 0.0
C1253 C 0.58693 0.66044 0.53596 0.0
C1254 C 0.55773 0.67622 0.50251 0.0
C1255 C 0.56348 0.69299 0.49868 0.0
C1256 C 0.54478 0.66724 0.49231 0.0
C1257 C 0.53887 0.64918 0.49524 0.0
C1258 C 0.5507 0.63684 0.4959 0.0
C1259 C 0.5451 0.61989 0.49888 0.0
C1260 C 0.5277 0.6151 0.50112 0.0
C1261 C 0.51584 0.62723 0.50035 0.0
C1262 C 0.52137 0.6442 0.49739 0.0
C1263 C 0.53141 0.71891 0.43828 0.0
C1264 C 0.51361 0.7192 0.44018 0.0
C1265 C 0.54079 0.70994 0.44957 0.0
C1266 C 0.53254 0.70125 0.463 0.0
C1267 C 0.51472 0.70115 0.46457 0.0
C1268 C 0.50536 0.71001 0.45331 0.0
C1269 C 0.54228 0.69267 0.4759 0.0
C1270 C 0.53722 0.67559 0.47917 0.0
C1271 C 0.55578 0.70141 0.48564 0.0
C1272 C 0.56131 0.71963 0.48335 0.0
C1273 C 0.54967 0.73206 0.48555 0.0
C1274 C 0.55499 0.74921 0.4833 0.0
C1275 C 0.57195 0.7541 0.47899 0.0
C1276 C 0.58365 0.74184 0.47699 0.0
C1277 C 0.57839 0.72467 0.47921 0.0
H1278 H 0.57605 0.76738 0.47726 0.0
H1279 H 0.52339 0.60197 0.50343 0.0
H1280 H 0.84906 0.84492 0.75435 0.0
H1281 H 0.87058 0.83797 0.73332 0.0
H1282 H 0.89843 0.8145 0.77222 0.0
H1283 H 0.87707 0.8216 0.79332 0.0
H1284 H 0.91972 0.83382 0.75376 0.0
H1285 H 0.87379 0.79071 0.74177 0.0
H1286 H 0.84412 0.77942 0.73501 0.0
H1287 H 0.8461 0.80621 0.68827 0.0
H1288 H 0.87572 0.81786 0.69487 0.0
H1289 H 0.97319 0.78805 0.69918 0.0
H1290 H 0.95174 0.79584 0.71988 0.0
H1291 H 0.92724 0.82307 0.68141 0.0
H1292 H 0.94858 0.81532 0.66059 0.0
H1293 H 0.90431 0.80216 0.69932 0.0
H1294 H 0.95076 0.84482 0.71155 0.0
H1295 H 0.9806 0.85539 0.71847 0.0
H1296 H 0.97772 0.82838 0.76508 0.0
H1297 H 0.94793 0.81745 0.75832 0.0
C1298 C 0.8597 0.83816 0.75836 0.0
C1299 C 0.86139 0.8338 0.77546 0.0
C1300 C 0.87199 0.83419 0.74635 0.0
C1301 C 0.88603 0.82555 0.75116 0.0
C1302 C 0.88773 0.8212 0.76823 0.0
C1303 C 0.87554 0.82529 0.78027 0.0
C1304 C 0.89913 0.82127 0.73848 0.0
C1305 C 0.91636 0.8267 0.74196 0.0
C1306 C 0.89472 0.8123 0.72291 0.0
C1307 C 0.87692 0.8053 0.7189 0.0
C1308 C 0.86785 0.79431 0.73012 0.0
C1309 C 0.85105 0.78782 0.72631 0.0
C1310 C 0.84322 0.79213 0.71125 0.0
C1311 C 0.85218 0.80291 0.69995 0.0
C1312 C 0.86898 0.80944 0.70371 0.0
C1313 C 0.96329 0.79575 0.69512 0.0
C1314 C 0.96262 0.80108 0.67823 0.0
C1315 C 0.95107 0.80023 0.70698 0.0
C1316 C 0.93797 0.81012 0.70218 0.0
C1317 C 0.93725 0.81544 0.68536 0.0
C1318 C 0.94951 0.81105 0.6735 0.0
C1319 C 0.92485 0.81466 0.71466 0.0
C1320 C 0.90763 0.80929 0.71112 0.0
C1321 C 0.92927 0.82358 0.73022 0.0
C1322 C 0.94717 0.83018 0.73434 0.0
C1323 C 0.95654 0.84102 0.72321 0.0
C1324 C 0.97343 0.8471 0.72712 0.0
C1325 C 0.98106 0.84253 0.74218 0.0
C1326 C 0.9718 0.8319 0.7534 0.0
C1327 C 0.9549 0.82577 0.74955 0.0
H1328 H 0.99415 0.84725 0.74519 0.0
H1329 H 0.83021 0.78709 0.70832 0.0
H1330 H 0.02889 0.89391 0.47562 0.0
H1331 H 0.02071 0.88037 0.50236 0.0
H1332 H 0.07351 0.8855 0.51873 0.0
H1333 H 0.0818 0.8989 0.49192 0.0
H1334 H 0.05697 0.85343 0.52423 0.0
H1335 H 0.04768 0.91194 0.5355 0.0
H1336 H 0.03626 0.93927 0.52977 0.0
H1337 H 0.98495 0.91542 0.53186 0.0
H1338 H 0.99607 0.88788 0.53736 0.0
H1339 H 0.03538 0.82734 0.60795 0.0
H1340 H 0.04737 0.84488 0.58495 0.0
H1341 H 0.99658 0.84806 0.56482 0.0
H1342 H 0.98454 0.83096 0.58784 0.0
H1343 H 0.01468 0.87774 0.5628 0.0
H1344 H 0.02319 0.81921 0.5483 0.0
H1345 H 0.0337 0.7912 0.55288 0.0
H1346 H 0.08536 0.81432 0.55579 0.0
H1347 H 0.07512 0.84251 0.55143 0.0
C1348 C 0.03876 0.89203 0.48487 0.0
C1349 C 0.05597 0.8975 0.48173 0.0
C1350 C 0.03407 0.88443 0.50017 0.0
C1351 C 0.0465 0.88212 0.51257 0.0
C1352 C 0.06373 0.88725 0.50934 0.0
C1353 C 0.06842 0.89498 0.49409 0.0
C1354 C 0.04146 0.87425 0.52887 0.0
C1355 C 0.04796 0.85889 0.53284 0.0
C1356 C 0.02946 0.88123 0.53989 0.0
C1357 C 0.02272 0.89781 0.53671 0.0
C1358 C 0.03397 0.91249 0.53461 0.0
C1359 C 0.02754 0.92803 0.53142 0.0
C1360 C 0.00989 0.92907 0.53041 0.0
C1361 C 0.99862 0.91459 0.53263 0.0
C1362 C 0.00498 0.89902 0.53581 0.0
C1363 C 0.02677 0.83197 0.59874 0.0
C1364 C 0.00902 0.82767 0.59965 0.0
C1365 C 0.03364 0.84191 0.58556 0.0
C1366 C 0.02288 0.84756 0.57301 0.0
C1367 C 0.00513 0.84383 0.57433 0.0
C1368 C 0.99827 0.83399 0.58749 0.0
C1369 C 0.02998 0.85675 0.55806 0.0
C1370 C 0.02386 0.87237 0.55432 0.0
C1371 C 0.0422 0.84991 0.54716 0.0
C1372 C 0.04838 0.83298 0.54975 0.0
C1373 C 0.03678 0.81833 0.55005 0.0
C1374 C 0.04269 0.80243 0.55258 0.0
C1375 C 0.06019 0.80099 0.55468 0.0
C1376 C 0.07181 0.81546 0.5542 0.0
C1377 C 0.06596 0.8314 0.55169 0.0
H1378 H 0.06474 0.78867 0.55664 0.0
H1379 H 0.00494 0.94111 0.52794 0.0
H1380 H 0.18399 0.79734 0.73454 0.0
H1381 H 0.15802 0.79835 0.71747 0.0
H1382 H 0.13618 0.75228 0.7399 0.0
H1383 H 0.1621 0.75122 0.75706 0.0
H1384 H 0.13051 0.75144 0.70604 0.0
H1385 H 0.12426 0.79104 0.75313 0.0
H1386 H 0.1329 0.81576 0.77231 0.0
H1387 H 0.1344 0.84866 0.72981 0.0
H1388 H 0.12599 0.82408 0.71033 0.0
H1389 H 0.04271 0.7544 0.68882 0.0
H1390 H 0.07072 0.75454 0.70234 0.0
H1391 H 0.08831 0.79975 0.6759 0.0
H1392 H 0.0601 0.79979 0.66231 0.0
H1393 H 0.09725 0.80198 0.70982 0.0
H1394 H 0.10152 0.7622 0.66299 0.0
H1395 H 0.09241 0.73731 0.64422 0.0
H1396 H 0.09423 0.70453 0.68658 0.0
H1397 H 0.10312 0.72927 0.70567 0.0
C1398 C 0.17362 0.78747 0.73592 0.0
C1399 C 0.17508 0.77424 0.74724 0.0
C1400 C 0.15879 0.78806 0.72613 0.0
C1401 C 0.14507 0.7755 0.72755 0.0
C1402 C 0.14662 0.76209 0.73858 0.0
C1403 C 0.16146 0.76148 0.74835 0.0
C1404 C 0.12903 0.77638 0.71766 0.0
C1405 C 0.12315 0.76242 0.70699 0.0
C1406 C 0.11966 0.7909 0.71856 0.0
C1407 C 0.12468 0.80569 0.73025 0.0
C1408 C 0.12657 0.80352 0.74785 0.0
C1409 C 0.1314 0.81751 0.75878 0.0
C1410 C 0.13425 0.83376 0.75228 0.0
C1411 C 0.13222 0.83606 0.73483 0.0
C1412 C 0.12741 0.82211 0.72384 0.0
C1413 C 0.05251 0.76438 0.68581 0.0
C1414 C 0.04918 0.77707 0.67444 0.0
C1415 C 0.06856 0.76438 0.69351 0.0
C1416 C 0.08167 0.77703 0.68997 0.0
C1417 C 0.07838 0.78984 0.67875 0.0
C1418 C 0.06229 0.78981 0.67097 0.0
C1419 C 0.09864 0.77696 0.69835 0.0
C1420 C 0.10469 0.79107 0.70874 0.0
C1421 C 0.10814 0.76255 0.69725 0.0
C1422 C 0.10286 0.74762 0.68579 0.0
C1423 C 0.09985 0.74971 0.66833 0.0
C1424 C 0.09475 0.73562 0.65763 0.0
C1425 C 0.09271 0.71935 0.66421 0.0
C1426 C 0.09581 0.71713 0.6815 0.0
C1427 C 0.1009 0.73119 0.69227 0.0
H1428 H 0.08876 0.70846 0.6559 0.0
H1429 H 0.13798 0.84458 0.76076 0.0
H1430 H 0.98209 0.6317 0.51248 0.0
H1431 H 0.98715 0.65822 0.52961 0.0
H1432 H 0.94031 0.64574 0.55706 0.0
H1433 H 0.93561 0.61891 0.54037 0.0
H1434 H 0.97246 0.68588 0.53566 0.0
H1435 H 0.94491 0.6578 0.59825 0.0
H1436 H 0.94053 0.62996 0.6117 0.0
H1437 H 0.9821 0.61208 0.5827 0.0
H1438 H 0.98688 0.63987 0.56928 0.0
H1439 H 0.96618 0.75291 0.59677 0.0
H1440 H 0.96025 0.72778 0.57794 0.0
H1441 H 0.99841 0.70244 0.60441 0.0
H1442 H 0.00401 0.72734 0.62367 0.0
H1443 H 0.97202 0.68117 0.59859 0.0
H1444 H 0.00604 0.72 0.56475 0.0
H1445 H 0.01442 0.74721 0.55125 0.0
H1446 H 0.96737 0.74262 0.5227 0.0
H1447 H 0.95859 0.71549 0.53623 0.0
C1448 C 0.97278 0.63478 0.52202 0.0
C1449 C 0.95856 0.62326 0.52527 0.0
C1450 C 0.97567 0.64991 0.53179 0.0
C1451 C 0.96429 0.65381 0.54486 0.0
C1452 C 0.94949 0.64279 0.54735 0.0
C1453 C 0.94677 0.62753 0.53779 0.0
C1454 C 0.9684 0.6689 0.55646 0.0
C1455 C 0.97231 0.68487 0.54942 0.0
C1456 C 0.96869 0.66752 0.57441 0.0
C1457 C 0.96612 0.65085 0.58265 0.0
C1458 C 0.95316 0.64794 0.59481 0.0
C1459 C 0.9506 0.63217 0.60241 0.0
C1460 C 0.96099 0.61924 0.59801 0.0
C1461 C 0.97402 0.62208 0.58606 0.0
C1462 C 0.97665 0.63784 0.57844 0.0
C1463 C 0.97329 0.74197 0.59861 0.0
C1464 C 0.98561 0.74213 0.61168 0.0
C1465 C 0.96995 0.72765 0.58777 0.0
C1466 C 0.97908 0.71332 0.58957 0.0
C1467 C 0.99122 0.71336 0.60276 0.0
C1468 C 0.99442 0.72761 0.61375 0.0
C1469 C 0.97587 0.69822 0.57782 0.0
C1470 C 0.97211 0.68222 0.58483 0.0
C1471 C 0.97633 0.69951 0.55985 0.0
C1472 C 0.98159 0.71579 0.55163 0.0
C1473 C 0.99742 0.72486 0.55569 0.0
C1474 C 0.00226 0.74026 0.54802 0.0
C1475 C 0.99142 0.74666 0.53616 0.0
C1476 C 0.97574 0.73766 0.53191 0.0
C1477 C 0.97083 0.72226 0.53957 0.0
H1478 H 0.99518 0.75859 0.53023 0.0
H1479 H 0.95897 0.60703 0.60389 0.0
H1480 H 0.75719 0.87717 0.2516 0.0
H1481 H 0.77584 0.90306 0.25816 0.0
H1482 H 0.76545 0.92174 0.20861 0.0
H1483 H 0.74599 0.8964 0.20219 0.0
H1484 H 0.80217 0.92434 0.22052 0.0
H1485 H 0.74542 0.93809 0.23702 0.0
H1486 H 0.718 0.93298 0.25212 0.0
H1487 H 0.74472 0.93477 0.30008 0.0
H1488 H 0.77233 0.93963 0.28522 0.0
H1489 H 0.83954 0.00825 0.23488 0.0
H1490 H 0.81948 0.98385 0.22655 0.0
H1491 H 0.8135 0.97122 0.27944 0.0
H1492 H 0.83285 0.99609 0.28785 0.0
H1493 H 0.78445 0.96542 0.26495 0.0
H1494 H 0.84061 0.9506 0.25049 0.0
H1495 H 0.869 0.9539 0.23696 0.0
H1496 H 0.84528 0.95196 0.18745 0.0
H1497 H 0.81673 0.94887 0.20071 0.0
C1498 C 0.75869 0.88681 0.2421 0.0
C1499 C 0.7499 0.88467 0.22639 0.0
C1500 C 0.76948 0.90153 0.24585 0.0
C1501 C 0.7719 0.91427 0.23389 0.0
C1502 C 0.76374 0.91197 0.21796 0.0
C1503 C 0.75271 0.89739 0.2143 0.0
C1504 C 0.78253 0.93026 0.23825 0.0
C1505 C 0.79826 0.93349 0.23005 0.0
C1506 C 0.77754 0.94183 0.25104 0.0
C1507 C 0.76094 0.93905 0.25999 0.0
C1508 C 0.74546 0.93724 0.25077 0.0
C1509 C 0.72988 0.93442 0.25929 0.0
C1510 C 0.72962 0.9335 0.27704 0.0
C1511 C 0.74494 0.93546 0.28632 0.0
C1512 C 0.76056 0.93826 0.27786 0.0
C1513 C 0.8338 0.00035 0.24473 0.0
C1514 C 0.83783 0.00402 0.26201 0.0
C1515 C 0.82243 0.98633 0.23995 0.0
C1516 C 0.81528 0.9754 0.25232 0.0
C1517 C 0.81887 0.97939 0.26963 0.0
C1518 C 0.82995 0.99362 0.27444 0.0
C1519 C 0.80432 0.95966 0.24728 0.0
C1520 C 0.78847 0.9564 0.25536 0.0
C1521 C 0.80939 0.94787 0.23461 0.0
C1522 C 0.82654 0.94968 0.2266 0.0
C1523 C 0.84145 0.951 0.23672 0.0
C1524 C 0.85757 0.95281 0.2291 0.0
C1525 C 0.85895 0.95319 0.21136 0.0
C1526 C 0.8442 0.9517 0.2012 0.0
C1527 C 0.82804 0.9499 0.20875 0.0
H1528 H 0.87144 0.95459 0.20548 0.0
H1529 H 0.71755 0.93132 0.28361 0.0
H1530 H 0.78066 0.20444 0.26379 0.0
H1531 H 0.79705 0.17963 0.26423 0.0
H1532 H 0.78768 0.17553 0.31817 0.0
H1533 H 0.7719 0.20085 0.31799 0.0
H1534 H 0.82009 0.17136 0.31147 0.0
H1535 H 0.76608 0.14832 0.28841 0.0
H1536 H 0.74126 0.14625 0.26888 0.0
H1537 H 0.77422 0.13837 0.22625 0.0
H1538 H 0.7993 0.14063 0.24552 0.0
H1539 H 0.84214 0.08605 0.31842 0.0
H1540 H 0.82744 0.11206 0.31822 0.0
H1541 H 0.84162 0.11887 0.26565 0.0
H1542 H 0.85643 0.09286 0.26574 0.0
H1543 H 0.80708 0.12167 0.27159 0.0
H1544 H 0.86112 0.14424 0.29554 0.0
H1545 H 0.88541 0.14574 0.31571 0.0
H1546 H 0.85147 0.1537 0.35752 0.0
H1547 H 0.82693 0.152 0.33762 0.0
C1548 C 0.78218 0.19836 0.27579 0.0
C1549 C 0.77494 0.20467 0.29086 0.0
C1550 C 0.79141 0.18404 0.27598 0.0
C1551 C 0.79344 0.17557 0.2912 0.0
C1552 C 0.78624 0.18182 0.30626 0.0
C1553 C 0.77706 0.1962 0.3061 0.0
C1554 C 0.80331 0.16037 0.29143 0.0
C1555 C 0.81708 0.1604 0.30291 0.0
C1556 C 0.79964 0.1462 0.28002 0.0
C1557 C 0.78459 0.14482 0.26839 0.0
C1558 C 0.76806 0.14629 0.27486 0.0
C1559 C 0.75394 0.14505 0.26384 0.0
C1560 C 0.75617 0.14223 0.24633 0.0
C1561 C 0.77252 0.14059 0.23982 0.0
C1562 C 0.78669 0.14183 0.25078 0.0
C1563 C 0.84228 0.09316 0.30685 0.0
C1564 C 0.85045 0.08739 0.29209 0.0
C1565 C 0.83391 0.10804 0.30678 0.0
C1566 C 0.83349 0.11742 0.29194 0.0
C1567 C 0.8418 0.11181 0.27724 0.0
C1568 C 0.85031 0.09699 0.27734 0.0
C1569 C 0.82382 0.1327 0.2916 0.0
C1570 C 0.81007 0.13266 0.28012 0.0
C1571 C 0.82742 0.14678 0.3031 0.0
C1572 C 0.84216 0.14783 0.3151 0.0
C1573 C 0.85881 0.14616 0.30905 0.0
C1574 C 0.87263 0.14708 0.32043 0.0
C1575 C 0.86998 0.14977 0.33789 0.0
C1576 C 0.8535 0.15159 0.344 0.0
C1577 C 0.83963 0.15067 0.33267 0.0
H1578 H 0.88069 0.15048 0.34668 0.0
H1579 H 0.74522 0.14127 0.23782 0.0
H1580 H 0.38357 0.9981 0.97195 0.0
H1581 H 0.35436 0.98575 0.97642 0.0
H1582 H 0.34248 0.03191 0.00312 0.0
H1583 H 0.37194 0.04417 0.99914 0.0
H1584 H 0.33252 0.00529 0.021 0.0
H1585 H 0.32444 0.02081 0.96416 0.0
H1586 H 0.33071 0.02364 0.93356 0.0
H1587 H 0.32585 0.96926 0.92629 0.0
H1588 H 0.3198 0.96609 0.9569 0.0
H1589 H 0.24351 0.95442 0.00086 0.0
H1590 H 0.26596 0.97656 0.99361 0.0
H1591 H 0.30238 0.95217 0.02338 0.0
H1592 H 0.28012 0.93017 0.0308 0.0
H1593 H 0.29553 0.97425 0.9766 0.0
H1594 H 0.33005 0.98145 0.04275 0.0
H1595 H 0.32241 0.98037 0.07319 0.0
H1596 H 0.27178 0.99325 0.06149 0.0
H1597 H 0.27919 0.99468 0.03101 0.0
C1598 C 0.37472 0.00566 0.9787 0.0
C1599 C 0.38009 0.02206 0.9853 0.0
C1600 C 0.35796 0.99866 0.98107 0.0
C1601 C 0.34618 0.00796 0.98998 0.0
C1602 C 0.35135 0.02454 0.99615 0.0
C1603 C 0.36814 0.03156 0.99377 0.0
C1604 C 0.32902 0.99971 0.99406 0.0
C1605 C 0.32435 0.99866 0.01127 0.0
C1606 C 0.31813 0.99142 0.98133 0.0
C1607 C 0.32174 0.99322 0.96288 0.0
C1608 C 0.32482 0.00945 0.95607 0.0
C1609 C 0.32832 0.01112 0.93871 0.0
C1610 C 0.3287 0.99664 0.92799 0.0
C1611 C 0.32555 0.98047 0.93461 0.0
C1612 C 0.32206 0.97873 0.95196 0.0
C1613 C 0.25629 0.95382 0.00592 0.0
C1614 C 0.26001 0.94054 0.01644 0.0
C1615 C 0.26909 0.96646 0.00174 0.0
C1616 C 0.28576 0.96611 0.00812 0.0
C1617 C 0.28951 0.95285 0.01856 0.0
C1618 C 0.27678 0.94022 0.02272 0.0
C1619 C 0.29952 0.97922 0.00355 0.0
C1620 C 0.30355 0.98117 0.98627 0.0
C1621 C 0.30964 0.98863 0.01618 0.0
C1622 C 0.30517 0.98807 0.03456 0.0
C1623 C 0.31732 0.98416 0.04668 0.0
C1624 C 0.31302 0.98347 0.06394 0.0
C1625 C 0.29661 0.9867 0.06927 0.0
C1626 C 0.28447 0.9907 0.05734 0.0
C1627 C 0.28872 0.99143 0.04007 0.0
H1628 H 0.2933 0.98614 0.08263 0.0
H1629 H 0.33141 0.99796 0.91456 0.0
H1630 H 0.25859 0.40394 0.32391 0.0
H1631 H 0.23413 0.41933 0.31688 0.0
H1632 H 0.21581 0.37889 0.2813 0.0
H1633 H 0.23993 0.36285 0.28884 0.0
H1634 H 0.21643 0.41512 0.26965 0.0
H1635 H 0.19447 0.37862 0.31332 0.0
H1636 H 0.19521 0.36453 0.34082 0.0
H1637 H 0.19867 0.41315 0.36752 0.0
H1638 H 0.19823 0.42756 0.34016 0.0
H1639 H 0.14255 0.46299 0.26458 0.0
H1640 H 0.15963 0.43851 0.26619 0.0
H1641 H 0.18338 0.46023 0.31261 0.0
H1642 H 0.16628 0.48432 0.3113 0.0
H1643 H 0.17549 0.42734 0.31565 0.0
H1644 H 0.2029 0.46367 0.27288 0.0
H1645 H 0.20394 0.47877 0.24585 0.0
H1646 H 0.19142 0.43149 0.21793 0.0
H1647 H 0.19012 0.41614 0.24484 0.0
C1648 C 0.24929 0.39813 0.31476 0.0
C1649 C 0.25116 0.382 0.30715 0.0
C1650 C 0.23539 0.40704 0.31065 0.0
C1651 C 0.22315 0.40016 0.29869 0.0
C1652 C 0.22517 0.38437 0.29057 0.0
C1653 C 0.23901 0.37528 0.29486 0.0
C1654 C 0.20816 0.40958 0.29516 0.0
C1655 C 0.20717 0.41749 0.27951 0.0
C1656 C 0.19629 0.41277 0.30814 0.0
C1657 C 0.19642 0.40417 0.32466 0.0
C1658 C 0.19552 0.38632 0.32505 0.0
C1659 C 0.19587 0.37827 0.34062 0.0
C1660 C 0.19701 0.38794 0.35591 0.0
C1661 C 0.19779 0.40568 0.35567 0.0
C1662 C 0.19746 0.41379 0.34013 0.0
C1663 C 0.15134 0.46245 0.27517 0.0
C1664 C 0.1531 0.47562 0.28779 0.0
C1665 C 0.16112 0.44849 0.27604 0.0
C1666 C 0.17288 0.44759 0.28946 0.0
C1667 C 0.17436 0.46059 0.30218 0.0
C1668 C 0.1646 0.47442 0.30136 0.0
C1669 C 0.1841 0.43348 0.29035 0.0
C1670 C 0.1844 0.42466 0.30556 0.0
C1671 C 0.1954 0.42958 0.277 0.0
C1672 C 0.19619 0.4388 0.26086 0.0
C1673 C 0.20023 0.45652 0.26098 0.0
C1674 C 0.2009 0.46512 0.24569 0.0
C1675 C 0.19769 0.4561 0.23019 0.0
C1676 C 0.19386 0.43846 0.22995 0.0
C1677 C 0.19316 0.42981 0.24521 0.0
H1678 H 0.19821 0.46278 0.21836 0.0
H1679 H 0.19728 0.38169 0.36795 0.0
H1680 H 0.14754 0.98762 0.42308 0.0
H1681 H 0.16678 0.01134 0.43473 0.0
H1682 H 0.12615 0.02758 0.46658 0.0
H1683 H 0.10695 0.00371 0.45536 0.0
H1684 H 0.14362 0.05414 0.44993 0.0
H1685 H 0.15638 0.00733 0.48394 0.0
H1686 H 0.16443 0.97841 0.4888 0.0
H1687 H 0.21223 0.99004 0.46334 0.0
H1688 H 0.20435 0.01896 0.4581 0.0
H1689 H 0.19293 0.11278 0.50481 0.0
H1690 H 0.1738 0.08876 0.4937 0.0
H1691 H 0.21553 0.06985 0.46523 0.0
H1692 H 0.23482 0.09359 0.47653 0.0
H1693 H 0.1974 0.04454 0.48008 0.0
H1694 H 0.18504 0.09096 0.4457 0.0
H1695 H 0.17722 0.11981 0.44011 0.0
H1696 H 0.12911 0.10897 0.46524 0.0
H1697 H 0.13674 0.08012 0.47119 0.0
C1698 C 0.14273 0.99614 0.43268 0.0
C1699 C 0.12569 0.99375 0.43828 0.0
C1700 C 0.15372 0.00971 0.43927 0.0
C1701 C 0.14788 0.02113 0.45158 0.0
C1702 C 0.13086 0.01893 0.45704 0.0
C1703 C 0.11989 0.00532 0.45054 0.0
C1704 C 0.15952 0.03538 0.4588 0.0
C1705 C 0.15528 0.05206 0.45672 0.0
C1706 C 0.1749 0.03262 0.46728 0.0
C1707 C 0.1797 0.01525 0.47047 0.0
C1708 C 0.16855 0.00367 0.47925 0.0
C1709 C 0.17309 0.98729 0.4821 0.0
C1710 C 0.18881 0.98237 0.47635 0.0
C1711 C 0.20004 0.99385 0.46777 0.0
C1712 C 0.19555 0.01025 0.46486 0.0
C1713 C 0.19805 0.1035 0.49621 0.0
C1714 C 0.21539 0.10515 0.49151 0.0
C1715 C 0.18708 0.08981 0.48981 0.0
C1716 C 0.1932 0.07764 0.47846 0.0
C1717 C 0.21054 0.07911 0.47396 0.0
C1718 C 0.22154 0.09273 0.48041 0.0
C1719 C 0.18153 0.06336 0.47122 0.0
C1720 C 0.18576 0.04665 0.4733 0.0
C1721 C 0.16618 0.06611 0.46264 0.0
C1722 C 0.16154 0.08344 0.45905 0.0
C1723 C 0.17285 0.09477 0.45016 0.0
C1724 C 0.16844 0.11112 0.4469 0.0
C1725 C 0.1527 0.11624 0.45235 0.0
C1726 C 0.14131 0.105 0.46104 0.0
C1727 C 0.14566 0.08864 0.46435 0.0
H1728 H 0.14931 0.1289 0.44982 0.0
H1729 H 0.19231 0.96968 0.47857 0.0
H1730 H 0.7378 0.16663 0.70428 0.0
H1731 H 0.71682 0.1438 0.71288 0.0
H1732 H 0.7493 0.13357 0.75505 0.0
H1733 H 0.77062 0.15606 0.7462 0.0
H1734 H 0.73704 0.10457 0.73834 0.0
H1735 H 0.7138 0.15416 0.76193 0.0
H1736 H 0.70386 0.1829 0.76179 0.0
H1737 H 0.66534 0.16566 0.72458 0.0
H1738 H 0.67521 0.13687 0.72432 0.0
H1739 H 0.6725 0.05024 0.77868 0.0
H1740 H 0.69448 0.0732 0.77264 0.0
H1741 H 0.66504 0.08674 0.72947 0.0
H1742 H 0.64295 0.06403 0.73551 0.0
H1743 H 0.67627 0.11438 0.74859 0.0
H1744 H 0.70045 0.06517 0.72407 0.0
H1745 H 0.71046 0.03645 0.72417 0.0
H1746 H 0.7472 0.05304 0.7633 0.0
H1747 H 0.73725 0.08182 0.76359 0.0
C1748 C 0.74052 0.15946 0.71533 0.0
C1749 C 0.75587 0.16316 0.72457 0.0
C1750 C 0.72845 0.14653 0.72032 0.0
C1751 C 0.73142 0.13712 0.73471 0.0
C1752 C 0.74673 0.14073 0.74395 0.0
C1753 C 0.75882 0.15368 0.73896 0.0
C1754 C 0.71867 0.12327 0.73988 0.0
C1755 C 0.72381 0.10676 0.74086 0.0
C1756 C 0.70135 0.12608 0.74285 0.0
C1757 C 0.69535 0.14339 0.743 0.0
C1758 C 0.7033 0.15653 0.75362 0.0
C1759 C 0.69766 0.17282 0.75363 0.0
C1760 C 0.684 0.17611 0.74315 0.0
C1761 C 0.67593 0.1631 0.73267 0.0
C1762 C 0.68153 0.14678 0.7326 0.0
C1763 C 0.67073 0.05806 0.76786 0.0
C1764 C 0.65596 0.05529 0.75758 0.0
C1765 C 0.68333 0.07115 0.7644 0.0
C1766 C 0.68143 0.08161 0.75054 0.0
C1767 C 0.66674 0.07883 0.74025 0.0
C1768 C 0.65415 0.0658 0.7437 0.0
C1769 C 0.69459 0.09565 0.74684 0.0
C1770 C 0.68953 0.11221 0.74617 0.0
C1771 C 0.71196 0.09288 0.74417 0.0
C1772 C 0.71798 0.07559 0.74398 0.0
C1773 C 0.71057 0.06266 0.7328 0.0
C1774 C 0.71625 0.04638 0.73276 0.0
C1775 C 0.72942 0.04291 0.74377 0.0
C1776 C 0.73698 0.05574 0.7548 0.0
C1777 C 0.73133 0.07204 0.7549 0.0
H1778 H 0.73381 0.0303 0.74372 0.0
H1779 H 0.67965 0.18874 0.74318 0.0
H1780 H 0.37586 0.0061 0.55701 0.0
H1781 H 0.35274 0.02492 0.55624 0.0
H1782 H 0.38996 0.06859 0.55578 0.0
H1783 H 0.41304 0.04998 0.55732 0.0
H1784 H 0.36248 0.07634 0.57336 0.0
H1785 H 0.37387 0.04928 0.51856 0.0
H1786 H 0.3766 0.02469 0.49878 0.0
H1787 H 0.32425 0.00661 0.50786 0.0
H1788 H 0.32129 0.03101 0.52787 0.0
H1789 H 0.3127 0.11541 0.50059 0.0
H1790 H 0.33298 0.09709 0.51201 0.0
H1791 H 0.30663 0.09693 0.56024 0.0
H1792 H 0.28639 0.11574 0.54892 0.0
H1793 H 0.32622 0.06585 0.5215 0.0
H1794 H 0.33593 0.0884 0.59173 0.0
H1795 H 0.33548 0.11461 0.60977 0.0
H1796 H 0.34919 0.14488 0.56664 0.0
H1797 H 0.34992 0.11885 0.54841 0.0
C1798 C 0.3791 0.01973 0.5572 0.0
C1799 C 0.39629 0.02653 0.55689 0.0
C1800 C 0.36588 0.03047 0.55667 0.0
C1801 C 0.36963 0.04815 0.55563 0.0
C1802 C 0.38675 0.055 0.5565 0.0
C1803 C 0.39993 0.04431 0.55714 0.0
C1804 C 0.35607 0.05938 0.55171 0.0
C1805 C 0.3544 0.07398 0.56213 0.0
C1806 C 0.34569 0.05643 0.53693 0.0
C1807 C 0.34742 0.04183 0.52484 0.0
C1808 C 0.36298 0.03999 0.51641 0.0
C1809 C 0.36456 0.0261 0.50516 0.0
C1810 C 0.35062 0.01406 0.5021 0.0
C1811 C 0.33505 0.01592 0.51026 0.0
C1812 C 0.33341 0.02978 0.52156 0.0
C1813 C 0.31133 0.11169 0.51371 0.0
C1814 C 0.29791 0.11695 0.52384 0.0
C1815 C 0.3229 0.10115 0.5202 0.0
C1816 C 0.32128 0.09553 0.53694 0.0
C1817 C 0.30822 0.10121 0.54733 0.0
C1818 C 0.29668 0.11195 0.54086 0.0
C1819 C 0.33282 0.08305 0.54294 0.0
C1820 C 0.33404 0.06813 0.53292 0.0
C1821 C 0.34303 0.08595 0.55784 0.0
C1822 C 0.34276 0.10169 0.56868 0.0
C1823 C 0.33887 0.10065 0.58611 0.0
C1824 C 0.33857 0.11547 0.59637 0.0
C1825 C 0.34223 0.1314 0.58934 0.0
C1826 C 0.34627 0.13254 0.57205 0.0
C1827 C 0.34661 0.11776 0.56175 0.0
H1828 H 0.34199 0.14286 0.5973 0.0
H1829 H 0.35187 0.00332 0.49338 0.0
H1830 H 0.60978 0.55151 0.57396 0.0
H1831 H 0.62116 0.52446 0.56668 0.0
H1832 H 0.64919 0.52733 0.61422 0.0
H1833 H 0.63765 0.55442 0.62173 0.0
H1834 H 0.6689 0.51831 0.58753 0.0
H1835 H 0.61414 0.49981 0.60954 0.0
H1836 H 0.58282 0.49899 0.61273 0.0
H1837 H 0.576 0.48271 0.56015 0.0
H1838 H 0.60729 0.48367 0.55657 0.0
H1839 H 0.69292 0.43435 0.57059 0.0
H1840 H 0.67899 0.45706 0.58568 0.0
H1841 H 0.65019 0.46506 0.54022 0.0
H1842 H 0.66411 0.44257 0.52506 0.0
H1843 H 0.63085 0.46689 0.57023 0.0
H1844 H 0.68539 0.48929 0.5476 0.0
H1845 H 0.7167 0.49057 0.54402 0.0
H1846 H 0.72377 0.49961 0.59798 0.0
H1847 H 0.69247 0.49815 0.6019 0.0
C1848 C 0.61817 0.54631 0.583 0.0
C1849 C 0.6227 0.5551 0.59849 0.0
C1850 C 0.6247 0.53084 0.5788 0.0
C1851 C 0.63583 0.52375 0.59002 0.0
C1852 C 0.64058 0.53256 0.6054 0.0
C1853 C 0.63403 0.54806 0.60964 0.0
C1854 C 0.64279 0.50736 0.58535 0.0
C1855 C 0.66059 0.50696 0.58412 0.0
C1856 C 0.63193 0.49261 0.58066 0.0
C1857 C 0.61308 0.49193 0.58276 0.0
C1858 C 0.60597 0.49617 0.59862 0.0
C1859 C 0.58822 0.49566 0.60051 0.0
C1860 C 0.57743 0.49083 0.58665 0.0
C1861 C 0.58437 0.48646 0.57088 0.0
C1862 C 0.60212 0.48696 0.56892 0.0
C1863 C 0.68336 0.44071 0.56394 0.0
C1864 C 0.67967 0.43677 0.54662 0.0
C1865 C 0.67549 0.45372 0.57254 0.0
C1866 C 0.66371 0.46282 0.56399 0.0
C1867 C 0.65926 0.45819 0.54703 0.0
C1868 C 0.66726 0.44537 0.53838 0.0
C1869 C 0.65689 0.47799 0.57216 0.0
C1870 C 0.63914 0.47816 0.57399 0.0
C1871 C 0.66778 0.49252 0.57741 0.0
C1872 C 0.68659 0.49339 0.57507 0.0
C1873 C 0.69362 0.49139 0.55872 0.0
C1874 C 0.71136 0.49218 0.55662 0.0
C1875 C 0.72222 0.49511 0.57077 0.0
C1876 C 0.71535 0.4973 0.58704 0.0
C1877 C 0.69761 0.4965 0.58921 0.0
H1878 H 0.73595 0.49573 0.56911 0.0
H1879 H 0.56369 0.49045 0.58813 0.0
H1880 H 0.72926 0.27534 0.3774 0.0
H1881 H 0.72291 0.28857 0.40497 0.0
H1882 H 0.69243 0.32323 0.37991 0.0
H1883 H 0.69958 0.31083 0.35227 0.0
H1884 H 0.71287 0.34009 0.40138 0.0
H1885 H 0.67452 0.28967 0.40466 0.0
H1886 H 0.66589 0.25884 0.40347 0.0
H1887 H 0.70075 0.25176 0.44434 0.0
H1888 H 0.70977 0.28253 0.44563 0.0
H1889 H 0.68583 0.37822 0.47756 0.0
H1890 H 0.68297 0.36017 0.45155 0.0
H1891 H 0.71863 0.32746 0.47178 0.0
H1892 H 0.72143 0.34526 0.4979 0.0
H1893 H 0.69295 0.30936 0.45276 0.0
H1894 H 0.7331 0.35907 0.4472 0.0
H1895 H 0.74187 0.38988 0.4485 0.0
H1896 H 0.70322 0.39796 0.41155 0.0
H1897 H 0.69406 0.3672 0.41022 0.0
C1898 C 0.72124 0.28581 0.37772 0.0
C1899 C 0.715 0.29202 0.36254 0.0
C1900 C 0.7174 0.2932 0.39355 0.0
C1901 C 0.707 0.30679 0.39457 0.0
C1902 C 0.70041 0.31272 0.37947 0.0
C1903 C 0.70439 0.30547 0.36365 0.0
C1904 C 0.70407 0.31569 0.41119 0.0
C1905 C 0.70816 0.33337 0.41249 0.0
C1906 C 0.69834 0.30691 0.42585 0.0
C1907 C 0.69292 0.2884 0.42514 0.0
C1908 C 0.68044 0.28153 0.41331 0.0
C1909 C 0.67546 0.26406 0.41263 0.0
C1910 C 0.6828 0.25335 0.4238 0.0
C1911 C 0.6951 0.26008 0.43569 0.0
C1912 C 0.70013 0.27753 0.43641 0.0
C1913 C 0.69279 0.36698 0.47665 0.0
C1914 C 0.70407 0.36334 0.48972 0.0
C1915 C 0.69116 0.35671 0.46176 0.0
C1916 C 0.70083 0.34266 0.45963 0.0
C1917 C 0.7111 0.33827 0.47314 0.0
C1918 C 0.71274 0.34852 0.48805 0.0
C1919 C 0.70167 0.33365 0.44279 0.0
C1920 C 0.69736 0.31601 0.44151 0.0
C1921 C 0.70718 0.34242 0.42809 0.0
C1922 C 0.71278 0.36088 0.42875 0.0
C1923 C 0.72639 0.36744 0.43945 0.0
C1924 C 0.73144 0.38489 0.44017 0.0
C1925 C 0.72308 0.39588 0.43015 0.0
C1926 C 0.70967 0.38944 0.41933 0.0
C1927 C 0.70455 0.372 0.41858 0.0
H1928 H 0.727 0.40939 0.43072 0.0
H1929 H 0.67892 0.23983 0.42325 0.0
H1930 H 0.48917 0.0204 0.91597 0.0
H1931 H 0.50738 0.01751 0.89091 0.0
H1932 H 0.50646 0.07101 0.88214 0.0
H1933 H 0.48845 0.07408 0.9075 0.0
H1934 H 0.50192 0.04329 0.85123 0.0
H1935 H 0.53837 0.06659 0.89851 0.0
H1936 H 0.54846 0.06689 0.92833 0.0
H1937 H 0.56265 0.01589 0.92096 0.0
H1938 H 0.55236 0.0152 0.89116 0.0
H1939 H 0.57206 0.04955 0.79376 0.0
H1940 H 0.55112 0.05488 0.81589 0.0
H1941 H 0.56576 0.01173 0.84295 0.0
H1942 H 0.58723 0.00686 0.82129 0.0
H1943 H 0.56265 0.03597 0.86454 0.0
H1944 H 0.52745 0.01136 0.81842 0.0
H1945 H 0.51604 0.00842 0.78904 0.0
H1946 H 0.49818 0.05818 0.79398 0.0
H1947 H 0.50969 0.06151 0.82333 0.0
C1948 C 0.49258 0.03147 0.90851 0.0
C1949 C 0.48746 0.04746 0.91361 0.0
C1950 C 0.50298 0.02981 0.89426 0.0
C1951 C 0.50819 0.04405 0.88477 0.0
C1952 C 0.50245 0.0599 0.88933 0.0
C1953 C 0.49229 0.06164 0.90379 0.0
C1954 C 0.52081 0.04253 0.87104 0.0
C1955 C 0.51528 0.04196 0.85402 0.0
C1956 C 0.53803 0.0403 0.87486 0.0
C1957 C 0.54443 0.04078 0.89268 0.0
C1958 C 0.54349 0.05539 0.9033 0.0
C1959 C 0.54927 0.05564 0.92019 0.0
C1960 C 0.55615 0.0414 0.92655 0.0
C1961 C 0.5573 0.0269 0.91602 0.0
C1962 C 0.5515 0.02658 0.89913 0.0
C1963 C 0.57079 0.0412 0.80443 0.0
C1964 C 0.58127 0.02779 0.80581 0.0
C1965 C 0.55874 0.04419 0.81702 0.0
C1966 C 0.55665 0.03355 0.83098 0.0
C1967 C 0.56713 0.02014 0.83233 0.0
C1968 C 0.57939 0.01735 0.81993 0.0
C1969 C 0.54389 0.03657 0.84445 0.0
C1970 C 0.54936 0.03741 0.86154 0.0
C1971 C 0.52655 0.03873 0.84064 0.0
C1972 C 0.5196 0.03676 0.82301 0.0
C1973 C 0.52121 0.02173 0.8132 0.0
C1974 C 0.5147 0.01998 0.79656 0.0
C1975 C 0.50644 0.03312 0.78963 0.0
C1976 C 0.50461 0.04802 0.79935 0.0
C1977 C 0.51111 0.04984 0.81599 0.0
H1978 H 0.50141 0.03175 0.77675 0.0
H1979 H 0.56062 0.04162 0.93963 0.0
H1980 H 0.31639 0.2776 0.37697 0.0
H1981 H 0.30957 0.25544 0.39739 0.0
H1982 H 0.25569 0.25843 0.38857 0.0
H1983 H 0.26233 0.28015 0.36753 0.0
H1984 H 0.26588 0.26099 0.42351 0.0
H1985 H 0.27214 0.22508 0.37351 0.0
H1986 H 0.28692 0.21471 0.34802 0.0
H1987 H 0.32866 0.2022 0.3793 0.0
H1988 H 0.31423 0.21273 0.40497 0.0
H1989 H 0.23469 0.191 0.47181 0.0
H1990 H 0.24091 0.21144 0.44957 0.0
H1991 H 0.29406 0.20136 0.45043 0.0
H1992 H 0.28778 0.18038 0.47226 0.0
H1993 H 0.28405 0.20243 0.41903 0.0
H1994 H 0.27941 0.23864 0.46867 0.0
H1995 H 0.26607 0.24979 0.49468 0.0
H1996 H 0.22335 0.26285 0.46511 0.0
H1997 H 0.23633 0.25158 0.43894 0.0
C1998 C 0.30308 0.27329 0.379 0.0
C1999 C 0.28991 0.28072 0.37055 0.0
C2000 C 0.29922 0.26069 0.39078 0.0
C2001 C 0.28214 0.25533 0.39445 0.0
C2002 C 0.26896 0.26248 0.38593 0.0
C2003 C 0.27279 0.27495 0.37398 0.0
C2004 C 0.27809 0.24281 0.40777 0.0
C2005 C 0.26959 0.24809 0.42246 0.0
C2006 C 0.28349 0.22622 0.40656 0.0
C2007 C 0.29218 0.21985 0.39114 0.0
C2008 C 0.28454 0.22026 0.37494 0.0
C2009 C 0.29284 0.21432 0.36046 0.0
C2010 C 0.30874 0.20784 0.36203 0.0
C2011 C 0.31635 0.20724 0.3781 0.0
C2012 C 0.30811 0.21318 0.39262 0.0
C2013 C 0.24773 0.19322 0.46736 0.0
C2014 C 0.26076 0.18411 0.47384 0.0
C2015 C 0.25129 0.20496 0.45467 0.0
C2016 C 0.26801 0.20814 0.44847 0.0
C2017 C 0.28106 0.19913 0.455 0.0
C2018 C 0.27747 0.18719 0.46753 0.0
C2019 C 0.2718 0.22057 0.43491 0.0
C2020 C 0.28028 0.21531 0.42015 0.0
C2021 C 0.2666 0.23729 0.43616 0.0
C2022 C 0.25877 0.24411 0.45187 0.0
C2023 C 0.26711 0.24377 0.46774 0.0
C2024 C 0.25962 0.25013 0.4825 0.0
C2025 C 0.24385 0.25698 0.48156 0.0
C2026 C 0.23555 0.25752 0.46583 0.0
C2027 C 0.24298 0.25116 0.45102 0.0
H2028 H 0.23807 0.2619 0.49301 0.0
H2029 H 0.31514 0.20324 0.35081 0.0
H2030 H 0.52392 0.47504 0.86721 0.0
H2031 H 0.5015 0.48886 0.85319 0.0
H2032 H 0.46573 0.47217 0.89215 0.0
H2033 H 0.48792 0.45738 0.90578 0.0
H2034 H 0.45078 0.46824 0.8623 0.0
H2035 H 0.48363 0.51401 0.89126 0.0
H2036 H 0.50961 0.53197 0.9004 0.0
H2037 H 0.51979 0.54484 0.84845 0.0
H2038 H 0.494 0.52676 0.83896 0.0
H2039 H 0.39063 0.5237 0.83153 0.0
H2040 H 0.41108 0.51238 0.85089 0.0
H2041 H 0.44964 0.51619 0.81179 0.0
H2042 H 0.42931 0.52726 0.79234 0.0
H2043 H 0.4614 0.52813 0.84507 0.0
H2044 H 0.42949 0.47948 0.81669 0.0
H2045 H 0.40305 0.46183 0.80834 0.0
H2046 H 0.39043 0.45531 0.86109 0.0
H2047 H 0.4167 0.47315 0.86974 0.0
C2048 C 0.51123 0.47404 0.8727 0.0
C2049 C 0.50775 0.46503 0.88764 0.0
C2050 C 0.49847 0.48221 0.86479 0.0
C2051 C 0.482 0.48186 0.8718 0.0
C2052 C 0.47838 0.47273 0.88659 0.0
C2053 C 0.49113 0.4644 0.89444 0.0
C2054 C 0.46854 0.49075 0.86339 0.0
C2055 C 0.45299 0.48144 0.85886 0.0
C2056 C 0.47143 0.50795 0.85874 0.0
C2057 C 0.48693 0.51892 0.86438 0.0
C2058 C 0.49147 0.52058 0.88177 0.0
C2059 C 0.50616 0.53079 0.88701 0.0
C2060 C 0.51636 0.53951 0.87501 0.0
C2061 C 0.51188 0.53807 0.85773 0.0
C2062 C 0.49722 0.52785 0.85241 0.0
C2063 C 0.40352 0.52227 0.82713 0.0
C2064 C 0.40834 0.52628 0.81039 0.0
C2065 C 0.41514 0.51577 0.83818 0.0
C2066 C 0.43181 0.5134 0.8327 0.0
C2067 C 0.43683 0.51795 0.81623 0.0
C2068 C 0.42517 0.5242 0.80512 0.0
C2069 C 0.44392 0.50551 0.84379 0.0
C2070 C 0.45916 0.51502 0.8488 0.0
C2071 C 0.44068 0.48858 0.84905 0.0
C2072 C 0.42494 0.47782 0.84386 0.0
C2073 C 0.42099 0.47442 0.8265 0.0
C2074 C 0.40606 0.46435 0.82172 0.0
C2075 C 0.39504 0.4575 0.83418 0.0
C2076 C 0.39896 0.46066 0.85145 0.0
C2077 C 0.41387 0.47074 0.8563 0.0
H2078 H 0.38348 0.44971 0.83045 0.0
H2079 H 0.52773 0.54742 0.8791 0.0
H2080 H 0.72957 0.75938 0.17932 0.0
H2081 H 0.73608 0.73706 0.15844 0.0
H2082 H 0.69806 0.75307 0.12421 0.0
H2083 H 0.69181 0.77559 0.14465 0.0
H2084 H 0.69556 0.71814 0.12776 0.0
H2085 H 0.73939 0.76421 0.11764 0.0
H2086 H 0.76367 0.78485 0.12611 0.0
H2087 H 0.79293 0.74397 0.13993 0.0
H2088 H 0.76871 0.72309 0.13175 0.0
H2089 H 0.71076 0.68973 0.0448 0.0
H2090 H 0.70726 0.70567 0.07144 0.0
H2091 H 0.75073 0.68408 0.09295 0.0
H2092 H 0.75458 0.6682 0.06594 0.0
H2093 H 0.75226 0.71763 0.09996 0.0
H2094 H 0.71018 0.67127 0.10613 0.0
H2095 H 0.68608 0.65042 0.0977 0.0
H2096 H 0.65364 0.69087 0.09206 0.0
H2097 H 0.67761 0.71199 0.10022 0.0
C2098 C 0.72271 0.75825 0.16728 0.0
C2099 C 0.71009 0.76926 0.16372 0.0
C2100 C 0.72639 0.74544 0.15541 0.0
C2101 C 0.71753 0.74342 0.1398 0.0
C2102 C 0.70494 0.75432 0.13626 0.0
C2103 C 0.70133 0.76715 0.14802 0.0
C2104 C 0.7213 0.73008 0.12694 0.0
C2105 C 0.70794 0.71803 0.12163 0.0
C2106 C 0.73763 0.72957 0.11943 0.0
C2107 C 0.75217 0.74211 0.1243 0.0
C2108 C 0.75095 0.75964 0.12263 0.0
C2109 C 0.76471 0.77137 0.12735 0.0
C2110 C 0.77981 0.76573 0.13361 0.0
C2111 C 0.7812 0.74832 0.13512 0.0
C2112 C 0.76747 0.73654 0.13044 0.0
C2113 C 0.71954 0.68823 0.05519 0.0
C2114 C 0.73292 0.67764 0.05325 0.0
C2115 C 0.71745 0.6973 0.07049 0.0
C2116 C 0.72855 0.69586 0.08432 0.0
C2117 C 0.74196 0.6853 0.08248 0.0
C2118 C 0.74411 0.67621 0.06707 0.0
C2119 C 0.72634 0.70602 0.10034 0.0
C2120 C 0.73998 0.71745 0.10629 0.0
C2121 C 0.71027 0.7059 0.10854 0.0
C2122 C 0.69575 0.69323 0.10371 0.0
C2123 C 0.69794 0.67574 0.10299 0.0
C2124 C 0.6843 0.66386 0.09827 0.0
C2125 C 0.66835 0.66932 0.09432 0.0
C2126 C 0.666 0.68666 0.09512 0.0
C2127 C 0.67961 0.69859 0.09982 0.0
H2128 H 0.6578 0.66011 0.09067 0.0
H2129 H 0.79045 0.77483 0.13725 0.0
H2130 H 0.04251 0.10472 0.17802 0.0
H2131 H 0.01644 0.09756 0.19416 0.0
H2132 H 0.98589 0.10904 0.15099 0.0
H2133 H 0.01192 0.11701 0.13502 0.0
H2134 H 0.9714 0.11907 0.18007 0.0
H2135 H 0.99407 0.06836 0.15784 0.0
H2136 H 0.01623 0.0485 0.15295 0.0
H2137 H 0.02036 0.04222 0.20691 0.0
H2138 H 0.99838 0.06225 0.21213 0.0
H2139 H 0.91151 0.04053 0.21098 0.0
H2140 H 0.93393 0.05398 0.19319 0.0
H2141 H 0.93839 0.09804 0.22764 0.0
H2142 H 0.91547 0.08481 0.2452 0.0
H2143 H 0.96538 0.06063 0.20187 0.0
H2144 H 0.95642 0.13273 0.20707 0.0
H2145 H 0.93302 0.15156 0.20928 0.0
H2146 H 0.8986 0.11291 0.18455 0.0
H2147 H 0.92183 0.09394 0.182 0.0
C2148 C 0.03027 0.10611 0.17207 0.0
C2149 C 0.02933 0.11126 0.15514 0.0
C2150 C 0.01537 0.10186 0.18127 0.0
C2151 C 0.99922 0.10247 0.17367 0.0
C2152 C 0.99821 0.10839 0.15708 0.0
C2153 C 0.01311 0.11274 0.1479 0.0
C2154 C 0.98346 0.09582 0.18254 0.0
C2155 C 0.97006 0.10631 0.18489 0.0
C2156 C 0.98157 0.07905 0.18848 0.0
C2157 C 0.99471 0.06692 0.18538 0.0
C2158 C 0.99979 0.06283 0.16866 0.0
C2159 C 0.01231 0.05154 0.16583 0.0
C2160 C 0.01973 0.04414 0.17961 0.0
C2161 C 0.01462 0.04798 0.19625 0.0
C2162 C 0.00212 0.0593 0.19916 0.0
C2163 C 0.91701 0.05323 0.21457 0.0
C2164 C 0.9118 0.0616 0.22951 0.0
C2165 C 0.92987 0.06089 0.20443 0.0
C2166 C 0.93793 0.077 0.20908 0.0
C2167 C 0.93223 0.0857 0.22363 0.0
C2168 C 0.91915 0.07812 0.23369 0.0
C2169 C 0.95321 0.08387 0.19953 0.0
C2170 C 0.96663 0.07342 0.1971 0.0
C2171 C 0.95488 0.1005 0.19318 0.0
C2172 C 0.94084 0.11186 0.19452 0.0
C2173 C 0.94387 0.12828 0.20206 0.0
C2174 C 0.93063 0.13897 0.20337 0.0
C2175 C 0.91432 0.13341 0.19711 0.0
C2176 C 0.91122 0.11717 0.18946 0.0
C2177 C 0.92442 0.10643 0.1881 0.0
H2178 H 0.90409 0.14171 0.19815 0.0
H2179 H 0.02942 0.03539 0.1774 0.0
H2180 H 0.25888 0.78504 0.19031 0.0
H2181 H 0.24824 0.80817 0.17448 0.0
H2182 H 0.29575 0.81388 0.1468 0.0
H2183 H 0.30643 0.79094 0.16254 0.0
H2184 H 0.28468 0.84431 0.15418 0.0
H2185 H 0.26012 0.7896 0.13073 0.0
H2186 H 0.24335 0.76173 0.13227 0.0
H2187 H 0.19907 0.78648 0.14776 0.0
H2188 H 0.21567 0.8145 0.14652 0.0
H2189 H 0.26965 0.86932 0.0715 0.0
H2190 H 0.27551 0.85516 0.09765 0.0
H2191 H 0.22453 0.86192 0.11551 0.0
H2192 H 0.21851 0.87626 0.08913 0.0
H2193 H 0.23318 0.82894 0.11811 0.0
H2194 H 0.25722 0.88424 0.1352 0.0
H2195 H 0.27448 0.91167 0.13246 0.0
H2196 H 0.32016 0.88576 0.12804 0.0
H2197 H 0.30316 0.85814 0.13049 0.0
C2198 C 0.26709 0.79134 0.18095 0.0
C2199 C 0.28347 0.7861 0.17762 0.0
C2200 C 0.26101 0.80456 0.17194 0.0
C2201 C 0.27112 0.81261 0.1593 0.0
C2202 C 0.28774 0.80791 0.15653 0.0
C2203 C 0.29385 0.79479 0.16558 0.0
C2204 C 0.26417 0.82507 0.14802 0.0
C2205 C 0.27342 0.84097 0.1463 0.0
C2206 C 0.24916 0.82092 0.1381 0.0
C2207 C 0.23918 0.80411 0.13874 0.0
C2208 C 0.24684 0.78908 0.13458 0.0
C2209 C 0.23737 0.77327 0.13538 0.0
C2210 C 0.22017 0.77233 0.14016 0.0
C2211 C 0.2124 0.78722 0.1441 0.0
C2212 C 0.22183 0.80307 0.14335 0.0
C2213 C 0.25969 0.86795 0.08102 0.0
C2214 C 0.24359 0.87387 0.07823 0.0
C2215 C 0.26311 0.85994 0.09603 0.0
C2216 C 0.25052 0.85766 0.10861 0.0
C2217 C 0.23445 0.86367 0.10599 0.0
C2218 C 0.23104 0.87186 0.09095 0.0
C2219 C 0.25405 0.84793 0.12386 0.0
C2220 C 0.24417 0.83251 0.12632 0.0
C2221 C 0.26855 0.85248 0.13436 0.0
C2222 C 0.27888 0.86909 0.13296 0.0
C2223 C 0.27093 0.88437 0.13353 0.0
C2224 C 0.28067 0.89996 0.13204 0.0
C2225 C 0.2984 0.90046 0.13006 0.0
C2226 C 0.30643 0.88536 0.12958 0.0
C2227 C 0.29675 0.86973 0.13105 0.0
H2228 H 0.30592 0.91254 0.12891 0.0
H2229 H 0.21285 0.76008 0.14077 0.0
H2230 H 0.99934 0.44452 0.11292 0.0
H2231 H 0.01974 0.44934 0.1368 0.0
H2232 H 0.99903 0.49685 0.14982 0.0
H2233 H 0.97865 0.49212 0.12613 0.0
H2234 H 0.03545 0.49867 0.14438 0.0
H2235 H 0.99044 0.46613 0.17475 0.0
H2236 H 0.9705 0.4408 0.17953 0.0
H2237 H 0.01282 0.41018 0.18306 0.0
H2238 H 0.03301 0.43531 0.17805 0.0
H2239 H 0.06746 0.5304 0.2224 0.0
H2240 H 0.04941 0.5185 0.19894 0.0
H2241 H 0.07277 0.4712 0.20105 0.0
H2242 H 0.09085 0.48302 0.22502 0.0
H2243 H 0.03828 0.46572 0.19687 0.0
H2244 H 0.08355 0.49769 0.16939 0.0
H2245 H 0.10427 0.52228 0.16408 0.0
H2246 H 0.06306 0.55275 0.15371 0.0
H2247 H 0.04206 0.52842 0.15921 0.0
C2248 C 0.99904 0.45587 0.12104 0.0
C2249 C 0.98745 0.46796 0.1177 0.0
C2250 C 0.01061 0.45856 0.13466 0.0
C2251 C 0.01085 0.47345 0.14499 0.0
C2252 C 0.99899 0.48528 0.14197 0.0
C2253 C 0.9873 0.48251 0.12852 0.0
C2254 C 0.0242 0.47744 0.1582 0.0
C2255 C 0.03602 0.49156 0.15593 0.0
C2256 C 0.02535 0.46764 0.17282 0.0
C2257 C 0.01321 0.45255 0.1758 0.0
C2258 C 0.99548 0.45396 0.17636 0.0
C2259 C 0.98414 0.43965 0.17916 0.0
C2260 C 0.99038 0.42388 0.18154 0.0
C2261 C 0.00799 0.4224 0.18118 0.0
C2262 C 0.01939 0.43667 0.17837 0.0
C2263 C 0.06885 0.51747 0.2179 0.0
C2264 C 0.0807 0.50769 0.22549 0.0
C2265 C 0.05853 0.5107 0.20443 0.0
C2266 C 0.05996 0.49407 0.19804 0.0
C2267 C 0.07155 0.4841 0.20574 0.0
C2268 C 0.08189 0.49088 0.21937 0.0
C2269 C 0.04917 0.48738 0.18335 0.0
C2270 C 0.0379 0.47272 0.18524 0.0
C2271 C 0.04864 0.49654 0.16819 0.0
C2272 C 0.06122 0.51124 0.16481 0.0
C2273 C 0.07889 0.50967 0.16609 0.0
C2274 C 0.09069 0.52356 0.16303 0.0
C2275 C 0.08498 0.53907 0.15858 0.0
C2276 C 0.06746 0.54072 0.15716 0.0
C2277 C 0.0556 0.52688 0.16022 0.0
H2278 H 0.09414 0.54981 0.15622 0.0
H2279 H 0.98158 0.41281 0.18371 0.0
H2280 H 0.34116 0.71892 0.27844 0.0
H2281 H 0.36106 0.71814 0.30242 0.0
H2282 H 0.40373 0.7264 0.26813 0.0
H2283 H 0.38385 0.72667 0.24408 0.0
H2284 H 0.41034 0.70348 0.28965 0.0
H2285 H 0.38917 0.75882 0.29465 0.0
H2286 H 0.36714 0.77916 0.29716 0.0
H2287 H 0.34937 0.75691 0.34378 0.0
H2288 H 0.37117 0.73629 0.34143 0.0
H2289 H 0.47577 0.74249 0.3442 0.0
H2290 H 0.45352 0.73458 0.32285 0.0
H2291 H 0.41842 0.71835 0.36253 0.0
H2292 H 0.44077 0.7261 0.38407 0.0
H2293 H 0.40614 0.74207 0.34048 0.0
H2294 H 0.4309 0.68903 0.33653 0.0
H2295 H 0.45425 0.67025 0.33366 0.0
H2296 H 0.46679 0.68999 0.2845 0.0
H2297 H 0.44367 0.70908 0.28717 0.0
C2298 C 0.3548 0.72065 0.27608 0.0
C2299 C 0.361 0.72296 0.25945 0.0
C2300 C 0.36615 0.7202 0.28977 0.0
C2301 C 0.38391 0.72243 0.28713 0.0
C2302 C 0.3901 0.72461 0.27049 0.0
C2303 C 0.37875 0.72481 0.25677 0.0
C2304 C 0.39611 0.7227 0.30167 0.0
C2305 C 0.40948 0.71202 0.3007 0.0
C2306 C 0.39476 0.73351 0.31632 0.0
C2307 C 0.38166 0.74589 0.31775 0.0
C2308 C 0.38047 0.75818 0.30536 0.0
C2309 C 0.36805 0.76977 0.30677 0.0
C2310 C 0.35683 0.76929 0.32059 0.0
C2311 C 0.35805 0.75725 0.33306 0.0
C2312 C 0.37044 0.74561 0.3317 0.0
C2313 C 0.46341 0.73697 0.34838 0.0
C2314 C 0.45999 0.73498 0.36581 0.0
C2315 C 0.45074 0.73239 0.33616 0.0
C2316 C 0.43436 0.72585 0.34113 0.0
C2317 C 0.43102 0.72334 0.35847 0.0
C2318 C 0.44381 0.7277 0.37073 0.0
C2319 C 0.42048 0.72311 0.32827 0.0
C2320 C 0.40681 0.73335 0.32954 0.0
C2321 C 0.42171 0.7121 0.3138 0.0
C2322 C 0.43561 0.70058 0.31211 0.0
C2323 C 0.43872 0.68947 0.32516 0.0
C2324 C 0.4519 0.67874 0.32356 0.0
C2325 C 0.46202 0.67895 0.30892 0.0
C2326 C 0.45895 0.68985 0.29584 0.0
C2327 C 0.44578 0.70061 0.29738 0.0
H2328 H 0.47222 0.67063 0.30771 0.0
H2329 H 0.34722 0.77828 0.32166 0.0
H2330 H 0.9172 0.39819 0.00286 0.0
H2331 H 0.92212 0.37189 0.98686 0.0
H2332 H 0.96462 0.36483 0.02011 0.0
H2333 H 0.95956 0.39084 0.03624 0.0
H2334 H 0.94839 0.36656 0.96866 0.0
H2335 H 0.9725 0.32391 0.02138 0.0
H2336 H 0.96582 0.3171 0.05121 0.0
H2337 H 0.91483 0.3316 0.04469 0.0
H2338 H 0.92111 0.33828 0.01476 0.0
H2339 H 0.00335 0.31079 0.93249 0.0
H2340 H 0.99078 0.33129 0.95158 0.0
H2341 H 0.95096 0.29281 0.96493 0.0
H2342 H 0.96374 0.27207 0.9462 0.0
H2343 H 0.96071 0.31146 0.99226 0.0
H2344 H 0.94333 0.32274 0.93595 0.0
H2345 H 0.94697 0.32831 0.90538 0.0
H2346 H 0.97847 0.3744 0.91798 0.0
H2347 H 0.97521 0.36898 0.94863 0.0
C2348 C 0.92739 0.39084 0.0069 0.0
C2349 C 0.93799 0.39655 0.02079 0.0
C2350 C 0.93019 0.37583 0.99777 0.0
C2351 C 0.94369 0.36631 0.00232 0.0
C2352 C 0.9539 0.37171 0.01655 0.0
C2353 C 0.951 0.38661 0.02577 0.0
C2354 C 0.94823 0.35176 0.99124 0.0
C2355 C 0.95094 0.35448 0.97383 0.0
C2356 C 0.95127 0.33585 0.99787 0.0
C2357 C 0.94734 0.33172 0.01584 0.0
C2358 C 0.95983 0.32557 0.02628 0.0
C2359 C 0.95612 0.32175 0.04321 0.0
C2360 C 0.93993 0.32396 0.04985 0.0
C2361 C 0.92739 0.32995 0.03955 0.0
C2362 C 0.93103 0.33378 0.02261 0.0
C2363 C 0.99199 0.30664 0.93957 0.0
C2364 C 0.98447 0.28983 0.93771 0.0
C2365 C 0.98476 0.31839 0.95042 0.0
C2366 C 0.96972 0.31367 0.95941 0.0
C2367 C 0.96252 0.29675 0.95806 0.0
C2368 C 0.96984 0.28492 0.94732 0.0
C2369 C 0.96134 0.32653 0.96988 0.0
C2370 C 0.95796 0.3235 0.98712 0.0
C2371 C 0.95721 0.342 0.96302 0.0
C2372 C 0.95912 0.34538 0.94459 0.0
C2373 C 0.95112 0.33401 0.9322 0.0
C2374 C 0.95311 0.33715 0.91486 0.0
C2375 C 0.96297 0.35169 0.90974 0.0
C2376 C 0.97084 0.36314 0.92196 0.0
C2377 C 0.96891 0.36005 0.93932 0.0
H2378 H 0.9645 0.35409 0.89631 0.0
H2379 H 0.93709 0.321 0.06297 0.0
H2380 H 0.64217 0.78203 0.26152 0.0
H2381 H 0.6222 0.77483 0.28463 0.0
H2382 H 0.64464 0.81797 0.31483 0.0
H2383 H 0.66416 0.82555 0.29143 0.0
H2384 H 0.62217 0.76682 0.31666 0.0
H2385 H 0.61385 0.83681 0.33604 0.0
H2386 H 0.61739 0.86522 0.32368 0.0
H2387 H 0.609 0.84256 0.27344 0.0
H2388 H 0.60517 0.81406 0.28552 0.0
H2389 H 0.56057 0.7657 0.38438 0.0
H2390 H 0.58689 0.77134 0.36785 0.0
H2391 H 0.5582 0.79432 0.32921 0.0
H2392 H 0.53228 0.78939 0.34585 0.0
H2393 H 0.58605 0.81276 0.33423 0.0
H2394 H 0.57121 0.7524 0.32536 0.0
H2395 H 0.5649 0.72283 0.33419 0.0
H2396 H 0.61462 0.72421 0.35748 0.0
H2397 H 0.62114 0.75388 0.34896 0.0
C2398 C 0.643 0.78978 0.27322 0.0
C2399 C 0.65451 0.80445 0.27466 0.0
C2400 C 0.63163 0.78565 0.28643 0.0
C2401 C 0.63169 0.79603 0.30136 0.0
C2402 C 0.64408 0.80998 0.30329 0.0
C2403 C 0.65524 0.81429 0.28996 0.0
C2404 C 0.61782 0.79316 0.31408 0.0
C2405 C 0.61435 0.77689 0.32061 0.0
C2406 C 0.60741 0.80621 0.31905 0.0
C2407 C 0.60944 0.82331 0.31167 0.0
C2408 C 0.61271 0.83791 0.32236 0.0
C2409 C 0.61477 0.85402 0.31541 0.0
C2410 C 0.61349 0.85569 0.29778 0.0
C2411 C 0.61005 0.84125 0.28708 0.0
C2412 C 0.60794 0.82512 0.29397 0.0
C2413 C 0.55996 0.77201 0.37238 0.0
C2414 C 0.54437 0.77714 0.36643 0.0
C2415 C 0.57497 0.77516 0.36291 0.0
C2416 C 0.57454 0.78315 0.34719 0.0
C2417 C 0.55895 0.78825 0.34133 0.0
C2418 C 0.54408 0.78537 0.35087 0.0
C2419 C 0.59013 0.78631 0.33661 0.0
C2420 C 0.59401 0.80271 0.33052 0.0
C2421 C 0.60047 0.77321 0.33158 0.0
C2422 C 0.59657 0.7554 0.33671 0.0
C2423 C 0.58074 0.74643 0.33248 0.0
C2424 C 0.57714 0.72965 0.33741 0.0
C2425 C 0.58933 0.72166 0.34644 0.0
C2426 C 0.60517 0.73043 0.35052 0.0
C2427 C 0.60883 0.74722 0.34564 0.0
H2428 H 0.58652 0.70867 0.35024 0.0
H2429 H 0.61511 0.86817 0.29242 0.0
H2430 H 0.05041 0.14308 0.04675 0.0
H2431 H 0.04236 0.15446 0.01962 0.0
H2432 H 0.09523 0.17122 0.01014 0.0
H2433 H 0.10339 0.15994 0.03747 0.0
H2434 H 0.07327 0.19615 0.00488 0.0
H2435 H 0.07749 0.13843 0.98717 0.0
H2436 H 0.07259 0.10725 0.98871 0.0
H2437 H 0.01844 0.1101 0.98356 0.0
H2438 H 0.02298 0.14134 0.98226 0.0
H2439 H 0.04552 0.22492 0.92549 0.0
H2440 H 0.06166 0.20895 0.94519 0.0
H2441 H 0.01448 0.18315 0.96276 0.0
H2442 H 0.99835 0.1987 0.94292 0.0
H2443 H 0.0387 0.16173 0.96086 0.0
H2444 H 0.03401 0.21898 0.98391 0.0
H2445 H 0.03808 0.25031 0.98355 0.0
H2446 H 0.09244 0.24827 0.97954 0.0
H2447 H 0.08866 0.21689 0.97967 0.0
C2448 C 0.06033 0.1492 0.0389 0.0
C2449 C 0.07752 0.15068 0.04424 0.0
C2450 C 0.05573 0.15555 0.02333 0.0
C2451 C 0.06823 0.16352 0.0128 0.0
C2452 C 0.08543 0.16502 0.01806 0.0
C2453 C 0.09006 0.15852 0.0336 0.0
C2454 C 0.06302 0.17095 0.99671 0.0
C2455 C 0.06607 0.18858 0.99503 0.0
C2456 C 0.05339 0.16108 0.98404 0.0
C2457 C 0.05058 0.14226 0.98472 0.0
C2458 C 0.06452 0.13243 0.98649 0.0
C2459 C 0.06181 0.11474 0.9873 0.0
C2460 C 0.04521 0.1067 0.98626 0.0
C2461 C 0.03129 0.11634 0.98437 0.0
C2462 C 0.03393 0.13405 0.98357 0.0
C2463 C 0.03861 0.21564 0.93335 0.0
C2464 C 0.02064 0.21319 0.93276 0.0
C2465 C 0.04786 0.20658 0.94465 0.0
C2466 C 0.03926 0.19506 0.95565 0.0
C2467 C 0.02139 0.19198 0.95442 0.0
C2468 C 0.01218 0.20095 0.9431 0.0
C2469 C 0.04853 0.187 0.96927 0.0
C2470 C 0.04624 0.16925 0.9705 0.0
C2471 C 0.05876 0.19677 0.98161 0.0
C2472 C 0.06104 0.21561 0.98158 0.0
C2473 C 0.04682 0.22522 0.98283 0.0
C2474 C 0.04908 0.24298 0.98268 0.0
C2475 C 0.06551 0.25127 0.98146 0.0
C2476 C 0.07972 0.24182 0.98044 0.0
C2477 C 0.07753 0.22406 0.98055 0.0
H2478 H 0.06723 0.26502 0.98136 0.0
H2479 H 0.04314 0.093 0.98689 0.0
H2480 H 0.3814 0.32267 0.29305 0.0
H2481 H 0.40282 0.31525 0.27217 0.0
H2482 H 0.36726 0.32166 0.2313 0.0
H2483 H 0.34554 0.32841 0.2523 0.0
H2484 H 0.38327 0.29527 0.22412 0.0
H2485 H 0.40133 0.35234 0.24256 0.0
H2486 H 0.40923 0.37609 0.26316 0.0
H2487 H 0.45111 0.3501 0.28131 0.0
H2488 H 0.44331 0.32607 0.26097 0.0
H2489 H 0.44657 0.30364 0.15891 0.0
H2490 H 0.42491 0.3104 0.17983 0.0
H2491 H 0.45504 0.29158 0.21986 0.0
H2492 H 0.47673 0.28452 0.19897 0.0
H2493 H 0.442 0.32444 0.22697 0.0
H2494 H 0.42284 0.26724 0.20712 0.0
H2495 H 0.41468 0.24489 0.1851 0.0
H2496 H 0.37439 0.2735 0.16774 0.0
H2497 H 0.38248 0.29615 0.18951 0.0
C2498 C 0.3782 0.32251 0.27959 0.0
C2499 C 0.36191 0.32623 0.27423 0.0
C2500 C 0.39046 0.31835 0.26767 0.0
C2501 C 0.38681 0.31826 0.25012 0.0
C2502 C 0.3704 0.3217 0.24476 0.0
C2503 C 0.35802 0.32557 0.25672 0.0
C2504 C 0.40009 0.3145 0.2374 0.0
C2505 C 0.39603 0.30184 0.22463 0.0
C2506 C 0.41685 0.32288 0.23815 0.0
C2507 C 0.42163 0.33734 0.25035 0.0
C2508 C 0.41215 0.35164 0.25103 0.0
C2509 C 0.41662 0.36515 0.26264 0.0
C2510 C 0.43064 0.36458 0.27356 0.0
C2511 C 0.44024 0.35051 0.27286 0.0
C2512 C 0.43581 0.33695 0.26128 0.0
C2513 C 0.44864 0.30098 0.17217 0.0
C2514 C 0.46336 0.29352 0.17729 0.0
C2515 C 0.43622 0.3048 0.18407 0.0
C2516 C 0.43838 0.30139 0.20132 0.0
C2517 C 0.45318 0.29426 0.20657 0.0
C2518 C 0.46551 0.2902 0.19462 0.0
C2519 C 0.42512 0.30526 0.21387 0.0
C2520 C 0.42921 0.31793 0.22654 0.0
C2521 C 0.40832 0.29713 0.21285 0.0
C2522 C 0.40338 0.28347 0.19983 0.0
C2523 C 0.41234 0.26884 0.19851 0.0
C2524 C 0.40771 0.2561 0.1861 0.0
C2525 C 0.39406 0.2578 0.175 0.0
C2526 C 0.38498 0.27221 0.17633 0.0
C2527 C 0.38957 0.285 0.18871 0.0
H2528 H 0.39049 0.24792 0.1654 0.0
H2529 H 0.43408 0.37506 0.28255 0.0
H2530 H 0.57753 0.38688 0.9866 0.0
H2531 H 0.5727 0.3721 0.01332 0.0
H2532 H 0.5271 0.39788 0.02201 0.0
H2533 H 0.53226 0.4131 0.99561 0.0
H2534 H 0.54328 0.39651 0.05077 0.0
H2535 H 0.5263 0.3558 0.00532 0.0
H2536 H 0.53015 0.3388 0.97884 0.0
H2537 H 0.57127 0.31546 0.00218 0.0
H2538 H 0.56779 0.3325 0.02874 0.0
H2539 H 0.4917 0.33733 0.09903 0.0
H2540 H 0.50516 0.35624 0.07798 0.0
H2541 H 0.55257 0.33326 0.08371 0.0
H2542 H 0.53922 0.31441 0.10511 0.0
H2543 H 0.53968 0.33343 0.04954 0.0
H2544 H 0.55274 0.37216 0.09685 0.0
H2545 H 0.54673 0.38864 0.12309 0.0
H2546 H 0.51035 0.41512 0.09591 0.0
H2547 H 0.51594 0.39862 0.06954 0.0
C2548 C 0.56649 0.38936 0.99425 0.0
C2549 C 0.55519 0.40101 0.98903 0.0
C2550 C 0.56373 0.38091 0.00949 0.0
C2551 C 0.54938 0.38366 0.01956 0.0
C2552 C 0.53827 0.39556 0.01449 0.0
C2553 C 0.54119 0.40421 0.9994 0.0
C2554 C 0.5456 0.37384 0.03513 0.0
C2555 C 0.54239 0.38271 0.05046 0.0
C2556 C 0.54484 0.35583 0.03487 0.0
C2557 C 0.54692 0.34556 0.01893 0.0
C2558 C 0.53625 0.34713 0.00476 0.0
C2559 C 0.53835 0.33748 0.98975 0.0
C2560 C 0.55098 0.3261 0.98881 0.0
C2561 C 0.56151 0.32431 0.00291 0.0
C2562 C 0.55948 0.33395 0.01795 0.0
C2563 C 0.50508 0.33651 0.09605 0.0
C2564 C 0.51441 0.32438 0.10365 0.0
C2565 C 0.51276 0.34736 0.08408 0.0
C2566 C 0.52985 0.34615 0.07935 0.0
C2567 C 0.53938 0.3344 0.08727 0.0
C2568 C 0.53176 0.32371 0.09951 0.0
C2569 C 0.53707 0.3561 0.06501 0.0
C2570 C 0.54088 0.34724 0.04989 0.0
C2571 C 0.53808 0.37407 0.06541 0.0
C2572 C 0.53468 0.38405 0.08124 0.0
C2573 C 0.54335 0.38139 0.09649 0.0
C2574 C 0.54004 0.39076 0.11139 0.0
C2575 C 0.52814 0.4029 0.11118 0.0
C2576 C 0.51956 0.40571 0.09605 0.0
C2577 C 0.52281 0.39637 0.08112 0.0
H2578 H 0.5256 0.41014 0.12272 0.0
H2579 H 0.55259 0.31863 0.97718 0.0
H2580 H 0.67865 0.29607 0.24311 0.0
H2581 H 0.65295 0.29738 0.22594 0.0
H2582 H 0.64479 0.24258 0.22428 0.0
H2583 H 0.67115 0.2411 0.24059 0.0
H2584 H 0.63782 0.25378 0.19441 0.0
H2585 H 0.62216 0.26808 0.25169 0.0
H2586 H 0.62434 0.28368 0.27951 0.0
H2587 H 0.61736 0.33035 0.255 0.0
H2588 H 0.61537 0.31505 0.22698 0.0
H2589 H 0.54795 0.24508 0.17805 0.0
H2590 H 0.57623 0.24559 0.1913 0.0
H2591 H 0.58647 0.29854 0.1799 0.0
H2592 H 0.55819 0.29806 0.16626 0.0
H2593 H 0.59276 0.28954 0.21517 0.0
H2594 H 0.6066 0.27328 0.15758 0.0
H2595 H 0.60307 0.25613 0.13072 0.0
H2596 H 0.61186 0.21112 0.15736 0.0
H2597 H 0.61519 0.22797 0.18445 0.0
C2598 C 0.67162 0.28425 0.23885 0.0
C2599 C 0.67704 0.26846 0.24329 0.0
C2600 C 0.65674 0.28504 0.22921 0.0
C2601 C 0.64674 0.27009 0.22406 0.0
C2602 C 0.65225 0.2543 0.22818 0.0
C2603 C 0.66724 0.25348 0.23767 0.0
C2604 C 0.63046 0.27094 0.21451 0.0
C2605 C 0.62792 0.26147 0.19907 0.0
C2606 C 0.6176 0.2812 0.22039 0.0
C2607 C 0.6188 0.29044 0.23721 0.0
C2608 C 0.62123 0.28169 0.25221 0.0
C2609 C 0.62241 0.29047 0.26802 0.0
C2610 C 0.62104 0.308 0.26902 0.0
C2611 C 0.61845 0.31677 0.2542 0.0
C2612 C 0.61728 0.30805 0.23836 0.0
C2613 C 0.55624 0.25682 0.17827 0.0
C2614 C 0.55086 0.27155 0.17114 0.0
C2615 C 0.5724 0.25707 0.18579 0.0
C2616 C 0.58341 0.27208 0.18651 0.0
C2617 C 0.57812 0.28683 0.17942 0.0
C2618 C 0.56203 0.28652 0.1716 0.0
C2619 C 0.6002 0.27237 0.19521 0.0
C2620 C 0.60278 0.28199 0.2105 0.0
C2621 C 0.61294 0.26204 0.18935 0.0
C2622 C 0.61099 0.25187 0.17308 0.0
C2623 C 0.60763 0.2597 0.15775 0.0
C2624 C 0.60569 0.25004 0.14247 0.0
C2625 C 0.6072 0.23253 0.14234 0.0
C2626 C 0.61068 0.22467 0.15749 0.0
C2627 C 0.61261 0.23428 0.1728 0.0
H2628 H 0.6057 0.22507 0.1305 0.0
H2629 H 0.62195 0.31478 0.28127 0.0
H2630 H 0.48449 0.11016 0.03903 0.0
H2631 H 0.48793 0.13664 0.05616 0.0
H2632 H 0.44789 0.15651 0.02723 0.0
H2633 H 0.44396 0.12977 0.01026 0.0
H2634 H 0.47746 0.1799 0.03314 0.0
H2635 H 0.4378 0.14322 0.06442 0.0
H2636 H 0.42745 0.11653 0.07794 0.0
H2637 H 0.47105 0.12146 0.11153 0.0
H2638 H 0.4818 0.14807 0.09804 0.0
H2639 H 0.46991 0.24982 0.09187 0.0
H2640 H 0.46371 0.22476 0.07293 0.0
H2641 H 0.49705 0.19689 0.10297 0.0
H2642 H 0.50299 0.22171 0.12219 0.0
H2643 H 0.46856 0.17791 0.09569 0.0
H2644 H 0.50927 0.21329 0.0639 0.0
H2645 H 0.52069 0.23951 0.05015 0.0
H2646 H 0.47647 0.2368 0.01748 0.0
H2647 H 0.46467 0.21067 0.0312 0.0
C2648 C 0.47627 0.12006 0.03639 0.0
C2649 C 0.46379 0.11774 0.0234 0.0
C2650 C 0.47834 0.13523 0.04612 0.0
C2651 C 0.46804 0.14842 0.04305 0.0
C2652 C 0.45595 0.14644 0.02977 0.0
C2653 C 0.45377 0.13118 0.02007 0.0
C2654 C 0.46975 0.16408 0.05405 0.0
C2655 C 0.47525 0.17958 0.04678 0.0
C2656 C 0.46718 0.16349 0.07186 0.0
C2657 C 0.46068 0.14757 0.08012 0.0
C2658 C 0.44525 0.13855 0.0746 0.0
C2659 C 0.4393 0.12345 0.08227 0.0
C2660 C 0.44861 0.11729 0.09556 0.0
C2661 C 0.46386 0.12624 0.10123 0.0
C2662 C 0.46988 0.14135 0.09359 0.0
C2663 C 0.47593 0.23836 0.09445 0.0
C2664 C 0.48697 0.23777 0.10854 0.0
C2665 C 0.47243 0.22407 0.08356 0.0
C2666 C 0.48008 0.20901 0.08641 0.0
C2667 C 0.491 0.20837 0.10052 0.0
C2668 C 0.4944 0.22259 0.11149 0.0
C2669 C 0.47659 0.1938 0.07487 0.0
C2670 C 0.47069 0.17834 0.08204 0.0
C2671 C 0.47892 0.19444 0.05699 0.0
C2672 C 0.486 0.21013 0.04871 0.0
C2673 C 0.50191 0.21836 0.05388 0.0
C2674 C 0.50847 0.23319 0.04607 0.0
C2675 C 0.49929 0.23984 0.03298 0.0
C2676 C 0.48355 0.23165 0.02764 0.0
C2677 C 0.47693 0.21682 0.03542 0.0
H2678 H 0.50438 0.25132 0.02695 0.0
H2679 H 0.44398 0.10559 0.10148 0.0
H2680 H 0.25978 0.38179 0.7039 0.0
H2681 H 0.2803 0.40654 0.7098 0.0
H2682 H 0.24585 0.42594 0.74698 0.0
H2683 H 0.22524 0.40134 0.74099 0.0
H2684 H 0.25891 0.45082 0.72797 0.0
H2685 H 0.28135 0.40614 0.75878 0.0
H2686 H 0.29164 0.37788 0.76239 0.0
H2687 H 0.33172 0.38934 0.72628 0.0
H2688 H 0.32152 0.4176 0.72228 0.0
H2689 H 0.3171 0.50891 0.77528 0.0
H2690 H 0.29659 0.48533 0.76576 0.0
H2691 H 0.33156 0.47108 0.72656 0.0
H2692 H 0.35222 0.49462 0.73601 0.0
H2693 H 0.31875 0.44388 0.74501 0.0
H2694 H 0.29681 0.48954 0.71566 0.0
H2695 H 0.28655 0.51795 0.71303 0.0
H2696 H 0.24548 0.50474 0.74755 0.0
H2697 H 0.25564 0.47633 0.75057 0.0
C2698 C 0.25664 0.39129 0.7134 0.0
C2699 C 0.24092 0.38961 0.722 0.0
C2700 C 0.26837 0.40543 0.71676 0.0
C2701 C 0.2647 0.41802 0.72897 0.0
C2702 C 0.24894 0.41642 0.73747 0.0
C2703 C 0.23717 0.40237 0.73402 0.0
C2704 C 0.27726 0.43285 0.73297 0.0
C2705 C 0.27195 0.44929 0.73187 0.0
C2706 C 0.29438 0.43088 0.73769 0.0
C2707 C 0.30055 0.41391 0.7401 0.0
C2708 C 0.29227 0.40258 0.75151 0.0
C2709 C 0.2981 0.38657 0.75364 0.0
C2710 C 0.31229 0.3818 0.74453 0.0
C2711 C 0.32071 0.39305 0.7333 0.0
C2712 C 0.31492 0.40906 0.73111 0.0
C2713 C 0.3204 0.50085 0.76455 0.0
C2714 C 0.33632 0.50365 0.75641 0.0
C2715 C 0.30863 0.48741 0.75909 0.0
C2716 C 0.31253 0.47652 0.74539 0.0
C2717 C 0.32832 0.47935 0.73715 0.0
C2718 C 0.34007 0.49285 0.74253 0.0
C2719 C 0.30036 0.4618 0.74012 0.0
C2720 C 0.30575 0.44539 0.741 0.0
C2721 C 0.28329 0.4638 0.73532 0.0
C2722 C 0.27708 0.48085 0.73346 0.0
C2723 C 0.28567 0.49274 0.72279 0.0
C2724 C 0.27986 0.50883 0.72121 0.0
C2725 C 0.26539 0.51316 0.73015 0.0
C2726 C 0.25669 0.50138 0.74065 0.0
C2727 C 0.26246 0.48527 0.74228 0.0
H2728 H 0.26091 0.52563 0.72891 0.0
H2729 H 0.31679 0.3694 0.7462 0.0
H2730 H 0.26959 0.70263 0.8158 0.0
H2731 H 0.28519 0.67726 0.81549 0.0
H2732 H 0.29804 0.68448 0.76264 0.0
H2733 H 0.28168 0.70936 0.76258 0.0
H2734 H 0.28959 0.65219 0.76732 0.0
H2735 H 0.32731 0.69535 0.79549 0.0
H2736 H 0.3359 0.71827 0.81679 0.0
H2737 H 0.32601 0.6835 0.85721 0.0
H2738 H 0.31714 0.66041 0.83615 0.0
H2739 H 0.35511 0.5953 0.76464 0.0
H2740 H 0.34113 0.62182 0.76458 0.0
H2741 H 0.32131 0.61213 0.81488 0.0
H2742 H 0.33515 0.5856 0.81502 0.0
H2743 H 0.33428 0.64604 0.81098 0.0
H2744 H 0.29583 0.60316 0.78209 0.0
H2745 H 0.28791 0.58048 0.76034 0.0
H2746 H 0.30028 0.61544 0.72057 0.0
H2747 H 0.30852 0.63828 0.74211 0.0
C2748 C 0.27551 0.69871 0.80402 0.0
C2749 C 0.27441 0.70813 0.78922 0.0
C2750 C 0.28464 0.6843 0.80393 0.0
C2751 C 0.29308 0.67912 0.78913 0.0
C2752 C 0.29174 0.68829 0.77425 0.0
C2753 C 0.2825 0.70262 0.77429 0.0
C2754 C 0.30321 0.66409 0.78912 0.0
C2755 C 0.29954 0.651 0.77672 0.0
C2756 C 0.31603 0.66235 0.80154 0.0
C2757 C 0.32141 0.67619 0.81424 0.0
C2758 C 0.32685 0.69262 0.80893 0.0
C2759 C 0.33179 0.70564 0.82095 0.0
C2760 C 0.33146 0.70235 0.83834 0.0
C2761 C 0.32624 0.68603 0.84373 0.0
C2762 C 0.32127 0.67297 0.83176 0.0
C2763 C 0.34791 0.5989 0.77575 0.0
C2764 C 0.34616 0.58832 0.78981 0.0
C2765 C 0.33989 0.61401 0.77567 0.0
C2766 C 0.33006 0.61884 0.78967 0.0
C2767 C 0.32881 0.60862 0.80395 0.0
C2768 C 0.33669 0.59344 0.80398 0.0
C2769 C 0.32059 0.63424 0.78923 0.0
C2770 C 0.32438 0.64735 0.80155 0.0
C2771 C 0.30799 0.63607 0.77666 0.0
C2772 C 0.30297 0.62238 0.76371 0.0
C2773 C 0.297 0.60597 0.76871 0.0
C2774 C 0.29243 0.59309 0.75642 0.0
C2775 C 0.29364 0.5965 0.73908 0.0
C2776 C 0.29938 0.61281 0.734 0.0
C2777 C 0.30399 0.62573 0.74624 0.0
H2778 H 0.29009 0.58652 0.72959 0.0
H2779 H 0.33529 0.71245 0.84764 0.0
H2780 H 0.89296 0.49861 0.51309 0.0
H2781 H 0.86498 0.48278 0.51537 0.0
H2782 H 0.84387 0.51585 0.47988 0.0
H2783 H 0.87209 0.53158 0.47708 0.0
H2784 H 0.82297 0.50835 0.50962 0.0
H2785 H 0.85114 0.47963 0.46458 0.0
H2786 H 0.87507 0.4663 0.45086 0.0
H2787 H 0.87339 0.42906 0.48954 0.0
H2788 H 0.8496 0.44234 0.50365 0.0
H2789 H 0.74709 0.45028 0.5014 0.0
H2790 H 0.77227 0.46952 0.49481 0.0
H2791 H 0.80409 0.43903 0.5237 0.0
H2792 H 0.77917 0.41967 0.53014 0.0
H2793 H 0.81818 0.44674 0.4935 0.0
H2794 H 0.79199 0.47664 0.53988 0.0
H2795 H 0.76821 0.48976 0.55414 0.0
H2796 H 0.76622 0.5246 0.51352 0.0
H2797 H 0.78984 0.51149 0.49889 0.0
C2798 C 0.88245 0.50245 0.50561 0.0
C2799 C 0.88485 0.51622 0.4947 0.0
C2800 C 0.86644 0.49347 0.50703 0.0
C2801 C 0.85245 0.49807 0.49767 0.0
C2802 C 0.85455 0.51214 0.4872 0.0
C2803 C 0.87067 0.52111 0.48566 0.0
C2804 C 0.83584 0.48769 0.49854 0.0
C2805 C 0.82177 0.49495 0.5058 0.0
C2806 C 0.83444 0.47018 0.49376 0.0
C2807 C 0.84866 0.46206 0.48524 0.0
C2808 C 0.85595 0.46868 0.47023 0.0
C2809 C 0.86948 0.46112 0.46238 0.0
C2810 C 0.87577 0.44686 0.46934 0.0
C2811 C 0.86851 0.44011 0.48417 0.0
C2812 C 0.85499 0.44764 0.49209 0.0
C2813 C 0.75946 0.44768 0.50637 0.0
C2814 C 0.76112 0.43342 0.51631 0.0
C2815 C 0.7738 0.45872 0.50263 0.0
C2816 C 0.79001 0.45574 0.50885 0.0
C2817 C 0.79169 0.44153 0.51874 0.0
C2818 C 0.77741 0.43049 0.52246 0.0
C2819 C 0.80537 0.46725 0.50501 0.0
C2820 C 0.81925 0.46018 0.49712 0.0
C2821 C 0.80656 0.4849 0.50928 0.0
C2822 C 0.79255 0.49296 0.51819 0.0
C2823 C 0.7864 0.48702 0.53393 0.0
C2824 C 0.77296 0.49446 0.54209 0.0
C2825 C 0.76567 0.50797 0.53471 0.0
C2826 C 0.77185 0.51411 0.5192 0.0
C2827 C 0.78527 0.50668 0.51097 0.0
H2828 H 0.75525 0.5137 0.54104 0.0
H2829 H 0.88624 0.44103 0.46324 0.0
H2830 H 0.74263 0.86641 0.77882 0.0
H2831 H 0.71688 0.8797 0.77037 0.0
H2832 H 0.71732 0.90705 0.819 0.0
H2833 H 0.74279 0.89379 0.82749 0.0
H2834 H 0.68478 0.89391 0.80909 0.0
H2835 H 0.73478 0.9257 0.78453 0.0
H2836 H 0.76023 0.92833 0.76608 0.0
H2837 H 0.72917 0.91148 0.72251 0.0
H2838 H 0.70355 0.90855 0.74078 0.0
H2839 H 0.65395 0.97319 0.80824 0.0
H2840 H 0.66941 0.9479 0.80899 0.0
H2841 H 0.6564 0.93588 0.7562 0.0
H2842 H 0.64082 0.96149 0.75531 0.0
H2843 H 0.69033 0.93471 0.76232 0.0
H2844 H 0.63925 0.9101 0.78615 0.0
H2845 H 0.61379 0.90799 0.80456 0.0
H2846 H 0.64599 0.91088 0.8491 0.0
H2847 H 0.67166 0.91326 0.83098 0.0
C2848 C 0.73707 0.87511 0.78773 0.0
C2849 C 0.74479 0.87924 0.80373 0.0
C2850 C 0.72243 0.88271 0.78289 0.0
C2851 C 0.71526 0.89441 0.79404 0.0
C2852 C 0.72263 0.89804 0.81021 0.0
C2853 C 0.73727 0.89059 0.81499 0.0
C2854 C 0.70071 0.9038 0.78879 0.0
C2855 C 0.68591 0.9028 0.79884 0.0
C2856 C 0.70195 0.91488 0.77497 0.0
C2857 C 0.71732 0.91669 0.76403 0.0
C2858 C 0.73341 0.92242 0.77104 0.0
C2859 C 0.74786 0.92399 0.76062 0.0
C2860 C 0.74633 0.92001 0.74314 0.0
C2861 C 0.73034 0.91451 0.73605 0.0
C2862 C 0.71586 0.9129 0.74643 0.0
C2863 C 0.65417 0.9651 0.79681 0.0
C2864 C 0.64621 0.96937 0.7817 0.0
C2865 C 0.66292 0.95054 0.7973 0.0
C2866 C 0.66388 0.93987 0.78271 0.0
C2867 C 0.6557 0.9439 0.76763 0.0
C2868 C 0.6468 0.95849 0.76716 0.0
C2869 C 0.6747 0.92543 0.78317 0.0
C2870 C 0.68883 0.92544 0.77223 0.0
C2871 C 0.67281 0.9134 0.79614 0.0
C2872 C 0.65741 0.91191 0.80717 0.0
C2873 C 0.64092 0.91039 0.79987 0.0
C2874 C 0.62644 0.90913 0.81026 0.0
C2875 C 0.62827 0.90931 0.82799 0.0
C2876 C 0.64459 0.91073 0.83536 0.0
C2877 C 0.65911 0.912 0.82503 0.0
H2878 H 0.61705 0.90834 0.83601 0.0
H2879 H 0.75753 0.92124 0.73509 0.0
H2880 H 0.59829 0.51139 0.95697 0.0
H2881 H 0.61791 0.53554 0.96699 0.0
H2882 H 0.6597 0.51347 0.94144 0.0
H2883 H 0.64015 0.48929 0.93137 0.0
H2884 H 0.66844 0.52433 0.97333 0.0
H2885 H 0.64139 0.54711 0.92509 0.0
H2886 H 0.61696 0.55441 0.90783 0.0
H2887 H 0.60089 0.58636 0.94909 0.0
H2888 H 0.6251 0.57906 0.96669 0.0
H2889 H 0.73095 0.59375 0.9738 0.0
H2890 H 0.70936 0.57093 0.9652 0.0
H2891 H 0.67088 0.5964 0.99262 0.0
H2892 H 0.69245 0.61958 0.00114 0.0
H2893 H 0.65936 0.58419 0.9615 0.0
H2894 H 0.68712 0.56237 0.00932 0.0
H2895 H 0.71161 0.55517 0.02653 0.0
H2896 H 0.7263 0.52137 0.98618 0.0
H2897 H 0.70203 0.52856 0.96862 0.0
C2898 C 0.61162 0.51178 0.95333 0.0
C2899 C 0.61767 0.49846 0.94335 0.0
C2900 C 0.62281 0.52557 0.95908 0.0
C2901 C 0.64023 0.52636 0.95484 0.0
C2902 C 0.64631 0.51308 0.9449 0.0
C2903 C 0.63514 0.49927 0.93918 0.0
C2904 C 0.65223 0.54086 0.96101 0.0
C2905 C 0.66656 0.5374 0.97057 0.0
C2906 C 0.64948 0.55795 0.95786 0.0
C2907 C 0.63495 0.5624 0.94727 0.0
C2908 C 0.63256 0.55559 0.93053 0.0
C2909 C 0.61877 0.55974 0.92068 0.0
C2910 C 0.60735 0.5708 0.92737 0.0
C2911 C 0.60973 0.57777 0.94393 0.0
C2912 C 0.62349 0.57364 0.95384 0.0
C2913 C 0.71791 0.59456 0.97804 0.0
C2914 C 0.71345 0.60847 0.98826 0.0
C2915 C 0.70559 0.58144 0.97315 0.0
C2916 C 0.68858 0.58185 0.97849 0.0
C2917 C 0.68397 0.59583 0.98843 0.0
C2918 C 0.69631 0.60903 0.99331 0.0
C2919 C 0.67569 0.56761 0.9736 0.0
C2920 C 0.66118 0.57112 0.96433 0.0
C2921 C 0.67826 0.55055 0.97702 0.0
C2922 C 0.69282 0.54611 0.9876 0.0
C2923 C 0.69564 0.55349 0.00406 0.0
C2924 C 0.70948 0.5494 0.01389 0.0
C2925 C 0.72053 0.53785 0.00744 0.0
C2926 C 0.71774 0.53033 0.99116 0.0
C2927 C 0.70393 0.53439 0.98127 0.0
H2928 H 0.73123 0.5347 0.01507 0.0
H2929 H 0.59668 0.57401 0.91972 0.0
H2930 H 0.26589 0.6641 0.24746 0.0
H2931 H 0.24458 0.64161 0.25638 0.0
H2932 H 0.2184 0.64305 0.2081 0.0
H2933 H 0.23958 0.66568 0.19916 0.0
H2934 H 0.19643 0.64234 0.23606 0.0
H2935 H 0.24293 0.61209 0.21428 0.0
H2936 H 0.27296 0.60536 0.21243 0.0
H2937 H 0.27215 0.59245 0.26515 0.0
H2938 H 0.24216 0.59934 0.26738 0.0
H2939 H 0.14284 0.56592 0.23766 0.0
H2940 H 0.16425 0.58875 0.23024 0.0
H2941 H 0.19238 0.58138 0.27633 0.0
H2942 H 0.1712 0.55815 0.28364 0.0
H2943 H 0.21361 0.5856 0.25056 0.0
H2944 H 0.16749 0.61508 0.27281 0.0
H2945 H 0.13765 0.62223 0.27555 0.0
H2946 H 0.13784 0.63727 0.22348 0.0
H2947 H 0.16763 0.62998 0.22034 0.0
C2948 C 0.25551 0.6597 0.23881 0.0
C2949 C 0.25439 0.6666 0.2226 0.0
C2950 C 0.24343 0.6468 0.24387 0.0
C2951 C 0.23002 0.6406 0.23283 0.0
C2952 C 0.2287 0.64765 0.21677 0.0
C2953 C 0.24085 0.66047 0.21164 0.0
C2954 C 0.21739 0.62671 0.23801 0.0
C2955 C 0.20012 0.62986 0.23904 0.0
C2956 C 0.22235 0.61063 0.24238 0.0
C2957 C 0.24036 0.6064 0.24104 0.0
C2958 C 0.2492 0.60795 0.22551 0.0
C2959 C 0.26621 0.60409 0.22439 0.0
C2960 C 0.27448 0.59853 0.23868 0.0
C2961 C 0.26574 0.59678 0.25411 0.0
C2962 C 0.24873 0.60066 0.2553 0.0
C2963 C 0.15356 0.56915 0.24625 0.0
C2964 C 0.15526 0.56027 0.2613 0.0
C2965 C 0.16576 0.58227 0.24202 0.0
C2966 C 0.17977 0.58698 0.25288 0.0
C2967 C 0.18164 0.578 0.2678 0.0
C2968 C 0.16951 0.56475 0.27197 0.0
C2969 C 0.19254 0.60116 0.24852 0.0
C2970 C 0.20987 0.59808 0.24765 0.0
C2971 C 0.18764 0.61738 0.24445 0.0
C2972 C 0.16974 0.62184 0.2463 0.0
C2973 C 0.16113 0.61979 0.2619 0.0
C2974 C 0.14423 0.62389 0.26353 0.0
C2975 C 0.13584 0.63016 0.24968 0.0
C2976 C 0.14435 0.63239 0.23419 0.0
C2977 C 0.16125 0.6283 0.23248 0.0
H2978 H 0.12276 0.63332 0.25097 0.0
H2979 H 0.28765 0.59554 0.23778 0.0
H2980 H 0.88824 0.52361 0.07888 0.0
H2981 H 0.86885 0.54573 0.07404 0.0
H2982 H 0.86328 0.52872 0.0213 0.0
H2983 H 0.88261 0.50674 0.02599 0.0
H2984 H 0.87263 0.56384 0.02623 0.0
H2985 H 0.83139 0.52015 0.04739 0.0
H2986 H 0.81976 0.49996 0.06863 0.0
H2987 H 0.81678 0.54113 0.10545 0.0
H2988 H 0.82862 0.56155 0.08449 0.0
H2989 H 0.80434 0.60038 0.99045 0.0
H2990 H 0.82431 0.58186 0.00187 0.0
H2991 H 0.81648 0.60248 0.05264 0.0
H2992 H 0.79592 0.62094 0.04125 0.0
H2993 H 0.81588 0.56865 0.05282 0.0
H2994 H 0.85408 0.61279 0.03151 0.0
H2995 H 0.86603 0.63353 0.01095 0.0
H2996 H 0.87587 0.59277 0.97568 0.0
H2997 H 0.86375 0.57178 0.99592 0.0
C2998 C 0.88273 0.52451 0.06631 0.0
C2999 C 0.8869 0.51343 0.05281 0.0
C3000 C 0.87163 0.53709 0.06359 0.0
C3001 C 0.86468 0.53884 0.04731 0.0
C3002 C 0.86853 0.52756 0.03395 0.0
C3003 C 0.87946 0.51492 0.03669 0.0
C3004 C 0.85409 0.55292 0.04381 0.0
C3005 C 0.86017 0.56485 0.03194 0.0
C3006 C 0.8382 0.55462 0.05186 0.0
C3007 C 0.8311 0.54234 0.06445 0.0
C3008 C 0.82842 0.52488 0.06007 0.0
C3009 C 0.82175 0.5134 0.07204 0.0
C3010 C 0.81759 0.51925 0.0884 0.0
C3011 C 0.82004 0.53661 0.09279 0.0
C3012 C 0.82672 0.54814 0.08087 0.0
C3013 C 0.80693 0.60114 0.00404 0.0
C3014 C 0.79859 0.61221 0.01494 0.0
C3015 C 0.81844 0.59056 0.01055 0.0
C3016 C 0.82213 0.59096 0.02808 0.0
C3017 C 0.81389 0.60203 0.03905 0.0
C3018 C 0.80221 0.61261 0.03252 0.0
C3019 C 0.83417 0.57928 0.03475 0.0
C3020 C 0.82845 0.56784 0.04727 0.0
C3021 C 0.85053 0.57813 0.02744 0.0
C3022 C 0.85791 0.59071 0.01522 0.0
C3023 C 0.85868 0.60825 0.01933 0.0
C3024 C 0.86551 0.62005 0.00773 0.0
C3025 C 0.87168 0.61447 0.99201 0.0
C3026 C 0.87108 0.59707 0.98786 0.0
C3027 C 0.86426 0.58521 0.99941 0.0
H3028 H 0.87695 0.62363 0.98305 0.0
H3029 H 0.81242 0.51035 0.09765 0.0
H3030 H 0.11387 0.05071 0.0727 0.0
H3031 H 0.1244 0.02304 0.06666 0.0
H3032 H 0.14048 0.0208 0.11906 0.0
H3033 H 0.12945 0.04838 0.12544 0.0
H3034 H 0.16548 0.0126 0.09544 0.0
H3035 H 0.10689 0.99587 0.10676 0.0
H3036 H 0.07566 0.99687 0.10447 0.0
H3037 H 0.07764 0.98424 0.05086 0.0
H3038 H 0.10893 0.98341 0.05277 0.0
H3039 H 0.19055 0.93035 0.07339 0.0
H3040 H 0.17517 0.95157 0.08911 0.0
H3041 H 0.15019 0.96345 0.04253 0.0
H3042 H 0.16524 0.94223 0.02686 0.0
H3043 H 0.12857 0.96436 0.06895 0.0
H3044 H 0.18679 0.9864 0.05653 0.0
H3045 H 0.21823 0.98651 0.05767 0.0
H3046 H 0.21696 0.99001 0.11241 0.0
H3047 H 0.18547 0.98969 0.11158 0.0
C3048 C 0.11935 0.04425 0.08306 0.0
C3049 C 0.12067 0.05177 0.09961 0.0
C3050 C 0.12543 0.02844 0.07955 0.0
C3051 C 0.13303 0.01979 0.09246 0.0
C3052 C 0.13461 0.02727 0.10894 0.0
C3053 C 0.12839 0.04308 0.11252 0.0
C3054 C 0.13973 0.00317 0.0884 0.0
C3055 C 0.15737 0.00188 0.09004 0.0
C3056 C 0.12915 0.98932 0.08111 0.0
C3057 C 0.11029 0.98968 0.0799 0.0
C3058 C 0.10069 0.99342 0.09446 0.0
C3059 C 0.08297 0.99394 0.09323 0.0
C3060 C 0.07467 0.99064 0.07752 0.0
C3061 C 0.08408 0.98679 0.06302 0.0
C3062 C 0.10181 0.98627 0.06417 0.0
C3063 C 0.1815 0.93723 0.06658 0.0
C3064 C 0.17924 0.93474 0.04885 0.0
C3065 C 0.17279 0.94941 0.07557 0.0
C3066 C 0.16175 0.95929 0.06693 0.0
C3067 C 0.15867 0.95602 0.04945 0.0
C3068 C 0.16735 0.9439 0.04049 0.0
C3069 C 0.15438 0.97396 0.07557 0.0
C3070 C 0.13663 0.97491 0.07476 0.0
C3071 C 0.16487 0.98756 0.0835 0.0
C3072 C 0.18378 0.98779 0.084 0.0
C3073 C 0.19321 0.98705 0.06881 0.0
C3074 C 0.21104 0.98717 0.0694 0.0
C3075 C 0.21958 0.9882 0.0851 0.0
C3076 C 0.21032 0.98917 0.10025 0.0
C3077 C 0.19249 0.98902 0.09973 0.0
H3078 H 0.23338 0.9883 0.08553 0.0
H3079 H 0.06095 0.99105 0.0766 0.0
loop_
_geom_bond_atom_site_label_1
_geom_bond_atom_site_label_2
_geom_bond_distance
_geom_bond_site_symmetry_2
_ccdc_geom_bond_type
P0 O11 1.490 . S
P0 C14 1.812 . S
P0 C20 1.803 . S
P0 C26 1.819 . S
H1 C15 0.941 . S
H2 C16 0.939 . S
H3 C18 0.940 . S
H4 C19 0.940 . S
H5 C21 0.939 . S
H6 C22 0.942 . S
H7 C24 0.940 . S
H8 C25 0.939 . S
H9 C27 0.941 . S
H10 C31 0.939 . S
O11 P0 1.490 . S
H12 C28 0.939 . S
H13 C30 0.940 . S
C14 P0 1.812 . S
C14 C15 1.389 . S
C14 C19 1.391 . S
C15 H1 0.941 . S
C15 C14 1.389 . S
C15 C16 1.397 . S
C16 H2 0.939 . S
C16 C15 1.397 . S
C16 C17 1.378 . S
C17 C16 1.378 . S
C17 C18 1.378 . S
C18 H3 0.940 . S
C18 C17 1.378 . S
C18 C19 1.396 . S
C19 H4 0.940 . S
C19 C14 1.391 . S
C19 C18 1.396 . S
C20 P0 1.803 . S
C20 C21 1.378 . S
C20 C25 1.400 . S
C21 H5 0.939 . S
C21 C20 1.378 . S
C21 C22 1.361 . S
C22 H6 0.942 . S
C22 C21 1.361 . S
C22 C23 1.369 . S
C23 C22 1.369 . S
C23 C24 1.404 . S
C24 H7 0.940 . S
C24 C23 1.404 . S
C24 C25 1.389 . S
C25 H8 0.939 . S
C25 C20 1.400 . S
C25 C24 1.389 . S
C26 P0 1.819 . S
C26 C27 1.391 . S
C26 C31 1.391 . S
C27 H9 0.941 . S
C27 C26 1.391 . S
C27 C28 1.396 . S
C28 H12 0.939 . S
C28 C27 1.396 . S
C28 C29 1.397 . S
C29 C28 1.397 . S
C29 C30 1.385 . S
C30 H13 0.940 . S
C30 C29 1.385 . S
C30 C31 1.388 . S
C31 H10 0.939 . S
C31 C26 1.391 . S
C31 C30 1.388 . S
P32 O43 1.490 . S
P32 C46 1.812 . S
P32 C52 1.803 . S
P32 C58 1.819 . S
H33 C47 0.941 . S
H34 C48 0.939 . S
H35 C50 0.940 . S
H36 C51 0.940 . S
H37 C53 0.939 . S
H38 C54 0.942 . S
H39 C56 0.940 . S
H40 C57 0.939 . S
H41 C59 0.941 . S
H42 C63 0.939 . S
O43 P32 1.490 . S
H44 C60 0.939 . S
H45 C62 0.940 . S
C46 P32 1.812 . S
C46 C47 1.389 . S
C46 C51 1.391 . S
C47 H33 0.941 . S
C47 C46 1.389 . S
C47 C48 1.397 . S
C48 H34 0.939 . S
C48 C47 1.397 . S
C48 C49 1.378 . S
C49 C48 1.378 . S
C49 C50 1.378 . S
C50 H35 0.940 . S
C50 C49 1.378 . S
C50 C51 1.396 . S
C51 H36 0.940 . S
C51 C46 1.391 . S
C51 C50 1.396 . S
C52 P32 1.803 . S
C52 C53 1.378 . S
C52 C57 1.400 . S
C53 H37 0.939 . S
C53 C52 1.378 . S
C53 C54 1.361 . S
C54 H38 0.942 . S
C54 C53 1.361 . S
C54 C55 1.369 . S
C55 C54 1.369 . S
C55 C56 1.404 . S
C56 H39 0.940 . S
C56 C55 1.404 . S
C56 C57 1.389 . S
C57 H40 0.939 . S
C57 C52 1.400 . S
C57 C56 1.389 . S
C58 P32 1.819 . S
C58 C59 1.391 . S
C58 C63 1.391 . S
C59 H41 0.941 . S
C59 C58 1.391 . S
C59 C60 1.396 . S
C60 H44 0.939 . S
C60 C59 1.396 . S
C60 C61 1.397 . S
C61 C60 1.397 . S
C61 C62 1.385 . S
C62 H45 0.940 . S
C62 C61 1.385 . S
C62 C63 1.388 . S
C63 H42 0.939 . S
C63 C58 1.391 . S
C63 C62 1.388 . S
P64 O75 1.490 . S
P64 C78 1.812 . S
P64 C84 1.803 . S
P64 C90 1.819 . S
H65 C79 0.941 . S
H66 C80 0.939 . S
H67 C82 0.940 . S
H68 C83 0.940 . S
H69 C85 0.939 . S
H70 C86 0.942 . S
H71 C88 0.940 . S
H72 C89 0.939 . S
H73 C91 0.941 . S
H74 C95 0.939 . S
O75 P64 1.490 . S
H76 C92 0.939 . S
H77 C94 0.940 . S
C78 P64 1.812 . S
C78 C79 1.389 . S
C78 C83 1.391 . S
C79 H65 0.941 . S
C79 C78 1.389 . S
C79 C80 1.397 . S
C80 H66 0.939 . S
C80 C79 1.397 . S
C80 C81 1.378 . S
C81 C80 1.378 . S
C81 C82 1.378 . S
C82 H67 0.940 . S
C82 C81 1.378 . S
C82 C83 1.396 . S
C83 H68 0.940 . S
C83 C78 1.391 . S
C83 C82 1.396 . S
C84 P64 1.803 . S
C84 C85 1.378 . S
C84 C89 1.400 . S
C85 H69 0.939 . S
C85 C84 1.378 . S
C85 C86 1.361 . S
C86 H70 0.942 . S
C86 C85 1.361 . S
C86 C87 1.369 . S
C87 C86 1.369 . S
C87 C88 1.404 . S
C88 H71 0.940 . S
C88 C87 1.404 . S
C88 C89 1.389 . S
C89 H72 0.939 . S
C89 C84 1.400 . S
C89 C88 1.389 . S
C90 P64 1.819 . S
C90 C91 1.391 . S
C90 C95 1.391 . S
C91 H73 0.941 . S
C91 C90 1.391 . S
C91 C92 1.396 . S
C92 H76 0.939 . S
C92 C91 1.396 . S
C92 C93 1.397 . S
C93 C92 1.397 . S
C93 C94 1.385 . S
C94 H77 0.940 . S
C94 C93 1.385 . S
C94 C95 1.388 . S
C95 H74 0.939 . S
C95 C90 1.391 . S
C95 C94 1.388 . S
P96 O107 1.490 . S
P96 C110 1.812 . S
P96 C116 1.803 . S
P96 C122 1.819 . S
H97 C111 0.941 . S
H98 C112 0.939 . S
H99 C114 0.940 . S
H100 C115 0.940 . S
H101 C117 0.939 . S
H102 C118 0.942 . S
H103 C120 0.940 . S
H104 C121 0.939 . S
H105 C123 0.941 . S
H106 C127 0.939 . S
O107 P96 1.490 . S
H108 C124 0.939 . S
H109 C126 0.940 . S
C110 P96 1.812 . S
C110 C111 1.389 . S
C110 C115 1.391 . S
C111 H97 0.941 . S
C111 C110 1.389 . S
C111 C112 1.397 . S
C112 H98 0.939 . S
C112 C111 1.397 . S
C112 C113 1.378 . S
C113 C112 1.378 . S
C113 C114 1.378 . S
C114 H99 0.940 . S
C114 C113 1.378 . S
C114 C115 1.396 . S
C115 H100 0.940 . S
C115 C110 1.391 . S
C115 C114 1.396 . S
C116 P96 1.803 . S
C116 C117 1.378 . S
C116 C121 1.400 . S
C117 H101 0.939 . S
C117 C116 1.378 . S
C117 C118 1.361 . S
C118 H102 0.942 . S
C118 C117 1.361 . S
C118 C119 1.369 . S
C119 C118 1.369 . S
C119 C120 1.404 . S
C120 H103 0.940 . S
C120 C119 1.404 . S
C120 C121 1.389 . S
C121 H104 0.939 . S
C121 C116 1.400 . S
C121 C120 1.389 . S
C122 P96 1.819 . S
C122 C123 1.391 . S
C122 C127 1.391 . S
C123 H105 0.941 . S
C123 C122 1.391 . S
C123 C124 1.396 . S
C124 H108 0.939 . S
C124 C123 1.396 . S
C124 C125 1.397 . S
C125 C124 1.397 . S
C125 C126 1.385 . S
C126 H109 0.940 . S
C126 C125 1.385 . S
C126 C127 1.388 . S
C127 H106 0.939 . S
C127 C122 1.391 . S
C127 C126 1.388 . S
P128 O139 1.490 . S
P128 C142 1.812 . S
P128 C148 1.803 . S
P128 C154 1.819 . S
H129 C143 0.941 . S
H130 C144 0.939 . S
H131 C146 0.940 . S
H132 C147 0.940 . S
H133 C149 0.939 . S
H134 C150 0.942 . S
H135 C152 0.940 . S
H136 C153 0.939 . S
H137 C155 0.941 . S
H138 C159 0.939 . S
O139 P128 1.490 . S
H140 C156 0.939 . S
H141 C158 0.940 . S
C142 P128 1.812 . S
C142 C143 1.389 . S
C142 C147 1.391 . S
C143 H129 0.941 . S
C143 C142 1.389 . S
C143 C144 1.397 . S
C144 H130 0.939 . S
C144 C143 1.397 . S
C144 C145 1.378 . S
C145 C144 1.378 . S
C145 C146 1.378 . S
C146 H131 0.940 . S
C146 C145 1.378 . S
C146 C147 1.396 . S
C147 H132 0.940 . S
C147 C142 1.391 . S
C147 C146 1.396 . S
C148 P128 1.803 . S
C148 C149 1.378 . S
C148 C153 1.400 . S
C149 H133 0.939 . S
C149 C148 1.378 . S
C149 C150 1.361 . S
C150 H134 0.942 . S
C150 C149 1.361 . S
C150 C151 1.369 . S
C151 C150 1.369 . S
C151 C152 1.404 . S
C152 H135 0.940 . S
C152 C151 1.404 . S
C152 C153 1.389 . S
C153 H136 0.939 . S
C153 C148 1.400 . S
C153 C152 1.389 . S
C154 P128 1.819 . S
C154 C155 1.391 . S
C154 C159 1.391 . S
C155 H137 0.941 . S
C155 C154 1.391 . S
C155 C156 1.396 . S
C156 H140 0.939 . S
C156 C155 1.396 . S
C156 C157 1.397 . S
C157 C156 1.397 . S
C157 C158 1.385 . S
C158 H141 0.940 . S
C158 C157 1.385 . S
C158 C159 1.388 . S
C159 H138 0.939 . S
C159 C154 1.391 . S
C159 C158 1.388 . S
P160 O171 1.490 . S
P160 C174 1.812 . S
P160 C180 1.803 . S
P160 C186 1.819 . S
H161 C175 0.941 . S
H162 C176 0.939 . S
H163 C178 0.940 . S
H164 C179 0.940 . S
H165 C181 0.939 . S
H166 C182 0.942 . S
H167 C184 0.940 . S
H168 C185 0.939 . S
H169 C187 0.941 . S
H170 C191 0.939 . S
O171 P160 1.490 . S
H172 C188 0.939 . S
H173 C190 0.940 . S
C174 P160 1.812 . S
C174 C175 1.389 . S
C174 C179 1.391 . S
C175 H161 0.941 . S
C175 C174 1.389 . S
C175 C176 1.397 . S
C176 H162 0.939 . S
C176 C175 1.397 . S
C176 C177 1.378 . S
C177 C176 1.378 . S
C177 C178 1.378 . S
C178 H163 0.940 . S
C178 C177 1.378 . S
C178 C179 1.396 . S
C179 H164 0.940 . S
C179 C174 1.391 . S
C179 C178 1.396 . S
C180 P160 1.803 . S
C180 C181 1.378 . S
C180 C185 1.400 . S
C181 H165 0.939 . S
C181 C180 1.378 . S
C181 C182 1.361 . S
C182 H166 0.942 . S
C182 C181 1.361 . S
C182 C183 1.369 . S
C183 C182 1.369 . S
C183 C184 1.404 . S
C184 H167 0.940 . S
C184 C183 1.404 . S
C184 C185 1.389 . S
C185 H168 0.939 . S
C185 C180 1.400 . S
C185 C184 1.389 . S
C186 P160 1.819 . S
C186 C187 1.391 . S
C186 C191 1.391 . S
C187 H169 0.941 . S
C187 C186 1.391 . S
C187 C188 1.396 . S
C188 H172 0.939 . S
C188 C187 1.396 . S
C188 C189 1.397 . S
C189 C188 1.397 . S
C189 C190 1.385 . S
C190 H173 0.940 . S
C190 C189 1.385 . S
C190 C191 1.388 . S
C191 H170 0.939 . S
C191 C186 1.391 . S
C191 C190 1.388 . S
P192 O203 1.490 . S
P192 C206 1.812 . S
P192 C212 1.803 . S
P192 C218 1.819 . S
H193 C207 0.941 . S
H194 C208 0.939 . S
H195 C210 0.940 . S
H196 C211 0.940 . S
H197 C213 0.939 . S
H198 C214 0.942 . S
H199 C216 0.940 . S
H200 C217 0.939 . S
H201 C219 0.941 . S
H202 C223 0.939 . S
O203 P192 1.490 . S
H204 C220 0.939 . S
H205 C222 0.940 . S
C206 P192 1.812 . S
C206 C207 1.389 . S
C206 C211 1.391 . S
C207 H193 0.941 . S
C207 C206 1.389 . S
C207 C208 1.397 . S
C208 H194 0.939 . S
C208 C207 1.397 . S
C208 C209 1.378 . S
C209 C208 1.378 . S
C209 C210 1.378 . S
C210 H195 0.940 . S
C210 C209 1.378 . S
C210 C211 1.396 . S
C211 H196 0.940 . S
C211 C206 1.391 . S
C211 C210 1.396 . S
C212 P192 1.803 . S
C212 C213 1.378 . S
C212 C217 1.400 . S
C213 H197 0.939 . S
C213 C212 1.378 . S
C213 C214 1.361 . S
C214 H198 0.942 . S
C214 C213 1.361 . S
C214 C215 1.369 . S
C215 C214 1.369 . S
C215 C216 1.404 . S
C216 H199 0.940 . S
C216 C215 1.404 . S
C216 C217 1.389 . S
C217 H200 0.939 . S
C217 C212 1.400 . S
C217 C216 1.389 . S
C218 P192 1.819 . S
C218 C219 1.391 . S
C218 C223 1.391 . S
C219 H201 0.941 . S
C219 C218 1.391 . S
C219 C220 1.396 . S
C220 H204 0.939 . S
C220 C219 1.396 . S
C220 C221 1.397 . S
C221 C220 1.397 . S
C221 C222 1.385 . S
C222 H205 0.940 . S
C222 C221 1.385 . S
C222 C223 1.388 . S
C223 H202 0.939 . S
C223 C218 1.391 . S
C223 C222 1.388 . S
P224 O235 1.490 . S
P224 C238 1.812 . S
P224 C244 1.803 . S
P224 C250 1.819 . S
H225 C239 0.941 . S
H226 C240 0.939 . S
H227 C242 0.940 . S
H228 C243 0.940 . S
H229 C245 0.939 . S
H230 C246 0.942 . S
H231 C248 0.940 . S
H232 C249 0.939 . S
H233 C251 0.941 . S
H234 C255 0.939 . S
O235 P224 1.490 . S
H236 C252 0.939 . S
H237 C254 0.940 . S
C238 P224 1.812 . S
C238 C239 1.389 . S
C238 C243 1.391 . S
C239 H225 0.941 . S
C239 C238 1.389 . S
C239 C240 1.397 . S
C240 H226 0.939 . S
C240 C239 1.397 . S
C240 C241 1.378 . S
C241 C240 1.378 . S
C241 C242 1.378 . S
C242 H227 0.940 . S
C242 C241 1.378 . S
C242 C243 1.396 . S
C243 H228 0.940 . S
C243 C238 1.391 . S
C243 C242 1.396 . S
C244 P224 1.803 . S
C244 C245 1.378 . S
C244 C249 1.400 . S
C245 H229 0.939 . S
C245 C244 1.378 . S
C245 C246 1.361 . S
C246 H230 0.942 . S
C246 C245 1.361 . S
C246 C247 1.369 . S
C247 C246 1.369 . S
C247 C248 1.404 . S
C248 H231 0.940 . S
C248 C247 1.404 . S
C248 C249 1.389 . S
C249 H232 0.939 . S
C249 C244 1.400 . S
C249 C248 1.389 . S
C250 P224 1.819 . S
C250 C251 1.391 . S
C250 C255 1.391 . S
C251 H233 0.941 . S
C251 C250 1.391 . S
C251 C252 1.396 . S
C252 H236 0.939 . S
C252 C251 1.396 . S
C252 C253 1.397 . S
C253 C252 1.397 . S
C253 C254 1.385 . S
C254 H237 0.940 . S
C254 C253 1.385 . S
C254 C255 1.388 . S
C255 H234 0.939 . S
C255 C250 1.391 . S
C255 C254 1.388 . S
P256 O267 1.490 . S
P256 C270 1.812 . S
P256 C276 1.803 . S
P256 C282 1.819 . S
H257 C271 0.941 . S
H258 C272 0.939 . S
H259 C274 0.940 . S
H260 C275 0.940 . S
H261 C277 0.939 . S
H262 C278 0.942 . S
H263 C280 0.940 . S
H264 C281 0.939 . S
H265 C283 0.941 . S
H266 C287 0.939 . S
O267 P256 1.490 . S
H268 C284 0.939 . S
H269 C286 0.940 . S
C270 P256 1.812 . S
C270 C271 1.389 . S
C270 C275 1.391 . S
C271 H257 0.941 . S
C271 C270 1.389 . S
C271 C272 1.397 . S
C272 H258 0.939 . S
C272 C271 1.397 . S
C272 C273 1.378 . S
C273 C272 1.378 . S
C273 C274 1.378 . S
C274 H259 0.940 . S
C274 C273 1.378 . S
C274 C275 1.396 . S
C275 H260 0.940 . S
C275 C270 1.391 . S
C275 C274 1.396 . S
C276 P256 1.803 . S
C276 C277 1.378 . S
C276 C281 1.400 . S
C277 H261 0.939 . S
C277 C276 1.378 . S
C277 C278 1.361 . S
C278 H262 0.942 . S
C278 C277 1.361 . S
C278 C279 1.369 . S
C279 C278 1.369 . S
C279 C280 1.404 . S
C280 H263 0.940 . S
C280 C279 1.404 . S
C280 C281 1.389 . S
C281 H264 0.939 . S
C281 C276 1.400 . S
C281 C280 1.389 . S
C282 P256 1.819 . S
C282 C283 1.391 . S
C282 C287 1.391 . S
C283 H265 0.941 . S
C283 C282 1.391 . S
C283 C284 1.396 . S
C284 H268 0.939 . S
C284 C283 1.396 . S
C284 C285 1.397 . S
C285 C284 1.397 . S
C285 C286 1.385 . S
C286 H269 0.940 . S
C286 C285 1.385 . S
C286 C287 1.388 . S
C287 H266 0.939 . S
C287 C282 1.391 . S
C287 C286 1.388 . S
P288 O299 1.490 . S
P288 C302 1.812 . S
P288 C308 1.803 . S
P288 C314 1.819 . S
H289 C303 0.941 . S
H290 C304 0.939 . S
H291 C306 0.940 . S
H292 C307 0.940 . S
H293 C309 0.939 . S
H294 C310 0.942 . S
H295 C312 0.940 . S
H296 C313 0.939 . S
H297 C315 0.941 . S
H298 C319 0.939 . S
O299 P288 1.490 . S
H300 C316 0.939 . S
H301 C318 0.940 . S
C302 P288 1.812 . S
C302 C303 1.389 . S
C302 C307 1.391 . S
C303 H289 0.941 . S
C303 C302 1.389 . S
C303 C304 1.397 . S
C304 H290 0.939 . S
C304 C303 1.397 . S
C304 C305 1.378 . S
C305 C304 1.378 . S
C305 C306 1.378 . S
C306 H291 0.940 . S
C306 C305 1.378 . S
C306 C307 1.396 . S
C307 H292 0.940 . S
C307 C302 1.391 . S
C307 C306 1.396 . S
C308 P288 1.803 . S
C308 C309 1.378 . S
C308 C313 1.400 . S
C309 H293 0.939 . S
C309 C308 1.378 . S
C309 C310 1.361 . S
C310 H294 0.942 . S
C310 C309 1.361 . S
C310 C311 1.369 . S
C311 C310 1.369 . S
C311 C312 1.404 . S
C312 H295 0.940 . S
C312 C311 1.404 . S
C312 C313 1.389 . S
C313 H296 0.939 . S
C313 C308 1.400 . S
C313 C312 1.389 . S
C314 P288 1.819 . S
C314 C315 1.391 . S
C314 C319 1.391 . S
C315 H297 0.941 . S
C315 C314 1.391 . S
C315 C316 1.396 . S
C316 H300 0.939 . S
C316 C315 1.396 . S
C316 C317 1.397 . S
C317 C316 1.397 . S
C317 C318 1.385 . S
C318 H301 0.940 . S
C318 C317 1.385 . S
C318 C319 1.388 . S
C319 H298 0.939 . S
C319 C314 1.391 . S
C319 C318 1.388 . S
P320 O331 1.490 . S
P320 C334 1.812 . S
P320 C340 1.803 . S
P320 C346 1.819 . S
H321 C335 0.941 . S
H322 C336 0.939 . S
H323 C338 0.940 . S
H324 C339 0.940 . S
H325 C341 0.939 . S
H326 C342 0.942 . S
H327 C344 0.940 . S
H328 C345 0.939 . S
H329 C347 0.941 . S
H330 C351 0.939 . S
O331 P320 1.490 . S
H332 C348 0.939 . S
H333 C350 0.940 . S
C334 P320 1.812 . S
C334 C335 1.389 . S
C334 C339 1.391 . S
C335 H321 0.941 . S
C335 C334 1.389 . S
C335 C336 1.397 . S
C336 H322 0.939 . S
C336 C335 1.397 . S
C336 C337 1.378 . S
C337 C336 1.378 . S
C337 C338 1.378 . S
C338 H323 0.940 . S
C338 C337 1.378 . S
C338 C339 1.396 . S
C339 H324 0.940 . S
C339 C334 1.391 . S
C339 C338 1.396 . S
C340 P320 1.803 . S
C340 C341 1.378 . S
C340 C345 1.400 . S
C341 H325 0.939 . S
C341 C340 1.378 . S
C341 C342 1.361 . S
C342 H326 0.942 . S
C342 C341 1.361 . S
C342 C343 1.369 . S
C343 C342 1.369 . S
C343 C344 1.404 . S
C344 H327 0.940 . S
C344 C343 1.404 . S
C344 C345 1.389 . S
C345 H328 0.939 . S
C345 C340 1.400 . S
C345 C344 1.389 . S
C346 P320 1.819 . S
C346 C347 1.391 . S
C346 C351 1.391 . S
C347 H329 0.941 . S
C347 C346 1.391 . S
C347 C348 1.396 . S
C348 H332 0.939 . S
C348 C347 1.396 . S
C348 C349 1.397 . S
C349 C348 1.397 . S
C349 C350 1.385 . S
C350 H333 0.940 . S
C350 C349 1.385 . S
C350 C351 1.388 . S
C351 H330 0.939 . S
C351 C346 1.391 . S
C351 C350 1.388 . S
P352 O363 1.490 . S
P352 C366 1.812 . S
P352 C372 1.803 . S
P352 C378 1.819 . S
H353 C367 0.941 . S
H354 C368 0.939 . S
H355 C370 0.940 . S
H356 C371 0.940 . S
H357 C373 0.939 . S
H358 C374 0.942 . S
H359 C376 0.940 . S
H360 C377 0.939 . S
H361 C379 0.941 . S
H362 C383 0.939 . S
O363 P352 1.490 . S
H364 C380 0.939 . S
H365 C382 0.940 . S
C366 P352 1.812 . S
C366 C367 1.389 . S
C366 C371 1.391 . S
C367 H353 0.941 . S
C367 C366 1.389 . S
C367 C368 1.397 . S
C368 H354 0.939 . S
C368 C367 1.397 . S
C368 C369 1.378 . S
C369 C368 1.378 . S
C369 C370 1.378 . S
C370 H355 0.940 . S
C370 C369 1.378 . S
C370 C371 1.396 . S
C371 H356 0.940 . S
C371 C366 1.391 . S
C371 C370 1.396 . S
C372 P352 1.803 . S
C372 C373 1.378 . S
C372 C377 1.400 . S
C373 H357 0.939 . S
C373 C372 1.378 . S
C373 C374 1.361 . S
C374 H358 0.942 . S
C374 C373 1.361 . S
C374 C375 1.369 . S
C375 C374 1.369 . S
C375 C376 1.404 . S
C376 H359 0.940 . S
C376 C375 1.404 . S
C376 C377 1.389 . S
C377 H360 0.939 . S
C377 C372 1.400 . S
C377 C376 1.389 . S
C378 P352 1.819 . S
C378 C379 1.391 . S
C378 C383 1.391 . S
C379 H361 0.941 . S
C379 C378 1.391 . S
C379 C380 1.396 . S
C380 H364 0.939 . S
C380 C379 1.396 . S
C380 C381 1.397 . S
C381 C380 1.397 . S
C381 C382 1.385 . S
C382 H365 0.940 . S
C382 C381 1.385 . S
C382 C383 1.388 . S
C383 H362 0.939 . S
C383 C378 1.391 . S
C383 C382 1.388 . S
P384 O395 1.490 . S
P384 C398 1.812 . S
P384 C404 1.803 . S
P384 C410 1.819 . S
H385 C399 0.941 . S
H386 C400 0.939 . S
H387 C402 0.940 . S
H388 C403 0.940 . S
H389 C405 0.939 . S
H390 C406 0.942 . S
H391 C408 0.940 . S
H392 C409 0.939 . S
H393 C411 0.941 . S
H394 C415 0.939 . S
O395 P384 1.490 . S
H396 C412 0.939 . S
H397 C414 0.940 . S
C398 P384 1.812 . S
C398 C399 1.389 . S
C398 C403 1.391 . S
C399 H385 0.941 . S
C399 C398 1.389 . S
C399 C400 1.397 . S
C400 H386 0.939 . S
C400 C399 1.397 . S
C400 C401 1.378 . S
C401 C400 1.378 . S
C401 C402 1.378 . S
C402 H387 0.940 . S
C402 C401 1.378 . S
C402 C403 1.396 . S
C403 H388 0.940 . S
C403 C398 1.391 . S
C403 C402 1.396 . S
C404 P384 1.803 . S
C404 C405 1.378 . S
C404 C409 1.400 . S
C405 H389 0.939 . S
C405 C404 1.378 . S
C405 C406 1.361 . S
C406 H390 0.942 . S
C406 C405 1.361 . S
C406 C407 1.369 . S
C407 C406 1.369 . S
C407 C408 1.404 . S
C408 H391 0.940 . S
C408 C407 1.404 . S
C408 C409 1.389 . S
C409 H392 0.939 . S
C409 C404 1.400 . S
C409 C408 1.389 . S
C410 P384 1.819 . S
C410 C411 1.391 . S
C410 C415 1.391 . S
C411 H393 0.941 . S
C411 C410 1.391 . S
C411 C412 1.396 . S
C412 H396 0.939 . S
C412 C411 1.396 . S
C412 C413 1.397 . S
C413 C412 1.397 . S
C413 C414 1.385 . S
C414 H397 0.940 . S
C414 C413 1.385 . S
C414 C415 1.388 . S
C415 H394 0.939 . S
C415 C410 1.391 . S
C415 C414 1.388 . S
P416 O427 1.490 . S
P416 C430 1.812 . S
P416 C436 1.803 . S
P416 C442 1.819 . S
H417 C431 0.941 . S
H418 C432 0.939 . S
H419 C434 0.940 . S
H420 C435 0.940 . S
H421 C437 0.939 . S
H422 C438 0.942 . S
H423 C440 0.940 . S
H424 C441 0.939 . S
H425 C443 0.941 . S
H426 C447 0.939 . S
O427 P416 1.490 . S
H428 C444 0.939 . S
H429 C446 0.940 . S
C430 P416 1.812 . S
C430 C431 1.389 . S
C430 C435 1.391 . S
C431 H417 0.941 . S
C431 C430 1.389 . S
C431 C432 1.397 . S
C432 H418 0.939 . S
C432 C431 1.397 . S
C432 C433 1.378 . S
C433 C432 1.378 . S
C433 C434 1.378 . S
C434 H419 0.940 . S
C434 C433 1.378 . S
C434 C435 1.396 . S
C435 H420 0.940 . S
C435 C430 1.391 . S
C435 C434 1.396 . S
C436 P416 1.803 . S
C436 C437 1.378 . S
C436 C441 1.400 . S
C437 H421 0.939 . S
C437 C436 1.378 . S
C437 C438 1.361 . S
C438 H422 0.942 . S
C438 C437 1.361 . S
C438 C439 1.369 . S
C439 C438 1.369 . S
C439 C440 1.404 . S
C440 H423 0.940 . S
C440 C439 1.404 . S
C440 C441 1.389 . S
C441 H424 0.939 . S
C441 C436 1.400 . S
C441 C440 1.389 . S
C442 P416 1.819 . S
C442 C443 1.391 . S
C442 C447 1.391 . S
C443 H425 0.941 . S
C443 C442 1.391 . S
C443 C444 1.396 . S
C444 H428 0.939 . S
C444 C443 1.396 . S
C444 C445 1.397 . S
C445 C444 1.397 . S
C445 C446 1.385 . S
C446 H429 0.940 . S
C446 C445 1.385 . S
C446 C447 1.388 . S
C447 H426 0.939 . S
C447 C442 1.391 . S
C447 C446 1.388 . S
P448 O459 1.490 . S
P448 C462 1.812 . S
P448 C468 1.803 . S
P448 C474 1.819 . S
H449 C463 0.941 . S
H450 C464 0.939 . S
H451 C466 0.940 . S
H452 C467 0.940 . S
H453 C469 0.939 . S
H454 C470 0.942 . S
H455 C472 0.940 . S
H456 C473 0.939 . S
H457 C475 0.941 . S
H458 C479 0.939 . S
O459 P448 1.490 . S
H460 C476 0.939 . S
H461 C478 0.940 . S
C462 P448 1.812 . S
C462 C463 1.389 . S
C462 C467 1.391 . S
C463 H449 0.941 . S
C463 C462 1.389 . S
C463 C464 1.397 . S
C464 H450 0.939 . S
C464 C463 1.397 . S
C464 C465 1.378 . S
C465 C464 1.378 . S
C465 C466 1.378 . S
C466 H451 0.940 . S
C466 C465 1.378 . S
C466 C467 1.396 . S
C467 H452 0.940 . S
C467 C462 1.391 . S
C467 C466 1.396 . S
C468 P448 1.803 . S
C468 C469 1.378 . S
C468 C473 1.400 . S
C469 H453 0.939 . S
C469 C468 1.378 . S
C469 C470 1.361 . S
C470 H454 0.942 . S
C470 C469 1.361 . S
C470 C471 1.369 . S
C471 C470 1.369 . S
C471 C472 1.404 . S
C472 H455 0.940 . S
C472 C471 1.404 . S
C472 C473 1.389 . S
C473 H456 0.939 . S
C473 C468 1.400 . S
C473 C472 1.389 . S
C474 P448 1.819 . S
C474 C475 1.391 . S
C474 C479 1.391 . S
C475 H457 0.941 . S
C475 C474 1.391 . S
C475 C476 1.396 . S
C476 H460 0.939 . S
C476 C475 1.396 . S
C476 C477 1.397 . S
C477 C476 1.397 . S
C477 C478 1.385 . S
C478 H461 0.940 . S
C478 C477 1.385 . S
C478 C479 1.388 . S
C479 H458 0.939 . S
C479 C474 1.391 . S
C479 C478 1.388 . S
P480 O491 1.490 . S
P480 C494 1.812 . S
P480 C500 1.803 . S
P480 C506 1.819 . S
H481 C495 0.941 . S
H482 C496 0.939 . S
H483 C498 0.940 . S
H484 C499 0.940 . S
H485 C501 0.939 . S
H486 C502 0.942 . S
H487 C504 0.940 . S
H488 C505 0.939 . S
H489 C507 0.941 . S
H490 C511 0.939 . S
O491 P480 1.490 . S
H492 C508 0.939 . S
H493 C510 0.940 . S
C494 P480 1.812 . S
C494 C495 1.389 . S
C494 C499 1.391 . S
C495 H481 0.941 . S
C495 C494 1.389 . S
C495 C496 1.397 . S
C496 H482 0.939 . S
C496 C495 1.397 . S
C496 C497 1.378 . S
C497 C496 1.378 . S
C497 C498 1.378 . S
C498 H483 0.940 . S
C498 C497 1.378 . S
C498 C499 1.396 . S
C499 H484 0.940 . S
C499 C494 1.391 . S
C499 C498 1.396 . S
C500 P480 1.803 . S
C500 C501 1.378 . S
C500 C505 1.400 . S
C501 H485 0.939 . S
C501 C500 1.378 . S
C501 C502 1.361 . S
C502 H486 0.942 . S
C502 C501 1.361 . S
C502 C503 1.369 . S
C503 C502 1.369 . S
C503 C504 1.404 . S
C504 H487 0.940 . S
C504 C503 1.404 . S
C504 C505 1.389 . S
C505 H488 0.939 . S
C505 C500 1.400 . S
C505 C504 1.389 . S
C506 P480 1.819 . S
C506 C507 1.391 . S
C506 C511 1.391 . S
C507 H489 0.941 . S
C507 C506 1.391 . S
C507 C508 1.396 . S
C508 H492 0.939 . S
C508 C507 1.396 . S
C508 C509 1.397 . S
C509 C508 1.397 . S
C509 C510 1.385 . S
C510 H493 0.940 . S
C510 C509 1.385 . S
C510 C511 1.388 . S
C511 H490 0.939 . S
C511 C506 1.391 . S
C511 C510 1.388 . S
O512 Cd513 2.223 . S
O512 C520 1.315 . S
Cd513 O512 2.223 . S
Cd513 O516 2.297 . S
Cd513 O517 2.439 . S
Cd513 O523 2.240 . S
Cd514 O515 2.240 . S
Cd514 O522 2.223 . S
Cd514 O524 2.297 . S
Cd514 O525 2.439 . S
O515 Cd514 2.240 . S
O515 C520 1.279 . S
O516 Cd513 2.297 . S
O516 C518 1.247 . S
O517 Cd513 2.439 . S
O517 C518 1.208 . S
C518 O516 1.247 . S
C518 O517 1.208 . S
C519 O524 1.247 . S
C519 O525 1.208 . S
C520 O512 1.315 . S
C520 O515 1.279 . S
C521 O522 1.315 . S
C521 O523 1.279 . S
O522 Cd514 2.223 . S
O522 C521 1.315 . S
O523 Cd513 2.240 . S
O523 C521 1.279 . S
O524 Cd514 2.297 . S
O524 C519 1.247 . S
O525 Cd514 2.439 . S
O525 C519 1.208 . S
O526 Cd527 2.223 . S
O526 C534 1.315 . S
Cd527 O526 2.223 . S
Cd527 O530 2.297 . S
Cd527 O531 2.439 . S
Cd527 O537 2.240 . S
Cd528 O529 2.240 . S
Cd528 O536 2.223 . S
Cd528 O538 2.297 . S
Cd528 O539 2.439 . S
O529 Cd528 2.240 . S
O529 C534 1.279 . S
O530 Cd527 2.297 . S
O530 C532 1.247 . S
O531 Cd527 2.439 . S
O531 C532 1.208 . S
C532 O530 1.247 . S
C532 O531 1.208 . S
C533 O538 1.247 . S
C533 O539 1.208 . S
C534 O526 1.315 . S
C534 O529 1.279 . S
C535 O536 1.315 . S
C535 O537 1.279 . S
O536 Cd528 2.223 . S
O536 C535 1.315 . S
O537 Cd527 2.240 . S
O537 C535 1.279 . S
O538 Cd528 2.297 . S
O538 C533 1.247 . S
O539 Cd528 2.439 . S
O539 C533 1.208 . S
O540 Cd541 2.223 1_556 S
O540 C548 1.315 . S
Cd541 O540 2.223 1_554 S
Cd541 O544 2.297 . S
Cd541 O545 2.439 . S
Cd541 O551 2.240 . S
Cd542 O543 2.240 . S
Cd542 O550 2.223 . S
Cd542 O552 2.297 1_556 S
Cd542 O553 2.439 1_556 S
O543 Cd542 2.240 . S
O543 C548 1.279 . S
O544 Cd541 2.297 . S
O544 C546 1.247 . S
O545 Cd541 2.439 . S
O545 C546 1.208 . S
C546 O544 1.247 . S
C546 O545 1.208 . S
C547 O552 1.247 . S
C547 O553 1.208 . S
C548 O540 1.315 . S
C548 O543 1.279 . S
C549 O550 1.315 . S
C549 O551 1.279 1_556 S
O550 Cd542 2.223 . S
O550 C549 1.315 . S
O551 Cd541 2.240 . S
O551 C549 1.279 1_554 S
O552 Cd542 2.297 1_554 S
O552 C547 1.247 . S
O553 Cd542 2.439 1_554 S
O553 C547 1.208 . S
O554 Cd555 2.223 . S
O554 C562 1.315 . S
Cd555 O554 2.223 . S
Cd555 O558 2.297 . S
Cd555 O559 2.439 . S
Cd555 O565 2.240 . S
Cd556 O557 2.240 . S
Cd556 O564 2.223 . S
Cd556 O566 2.297 . S
Cd556 O567 2.439 . S
O557 Cd556 2.240 . S
O557 C562 1.279 . S
O558 Cd555 2.297 . S
O558 C560 1.247 . S
O559 Cd555 2.439 . S
O559 C560 1.208 . S
C560 O558 1.247 . S
C560 O559 1.208 . S
C561 O566 1.247 . S
C561 O567 1.208 . S
C562 O554 1.315 . S
C562 O557 1.279 . S
C563 O564 1.315 . S
C563 O565 1.279 . S
O564 Cd556 2.223 . S
O564 C563 1.315 . S
O565 Cd555 2.240 . S
O565 C563 1.279 . S
O566 Cd556 2.297 . S
O566 C561 1.247 . S
O567 Cd556 2.439 . S
O567 C561 1.208 . S
O568 Cd569 2.223 . S
O568 C576 1.315 . S
Cd569 O568 2.223 . S
Cd569 O572 2.297 . S
Cd569 O573 2.439 . S
Cd569 O579 2.240 . S
Cd570 O571 2.240 . S
Cd570 O578 2.223 . S
Cd570 O580 2.297 . S
Cd570 O581 2.439 . S
O571 Cd570 2.240 . S
O571 C576 1.279 . S
O572 Cd569 2.297 . S
O572 C574 1.247 . S
O573 Cd569 2.439 . S
O573 C574 1.208 . S
C574 O572 1.247 . S
C574 O573 1.208 . S
C575 O580 1.247 . S
C575 O581 1.208 . S
C576 O568 1.315 . S
C576 O571 1.279 . S
C577 O578 1.315 . S
C577 O579 1.279 . S
O578 Cd570 2.223 . S
O578 C577 1.315 . S
O579 Cd569 2.240 . S
O579 C577 1.279 . S
O580 Cd570 2.297 . S
O580 C575 1.247 . S
O581 Cd570 2.439 . S
O581 C575 1.208 . S
O582 Cd583 2.223 . S
O582 C590 1.315 . S
Cd583 O582 2.223 . S
Cd583 O586 2.297 . S
Cd583 O587 2.439 . S
Cd583 O593 2.240 . S
Cd584 O585 2.240 . S
Cd584 O592 2.223 . S
Cd584 O594 2.297 . S
Cd584 O595 2.439 . S
O585 Cd584 2.240 . S
O585 C590 1.279 . S
O586 Cd583 2.297 . S
O586 C588 1.247 . S
O587 Cd583 2.439 . S
O587 C588 1.208 . S
C588 O586 1.247 . S
C588 O587 1.208 . S
C589 O594 1.247 . S
C589 O595 1.208 . S
C590 O582 1.315 . S
C590 O585 1.279 . S
C591 O592 1.315 . S
C591 O593 1.279 . S
O592 Cd584 2.223 . S
O592 C591 1.315 . S
O593 Cd583 2.240 . S
O593 C591 1.279 . S
O594 Cd584 2.297 . S
O594 C589 1.247 . S
O595 Cd584 2.439 . S
O595 C589 1.208 . S
O596 Cd597 2.223 . S
O596 C604 1.315 . S
Cd597 O596 2.223 . S
Cd597 O600 2.297 . S
Cd597 O601 2.439 . S
Cd597 O607 2.240 . S
Cd598 O599 2.240 . S
Cd598 O606 2.223 . S
Cd598 O608 2.297 . S
Cd598 O609 2.439 . S
O599 Cd598 2.240 . S
O599 C604 1.279 . S
O600 Cd597 2.297 . S
O600 C602 1.247 . S
O601 Cd597 2.439 . S
O601 C602 1.208 . S
C602 O600 1.247 . S
C602 O601 1.208 . S
C603 O608 1.247 . S
C603 O609 1.208 . S
C604 O596 1.315 . S
C604 O599 1.279 . S
C605 O606 1.315 . S
C605 O607 1.279 . S
O606 Cd598 2.223 . S
O606 C605 1.315 . S
O607 Cd597 2.240 . S
O607 C605 1.279 . S
O608 Cd598 2.297 . S
O608 C603 1.247 . S
O609 Cd598 2.439 . S
O609 C603 1.208 . S
O610 Cd611 2.223 1_545 S
O610 C618 1.315 . S
Cd611 O610 2.223 1_565 S
Cd611 O614 2.297 . S
Cd611 O615 2.439 . S
Cd611 O621 2.240 1_565 S
Cd612 O613 2.240 . S
Cd612 O620 2.223 . S
Cd612 O622 2.297 . S
Cd612 O623 2.439 1_545 S
O613 Cd612 2.240 . S
O613 C618 1.279 . S
O614 Cd611 2.297 . S
O614 C616 1.247 . S
O615 Cd611 2.439 . S
O615 C616 1.208 . S
C616 O614 1.247 . S
C616 O615 1.208 . S
C617 O622 1.247 1_565 S
C617 O623 1.208 . S
C618 O610 1.315 . S
C618 O613 1.279 . S
C619 O620 1.315 . S
C619 O621 1.279 . S
O620 Cd612 2.223 . S
O620 C619 1.315 . S
O621 Cd611 2.240 1_545 S
O621 C619 1.279 . S
O622 Cd612 2.297 . S
O622 C617 1.247 1_545 S
O623 Cd612 2.439 1_565 S
O623 C617 1.208 . S
O624 Cd625 2.223 . S
O624 C632 1.315 . S
Cd625 O624 2.223 . S
Cd625 O628 2.297 1_655 S
Cd625 O629 2.439 1_655 S
Cd625 O635 2.240 . S
Cd626 O627 2.240 . S
Cd626 O634 2.223 1_455 S
Cd626 O636 2.297 . S
Cd626 O637 2.439 . S
O627 Cd626 2.240 . S
O627 C632 1.279 1_455 S
O628 Cd625 2.297 1_455 S
O628 C630 1.247 . S
O629 Cd625 2.439 1_455 S
O629 C630 1.208 . S
C630 O628 1.247 . S
C630 O629 1.208 . S
C631 O636 1.247 . S
C631 O637 1.208 . S
C632 O624 1.315 . S
C632 O627 1.279 1_655 S
C633 O634 1.315 . S
C633 O635 1.279 . S
O634 Cd626 2.223 1_655 S
O634 C633 1.315 . S
O635 Cd625 2.240 . S
O635 C633 1.279 . S
O636 Cd626 2.297 . S
O636 C631 1.247 . S
O637 Cd626 2.439 . S
O637 C631 1.208 . S
O638 Cd639 2.223 . S
O638 C646 1.315 . S
Cd639 O638 2.223 . S
Cd639 O642 2.297 . S
Cd639 O643 2.439 . S
Cd639 O649 2.240 . S
Cd640 O641 2.240 . S
Cd640 O648 2.223 . S
Cd640 O650 2.297 . S
Cd640 O651 2.439 . S
O641 Cd640 2.240 . S
O641 C646 1.279 . S
O642 Cd639 2.297 . S
O642 C644 1.247 . S
O643 Cd639 2.439 . S
O643 C644 1.208 . S
C644 O642 1.247 . S
C644 O643 1.208 . S
C645 O650 1.247 . S
C645 O651 1.208 . S
C646 O638 1.315 . S
C646 O641 1.279 . S
C647 O648 1.315 . S
C647 O649 1.279 . S
O648 Cd640 2.223 . S
O648 C647 1.315 . S
O649 Cd639 2.240 . S
O649 C647 1.279 . S
O650 Cd640 2.297 . S
O650 C645 1.247 . S
O651 Cd640 2.439 . S
O651 C645 1.208 . S
O652 Cd653 2.223 1_655 S
O652 C660 1.315 . S
Cd653 O652 2.223 1_455 S
Cd653 O656 2.297 . S
Cd653 O657 2.439 . S
Cd653 O663 2.240 . S
Cd654 O655 2.240 . S
Cd654 O662 2.223 . S
Cd654 O664 2.297 1_655 S
Cd654 O665 2.439 1_655 S
O655 Cd654 2.240 . S
O655 C660 1.279 . S
O656 Cd653 2.297 . S
O656 C658 1.247 . S
O657 Cd653 2.439 . S
O657 C658 1.208 . S
C658 O656 1.247 . S
C658 O657 1.208 . S
C659 O664 1.247 . S
C659 O665 1.208 . S
C660 O652 1.315 . S
C660 O655 1.279 . S
C661 O662 1.315 . S
C661 O663 1.279 1_655 S
O662 Cd654 2.223 . S
O662 C661 1.315 . S
O663 Cd653 2.240 . S
O663 C661 1.279 1_455 S
O664 Cd654 2.297 1_455 S
O664 C659 1.247 . S
O665 Cd654 2.439 1_455 S
O665 C659 1.208 . S
O666 Cd667 2.223 . S
O666 C674 1.315 . S
Cd667 O666 2.223 . S
Cd667 O670 2.297 . S
Cd667 O671 2.439 . S
Cd667 O677 2.240 . S
Cd668 O669 2.240 . S
Cd668 O676 2.223 . S
Cd668 O678 2.297 . S
Cd668 O679 2.439 . S
O669 Cd668 2.240 . S
O669 C674 1.279 . S
O670 Cd667 2.297 . S
O670 C672 1.247 . S
O671 Cd667 2.439 . S
O671 C672 1.208 . S
C672 O670 1.247 . S
C672 O671 1.208 . S
C673 O678 1.247 . S
C673 O679 1.208 . S
C674 O666 1.315 . S
C674 O669 1.279 . S
C675 O676 1.315 . S
C675 O677 1.279 . S
O676 Cd668 2.223 . S
O676 C675 1.315 . S
O677 Cd667 2.240 . S
O677 C675 1.279 . S
O678 Cd668 2.297 . S
O678 C673 1.247 . S
O679 Cd668 2.439 . S
O679 C673 1.208 . S
H680 C698 0.951 . S
H681 C700 0.951 . S
H682 C702 0.950 . S
H683 C703 0.950 . S
H684 C705 0.950 . S
H685 C708 0.950 . S
H686 C709 0.950 . S
H687 C711 0.950 . S
H688 C712 0.950 . S
H689 C713 0.951 . S
H690 C715 0.951 . S
H691 C717 0.950 . S
H692 C718 0.950 1_554 S
H693 C720 0.950 . S
H694 C723 0.950 . S
H695 C724 0.950 1_554 S
H696 C726 0.950 . S
H697 C727 0.950 . S
C698 H680 0.951 . S
C698 C699 1.366 . S
C698 C700 1.388 . S
C699 C698 1.366 . S
C699 C703 1.385 . S
C700 H681 0.951 . S
C700 C698 1.388 . S
C700 C701 1.366 . S
C701 C700 1.366 . S
C701 C702 1.414 . S
C701 C704 1.499 . S
C702 H682 0.950 . S
C702 C701 1.414 . S
C702 C703 1.374 . S
C703 H683 0.950 . S
C703 C699 1.385 . S
C703 C702 1.374 . S
C704 C701 1.499 . S
C704 C705 1.373 . S
C704 C706 1.389 . S
C705 H684 0.950 . S
C705 C704 1.373 . S
C705 C721 1.377 . S
C706 C704 1.389 . S
C706 C707 1.524 . S
C706 C720 1.377 . S
C707 C706 1.524 . S
C707 C708 1.397 . S
C707 C712 1.363 . S
C708 H685 0.950 . S
C708 C707 1.397 . S
C708 C709 1.334 . S
C709 H686 0.950 . S
C709 C708 1.334 . S
C709 C710 1.287 . S
C710 C709 1.287 . S
C710 C711 1.524 . S
C710 H729 0.913 . S
C711 H687 0.950 . S
C711 C710 1.524 . S
C711 C712 1.415 . S
C712 H688 0.950 . S
C712 C707 1.363 . S
C712 C711 1.415 . S
C713 H689 0.951 . S
C713 C714 1.366 1_556 S
C713 C715 1.388 . S
C714 C713 1.366 1_554 S
C714 C718 1.385 1_554 S
C715 H690 0.951 . S
C715 C713 1.388 . S
C715 C716 1.366 . S
C716 C715 1.366 . S
C716 C717 1.414 . S
C716 C719 1.499 . S
C717 H691 0.950 . S
C717 C716 1.414 . S
C717 C718 1.374 . S
C718 H692 0.950 1_556 S
C718 C714 1.385 1_556 S
C718 C717 1.374 . S
C719 C716 1.499 . S
C719 C720 1.373 . S
C719 C721 1.389 . S
C720 H693 0.950 . S
C720 C706 1.377 . S
C720 C719 1.373 . S
C721 C705 1.377 . S
C721 C719 1.389 . S
C721 C722 1.524 . S
C722 C721 1.524 . S
C722 C723 1.397 . S
C722 C727 1.363 . S
C723 H694 0.950 . S
C723 C722 1.397 . S
C723 C724 1.334 . S
C724 H695 0.950 1_556 S
C724 C723 1.334 . S
C724 C725 1.287 . S
C725 C724 1.287 . S
C725 C726 1.524 . S
C725 H728 1.000 1_556 S
C726 H696 0.950 . S
C726 C725 1.524 . S
C726 C727 1.415 . S
C727 H697 0.950 . S
C727 C722 1.363 . S
C727 C726 1.415 . S
H728 C725 1.000 1_554 S
H729 C710 0.913 . S
H730 C748 0.951 . S
H731 C750 0.951 . S
H732 C752 0.950 1_455 S
H733 C753 0.950 . S
H734 C755 0.950 . S
H735 C758 0.950 . S
H736 C759 0.950 . S
H737 C761 0.944 1_655 S
H738 C762 0.950 . S
H739 C763 0.951 . S
H740 C765 0.951 . S
H741 C767 0.950 . S
H742 C768 0.950 . S
H743 C770 0.950 . S
H744 C773 0.950 . S
H745 C774 0.950 . S
H746 C776 0.950 . S
H747 C777 0.950 . S
C748 H730 0.951 . S
C748 C749 1.366 . S
C748 C750 1.388 . S
C749 C748 1.366 . S
C749 C753 1.385 . S
C750 H731 0.951 . S
C750 C748 1.388 . S
C750 C751 1.366 . S
C751 C750 1.366 . S
C751 C752 1.414 . S
C751 C754 1.499 1_655 S
C752 H732 0.950 1_655 S
C752 C751 1.414 . S
C752 C753 1.374 . S
C753 H733 0.950 . S
C753 C749 1.385 . S
C753 C752 1.374 . S
C754 C751 1.499 1_455 S
C754 C755 1.373 . S
C754 C756 1.389 . S
C755 H734 0.950 . S
C755 C754 1.373 . S
C755 C771 1.377 . S
C756 C754 1.389 . S
C756 C757 1.524 . S
C756 C770 1.377 . S
C757 C756 1.524 . S
C757 C758 1.397 . S
C757 C762 1.363 . S
C758 H735 0.950 . S
C758 C757 1.397 . S
C758 C759 1.334 . S
C759 H736 0.950 . S
C759 C758 1.334 . S
C759 C760 1.287 . S
C760 C759 1.287 . S
C760 C761 1.524 . S
C760 H779 0.913 . S
C761 H737 0.944 1_455 S
C761 C760 1.524 . S
C761 C762 1.415 . S
C762 H738 0.950 . S
C762 C757 1.363 . S
C762 C761 1.415 . S
C763 H739 0.951 . S
C763 C764 1.366 . S
C763 C765 1.388 . S
C764 C763 1.366 . S
C764 C768 1.385 . S
C765 H740 0.951 . S
C765 C763 1.388 . S
C765 C766 1.366 . S
C766 C765 1.366 . S
C766 C767 1.414 . S
C766 C769 1.499 . S
C767 H741 0.950 . S
C767 C766 1.414 . S
C767 C768 1.374 . S
C768 H742 0.950 . S
C768 C764 1.385 . S
C768 C767 1.374 . S
C769 C766 1.499 . S
C769 C770 1.373 . S
C769 C771 1.389 . S
C770 H743 0.950 . S
C770 C756 1.377 . S
C770 C769 1.373 . S
C771 C755 1.377 . S
C771 C769 1.389 . S
C771 C772 1.524 . S
C772 C771 1.524 . S
C772 C773 1.397 . S
C772 C777 1.363 . S
C773 H744 0.950 . S
C773 C772 1.397 . S
C773 C774 1.334 . S
C774 H745 0.950 . S
C774 C773 1.334 . S
C774 C775 1.287 . S
C775 C774 1.287 . S
C775 C776 1.524 . S
C775 H778 0.999 . S
C776 H746 0.950 . S
C776 C775 1.524 . S
C776 C777 1.415 . S
C777 H747 0.950 . S
C777 C772 1.363 . S
C777 C776 1.415 . S
H778 C775 0.999 . S
H779 C760 0.913 . S
H780 C798 0.951 . S
H781 C800 0.951 . S
H782 C802 0.950 . S
H783 C803 0.950 . S
H784 C805 0.950 . S
H785 C808 0.950 . S
H786 C809 0.950 . S
H787 C811 0.950 . S
H788 C812 0.950 . S
H789 C813 0.951 . S
H790 C815 0.951 . S
H791 C817 0.950 . S
H792 C818 0.950 . S
H793 C820 0.950 . S
H794 C823 0.950 . S
H795 C824 0.950 . S
H796 C826 0.950 . S
H797 C827 0.950 . S
C798 H780 0.951 . S
C798 C799 1.366 . S
C798 C800 1.388 . S
C799 C798 1.366 . S
C799 C803 1.385 . S
C800 H781 0.951 . S
C800 C798 1.388 . S
C800 C801 1.366 . S
C801 C800 1.366 . S
C801 C802 1.414 . S
C801 C804 1.499 . S
C802 H782 0.950 . S
C802 C801 1.414 . S
C802 C803 1.374 . S
C803 H783 0.950 . S
C803 C799 1.385 . S
C803 C802 1.374 . S
C804 C801 1.499 . S
C804 C805 1.373 . S
C804 C806 1.389 . S
C805 H784 0.950 . S
C805 C804 1.373 . S
C805 C821 1.377 . S
C806 C804 1.389 . S
C806 C807 1.524 . S
C806 C820 1.377 . S
C807 C806 1.524 . S
C807 C808 1.397 . S
C807 C812 1.363 . S
C808 H785 0.950 . S
C808 C807 1.397 . S
C808 C809 1.334 . S
C809 H786 0.950 . S
C809 C808 1.334 . S
C809 C810 1.287 . S
C810 C809 1.287 . S
C810 C811 1.524 . S
C810 H829 0.913 . S
C811 H787 0.950 . S
C811 C810 1.524 . S
C811 C812 1.415 . S
C812 H788 0.950 . S
C812 C807 1.363 . S
C812 C811 1.415 . S
C813 H789 0.951 . S
C813 C814 1.366 . S
C813 C815 1.388 . S
C814 C813 1.366 . S
C814 C818 1.385 . S
C815 H790 0.951 . S
C815 C813 1.388 . S
C815 C816 1.366 . S
C816 C815 1.366 . S
C816 C817 1.414 . S
C816 C819 1.499 . S
C817 H791 0.950 . S
C817 C816 1.414 . S
C817 C818 1.374 . S
C818 H792 0.950 . S
C818 C814 1.385 . S
C818 C817 1.374 . S
C819 C816 1.499 . S
C819 C820 1.373 . S
C819 C821 1.389 . S
C820 H793 0.950 . S
C820 C806 1.377 . S
C820 C819 1.373 . S
C821 C805 1.377 . S
C821 C819 1.389 . S
C821 C822 1.524 . S
C822 C821 1.524 . S
C822 C823 1.397 . S
C822 C827 1.363 . S
C823 H794 0.950 . S
C823 C822 1.397 . S
C823 C824 1.334 . S
C824 H795 0.950 . S
C824 C823 1.334 . S
C824 C825 1.287 . S
C825 C824 1.287 . S
C825 C826 1.524 . S
C825 H828 0.999 . S
C826 H796 0.950 . S
C826 C825 1.524 . S
C826 C827 1.415 . S
C827 H797 0.950 . S
C827 C822 1.363 . S
C827 C826 1.415 . S
H828 C825 0.999 . S
H829 C810 0.913 . S
H830 C848 0.951 . S
H831 C850 0.951 1_655 S
H832 C852 0.950 . S
H833 C853 0.950 . S
H834 C855 0.950 1_455 S
H835 C858 0.950 . S
H836 C859 0.950 . S
H837 C861 0.950 . S
H838 C862 0.950 . S
H839 C863 0.951 . S
H840 C865 0.951 . S
H841 C867 0.950 . S
H842 C868 0.950 . S
H843 C870 0.950 . S
H844 C873 0.950 . S
H845 C874 0.950 . S
H846 C876 0.950 . S
H847 C877 0.950 1_455 S
C848 H830 0.951 . S
C848 C849 1.366 . S
C848 C850 1.388 . S
C849 C848 1.366 . S
C849 C853 1.385 . S
C850 H831 0.951 1_455 S
C850 C848 1.388 . S
C850 C851 1.366 . S
C851 C850 1.366 . S
C851 C852 1.414 . S
C851 C854 1.499 1_455 S
C852 H832 0.950 . S
C852 C851 1.414 . S
C852 C853 1.374 . S
C853 H833 0.950 . S
C853 C849 1.385 . S
C853 C852 1.374 . S
C854 C851 1.499 1_655 S
C854 C855 1.373 1_565 S
C854 C856 1.389 . S
C855 H834 0.950 1_655 S
C855 C854 1.373 1_545 S
C855 C871 1.377 . S
C856 C854 1.389 . S
C856 C857 1.524 . S
C856 C870 1.377 . S
C857 C856 1.524 . S
C857 C858 1.397 . S
C857 C862 1.363 . S
C858 H835 0.950 . S
C858 C857 1.397 . S
C858 C859 1.334 . S
C859 H836 0.950 . S
C859 C858 1.334 . S
C859 C860 1.287 . S
C860 C859 1.287 . S
C860 C861 1.524 . S
C860 H879 0.913 . S
C861 H837 0.950 . S
C861 C860 1.524 . S
C861 C862 1.415 . S
C862 H838 0.950 . S
C862 C857 1.363 . S
C862 C861 1.415 . S
C863 H839 0.951 . S
C863 C864 1.366 . S
C863 C865 1.388 . S
C864 C863 1.366 . S
C864 C868 1.385 . S
C865 H840 0.951 . S
C865 C863 1.388 . S
C865 C866 1.366 . S
C866 C865 1.366 . S
C866 C867 1.414 . S
C866 C869 1.499 . S
C867 H841 0.950 . S
C867 C866 1.414 . S
C867 C868 1.374 . S
C868 H842 0.950 . S
C868 C864 1.385 . S
C868 C867 1.374 . S
C869 C866 1.499 . S
C869 C870 1.373 1_545 S
C869 C871 1.389 . S
C870 H843 0.950 . S
C870 C856 1.377 . S
C870 C869 1.373 1_565 S
C871 C855 1.377 . S
C871 C869 1.389 . S
C871 C872 1.524 . S
C872 C871 1.524 . S
C872 C873 1.397 . S
C872 C877 1.363 . S
C873 H844 0.950 . S
C873 C872 1.397 . S
C873 C874 1.334 . S
C874 H845 0.950 . S
C874 C873 1.334 . S
C874 C875 1.287 . S
C875 C874 1.287 . S
C875 C876 1.524 1_655 S
C875 H878 1.009 . S
C876 H846 0.950 . S
C876 C875 1.524 1_455 S
C876 C877 1.415 1_455 S
C877 H847 0.950 1_655 S
C877 C872 1.363 . S
C877 C876 1.415 1_655 S
H878 C875 1.009 . S
H879 C860 0.913 . S
H880 C898 0.951 . S
H881 C900 0.951 . S
H882 C902 0.950 . S
H883 C903 0.950 . S
H884 C905 0.950 . S
H885 C908 0.950 . S
H886 C909 0.950 . S
H887 C911 0.950 . S
H888 C912 0.950 . S
H889 C913 0.951 . S
H890 C915 0.951 . S
H891 C917 0.950 . S
H892 C918 0.950 . S
H893 C920 0.950 . S
H894 C923 0.950 . S
H895 C924 0.950 . S
H896 C926 0.950 . S
H897 C927 0.950 . S
C898 H880 0.951 . S
C898 C899 1.366 . S
C898 C900 1.388 . S
C899 C898 1.366 . S
C899 C903 1.385 . S
C900 H881 0.951 . S
C900 C898 1.388 . S
C900 C901 1.366 . S
C901 C900 1.366 . S
C901 C902 1.414 . S
C901 C904 1.499 . S
C902 H882 0.950 . S
C902 C901 1.414 . S
C902 C903 1.374 . S
C903 H883 0.950 . S
C903 C899 1.385 . S
C903 C902 1.374 . S
C904 C901 1.499 . S
C904 C905 1.373 . S
C904 C906 1.389 . S
C905 H884 0.950 . S
C905 C904 1.373 . S
C905 C921 1.377 . S
C906 C904 1.389 . S
C906 C907 1.524 . S
C906 C920 1.377 . S
C907 C906 1.524 . S
C907 C908 1.397 . S
C907 C912 1.363 . S
C908 H885 0.950 . S
C908 C907 1.397 . S
C908 C909 1.334 . S
C909 H886 0.950 . S
C909 C908 1.334 . S
C909 C910 1.287 . S
C910 C909 1.287 . S
C910 C911 1.524 . S
C910 H929 0.913 . S
C911 H887 0.950 . S
C911 C910 1.524 . S
C911 C912 1.415 . S
C912 H888 0.950 . S
C912 C907 1.363 . S
C912 C911 1.415 . S
C913 H889 0.951 . S
C913 C914 1.366 . S
C913 C915 1.388 . S
C914 C913 1.366 . S
C914 C918 1.385 . S
C915 H890 0.951 . S
C915 C913 1.388 . S
C915 C916 1.366 . S
C916 C915 1.366 . S
C916 C917 1.414 . S
C916 C919 1.499 . S
C917 H891 0.950 . S
C917 C916 1.414 . S
C917 C918 1.374 . S
C918 H892 0.950 . S
C918 C914 1.385 . S
C918 C917 1.374 . S
C919 C916 1.499 . S
C919 C920 1.373 . S
C919 C921 1.389 . S
C920 H893 0.950 . S
C920 C906 1.377 . S
C920 C919 1.373 . S
C921 C905 1.377 . S
C921 C919 1.389 . S
C921 C922 1.524 . S
C922 C921 1.524 . S
C922 C923 1.397 . S
C922 C927 1.363 . S
C923 H894 0.950 . S
C923 C922 1.397 . S
C923 C924 1.334 . S
C924 H895 0.950 . S
C924 C923 1.334 . S
C924 C925 1.287 . S
C925 C924 1.287 . S
C925 C926 1.524 . S
C925 H928 0.999 . S
C926 H896 0.950 . S
C926 C925 1.524 . S
C926 C927 1.415 . S
C927 H897 0.950 . S
C927 C922 1.363 . S
C927 C926 1.415 . S
H928 C925 0.999 . S
H929 C910 0.913 . S
H930 C948 0.951 . S
H931 C950 0.951 . S
H932 C952 0.950 . S
H933 C953 0.950 . S
H934 C955 0.950 . S
H935 C958 0.950 . S
H936 C959 0.950 . S
H937 C961 0.950 . S
H938 C962 0.950 . S
H939 C963 0.951 . S
H940 C965 0.951 . S
H941 C967 0.950 . S
H942 C968 0.950 . S
H943 C970 0.950 . S
H944 C973 0.950 . S
H945 C974 0.950 . S
H946 C976 0.950 . S
H947 C977 0.950 . S
C948 H930 0.951 . S
C948 C949 1.366 . S
C948 C950 1.388 . S
C949 C948 1.366 . S
C949 C953 1.385 . S
C950 H931 0.951 . S
C950 C948 1.388 . S
C950 C951 1.366 . S
C951 C950 1.366 . S
C951 C952 1.414 . S
C951 C954 1.499 . S
C952 H932 0.950 . S
C952 C951 1.414 . S
C952 C953 1.374 . S
C953 H933 0.950 . S
C953 C949 1.385 . S
C953 C952 1.374 . S
C954 C951 1.499 . S
C954 C955 1.373 . S
C954 C956 1.389 . S
C955 H934 0.950 . S
C955 C954 1.373 . S
C955 C971 1.377 . S
C956 C954 1.389 . S
C956 C957 1.524 . S
C956 C970 1.377 . S
C957 C956 1.524 . S
C957 C958 1.397 . S
C957 C962 1.363 . S
C958 H935 0.950 . S
C958 C957 1.397 . S
C958 C959 1.334 . S
C959 H936 0.950 . S
C959 C958 1.334 . S
C959 C960 1.287 . S
C960 C959 1.287 . S
C960 C961 1.524 . S
C960 H979 0.913 . S
C961 H937 0.950 . S
C961 C960 1.524 . S
C961 C962 1.415 . S
C962 H938 0.950 . S
C962 C957 1.363 . S
C962 C961 1.415 . S
C963 H939 0.951 . S
C963 C964 1.366 . S
C963 C965 1.388 . S
C964 C963 1.366 . S
C964 C968 1.385 . S
C965 H940 0.951 . S
C965 C963 1.388 . S
C965 C966 1.366 . S
C966 C965 1.366 . S
C966 C967 1.414 . S
C966 C969 1.499 . S
C967 H941 0.950 . S
C967 C966 1.414 . S
C967 C968 1.374 . S
C968 H942 0.950 . S
C968 C964 1.385 . S
C968 C967 1.374 . S
C969 C966 1.499 . S
C969 C970 1.373 . S
C969 C971 1.389 . S
C970 H943 0.950 . S
C970 C956 1.377 . S
C970 C969 1.373 . S
C971 C955 1.377 . S
C971 C969 1.389 . S
C971 C972 1.524 . S
C972 C971 1.524 . S
C972 C973 1.397 . S
C972 C977 1.363 . S
C973 H944 0.950 . S
C973 C972 1.397 . S
C973 C974 1.334 . S
C974 H945 0.950 . S
C974 C973 1.334 . S
C974 C975 1.287 . S
C975 C974 1.287 . S
C975 C976 1.524 . S
C975 H978 0.999 . S
C976 H946 0.950 . S
C976 C975 1.524 . S
C976 C977 1.415 . S
C977 H947 0.950 . S
C977 C972 1.363 . S
C977 C976 1.415 . S
H978 C975 0.999 . S
H979 C960 0.913 . S
H980 C998 0.951 . S
H981 C1000 0.951 . S
H982 C1002 0.950 . S
H983 C1003 0.950 . S
H984 C1005 0.950 . S
H985 C1008 0.950 . S
H986 C1009 0.950 . S
H987 C1011 0.950 . S
H988 C1012 0.950 . S
H989 C1013 0.951 . S
H990 C1015 0.951 . S
H991 C1017 0.950 . S
H992 C1018 0.950 . S
H993 C1020 0.950 . S
H994 C1023 0.950 . S
H995 C1024 0.950 . S
H996 C1026 0.950 . S
H997 C1027 0.950 . S
C998 H980 0.951 . S
C998 C999 1.366 . S
C998 C1000 1.388 . S
C999 C998 1.366 . S
C999 C1003 1.385 . S
C1000 H981 0.951 . S
C1000 C998 1.388 . S
C1000 C1001 1.366 . S
C1001 C1000 1.366 . S
C1001 C1002 1.414 . S
C1001 C1004 1.499 . S
C1002 H982 0.950 . S
C1002 C1001 1.414 . S
C1002 C1003 1.374 . S
C1003 H983 0.950 . S
C1003 C999 1.385 . S
C1003 C1002 1.374 . S
C1004 C1001 1.499 . S
C1004 C1005 1.373 . S
C1004 C1006 1.389 . S
C1005 H984 0.950 . S
C1005 C1004 1.373 . S
C1005 C1021 1.377 . S
C1006 C1004 1.389 . S
C1006 C1007 1.524 . S
C1006 C1020 1.377 . S
C1007 C1006 1.524 . S
C1007 C1008 1.397 . S
C1007 C1012 1.363 . S
C1008 H985 0.950 . S
C1008 C1007 1.397 . S
C1008 C1009 1.334 . S
C1009 H986 0.950 . S
C1009 C1008 1.334 . S
C1009 C1010 1.287 . S
C1010 C1009 1.287 . S
C1010 C1011 1.524 . S
C1010 H1029 0.913 . S
C1011 H987 0.950 . S
C1011 C1010 1.524 . S
C1011 C1012 1.415 . S
C1012 H988 0.950 . S
C1012 C1007 1.363 . S
C1012 C1011 1.415 . S
C1013 H989 0.951 . S
C1013 C1014 1.366 . S
C1013 C1015 1.388 . S
C1014 C1013 1.366 . S
C1014 C1018 1.385 . S
C1015 H990 0.951 . S
C1015 C1013 1.388 . S
C1015 C1016 1.366 . S
C1016 C1015 1.366 . S
C1016 C1017 1.414 . S
C1016 C1019 1.499 . S
C1017 H991 0.950 . S
C1017 C1016 1.414 . S
C1017 C1018 1.374 . S
C1018 H992 0.950 . S
C1018 C1014 1.385 . S
C1018 C1017 1.374 . S
C1019 C1016 1.499 . S
C1019 C1020 1.373 . S
C1019 C1021 1.389 . S
C1020 H993 0.950 . S
C1020 C1006 1.377 . S
C1020 C1019 1.373 . S
C1021 C1005 1.377 . S
C1021 C1019 1.389 . S
C1021 C1022 1.524 . S
C1022 C1021 1.524 . S
C1022 C1023 1.397 . S
C1022 C1027 1.363 . S
C1023 H994 0.950 . S
C1023 C1022 1.397 . S
C1023 C1024 1.334 . S
C1024 H995 0.950 . S
C1024 C1023 1.334 . S
C1024 C1025 1.287 . S
C1025 C1024 1.287 . S
C1025 C1026 1.524 . S
C1025 H1028 0.999 . S
C1026 H996 0.950 . S
C1026 C1025 1.524 . S
C1026 C1027 1.415 . S
C1027 H997 0.950 . S
C1027 C1022 1.363 . S
C1027 C1026 1.415 . S
H1028 C1025 0.999 . S
H1029 C1010 0.913 . S
H1030 C1048 0.951 . S
H1031 C1050 0.951 . S
H1032 C1052 0.950 . S
H1033 C1053 0.950 . S
H1034 C1055 0.950 . S
H1035 C1058 0.950 . S
H1036 C1059 0.969 . S
H1037 C1061 0.950 . S
H1038 C1062 0.950 . S
H1039 C1063 0.951 . S
H1040 C1065 0.951 . S
H1041 C1067 0.950 . S
H1042 C1068 0.950 . S
H1043 C1070 0.950 . S
H1044 C1073 0.950 . S
H1045 C1074 0.950 . S
H1046 C1076 0.950 . S
H1047 C1077 0.950 . S
C1048 H1030 0.951 . S
C1048 C1049 1.366 . S
C1048 C1050 1.388 . S
C1049 C1048 1.366 . S
C1049 C1053 1.385 . S
C1050 H1031 0.951 . S
C1050 C1048 1.388 . S
C1050 C1051 1.366 . S
C1051 C1050 1.366 . S
C1051 C1052 1.414 . S
C1051 C1054 1.499 . S
C1052 H1032 0.950 . S
C1052 C1051 1.414 . S
C1052 C1053 1.374 . S
C1053 H1033 0.950 . S
C1053 C1049 1.385 . S
C1053 C1052 1.374 . S
C1054 C1051 1.499 . S
C1054 C1055 1.373 . S
C1054 C1056 1.389 . S
C1055 H1034 0.950 . S
C1055 C1054 1.373 . S
C1055 C1071 1.377 . S
C1056 C1054 1.389 . S
C1056 C1057 1.524 . S
C1056 C1070 1.377 . S
C1057 C1056 1.524 . S
C1057 C1058 1.397 . S
C1057 C1062 1.363 . S
C1058 H1035 0.950 . S
C1058 C1057 1.397 . S
C1058 C1059 1.334 . S
C1059 H1036 0.969 . S
C1059 C1058 1.334 . S
C1059 C1060 1.287 . S
C1060 C1059 1.287 . S
C1060 C1061 1.524 . S
C1060 H1079 0.902 1_565 S
C1061 H1037 0.950 . S
C1061 C1060 1.524 . S
C1061 C1062 1.415 . S
C1062 H1038 0.950 . S
C1062 C1057 1.363 . S
C1062 C1061 1.415 . S
C1063 H1039 0.951 . S
C1063 C1064 1.366 . S
C1063 C1065 1.388 . S
C1064 C1063 1.366 . S
C1064 C1068 1.385 . S
C1065 H1040 0.951 . S
C1065 C1063 1.388 . S
C1065 C1066 1.366 . S
C1066 C1065 1.366 . S
C1066 C1067 1.414 . S
C1066 C1069 1.499 . S
C1067 H1041 0.950 . S
C1067 C1066 1.414 . S
C1067 C1068 1.374 . S
C1068 H1042 0.950 . S
C1068 C1064 1.385 . S
C1068 C1067 1.374 . S
C1069 C1066 1.499 . S
C1069 C1070 1.373 . S
C1069 C1071 1.389 . S
C1070 H1043 0.950 . S
C1070 C1056 1.377 . S
C1070 C1069 1.373 . S
C1071 C1055 1.377 . S
C1071 C1069 1.389 . S
C1071 C1072 1.524 . S
C1072 C1071 1.524 . S
C1072 C1073 1.397 . S
C1072 C1077 1.363 . S
C1073 H1044 0.950 . S
C1073 C1072 1.397 . S
C1073 C1074 1.334 . S
C1074 H1045 0.950 . S
C1074 C1073 1.334 . S
C1074 C1075 1.287 . S
C1075 C1074 1.287 . S
C1075 C1076 1.524 . S
C1075 H1078 0.999 . S
C1076 H1046 0.950 . S
C1076 C1075 1.524 . S
C1076 C1077 1.415 . S
C1077 H1047 0.950 . S
C1077 C1072 1.363 . S
C1077 C1076 1.415 . S
H1078 C1075 0.999 . S
H1079 C1060 0.902 1_545 S
H1080 C1098 0.951 . S
H1081 C1100 0.951 . S
H1082 C1102 0.950 . S
H1083 C1103 0.950 . S
H1084 C1105 0.950 . S
H1085 C1108 0.950 . S
H1086 C1109 0.950 . S
H1087 C1111 0.950 . S
H1088 C1112 0.950 . S
H1089 C1113 0.951 . S
H1090 C1115 0.951 . S
H1091 C1117 0.950 . S
H1092 C1118 0.950 . S
H1093 C1120 0.950 . S
H1094 C1123 0.950 . S
H1095 C1124 0.950 . S
H1096 C1126 0.950 . S
H1097 C1127 0.950 . S
C1098 H1080 0.951 . S
C1098 C1099 1.366 . S
C1098 C1100 1.388 . S
C1099 C1098 1.366 . S
C1099 C1103 1.385 . S
C1100 H1081 0.951 . S
C1100 C1098 1.388 . S
C1100 C1101 1.366 . S
C1101 C1100 1.366 . S
C1101 C1102 1.414 . S
C1101 C1104 1.499 . S
C1102 H1082 0.950 . S
C1102 C1101 1.414 . S
C1102 C1103 1.374 . S
C1103 H1083 0.950 . S
C1103 C1099 1.385 . S
C1103 C1102 1.374 . S
C1104 C1101 1.499 . S
C1104 C1105 1.373 . S
C1104 C1106 1.389 . S
C1105 H1084 0.950 . S
C1105 C1104 1.373 . S
C1105 C1121 1.377 . S
C1106 C1104 1.389 . S
C1106 C1107 1.524 . S
C1106 C1120 1.377 . S
C1107 C1106 1.524 . S
C1107 C1108 1.397 . S
C1107 C1112 1.363 . S
C1108 H1085 0.950 . S
C1108 C1107 1.397 . S
C1108 C1109 1.334 . S
C1109 H1086 0.950 . S
C1109 C1108 1.334 . S
C1109 C1110 1.287 . S
C1110 C1109 1.287 . S
C1110 C1111 1.524 . S
C1110 H1129 0.913 . S
C1111 H1087 0.950 . S
C1111 C1110 1.524 . S
C1111 C1112 1.415 . S
C1112 H1088 0.950 . S
C1112 C1107 1.363 . S
C1112 C1111 1.415 . S
C1113 H1089 0.951 . S
C1113 C1114 1.366 . S
C1113 C1115 1.388 . S
C1114 C1113 1.366 . S
C1114 C1118 1.385 . S
C1115 H1090 0.951 . S
C1115 C1113 1.388 . S
C1115 C1116 1.366 . S
C1116 C1115 1.366 . S
C1116 C1117 1.414 . S
C1116 C1119 1.499 . S
C1117 H1091 0.950 . S
C1117 C1116 1.414 . S
C1117 C1118 1.374 . S
C1118 H1092 0.950 . S
C1118 C1114 1.385 . S
C1118 C1117 1.374 . S
C1119 C1116 1.499 . S
C1119 C1120 1.373 . S
C1119 C1121 1.389 . S
C1120 H1093 0.950 . S
C1120 C1106 1.377 . S
C1120 C1119 1.373 . S
C1121 C1105 1.377 . S
C1121 C1119 1.389 . S
C1121 C1122 1.524 . S
C1122 C1121 1.524 . S
C1122 C1123 1.397 . S
C1122 C1127 1.363 . S
C1123 H1094 0.950 . S
C1123 C1122 1.397 . S
C1123 C1124 1.334 . S
C1124 H1095 0.950 . S
C1124 C1123 1.334 . S
C1124 C1125 1.287 . S
C1125 C1124 1.287 . S
C1125 C1126 1.524 . S
C1125 H1128 0.999 . S
C1126 H1096 0.950 . S
C1126 C1125 1.524 . S
C1126 C1127 1.415 . S
C1127 H1097 0.950 . S
C1127 C1122 1.363 . S
C1127 C1126 1.415 . S
H1128 C1125 0.999 . S
H1129 C1110 0.913 . S
H1130 C1148 0.951 . S
H1131 C1150 0.951 . S
H1132 C1152 0.950 . S
H1133 C1153 0.950 . S
H1134 C1155 0.950 . S
H1135 C1158 0.950 . S
H1136 C1159 0.950 . S
H1137 C1161 0.950 . S
H1138 C1162 0.950 . S
H1139 C1163 0.951 . S
H1140 C1165 0.951 . S
H1141 C1167 0.950 . S
H1142 C1168 0.950 . S
H1143 C1170 0.950 . S
H1144 C1173 0.950 . S
H1145 C1174 0.950 . S
H1146 C1176 0.950 . S
H1147 C1177 0.950 . S
C1148 H1130 0.951 . S
C1148 C1149 1.366 . S
C1148 C1150 1.388 . S
C1149 C1148 1.366 . S
C1149 C1153 1.385 . S
C1150 H1131 0.951 . S
C1150 C1148 1.388 . S
C1150 C1151 1.366 . S
C1151 C1150 1.366 . S
C1151 C1152 1.414 . S
C1151 C1154 1.499 . S
C1152 H1132 0.950 . S
C1152 C1151 1.414 . S
C1152 C1153 1.374 . S
C1153 H1133 0.950 . S
C1153 C1149 1.385 . S
C1153 C1152 1.374 . S
C1154 C1151 1.499 . S
C1154 C1155 1.373 . S
C1154 C1156 1.389 . S
C1155 H1134 0.950 . S
C1155 C1154 1.373 . S
C1155 C1171 1.377 . S
C1156 C1154 1.389 . S
C1156 C1157 1.524 . S
C1156 C1170 1.377 . S
C1157 C1156 1.524 . S
C1157 C1158 1.397 . S
C1157 C1162 1.363 . S
C1158 H1135 0.950 . S
C1158 C1157 1.397 . S
C1158 C1159 1.334 . S
C1159 H1136 0.950 . S
C1159 C1158 1.334 . S
C1159 C1160 1.287 . S
C1160 C1159 1.287 . S
C1160 C1161 1.524 . S
C1160 H1179 0.913 . S
C1161 H1137 0.950 . S
C1161 C1160 1.524 . S
C1161 C1162 1.415 . S
C1162 H1138 0.950 . S
C1162 C1157 1.363 . S
C1162 C1161 1.415 . S
C1163 H1139 0.951 . S
C1163 C1164 1.366 . S
C1163 C1165 1.388 . S
C1164 C1163 1.366 . S
C1164 C1168 1.385 . S
C1165 H1140 0.951 . S
C1165 C1163 1.388 . S
C1165 C1166 1.366 . S
C1166 C1165 1.366 . S
C1166 C1167 1.414 . S
C1166 C1169 1.499 . S
C1167 H1141 0.950 . S
C1167 C1166 1.414 . S
C1167 C1168 1.374 . S
C1168 H1142 0.950 . S
C1168 C1164 1.385 . S
C1168 C1167 1.374 . S
C1169 C1166 1.499 . S
C1169 C1170 1.373 . S
C1169 C1171 1.389 . S
C1170 H1143 0.950 . S
C1170 C1156 1.377 . S
C1170 C1169 1.373 . S
C1171 C1155 1.377 . S
C1171 C1169 1.389 . S
C1171 C1172 1.524 . S
C1172 C1171 1.524 . S
C1172 C1173 1.397 . S
C1172 C1177 1.363 . S
C1173 H1144 0.950 . S
C1173 C1172 1.397 . S
C1173 C1174 1.334 . S
C1174 H1145 0.950 . S
C1174 C1173 1.334 . S
C1174 C1175 1.287 . S
C1175 C1174 1.287 . S
C1175 C1176 1.524 . S
C1175 H1178 0.999 . S
C1176 H1146 0.950 . S
C1176 C1175 1.524 . S
C1176 C1177 1.415 . S
C1177 H1147 0.950 . S
C1177 C1172 1.363 . S
C1177 C1176 1.415 . S
H1178 C1175 0.999 . S
H1179 C1160 0.913 . S
H1180 C1198 0.951 . S
H1181 C1200 0.951 . S
H1182 C1202 0.950 . S
H1183 C1203 0.950 . S
H1184 C1205 0.950 . S
H1185 C1208 0.950 . S
H1186 C1209 0.950 . S
H1187 C1211 0.950 . S
H1188 C1212 0.950 . S
H1189 C1213 0.951 . S
H1190 C1215 0.951 . S
H1191 C1217 0.950 . S
H1192 C1218 0.950 . S
H1193 C1220 0.950 . S
H1194 C1223 0.950 . S
H1195 C1224 0.950 . S
H1196 C1226 0.950 . S
H1197 C1227 0.950 . S
C1198 H1180 0.951 . S
C1198 C1199 1.366 . S
C1198 C1200 1.388 . S
C1199 C1198 1.366 . S
C1199 C1203 1.385 . S
C1200 H1181 0.951 . S
C1200 C1198 1.388 . S
C1200 C1201 1.366 . S
C1201 C1200 1.366 . S
C1201 C1202 1.414 . S
C1201 C1204 1.499 . S
C1202 H1182 0.950 . S
C1202 C1201 1.414 . S
C1202 C1203 1.374 . S
C1203 H1183 0.950 . S
C1203 C1199 1.385 . S
C1203 C1202 1.374 . S
C1204 C1201 1.499 . S
C1204 C1205 1.373 . S
C1204 C1206 1.389 . S
C1205 H1184 0.950 . S
C1205 C1204 1.373 . S
C1205 C1221 1.377 . S
C1206 C1204 1.389 . S
C1206 C1207 1.524 . S
C1206 C1220 1.377 . S
C1207 C1206 1.524 . S
C1207 C1208 1.397 . S
C1207 C1212 1.363 . S
C1208 H1185 0.950 . S
C1208 C1207 1.397 . S
C1208 C1209 1.334 . S
C1209 H1186 0.950 . S
C1209 C1208 1.334 . S
C1209 C1210 1.287 . S
C1210 C1209 1.287 . S
C1210 C1211 1.524 . S
C1210 H1229 0.913 . S
C1211 H1187 0.950 . S
C1211 C1210 1.524 . S
C1211 C1212 1.415 . S
C1212 H1188 0.950 . S
C1212 C1207 1.363 . S
C1212 C1211 1.415 . S
C1213 H1189 0.951 . S
C1213 C1214 1.366 . S
C1213 C1215 1.388 . S
C1214 C1213 1.366 . S
C1214 C1218 1.385 . S
C1215 H1190 0.951 . S
C1215 C1213 1.388 . S
C1215 C1216 1.366 . S
C1216 C1215 1.366 . S
C1216 C1217 1.414 . S
C1216 C1219 1.499 . S
C1217 H1191 0.950 . S
C1217 C1216 1.414 . S
C1217 C1218 1.374 . S
C1218 H1192 0.950 . S
C1218 C1214 1.385 . S
C1218 C1217 1.374 . S
C1219 C1216 1.499 . S
C1219 C1220 1.373 . S
C1219 C1221 1.389 . S
C1220 H1193 0.950 . S
C1220 C1206 1.377 . S
C1220 C1219 1.373 . S
C1221 C1205 1.377 . S
C1221 C1219 1.389 . S
C1221 C1222 1.524 . S
C1222 C1221 1.524 . S
C1222 C1223 1.397 . S
C1222 C1227 1.363 . S
C1223 H1194 0.950 . S
C1223 C1222 1.397 . S
C1223 C1224 1.334 . S
C1224 H1195 0.950 . S
C1224 C1223 1.334 . S
C1224 C1225 1.287 . S
C1225 C1224 1.287 . S
C1225 C1226 1.524 . S
C1225 H1228 0.999 . S
C1226 H1196 0.950 . S
C1226 C1225 1.524 . S
C1226 C1227 1.415 . S
C1227 H1197 0.950 . S
C1227 C1222 1.363 . S
C1227 C1226 1.415 . S
H1228 C1225 0.999 . S
H1229 C1210 0.913 . S
H1230 C1248 0.951 . S
H1231 C1250 0.951 . S
H1232 C1252 0.950 . S
H1233 C1253 0.950 . S
H1234 C1255 0.950 . S
H1235 C1258 0.950 . S
H1236 C1259 0.950 . S
H1237 C1261 0.950 . S
H1238 C1262 0.950 . S
H1239 C1263 0.951 . S
H1240 C1265 0.951 . S
H1241 C1267 0.950 . S
H1242 C1268 0.950 . S
H1243 C1270 0.950 . S
H1244 C1273 0.950 . S
H1245 C1274 0.950 . S
H1246 C1276 0.950 . S
H1247 C1277 0.950 . S
C1248 H1230 0.951 . S
C1248 C1249 1.366 . S
C1248 C1250 1.388 . S
C1249 C1248 1.366 . S
C1249 C1253 1.385 . S
C1250 H1231 0.951 . S
C1250 C1248 1.388 . S
C1250 C1251 1.366 . S
C1251 C1250 1.366 . S
C1251 C1252 1.414 . S
C1251 C1254 1.499 . S
C1252 H1232 0.950 . S
C1252 C1251 1.414 . S
C1252 C1253 1.374 . S
C1253 H1233 0.950 . S
C1253 C1249 1.385 . S
C1253 C1252 1.374 . S
C1254 C1251 1.499 . S
C1254 C1255 1.373 . S
C1254 C1256 1.389 . S
C1255 H1234 0.950 . S
C1255 C1254 1.373 . S
C1255 C1271 1.377 . S
C1256 C1254 1.389 . S
C1256 C1257 1.524 . S
C1256 C1270 1.377 . S
C1257 C1256 1.524 . S
C1257 C1258 1.397 . S
C1257 C1262 1.363 . S
C1258 H1235 0.950 . S
C1258 C1257 1.397 . S
C1258 C1259 1.334 . S
C1259 H1236 0.950 . S
C1259 C1258 1.334 . S
C1259 C1260 1.287 . S
C1260 C1259 1.287 . S
C1260 C1261 1.524 . S
C1260 H1279 0.913 . S
C1261 H1237 0.950 . S
C1261 C1260 1.524 . S
C1261 C1262 1.415 . S
C1262 H1238 0.950 . S
C1262 C1257 1.363 . S
C1262 C1261 1.415 . S
C1263 H1239 0.951 . S
C1263 C1264 1.366 . S
C1263 C1265 1.388 . S
C1264 C1263 1.366 . S
C1264 C1268 1.385 . S
C1265 H1240 0.951 . S
C1265 C1263 1.388 . S
C1265 C1266 1.366 . S
C1266 C1265 1.366 . S
C1266 C1267 1.414 . S
C1266 C1269 1.499 . S
C1267 H1241 0.950 . S
C1267 C1266 1.414 . S
C1267 C1268 1.374 . S
C1268 H1242 0.950 . S
C1268 C1264 1.385 . S
C1268 C1267 1.374 . S
C1269 C1266 1.499 . S
C1269 C1270 1.373 . S
C1269 C1271 1.389 . S
C1270 H1243 0.950 . S
C1270 C1256 1.377 . S
C1270 C1269 1.373 . S
C1271 C1255 1.377 . S
C1271 C1269 1.389 . S
C1271 C1272 1.524 . S
C1272 C1271 1.524 . S
C1272 C1273 1.397 . S
C1272 C1277 1.363 . S
C1273 H1244 0.950 . S
C1273 C1272 1.397 . S
C1273 C1274 1.334 . S
C1274 H1245 0.950 . S
C1274 C1273 1.334 . S
C1274 C1275 1.287 . S
C1275 C1274 1.287 . S
C1275 C1276 1.524 . S
C1275 H1278 0.999 . S
C1276 H1246 0.950 . S
C1276 C1275 1.524 . S
C1276 C1277 1.415 . S
C1277 H1247 0.950 . S
C1277 C1272 1.363 . S
C1277 C1276 1.415 . S
H1278 C1275 0.999 . S
H1279 C1260 0.913 . S
H1280 C1298 0.951 . S
H1281 C1300 0.951 . S
H1282 C1302 0.950 . S
H1283 C1303 0.950 . S
H1284 C1305 0.950 . S
H1285 C1308 0.950 . S
H1286 C1309 0.950 . S
H1287 C1311 0.950 . S
H1288 C1312 0.950 . S
H1289 C1313 0.951 . S
H1290 C1315 0.951 . S
H1291 C1317 0.950 . S
H1292 C1318 0.950 . S
H1293 C1320 0.950 . S
H1294 C1323 0.950 . S
H1295 C1324 0.950 . S
H1296 C1326 0.950 . S
H1297 C1327 0.950 . S
C1298 H1280 0.951 . S
C1298 C1299 1.366 . S
C1298 C1300 1.388 . S
C1299 C1298 1.366 . S
C1299 C1303 1.385 . S
C1300 H1281 0.951 . S
C1300 C1298 1.388 . S
C1300 C1301 1.366 . S
C1301 C1300 1.366 . S
C1301 C1302 1.414 . S
C1301 C1304 1.499 . S
C1302 H1282 0.950 . S
C1302 C1301 1.414 . S
C1302 C1303 1.374 . S
C1303 H1283 0.950 . S
C1303 C1299 1.385 . S
C1303 C1302 1.374 . S
C1304 C1301 1.499 . S
C1304 C1305 1.373 . S
C1304 C1306 1.389 . S
C1305 H1284 0.950 . S
C1305 C1304 1.373 . S
C1305 C1321 1.377 . S
C1306 C1304 1.389 . S
C1306 C1307 1.524 . S
C1306 C1320 1.377 . S
C1307 C1306 1.524 . S
C1307 C1308 1.397 . S
C1307 C1312 1.363 . S
C1308 H1285 0.950 . S
C1308 C1307 1.397 . S
C1308 C1309 1.334 . S
C1309 H1286 0.950 . S
C1309 C1308 1.334 . S
C1309 C1310 1.287 . S
C1310 C1309 1.287 . S
C1310 C1311 1.524 . S
C1310 H1329 0.913 . S
C1311 H1287 0.950 . S
C1311 C1310 1.524 . S
C1311 C1312 1.415 . S
C1312 H1288 0.950 . S
C1312 C1307 1.363 . S
C1312 C1311 1.415 . S
C1313 H1289 0.951 . S
C1313 C1314 1.366 . S
C1313 C1315 1.388 . S
C1314 C1313 1.366 . S
C1314 C1318 1.385 . S
C1315 H1290 0.951 . S
C1315 C1313 1.388 . S
C1315 C1316 1.366 . S
C1316 C1315 1.366 . S
C1316 C1317 1.414 . S
C1316 C1319 1.499 . S
C1317 H1291 0.950 . S
C1317 C1316 1.414 . S
C1317 C1318 1.374 . S
C1318 H1292 0.950 . S
C1318 C1314 1.385 . S
C1318 C1317 1.374 . S
C1319 C1316 1.499 . S
C1319 C1320 1.373 . S
C1319 C1321 1.389 . S
C1320 H1293 0.950 . S
C1320 C1306 1.377 . S
C1320 C1319 1.373 . S
C1321 C1305 1.377 . S
C1321 C1319 1.389 . S
C1321 C1322 1.524 . S
C1322 C1321 1.524 . S
C1322 C1323 1.397 . S
C1322 C1327 1.363 . S
C1323 H1294 0.950 . S
C1323 C1322 1.397 . S
C1323 C1324 1.334 . S
C1324 H1295 0.950 . S
C1324 C1323 1.334 . S
C1324 C1325 1.287 . S
C1325 C1324 1.287 . S
C1325 C1326 1.524 . S
C1325 H1328 0.999 . S
C1326 H1296 0.950 . S
C1326 C1325 1.524 . S
C1326 C1327 1.415 . S
C1327 H1297 0.950 . S
C1327 C1322 1.363 . S
C1327 C1326 1.415 . S
H1328 C1325 0.999 . S
H1329 C1310 0.913 . S
H1330 C1348 0.951 . S
H1331 C1350 0.951 . S
H1332 C1352 0.950 . S
H1333 C1353 0.950 . S
H1334 C1355 0.950 . S
H1335 C1358 0.950 . S
H1336 C1359 0.950 . S
H1337 C1361 0.950 . S
H1338 C1362 0.950 . S
H1339 C1363 0.951 . S
H1340 C1365 0.951 . S
H1341 C1367 0.950 . S
H1342 C1368 0.950 . S
H1343 C1370 0.950 . S
H1344 C1373 0.950 . S
H1345 C1374 0.950 . S
H1346 C1376 0.950 . S
H1347 C1377 0.950 . S
C1348 H1330 0.951 . S
C1348 C1349 1.366 . S
C1348 C1350 1.388 . S
C1349 C1348 1.366 . S
C1349 C1353 1.385 . S
C1350 H1331 0.951 . S
C1350 C1348 1.388 . S
C1350 C1351 1.366 . S
C1351 C1350 1.366 . S
C1351 C1352 1.414 . S
C1351 C1354 1.499 . S
C1352 H1332 0.950 . S
C1352 C1351 1.414 . S
C1352 C1353 1.374 . S
C1353 H1333 0.950 . S
C1353 C1349 1.385 . S
C1353 C1352 1.374 . S
C1354 C1351 1.499 . S
C1354 C1355 1.373 . S
C1354 C1356 1.389 . S
C1355 H1334 0.950 . S
C1355 C1354 1.373 . S
C1355 C1371 1.377 . S
C1356 C1354 1.389 . S
C1356 C1357 1.524 . S
C1356 C1370 1.377 . S
C1357 C1356 1.524 . S
C1357 C1358 1.397 . S
C1357 C1362 1.363 . S
C1358 H1335 0.950 . S
C1358 C1357 1.397 . S
C1358 C1359 1.334 . S
C1359 H1336 0.950 . S
C1359 C1358 1.334 . S
C1359 C1360 1.287 1_455 S
C1360 C1359 1.287 1_655 S
C1360 C1361 1.524 . S
C1360 H1379 0.913 . S
C1361 H1337 0.950 . S
C1361 C1360 1.524 . S
C1361 C1362 1.415 1_655 S
C1362 H1338 0.950 . S
C1362 C1357 1.363 . S
C1362 C1361 1.415 1_455 S
C1363 H1339 0.951 . S
C1363 C1364 1.366 . S
C1363 C1365 1.388 . S
C1364 C1363 1.366 . S
C1364 C1368 1.385 . S
C1365 H1340 0.951 . S
C1365 C1363 1.388 . S
C1365 C1366 1.366 . S
C1366 C1365 1.366 . S
C1366 C1367 1.414 . S
C1366 C1369 1.499 . S
C1367 H1341 0.950 . S
C1367 C1366 1.414 . S
C1367 C1368 1.374 . S
C1368 H1342 0.950 . S
C1368 C1364 1.385 . S
C1368 C1367 1.374 . S
C1369 C1366 1.499 . S
C1369 C1370 1.373 . S
C1369 C1371 1.389 . S
C1370 H1343 0.950 . S
C1370 C1356 1.377 . S
C1370 C1369 1.373 . S
C1371 C1355 1.377 . S
C1371 C1369 1.389 . S
C1371 C1372 1.524 . S
C1372 C1371 1.524 . S
C1372 C1373 1.397 . S
C1372 C1377 1.363 . S
C1373 H1344 0.950 . S
C1373 C1372 1.397 . S
C1373 C1374 1.334 . S
C1374 H1345 0.950 . S
C1374 C1373 1.334 . S
C1374 C1375 1.287 . S
C1375 C1374 1.287 . S
C1375 C1376 1.524 . S
C1375 H1378 0.999 . S
C1376 H1346 0.950 . S
C1376 C1375 1.524 . S
C1376 C1377 1.415 . S
C1377 H1347 0.950 . S
C1377 C1372 1.363 . S
C1377 C1376 1.415 . S
H1378 C1375 0.999 . S
H1379 C1360 0.913 . S
H1380 C1398 0.951 . S
H1381 C1400 0.951 . S
H1382 C1402 0.950 . S
H1383 C1403 0.950 . S
H1384 C1405 0.950 . S
H1385 C1408 0.950 . S
H1386 C1409 0.950 . S
H1387 C1411 0.950 . S
H1388 C1412 0.950 . S
H1389 C1413 0.951 . S
H1390 C1415 0.951 . S
H1391 C1417 0.950 . S
H1392 C1418 0.950 . S
H1393 C1420 0.950 . S
H1394 C1423 0.950 . S
H1395 C1424 0.950 . S
H1396 C1426 0.950 . S
H1397 C1427 0.950 . S
C1398 H1380 0.951 . S
C1398 C1399 1.366 . S
C1398 C1400 1.388 . S
C1399 C1398 1.366 . S
C1399 C1403 1.385 . S
C1400 H1381 0.951 . S
C1400 C1398 1.388 . S
C1400 C1401 1.366 . S
C1401 C1400 1.366 . S
C1401 C1402 1.414 . S
C1401 C1404 1.499 . S
C1402 H1382 0.950 . S
C1402 C1401 1.414 . S
C1402 C1403 1.374 . S
C1403 H1383 0.950 . S
C1403 C1399 1.385 . S
C1403 C1402 1.374 . S
C1404 C1401 1.499 . S
C1404 C1405 1.373 . S
C1404 C1406 1.389 . S
C1405 H1384 0.950 . S
C1405 C1404 1.373 . S
C1405 C1421 1.377 . S
C1406 C1404 1.389 . S
C1406 C1407 1.524 . S
C1406 C1420 1.377 . S
C1407 C1406 1.524 . S
C1407 C1408 1.397 . S
C1407 C1412 1.363 . S
C1408 H1385 0.950 . S
C1408 C1407 1.397 . S
C1408 C1409 1.334 . S
C1409 H1386 0.950 . S
C1409 C1408 1.334 . S
C1409 C1410 1.287 . S
C1410 C1409 1.287 . S
C1410 C1411 1.524 . S
C1410 H1429 0.913 . S
C1411 H1387 0.950 . S
C1411 C1410 1.524 . S
C1411 C1412 1.415 . S
C1412 H1388 0.950 . S
C1412 C1407 1.363 . S
C1412 C1411 1.415 . S
C1413 H1389 0.951 . S
C1413 C1414 1.366 . S
C1413 C1415 1.388 . S
C1414 C1413 1.366 . S
C1414 C1418 1.385 . S
C1415 H1390 0.951 . S
C1415 C1413 1.388 . S
C1415 C1416 1.366 . S
C1416 C1415 1.366 . S
C1416 C1417 1.414 . S
C1416 C1419 1.499 . S
C1417 H1391 0.950 . S
C1417 C1416 1.414 . S
C1417 C1418 1.374 . S
C1418 H1392 0.950 . S
C1418 C1414 1.385 . S
C1418 C1417 1.374 . S
C1419 C1416 1.499 . S
C1419 C1420 1.373 . S
C1419 C1421 1.389 . S
C1420 H1393 0.950 . S
C1420 C1406 1.377 . S
C1420 C1419 1.373 . S
C1421 C1405 1.377 . S
C1421 C1419 1.389 . S
C1421 C1422 1.524 . S
C1422 C1421 1.524 . S
C1422 C1423 1.397 . S
C1422 C1427 1.363 . S
C1423 H1394 0.950 . S
C1423 C1422 1.397 . S
C1423 C1424 1.334 . S
C1424 H1395 0.950 . S
C1424 C1423 1.334 . S
C1424 C1425 1.287 . S
C1425 C1424 1.287 . S
C1425 C1426 1.524 . S
C1425 H1428 0.999 . S
C1426 H1396 0.950 . S
C1426 C1425 1.524 . S
C1426 C1427 1.415 . S
C1427 H1397 0.950 . S
C1427 C1422 1.363 . S
C1427 C1426 1.415 . S
H1428 C1425 0.999 . S
H1429 C1410 0.913 . S
H1430 C1448 0.951 . S
H1431 C1450 0.951 . S
H1432 C1452 0.950 . S
H1433 C1453 0.950 . S
H1434 C1455 0.950 . S
H1435 C1458 0.950 . S
H1436 C1459 0.950 . S
H1437 C1461 0.950 . S
H1438 C1462 0.950 . S
H1439 C1463 0.951 . S
H1440 C1465 0.951 . S
H1441 C1467 0.950 . S
H1442 C1468 0.950 1_455 S
H1443 C1470 0.950 . S
H1444 C1473 0.950 . S
H1445 C1474 0.950 . S
H1446 C1476 0.950 . S
H1447 C1477 0.950 . S
C1448 H1430 0.951 . S
C1448 C1449 1.366 . S
C1448 C1450 1.388 . S
C1449 C1448 1.366 . S
C1449 C1453 1.385 . S
C1450 H1431 0.951 . S
C1450 C1448 1.388 . S
C1450 C1451 1.366 . S
C1451 C1450 1.366 . S
C1451 C1452 1.414 . S
C1451 C1454 1.499 . S
C1452 H1432 0.950 . S
C1452 C1451 1.414 . S
C1452 C1453 1.374 . S
C1453 H1433 0.950 . S
C1453 C1449 1.385 . S
C1453 C1452 1.374 . S
C1454 C1451 1.499 . S
C1454 C1455 1.373 . S
C1454 C1456 1.389 . S
C1455 H1434 0.950 . S
C1455 C1454 1.373 . S
C1455 C1471 1.377 . S
C1456 C1454 1.389 . S
C1456 C1457 1.524 . S
C1456 C1470 1.377 . S
C1457 C1456 1.524 . S
C1457 C1458 1.397 . S
C1457 C1462 1.363 . S
C1458 H1435 0.950 . S
C1458 C1457 1.397 . S
C1458 C1459 1.334 . S
C1459 H1436 0.950 . S
C1459 C1458 1.334 . S
C1459 C1460 1.287 . S
C1460 C1459 1.287 . S
C1460 C1461 1.524 . S
C1460 H1479 0.913 . S
C1461 H1437 0.950 . S
C1461 C1460 1.524 . S
C1461 C1462 1.415 . S
C1462 H1438 0.950 . S
C1462 C1457 1.363 . S
C1462 C1461 1.415 . S
C1463 H1439 0.951 . S
C1463 C1464 1.366 . S
C1463 C1465 1.388 . S
C1464 C1463 1.366 . S
C1464 C1468 1.385 . S
C1465 H1440 0.951 . S
C1465 C1463 1.388 . S
C1465 C1466 1.366 . S
C1466 C1465 1.366 . S
C1466 C1467 1.414 . S
C1466 C1469 1.499 . S
C1467 H1441 0.950 . S
C1467 C1466 1.414 . S
C1467 C1468 1.374 . S
C1468 H1442 0.950 1_655 S
C1468 C1464 1.385 . S
C1468 C1467 1.374 . S
C1469 C1466 1.499 . S
C1469 C1470 1.373 . S
C1469 C1471 1.389 . S
C1470 H1443 0.950 . S
C1470 C1456 1.377 . S
C1470 C1469 1.373 . S
C1471 C1455 1.377 . S
C1471 C1469 1.389 . S
C1471 C1472 1.524 . S
C1472 C1471 1.524 . S
C1472 C1473 1.397 . S
C1472 C1477 1.363 . S
C1473 H1444 0.950 . S
C1473 C1472 1.397 . S
C1473 C1474 1.334 . S
C1474 H1445 0.950 . S
C1474 C1473 1.334 . S
C1474 C1475 1.287 . S
C1475 C1474 1.287 . S
C1475 C1476 1.524 . S
C1475 H1478 0.999 . S
C1476 H1446 0.950 . S
C1476 C1475 1.524 . S
C1476 C1477 1.415 . S
C1477 H1447 0.950 . S
C1477 C1472 1.363 . S
C1477 C1476 1.415 . S
H1478 C1475 0.999 . S
H1479 C1460 0.913 . S
H1480 C1498 0.951 . S
H1481 C1500 0.951 . S
H1482 C1502 0.950 . S
H1483 C1503 0.950 . S
H1484 C1505 0.950 . S
H1485 C1508 0.950 . S
H1486 C1509 0.950 . S
H1487 C1511 0.950 . S
H1488 C1512 0.950 . S
H1489 C1513 0.951 . S
H1490 C1515 0.951 . S
H1491 C1517 0.950 . S
H1492 C1518 0.950 . S
H1493 C1520 0.950 . S
H1494 C1523 0.950 . S
H1495 C1524 0.950 . S
H1496 C1526 0.950 . S
H1497 C1527 0.950 . S
C1498 H1480 0.951 . S
C1498 C1499 1.366 . S
C1498 C1500 1.388 . S
C1499 C1498 1.366 . S
C1499 C1503 1.385 . S
C1500 H1481 0.951 . S
C1500 C1498 1.388 . S
C1500 C1501 1.366 . S
C1501 C1500 1.366 . S
C1501 C1502 1.414 . S
C1501 C1504 1.499 . S
C1502 H1482 0.950 . S
C1502 C1501 1.414 . S
C1502 C1503 1.374 . S
C1503 H1483 0.950 . S
C1503 C1499 1.385 . S
C1503 C1502 1.374 . S
C1504 C1501 1.499 . S
C1504 C1505 1.373 . S
C1504 C1506 1.389 . S
C1505 H1484 0.950 . S
C1505 C1504 1.373 . S
C1505 C1521 1.377 . S
C1506 C1504 1.389 . S
C1506 C1507 1.524 . S
C1506 C1520 1.377 . S
C1507 C1506 1.524 . S
C1507 C1508 1.397 . S
C1507 C1512 1.363 . S
C1508 H1485 0.950 . S
C1508 C1507 1.397 . S
C1508 C1509 1.334 . S
C1509 H1486 0.950 . S
C1509 C1508 1.334 . S
C1509 C1510 1.287 . S
C1510 C1509 1.287 . S
C1510 C1511 1.524 . S
C1510 H1529 0.913 . S
C1511 H1487 0.950 . S
C1511 C1510 1.524 . S
C1511 C1512 1.415 . S
C1512 H1488 0.950 . S
C1512 C1507 1.363 . S
C1512 C1511 1.415 . S
C1513 H1489 0.951 . S
C1513 C1514 1.366 . S
C1513 C1515 1.388 1_545 S
C1514 C1513 1.366 . S
C1514 C1518 1.385 1_545 S
C1515 H1490 0.951 . S
C1515 C1513 1.388 1_565 S
C1515 C1516 1.366 . S
C1516 C1515 1.366 . S
C1516 C1517 1.414 . S
C1516 C1519 1.499 . S
C1517 H1491 0.950 . S
C1517 C1516 1.414 . S
C1517 C1518 1.374 . S
C1518 H1492 0.950 . S
C1518 C1514 1.385 1_565 S
C1518 C1517 1.374 . S
C1519 C1516 1.499 . S
C1519 C1520 1.373 . S
C1519 C1521 1.389 . S
C1520 H1493 0.950 . S
C1520 C1506 1.377 . S
C1520 C1519 1.373 . S
C1521 C1505 1.377 . S
C1521 C1519 1.389 . S
C1521 C1522 1.524 . S
C1522 C1521 1.524 . S
C1522 C1523 1.397 . S
C1522 C1527 1.363 . S
C1523 H1494 0.950 . S
C1523 C1522 1.397 . S
C1523 C1524 1.334 . S
C1524 H1495 0.950 . S
C1524 C1523 1.334 . S
C1524 C1525 1.287 . S
C1525 C1524 1.287 . S
C1525 C1526 1.524 . S
C1525 H1528 0.999 . S
C1526 H1496 0.950 . S
C1526 C1525 1.524 . S
C1526 C1527 1.415 . S
C1527 H1497 0.950 . S
C1527 C1522 1.363 . S
C1527 C1526 1.415 . S
H1528 C1525 0.999 . S
H1529 C1510 0.913 . S
H1530 C1548 0.951 . S
H1531 C1550 0.951 . S
H1532 C1552 0.950 . S
H1533 C1553 0.950 . S
H1534 C1555 0.950 . S
H1535 C1558 0.950 . S
H1536 C1559 0.950 . S
H1537 C1561 0.950 . S
H1538 C1562 0.950 . S
H1539 C1563 0.951 . S
H1540 C1565 0.951 . S
H1541 C1567 0.950 . S
H1542 C1568 0.950 . S
H1543 C1570 0.950 . S
H1544 C1573 0.950 . S
H1545 C1574 0.950 . S
H1546 C1576 0.950 . S
H1547 C1577 0.950 . S
C1548 H1530 0.951 . S
C1548 C1549 1.366 . S
C1548 C1550 1.388 . S
C1549 C1548 1.366 . S
C1549 C1553 1.385 . S
C1550 H1531 0.951 . S
C1550 C1548 1.388 . S
C1550 C1551 1.366 . S
C1551 C1550 1.366 . S
C1551 C1552 1.414 . S
C1551 C1554 1.499 . S
C1552 H1532 0.950 . S
C1552 C1551 1.414 . S
C1552 C1553 1.374 . S
C1553 H1533 0.950 . S
C1553 C1549 1.385 . S
C1553 C1552 1.374 . S
C1554 C1551 1.499 . S
C1554 C1555 1.373 . S
C1554 C1556 1.389 . S
C1555 H1534 0.950 . S
C1555 C1554 1.373 . S
C1555 C1571 1.377 . S
C1556 C1554 1.389 . S
C1556 C1557 1.524 . S
C1556 C1570 1.377 . S
C1557 C1556 1.524 . S
C1557 C1558 1.397 . S
C1557 C1562 1.363 . S
C1558 H1535 0.950 . S
C1558 C1557 1.397 . S
C1558 C1559 1.334 . S
C1559 H1536 0.950 . S
C1559 C1558 1.334 . S
C1559 C1560 1.287 . S
C1560 C1559 1.287 . S
C1560 C1561 1.524 . S
C1560 H1579 0.913 . S
C1561 H1537 0.950 . S
C1561 C1560 1.524 . S
C1561 C1562 1.415 . S
C1562 H1538 0.950 . S
C1562 C1557 1.363 . S
C1562 C1561 1.415 . S
C1563 H1539 0.951 . S
C1563 C1564 1.366 . S
C1563 C1565 1.388 . S
C1564 C1563 1.366 . S
C1564 C1568 1.385 . S
C1565 H1540 0.951 . S
C1565 C1563 1.388 . S
C1565 C1566 1.366 . S
C1566 C1565 1.366 . S
C1566 C1567 1.414 . S
C1566 C1569 1.499 . S
C1567 H1541 0.950 . S
C1567 C1566 1.414 . S
C1567 C1568 1.374 . S
C1568 H1542 0.950 . S
C1568 C1564 1.385 . S
C1568 C1567 1.374 . S
C1569 C1566 1.499 . S
C1569 C1570 1.373 . S
C1569 C1571 1.389 . S
C1570 H1543 0.950 . S
C1570 C1556 1.377 . S
C1570 C1569 1.373 . S
C1571 C1555 1.377 . S
C1571 C1569 1.389 . S
C1571 C1572 1.524 . S
C1572 C1571 1.524 . S
C1572 C1573 1.397 . S
C1572 C1577 1.363 . S
C1573 H1544 0.950 . S
C1573 C1572 1.397 . S
C1573 C1574 1.334 . S
C1574 H1545 0.950 . S
C1574 C1573 1.334 . S
C1574 C1575 1.287 . S
C1575 C1574 1.287 . S
C1575 C1576 1.524 . S
C1575 H1578 0.999 . S
C1576 H1546 0.950 . S
C1576 C1575 1.524 . S
C1576 C1577 1.415 . S
C1577 H1547 0.950 . S
C1577 C1572 1.363 . S
C1577 C1576 1.415 . S
H1578 C1575 0.999 . S
H1579 C1560 0.913 . S
H1580 C1598 0.951 . S
H1581 C1600 0.951 . S
H1582 C1602 0.950 . S
H1583 C1603 0.950 . S
H1584 C1605 0.950 1_554 S
H1585 C1608 0.950 . S
H1586 C1609 0.950 . S
H1587 C1611 0.950 . S
H1588 C1612 0.950 . S
H1589 C1613 0.951 . S
H1590 C1615 0.951 . S
H1591 C1617 0.950 . S
H1592 C1618 0.950 . S
H1593 C1620 0.950 . S
H1594 C1623 0.950 . S
H1595 C1624 0.950 . S
H1596 C1626 0.950 . S
H1597 C1627 0.950 . S
C1598 H1580 0.951 . S
C1598 C1599 1.366 . S
C1598 C1600 1.388 . S
C1599 C1598 1.366 . S
C1599 C1603 1.385 . S
C1600 H1581 0.951 . S
C1600 C1598 1.388 . S
C1600 C1601 1.366 . S
C1601 C1600 1.366 . S
C1601 C1602 1.414 . S
C1601 C1604 1.499 . S
C1602 H1582 0.950 . S
C1602 C1601 1.414 . S
C1602 C1603 1.374 . S
C1603 H1583 0.950 . S
C1603 C1599 1.385 . S
C1603 C1602 1.374 . S
C1604 C1601 1.499 . S
C1604 C1605 1.373 . S
C1604 C1606 1.389 1_545 S
C1605 H1584 0.950 1_556 S
C1605 C1604 1.373 . S
C1605 C1621 1.377 1_546 S
C1606 C1604 1.389 1_565 S
C1606 C1607 1.524 . S
C1606 C1620 1.377 . S
C1607 C1606 1.524 . S
C1607 C1608 1.397 1_565 S
C1607 C1612 1.363 . S
C1608 H1585 0.950 . S
C1608 C1607 1.397 1_545 S
C1608 C1609 1.334 . S
C1609 H1586 0.950 . S
C1609 C1608 1.334 . S
C1609 C1610 1.287 . S
C1610 C1609 1.287 . S
C1610 C1611 1.524 1_545 S
C1610 H1629 0.913 . S
C1611 H1587 0.950 . S
C1611 C1610 1.524 1_565 S
C1611 C1612 1.415 . S
C1612 H1588 0.950 . S
C1612 C1607 1.363 . S
C1612 C1611 1.415 . S
C1613 H1589 0.951 . S
C1613 C1614 1.366 . S
C1613 C1615 1.388 . S
C1614 C1613 1.366 . S
C1614 C1618 1.385 . S
C1615 H1590 0.951 . S
C1615 C1613 1.388 . S
C1615 C1616 1.366 . S
C1616 C1615 1.366 . S
C1616 C1617 1.414 1_554 S
C1616 C1619 1.499 1_554 S
C1617 H1591 0.950 . S
C1617 C1616 1.414 1_556 S
C1617 C1618 1.374 1_556 S
C1618 H1592 0.950 . S
C1618 C1614 1.385 . S
C1618 C1617 1.374 1_554 S
C1619 C1616 1.499 1_556 S
C1619 C1620 1.373 . S
C1619 C1621 1.389 1_556 S
C1620 H1593 0.950 . S
C1620 C1606 1.377 . S
C1620 C1619 1.373 . S
C1621 C1605 1.377 1_564 S
C1621 C1619 1.389 1_554 S
C1621 C1622 1.524 . S
C1622 C1621 1.524 . S
C1622 C1623 1.397 . S
C1622 C1627 1.363 1_565 S
C1623 H1594 0.950 . S
C1623 C1622 1.397 . S
C1623 C1624 1.334 . S
C1624 H1595 0.950 . S
C1624 C1623 1.334 . S
C1624 C1625 1.287 . S
C1625 C1624 1.287 . S
C1625 C1626 1.524 1_565 S
C1625 H1628 0.999 . S
C1626 H1596 0.950 . S
C1626 C1625 1.524 1_545 S
C1626 C1627 1.415 . S
C1627 H1597 0.950 . S
C1627 C1622 1.363 1_545 S
C1627 C1626 1.415 . S
H1628 C1625 0.999 . S
H1629 C1610 0.913 . S
H1630 C1648 0.951 . S
H1631 C1650 0.951 . S
H1632 C1652 0.950 . S
H1633 C1653 0.950 . S
H1634 C1655 0.950 . S
H1635 C1658 0.950 . S
H1636 C1659 0.950 . S
H1637 C1661 0.950 . S
H1638 C1662 0.950 . S
H1639 C1663 0.951 . S
H1640 C1665 0.951 . S
H1641 C1667 0.950 . S
H1642 C1668 0.950 . S
H1643 C1670 0.950 . S
H1644 C1673 0.950 . S
H1645 C1674 0.950 . S
H1646 C1676 0.950 . S
H1647 C1677 0.950 . S
C1648 H1630 0.951 . S
C1648 C1649 1.366 . S
C1648 C1650 1.388 . S
C1649 C1648 1.366 . S
C1649 C1653 1.385 . S
C1650 H1631 0.951 . S
C1650 C1648 1.388 . S
C1650 C1651 1.366 . S
C1651 C1650 1.366 . S
C1651 C1652 1.414 . S
C1651 C1654 1.499 . S
C1652 H1632 0.950 . S
C1652 C1651 1.414 . S
C1652 C1653 1.374 . S
C1653 H1633 0.950 . S
C1653 C1649 1.385 . S
C1653 C1652 1.374 . S
C1654 C1651 1.499 . S
C1654 C1655 1.373 . S
C1654 C1656 1.389 . S
C1655 H1634 0.950 . S
C1655 C1654 1.373 . S
C1655 C1671 1.377 . S
C1656 C1654 1.389 . S
C1656 C1657 1.524 . S
C1656 C1670 1.377 . S
C1657 C1656 1.524 . S
C1657 C1658 1.397 . S
C1657 C1662 1.363 . S
C1658 H1635 0.950 . S
C1658 C1657 1.397 . S
C1658 C1659 1.334 . S
C1659 H1636 0.950 . S
C1659 C1658 1.334 . S
C1659 C1660 1.287 . S
C1660 C1659 1.287 . S
C1660 C1661 1.524 . S
C1660 H1679 0.913 . S
C1661 H1637 0.950 . S
C1661 C1660 1.524 . S
C1661 C1662 1.415 . S
C1662 H1638 0.950 . S
C1662 C1657 1.363 . S
C1662 C1661 1.415 . S
C1663 H1639 0.951 . S
C1663 C1664 1.366 . S
C1663 C1665 1.388 . S
C1664 C1663 1.366 . S
C1664 C1668 1.385 . S
C1665 H1640 0.951 . S
C1665 C1663 1.388 . S
C1665 C1666 1.366 . S
C1666 C1665 1.366 . S
C1666 C1667 1.414 . S
C1666 C1669 1.499 . S
C1667 H1641 0.950 . S
C1667 C1666 1.414 . S
C1667 C1668 1.374 . S
C1668 H1642 0.950 . S
C1668 C1664 1.385 . S
C1668 C1667 1.374 . S
C1669 C1666 1.499 . S
C1669 C1670 1.373 . S
C1669 C1671 1.389 . S
C1670 H1643 0.950 . S
C1670 C1656 1.377 . S
C1670 C1669 1.373 . S
C1671 C1655 1.377 . S
C1671 C1669 1.389 . S
C1671 C1672 1.524 . S
C1672 C1671 1.524 . S
C1672 C1673 1.397 . S
C1672 C1677 1.363 . S
C1673 H1644 0.950 . S
C1673 C1672 1.397 . S
C1673 C1674 1.334 . S
C1674 H1645 0.950 . S
C1674 C1673 1.334 . S
C1674 C1675 1.287 . S
C1675 C1674 1.287 . S
C1675 C1676 1.524 . S
C1675 H1678 0.999 . S
C1676 H1646 0.950 . S
C1676 C1675 1.524 . S
C1676 C1677 1.415 . S
C1677 H1647 0.950 . S
C1677 C1672 1.363 . S
C1677 C1676 1.415 . S
H1678 C1675 0.999 . S
H1679 C1660 0.913 . S
H1680 C1698 0.951 . S
H1681 C1700 0.951 . S
H1682 C1702 0.950 . S
H1683 C1703 0.950 . S
H1684 C1705 0.950 . S
H1685 C1708 0.950 . S
H1686 C1709 0.950 . S
H1687 C1711 0.950 . S
H1688 C1712 0.950 . S
H1689 C1713 0.951 . S
H1690 C1715 0.951 . S
H1691 C1717 0.950 . S
H1692 C1718 0.950 . S
H1693 C1720 0.950 . S
H1694 C1723 0.950 . S
H1695 C1724 0.950 . S
H1696 C1726 0.950 . S
H1697 C1727 0.950 . S
C1698 H1680 0.951 . S
C1698 C1699 1.366 . S
C1698 C1700 1.388 1_565 S
C1699 C1698 1.366 . S
C1699 C1703 1.385 1_565 S
C1700 H1681 0.951 . S
C1700 C1698 1.388 1_545 S
C1700 C1701 1.366 . S
C1701 C1700 1.366 . S
C1701 C1702 1.414 . S
C1701 C1704 1.499 . S
C1702 H1682 0.950 . S
C1702 C1701 1.414 . S
C1702 C1703 1.374 . S
C1703 H1683 0.950 . S
C1703 C1699 1.385 1_545 S
C1703 C1702 1.374 . S
C1704 C1701 1.499 . S
C1704 C1705 1.373 . S
C1704 C1706 1.389 . S
C1705 H1684 0.950 . S
C1705 C1704 1.373 . S
C1705 C1721 1.377 . S
C1706 C1704 1.389 . S
C1706 C1707 1.524 . S
C1706 C1720 1.377 . S
C1707 C1706 1.524 . S
C1707 C1708 1.397 . S
C1707 C1712 1.363 . S
C1708 H1685 0.950 . S
C1708 C1707 1.397 . S
C1708 C1709 1.334 1_545 S
C1709 H1686 0.950 . S
C1709 C1708 1.334 1_565 S
C1709 C1710 1.287 . S
C1710 C1709 1.287 . S
C1710 C1711 1.524 . S
C1710 H1729 0.913 . S
C1711 H1687 0.950 . S
C1711 C1710 1.524 . S
C1711 C1712 1.415 1_565 S
C1712 H1688 0.950 . S
C1712 C1707 1.363 . S
C1712 C1711 1.415 1_545 S
C1713 H1689 0.951 . S
C1713 C1714 1.366 . S
C1713 C1715 1.388 . S
C1714 C1713 1.366 . S
C1714 C1718 1.385 . S
C1715 H1690 0.951 . S
C1715 C1713 1.388 . S
C1715 C1716 1.366 . S
C1716 C1715 1.366 . S
C1716 C1717 1.414 . S
C1716 C1719 1.499 . S
C1717 H1691 0.950 . S
C1717 C1716 1.414 . S
C1717 C1718 1.374 . S
C1718 H1692 0.950 . S
C1718 C1714 1.385 . S
C1718 C1717 1.374 . S
C1719 C1716 1.499 . S
C1719 C1720 1.373 . S
C1719 C1721 1.389 . S
C1720 H1693 0.950 . S
C1720 C1706 1.377 . S
C1720 C1719 1.373 . S
C1721 C1705 1.377 . S
C1721 C1719 1.389 . S
C1721 C1722 1.524 . S
C1722 C1721 1.524 . S
C1722 C1723 1.397 . S
C1722 C1727 1.363 . S
C1723 H1694 0.950 . S
C1723 C1722 1.397 . S
C1723 C1724 1.334 . S
C1724 H1695 0.950 . S
C1724 C1723 1.334 . S
C1724 C1725 1.287 . S
C1725 C1724 1.287 . S
C1725 C1726 1.524 . S
C1725 H1728 0.999 . S
C1726 H1696 0.950 . S
C1726 C1725 1.524 . S
C1726 C1727 1.415 . S
C1727 H1697 0.950 . S
C1727 C1722 1.363 . S
C1727 C1726 1.415 . S
H1728 C1725 0.999 . S
H1729 C1710 0.913 . S
H1730 C1748 0.951 . S
H1731 C1750 0.951 . S
H1732 C1752 0.950 . S
H1733 C1753 0.950 . S
H1734 C1755 0.950 . S
H1735 C1758 0.950 . S
H1736 C1759 0.950 . S
H1737 C1761 0.950 . S
H1738 C1762 0.950 . S
H1739 C1763 0.951 . S
H1740 C1765 0.951 . S
H1741 C1767 0.950 . S
H1742 C1768 0.950 . S
H1743 C1770 0.950 . S
H1744 C1773 0.950 . S
H1745 C1774 0.950 . S
H1746 C1776 0.950 . S
H1747 C1777 0.950 . S
C1748 H1730 0.951 . S
C1748 C1749 1.366 . S
C1748 C1750 1.388 . S
C1749 C1748 1.366 . S
C1749 C1753 1.385 . S
C1750 H1731 0.951 . S
C1750 C1748 1.388 . S
C1750 C1751 1.366 . S
C1751 C1750 1.366 . S
C1751 C1752 1.414 . S
C1751 C1754 1.499 . S
C1752 H1732 0.950 . S
C1752 C1751 1.414 . S
C1752 C1753 1.374 . S
C1753 H1733 0.950 . S
C1753 C1749 1.385 . S
C1753 C1752 1.374 . S
C1754 C1751 1.499 . S
C1754 C1755 1.373 . S
C1754 C1756 1.389 . S
C1755 H1734 0.950 . S
C1755 C1754 1.373 . S
C1755 C1771 1.377 . S
C1756 C1754 1.389 . S
C1756 C1757 1.524 . S
C1756 C1770 1.377 . S
C1757 C1756 1.524 . S
C1757 C1758 1.397 . S
C1757 C1762 1.363 . S
C1758 H1735 0.950 . S
C1758 C1757 1.397 . S
C1758 C1759 1.334 . S
C1759 H1736 0.950 . S
C1759 C1758 1.334 . S
C1759 C1760 1.287 . S
C1760 C1759 1.287 . S
C1760 C1761 1.524 . S
C1760 H1779 0.913 . S
C1761 H1737 0.950 . S
C1761 C1760 1.524 . S
C1761 C1762 1.415 . S
C1762 H1738 0.950 . S
C1762 C1757 1.363 . S
C1762 C1761 1.415 . S
C1763 H1739 0.951 . S
C1763 C1764 1.366 . S
C1763 C1765 1.388 . S
C1764 C1763 1.366 . S
C1764 C1768 1.385 . S
C1765 H1740 0.951 . S
C1765 C1763 1.388 . S
C1765 C1766 1.366 . S
C1766 C1765 1.366 . S
C1766 C1767 1.414 . S
C1766 C1769 1.499 . S
C1767 H1741 0.950 . S
C1767 C1766 1.414 . S
C1767 C1768 1.374 . S
C1768 H1742 0.950 . S
C1768 C1764 1.385 . S
C1768 C1767 1.374 . S
C1769 C1766 1.499 . S
C1769 C1770 1.373 . S
C1769 C1771 1.389 . S
C1770 H1743 0.950 . S
C1770 C1756 1.377 . S
C1770 C1769 1.373 . S
C1771 C1755 1.377 . S
C1771 C1769 1.389 . S
C1771 C1772 1.524 . S
C1772 C1771 1.524 . S
C1772 C1773 1.397 . S
C1772 C1777 1.363 . S
C1773 H1744 0.950 . S
C1773 C1772 1.397 . S
C1773 C1774 1.334 . S
C1774 H1745 0.950 . S
C1774 C1773 1.334 . S
C1774 C1775 1.287 . S
C1775 C1774 1.287 . S
C1775 C1776 1.524 . S
C1775 H1778 0.999 . S
C1776 H1746 0.950 . S
C1776 C1775 1.524 . S
C1776 C1777 1.415 . S
C1777 H1747 0.950 . S
C1777 C1772 1.363 . S
C1777 C1776 1.415 . S
H1778 C1775 0.999 . S
H1779 C1760 0.913 . S
H1780 C1798 0.951 . S
H1781 C1800 0.951 . S
H1782 C1802 0.950 . S
H1783 C1803 0.950 . S
H1784 C1805 0.950 . S
H1785 C1808 0.950 1_545 S
H1786 C1809 0.950 . S
H1787 C1811 0.950 . S
H1788 C1812 0.950 1_545 S
H1789 C1813 0.951 . S
H1790 C1815 0.951 . S
H1791 C1817 0.950 . S
H1792 C1818 0.950 . S
H1793 C1820 0.950 . S
H1794 C1823 0.950 . S
H1795 C1824 0.950 . S
H1796 C1826 0.950 . S
H1797 C1827 0.950 . S
C1798 H1780 0.951 . S
C1798 C1799 1.366 . S
C1798 C1800 1.388 . S
C1799 C1798 1.366 . S
C1799 C1803 1.385 . S
C1800 H1781 0.951 . S
C1800 C1798 1.388 . S
C1800 C1801 1.366 1_565 S
C1801 C1800 1.366 1_545 S
C1801 C1802 1.414 . S
C1801 C1804 1.499 . S
C1802 H1782 0.950 . S
C1802 C1801 1.414 . S
C1802 C1803 1.374 1_545 S
C1803 H1783 0.950 . S
C1803 C1799 1.385 . S
C1803 C1802 1.374 1_565 S
C1804 C1801 1.499 . S
C1804 C1805 1.373 . S
C1804 C1806 1.389 . S
C1805 H1784 0.950 . S
C1805 C1804 1.373 . S
C1805 C1821 1.377 . S
C1806 C1804 1.389 . S
C1806 C1807 1.524 . S
C1806 C1820 1.377 . S
C1807 C1806 1.524 . S
C1807 C1808 1.397 1_545 S
C1807 C1812 1.363 1_545 S
C1808 H1785 0.950 1_565 S
C1808 C1807 1.397 1_565 S
C1808 C1809 1.334 . S
C1809 H1786 0.950 . S
C1809 C1808 1.334 . S
C1809 C1810 1.287 . S
C1810 C1809 1.287 . S
C1810 C1811 1.524 . S
C1810 H1829 0.913 . S
C1811 H1787 0.950 . S
C1811 C1810 1.524 . S
C1811 C1812 1.415 . S
C1812 H1788 0.950 1_565 S
C1812 C1807 1.363 1_565 S
C1812 C1811 1.415 . S
C1813 H1789 0.951 . S
C1813 C1814 1.366 . S
C1813 C1815 1.388 . S
C1814 C1813 1.366 . S
C1814 C1818 1.385 . S
C1815 H1790 0.951 . S
C1815 C1813 1.388 . S
C1815 C1816 1.366 . S
C1816 C1815 1.366 . S
C1816 C1817 1.414 . S
C1816 C1819 1.499 . S
C1817 H1791 0.950 . S
C1817 C1816 1.414 . S
C1817 C1818 1.374 . S
C1818 H1792 0.950 . S
C1818 C1814 1.385 . S
C1818 C1817 1.374 . S
C1819 C1816 1.499 . S
C1819 C1820 1.373 . S
C1819 C1821 1.389 . S
C1820 H1793 0.950 . S
C1820 C1806 1.377 . S
C1820 C1819 1.373 . S
C1821 C1805 1.377 . S
C1821 C1819 1.389 . S
C1821 C1822 1.524 . S
C1822 C1821 1.524 . S
C1822 C1823 1.397 . S
C1822 C1827 1.363 . S
C1823 H1794 0.950 . S
C1823 C1822 1.397 . S
C1823 C1824 1.334 . S
C1824 H1795 0.950 . S
C1824 C1823 1.334 . S
C1824 C1825 1.287 . S
C1825 C1824 1.287 . S
C1825 C1826 1.524 . S
C1825 H1828 0.999 . S
C1826 H1796 0.950 . S
C1826 C1825 1.524 . S
C1826 C1827 1.415 . S
C1827 H1797 0.950 . S
C1827 C1822 1.363 . S
C1827 C1826 1.415 . S
H1828 C1825 0.999 . S
H1829 C1810 0.913 . S
H1830 C1848 0.951 . S
H1831 C1850 0.951 . S
H1832 C1852 0.950 . S
H1833 C1853 0.950 . S
H1834 C1855 0.950 . S
H1835 C1858 0.950 . S
H1836 C1859 0.950 . S
H1837 C1861 0.950 . S
H1838 C1862 0.950 . S
H1839 C1863 0.951 . S
H1840 C1865 0.951 . S
H1841 C1867 0.950 . S
H1842 C1868 0.950 . S
H1843 C1870 0.950 . S
H1844 C1873 0.950 . S
H1845 C1874 0.950 . S
H1846 C1876 0.950 . S
H1847 C1877 0.950 . S
C1848 H1830 0.951 . S
C1848 C1849 1.366 . S
C1848 C1850 1.388 . S
C1849 C1848 1.366 . S
C1849 C1853 1.385 . S
C1850 H1831 0.951 . S
C1850 C1848 1.388 . S
C1850 C1851 1.366 . S
C1851 C1850 1.366 . S
C1851 C1852 1.414 . S
C1851 C1854 1.499 . S
C1852 H1832 0.950 . S
C1852 C1851 1.414 . S
C1852 C1853 1.374 . S
C1853 H1833 0.950 . S
C1853 C1849 1.385 . S
C1853 C1852 1.374 . S
C1854 C1851 1.499 . S
C1854 C1855 1.373 . S
C1854 C1856 1.389 . S
C1855 H1834 0.950 . S
C1855 C1854 1.373 . S
C1855 C1871 1.377 . S
C1856 C1854 1.389 . S
C1856 C1857 1.524 . S
C1856 C1870 1.377 . S
C1857 C1856 1.524 . S
C1857 C1858 1.397 . S
C1857 C1862 1.363 . S
C1858 H1835 0.950 . S
C1858 C1857 1.397 . S
C1858 C1859 1.334 . S
C1859 H1836 0.950 . S
C1859 C1858 1.334 . S
C1859 C1860 1.287 . S
C1860 C1859 1.287 . S
C1860 C1861 1.524 . S
C1860 H1879 0.913 . S
C1861 H1837 0.950 . S
C1861 C1860 1.524 . S
C1861 C1862 1.415 . S
C1862 H1838 0.950 . S
C1862 C1857 1.363 . S
C1862 C1861 1.415 . S
C1863 H1839 0.951 . S
C1863 C1864 1.366 . S
C1863 C1865 1.388 . S
C1864 C1863 1.366 . S
C1864 C1868 1.385 . S
C1865 H1840 0.951 . S
C1865 C1863 1.388 . S
C1865 C1866 1.366 . S
C1866 C1865 1.366 . S
C1866 C1867 1.414 . S
C1866 C1869 1.499 . S
C1867 H1841 0.950 . S
C1867 C1866 1.414 . S
C1867 C1868 1.374 . S
C1868 H1842 0.950 . S
C1868 C1864 1.385 . S
C1868 C1867 1.374 . S
C1869 C1866 1.499 . S
C1869 C1870 1.373 . S
C1869 C1871 1.389 . S
C1870 H1843 0.950 . S
C1870 C1856 1.377 . S
C1870 C1869 1.373 . S
C1871 C1855 1.377 . S
C1871 C1869 1.389 . S
C1871 C1872 1.524 . S
C1872 C1871 1.524 . S
C1872 C1873 1.397 . S
C1872 C1877 1.363 . S
C1873 H1844 0.950 . S
C1873 C1872 1.397 . S
C1873 C1874 1.334 . S
C1874 H1845 0.950 . S
C1874 C1873 1.334 . S
C1874 C1875 1.287 . S
C1875 C1874 1.287 . S
C1875 C1876 1.524 . S
C1875 H1878 0.999 . S
C1876 H1846 0.950 . S
C1876 C1875 1.524 . S
C1876 C1877 1.415 . S
C1877 H1847 0.950 . S
C1877 C1872 1.363 . S
C1877 C1876 1.415 . S
H1878 C1875 0.999 . S
H1879 C1860 0.913 . S
H1880 C1898 0.951 . S
H1881 C1900 0.951 . S
H1882 C1902 0.950 . S
H1883 C1903 0.950 . S
H1884 C1905 0.950 . S
H1885 C1908 0.950 . S
H1886 C1909 0.950 . S
H1887 C1911 0.950 . S
H1888 C1912 0.950 . S
H1889 C1913 0.951 . S
H1890 C1915 0.951 . S
H1891 C1917 0.950 . S
H1892 C1918 0.950 . S
H1893 C1920 0.950 . S
H1894 C1923 0.950 . S
H1895 C1924 0.950 . S
H1896 C1926 0.950 . S
H1897 C1927 0.950 . S
C1898 H1880 0.951 . S
C1898 C1899 1.366 . S
C1898 C1900 1.388 . S
C1899 C1898 1.366 . S
C1899 C1903 1.385 . S
C1900 H1881 0.951 . S
C1900 C1898 1.388 . S
C1900 C1901 1.366 . S
C1901 C1900 1.366 . S
C1901 C1902 1.414 . S
C1901 C1904 1.499 . S
C1902 H1882 0.950 . S
C1902 C1901 1.414 . S
C1902 C1903 1.374 . S
C1903 H1883 0.950 . S
C1903 C1899 1.385 . S
C1903 C1902 1.374 . S
C1904 C1901 1.499 . S
C1904 C1905 1.373 . S
C1904 C1906 1.389 . S
C1905 H1884 0.950 . S
C1905 C1904 1.373 . S
C1905 C1921 1.377 . S
C1906 C1904 1.389 . S
C1906 C1907 1.524 . S
C1906 C1920 1.377 . S
C1907 C1906 1.524 . S
C1907 C1908 1.397 . S
C1907 C1912 1.363 . S
C1908 H1885 0.950 . S
C1908 C1907 1.397 . S
C1908 C1909 1.334 . S
C1909 H1886 0.950 . S
C1909 C1908 1.334 . S
C1909 C1910 1.287 . S
C1910 C1909 1.287 . S
C1910 C1911 1.524 . S
C1910 H1929 0.913 . S
C1911 H1887 0.950 . S
C1911 C1910 1.524 . S
C1911 C1912 1.415 . S
C1912 H1888 0.950 . S
C1912 C1907 1.363 . S
C1912 C1911 1.415 . S
C1913 H1889 0.951 . S
C1913 C1914 1.366 . S
C1913 C1915 1.388 . S
C1914 C1913 1.366 . S
C1914 C1918 1.385 . S
C1915 H1890 0.951 . S
C1915 C1913 1.388 . S
C1915 C1916 1.366 . S
C1916 C1915 1.366 . S
C1916 C1917 1.414 . S
C1916 C1919 1.499 . S
C1917 H1891 0.950 . S
C1917 C1916 1.414 . S
C1917 C1918 1.374 . S
C1918 H1892 0.950 . S
C1918 C1914 1.385 . S
C1918 C1917 1.374 . S
C1919 C1916 1.499 . S
C1919 C1920 1.373 . S
C1919 C1921 1.389 . S
C1920 H1893 0.950 . S
C1920 C1906 1.377 . S
C1920 C1919 1.373 . S
C1921 C1905 1.377 . S
C1921 C1919 1.389 . S
C1921 C1922 1.524 . S
C1922 C1921 1.524 . S
C1922 C1923 1.397 . S
C1922 C1927 1.363 . S
C1923 H1894 0.950 . S
C1923 C1922 1.397 . S
C1923 C1924 1.334 . S
C1924 H1895 0.950 . S
C1924 C1923 1.334 . S
C1924 C1925 1.287 . S
C1925 C1924 1.287 . S
C1925 C1926 1.524 . S
C1925 H1928 0.999 . S
C1926 H1896 0.950 . S
C1926 C1925 1.524 . S
C1926 C1927 1.415 . S
C1927 H1897 0.950 . S
C1927 C1922 1.363 . S
C1927 C1926 1.415 . S
H1928 C1925 0.999 . S
H1929 C1910 0.913 . S
H1930 C1948 0.951 . S
H1931 C1950 0.951 . S
H1932 C1952 0.950 . S
H1933 C1953 0.950 . S
H1934 C1955 0.950 . S
H1935 C1958 0.950 . S
H1936 C1959 0.950 . S
H1937 C1961 0.950 . S
H1938 C1962 0.950 . S
H1939 C1963 0.951 . S
H1940 C1965 0.951 . S
H1941 C1967 0.950 . S
H1942 C1968 0.950 . S
H1943 C1970 0.950 . S
H1944 C1973 0.950 . S
H1945 C1974 0.950 . S
H1946 C1976 0.950 . S
H1947 C1977 0.950 . S
C1948 H1930 0.951 . S
C1948 C1949 1.366 . S
C1948 C1950 1.388 . S
C1949 C1948 1.366 . S
C1949 C1953 1.385 . S
C1950 H1931 0.951 . S
C1950 C1948 1.388 . S
C1950 C1951 1.366 . S
C1951 C1950 1.366 . S
C1951 C1952 1.414 . S
C1951 C1954 1.499 . S
C1952 H1932 0.950 . S
C1952 C1951 1.414 . S
C1952 C1953 1.374 . S
C1953 H1933 0.950 . S
C1953 C1949 1.385 . S
C1953 C1952 1.374 . S
C1954 C1951 1.499 . S
C1954 C1955 1.373 . S
C1954 C1956 1.389 . S
C1955 H1934 0.950 . S
C1955 C1954 1.373 . S
C1955 C1971 1.377 . S
C1956 C1954 1.389 . S
C1956 C1957 1.524 . S
C1956 C1970 1.377 . S
C1957 C1956 1.524 . S
C1957 C1958 1.397 . S
C1957 C1962 1.363 . S
C1958 H1935 0.950 . S
C1958 C1957 1.397 . S
C1958 C1959 1.334 . S
C1959 H1936 0.950 . S
C1959 C1958 1.334 . S
C1959 C1960 1.287 . S
C1960 C1959 1.287 . S
C1960 C1961 1.524 . S
C1960 H1979 0.913 . S
C1961 H1937 0.950 . S
C1961 C1960 1.524 . S
C1961 C1962 1.415 . S
C1962 H1938 0.950 . S
C1962 C1957 1.363 . S
C1962 C1961 1.415 . S
C1963 H1939 0.951 . S
C1963 C1964 1.366 . S
C1963 C1965 1.388 . S
C1964 C1963 1.366 . S
C1964 C1968 1.385 . S
C1965 H1940 0.951 . S
C1965 C1963 1.388 . S
C1965 C1966 1.366 . S
C1966 C1965 1.366 . S
C1966 C1967 1.414 . S
C1966 C1969 1.499 . S
C1967 H1941 0.950 . S
C1967 C1966 1.414 . S
C1967 C1968 1.374 . S
C1968 H1942 0.950 . S
C1968 C1964 1.385 . S
C1968 C1967 1.374 . S
C1969 C1966 1.499 . S
C1969 C1970 1.373 . S
C1969 C1971 1.389 . S
C1970 H1943 0.950 . S
C1970 C1956 1.377 . S
C1970 C1969 1.373 . S
C1971 C1955 1.377 . S
C1971 C1969 1.389 . S
C1971 C1972 1.524 . S
C1972 C1971 1.524 . S
C1972 C1973 1.397 . S
C1972 C1977 1.363 . S
C1973 H1944 0.950 . S
C1973 C1972 1.397 . S
C1973 C1974 1.334 . S
C1974 H1945 0.950 . S
C1974 C1973 1.334 . S
C1974 C1975 1.287 . S
C1975 C1974 1.287 . S
C1975 C1976 1.524 . S
C1975 H1978 0.999 . S
C1976 H1946 0.950 . S
C1976 C1975 1.524 . S
C1976 C1977 1.415 . S
C1977 H1947 0.950 . S
C1977 C1972 1.363 . S
C1977 C1976 1.415 . S
H1978 C1975 0.999 . S
H1979 C1960 0.913 . S
H1980 C1998 0.951 . S
H1981 C2000 0.951 . S
H1982 C2002 0.950 . S
H1983 C2003 0.950 . S
H1984 C2005 0.950 . S
H1985 C2008 0.950 . S
H1986 C2009 0.950 . S
H1987 C2011 0.950 . S
H1988 C2012 0.950 . S
H1989 C2013 0.951 . S
H1990 C2015 0.951 . S
H1991 C2017 0.950 . S
H1992 C2018 0.950 . S
H1993 C2020 0.950 . S
H1994 C2023 0.950 . S
H1995 C2024 0.950 . S
H1996 C2026 0.950 . S
H1997 C2027 0.950 . S
C1998 H1980 0.951 . S
C1998 C1999 1.366 . S
C1998 C2000 1.388 . S
C1999 C1998 1.366 . S
C1999 C2003 1.385 . S
C2000 H1981 0.951 . S
C2000 C1998 1.388 . S
C2000 C2001 1.366 . S
C2001 C2000 1.366 . S
C2001 C2002 1.414 . S
C2001 C2004 1.499 . S
C2002 H1982 0.950 . S
C2002 C2001 1.414 . S
C2002 C2003 1.374 . S
C2003 H1983 0.950 . S
C2003 C1999 1.385 . S
C2003 C2002 1.374 . S
C2004 C2001 1.499 . S
C2004 C2005 1.373 . S
C2004 C2006 1.389 . S
C2005 H1984 0.950 . S
C2005 C2004 1.373 . S
C2005 C2021 1.377 . S
C2006 C2004 1.389 . S
C2006 C2007 1.524 . S
C2006 C2020 1.377 . S
C2007 C2006 1.524 . S
C2007 C2008 1.397 . S
C2007 C2012 1.363 . S
C2008 H1985 0.950 . S
C2008 C2007 1.397 . S
C2008 C2009 1.334 . S
C2009 H1986 0.950 . S
C2009 C2008 1.334 . S
C2009 C2010 1.287 . S
C2010 C2009 1.287 . S
C2010 C2011 1.524 . S
C2010 H2029 0.913 . S
C2011 H1987 0.950 . S
C2011 C2010 1.524 . S
C2011 C2012 1.415 . S
C2012 H1988 0.950 . S
C2012 C2007 1.363 . S
C2012 C2011 1.415 . S
C2013 H1989 0.951 . S
C2013 C2014 1.366 . S
C2013 C2015 1.388 . S
C2014 C2013 1.366 . S
C2014 C2018 1.385 . S
C2015 H1990 0.951 . S
C2015 C2013 1.388 . S
C2015 C2016 1.366 . S
C2016 C2015 1.366 . S
C2016 C2017 1.414 . S
C2016 C2019 1.499 . S
C2017 H1991 0.950 . S
C2017 C2016 1.414 . S
C2017 C2018 1.374 . S
C2018 H1992 0.950 . S
C2018 C2014 1.385 . S
C2018 C2017 1.374 . S
C2019 C2016 1.499 . S
C2019 C2020 1.373 . S
C2019 C2021 1.389 . S
C2020 H1993 0.950 . S
C2020 C2006 1.377 . S
C2020 C2019 1.373 . S
C2021 C2005 1.377 . S
C2021 C2019 1.389 . S
C2021 C2022 1.524 . S
C2022 C2021 1.524 . S
C2022 C2023 1.397 . S
C2022 C2027 1.363 . S
C2023 H1994 0.950 . S
C2023 C2022 1.397 . S
C2023 C2024 1.334 . S
C2024 H1995 0.950 . S
C2024 C2023 1.334 . S
C2024 C2025 1.287 . S
C2025 C2024 1.287 . S
C2025 C2026 1.524 . S
C2025 H2028 0.999 . S
C2026 H1996 0.950 . S
C2026 C2025 1.524 . S
C2026 C2027 1.415 . S
C2027 H1997 0.950 . S
C2027 C2022 1.363 . S
C2027 C2026 1.415 . S
H2028 C2025 0.999 . S
H2029 C2010 0.913 . S
H2030 C2048 0.951 . S
H2031 C2050 0.951 . S
H2032 C2052 0.950 . S
H2033 C2053 0.950 . S
H2034 C2055 0.950 . S
H2035 C2058 0.950 . S
H2036 C2059 0.950 . S
H2037 C2061 0.950 . S
H2038 C2062 0.950 . S
H2039 C2063 0.951 . S
H2040 C2065 0.951 . S
H2041 C2067 0.950 . S
H2042 C2068 0.950 . S
H2043 C2070 0.950 . S
H2044 C2073 0.950 . S
H2045 C2074 0.950 . S
H2046 C2076 0.950 . S
H2047 C2077 0.950 . S
C2048 H2030 0.951 . S
C2048 C2049 1.366 . S
C2048 C2050 1.388 . S
C2049 C2048 1.366 . S
C2049 C2053 1.385 . S
C2050 H2031 0.951 . S
C2050 C2048 1.388 . S
C2050 C2051 1.366 . S
C2051 C2050 1.366 . S
C2051 C2052 1.414 . S
C2051 C2054 1.499 . S
C2052 H2032 0.950 . S
C2052 C2051 1.414 . S
C2052 C2053 1.374 . S
C2053 H2033 0.950 . S
C2053 C2049 1.385 . S
C2053 C2052 1.374 . S
C2054 C2051 1.499 . S
C2054 C2055 1.373 . S
C2054 C2056 1.389 . S
C2055 H2034 0.950 . S
C2055 C2054 1.373 . S
C2055 C2071 1.377 . S
C2056 C2054 1.389 . S
C2056 C2057 1.524 . S
C2056 C2070 1.377 . S
C2057 C2056 1.524 . S
C2057 C2058 1.397 . S
C2057 C2062 1.363 . S
C2058 H2035 0.950 . S
C2058 C2057 1.397 . S
C2058 C2059 1.334 . S
C2059 H2036 0.950 . S
C2059 C2058 1.334 . S
C2059 C2060 1.287 . S
C2060 C2059 1.287 . S
C2060 C2061 1.524 . S
C2060 H2079 0.913 . S
C2061 H2037 0.950 . S
C2061 C2060 1.524 . S
C2061 C2062 1.415 . S
C2062 H2038 0.950 . S
C2062 C2057 1.363 . S
C2062 C2061 1.415 . S
C2063 H2039 0.951 . S
C2063 C2064 1.366 . S
C2063 C2065 1.388 . S
C2064 C2063 1.366 . S
C2064 C2068 1.385 . S
C2065 H2040 0.951 . S
C2065 C2063 1.388 . S
C2065 C2066 1.366 . S
C2066 C2065 1.366 . S
C2066 C2067 1.414 . S
C2066 C2069 1.499 . S
C2067 H2041 0.950 . S
C2067 C2066 1.414 . S
C2067 C2068 1.374 . S
C2068 H2042 0.950 . S
C2068 C2064 1.385 . S
C2068 C2067 1.374 . S
C2069 C2066 1.499 . S
C2069 C2070 1.373 . S
C2069 C2071 1.389 . S
C2070 H2043 0.950 . S
C2070 C2056 1.377 . S
C2070 C2069 1.373 . S
C2071 C2055 1.377 . S
C2071 C2069 1.389 . S
C2071 C2072 1.524 . S
C2072 C2071 1.524 . S
C2072 C2073 1.397 . S
C2072 C2077 1.363 . S
C2073 H2044 0.950 . S
C2073 C2072 1.397 . S
C2073 C2074 1.334 . S
C2074 H2045 0.950 . S
C2074 C2073 1.334 . S
C2074 C2075 1.287 . S
C2075 C2074 1.287 . S
C2075 C2076 1.524 . S
C2075 H2078 0.999 . S
C2076 H2046 0.950 . S
C2076 C2075 1.524 . S
C2076 C2077 1.415 . S
C2077 H2047 0.950 . S
C2077 C2072 1.363 . S
C2077 C2076 1.415 . S
H2078 C2075 0.999 . S
H2079 C2060 0.913 . S
H2080 C2098 0.951 . S
H2081 C2100 0.951 . S
H2082 C2102 0.950 . S
H2083 C2103 0.950 . S
H2084 C2105 0.950 . S
H2085 C2108 0.950 . S
H2086 C2109 0.950 . S
H2087 C2111 0.950 . S
H2088 C2112 0.950 . S
H2089 C2113 0.951 . S
H2090 C2115 0.951 . S
H2091 C2117 0.950 . S
H2092 C2118 0.950 . S
H2093 C2120 0.950 . S
H2094 C2123 0.950 . S
H2095 C2124 0.950 . S
H2096 C2126 0.950 . S
H2097 C2127 0.950 . S
C2098 H2080 0.951 . S
C2098 C2099 1.366 . S
C2098 C2100 1.388 . S
C2099 C2098 1.366 . S
C2099 C2103 1.385 . S
C2100 H2081 0.951 . S
C2100 C2098 1.388 . S
C2100 C2101 1.366 . S
C2101 C2100 1.366 . S
C2101 C2102 1.414 . S
C2101 C2104 1.499 . S
C2102 H2082 0.950 . S
C2102 C2101 1.414 . S
C2102 C2103 1.374 . S
C2103 H2083 0.950 . S
C2103 C2099 1.385 . S
C2103 C2102 1.374 . S
C2104 C2101 1.499 . S
C2104 C2105 1.373 . S
C2104 C2106 1.389 . S
C2105 H2084 0.950 . S
C2105 C2104 1.373 . S
C2105 C2121 1.377 . S
C2106 C2104 1.389 . S
C2106 C2107 1.524 . S
C2106 C2120 1.377 . S
C2107 C2106 1.524 . S
C2107 C2108 1.397 . S
C2107 C2112 1.363 . S
C2108 H2085 0.950 . S
C2108 C2107 1.397 . S
C2108 C2109 1.334 . S
C2109 H2086 0.950 . S
C2109 C2108 1.334 . S
C2109 C2110 1.287 . S
C2110 C2109 1.287 . S
C2110 C2111 1.524 . S
C2110 H2129 0.913 . S
C2111 H2087 0.950 . S
C2111 C2110 1.524 . S
C2111 C2112 1.415 . S
C2112 H2088 0.950 . S
C2112 C2107 1.363 . S
C2112 C2111 1.415 . S
C2113 H2089 0.951 . S
C2113 C2114 1.366 . S
C2113 C2115 1.388 . S
C2114 C2113 1.366 . S
C2114 C2118 1.385 . S
C2115 H2090 0.951 . S
C2115 C2113 1.388 . S
C2115 C2116 1.366 . S
C2116 C2115 1.366 . S
C2116 C2117 1.414 . S
C2116 C2119 1.499 . S
C2117 H2091 0.950 . S
C2117 C2116 1.414 . S
C2117 C2118 1.374 . S
C2118 H2092 0.950 . S
C2118 C2114 1.385 . S
C2118 C2117 1.374 . S
C2119 C2116 1.499 . S
C2119 C2120 1.373 . S
C2119 C2121 1.389 . S
C2120 H2093 0.950 . S
C2120 C2106 1.377 . S
C2120 C2119 1.373 . S
C2121 C2105 1.377 . S
C2121 C2119 1.389 . S
C2121 C2122 1.524 . S
C2122 C2121 1.524 . S
C2122 C2123 1.397 . S
C2122 C2127 1.363 . S
C2123 H2094 0.950 . S
C2123 C2122 1.397 . S
C2123 C2124 1.334 . S
C2124 H2095 0.950 . S
C2124 C2123 1.334 . S
C2124 C2125 1.287 . S
C2125 C2124 1.287 . S
C2125 C2126 1.524 . S
C2125 H2128 0.999 . S
C2126 H2096 0.950 . S
C2126 C2125 1.524 . S
C2126 C2127 1.415 . S
C2127 H2097 0.950 . S
C2127 C2122 1.363 . S
C2127 C2126 1.415 . S
H2128 C2125 0.999 . S
H2129 C2110 0.913 . S
H2130 C2148 0.951 . S
H2131 C2150 0.951 . S
H2132 C2152 0.950 . S
H2133 C2153 0.950 . S
H2134 C2155 0.950 . S
H2135 C2158 0.950 . S
H2136 C2159 0.950 . S
H2137 C2161 0.950 . S
H2138 C2162 0.950 . S
H2139 C2163 0.951 . S
H2140 C2165 0.951 . S
H2141 C2167 0.950 . S
H2142 C2168 0.950 . S
H2143 C2170 0.950 . S
H2144 C2173 0.950 . S
H2145 C2174 0.950 . S
H2146 C2176 0.950 . S
H2147 C2177 0.950 . S
C2148 H2130 0.951 . S
C2148 C2149 1.366 . S
C2148 C2150 1.388 . S
C2149 C2148 1.366 . S
C2149 C2153 1.385 . S
C2150 H2131 0.951 . S
C2150 C2148 1.388 . S
C2150 C2151 1.366 . S
C2151 C2150 1.366 . S
C2151 C2152 1.414 . S
C2151 C2154 1.499 . S
C2152 H2132 0.950 . S
C2152 C2151 1.414 . S
C2152 C2153 1.374 . S
C2153 H2133 0.950 . S
C2153 C2149 1.385 . S
C2153 C2152 1.374 . S
C2154 C2151 1.499 . S
C2154 C2155 1.373 1_455 S
C2154 C2156 1.389 . S
C2155 H2134 0.950 . S
C2155 C2154 1.373 1_655 S
C2155 C2171 1.377 . S
C2156 C2154 1.389 . S
C2156 C2157 1.524 . S
C2156 C2170 1.377 1_455 S
C2157 C2156 1.524 . S
C2157 C2158 1.397 . S
C2157 C2162 1.363 . S
C2158 H2135 0.950 . S
C2158 C2157 1.397 . S
C2158 C2159 1.334 . S
C2159 H2136 0.950 . S
C2159 C2158 1.334 . S
C2159 C2160 1.287 . S
C2160 C2159 1.287 . S
C2160 C2161 1.524 . S
C2160 H2179 0.913 . S
C2161 H2137 0.950 . S
C2161 C2160 1.524 . S
C2161 C2162 1.415 . S
C2162 H2138 0.950 . S
C2162 C2157 1.363 . S
C2162 C2161 1.415 . S
C2163 H2139 0.951 . S
C2163 C2164 1.366 . S
C2163 C2165 1.388 . S
C2164 C2163 1.366 . S
C2164 C2168 1.385 . S
C2165 H2140 0.951 . S
C2165 C2163 1.388 . S
C2165 C2166 1.366 . S
C2166 C2165 1.366 . S
C2166 C2167 1.414 . S
C2166 C2169 1.499 . S
C2167 H2141 0.950 . S
C2167 C2166 1.414 . S
C2167 C2168 1.374 . S
C2168 H2142 0.950 . S
C2168 C2164 1.385 . S
C2168 C2167 1.374 . S
C2169 C2166 1.499 . S
C2169 C2170 1.373 . S
C2169 C2171 1.389 . S
C2170 H2143 0.950 . S
C2170 C2156 1.377 1_655 S
C2170 C2169 1.373 . S
C2171 C2155 1.377 . S
C2171 C2169 1.389 . S
C2171 C2172 1.524 . S
C2172 C2171 1.524 . S
C2172 C2173 1.397 . S
C2172 C2177 1.363 . S
C2173 H2144 0.950 . S
C2173 C2172 1.397 . S
C2173 C2174 1.334 . S
C2174 H2145 0.950 . S
C2174 C2173 1.334 . S
C2174 C2175 1.287 . S
C2175 C2174 1.287 . S
C2175 C2176 1.524 . S
C2175 H2178 0.999 . S
C2176 H2146 0.950 . S
C2176 C2175 1.524 . S
C2176 C2177 1.415 . S
C2177 H2147 0.950 . S
C2177 C2172 1.363 . S
C2177 C2176 1.415 . S
H2178 C2175 0.999 . S
H2179 C2160 0.913 . S
H2180 C2198 0.951 . S
H2181 C2200 0.951 . S
H2182 C2202 0.950 . S
H2183 C2203 0.950 . S
H2184 C2205 0.950 . S
H2185 C2208 0.950 . S
H2186 C2209 0.950 . S
H2187 C2211 0.950 . S
H2188 C2212 0.950 . S
H2189 C2213 0.951 . S
H2190 C2215 0.951 . S
H2191 C2217 0.950 . S
H2192 C2218 0.950 . S
H2193 C2220 0.950 . S
H2194 C2223 0.950 . S
H2195 C2224 0.950 . S
H2196 C2226 0.950 . S
H2197 C2227 0.950 . S
C2198 H2180 0.951 . S
C2198 C2199 1.366 . S
C2198 C2200 1.388 . S
C2199 C2198 1.366 . S
C2199 C2203 1.385 . S
C2200 H2181 0.951 . S
C2200 C2198 1.388 . S
C2200 C2201 1.366 . S
C2201 C2200 1.366 . S
C2201 C2202 1.414 . S
C2201 C2204 1.499 . S
C2202 H2182 0.950 . S
C2202 C2201 1.414 . S
C2202 C2203 1.374 . S
C2203 H2183 0.950 . S
C2203 C2199 1.385 . S
C2203 C2202 1.374 . S
C2204 C2201 1.499 . S
C2204 C2205 1.373 . S
C2204 C2206 1.389 . S
C2205 H2184 0.950 . S
C2205 C2204 1.373 . S
C2205 C2221 1.377 . S
C2206 C2204 1.389 . S
C2206 C2207 1.524 . S
C2206 C2220 1.377 . S
C2207 C2206 1.524 . S
C2207 C2208 1.397 . S
C2207 C2212 1.363 . S
C2208 H2185 0.950 . S
C2208 C2207 1.397 . S
C2208 C2209 1.334 . S
C2209 H2186 0.950 . S
C2209 C2208 1.334 . S
C2209 C2210 1.287 . S
C2210 C2209 1.287 . S
C2210 C2211 1.524 . S
C2210 H2229 0.913 . S
C2211 H2187 0.950 . S
C2211 C2210 1.524 . S
C2211 C2212 1.415 . S
C2212 H2188 0.950 . S
C2212 C2207 1.363 . S
C2212 C2211 1.415 . S
C2213 H2189 0.951 . S
C2213 C2214 1.366 . S
C2213 C2215 1.388 . S
C2214 C2213 1.366 . S
C2214 C2218 1.385 . S
C2215 H2190 0.951 . S
C2215 C2213 1.388 . S
C2215 C2216 1.366 . S
C2216 C2215 1.366 . S
C2216 C2217 1.414 . S
C2216 C2219 1.499 . S
C2217 H2191 0.950 . S
C2217 C2216 1.414 . S
C2217 C2218 1.374 . S
C2218 H2192 0.950 . S
C2218 C2214 1.385 . S
C2218 C2217 1.374 . S
C2219 C2216 1.499 . S
C2219 C2220 1.373 . S
C2219 C2221 1.389 . S
C2220 H2193 0.950 . S
C2220 C2206 1.377 . S
C2220 C2219 1.373 . S
C2221 C2205 1.377 . S
C2221 C2219 1.389 . S
C2221 C2222 1.524 . S
C2222 C2221 1.524 . S
C2222 C2223 1.397 . S
C2222 C2227 1.363 . S
C2223 H2194 0.950 . S
C2223 C2222 1.397 . S
C2223 C2224 1.334 . S
C2224 H2195 0.950 . S
C2224 C2223 1.334 . S
C2224 C2225 1.287 . S
C2225 C2224 1.287 . S
C2225 C2226 1.524 . S
C2225 H2228 0.999 . S
C2226 H2196 0.950 . S
C2226 C2225 1.524 . S
C2226 C2227 1.415 . S
C2227 H2197 0.950 . S
C2227 C2222 1.363 . S
C2227 C2226 1.415 . S
H2228 C2225 0.999 . S
H2229 C2210 0.913 . S
H2230 C2248 0.951 . S
H2231 C2250 0.951 . S
H2232 C2252 0.950 . S
H2233 C2253 0.950 . S
H2234 C2255 0.950 . S
H2235 C2258 0.950 . S
H2236 C2259 0.950 . S
H2237 C2261 0.950 . S
H2238 C2262 0.950 . S
H2239 C2263 0.951 . S
H2240 C2265 0.951 . S
H2241 C2267 0.950 . S
H2242 C2268 0.950 . S
H2243 C2270 0.950 . S
H2244 C2273 0.950 . S
H2245 C2274 0.950 . S
H2246 C2276 0.950 . S
H2247 C2277 0.950 . S
C2248 H2230 0.951 . S
C2248 C2249 1.366 . S
C2248 C2250 1.388 . S
C2249 C2248 1.366 . S
C2249 C2253 1.385 . S
C2250 H2231 0.951 . S
C2250 C2248 1.388 . S
C2250 C2251 1.366 . S
C2251 C2250 1.366 . S
C2251 C2252 1.414 . S
C2251 C2254 1.499 . S
C2252 H2232 0.950 . S
C2252 C2251 1.414 . S
C2252 C2253 1.374 . S
C2253 H2233 0.950 . S
C2253 C2249 1.385 . S
C2253 C2252 1.374 . S
C2254 C2251 1.499 . S
C2254 C2255 1.373 . S
C2254 C2256 1.389 . S
C2255 H2234 0.950 . S
C2255 C2254 1.373 . S
C2255 C2271 1.377 1_655 S
C2256 C2254 1.389 . S
C2256 C2257 1.524 . S
C2256 C2270 1.377 1_655 S
C2257 C2256 1.524 . S
C2257 C2258 1.397 . S
C2257 C2262 1.363 1_655 S
C2258 H2235 0.950 . S
C2258 C2257 1.397 . S
C2258 C2259 1.334 . S
C2259 H2236 0.950 . S
C2259 C2258 1.334 . S
C2259 C2260 1.287 . S
C2260 C2259 1.287 . S
C2260 C2261 1.524 1_655 S
C2260 H2279 0.913 . S
C2261 H2237 0.950 . S
C2261 C2260 1.524 1_455 S
C2261 C2262 1.415 . S
C2262 H2238 0.950 . S
C2262 C2257 1.363 1_455 S
C2262 C2261 1.415 . S
C2263 H2239 0.951 . S
C2263 C2264 1.366 . S
C2263 C2265 1.388 . S
C2264 C2263 1.366 . S
C2264 C2268 1.385 . S
C2265 H2240 0.951 . S
C2265 C2263 1.388 . S
C2265 C2266 1.366 . S
C2266 C2265 1.366 . S
C2266 C2267 1.414 . S
C2266 C2269 1.499 . S
C2267 H2241 0.950 . S
C2267 C2266 1.414 . S
C2267 C2268 1.374 . S
C2268 H2242 0.950 . S
C2268 C2264 1.385 . S
C2268 C2267 1.374 . S
C2269 C2266 1.499 . S
C2269 C2270 1.373 . S
C2269 C2271 1.389 . S
C2270 H2243 0.950 . S
C2270 C2256 1.377 1_455 S
C2270 C2269 1.373 . S
C2271 C2255 1.377 1_455 S
C2271 C2269 1.389 . S
C2271 C2272 1.524 . S
C2272 C2271 1.524 . S
C2272 C2273 1.397 . S
C2272 C2277 1.363 1_455 S
C2273 H2244 0.950 . S
C2273 C2272 1.397 . S
C2273 C2274 1.334 . S
C2274 H2245 0.950 . S
C2274 C2273 1.334 . S
C2274 C2275 1.287 . S
C2275 C2274 1.287 . S
C2275 C2276 1.524 1_455 S
C2275 H2278 0.999 . S
C2276 H2246 0.950 . S
C2276 C2275 1.524 1_655 S
C2276 C2277 1.415 . S
C2277 H2247 0.950 . S
C2277 C2272 1.363 1_655 S
C2277 C2276 1.415 . S
H2278 C2275 0.999 . S
H2279 C2260 0.913 . S
H2280 C2298 0.951 . S
H2281 C2300 0.951 . S
H2282 C2302 0.950 . S
H2283 C2303 0.950 . S
H2284 C2305 0.950 . S
H2285 C2308 0.950 . S
H2286 C2309 0.950 . S
H2287 C2311 0.950 . S
H2288 C2312 0.950 . S
H2289 C2313 0.951 . S
H2290 C2315 0.951 . S
H2291 C2317 0.950 . S
H2292 C2318 0.950 . S
H2293 C2320 0.950 . S
H2294 C2323 0.950 . S
H2295 C2324 0.950 . S
H2296 C2326 0.950 . S
H2297 C2327 0.950 . S
C2298 H2280 0.951 . S
C2298 C2299 1.366 . S
C2298 C2300 1.388 . S
C2299 C2298 1.366 . S
C2299 C2303 1.385 . S
C2300 H2281 0.951 . S
C2300 C2298 1.388 . S
C2300 C2301 1.366 . S
C2301 C2300 1.366 . S
C2301 C2302 1.414 . S
C2301 C2304 1.499 . S
C2302 H2282 0.950 . S
C2302 C2301 1.414 . S
C2302 C2303 1.374 . S
C2303 H2283 0.950 . S
C2303 C2299 1.385 . S
C2303 C2302 1.374 . S
C2304 C2301 1.499 . S
C2304 C2305 1.373 . S
C2304 C2306 1.389 . S
C2305 H2284 0.950 . S
C2305 C2304 1.373 . S
C2305 C2321 1.377 . S
C2306 C2304 1.389 . S
C2306 C2307 1.524 . S
C2306 C2320 1.377 . S
C2307 C2306 1.524 . S
C2307 C2308 1.397 . S
C2307 C2312 1.363 . S
C2308 H2285 0.950 . S
C2308 C2307 1.397 . S
C2308 C2309 1.334 . S
C2309 H2286 0.950 . S
C2309 C2308 1.334 . S
C2309 C2310 1.287 . S
C2310 C2309 1.287 . S
C2310 C2311 1.524 . S
C2310 H2329 0.913 . S
C2311 H2287 0.950 . S
C2311 C2310 1.524 . S
C2311 C2312 1.415 . S
C2312 H2288 0.950 . S
C2312 C2307 1.363 . S
C2312 C2311 1.415 . S
C2313 H2289 0.951 . S
C2313 C2314 1.366 . S
C2313 C2315 1.388 . S
C2314 C2313 1.366 . S
C2314 C2318 1.385 . S
C2315 H2290 0.951 . S
C2315 C2313 1.388 . S
C2315 C2316 1.366 . S
C2316 C2315 1.366 . S
C2316 C2317 1.414 . S
C2316 C2319 1.499 . S
C2317 H2291 0.950 . S
C2317 C2316 1.414 . S
C2317 C2318 1.374 . S
C2318 H2292 0.950 . S
C2318 C2314 1.385 . S
C2318 C2317 1.374 . S
C2319 C2316 1.499 . S
C2319 C2320 1.373 . S
C2319 C2321 1.389 . S
C2320 H2293 0.950 . S
C2320 C2306 1.377 . S
C2320 C2319 1.373 . S
C2321 C2305 1.377 . S
C2321 C2319 1.389 . S
C2321 C2322 1.524 . S
C2322 C2321 1.524 . S
C2322 C2323 1.397 . S
C2322 C2327 1.363 . S
C2323 H2294 0.950 . S
C2323 C2322 1.397 . S
C2323 C2324 1.334 . S
C2324 H2295 0.950 . S
C2324 C2323 1.334 . S
C2324 C2325 1.287 . S
C2325 C2324 1.287 . S
C2325 C2326 1.524 . S
C2325 H2328 0.999 . S
C2326 H2296 0.950 . S
C2326 C2325 1.524 . S
C2326 C2327 1.415 . S
C2327 H2297 0.950 . S
C2327 C2322 1.363 . S
C2327 C2326 1.415 . S
H2328 C2325 0.999 . S
H2329 C2310 0.913 . S
H2330 C2348 0.951 . S
H2331 C2350 0.951 . S
H2332 C2352 0.950 . S
H2333 C2353 0.950 . S
H2334 C2355 0.950 . S
H2335 C2358 0.950 . S
H2336 C2359 0.950 . S
H2337 C2361 0.969 . S
H2338 C2362 0.950 . S
H2339 C2363 0.951 1_455 S
H2340 C2365 0.951 . S
H2341 C2367 0.950 . S
H2342 C2368 0.950 . S
H2343 C2370 0.950 . S
H2344 C2373 0.950 . S
H2345 C2374 0.950 . S
H2346 C2376 0.950 . S
H2347 C2377 0.950 . S
C2348 H2330 0.951 . S
C2348 C2349 1.366 . S
C2348 C2350 1.388 . S
C2349 C2348 1.366 . S
C2349 C2353 1.385 . S
C2350 H2331 0.951 . S
C2350 C2348 1.388 . S
C2350 C2351 1.366 . S
C2351 C2350 1.366 . S
C2351 C2352 1.414 . S
C2351 C2354 1.499 . S
C2352 H2332 0.950 . S
C2352 C2351 1.414 . S
C2352 C2353 1.374 . S
C2353 H2333 0.950 . S
C2353 C2349 1.385 . S
C2353 C2352 1.374 . S
C2354 C2351 1.499 . S
C2354 C2355 1.373 1_554 S
C2354 C2356 1.389 1_554 S
C2355 H2334 0.950 . S
C2355 C2354 1.373 1_556 S
C2355 C2371 1.377 . S
C2356 C2354 1.389 1_556 S
C2356 C2357 1.524 1_556 S
C2356 C2370 1.377 . S
C2357 C2356 1.524 1_554 S
C2357 C2358 1.397 . S
C2357 C2362 1.363 1_554 S
C2358 H2335 0.950 . S
C2358 C2357 1.397 . S
C2358 C2359 1.334 . S
C2359 H2336 0.950 . S
C2359 C2358 1.334 . S
C2359 C2360 1.287 . S
C2360 C2359 1.287 . S
C2360 C2361 1.524 . S
C2360 H2379 0.913 . S
C2361 H2337 0.969 . S
C2361 C2360 1.524 . S
C2361 C2362 1.415 1_554 S
C2362 H2338 0.950 . S
C2362 C2357 1.363 1_556 S
C2362 C2361 1.415 1_556 S
C2363 H2339 0.951 1_655 S
C2363 C2364 1.366 . S
C2363 C2365 1.388 . S
C2364 C2363 1.366 . S
C2364 C2368 1.385 . S
C2365 H2340 0.951 . S
C2365 C2363 1.388 . S
C2365 C2366 1.366 . S
C2366 C2365 1.366 . S
C2366 C2367 1.414 . S
C2366 C2369 1.499 . S
C2367 H2341 0.950 . S
C2367 C2366 1.414 . S
C2367 C2368 1.374 . S
C2368 H2342 0.950 . S
C2368 C2364 1.385 . S
C2368 C2367 1.374 . S
C2369 C2366 1.499 . S
C2369 C2370 1.373 . S
C2369 C2371 1.389 . S
C2370 H2343 0.950 . S
C2370 C2356 1.377 . S
C2370 C2369 1.373 . S
C2371 C2355 1.377 . S
C2371 C2369 1.389 . S
C2371 C2372 1.524 . S
C2372 C2371 1.524 . S
C2372 C2373 1.397 . S
C2372 C2377 1.363 . S
C2373 H2344 0.950 . S
C2373 C2372 1.397 . S
C2373 C2374 1.334 . S
C2374 H2345 0.950 . S
C2374 C2373 1.334 . S
C2374 C2375 1.287 1_655 S
C2375 C2374 1.287 1_455 S
C2375 C2376 1.524 . S
C2375 H2378 0.999 . S
C2376 H2346 0.950 . S
C2376 C2375 1.524 . S
C2376 C2377 1.415 1_455 S
C2377 H2347 0.950 . S
C2377 C2372 1.363 . S
C2377 C2376 1.415 1_655 S
H2378 C2375 0.999 . S
H2379 C2360 0.913 . S
H2380 C2398 0.951 . S
H2381 C2400 0.951 . S
H2382 C2402 0.950 . S
H2383 C2403 0.950 . S
H2384 C2405 0.950 . S
H2385 C2408 0.950 . S
H2386 C2409 0.950 . S
H2387 C2411 0.950 . S
H2388 C2412 0.950 . S
H2389 C2413 0.951 . S
H2390 C2415 0.951 . S
H2391 C2417 0.950 . S
H2392 C2418 0.950 . S
H2393 C2420 0.950 . S
H2394 C2423 0.950 . S
H2395 C2424 0.950 . S
H2396 C2426 0.950 . S
H2397 C2427 0.950 . S
C2398 H2380 0.951 . S
C2398 C2399 1.366 . S
C2398 C2400 1.388 . S
C2399 C2398 1.366 . S
C2399 C2403 1.385 . S
C2400 H2381 0.951 . S
C2400 C2398 1.388 . S
C2400 C2401 1.366 . S
C2401 C2400 1.366 . S
C2401 C2402 1.414 . S
C2401 C2404 1.499 . S
C2402 H2382 0.950 . S
C2402 C2401 1.414 . S
C2402 C2403 1.374 . S
C2403 H2383 0.950 . S
C2403 C2399 1.385 . S
C2403 C2402 1.374 . S
C2404 C2401 1.499 . S
C2404 C2405 1.373 . S
C2404 C2406 1.389 . S
C2405 H2384 0.950 . S
C2405 C2404 1.373 . S
C2405 C2421 1.377 . S
C2406 C2404 1.389 . S
C2406 C2407 1.524 . S
C2406 C2420 1.377 . S
C2407 C2406 1.524 . S
C2407 C2408 1.397 . S
C2407 C2412 1.363 . S
C2408 H2385 0.950 . S
C2408 C2407 1.397 . S
C2408 C2409 1.334 . S
C2409 H2386 0.950 . S
C2409 C2408 1.334 . S
C2409 C2410 1.287 . S
C2410 C2409 1.287 . S
C2410 C2411 1.524 . S
C2410 H2429 0.913 . S
C2411 H2387 0.950 . S
C2411 C2410 1.524 . S
C2411 C2412 1.415 . S
C2412 H2388 0.950 . S
C2412 C2407 1.363 . S
C2412 C2411 1.415 . S
C2413 H2389 0.951 . S
C2413 C2414 1.366 . S
C2413 C2415 1.388 . S
C2414 C2413 1.366 . S
C2414 C2418 1.385 . S
C2415 H2390 0.951 . S
C2415 C2413 1.388 . S
C2415 C2416 1.366 . S
C2416 C2415 1.366 . S
C2416 C2417 1.414 . S
C2416 C2419 1.499 . S
C2417 H2391 0.950 . S
C2417 C2416 1.414 . S
C2417 C2418 1.374 . S
C2418 H2392 0.950 . S
C2418 C2414 1.385 . S
C2418 C2417 1.374 . S
C2419 C2416 1.499 . S
C2419 C2420 1.373 . S
C2419 C2421 1.389 . S
C2420 H2393 0.950 . S
C2420 C2406 1.377 . S
C2420 C2419 1.373 . S
C2421 C2405 1.377 . S
C2421 C2419 1.389 . S
C2421 C2422 1.524 . S
C2422 C2421 1.524 . S
C2422 C2423 1.397 . S
C2422 C2427 1.363 . S
C2423 H2394 0.950 . S
C2423 C2422 1.397 . S
C2423 C2424 1.334 . S
C2424 H2395 0.950 . S
C2424 C2423 1.334 . S
C2424 C2425 1.287 . S
C2425 C2424 1.287 . S
C2425 C2426 1.524 . S
C2425 H2428 0.999 . S
C2426 H2396 0.950 . S
C2426 C2425 1.524 . S
C2426 C2427 1.415 . S
C2427 H2397 0.950 . S
C2427 C2422 1.363 . S
C2427 C2426 1.415 . S
H2428 C2425 0.999 . S
H2429 C2410 0.913 . S
H2430 C2448 0.951 . S
H2431 C2450 0.951 . S
H2432 C2452 0.950 . S
H2433 C2453 0.950 . S
H2434 C2455 0.950 . S
H2435 C2458 0.950 . S
H2436 C2459 0.950 . S
H2437 C2461 0.950 . S
H2438 C2462 0.950 . S
H2439 C2463 0.951 . S
H2440 C2465 0.951 . S
H2441 C2467 0.950 . S
H2442 C2468 0.950 . S
H2443 C2470 0.988 . S
H2444 C2473 0.950 . S
H2445 C2474 0.950 . S
H2446 C2476 0.950 . S
H2447 C2477 0.950 . S
C2448 H2430 0.951 . S
C2448 C2449 1.366 . S
C2448 C2450 1.388 . S
C2449 C2448 1.366 . S
C2449 C2453 1.385 . S
C2450 H2431 0.951 . S
C2450 C2448 1.388 . S
C2450 C2451 1.366 . S
C2451 C2450 1.366 . S
C2451 C2452 1.414 . S
C2451 C2454 1.499 . S
C2452 H2432 0.950 . S
C2452 C2451 1.414 . S
C2452 C2453 1.374 . S
C2453 H2433 0.950 . S
C2453 C2449 1.385 . S
C2453 C2452 1.374 . S
C2454 C2451 1.499 . S
C2454 C2455 1.373 . S
C2454 C2456 1.389 . S
C2455 H2434 0.950 . S
C2455 C2454 1.373 . S
C2455 C2471 1.377 . S
C2456 C2454 1.389 . S
C2456 C2457 1.524 . S
C2456 C2470 1.327 1_554 S
C2457 C2456 1.524 . S
C2457 C2458 1.397 . S
C2457 C2462 1.363 . S
C2458 H2435 0.950 . S
C2458 C2457 1.397 . S
C2458 C2459 1.334 . S
C2459 H2436 0.950 . S
C2459 C2458 1.334 . S
C2459 C2460 1.287 . S
C2460 C2459 1.287 . S
C2460 C2461 1.524 . S
C2460 H2479 0.913 . S
C2461 H2437 0.950 . S
C2461 C2460 1.524 . S
C2461 C2462 1.415 . S
C2462 H2438 0.950 . S
C2462 C2457 1.363 . S
C2462 C2461 1.415 . S
C2463 H2439 0.951 . S
C2463 C2464 1.366 . S
C2463 C2465 1.388 . S
C2464 C2463 1.366 . S
C2464 C2468 1.385 . S
C2465 H2440 0.951 . S
C2465 C2463 1.388 . S
C2465 C2466 1.366 . S
C2466 C2465 1.366 . S
C2466 C2467 1.414 . S
C2466 C2469 1.499 . S
C2467 H2441 0.950 . S
C2467 C2466 1.414 . S
C2467 C2468 1.374 . S
C2468 H2442 0.950 . S
C2468 C2464 1.385 . S
C2468 C2467 1.374 . S
C2469 C2466 1.499 . S
C2469 C2470 1.388 . S
C2469 C2471 1.389 1_556 S
C2470 H2443 0.988 . S
C2470 C2456 1.327 1_556 S
C2470 C2469 1.388 . S
C2471 C2455 1.377 . S
C2471 C2469 1.389 1_554 S
C2471 C2472 1.524 . S
C2472 C2471 1.524 . S
C2472 C2473 1.397 . S
C2472 C2477 1.363 . S
C2473 H2444 0.950 . S
C2473 C2472 1.397 . S
C2473 C2474 1.334 . S
C2474 H2445 0.950 . S
C2474 C2473 1.334 . S
C2474 C2475 1.287 . S
C2475 C2474 1.287 . S
C2475 C2476 1.524 . S
C2475 H2478 0.999 . S
C2476 H2446 0.950 . S
C2476 C2475 1.524 . S
C2476 C2477 1.415 . S
C2477 H2447 0.950 . S
C2477 C2472 1.363 . S
C2477 C2476 1.415 . S
H2478 C2475 0.999 . S
H2479 C2460 0.913 . S
H2480 C2498 0.951 . S
H2481 C2500 0.951 . S
H2482 C2502 0.950 . S
H2483 C2503 0.950 . S
H2484 C2505 0.950 . S
H2485 C2508 0.950 . S
H2486 C2509 0.950 . S
H2487 C2511 0.950 . S
H2488 C2512 0.950 . S
H2489 C2513 0.951 . S
H2490 C2515 0.951 . S
H2491 C2517 0.950 . S
H2492 C2518 0.950 . S
H2493 C2520 0.950 . S
H2494 C2523 0.950 . S
H2495 C2524 0.950 . S
H2496 C2526 0.950 . S
H2497 C2527 0.950 . S
C2498 H2480 0.951 . S
C2498 C2499 1.366 . S
C2498 C2500 1.388 . S
C2499 C2498 1.366 . S
C2499 C2503 1.385 . S
C2500 H2481 0.951 . S
C2500 C2498 1.388 . S
C2500 C2501 1.366 . S
C2501 C2500 1.366 . S
C2501 C2502 1.414 . S
C2501 C2504 1.499 . S
C2502 H2482 0.950 . S
C2502 C2501 1.414 . S
C2502 C2503 1.374 . S
C2503 H2483 0.950 . S
C2503 C2499 1.385 . S
C2503 C2502 1.374 . S
C2504 C2501 1.499 . S
C2504 C2505 1.373 . S
C2504 C2506 1.389 . S
C2505 H2484 0.950 . S
C2505 C2504 1.373 . S
C2505 C2521 1.377 . S
C2506 C2504 1.389 . S
C2506 C2507 1.524 . S
C2506 C2520 1.377 . S
C2507 C2506 1.524 . S
C2507 C2508 1.397 . S
C2507 C2512 1.363 . S
C2508 H2485 0.950 . S
C2508 C2507 1.397 . S
C2508 C2509 1.334 . S
C2509 H2486 0.950 . S
C2509 C2508 1.334 . S
C2509 C2510 1.287 . S
C2510 C2509 1.287 . S
C2510 C2511 1.524 . S
C2510 H2529 0.913 . S
C2511 H2487 0.950 . S
C2511 C2510 1.524 . S
C2511 C2512 1.415 . S
C2512 H2488 0.950 . S
C2512 C2507 1.363 . S
C2512 C2511 1.415 . S
C2513 H2489 0.951 . S
C2513 C2514 1.366 . S
C2513 C2515 1.388 . S
C2514 C2513 1.366 . S
C2514 C2518 1.385 . S
C2515 H2490 0.951 . S
C2515 C2513 1.388 . S
C2515 C2516 1.366 . S
C2516 C2515 1.366 . S
C2516 C2517 1.414 . S
C2516 C2519 1.499 . S
C2517 H2491 0.950 . S
C2517 C2516 1.414 . S
C2517 C2518 1.374 . S
C2518 H2492 0.950 . S
C2518 C2514 1.385 . S
C2518 C2517 1.374 . S
C2519 C2516 1.499 . S
C2519 C2520 1.373 . S
C2519 C2521 1.389 . S
C2520 H2493 0.950 . S
C2520 C2506 1.377 . S
C2520 C2519 1.373 . S
C2521 C2505 1.377 . S
C2521 C2519 1.389 . S
C2521 C2522 1.524 . S
C2522 C2521 1.524 . S
C2522 C2523 1.397 . S
C2522 C2527 1.363 . S
C2523 H2494 0.950 . S
C2523 C2522 1.397 . S
C2523 C2524 1.334 . S
C2524 H2495 0.950 . S
C2524 C2523 1.334 . S
C2524 C2525 1.287 . S
C2525 C2524 1.287 . S
C2525 C2526 1.524 . S
C2525 H2528 0.999 . S
C2526 H2496 0.950 . S
C2526 C2525 1.524 . S
C2526 C2527 1.415 . S
C2527 H2497 0.950 . S
C2527 C2522 1.363 . S
C2527 C2526 1.415 . S
H2528 C2525 0.999 . S
H2529 C2510 0.913 . S
H2530 C2548 0.951 . S
H2531 C2550 0.951 . S
H2532 C2552 0.989 . S
H2533 C2553 0.950 . S
H2534 C2555 0.950 . S
H2535 C2558 0.950 . S
H2536 C2559 0.950 . S
H2537 C2561 0.950 . S
H2538 C2562 0.950 . S
H2539 C2563 0.951 . S
H2540 C2565 0.951 . S
H2541 C2567 0.950 . S
H2542 C2568 0.950 . S
H2543 C2570 0.950 . S
H2544 C2573 0.950 . S
H2545 C2574 0.950 . S
H2546 C2576 0.950 . S
H2547 C2577 0.950 . S
C2548 H2530 0.951 . S
C2548 C2549 1.366 . S
C2548 C2550 1.388 . S
C2549 C2548 1.366 . S
C2549 C2553 1.385 . S
C2550 H2531 0.951 . S
C2550 C2548 1.388 . S
C2550 C2551 1.366 . S
C2551 C2550 1.366 . S
C2551 C2552 1.414 . S
C2551 C2554 1.499 1_556 S
C2552 H2532 0.989 . S
C2552 C2551 1.414 . S
C2552 C2553 1.374 . S
C2553 H2533 0.950 . S
C2553 C2549 1.385 . S
C2553 C2552 1.374 . S
C2554 C2551 1.499 1_554 S
C2554 C2555 1.373 . S
C2554 C2556 1.389 . S
C2555 H2534 0.950 . S
C2555 C2554 1.373 . S
C2555 C2571 1.377 . S
C2556 C2554 1.389 . S
C2556 C2557 1.524 1_554 S
C2556 C2570 1.377 . S
C2557 C2556 1.524 1_556 S
C2557 C2558 1.397 . S
C2557 C2562 1.363 . S
C2558 H2535 0.950 . S
C2558 C2557 1.397 . S
C2558 C2559 1.334 . S
C2559 H2536 0.950 . S
C2559 C2558 1.334 . S
C2559 C2560 1.287 . S
C2560 C2559 1.287 . S
C2560 C2561 1.524 . S
C2560 H2579 0.913 . S
C2561 H2537 0.950 . S
C2561 C2560 1.524 . S
C2561 C2562 1.415 . S
C2562 H2538 0.950 . S
C2562 C2557 1.363 . S
C2562 C2561 1.415 . S
C2563 H2539 0.951 . S
C2563 C2564 1.366 . S
C2563 C2565 1.388 . S
C2564 C2563 1.366 . S
C2564 C2568 1.385 . S
C2565 H2540 0.951 . S
C2565 C2563 1.388 . S
C2565 C2566 1.366 . S
C2566 C2565 1.366 . S
C2566 C2567 1.414 . S
C2566 C2569 1.499 . S
C2567 H2541 0.950 . S
C2567 C2566 1.414 . S
C2567 C2568 1.374 . S
C2568 H2542 0.950 . S
C2568 C2564 1.385 . S
C2568 C2567 1.374 . S
C2569 C2566 1.499 . S
C2569 C2570 1.373 . S
C2569 C2571 1.389 . S
C2570 H2543 0.950 . S
C2570 C2556 1.377 . S
C2570 C2569 1.373 . S
C2571 C2555 1.377 . S
C2571 C2569 1.389 . S
C2571 C2572 1.524 . S
C2572 C2571 1.524 . S
C2572 C2573 1.397 . S
C2572 C2577 1.363 . S
C2573 H2544 0.950 . S
C2573 C2572 1.397 . S
C2573 C2574 1.334 . S
C2574 H2545 0.950 . S
C2574 C2573 1.334 . S
C2574 C2575 1.287 . S
C2575 C2574 1.287 . S
C2575 C2576 1.524 . S
C2575 H2578 0.999 . S
C2576 H2546 0.950 . S
C2576 C2575 1.524 . S
C2576 C2577 1.415 . S
C2577 H2547 0.950 . S
C2577 C2572 1.363 . S
C2577 C2576 1.415 . S
H2578 C2575 0.999 . S
H2579 C2560 0.913 . S
H2580 C2598 0.951 . S
H2581 C2600 0.951 . S
H2582 C2602 0.950 . S
H2583 C2603 0.950 . S
H2584 C2605 0.950 . S
H2585 C2608 0.950 . S
H2586 C2609 0.950 . S
H2587 C2611 0.950 . S
H2588 C2612 0.950 . S
H2589 C2613 0.951 . S
H2590 C2615 0.951 . S
H2591 C2617 0.950 . S
H2592 C2618 0.950 . S
H2593 C2620 0.950 . S
H2594 C2623 0.950 . S
H2595 C2624 0.950 . S
H2596 C2626 0.950 . S
H2597 C2627 0.950 . S
C2598 H2580 0.951 . S
C2598 C2599 1.366 . S
C2598 C2600 1.388 . S
C2599 C2598 1.366 . S
C2599 C2603 1.385 . S
C2600 H2581 0.951 . S
C2600 C2598 1.388 . S
C2600 C2601 1.366 . S
C2601 C2600 1.366 . S
C2601 C2602 1.414 . S
C2601 C2604 1.499 . S
C2602 H2582 0.950 . S
C2602 C2601 1.414 . S
C2602 C2603 1.374 . S
C2603 H2583 0.950 . S
C2603 C2599 1.385 . S
C2603 C2602 1.374 . S
C2604 C2601 1.499 . S
C2604 C2605 1.373 . S
C2604 C2606 1.389 . S
C2605 H2584 0.950 . S
C2605 C2604 1.373 . S
C2605 C2621 1.377 . S
C2606 C2604 1.389 . S
C2606 C2607 1.524 . S
C2606 C2620 1.377 . S
C2607 C2606 1.524 . S
C2607 C2608 1.397 . S
C2607 C2612 1.363 . S
C2608 H2585 0.950 . S
C2608 C2607 1.397 . S
C2608 C2609 1.334 . S
C2609 H2586 0.950 . S
C2609 C2608 1.334 . S
C2609 C2610 1.287 . S
C2610 C2609 1.287 . S
C2610 C2611 1.524 . S
C2610 H2629 0.913 . S
C2611 H2587 0.950 . S
C2611 C2610 1.524 . S
C2611 C2612 1.415 . S
C2612 H2588 0.950 . S
C2612 C2607 1.363 . S
C2612 C2611 1.415 . S
C2613 H2589 0.951 . S
C2613 C2614 1.366 . S
C2613 C2615 1.388 . S
C2614 C2613 1.366 . S
C2614 C2618 1.385 . S
C2615 H2590 0.951 . S
C2615 C2613 1.388 . S
C2615 C2616 1.366 . S
C2616 C2615 1.366 . S
C2616 C2617 1.414 . S
C2616 C2619 1.499 . S
C2617 H2591 0.950 . S
C2617 C2616 1.414 . S
C2617 C2618 1.374 . S
C2618 H2592 0.950 . S
C2618 C2614 1.385 . S
C2618 C2617 1.374 . S
C2619 C2616 1.499 . S
C2619 C2620 1.373 . S
C2619 C2621 1.389 . S
C2620 H2593 0.950 . S
C2620 C2606 1.377 . S
C2620 C2619 1.373 . S
C2621 C2605 1.377 . S
C2621 C2619 1.389 . S
C2621 C2622 1.524 . S
C2622 C2621 1.524 . S
C2622 C2623 1.397 . S
C2622 C2627 1.363 . S
C2623 H2594 0.950 . S
C2623 C2622 1.397 . S
C2623 C2624 1.334 . S
C2624 H2595 0.950 . S
C2624 C2623 1.334 . S
C2624 C2625 1.287 . S
C2625 C2624 1.287 . S
C2625 C2626 1.524 . S
C2625 H2628 0.999 . S
C2626 H2596 0.950 . S
C2626 C2625 1.524 . S
C2626 C2627 1.415 . S
C2627 H2597 0.950 . S
C2627 C2622 1.363 . S
C2627 C2626 1.415 . S
H2628 C2625 0.999 . S
H2629 C2610 0.913 . S
H2630 C2648 0.951 . S
H2631 C2650 0.951 . S
H2632 C2652 0.950 1_554 S
H2633 C2653 0.950 . S
H2634 C2655 0.950 . S
H2635 C2658 0.950 . S
H2636 C2659 0.950 . S
H2637 C2661 0.950 . S
H2638 C2662 0.950 . S
H2639 C2663 0.951 . S
H2640 C2665 0.951 . S
H2641 C2667 0.950 . S
H2642 C2668 0.950 . S
H2643 C2670 0.950 . S
H2644 C2673 0.950 . S
H2645 C2674 0.950 . S
H2646 C2676 0.950 . S
H2647 C2677 0.950 . S
C2648 H2630 0.951 . S
C2648 C2649 1.366 . S
C2648 C2650 1.388 1_556 S
C2649 C2648 1.366 . S
C2649 C2653 1.385 . S
C2650 H2631 0.951 . S
C2650 C2648 1.388 1_554 S
C2650 C2651 1.366 . S
C2651 C2650 1.366 . S
C2651 C2652 1.397 1_554 S
C2651 C2654 1.499 . S
C2652 H2632 0.950 1_556 S
C2652 C2651 1.397 1_556 S
C2652 C2653 1.392 . S
C2653 H2633 0.950 . S
C2653 C2649 1.385 . S
C2653 C2652 1.392 . S
C2654 C2651 1.499 . S
C2654 C2655 1.373 . S
C2654 C2656 1.389 . S
C2655 H2634 0.950 . S
C2655 C2654 1.373 . S
C2655 C2671 1.377 . S
C2656 C2654 1.389 . S
C2656 C2657 1.524 . S
C2656 C2670 1.377 . S
C2657 C2656 1.524 . S
C2657 C2658 1.397 . S
C2657 C2662 1.363 . S
C2658 H2635 0.950 . S
C2658 C2657 1.397 . S
C2658 C2659 1.334 . S
C2659 H2636 0.950 . S
C2659 C2658 1.334 . S
C2659 C2660 1.287 . S
C2660 C2659 1.287 . S
C2660 C2661 1.524 . S
C2660 H2679 0.913 . S
C2661 H2637 0.950 . S
C2661 C2660 1.524 . S
C2661 C2662 1.415 . S
C2662 H2638 0.950 . S
C2662 C2657 1.363 . S
C2662 C2661 1.415 . S
C2663 H2639 0.951 . S
C2663 C2664 1.366 . S
C2663 C2665 1.388 . S
C2664 C2663 1.366 . S
C2664 C2668 1.385 . S
C2665 H2640 0.951 . S
C2665 C2663 1.388 . S
C2665 C2666 1.366 . S
C2666 C2665 1.366 . S
C2666 C2667 1.414 . S
C2666 C2669 1.499 . S
C2667 H2641 0.950 . S
C2667 C2666 1.414 . S
C2667 C2668 1.374 . S
C2668 H2642 0.950 . S
C2668 C2664 1.385 . S
C2668 C2667 1.374 . S
C2669 C2666 1.499 . S
C2669 C2670 1.373 . S
C2669 C2671 1.389 . S
C2670 H2643 0.950 . S
C2670 C2656 1.377 . S
C2670 C2669 1.373 . S
C2671 C2655 1.377 . S
C2671 C2669 1.389 . S
C2671 C2672 1.524 . S
C2672 C2671 1.524 . S
C2672 C2673 1.397 . S
C2672 C2677 1.363 . S
C2673 H2644 0.950 . S
C2673 C2672 1.397 . S
C2673 C2674 1.334 . S
C2674 H2645 0.950 . S
C2674 C2673 1.334 . S
C2674 C2675 1.287 . S
C2675 C2674 1.287 . S
C2675 C2676 1.524 . S
C2675 H2678 0.999 . S
C2676 H2646 0.950 . S
C2676 C2675 1.524 . S
C2676 C2677 1.415 . S
C2677 H2647 0.950 . S
C2677 C2672 1.363 . S
C2677 C2676 1.415 . S
H2678 C2675 0.999 . S
H2679 C2660 0.913 . S
H2680 C2698 0.951 . S
H2681 C2700 0.951 . S
H2682 C2702 0.950 . S
H2683 C2703 0.950 . S
H2684 C2705 0.950 . S
H2685 C2708 0.950 . S
H2686 C2709 0.950 . S
H2687 C2711 0.950 . S
H2688 C2712 0.950 . S
H2689 C2713 0.951 . S
H2690 C2715 0.951 . S
H2691 C2717 0.950 . S
H2692 C2718 0.950 . S
H2693 C2720 0.950 . S
H2694 C2723 0.950 . S
H2695 C2724 0.950 . S
H2696 C2726 0.950 . S
H2697 C2727 0.950 . S
C2698 H2680 0.951 . S
C2698 C2699 1.366 . S
C2698 C2700 1.388 . S
C2699 C2698 1.366 . S
C2699 C2703 1.385 . S
C2700 H2681 0.951 . S
C2700 C2698 1.388 . S
C2700 C2701 1.366 . S
C2701 C2700 1.366 . S
C2701 C2702 1.414 . S
C2701 C2704 1.499 . S
C2702 H2682 0.950 . S
C2702 C2701 1.414 . S
C2702 C2703 1.374 . S
C2703 H2683 0.950 . S
C2703 C2699 1.385 . S
C2703 C2702 1.374 . S
C2704 C2701 1.499 . S
C2704 C2705 1.373 . S
C2704 C2706 1.389 . S
C2705 H2684 0.950 . S
C2705 C2704 1.373 . S
C2705 C2721 1.377 . S
C2706 C2704 1.389 . S
C2706 C2707 1.524 . S
C2706 C2720 1.377 . S
C2707 C2706 1.524 . S
C2707 C2708 1.397 . S
C2707 C2712 1.363 . S
C2708 H2685 0.950 . S
C2708 C2707 1.397 . S
C2708 C2709 1.334 . S
C2709 H2686 0.950 . S
C2709 C2708 1.334 . S
C2709 C2710 1.287 . S
C2710 C2709 1.287 . S
C2710 C2711 1.524 . S
C2710 H2729 0.913 . S
C2711 H2687 0.950 . S
C2711 C2710 1.524 . S
C2711 C2712 1.415 . S
C2712 H2688 0.950 . S
C2712 C2707 1.363 . S
C2712 C2711 1.415 . S
C2713 H2689 0.951 . S
C2713 C2714 1.366 . S
C2713 C2715 1.388 . S
C2714 C2713 1.366 . S
C2714 C2718 1.385 . S
C2715 H2690 0.951 . S
C2715 C2713 1.388 . S
C2715 C2716 1.366 . S
C2716 C2715 1.366 . S
C2716 C2717 1.414 . S
C2716 C2719 1.499 . S
C2717 H2691 0.950 . S
C2717 C2716 1.414 . S
C2717 C2718 1.374 . S
C2718 H2692 0.950 . S
C2718 C2714 1.385 . S
C2718 C2717 1.374 . S
C2719 C2716 1.499 . S
C2719 C2720 1.373 . S
C2719 C2721 1.389 . S
C2720 H2693 0.950 . S
C2720 C2706 1.377 . S
C2720 C2719 1.373 . S
C2721 C2705 1.377 . S
C2721 C2719 1.389 . S
C2721 C2722 1.524 . S
C2722 C2721 1.524 . S
C2722 C2723 1.397 . S
C2722 C2727 1.363 . S
C2723 H2694 0.950 . S
C2723 C2722 1.397 . S
C2723 C2724 1.334 . S
C2724 H2695 0.950 . S
C2724 C2723 1.334 . S
C2724 C2725 1.287 . S
C2725 C2724 1.287 . S
C2725 C2726 1.524 . S
C2725 H2728 0.999 . S
C2726 H2696 0.950 . S
C2726 C2725 1.524 . S
C2726 C2727 1.415 . S
C2727 H2697 0.950 . S
C2727 C2722 1.363 . S
C2727 C2726 1.415 . S
H2728 C2725 0.999 . S
H2729 C2710 0.913 . S
H2730 C2748 0.951 . S
H2731 C2750 0.951 . S
H2732 C2752 0.950 . S
H2733 C2753 0.950 . S
H2734 C2755 0.950 . S
H2735 C2758 0.950 . S
H2736 C2759 0.950 . S
H2737 C2761 0.950 . S
H2738 C2762 0.950 . S
H2739 C2763 0.951 . S
H2740 C2765 0.951 . S
H2741 C2767 0.950 . S
H2742 C2768 0.950 . S
H2743 C2770 0.950 . S
H2744 C2773 0.950 . S
H2745 C2774 0.950 . S
H2746 C2776 0.950 . S
H2747 C2777 0.950 . S
C2748 H2730 0.951 . S
C2748 C2749 1.366 . S
C2748 C2750 1.388 . S
C2749 C2748 1.366 . S
C2749 C2753 1.385 . S
C2750 H2731 0.951 . S
C2750 C2748 1.388 . S
C2750 C2751 1.366 . S
C2751 C2750 1.366 . S
C2751 C2752 1.414 . S
C2751 C2754 1.499 . S
C2752 H2732 0.950 . S
C2752 C2751 1.414 . S
C2752 C2753 1.374 . S
C2753 H2733 0.950 . S
C2753 C2749 1.385 . S
C2753 C2752 1.374 . S
C2754 C2751 1.499 . S
C2754 C2755 1.373 . S
C2754 C2756 1.389 . S
C2755 H2734 0.950 . S
C2755 C2754 1.373 . S
C2755 C2771 1.377 . S
C2756 C2754 1.389 . S
C2756 C2757 1.524 . S
C2756 C2770 1.377 . S
C2757 C2756 1.524 . S
C2757 C2758 1.397 . S
C2757 C2762 1.363 . S
C2758 H2735 0.950 . S
C2758 C2757 1.397 . S
C2758 C2759 1.334 . S
C2759 H2736 0.950 . S
C2759 C2758 1.334 . S
C2759 C2760 1.287 . S
C2760 C2759 1.287 . S
C2760 C2761 1.524 . S
C2760 H2779 0.913 . S
C2761 H2737 0.950 . S
C2761 C2760 1.524 . S
C2761 C2762 1.415 . S
C2762 H2738 0.950 . S
C2762 C2757 1.363 . S
C2762 C2761 1.415 . S
C2763 H2739 0.951 . S
C2763 C2764 1.366 . S
C2763 C2765 1.388 . S
C2764 C2763 1.366 . S
C2764 C2768 1.385 . S
C2765 H2740 0.951 . S
C2765 C2763 1.388 . S
C2765 C2766 1.366 . S
C2766 C2765 1.366 . S
C2766 C2767 1.414 . S
C2766 C2769 1.499 . S
C2767 H2741 0.950 . S
C2767 C2766 1.414 . S
C2767 C2768 1.374 . S
C2768 H2742 0.950 . S
C2768 C2764 1.385 . S
C2768 C2767 1.374 . S
C2769 C2766 1.499 . S
C2769 C2770 1.373 . S
C2769 C2771 1.389 . S
C2770 H2743 0.950 . S
C2770 C2756 1.377 . S
C2770 C2769 1.373 . S
C2771 C2755 1.377 . S
C2771 C2769 1.389 . S
C2771 C2772 1.524 . S
C2772 C2771 1.524 . S
C2772 C2773 1.397 . S
C2772 C2777 1.363 . S
C2773 H2744 0.950 . S
C2773 C2772 1.397 . S
C2773 C2774 1.334 . S
C2774 H2745 0.950 . S
C2774 C2773 1.334 . S
C2774 C2775 1.287 . S
C2775 C2774 1.287 . S
C2775 C2776 1.524 . S
C2775 H2778 0.999 . S
C2776 H2746 0.950 . S
C2776 C2775 1.524 . S
C2776 C2777 1.415 . S
C2777 H2747 0.950 . S
C2777 C2772 1.363 . S
C2777 C2776 1.415 . S
H2778 C2775 0.999 . S
H2779 C2760 0.913 . S
H2780 C2798 0.951 . S
H2781 C2800 0.951 . S
H2782 C2802 0.950 . S
H2783 C2803 0.950 . S
H2784 C2805 0.950 . S
H2785 C2808 0.950 . S
H2786 C2809 0.950 . S
H2787 C2811 0.950 . S
H2788 C2812 0.950 . S
H2789 C2813 0.951 . S
H2790 C2815 0.951 . S
H2791 C2817 0.950 . S
H2792 C2818 0.950 . S
H2793 C2820 0.950 . S
H2794 C2823 0.950 . S
H2795 C2824 0.950 . S
H2796 C2826 0.950 . S
H2797 C2827 0.950 . S
C2798 H2780 0.951 . S
C2798 C2799 1.366 . S
C2798 C2800 1.388 . S
C2799 C2798 1.366 . S
C2799 C2803 1.385 . S
C2800 H2781 0.951 . S
C2800 C2798 1.388 . S
C2800 C2801 1.366 . S
C2801 C2800 1.366 . S
C2801 C2802 1.414 . S
C2801 C2804 1.499 . S
C2802 H2782 0.950 . S
C2802 C2801 1.414 . S
C2802 C2803 1.374 . S
C2803 H2783 0.950 . S
C2803 C2799 1.385 . S
C2803 C2802 1.374 . S
C2804 C2801 1.499 . S
C2804 C2805 1.373 . S
C2804 C2806 1.389 . S
C2805 H2784 0.950 . S
C2805 C2804 1.373 . S
C2805 C2821 1.377 . S
C2806 C2804 1.389 . S
C2806 C2807 1.524 . S
C2806 C2820 1.377 . S
C2807 C2806 1.524 . S
C2807 C2808 1.397 . S
C2807 C2812 1.363 . S
C2808 H2785 0.950 . S
C2808 C2807 1.397 . S
C2808 C2809 1.334 . S
C2809 H2786 0.950 . S
C2809 C2808 1.334 . S
C2809 C2810 1.287 . S
C2810 C2809 1.287 . S
C2810 C2811 1.524 . S
C2810 H2829 0.913 . S
C2811 H2787 0.950 . S
C2811 C2810 1.524 . S
C2811 C2812 1.415 . S
C2812 H2788 0.950 . S
C2812 C2807 1.363 . S
C2812 C2811 1.415 . S
C2813 H2789 0.951 . S
C2813 C2814 1.366 . S
C2813 C2815 1.388 . S
C2814 C2813 1.366 . S
C2814 C2818 1.385 . S
C2815 H2790 0.951 . S
C2815 C2813 1.388 . S
C2815 C2816 1.366 . S
C2816 C2815 1.366 . S
C2816 C2817 1.414 . S
C2816 C2819 1.499 . S
C2817 H2791 0.950 . S
C2817 C2816 1.414 . S
C2817 C2818 1.374 . S
C2818 H2792 0.950 . S
C2818 C2814 1.385 . S
C2818 C2817 1.374 . S
C2819 C2816 1.499 . S
C2819 C2820 1.373 . S
C2819 C2821 1.389 . S
C2820 H2793 0.950 . S
C2820 C2806 1.377 . S
C2820 C2819 1.373 . S
C2821 C2805 1.377 . S
C2821 C2819 1.389 . S
C2821 C2822 1.524 . S
C2822 C2821 1.524 . S
C2822 C2823 1.397 . S
C2822 C2827 1.363 . S
C2823 H2794 0.950 . S
C2823 C2822 1.397 . S
C2823 C2824 1.334 . S
C2824 H2795 0.950 . S
C2824 C2823 1.334 . S
C2824 C2825 1.287 . S
C2825 C2824 1.287 . S
C2825 C2826 1.524 . S
C2825 H2828 0.999 . S
C2826 H2796 0.950 . S
C2826 C2825 1.524 . S
C2826 C2827 1.415 . S
C2827 H2797 0.950 . S
C2827 C2822 1.363 . S
C2827 C2826 1.415 . S
H2828 C2825 0.999 . S
H2829 C2810 0.913 . S
H2830 C2848 0.951 . S
H2831 C2850 0.951 . S
H2832 C2852 0.950 . S
H2833 C2853 0.950 . S
H2834 C2855 0.950 . S
H2835 C2858 0.950 . S
H2836 C2859 0.950 . S
H2837 C2861 0.950 . S
H2838 C2862 0.950 . S
H2839 C2863 0.951 . S
H2840 C2865 0.951 . S
H2841 C2867 0.950 . S
H2842 C2868 0.950 . S
H2843 C2870 0.950 . S
H2844 C2873 0.950 . S
H2845 C2874 0.950 . S
H2846 C2876 0.950 . S
H2847 C2877 0.950 . S
C2848 H2830 0.951 . S
C2848 C2849 1.366 . S
C2848 C2850 1.388 . S
C2849 C2848 1.366 . S
C2849 C2853 1.385 . S
C2850 H2831 0.951 . S
C2850 C2848 1.388 . S
C2850 C2851 1.366 . S
C2851 C2850 1.366 . S
C2851 C2852 1.414 . S
C2851 C2854 1.499 . S
C2852 H2832 0.950 . S
C2852 C2851 1.414 . S
C2852 C2853 1.374 . S
C2853 H2833 0.950 . S
C2853 C2849 1.385 . S
C2853 C2852 1.374 . S
C2854 C2851 1.499 . S
C2854 C2855 1.373 . S
C2854 C2856 1.389 . S
C2855 H2834 0.950 . S
C2855 C2854 1.373 . S
C2855 C2871 1.377 . S
C2856 C2854 1.389 . S
C2856 C2857 1.524 . S
C2856 C2870 1.377 . S
C2857 C2856 1.524 . S
C2857 C2858 1.397 . S
C2857 C2862 1.363 . S
C2858 H2835 0.950 . S
C2858 C2857 1.397 . S
C2858 C2859 1.334 . S
C2859 H2836 0.950 . S
C2859 C2858 1.334 . S
C2859 C2860 1.287 . S
C2860 C2859 1.287 . S
C2860 C2861 1.524 . S
C2860 H2879 0.913 . S
C2861 H2837 0.950 . S
C2861 C2860 1.524 . S
C2861 C2862 1.415 . S
C2862 H2838 0.950 . S
C2862 C2857 1.363 . S
C2862 C2861 1.415 . S
C2863 H2839 0.951 . S
C2863 C2864 1.366 . S
C2863 C2865 1.388 . S
C2864 C2863 1.366 . S
C2864 C2868 1.385 . S
C2865 H2840 0.951 . S
C2865 C2863 1.388 . S
C2865 C2866 1.366 . S
C2866 C2865 1.366 . S
C2866 C2867 1.414 . S
C2866 C2869 1.499 . S
C2867 H2841 0.950 . S
C2867 C2866 1.414 . S
C2867 C2868 1.374 . S
C2868 H2842 0.950 . S
C2868 C2864 1.385 . S
C2868 C2867 1.374 . S
C2869 C2866 1.499 . S
C2869 C2870 1.373 . S
C2869 C2871 1.389 . S
C2870 H2843 0.950 . S
C2870 C2856 1.377 . S
C2870 C2869 1.373 . S
C2871 C2855 1.377 . S
C2871 C2869 1.389 . S
C2871 C2872 1.524 . S
C2872 C2871 1.524 . S
C2872 C2873 1.397 . S
C2872 C2877 1.363 . S
C2873 H2844 0.950 . S
C2873 C2872 1.397 . S
C2873 C2874 1.334 . S
C2874 H2845 0.950 . S
C2874 C2873 1.334 . S
C2874 C2875 1.287 . S
C2875 C2874 1.287 . S
C2875 C2876 1.524 . S
C2875 H2878 0.999 . S
C2876 H2846 0.950 . S
C2876 C2875 1.524 . S
C2876 C2877 1.415 . S
C2877 H2847 0.950 . S
C2877 C2872 1.363 . S
C2877 C2876 1.415 . S
H2878 C2875 0.999 . S
H2879 C2860 0.913 . S
H2880 C2898 0.951 . S
H2881 C2900 0.951 . S
H2882 C2902 0.950 . S
H2883 C2903 0.950 . S
H2884 C2905 0.950 . S
H2885 C2908 0.950 . S
H2886 C2909 0.950 . S
H2887 C2911 0.950 . S
H2888 C2912 0.950 . S
H2889 C2913 0.951 . S
H2890 C2915 0.951 . S
H2891 C2917 0.950 . S
H2892 C2918 0.950 1_554 S
H2893 C2920 0.950 . S
H2894 C2923 0.950 . S
H2895 C2924 0.950 . S
H2896 C2926 0.950 . S
H2897 C2927 0.950 . S
C2898 H2880 0.951 . S
C2898 C2899 1.366 . S
C2898 C2900 1.388 . S
C2899 C2898 1.366 . S
C2899 C2903 1.385 . S
C2900 H2881 0.951 . S
C2900 C2898 1.388 . S
C2900 C2901 1.366 . S
C2901 C2900 1.366 . S
C2901 C2902 1.414 . S
C2901 C2904 1.499 . S
C2902 H2882 0.950 . S
C2902 C2901 1.414 . S
C2902 C2903 1.374 . S
C2903 H2883 0.950 . S
C2903 C2899 1.385 . S
C2903 C2902 1.374 . S
C2904 C2901 1.499 . S
C2904 C2905 1.373 . S
C2904 C2906 1.389 . S
C2905 H2884 0.950 . S
C2905 C2904 1.373 . S
C2905 C2921 1.377 . S
C2906 C2904 1.389 . S
C2906 C2907 1.524 . S
C2906 C2920 1.377 . S
C2907 C2906 1.524 . S
C2907 C2908 1.397 . S
C2907 C2912 1.363 . S
C2908 H2885 0.950 . S
C2908 C2907 1.397 . S
C2908 C2909 1.334 . S
C2909 H2886 0.950 . S
C2909 C2908 1.334 . S
C2909 C2910 1.287 . S
C2910 C2909 1.287 . S
C2910 C2911 1.524 . S
C2910 H2929 0.913 . S
C2911 H2887 0.950 . S
C2911 C2910 1.524 . S
C2911 C2912 1.415 . S
C2912 H2888 0.950 . S
C2912 C2907 1.363 . S
C2912 C2911 1.415 . S
C2913 H2889 0.951 . S
C2913 C2914 1.366 . S
C2913 C2915 1.388 . S
C2914 C2913 1.366 . S
C2914 C2918 1.385 . S
C2915 H2890 0.951 . S
C2915 C2913 1.388 . S
C2915 C2916 1.366 . S
C2916 C2915 1.366 . S
C2916 C2917 1.414 . S
C2916 C2919 1.499 . S
C2917 H2891 0.950 . S
C2917 C2916 1.414 . S
C2917 C2918 1.374 . S
C2918 H2892 0.950 1_556 S
C2918 C2914 1.385 . S
C2918 C2917 1.374 . S
C2919 C2916 1.499 . S
C2919 C2920 1.373 . S
C2919 C2921 1.389 . S
C2920 H2893 0.950 . S
C2920 C2906 1.377 . S
C2920 C2919 1.373 . S
C2921 C2905 1.377 . S
C2921 C2919 1.389 . S
C2921 C2922 1.524 . S
C2922 C2921 1.524 . S
C2922 C2923 1.397 . S
C2922 C2927 1.363 . S
C2923 H2894 0.950 . S
C2923 C2922 1.397 . S
C2923 C2924 1.334 . S
C2924 H2895 0.950 . S
C2924 C2923 1.334 . S
C2924 C2925 1.287 . S
C2925 C2924 1.287 . S
C2925 C2926 1.524 . S
C2925 H2928 0.999 . S
C2926 H2896 0.950 . S
C2926 C2925 1.524 . S
C2926 C2927 1.415 . S
C2927 H2897 0.950 . S
C2927 C2922 1.363 . S
C2927 C2926 1.415 . S
H2928 C2925 0.999 . S
H2929 C2910 0.913 . S
H2930 C2948 0.951 . S
H2931 C2950 0.951 . S
H2932 C2952 0.950 . S
H2933 C2953 0.950 . S
H2934 C2955 0.950 . S
H2935 C2958 0.950 . S
H2936 C2959 0.950 . S
H2937 C2961 0.950 . S
H2938 C2962 0.950 . S
H2939 C2963 0.951 . S
H2940 C2965 0.951 . S
H2941 C2967 0.950 . S
H2942 C2968 0.950 . S
H2943 C2970 0.950 . S
H2944 C2973 0.950 . S
H2945 C2974 0.950 . S
H2946 C2976 0.950 . S
H2947 C2977 0.950 . S
C2948 H2930 0.951 . S
C2948 C2949 1.366 . S
C2948 C2950 1.388 . S
C2949 C2948 1.366 . S
C2949 C2953 1.385 . S
C2950 H2931 0.951 . S
C2950 C2948 1.388 . S
C2950 C2951 1.366 . S
C2951 C2950 1.366 . S
C2951 C2952 1.414 . S
C2951 C2954 1.499 . S
C2952 H2932 0.950 . S
C2952 C2951 1.414 . S
C2952 C2953 1.374 . S
C2953 H2933 0.950 . S
C2953 C2949 1.385 . S
C2953 C2952 1.374 . S
C2954 C2951 1.499 . S
C2954 C2955 1.373 . S
C2954 C2956 1.389 . S
C2955 H2934 0.950 . S
C2955 C2954 1.373 . S
C2955 C2971 1.377 . S
C2956 C2954 1.389 . S
C2956 C2957 1.524 . S
C2956 C2970 1.377 . S
C2957 C2956 1.524 . S
C2957 C2958 1.397 . S
C2957 C2962 1.363 . S
C2958 H2935 0.950 . S
C2958 C2957 1.397 . S
C2958 C2959 1.334 . S
C2959 H2936 0.950 . S
C2959 C2958 1.334 . S
C2959 C2960 1.287 . S
C2960 C2959 1.287 . S
C2960 C2961 1.524 . S
C2960 H2979 0.913 . S
C2961 H2937 0.950 . S
C2961 C2960 1.524 . S
C2961 C2962 1.415 . S
C2962 H2938 0.950 . S
C2962 C2957 1.363 . S
C2962 C2961 1.415 . S
C2963 H2939 0.951 . S
C2963 C2964 1.366 . S
C2963 C2965 1.388 . S
C2964 C2963 1.366 . S
C2964 C2968 1.385 . S
C2965 H2940 0.951 . S
C2965 C2963 1.388 . S
C2965 C2966 1.366 . S
C2966 C2965 1.366 . S
C2966 C2967 1.414 . S
C2966 C2969 1.499 . S
C2967 H2941 0.950 . S
C2967 C2966 1.414 . S
C2967 C2968 1.374 . S
C2968 H2942 0.950 . S
C2968 C2964 1.385 . S
C2968 C2967 1.374 . S
C2969 C2966 1.499 . S
C2969 C2970 1.373 . S
C2969 C2971 1.389 . S
C2970 H2943 0.950 . S
C2970 C2956 1.377 . S
C2970 C2969 1.373 . S
C2971 C2955 1.377 . S
C2971 C2969 1.389 . S
C2971 C2972 1.524 . S
C2972 C2971 1.524 . S
C2972 C2973 1.397 . S
C2972 C2977 1.363 . S
C2973 H2944 0.950 . S
C2973 C2972 1.397 . S
C2973 C2974 1.334 . S
C2974 H2945 0.950 . S
C2974 C2973 1.334 . S
C2974 C2975 1.287 . S
C2975 C2974 1.287 . S
C2975 C2976 1.524 . S
C2975 H2978 0.999 . S
C2976 H2946 0.950 . S
C2976 C2975 1.524 . S
C2976 C2977 1.415 . S
C2977 H2947 0.950 . S
C2977 C2972 1.363 . S
C2977 C2976 1.415 . S
H2978 C2975 0.999 . S
H2979 C2960 0.913 . S
H2980 C2998 0.951 . S
H2981 C3000 0.951 . S
H2982 C3002 0.950 . S
H2983 C3003 0.950 . S
H2984 C3005 0.950 . S
H2985 C3008 0.950 . S
H2986 C3009 0.950 . S
H2987 C3011 0.950 . S
H2988 C3012 0.950 . S
H2989 C3013 0.951 . S
H2990 C3015 0.951 . S
H2991 C3017 0.950 . S
H2992 C3018 0.950 . S
H2993 C3020 0.950 . S
H2994 C3023 0.950 . S
H2995 C3024 0.950 . S
H2996 C3026 0.950 . S
H2997 C3027 0.950 . S
C2998 H2980 0.951 . S
C2998 C2999 1.366 . S
C2998 C3000 1.388 . S
C2999 C2998 1.366 . S
C2999 C3003 1.385 . S
C3000 H2981 0.951 . S
C3000 C2998 1.388 . S
C3000 C3001 1.366 . S
C3001 C3000 1.366 . S
C3001 C3002 1.414 . S
C3001 C3004 1.499 . S
C3002 H2982 0.950 . S
C3002 C3001 1.414 . S
C3002 C3003 1.374 . S
C3003 H2983 0.950 . S
C3003 C2999 1.385 . S
C3003 C3002 1.374 . S
C3004 C3001 1.499 . S
C3004 C3005 1.373 . S
C3004 C3006 1.389 . S
C3005 H2984 0.950 . S
C3005 C3004 1.373 . S
C3005 C3021 1.377 . S
C3006 C3004 1.389 . S
C3006 C3007 1.524 . S
C3006 C3020 1.377 . S
C3007 C3006 1.524 . S
C3007 C3008 1.397 . S
C3007 C3012 1.363 . S
C3008 H2985 0.950 . S
C3008 C3007 1.397 . S
C3008 C3009 1.334 . S
C3009 H2986 0.950 . S
C3009 C3008 1.334 . S
C3009 C3010 1.287 . S
C3010 C3009 1.287 . S
C3010 C3011 1.524 . S
C3010 H3029 0.913 . S
C3011 H2987 0.950 . S
C3011 C3010 1.524 . S
C3011 C3012 1.415 . S
C3012 H2988 0.950 . S
C3012 C3007 1.363 . S
C3012 C3011 1.415 . S
C3013 H2989 0.951 . S
C3013 C3014 1.366 . S
C3013 C3015 1.388 . S
C3014 C3013 1.366 . S
C3014 C3018 1.385 . S
C3015 H2990 0.951 . S
C3015 C3013 1.388 . S
C3015 C3016 1.366 . S
C3016 C3015 1.366 . S
C3016 C3017 1.414 . S
C3016 C3019 1.499 . S
C3017 H2991 0.950 . S
C3017 C3016 1.414 . S
C3017 C3018 1.374 . S
C3018 H2992 0.950 . S
C3018 C3014 1.385 . S
C3018 C3017 1.374 . S
C3019 C3016 1.499 . S
C3019 C3020 1.373 . S
C3019 C3021 1.389 . S
C3020 H2993 0.950 . S
C3020 C3006 1.377 . S
C3020 C3019 1.373 . S
C3021 C3005 1.377 . S
C3021 C3019 1.389 . S
C3021 C3022 1.524 . S
C3022 C3021 1.524 . S
C3022 C3023 1.397 . S
C3022 C3027 1.363 . S
C3023 H2994 0.950 . S
C3023 C3022 1.397 . S
C3023 C3024 1.334 1_554 S
C3024 H2995 0.950 . S
C3024 C3023 1.334 1_556 S
C3024 C3025 1.287 . S
C3025 C3024 1.287 . S
C3025 C3026 1.524 . S
C3025 H3028 0.999 . S
C3026 H2996 0.950 . S
C3026 C3025 1.524 . S
C3026 C3027 1.415 1_556 S
C3027 H2997 0.950 . S
C3027 C3022 1.363 . S
C3027 C3026 1.415 1_554 S
H3028 C3025 0.999 . S
H3029 C3010 0.913 . S
H3030 C3048 0.951 . S
H3031 C3050 0.951 . S
H3032 C3052 0.950 . S
H3033 C3053 0.950 . S
H3034 C3055 0.950 . S
H3035 C3058 0.950 . S
H3036 C3059 0.950 . S
H3037 C3061 0.950 . S
H3038 C3062 0.950 . S
H3039 C3063 0.951 . S
H3040 C3065 0.951 . S
H3041 C3067 0.950 . S
H3042 C3068 0.950 . S
H3043 C3070 0.950 1_565 S
H3044 C3073 0.950 . S
H3045 C3074 0.950 . S
H3046 C3076 0.950 . S
H3047 C3077 0.950 . S
C3048 H3030 0.951 . S
C3048 C3049 1.366 . S
C3048 C3050 1.388 . S
C3049 C3048 1.366 . S
C3049 C3053 1.385 . S
C3050 H3031 0.951 . S
C3050 C3048 1.388 . S
C3050 C3051 1.366 . S
C3051 C3050 1.366 . S
C3051 C3052 1.414 . S
C3051 C3054 1.499 . S
C3052 H3032 0.950 . S
C3052 C3051 1.414 . S
C3052 C3053 1.374 . S
C3053 H3033 0.950 . S
C3053 C3049 1.385 . S
C3053 C3052 1.374 . S
C3054 C3051 1.499 . S
C3054 C3055 1.373 . S
C3054 C3056 1.389 . S
C3055 H3034 0.950 . S
C3055 C3054 1.373 . S
C3055 C3071 1.377 . S
C3056 C3054 1.389 . S
C3056 C3057 1.524 . S
C3056 C3070 1.377 . S
C3057 C3056 1.524 . S
C3057 C3058 1.397 . S
C3057 C3062 1.363 . S
C3058 H3035 0.950 . S
C3058 C3057 1.397 . S
C3058 C3059 1.334 . S
C3059 H3036 0.950 . S
C3059 C3058 1.334 . S
C3059 C3060 1.287 . S
C3060 C3059 1.287 . S
C3060 C3061 1.524 . S
C3060 H3079 0.913 . S
C3061 H3037 0.950 . S
C3061 C3060 1.524 . S
C3061 C3062 1.415 . S
C3062 H3038 0.950 . S
C3062 C3057 1.363 . S
C3062 C3061 1.415 . S
C3063 H3039 0.951 . S
C3063 C3064 1.366 . S
C3063 C3065 1.388 . S
C3064 C3063 1.366 . S
C3064 C3068 1.385 . S
C3065 H3040 0.951 . S
C3065 C3063 1.388 . S
C3065 C3066 1.366 . S
C3066 C3065 1.366 . S
C3066 C3067 1.414 . S
C3066 C3069 1.499 1_565 S
C3067 H3041 0.950 . S
C3067 C3066 1.414 . S
C3067 C3068 1.374 . S
C3068 H3042 0.950 . S
C3068 C3064 1.385 . S
C3068 C3067 1.374 . S
C3069 C3066 1.499 1_545 S
C3069 C3070 1.373 . S
C3069 C3071 1.389 . S
C3070 H3043 0.950 1_545 S
C3070 C3056 1.377 . S
C3070 C3069 1.373 . S
C3071 C3055 1.377 . S
C3071 C3069 1.389 . S
C3071 C3072 1.524 . S
C3072 C3071 1.524 . S
C3072 C3073 1.397 . S
C3072 C3077 1.363 . S
C3073 H3044 0.950 . S
C3073 C3072 1.397 . S
C3073 C3074 1.334 . S
C3074 H3045 0.950 . S
C3074 C3073 1.334 . S
C3074 C3075 1.287 . S
C3075 C3074 1.287 . S
C3075 C3076 1.524 . S
C3075 H3078 0.999 . S
C3076 H3046 0.950 . S
C3076 C3075 1.524 . S
C3076 C3077 1.415 . S
C3077 H3047 0.950 . S
C3077 C3072 1.363 . S
C3077 C3076 1.415 . S
H3078 C3075 0.999 . S
H3079 C3060 0.913 . S
C714 C520 1.597 . S
C699 C177 1.572 . S
C764 C535 1.740 . S
C749 C209 1.693 . S
C799 C253 1.637 . S
C814 C548 1.682 . S
C864 C562 1.530 . S
C849 C157 1.587 . S
C914 C574 1.684 . S
C899 C343 1.723 . S
C964 C588 1.250 . S
C949 C401 1.277 . S
C999 C369 1.790 . S
C1014 C602 1.790 . S
C1064 C617 1.417 . S
C1049 C317 1.348 . S
C1099 C375 1.665 . S
C1114 C633 1.697 . S
C1164 C646 1.526 . S
C1149 C305 1.466 . S
C1199 C349 1.617 . S
C1214 C631 1.600 . S
C1264 C644 1.467 . S
C1249 C413 1.490 . S
C1299 C241 1.830 . S
C1314 C660 1.864 . S
C1349 C151 1.545 . S
C1364 C659 1.508 . S
C1399 C189 1.757 . S
C1414 C658 1.743 . S
C1449 C215 1.544 . S
C1464 C661 1.595 . S
C1499 C113 1.708 . S
C1514 C563 1.711 . S
C1549 C471 1.473 . S
C1564 C561 1.473 . S
C1614 C521 1.535 . S
C1599 C509 1.473 . S
C1664 C532 1.766 . S
C1649 C279 1.739 . S
C1699 C145 1.568 . S
C1714 C577 1.537 . S
C1764 C618 1.972 . S
C1749 C381 1.929 . S
C1814 C575 1.473 . S
C1799 C311 1.403 . S
C1864 C603 1.463 . S
C1849 C407 1.493 . S
C1914 C604 1.597 . S
C1899 C465 1.572 . S
C1949 C497 1.693 . S
C1964 C619 1.740 . S
C1999 C285 1.637 . S
C2014 C576 1.683 . S
C2064 C590 1.530 . S
C2049 C445 1.587 . S
C2099 C119 1.723 . S
C2114 C546 1.684 . S
C2164 C560 1.250 . S
C2149 C17 1.277 . S
C2214 C518 1.790 . S
C2199 C49 1.789 . S
C2264 C533 1.418 . S
C2249 C93 1.347 . S
C2299 C55 1.665 . S
C2314 C647 1.697 . S
C2349 C81 1.465 . S
C2364 C632 1.526 . S
C2399 C125 1.617 . S
C2414 C645 1.599 . S
C2449 C29 1.490 . S
C2464 C630 1.467 . S
C2514 C674 1.864 . S
C2499 C273 1.831 . S
C2564 C673 1.508 . S
C2549 C439 1.545 . S
C2614 C672 1.743 . S
C2599 C477 1.757 . S
C2649 C503 1.544 . S
C2664 C675 1.595 . S
C2699 C337 1.708 . S
C2714 C591 1.711 . S
C2764 C589 1.473 . S
C2749 C183 1.474 . S
C2814 C605 1.535 . S
C2799 C221 1.473 . S
C2864 C616 1.767 . S
C2849 C247 1.739 . S
C2899 C433 1.568 . S
C2914 C549 1.538 . S
C2964 C534 1.972 . S
C2949 C61 1.929 . S
C2999 C87 1.403 . S
C3014 C547 1.474 . S
C3064 C519 1.463 . S
C3049 C23 1.493 . S
