# Generated by pormake.
# Topology cml, (3,6)-cn, num edge types: 1
# Building blocks:
#     Node 0, Type 0, BuildingBlock: CUQRIR_clean_linker_1, # of connection points: 3
#     Node 1, Type 0, BuildingBlock: CUQRIR_clean_linker_1, # of connection points: 3
#     Node 2, Type 0, BuildingBlock: CUQRIR_clean_linker_1, # of connection points: 3
#     Node 3, Type 0, BuildingBlock: CUQRIR_clean_linker_1, # of connection points: 3
#     Node 4, Type 0, BuildingBlock: CUQRIR_clean_linker_1, # of connection points: 3
#     Node 5, Type 0, BuildingBlock: CUQRIR_clean_linker_1, # of connection points: 3
#     Node 6, Type 0, BuildingBlock: CUQRIR_clean_linker_1, # of connection points: 3
#     Node 7, Type 0, BuildingBlock: CUQRIR_clean_linker_1, # of connection points: 3
#     Node 8, Type 1, BuildingBlock: IZENUY_clean_sbu_0, # of connection points: 6
#     Node 9, Type 1, BuildingBlock: IZENUY_clean_sbu_0, # of connection points: 6
#     Node 10, Type 1, BuildingBlock: IZENUY_clean_sbu_0, # of connection points: 6
#     Node 11, Type 1, BuildingBlock: IZENUY_clean_sbu_0, # of connection points: 6
#     Edge 12, Type (0, 1), BuildingBlock: MIFKUJ_clean_linker_0, # of connection points: 2
#     Edge 13, Type (0, 1), BuildingBlock: MIFKUJ_clean_linker_0, # of connection points: 2
#     Edge 14, Type (0, 1), BuildingBlock: MIFKUJ_clean_linker_0, # of connection points: 2
#     Edge 15, Type (0, 1), BuildingBlock: MIFKUJ_clean_linker_0, # of connection points: 2
#     Edge 16, Type (0, 1), BuildingBlock: MIFKUJ_clean_linker_0, # of connection points: 2
#     Edge 17, Type (0, 1), BuildingBlock: MIFKUJ_clean_linker_0, # of connection points: 2
#     Edge 18, Type (0, 1), BuildingBlock: MIFKUJ_clean_linker_0, # of connection points: 2
#     Edge 19, Type (0, 1), BuildingBlock: MIFKUJ_clean_linker_0, # of connection points: 2
#     Edge 20, Type (0, 1), BuildingBlock: MIFKUJ_clean_linker_0, # of connection points: 2
#     Edge 21, Type (0, 1), BuildingBlock: MIFKUJ_clean_linker_0, # of connection points: 2
#     Edge 22, Type (0, 1), BuildingBlock: MIFKUJ_clean_linker_0, # of connection points: 2
#     Edge 23, Type (0, 1), BuildingBlock: MIFKUJ_clean_linker_0, # of connection points: 2
#     Edge 24, Type (0, 1), BuildingBlock: MIFKUJ_clean_linker_0, # of connection points: 2
#     Edge 25, Type (0, 1), BuildingBlock: MIFKUJ_clean_linker_0, # of connection points: 2
#     Edge 26, Type (0, 1), BuildingBlock: MIFKUJ_clean_linker_0, # of connection points: 2
#     Edge 27, Type (0, 1), BuildingBlock: MIFKUJ_clean_linker_0, # of connection points: 2
#     Edge 28, Type (0, 1), BuildingBlock: MIFKUJ_clean_linker_0, # of connection points: 2
#     Edge 29, Type (0, 1), BuildingBlock: MIFKUJ_clean_linker_0, # of connection points: 2
#     Edge 30, Type (0, 1), BuildingBlock: MIFKUJ_clean_linker_0, # of connection points: 2
#     Edge 31, Type (0, 1), BuildingBlock: MIFKUJ_clean_linker_0, # of connection points: 2
#     Edge 32, Type (0, 1), BuildingBlock: MIFKUJ_clean_linker_0, # of connection points: 2
#     Edge 33, Type (0, 1), BuildingBlock: MIFKUJ_clean_linker_0, # of connection points: 2
#     Edge 34, Type (0, 1), BuildingBlock: MIFKUJ_clean_linker_0, # of connection points: 2
#     Edge 35, Type (0, 1), BuildingBlock: MIFKUJ_clean_linker_0, # of connection points: 2
# Relax obj value: 0.001
# Max RMSD: 0.079
# Mean RMSD: 0.058
data_MOF--net-cml--node1-IZENUY_clean_sbu_0--node2-CUQRIR_clean_linker_1--edge1-MIFKUJ_clean_linker_0
_symmetry_space_group_name_H-M    P1
_symmetry_Int_Tables_number       1
_symmetry_cell_setting            triclinic
loop_
_symmetry_equiv_pos_as_xyz
'x, y, z'
_cell_length_a     45.750147
_cell_length_b     51.096279
_cell_length_c     43.85764
_cell_angle_alpha  89.932518
_cell_angle_beta   90.014196
_cell_angle_gamma 90.256319
loop_
_atom_site_label
_atom_site_type_symbol
_atom_site_fract_x
_atom_site_fract_y
_atom_site_fract_z
_atom_type_partial_charge
C0 C 0.27512 0.34371 0.02777 0.0
N1 N 0.29546 0.36296 0.03024 0.0
N2 N 0.26307 0.3437 0.99952 0.0
C3 C 0.26779 0.3242 0.0524 0.0
C4 C 0.27691 0.36361 0.98488 0.0
N5 N 0.29682 0.37519 1.00352 0.0
C6 C 0.27008 0.37204 0.95275 0.0
H7 H 0.28302 0.30743 0.05065 0.0
H8 H 0.2451 0.31677 0.04979 0.0
H9 H 0.27021 0.33269 0.07546 0.0
H10 H 0.25022 0.3844 0.95306 0.0
H11 H 0.26546 0.35471 0.93827 0.0
H12 H 0.28786 0.38367 0.94227 0.0
C13 C 0.74079 0.66445 0.52792 0.0
N14 N 0.71967 0.64619 0.53188 0.0
N15 N 0.75177 0.66325 0.49924 0.0
C16 C 0.74932 0.68447 0.55147 0.0
C17 C 0.73629 0.64364 0.48592 0.0
N18 N 0.7166 0.63339 0.50575 0.0
C19 C 0.74207 0.63306 0.45451 0.0
H20 H 0.75667 0.70295 0.54051 0.0
H21 H 0.76757 0.67662 0.56535 0.0
H22 H 0.7308 0.6887 0.567 0.0
H23 H 0.76508 0.63665 0.44763 0.0
H24 H 0.72751 0.64304 0.438 0.0
H25 H 0.73745 0.61174 0.45354 0.0
C26 C 0.73208 0.34174 0.02323 0.0
N27 N 0.71345 0.36218 0.02547 0.0
N28 N 0.74619 0.34229 0.99604 0.0
C29 C 0.73714 0.32164 0.04774 0.0
C30 C 0.73561 0.36391 0.98198 0.0
N31 N 0.71584 0.37606 0.99998 0.0
C32 C 0.74397 0.37256 0.95031 0.0
H33 H 0.75538 0.32838 0.06248 0.0
H34 H 0.74326 0.30255 0.03761 0.0
H35 H 0.71763 0.3189 0.06234 0.0
H36 H 0.72913 0.36297 0.93369 0.0
H37 H 0.76674 0.36678 0.94495 0.0
H38 H 0.74191 0.39398 0.94738 0.0
C39 C 0.28442 0.66898 0.52573 0.0
N40 N 0.30356 0.64884 0.52644 0.0
N41 N 0.26948 0.66918 0.49898 0.0
C42 C 0.2788 0.68716 0.552 0.0
C43 C 0.28024 0.64832 0.48358 0.0
N44 N 0.30075 0.63591 0.50038 0.0
C45 C 0.27232 0.64117 0.45134 0.0
H46 H 0.28281 0.67716 0.57409 0.0
H47 H 0.25602 0.69451 0.55153 0.0
H48 H 0.29395 0.70411 0.55035 0.0
H49 H 0.291 0.63178 0.43958 0.0
H50 H 0.26548 0.65869 0.43823 0.0
H51 H 0.25388 0.627 0.45178 0.0
C52 C 0.77426 0.84593 0.02694 0.0
N53 N 0.79341 0.86604 0.03022 0.0
N54 N 0.75846 0.84872 1.00099 0.0
C55 C 0.7694 0.82462 0.05014 0.0
C56 C 0.76857 0.8714 0.98874 0.0
N57 N 0.78964 0.88199 0.00662 0.0
C58 C 0.75902 0.88246 0.95857 0.0
H59 H 0.78458 0.80826 0.04536 0.0
H60 H 0.74667 0.81702 0.04902 0.0
H61 H 0.77383 0.83189 0.07354 0.0
H62 H 0.74052 0.89601 0.96246 0.0
H63 H 0.75158 0.86667 0.94301 0.0
H64 H 0.77699 0.89368 0.94758 0.0
C65 C 0.23079 0.17255 0.52108 0.0
N66 N 0.21072 0.15307 0.52344 0.0
N67 N 0.24469 0.1715 0.49381 0.0
C68 C 0.23488 0.19402 0.5442 0.0
C69 C 0.23213 0.15075 0.47959 0.0
N70 N 0.2113 0.13969 0.49747 0.0
C71 C 0.24197 0.13988 0.44942 0.0
H72 H 0.2418 0.21253 0.53302 0.0
H73 H 0.25207 0.18815 0.56066 0.0
H74 H 0.21437 0.19751 0.55704 0.0
H75 H 0.26544 0.14419 0.4454 0.0
H76 H 0.22904 0.14904 0.43089 0.0
H77 H 0.23846 0.1184 0.44848 0.0
C78 C 0.22449 0.83629 0.01794 0.0
N79 N 0.20586 0.85662 0.02081 0.0
N80 N 0.23787 0.83696 0.99042 0.0
C81 C 0.22976 0.81588 0.04205 0.0
C82 C 0.22668 0.85846 0.97662 0.0
N83 N 0.20735 0.87061 0.99529 0.0
C84 C 0.2338 0.86647 0.94436 0.0
H85 H 0.24719 0.82298 0.0576 0.0
H86 H 0.23696 0.79719 0.03169 0.0
H87 H 0.20983 0.8123 0.05582 0.0
H88 H 0.22274 0.85282 0.92842 0.0
H89 H 0.25769 0.86498 0.94038 0.0
H90 H 0.22644 0.88641 0.93856 0.0
C91 C 0.77634 0.16282 0.52288 0.0
N92 N 0.79455 0.14224 0.5267 0.0
N93 N 0.76218 0.16109 0.49581 0.0
C94 C 0.77131 0.18405 0.54603 0.0
C95 C 0.77238 0.13862 0.48334 0.0
N96 N 0.79188 0.12702 0.50229 0.0
C97 C 0.76298 0.12771 0.45298 0.0
H98 H 0.75303 0.17802 0.56115 0.0
H99 H 0.76521 0.20265 0.53466 0.0
H100 H 0.79082 0.18742 0.56045 0.0
H101 H 0.75318 0.14275 0.43803 0.0
H102 H 0.74625 0.11228 0.45683 0.0
H103 H 0.78183 0.11871 0.44108 0.0
Fe104 Fe 0.00905 0.85108 0.33531 0.0
Fe105 Fe 0.0084 0.88056 0.39627 0.0
O106 O 0.00731 0.88096 0.35578 0.0
Fe107 Fe 0.00451 0.91099 0.33565 0.0
O108 O 0.97075 0.90084 0.31709 0.0
O109 O 0.98652 0.86218 0.30325 0.0
O110 O 0.97563 0.83944 0.35301 0.0
C111 C 0.97175 0.83744 0.3814 0.0
C112 C 0.04426 0.88135 0.29958 0.0
O113 O 0.98841 0.84931 0.39999 0.0
C114 C 0.04284 0.92518 0.38093 0.0
O115 O 0.03187 0.834 0.36345 0.0
O116 O 0.04372 0.86444 0.39643 0.0
O117 O 0.02654 0.90012 0.30304 0.0
O118 O 0.0425 0.86108 0.31603 0.0
C119 C 0.96711 0.91843 0.38674 0.0
O120 O 0.02831 0.91161 0.3998 0.0
O121 O 0.03795 0.92366 0.35263 0.0
C122 C 0.04873 0.84271 0.38398 0.0
O123 O 0.97337 0.89696 0.39937 0.0
O124 O 0.98192 0.92709 0.36449 0.0
C125 C 0.9684 0.88068 0.30068 0.0
Fe126 Fe 0.00407 0.12892 0.89394 0.0
Fe127 Fe 0.00441 0.09795 0.83398 0.0
O128 O 0.00453 0.1283 0.85351 0.0
Fe129 Fe 0.00509 0.15808 0.83269 0.0
O130 O 0.02672 0.17623 0.86112 0.0
O131 O 0.03858 0.1466 0.89523 0.0
O132 O 0.02511 0.09879 0.89864 0.0
C133 C 0.04172 0.08638 0.88075 0.0
C134 C 0.96637 0.17056 0.87784 0.0
O135 O 0.03826 0.08784 0.85222 0.0
C136 C 0.96728 0.12565 0.79745 0.0
O137 O 0.96957 0.11099 0.8955 0.0
O138 O 0.98241 0.0807 0.86263 0.0
O139 O 0.97076 0.16841 0.84957 0.0
O140 O 0.98293 0.15927 0.89681 0.0
C141 C 0.04281 0.12941 0.79805 0.0
O142 O 0.97052 0.10575 0.81422 0.0
O143 O 0.98376 0.14545 0.80049 0.0
C144 C 0.96589 0.08861 0.88384 0.0
O145 O 0.02642 0.10963 0.80176 0.0
O146 O 0.03931 0.14976 0.81396 0.0
C147 C 0.04325 0.16832 0.88238 0.0
Fe148 Fe 0.50819 0.35337 0.33443 0.0
Fe149 Fe 0.51069 0.38237 0.39591 0.0
O150 O 0.51014 0.38303 0.35535 0.0
Fe151 Fe 0.51163 0.41338 0.33564 0.0
O152 O 0.48924 0.40253 0.30325 0.0
O153 O 0.47442 0.36303 0.31575 0.0
O154 O 0.48556 0.33601 0.36253 0.0
C155 C 0.46989 0.34425 0.38424 0.0
C156 C 0.54756 0.38447 0.29929 0.0
O157 O 0.47586 0.36539 0.39769 0.0
C158 C 0.55002 0.4218 0.38591 0.0
O159 O 0.54193 0.34157 0.35135 0.0
O160 O 0.53104 0.35153 0.39875 0.0
O161 O 0.5452 0.40443 0.31605 0.0
O162 O 0.53021 0.36528 0.30235 0.0
C163 C 0.47464 0.42616 0.38225 0.0
O164 O 0.5456 0.39952 0.39754 0.0
O165 O 0.53417 0.42994 0.36427 0.0
C166 C 0.54661 0.33937 0.37959 0.0
O167 O 0.49035 0.41301 0.40042 0.0
O168 O 0.47826 0.42462 0.35375 0.0
C169 C 0.47187 0.38342 0.2997 0.0
Fe170 Fe 0.50412 0.62904 0.89687 0.0
Fe171 Fe 0.50663 0.59804 0.8369 0.0
O172 O 0.50546 0.62833 0.85644 0.0
Fe173 Fe 0.50576 0.6581 0.83557 0.0
O174 O 0.52547 0.67705 0.86479 0.0
O175 O 0.53805 0.64768 0.89888 0.0
O176 O 0.526 0.59944 0.90227 0.0
C177 C 0.54306 0.58717 0.88474 0.0
C178 C 0.46518 0.66937 0.87926 0.0
O179 O 0.54012 0.58854 0.85617 0.0
C180 C 0.47024 0.62488 0.79881 0.0
O181 O 0.47028 0.61018 0.89789 0.0
O182 O 0.48401 0.58039 0.86476 0.0
O183 O 0.4705 0.66732 0.85112 0.0
O184 O 0.48174 0.65879 0.89884 0.0
C185 C 0.54585 0.63021 0.80296 0.0
O186 O 0.47321 0.60517 0.81591 0.0
O187 O 0.4862 0.64493 0.80245 0.0
C188 C 0.46711 0.58788 0.88587 0.0
O189 O 0.52954 0.61024 0.80565 0.0
O190 O 0.54098 0.65066 0.81835 0.0
C191 C 0.54184 0.6697 0.88642 0.0
H192 H 0.26537 0.29093 0.99893 0.0
H193 H 0.22809 0.26067 0.97969 0.0
H194 H 0.17528 0.32627 0.95165 0.0
H195 H 0.21165 0.35637 0.97317 0.0
H196 H 0.1413 0.29215 0.97437 0.0
H197 H 0.21767 0.28697 0.90038 0.0
H198 H 0.26788 0.28073 0.88137 0.0
H199 H 0.2678 0.20206 0.91592 0.0
H200 H 0.21771 0.20795 0.9355 0.0
H201 H 0.05008 0.22075 0.87169 0.0
H202 H 0.08783 0.24998 0.89189 0.0
H203 H 0.12719 0.18525 0.93953 0.0
H204 H 0.08924 0.1558 0.91968 0.0
H205 H 0.16761 0.21821 0.90663 0.0
H206 H 0.08876 0.22533 0.97933 0.0
H207 H 0.03767 0.23305 0.99464 0.0
H208 H 0.04189 0.31067 0.95723 0.0
H209 H 0.0929 0.30326 0.94128 0.0
C210 C 0.24563 0.29878 0.98894 0.0
C211 C 0.24137 0.32594 0.98743 0.0
C212 C 0.22449 0.28152 0.97754 0.0
C213 C 0.19899 0.29108 0.96357 0.0
C214 C 0.19475 0.3183 0.96215 0.0
C215 C 0.21565 0.33554 0.97411 0.0
C216 C 0.17654 0.27277 0.95094 0.0
C217 C 0.14712 0.27624 0.95921 0.0
C218 C 0.18394 0.25164 0.93149 0.0
C219 C 0.21404 0.248 0.91967 0.0
C220 C 0.22844 0.2684 0.90411 0.0
C221 C 0.25686 0.26492 0.89321 0.0
C222 C 0.27104 0.24103 0.8975 0.0
C223 C 0.2568 0.22056 0.91264 0.0
C224 C 0.22838 0.22396 0.92363 0.0
C225 C 0.06677 0.21266 0.88641 0.0
C226 C 0.06656 0.18591 0.89415 0.0
C227 C 0.08829 0.22944 0.898 0.0
C228 C 0.11019 0.21981 0.91734 0.0
C229 C 0.11043 0.19306 0.92467 0.0
C230 C 0.08868 0.1763 0.9134 0.0
C231 C 0.13269 0.23777 0.93007 0.0
C232 C 0.162 0.23419 0.92179 0.0
C233 C 0.12514 0.25908 0.949 0.0
C234 C 0.09456 0.26364 0.95885 0.0
C235 C 0.07872 0.24397 0.97415 0.0
C236 C 0.04979 0.2483 0.98298 0.0
C237 C 0.03651 0.27231 0.97684 0.0
C238 C 0.05218 0.29207 0.96194 0.0
C239 C 0.08112 0.28782 0.95302 0.0
H240 H 0.01411 0.27563 0.98369 0.0
H241 H 0.29305 0.23837 0.88904 0.0
H242 H 0.80512 0.67336 0.52276 0.0
H243 H 0.84248 0.70293 0.50178 0.0
H244 H 0.78709 0.71846 0.42432 0.0
H245 H 0.74929 0.68957 0.4459 0.0
H246 H 0.84755 0.70837 0.40975 0.0
H247 H 0.7892 0.76209 0.47619 0.0
H248 H 0.76541 0.77301 0.52495 0.0
H249 H 0.849 0.77475 0.56948 0.0
H250 H 0.87326 0.76338 0.52106 0.0
H251 H 0.92444 0.81783 0.35081 0.0
H252 H 0.88686 0.78802 0.37013 0.0
H253 H 0.93044 0.78556 0.45737 0.0
H254 H 0.96741 0.81621 0.43854 0.0
H255 H 0.8752 0.7886 0.46672 0.0
H256 H 0.93427 0.73427 0.40299 0.0
H257 H 0.95969 0.72105 0.35592 0.0
H258 H 0.87776 0.71793 0.30825 0.0
H259 H 0.85188 0.73147 0.35495 0.0
C260 C 0.80094 0.68324 0.50137 0.0
C261 C 0.77434 0.67941 0.486 0.0
C262 C 0.82227 0.69998 0.48935 0.0
C263 C 0.81744 0.71298 0.4616 0.0
C264 C 0.79124 0.70856 0.44573 0.0
C265 C 0.76975 0.69205 0.45797 0.0
C266 C 0.83944 0.73171 0.44961 0.0
C267 C 0.85338 0.7261 0.42193 0.0
C268 C 0.84753 0.75443 0.46602 0.0
C269 C 0.83302 0.76163 0.49506 0.0
C270 C 0.80249 0.76459 0.49643 0.0
C271 C 0.78892 0.77089 0.524 0.0
C272 C 0.80568 0.77451 0.55031 0.0
C273 C 0.83605 0.77191 0.54908 0.0
C274 C 0.84972 0.76555 0.52158 0.0
C275 C 0.92604 0.8109 0.3741 0.0
C276 C 0.94901 0.81929 0.39309 0.0
C277 C 0.9046 0.79373 0.38509 0.0
C278 C 0.90603 0.78408 0.41508 0.0
C279 C 0.92882 0.79265 0.43415 0.0
C280 C 0.95001 0.81015 0.42333 0.0
C281 C 0.88364 0.76531 0.42672 0.0
C282 C 0.86951 0.7709 0.4544 0.0
C283 C 0.87569 0.74235 0.4105 0.0
C284 C 0.89118 0.73414 0.38239 0.0
C285 C 0.9217 0.73095 0.38241 0.0
C286 C 0.93618 0.72337 0.35581 0.0
C287 C 0.92036 0.71872 0.32909 0.0
C288 C 0.88999 0.72157 0.32895 0.0
C289 C 0.8754 0.72918 0.35548 0.0
H290 H 0.93161 0.71285 0.30852 0.0
H291 H 0.79513 0.77939 0.57164 0.0
H292 H 0.79655 0.32779 0.02306 0.0
H293 H 0.8333 0.29768 1.00278 0.0
H294 H 0.78098 0.2868 0.92179 0.0
H295 H 0.74351 0.31568 0.94308 0.0
H296 H 0.80282 0.24217 0.93744 0.0
H297 H 0.84264 0.32809 0.92403 0.0
H298 H 0.85829 0.37236 0.9395 0.0
H299 H 0.92073 0.33935 1.00154 0.0
H300 H 0.90515 0.29484 0.98677 0.0
H301 H 0.91961 0.19056 0.84647 0.0
H302 H 0.88141 0.21958 0.86608 0.0
H303 H 0.92302 0.21989 0.95431 0.0
H304 H 0.96101 0.1908 0.93511 0.0
H305 H 0.90676 0.2701 0.93326 0.0
H306 H 0.8653 0.18367 0.94552 0.0
H307 H 0.84986 0.14003 0.92759 0.0
H308 H 0.79055 0.17548 0.86404 0.0
H309 H 0.80599 0.21937 0.88128 0.0
C310 C 0.79284 0.31862 1.00116 0.0
C311 C 0.76741 0.32407 0.98449 0.0
C312 C 0.81394 0.30169 0.98938 0.0
C313 C 0.81025 0.29035 0.96042 0.0
C314 C 0.78446 0.29539 0.94408 0.0
C315 C 0.7632 0.31203 0.95607 0.0
C316 C 0.83331 0.27339 0.94707 0.0
C317 C 0.82546 0.24848 0.93616 0.0
C318 C 0.863 0.28139 0.94566 0.0
C319 C 0.87252 0.30813 0.9545 0.0
C320 C 0.85956 0.33026 0.94113 0.0
C321 C 0.86844 0.3554 0.94976 0.0
C322 C 0.89044 0.35866 0.97155 0.0
C323 C 0.90366 0.33679 0.9847 0.0
C324 C 0.89483 0.3116 0.97619 0.0
C325 C 0.92063 0.19684 0.87003 0.0
C326 C 0.94331 0.18831 0.88924 0.0
C327 C 0.89877 0.21334 0.8812 0.0
C328 C 0.89937 0.22177 0.91167 0.0
C329 C 0.92218 0.2136 0.93073 0.0
C330 C 0.94379 0.19688 0.91973 0.0
C331 C 0.87618 0.23902 0.92386 0.0
C332 C 0.88406 0.26394 0.93451 0.0
C333 C 0.84651 0.23118 0.92466 0.0
C334 C 0.83703 0.20481 0.91446 0.0
C335 C 0.84915 0.18217 0.92754 0.0
C336 C 0.84036 0.15738 0.91754 0.0
C337 C 0.81929 0.15498 0.89463 0.0
C338 C 0.8069 0.17737 0.88175 0.0
C339 C 0.81565 0.2022 0.89164 0.0
H340 H 0.81251 0.13578 0.88692 0.0
H341 H 0.89728 0.37814 0.97819 0.0
H342 H 0.21623 0.6575 0.47617 0.0
H343 H 0.1797 0.68838 0.45678 0.0
H344 H 0.23617 0.75296 0.48076 0.0
H345 H 0.27311 0.72197 0.49928 0.0
H346 H 0.17619 0.75972 0.49785 0.0
H347 H 0.23362 0.73622 0.41002 0.0
H348 H 0.25654 0.7051 0.37448 0.0
H349 H 0.17212 0.67398 0.35117 0.0
H350 H 0.14872 0.70463 0.38699 0.0
H351 H 0.09642 0.85723 0.41797 0.0
H352 H 0.13523 0.82904 0.43763 0.0
H353 H 0.09295 0.7618 0.39727 0.0
H354 H 0.05493 0.78998 0.37652 0.0
H355 H 0.14774 0.75735 0.38871 0.0
H356 H 0.08964 0.77725 0.47659 0.0
H357 H 0.06471 0.8056 0.51379 0.0
H358 H 0.14692 0.8404 0.53867 0.0
H359 H 0.1723 0.81246 0.50132 0.0
C360 C 0.22083 0.67828 0.47708 0.0
C361 C 0.24747 0.68741 0.489 0.0
C362 C 0.19998 0.69588 0.46616 0.0
C363 C 0.20533 0.72295 0.46717 0.0
C364 C 0.23161 0.73215 0.47983 0.0
C365 C 0.25261 0.71451 0.49046 0.0
C366 C 0.18372 0.74156 0.45434 0.0
C367 C 0.17021 0.75951 0.47391 0.0
C368 C 0.17544 0.74075 0.42329 0.0
C369 C 0.18944 0.72257 0.4014 0.0
C370 C 0.21996 0.72261 0.39749 0.0
C371 C 0.23304 0.70507 0.37727 0.0
C372 C 0.2158 0.68753 0.36063 0.0
C373 C 0.18544 0.68756 0.36411 0.0
C374 C 0.17226 0.70502 0.38435 0.0
C375 C 0.09545 0.83643 0.41327 0.0
C376 C 0.07252 0.82585 0.39576 0.0
C377 C 0.11757 0.82028 0.42467 0.0
C378 C 0.11686 0.79312 0.41944 0.0
C379 C 0.0941 0.78264 0.40167 0.0
C380 C 0.07229 0.79881 0.38984 0.0
C381 C 0.13976 0.77555 0.43225 0.0
C382 C 0.15363 0.75773 0.41266 0.0
C383 C 0.14801 0.7762 0.46342 0.0
C384 C 0.13282 0.79297 0.48594 0.0
C385 C 0.10237 0.79109 0.48984 0.0
C386 C 0.08816 0.80706 0.51097 0.0
C387 C 0.10421 0.82485 0.52852 0.0
C388 C 0.13451 0.82664 0.52503 0.0
C389 C 0.14882 0.81073 0.5039 0.0
H390 H 0.09317 0.83719 0.54487 0.0
H391 H 0.22597 0.67396 0.34499 0.0
H392 H 0.70304 0.86051 0.98526 0.0
H393 H 0.66561 0.83022 0.96569 0.0
H394 H 0.72751 0.76686 0.97024 0.0
H395 H 0.76494 0.79733 0.98937 0.0
H396 H 0.69625 0.76579 0.91708 0.0
H397 H 0.67594 0.77311 0.0242 0.0
H398 H 0.66582 0.79653 0.07214 0.0
H399 H 0.5878 0.82885 0.03311 0.0
H400 H 0.5977 0.80592 0.98473 0.0
H401 H 0.59356 0.65845 0.91477 0.0
H402 H 0.63005 0.68964 0.93432 0.0
H403 H 0.57511 0.75395 0.90737 0.0
H404 H 0.53905 0.723 0.88686 0.0
H405 H 0.60208 0.75447 0.97187 0.0
H406 H 0.62319 0.75052 0.86487 0.0
H407 H 0.63188 0.72769 0.81627 0.0
H408 H 0.70713 0.69003 0.85463 0.0
H409 H 0.69856 0.71237 0.90376 0.0
C410 C 0.70855 0.84015 0.98182 0.0
C411 C 0.73669 0.83112 0.98885 0.0
C412 C 0.68721 0.82283 0.97086 0.0
C413 C 0.69365 0.79618 0.96679 0.0
C414 C 0.722 0.78729 0.97326 0.0
C415 C 0.74328 0.8046 0.98432 0.0
C416 C 0.6708 0.7775 0.95608 0.0
C417 C 0.67586 0.76311 0.92933 0.0
C418 C 0.64384 0.77435 0.97162 0.0
C419 C 0.63772 0.788 1.00074 0.0
C420 C 0.65674 0.78537 0.02575 0.0
C421 C 0.65103 0.79853 0.05302 0.0
C422 C 0.62622 0.81422 0.05564 0.0
C423 C 0.60703 0.81672 0.03103 0.0
C424 C 0.61267 0.80363 1.00369 0.0
C425 C 0.58926 0.67923 0.9131 0.0
C426 C 0.56355 0.6883 0.89916 0.0
C427 C 0.61008 0.69699 0.92425 0.0
C428 C 0.60519 0.72406 0.92231 0.0
C429 C 0.57922 0.73314 0.90914 0.0
C430 C 0.55876 0.71544 0.89728 0.0
C431 C 0.62769 0.74288 0.93309 0.0
C432 C 0.62255 0.75721 0.95978 0.0
C433 C 0.65448 0.74611 0.91749 0.0
C434 C 0.66002 0.73283 0.88806 0.0
C435 C 0.64141 0.73716 0.86305 0.0
C436 C 0.64634 0.72437 0.83541 0.0
C437 C 0.66997 0.70738 0.83243 0.0
C438 C 0.6888 0.70318 0.85704 0.0
C439 C 0.68393 0.71591 0.88479 0.0
H440 H 0.67368 0.69756 0.811 0.0
H441 H 0.62183 0.82439 0.07677 0.0
H442 H 0.29393 0.18625 0.5233 0.0
H443 H 0.33182 0.21651 0.50471 0.0
H444 H 0.28552 0.22444 0.41961 0.0
H445 H 0.24676 0.19539 0.43883 0.0
H446 H 0.35198 0.21253 0.41901 0.0
H447 H 0.27756 0.27129 0.45898 0.0
H448 H 0.2446 0.28659 0.49964 0.0
H449 H 0.31818 0.29981 0.55853 0.0
H450 H 0.35155 0.28415 0.51835 0.0
H451 H 0.43276 0.31426 0.35072 0.0
H452 H 0.39365 0.28566 0.36923 0.0
H453 H 0.41507 0.30661 0.462 0.0
H454 H 0.45279 0.33671 0.44324 0.0
H455 H 0.36097 0.30275 0.45981 0.0
H456 H 0.43593 0.24557 0.42509 0.0
H457 H 0.47198 0.22705 0.38941 0.0
H458 H 0.4031 0.2069 0.32707 0.0
H459 H 0.36666 0.22561 0.36221 0.0
C460 C 0.29172 0.19474 0.5008 0.0
C461 C 0.26742 0.1886 0.48252 0.0
C462 C 0.31341 0.21181 0.49015 0.0
C463 C 0.31138 0.22263 0.46083 0.0
C464 C 0.28747 0.21615 0.44226 0.0
C465 C 0.26548 0.1995 0.45316 0.0
C466 C 0.33407 0.24102 0.4497 0.0
C467 C 0.35383 0.2324 0.42754 0.0
C468 C 0.33702 0.26648 0.46184 0.0
C469 C 0.31701 0.2763 0.48578 0.0
C470 C 0.28668 0.27724 0.48069 0.0
C471 C 0.26793 0.28602 0.50363 0.0
C472 C 0.27928 0.2941 0.53168 0.0
C473 C 0.30942 0.29351 0.5368 0.0
C474 C 0.32826 0.28471 0.51395 0.0
C475 C 0.42896 0.3128 0.37505 0.0
C476 C 0.44583 0.32754 0.39558 0.0
C477 C 0.40677 0.29626 0.38568 0.0
C478 C 0.40178 0.29327 0.41715 0.0
C479 C 0.41841 0.3084 0.43764 0.0
C480 C 0.44001 0.32558 0.42694 0.0
C481 C 0.37922 0.2745 0.42866 0.0
C482 C 0.35939 0.28295 0.45105 0.0
C483 C 0.37677 0.24855 0.41734 0.0
C484 C 0.3986 0.23722 0.39616 0.0
C485 C 0.4285 0.23735 0.40368 0.0
C486 C 0.44899 0.2268 0.38356 0.0
C487 C 0.43984 0.21587 0.35595 0.0
C488 C 0.41016 0.21541 0.34844 0.0
C489 C 0.38957 0.22596 0.36846 0.0
H490 H 0.45575 0.20771 0.34041 0.0
H491 H 0.26473 0.30088 0.54942 0.0
H492 H 0.23635 0.80916 0.93807 0.0
H493 H 0.27494 0.78117 0.91768 0.0
H494 H 0.3271 0.79601 0.99794 0.0
H495 H 0.28922 0.82554 0.01714 0.0
H496 H 0.36081 0.79759 0.95132 0.0
H497 H 0.28799 0.73693 0.98542 0.0
H498 H 0.23875 0.71742 0.98945 0.0
H499 H 0.23869 0.70172 0.89329 0.0
H500 H 0.2878 0.72148 0.88861 0.0
H501 H 0.45702 0.68942 0.93629 0.0
H502 H 0.4178 0.71804 0.95367 0.0
H503 H 0.3794 0.71646 0.86391 0.0
H504 H 0.41885 0.68793 0.8461 0.0
H505 H 0.33901 0.70803 0.91378 0.0
H506 H 0.41454 0.7684 0.88222 0.0
H507 H 0.46479 0.78605 0.88155 0.0
H508 H 0.46045 0.79997 0.97797 0.0
H509 H 0.41031 0.78202 0.9793 0.0
C510 C 0.25626 0.80671 0.95103 0.0
C511 C 0.26001 0.81958 0.97901 0.0
C512 C 0.27813 0.7904 0.93964 0.0
C513 C 0.30385 0.78609 0.95645 0.0
C514 C 0.3075 0.79894 0.98453 0.0
C515 C 0.28582 0.81559 0.99564 0.0
C516 C 0.32711 0.76851 0.94462 0.0
C517 C 0.356 0.7779 0.9435 0.0
C518 C 0.32094 0.74291 0.93387 0.0
C519 C 0.29145 0.73092 0.93662 0.0
C520 C 0.27739 0.72949 0.9651 0.0
C521 C 0.24952 0.71836 0.9675 0.0
C522 C 0.23557 0.7084 0.94163 0.0
C523 C 0.2495 0.70948 0.9133 0.0
C524 C 0.27737 0.72062 0.91076 0.0
C525 C 0.44024 0.69509 0.92019 0.0
C526 C 0.44112 0.68645 0.88975 0.0
C527 C 0.4179 0.71151 0.93017 0.0
C528 C 0.39584 0.71946 0.91002 0.0
C529 C 0.39629 0.71055 0.87977 0.0
C530 C 0.41888 0.69436 0.86963 0.0
C531 C 0.37243 0.73717 0.92067 0.0
C532 C 0.34361 0.72778 0.92157 0.0
C533 C 0.37873 0.76257 0.93173 0.0
C534 C 0.40876 0.77364 0.9309 0.0
C535 C 0.42438 0.77503 0.90332 0.0
C536 C 0.45283 0.78512 0.90281 0.0
C537 C 0.46583 0.79406 0.92971 0.0
C538 C 0.45037 0.79301 0.95716 0.0
C539 C 0.42192 0.7829 0.9578 0.0
H540 H 0.48787 0.80186 0.92927 0.0
H541 H 0.21399 0.69979 0.94354 0.0
H542 H 0.71048 0.17379 0.52093 0.0
H543 H 0.67425 0.20449 0.50069 0.0
H544 H 0.72936 0.21862 0.42241 0.0
H545 H 0.76627 0.1891 0.44385 0.0
H546 H 0.70743 0.26235 0.43881 0.0
H547 H 0.66608 0.17787 0.42049 0.0
H548 H 0.64923 0.13328 0.43328 0.0
H549 H 0.58634 0.16481 0.49576 0.0
H550 H 0.6031 0.20959 0.48366 0.0
H551 H 0.59273 0.31862 0.34797 0.0
H552 H 0.62988 0.28819 0.367 0.0
H553 H 0.5881 0.28734 0.45509 0.0
H554 H 0.55121 0.31797 0.4365 0.0
H555 H 0.60296 0.23659 0.43167 0.0
H556 H 0.64643 0.32174 0.44858 0.0
H557 H 0.6632 0.36563 0.43277 0.0
H558 H 0.72219 0.33114 0.36831 0.0
H559 H 0.70543 0.28702 0.38343 0.0
C560 C 0.71474 0.1836 0.49948 0.0
C561 C 0.74078 0.17885 0.4836 0.0
C562 C 0.69398 0.20094 0.48775 0.0
C563 C 0.69864 0.21349 0.45957 0.0
C564 C 0.72505 0.20909 0.44403 0.0
C565 C 0.74599 0.19207 0.45606 0.0
C566 C 0.67615 0.23133 0.44646 0.0
C567 C 0.68469 0.25649 0.43686 0.0
C568 C 0.64629 0.22398 0.44415 0.0
C569 C 0.63603 0.19708 0.45137 0.0
C570 C 0.64879 0.17529 0.43711 0.0
C571 C 0.63924 0.14998 0.44422 0.0
C572 C 0.61677 0.14621 0.46537 0.0
C573 C 0.60376 0.16776 0.4794 0.0
C574 C 0.61326 0.19311 0.47241 0.0
C575 C 0.59144 0.31193 0.37138 0.0
C576 C 0.56905 0.32078 0.39073 0.0
C577 C 0.61271 0.2946 0.38222 0.0
C578 C 0.61175 0.28558 0.41247 0.0
C579 C 0.58921 0.29406 0.43167 0.0
C580 C 0.56823 0.31167 0.42102 0.0
C581 C 0.63435 0.26741 0.42426 0.0
C582 C 0.62577 0.24226 0.43357 0.0
C583 C 0.66419 0.2746 0.42583 0.0
C584 C 0.67445 0.3011 0.4169 0.0
C585 C 0.66279 0.32352 0.43085 0.0
C586 C 0.67233 0.34844 0.42205 0.0
C587 C 0.69369 0.35117 0.39949 0.0
C588 C 0.70562 0.32899 0.38575 0.0
C589 C 0.69612 0.30403 0.39444 0.0
H590 H 0.70105 0.37048 0.3927 0.0
H591 H 0.60941 0.1266 0.47085 0.0
H592 H 0.33822 0.3769 0.96001 0.0
H593 H 0.36662 0.41537 0.94384 0.0
H594 H 0.32771 0.46068 0.01603 0.0
H595 H 0.29856 0.4222 0.03152 0.0
H596 H 0.34072 0.46237 0.92405 0.0
H597 H 0.38526 0.50813 0.03575 0.0
H598 H 0.40277 0.49486 0.08666 0.0
H599 H 0.42302 0.41835 0.05252 0.0
H600 H 0.40628 0.4313 1.00129 0.0
H601 H 0.43248 0.5929 0.93701 0.0
H602 H 0.40125 0.55922 0.96037 0.0
H603 H 0.4245 0.50533 0.88885 0.0
H604 H 0.45507 0.53868 0.86524 0.0
H605 H 0.41523 0.51143 0.98334 0.0
H606 H 0.3691 0.46532 0.87218 0.0
H607 H 0.3546 0.47933 0.82053 0.0
H608 H 0.33778 0.55684 0.85368 0.0
H609 H 0.35177 0.54322 0.9056 0.0
C610 C 0.33583 0.39513 0.97231 0.0
C611 C 0.31575 0.39698 0.99635 0.0
C612 C 0.35204 0.417 0.9632 0.0
C613 C 0.34907 0.44095 0.97854 0.0
C614 C 0.3303 0.44241 1.00384 0.0
C615 C 0.31371 0.42054 0.01267 0.0
C616 C 0.36414 0.46462 0.96655 0.0
C617 C 0.35718 0.47298 0.93694 0.0
C618 C 0.38487 0.47898 0.98379 0.0
C619 C 0.39411 0.47063 0.01473 0.0
C620 C 0.39345 0.48847 0.0391 0.0
C621 C 0.40339 0.48105 0.06798 0.0
C622 C 0.41415 0.45583 0.07276 0.0
C623 C 0.41475 0.4379 0.04875 0.0
C624 C 0.40495 0.44526 0.0198 0.0
C625 C 0.43062 0.57399 0.92605 0.0
C626 C 0.44626 0.56859 0.89915 0.0
C627 C 0.41291 0.5547 0.93955 0.0
C628 C 0.4103 0.52979 0.92625 0.0
C629 C 0.42572 0.5245 0.89931 0.0
C630 C 0.44332 0.54366 0.88585 0.0
C631 C 0.39217 0.50888 0.94062 0.0
C632 C 0.39846 0.50105 0.97063 0.0
C633 C 0.37069 0.495 0.92384 0.0
C634 C 0.36171 0.50327 0.89276 0.0
C635 C 0.36215 0.48531 0.86849 0.0
C636 C 0.35405 0.4932 0.83916 0.0
C637 C 0.34535 0.51897 0.83382 0.0
C638 C 0.34462 0.5369 0.85783 0.0
C639 C 0.35266 0.52912 0.88721 0.0
H640 H 0.33913 0.52505 0.81108 0.0
H641 H 0.42183 0.45012 0.09514 0.0
H642 H 0.71227 0.58833 0.53762 0.0
H643 H 0.68139 0.55033 0.52517 0.0
H644 H 0.64586 0.5923 0.44829 0.0
H645 H 0.67623 0.63041 0.46131 0.0
H646 H 0.60386 0.56306 0.47746 0.0
H647 H 0.70221 0.55128 0.439 0.0
H648 H 0.75577 0.54822 0.44399 0.0
H649 H 0.74606 0.48342 0.50566 0.0
H650 H 0.69237 0.48638 0.5014 0.0
H651 H 0.56225 0.47171 0.36794 0.0
H652 H 0.58912 0.50516 0.39579 0.0
H653 H 0.60981 0.44925 0.46616 0.0
H654 H 0.58255 0.41528 0.43836 0.0
H655 H 0.65725 0.48223 0.44929 0.0
H656 H 0.55807 0.49009 0.48049 0.0
H657 H 0.50472 0.49306 0.47338 0.0
H658 H 0.51557 0.56519 0.42432 0.0
H659 H 0.56904 0.56241 0.43057 0.0
C660 C 0.69736 0.58951 0.51851 0.0
C661 C 0.69662 0.61206 0.50023 0.0
C662 C 0.67991 0.56782 0.51129 0.0
C663 C 0.66159 0.56836 0.48556 0.0
C664 C 0.65984 0.59142 0.46821 0.0
C665 C 0.67728 0.61305 0.47545 0.0
C666 C 0.64593 0.54445 0.47517 0.0
C667 C 0.61551 0.54541 0.47122 0.0
C668 C 0.66106 0.52116 0.46779 0.0
C669 C 0.6933 0.51925 0.47018 0.0
C670 C 0.7115 0.53651 0.45381 0.0
C671 C 0.74188 0.53478 0.45648 0.0
C672 C 0.75431 0.51568 0.4752 0.0
C673 C 0.73639 0.49823 0.49122 0.0
C674 C 0.70599 0.49993 0.48869 0.0
C675 C 0.57267 0.46629 0.3892 0.0
C676 C 0.56994 0.44078 0.40103 0.0
C677 C 0.58793 0.48556 0.40517 0.0
C678 C 0.60091 0.47983 0.43333 0.0
C679 C 0.59967 0.45409 0.44457 0.0
C680 C 0.58416 0.43471 0.42862 0.0
C681 C 0.61531 0.50109 0.45085 0.0
C682 C 0.64548 0.49966 0.4561 0.0
C683 C 0.59993 0.52397 0.45932 0.0
C684 C 0.56767 0.52593 0.45582 0.0
C685 C 0.54913 0.50649 0.46798 0.0
C686 C 0.51884 0.50815 0.46412 0.0
C687 C 0.50677 0.52927 0.44837 0.0
C688 C 0.52495 0.54882 0.43651 0.0
C689 C 0.55527 0.54722 0.44022 0.0
H690 H 0.48332 0.5305 0.44538 0.0
H691 H 0.77784 0.51436 0.47723 0.0
H692 H 0.73469 0.42525 0.98992 0.0
H693 H 0.70519 0.46242 0.97254 0.0
H694 H 0.62766 0.414 0.97648 0.0
H695 H 0.65762 0.37667 0.99276 0.0
H696 H 0.62797 0.44023 0.92542 0.0
H697 H 0.6414 0.46141 0.02966 0.0
H698 H 0.66882 0.4687 0.0773 0.0
H699 H 0.71496 0.53287 0.03583 0.0
H700 H 0.68822 0.52563 0.9877 0.0
H701 H 0.54767 0.57269 0.94448 0.0
H702 H 0.57746 0.53791 0.96602 0.0
H703 H 0.61546 0.52368 0.87758 0.0
H704 H 0.58493 0.55806 0.85553 0.0
H705 H 0.63239 0.52813 0.97319 0.0
H706 H 0.62726 0.45902 0.86825 0.0
H707 H 0.59439 0.44957 0.82498 0.0
H708 H 0.52123 0.47801 0.87632 0.0
H709 H 0.55357 0.48727 0.92001 0.0
C710 C 0.71134 0.42276 0.98699 0.0
C711 C 0.69826 0.3983 0.99214 0.0
C712 C 0.69448 0.44392 0.97732 0.0
C713 C 0.66415 0.44104 0.97327 0.0
C714 C 0.65101 0.41666 0.97927 0.0
C715 C 0.66797 0.39546 0.98872 0.0
C716 C 0.64633 0.46324 0.9619 0.0
C717 C 0.62896 0.45944 0.93589 0.0
C718 C 0.64705 0.48818 0.97594 0.0
C719 C 0.66297 0.49282 0.00496 0.0
C720 C 0.65755 0.47696 0.03061 0.0
C721 C 0.67295 0.48109 0.05772 0.0
C722 C 0.69365 0.50121 0.05958 0.0
C723 C 0.69894 0.51727 0.03434 0.0
C724 C 0.68365 0.51317 0.00714 0.0
C725 C 0.5625 0.56234 0.92956 0.0
C726 C 0.56364 0.56799 0.89815 0.0
C727 C 0.57962 0.54246 0.94199 0.0
C728 C 0.59837 0.52785 0.92338 0.0
C729 C 0.60068 0.53431 0.89229 0.0
C730 C 0.58331 0.55406 0.87973 0.0
C731 C 0.61449 0.50523 0.93636 0.0
C732 C 0.63152 0.50894 0.96268 0.0
C733 C 0.61262 0.47994 0.92328 0.0
C734 C 0.59292 0.4741 0.89726 0.0
C735 C 0.60415 0.46316 0.87033 0.0
C736 C 0.58561 0.45785 0.84573 0.0
C737 C 0.55577 0.46327 0.84786 0.0
C738 C 0.54437 0.47391 0.87465 0.0
C739 C 0.5628 0.47921 0.89933 0.0
H740 H 0.54146 0.45917 0.82877 0.0
H741 H 0.70556 0.50439 0.08059 0.0
H742 H 0.28129 0.58712 0.49004 0.0
H743 H 0.3103 0.54949 0.47315 0.0
H744 H 0.38755 0.59843 0.47132 0.0
H745 H 0.35851 0.63549 0.48979 0.0
H746 H 0.33721 0.5399 0.42438 0.0
H747 H 0.44943 0.56244 0.48204 0.0
H748 H 0.46813 0.58383 0.52854 0.0
H749 H 0.3865 0.56919 0.57386 0.0
H750 H 0.36751 0.54715 0.5279 0.0
H751 H 0.44829 0.46702 0.35249 0.0
H752 H 0.41841 0.50159 0.37477 0.0
H753 H 0.42579 0.46507 0.46319 0.0
H754 H 0.45639 0.43092 0.44126 0.0
H755 H 0.43236 0.51486 0.46985 0.0
H756 H 0.36211 0.461 0.41973 0.0
H757 H 0.34014 0.43622 0.37723 0.0
H758 H 0.33194 0.50706 0.32521 0.0
H759 H 0.35424 0.53223 0.36727 0.0
C760 C 0.30454 0.58951 0.48627 0.0
C761 C 0.31793 0.61383 0.49122 0.0
C762 C 0.32109 0.56818 0.47654 0.0
C763 C 0.35127 0.57095 0.4712 0.0
C764 C 0.36452 0.59552 0.47594 0.0
C765 C 0.34802 0.61669 0.48629 0.0
C766 C 0.36856 0.54836 0.45978 0.0
C767 C 0.35798 0.53444 0.43443 0.0
C768 C 0.39545 0.54079 0.47317 0.0
C769 C 0.40693 0.55337 0.50132 0.0
C770 C 0.43552 0.56361 0.50197 0.0
C771 C 0.44617 0.57586 0.52825 0.0
C772 C 0.42848 0.57794 0.5541 0.0
C773 C 0.40015 0.56762 0.55379 0.0
C774 C 0.38944 0.55523 0.52763 0.0
C775 C 0.44335 0.46621 0.37662 0.0
C776 C 0.45464 0.4461 0.39504 0.0
C777 C 0.42623 0.486 0.38936 0.0
C778 C 0.41955 0.48585 0.42066 0.0
C779 C 0.43066 0.4657 0.43902 0.0
C780 C 0.44803 0.44608 0.42639 0.0
C781 C 0.40111 0.50673 0.43428 0.0
C782 C 0.41153 0.52034 0.45994 0.0
C783 C 0.37359 0.51349 0.42188 0.0
C784 C 0.36009 0.49846 0.39654 0.0
C785 C 0.35581 0.47127 0.39914 0.0
C786 C 0.34327 0.45716 0.37515 0.0
C787 C 0.33472 0.47005 0.34851 0.0
C788 C 0.33862 0.4971 0.34585 0.0
C789 C 0.35118 0.5113 0.36977 0.0
H790 H 0.32501 0.45909 0.32996 0.0
H791 H 0.43675 0.58748 0.57438 0.0
H792 H 0.77446 0.93258 0.01091 0.0
H793 H 0.80388 0.97067 0.99526 0.0
H794 H 0.87368 0.91892 0.96831 0.0
H795 H 0.84467 0.88123 0.98583 0.0
H796 H 0.89723 0.95939 0.9907 0.0
H797 H 0.82165 0.94667 0.91691 0.0
H798 H 0.77109 0.94145 0.89833 0.0
H799 H 0.75011 0.01842 0.93062 0.0
H800 H 0.80046 0.02392 0.94988 0.0
H801 H 0.96553 0.0357 0.87679 0.0
H802 H 0.93437 1.0036 0.90203 0.0
H803 H 0.88868 0.06548 0.94842 0.0
H804 H 0.92031 0.09813 0.92337 0.0
H805 H 0.85231 0.0234 0.91977 0.0
H806 H 0.93389 0.03494 0.98873 0.0
H807 H 0.9865 0.03761 1.00066 0.0
H808 H 0.99823 0.95889 0.96896 0.0
H809 H 0.94576 0.95589 0.95636 0.0
C810 C 0.79627 0.92965 1.00201 0.0
C811 C 0.80755 0.90431 0.99943 0.0
C812 C 0.81299 0.95126 0.99284 0.0
C813 C 0.84086 0.94775 0.97989 0.0
C814 C 0.85232 0.92228 0.97815 0.0
C815 C 0.83583 0.90076 0.98802 0.0
C816 C 0.8577 0.97036 0.96719 0.0
C817 C 0.88733 0.97323 0.97508 0.0
C818 C 0.84495 0.98874 0.94692 0.0
C819 C 0.81472 0.98559 0.93515 0.0
C820 C 0.8062 0.96241 0.92024 0.0
C821 C 0.77759 0.95941 0.90958 0.0
C822 C 0.75738 0.97957 0.91336 0.0
C823 C 0.76578 1.0028 0.92776 0.0
C824 C 0.79434 0.00587 0.93856 0.0
C825 C 0.94874 0.04266 0.89215 0.0
C826 C 0.94544 0.06957 0.89806 0.0
C827 C 0.93103 0.0242 0.90666 0.0
C828 C 0.90941 0.03216 0.92723 0.0
C829 C 0.90535 0.05899 0.93264 0.0
C830 C 0.92344 0.07758 0.91839 0.0
C831 C 0.89155 0.01213 0.94324 0.0
C832 C 0.86187 0.00971 0.93581 0.0
C833 C 0.90446 0.99371 0.96317 0.0
C834 C 0.93589 0.99525 0.97146 0.0
C835 C 0.94771 0.01824 0.98416 0.0
C836 C 0.97751 0.01981 0.99105 0.0
C837 C 0.99569 0.99844 0.98556 0.0
C838 C 0.9841 0.97542 0.97325 0.0
C839 C 0.95433 0.97377 0.96625 0.0
H840 H 0.01876 0.9997 0.99087 0.0
H841 H 0.73524 0.97721 0.90508 0.0
H842 H 0.17674 0.13634 0.44828 0.0
H843 H 0.14795 0.0985 0.4317 0.0
H844 H 0.17446 0.05625 0.51233 0.0
H845 H 0.20421 0.09414 0.52833 0.0
H846 H 0.17888 0.02578 0.46311 0.0
H847 H 0.10535 0.0794 0.50522 0.0
H848 H 0.07736 0.11969 0.51457 0.0
H849 H 0.05143 0.12187 0.4205 0.0
H850 H 0.07975 0.08185 0.41041 0.0
H851 H 0.06939 0.92634 0.43659 0.0
H852 H 0.0987 0.96179 0.45857 0.0
H853 H 0.09042 0.00578 0.3751 0.0
H854 H 0.06135 0.97021 0.35272 0.0
H855 H 0.07557 0.03387 0.43005 0.0
H856 H 0.15299 0.97996 0.38943 0.0
H857 H 0.17999 0.93867 0.38309 0.0
H858 H 0.1963 0.93577 0.47945 0.0
H859 H 0.16901 0.97689 0.48643 0.0
C860 C 0.1763 0.11895 0.4624 0.0
C861 C 0.19263 0.11798 0.48943 0.0
C862 C 0.15972 0.09742 0.45309 0.0
C863 C 0.15879 0.07455 0.47088 0.0
C864 C 0.17483 0.07367 0.49823 0.0
C865 C 0.19158 0.09529 0.50749 0.0
C866 C 0.14174 0.05147 0.46012 0.0
C867 C 0.15614 0.02746 0.4564 0.0
C868 C 0.11212 0.05365 0.45106 0.0
C869 C 0.0949 0.0777 0.457 0.0
C870 C 0.09388 0.08857 0.48645 0.0
C871 C 0.07793 0.11136 0.49189 0.0
C872 C 0.06266 0.12335 0.46813 0.0
C873 C 0.06329 0.11256 0.43888 0.0
C874 C 0.07928 0.08981 0.43329 0.0
C875 C 0.07407 0.94344 0.42277 0.0
C876 C 0.06303 0.94548 0.3929 0.0
C877 C 0.09084 0.96365 0.43537 0.0
C878 C 0.09666 0.9864 0.41848 0.0
C879 C 0.08611 0.98836 0.3885 0.0
C880 C 0.06968 0.96797 0.37569 0.0
C881 C 0.11292 0.00852 0.43249 0.0
C882 C 0.09827 0.03227 0.43693 0.0
C883 C 0.1421 0.00596 0.4427 0.0
C884 C 0.15869 0.98135 0.43849 0.0
C885 C 0.16211 0.97041 0.40931 0.0
C886 C 0.17751 0.94706 0.40559 0.0
C887 C 0.18978 0.93457 0.43086 0.0
C888 C 0.18675 0.94545 0.4599 0.0
C889 C 0.17134 0.96879 0.46375 0.0
H890 H 0.20169 0.91649 0.42794 0.0
H891 H 0.0503 0.14099 0.47239 0.0
H892 H 0.22898 0.91774 0.97913 0.0
H893 H 0.20117 0.95575 0.96204 0.0
H894 H 0.12073 0.91529 0.98403 0.0
H895 H 0.14878 0.87623 0.99755 0.0
H896 H 0.11199 0.93713 0.93505 0.0
H897 H 0.15444 0.96802 0.02647 0.0
H898 H 0.19286 0.97826 0.06412 0.0
H899 H 0.23223 0.03242 1.00133 0.0
H900 H 0.1944 0.0221 0.96311 0.0
H901 H 0.0555 0.07957 0.94075 0.0
H902 H 0.08412 0.04449 0.96351 0.0
H903 H 0.10292 0.01402 0.874 0.0
H904 H 0.07386 0.04895 0.85091 0.0
H905 H 0.13911 0.02853 0.96094 0.0
H906 H 0.09887 0.94723 0.87742 0.0
H907 H 0.05518 0.93743 0.84638 0.0
H908 H 1.00264 0.98451 0.90586 0.0
H909 H 0.04587 0.99418 0.93754 0.0
C910 C 0.20534 0.91704 0.97999 0.0
C911 C 0.19094 0.89401 0.98899 0.0
C912 C 0.18941 0.93888 0.9707 0.0
C913 C 0.15868 0.9387 0.97195 0.0
C914 C 0.14435 0.91601 0.98255 0.0
C915 C 0.16033 0.8938 0.99069 0.0
C916 C 0.14154 0.96161 0.96088 0.0
C917 C 0.118 0.95705 0.9409 0.0
C918 C 0.14875 0.98779 0.96886 0.0
C919 C 0.17156 0.99417 0.99187 0.0
C920 C 0.17133 0.98204 0.02067 0.0
C921 C 0.19303 0.98784 0.0421 0.0
C922 C 0.21495 0.006 0.03513 0.0
C923 C 0.21522 0.01837 0.00671 0.0
C924 C 0.19364 0.01254 0.98515 0.0
C925 C 0.06591 0.06558 0.92579 0.0
C926 C 0.06211 0.06694 0.89396 0.0
C927 C 0.08238 0.04558 0.9389 0.0
C928 C 0.09534 0.02645 0.92051 0.0
C929 C 0.09274 0.02839 0.88865 0.0
C930 C 0.07624 0.04844 0.87547 0.0
C931 C 0.11038 1.00384 0.93476 0.0
C932 C 0.13334 0.0085 0.95528 0.0
C933 C 0.10193 0.97777 0.92835 0.0
C934 C 0.07571 0.97164 0.90965 0.0
C935 C 0.07798 0.95538 0.88395 0.0
C936 C 0.05329 0.94985 0.86625 0.0
C937 C 0.02618 0.96039 0.8741 0.0
C938 C 0.02366 0.9764 0.89975 0.0
C939 C 0.04826 0.98192 0.91758 0.0
H940 H 0.00711 0.95612 0.86033 0.0
H941 H 0.23171 0.01049 0.05176 0.0
H942 H 0.85048 0.12176 0.50476 0.0
H943 H 0.87896 0.08322 0.49044 0.0
H944 H 0.79907 0.0415 0.46996 0.0
H945 H 0.7707 0.07937 0.48679 0.0
H946 H 0.83558 0.0084 0.49129 0.0
H947 H 0.84121 0.07451 0.41391 0.0
H948 H 0.85101 0.1185 0.39298 0.0
H949 H 0.94114 0.11243 0.41935 0.0
H950 H 0.93176 0.06853 0.44083 0.0
H951 H 0.93363 0.95421 0.35737 0.0
H952 H 0.90084 0.98639 0.37987 0.0
H953 H 0.91914 0.95534 0.46945 0.0
H954 H 0.95087 0.9222 0.44669 0.0
H955 H 0.91257 0.02438 0.4138 0.0
H956 H 0.86522 0.97046 0.51949 0.0
H957 H 0.85047 0.92583 0.5348 0.0
H958 H 0.83496 0.90579 0.44111 0.0
H959 H 0.84924 0.95038 0.42528 0.0
C960 C 0.83909 0.1041 0.49795 0.0
C961 C 0.80846 0.10361 0.49638 0.0
C962 C 0.85533 0.08219 0.48939 0.0
C963 C 0.84124 0.05962 0.47823 0.0
C964 C 0.81054 0.0587 0.47817 0.0
C965 C 0.79432 0.08043 0.48739 0.0
C966 C 0.85837 0.03767 0.46492 0.0
C967 C 0.85246 0.01189 0.47439 0.0
C968 C 0.87997 0.04203 0.4423 0.0
C969 C 0.88572 0.06835 0.42923 0.0
C970 C 0.86308 0.08263 0.4154 0.0
C971 C 0.86856 0.10754 0.40343 0.0
C972 C 0.89667 0.11828 0.4049 0.0
C973 C 0.91937 0.1041 0.41827 0.0
C974 C 0.91399 0.0792 0.43034 0.0
C975 C 0.93021 0.95395 0.38182 0.0
C976 C 0.94475 0.93569 0.40027 0.0
C977 C 0.91157 0.97245 0.39471 0.0
C978 C 0.90739 0.97343 0.42643 0.0
C979 C 0.92146 0.95478 0.44489 0.0
C980 C 0.93966 0.93585 0.43188 0.0
C981 C 0.88978 0.99497 0.44002 0.0
C982 C 0.89572 0.02077 0.43072 0.0
C983 C 0.86752 0.99047 0.46191 0.0
C984 C 0.85861 0.96368 0.4712 0.0
C985 C 0.85857 0.95655 0.50217 0.0
C986 C 0.85031 0.93126 0.51093 0.0
C987 C 0.84188 0.91296 0.48893 0.0
C988 C 0.8416 0.91995 0.45812 0.0
C989 C 0.84981 0.94522 0.44924 0.0
H990 H 0.83552 0.89339 0.49576 0.0
H991 H 0.90087 0.13757 0.39561 0.0
H992 H 0.27846 0.37918 0.08575 0.0
H993 H 0.30934 0.38436 0.13111 0.0
H994 H 0.38538 0.36488 0.07756 0.0
H995 H 0.35399 0.35858 0.03256 0.0
H996 H 0.38718 0.33963 0.1296 0.0
H997 H 0.36853 0.42624 0.09876 0.0
H998 H 0.34005 0.46499 0.08391 0.0
H999 H 0.30173 0.4678 0.1732 0.0
H1000 H 0.32957 0.42871 0.1884 0.0
H1001 H 0.46841 0.42007 0.25444 0.0
H1002 H 0.43931 0.41828 0.20796 0.0
H1003 H 0.40056 0.34549 0.23772 0.0
H1004 H 0.43026 0.34677 0.28415 0.0
H1005 H 0.38368 0.41864 0.19509 0.0
H1006 H 0.38912 0.306 0.17521 0.0
H1007 H 0.42234 0.26925 0.18613 0.0
H1008 H 0.49492 0.32262 0.19181 0.0
H1009 H 0.46219 0.35956 0.1807 0.0
C1010 C 0.30177 0.37595 0.08391 0.0
C1011 C 0.31398 0.36812 0.05609 0.0
C1012 C 0.31942 0.37906 0.10965 0.0
C1013 C 0.34974 0.37503 0.10779 0.0
C1014 C 0.36204 0.36789 0.07964 0.0
C1015 C 0.34426 0.36451 0.05396 0.0
C1016 C 0.36846 0.37792 0.13534 0.0
C1017 C 0.38636 0.35691 0.14392 0.0
C1018 C 0.36795 0.40073 0.15368 0.0
C1019 C 0.35118 0.42441 0.1447 0.0
C1020 C 0.354 0.43505 0.11522 0.0
C1021 C 0.33792 0.45708 0.10672 0.0
C1022 C 0.31912 0.46889 0.12762 0.0
C1023 C 0.31634 0.45865 0.15704 0.0
C1024 C 0.33228 0.43654 0.1656 0.0
C1025 C 0.45352 0.40374 0.25133 0.0
C1026 C 0.45182 0.38346 0.27306 0.0
C1027 C 0.43684 0.4028 0.22468 0.0
C1028 C 0.41797 0.38163 0.2191 0.0
C1029 C 0.41535 0.36182 0.24125 0.0
C1030 C 0.43223 0.36264 0.26788 0.0
C1031 C 0.40166 0.38004 0.18979 0.0
C1032 C 0.38431 0.40133 0.18082 0.0
C1033 C 0.40327 0.35779 0.17064 0.0
C1034 C 0.42313 0.3356 0.17733 0.0
C1035 C 0.41218 0.30987 0.1787 0.0
C1036 C 0.43092 0.289 0.18496 0.0
C1037 C 0.46071 0.29359 0.18975 0.0
C1038 C 0.47183 0.31907 0.18821 0.0
C1039 C 0.45318 0.33998 0.18195 0.0
H1040 H 0.47517 0.27741 0.1946 0.0
H1041 H 0.30671 0.48596 0.12102 0.0
H1042 H 0.73732 0.62336 0.58362 0.0
H1043 H 0.70884 0.61792 0.63069 0.0
H1044 H 0.63588 0.65704 0.58806 0.0
H1045 H 0.6641 0.66085 0.54059 0.0
H1046 H 0.68877 0.6495 0.66886 0.0
H1047 H 0.57158 0.63811 0.6184 0.0
H1048 H 0.54778 0.61994 0.57257 0.0
H1049 H 0.62038 0.5683 0.55877 0.0
H1050 H 0.64421 0.5856 0.60503 0.0
H1051 H 0.57999 0.67139 0.78288 0.0
H1052 H 0.61179 0.67222 0.7379 0.0
H1053 H 0.59275 0.59069 0.72147 0.0
H1054 H 0.56101 0.58969 0.76593 0.0
H1055 H 0.58667 0.61666 0.67086 0.0
H1056 H 0.65882 0.60964 0.74719 0.0
H1057 H 0.68768 0.6193 0.7933 0.0
H1058 H 0.71123 0.69446 0.75674 0.0
H1059 H 0.68201 0.68548 0.7106 0.0
C1060 C 0.71503 0.63035 0.58448 0.0
C1061 C 0.70251 0.64218 0.55884 0.0
C1062 C 0.69883 0.62746 0.61127 0.0
C1063 C 0.67002 0.63683 0.61297 0.0
C1064 C 0.65774 0.64904 0.58721 0.0
C1065 C 0.67377 0.65134 0.56021 0.0
C1066 C 0.65316 0.63433 0.64187 0.0
C1067 C 0.66641 0.64236 0.66924 0.0
C1068 C 0.62424 0.62432 0.64262 0.0
C1069 C 0.60978 0.61334 0.61509 0.0
C1070 C 0.58236 0.62273 0.60574 0.0
C1071 C 0.56886 0.61257 0.57968 0.0
C1072 C 0.5826 0.59303 0.56271 0.0
C1073 C 0.60977 0.58346 0.57191 0.0
C1074 C 0.62326 0.59341 0.59808 0.0
C1075 C 0.58286 0.65357 0.7699 0.0
C1076 C 0.56774 0.63054 0.77796 0.0
C1077 C 0.60108 0.65406 0.7442 0.0
C1078 C 0.60458 0.63152 0.72621 0.0
C1079 C 0.59021 0.60837 0.7348 0.0
C1080 C 0.57211 0.60785 0.76038 0.0
C1081 C 0.62216 0.63218 0.69771 0.0
C1082 C 0.60898 0.62389 0.67041 0.0
C1083 C 0.65155 0.64089 0.69721 0.0
C1084 C 0.66792 0.647 0.72556 0.0
C1085 C 0.66978 0.6284 0.74916 0.0
C1086 C 0.68631 0.6337 0.77525 0.0
C1087 C 0.70135 0.65744 0.7779 0.0
C1088 C 0.69965 0.67604 0.75459 0.0
C1089 C 0.68304 0.67088 0.7285 0.0
H1090 H 0.71425 0.66146 0.79806 0.0
H1091 H 0.57217 0.58527 0.54247 0.0
H1092 H 0.71845 0.4047 0.06115 0.0
H1093 H 0.68963 0.41455 0.10712 0.0
H1094 H 0.63869 0.34433 0.0927 0.0
H1095 H 0.66732 0.33491 0.04661 0.0
H1096 H 0.60461 0.38523 0.11149 0.0
H1097 H 0.69509 0.34412 0.14149 0.0
H1098 H 0.74873 0.33998 0.14365 0.0
H1099 H 0.75517 0.41492 0.18745 0.0
H1100 H 0.70155 0.41968 0.18508 0.0
H1101 H 0.55124 0.34803 0.25415 0.0
H1102 H 0.57965 0.35023 0.20738 0.0
H1103 H 0.617 0.42388 0.23578 0.0
H1104 H 0.58822 0.42202 0.28307 0.0
H1105 H 0.65807 0.38814 0.20997 0.0
H1106 H 0.56698 0.42715 0.18488 0.0
H1107 H 0.51333 0.4311 0.18289 0.0
H1108 H 0.50773 0.36033 0.13051 0.0
H1109 H 0.56139 0.35574 0.13252 0.0
C1110 C 0.7009 0.39163 0.06787 0.0
C1111 C 0.69531 0.36882 0.05107 0.0
C1112 C 0.68453 0.39717 0.09401 0.0
C1113 C 0.66232 0.37994 0.10362 0.0
C1114 C 0.65581 0.35782 0.08582 0.0
C1115 C 0.6722 0.35232 0.05974 0.0
C1116 C 0.64689 0.38399 0.13303 0.0
C1117 C 0.61628 0.38576 0.13301 0.0
C1118 C 0.66217 0.38535 0.1611 0.0
C1119 C 0.69436 0.3824 0.16279 0.0
C1120 C 0.70797 0.35981 0.15137 0.0
C1121 C 0.73836 0.35734 0.15265 0.0
C1122 C 0.75536 0.37721 0.16561 0.0
C1123 C 0.74198 0.39957 0.17737 0.0
C1124 C 0.71159 0.40216 0.17606 0.0
C1125 C 0.56561 0.36468 0.25075 0.0
C1126 C 0.56727 0.38496 0.2724 0.0
C1127 C 0.58176 0.36593 0.22385 0.0
C1128 C 0.60007 0.38739 0.21792 0.0
C1129 C 0.60281 0.40722 0.2399 0.0
C1130 C 0.58638 0.40612 0.26687 0.0
C1131 C 0.61582 0.38893 0.18841 0.0
C1132 C 0.64644 0.3881 0.18841 0.0
C1133 C 0.60055 0.38844 0.16032 0.0
C1134 C 0.56824 0.39104 0.15898 0.0
C1135 C 0.55432 0.41231 0.17312 0.0
C1136 C 0.52391 0.4147 0.17194 0.0
C1137 C 0.50716 0.39603 0.15651 0.0
C1138 C 0.52077 0.37484 0.14235 0.0
C1139 C 0.55119 0.37235 0.14347 0.0
H1140 H 0.48364 0.39804 0.15546 0.0
H1141 H 0.77888 0.37526 0.16659 0.0
H1142 H 0.30303 0.60333 0.55744 0.0
H1143 H 0.33261 0.59236 0.60258 0.0
H1144 H 0.37608 0.66726 0.5961 0.0
H1145 H 0.34629 0.67816 0.5512 0.0
H1146 H 0.41408 0.62375 0.60961 0.0
H1147 H 0.32277 0.66263 0.64259 0.0
H1148 H 0.26903 0.66521 0.645 0.0
H1149 H 0.26522 0.58836 0.6846 0.0
H1150 H 0.31899 0.58515 0.68189 0.0
H1151 H 0.46739 0.66015 0.7523 0.0
H1152 H 0.43984 0.65693 0.70506 0.0
H1153 H 0.40296 0.58333 0.73448 0.0
H1154 H 0.43093 0.58623 0.78228 0.0
H1155 H 0.36166 0.61759 0.70849 0.0
H1156 H 0.45296 0.58097 0.68312 0.0
H1157 H 0.50655 0.57717 0.68026 0.0
H1158 H 0.51093 0.6469 0.62574 0.0
H1159 H 0.45736 0.6515 0.62883 0.0
C1160 C 0.3192 0.61718 0.56559 0.0
C1161 C 0.32243 0.6416 0.55129 0.0
C1162 C 0.33598 0.61099 0.59127 0.0
C1163 C 0.35639 0.62908 0.60274 0.0
C1164 C 0.36047 0.65303 0.58757 0.0
C1165 C 0.34344 0.65933 0.56216 0.0
C1166 C 0.37213 0.62398 0.63169 0.0
C1167 C 0.40271 0.62248 0.63127 0.0
C1168 C 0.35711 0.62148 0.65977 0.0
C1169 C 0.32485 0.62351 0.66168 0.0
C1170 C 0.31046 0.64618 0.65155 0.0
C1171 C 0.28 0.64778 0.65301 0.0
C1172 C 0.26371 0.62693 0.66486 0.0
C1173 C 0.27787 0.60447 0.67536 0.0
C1174 C 0.30833 0.60275 0.67387 0.0
C1175 C 0.45337 0.64326 0.74898 0.0
C1176 C 0.45152 0.62337 0.77116 0.0
C1177 C 0.43774 0.6414 0.72178 0.0
C1178 C 0.41971 0.61971 0.71603 0.0
C1179 C 0.41695 0.60016 0.73841 0.0
C1180 C 0.43292 0.60185 0.76569 0.0
C1181 C 0.40378 0.61801 0.68657 0.0
C1182 C 0.37312 0.61831 0.68685 0.0
C1183 C 0.41876 0.61921 0.65832 0.0
C1184 C 0.45108 0.61672 0.65647 0.0
C1185 C 0.46534 0.59568 0.6708 0.0
C1186 C 0.49572 0.59335 0.6691 0.0
C1187 C 0.51212 0.61181 0.6529 0.0
C1188 C 0.49818 0.63264 0.63833 0.0
C1189 C 0.46779 0.63512 0.64005 0.0
H1190 H 0.53561 0.60991 0.65158 0.0
H1191 H 0.24013 0.6282 0.66599 0.0
H1192 H 0.83421 0.83267 0.05105 0.0
H1193 H 0.86385 0.83761 0.09736 0.0
H1194 H 0.82675 0.91403 0.1122 0.0
H1195 H 0.79691 0.90885 0.06594 0.0
H1196 H 0.88681 0.91203 0.12535 0.0
H1197 H 0.7992 0.86376 0.1494 0.0
H1198 H 0.76321 0.82828 0.14191 0.0
H1199 H 0.82968 0.77102 0.1589 0.0
H1200 H 0.86622 0.80617 0.16593 0.0
H1201 H 0.93182 0.91983 0.28078 0.0
H1202 H 0.9007 0.91941 0.23528 0.0
H1203 H 0.92675 0.84001 0.21655 0.0
H1204 H 0.95736 0.84008 0.26198 0.0
H1205 H 0.87004 0.84562 0.20625 0.0
H1206 H 0.95796 0.89174 0.17936 0.0
H1207 H 0.99591 0.92586 0.18464 0.0
H1208 H 0.93132 0.98554 0.17143 0.0
H1209 H 0.89289 0.95175 0.16655 0.0
C1210 C 0.83265 0.85054 0.06417 0.0
C1211 C 0.81323 0.8703 0.05528 0.0
C1212 C 0.84953 0.85339 0.09051 0.0
C1213 C 0.84717 0.87604 0.10847 0.0
C1214 C 0.82888 0.8964 0.09871 0.0
C1215 C 0.81194 0.89349 0.07233 0.0
C1216 C 0.8624 0.87767 0.13832 0.0
C1217 C 0.88285 0.89777 0.14324 0.0
C1218 C 0.8576 0.85876 0.16143 0.0
C1219 C 0.8355 0.8376 0.15797 0.0
C1220 C 0.80619 0.8436 0.15138 0.0
C1221 C 0.78569 0.82355 0.14721 0.0
C1222 C 0.79417 0.79742 0.14988 0.0
C1223 C 0.82315 0.79128 0.15682 0.0
C1224 C 0.84376 0.81126 0.16092 0.0
C1225 C 0.93067 0.90218 0.26716 0.0
C1226 C 0.9473 0.88006 0.27495 0.0
C1227 C 0.913 0.90203 0.24105 0.0
C1228 C 0.91172 0.8798 0.22222 0.0
C1229 C 0.92742 0.85741 0.23063 0.0
C1230 C 0.94502 0.85753 0.25664 0.0
C1231 C 0.89474 0.87986 0.19328 0.0
C1232 C 0.87389 0.86005 0.18851 0.0
C1233 C 0.89942 0.89889 0.17023 0.0
C1234 C 0.9225 0.91923 0.17295 0.0
C1235 C 0.95181 0.91215 0.17783 0.0
C1236 C 0.97342 0.93142 0.18071 0.0
C1237 C 0.96602 0.95785 0.17846 0.0
C1238 C 0.93701 0.96506 0.17323 0.0
C1239 C 0.91531 0.94586 0.1704 0.0
H1240 H 0.98277 0.97275 0.18068 0.0
H1241 H 0.77827 0.78192 0.14662 0.0
H1242 H 0.22927 0.14477 0.58058 0.0
H1243 H 0.19917 0.13857 0.62616 0.0
H1244 H 0.12126 0.14201 0.57077 0.0
H1245 H 0.15168 0.14916 0.52515 0.0
H1246 H 0.11454 0.17069 0.62092 0.0
H1247 H 0.14457 0.08432 0.59943 0.0
H1248 H 0.17881 0.04887 0.5868 0.0
H1249 H 0.22378 0.06084 0.67163 0.0
H1250 H 0.19012 0.09674 0.68454 0.0
H1251 H 0.0523 0.0902 0.7571 0.0
H1252 H 0.07955 0.09237 0.70953 0.0
H1253 H 0.10559 0.17167 0.72999 0.0
H1254 H 0.07763 0.16991 0.77759 0.0
H1255 H 0.13386 0.09872 0.69416 0.0
H1256 H 0.10735 0.20714 0.66179 0.0
H1257 H 0.06818 0.23934 0.67027 0.0
H1258 H 0.00694 0.17705 0.68721 0.0
H1259 H 0.04566 0.14457 0.67858 0.0
C1260 C 0.20571 0.14417 0.57828 0.0
C1261 C 0.19269 0.14746 0.54959 0.0
C1262 C 0.18853 0.14047 0.6042 0.0
C1263 C 0.15792 0.13962 0.60191 0.0
C1264 C 0.14482 0.14262 0.5731 0.0
C1265 C 0.16211 0.14645 0.54709 0.0
C1266 C 0.13989 0.1361 0.62983 0.0
C1267 C 0.11873 0.15495 0.63693 0.0
C1268 C 0.14476 0.11515 0.65034 0.0
C1269 C 0.16493 0.09338 0.64286 0.0
C1270 C 0.16188 0.07953 0.61531 0.0
C1271 C 0.18118 0.05934 0.6081 0.0
C1272 C 0.20348 0.05262 0.62838 0.0
C1273 C 0.20649 0.06607 0.65594 0.0
C1274 C 0.1873 0.08634 0.66323 0.0
C1275 C 0.064 0.10809 0.75173 0.0
C1276 C 0.06254 0.12997 0.77117 0.0
C1277 C 0.07966 0.10925 0.72446 0.0
C1278 C 0.09431 0.13228 0.71592 0.0
C1279 C 0.09402 0.15382 0.73585 0.0
C1280 C 0.07819 0.15273 0.76317 0.0
C1281 C 0.10918 0.13381 0.68579 0.0
C1282 C 0.12969 0.11452 0.67822 0.0
C1283 C 0.10296 0.15388 0.66443 0.0
C1284 C 0.07951 0.17338 0.6697 0.0
C1285 C 0.08552 0.20031 0.66721 0.0
C1286 C 0.06339 0.21863 0.67209 0.0
C1287 C 0.0351 0.21026 0.67934 0.0
C1288 C 0.02887 0.18355 0.68167 0.0
C1289 C 0.05091 0.16517 0.6768 0.0
H1290 H 0.01802 0.22447 0.68311 0.0
H1291 H 0.2184 0.03697 0.62277 0.0
H1292 H 0.15661 0.83192 0.03735 0.0
H1293 H 0.1284 0.83874 0.08426 0.0
H1294 H 0.18833 0.90024 0.11066 0.0
H1295 H 0.21577 0.89373 0.06303 0.0
H1296 H 0.14225 0.83108 0.13942 0.0
H1297 H 0.15494 0.94375 0.15811 0.0
H1298 H 0.15504 0.9848 0.12843 0.0
H1299 H 0.10969 0.94632 0.05529 0.0
H1300 H 0.10904 0.90514 0.08462 0.0
H1301 H 0.09633 0.85589 0.29091 0.0
H1302 H 0.12531 0.85412 0.2439 0.0
H1303 H 0.0616 0.90272 0.19862 0.0
H1304 H 0.03386 0.90584 0.24575 0.0
H1305 H 0.10978 0.91692 0.1792 0.0
H1306 H 0.06596 0.83241 0.19094 0.0
H1307 H 0.05392 0.79082 0.21673 0.0
H1308 H 0.14501 0.77114 0.22032 0.0
H1309 H 0.15762 0.81279 0.19487 0.0
C1310 C 0.16327 0.84711 0.05311 0.0
C1311 C 0.18808 0.86237 0.04695 0.0
C1312 C 0.14738 0.85094 0.07991 0.0
C1313 C 0.15617 0.87002 0.10114 0.0
C1314 C 0.18079 0.88566 0.09455 0.0
C1315 C 0.19651 0.88196 0.06751 0.0
C1316 C 0.14037 0.87257 0.1307 0.0
C1317 C 0.13515 0.84989 0.14807 0.0
C1318 C 0.13058 0.89697 0.14192 0.0
C1319 C 0.13222 0.92129 0.12348 0.0
C1320 C 0.14507 0.94404 0.13566 0.0
C1321 C 0.14516 0.96734 0.11893 0.0
C1322 C 0.13229 0.96818 0.09006 0.0
C1323 C 0.11963 0.94564 0.07768 0.0
C1324 C 0.1195 0.92228 0.0943 0.0
C1325 C 0.08879 0.86639 0.27095 0.0
C1326 C 0.06292 0.88106 0.27204 0.0
C1327 C 0.10521 0.86523 0.24401 0.0
C1328 C 0.09547 0.87792 0.21736 0.0
C1329 C 0.0698 0.89285 0.21873 0.0
C1330 C 0.05389 0.89459 0.24577 0.0
C1331 C 0.11146 0.87542 0.18785 0.0
C1332 C 0.11696 0.89813 0.1706 0.0
C1333 C 0.12023 0.85089 0.17602 0.0
C1334 C 0.11275 0.82584 0.19131 0.0
C1335 C 0.08343 0.81929 0.19742 0.0
C1336 C 0.07651 0.7957 0.21195 0.0
C1337 C 0.09869 0.77839 0.22024 0.0
C1338 C 0.12785 0.7846 0.21394 0.0
C1339 C 0.1349 0.80818 0.19945 0.0
H1340 H 0.09329 0.76013 0.23149 0.0
H1341 H 0.13212 0.98632 0.0773 0.0
H1342 H 0.78845 0.10212 0.56599 0.0
H1343 H 0.81766 0.09407 0.61224 0.0
H1344 H 0.87017 0.1623 0.59197 0.0
H1345 H 0.84109 0.16995 0.54572 0.0
H1346 H 0.90363 0.12177 0.61126 0.0
H1347 H 0.81556 0.16522 0.6435 0.0
H1348 H 0.76222 0.17062 0.64817 0.0
H1349 H 0.75598 0.09734 0.69582 0.0
H1350 H 0.80928 0.09131 0.69098 0.0
H1351 H 0.96406 0.16058 0.75058 0.0
H1352 H 0.9342 0.15795 0.70481 0.0
H1353 H 0.89531 0.08611 0.73721 0.0
H1354 H 0.92553 0.08843 0.78351 0.0
H1355 H 0.85454 0.12216 0.71218 0.0
H1356 H 0.94363 0.08089 0.68409 0.0
H1357 H 0.99693 0.0756 0.67894 0.0
H1358 H 1.00149 0.14495 0.62377 0.0
H1359 H 0.94822 0.15091 0.62895 0.0
C1360 C 0.80636 0.11518 0.57156 0.0
C1361 C 0.81242 0.13685 0.55293 0.0
C1362 C 0.82294 0.11069 0.59787 0.0
C1363 C 0.84586 0.12781 0.60579 0.0
C1364 C 0.85254 0.14891 0.58641 0.0
C1365 C 0.83592 0.15339 0.56021 0.0
C1366 C 0.86239 0.12438 0.63469 0.0
C1367 C 0.89291 0.12202 0.63332 0.0
C1368 C 0.84834 0.12399 0.66347 0.0
C1369 C 0.81634 0.12767 0.66656 0.0
C1370 C 0.80278 0.15015 0.65475 0.0
C1371 C 0.77256 0.15334 0.65746 0.0
C1372 C 0.75571 0.1343 0.67221 0.0
C1373 C 0.76906 0.11205 0.68435 0.0
C1374 C 0.79927 0.10874 0.68163 0.0
C1375 C 0.94906 0.14424 0.74826 0.0
C1376 C 0.9473 0.12464 0.77079 0.0
C1377 C 0.9321 0.14272 0.72191 0.0
C1378 C 0.91283 0.12167 0.71743 0.0
C1379 C 0.91019 0.10245 0.7402 0.0
C1380 C 0.92747 0.1038 0.7666 0.0
C1381 C 0.89578 0.12001 0.68871 0.0
C1382 C 0.8652 0.12151 0.6901 0.0
C1383 C 0.90978 0.11966 0.65993 0.0
C1384 C 0.94191 0.11641 0.65704 0.0
C1385 C 0.95601 0.09515 0.67108 0.0
C1386 C 0.98621 0.092 0.6681 0.0
C1387 C 1.00255 0.10987 0.65095 0.0
C1388 C 0.98876 0.13105 0.63693 0.0
C1389 C 0.95856 0.13433 0.63987 0.0
H1390 H 0.0259 0.10727 0.6485 0.0
H1391 H 0.73232 0.1368 0.6743 0.0
loop_
_geom_bond_atom_site_label_1
_geom_bond_atom_site_label_2
_geom_bond_distance
_geom_bond_site_symmetry_2
_ccdc_geom_bond_type
C0 N1 1.317 . S
C0 N2 1.348 . S
C0 C3 1.485 . S
N1 C0 1.317 . S
N1 N5 1.370 . S
N2 C0 1.348 . S
N2 C4 1.346 1_554 S
C3 C0 1.485 . S
C3 H7 0.960 . S
C3 H8 0.961 . S
C3 H9 0.960 . S
C4 N2 1.346 1_556 S
C4 N5 1.307 1_556 S
C4 C6 1.486 . S
N5 N1 1.370 . S
N5 C4 1.307 1_554 S
C6 C4 1.486 . S
C6 H10 0.960 . S
C6 H11 0.960 . S
C6 H12 0.959 . S
H7 C3 0.960 . S
H8 C3 0.961 . S
H9 C3 0.960 . S
H10 C6 0.960 . S
H11 C6 0.960 . S
H12 C6 0.959 . S
C13 N14 1.317 . S
C13 N15 1.348 . S
C13 C16 1.485 . S
N14 C13 1.317 . S
N14 N18 1.370 . S
N15 C13 1.348 . S
N15 C17 1.346 . S
C16 C13 1.485 . S
C16 H20 0.960 . S
C16 H21 0.961 . S
C16 H22 0.960 . S
C17 N15 1.346 . S
C17 N18 1.307 . S
C17 C19 1.486 . S
N18 N14 1.370 . S
N18 C17 1.307 . S
C19 C17 1.486 . S
C19 H23 0.960 . S
C19 H24 0.960 . S
C19 H25 0.959 . S
H20 C16 0.960 . S
H21 C16 0.961 . S
H22 C16 0.960 . S
H23 C19 0.960 . S
H24 C19 0.960 . S
H25 C19 0.959 . S
C26 N27 1.317 . S
C26 N28 1.358 . S
C26 C29 1.485 . S
N27 C26 1.317 . S
N27 N31 1.370 . S
N28 C26 1.358 . S
N28 C30 1.341 1_554 S
C29 C26 1.485 . S
C29 H33 0.960 . S
C29 H34 0.961 . S
C29 H35 0.960 . S
C30 N28 1.341 1_556 S
C30 N31 1.307 1_556 S
C30 C32 1.486 . S
N31 N27 1.370 . S
N31 C30 1.307 1_554 S
C32 C30 1.486 . S
C32 H36 0.960 . S
C32 H37 0.960 . S
C32 H38 0.959 . S
H33 C29 0.960 . S
H34 C29 0.961 . S
H35 C29 0.960 . S
H36 C32 0.960 . S
H37 C32 0.960 . S
H38 C32 0.959 . S
C39 N40 1.317 . S
C39 N41 1.348 . S
C39 C42 1.485 . S
N40 C39 1.317 . S
N40 N44 1.370 . S
N41 C39 1.348 . S
N41 C43 1.346 . S
C42 C39 1.485 . S
C42 H46 0.960 . S
C42 H47 0.961 . S
C42 H48 0.960 . S
C43 N41 1.346 . S
C43 N44 1.307 . S
C43 C45 1.486 . S
N44 N40 1.370 . S
N44 C43 1.307 . S
C45 C43 1.486 . S
C45 H49 0.960 . S
C45 H50 0.960 . S
C45 H51 0.959 . S
H46 C42 0.960 . S
H47 C42 0.961 . S
H48 C42 0.960 . S
H49 C45 0.960 . S
H50 C45 0.960 . S
H51 C45 0.959 . S
C52 N53 1.317 . S
C52 N54 1.348 . S
C52 C55 1.485 . S
N53 C52 1.317 . S
N53 N57 1.370 . S
N54 C52 1.348 . S
N54 C56 1.346 1_554 S
C55 C52 1.485 . S
C55 H59 0.960 . S
C55 H60 0.961 . S
C55 H61 0.960 . S
C56 N54 1.346 1_556 S
C56 N57 1.307 1_556 S
C56 C58 1.486 . S
N57 N53 1.370 . S
N57 C56 1.307 1_554 S
C58 C56 1.486 . S
C58 H62 0.960 . S
C58 H63 0.960 . S
C58 H64 0.959 . S
H59 C55 0.960 . S
H60 C55 0.961 . S
H61 C55 0.960 . S
H62 C58 0.960 . S
H63 C58 0.960 . S
H64 C58 0.959 . S
C65 N66 1.317 . S
C65 N67 1.348 . S
C65 C68 1.485 . S
N66 C65 1.317 . S
N66 N70 1.370 . S
N67 C65 1.348 . S
N67 C69 1.346 . S
C68 C65 1.485 . S
C68 H72 0.960 . S
C68 H73 0.961 . S
C68 H74 0.960 . S
C69 N67 1.346 . S
C69 N70 1.307 . S
C69 C71 1.486 . S
N70 N66 1.370 . S
N70 C69 1.307 . S
C71 C69 1.486 . S
C71 H75 0.960 . S
C71 H76 0.960 . S
C71 H77 0.959 . S
H72 C68 0.960 . S
H73 C68 0.961 . S
H74 C68 0.960 . S
H75 C71 0.960 . S
H76 C71 0.960 . S
H77 C71 0.959 . S
C78 N79 1.317 . S
C78 N80 1.359 . S
C78 C81 1.485 . S
N79 C78 1.317 . S
N79 N83 1.370 . S
N80 C78 1.359 . S
N80 C82 1.341 1_554 S
C81 C78 1.485 . S
C81 H85 0.960 . S
C81 H86 0.961 . S
C81 H87 0.960 . S
C82 N80 1.341 1_556 S
C82 N83 1.307 1_556 S
C82 C84 1.486 . S
N83 N79 1.370 . S
N83 C82 1.307 1_554 S
C84 C82 1.486 . S
C84 H88 0.960 . S
C84 H89 0.960 . S
C84 H90 0.959 . S
H85 C81 0.960 . S
H86 C81 0.961 . S
H87 C81 0.960 . S
H88 C84 0.960 . S
H89 C84 0.960 . S
H90 C84 0.959 . S
C91 N92 1.317 . S
C91 N93 1.348 . S
C91 C94 1.485 . S
N92 C91 1.317 . S
N92 N96 1.370 . S
N93 C91 1.348 . S
N93 C95 1.346 . S
C94 C91 1.485 . S
C94 H98 0.960 . S
C94 H99 0.961 . S
C94 H100 0.960 . S
C95 N93 1.346 . S
C95 N96 1.307 . S
C95 C97 1.486 . S
N96 N92 1.370 . S
N96 C95 1.307 . S
C97 C95 1.486 . S
C97 H101 0.960 . S
C97 H102 0.960 . S
C97 H103 0.959 . S
H98 C94 0.960 . S
H99 C94 0.961 . S
H100 C94 0.960 . S
H101 C97 0.960 . S
H102 C97 0.960 . S
H103 C97 0.959 . S
Fe104 O106 1.918 . S
Fe104 O109 1.997 1_455 S
Fe104 O110 2.002 1_455 S
Fe104 O115 1.976 . S
Fe104 O118 1.996 . S
Fe105 O106 1.918 . S
Fe105 O113 1.997 1_455 S
Fe105 O116 1.996 . S
Fe105 O120 1.976 . S
Fe105 O123 2.002 1_455 S
O106 Fe104 1.918 . S
O106 Fe105 1.918 . S
O106 Fe107 1.918 . S
Fe107 O106 1.918 . S
Fe107 O108 2.002 1_455 S
Fe107 O117 1.976 . S
Fe107 O121 1.996 . S
Fe107 O124 1.997 1_455 S
O108 Fe107 2.002 1_655 S
O108 C125 1.295 . S
O109 Fe104 1.997 1_655 S
O109 C125 1.235 . S
O110 Fe104 2.002 1_655 S
O110 C111 1.295 . S
C111 O110 1.295 . S
C111 O113 1.235 . S
C112 O117 1.287 . S
C112 O118 1.255 . S
O113 Fe105 1.997 1_655 S
O113 C111 1.235 . S
C114 O120 1.287 . S
C114 O121 1.255 . S
O115 Fe104 1.976 . S
O115 C122 1.287 . S
O116 Fe105 1.996 . S
O116 C122 1.255 . S
O117 Fe107 1.976 . S
O117 C112 1.287 . S
O118 Fe104 1.996 . S
O118 C112 1.255 . S
C119 O123 1.295 . S
C119 O124 1.235 . S
O120 Fe105 1.976 . S
O120 C114 1.287 . S
O121 Fe107 1.996 . S
O121 C114 1.255 . S
C122 O115 1.287 . S
C122 O116 1.255 . S
O123 Fe105 2.002 1_655 S
O123 C119 1.295 . S
O124 Fe107 1.997 1_655 S
O124 C119 1.235 . S
C125 O108 1.295 . S
C125 O109 1.235 . S
Fe126 O128 1.919 . S
Fe126 O131 1.984 1_655 S
Fe126 O132 1.990 1_655 S
Fe126 O137 1.988 . S
Fe126 O140 2.008 . S
Fe127 O128 1.919 . S
Fe127 O135 1.984 1_655 S
Fe127 O138 2.008 . S
Fe127 O142 1.988 . S
Fe127 O145 1.990 1_655 S
O128 Fe126 1.919 . S
O128 Fe127 1.919 . S
O128 Fe129 1.918 . S
Fe129 O128 1.918 . S
Fe129 O130 1.989 1_655 S
Fe129 O139 1.989 . S
Fe129 O143 2.008 . S
Fe129 O146 1.984 1_655 S
O130 Fe129 1.989 1_455 S
O130 C147 1.295 . S
O131 Fe126 1.984 1_455 S
O131 C147 1.235 . S
O132 Fe126 1.990 1_455 S
O132 C133 1.295 . S
C133 O132 1.295 . S
C133 O135 1.235 . S
C134 O139 1.287 . S
C134 O140 1.255 . S
O135 Fe127 1.984 1_455 S
O135 C133 1.235 . S
C136 O142 1.287 . S
C136 O143 1.255 . S
O137 Fe126 1.988 . S
O137 C144 1.287 . S
O138 Fe127 2.008 . S
O138 C144 1.255 . S
O139 Fe129 1.989 . S
O139 C134 1.287 . S
O140 Fe126 2.008 . S
O140 C134 1.255 . S
C141 O145 1.295 . S
C141 O146 1.235 . S
O142 Fe127 1.988 . S
O142 C136 1.287 . S
O143 Fe129 2.008 . S
O143 C136 1.255 . S
C144 O137 1.287 . S
C144 O138 1.255 . S
O145 Fe127 1.990 1_455 S
O145 C141 1.295 . S
O146 Fe129 1.984 1_455 S
O146 C141 1.235 . S
C147 O130 1.295 . S
C147 O131 1.235 . S
Fe148 O150 1.918 . S
Fe148 O153 1.997 . S
Fe148 O154 2.002 . S
Fe148 O159 1.976 . S
Fe148 O162 1.996 . S
Fe149 O150 1.918 . S
Fe149 O157 1.997 . S
Fe149 O160 1.996 . S
Fe149 O164 1.976 . S
Fe149 O167 2.002 . S
O150 Fe148 1.918 . S
O150 Fe149 1.918 . S
O150 Fe151 1.918 . S
Fe151 O150 1.918 . S
Fe151 O152 2.002 . S
Fe151 O161 1.976 . S
Fe151 O165 1.996 . S
Fe151 O168 1.997 . S
O152 Fe151 2.002 . S
O152 C169 1.295 . S
O153 Fe148 1.997 . S
O153 C169 1.235 . S
O154 Fe148 2.002 . S
O154 C155 1.295 . S
C155 O154 1.295 . S
C155 O157 1.235 . S
C156 O161 1.287 . S
C156 O162 1.255 . S
O157 Fe149 1.997 . S
O157 C155 1.235 . S
C158 O164 1.287 . S
C158 O165 1.255 . S
O159 Fe148 1.976 . S
O159 C166 1.287 . S
O160 Fe149 1.996 . S
O160 C166 1.255 . S
O161 Fe151 1.976 . S
O161 C156 1.287 . S
O162 Fe148 1.996 . S
O162 C156 1.255 . S
C163 O167 1.295 . S
C163 O168 1.235 . S
O164 Fe149 1.976 . S
O164 C158 1.287 . S
O165 Fe151 1.996 . S
O165 C158 1.255 . S
C166 O159 1.287 . S
C166 O160 1.255 . S
O167 Fe149 2.002 . S
O167 C163 1.295 . S
O168 Fe151 1.997 . S
O168 C163 1.235 . S
C169 O152 1.295 . S
C169 O153 1.235 . S
Fe170 O172 1.918 . S
Fe170 O175 1.997 . S
Fe170 O176 2.002 . S
Fe170 O181 1.976 . S
Fe170 O184 1.996 . S
Fe171 O172 1.918 . S
Fe171 O179 1.997 . S
Fe171 O182 1.996 . S
Fe171 O186 1.976 . S
Fe171 O189 2.002 . S
O172 Fe170 1.918 . S
O172 Fe171 1.918 . S
O172 Fe173 1.918 . S
Fe173 O172 1.918 . S
Fe173 O174 2.002 . S
Fe173 O183 1.976 . S
Fe173 O187 1.996 . S
Fe173 O190 1.997 . S
O174 Fe173 2.002 . S
O174 C191 1.295 . S
O175 Fe170 1.997 . S
O175 C191 1.235 . S
O176 Fe170 2.002 . S
O176 C177 1.295 . S
C177 O176 1.295 . S
C177 O179 1.235 . S
C178 O183 1.287 . S
C178 O184 1.255 . S
O179 Fe171 1.997 . S
O179 C177 1.235 . S
C180 O186 1.287 . S
C180 O187 1.255 . S
O181 Fe170 1.976 . S
O181 C188 1.287 . S
O182 Fe171 1.996 . S
O182 C188 1.255 . S
O183 Fe173 1.976 . S
O183 C178 1.287 . S
O184 Fe170 1.996 . S
O184 C178 1.255 . S
C185 O189 1.295 . S
C185 O190 1.235 . S
O186 Fe171 1.976 . S
O186 C180 1.287 . S
O187 Fe173 1.996 . S
O187 C180 1.255 . S
C188 O181 1.287 . S
C188 O182 1.255 . S
O189 Fe171 2.002 . S
O189 C185 1.295 . S
O190 Fe173 1.997 . S
O190 C185 1.235 . S
C191 O174 1.295 . S
C191 O175 1.235 . S
H192 C210 0.951 . S
H193 C212 0.951 1_554 S
H194 C214 0.950 . S
H195 C215 0.950 . S
H196 C217 0.950 . S
H197 C220 0.950 . S
H198 C221 0.950 . S
H199 C223 0.950 1_554 S
H200 C224 0.950 . S
H201 C225 0.951 . S
H202 C227 0.951 . S
H203 C229 0.950 . S
H204 C230 0.950 . S
H205 C232 0.950 . S
H206 C235 0.950 . S
H207 C236 0.950 . S
H208 C238 0.950 . S
H209 C239 0.950 . S
C210 H192 0.951 . S
C210 C211 1.366 1_554 S
C210 C212 1.388 1_554 S
C211 C210 1.366 1_556 S
C211 C215 1.385 . S
C212 H193 0.951 1_556 S
C212 C210 1.388 1_556 S
C212 C213 1.366 . S
C213 C212 1.366 . S
C213 C214 1.414 . S
C213 C216 1.499 . S
C214 H194 0.950 . S
C214 C213 1.414 . S
C214 C215 1.374 . S
C215 H195 0.950 . S
C215 C211 1.385 . S
C215 C214 1.374 . S
C216 C213 1.499 . S
C216 C217 1.373 . S
C216 C218 1.389 . S
C217 H196 0.950 . S
C217 C216 1.373 . S
C217 C233 1.377 . S
C218 C216 1.389 . S
C218 C219 1.524 . S
C218 C232 1.377 . S
C219 C218 1.524 . S
C219 C220 1.397 . S
C219 C224 1.363 . S
C220 H197 0.950 . S
C220 C219 1.397 . S
C220 C221 1.334 . S
C221 H198 0.950 . S
C221 C220 1.334 . S
C221 C222 1.287 . S
C222 C221 1.287 . S
C222 C223 1.524 . S
C222 H241 0.913 . S
C223 H199 0.950 1_556 S
C223 C222 1.524 . S
C223 C224 1.415 . S
C224 H200 0.950 . S
C224 C219 1.363 . S
C224 C223 1.415 . S
C225 H201 0.951 . S
C225 C226 1.366 . S
C225 C227 1.388 . S
C226 C225 1.366 . S
C226 C230 1.385 . S
C227 H202 0.951 . S
C227 C225 1.388 . S
C227 C228 1.366 . S
C228 C227 1.366 . S
C228 C229 1.414 . S
C228 C231 1.499 . S
C229 H203 0.950 . S
C229 C228 1.414 . S
C229 C230 1.374 . S
C230 H204 0.950 . S
C230 C226 1.385 . S
C230 C229 1.374 . S
C231 C228 1.499 . S
C231 C232 1.373 . S
C231 C233 1.389 . S
C232 H205 0.950 . S
C232 C218 1.377 . S
C232 C231 1.373 . S
C233 C217 1.377 . S
C233 C231 1.389 . S
C233 C234 1.524 . S
C234 C233 1.524 . S
C234 C235 1.397 . S
C234 C239 1.363 . S
C235 H206 0.950 . S
C235 C234 1.397 . S
C235 C236 1.334 . S
C236 H207 0.950 . S
C236 C235 1.334 . S
C236 C237 1.287 . S
C237 C236 1.287 . S
C237 C238 1.524 . S
C237 H240 0.999 . S
C238 H208 0.950 . S
C238 C237 1.524 . S
C238 C239 1.415 . S
C239 H209 0.950 . S
C239 C234 1.363 . S
C239 C238 1.415 . S
H240 C237 0.999 . S
H241 C222 0.913 . S
H242 C260 0.951 . S
H243 C262 0.951 . S
H244 C264 0.950 . S
H245 C265 0.950 . S
H246 C267 0.950 . S
H247 C270 0.950 . S
H248 C271 0.950 . S
H249 C273 0.950 . S
H250 C274 0.950 . S
H251 C275 0.951 . S
H252 C277 0.951 . S
H253 C279 0.950 . S
H254 C280 0.950 . S
H255 C282 0.950 . S
H256 C285 0.950 . S
H257 C286 0.950 . S
H258 C288 0.950 . S
H259 C289 0.950 . S
C260 H242 0.951 . S
C260 C261 1.366 . S
C260 C262 1.388 . S
C261 C260 1.366 . S
C261 C265 1.385 . S
C262 H243 0.951 . S
C262 C260 1.388 . S
C262 C263 1.366 . S
C263 C262 1.366 . S
C263 C264 1.414 . S
C263 C266 1.499 . S
C264 H244 0.950 . S
C264 C263 1.414 . S
C264 C265 1.374 . S
C265 H245 0.950 . S
C265 C261 1.385 . S
C265 C264 1.374 . S
C266 C263 1.499 . S
C266 C267 1.373 . S
C266 C268 1.389 . S
C267 H246 0.950 . S
C267 C266 1.373 . S
C267 C283 1.377 . S
C268 C266 1.389 . S
C268 C269 1.524 . S
C268 C282 1.377 . S
C269 C268 1.524 . S
C269 C270 1.397 . S
C269 C274 1.363 . S
C270 H247 0.950 . S
C270 C269 1.397 . S
C270 C271 1.334 . S
C271 H248 0.950 . S
C271 C270 1.334 . S
C271 C272 1.287 . S
C272 C271 1.287 . S
C272 C273 1.524 . S
C272 H291 0.913 . S
C273 H249 0.950 . S
C273 C272 1.524 . S
C273 C274 1.415 . S
C274 H250 0.950 . S
C274 C269 1.363 . S
C274 C273 1.415 . S
C275 H251 0.951 . S
C275 C276 1.366 . S
C275 C277 1.388 . S
C276 C275 1.366 . S
C276 C280 1.385 . S
C277 H252 0.951 . S
C277 C275 1.388 . S
C277 C278 1.366 . S
C278 C277 1.366 . S
C278 C279 1.414 . S
C278 C281 1.499 . S
C279 H253 0.950 . S
C279 C278 1.414 . S
C279 C280 1.374 . S
C280 H254 0.950 . S
C280 C276 1.385 . S
C280 C279 1.374 . S
C281 C278 1.499 . S
C281 C282 1.373 . S
C281 C283 1.389 . S
C282 H255 0.950 . S
C282 C268 1.377 . S
C282 C281 1.373 . S
C283 C267 1.377 . S
C283 C281 1.389 . S
C283 C284 1.524 . S
C284 C283 1.524 . S
C284 C285 1.397 . S
C284 C289 1.363 . S
C285 H256 0.950 . S
C285 C284 1.397 . S
C285 C286 1.334 . S
C286 H257 0.950 . S
C286 C285 1.334 . S
C286 C287 1.287 . S
C287 C286 1.287 . S
C287 C288 1.524 . S
C287 H290 0.999 . S
C288 H258 0.950 . S
C288 C287 1.524 . S
C288 C289 1.415 . S
C289 H259 0.950 . S
C289 C284 1.363 . S
C289 C288 1.415 . S
H290 C287 0.999 . S
H291 C272 0.913 . S
H292 C310 0.951 . S
H293 C312 0.951 . S
H294 C314 0.950 . S
H295 C315 0.950 . S
H296 C317 0.950 . S
H297 C320 0.950 . S
H298 C321 0.950 . S
H299 C323 0.950 . S
H300 C324 0.950 . S
H301 C325 0.951 . S
H302 C327 0.951 . S
H303 C329 0.950 . S
H304 C330 0.950 . S
H305 C332 0.950 . S
H306 C335 0.950 . S
H307 C336 0.950 . S
H308 C338 0.950 . S
H309 C339 0.950 . S
C310 H292 0.951 . S
C310 C311 1.366 1_554 S
C310 C312 1.388 1_554 S
C311 C310 1.366 1_556 S
C311 C315 1.385 . S
C312 H293 0.951 . S
C312 C310 1.388 1_556 S
C312 C313 1.366 . S
C313 C312 1.366 . S
C313 C314 1.414 . S
C313 C316 1.499 . S
C314 H294 0.950 . S
C314 C313 1.414 . S
C314 C315 1.374 . S
C315 H295 0.950 . S
C315 C311 1.385 . S
C315 C314 1.374 . S
C316 C313 1.499 . S
C316 C317 1.373 . S
C316 C318 1.389 . S
C317 H296 0.950 . S
C317 C316 1.373 . S
C317 C333 1.377 . S
C318 C316 1.389 . S
C318 C319 1.524 . S
C318 C332 1.377 . S
C319 C318 1.524 . S
C319 C320 1.397 . S
C319 C324 1.363 . S
C320 H297 0.950 . S
C320 C319 1.397 . S
C320 C321 1.334 . S
C321 H298 0.950 . S
C321 C320 1.334 . S
C321 C322 1.287 . S
C322 C321 1.287 . S
C322 C323 1.524 . S
C322 H341 0.913 . S
C323 H299 0.950 . S
C323 C322 1.524 . S
C323 C324 1.415 . S
C324 H300 0.950 . S
C324 C319 1.363 . S
C324 C323 1.415 . S
C325 H301 0.951 . S
C325 C326 1.366 . S
C325 C327 1.388 . S
C326 C325 1.366 . S
C326 C330 1.385 . S
C327 H302 0.951 . S
C327 C325 1.388 . S
C327 C328 1.366 . S
C328 C327 1.366 . S
C328 C329 1.414 . S
C328 C331 1.499 . S
C329 H303 0.950 . S
C329 C328 1.414 . S
C329 C330 1.374 . S
C330 H304 0.950 . S
C330 C326 1.385 . S
C330 C329 1.374 . S
C331 C328 1.499 . S
C331 C332 1.373 . S
C331 C333 1.389 . S
C332 H305 0.950 . S
C332 C318 1.377 . S
C332 C331 1.373 . S
C333 C317 1.377 . S
C333 C331 1.389 . S
C333 C334 1.524 . S
C334 C333 1.524 . S
C334 C335 1.397 . S
C334 C339 1.363 . S
C335 H306 0.950 . S
C335 C334 1.397 . S
C335 C336 1.334 . S
C336 H307 0.950 . S
C336 C335 1.334 . S
C336 C337 1.287 . S
C337 C336 1.287 . S
C337 C338 1.524 . S
C337 H340 0.999 . S
C338 H308 0.950 . S
C338 C337 1.524 . S
C338 C339 1.415 . S
C339 H309 0.950 . S
C339 C334 1.363 . S
C339 C338 1.415 . S
H340 C337 0.999 . S
H341 C322 0.913 . S
H342 C360 0.951 . S
H343 C362 0.951 . S
H344 C364 0.950 . S
H345 C365 0.950 . S
H346 C367 0.950 . S
H347 C370 0.950 . S
H348 C371 0.950 . S
H349 C373 0.950 . S
H350 C374 0.950 . S
H351 C375 0.951 . S
H352 C377 0.951 . S
H353 C379 0.950 . S
H354 C380 0.950 . S
H355 C382 0.950 . S
H356 C385 0.950 . S
H357 C386 0.950 . S
H358 C388 0.950 . S
H359 C389 0.950 . S
C360 H342 0.951 . S
C360 C361 1.366 . S
C360 C362 1.388 . S
C361 C360 1.366 . S
C361 C365 1.385 . S
C362 H343 0.951 . S
C362 C360 1.388 . S
C362 C363 1.366 . S
C363 C362 1.366 . S
C363 C364 1.414 . S
C363 C366 1.499 . S
C364 H344 0.950 . S
C364 C363 1.414 . S
C364 C365 1.374 . S
C365 H345 0.950 . S
C365 C361 1.385 . S
C365 C364 1.374 . S
C366 C363 1.499 . S
C366 C367 1.373 . S
C366 C368 1.389 . S
C367 H346 0.950 . S
C367 C366 1.373 . S
C367 C383 1.377 . S
C368 C366 1.389 . S
C368 C369 1.524 . S
C368 C382 1.377 . S
C369 C368 1.524 . S
C369 C370 1.397 . S
C369 C374 1.363 . S
C370 H347 0.950 . S
C370 C369 1.397 . S
C370 C371 1.334 . S
C371 H348 0.950 . S
C371 C370 1.334 . S
C371 C372 1.287 . S
C372 C371 1.287 . S
C372 C373 1.524 . S
C372 H391 0.913 . S
C373 H349 0.950 . S
C373 C372 1.524 . S
C373 C374 1.415 . S
C374 H350 0.950 . S
C374 C369 1.363 . S
C374 C373 1.415 . S
C375 H351 0.951 . S
C375 C376 1.366 . S
C375 C377 1.388 . S
C376 C375 1.366 . S
C376 C380 1.385 . S
C377 H352 0.951 . S
C377 C375 1.388 . S
C377 C378 1.366 . S
C378 C377 1.366 . S
C378 C379 1.414 . S
C378 C381 1.499 . S
C379 H353 0.950 . S
C379 C378 1.414 . S
C379 C380 1.374 . S
C380 H354 0.950 . S
C380 C376 1.385 . S
C380 C379 1.374 . S
C381 C378 1.499 . S
C381 C382 1.373 . S
C381 C383 1.389 . S
C382 H355 0.950 . S
C382 C368 1.377 . S
C382 C381 1.373 . S
C383 C367 1.377 . S
C383 C381 1.389 . S
C383 C384 1.524 . S
C384 C383 1.524 . S
C384 C385 1.397 . S
C384 C389 1.363 . S
C385 H356 0.950 . S
C385 C384 1.397 . S
C385 C386 1.334 . S
C386 H357 0.950 . S
C386 C385 1.334 . S
C386 C387 1.287 . S
C387 C386 1.287 . S
C387 C388 1.524 . S
C387 H390 0.999 . S
C388 H358 0.950 . S
C388 C387 1.524 . S
C388 C389 1.415 . S
C389 H359 0.950 . S
C389 C384 1.363 . S
C389 C388 1.415 . S
H390 C387 0.999 . S
H391 C372 0.913 . S
H392 C410 0.951 1_554 S
H393 C412 0.951 . S
H394 C414 0.950 . S
H395 C415 0.950 . S
H396 C417 0.950 . S
H397 C420 0.950 . S
H398 C421 0.950 . S
H399 C423 0.950 . S
H400 C424 0.950 1_556 S
H401 C425 0.951 . S
H402 C427 0.951 . S
H403 C429 0.950 . S
H404 C430 0.950 . S
H405 C432 0.950 . S
H406 C435 0.950 . S
H407 C436 0.950 . S
H408 C438 0.950 . S
H409 C439 0.950 . S
C410 H392 0.951 1_556 S
C410 C411 1.366 . S
C410 C412 1.388 . S
C411 C410 1.366 . S
C411 C415 1.385 . S
C412 H393 0.951 . S
C412 C410 1.388 . S
C412 C413 1.366 . S
C413 C412 1.366 . S
C413 C414 1.414 . S
C413 C416 1.499 . S
C414 H394 0.950 . S
C414 C413 1.414 . S
C414 C415 1.374 . S
C415 H395 0.950 . S
C415 C411 1.385 . S
C415 C414 1.374 . S
C416 C413 1.499 . S
C416 C417 1.373 . S
C416 C418 1.389 . S
C417 H396 0.950 . S
C417 C416 1.373 . S
C417 C433 1.377 . S
C418 C416 1.389 . S
C418 C419 1.519 1_556 S
C418 C432 1.377 . S
C419 C418 1.519 1_554 S
C419 C420 1.400 . S
C419 C424 1.365 . S
C420 H397 0.950 . S
C420 C419 1.400 . S
C420 C421 1.334 . S
C421 H398 0.950 . S
C421 C420 1.334 . S
C421 C422 1.287 . S
C422 C421 1.287 . S
C422 C423 1.524 . S
C422 H441 0.913 . S
C423 H399 0.950 . S
C423 C422 1.524 . S
C423 C424 1.415 . S
C424 H400 0.950 1_554 S
C424 C419 1.365 . S
C424 C423 1.415 . S
C425 H401 0.951 . S
C425 C426 1.366 . S
C425 C427 1.388 . S
C426 C425 1.366 . S
C426 C430 1.385 . S
C427 H402 0.951 . S
C427 C425 1.388 . S
C427 C428 1.366 . S
C428 C427 1.366 . S
C428 C429 1.414 . S
C428 C431 1.499 . S
C429 H403 0.950 . S
C429 C428 1.414 . S
C429 C430 1.374 . S
C430 H404 0.950 . S
C430 C426 1.385 . S
C430 C429 1.374 . S
C431 C428 1.499 . S
C431 C432 1.373 . S
C431 C433 1.389 . S
C432 H405 0.950 . S
C432 C418 1.377 . S
C432 C431 1.373 . S
C433 C417 1.377 . S
C433 C431 1.389 . S
C433 C434 1.524 . S
C434 C433 1.524 . S
C434 C435 1.397 . S
C434 C439 1.363 . S
C435 H406 0.950 . S
C435 C434 1.397 . S
C435 C436 1.334 . S
C436 H407 0.950 . S
C436 C435 1.334 . S
C436 C437 1.287 . S
C437 C436 1.287 . S
C437 C438 1.524 . S
C437 H440 0.999 . S
C438 H408 0.950 . S
C438 C437 1.524 . S
C438 C439 1.415 . S
C439 H409 0.950 . S
C439 C434 1.363 . S
C439 C438 1.415 . S
H440 C437 0.999 . S
H441 C422 0.913 . S
H442 C460 0.951 . S
H443 C462 0.951 . S
H444 C464 0.950 . S
H445 C465 0.950 . S
H446 C467 0.950 . S
H447 C470 0.950 . S
H448 C471 0.950 . S
H449 C473 0.950 . S
H450 C474 0.950 . S
H451 C475 0.951 . S
H452 C477 0.951 . S
H453 C479 0.950 . S
H454 C480 0.950 . S
H455 C482 0.950 . S
H456 C485 0.950 . S
H457 C486 0.950 . S
H458 C488 0.950 . S
H459 C489 0.950 . S
C460 H442 0.951 . S
C460 C461 1.366 . S
C460 C462 1.388 . S
C461 C460 1.366 . S
C461 C465 1.385 . S
C462 H443 0.951 . S
C462 C460 1.388 . S
C462 C463 1.366 . S
C463 C462 1.366 . S
C463 C464 1.414 . S
C463 C466 1.499 . S
C464 H444 0.950 . S
C464 C463 1.414 . S
C464 C465 1.374 . S
C465 H445 0.950 . S
C465 C461 1.385 . S
C465 C464 1.374 . S
C466 C463 1.499 . S
C466 C467 1.373 . S
C466 C468 1.389 . S
C467 H446 0.950 . S
C467 C466 1.373 . S
C467 C483 1.377 . S
C468 C466 1.389 . S
C468 C469 1.524 . S
C468 C482 1.377 . S
C469 C468 1.524 . S
C469 C470 1.397 . S
C469 C474 1.363 . S
C470 H447 0.950 . S
C470 C469 1.397 . S
C470 C471 1.334 . S
C471 H448 0.950 . S
C471 C470 1.334 . S
C471 C472 1.287 . S
C472 C471 1.287 . S
C472 C473 1.524 . S
C472 H491 0.913 . S
C473 H449 0.950 . S
C473 C472 1.524 . S
C473 C474 1.415 . S
C474 H450 0.950 . S
C474 C469 1.363 . S
C474 C473 1.415 . S
C475 H451 0.951 . S
C475 C476 1.366 . S
C475 C477 1.388 . S
C476 C475 1.366 . S
C476 C480 1.385 . S
C477 H452 0.951 . S
C477 C475 1.388 . S
C477 C478 1.366 . S
C478 C477 1.366 . S
C478 C479 1.414 . S
C478 C481 1.499 . S
C479 H453 0.950 . S
C479 C478 1.414 . S
C479 C480 1.374 . S
C480 H454 0.950 . S
C480 C476 1.385 . S
C480 C479 1.374 . S
C481 C478 1.499 . S
C481 C482 1.373 . S
C481 C483 1.389 . S
C482 H455 0.950 . S
C482 C468 1.377 . S
C482 C481 1.373 . S
C483 C467 1.377 . S
C483 C481 1.389 . S
C483 C484 1.524 . S
C484 C483 1.524 . S
C484 C485 1.397 . S
C484 C489 1.363 . S
C485 H456 0.950 . S
C485 C484 1.397 . S
C485 C486 1.334 . S
C486 H457 0.950 . S
C486 C485 1.334 . S
C486 C487 1.287 . S
C487 C486 1.287 . S
C487 C488 1.524 . S
C487 H490 0.999 . S
C488 H458 0.950 . S
C488 C487 1.524 . S
C488 C489 1.415 . S
C489 H459 0.950 . S
C489 C484 1.363 . S
C489 C488 1.415 . S
H490 C487 0.999 . S
H491 C472 0.913 . S
H492 C510 0.951 . S
H493 C512 0.951 . S
H494 C514 0.950 . S
H495 C515 0.950 1_554 S
H496 C517 0.950 . S
H497 C520 0.950 1_554 S
H498 C521 0.950 . S
H499 C523 0.950 . S
H500 C524 0.950 . S
H501 C525 0.951 . S
H502 C527 0.951 . S
H503 C529 0.950 . S
H504 C530 0.950 . S
H505 C532 0.950 . S
H506 C535 0.950 . S
H507 C536 0.950 . S
H508 C538 0.950 . S
H509 C539 0.950 . S
C510 H492 0.951 . S
C510 C511 1.366 . S
C510 C512 1.388 . S
C511 C510 1.366 . S
C511 C515 1.385 . S
C512 H493 0.951 . S
C512 C510 1.388 . S
C512 C513 1.366 . S
C513 C512 1.366 . S
C513 C514 1.414 . S
C513 C516 1.499 . S
C514 H494 0.950 . S
C514 C513 1.414 . S
C514 C515 1.374 . S
C515 H495 0.950 1_556 S
C515 C511 1.385 . S
C515 C514 1.374 . S
C516 C513 1.499 . S
C516 C517 1.373 . S
C516 C518 1.389 . S
C517 H496 0.950 . S
C517 C516 1.373 . S
C517 C533 1.377 . S
C518 C516 1.389 . S
C518 C519 1.524 . S
C518 C532 1.377 . S
C519 C518 1.524 . S
C519 C520 1.397 . S
C519 C524 1.363 . S
C520 H497 0.950 1_556 S
C520 C519 1.397 . S
C520 C521 1.334 1_556 S
C521 H498 0.950 . S
C521 C520 1.334 1_554 S
C521 C522 1.287 1_554 S
C522 C521 1.287 1_556 S
C522 C523 1.524 . S
C522 H541 0.913 1_556 S
C523 H499 0.950 . S
C523 C522 1.524 . S
C523 C524 1.415 . S
C524 H500 0.950 . S
C524 C519 1.363 . S
C524 C523 1.415 . S
C525 H501 0.951 . S
C525 C526 1.366 . S
C525 C527 1.388 . S
C526 C525 1.366 . S
C526 C530 1.385 . S
C527 H502 0.951 . S
C527 C525 1.388 . S
C527 C528 1.366 . S
C528 C527 1.366 . S
C528 C529 1.414 . S
C528 C531 1.499 . S
C529 H503 0.950 . S
C529 C528 1.414 . S
C529 C530 1.374 . S
C530 H504 0.950 . S
C530 C526 1.385 . S
C530 C529 1.374 . S
C531 C528 1.499 . S
C531 C532 1.373 . S
C531 C533 1.389 . S
C532 H505 0.950 . S
C532 C518 1.377 . S
C532 C531 1.373 . S
C533 C517 1.377 . S
C533 C531 1.389 . S
C533 C534 1.524 . S
C534 C533 1.524 . S
C534 C535 1.397 . S
C534 C539 1.363 . S
C535 H506 0.950 . S
C535 C534 1.397 . S
C535 C536 1.334 . S
C536 H507 0.950 . S
C536 C535 1.334 . S
C536 C537 1.287 . S
C537 C536 1.287 . S
C537 C538 1.524 . S
C537 H540 0.999 . S
C538 H508 0.950 . S
C538 C537 1.524 . S
C538 C539 1.415 . S
C539 H509 0.950 . S
C539 C534 1.363 . S
C539 C538 1.415 . S
H540 C537 0.999 . S
H541 C522 0.913 1_554 S
H542 C560 0.951 . S
H543 C562 0.951 . S
H544 C564 0.950 . S
H545 C565 0.950 . S
H546 C567 0.950 . S
H547 C570 0.950 . S
H548 C571 0.950 . S
H549 C573 0.950 . S
H550 C574 0.950 . S
H551 C575 0.951 . S
H552 C577 0.951 . S
H553 C579 0.950 . S
H554 C580 0.950 . S
H555 C582 0.950 . S
H556 C585 0.950 . S
H557 C586 0.950 . S
H558 C588 0.950 . S
H559 C589 0.950 . S
C560 H542 0.951 . S
C560 C561 1.366 . S
C560 C562 1.388 . S
C561 C560 1.366 . S
C561 C565 1.385 . S
C562 H543 0.951 . S
C562 C560 1.388 . S
C562 C563 1.366 . S
C563 C562 1.366 . S
C563 C564 1.414 . S
C563 C566 1.499 . S
C564 H544 0.950 . S
C564 C563 1.414 . S
C564 C565 1.374 . S
C565 H545 0.950 . S
C565 C561 1.385 . S
C565 C564 1.374 . S
C566 C563 1.499 . S
C566 C567 1.373 . S
C566 C568 1.389 . S
C567 H546 0.950 . S
C567 C566 1.373 . S
C567 C583 1.377 . S
C568 C566 1.389 . S
C568 C569 1.524 . S
C568 C582 1.377 . S
C569 C568 1.524 . S
C569 C570 1.397 . S
C569 C574 1.363 . S
C570 H547 0.950 . S
C570 C569 1.397 . S
C570 C571 1.334 . S
C571 H548 0.950 . S
C571 C570 1.334 . S
C571 C572 1.287 . S
C572 C571 1.287 . S
C572 C573 1.524 . S
C572 H591 0.913 . S
C573 H549 0.950 . S
C573 C572 1.524 . S
C573 C574 1.415 . S
C574 H550 0.950 . S
C574 C569 1.363 . S
C574 C573 1.415 . S
C575 H551 0.951 . S
C575 C576 1.366 . S
C575 C577 1.388 . S
C576 C575 1.366 . S
C576 C580 1.385 . S
C577 H552 0.951 . S
C577 C575 1.388 . S
C577 C578 1.366 . S
C578 C577 1.366 . S
C578 C579 1.414 . S
C578 C581 1.499 . S
C579 H553 0.950 . S
C579 C578 1.414 . S
C579 C580 1.374 . S
C580 H554 0.950 . S
C580 C576 1.385 . S
C580 C579 1.374 . S
C581 C578 1.499 . S
C581 C582 1.373 . S
C581 C583 1.389 . S
C582 H555 0.950 . S
C582 C568 1.377 . S
C582 C581 1.373 . S
C583 C567 1.377 . S
C583 C581 1.389 . S
C583 C584 1.524 . S
C584 C583 1.524 . S
C584 C585 1.397 . S
C584 C589 1.363 . S
C585 H556 0.950 . S
C585 C584 1.397 . S
C585 C586 1.334 . S
C586 H557 0.950 . S
C586 C585 1.334 . S
C586 C587 1.287 . S
C587 C586 1.287 . S
C587 C588 1.524 . S
C587 H590 0.999 . S
C588 H558 0.950 . S
C588 C587 1.524 . S
C588 C589 1.415 . S
C589 H559 0.950 . S
C589 C584 1.363 . S
C589 C588 1.415 . S
H590 C587 0.999 . S
H591 C572 0.913 . S
H592 C610 0.951 1_554 S
H593 C612 0.951 . S
H594 C614 0.950 . S
H595 C615 0.950 . S
H596 C617 0.950 . S
H597 C620 0.950 . S
H598 C621 0.950 . S
H599 C623 0.950 . S
H600 C624 0.950 . S
H601 C625 0.951 . S
H602 C627 0.951 . S
H603 C629 0.950 . S
H604 C630 0.950 . S
H605 C632 0.950 . S
H606 C635 0.950 . S
H607 C636 0.950 . S
H608 C638 0.950 . S
H609 C639 0.950 . S
C610 H592 0.951 1_556 S
C610 C611 1.366 . S
C610 C612 1.388 . S
C611 C610 1.366 . S
C611 C615 1.385 . S
C612 H593 0.951 . S
C612 C610 1.388 . S
C612 C613 1.366 . S
C613 C612 1.366 . S
C613 C614 1.414 . S
C613 C616 1.499 . S
C614 H594 0.950 . S
C614 C613 1.414 . S
C614 C615 1.374 . S
C615 H595 0.950 . S
C615 C611 1.385 . S
C615 C614 1.374 . S
C616 C613 1.499 . S
C616 C617 1.373 . S
C616 C618 1.389 . S
C617 H596 0.950 . S
C617 C616 1.373 . S
C617 C633 1.377 . S
C618 C616 1.389 . S
C618 C619 1.524 1_556 S
C618 C632 1.377 . S
C619 C618 1.524 1_554 S
C619 C620 1.397 . S
C619 C624 1.363 . S
C620 H597 0.950 . S
C620 C619 1.397 . S
C620 C621 1.334 . S
C621 H598 0.950 . S
C621 C620 1.334 . S
C621 C622 1.287 . S
C622 C621 1.287 . S
C622 C623 1.524 . S
C622 H641 0.913 . S
C623 H599 0.950 . S
C623 C622 1.524 . S
C623 C624 1.415 . S
C624 H600 0.950 . S
C624 C619 1.363 . S
C624 C623 1.415 . S
C625 H601 0.951 . S
C625 C626 1.366 . S
C625 C627 1.388 . S
C626 C625 1.366 . S
C626 C630 1.385 . S
C627 H602 0.951 . S
C627 C625 1.388 . S
C627 C628 1.366 . S
C628 C627 1.366 . S
C628 C629 1.414 . S
C628 C631 1.499 . S
C629 H603 0.950 . S
C629 C628 1.414 . S
C629 C630 1.374 . S
C630 H604 0.950 . S
C630 C626 1.385 . S
C630 C629 1.374 . S
C631 C628 1.499 . S
C631 C632 1.373 . S
C631 C633 1.389 . S
C632 H605 0.950 . S
C632 C618 1.377 . S
C632 C631 1.373 . S
C633 C617 1.377 . S
C633 C631 1.389 . S
C633 C634 1.524 . S
C634 C633 1.524 . S
C634 C635 1.397 . S
C634 C639 1.363 . S
C635 H606 0.950 . S
C635 C634 1.397 . S
C635 C636 1.334 . S
C636 H607 0.950 . S
C636 C635 1.334 . S
C636 C637 1.287 . S
C637 C636 1.287 . S
C637 C638 1.524 . S
C637 H640 0.999 . S
C638 H608 0.950 . S
C638 C637 1.524 . S
C638 C639 1.415 . S
C639 H609 0.950 . S
C639 C634 1.363 . S
C639 C638 1.415 . S
H640 C637 0.999 . S
H641 C622 0.913 . S
H642 C660 0.951 . S
H643 C662 0.951 . S
H644 C664 0.950 . S
H645 C665 0.950 . S
H646 C667 0.950 . S
H647 C670 0.950 . S
H648 C671 0.950 . S
H649 C673 0.950 . S
H650 C674 0.950 . S
H651 C675 0.951 . S
H652 C677 0.951 . S
H653 C679 0.950 . S
H654 C680 0.950 . S
H655 C682 0.950 . S
H656 C685 0.950 . S
H657 C686 0.950 . S
H658 C688 0.950 . S
H659 C689 0.950 . S
C660 H642 0.951 . S
C660 C661 1.366 . S
C660 C662 1.388 . S
C661 C660 1.366 . S
C661 C665 1.385 . S
C662 H643 0.951 . S
C662 C660 1.388 . S
C662 C663 1.366 . S
C663 C662 1.366 . S
C663 C664 1.414 . S
C663 C666 1.499 . S
C664 H644 0.950 . S
C664 C663 1.414 . S
C664 C665 1.374 . S
C665 H645 0.950 . S
C665 C661 1.385 . S
C665 C664 1.374 . S
C666 C663 1.499 . S
C666 C667 1.373 . S
C666 C668 1.389 . S
C667 H646 0.950 . S
C667 C666 1.373 . S
C667 C683 1.377 . S
C668 C666 1.389 . S
C668 C669 1.524 . S
C668 C682 1.377 . S
C669 C668 1.524 . S
C669 C670 1.397 . S
C669 C674 1.363 . S
C670 H647 0.950 . S
C670 C669 1.397 . S
C670 C671 1.334 . S
C671 H648 0.950 . S
C671 C670 1.334 . S
C671 C672 1.287 . S
C672 C671 1.287 . S
C672 C673 1.524 . S
C672 H691 0.913 . S
C673 H649 0.950 . S
C673 C672 1.524 . S
C673 C674 1.415 . S
C674 H650 0.950 . S
C674 C669 1.363 . S
C674 C673 1.415 . S
C675 H651 0.951 . S
C675 C676 1.366 . S
C675 C677 1.388 . S
C676 C675 1.366 . S
C676 C680 1.385 . S
C677 H652 0.951 . S
C677 C675 1.388 . S
C677 C678 1.366 . S
C678 C677 1.366 . S
C678 C679 1.414 . S
C678 C681 1.499 . S
C679 H653 0.950 . S
C679 C678 1.414 . S
C679 C680 1.374 . S
C680 H654 0.950 . S
C680 C676 1.385 . S
C680 C679 1.374 . S
C681 C678 1.499 . S
C681 C682 1.373 . S
C681 C683 1.389 . S
C682 H655 0.950 . S
C682 C668 1.377 . S
C682 C681 1.373 . S
C683 C667 1.377 . S
C683 C681 1.389 . S
C683 C684 1.524 . S
C684 C683 1.524 . S
C684 C685 1.397 . S
C684 C689 1.363 . S
C685 H656 0.950 . S
C685 C684 1.397 . S
C685 C686 1.334 . S
C686 H657 0.950 . S
C686 C685 1.334 . S
C686 C687 1.287 . S
C687 C686 1.287 . S
C687 C688 1.524 . S
C687 H690 0.999 . S
C688 H658 0.950 . S
C688 C687 1.524 . S
C688 C689 1.415 . S
C689 H659 0.950 . S
C689 C684 1.363 . S
C689 C688 1.415 . S
H690 C687 0.999 . S
H691 C672 0.913 . S
H692 C710 0.951 . S
H693 C712 0.951 . S
H694 C714 0.950 . S
H695 C715 0.950 . S
H696 C717 0.950 . S
H697 C720 0.950 . S
H698 C721 0.950 . S
H699 C723 0.950 . S
H700 C724 0.950 . S
H701 C725 0.951 . S
H702 C727 0.951 . S
H703 C729 0.950 . S
H704 C730 0.950 . S
H705 C732 0.950 . S
H706 C735 0.950 . S
H707 C736 0.950 . S
H708 C738 0.950 . S
H709 C739 0.950 . S
C710 H692 0.951 . S
C710 C711 1.366 . S
C710 C712 1.388 . S
C711 C710 1.366 . S
C711 C715 1.385 . S
C712 H693 0.951 . S
C712 C710 1.388 . S
C712 C713 1.366 . S
C713 C712 1.366 . S
C713 C714 1.414 . S
C713 C716 1.499 . S
C714 H694 0.950 . S
C714 C713 1.414 . S
C714 C715 1.374 . S
C715 H695 0.950 . S
C715 C711 1.385 . S
C715 C714 1.374 . S
C716 C713 1.499 . S
C716 C717 1.373 . S
C716 C718 1.389 . S
C717 H696 0.950 . S
C717 C716 1.373 . S
C717 C733 1.377 . S
C718 C716 1.389 . S
C718 C719 1.524 . S
C718 C732 1.377 . S
C719 C718 1.524 . S
C719 C720 1.397 1_556 S
C719 C724 1.363 . S
C720 H697 0.950 . S
C720 C719 1.397 1_554 S
C720 C721 1.334 . S
C721 H698 0.950 . S
C721 C720 1.334 . S
C721 C722 1.287 . S
C722 C721 1.287 . S
C722 C723 1.524 . S
C722 H741 0.913 . S
C723 H699 0.950 . S
C723 C722 1.524 . S
C723 C724 1.415 1_554 S
C724 H700 0.950 . S
C724 C719 1.363 . S
C724 C723 1.415 1_556 S
C725 H701 0.951 . S
C725 C726 1.366 . S
C725 C727 1.388 . S
C726 C725 1.366 . S
C726 C730 1.385 . S
C727 H702 0.951 . S
C727 C725 1.388 . S
C727 C728 1.366 . S
C728 C727 1.366 . S
C728 C729 1.414 . S
C728 C731 1.499 . S
C729 H703 0.950 . S
C729 C728 1.414 . S
C729 C730 1.374 . S
C730 H704 0.950 . S
C730 C726 1.385 . S
C730 C729 1.374 . S
C731 C728 1.499 . S
C731 C732 1.373 . S
C731 C733 1.389 . S
C732 H705 0.950 . S
C732 C718 1.377 . S
C732 C731 1.373 . S
C733 C717 1.377 . S
C733 C731 1.389 . S
C733 C734 1.524 . S
C734 C733 1.524 . S
C734 C735 1.397 . S
C734 C739 1.363 . S
C735 H706 0.950 . S
C735 C734 1.397 . S
C735 C736 1.334 . S
C736 H707 0.950 . S
C736 C735 1.334 . S
C736 C737 1.287 . S
C737 C736 1.287 . S
C737 C738 1.524 . S
C737 H740 0.999 . S
C738 H708 0.950 . S
C738 C737 1.524 . S
C738 C739 1.415 . S
C739 H709 0.950 . S
C739 C734 1.363 . S
C739 C738 1.415 . S
H740 C737 0.999 . S
H741 C722 0.913 . S
H742 C760 0.951 . S
H743 C762 0.951 . S
H744 C764 0.950 . S
H745 C765 0.950 . S
H746 C767 0.950 . S
H747 C770 0.950 . S
H748 C771 0.950 . S
H749 C773 0.950 . S
H750 C774 0.950 . S
H751 C775 0.951 . S
H752 C777 0.951 . S
H753 C779 0.950 . S
H754 C780 0.950 . S
H755 C782 0.950 . S
H756 C785 0.950 . S
H757 C786 0.950 . S
H758 C788 0.950 . S
H759 C789 0.950 . S
C760 H742 0.951 . S
C760 C761 1.366 . S
C760 C762 1.388 . S
C761 C760 1.366 . S
C761 C765 1.385 . S
C762 H743 0.951 . S
C762 C760 1.388 . S
C762 C763 1.366 . S
C763 C762 1.366 . S
C763 C764 1.414 . S
C763 C766 1.499 . S
C764 H744 0.950 . S
C764 C763 1.414 . S
C764 C765 1.374 . S
C765 H745 0.950 . S
C765 C761 1.385 . S
C765 C764 1.374 . S
C766 C763 1.499 . S
C766 C767 1.373 . S
C766 C768 1.389 . S
C767 H746 0.950 . S
C767 C766 1.373 . S
C767 C783 1.377 . S
C768 C766 1.389 . S
C768 C769 1.524 . S
C768 C782 1.377 . S
C769 C768 1.524 . S
C769 C770 1.397 . S
C769 C774 1.363 . S
C770 H747 0.950 . S
C770 C769 1.397 . S
C770 C771 1.334 . S
C771 H748 0.950 . S
C771 C770 1.334 . S
C771 C772 1.287 . S
C772 C771 1.287 . S
C772 C773 1.524 . S
C772 H791 0.913 . S
C773 H749 0.950 . S
C773 C772 1.524 . S
C773 C774 1.415 . S
C774 H750 0.950 . S
C774 C769 1.363 . S
C774 C773 1.415 . S
C775 H751 0.951 . S
C775 C776 1.366 . S
C775 C777 1.388 . S
C776 C775 1.366 . S
C776 C780 1.385 . S
C777 H752 0.951 . S
C777 C775 1.388 . S
C777 C778 1.366 . S
C778 C777 1.366 . S
C778 C779 1.414 . S
C778 C781 1.499 . S
C779 H753 0.950 . S
C779 C778 1.414 . S
C779 C780 1.374 . S
C780 H754 0.950 . S
C780 C776 1.385 . S
C780 C779 1.374 . S
C781 C778 1.499 . S
C781 C782 1.373 . S
C781 C783 1.389 . S
C782 H755 0.950 . S
C782 C768 1.377 . S
C782 C781 1.373 . S
C783 C767 1.377 . S
C783 C781 1.389 . S
C783 C784 1.524 . S
C784 C783 1.524 . S
C784 C785 1.397 . S
C784 C789 1.363 . S
C785 H756 0.950 . S
C785 C784 1.397 . S
C785 C786 1.334 . S
C786 H757 0.950 . S
C786 C785 1.334 . S
C786 C787 1.287 . S
C787 C786 1.287 . S
C787 C788 1.524 . S
C787 H790 0.999 . S
C788 H758 0.950 . S
C788 C787 1.524 . S
C788 C789 1.415 . S
C789 H759 0.950 . S
C789 C784 1.363 . S
C789 C788 1.415 . S
H790 C787 0.999 . S
H791 C772 0.913 . S
H792 C810 0.951 . S
H793 C812 0.951 . S
H794 C814 0.950 . S
H795 C815 0.950 1_554 S
H796 C817 0.950 . S
H797 C820 0.950 . S
H798 C821 0.950 . S
H799 C823 0.950 . S
H800 C824 0.930 1_545 S
H801 C825 0.951 . S
H802 C827 0.951 . S
H803 C829 0.950 . S
H804 C830 0.950 . S
H805 C832 0.950 1_545 S
H806 C835 0.950 . S
H807 C836 0.950 . S
H808 C838 0.950 . S
H809 C839 0.950 . S
C810 H792 0.951 . S
C810 C811 1.366 . S
C810 C812 1.388 . S
C811 C810 1.366 . S
C811 C815 1.385 . S
C812 H793 0.951 . S
C812 C810 1.388 . S
C812 C813 1.366 . S
C813 C812 1.366 . S
C813 C814 1.414 . S
C813 C816 1.499 . S
C814 H794 0.950 . S
C814 C813 1.414 . S
C814 C815 1.374 . S
C815 H795 0.950 1_556 S
C815 C811 1.385 . S
C815 C814 1.374 . S
C816 C813 1.499 . S
C816 C817 1.373 . S
C816 C818 1.389 . S
C817 H796 0.950 . S
C817 C816 1.373 . S
C817 C833 1.377 . S
C818 C816 1.389 . S
C818 C819 1.524 . S
C818 C832 1.377 . S
C819 C818 1.524 . S
C819 C820 1.397 . S
C819 C824 1.363 . S
C820 H797 0.950 . S
C820 C819 1.397 . S
C820 C821 1.334 . S
C821 H798 0.950 . S
C821 C820 1.334 . S
C821 C822 1.287 . S
C822 C821 1.287 . S
C822 C823 1.524 . S
C822 H841 0.913 . S
C823 H799 0.950 . S
C823 C822 1.524 . S
C823 C824 1.415 . S
C824 H800 0.930 1_565 S
C824 C819 1.363 . S
C824 C823 1.415 . S
C825 H801 0.951 . S
C825 C826 1.366 . S
C825 C827 1.388 . S
C826 C825 1.366 . S
C826 C830 1.385 . S
C827 H802 0.951 . S
C827 C825 1.388 . S
C827 C828 1.366 . S
C828 C827 1.366 . S
C828 C829 1.414 . S
C828 C831 1.499 . S
C829 H803 0.950 . S
C829 C828 1.414 . S
C829 C830 1.374 . S
C830 H804 0.950 . S
C830 C826 1.385 . S
C830 C829 1.374 . S
C831 C828 1.499 . S
C831 C832 1.373 1_545 S
C831 C833 1.389 1_545 S
C832 H805 0.950 1_565 S
C832 C818 1.377 . S
C832 C831 1.373 1_565 S
C833 C817 1.377 . S
C833 C831 1.389 1_565 S
C833 C834 1.524 1_565 S
C834 C833 1.524 1_545 S
C834 C835 1.397 . S
C834 C839 1.363 1_545 S
C835 H806 0.950 . S
C835 C834 1.397 . S
C835 C836 1.334 1_556 S
C836 H807 0.950 . S
C836 C835 1.334 1_554 S
C836 C837 1.287 . S
C837 C836 1.287 . S
C837 C838 1.524 1_545 S
C837 H840 0.999 . S
C838 H808 0.950 . S
C838 C837 1.524 1_565 S
C838 C839 1.415 1_554 S
C839 H809 0.950 . S
C839 C834 1.363 1_565 S
C839 C838 1.415 1_556 S
H840 C837 0.999 . S
H841 C822 0.913 . S
H842 C860 0.951 . S
H843 C862 0.951 . S
H844 C864 0.950 . S
H845 C865 0.950 . S
H846 C867 0.950 . S
H847 C870 0.950 . S
H848 C871 0.950 . S
H849 C873 0.950 . S
H850 C874 0.950 . S
H851 C875 0.951 . S
H852 C877 0.951 . S
H853 C879 0.950 1_545 S
H854 C880 0.950 . S
H855 C882 0.950 . S
H856 C885 0.950 . S
H857 C886 0.950 . S
H858 C888 0.950 . S
H859 C889 0.950 . S
C860 H842 0.951 . S
C860 C861 1.366 . S
C860 C862 1.388 . S
C861 C860 1.366 . S
C861 C865 1.385 . S
C862 H843 0.951 . S
C862 C860 1.388 . S
C862 C863 1.366 . S
C863 C862 1.366 . S
C863 C864 1.414 . S
C863 C866 1.499 . S
C864 H844 0.950 . S
C864 C863 1.414 . S
C864 C865 1.374 . S
C865 H845 0.950 . S
C865 C861 1.385 . S
C865 C864 1.374 . S
C866 C863 1.499 . S
C866 C867 1.373 . S
C866 C868 1.389 . S
C867 H846 0.950 . S
C867 C866 1.373 . S
C867 C883 1.377 1_545 S
C868 C866 1.389 . S
C868 C869 1.524 . S
C868 C882 1.377 . S
C869 C868 1.524 . S
C869 C870 1.397 . S
C869 C874 1.363 . S
C870 H847 0.950 . S
C870 C869 1.397 . S
C870 C871 1.334 . S
C871 H848 0.950 . S
C871 C870 1.334 . S
C871 C872 1.287 . S
C872 C871 1.287 . S
C872 C873 1.524 . S
C872 H891 0.913 . S
C873 H849 0.950 . S
C873 C872 1.524 . S
C873 C874 1.415 . S
C874 H850 0.950 . S
C874 C869 1.363 . S
C874 C873 1.415 . S
C875 H851 0.951 . S
C875 C876 1.366 . S
C875 C877 1.388 . S
C876 C875 1.366 . S
C876 C880 1.385 . S
C877 H852 0.951 . S
C877 C875 1.388 . S
C877 C878 1.366 . S
C878 C877 1.366 . S
C878 C879 1.414 . S
C878 C881 1.499 . S
C879 H853 0.950 1_565 S
C879 C878 1.414 . S
C879 C880 1.374 . S
C880 H854 0.950 . S
C880 C876 1.385 . S
C880 C879 1.374 . S
C881 C878 1.499 . S
C881 C882 1.373 1_565 S
C881 C883 1.389 . S
C882 H855 0.950 . S
C882 C868 1.377 . S
C882 C881 1.373 1_545 S
C883 C867 1.377 1_565 S
C883 C881 1.389 . S
C883 C884 1.524 . S
C884 C883 1.524 . S
C884 C885 1.397 . S
C884 C889 1.363 . S
C885 H856 0.950 . S
C885 C884 1.397 . S
C885 C886 1.334 . S
C886 H857 0.950 . S
C886 C885 1.334 . S
C886 C887 1.287 . S
C887 C886 1.287 . S
C887 C888 1.524 . S
C887 H890 0.999 . S
C888 H858 0.950 . S
C888 C887 1.524 . S
C888 C889 1.415 . S
C889 H859 0.950 . S
C889 C884 1.363 . S
C889 C888 1.415 . S
H890 C887 0.999 . S
H891 C872 0.913 . S
H892 C910 0.951 . S
H893 C912 0.951 . S
H894 C914 0.950 . S
H895 C915 0.950 1_554 S
H896 C917 0.950 . S
H897 C920 0.950 . S
H898 C921 0.950 1_565 S
H899 C923 0.946 1_556 S
H900 C924 0.950 . S
H901 C925 0.951 . S
H902 C927 0.951 . S
H903 C929 0.950 . S
H904 C930 0.950 . S
H905 C932 0.950 . S
H906 C935 0.950 . S
H907 C936 0.950 . S
H908 C938 0.950 . S
H909 C939 0.950 . S
C910 H892 0.951 . S
C910 C911 1.366 . S
C910 C912 1.388 . S
C911 C910 1.366 . S
C911 C915 1.385 . S
C912 H893 0.951 . S
C912 C910 1.388 . S
C912 C913 1.366 . S
C913 C912 1.366 . S
C913 C914 1.414 . S
C913 C916 1.499 . S
C914 H894 0.950 . S
C914 C913 1.414 . S
C914 C915 1.374 . S
C915 H895 0.950 1_556 S
C915 C911 1.385 . S
C915 C914 1.374 . S
C916 C913 1.499 . S
C916 C917 1.373 . S
C916 C918 1.389 . S
C917 H896 0.950 . S
C917 C916 1.373 . S
C917 C933 1.377 . S
C918 C916 1.389 . S
C918 C919 1.524 1_565 S
C918 C932 1.377 1_565 S
C919 C918 1.524 1_545 S
C919 C920 1.397 1_546 S
C919 C924 1.363 . S
C920 H897 0.950 . S
C920 C919 1.397 1_564 S
C920 C921 1.334 1_565 S
C921 H898 0.950 1_545 S
C921 C920 1.334 1_545 S
C921 C922 1.287 . S
C922 C921 1.287 . S
C922 C923 1.553 . S
C922 H941 0.913 . S
C923 H899 0.946 1_554 S
C923 C922 1.553 . S
C923 C924 1.392 1_554 S
C924 H900 0.950 . S
C924 C919 1.363 . S
C924 C923 1.392 1_556 S
C925 H901 0.951 . S
C925 C926 1.366 . S
C925 C927 1.388 . S
C926 C925 1.366 . S
C926 C930 1.385 . S
C927 H902 0.951 . S
C927 C925 1.388 . S
C927 C928 1.366 . S
C928 C927 1.366 . S
C928 C929 1.414 . S
C928 C931 1.499 . S
C929 H903 0.950 . S
C929 C928 1.414 . S
C929 C930 1.374 . S
C930 H904 0.950 . S
C930 C926 1.385 . S
C930 C929 1.374 . S
C931 C928 1.499 . S
C931 C932 1.373 . S
C931 C933 1.389 1_545 S
C932 H905 0.950 . S
C932 C918 1.377 1_545 S
C932 C931 1.373 . S
C933 C917 1.377 . S
C933 C931 1.389 1_565 S
C933 C934 1.524 . S
C934 C933 1.524 . S
C934 C935 1.397 . S
C934 C939 1.363 . S
C935 H906 0.950 . S
C935 C934 1.397 . S
C935 C936 1.334 . S
C936 H907 0.950 . S
C936 C935 1.334 . S
C936 C937 1.287 . S
C937 C936 1.287 . S
C937 C938 1.524 . S
C937 H940 0.999 . S
C938 H908 0.950 . S
C938 C937 1.524 . S
C938 C939 1.415 . S
C939 H909 0.950 . S
C939 C934 1.363 . S
C939 C938 1.415 . S
H940 C937 0.999 . S
H941 C922 0.913 . S
H942 C960 0.951 . S
H943 C962 0.951 . S
H944 C964 0.950 . S
H945 C965 0.950 . S
H946 C967 0.950 . S
H947 C970 0.950 . S
H948 C971 0.950 . S
H949 C973 0.950 . S
H950 C974 0.950 . S
H951 C975 0.951 . S
H952 C977 0.951 . S
H953 C979 0.950 . S
H954 C980 0.950 . S
H955 C982 0.950 . S
H956 C985 0.950 . S
H957 C986 0.950 . S
H958 C988 0.950 . S
H959 C989 0.950 . S
C960 H942 0.951 . S
C960 C961 1.366 . S
C960 C962 1.388 . S
C961 C960 1.366 . S
C961 C965 1.385 . S
C962 H943 0.951 . S
C962 C960 1.388 . S
C962 C963 1.366 . S
C963 C962 1.366 . S
C963 C964 1.414 . S
C963 C966 1.499 . S
C964 H944 0.950 . S
C964 C963 1.414 . S
C964 C965 1.374 . S
C965 H945 0.950 . S
C965 C961 1.385 . S
C965 C964 1.374 . S
C966 C963 1.499 . S
C966 C967 1.373 . S
C966 C968 1.389 . S
C967 H946 0.950 . S
C967 C966 1.373 . S
C967 C983 1.377 1_545 S
C968 C966 1.389 . S
C968 C969 1.524 . S
C968 C982 1.377 . S
C969 C968 1.524 . S
C969 C970 1.397 . S
C969 C974 1.363 . S
C970 H947 0.950 . S
C970 C969 1.397 . S
C970 C971 1.334 . S
C971 H948 0.950 . S
C971 C970 1.334 . S
C971 C972 1.287 . S
C972 C971 1.287 . S
C972 C973 1.524 . S
C972 H991 0.913 . S
C973 H949 0.950 . S
C973 C972 1.524 . S
C973 C974 1.415 . S
C974 H950 0.950 . S
C974 C969 1.363 . S
C974 C973 1.415 . S
C975 H951 0.951 . S
C975 C976 1.366 . S
C975 C977 1.388 . S
C976 C975 1.366 . S
C976 C980 1.385 . S
C977 H952 0.951 . S
C977 C975 1.388 . S
C977 C978 1.366 . S
C978 C977 1.366 . S
C978 C979 1.414 . S
C978 C981 1.499 . S
C979 H953 0.950 . S
C979 C978 1.414 . S
C979 C980 1.374 . S
C980 H954 0.950 . S
C980 C976 1.385 . S
C980 C979 1.374 . S
C981 C978 1.499 . S
C981 C982 1.373 1_565 S
C981 C983 1.389 . S
C982 H955 0.950 . S
C982 C968 1.377 . S
C982 C981 1.373 1_545 S
C983 C967 1.377 1_565 S
C983 C981 1.389 . S
C983 C984 1.524 . S
C984 C983 1.524 . S
C984 C985 1.397 . S
C984 C989 1.363 . S
C985 H956 0.950 . S
C985 C984 1.397 . S
C985 C986 1.334 . S
C986 H957 0.950 . S
C986 C985 1.334 . S
C986 C987 1.287 . S
C987 C986 1.287 . S
C987 C988 1.524 . S
C987 H990 0.999 . S
C988 H958 0.950 . S
C988 C987 1.524 . S
C988 C989 1.415 . S
C989 H959 0.950 . S
C989 C984 1.363 . S
C989 C988 1.415 . S
H990 C987 0.999 . S
H991 C972 0.913 . S
H992 C1010 0.951 . S
H993 C1012 0.951 . S
H994 C1014 0.950 . S
H995 C1015 0.950 . S
H996 C1017 0.950 . S
H997 C1020 0.950 . S
H998 C1021 0.950 . S
H999 C1023 0.950 . S
H1000 C1024 0.950 . S
H1001 C1025 0.951 . S
H1002 C1027 0.951 . S
H1003 C1029 0.950 . S
H1004 C1030 0.950 . S
H1005 C1032 0.950 . S
H1006 C1035 0.950 . S
H1007 C1036 0.950 . S
H1008 C1038 0.950 . S
H1009 C1039 0.950 . S
C1010 H992 0.951 . S
C1010 C1011 1.366 . S
C1010 C1012 1.388 . S
C1011 C1010 1.366 . S
C1011 C1015 1.385 . S
C1012 H993 0.951 . S
C1012 C1010 1.388 . S
C1012 C1013 1.366 . S
C1013 C1012 1.366 . S
C1013 C1014 1.414 . S
C1013 C1016 1.499 . S
C1014 H994 0.950 . S
C1014 C1013 1.414 . S
C1014 C1015 1.374 . S
C1015 H995 0.950 . S
C1015 C1011 1.385 . S
C1015 C1014 1.374 . S
C1016 C1013 1.499 . S
C1016 C1017 1.373 . S
C1016 C1018 1.389 . S
C1017 H996 0.950 . S
C1017 C1016 1.373 . S
C1017 C1033 1.377 . S
C1018 C1016 1.389 . S
C1018 C1019 1.524 . S
C1018 C1032 1.377 . S
C1019 C1018 1.524 . S
C1019 C1020 1.397 . S
C1019 C1024 1.363 . S
C1020 H997 0.950 . S
C1020 C1019 1.397 . S
C1020 C1021 1.334 . S
C1021 H998 0.950 . S
C1021 C1020 1.334 . S
C1021 C1022 1.287 . S
C1022 C1021 1.287 . S
C1022 C1023 1.524 . S
C1022 H1041 0.913 . S
C1023 H999 0.950 . S
C1023 C1022 1.524 . S
C1023 C1024 1.415 . S
C1024 H1000 0.950 . S
C1024 C1019 1.363 . S
C1024 C1023 1.415 . S
C1025 H1001 0.951 . S
C1025 C1026 1.366 . S
C1025 C1027 1.388 . S
C1026 C1025 1.366 . S
C1026 C1030 1.385 . S
C1027 H1002 0.951 . S
C1027 C1025 1.388 . S
C1027 C1028 1.366 . S
C1028 C1027 1.366 . S
C1028 C1029 1.414 . S
C1028 C1031 1.499 . S
C1029 H1003 0.950 . S
C1029 C1028 1.414 . S
C1029 C1030 1.374 . S
C1030 H1004 0.950 . S
C1030 C1026 1.385 . S
C1030 C1029 1.374 . S
C1031 C1028 1.499 . S
C1031 C1032 1.373 . S
C1031 C1033 1.389 . S
C1032 H1005 0.950 . S
C1032 C1018 1.377 . S
C1032 C1031 1.373 . S
C1033 C1017 1.377 . S
C1033 C1031 1.389 . S
C1033 C1034 1.524 . S
C1034 C1033 1.524 . S
C1034 C1035 1.397 . S
C1034 C1039 1.363 . S
C1035 H1006 0.950 . S
C1035 C1034 1.397 . S
C1035 C1036 1.334 . S
C1036 H1007 0.950 . S
C1036 C1035 1.334 . S
C1036 C1037 1.287 . S
C1037 C1036 1.287 . S
C1037 C1038 1.524 . S
C1037 H1040 0.999 . S
C1038 H1008 0.950 . S
C1038 C1037 1.524 . S
C1038 C1039 1.415 . S
C1039 H1009 0.950 . S
C1039 C1034 1.363 . S
C1039 C1038 1.415 . S
H1040 C1037 0.999 . S
H1041 C1022 0.913 . S
H1042 C1060 0.951 . S
H1043 C1062 0.951 . S
H1044 C1064 0.950 . S
H1045 C1065 0.950 . S
H1046 C1067 0.950 . S
H1047 C1070 0.950 . S
H1048 C1071 0.950 . S
H1049 C1073 0.950 . S
H1050 C1074 0.950 . S
H1051 C1075 0.951 . S
H1052 C1077 0.951 . S
H1053 C1079 0.950 . S
H1054 C1080 0.950 . S
H1055 C1082 0.950 . S
H1056 C1085 0.950 . S
H1057 C1086 0.950 . S
H1058 C1088 0.950 . S
H1059 C1089 0.950 . S
C1060 H1042 0.951 . S
C1060 C1061 1.366 . S
C1060 C1062 1.388 . S
C1061 C1060 1.366 . S
C1061 C1065 1.385 . S
C1062 H1043 0.951 . S
C1062 C1060 1.388 . S
C1062 C1063 1.366 . S
C1063 C1062 1.366 . S
C1063 C1064 1.414 . S
C1063 C1066 1.499 . S
C1064 H1044 0.950 . S
C1064 C1063 1.414 . S
C1064 C1065 1.374 . S
C1065 H1045 0.950 . S
C1065 C1061 1.385 . S
C1065 C1064 1.374 . S
C1066 C1063 1.499 . S
C1066 C1067 1.373 . S
C1066 C1068 1.389 . S
C1067 H1046 0.950 . S
C1067 C1066 1.373 . S
C1067 C1083 1.377 . S
C1068 C1066 1.389 . S
C1068 C1069 1.524 . S
C1068 C1082 1.377 . S
C1069 C1068 1.524 . S
C1069 C1070 1.397 . S
C1069 C1074 1.363 . S
C1070 H1047 0.950 . S
C1070 C1069 1.397 . S
C1070 C1071 1.334 . S
C1071 H1048 0.950 . S
C1071 C1070 1.334 . S
C1071 C1072 1.287 . S
C1072 C1071 1.287 . S
C1072 C1073 1.524 . S
C1072 H1091 0.913 . S
C1073 H1049 0.950 . S
C1073 C1072 1.524 . S
C1073 C1074 1.415 . S
C1074 H1050 0.950 . S
C1074 C1069 1.363 . S
C1074 C1073 1.415 . S
C1075 H1051 0.951 . S
C1075 C1076 1.366 . S
C1075 C1077 1.388 . S
C1076 C1075 1.366 . S
C1076 C1080 1.385 . S
C1077 H1052 0.951 . S
C1077 C1075 1.388 . S
C1077 C1078 1.366 . S
C1078 C1077 1.366 . S
C1078 C1079 1.414 . S
C1078 C1081 1.499 . S
C1079 H1053 0.950 . S
C1079 C1078 1.414 . S
C1079 C1080 1.374 . S
C1080 H1054 0.950 . S
C1080 C1076 1.385 . S
C1080 C1079 1.374 . S
C1081 C1078 1.499 . S
C1081 C1082 1.373 . S
C1081 C1083 1.389 . S
C1082 H1055 0.950 . S
C1082 C1068 1.377 . S
C1082 C1081 1.373 . S
C1083 C1067 1.377 . S
C1083 C1081 1.389 . S
C1083 C1084 1.524 . S
C1084 C1083 1.524 . S
C1084 C1085 1.397 . S
C1084 C1089 1.363 . S
C1085 H1056 0.950 . S
C1085 C1084 1.397 . S
C1085 C1086 1.334 . S
C1086 H1057 0.950 . S
C1086 C1085 1.334 . S
C1086 C1087 1.287 . S
C1087 C1086 1.287 . S
C1087 C1088 1.524 . S
C1087 H1090 0.999 . S
C1088 H1058 0.950 . S
C1088 C1087 1.524 . S
C1088 C1089 1.415 . S
C1089 H1059 0.950 . S
C1089 C1084 1.363 . S
C1089 C1088 1.415 . S
H1090 C1087 0.999 . S
H1091 C1072 0.913 . S
H1092 C1110 0.951 . S
H1093 C1112 0.951 . S
H1094 C1114 0.950 . S
H1095 C1115 0.950 . S
H1096 C1117 0.950 . S
H1097 C1120 0.950 . S
H1098 C1121 0.950 . S
H1099 C1123 0.950 . S
H1100 C1124 0.950 . S
H1101 C1125 0.951 . S
H1102 C1127 0.951 . S
H1103 C1129 0.950 . S
H1104 C1130 0.950 . S
H1105 C1132 0.950 . S
H1106 C1135 0.950 . S
H1107 C1136 0.950 . S
H1108 C1138 0.950 . S
H1109 C1139 0.950 . S
C1110 H1092 0.951 . S
C1110 C1111 1.366 . S
C1110 C1112 1.388 . S
C1111 C1110 1.366 . S
C1111 C1115 1.385 . S
C1112 H1093 0.951 . S
C1112 C1110 1.388 . S
C1112 C1113 1.366 . S
C1113 C1112 1.366 . S
C1113 C1114 1.414 . S
C1113 C1116 1.499 . S
C1114 H1094 0.950 . S
C1114 C1113 1.414 . S
C1114 C1115 1.374 . S
C1115 H1095 0.950 . S
C1115 C1111 1.385 . S
C1115 C1114 1.374 . S
C1116 C1113 1.499 . S
C1116 C1117 1.373 . S
C1116 C1118 1.389 . S
C1117 H1096 0.950 . S
C1117 C1116 1.373 . S
C1117 C1133 1.377 . S
C1118 C1116 1.389 . S
C1118 C1119 1.524 . S
C1118 C1132 1.377 . S
C1119 C1118 1.524 . S
C1119 C1120 1.397 . S
C1119 C1124 1.363 . S
C1120 H1097 0.950 . S
C1120 C1119 1.397 . S
C1120 C1121 1.334 . S
C1121 H1098 0.950 . S
C1121 C1120 1.334 . S
C1121 C1122 1.287 . S
C1122 C1121 1.287 . S
C1122 C1123 1.524 . S
C1122 H1141 0.913 . S
C1123 H1099 0.950 . S
C1123 C1122 1.524 . S
C1123 C1124 1.415 . S
C1124 H1100 0.950 . S
C1124 C1119 1.363 . S
C1124 C1123 1.415 . S
C1125 H1101 0.951 . S
C1125 C1126 1.366 . S
C1125 C1127 1.388 . S
C1126 C1125 1.366 . S
C1126 C1130 1.385 . S
C1127 H1102 0.951 . S
C1127 C1125 1.388 . S
C1127 C1128 1.366 . S
C1128 C1127 1.366 . S
C1128 C1129 1.414 . S
C1128 C1131 1.499 . S
C1129 H1103 0.950 . S
C1129 C1128 1.414 . S
C1129 C1130 1.374 . S
C1130 H1104 0.950 . S
C1130 C1126 1.385 . S
C1130 C1129 1.374 . S
C1131 C1128 1.499 . S
C1131 C1132 1.373 . S
C1131 C1133 1.389 . S
C1132 H1105 0.950 . S
C1132 C1118 1.377 . S
C1132 C1131 1.373 . S
C1133 C1117 1.377 . S
C1133 C1131 1.389 . S
C1133 C1134 1.524 . S
C1134 C1133 1.524 . S
C1134 C1135 1.397 . S
C1134 C1139 1.363 . S
C1135 H1106 0.950 . S
C1135 C1134 1.397 . S
C1135 C1136 1.334 . S
C1136 H1107 0.950 . S
C1136 C1135 1.334 . S
C1136 C1137 1.287 . S
C1137 C1136 1.287 . S
C1137 C1138 1.524 . S
C1137 H1140 0.999 . S
C1138 H1108 0.950 . S
C1138 C1137 1.524 . S
C1138 C1139 1.415 . S
C1139 H1109 0.950 . S
C1139 C1134 1.363 . S
C1139 C1138 1.415 . S
H1140 C1137 0.999 . S
H1141 C1122 0.913 . S
H1142 C1160 0.951 . S
H1143 C1162 0.951 . S
H1144 C1164 0.950 . S
H1145 C1165 0.950 . S
H1146 C1167 0.950 . S
H1147 C1170 0.950 . S
H1148 C1171 0.950 . S
H1149 C1173 0.950 . S
H1150 C1174 0.950 . S
H1151 C1175 0.951 . S
H1152 C1177 0.951 . S
H1153 C1179 0.950 . S
H1154 C1180 0.950 . S
H1155 C1182 0.950 . S
H1156 C1185 0.950 . S
H1157 C1186 0.950 . S
H1158 C1188 0.950 . S
H1159 C1189 0.950 . S
C1160 H1142 0.951 . S
C1160 C1161 1.366 . S
C1160 C1162 1.388 . S
C1161 C1160 1.366 . S
C1161 C1165 1.385 . S
C1162 H1143 0.951 . S
C1162 C1160 1.388 . S
C1162 C1163 1.366 . S
C1163 C1162 1.366 . S
C1163 C1164 1.414 . S
C1163 C1166 1.499 . S
C1164 H1144 0.950 . S
C1164 C1163 1.414 . S
C1164 C1165 1.374 . S
C1165 H1145 0.950 . S
C1165 C1161 1.385 . S
C1165 C1164 1.374 . S
C1166 C1163 1.499 . S
C1166 C1167 1.373 . S
C1166 C1168 1.389 . S
C1167 H1146 0.950 . S
C1167 C1166 1.373 . S
C1167 C1183 1.377 . S
C1168 C1166 1.389 . S
C1168 C1169 1.524 . S
C1168 C1182 1.377 . S
C1169 C1168 1.524 . S
C1169 C1170 1.397 . S
C1169 C1174 1.363 . S
C1170 H1147 0.950 . S
C1170 C1169 1.397 . S
C1170 C1171 1.334 . S
C1171 H1148 0.950 . S
C1171 C1170 1.334 . S
C1171 C1172 1.287 . S
C1172 C1171 1.287 . S
C1172 C1173 1.524 . S
C1172 H1191 0.913 . S
C1173 H1149 0.950 . S
C1173 C1172 1.524 . S
C1173 C1174 1.415 . S
C1174 H1150 0.950 . S
C1174 C1169 1.363 . S
C1174 C1173 1.415 . S
C1175 H1151 0.951 . S
C1175 C1176 1.366 . S
C1175 C1177 1.388 . S
C1176 C1175 1.366 . S
C1176 C1180 1.385 . S
C1177 H1152 0.951 . S
C1177 C1175 1.388 . S
C1177 C1178 1.366 . S
C1178 C1177 1.366 . S
C1178 C1179 1.414 . S
C1178 C1181 1.499 . S
C1179 H1153 0.950 . S
C1179 C1178 1.414 . S
C1179 C1180 1.374 . S
C1180 H1154 0.950 . S
C1180 C1176 1.385 . S
C1180 C1179 1.374 . S
C1181 C1178 1.499 . S
C1181 C1182 1.373 . S
C1181 C1183 1.389 . S
C1182 H1155 0.950 . S
C1182 C1168 1.377 . S
C1182 C1181 1.373 . S
C1183 C1167 1.377 . S
C1183 C1181 1.389 . S
C1183 C1184 1.524 . S
C1184 C1183 1.524 . S
C1184 C1185 1.397 . S
C1184 C1189 1.363 . S
C1185 H1156 0.950 . S
C1185 C1184 1.397 . S
C1185 C1186 1.334 . S
C1186 H1157 0.950 . S
C1186 C1185 1.334 . S
C1186 C1187 1.287 . S
C1187 C1186 1.287 . S
C1187 C1188 1.524 . S
C1187 H1190 0.999 . S
C1188 H1158 0.950 . S
C1188 C1187 1.524 . S
C1188 C1189 1.415 . S
C1189 H1159 0.950 . S
C1189 C1184 1.363 . S
C1189 C1188 1.415 . S
H1190 C1187 0.999 . S
H1191 C1172 0.913 . S
H1192 C1210 0.951 . S
H1193 C1212 0.951 . S
H1194 C1214 0.950 . S
H1195 C1215 0.950 . S
H1196 C1217 0.950 . S
H1197 C1220 0.950 . S
H1198 C1221 0.950 . S
H1199 C1223 0.950 . S
H1200 C1224 0.950 . S
H1201 C1225 0.951 . S
H1202 C1227 0.951 . S
H1203 C1229 0.950 . S
H1204 C1230 0.950 . S
H1205 C1232 0.950 . S
H1206 C1235 0.950 . S
H1207 C1236 0.950 . S
H1208 C1238 0.950 . S
H1209 C1239 0.950 . S
C1210 H1192 0.951 . S
C1210 C1211 1.366 . S
C1210 C1212 1.388 . S
C1211 C1210 1.366 . S
C1211 C1215 1.385 . S
C1212 H1193 0.951 . S
C1212 C1210 1.388 . S
C1212 C1213 1.366 . S
C1213 C1212 1.366 . S
C1213 C1214 1.414 . S
C1213 C1216 1.499 . S
C1214 H1194 0.950 . S
C1214 C1213 1.414 . S
C1214 C1215 1.374 . S
C1215 H1195 0.950 . S
C1215 C1211 1.385 . S
C1215 C1214 1.374 . S
C1216 C1213 1.499 . S
C1216 C1217 1.373 . S
C1216 C1218 1.389 . S
C1217 H1196 0.950 . S
C1217 C1216 1.373 . S
C1217 C1233 1.377 . S
C1218 C1216 1.389 . S
C1218 C1219 1.524 . S
C1218 C1232 1.377 . S
C1219 C1218 1.524 . S
C1219 C1220 1.397 . S
C1219 C1224 1.363 . S
C1220 H1197 0.950 . S
C1220 C1219 1.397 . S
C1220 C1221 1.334 . S
C1221 H1198 0.950 . S
C1221 C1220 1.334 . S
C1221 C1222 1.287 . S
C1222 C1221 1.287 . S
C1222 C1223 1.524 . S
C1222 H1241 0.913 . S
C1223 H1199 0.950 . S
C1223 C1222 1.524 . S
C1223 C1224 1.415 . S
C1224 H1200 0.950 . S
C1224 C1219 1.363 . S
C1224 C1223 1.415 . S
C1225 H1201 0.951 . S
C1225 C1226 1.366 . S
C1225 C1227 1.388 . S
C1226 C1225 1.366 . S
C1226 C1230 1.385 . S
C1227 H1202 0.951 . S
C1227 C1225 1.388 . S
C1227 C1228 1.366 . S
C1228 C1227 1.366 . S
C1228 C1229 1.414 . S
C1228 C1231 1.499 . S
C1229 H1203 0.950 . S
C1229 C1228 1.414 . S
C1229 C1230 1.374 . S
C1230 H1204 0.950 . S
C1230 C1226 1.385 . S
C1230 C1229 1.374 . S
C1231 C1228 1.499 . S
C1231 C1232 1.373 . S
C1231 C1233 1.389 . S
C1232 H1205 0.950 . S
C1232 C1218 1.377 . S
C1232 C1231 1.373 . S
C1233 C1217 1.377 . S
C1233 C1231 1.389 . S
C1233 C1234 1.524 . S
C1234 C1233 1.524 . S
C1234 C1235 1.397 . S
C1234 C1239 1.363 . S
C1235 H1206 0.950 . S
C1235 C1234 1.397 . S
C1235 C1236 1.334 . S
C1236 H1207 0.950 . S
C1236 C1235 1.334 . S
C1236 C1237 1.287 . S
C1237 C1236 1.287 . S
C1237 C1238 1.524 . S
C1237 H1240 0.999 . S
C1238 H1208 0.950 . S
C1238 C1237 1.524 . S
C1238 C1239 1.415 . S
C1239 H1209 0.950 . S
C1239 C1234 1.363 . S
C1239 C1238 1.415 . S
H1240 C1237 0.999 . S
H1241 C1222 0.913 . S
H1242 C1260 0.951 . S
H1243 C1262 0.951 . S
H1244 C1264 0.950 . S
H1245 C1265 0.950 . S
H1246 C1267 0.950 . S
H1247 C1270 0.950 . S
H1248 C1271 0.950 . S
H1249 C1273 0.950 . S
H1250 C1274 0.950 . S
H1251 C1275 0.951 . S
H1252 C1277 0.951 . S
H1253 C1279 0.950 . S
H1254 C1280 0.950 . S
H1255 C1282 0.950 . S
H1256 C1285 0.950 . S
H1257 C1286 0.950 . S
H1258 C1288 0.950 . S
H1259 C1289 0.950 . S
C1260 H1242 0.951 . S
C1260 C1261 1.366 . S
C1260 C1262 1.388 . S
C1261 C1260 1.366 . S
C1261 C1265 1.385 . S
C1262 H1243 0.951 . S
C1262 C1260 1.388 . S
C1262 C1263 1.366 . S
C1263 C1262 1.366 . S
C1263 C1264 1.414 . S
C1263 C1266 1.499 . S
C1264 H1244 0.950 . S
C1264 C1263 1.414 . S
C1264 C1265 1.374 . S
C1265 H1245 0.950 . S
C1265 C1261 1.385 . S
C1265 C1264 1.374 . S
C1266 C1263 1.499 . S
C1266 C1267 1.373 . S
C1266 C1268 1.389 . S
C1267 H1246 0.950 . S
C1267 C1266 1.373 . S
C1267 C1283 1.377 . S
C1268 C1266 1.389 . S
C1268 C1269 1.524 . S
C1268 C1282 1.377 . S
C1269 C1268 1.524 . S
C1269 C1270 1.397 . S
C1269 C1274 1.363 . S
C1270 H1247 0.950 . S
C1270 C1269 1.397 . S
C1270 C1271 1.334 . S
C1271 H1248 0.950 . S
C1271 C1270 1.334 . S
C1271 C1272 1.287 . S
C1272 C1271 1.287 . S
C1272 C1273 1.524 . S
C1272 H1291 0.913 . S
C1273 H1249 0.950 . S
C1273 C1272 1.524 . S
C1273 C1274 1.415 . S
C1274 H1250 0.950 . S
C1274 C1269 1.363 . S
C1274 C1273 1.415 . S
C1275 H1251 0.951 . S
C1275 C1276 1.366 . S
C1275 C1277 1.388 . S
C1276 C1275 1.366 . S
C1276 C1280 1.385 . S
C1277 H1252 0.951 . S
C1277 C1275 1.388 . S
C1277 C1278 1.366 . S
C1278 C1277 1.366 . S
C1278 C1279 1.414 . S
C1278 C1281 1.499 . S
C1279 H1253 0.950 . S
C1279 C1278 1.414 . S
C1279 C1280 1.374 . S
C1280 H1254 0.950 . S
C1280 C1276 1.385 . S
C1280 C1279 1.374 . S
C1281 C1278 1.499 . S
C1281 C1282 1.373 . S
C1281 C1283 1.389 . S
C1282 H1255 0.950 . S
C1282 C1268 1.377 . S
C1282 C1281 1.373 . S
C1283 C1267 1.377 . S
C1283 C1281 1.389 . S
C1283 C1284 1.524 . S
C1284 C1283 1.524 . S
C1284 C1285 1.397 . S
C1284 C1289 1.363 . S
C1285 H1256 0.950 . S
C1285 C1284 1.397 . S
C1285 C1286 1.334 . S
C1286 H1257 0.950 . S
C1286 C1285 1.334 . S
C1286 C1287 1.287 . S
C1287 C1286 1.287 . S
C1287 C1288 1.524 . S
C1287 H1290 0.999 . S
C1288 H1258 0.950 . S
C1288 C1287 1.524 . S
C1288 C1289 1.415 . S
C1289 H1259 0.950 . S
C1289 C1284 1.363 . S
C1289 C1288 1.415 . S
H1290 C1287 0.999 . S
H1291 C1272 0.913 . S
H1292 C1310 0.951 . S
H1293 C1312 0.951 . S
H1294 C1314 0.950 . S
H1295 C1315 0.950 . S
H1296 C1317 0.950 . S
H1297 C1320 0.950 . S
H1298 C1321 0.950 . S
H1299 C1323 0.950 . S
H1300 C1324 0.950 . S
H1301 C1325 0.951 . S
H1302 C1327 0.951 . S
H1303 C1329 0.950 . S
H1304 C1330 0.950 . S
H1305 C1332 0.950 . S
H1306 C1335 0.950 . S
H1307 C1336 0.950 . S
H1308 C1338 0.950 . S
H1309 C1339 0.950 . S
C1310 H1292 0.951 . S
C1310 C1311 1.366 . S
C1310 C1312 1.388 . S
C1311 C1310 1.366 . S
C1311 C1315 1.385 . S
C1312 H1293 0.951 . S
C1312 C1310 1.388 . S
C1312 C1313 1.366 . S
C1313 C1312 1.366 . S
C1313 C1314 1.414 . S
C1313 C1316 1.499 . S
C1314 H1294 0.950 . S
C1314 C1313 1.414 . S
C1314 C1315 1.374 . S
C1315 H1295 0.950 . S
C1315 C1311 1.385 . S
C1315 C1314 1.374 . S
C1316 C1313 1.499 . S
C1316 C1317 1.373 . S
C1316 C1318 1.389 . S
C1317 H1296 0.950 . S
C1317 C1316 1.373 . S
C1317 C1333 1.377 . S
C1318 C1316 1.389 . S
C1318 C1319 1.524 . S
C1318 C1332 1.377 . S
C1319 C1318 1.524 . S
C1319 C1320 1.397 . S
C1319 C1324 1.363 . S
C1320 H1297 0.950 . S
C1320 C1319 1.397 . S
C1320 C1321 1.334 . S
C1321 H1298 0.950 . S
C1321 C1320 1.334 . S
C1321 C1322 1.287 . S
C1322 C1321 1.287 . S
C1322 C1323 1.524 . S
C1322 H1341 0.913 . S
C1323 H1299 0.950 . S
C1323 C1322 1.524 . S
C1323 C1324 1.415 . S
C1324 H1300 0.950 . S
C1324 C1319 1.363 . S
C1324 C1323 1.415 . S
C1325 H1301 0.951 . S
C1325 C1326 1.366 . S
C1325 C1327 1.388 . S
C1326 C1325 1.366 . S
C1326 C1330 1.385 . S
C1327 H1302 0.951 . S
C1327 C1325 1.388 . S
C1327 C1328 1.366 . S
C1328 C1327 1.366 . S
C1328 C1329 1.414 . S
C1328 C1331 1.499 . S
C1329 H1303 0.950 . S
C1329 C1328 1.414 . S
C1329 C1330 1.374 . S
C1330 H1304 0.950 . S
C1330 C1326 1.385 . S
C1330 C1329 1.374 . S
C1331 C1328 1.499 . S
C1331 C1332 1.373 . S
C1331 C1333 1.389 . S
C1332 H1305 0.950 . S
C1332 C1318 1.377 . S
C1332 C1331 1.373 . S
C1333 C1317 1.377 . S
C1333 C1331 1.389 . S
C1333 C1334 1.524 . S
C1334 C1333 1.524 . S
C1334 C1335 1.397 . S
C1334 C1339 1.363 . S
C1335 H1306 0.950 . S
C1335 C1334 1.397 . S
C1335 C1336 1.334 . S
C1336 H1307 0.950 . S
C1336 C1335 1.334 . S
C1336 C1337 1.287 . S
C1337 C1336 1.287 . S
C1337 C1338 1.524 . S
C1337 H1340 0.999 . S
C1338 H1308 0.950 . S
C1338 C1337 1.524 . S
C1338 C1339 1.415 . S
C1339 H1309 0.950 . S
C1339 C1334 1.363 . S
C1339 C1338 1.415 . S
H1340 C1337 0.999 . S
H1341 C1322 0.913 . S
H1342 C1360 0.951 . S
H1343 C1362 0.951 . S
H1344 C1364 0.950 . S
H1345 C1365 0.950 . S
H1346 C1367 0.950 . S
H1347 C1370 0.950 . S
H1348 C1371 0.950 . S
H1349 C1373 0.950 . S
H1350 C1374 0.950 . S
H1351 C1375 0.951 . S
H1352 C1377 0.951 . S
H1353 C1379 0.950 . S
H1354 C1380 0.950 . S
H1355 C1382 0.950 . S
H1356 C1385 0.950 . S
H1357 C1386 0.950 . S
H1358 C1388 0.950 . S
H1359 C1389 0.950 . S
C1360 H1342 0.951 . S
C1360 C1361 1.366 . S
C1360 C1362 1.388 . S
C1361 C1360 1.366 . S
C1361 C1365 1.385 . S
C1362 H1343 0.951 . S
C1362 C1360 1.388 . S
C1362 C1363 1.366 . S
C1363 C1362 1.366 . S
C1363 C1364 1.414 . S
C1363 C1366 1.499 . S
C1364 H1344 0.950 . S
C1364 C1363 1.414 . S
C1364 C1365 1.374 . S
C1365 H1345 0.950 . S
C1365 C1361 1.385 . S
C1365 C1364 1.374 . S
C1366 C1363 1.499 . S
C1366 C1367 1.373 . S
C1366 C1368 1.389 . S
C1367 H1346 0.950 . S
C1367 C1366 1.373 . S
C1367 C1383 1.377 . S
C1368 C1366 1.389 . S
C1368 C1369 1.524 . S
C1368 C1382 1.377 . S
C1369 C1368 1.524 . S
C1369 C1370 1.397 . S
C1369 C1374 1.363 . S
C1370 H1347 0.950 . S
C1370 C1369 1.397 . S
C1370 C1371 1.334 . S
C1371 H1348 0.950 . S
C1371 C1370 1.334 . S
C1371 C1372 1.287 . S
C1372 C1371 1.287 . S
C1372 C1373 1.524 . S
C1372 H1391 0.913 . S
C1373 H1349 0.950 . S
C1373 C1372 1.524 . S
C1373 C1374 1.415 . S
C1374 H1350 0.950 . S
C1374 C1369 1.363 . S
C1374 C1373 1.415 . S
C1375 H1351 0.951 . S
C1375 C1376 1.366 . S
C1375 C1377 1.388 . S
C1376 C1375 1.366 . S
C1376 C1380 1.385 . S
C1377 H1352 0.951 . S
C1377 C1375 1.388 . S
C1377 C1378 1.366 . S
C1378 C1377 1.366 . S
C1378 C1379 1.414 . S
C1378 C1381 1.499 . S
C1379 H1353 0.950 . S
C1379 C1378 1.414 . S
C1379 C1380 1.374 . S
C1380 H1354 0.950 . S
C1380 C1376 1.385 . S
C1380 C1379 1.374 . S
C1381 C1378 1.499 . S
C1381 C1382 1.373 . S
C1381 C1383 1.389 . S
C1382 H1355 0.950 . S
C1382 C1368 1.377 . S
C1382 C1381 1.373 . S
C1383 C1367 1.377 . S
C1383 C1381 1.389 . S
C1383 C1384 1.524 . S
C1384 C1383 1.524 . S
C1384 C1385 1.397 . S
C1384 C1389 1.363 . S
C1385 H1356 0.950 . S
C1385 C1384 1.397 . S
C1385 C1386 1.334 . S
C1386 H1357 0.950 . S
C1386 C1385 1.334 . S
C1386 C1387 1.287 . S
C1387 C1386 1.287 . S
C1387 C1388 1.524 . S
C1387 H1390 0.999 . S
C1388 H1358 0.950 . S
C1388 C1387 1.524 . S
C1388 C1389 1.415 . S
C1389 H1359 0.950 . S
C1389 C1384 1.363 . S
C1389 C1388 1.415 . S
H1390 C1387 0.999 . S
H1391 C1372 0.913 . S
C211 N2 1.555 1_556 S
C226 C147 1.543 . S
C276 C111 1.543 . S
C261 N15 1.554 . S
C326 C134 1.538 . S
C311 N28 1.527 1_556 S
C376 C122 1.538 . S
C361 N41 1.532 . S
C426 C191 1.543 . S
C411 N54 1.554 1_556 S
C476 C155 1.543 . S
C461 N67 1.554 . S
C511 N80 1.528 1_556 S
C526 C178 1.538 . S
C576 C166 1.538 . S
C561 N93 1.532 . S
C611 N5 1.502 1_556 S
C626 C188 1.508 . S
C676 C158 1.508 . S
C661 N18 1.502 . S
C711 N31 1.532 1_556 S
C726 C177 1.530 . S
C761 N44 1.532 . S
C776 C163 1.530 . S
C826 C144 1.508 . S
C811 N57 1.502 1_556 S
C861 N70 1.502 . S
C876 C114 1.508 . S
C926 C133 1.531 . S
C911 N83 1.532 1_556 S
C976 C119 1.530 . S
C961 N96 1.532 . S
C1026 C169 1.534 . S
C1011 N1 1.542 . S
C1076 C185 1.534 . S
C1061 N14 1.542 . S
C1111 N27 1.486 . S
C1126 C156 1.502 . S
C1176 C180 1.502 . S
C1161 N40 1.486 . S
C1226 C125 1.534 . S
C1211 N53 1.542 . S
C1261 N66 1.542 . S
C1276 C141 1.535 . S
C1311 N79 1.486 . S
C1326 C112 1.502 . S
C1361 N92 1.487 . S
C1376 C136 1.502 . S
