# Generated by pormake.
# Topology pts, (4,4)-cn, num edge types: 1
# Building blocks:
#     Node 0, Type 0, BuildingBlock: KUFVIS_clean_linker_0, # of connection points: 4
#     Node 1, Type 0, BuildingBlock: KUFVIS_clean_linker_0, # of connection points: 4
#     Node 2, Type 1, BuildingBlock: AZAVOO_clean_sbu_0, # of connection points: 4
#     Node 3, Type 1, BuildingBlock: AZAVOO_clean_sbu_0, # of connection points: 4
#     Edge 4, Type (0, 1), BuildingBlock: XUDNAN_clean_linker_2, # of connection points: 2
#     Edge 5, Type (0, 1), BuildingBlock: XUDNAN_clean_linker_2, # of connection points: 2
#     Edge 6, Type (0, 1), BuildingBlock: XUDNAN_clean_linker_2, # of connection points: 2
#     Edge 7, Type (0, 1), BuildingBlock: XUDNAN_clean_linker_2, # of connection points: 2
#     Edge 8, Type (0, 1), BuildingBlock: XUDNAN_clean_linker_2, # of connection points: 2
#     Edge 9, Type (0, 1), BuildingBlock: XUDNAN_clean_linker_2, # of connection points: 2
#     Edge 10, Type (0, 1), BuildingBlock: XUDNAN_clean_linker_2, # of connection points: 2
#     Edge 11, Type (0, 1), BuildingBlock: XUDNAN_clean_linker_2, # of connection points: 2
# Relax obj value: 0.013
# Max RMSD: 0.077
# Mean RMSD: 0.073
data_MOF--net-pts--node1-AZAVOO_clean_sbu_0--node2-KUFVIS_clean_linker_0--edge1-XUDNAN_clean_linker_2
_symmetry_space_group_name_H-M    P1
_symmetry_Int_Tables_number       1
_symmetry_cell_setting            triclinic
loop_
_symmetry_equiv_pos_as_xyz
'x, y, z'
_cell_length_a     24.714988
_cell_length_b     25.765611
_cell_length_c     35.62712
_cell_angle_alpha  89.377544
_cell_angle_beta   97.285347
_cell_angle_gamma 88.187846
loop_
_atom_site_label
_atom_site_type_symbol
_atom_site_fract_x
_atom_site_fract_y
_atom_site_fract_z
_atom_type_partial_charge
H0 H 0.3635 0.04324 0.97041 0.0
H1 H 0.50041 0.07983 0.91362 0.0
H2 H 0.51904 0.06027 0.03549 0.0
H3 H 0.59591 0.09948 0.03408 0.0
H4 H 0.73816 0.07859 -0.02165 0.0
H5 H 0.58227 0.04747 0.91805 0.0
C6 C 0.40635 0.05149 0.97125 0.0
C7 C 0.43855 0.05377 0.00636 0.0
C8 C 0.42859 0.05984 0.93756 0.0
C9 C 0.48443 0.07036 0.93961 0.0
C10 C 0.51902 0.06905 0.97456 0.0
C11 C 0.49476 0.06156 0.00802 0.0
C12 C 0.57999 0.07353 -0.02431 0.0
C13 C 0.61338 0.08871 0.00885 0.0
C14 C 0.67028 0.09078 0.00958 0.0
C15 C 0.69409 0.07866 -0.02291 0.0
C16 C 0.66248 0.06422 0.9438 0.0
C17 C 0.6058 0.06078 0.94352 0.0
H18 H 1.01958 0.70158 0.48294 0.0
H19 H 0.06473 0.55601 0.53835 0.0
H20 H 0.03127 0.56553 0.41631 0.0
H21 H 0.07533 0.49062 0.41944 0.0
H22 H 0.05844 0.34348 0.47161 0.0
H23 H 1.0207 0.48164 0.53034 0.0
C24 C 0.02944 0.66051 0.48103 0.0
C25 C 0.02887 0.63785 0.44542 0.0
C26 C 0.04431 0.63178 0.51445 0.0
C27 C 0.05219 0.57786 0.51243 0.0
C28 C 0.04523 0.55257 0.47721 0.0
C29 C 0.03467 0.58343 0.44371 0.0
C30 C 0.04943 0.4944 0.47575 0.0
C31 C 0.06487 0.46898 0.44353 0.0
C32 C 0.06559 0.41477 0.44173 0.0
C33 C 0.055 0.38548 0.47296 0.0
C34 C 0.03875 0.4091 0.50506 0.0
C35 C 0.03562 0.4636 0.50619 0.0
Mg36 Mg 0.09573 1.00821 0.24503 0.0
O37 O 1.01319 0.02986 0.20971 0.0
O38 O 0.9473 0.02279 0.2471 0.0
Mg39 Mg 0.98866 1.00354 0.30692 0.0
C40 C 0.96294 0.03252 0.21503 0.0
C41 C 0.16821 1.00356 0.17962 0.0
O42 O 0.1585 0.95401 0.18295 0.0
O43 O 0.09524 0.089 0.26999 0.0
O44 O 0.02875 0.08321 0.30684 0.0
O45 O 0.08417 0.9226 0.23576 0.0
O46 O 0.05761 0.96658 0.28337 0.0
C47 C 0.0652 0.10895 0.29301 0.0
C48 C 0.06113 0.92311 0.26641 0.0
O49 O 0.14484 0.03619 0.19926 0.0
Mg50 Mg 1.00049 1.00213 0.71005 0.0
O51 O 0.08855 1.00982 0.74065 0.0
O52 O 0.14062 0.99995 0.69383 0.0
Mg53 Mg 0.09007 0.98528 0.63694 0.0
C54 C 0.13534 1.00779 0.72858 0.0
C55 C 0.90923 1.00752 0.75115 0.0
O56 O 0.90083 0.9799 0.72028 0.0
O57 O 1.00441 0.0839 0.68567 0.0
O58 O 0.05235 0.06837 0.63744 0.0
O59 O 1.00349 0.91635 0.71988 0.0
O60 O 0.02977 0.95442 0.66994 0.0
C61 C 0.02476 0.09891 0.65639 0.0
C62 C 0.02429 0.91215 0.68853 0.0
O63 O 0.95486 0.02938 0.75838 0.0
H64 H 0.37541 0.97575 0.02639 0.0
H65 H 0.4383 0.12469 0.06242 0.0
H66 H 0.37706 0.12744 0.11237 0.0
H67 H 0.24026 1.00301 0.03558 0.0
H68 H 0.22552 0.93991 0.05333 0.0
H69 H 0.27879 0.94627 0.0237 0.0
H70 H 0.34886 0.90147 0.07516 0.0
H71 H 0.29552 0.89383 0.10469 0.0
H72 H 0.35681 0.92635 0.12258 0.0
H73 H 0.30004 0.11916 0.15198 0.0
H74 H 0.22242 0.09476 0.18512 0.0
H75 H 0.21224 0.94953 0.12441 0.0
C76 C 0.37732 1.00813 0.0456 0.0
C77 C 0.4116 0.04989 0.04096 0.0
C78 C 0.41281 0.09205 0.06609 0.0
C79 C 0.3779 0.09408 0.09424 0.0
C80 C 0.34283 0.05323 0.09706 0.0
C81 C 0.34325 1.01046 0.07401 0.0
C82 C 0.30033 0.97258 0.08188 0.0
C83 C 0.25878 0.96504 0.04652 0.0
C84 C 0.32698 0.92048 0.09699 0.0
C85 C 0.2746 1.00137 0.11226 0.0
C86 C 0.29951 0.04789 0.12052 0.0
C87 C 0.28085 0.08241 0.14623 0.0
C88 C 0.23643 0.06842 0.16464 0.0
C89 C 0.21147 0.02013 0.15746 0.0
C90 C 0.23076 0.98648 0.13072 0.0
H91 H 0.98419 0.31834 0.4991 0.0
H92 H 0.06296 0.42279 0.58211 0.0
H93 H 0.05388 0.35822 0.63276 0.0
H94 H 0.89514 0.25153 0.55952 0.0
H95 H 0.90806 0.18979 0.53847 0.0
H96 H 0.90808 0.24887 0.51089 0.0
H97 H 1.00531 0.22455 0.49553 0.0
H98 H 1.0059 0.16577 0.52316 0.0
H99 H 0.05926 0.21145 0.53379 0.0
H100 H 0.04653 0.27671 0.6731 0.0
H101 H 0.04779 0.18605 0.69775 0.0
H102 H 0.98576 0.13362 0.58594 0.0
C103 C 0.99892 0.3282 0.52798 0.0
C104 C 0.02468 0.3756 0.53654 0.0
C105 C 0.04251 0.38704 0.57484 0.0
C106 C 0.03766 0.35046 0.60378 0.0
C107 C 1.01495 0.30276 0.59388 0.0
C108 C 0.99593 0.29176 0.55675 0.0
C109 C 0.98085 0.23557 0.55216 0.0
C110 C 0.91937 0.23121 0.53953 0.0
C111 C 1.01488 0.20773 0.52456 0.0
C112 C 0.99617 0.21589 0.59229 0.0
C113 C 1.01409 0.25539 0.61631 0.0
C114 C 0.03207 0.24571 0.65458 0.0
C115 C 0.03262 0.19429 0.66835 0.0
C116 C 1.01685 0.15339 0.64359 0.0
C117 C 0.99781 0.1645 0.60534 0.0
H118 H 0.68162 0.03869 0.07763 0.0
H119 H 0.74519 0.16583 0.01777 0.0
H120 H 0.8247 0.16865 0.06706 0.0
H121 H 0.73481 0.08333 0.1769 0.0
H122 H 0.7498 0.01725 0.193 0.0
H123 H 0.69318 0.03178 0.15692 0.0
H124 H 0.73339 0.9652 0.11319 0.0
H125 H 0.79084 0.95145 0.14856 0.0
H126 H 0.8018 0.97256 0.1018 0.0
H127 H 0.90494 0.1458 0.11419 0.0
H128 H 0.97487 0.10901 0.16393 0.0
H129 H 0.85847 0.99987 0.19642 0.0
C130 C 0.71093 0.06877 0.07607 0.0
C131 C 0.7072 0.10247 0.04426 0.0
C132 C 0.74723 0.14016 0.04224 0.0
C133 C 0.79261 0.14183 0.06996 0.0
C134 C 0.79692 0.10605 0.09983 0.0
C135 C 0.7565 0.07116 0.10377 0.0
C136 C 0.77335 0.03445 0.13711 0.0
C137 C 0.73554 0.04219 0.16781 0.0
C138 C 0.77493 0.97757 0.12438 0.0
C139 C 0.83024 0.05285 0.15021 0.0
C140 C 0.84302 0.09406 0.12818 0.0
C141 C 0.89497 0.11448 0.13233 0.0
C142 C 0.93458 0.09298 0.16029 0.0
C143 C 0.92182 0.05197 0.18403 0.0
C144 C 0.86892 0.03179 0.17895 0.0
H145 H 0.09424 0.72368 0.52773 0.0
H146 H 1.01163 0.60406 0.5829 0.0
H147 H 1.01252 0.65901 0.63957 0.0
H148 H 0.17415 0.77816 0.61383 0.0
H149 H 0.1625 0.84347 0.59524 0.0
H150 H 0.16744 0.79003 0.56346 0.0
H151 H 0.07302 0.8175 0.52732 0.0
H152 H 0.06761 0.87065 0.55896 0.0
H153 H 1.01485 0.82362 0.55299 0.0
H154 H 1.00973 0.73232 0.68565 0.0
H155 H 0.9998 0.81733 0.71571 0.0
H156 H 0.07771 0.89053 0.62732 0.0
C157 C 0.07724 0.7085 0.55201 0.0
C158 C 0.0526 0.6597 0.55088 0.0
C159 C 0.03122 0.64109 0.58331 0.0
C160 C 0.03152 0.6721 0.61557 0.0
C161 C 0.05362 0.72129 0.61487 0.0
C162 C 0.0763 0.73919 0.58388 0.0
C163 C 0.09033 0.79578 0.58757 0.0
C164 C 0.1523 0.80221 0.59019 0.0
C165 C 0.0596 0.82879 0.55479 0.0
C166 C 0.06975 0.80782 0.62477 0.0
C167 C 0.05013 0.76408 0.64064 0.0
C168 C 0.02577 0.76656 0.67378 0.0
C169 C 1.02028 0.81509 0.69062 0.0
C170 C 0.03809 0.86062 0.67387 0.0
C171 C 0.06418 0.8565 0.64101 0.0
H172 H 0.31928 0.08794 0.91903 0.0
H173 H 0.45803 0.01853 0.872 0.0
H174 H 0.39866 1.00208 0.81275 0.0
H175 H 0.22558 0.99434 0.88279 0.0
H176 H 0.16821 0.03965 0.87362 0.0
H177 H 0.22251 0.05196 0.91081 0.0
H178 H 0.23645 0.14166 0.88055 0.0
H179 H 0.18192 0.12979 0.84337 0.0
H180 H 0.24845 0.14548 0.83174 0.0
H181 H 0.32395 0.98851 0.76014 0.0
H182 H 0.23887 0.97847 0.71732 0.0
H183 H 0.14664 0.05068 0.79995 0.0
C184 C 0.33746 0.06933 0.89636 0.0
C185 C 0.39374 0.05477 0.90042 0.0
C186 C 0.41552 0.03117 0.86957 0.0
C187 C 0.38196 0.02121 0.83583 0.0
C188 C 0.32658 0.03473 0.83333 0.0
C189 C 0.30442 0.05829 0.86272 0.0
C190 C 0.24302 0.06613 0.85356 0.0
C191 C 0.21308 0.03623 0.88188 0.0
C192 C 0.2265 0.12422 0.85222 0.0
C193 C 0.23404 0.04264 0.81454 0.0
C194 C 0.28295 0.02532 0.80334 0.0
C195 C 0.28544 1.0021 0.76853 0.0
C196 C 0.23674 0.9966 0.7444 0.0
C197 C 0.1859 1.01377 0.75521 0.0
C198 C 0.18472 0.03693 0.79091 0.0
H199 H 0.98939 0.3576 0.40351 0.0
H200 H 0.15555 0.40548 0.40362 0.0
H201 H 0.16981 0.33868 0.35569 0.0
H202 H 1.01987 0.23083 0.40763 0.0
H203 H 0.95947 0.20976 0.37886 0.0
H204 H 0.95741 0.26965 0.40396 0.0
H205 H 0.92432 0.32005 0.34146 0.0
H206 H 0.92503 0.25998 0.31603 0.0
H207 H 0.96273 0.31405 0.30187 0.0
H208 H 0.16968 0.25629 0.31672 0.0
H209 H 0.15589 0.16788 0.29131 0.0
H210 H 0.99114 0.17286 0.3213 0.0
C211 C 0.02793 0.35551 0.392 0.0
C212 C 0.07115 0.38683 0.40646 0.0
C213 C 0.12173 0.38237 0.39204 0.0
C214 C 0.13009 0.34444 0.36502 0.0
C215 C 0.0873 0.31186 0.35291 0.0
C216 C 0.03696 0.31762 0.36577 0.0
C217 C 1.00027 0.27346 0.3536 0.0
C218 C 0.98333 0.24423 0.38805 0.0
C219 C 0.95013 0.29306 0.32662 0.0
C220 C 0.03839 0.24057 0.33314 0.0
C221 C 0.08797 0.26366 0.33215 0.0
C222 C 0.13067 0.23838 0.3168 0.0
C223 C 0.12254 0.18815 0.30253 0.0
C224 C 0.07252 0.16349 0.30452 0.0
C225 C 0.02986 0.19064 0.31943 0.0
H226 H 0.74977 0.1116 0.91865 0.0
H227 H 0.63822 0.98605 0.89289 0.0
H228 H 0.68736 0.96116 0.83948 0.0
H229 H 0.77117 0.14414 0.82251 0.0
H230 H 0.84275 0.15547 0.83503 0.0
H231 H 0.79581 0.16661 0.86912 0.0
H232 H 0.85411 0.10407 0.91662 0.0
H233 H 0.90112 0.09255 0.88266 0.0
H234 H 0.86903 0.03868 0.90257 0.0
H235 H 0.74993 0.9477 0.79084 0.0
H236 H 0.82278 0.94513 0.74995 0.0
H237 H 0.89859 0.07552 0.80973 0.0
C238 C 0.73555 0.0788 0.90186 0.0
C239 C 0.68974 0.051 0.91001 0.0
C240 C 0.67231 1.00875 0.8869 0.0
C241 C 0.70028 0.99401 0.85665 0.0
C242 C 0.74581 0.02162 0.85004 0.0
C243 C 0.76347 0.06304 0.87199 0.0
C244 C 0.81521 0.08452 0.86001 0.0
C245 C 0.80564 0.14104 0.84582 0.0
C246 C 0.86267 0.07964 0.8924 0.0
C247 C 0.82415 0.04836 0.82798 0.0
C248 C 0.78324 1.01275 0.82259 0.0
C249 C 0.78212 0.97538 0.79473 0.0
C250 C 0.8238 0.97434 0.77163 0.0
C251 C 0.86648 1.01015 0.77664 0.0
C252 C 0.86669 0.04755 0.80535 0.0
H253 H 0.06924 0.7352 0.44181 0.0
H254 H 0.98468 0.61958 0.37052 0.0
H255 H 0.98347 0.67918 0.31533 0.0
H256 H 0.98718 0.8434 0.39985 0.0
H257 H 0.04343 0.88662 0.40647 0.0
H258 H 0.04057 0.83297 0.43888 0.0
H259 H 0.13652 0.8001 0.42577 0.0
H260 H 0.13974 0.85343 0.39322 0.0
H261 H 0.14867 0.78768 0.37779 0.0
H262 H 0.99733 0.75332 0.26695 0.0
H263 H 1.0163 0.83488 0.2334 0.0
H264 H 0.07652 0.9023 0.34088 0.0
C265 C 0.04882 0.72218 0.41508 0.0
C266 C 0.02633 0.67242 0.41113 0.0
C267 C 1.00272 0.65714 0.37465 0.0
C268 C 1.00147 0.69095 0.34309 0.0
C269 C 0.02303 0.74017 0.34861 0.0
C270 C 0.04537 0.75569 0.38402 0.0
C271 C 0.06395 0.81082 0.38374 0.0
C272 C 0.03185 0.84548 0.4087 0.0
C273 C 0.12588 0.8131 0.39583 0.0
C274 C 0.04921 0.82427 0.34241 0.0
C275 C 0.02656 0.78306 0.32214 0.0
C276 C 1.01397 0.78604 0.28277 0.0
C277 C 0.02484 0.83229 0.26395 0.0
C278 C 0.04658 0.87498 0.28479 0.0
C279 C 0.05836 0.87074 0.32439 0.0
loop_
_geom_bond_atom_site_label_1
_geom_bond_atom_site_label_2
_geom_bond_distance
_geom_bond_site_symmetry_2
_ccdc_geom_bond_type
H0 C6 0.931 . S
H1 C9 0.931 . S
H2 C11 0.930 1_565 S
H3 C13 0.930 . S
H4 C15 0.930 . S
H5 C17 0.931 1_565 S
C6 H0 0.931 . S
C6 C7 1.375 1_556 S
C6 C8 1.401 . S
C7 C6 1.375 1_554 S
C7 C11 1.383 . S
C8 C6 1.401 . S
C8 C9 1.400 . S
C9 H1 0.931 . S
C9 C8 1.400 . S
C9 C10 1.367 1_556 S
C10 C9 1.367 1_554 S
C10 C11 1.424 . S
C10 C12 1.500 . S
C11 H2 0.930 1_545 S
C11 C7 1.383 . S
C11 C10 1.424 . S
C12 C10 1.500 . S
C12 C13 1.384 . S
C12 C17 1.408 1_554 S
C13 H3 0.930 . S
C13 C12 1.384 . S
C13 C14 1.389 . S
C14 C13 1.389 . S
C14 C15 1.405 . S
C15 H4 0.930 . S
C15 C14 1.405 . S
C15 C16 1.364 1_554 S
C16 C15 1.364 1_556 S
C16 C17 1.400 . S
C17 H5 0.931 1_545 S
C17 C12 1.408 1_556 S
C17 C16 1.400 . S
H18 C24 0.930 . S
H19 C27 0.925 1_655 S
H20 C29 0.931 . S
H21 C31 0.930 . S
H22 C33 0.930 . S
H23 C35 0.931 . S
C24 H18 0.930 . S
C24 C25 1.380 . S
C24 C26 1.394 . S
C25 C24 1.380 . S
C25 C29 1.382 . S
C26 C24 1.394 . S
C26 C27 1.400 . S
C27 H19 0.925 1_455 S
C27 C26 1.400 . S
C27 C28 1.375 . S
C28 C27 1.375 . S
C28 C29 1.415 . S
C28 C30 1.501 . S
C29 H20 0.931 . S
C29 C25 1.382 . S
C29 C28 1.415 . S
C30 C28 1.501 . S
C30 C31 1.384 . S
C30 C35 1.408 . S
C31 H21 0.930 . S
C31 C30 1.384 . S
C31 C32 1.389 . S
C32 C31 1.389 . S
C32 C33 1.405 . S
C33 H22 0.930 . S
C33 C32 1.405 . S
C33 C34 1.364 . S
C34 C33 1.364 . S
C34 C35 1.400 . S
C35 H23 0.931 . S
C35 C30 1.408 . S
C35 C34 1.400 . S
Mg36 O37 2.028 . S
Mg36 O43 1.986 . S
Mg36 O45 2.114 1_545 S
Mg36 O46 2.251 1_545 S
Mg36 O49 2.010 . S
O37 Mg36 2.028 . S
O37 C40 1.250 1_455 S
O38 Mg39 2.028 . S
O38 C40 1.248 . S
Mg39 O38 2.028 . S
Mg39 O44 2.032 . S
Mg39 O46 2.079 1_645 S
C40 O37 1.250 1_655 S
C40 O38 1.248 . S
C41 O42 1.264 . S
C41 O49 1.249 . S
O42 C41 1.264 . S
O43 Mg36 1.986 . S
O43 C47 1.246 . S
O44 Mg39 2.032 . S
O44 C47 1.259 1_655 S
O45 Mg36 2.114 1_565 S
O45 C48 1.252 . S
O46 Mg36 2.251 1_565 S
O46 Mg39 2.079 1_465 S
O46 C48 1.273 . S
C47 O43 1.246 . S
C47 O44 1.259 1_455 S
C48 O45 1.252 . S
C48 O46 1.273 . S
O49 Mg36 2.010 . S
O49 C41 1.249 . S
Mg50 O51 2.028 1_655 S
Mg50 O57 1.986 . S
Mg50 O59 2.114 1_545 S
Mg50 O60 2.251 1_645 S
Mg50 O63 2.010 . S
O51 Mg50 2.028 1_455 S
O51 C54 1.250 . S
O52 Mg53 2.028 . S
O52 C54 1.248 . S
Mg53 O52 2.028 . S
Mg53 O58 2.032 . S
Mg53 O60 2.079 1_545 S
C54 O51 1.250 . S
C54 O52 1.248 . S
C55 O56 1.264 . S
C55 O63 1.249 . S
O56 C55 1.264 . S
O57 Mg50 1.986 . S
O57 C61 1.246 1_655 S
O58 Mg53 2.032 . S
O58 C61 1.259 . S
O59 Mg50 2.114 1_565 S
O59 C62 1.252 1_655 S
O60 Mg50 2.251 1_465 S
O60 Mg53 2.079 1_565 S
O60 C62 1.273 . S
C61 O57 1.246 1_455 S
C61 O58 1.259 . S
C62 O59 1.252 1_455 S
C62 O60 1.273 . S
O63 Mg50 2.010 . S
O63 C55 1.249 . S
H64 C76 0.930 . S
H65 C78 0.930 . S
H66 C79 0.930 . S
H67 C83 0.959 . S
H68 C83 0.959 . S
H69 C83 0.961 . S
H70 C84 0.960 . S
H71 C84 0.961 . S
H72 C84 0.959 . S
H73 C87 0.929 . S
H74 C88 0.931 . S
H75 C90 0.930 . S
C76 H64 0.930 . S
C76 C77 1.399 1_565 S
C76 C81 1.399 . S
C77 C76 1.399 1_545 S
C77 C78 1.376 . S
C78 H65 0.930 . S
C78 C77 1.376 . S
C78 C79 1.388 . S
C79 H66 0.930 . S
C79 C78 1.388 . S
C79 C80 1.390 . S
C80 C79 1.390 . S
C80 C81 1.394 1_545 S
C80 C86 1.465 . S
C81 C76 1.399 . S
C81 C80 1.394 1_565 S
C81 C82 1.516 . S
C82 C81 1.516 . S
C82 C83 1.502 . S
C82 C84 1.561 . S
C82 C85 1.526 . S
C83 H67 0.959 . S
C83 H68 0.959 . S
C83 H69 0.961 . S
C83 C82 1.502 . S
C84 H70 0.960 . S
C84 H71 0.961 . S
C84 H72 0.959 . S
C84 C82 1.561 . S
C85 C82 1.526 . S
C85 C86 1.396 1_565 S
C85 C90 1.390 . S
C86 C80 1.465 . S
C86 C85 1.396 1_545 S
C86 C87 1.399 . S
C87 H73 0.929 . S
C87 C86 1.399 . S
C87 C88 1.385 . S
C88 H74 0.931 . S
C88 C87 1.385 . S
C88 C89 1.389 . S
C89 C88 1.389 . S
C89 C90 1.387 1_545 S
C90 H75 0.930 . S
C90 C85 1.390 . S
C90 C89 1.387 1_565 S
H91 C103 0.930 . S
H92 C105 0.930 . S
H93 C106 0.930 . S
H94 C110 0.959 . S
H95 C110 0.959 . S
H96 C110 0.961 . S
H97 C111 0.960 . S
H98 C111 0.961 . S
H99 C111 0.959 1_455 S
H100 C114 0.929 . S
H101 C115 0.931 . S
H102 C117 0.930 . S
C103 H91 0.930 . S
C103 C104 1.399 1_655 S
C103 C108 1.399 . S
C104 C103 1.399 1_455 S
C104 C105 1.376 . S
C105 H92 0.930 . S
C105 C104 1.376 . S
C105 C106 1.388 . S
C106 H93 0.930 . S
C106 C105 1.388 . S
C106 C107 1.390 . S
C107 C106 1.390 . S
C107 C108 1.394 1_455 S
C107 C113 1.465 . S
C108 C103 1.399 . S
C108 C107 1.394 1_655 S
C108 C109 1.516 . S
C109 C108 1.516 . S
C109 C110 1.502 . S
C109 C111 1.561 . S
C109 C112 1.526 . S
C110 H94 0.959 . S
C110 H95 0.959 . S
C110 H96 0.961 . S
C110 C109 1.502 . S
C111 H97 0.960 . S
C111 H98 0.961 . S
C111 H99 0.959 1_655 S
C111 C109 1.561 . S
C112 C109 1.526 . S
C112 C113 1.396 1_655 S
C112 C117 1.390 . S
C113 C107 1.465 . S
C113 C112 1.396 1_455 S
C113 C114 1.399 . S
C114 H100 0.929 . S
C114 C113 1.399 . S
C114 C115 1.385 . S
C115 H101 0.931 . S
C115 C114 1.385 . S
C115 C116 1.389 . S
C116 C115 1.389 . S
C116 C117 1.387 1_455 S
C117 H102 0.930 . S
C117 C112 1.390 . S
C117 C116 1.387 1_655 S
H118 C130 0.930 . S
H119 C132 0.930 . S
H120 C133 0.930 . S
H121 C137 0.959 . S
H122 C137 0.959 . S
H123 C137 0.961 . S
H124 C138 0.960 . S
H125 C138 0.961 . S
H126 C138 0.959 . S
H127 C141 0.929 . S
H128 C142 0.931 . S
H129 C144 0.930 . S
C130 H118 0.930 . S
C130 C131 1.399 1_565 S
C130 C135 1.399 . S
C131 C130 1.399 1_545 S
C131 C132 1.376 . S
C132 H119 0.930 . S
C132 C131 1.376 . S
C132 C133 1.388 . S
C133 H120 0.930 . S
C133 C132 1.388 . S
C133 C134 1.390 . S
C134 C133 1.390 . S
C134 C135 1.394 1_545 S
C134 C140 1.465 . S
C135 C130 1.399 . S
C135 C134 1.394 1_565 S
C135 C136 1.516 . S
C136 C135 1.516 . S
C136 C137 1.502 . S
C136 C138 1.561 . S
C136 C139 1.526 . S
C137 H121 0.959 . S
C137 H122 0.959 . S
C137 H123 0.961 . S
C137 C136 1.502 . S
C138 H124 0.960 . S
C138 H125 0.961 . S
C138 H126 0.959 . S
C138 C136 1.561 . S
C139 C136 1.526 . S
C139 C140 1.396 1_565 S
C139 C144 1.390 . S
C140 C134 1.465 . S
C140 C139 1.396 1_545 S
C140 C141 1.399 . S
C141 H127 0.929 . S
C141 C140 1.399 . S
C141 C142 1.385 . S
C142 H128 0.931 . S
C142 C141 1.385 . S
C142 C143 1.389 . S
C143 C142 1.389 . S
C143 C144 1.387 1_545 S
C144 H129 0.930 . S
C144 C139 1.390 . S
C144 C143 1.387 1_565 S
H145 C157 0.930 . S
H146 C159 0.930 . S
H147 C160 0.930 . S
H148 C164 0.959 . S
H149 C164 0.959 . S
H150 C164 0.961 . S
H151 C165 0.961 . S
H152 C165 0.961 . S
H153 C165 0.956 1_655 S
H154 C168 0.929 . S
H155 C169 0.931 . S
H156 C171 0.930 . S
C157 H145 0.930 . S
C157 C158 1.399 . S
C157 C162 1.399 . S
C158 C157 1.399 . S
C158 C159 1.376 1_455 S
C159 H146 0.930 . S
C159 C158 1.376 1_655 S
C159 C160 1.388 . S
C160 H147 0.930 . S
C160 C159 1.388 . S
C160 C161 1.390 . S
C161 C160 1.390 . S
C161 C162 1.394 1_655 S
C161 C167 1.465 . S
C162 C157 1.399 . S
C162 C161 1.394 1_455 S
C162 C163 1.516 . S
C163 C162 1.516 . S
C163 C164 1.502 . S
C163 C165 1.563 . S
C163 C166 1.526 . S
C164 H148 0.959 . S
C164 H149 0.959 . S
C164 H150 0.961 . S
C164 C163 1.502 . S
C165 H151 0.961 . S
C165 H152 0.961 . S
C165 H153 0.956 1_455 S
C165 C163 1.563 . S
C166 C163 1.526 . S
C166 C167 1.396 1_455 S
C166 C171 1.390 . S
C167 C161 1.465 . S
C167 C166 1.396 1_655 S
C167 C168 1.399 . S
C168 H154 0.929 . S
C168 C167 1.399 . S
C168 C169 1.385 . S
C169 H155 0.931 . S
C169 C168 1.385 . S
C169 C170 1.389 1_655 S
C170 C169 1.389 1_455 S
C170 C171 1.387 . S
C171 H156 0.930 . S
C171 C166 1.390 . S
C171 C170 1.387 . S
H172 C184 0.930 . S
H173 C186 0.930 . S
H174 C187 0.930 . S
H175 C191 0.959 . S
H176 C191 0.959 . S
H177 C191 0.961 . S
H178 C192 0.960 . S
H179 C192 0.961 . S
H180 C192 0.959 . S
H181 C195 0.929 . S
H182 C196 0.931 . S
H183 C198 0.930 . S
C184 H172 0.930 . S
C184 C185 1.399 . S
C184 C189 1.399 . S
C185 C184 1.399 . S
C185 C186 1.376 1_545 S
C186 H173 0.930 . S
C186 C185 1.376 1_565 S
C186 C187 1.388 . S
C187 H174 0.930 . S
C187 C186 1.388 . S
C187 C188 1.390 . S
C188 C187 1.390 . S
C188 C189 1.394 1_565 S
C188 C194 1.465 . S
C189 C184 1.399 . S
C189 C188 1.394 1_545 S
C189 C190 1.516 . S
C190 C189 1.516 . S
C190 C191 1.502 . S
C190 C192 1.561 . S
C190 C193 1.526 . S
C191 H175 0.959 . S
C191 H176 0.959 . S
C191 H177 0.961 . S
C191 C190 1.502 . S
C192 H178 0.960 . S
C192 H179 0.961 . S
C192 H180 0.959 . S
C192 C190 1.561 . S
C193 C190 1.526 . S
C193 C194 1.396 1_545 S
C193 C198 1.390 . S
C194 C188 1.465 . S
C194 C193 1.396 1_565 S
C194 C195 1.399 . S
C195 H181 0.929 . S
C195 C194 1.399 . S
C195 C196 1.385 . S
C196 H182 0.931 . S
C196 C195 1.385 . S
C196 C197 1.389 1_565 S
C197 C196 1.389 1_545 S
C197 C198 1.387 . S
C198 H183 0.930 . S
C198 C193 1.390 . S
C198 C197 1.387 . S
H199 C211 0.930 1_655 S
H200 C213 0.930 . S
H201 C214 0.930 . S
H202 C218 0.959 . S
H203 C218 0.959 . S
H204 C218 0.961 . S
H205 C219 0.960 . S
H206 C219 0.961 . S
H207 C219 0.959 . S
H208 C222 0.929 . S
H209 C223 0.931 . S
H210 C225 0.930 . S
C211 H199 0.930 1_455 S
C211 C212 1.399 . S
C211 C216 1.399 . S
C212 C211 1.399 . S
C212 C213 1.376 . S
C213 H200 0.930 . S
C213 C212 1.376 . S
C213 C214 1.388 . S
C214 H201 0.930 . S
C214 C213 1.388 . S
C214 C215 1.390 . S
C215 C214 1.390 . S
C215 C216 1.394 . S
C215 C221 1.465 . S
C216 C211 1.399 . S
C216 C215 1.394 . S
C216 C217 1.516 . S
C217 C216 1.516 . S
C217 C218 1.502 1_455 S
C217 C219 1.561 . S
C217 C220 1.526 . S
C218 H202 0.959 . S
C218 H203 0.959 . S
C218 H204 0.961 . S
C218 C217 1.502 1_655 S
C219 H205 0.960 . S
C219 H206 0.961 . S
C219 H207 0.959 . S
C219 C217 1.561 . S
C220 C217 1.526 . S
C220 C221 1.396 . S
C220 C225 1.390 . S
C221 C215 1.465 . S
C221 C220 1.396 . S
C221 C222 1.399 . S
C222 H208 0.929 . S
C222 C221 1.399 . S
C222 C223 1.385 . S
C223 H209 0.931 . S
C223 C222 1.385 . S
C223 C224 1.389 . S
C224 C223 1.389 . S
C224 C225 1.387 . S
C225 H210 0.930 . S
C225 C220 1.390 . S
C225 C224 1.387 . S
H226 C238 0.930 . S
H227 C240 0.930 . S
H228 C241 0.930 . S
H229 C245 0.959 . S
H230 C245 0.959 . S
H231 C245 0.961 . S
H232 C246 0.960 . S
H233 C246 0.961 . S
H234 C246 0.959 . S
H235 C249 0.929 . S
H236 C250 0.931 . S
H237 C252 0.930 . S
C238 H226 0.930 . S
C238 C239 1.399 1_545 S
C238 C243 1.399 . S
C239 C238 1.399 1_565 S
C239 C240 1.376 . S
C240 H227 0.930 . S
C240 C239 1.376 . S
C240 C241 1.388 . S
C241 H228 0.930 . S
C241 C240 1.388 . S
C241 C242 1.390 . S
C242 C241 1.390 . S
C242 C243 1.394 1_565 S
C242 C248 1.465 . S
C243 C238 1.399 . S
C243 C242 1.394 1_545 S
C243 C244 1.516 . S
C244 C243 1.516 . S
C244 C245 1.502 . S
C244 C246 1.561 . S
C244 C247 1.526 . S
C245 H229 0.959 . S
C245 H230 0.959 . S
C245 H231 0.961 . S
C245 C244 1.502 . S
C246 H232 0.960 . S
C246 H233 0.961 . S
C246 H234 0.959 . S
C246 C244 1.561 . S
C247 C244 1.526 . S
C247 C248 1.396 1_545 S
C247 C252 1.390 . S
C248 C242 1.465 . S
C248 C247 1.396 1_565 S
C248 C249 1.399 . S
C249 H235 0.929 . S
C249 C248 1.399 . S
C249 C250 1.385 . S
C250 H236 0.931 . S
C250 C249 1.385 . S
C250 C251 1.389 1_565 S
C251 C250 1.389 1_545 S
C251 C252 1.387 . S
C252 H237 0.930 . S
C252 C247 1.390 . S
C252 C251 1.387 . S
H253 C265 0.930 . S
H254 C267 0.930 . S
H255 C268 0.930 . S
H256 C272 0.959 . S
H257 C272 0.959 . S
H258 C272 0.961 . S
H259 C273 0.960 . S
H260 C273 0.961 . S
H261 C273 0.959 . S
H262 C276 0.929 . S
H263 C277 0.931 . S
H264 C279 0.930 . S
C265 H253 0.930 . S
C265 C266 1.399 . S
C265 C270 1.399 . S
C266 C265 1.399 . S
C266 C267 1.376 . S
C267 H254 0.930 . S
C267 C266 1.376 . S
C267 C268 1.388 . S
C268 H255 0.930 . S
C268 C267 1.388 . S
C268 C269 1.390 . S
C269 C268 1.390 . S
C269 C270 1.394 . S
C269 C275 1.465 . S
C270 C265 1.399 . S
C270 C269 1.394 . S
C270 C271 1.516 . S
C271 C270 1.516 . S
C271 C272 1.502 1_455 S
C271 C273 1.561 . S
C271 C274 1.526 . S
C272 H256 0.959 . S
C272 H257 0.959 . S
C272 H258 0.961 . S
C272 C271 1.502 1_655 S
C273 H259 0.960 . S
C273 H260 0.961 . S
C273 H261 0.959 . S
C273 C271 1.561 . S
C274 C271 1.526 . S
C274 C275 1.396 . S
C274 C279 1.390 . S
C275 C269 1.465 . S
C275 C274 1.396 . S
C275 C276 1.399 . S
C276 H262 0.929 . S
C276 C275 1.399 . S
C276 C277 1.385 . S
C277 H263 0.931 . S
C277 C276 1.385 . S
C277 C278 1.389 . S
C278 C277 1.389 . S
C278 C279 1.387 . S
C279 H264 0.930 . S
C279 C274 1.390 . S
C279 C278 1.387 . S
C89 C41 1.240 . S
C77 C7 1.523 . S
C116 C61 1.496 . S
C104 C34 1.503 . S
C143 C40 1.501 . S
C131 C14 1.473 . S
C170 C62 1.532 . S
C158 C26 1.519 . S
C197 C54 1.460 . S
C185 C8 1.513 . S
C224 C47 1.520 . S
C212 C32 1.472 . S
C251 C55 1.273 . S
C239 C16 1.502 1_565 S
C266 C25 1.529 . S
C278 C48 1.539 . S
