# Generated by pormake.
# Topology pyr, (3,6)-cn, num edge types: 1
# Building blocks:
#     Node 0, Type 0, BuildingBlock: VETTIZ_charged_linker_0, # of connection points: 3
#     Node 1, Type 0, BuildingBlock: VETTIZ_charged_linker_0, # of connection points: 3
#     Node 2, Type 0, BuildingBlock: VETTIZ_charged_linker_0, # of connection points: 3
#     Node 3, Type 0, BuildingBlock: VETTIZ_charged_linker_0, # of connection points: 3
#     Node 4, Type 0, BuildingBlock: VETTIZ_charged_linker_0, # of connection points: 3
#     Node 5, Type 0, BuildingBlock: VETTIZ_charged_linker_0, # of connection points: 3
#     Node 6, Type 0, BuildingBlock: VETTIZ_charged_linker_0, # of connection points: 3
#     Node 7, Type 0, BuildingBlock: VETTIZ_charged_linker_0, # of connection points: 3
#     Node 8, Type 1, BuildingBlock: CIFDUS_clean_sbu_1, # of connection points: 6
#     Node 9, Type 1, BuildingBlock: CIFDUS_clean_sbu_1, # of connection points: 6
#     Node 10, Type 1, BuildingBlock: CIFDUS_clean_sbu_1, # of connection points: 6
#     Node 11, Type 1, BuildingBlock: CIFDUS_clean_sbu_1, # of connection points: 6
#     Edge 12, Type (0, 1), BuildingBlock: MIFKUJ_clean_linker_0, # of connection points: 2
#     Edge 13, Type (0, 1), BuildingBlock: MIFKUJ_clean_linker_0, # of connection points: 2
#     Edge 14, Type (0, 1), BuildingBlock: MIFKUJ_clean_linker_0, # of connection points: 2
#     Edge 15, Type (0, 1), BuildingBlock: MIFKUJ_clean_linker_0, # of connection points: 2
#     Edge 16, Type (0, 1), BuildingBlock: MIFKUJ_clean_linker_0, # of connection points: 2
#     Edge 17, Type (0, 1), BuildingBlock: MIFKUJ_clean_linker_0, # of connection points: 2
#     Edge 18, Type (0, 1), BuildingBlock: MIFKUJ_clean_linker_0, # of connection points: 2
#     Edge 19, Type (0, 1), BuildingBlock: MIFKUJ_clean_linker_0, # of connection points: 2
#     Edge 20, Type (0, 1), BuildingBlock: MIFKUJ_clean_linker_0, # of connection points: 2
#     Edge 21, Type (0, 1), BuildingBlock: MIFKUJ_clean_linker_0, # of connection points: 2
#     Edge 22, Type (0, 1), BuildingBlock: MIFKUJ_clean_linker_0, # of connection points: 2
#     Edge 23, Type (0, 1), BuildingBlock: MIFKUJ_clean_linker_0, # of connection points: 2
#     Edge 24, Type (0, 1), BuildingBlock: MIFKUJ_clean_linker_0, # of connection points: 2
#     Edge 25, Type (0, 1), BuildingBlock: MIFKUJ_clean_linker_0, # of connection points: 2
#     Edge 26, Type (0, 1), BuildingBlock: MIFKUJ_clean_linker_0, # of connection points: 2
#     Edge 27, Type (0, 1), BuildingBlock: MIFKUJ_clean_linker_0, # of connection points: 2
#     Edge 28, Type (0, 1), BuildingBlock: MIFKUJ_clean_linker_0, # of connection points: 2
#     Edge 29, Type (0, 1), BuildingBlock: MIFKUJ_clean_linker_0, # of connection points: 2
#     Edge 30, Type (0, 1), BuildingBlock: MIFKUJ_clean_linker_0, # of connection points: 2
#     Edge 31, Type (0, 1), BuildingBlock: MIFKUJ_clean_linker_0, # of connection points: 2
#     Edge 32, Type (0, 1), BuildingBlock: MIFKUJ_clean_linker_0, # of connection points: 2
#     Edge 33, Type (0, 1), BuildingBlock: MIFKUJ_clean_linker_0, # of connection points: 2
#     Edge 34, Type (0, 1), BuildingBlock: MIFKUJ_clean_linker_0, # of connection points: 2
#     Edge 35, Type (0, 1), BuildingBlock: MIFKUJ_clean_linker_0, # of connection points: 2
# Relax obj value: 0.036
# Max RMSD: 0.112
# Mean RMSD: 0.047
data_MOF--net-pry--node1-CIFDUS_clean_sbu_1--node2-VETTIZ_charged_linker_0--edge1-MIFKUJ_clean_linker_0
_symmetry_space_group_name_H-M    P1
_symmetry_Int_Tables_number       1
_symmetry_cell_setting            triclinic
loop_
_symmetry_equiv_pos_as_xyz
'x, y, z'
_cell_length_a     56.454377
_cell_length_b     54.670577
_cell_length_c     54.491829
_cell_angle_alpha  92.105389
_cell_angle_beta   91.094802
_cell_angle_gamma 93.429914
loop_
_atom_site_label
_atom_site_type_symbol
_atom_site_fract_x
_atom_site_fract_y
_atom_site_fract_z
_atom_type_partial_charge
C0 C 0.12334 0.09963 0.20623 0.0
C1 C 0.10319 0.10713 0.21873 0.0
C2 C 0.09027 0.12585 0.2087 0.0
C3 C 0.11799 0.13005 0.17525 0.0
C4 C 0.13023 0.11114 0.18453 0.0
C5 C 0.15101 0.10523 0.16885 0.0
H6 H 0.22526 0.13494 0.07651 0.0
C7 C 0.13045 0.13894 0.15314 0.0
C8 C 0.14985 0.12438 0.14932 0.0
H9 H 0.22788 0.0741 0.12464 0.0
H10 H 0.19184 0.08568 0.14386 0.0
H11 H 0.20909 0.175 0.1155 0.0
H12 H 0.16673 0.12615 0.06594 0.0
H13 H 0.15534 0.15537 0.06532 0.0
H14 H 0.18521 0.15134 0.05539 0.0
H15 H 0.20805 0.1791 0.08297 0.0
H16 H 0.18639 0.19159 0.103 0.0
C17 C 0.17388 0.10897 0.18502 0.0
C18 C 0.14623 0.07888 0.15766 0.0
C19 C 0.10321 0.21455 0.11048 0.0
C20 C 0.11251 0.2284 0.09113 0.0
C21 C 0.13242 0.22001 0.07881 0.0
C22 C 0.14321 0.19878 0.08588 0.0
C23 C 0.13425 0.18564 0.10574 0.0
C24 C 0.11439 0.19342 0.11751 0.0
C25 C 0.10764 0.17735 0.13853 0.0
C26 C 0.1267 0.1588 0.1375 0.0
C27 C 0.14231 0.16375 0.11822 0.0
C28 C 0.10953 0.19344 0.16255 0.0
C29 C 0.08264 0.16502 0.13285 0.0
C30 C 0.21799 0.12421 0.09122 0.0
C31 C 0.22954 0.1037 0.09928 0.0
C32 C 0.21933 0.08994 0.11815 0.0
C33 C 0.19839 0.09673 0.12932 0.0
C34 C 0.1872 0.11744 0.12143 0.0
C35 C 0.19669 0.13049 0.10227 0.0
C36 C 0.1816 0.15125 0.09563 0.0
C37 C 0.16201 0.14897 0.11442 0.0
C38 C 0.16552 0.1292 0.12963 0.0
C39 C 0.19696 0.1756 0.09924 0.0
C40 C 0.17175 0.14603 0.06913 0.0
H41 H 0.08705 0.15162 0.18079 0.0
H42 H 0.13347 0.08503 0.21311 0.0
H43 H 0.12694 0.07476 0.15384 0.0
H44 H 0.15461 0.07619 0.13968 0.0
H45 H 0.15227 0.06501 0.1704 0.0
H46 H 0.17312 0.1255 0.19746 0.0
H47 H 0.17616 0.09297 0.19664 0.0
H48 H 0.19007 0.11226 0.17433 0.0
H49 H 0.08803 0.22045 0.12047 0.0
H50 H 0.13974 0.22995 0.06359 0.0
H51 H 0.15835 0.19361 0.07575 0.0
H52 H 0.12508 0.20693 0.1622 0.0
H53 H 0.09341 0.20387 0.16505 0.0
H54 H 0.11249 0.18284 0.17905 0.0
H55 H 0.08031 0.16024 0.11289 0.0
H56 H 0.07957 0.14746 0.14202 0.0
H57 H 0.06856 0.17743 0.13809 0.0
H58 H 0.07478 0.13213 0.21788 0.0
C59 C 0.09753 0.13731 0.18717 0.0
C60 C 0.30192 0.89929 0.58071 0.0
C61 C 0.28919 0.91832 0.59106 0.0
C62 C 0.29875 0.93174 0.61186 0.0
C63 C 0.33259 0.90648 0.61264 0.0
C64 C 0.32342 0.89353 0.59193 0.0
C65 C 0.33842 0.87271 0.58455 0.0
H66 H 0.42983 0.80273 0.61181 0.0
C67 C 0.35443 0.89512 0.6207 0.0
C68 C 0.35788 0.87521 0.60434 0.0
H69 H 0.38062 0.79316 0.55012 0.0
H70 H 0.36196 0.83024 0.56276 0.0
H71 H 0.44006 0.8599 0.60515 0.0
H72 H 0.39396 0.818 0.65162 0.0
H73 H 0.40604 0.84296 0.66987 0.0
H74 H 0.42553 0.8215 0.65643 0.0
H75 H 0.45072 0.8469 0.63269 0.0
H76 H 0.43961 0.87723 0.63282 0.0
C77 C 0.34832 0.87761 0.55878 0.0
C78 C 0.32299 0.84841 0.58598 0.0
C79 C 0.39988 0.92715 0.69845 0.0
C80 C 0.42017 0.91934 0.71068 0.0
C81 C 0.43224 0.89991 0.70001 0.0
C82 C 0.42385 0.88786 0.67823 0.0
C83 C 0.40318 0.89531 0.66667 0.0
C84 C 0.39178 0.91493 0.67648 0.0
C85 C 0.37013 0.9202 0.66136 0.0
C86 C 0.37044 0.90042 0.64099 0.0
C87 C 0.38974 0.88586 0.64447 0.0
C88 C 0.37415 0.9462 0.65132 0.0
C89 C 0.34809 0.91674 0.67766 0.0
C90 C 0.415 0.80868 0.60111 0.0
C91 C 0.40637 0.79509 0.58022 0.0
C92 C 0.3874 0.8035 0.56636 0.0
C93 C 0.37659 0.82492 0.57379 0.0
C94 C 0.38502 0.83807 0.59518 0.0
C95 C 0.40427 0.83013 0.60808 0.0
C96 C 0.41156 0.84677 0.6297 0.0
C97 C 0.39299 0.86555 0.62828 0.0
C98 C 0.37737 0.86038 0.60816 0.0
C99 C 0.43684 0.85825 0.62513 0.0
C100 C 0.40938 0.83168 0.65322 0.0
H101 H 0.32669 0.93695 0.63842 0.0
H102 H 0.29485 0.88855 0.56484 0.0
H103 H 0.3111 0.84907 0.60201 0.0
H104 H 0.33349 0.83233 0.58874 0.0
H105 H 0.31164 0.84496 0.56918 0.0
H106 H 0.35312 0.89748 0.55692 0.0
H107 H 0.33497 0.87188 0.54413 0.0
H108 H 0.36487 0.86842 0.55521 0.0
H109 H 0.39006 0.94191 0.70617 0.0
H110 H 0.44819 0.89383 0.70865 0.0
H111 H 0.43365 0.87291 0.67148 0.0
H112 H 0.39288 0.94955 0.64569 0.0
H113 H 0.37044 0.96048 0.66552 0.0
H114 H 0.36334 0.94892 0.63466 0.0
H115 H 0.35019 0.90157 0.69045 0.0
H116 H 0.33166 0.91134 0.66702 0.0
H117 H 0.34536 0.93365 0.68892 0.0
H118 H 0.28926 0.94655 0.61999 0.0
C119 C 0.32043 0.92609 0.62255 0.0
C120 C 0.6121 0.31424 0.91165 0.0
C121 C 0.59244 0.29987 0.90195 0.0
C122 C 0.58037 0.30779 0.88102 0.0
C123 C 0.60801 0.34327 0.87949 0.0
C124 C 0.6197 0.33552 0.90003 0.0
C125 C 0.64117 0.35182 0.90728 0.0
H126 H 0.71837 0.44531 0.88149 0.0
C127 C 0.62092 0.36579 0.87163 0.0
C128 C 0.64034 0.37083 0.88783 0.0
H129 H 0.71926 0.39762 0.94319 0.0
H130 H 0.68205 0.37796 0.92966 0.0
H131 H 0.66366 0.45629 0.88858 0.0
H132 H 0.69886 0.40679 0.84064 0.0
H133 H 0.67669 0.41959 0.82298 0.0
H134 H 0.70004 0.43937 0.83726 0.0
H135 H 0.6774 0.46624 0.86099 0.0
H136 H 0.64681 0.4544 0.86116 0.0
C137 C 0.6375 0.36305 0.93341 0.0
C138 C 0.66327 0.33641 0.90484 0.0
C139 C 0.59321 0.40909 0.79642 0.0
C140 C 0.60282 0.42957 0.78443 0.0
C141 C 0.62292 0.44301 0.7946 0.0
C142 C 0.63399 0.43557 0.8159 0.0
C143 C 0.62482 0.41451 0.82718 0.0
C144 C 0.60454 0.40185 0.81775 0.0
C145 C 0.5977 0.3797 0.83221 0.0
C146 C 0.61717 0.38138 0.85189 0.0
C147 C 0.63304 0.4017 0.84862 0.0
C148 C 0.57297 0.38321 0.84313 0.0
C149 C 0.59889 0.35653 0.81509 0.0
C150 C 0.71041 0.4308 0.8922 0.0
C151 C 0.72214 0.42248 0.913 0.0
C152 C 0.71101 0.40375 0.92658 0.0
C153 C 0.68928 0.39244 0.9188 0.0
C154 C 0.67831 0.40008 0.89738 0.0
C155 C 0.68844 0.41943 0.88487 0.0
C156 C 0.67328 0.42591 0.86339 0.0
C157 C 0.65302 0.40641 0.86454 0.0
C158 C 0.65631 0.39127 0.88429 0.0
C159 C 0.66489 0.4521 0.86852 0.0
C160 C 0.68786 0.42297 0.83974 0.0
H161 H 0.5782 0.3344 0.85387 0.0
H162 H 0.62164 0.30896 0.92786 0.0
H163 H 0.6615 0.32379 0.88832 0.0
H164 H 0.6799 0.34757 0.90229 0.0
H165 H 0.66548 0.32504 0.92111 0.0
H166 H 0.61833 0.36379 0.93757 0.0
H167 H 0.64572 0.35211 0.94771 0.0
H168 H 0.64462 0.38234 0.93554 0.0
H169 H 0.5779 0.39832 0.78878 0.0
H170 H 0.6304 0.45902 0.78571 0.0
H171 H 0.64957 0.4462 0.82238 0.0
H172 H 0.57157 0.4025 0.84993 0.0
H173 H 0.55867 0.379 0.82905 0.0
H174 H 0.56937 0.37195 0.85917 0.0
H175 H 0.61319 0.35903 0.80147 0.0
H176 H 0.60339 0.34014 0.82504 0.0
H177 H 0.5819 0.35249 0.8047 0.0
H178 H 0.56541 0.29689 0.87285 0.0
C179 C 0.58798 0.32946 0.86983 0.0
C180 C 0.92067 0.68784 0.41924 0.0
C181 C 0.91236 0.70105 0.43975 0.0
C182 C 0.8932 0.6904 0.45277 0.0
C183 C 0.88977 0.6554 0.42397 0.0
C184 C 0.90917 0.66514 0.41175 0.0
C185 C 0.91492 0.64925 0.38971 0.0
H186 H 0.8872 0.5497 0.31451 0.0
C187 C 0.88091 0.6324 0.41068 0.0
C188 C 0.89565 0.6286 0.39063 0.0
H189 H 0.94228 0.60758 0.30668 0.0
H190 H 0.93212 0.62585 0.34513 0.0
H191 H 0.89298 0.54366 0.37326 0.0
H192 H 0.84813 0.58743 0.33003 0.0
H193 H 0.83088 0.57421 0.35312 0.0
H194 H 0.84396 0.55464 0.33052 0.0
H195 H 0.86817 0.5304 0.35525 0.0
H196 H 0.86467 0.54237 0.3862 0.0
C197 C 0.93992 0.63985 0.39408 0.0
C198 C 0.91249 0.66451 0.36645 0.0
C199 C 0.80422 0.58832 0.43661 0.0
C200 C 0.79097 0.56734 0.42736 0.0
C201 C 0.80019 0.553 0.40824 0.0
C202 C 0.82188 0.56017 0.39765 0.0
C203 C 0.83452 0.58184 0.40642 0.0
C204 C 0.82593 0.59509 0.42606 0.0
C205 C 0.84191 0.61724 0.43342 0.0
C206 C 0.86103 0.61579 0.41436 0.0
C207 C 0.85658 0.59508 0.3985 0.0
C208 C 0.85191 0.61363 0.45963 0.0
C209 C 0.82754 0.64034 0.43087 0.0
C210 C 0.89706 0.56641 0.32077 0.0
C211 C 0.91586 0.57678 0.30705 0.0
C212 C 0.9282 0.59842 0.31669 0.0
C213 C 0.922 0.60945 0.33905 0.0
C214 C 0.90275 0.59937 0.3519 0.0
C215 C 0.89063 0.57816 0.34278 0.0
C216 C 0.8698 0.57083 0.35835 0.0
C217 C 0.87162 0.59109 0.37831 0.0
C218 C 0.89101 0.60775 0.37443 0.0
C219 C 0.87386 0.54541 0.36877 0.0
C220 C 0.8469 0.5716 0.34231 0.0
H221 H 0.86719 0.66111 0.45552 0.0
H222 H 0.93522 0.69538 0.40864 0.0
H223 H 0.89888 0.67826 0.36884 0.0
H224 H 0.90626 0.65328 0.35006 0.0
H225 H 0.92953 0.67462 0.36235 0.0
H226 H 0.94228 0.63465 0.41349 0.0
H227 H 0.95398 0.65424 0.39032 0.0
H228 H 0.94304 0.62313 0.38293 0.0
H229 H 0.79758 0.59948 0.4515 0.0
H230 H 0.79016 0.53674 0.40091 0.0
H231 H 0.82773 0.54884 0.38273 0.0
H232 H 0.85463 0.59395 0.46259 0.0
H233 H 0.83957 0.61996 0.47383 0.0
H234 H 0.86961 0.62304 0.463 0.0
H235 H 0.81516 0.63819 0.41469 0.0
H236 H 0.83875 0.65707 0.42763 0.0
H237 H 0.81677 0.6436 0.44739 0.0
H238 H 0.8867 0.69971 0.46895 0.0
C239 C 0.88192 0.66782 0.44503 0.0
C240 C 0.89625 0.8098 0.92698 0.0
C241 C 0.91668 0.79804 0.91925 0.0
C242 C 0.93068 0.80941 0.90112 0.0
C243 C 0.90301 0.84142 0.89705 0.0
C244 C 0.88996 0.8315 0.91585 0.0
C245 C 0.86885 0.8463 0.92164 0.0
H246 H 0.80057 0.94065 0.89428 0.0
C247 C 0.89097 0.86295 0.88813 0.0
C248 C 0.87096 0.8661 0.90263 0.0
H249 H 0.78893 0.88629 0.94959 0.0
H250 H 0.8253 0.86887 0.93922 0.0
H251 H 0.81415 0.90058 0.8534 0.0
H252 H 0.85808 0.94959 0.90137 0.0
H253 H 0.86987 0.95008 0.87169 0.0
H254 H 0.84049 0.9603 0.8766 0.0
H255 H 0.81713 0.93299 0.84901 0.0
H256 H 0.83787 0.9124 0.83627 0.0
C257 C 0.84604 0.82936 0.91762 0.0
C258 C 0.8724 0.85735 0.94808 0.0
C259 C 0.91975 0.90338 0.81031 0.0
C260 C 0.91116 0.9222 0.79635 0.0
C261 C 0.89218 0.93525 0.80533 0.0
C262 C 0.8814 0.92919 0.82753 0.0
C263 C 0.88943 0.90959 0.84085 0.0
C264 C 0.90866 0.8974 0.83241 0.0
C265 C 0.91484 0.87713 0.84895 0.0
C266 C 0.89565 0.87847 0.86811 0.0
C267 C 0.88077 0.89755 0.86333 0.0
C268 C 0.9126 0.85267 0.83356 0.0
C269 C 0.93989 0.88369 0.86034 0.0
C270 C 0.80537 0.92485 0.90418 0.0
C271 C 0.79107 0.91544 0.92321 0.0
C272 C 0.79917 0.89491 0.9354 0.0
C273 C 0.82042 0.88431 0.92907 0.0
C274 C 0.8339 0.89357 0.90973 0.0
C275 C 0.82629 0.91354 0.89762 0.0
C276 C 0.8422 0.9201 0.8766 0.0
C277 C 0.86079 0.90116 0.87842 0.0
C278 C 0.85587 0.88557 0.89793 0.0
C279 C 0.82721 0.91658 0.85247 0.0
C280 C 0.85321 0.94646 0.88157 0.0
H281 H 0.93519 0.83788 0.87599 0.0
H282 H 0.88495 0.80203 0.94087 0.0
H283 H 0.89114 0.86439 0.95135 0.0
H284 H 0.86164 0.87323 0.95173 0.0
H285 H 0.86823 0.84331 0.96184 0.0
H286 H 0.84791 0.81625 0.90177 0.0
H287 H 0.84226 0.81848 0.93408 0.0
H288 H 0.8303 0.83941 0.91293 0.0
H289 H 0.93434 0.89308 0.80379 0.0
H290 H 0.8854 0.94987 0.79485 0.0
H291 H 0.8669 0.93973 0.83325 0.0
H292 H 0.89671 0.85205 0.82109 0.0
H293 H 0.92841 0.85056 0.82204 0.0
H294 H 0.91008 0.8364 0.84479 0.0
H295 H 0.94343 0.9039 0.86259 0.0
H296 H 0.94194 0.87692 0.8791 0.0
H297 H 0.95394 0.87651 0.84856 0.0
H298 H 0.94704 0.80185 0.89533 0.0
C299 C 0.92392 0.83071 0.88998 0.0
C300 C 0.71795 0.124 0.43235 0.0
C301 C 0.73056 0.1047 0.42242 0.0
C302 C 0.72133 0.09127 0.40151 0.0
C303 C 0.68779 0.11689 0.39992 0.0
C304 C 0.69667 0.12985 0.42075 0.0
C305 C 0.68135 0.15044 0.42809 0.0
H306 H 0.591 0.21994 0.39799 0.0
C307 C 0.66608 0.12825 0.39154 0.0
C308 C 0.66227 0.14806 0.40792 0.0
H309 H 0.63613 0.22718 0.46375 0.0
H310 H 0.65611 0.1921 0.45022 0.0
H311 H 0.58061 0.16176 0.40466 0.0
H312 H 0.62627 0.20708 0.36094 0.0
H313 H 0.61771 0.18145 0.34188 0.0
H314 H 0.59538 0.20086 0.35344 0.0
H315 H 0.57014 0.17688 0.37825 0.0
H316 H 0.58105 0.14652 0.37582 0.0
C317 C 0.67103 0.14506 0.45357 0.0
C318 C 0.69658 0.17491 0.42732 0.0
C319 C 0.62227 0.09655 0.31281 0.0
C320 C 0.603 0.10525 0.29972 0.0
C321 C 0.59129 0.12531 0.3094 0.0
C322 C 0.5989 0.13696 0.33163 0.0
C323 C 0.61865 0.12867 0.34424 0.0
C324 C 0.62991 0.10869 0.33496 0.0
C325 C 0.65116 0.10326 0.35058 0.0
C326 C 0.65054 0.12308 0.37086 0.0
C327 C 0.63151 0.13784 0.36685 0.0
C328 C 0.64675 0.07727 0.36054 0.0
C329 C 0.67355 0.10659 0.33475 0.0
C330 C 0.60465 0.21421 0.41024 0.0
C331 C 0.61178 0.22762 0.43202 0.0
C332 C 0.63031 0.2185 0.4464 0.0
C333 C 0.64189 0.19759 0.43873 0.0
C334 C 0.63457 0.18493 0.41679 0.0
C335 C 0.61576 0.19296 0.40343 0.0
C336 C 0.60926 0.17667 0.38132 0.0
C337 C 0.62786 0.15799 0.38308 0.0
C338 C 0.64284 0.1629 0.40374 0.0
C339 C 0.58391 0.16489 0.38492 0.0
C340 C 0.61208 0.19216 0.3581 0.0
H341 H 0.69391 0.08627 0.37438 0.0
H342 H 0.72483 0.13465 0.44835 0.0
H343 H 0.70812 0.17494 0.411 0.0
H344 H 0.68589 0.19101 0.42561 0.0
H345 H 0.70825 0.17773 0.44395 0.0
H346 H 0.66647 0.1251 0.45512 0.0
H347 H 0.68403 0.15082 0.46854 0.0
H348 H 0.65425 0.1539 0.45689 0.0
H349 H 0.63169 0.08129 0.30552 0.0
H350 H 0.57634 0.13213 0.29956 0.0
H351 H 0.58934 0.1523 0.33781 0.0
H352 H 0.62786 0.074 0.36566 0.0
H353 H 0.65074 0.06296 0.34647 0.0
H354 H 0.65713 0.07451 0.37748 0.0
H355 H 0.67178 0.12172 0.32184 0.0
H356 H 0.68979 0.11199 0.3457 0.0
H357 H 0.67644 0.08964 0.32362 0.0
H358 H 0.73089 0.07637 0.39365 0.0
C359 C 0.69995 0.09713 0.39032 0.0
C360 C 0.41271 0.62695 0.21897 0.0
C361 C 0.40206 0.60774 0.2323 0.0
C362 C 0.38024 0.59638 0.22349 0.0
C363 C 0.37997 0.62334 0.18941 0.0
C364 C 0.40115 0.63473 0.19798 0.0
C365 C 0.40872 0.65644 0.18317 0.0
H366 H 0.38434 0.73056 0.09012 0.0
C367 C 0.37215 0.6362 0.16777 0.0
C368 C 0.38886 0.65565 0.16394 0.0
H369 H 0.44319 0.73838 0.14206 0.0
H370 H 0.4302 0.70025 0.16036 0.0
H371 H 0.34703 0.71763 0.12792 0.0
H372 H 0.38558 0.67149 0.07969 0.0
H373 H 0.35655 0.65813 0.08013 0.0
H374 H 0.36154 0.68877 0.06931 0.0
H375 H 0.33903 0.71271 0.09603 0.0
H376 H 0.32703 0.69298 0.11917 0.0
C377 C 0.40879 0.67977 0.20024 0.0
C378 C 0.43301 0.65176 0.17175 0.0
C379 C 0.29563 0.60694 0.12275 0.0
C380 C 0.28332 0.61607 0.10273 0.0
C381 C 0.29281 0.63712 0.09136 0.0
C382 C 0.31429 0.64877 0.09962 0.0
C383 C 0.32634 0.63949 0.11966 0.0
C384 C 0.31696 0.61902 0.13097 0.0
C385 C 0.33177 0.61254 0.15271 0.0
C386 C 0.3519 0.63218 0.15207 0.0
C387 C 0.34854 0.64783 0.13273 0.0
C388 C 0.31666 0.61529 0.17606 0.0
C389 C 0.34044 0.58649 0.14773 0.0
C390 C 0.39457 0.72368 0.10514 0.0
C391 C 0.41479 0.73696 0.1147 0.0
C392 C 0.42757 0.72806 0.13453 0.0
C393 C 0.41989 0.70611 0.14516 0.0
C394 C 0.39901 0.69336 0.13606 0.0
C395 C 0.38689 0.70209 0.11621 0.0
C396 C 0.36454 0.68688 0.10967 0.0
C397 C 0.36522 0.66757 0.12882 0.0
C398 C 0.38536 0.67141 0.14425 0.0
C399 C 0.3432 0.70326 0.11314 0.0
C400 C 0.36691 0.67578 0.08329 0.0
H401 H 0.35289 0.59438 0.1964 0.0
H402 H 0.4295 0.6361 0.22479 0.0
H403 H 0.43393 0.6321 0.16602 0.0
H404 H 0.43622 0.66193 0.15488 0.0
H405 H 0.44779 0.65654 0.18515 0.0
H406 H 0.39393 0.67842 0.21334 0.0
H407 H 0.4256 0.68239 0.21121 0.0
H408 H 0.406 0.69659 0.19026 0.0
H409 H 0.28883 0.59079 0.13188 0.0
H410 H 0.2834 0.64491 0.07631 0.0
H411 H 0.32047 0.66473 0.09023 0.0
H412 H 0.30326 0.62921 0.17381 0.0
H413 H 0.30692 0.59771 0.18018 0.0
H414 H 0.32733 0.62205 0.19241 0.0
H415 H 0.3451 0.58377 0.12811 0.0
H416 H 0.35675 0.58309 0.15824 0.0
H417 H 0.32642 0.57219 0.15188 0.0
H418 H 0.37096 0.58215 0.23348 0.0
C419 C 0.3694 0.60382 0.20202 0.0
C420 C 0.07669 0.31965 0.60186 0.0
C421 C 0.08537 0.30576 0.58209 0.0
C422 C 0.10464 0.31584 0.56887 0.0
C423 C 0.10771 0.35177 0.59639 0.0
C424 C 0.08813 0.34252 0.60867 0.0
C425 C 0.08215 0.35907 0.63007 0.0
H426 H 0.11255 0.45693 0.70628 0.0
C427 C 0.1166 0.375 0.60911 0.0
C428 C 0.10158 0.3795 0.62877 0.0
H429 H 0.05365 0.40347 0.71161 0.0
H430 H 0.06353 0.38443 0.67273 0.0
H431 H 0.10558 0.46437 0.64578 0.0
H432 H 0.14981 0.41999 0.68907 0.0
H433 H 0.16724 0.4331 0.66603 0.0
H434 H 0.15435 0.45276 0.68864 0.0
H435 H 0.13054 0.47734 0.66374 0.0
H436 H 0.13385 0.46518 0.6328 0.0
C437 C 0.05723 0.36846 0.62501 0.0
C438 C 0.08421 0.34446 0.65381 0.0
C439 C 0.19406 0.4177 0.58294 0.0
C440 C 0.20737 0.43911 0.59144 0.0
C441 C 0.19798 0.45359 0.61051 0.0
C442 C 0.17644 0.44648 0.62141 0.0
C443 C 0.16381 0.42471 0.6131 0.0
C444 C 0.17239 0.41108 0.59376 0.0
C445 C 0.15619 0.38899 0.58668 0.0
C446 C 0.13685 0.39111 0.60545 0.0
C447 C 0.14147 0.41199 0.62101 0.0
C448 C 0.14651 0.39214 0.56025 0.0
C449 C 0.1702 0.36575 0.58994 0.0
C450 C 0.10161 0.44143 0.69865 0.0
C451 C 0.08227 0.43163 0.71162 0.0
C452 C 0.06852 0.41127 0.70162 0.0
C453 C 0.07441 0.40019 0.67918 0.0
C454 C 0.09447 0.4094 0.66683 0.0
C455 C 0.10742 0.43001 0.67629 0.0
C456 C 0.12838 0.43689 0.66078 0.0
C457 C 0.12622 0.41662 0.64087 0.0
C458 C 0.10631 0.40057 0.64457 0.0
C459 C 0.12466 0.46235 0.65027 0.0
C460 C 0.15124 0.43584 0.67683 0.0
H461 H 0.13062 0.345 0.56531 0.0
H462 H 0.06197 0.31249 0.61245 0.0
H463 H 0.09865 0.33151 0.65243 0.0
H464 H 0.08906 0.3562 0.67027 0.0
H465 H 0.06746 0.33353 0.65721 0.0
H466 H 0.0546 0.37179 0.60515 0.0
H467 H 0.04302 0.35485 0.63031 0.0
H468 H 0.0546 0.38627 0.63447 0.0
H469 H 0.20052 0.40585 0.56854 0.0
H470 H 0.20723 0.47055 0.61709 0.0
H471 H 0.17054 0.45814 0.63603 0.0
H472 H 0.14409 0.41179 0.55682 0.0
H473 H 0.1589 0.38533 0.54634 0.0
H474 H 0.12873 0.38291 0.55687 0.0
H475 H 0.18249 0.36812 0.60617 0.0
H476 H 0.15874 0.34928 0.59355 0.0
H477 H 0.181 0.36189 0.57358 0.0
H478 H 0.11134 0.30585 0.55321 0.0
C479 C 0.11578 0.33867 0.57587 0.0
O480 O 0.97423 0.02078 0.50095 0.0
Mn481 Mn 0.00693 0.00422 0.50524 0.0
O482 O 0.96279 0.00908 0.46298 0.0
Mn483 Mn 0.98336 0.98428 0.46029 0.0
O484 O 0.04043 0.98816 0.511 0.0
O485 O 0.02101 0.03666 0.52155 0.0
Mn486 Mn 0.0365 0.02697 0.54778 0.0
O487 O 0.99359 0.9902 0.53897 0.0
O488 O 0.06324 0.01493 0.53501 0.0
O489 O 0.02035 0.01867 0.47117 0.0
O490 O 0.00823 0.99201 0.44084 0.0
O491 O 0.02908 0.05793 0.5556 0.0
O492 O 0.02025 0.00537 0.56696 0.0
C493 C 0.97749 0.95423 0.48229 0.0
C494 C 0.96008 0.02173 0.48238 0.0
C495 C 0.06071 0.99565 0.52123 0.0
C496 C 0.01794 0.05672 0.53456 0.0
C497 C 1.00171 0.99217 0.56133 0.0
C498 C 0.02084 0.01083 0.44836 0.0
O499 O 0.99484 0.97097 0.4875 0.0
O500 O 0.96657 0.95572 0.4613 0.0
O501 O 0.49397 0.01139 0.96911 0.0
Mn502 Mn 0.50927 0.01619 0.00454 0.0
O503 O 0.51927 0.98574 0.95685 0.0
Mn504 Mn 0.51984 0.97384 0.98798 0.0
O505 O 0.52334 0.02167 0.04089 0.0
O506 O 0.51683 0.05222 0.99556 0.0
Mn507 Mn 0.50533 0.0674 0.02149 0.0
O508 O 0.47384 0.02279 0.01685 0.0
O509 O 0.52173 0.06182 0.04943 0.0
O510 O 0.5462 0.01014 0.99343 0.0
O511 O 0.54951 0.97104 0.9995 0.0
O512 O 0.51619 0.09272 0.00502 0.0
O513 O 0.4733 0.06327 0.02282 0.0
C514 C 0.49282 0.95721 0.00595 0.0
C515 C 0.50285 0.99914 0.95174 0.0
C516 C 0.52754 0.0408 0.05517 0.0
C517 C 0.52163 0.07514 0.98987 0.0
C518 C 0.46278 0.04225 0.02254 0.0
C519 C 0.55954 0.99173 0.9964 0.0
O520 O 0.50055 0.9796 0.01355 0.0
O521 O 0.50063 0.94767 0.98583 0.0
O522 O 0.53501 0.51753 0.50407 0.0
Mn523 Mn 0.49863 0.50716 0.50646 0.0
O524 O 0.54466 0.51164 0.46458 0.0
Mn525 Mn 0.51551 0.49724 0.45493 0.0
O526 O 0.46161 0.49639 0.51052 0.0
O527 O 0.50433 0.50092 0.54217 0.0
Mn528 Mn 0.48039 0.51341 0.55782 0.0
O529 O 0.49202 0.54427 0.51314 0.0
O530 O 0.45943 0.48744 0.55036 0.0
O531 O 0.5057 0.46998 0.49994 0.0
O532 O 0.51073 0.46446 0.45952 0.0
O533 O 0.50708 0.51978 0.57721 0.0
O534 O 0.46953 0.54158 0.54598 0.0
C535 C 0.4875 0.51878 0.44781 0.0
C536 C 0.54994 0.51869 0.48657 0.0
C537 C 0.45011 0.48722 0.52887 0.0
C538 C 0.5182 0.50819 0.56039 0.0
C539 C 0.47841 0.55382 0.5289 0.0
C540 C 0.50861 0.45613 0.48076 0.0
O541 O 0.4932 0.513 0.47006 0.0
O542 O 0.49977 0.51001 0.43001 0.0
O543 O 0.97066 0.4922 0.00272 0.0
Mn544 Mn 0.00406 0.50936 0.00921 0.0
O545 O 0.95975 0.51806 0.976 0.0
Mn546 Mn 0.9897 0.52057 0.9636 0.0
O547 O 0.03747 0.52552 0.01747 0.0
O548 O 0.99256 0.51496 0.04589 0.0
Mn549 Mn 0.01408 0.49444 0.0556 0.0
O550 O 0.01726 0.47326 0.01274 0.0
O551 O 0.04504 0.5055 0.05123 0.0
O552 O 0.99266 0.54674 0.00314 0.0
O553 O 1.00026 0.55213 0.96388 0.0
O554 O 0.00406 0.50353 0.08423 0.0
O555 O 0.00611 0.46218 0.04888 0.0
C556 C 0.01045 0.49312 0.95159 0.0
C557 C 0.9544 0.50216 0.99117 0.0
C558 C 0.05138 0.52047 0.03507 0.0
C559 C 0.99027 0.51531 0.07017 0.0
C560 C 0.01341 0.4563 0.02817 0.0
C561 C 0.99569 0.56127 0.98473 0.0
O562 O 0.01509 0.50465 0.973 0.0
O563 O 0.99141 0.49812 0.93963 0.0
H564 H 0.05836 0.09216 0.23286 0.0
H565 H 0.04599 0.07701 0.27257 0.0
H566 H 0.11884 0.08264 0.29849 0.0
H567 H 0.13136 0.09712 0.25843 0.0
H568 H 0.09787 0.04306 0.31565 0.0
H569 H 0.07636 0.1272 0.31339 0.0
H570 H 0.05677 0.16165 0.29531 0.0
H571 H 0.98901 0.12212 0.29965 0.0
H572 H 0.00825 0.08731 0.31747 0.0
H573 H 0.06742 0.02888 0.44186 0.0
H574 H 0.08335 0.04737 0.40442 0.0
H575 H 0.01272 0.04429 0.37236 0.0
H576 H 0.99703 0.02643 0.40942 0.0
H577 H 0.0343 0.08445 0.35943 0.0
H578 H 0.05368 1.00042 0.35888 0.0
H579 H 0.07143 0.96368 0.37433 0.0
H580 H 0.14079 1.00039 0.37302 0.0
H581 H 0.12338 0.0375 0.35791 0.0
C582 C 0.07177 0.09015 0.247 0.0
C583 C 0.09585 0.09614 0.24245 0.0
C584 C 0.06466 0.08155 0.26983 0.0
C585 C 0.08134 0.07922 0.28903 0.0
C586 C 0.10551 0.08436 0.28421 0.0
C587 C 0.11268 0.09263 0.26121 0.0
C588 C 0.07361 0.07189 0.31414 0.0
C589 C 0.08426 0.05245 0.32537 0.0
C590 C 0.05537 0.08353 0.32683 0.0
C591 C 0.04375 0.10465 0.31665 0.0
C592 C 0.05729 0.12586 0.31043 0.0
C593 C 0.04625 0.14543 0.30021 0.0
C594 C 0.02166 0.14406 0.29631 0.0
C595 C 0.00805 0.12315 0.30268 0.0
C596 C 0.019 0.10351 0.31287 0.0
C597 C 0.05534 0.03278 0.42704 0.0
C598 C 0.03097 0.02625 0.42864 0.0
C599 C 0.06444 0.04306 0.40547 0.0
C600 C 0.04933 0.04697 0.38516 0.0
C601 C 0.02488 0.04156 0.3875 0.0
C602 C 0.0159 0.03131 0.4088 0.0
C603 C 0.05862 0.05563 0.36103 0.0
C604 C 0.04815 0.07526 0.3499 0.0
C605 C 0.07678 0.04395 0.3483 0.0
C606 C 0.08722 0.02181 0.35759 0.0
C607 C 0.07269 1.00072 0.36212 0.0
C608 C 0.08269 0.97983 0.37077 0.0
C609 C 0.10721 0.97973 0.37473 0.0
C610 C 0.12179 1.00052 0.37001 0.0
C611 C 0.11187 0.02149 0.36141 0.0
H612 H 0.11493 0.96351 0.38139 0.0
H613 H 0.01315 0.15923 0.28838 0.0
H614 H 0.42187 0.96788 0.72636 0.0
H615 H 0.43408 0.98526 0.76709 0.0
H616 H 0.44962 0.9132 0.79023 0.0
H617 H 0.43655 0.89567 0.75024 0.0
H618 H 0.42501 0.93429 0.82315 0.0
H619 H 0.49314 0.95711 0.77774 0.0
H620 H 0.51736 0.97597 0.74553 0.0
H621 H 0.49698 0.04732 0.76927 0.0
H622 H 0.47222 0.02883 0.80134 0.0
H623 H 0.49957 0.9563 0.92596 0.0
H624 H 0.48216 0.94705 0.88556 0.0
H625 H 0.46122 0.02144 0.88164 0.0
H626 H 0.47909 0.03109 0.92297 0.0
H627 H 0.48473 0.00351 0.83948 0.0
H628 H 0.41938 0.97545 0.88972 0.0
H629 H 0.40067 0.95225 0.92295 0.0
H630 H 0.4232 0.88499 0.89047 0.0
H631 H 0.44231 0.90779 0.85725 0.0
C632 C 0.42779 0.95576 0.74019 0.0
C633 C 0.42826 0.93039 0.73499 0.0
C634 C 0.43502 0.96575 0.76335 0.0
C635 C 0.44293 0.95057 0.78168 0.0
C636 C 0.44361 0.92531 0.77641 0.0
C637 C 0.43631 0.91533 0.7534 0.0
C638 C 0.44931 0.96054 0.80682 0.0
C639 C 0.43816 0.94938 0.82666 0.0
C640 C 0.46621 0.98045 0.81146 0.0
C641 C 0.48044 0.99153 0.79165 0.0
C642 C 0.49349 0.97678 0.77584 0.0
C643 C 0.5074 0.98741 0.75766 0.0
C644 C 0.50861 0.01281 0.75527 0.0
C645 C 0.49593 0.02763 0.77107 0.0
C646 C 0.48193 0.01709 0.78923 0.0
C647 C 0.4913 0.97085 0.91662 0.0
C648 C 0.49092 0.99457 0.92752 0.0
C649 C 0.48112 0.96538 0.89356 0.0
C650 C 0.47012 0.98342 0.88072 0.0
C651 C 0.46949 0.00721 0.89144 0.0
C652 C 0.4796 0.01271 0.91495 0.0
C653 C 0.46052 0.97715 0.85564 0.0
C654 C 0.47116 0.98886 0.83582 0.0
C655 C 0.44379 0.95709 0.85097 0.0
C656 C 0.43236 0.94339 0.87105 0.0
C657 C 0.42049 0.95574 0.88976 0.0
C658 C 0.40978 0.94265 0.90858 0.0
C659 C 0.41076 0.91717 0.90883 0.0
C660 C 0.42244 0.90472 0.89026 0.0
C661 C 0.43318 0.91772 0.87141 0.0
H662 H 0.40245 0.90708 0.92341 0.0
H663 H 0.51945 0.02102 0.74123 0.0
H664 H 0.55648 0.43416 0.77034 0.0
H665 H 0.54186 0.4448 0.72948 0.0
H666 H 0.61376 0.44878 0.70366 0.0
H667 H 0.6283 0.43833 0.74402 0.0
H668 H 0.58894 0.48856 0.69182 0.0
H669 H 0.57541 0.39771 0.69041 0.0
H670 H 0.5557 0.35984 0.70564 0.0
H671 H 0.48748 0.38851 0.69326 0.0
H672 H 0.50683 0.42656 0.67807 0.0
H673 H 0.56665 0.5103 0.56902 0.0
H674 H 0.58443 0.49069 0.60407 0.0
H675 H 0.51635 0.45271 0.61649 0.0
H676 H 0.50139 0.46704 0.57872 0.0
H677 H 0.53955 0.43014 0.63806 0.0
H678 H 0.54695 0.52122 0.643 0.0
H679 H 0.56271 0.56262 0.63259 0.0
H680 H 0.63395 0.54118 0.64376 0.0
H681 H 0.61862 0.49971 0.65407 0.0
C682 C 0.56903 0.43728 0.75582 0.0
C683 C 0.59349 0.43575 0.76023 0.0
C684 C 0.56072 0.44331 0.73263 0.0
C685 C 0.57682 0.44752 0.71372 0.0
C686 C 0.60115 0.44577 0.71815 0.0
C687 C 0.60941 0.4399 0.74118 0.0
C688 C 0.56886 0.45392 0.68907 0.0
C689 C 0.57791 0.47604 0.6799 0.0
C690 C 0.55402 0.43782 0.67408 0.0
C691 C 0.54256 0.41496 0.68327 0.0
C692 C 0.55623 0.39594 0.69107 0.0
C693 C 0.54511 0.37445 0.69964 0.0
C694 C 0.52036 0.37178 0.70044 0.0
C695 C 0.50665 0.39059 0.69263 0.0
C696 C 0.51767 0.41209 0.684 0.0
C697 C 0.55637 0.49624 0.57835 0.0
C698 C 0.53273 0.49014 0.57135 0.0
C699 C 0.56608 0.48588 0.59914 0.0
C700 C 0.55142 0.47152 0.61447 0.0
C701 C 0.52854 0.46361 0.60563 0.0
C702 C 0.51985 0.4718 0.58366 0.0
C703 C 0.55864 0.46587 0.64011 0.0
C704 C 0.5498 0.44355 0.64967 0.0
C705 C 0.57259 0.4826 0.65593 0.0
C706 C 0.58165 0.50731 0.64891 0.0
C707 C 0.56596 0.52532 0.64302 0.0
C708 C 0.57483 0.5488 0.6372 0.0
C709 C 0.59931 0.55449 0.63741 0.0
C710 C 0.615 0.53675 0.6435 0.0
C711 C 0.60624 0.51327 0.64932 0.0
H712 H 0.60613 0.57268 0.63293 0.0
H713 H 0.5118 0.35513 0.70708 0.0
H714 H 0.95897 0.57951 0.2836 0.0
H715 H 0.9666 0.5686 0.24098 0.0
H716 H 0.89526 0.53677 0.2315 0.0
H717 H 0.88644 0.54956 0.27343 0.0
H718 H 0.93784 0.50928 0.20956 0.0
H719 H 0.89826 0.58602 0.21151 0.0
H720 H 0.89306 0.62865 0.22577 0.0
H721 H 0.96354 0.6499 0.20306 0.0
H722 H 0.96927 0.60725 0.18909 0.0
H723 H 0.94598 0.49805 0.08064 0.0
H724 H 0.92853 0.50693 0.12055 0.0
H725 H 0.98016 0.56784 0.13295 0.0
H726 H 0.99667 0.55954 0.09281 0.0
H727 H 0.94392 0.57915 0.15397 0.0
H728 H 0.98647 0.50573 0.15351 0.0
H729 H 0.99679 0.46351 0.14274 0.0
H730 H 0.92799 0.4358 0.16485 0.0
H731 H 0.91716 0.47788 0.17546 0.0
C732 C 0.94461 0.57056 0.27259 0.0
C733 C 0.92177 0.56625 0.28223 0.0
C734 C 0.94923 0.56396 0.24822 0.0
C735 C 0.93142 0.55213 0.2331 0.0
C736 C 0.90921 0.54598 0.24295 0.0
C737 C 0.9043 0.55323 0.26715 0.0
C738 C 0.93549 0.54811 0.20653 0.0
C739 C 0.93881 0.5244 0.19718 0.0
C740 C 0.93752 0.56799 0.19074 0.0
C741 C 0.93427 0.59345 0.19957 0.0
C742 C 0.91274 0.59973 0.20988 0.0
C743 C 0.90968 0.6239 0.21783 0.0
C744 C 0.92798 0.64196 0.21539 0.0
C745 C 0.9494 0.63588 0.205 0.0
C746 C 0.95256 0.61172 0.19707 0.0
C747 C 0.95243 0.51438 0.09118 0.0
C748 C 0.97235 0.52846 0.08339 0.0
C749 C 0.94301 0.51893 0.11441 0.0
C750 C 0.95355 0.5375 0.13028 0.0
C751 C 0.97171 0.55326 0.12126 0.0
C752 C 0.98084 0.5489 0.09797 0.0
C753 C 0.94664 0.54016 0.15651 0.0
C754 C 0.94279 0.56376 0.166 0.0
C755 C 0.94484 0.52016 0.17249 0.0
C756 C 0.95086 0.495 0.16485 0.0
C757 C 0.97342 0.49067 0.15571 0.0
C758 C 0.97939 0.46675 0.14974 0.0
C759 C 0.96302 0.44699 0.153 0.0
C760 C 0.94062 0.45112 0.16223 0.0
C761 C 0.93455 0.475 0.1682 0.0
H762 H 0.96772 0.42849 0.14847 0.0
H763 H 0.92554 0.66069 0.22148 0.0
H764 H 0.23891 0.05979 0.07736 0.0
H765 H 0.27693 0.04661 0.06254 0.0
H766 H 0.31007 0.11759 0.08399 0.0
H767 H 0.27159 0.13116 0.09744 0.0
H768 H 0.32895 0.10464 0.04504 0.0
H769 H 0.31414 0.06186 0.11812 0.0
H770 H 0.29215 0.03528 0.14656 0.0
H771 H 0.29313 0.97466 0.09426 0.0
H772 H 0.31477 1.00101 0.06531 0.0
H773 H 0.44636 0.07396 0.05595 0.0
H774 H 0.40589 0.081 0.06634 0.0
H775 H 0.38111 0.01775 0.02146 0.0
H776 H 0.42259 0.0107 0.01011 0.0
H777 H 0.35745 0.02475 0.06945 0.0
H778 H 0.37633 0.07104 0.99784 0.0
H779 H 0.40027 0.09987 0.97323 0.0
H780 H 0.3945 0.15672 0.02892 0.0
H781 H 0.37081 0.12812 0.05404 0.0
C782 C 0.2543 0.07262 0.07865 0.0
C783 C 0.2523 0.09648 0.08856 0.0
C784 C 0.27616 0.065 0.07042 0.0
C785 C 0.2968 0.08077 0.07265 0.0
C786 C 0.29461 0.1049 0.08204 0.0
C787 C 0.27259 0.11271 0.08974 0.0
C788 C 0.32056 0.0722 0.0652 0.0
C789 C 0.33513 0.08724 0.05065 0.0
C790 C 0.32889 0.04933 0.07209 0.0
C791 C 0.31584 0.03347 0.08943 0.0
C792 C 0.30949 0.04291 0.1126 0.0
C793 C 0.2971 0.02789 0.12882 0.0
C794 C 0.29118 0.00332 0.12219 0.0
C795 C 0.29768 0.99371 0.09934 0.0
C796 C 0.31 0.00868 0.08302 0.0
C797 C 0.43248 0.06128 0.04819 0.0
C798 C 0.43791 0.042 0.03165 0.0
C799 C 0.4092 0.06544 0.05426 0.0
C800 C 0.39031 0.05037 0.04425 0.0
C801 C 0.39545 0.02988 0.02914 0.0
C802 C 0.41914 0.02574 0.02276 0.0
C803 C 0.3655 0.05713 0.04929 0.0
C804 C 0.35094 0.04192 0.06362 0.0
C805 C 0.35744 0.08018 0.04284 0.0
C806 C 0.37193 0.09735 0.02789 0.0
C807 C 0.38035 0.08962 0.00495 0.0
C808 C 0.39384 0.10594 0.99088 0.0
C809 C 0.39893 0.1301 0.99952 0.0
C810 C 0.39055 0.138 0.02225 0.0
C811 C 0.37708 0.12174 0.0364 0.0
H812 H 0.40934 0.14272 0.98858 0.0
H813 H 0.28162 0.9917 0.13479 0.0
H814 H 0.24783 0.91654 0.61555 0.0
H815 H 0.20847 0.92638 0.6005 0.0
H816 H 0.23749 0.9421 0.52975 0.0
H817 H 0.277 0.93187 0.54478 0.0
H818 H 0.20804 0.97838 0.54847 0.0
H819 H 0.20348 0.89053 0.53376 0.0
H820 H 0.20818 0.84811 0.54613 0.0
H821 H 0.15889 0.8578 0.60426 0.0
H822 H 0.15401 0.90036 0.59227 0.0
H823 H 0.09776 0.99408 0.48985 0.0
H824 H 0.13652 0.97791 0.49903 0.0
H825 H 0.10916 0.94892 0.56614 0.0
H826 H 0.07041 0.96442 0.55651 0.0
H827 H 0.13843 0.91846 0.54819 0.0
H828 H 0.14321 0.00472 0.56612 0.0
H829 H 0.14049 0.04882 0.55923 0.0
H830 H 0.19013 0.04428 0.50073 0.0
H831 H 0.19302 1.0001 0.5072 0.0
C832 C 0.24574 0.922 0.59676 0.0
C833 C 0.26536 0.92345 0.5813 0.0
C834 C 0.22326 0.92753 0.58815 0.0
C835 C 0.21996 0.93484 0.56394 0.0
C836 C 0.2396 0.93642 0.54846 0.0
C837 C 0.26209 0.93048 0.55699 0.0
C838 C 0.19604 0.9412 0.55507 0.0
C839 C 0.1929 0.96516 0.54788 0.0
C840 C 0.17608 0.92427 0.55529 0.0
C841 C 0.17847 0.89859 0.56219 0.0
C842 C 0.1937 0.8836 0.54921 0.0
C843 C 0.19638 0.85955 0.55614 0.0
C844 C 0.18386 0.85027 0.57599 0.0
C845 C 0.16855 0.86501 0.58888 0.0
C846 C 0.16577 0.88907 0.58198 0.0
C847 C 0.09982 0.98328 0.50594 0.0
C848 C 0.08091 0.97976 0.52203 0.0
C849 C 0.12209 0.97449 0.5115 0.0
C850 C 0.12602 0.96253 0.53355 0.0
C851 C 0.10671 0.95796 0.54899 0.0
C852 C 0.08446 0.96657 0.54333 0.0
C853 C 0.15033 0.9557 0.5411 0.0
C854 C 0.15355 0.93168 0.54835 0.0
C855 C 0.17032 0.97276 0.54139 0.0
C856 C 0.16805 0.99908 0.5369 0.0
C857 C 0.15332 0.01308 0.5516 0.0
C858 C 0.15183 0.0381 0.54784 0.0
C859 C 0.16506 0.04932 0.52949 0.0
C860 C 0.17985 0.03555 0.51489 0.0
C861 C 0.18144 0.01053 0.51861 0.0
H862 H 0.1639 0.06871 0.52662 0.0
H863 H 0.18601 0.83166 0.58137 0.0
H864 H 0.75854 0.39682 0.9294 0.0
H865 H 0.79724 0.41288 0.94488 0.0
H866 H 0.78007 0.48604 0.92703 0.0
H867 H 0.74041 0.47026 0.91248 0.0
H868 H 0.82769 0.46823 0.91223 0.0
H869 H 0.77851 0.48006 0.98128 0.0
H870 H 0.74829 0.46964 0.01186 0.0
H871 H 0.78904 0.41086 0.03612 0.0
H872 H 0.81933 0.42071 0.00539 0.0
H873 H 0.91761 0.53014 0.9859 0.0
H874 H 0.87774 0.51586 0.97222 0.0
H875 H 0.89466 0.44108 0.98321 0.0
H876 H 0.93543 0.4553 0.99611 0.0
H877 H 0.84706 0.46116 1.0009 0.0
H878 H 0.89666 0.45013 0.93127 0.0
H879 H 0.92625 0.46077 0.90013 0.0
H880 H 0.88457 0.51909 0.87655 0.0
H881 H 0.85492 0.50909 0.90789 0.0
C882 C 0.76276 0.41639 0.92905 0.0
C883 C 0.74622 0.43237 0.9203 0.0
C884 C 0.78492 0.42545 0.93771 0.0
C885 C 0.7911 0.45055 0.93736 0.0
C886 C 0.77528 0.46657 0.92752 0.0
C887 C 0.75279 0.45753 0.91915 0.0
C888 C 0.81418 0.45962 0.94774 0.0
C889 C 0.83193 0.4672 0.93167 0.0
C890 C 0.81953 0.45745 0.97295 0.0
C891 C 0.80101 0.45093 0.99085 0.0
C892 C 0.78084 0.46469 0.99289 0.0
C893 C 0.76375 0.45895 0.01032 0.0
C894 C 0.7667 0.43955 0.02588 0.0
C895 C 0.78675 0.42584 0.02402 0.0
C896 C 0.80388 0.4315 0.00661 0.0
C897 C 0.91268 0.51067 0.98598 0.0
C898 C 0.92947 0.4937 0.99172 0.0
C899 C 0.89007 0.5026 0.97793 0.0
C900 C 0.88384 0.47753 0.97607 0.0
C901 C 0.89965 0.46054 0.98422 0.0
C902 C 0.92263 0.46863 0.99193 0.0
C903 C 0.86065 0.4695 0.9654 0.0
C904 C 0.84285 0.46224 0.98147 0.0
C905 C 0.8553 0.47215 0.9402 0.0
C906 C 0.87376 0.47911 0.92226 0.0
C907 C 0.89402 0.46554 0.9198 0.0
C908 C 0.91074 0.47136 0.902 0.0
C909 C 0.90734 0.49065 0.88643 0.0
C910 C 0.88723 0.5042 0.88868 0.0
C911 C 0.87047 0.49847 0.90647 0.0
H912 H 0.92023 0.49504 0.87257 0.0
H913 H 0.75348 0.43519 0.03942 0.0
H914 H 0.77364 0.52509 0.44782 0.0
H915 H 0.73364 0.51654 0.46363 0.0
H916 H 0.71405 0.58792 0.44191 0.0
H917 H 0.7542 0.5968 0.42735 0.0
H918 H 0.69747 0.5806 0.48411 0.0
H919 H 0.69782 0.53187 0.40928 0.0
H920 H 0.71171 0.50055 0.38013 0.0
H921 H 0.69733 0.44486 0.4323 0.0
H922 H 0.68384 0.47594 0.46198 0.0
H923 H 0.57157 0.5612 0.47291 0.0
H924 H 0.61439 0.5696 0.46899 0.0
H925 H 0.62711 0.50207 0.50423 0.0
H926 H 0.58411 0.49382 0.50832 0.0
H927 H 0.64803 0.50547 0.45913 0.0
H928 H 0.64474 0.5565 0.53265 0.0
H929 H 0.62897 0.58912 0.55897 0.0
H930 H 0.64646 0.642 0.50478 0.0
H931 H 0.66203 0.60962 0.478 0.0
C932 C 0.76069 0.53885 0.4465 0.0
C933 C 0.76686 0.5616 0.43648 0.0
C934 C 0.73784 0.53396 0.45539 0.0
C935 C 0.72065 0.55147 0.45373 0.0
C936 C 0.72694 0.57414 0.44356 0.0
C937 C 0.74984 0.5792 0.43518 0.0
C938 C 0.69616 0.54655 0.46274 0.0
C939 C 0.68665 0.56422 0.47844 0.0
C940 C 0.68206 0.52498 0.45583 0.0
C941 C 0.69018 0.5063 0.438 0.0
C942 C 0.69786 0.51299 0.41464 0.0
C943 C 0.70564 0.49527 0.39801 0.0
C944 C 0.7055 0.47075 0.4044 0.0
C945 C 0.69752 0.46387 0.42741 0.0
C946 C 0.68983 0.48154 0.44415 0.0
C947 C 0.58361 0.54876 0.48079 0.0
C948 C 0.57476 0.5272 0.49142 0.0
C949 C 0.60804 0.55345 0.47841 0.0
C950 C 0.62396 0.53648 0.48639 0.0
C951 C 0.61513 0.51545 0.49809 0.0
C952 C 0.59066 0.51091 0.50072 0.0
C953 C 0.64944 0.5396 0.48024 0.0
C954 C 0.65906 0.52164 0.46501 0.0
C955 C 0.66348 0.56111 0.48711 0.0
C956 C 0.65439 0.58062 0.50329 0.0
C957 C 0.64508 0.57506 0.5263 0.0
C958 C 0.6362 0.59351 0.5413 0.0
C959 C 0.63667 0.61761 0.53353 0.0
C960 C 0.6461 0.62333 0.51077 0.0
C961 C 0.65498 0.60494 0.49569 0.0
H962 H 0.62977 0.63187 0.54517 0.0
H963 H 0.71151 0.45705 0.39149 0.0
H964 H 0.06541 0.23834 0.08524 0.0
H965 H 0.04913 0.27678 0.0728 0.0
H966 H 0.12007 0.31008 0.06876 0.0
H967 H 0.13632 0.27193 0.08134 0.0
H968 H 0.09222 0.34123 0.09063 0.0
H969 H 0.08705 0.29053 0.01685 0.0
H970 H 0.07516 0.25543 0.98868 0.0
H971 H 1.0017 0.26789 0.99985 0.0
H972 H 0.01314 0.30281 0.02842 0.0
H973 H 0.06054 0.44802 0.02699 0.0
H974 H 0.07864 0.40987 0.03767 0.0
H975 H 0.00895 0.37323 0.04019 0.0
H976 H 0.99105 0.41124 0.02966 0.0
H977 H 0.0373 0.34405 0.01891 0.0
H978 H 0.04226 0.39506 0.0926 0.0
H979 H 0.054 0.43014 0.12085 0.0
H980 H 0.1275 0.41737 0.11057 0.0
H981 H 0.11625 0.38252 0.08185 0.0
C982 C 0.07752 0.25389 0.08181 0.0
C983 C 0.10221 0.2519 0.08413 0.0
C984 C 0.0682 0.27585 0.07449 0.0
C985 C 0.08333 0.29642 0.06948 0.0
C986 C 0.10795 0.29457 0.07234 0.0
C987 C 0.11725 0.27262 0.0794 0.0
C988 C 0.0737 0.31993 0.06147 0.0
C989 C 0.08045 0.34189 0.07473 0.0
C990 C 0.05786 0.32091 0.04109 0.0
C991 C 0.05096 0.29906 0.02506 0.0
C992 C 0.06836 0.28553 0.01362 0.0
C993 C 0.0617 0.26573 0.9975 0.0
C994 C 0.03769 0.25938 0.99254 0.0
C995 C 0.02029 0.27277 0.00377 0.0
C996 C 0.02685 0.29255 0.01994 0.0
C997 C 0.04921 0.4315 0.02879 0.0
C998 C 0.02439 0.43235 0.0265 0.0
C999 C 0.05953 0.40983 0.03552 0.0
C1000 C 0.04521 0.38856 0.04013 0.0
C1001 C 0.02048 0.38924 0.03678 0.0
C1002 C 0.01022 0.4109 0.03036 0.0
C1003 C 0.05563 0.36542 0.04812 0.0
C1004 C 0.04906 0.34348 0.03483 0.0
C1005 C 0.07157 0.36453 0.06853 0.0
C1006 C 0.07838 0.3864 0.08468 0.0
C1007 C 0.06093 0.39999 0.09598 0.0
C1008 C 0.06751 0.41979 0.11218 0.0
C1009 C 0.09148 0.42607 0.11739 0.0
C1010 C 0.10894 0.41257 0.10642 0.0
C1011 C 0.10247 0.39283 0.09014 0.0
H1012 H 0.09653 0.44132 0.13001 0.0
H1013 H 0.03258 0.24413 0.97994 0.0
H1014 H 0.54753 0.27899 0.90743 0.0
H1015 H 0.53666 0.23796 0.92123 0.0
H1016 H 0.61047 0.22654 0.93613 0.0
H1017 H 0.62162 0.2667 0.92073 0.0
H1018 H 0.59163 0.18975 0.91043 0.0
H1019 H 0.56977 0.23375 0.98267 0.0
H1020 H 0.5503 0.26607 0.00608 0.0
H1021 H 0.48199 0.23567 0.9805 0.0
H1022 H 0.50106 0.20335 0.95662 0.0
H1023 H 0.56818 0.08237 0.98101 0.0
H1024 H 0.58137 0.12135 0.96369 0.0
H1025 H 0.51111 0.12828 0.9333 0.0
H1026 H 0.49814 0.08901 0.95016 0.0
H1027 H 0.52818 0.16738 0.9687 0.0
H1028 H 0.55194 0.12431 0.89535 0.0
H1029 H 0.57254 0.09138 0.87418 0.0
H1030 H 0.63923 0.12083 0.90521 0.0
H1031 H 0.61889 0.15369 0.92695 0.0
C1032 C 0.56146 0.26772 0.91357 0.0
C1033 C 0.58545 0.27609 0.91276 0.0
C1034 C 0.55518 0.24441 0.92183 0.0
C1035 C 0.57276 0.22925 0.92986 0.0
C1036 C 0.59663 0.23794 0.93 0.0
C1037 C 0.60294 0.26105 0.92141 0.0
C1038 C 0.56649 0.20357 0.93601 0.0
C1039 C 0.578 0.18497 0.92348 0.0
C1040 C 0.54844 0.19726 0.95273 0.0
C1041 C 0.53686 0.21621 0.96771 0.0
C1042 C 0.55059 0.234 0.98195 0.0
C1043 C 0.53963 0.25233 0.9953 0.0
C1044 C 0.51493 0.25295 0.99474 0.0
C1045 C 0.50113 0.23517 0.98091 0.0
C1046 C 0.512 0.21681 0.9675 0.0
C1047 C 0.55609 0.09124 0.969 0.0
C1048 C 0.53212 0.0829 0.96708 0.0
C1049 C 0.56342 0.1139 0.95977 0.0
C1050 C 0.54691 0.12799 0.94804 0.0
C1051 C 0.52394 0.11783 0.94278 0.0
C1052 C 0.51678 0.09501 0.9517 0.0
C1053 C 0.55322 0.15387 0.94289 0.0
C1054 C 0.54179 0.17239 0.95571 0.0
C1055 C 0.57156 0.16024 0.92674 0.0
C1056 C 0.58392 0.14131 0.91283 0.0
C1057 C 0.57099 0.1237 0.89769 0.0
C1058 C 0.58261 0.10504 0.88563 0.0
C1059 C 0.60718 0.10399 0.88837 0.0
C1060 C 0.6202 0.12167 0.90311 0.0
C1061 C 0.60865 0.14032 0.91529 0.0
H1062 H 0.61615 0.08949 0.87906 0.0
H1063 H 0.50647 0.26719 0.00504 0.0
H1064 H 0.95921 0.71935 0.43994 0.0
H1065 H 0.97478 0.76138 0.45073 0.0
H1066 H 0.90395 0.78178 0.4668 0.0
H1067 H 0.88831 0.74047 0.45532 0.0
H1068 H 0.92468 0.81429 0.43947 0.0
H1069 H 0.94737 0.7735 0.51232 0.0
H1070 H 0.96766 0.74393 0.53714 0.0
H1071 H 0.03517 0.77193 0.51175 0.0
H1072 H 0.01524 0.80144 0.48649 0.0
H1073 H 0.93969 0.9286 0.49954 0.0
H1074 H 0.93257 0.88417 0.49445 0.0
H1075 H 0.00574 0.87762 0.47545 0.0
H1076 H 0.01289 0.92232 0.48066 0.0
H1077 H 0.98812 0.83796 0.5015 0.0
H1078 H 0.96493 0.87989 0.43002 0.0
H1079 H 0.94428 0.90856 0.40438 0.0
H1080 H 0.87689 0.87765 0.42719 0.0
H1081 H 0.89713 0.84902 0.45318 0.0
C1082 C 0.94696 0.73283 0.44572 0.0
C1083 C 0.92246 0.72634 0.44689 0.0
C1084 C 0.95594 0.75682 0.45216 0.0
C1085 C 0.94062 0.77484 0.45988 0.0
C1086 C 0.91623 0.76831 0.46104 0.0
C1087 C 0.9073 0.74449 0.45464 0.0
C1088 C 0.94938 0.80087 0.46553 0.0
C1089 C 0.93834 0.8194 0.45331 0.0
C1090 C 0.9679 0.80772 0.48282 0.0
C1091 C 0.97979 0.78941 0.49725 0.0
C1092 C 0.96651 0.77311 0.51176 0.0
C1093 C 0.97796 0.75642 0.52598 0.0
C1094 C 1.00268 0.75598 0.52595 0.0
C1095 C 0.01602 0.77223 0.5117 0.0
C1096 C 0.00466 0.78893 0.49742 0.0
C1097 C 0.95459 0.91757 0.49564 0.0
C1098 C 0.97698 0.92896 0.49108 0.0
C1099 C 0.95037 0.89218 0.49215 0.0
C1100 C 0.96843 0.87754 0.48388 0.0
C1101 C 0.99145 0.88851 0.48167 0.0
C1102 C 0.99568 0.91405 0.48515 0.0
C1103 C 0.96271 0.85128 0.47613 0.0
C1104 C 0.97446 0.83278 0.48769 0.0
C1105 C 0.94471 0.84435 0.45827 0.0
C1106 C 0.93257 0.86255 0.4438 0.0
C1107 C 0.94573 0.87947 0.42987 0.0
C1108 C 0.93408 0.89564 0.41517 0.0
C1109 C 0.90929 0.89498 0.41421 0.0
C1110 C 0.89609 0.8782 0.42799 0.0
C1111 C 0.90763 0.86201 0.4427 0.0
H1112 H 0.90032 0.90743 0.40274 0.0
H1113 H 0.01151 0.74311 0.53705 0.0
H1114 H 0.41033 0.75573 0.60849 0.0
H1115 H 0.4267 0.71663 0.59698 0.0
H1116 H 0.44336 0.74371 0.52546 0.0
H1117 H 0.42578 0.78243 0.53664 0.0
H1118 H 0.42353 0.69982 0.5207 0.0
H1119 H 0.48801 0.73615 0.57426 0.0
H1120 H 0.50515 0.75487 0.61306 0.0
H1121 H 0.47828 0.69271 0.6522 0.0
H1122 H 0.46094 0.67368 0.61369 0.0
H1123 H 0.48768 0.58966 0.4945 0.0
H1124 H 0.4795 0.63355 0.49938 0.0
H1125 H 0.4506 0.6205 0.57075 0.0
H1126 H 0.45833 0.57801 0.56637 0.0
H1127 H 0.48204 0.65964 0.57217 0.0
H1128 H 0.41435 0.62532 0.52569 0.0
H1129 H 0.39291 0.60391 0.49057 0.0
H1130 H 0.41976 0.65917 0.44261 0.0
H1131 H 0.44172 0.6807 0.47743 0.0
C1132 C 0.41761 0.75326 0.59037 0.0
C1133 C 0.41684 0.77187 0.57336 0.0
C1134 C 0.42716 0.73106 0.58387 0.0
C1135 C 0.43676 0.72741 0.56051 0.0
C1136 C 0.43614 0.74616 0.5436 0.0
C1137 C 0.42611 0.76819 0.54993 0.0
C1138 C 0.44613 0.70355 0.55316 0.0
C1139 C 0.43681 0.69133 0.53163 0.0
C1140 C 0.46274 0.69201 0.56794 0.0
C1141 C 0.47312 0.70356 0.5911 0.0
C1142 C 0.48568 0.72654 0.59116 0.0
C1143 C 0.49546 0.73718 0.6131 0.0
C1144 C 0.49279 0.725 0.63508 0.0
C1145 C 0.48037 0.70212 0.63517 0.0
C1146 C 0.47062 0.69138 0.61329 0.0
C1147 C 0.47959 0.59629 0.51114 0.0
C1148 C 0.4737 0.5802 0.52993 0.0
C1149 C 0.47493 0.62123 0.51391 0.0
C1150 C 0.46466 0.63016 0.53556 0.0
C1151 C 0.45877 0.61407 0.55405 0.0
C1152 C 0.46314 0.58956 0.55129 0.0
C1153 C 0.45953 0.65612 0.5397 0.0
C1154 C 0.46941 0.66859 0.5608 0.0
C1155 C 0.44287 0.66752 0.52504 0.0
C1156 C 0.43004 0.65437 0.50405 0.0
C1157 C 0.41597 0.63272 0.50759 0.0
C1158 C 0.40365 0.6206 0.48776 0.0
C1159 C 0.40507 0.6301 0.46434 0.0
C1160 C 0.41876 0.65177 0.46073 0.0
C1161 C 0.43117 0.66393 0.4805 0.0
H1162 H 0.39548 0.62073 0.44901 0.0
H1163 H 0.50037 0.73327 0.65203 0.0
H1164 H 0.89364 0.90358 0.75248 0.0
H1165 H 0.90744 0.913 0.71128 0.0
H1166 H 0.96363 0.96163 0.74335 0.0
H1167 H 0.94959 0.95219 0.78467 0.0
H1168 H 0.94296 0.98309 0.70664 0.0
H1169 H 0.97574 0.90661 0.71615 0.0
H1170 H 0.97725 0.86297 0.72552 0.0
H1171 H 0.92706 0.84339 0.66683 0.0
H1172 H 0.92501 0.887 0.65731 0.0
H1173 H 0.01896 0.99283 0.60815 0.0
H1174 H 1.00011 0.9797 0.64489 0.0
H1175 H 0.93854 0.95153 0.60266 0.0
H1176 H 0.95739 0.96568 0.56449 0.0
H1177 H 0.95893 0.91953 0.64271 0.0
H1178 H 0.93082 1.00046 0.63296 0.0
H1179 H 0.93481 0.0447 0.6254 0.0
H1180 H 0.98345 0.0561 0.68687 0.0
H1181 H 0.97998 0.01188 0.69462 0.0
C1182 C 0.90906 0.91611 0.75065 0.0
C1183 C 0.92062 0.92712 0.77164 0.0
C1184 C 0.91701 0.92144 0.72712 0.0
C1185 C 0.93672 0.93794 0.72402 0.0
C1186 C 0.94838 0.94887 0.74513 0.0
C1187 C 0.94045 0.94343 0.76873 0.0
C1188 C 0.94452 0.94437 0.69879 0.0
C1189 C 0.94657 0.96914 0.69277 0.0
C1190 C 0.94907 0.92629 0.68041 0.0
C1191 C 0.94999 0.90009 0.68621 0.0
C1192 C 0.96483 0.89302 0.70541 0.0
C1193 C 0.96583 0.86829 0.71071 0.0
C1194 C 0.9522 0.85042 0.69683 0.0
C1195 C 0.93757 0.85726 0.6776 0.0
C1196 C 0.93649 0.88198 0.67223 0.0
C1197 C 1.00137 0.98387 0.60611 0.0
C1198 C 0.98971 0.98067 0.58286 0.0
C1199 C 0.99059 0.97635 0.62751 0.0
C1200 C 0.9678 0.96496 0.62675 0.0
C1201 C 0.95616 0.96053 0.60369 0.0
C1202 C 0.96696 0.96852 0.58186 0.0
C1203 C 0.95687 0.95816 0.65053 0.0
C1204 C 0.95469 0.93337 0.65645 0.0
C1205 C 0.95285 0.97626 0.66907 0.0
C1206 C 0.95524 0.00282 0.66426 0.0
C1207 C 0.94254 0.01237 0.64472 0.0
C1208 C 0.94467 0.03745 0.64044 0.0
C1209 C 0.9594 0.0532 0.65562 0.0
C1210 C 0.97204 0.04389 0.67512 0.0
C1211 C 0.96997 0.01882 0.67949 0.0
H1212 H 0.96099 0.07262 0.65229 0.0
H1213 H 0.95302 0.83127 0.70094 0.0
H1214 H 0.58852 0.05772 0.2875 0.0
H1215 H 0.57384 0.04118 0.24711 0.0
H1216 H 0.587 0.11254 0.21691 0.0
H1217 H 0.60081 0.12911 0.25728 0.0
H1218 H 0.54541 0.09429 0.20227 0.0
H1219 H 0.62342 0.06473 0.20689 0.0
H1220 H 0.65618 0.04268 0.22448 0.0
H1221 H 0.61335 0.97504 0.21796 0.0
H1222 H 0.58016 0.9968 0.20076 0.0
H1223 H 0.55687 0.07561 0.07717 0.0
H1224 H 0.56634 0.08097 0.12072 0.0
H1225 H 0.53217 0.01002 0.13343 0.0
H1226 H 0.52185 0.0047 0.08918 0.0
H1227 H 0.5782 0.02272 0.15912 0.0
H1228 H 0.50148 0.05545 0.14848 0.0
H1229 H 0.47117 0.08042 0.13031 0.0
H1230 H 0.51573 0.14579 0.14584 0.0
H1231 H 0.54641 0.12121 0.16384 0.0
C1232 C 0.58839 0.06969 0.2721 0.0
C1233 C 0.5957 0.09461 0.2753 0.0
C1234 C 0.58004 0.06029 0.2491 0.0
C1235 C 0.5794 0.07561 0.22896 0.0
C1236 C 0.58714 0.10042 0.2322 0.0
C1237 C 0.5951 0.10985 0.25518 0.0
C1238 C 0.57036 0.06613 0.20449 0.0
C1239 C 0.55267 0.0787 0.19281 0.0
C1240 C 0.57939 0.04543 0.19238 0.0
C1241 C 0.59922 0.03242 0.20288 0.0
C1242 C 0.6209 0.0452 0.20946 0.0
C1243 C 0.63956 0.03275 0.21932 0.0
C1244 C 0.63682 0.00749 0.22242 0.0
C1245 C 0.61542 0.99462 0.21563 0.0
C1246 C 0.59668 0.00699 0.20585 0.0
C1247 C 0.55171 0.06085 0.08909 0.0
C1248 C 0.5385 0.03975 0.07983 0.0
C1249 C 0.55696 0.06408 0.114 0.0
C1250 C 0.54937 0.04621 0.13026 0.0
C1251 C 0.53783 0.02416 0.12103 0.0
C1252 C 0.53226 0.02097 0.09583 0.0
C1253 C 0.55372 0.05123 0.15682 0.0
C1254 C 0.57058 0.03794 0.16886 0.0
C1255 C 0.54438 0.0717 0.16905 0.0
C1256 C 0.5263 0.08643 0.15738 0.0
C1257 C 0.50493 0.07511 0.14777 0.0
C1258 C 0.48765 0.08922 0.13757 0.0
C1259 C 0.49153 0.11467 0.1369 0.0
C1260 C 0.51274 0.12607 0.14637 0.0
C1261 C 0.53006 0.11207 0.15659 0.0
H1262 H 0.4781 0.12555 0.12908 0.0
H1263 H 0.6513 0.99787 0.23001 0.0
H1264 H 0.39874 0.56236 0.2529 0.0
H1265 H 0.41142 0.55218 0.29398 0.0
H1266 H 0.44433 0.62487 0.30592 0.0
H1267 H 0.42984 0.63631 0.26587 0.0
H1268 H 0.4716 0.57894 0.31903 0.0
H1269 H 0.39967 0.62167 0.33199 0.0
H1270 H 0.35751 0.62963 0.3256 0.0
H1271 H 0.33711 0.55594 0.34478 0.0
H1272 H 0.37922 0.54745 0.35089 0.0
H1273 H 0.49624 0.56716 0.44434 0.0
H1274 H 0.48117 0.58709 0.40827 0.0
H1275 H 0.427 0.52837 0.39749 0.0
H1276 H 0.44221 0.50851 0.43339 0.0
H1277 H 0.41121 0.57 0.38363 0.0
H1278 H 0.47997 0.52505 0.36987 0.0
H1279 H 0.52105 0.51216 0.37196 0.0
H1280 H 0.54719 0.58364 0.35114 0.0
H1281 H 0.50628 0.59707 0.34925 0.0
C1282 C 0.40826 0.57648 0.26425 0.0
C1283 C 0.41269 0.60042 0.25596 0.0
C1284 C 0.41575 0.57044 0.28764 0.0
C1285 C 0.4285 0.58791 0.30285 0.0
C1286 C 0.43436 0.61126 0.29429 0.0
C1287 C 0.42622 0.61761 0.2712 0.0
C1288 C 0.43501 0.58195 0.32805 0.0
C1289 C 0.45862 0.57745 0.33342 0.0
C1290 C 0.41772 0.57914 0.34623 0.0
C1291 C 0.39255 0.58386 0.34156 0.0
C1292 C 0.3862 0.60706 0.33445 0.0
C1293 C 0.36232 0.61169 0.33099 0.0
C1294 C 0.34464 0.59328 0.33471 0.0
C1295 C 0.35082 0.57016 0.34185 0.0
C1296 C 0.37468 0.56544 0.3453 0.0
C1297 C 0.48008 0.55948 0.43527 0.0
C1298 C 0.47034 0.53635 0.44148 0.0
C1299 C 0.47196 0.57046 0.41424 0.0
C1300 C 0.45361 0.55865 0.39975 0.0
C1301 C 0.44145 0.53758 0.40826 0.0
C1302 C 0.44971 0.52655 0.42917 0.0
C1303 C 0.44801 0.5671 0.37501 0.0
C1304 C 0.42446 0.57187 0.36954 0.0
C1305 C 0.46536 0.56958 0.35659 0.0
C1306 C 0.49006 0.56223 0.35993 0.0
C1307 C 0.4945 0.53819 0.36626 0.0
C1308 C 0.51776 0.53073 0.36724 0.0
C1309 C 0.53673 0.5471 0.3618 0.0
C1310 C 0.5325 0.57101 0.35547 0.0
C1311 C 0.50929 0.57856 0.35449 0.0
H1312 H 0.5547 0.54123 0.36238 0.0
H1313 H 0.32615 0.59694 0.33215 0.0
H1314 H 0.05739 0.47058 0.72679 0.0
H1315 H 0.0488 0.48292 0.76952 0.0
H1316 H 0.08952 0.42425 0.79536 0.0
H1317 H 0.09758 0.41179 0.75289 0.0
H1318 H 0.04708 0.42504 0.81686 0.0
H1319 H 0.11111 0.48711 0.798 0.0
H1320 H 0.12762 0.52207 0.775 0.0
H1321 H 0.06717 0.56284 0.79291 0.0
H1322 H 0.05028 0.52808 0.81586 0.0
H1323 H 0.03496 0.45133 0.94285 0.0
H1324 H 0.05449 0.44195 0.90402 0.0
H1325 H 0.04166 0.51489 0.88046 0.0
H1326 H 0.02755 0.52531 0.92046 0.0
H1327 H 0.07132 0.50601 0.85597 0.0
H1328 H 0.00285 0.44888 0.87017 0.0
H1329 H 0.98014 0.41528 0.89001 0.0
H1330 H 0.03668 0.36757 0.87701 0.0
H1331 H 0.05978 0.40092 0.85736 0.0
C1332 C 0.06458 0.4606 0.74175 0.0
C1333 C 0.07815 0.44038 0.7369 0.0
C1334 C 0.05976 0.46763 0.76604 0.0
C1335 C 0.06869 0.45459 0.78563 0.0
C1336 C 0.08246 0.43454 0.78056 0.0
C1337 C 0.08712 0.42749 0.7564 0.0
C1338 C 0.06327 0.46097 0.81151 0.0
C1339 C 0.05228 0.44277 0.82558 0.0
C1340 C 0.06925 0.48431 0.82254 0.0
C1341 C 0.07941 0.50497 0.80848 0.0
C1342 C 0.1013 0.50348 0.79688 0.0
C1343 C 0.11073 0.52327 0.7839 0.0
C1344 C 0.09844 0.54464 0.78247 0.0
C1345 C 0.07668 0.54628 0.79402 0.0
C1346 C 0.0672 0.52657 0.80704 0.0
C1347 C 0.03792 0.46563 0.92982 0.0
C1348 C 0.02984 0.48902 0.93459 0.0
C1349 C 0.04816 0.46005 0.90711 0.0
C1350 C 0.04839 0.47708 0.88816 0.0
C1351 C 0.04202 0.50103 0.89412 0.0
C1352 C 0.03386 0.50712 0.91728 0.0
C1353 C 0.05394 0.47035 0.86198 0.0
C1354 C 0.0653 0.48838 0.84764 0.0
C1355 C 0.04691 0.44725 0.85033 0.0
C1356 C 0.03315 0.42748 0.86265 0.0
C1357 C 0.01048 0.43127 0.87173 0.0
C1358 C 0.99754 0.41227 0.88291 0.0
C1359 C 0.007 0.38934 0.88486 0.0
C1360 C 0.0294 0.38535 0.87558 0.0
C1361 C 0.04242 0.40428 0.86445 0.0
H1362 H 0.99695 0.37465 0.89349 0.0
H1363 H 0.10579 0.55994 0.77244 0.0
H1364 H 0.76581 0.91189 0.96672 0.0
H1365 H 0.72717 0.92636 0.97604 0.0
H1366 H 0.72425 0.96054 0.90628 0.0
H1367 H 0.76209 0.94447 0.89551 0.0
H1368 H 0.70985 0.99104 0.94649 0.0
H1369 H 0.69199 0.91104 0.91136 0.0
H1370 H 0.69603 0.86654 0.90604 0.0
H1371 H 0.67357 0.85631 0.97999 0.0
H1372 H 0.66983 0.90087 0.98593 0.0
H1373 H 0.58477 0.01465 0.95928 0.0
H1374 H 0.62402 0.00408 0.94441 0.0
H1375 H 0.63095 0.95532 0.0042 0.0
H1376 H 0.59217 0.96566 0.01878 0.0
H1377 H 0.6427 0.93216 0.96434 0.0
H1378 H 0.66301 0.01258 1.00009 0.0
H1379 H 0.66084 0.05732 0.00578 0.0
H1380 H 0.67972 0.06676 0.93059 0.0
H1381 H 0.68154 0.02199 0.92433 0.0
C1382 C 0.75707 0.92188 0.9528 0.0
C1383 C 0.7677 0.92626 0.92992 0.0
C1384 C 0.7348 0.93051 0.95847 0.0
C1385 C 0.72252 0.94442 0.94184 0.0
C1386 C 0.73327 0.94981 0.91948 0.0
C1387 C 0.75529 0.94063 0.91345 0.0
C1388 C 0.69838 0.95293 0.94781 0.0
C1389 C 0.69504 0.97816 0.95 0.0
C1390 C 0.67903 0.93623 0.95275 0.0
C1391 C 0.68087 0.90936 0.94918 0.0
C1392 C 0.6881 0.89935 0.92657 0.0
C1393 C 0.69032 0.8741 0.92343 0.0
C1394 C 0.68512 0.85862 0.94269 0.0
C1395 C 0.67762 0.86834 0.9651 0.0
C1396 C 0.67544 0.8936 0.96837 0.0
C1397 C 0.59509 0.00244 0.96975 0.0
C1398 C 0.58541 0.9915 0.99062 0.0
C1399 C 0.61749 0.99609 0.96106 0.0
C1400 C 0.63077 0.97874 0.97307 0.0
C1401 C 0.62132 0.96859 0.99435 0.0
C1402 C 0.59915 0.97485 0.00294 0.0
C1403 C 0.65413 0.97049 0.9636 0.0
C1404 C 0.65737 0.94516 0.96069 0.0
C1405 C 0.67339 0.98712 0.95799 0.0
C1406 C 0.67205 0.01394 0.96165 0.0
C1407 C 0.66643 0.02418 0.9847 0.0
C1408 C 0.6653 0.04954 0.98804 0.0
C1409 C 0.67005 0.06487 0.96854 0.0
C1410 C 0.67597 0.05486 0.94566 0.0
C1411 C 0.67702 0.0295 0.9422 0.0
H1412 H 0.66921 0.08451 0.97117 0.0
H1413 H 0.68686 0.83907 0.94022 0.0
H1414 H 0.74029 0.07862 0.46284 0.0
H1415 H 0.77934 0.06614 0.47676 0.0
H1416 H 0.81244 0.10625 0.41844 0.0
H1417 H 0.77341 0.11792 0.40423 0.0
H1418 H 0.82855 0.0632 0.41917 0.0
H1419 H 0.81647 0.12535 0.48165 0.0
H1420 H 0.79544 0.14537 0.51539 0.0
H1421 H 0.79954 0.08105 0.55786 0.0
H1422 H 0.82027 0.06051 0.52419 0.0
H1423 H 0.94885 0.05636 0.45085 0.0
H1424 H 0.90974 0.0719 0.44356 0.0
H1425 H 0.88266 0.03222 0.50511 0.0
H1426 H 0.92229 0.01747 0.51297 0.0
H1427 H 0.86217 0.07288 0.50391 0.0
H1428 H 0.87465 0.01098 0.44135 0.0
H1429 H 0.89281 0.98979 0.40633 0.0
H1430 H 0.88646 0.05322 0.36301 0.0
H1431 H 0.86857 0.07488 0.39785 0.0
C1432 C 0.75603 0.08497 0.45332 0.0
C1433 C 0.75405 0.09929 0.4326 0.0
C1434 C 0.77833 0.07793 0.46128 0.0
C1435 C 0.79901 0.08541 0.44882 0.0
C1436 C 0.79686 0.10019 0.4284 0.0
C1437 C 0.77462 0.10697 0.42033 0.0
C1438 C 0.82275 0.0768 0.45592 0.0
C1439 C 0.83606 0.06572 0.43764 0.0
C1440 C 0.83225 0.07908 0.4802 0.0
C1441 C 0.81966 0.09132 0.50032 0.0
C1442 C 0.81268 0.11541 0.4981 0.0
C1443 C 0.80085 0.12686 0.51722 0.0
C1444 C 0.79609 0.11447 0.53873 0.0
C1445 C 0.80319 0.09061 0.54117 0.0
C1446 C 0.81498 0.07906 0.52208 0.0
C1447 C 0.93473 0.0517 0.46336 0.0
C1448 C 0.93874 0.03619 0.48283 0.0
C1449 C 0.9122 0.06016 0.45887 0.0
C1450 C 0.89288 0.0527 0.47327 0.0
C1451 C 0.89715 0.03819 0.49358 0.0
C1452 C 0.91988 0.03001 0.49831 0.0
C1453 C 0.86834 0.05983 0.46696 0.0
C1454 C 0.85476 0.07044 0.48541 0.0
C1455 C 0.85853 0.05715 0.44274 0.0
C1456 C 0.87059 0.04464 0.42233 0.0
C1457 C 0.87747 0.02052 0.42448 0.0
C1458 C 0.88761 0.0084 0.40462 0.0
C1459 C 0.89086 0.02018 0.38249 0.0
C1460 C 0.88401 0.04414 0.38018 0.0
C1461 C 0.87389 0.05634 0.39997 0.0
H1462 H 0.89861 0.01072 0.36711 0.0
H1463 H 0.78696 0.12338 0.55353 0.0
H1464 H 0.26742 0.60873 0.05531 0.0
H1465 H 0.22807 0.59278 0.04102 0.0
H1466 H 0.20833 0.5798 0.1157 0.0
H1467 H 0.24731 0.59681 0.1304 0.0
H1468 H 0.19612 0.54014 0.07977 0.0
H1469 H 0.18832 0.62565 0.0954 0.0
H1470 H 0.19905 0.66984 0.09306 0.0
H1471 H 0.18853 0.66489 0.01474 0.0
H1472 H 0.17814 0.6205 0.01658 0.0
H1473 H 0.0745 0.53006 0.0781 0.0
H1474 H 0.11495 0.54655 0.08491 0.0
H1475 H 0.12229 0.55603 0.0071 0.0
H1476 H 0.08099 0.53942 0.99997 0.0
H1477 H 0.14205 0.5962 0.0403 0.0
H1478 H 0.14615 0.50887 0.02735 0.0
H1479 H 0.13371 0.4655 0.0332 0.0
H1480 H 0.14893 0.47505 0.11057 0.0
H1481 H 0.16128 0.51857 0.10522 0.0
C1482 C 0.25467 0.60267 0.06874 0.0
C1483 C 0.26035 0.60428 0.094 0.0
C1484 C 0.23233 0.59344 0.06052 0.0
C1485 C 0.21549 0.5854 0.07739 0.0
C1486 C 0.2213 0.58598 0.10252 0.0
C1487 C 0.24356 0.59555 0.11082 0.0
C1488 C 0.19156 0.57699 0.06872 0.0
C1489 C 0.18423 0.55234 0.07122 0.0
C1490 C 0.17642 0.59304 0.05731 0.0
C1491 C 0.18279 0.61968 0.05608 0.0
C1492 C 0.18859 0.63391 0.07764 0.0
C1493 C 0.19454 0.65901 0.07642 0.0
C1494 C 0.19456 0.67015 0.05375 0.0
C1495 C 0.18858 0.65621 0.03227 0.0
C1496 C 0.18265 0.63108 0.03339 0.0
C1497 C 0.08462 0.53567 0.06235 0.0
C1498 C 0.07492 0.53298 0.03841 0.0
C1499 C 0.10769 0.54512 0.06632 0.0
C1500 C 0.12158 0.55183 0.04644 0.0
C1501 C 0.11169 0.55059 0.02256 0.0
C1502 C 0.08827 0.54118 0.01853 0.0
C1503 C 0.14664 0.55931 0.05123 0.0
C1504 C 0.15417 0.58385 0.04826 0.0
C1505 C 0.16186 0.54323 0.06257 0.0
C1506 C 0.15462 0.517 0.06587 0.0
C1507 C 0.14675 0.50176 0.04563 0.0
C1508 C 0.13973 0.47714 0.04885 0.0
C1509 C 0.14054 0.46753 0.07224 0.0
C1510 C 0.14837 0.48252 0.09246 0.0
C1511 C 0.15544 0.50714 0.08933 0.0
H1512 H 0.13513 0.44847 0.07466 0.0
H1513 H 0.19914 0.6896 0.05284 0.0
H1514 H 0.24661 0.46265 0.6148 0.0
H1515 H 0.28545 0.47272 0.59784 0.0
H1516 H 0.26187 0.43994 0.52782 0.0
H1517 H 0.22245 0.43099 0.54404 0.0
H1518 H 0.30602 0.4239 0.54579 0.0
H1519 H 0.26935 0.49984 0.53131 0.0
H1520 H 0.24754 0.53607 0.54316 0.0
H1521 H 0.30142 0.55794 0.59761 0.0
H1522 H 0.32344 0.52171 0.58621 0.0
H1523 H 0.41922 0.4623 0.49438 0.0
H1524 H 0.37579 0.45482 0.49858 0.0
H1525 H 0.37937 0.49709 0.56717 0.0
H1526 H 0.42154 0.50497 0.5628 0.0
H1527 H 0.34268 0.50846 0.54335 0.0
H1528 H 0.37708 0.43363 0.564 0.0
H1529 H 0.39912 0.39635 0.55801 0.0
H1530 H 0.35092 0.37105 0.49929 0.0
H1531 H 0.32882 0.40841 0.50469 0.0
C1532 C 0.24932 0.45804 0.59562 0.0
C1533 C 0.23108 0.44594 0.5809 0.0
C1534 C 0.2717 0.46368 0.586 0.0
C1535 C 0.27652 0.45715 0.56155 0.0
C1536 C 0.25852 0.4451 0.54677 0.0
C1537 C 0.23599 0.43981 0.55622 0.0
C1538 C 0.3006 0.46224 0.55172 0.0
C1539 C 0.31392 0.44241 0.54471 0.0
C1540 C 0.31112 0.48631 0.55108 0.0
C1541 C 0.29791 0.50802 0.55802 0.0
C1542 C 0.27644 0.5123 0.54593 0.0
C1543 C 0.26408 0.53285 0.55253 0.0
C1544 C 0.27307 0.54928 0.57116 0.0
C1545 C 0.29448 0.54521 0.58319 0.0
C1546 C 0.30692 0.5247 0.57664 0.0
C1547 C 0.41052 0.47019 0.51007 0.0
C1548 C 0.42384 0.48391 0.5284 0.0
C1549 C 0.38581 0.46578 0.5126 0.0
C1550 C 0.37427 0.47519 0.53337 0.0
C1551 C 0.38764 0.48961 0.55099 0.0
C1552 C 0.41192 0.49395 0.5485 0.0
C1553 C 0.34848 0.47005 0.5377 0.0
C1554 C 0.33474 0.48991 0.54383 0.0
C1555 C 0.33786 0.44595 0.53826 0.0
C1556 C 0.35162 0.424 0.5344 0.0
C1557 C 0.37142 0.42029 0.54956 0.0
C1558 C 0.38386 0.39911 0.54633 0.0
C1559 C 0.3765 0.3814 0.52819 0.0
C1560 C 0.35667 0.38483 0.51325 0.0
C1561 C 0.34421 0.40601 0.51636 0.0
H1562 H 0.38611 0.36497 0.52578 0.0
H1563 H 0.26347 0.56518 0.57624 0.0
H1564 H 0.90851 0.77914 0.9654 0.0
H1565 H 0.9187 0.73939 0.98032 0.0
H1566 H 0.95134 0.72266 0.91128 0.0
H1567 H 0.93945 0.76096 0.89556 0.0
H1568 H 0.92923 0.68458 0.92266 0.0
H1569 H 0.98259 0.7406 0.96998 0.0
H1570 H 0.99457 0.77496 0.99905 0.0
H1571 H 0.95445 0.74028 0.05571 0.0
H1572 H 0.94198 0.70587 0.02686 0.0
H1573 H 0.00786 0.59503 0.95139 0.0
H1574 H 0.99019 0.63341 0.94374 0.0
H1575 H 0.94836 0.62576 0.00861 0.0
H1576 H 0.96562 0.58607 0.01609 0.0
H1577 H 0.96953 0.67413 0.00287 0.0
H1578 H 0.92001 0.61568 0.95339 0.0
H1579 H 0.90923 0.58268 0.92233 0.0
H1580 H 0.94627 0.62336 0.86744 0.0
H1581 H 0.95739 0.65648 0.89817 0.0
C1582 C 0.9176 0.76695 0.95321 0.0
C1583 C 0.92325 0.77384 0.92919 0.0
C1584 C 0.92381 0.74421 0.96198 0.0
C1585 C 0.93625 0.72784 0.9472 0.0
C1586 C 0.94184 0.73471 0.92328 0.0
C1587 C 0.93528 0.75709 0.91437 0.0
C1588 C 0.94289 0.70325 0.9559 0.0
C1589 C 0.93831 0.68251 0.94012 0.0
C1590 C 0.95405 0.69993 0.97904 0.0
C1591 C 0.96109 0.72085 0.99618 0.0
C1592 C 0.97611 0.74045 0.98856 0.0
C1593 C 0.98304 0.7599 0.00501 0.0
C1594 C 0.9752 0.75985 0.02918 0.0
C1595 C 0.96044 0.74033 0.03696 0.0
C1596 C 0.95344 0.72086 0.02058 0.0
C1597 C 0.99506 0.60142 0.96435 0.0
C1598 C 0.98824 0.58717 0.98446 0.0
C1599 C 0.98477 0.62343 0.95971 0.0
C1600 C 0.96748 0.63237 0.97518 0.0
C1601 C 0.96147 0.6191 0.99617 0.0
C1602 C 0.97158 0.59656 1.00066 0.0
C1603 C 0.95651 0.65585 0.96927 0.0
C1604 C 0.96027 0.67631 0.98554 0.0
C1605 C 0.9451 0.65909 0.94627 0.0
C1606 C 0.93973 0.63845 0.92818 0.0
C1607 C 0.92615 0.61742 0.93479 0.0
C1608 C 0.91987 0.59875 0.9172 0.0
C1609 C 0.92711 0.6009 0.89294 0.0
C1610 C 0.9407 0.62169 0.88623 0.0
C1611 C 0.94697 0.64042 0.90372 0.0
H1612 H 0.92214 0.58649 0.87934 0.0
H1613 H 0.98063 0.7749 0.04191 0.0
H1614 H 0.43644 0.74803 0.07204 0.0
H1615 H 0.44736 0.78932 0.05775 0.0
H1616 H 0.41711 0.8213 0.12272 0.0
H1617 H 0.40638 0.78014 0.13697 0.0
H1618 H 0.40598 0.84478 0.07858 0.0
H1619 H 0.47578 0.81473 0.12173 0.0
H1620 H 0.50651 0.78493 0.12682 0.0
H1621 H 0.52838 0.79511 0.05264 0.0
H1622 H 0.49765 0.82476 0.04706 0.0
H1623 H 0.46207 0.96283 0.04531 0.0
H1624 H 0.44664 0.9295 0.07148 0.0
H1625 H 0.4865 0.87798 0.02957 0.0
H1626 H 0.50273 0.91008 0.00578 0.0
H1627 H 0.49173 0.86814 0.07221 0.0
H1628 H 0.4232 0.89006 0.02266 0.0
H1629 H 0.39127 0.9163 0.01038 0.0
H1630 H 0.36539 0.91712 0.084 0.0
H1631 H 0.39746 0.89131 0.0968 0.0
C1632 C 0.43219 0.76399 0.08311 0.0
C1633 C 0.42105 0.76131 0.10568 0.0
C1634 C 0.43831 0.78741 0.07499 0.0
C1635 C 0.4332 0.80821 0.0894 0.0
C1636 C 0.42124 0.80541 0.11148 0.0
C1637 C 0.41532 0.78206 0.11967 0.0
C1638 C 0.4415 0.83294 0.08228 0.0
C1639 C 0.42473 0.85006 0.07718 0.0
C1640 C 0.46588 0.83956 0.08041 0.0
C1641 C 0.48441 0.82188 0.084 0.0
C1642 C 0.48709 0.81052 0.1065 0.0
C1643 C 0.50451 0.79367 0.10946 0.0
C1644 C 0.51938 0.78813 0.09007 0.0
C1645 C 0.51688 0.79943 0.06766 0.0
C1646 C 0.4995 0.81627 0.06461 0.0
C1647 C 0.46759 0.94436 0.04215 0.0
C1648 C 0.48317 0.93906 0.02311 0.0
C1649 C 0.45869 0.92536 0.05689 0.0
C1650 C 0.4653 0.9011 0.05244 0.0
C1651 C 0.48114 0.89637 0.03371 0.0
C1652 C 0.49018 0.91496 0.01967 0.0
C1653 C 0.45623 0.87976 0.06628 0.0
C1654 C 0.4729 0.86317 0.0735 0.0
C1655 C 0.43175 0.8732 0.06851 0.0
C1656 C 0.41298 0.88922 0.06079 0.0
C1657 C 0.41089 0.89614 0.03629 0.0
C1658 C 0.39274 0.91088 0.02922 0.0
C1659 C 0.37639 0.91849 0.04643 0.0
C1660 C 0.37814 0.91135 0.07072 0.0
C1661 C 0.39632 0.89673 0.0779 0.0
H1662 H 0.3623 0.92984 0.04091 0.0
H1663 H 0.53286 0.77509 0.0924 0.0
H1664 H 0.03848 0.28823 0.5794 0.0
H1665 H 0.02295 0.24642 0.56753 0.0
H1666 H 0.09449 0.22421 0.55922 0.0
H1667 H 0.10999 0.2656 0.57108 0.0
H1668 H 0.06752 0.2094 0.52027 0.0
H1669 H 0.06164 0.20849 0.60747 0.0
H1670 H 0.04877 0.22292 0.64816 0.0
H1671 H 0.9759 0.20684 0.62615 0.0
H1672 H 0.98831 0.19289 0.58506 0.0
H1673 H 0.05435 0.08013 0.51351 0.0
H1674 H 0.06311 0.12371 0.51962 0.0
H1675 H 0.99019 0.13312 0.53859 0.0
H1676 H 0.98245 0.08847 0.53577 0.0
H1677 H 0.01482 0.1565 0.57047 0.0
H1678 H 0.02377 0.15536 0.4817 0.0
H1679 H 0.04008 0.13938 0.44301 0.0
H1680 H 0.11094 0.15816 0.47037 0.0
H1681 H 0.09509 0.17384 0.50932 0.0
C1682 C 0.05086 0.27435 0.57524 0.0
C1683 C 0.07548 0.28035 0.57585 0.0
C1684 C 0.04197 0.25047 0.56846 0.0
C1685 C 0.05755 0.23215 0.56239 0.0
C1686 C 0.08209 0.23805 0.56353 0.0
C1687 C 0.09094 0.26179 0.57023 0.0
C1688 C 0.04859 0.20696 0.55402 0.0
C1689 C 0.05601 0.19779 0.53127 0.0
C1690 C 0.03334 0.19191 0.5682 0.0
C1691 C 0.02589 0.19999 0.59302 0.0
C1692 C 0.04285 0.20828 0.61118 0.0
C1693 C 0.03564 0.21636 0.63435 0.0
C1694 C 0.01153 0.2159 0.63971 0.0
C1695 C 0.99457 0.20727 0.62194 0.0
C1696 C 1.00168 0.19931 0.5987 0.0
C1697 C 0.03979 0.09161 0.51754 0.0
C1698 C 0.01754 0.08086 0.52361 0.0
C1699 C 0.04488 0.1168 0.52126 0.0
C1700 C 0.0273 0.1323 0.5292 0.0
C1701 C 0.00421 0.12179 0.53253 0.0
C1702 C 0.9995 0.09628 0.53018 0.0
C1703 C 0.03361 0.15873 0.53639 0.0
C1704 C 0.02584 0.16818 0.55909 0.0
C1705 C 0.04888 0.17402 0.52231 0.0
C1706 C 0.05823 0.16572 0.4984 0.0
C1707 C 0.04282 0.15611 0.47942 0.0
C1708 C 0.05199 0.14704 0.45748 0.0
C1709 C 0.07652 0.14774 0.45424 0.0
C1710 C 0.09194 0.15764 0.47288 0.0
C1711 C 0.08288 0.16665 0.49487 0.0
H1712 H 0.08359 0.14063 0.43728 0.0
H1713 H 0.00597 0.22215 0.65765 0.0
H1714 H 0.56906 0.24514 0.41475 0.0
H1715 H 0.55282 0.28393 0.42415 0.0
H1716 H 0.6092 0.30214 0.47711 0.0
H1717 H 0.6275 0.2646 0.46636 0.0
H1718 H 0.56344 0.30959 0.49451 0.0
H1719 H 0.61167 0.32841 0.42592 0.0
H1720 H 0.62648 0.32305 0.38396 0.0
H1721 H 0.5575 0.33553 0.3541 0.0
H1722 H 0.54209 0.34037 0.39594 0.0
H1723 H 0.53936 0.43663 0.51259 0.0
H1724 H 0.55719 0.39709 0.50628 0.0
H1725 H 0.50839 0.3788 0.4455 0.0
H1726 H 0.49104 0.41838 0.45143 0.0
H1727 H 0.55262 0.37222 0.4323 0.0
H1728 H 0.50387 0.3513 0.50054 0.0
H1729 H 0.48892 0.35674 0.54245 0.0
H1730 H 0.55868 0.34807 0.57249 0.0
H1731 H 0.57417 0.34315 0.53068 0.0
C1732 C 0.57885 0.25725 0.42788 0.0
C1733 C 0.60033 0.25098 0.43924 0.0
C1734 C 0.56908 0.27956 0.43346 0.0
C1735 C 0.57995 0.29593 0.45112 0.0
C1736 C 0.60064 0.28969 0.46328 0.0
C1737 C 0.61094 0.26776 0.45716 0.0
C1738 C 0.56947 0.31945 0.45717 0.0
C1739 C 0.56135 0.32347 0.48102 0.0
C1740 C 0.5664 0.33722 0.43935 0.0
C1741 C 0.57563 0.33441 0.41412 0.0
C1742 C 0.59957 0.32971 0.41044 0.0
C1743 C 0.60809 0.32681 0.38665 0.0
C1744 C 0.59292 0.32885 0.36637 0.0
C1745 C 0.56921 0.33388 0.36983 0.0
C1746 C 0.56057 0.33668 0.39358 0.0
C1747 C 0.53183 0.42367 0.49861 0.0
C1748 C 0.5136 0.43025 0.48275 0.0
C1749 C 0.54221 0.40126 0.49478 0.0
C1750 C 0.53417 0.38506 0.47531 0.0
C1751 C 0.51497 0.39108 0.46049 0.0
C1752 C 0.50482 0.41348 0.46415 0.0
C1753 C 0.54623 0.36225 0.46962 0.0
C1754 C 0.55472 0.35838 0.44581 0.0
C1755 C 0.54958 0.34455 0.48742 0.0
C1756 C 0.54022 0.34713 0.51251 0.0
C1757 C 0.51606 0.35076 0.51608 0.0
C1758 C 0.50749 0.35375 0.53981 0.0
C1759 C 0.52285 0.35282 0.56012 0.0
C1760 C 0.54681 0.34884 0.55674 0.0
C1761 C 0.5555 0.34597 0.53303 0.0
H1762 H 0.51618 0.35512 0.57849 0.0
H1763 H 0.59956 0.32662 0.34797 0.0
loop_
_geom_bond_atom_site_label_1
_geom_bond_atom_site_label_2
_geom_bond_distance
_geom_bond_site_symmetry_2
_ccdc_geom_bond_type
C0 C1 1.391 . S
C0 C4 1.391 . S
C0 H42 0.948 . S
C1 C0 1.391 . S
C1 C2 1.391 . S
C2 C1 1.391 . S
C2 H58 0.947 . S
C2 C59 1.392 . S
C3 C4 1.391 . S
C3 C7 1.397 . S
C3 C59 1.419 . S
C4 C0 1.391 . S
C4 C3 1.391 . S
C4 C5 1.399 . S
C5 C4 1.399 . S
C5 C8 1.396 . S
C5 C17 1.453 . S
C5 C18 1.684 . S
H6 C30 0.948 . S
C7 C3 1.397 . S
C7 C8 1.394 . S
C7 C26 1.723 . S
C8 C5 1.396 . S
C8 C7 1.394 . S
C8 C38 1.723 . S
H9 C32 0.947 . S
H10 C33 0.948 . S
H11 C39 0.982 . S
H12 C40 0.979 . S
H13 C40 0.980 . S
H14 C40 0.983 . S
H15 C39 0.979 . S
H16 C39 0.977 . S
C17 C5 1.453 . S
C17 H46 0.982 . S
C17 H47 0.979 . S
C17 H48 0.977 . S
C18 C5 1.684 . S
C18 H43 0.979 . S
C18 H44 0.980 . S
C18 H45 0.983 . S
C19 C20 1.391 . S
C19 C24 1.391 . S
C19 H49 0.948 . S
C20 C19 1.391 . S
C20 C21 1.391 . S
C21 C20 1.391 . S
C21 C22 1.392 . S
C21 H50 0.947 . S
C22 C21 1.392 . S
C22 C23 1.419 . S
C22 H51 0.948 . S
C23 C22 1.419 . S
C23 C24 1.391 . S
C23 C27 1.397 . S
C24 C19 1.391 . S
C24 C23 1.391 . S
C24 C25 1.399 . S
C25 C24 1.399 . S
C25 C26 1.396 . S
C25 C28 1.453 . S
C25 C29 1.684 . S
C26 C7 1.723 . S
C26 C25 1.396 . S
C26 C27 1.394 . S
C27 C23 1.397 . S
C27 C26 1.394 . S
C27 C37 1.723 . S
C28 C25 1.453 . S
C28 H52 0.982 . S
C28 H53 0.979 . S
C28 H54 0.977 . S
C29 C25 1.684 . S
C29 H55 0.979 . S
C29 H56 0.980 . S
C29 H57 0.983 . S
C30 H6 0.948 . S
C30 C31 1.391 . S
C30 C35 1.391 . S
C31 C30 1.391 . S
C31 C32 1.391 . S
C32 H9 0.947 . S
C32 C31 1.391 . S
C32 C33 1.392 . S
C33 H10 0.948 . S
C33 C32 1.392 . S
C33 C34 1.419 . S
C34 C33 1.419 . S
C34 C35 1.391 . S
C34 C38 1.397 . S
C35 C30 1.391 . S
C35 C34 1.391 . S
C35 C36 1.399 . S
C36 C35 1.399 . S
C36 C37 1.396 . S
C36 C39 1.453 . S
C36 C40 1.684 . S
C37 C27 1.723 . S
C37 C36 1.396 . S
C37 C38 1.394 . S
C38 C8 1.723 . S
C38 C34 1.397 . S
C38 C37 1.394 . S
C39 H11 0.982 . S
C39 H15 0.979 . S
C39 H16 0.977 . S
C39 C36 1.453 . S
C40 H12 0.979 . S
C40 H13 0.980 . S
C40 H14 0.983 . S
C40 C36 1.684 . S
H41 C59 0.948 . S
H42 C0 0.948 . S
H43 C18 0.979 . S
H44 C18 0.980 . S
H45 C18 0.983 . S
H46 C17 0.982 . S
H47 C17 0.979 . S
H48 C17 0.977 . S
H49 C19 0.948 . S
H50 C21 0.947 . S
H51 C22 0.948 . S
H52 C28 0.982 . S
H53 C28 0.979 . S
H54 C28 0.977 . S
H55 C29 0.979 . S
H56 C29 0.980 . S
H57 C29 0.983 . S
H58 C2 0.947 . S
C59 C2 1.392 . S
C59 C3 1.419 . S
C59 H41 0.948 . S
C60 C61 1.391 . S
C60 C64 1.391 . S
C60 H102 0.948 . S
C61 C60 1.391 . S
C61 C62 1.391 . S
C62 C61 1.391 . S
C62 H118 0.947 . S
C62 C119 1.392 . S
C63 C64 1.391 . S
C63 C67 1.397 . S
C63 C119 1.419 . S
C64 C60 1.391 . S
C64 C63 1.391 . S
C64 C65 1.399 . S
C65 C64 1.399 . S
C65 C68 1.396 . S
C65 C77 1.453 . S
C65 C78 1.684 . S
H66 C90 0.948 . S
C67 C63 1.397 . S
C67 C68 1.394 . S
C67 C86 1.723 . S
C68 C65 1.396 . S
C68 C67 1.394 . S
C68 C98 1.723 . S
H69 C92 0.947 . S
H70 C93 0.948 . S
H71 C99 0.982 . S
H72 C100 0.979 . S
H73 C100 0.980 . S
H74 C100 0.983 . S
H75 C99 0.979 . S
H76 C99 0.977 . S
C77 C65 1.453 . S
C77 H106 0.982 . S
C77 H107 0.979 . S
C77 H108 0.977 . S
C78 C65 1.684 . S
C78 H103 0.979 . S
C78 H104 0.980 . S
C78 H105 0.983 . S
C79 C80 1.391 . S
C79 C84 1.391 . S
C79 H109 0.948 . S
C80 C79 1.391 . S
C80 C81 1.391 . S
C81 C80 1.391 . S
C81 C82 1.392 . S
C81 H110 0.947 . S
C82 C81 1.392 . S
C82 C83 1.419 . S
C82 H111 0.948 . S
C83 C82 1.419 . S
C83 C84 1.391 . S
C83 C87 1.397 . S
C84 C79 1.391 . S
C84 C83 1.391 . S
C84 C85 1.399 . S
C85 C84 1.399 . S
C85 C86 1.396 . S
C85 C88 1.453 . S
C85 C89 1.684 . S
C86 C67 1.723 . S
C86 C85 1.396 . S
C86 C87 1.394 . S
C87 C83 1.397 . S
C87 C86 1.394 . S
C87 C97 1.723 . S
C88 C85 1.453 . S
C88 H112 0.982 . S
C88 H113 0.979 . S
C88 H114 0.977 . S
C89 C85 1.684 . S
C89 H115 0.979 . S
C89 H116 0.980 . S
C89 H117 0.983 . S
C90 H66 0.948 . S
C90 C91 1.391 . S
C90 C95 1.391 . S
C91 C90 1.391 . S
C91 C92 1.391 . S
C92 H69 0.947 . S
C92 C91 1.391 . S
C92 C93 1.392 . S
C93 H70 0.948 . S
C93 C92 1.392 . S
C93 C94 1.419 . S
C94 C93 1.419 . S
C94 C95 1.391 . S
C94 C98 1.397 . S
C95 C90 1.391 . S
C95 C94 1.391 . S
C95 C96 1.399 . S
C96 C95 1.399 . S
C96 C97 1.396 . S
C96 C99 1.453 . S
C96 C100 1.684 . S
C97 C87 1.723 . S
C97 C96 1.396 . S
C97 C98 1.394 . S
C98 C68 1.723 . S
C98 C94 1.397 . S
C98 C97 1.394 . S
C99 H71 0.982 . S
C99 H75 0.979 . S
C99 H76 0.977 . S
C99 C96 1.453 . S
C100 H72 0.979 . S
C100 H73 0.980 . S
C100 H74 0.983 . S
C100 C96 1.684 . S
H101 C119 0.948 . S
H102 C60 0.948 . S
H103 C78 0.979 . S
H104 C78 0.980 . S
H105 C78 0.983 . S
H106 C77 0.982 . S
H107 C77 0.979 . S
H108 C77 0.977 . S
H109 C79 0.948 . S
H110 C81 0.947 . S
H111 C82 0.948 . S
H112 C88 0.982 . S
H113 C88 0.979 . S
H114 C88 0.977 . S
H115 C89 0.979 . S
H116 C89 0.980 . S
H117 C89 0.983 . S
H118 C62 0.947 . S
C119 C62 1.392 . S
C119 C63 1.419 . S
C119 H101 0.948 . S
C120 C121 1.391 . S
C120 C124 1.391 . S
C120 H162 0.948 . S
C121 C120 1.391 . S
C121 C122 1.391 . S
C122 C121 1.391 . S
C122 H178 0.947 . S
C122 C179 1.392 . S
C123 C124 1.391 . S
C123 C127 1.397 . S
C123 C179 1.419 . S
C124 C120 1.391 . S
C124 C123 1.391 . S
C124 C125 1.399 . S
C125 C124 1.399 . S
C125 C128 1.396 . S
C125 C137 1.453 . S
C125 C138 1.684 . S
H126 C150 0.948 . S
C127 C123 1.397 . S
C127 C128 1.394 . S
C127 C146 1.723 . S
C128 C125 1.396 . S
C128 C127 1.394 . S
C128 C158 1.723 . S
H129 C152 0.947 . S
H130 C153 0.948 . S
H131 C159 0.982 . S
H132 C160 0.979 . S
H133 C160 0.980 . S
H134 C160 0.983 . S
H135 C159 0.979 . S
H136 C159 0.977 . S
C137 C125 1.453 . S
C137 H166 0.982 . S
C137 H167 0.979 . S
C137 H168 0.977 . S
C138 C125 1.684 . S
C138 H163 0.979 . S
C138 H164 0.980 . S
C138 H165 0.983 . S
C139 C140 1.391 . S
C139 C144 1.391 . S
C139 H169 0.948 . S
C140 C139 1.391 . S
C140 C141 1.391 . S
C141 C140 1.391 . S
C141 C142 1.392 . S
C141 H170 0.947 . S
C142 C141 1.392 . S
C142 C143 1.419 . S
C142 H171 0.948 . S
C143 C142 1.419 . S
C143 C144 1.391 . S
C143 C147 1.397 . S
C144 C139 1.391 . S
C144 C143 1.391 . S
C144 C145 1.399 . S
C145 C144 1.399 . S
C145 C146 1.396 . S
C145 C148 1.453 . S
C145 C149 1.684 . S
C146 C127 1.723 . S
C146 C145 1.396 . S
C146 C147 1.394 . S
C147 C143 1.397 . S
C147 C146 1.394 . S
C147 C157 1.723 . S
C148 C145 1.453 . S
C148 H172 0.982 . S
C148 H173 0.979 . S
C148 H174 0.977 . S
C149 C145 1.684 . S
C149 H175 0.979 . S
C149 H176 0.980 . S
C149 H177 0.983 . S
C150 H126 0.948 . S
C150 C151 1.391 . S
C150 C155 1.391 . S
C151 C150 1.391 . S
C151 C152 1.391 . S
C152 H129 0.947 . S
C152 C151 1.391 . S
C152 C153 1.392 . S
C153 H130 0.948 . S
C153 C152 1.392 . S
C153 C154 1.419 . S
C154 C153 1.419 . S
C154 C155 1.391 . S
C154 C158 1.397 . S
C155 C150 1.391 . S
C155 C154 1.391 . S
C155 C156 1.399 . S
C156 C155 1.399 . S
C156 C157 1.396 . S
C156 C159 1.453 . S
C156 C160 1.684 . S
C157 C147 1.723 . S
C157 C156 1.396 . S
C157 C158 1.394 . S
C158 C128 1.723 . S
C158 C154 1.397 . S
C158 C157 1.394 . S
C159 H131 0.982 . S
C159 H135 0.979 . S
C159 H136 0.977 . S
C159 C156 1.453 . S
C160 H132 0.979 . S
C160 H133 0.980 . S
C160 H134 0.983 . S
C160 C156 1.684 . S
H161 C179 0.948 . S
H162 C120 0.948 . S
H163 C138 0.979 . S
H164 C138 0.980 . S
H165 C138 0.983 . S
H166 C137 0.982 . S
H167 C137 0.979 . S
H168 C137 0.977 . S
H169 C139 0.948 . S
H170 C141 0.947 . S
H171 C142 0.948 . S
H172 C148 0.982 . S
H173 C148 0.979 . S
H174 C148 0.977 . S
H175 C149 0.979 . S
H176 C149 0.980 . S
H177 C149 0.983 . S
H178 C122 0.947 . S
C179 C122 1.392 . S
C179 C123 1.419 . S
C179 H161 0.948 . S
C180 C181 1.391 . S
C180 C184 1.391 . S
C180 H222 0.948 . S
C181 C180 1.391 . S
C181 C182 1.391 . S
C182 C181 1.391 . S
C182 H238 0.947 . S
C182 C239 1.392 . S
C183 C184 1.391 . S
C183 C187 1.397 . S
C183 C239 1.419 . S
C184 C180 1.391 . S
C184 C183 1.391 . S
C184 C185 1.399 . S
C185 C184 1.399 . S
C185 C188 1.396 . S
C185 C197 1.453 . S
C185 C198 1.684 . S
H186 C210 0.948 . S
C187 C183 1.397 . S
C187 C188 1.394 . S
C187 C206 1.723 . S
C188 C185 1.396 . S
C188 C187 1.394 . S
C188 C218 1.723 . S
H189 C212 0.947 . S
H190 C213 0.948 . S
H191 C219 0.982 . S
H192 C220 0.979 . S
H193 C220 0.980 . S
H194 C220 0.983 . S
H195 C219 0.979 . S
H196 C219 0.977 . S
C197 C185 1.453 . S
C197 H226 0.982 . S
C197 H227 0.979 . S
C197 H228 0.977 . S
C198 C185 1.684 . S
C198 H223 0.979 . S
C198 H224 0.980 . S
C198 H225 0.983 . S
C199 C200 1.391 . S
C199 C204 1.391 . S
C199 H229 0.948 . S
C200 C199 1.391 . S
C200 C201 1.391 . S
C201 C200 1.391 . S
C201 C202 1.392 . S
C201 H230 0.947 . S
C202 C201 1.392 . S
C202 C203 1.419 . S
C202 H231 0.948 . S
C203 C202 1.419 . S
C203 C204 1.391 . S
C203 C207 1.397 . S
C204 C199 1.391 . S
C204 C203 1.391 . S
C204 C205 1.399 . S
C205 C204 1.399 . S
C205 C206 1.396 . S
C205 C208 1.453 . S
C205 C209 1.684 . S
C206 C187 1.723 . S
C206 C205 1.396 . S
C206 C207 1.394 . S
C207 C203 1.397 . S
C207 C206 1.394 . S
C207 C217 1.723 . S
C208 C205 1.453 . S
C208 H232 0.982 . S
C208 H233 0.979 . S
C208 H234 0.977 . S
C209 C205 1.684 . S
C209 H235 0.979 . S
C209 H236 0.980 . S
C209 H237 0.983 . S
C210 H186 0.948 . S
C210 C211 1.391 . S
C210 C215 1.391 . S
C211 C210 1.391 . S
C211 C212 1.391 . S
C212 H189 0.947 . S
C212 C211 1.391 . S
C212 C213 1.392 . S
C213 H190 0.948 . S
C213 C212 1.392 . S
C213 C214 1.419 . S
C214 C213 1.419 . S
C214 C215 1.391 . S
C214 C218 1.397 . S
C215 C210 1.391 . S
C215 C214 1.391 . S
C215 C216 1.399 . S
C216 C215 1.399 . S
C216 C217 1.396 . S
C216 C219 1.453 . S
C216 C220 1.684 . S
C217 C207 1.723 . S
C217 C216 1.396 . S
C217 C218 1.394 . S
C218 C188 1.723 . S
C218 C214 1.397 . S
C218 C217 1.394 . S
C219 H191 0.982 . S
C219 H195 0.979 . S
C219 H196 0.977 . S
C219 C216 1.453 . S
C220 H192 0.979 . S
C220 H193 0.980 . S
C220 H194 0.983 . S
C220 C216 1.684 . S
H221 C239 0.948 . S
H222 C180 0.948 . S
H223 C198 0.979 . S
H224 C198 0.980 . S
H225 C198 0.983 . S
H226 C197 0.982 . S
H227 C197 0.979 . S
H228 C197 0.977 . S
H229 C199 0.948 . S
H230 C201 0.947 . S
H231 C202 0.948 . S
H232 C208 0.982 . S
H233 C208 0.979 . S
H234 C208 0.977 . S
H235 C209 0.979 . S
H236 C209 0.980 . S
H237 C209 0.983 . S
H238 C182 0.947 . S
C239 C182 1.392 . S
C239 C183 1.419 . S
C239 H221 0.948 . S
C240 C241 1.391 . S
C240 C244 1.391 . S
C240 H282 0.948 . S
C241 C240 1.391 . S
C241 C242 1.391 . S
C242 C241 1.391 . S
C242 H298 0.947 . S
C242 C299 1.392 . S
C243 C244 1.391 . S
C243 C247 1.397 . S
C243 C299 1.419 . S
C244 C240 1.391 . S
C244 C243 1.391 . S
C244 C245 1.399 . S
C245 C244 1.399 . S
C245 C248 1.396 . S
C245 C257 1.453 . S
C245 C258 1.684 . S
H246 C270 0.948 . S
C247 C243 1.397 . S
C247 C248 1.394 . S
C247 C266 1.723 . S
C248 C245 1.396 . S
C248 C247 1.394 . S
C248 C278 1.723 . S
H249 C272 0.947 . S
H250 C273 0.948 . S
H251 C279 0.982 . S
H252 C280 0.979 . S
H253 C280 0.980 . S
H254 C280 0.983 . S
H255 C279 0.979 . S
H256 C279 0.977 . S
C257 C245 1.453 . S
C257 H286 0.982 . S
C257 H287 0.979 . S
C257 H288 0.977 . S
C258 C245 1.684 . S
C258 H283 0.979 . S
C258 H284 0.980 . S
C258 H285 0.983 . S
C259 C260 1.391 . S
C259 C264 1.391 . S
C259 H289 0.948 . S
C260 C259 1.391 . S
C260 C261 1.391 . S
C261 C260 1.391 . S
C261 C262 1.392 . S
C261 H290 0.947 . S
C262 C261 1.392 . S
C262 C263 1.419 . S
C262 H291 0.948 . S
C263 C262 1.419 . S
C263 C264 1.391 . S
C263 C267 1.397 . S
C264 C259 1.391 . S
C264 C263 1.391 . S
C264 C265 1.399 . S
C265 C264 1.399 . S
C265 C266 1.396 . S
C265 C268 1.453 . S
C265 C269 1.684 . S
C266 C247 1.723 . S
C266 C265 1.396 . S
C266 C267 1.394 . S
C267 C263 1.397 . S
C267 C266 1.394 . S
C267 C277 1.723 . S
C268 C265 1.453 . S
C268 H292 0.982 . S
C268 H293 0.979 . S
C268 H294 0.977 . S
C269 C265 1.684 . S
C269 H295 0.979 . S
C269 H296 0.980 . S
C269 H297 0.983 . S
C270 H246 0.948 . S
C270 C271 1.391 . S
C270 C275 1.391 . S
C271 C270 1.391 . S
C271 C272 1.391 . S
C272 H249 0.947 . S
C272 C271 1.391 . S
C272 C273 1.392 . S
C273 H250 0.948 . S
C273 C272 1.392 . S
C273 C274 1.419 . S
C274 C273 1.419 . S
C274 C275 1.391 . S
C274 C278 1.397 . S
C275 C270 1.391 . S
C275 C274 1.391 . S
C275 C276 1.399 . S
C276 C275 1.399 . S
C276 C277 1.396 . S
C276 C279 1.453 . S
C276 C280 1.684 . S
C277 C267 1.723 . S
C277 C276 1.396 . S
C277 C278 1.394 . S
C278 C248 1.723 . S
C278 C274 1.397 . S
C278 C277 1.394 . S
C279 H251 0.982 . S
C279 H255 0.979 . S
C279 H256 0.977 . S
C279 C276 1.453 . S
C280 H252 0.979 . S
C280 H253 0.980 . S
C280 H254 0.983 . S
C280 C276 1.684 . S
H281 C299 0.948 . S
H282 C240 0.948 . S
H283 C258 0.979 . S
H284 C258 0.980 . S
H285 C258 0.983 . S
H286 C257 0.982 . S
H287 C257 0.979 . S
H288 C257 0.977 . S
H289 C259 0.948 . S
H290 C261 0.947 . S
H291 C262 0.948 . S
H292 C268 0.982 . S
H293 C268 0.979 . S
H294 C268 0.977 . S
H295 C269 0.979 . S
H296 C269 0.980 . S
H297 C269 0.983 . S
H298 C242 0.947 . S
C299 C242 1.392 . S
C299 C243 1.419 . S
C299 H281 0.948 . S
C300 C301 1.391 . S
C300 C304 1.391 . S
C300 H342 0.948 . S
C301 C300 1.391 . S
C301 C302 1.391 . S
C302 C301 1.391 . S
C302 H358 0.947 . S
C302 C359 1.392 . S
C303 C304 1.391 . S
C303 C307 1.397 . S
C303 C359 1.419 . S
C304 C300 1.391 . S
C304 C303 1.391 . S
C304 C305 1.399 . S
C305 C304 1.399 . S
C305 C308 1.396 . S
C305 C317 1.453 . S
C305 C318 1.684 . S
H306 C330 0.948 . S
C307 C303 1.397 . S
C307 C308 1.394 . S
C307 C326 1.723 . S
C308 C305 1.396 . S
C308 C307 1.394 . S
C308 C338 1.723 . S
H309 C332 0.947 . S
H310 C333 0.948 . S
H311 C339 0.982 . S
H312 C340 0.979 . S
H313 C340 0.980 . S
H314 C340 0.983 . S
H315 C339 0.979 . S
H316 C339 0.977 . S
C317 C305 1.453 . S
C317 H346 0.982 . S
C317 H347 0.979 . S
C317 H348 0.977 . S
C318 C305 1.684 . S
C318 H343 0.979 . S
C318 H344 0.980 . S
C318 H345 0.983 . S
C319 C320 1.391 . S
C319 C324 1.391 . S
C319 H349 0.948 . S
C320 C319 1.391 . S
C320 C321 1.391 . S
C321 C320 1.391 . S
C321 C322 1.392 . S
C321 H350 0.947 . S
C322 C321 1.392 . S
C322 C323 1.419 . S
C322 H351 0.948 . S
C323 C322 1.419 . S
C323 C324 1.391 . S
C323 C327 1.397 . S
C324 C319 1.391 . S
C324 C323 1.391 . S
C324 C325 1.399 . S
C325 C324 1.399 . S
C325 C326 1.396 . S
C325 C328 1.453 . S
C325 C329 1.684 . S
C326 C307 1.723 . S
C326 C325 1.396 . S
C326 C327 1.394 . S
C327 C323 1.397 . S
C327 C326 1.394 . S
C327 C337 1.723 . S
C328 C325 1.453 . S
C328 H352 0.982 . S
C328 H353 0.979 . S
C328 H354 0.977 . S
C329 C325 1.684 . S
C329 H355 0.979 . S
C329 H356 0.980 . S
C329 H357 0.983 . S
C330 H306 0.948 . S
C330 C331 1.391 . S
C330 C335 1.391 . S
C331 C330 1.391 . S
C331 C332 1.391 . S
C332 H309 0.947 . S
C332 C331 1.391 . S
C332 C333 1.392 . S
C333 H310 0.948 . S
C333 C332 1.392 . S
C333 C334 1.419 . S
C334 C333 1.419 . S
C334 C335 1.391 . S
C334 C338 1.397 . S
C335 C330 1.391 . S
C335 C334 1.391 . S
C335 C336 1.399 . S
C336 C335 1.399 . S
C336 C337 1.396 . S
C336 C339 1.453 . S
C336 C340 1.684 . S
C337 C327 1.723 . S
C337 C336 1.396 . S
C337 C338 1.394 . S
C338 C308 1.723 . S
C338 C334 1.397 . S
C338 C337 1.394 . S
C339 H311 0.982 . S
C339 H315 0.979 . S
C339 H316 0.977 . S
C339 C336 1.453 . S
C340 H312 0.979 . S
C340 H313 0.980 . S
C340 H314 0.983 . S
C340 C336 1.684 . S
H341 C359 0.948 . S
H342 C300 0.948 . S
H343 C318 0.979 . S
H344 C318 0.980 . S
H345 C318 0.983 . S
H346 C317 0.982 . S
H347 C317 0.979 . S
H348 C317 0.977 . S
H349 C319 0.948 . S
H350 C321 0.947 . S
H351 C322 0.948 . S
H352 C328 0.982 . S
H353 C328 0.979 . S
H354 C328 0.977 . S
H355 C329 0.979 . S
H356 C329 0.980 . S
H357 C329 0.983 . S
H358 C302 0.947 . S
C359 C302 1.392 . S
C359 C303 1.419 . S
C359 H341 0.948 . S
C360 C361 1.391 . S
C360 C364 1.391 . S
C360 H402 0.948 . S
C361 C360 1.391 . S
C361 C362 1.391 . S
C362 C361 1.391 . S
C362 H418 0.947 . S
C362 C419 1.392 . S
C363 C364 1.391 . S
C363 C367 1.397 . S
C363 C419 1.419 . S
C364 C360 1.391 . S
C364 C363 1.391 . S
C364 C365 1.399 . S
C365 C364 1.399 . S
C365 C368 1.396 . S
C365 C377 1.453 . S
C365 C378 1.684 . S
H366 C390 0.948 . S
C367 C363 1.397 . S
C367 C368 1.394 . S
C367 C386 1.723 . S
C368 C365 1.396 . S
C368 C367 1.394 . S
C368 C398 1.723 . S
H369 C392 0.947 . S
H370 C393 0.948 . S
H371 C399 0.982 . S
H372 C400 0.979 . S
H373 C400 0.980 . S
H374 C400 0.983 . S
H375 C399 0.979 . S
H376 C399 0.977 . S
C377 C365 1.453 . S
C377 H406 0.982 . S
C377 H407 0.979 . S
C377 H408 0.977 . S
C378 C365 1.684 . S
C378 H403 0.979 . S
C378 H404 0.980 . S
C378 H405 0.983 . S
C379 C380 1.391 . S
C379 C384 1.391 . S
C379 H409 0.948 . S
C380 C379 1.391 . S
C380 C381 1.391 . S
C381 C380 1.391 . S
C381 C382 1.392 . S
C381 H410 0.947 . S
C382 C381 1.392 . S
C382 C383 1.419 . S
C382 H411 0.948 . S
C383 C382 1.419 . S
C383 C384 1.391 . S
C383 C387 1.397 . S
C384 C379 1.391 . S
C384 C383 1.391 . S
C384 C385 1.399 . S
C385 C384 1.399 . S
C385 C386 1.396 . S
C385 C388 1.453 . S
C385 C389 1.684 . S
C386 C367 1.723 . S
C386 C385 1.396 . S
C386 C387 1.394 . S
C387 C383 1.397 . S
C387 C386 1.394 . S
C387 C397 1.723 . S
C388 C385 1.453 . S
C388 H412 0.982 . S
C388 H413 0.979 . S
C388 H414 0.977 . S
C389 C385 1.684 . S
C389 H415 0.979 . S
C389 H416 0.980 . S
C389 H417 0.983 . S
C390 H366 0.948 . S
C390 C391 1.391 . S
C390 C395 1.391 . S
C391 C390 1.391 . S
C391 C392 1.391 . S
C392 H369 0.947 . S
C392 C391 1.391 . S
C392 C393 1.392 . S
C393 H370 0.948 . S
C393 C392 1.392 . S
C393 C394 1.419 . S
C394 C393 1.419 . S
C394 C395 1.391 . S
C394 C398 1.397 . S
C395 C390 1.391 . S
C395 C394 1.391 . S
C395 C396 1.399 . S
C396 C395 1.399 . S
C396 C397 1.396 . S
C396 C399 1.453 . S
C396 C400 1.684 . S
C397 C387 1.723 . S
C397 C396 1.396 . S
C397 C398 1.394 . S
C398 C368 1.723 . S
C398 C394 1.397 . S
C398 C397 1.394 . S
C399 H371 0.982 . S
C399 H375 0.979 . S
C399 H376 0.977 . S
C399 C396 1.453 . S
C400 H372 0.979 . S
C400 H373 0.980 . S
C400 H374 0.983 . S
C400 C396 1.684 . S
H401 C419 0.948 . S
H402 C360 0.948 . S
H403 C378 0.979 . S
H404 C378 0.980 . S
H405 C378 0.983 . S
H406 C377 0.982 . S
H407 C377 0.979 . S
H408 C377 0.977 . S
H409 C379 0.948 . S
H410 C381 0.947 . S
H411 C382 0.948 . S
H412 C388 0.982 . S
H413 C388 0.979 . S
H414 C388 0.977 . S
H415 C389 0.979 . S
H416 C389 0.980 . S
H417 C389 0.983 . S
H418 C362 0.947 . S
C419 C362 1.392 . S
C419 C363 1.419 . S
C419 H401 0.948 . S
C420 C421 1.391 . S
C420 C424 1.391 . S
C420 H462 0.948 . S
C421 C420 1.391 . S
C421 C422 1.391 . S
C422 C421 1.391 . S
C422 H478 0.947 . S
C422 C479 1.392 . S
C423 C424 1.391 . S
C423 C427 1.397 . S
C423 C479 1.419 . S
C424 C420 1.391 . S
C424 C423 1.391 . S
C424 C425 1.399 . S
C425 C424 1.399 . S
C425 C428 1.396 . S
C425 C437 1.453 . S
C425 C438 1.684 . S
H426 C450 0.948 . S
C427 C423 1.397 . S
C427 C428 1.394 . S
C427 C446 1.723 . S
C428 C425 1.396 . S
C428 C427 1.394 . S
C428 C458 1.723 . S
H429 C452 0.947 . S
H430 C453 0.948 . S
H431 C459 0.982 . S
H432 C460 0.979 . S
H433 C460 0.980 . S
H434 C460 0.983 . S
H435 C459 0.979 . S
H436 C459 0.977 . S
C437 C425 1.453 . S
C437 H466 0.982 . S
C437 H467 0.979 . S
C437 H468 0.977 . S
C438 C425 1.684 . S
C438 H463 0.979 . S
C438 H464 0.980 . S
C438 H465 0.983 . S
C439 C440 1.391 . S
C439 C444 1.391 . S
C439 H469 0.948 . S
C440 C439 1.391 . S
C440 C441 1.391 . S
C441 C440 1.391 . S
C441 C442 1.392 . S
C441 H470 0.947 . S
C442 C441 1.392 . S
C442 C443 1.419 . S
C442 H471 0.948 . S
C443 C442 1.419 . S
C443 C444 1.391 . S
C443 C447 1.397 . S
C444 C439 1.391 . S
C444 C443 1.391 . S
C444 C445 1.399 . S
C445 C444 1.399 . S
C445 C446 1.396 . S
C445 C448 1.453 . S
C445 C449 1.684 . S
C446 C427 1.723 . S
C446 C445 1.396 . S
C446 C447 1.394 . S
C447 C443 1.397 . S
C447 C446 1.394 . S
C447 C457 1.723 . S
C448 C445 1.453 . S
C448 H472 0.982 . S
C448 H473 0.979 . S
C448 H474 0.977 . S
C449 C445 1.684 . S
C449 H475 0.979 . S
C449 H476 0.980 . S
C449 H477 0.983 . S
C450 H426 0.948 . S
C450 C451 1.391 . S
C450 C455 1.391 . S
C451 C450 1.391 . S
C451 C452 1.391 . S
C452 H429 0.947 . S
C452 C451 1.391 . S
C452 C453 1.392 . S
C453 H430 0.948 . S
C453 C452 1.392 . S
C453 C454 1.419 . S
C454 C453 1.419 . S
C454 C455 1.391 . S
C454 C458 1.397 . S
C455 C450 1.391 . S
C455 C454 1.391 . S
C455 C456 1.399 . S
C456 C455 1.399 . S
C456 C457 1.396 . S
C456 C459 1.453 . S
C456 C460 1.684 . S
C457 C447 1.723 . S
C457 C456 1.396 . S
C457 C458 1.394 . S
C458 C428 1.723 . S
C458 C454 1.397 . S
C458 C457 1.394 . S
C459 H431 0.982 . S
C459 H435 0.979 . S
C459 H436 0.977 . S
C459 C456 1.453 . S
C460 H432 0.979 . S
C460 H433 0.980 . S
C460 H434 0.983 . S
C460 C456 1.684 . S
H461 C479 0.948 . S
H462 C420 0.948 . S
H463 C438 0.979 . S
H464 C438 0.980 . S
H465 C438 0.983 . S
H466 C437 0.982 . S
H467 C437 0.979 . S
H468 C437 0.977 . S
H469 C439 0.948 . S
H470 C441 0.947 . S
H471 C442 0.948 . S
H472 C448 0.982 . S
H473 C448 0.979 . S
H474 C448 0.977 . S
H475 C449 0.979 . S
H476 C449 0.980 . S
H477 C449 0.983 . S
H478 C422 0.947 . S
C479 C422 1.392 . S
C479 C423 1.419 . S
C479 H461 0.948 . S
O480 Mn481 2.163 1_655 S
O480 C494 1.244 . S
Mn481 O480 2.163 1_455 S
Mn481 O484 2.160 1_545 S
Mn481 O485 2.221 . S
Mn481 O487 2.163 1_445 S
Mn481 O489 2.160 . S
Mn481 O499 2.221 1_445 S
O482 Mn483 2.087 1_545 S
O482 C494 1.256 . S
Mn483 O482 2.087 1_565 S
Mn483 O490 2.089 1_565 S
Mn483 O499 2.290 . S
Mn483 O500 2.251 . S
O484 Mn481 2.160 1_565 S
O484 C495 1.239 . S
O485 Mn481 2.221 . S
O485 Mn486 2.290 . S
O485 C496 1.278 . S
Mn486 O485 2.290 . S
Mn486 O488 2.089 1_545 S
Mn486 O491 2.251 . S
Mn486 O492 2.087 . S
O487 Mn481 2.163 1_665 S
O487 C497 1.244 . S
O488 Mn486 2.089 1_565 S
O488 C495 1.256 . S
O489 Mn481 2.160 . S
O489 C498 1.239 . S
O490 Mn483 2.089 1_545 S
O490 C498 1.256 1_655 S
O491 Mn486 2.251 . S
O491 C496 1.241 . S
O492 Mn486 2.087 . S
O492 C497 1.256 1_445 S
C493 O499 1.278 . S
C493 O500 1.241 . S
C494 O480 1.244 . S
C494 O482 1.256 . S
C495 O484 1.239 . S
C495 O488 1.256 . S
C496 O485 1.278 . S
C496 O491 1.241 . S
C497 O487 1.244 . S
C497 O492 1.256 1_665 S
C498 O489 1.239 . S
C498 O490 1.256 1_455 S
O499 Mn481 2.221 1_665 S
O499 Mn483 2.290 . S
O499 C493 1.278 . S
O500 Mn483 2.251 . S
O500 C493 1.241 . S
O501 Mn502 2.163 1_556 S
O501 C515 1.244 1_545 S
Mn502 O501 2.163 1_554 S
Mn502 O505 2.160 . S
Mn502 O506 2.219 1_554 S
Mn502 O508 2.163 . S
Mn502 O510 2.160 1_554 S
Mn502 O520 2.221 1_545 S
O503 Mn504 2.087 . S
O503 C515 1.256 . S
Mn504 O503 2.087 . S
Mn504 O511 2.089 . S
Mn504 O520 2.290 1_556 S
Mn504 O521 2.251 1_556 S
O505 Mn502 2.160 . S
O505 C516 1.239 . S
O506 Mn502 2.219 1_556 S
O506 Mn507 2.282 1_556 S
O506 C517 1.285 . S
Mn507 O506 2.282 1_554 S
Mn507 O509 2.089 . S
Mn507 O512 2.251 1_554 S
Mn507 O513 2.087 . S
O508 Mn502 2.163 . S
O508 C518 1.244 . S
O509 Mn507 2.089 . S
O509 C516 1.256 . S
O510 Mn502 2.160 1_556 S
O510 C519 1.239 1_545 S
O511 Mn504 2.089 . S
O511 C519 1.256 . S
O512 Mn507 2.251 1_556 S
O512 C517 1.241 . S
O513 Mn507 2.087 . S
O513 C518 1.256 . S
C514 O520 1.278 . S
C514 O521 1.241 . S
C515 O501 1.244 1_565 S
C515 O503 1.256 . S
C516 O505 1.239 . S
C516 O509 1.256 . S
C517 O506 1.285 . S
C517 O512 1.241 . S
C518 O508 1.244 . S
C518 O513 1.256 . S
C519 O510 1.239 1_565 S
C519 O511 1.256 . S
O520 Mn502 2.221 1_565 S
O520 Mn504 2.290 1_554 S
O520 C514 1.278 . S
O521 Mn504 2.251 1_554 S
O521 C514 1.241 . S
O522 Mn523 2.163 . S
O522 C536 1.244 . S
Mn523 O522 2.163 . S
Mn523 O526 2.160 . S
Mn523 O527 2.221 . S
Mn523 O529 2.163 . S
Mn523 O531 2.160 . S
Mn523 O541 2.221 . S
O524 Mn525 2.087 . S
O524 C536 1.256 . S
Mn525 O524 2.087 . S
Mn525 O532 2.089 . S
Mn525 O541 2.290 . S
Mn525 O542 2.251 . S
O526 Mn523 2.160 . S
O526 C537 1.239 . S
O527 Mn523 2.221 . S
O527 Mn528 2.290 . S
O527 C538 1.278 . S
Mn528 O527 2.290 . S
Mn528 O530 2.089 . S
Mn528 O533 2.251 . S
Mn528 O534 2.087 . S
O529 Mn523 2.163 . S
O529 C539 1.244 . S
O530 Mn528 2.089 . S
O530 C537 1.256 . S
O531 Mn523 2.160 . S
O531 C540 1.239 . S
O532 Mn525 2.089 . S
O532 C540 1.256 . S
O533 Mn528 2.251 . S
O533 C538 1.241 . S
O534 Mn528 2.087 . S
O534 C539 1.256 . S
C535 O541 1.278 . S
C535 O542 1.241 . S
C536 O522 1.244 . S
C536 O524 1.256 . S
C537 O526 1.239 . S
C537 O530 1.256 . S
C538 O527 1.278 . S
C538 O533 1.241 . S
C539 O529 1.244 . S
C539 O534 1.256 . S
C540 O531 1.239 . S
C540 O532 1.256 . S
O541 Mn523 2.221 . S
O541 Mn525 2.290 . S
O541 C535 1.278 . S
O542 Mn525 2.251 . S
O542 C535 1.241 . S
O543 Mn544 2.163 1_655 S
O543 C557 1.244 1_554 S
Mn544 O543 2.163 1_455 S
Mn544 O547 2.160 . S
Mn544 O548 2.221 1_455 S
Mn544 O550 2.163 . S
Mn544 O552 2.160 1_454 S
Mn544 O562 2.221 1_554 S
O545 Mn546 2.087 . S
O545 C557 1.256 . S
Mn546 O545 2.087 . S
Mn546 O553 2.089 . S
Mn546 O562 2.290 1_655 S
Mn546 O563 2.251 . S
O547 Mn544 2.160 . S
O547 C558 1.239 . S
O548 Mn544 2.221 1_655 S
O548 Mn549 2.290 1_655 S
O548 C559 1.278 . S
Mn549 O548 2.290 1_455 S
Mn549 O551 2.089 . S
Mn549 O554 2.251 1_455 S
Mn549 O555 2.087 . S
O550 Mn544 2.163 . S
O550 C560 1.244 . S
O551 Mn549 2.089 . S
O551 C558 1.256 . S
O552 Mn544 2.160 1_656 S
O552 C561 1.239 . S
O553 Mn546 2.089 . S
O553 C561 1.256 . S
O554 Mn549 2.251 1_655 S
O554 C559 1.241 . S
O555 Mn549 2.087 . S
O555 C560 1.256 . S
C556 O562 1.278 . S
C556 O563 1.241 1_455 S
C557 O543 1.244 1_556 S
C557 O545 1.256 . S
C558 O547 1.239 . S
C558 O551 1.256 . S
C559 O548 1.278 . S
C559 O554 1.241 . S
C560 O550 1.244 . S
C560 O555 1.256 . S
C561 O552 1.239 . S
C561 O553 1.256 . S
O562 Mn544 2.221 1_556 S
O562 Mn546 2.290 1_455 S
O562 C556 1.278 . S
O563 Mn546 2.251 . S
O563 C556 1.241 1_655 S
H564 C582 0.951 . S
H565 C584 0.951 . S
H566 C586 0.950 . S
H567 C587 0.950 . S
H568 C589 0.950 . S
H569 C592 0.950 . S
H570 C593 0.950 . S
H571 C595 0.950 1_655 S
H572 C596 0.950 . S
H573 C597 0.951 . S
H574 C599 0.951 . S
H575 C601 0.950 . S
H576 C602 0.950 1_655 S
H577 C604 0.950 . S
H578 C607 0.949 . S
H579 C608 0.950 . S
H580 C610 0.950 . S
H581 C611 0.950 . S
C582 H564 0.951 . S
C582 C583 1.366 . S
C582 C584 1.388 . S
C583 C582 1.366 . S
C583 C587 1.385 . S
C584 H565 0.951 . S
C584 C582 1.388 . S
C584 C585 1.366 . S
C585 C584 1.366 . S
C585 C586 1.414 . S
C585 C588 1.499 . S
C586 H566 0.950 . S
C586 C585 1.414 . S
C586 C587 1.374 . S
C587 H567 0.950 . S
C587 C583 1.385 . S
C587 C586 1.374 . S
C588 C585 1.499 . S
C588 C589 1.373 . S
C588 C590 1.389 . S
C589 H568 0.950 . S
C589 C588 1.373 . S
C589 C605 1.377 . S
C590 C588 1.389 . S
C590 C591 1.524 . S
C590 C604 1.377 . S
C591 C590 1.524 . S
C591 C592 1.397 . S
C591 C596 1.363 . S
C592 H569 0.950 . S
C592 C591 1.397 . S
C592 C593 1.334 . S
C593 H570 0.950 . S
C593 C592 1.334 . S
C593 C594 1.287 . S
C594 C593 1.287 . S
C594 C595 1.524 . S
C594 H613 0.913 . S
C595 H571 0.950 1_455 S
C595 C594 1.524 . S
C595 C596 1.415 . S
C596 H572 0.950 . S
C596 C591 1.363 . S
C596 C595 1.415 . S
C597 H573 0.951 . S
C597 C598 1.366 . S
C597 C599 1.388 . S
C598 C597 1.366 . S
C598 C602 1.385 . S
C599 H574 0.951 . S
C599 C597 1.388 . S
C599 C600 1.366 . S
C600 C599 1.366 . S
C600 C601 1.414 . S
C600 C603 1.499 . S
C601 H575 0.950 . S
C601 C600 1.414 . S
C601 C602 1.374 . S
C602 H576 0.950 1_455 S
C602 C598 1.385 . S
C602 C601 1.374 . S
C603 C600 1.499 . S
C603 C604 1.373 . S
C603 C605 1.389 . S
C604 H577 0.950 . S
C604 C590 1.377 . S
C604 C603 1.373 . S
C605 C589 1.377 . S
C605 C603 1.389 . S
C605 C606 1.524 . S
C606 C605 1.524 . S
C606 C607 1.415 . S
C606 C611 1.363 . S
C607 H578 0.949 . S
C607 C606 1.415 . S
C607 C608 1.314 1_545 S
C608 H579 0.950 . S
C608 C607 1.314 1_565 S
C608 C609 1.287 . S
C609 C608 1.287 . S
C609 C610 1.524 1_565 S
C609 H612 0.999 . S
C610 H580 0.950 . S
C610 C609 1.524 1_545 S
C610 C611 1.415 . S
C611 H581 0.950 . S
C611 C606 1.363 . S
C611 C610 1.415 . S
H612 C609 0.999 . S
H613 C594 0.913 . S
H614 C632 0.951 . S
H615 C634 0.951 . S
H616 C636 0.950 . S
H617 C637 0.950 . S
H618 C639 0.950 . S
H619 C642 0.950 . S
H620 C643 0.950 . S
H621 C645 0.950 . S
H622 C646 0.950 . S
H623 C647 0.951 . S
H624 C649 0.951 . S
H625 C651 0.950 . S
H626 C652 0.950 . S
H627 C654 0.950 . S
H628 C657 0.950 . S
H629 C658 0.950 . S
H630 C660 0.950 . S
H631 C661 0.950 . S
C632 H614 0.951 . S
C632 C633 1.366 . S
C632 C634 1.388 . S
C633 C632 1.366 . S
C633 C637 1.385 . S
C634 H615 0.951 . S
C634 C632 1.388 . S
C634 C635 1.366 . S
C635 C634 1.366 . S
C635 C636 1.414 . S
C635 C638 1.499 . S
C636 H616 0.950 . S
C636 C635 1.414 . S
C636 C637 1.374 . S
C637 H617 0.950 . S
C637 C633 1.385 . S
C637 C636 1.374 . S
C638 C635 1.499 . S
C638 C639 1.373 . S
C638 C640 1.389 . S
C639 H618 0.950 . S
C639 C638 1.373 . S
C639 C655 1.377 . S
C640 C638 1.389 . S
C640 C641 1.524 . S
C640 C654 1.377 . S
C641 C640 1.524 . S
C641 C642 1.397 . S
C641 C646 1.363 1_565 S
C642 H619 0.950 . S
C642 C641 1.397 . S
C642 C643 1.334 . S
C643 H620 0.950 . S
C643 C642 1.334 . S
C643 C644 1.287 1_565 S
C644 C643 1.287 1_545 S
C644 C645 1.524 . S
C644 H663 0.913 . S
C645 H621 0.950 . S
C645 C644 1.524 . S
C645 C646 1.415 . S
C646 H622 0.950 . S
C646 C641 1.363 1_545 S
C646 C645 1.415 . S
C647 H623 0.951 . S
C647 C648 1.366 . S
C647 C649 1.388 . S
C648 C647 1.366 . S
C648 C652 1.385 1_565 S
C649 H624 0.951 . S
C649 C647 1.388 . S
C649 C650 1.366 . S
C650 C649 1.366 . S
C650 C651 1.414 1_565 S
C650 C653 1.499 . S
C651 H625 0.950 . S
C651 C650 1.414 1_545 S
C651 C652 1.374 . S
C652 H626 0.950 . S
C652 C648 1.385 1_545 S
C652 C651 1.374 . S
C653 C650 1.499 . S
C653 C654 1.373 . S
C653 C655 1.389 . S
C654 H627 0.950 . S
C654 C640 1.377 . S
C654 C653 1.373 . S
C655 C639 1.377 . S
C655 C653 1.389 . S
C655 C656 1.524 . S
C656 C655 1.524 . S
C656 C657 1.397 . S
C656 C661 1.363 . S
C657 H628 0.950 . S
C657 C656 1.397 . S
C657 C658 1.334 . S
C658 H629 0.950 . S
C658 C657 1.334 . S
C658 C659 1.287 . S
C659 C658 1.287 . S
C659 C660 1.524 . S
C659 H662 0.999 . S
C660 H630 0.950 . S
C660 C659 1.524 . S
C660 C661 1.415 . S
C661 H631 0.950 . S
C661 C656 1.363 . S
C661 C660 1.415 . S
H662 C659 0.999 . S
H663 C644 0.913 . S
H664 C682 0.951 . S
H665 C684 0.951 . S
H666 C686 0.950 . S
H667 C687 0.950 . S
H668 C689 0.950 . S
H669 C692 0.950 . S
H670 C693 0.950 . S
H671 C695 0.950 . S
H672 C696 0.950 . S
H673 C697 0.951 . S
H674 C699 0.951 . S
H675 C701 0.950 . S
H676 C702 0.950 . S
H677 C704 0.950 . S
H678 C707 0.950 . S
H679 C708 0.950 . S
H680 C710 0.950 . S
H681 C711 0.950 . S
C682 H664 0.951 . S
C682 C683 1.366 . S
C682 C684 1.388 . S
C683 C682 1.366 . S
C683 C687 1.385 . S
C684 H665 0.951 . S
C684 C682 1.388 . S
C684 C685 1.366 . S
C685 C684 1.366 . S
C685 C686 1.414 . S
C685 C688 1.499 . S
C686 H666 0.950 . S
C686 C685 1.414 . S
C686 C687 1.374 . S
C687 H667 0.950 . S
C687 C683 1.385 . S
C687 C686 1.374 . S
C688 C685 1.499 . S
C688 C689 1.373 . S
C688 C690 1.389 . S
C689 H668 0.950 . S
C689 C688 1.373 . S
C689 C705 1.377 . S
C690 C688 1.389 . S
C690 C691 1.524 . S
C690 C704 1.377 . S
C691 C690 1.524 . S
C691 C692 1.397 . S
C691 C696 1.363 . S
C692 H669 0.950 . S
C692 C691 1.397 . S
C692 C693 1.334 . S
C693 H670 0.950 . S
C693 C692 1.334 . S
C693 C694 1.287 . S
C694 C693 1.287 . S
C694 C695 1.524 . S
C694 H713 0.913 . S
C695 H671 0.950 . S
C695 C694 1.524 . S
C695 C696 1.415 . S
C696 H672 0.950 . S
C696 C691 1.363 . S
C696 C695 1.415 . S
C697 H673 0.951 . S
C697 C698 1.366 . S
C697 C699 1.388 . S
C698 C697 1.366 . S
C698 C702 1.385 . S
C699 H674 0.951 . S
C699 C697 1.388 . S
C699 C700 1.366 . S
C700 C699 1.366 . S
C700 C701 1.414 . S
C700 C703 1.499 . S
C701 H675 0.950 . S
C701 C700 1.414 . S
C701 C702 1.374 . S
C702 H676 0.950 . S
C702 C698 1.385 . S
C702 C701 1.374 . S
C703 C700 1.499 . S
C703 C704 1.373 . S
C703 C705 1.389 . S
C704 H677 0.950 . S
C704 C690 1.377 . S
C704 C703 1.373 . S
C705 C689 1.377 . S
C705 C703 1.389 . S
C705 C706 1.524 . S
C706 C705 1.524 . S
C706 C707 1.397 . S
C706 C711 1.363 . S
C707 H678 0.950 . S
C707 C706 1.397 . S
C707 C708 1.334 . S
C708 H679 0.950 . S
C708 C707 1.334 . S
C708 C709 1.287 . S
C709 C708 1.287 . S
C709 C710 1.524 . S
C709 H712 0.999 . S
C710 H680 0.950 . S
C710 C709 1.524 . S
C710 C711 1.415 . S
C711 H681 0.950 . S
C711 C706 1.363 . S
C711 C710 1.415 . S
H712 C709 0.999 . S
H713 C694 0.913 . S
H714 C732 0.951 . S
H715 C734 0.951 . S
H716 C736 0.950 . S
H717 C737 0.950 . S
H718 C739 0.950 . S
H719 C742 0.950 . S
H720 C743 0.950 . S
H721 C745 0.950 . S
H722 C746 0.950 . S
H723 C747 0.951 . S
H724 C749 0.951 . S
H725 C751 0.950 . S
H726 C752 0.950 . S
H727 C754 0.950 . S
H728 C757 0.950 . S
H729 C758 0.950 . S
H730 C760 0.950 . S
H731 C761 0.950 . S
C732 H714 0.951 . S
C732 C733 1.366 . S
C732 C734 1.388 . S
C733 C732 1.366 . S
C733 C737 1.385 . S
C734 H715 0.951 . S
C734 C732 1.388 . S
C734 C735 1.366 . S
C735 C734 1.366 . S
C735 C736 1.414 . S
C735 C738 1.499 . S
C736 H716 0.950 . S
C736 C735 1.414 . S
C736 C737 1.374 . S
C737 H717 0.950 . S
C737 C733 1.385 . S
C737 C736 1.374 . S
C738 C735 1.499 . S
C738 C739 1.373 . S
C738 C740 1.389 . S
C739 H718 0.950 . S
C739 C738 1.373 . S
C739 C755 1.377 . S
C740 C738 1.389 . S
C740 C741 1.524 . S
C740 C754 1.377 . S
C741 C740 1.524 . S
C741 C742 1.397 . S
C741 C746 1.363 . S
C742 H719 0.950 . S
C742 C741 1.397 . S
C742 C743 1.334 . S
C743 H720 0.950 . S
C743 C742 1.334 . S
C743 C744 1.287 . S
C744 C743 1.287 . S
C744 C745 1.524 . S
C744 H763 0.913 . S
C745 H721 0.950 . S
C745 C744 1.524 . S
C745 C746 1.415 . S
C746 H722 0.950 . S
C746 C741 1.363 . S
C746 C745 1.415 . S
C747 H723 0.951 . S
C747 C748 1.366 . S
C747 C749 1.388 . S
C748 C747 1.366 . S
C748 C752 1.385 . S
C749 H724 0.951 . S
C749 C747 1.388 . S
C749 C750 1.366 . S
C750 C749 1.366 . S
C750 C751 1.414 . S
C750 C753 1.499 . S
C751 H725 0.950 . S
C751 C750 1.414 . S
C751 C752 1.374 . S
C752 H726 0.950 . S
C752 C748 1.385 . S
C752 C751 1.374 . S
C753 C750 1.499 . S
C753 C754 1.373 . S
C753 C755 1.389 . S
C754 H727 0.950 . S
C754 C740 1.377 . S
C754 C753 1.373 . S
C755 C739 1.377 . S
C755 C753 1.389 . S
C755 C756 1.524 . S
C756 C755 1.524 . S
C756 C757 1.397 . S
C756 C761 1.363 . S
C757 H728 0.950 . S
C757 C756 1.397 . S
C757 C758 1.334 . S
C758 H729 0.950 . S
C758 C757 1.334 . S
C758 C759 1.287 . S
C759 C758 1.287 . S
C759 C760 1.524 . S
C759 H762 0.999 . S
C760 H730 0.950 . S
C760 C759 1.524 . S
C760 C761 1.415 . S
C761 H731 0.950 . S
C761 C756 1.363 . S
C761 C760 1.415 . S
H762 C759 0.999 . S
H763 C744 0.913 . S
H764 C782 0.951 . S
H765 C784 0.951 . S
H766 C786 0.950 . S
H767 C787 0.950 . S
H768 C789 0.950 . S
H769 C792 0.950 . S
H770 C793 0.950 . S
H771 C795 0.950 . S
H772 C796 0.950 . S
H773 C797 0.951 . S
H774 C799 0.951 . S
H775 C801 0.950 . S
H776 C802 0.950 . S
H777 C804 0.950 . S
H778 C807 0.950 . S
H779 C808 0.950 . S
H780 C810 0.950 . S
H781 C811 0.950 . S
C782 H764 0.951 . S
C782 C783 1.366 . S
C782 C784 1.388 . S
C783 C782 1.366 . S
C783 C787 1.385 . S
C784 H765 0.951 . S
C784 C782 1.388 . S
C784 C785 1.366 . S
C785 C784 1.366 . S
C785 C786 1.414 . S
C785 C788 1.499 . S
C786 H766 0.950 . S
C786 C785 1.414 . S
C786 C787 1.374 . S
C787 H767 0.950 . S
C787 C783 1.385 . S
C787 C786 1.374 . S
C788 C785 1.499 . S
C788 C789 1.373 . S
C788 C790 1.389 . S
C789 H768 0.950 . S
C789 C788 1.373 . S
C789 C805 1.377 . S
C790 C788 1.389 . S
C790 C791 1.524 . S
C790 C804 1.377 . S
C791 C790 1.524 . S
C791 C792 1.397 . S
C791 C796 1.363 . S
C792 H769 0.950 . S
C792 C791 1.397 . S
C792 C793 1.334 . S
C793 H770 0.950 . S
C793 C792 1.334 . S
C793 C794 1.287 . S
C794 C793 1.287 . S
C794 C795 1.524 1_545 S
C794 H813 0.913 1_545 S
C795 H771 0.950 . S
C795 C794 1.524 1_565 S
C795 C796 1.415 1_565 S
C796 H772 0.950 . S
C796 C791 1.363 . S
C796 C795 1.415 1_545 S
C797 H773 0.951 . S
C797 C798 1.366 . S
C797 C799 1.388 . S
C798 C797 1.366 . S
C798 C802 1.385 . S
C799 H774 0.951 . S
C799 C797 1.388 . S
C799 C800 1.366 . S
C800 C799 1.366 . S
C800 C801 1.414 . S
C800 C803 1.499 . S
C801 H775 0.950 . S
C801 C800 1.414 . S
C801 C802 1.374 . S
C802 H776 0.950 . S
C802 C798 1.385 . S
C802 C801 1.374 . S
C803 C800 1.499 . S
C803 C804 1.373 . S
C803 C805 1.389 . S
C804 H777 0.950 . S
C804 C790 1.377 . S
C804 C803 1.373 . S
C805 C789 1.377 . S
C805 C803 1.389 . S
C805 C806 1.524 . S
C806 C805 1.524 . S
C806 C807 1.397 . S
C806 C811 1.363 . S
C807 H778 0.950 . S
C807 C806 1.397 . S
C807 C808 1.334 1_554 S
C808 H779 0.950 . S
C808 C807 1.334 1_556 S
C808 C809 1.287 . S
C809 C808 1.287 . S
C809 C810 1.524 1_556 S
C809 H812 0.999 . S
C810 H780 0.950 . S
C810 C809 1.524 1_554 S
C810 C811 1.415 . S
C811 H781 0.950 . S
C811 C806 1.363 . S
C811 C810 1.415 . S
H812 C809 0.999 . S
H813 C794 0.913 1_565 S
H814 C832 0.951 . S
H815 C834 0.951 . S
H816 C836 0.950 . S
H817 C837 0.950 . S
H818 C839 0.950 . S
H819 C842 0.950 . S
H820 C843 0.950 . S
H821 C845 0.950 . S
H822 C846 0.950 . S
H823 C847 0.951 . S
H824 C849 0.951 . S
H825 C851 0.950 . S
H826 C852 0.950 . S
H827 C854 0.950 . S
H828 C857 0.950 . S
H829 C858 0.950 . S
H830 C860 0.950 . S
H831 C861 0.950 1_565 S
C832 H814 0.951 . S
C832 C833 1.366 . S
C832 C834 1.388 . S
C833 C832 1.366 . S
C833 C837 1.385 . S
C834 H815 0.951 . S
C834 C832 1.388 . S
C834 C835 1.366 . S
C835 C834 1.366 . S
C835 C836 1.414 . S
C835 C838 1.499 . S
C836 H816 0.950 . S
C836 C835 1.414 . S
C836 C837 1.374 . S
C837 H817 0.950 . S
C837 C833 1.385 . S
C837 C836 1.374 . S
C838 C835 1.499 . S
C838 C839 1.373 . S
C838 C840 1.389 . S
C839 H818 0.950 . S
C839 C838 1.373 . S
C839 C855 1.377 . S
C840 C838 1.389 . S
C840 C841 1.524 . S
C840 C854 1.377 . S
C841 C840 1.524 . S
C841 C842 1.397 . S
C841 C846 1.363 . S
C842 H819 0.950 . S
C842 C841 1.397 . S
C842 C843 1.334 . S
C843 H820 0.950 . S
C843 C842 1.334 . S
C843 C844 1.287 . S
C844 C843 1.287 . S
C844 C845 1.524 . S
C844 H863 0.913 . S
C845 H821 0.950 . S
C845 C844 1.524 . S
C845 C846 1.415 . S
C846 H822 0.950 . S
C846 C841 1.363 . S
C846 C845 1.415 . S
C847 H823 0.951 . S
C847 C848 1.366 . S
C847 C849 1.388 . S
C848 C847 1.366 . S
C848 C852 1.385 . S
C849 H824 0.951 . S
C849 C847 1.388 . S
C849 C850 1.366 . S
C850 C849 1.366 . S
C850 C851 1.414 . S
C850 C853 1.499 . S
C851 H825 0.950 . S
C851 C850 1.414 . S
C851 C852 1.374 . S
C852 H826 0.950 . S
C852 C848 1.385 . S
C852 C851 1.374 . S
C853 C850 1.499 . S
C853 C854 1.373 . S
C853 C855 1.389 . S
C854 H827 0.950 . S
C854 C840 1.377 . S
C854 C853 1.373 . S
C855 C839 1.377 . S
C855 C853 1.389 . S
C855 C856 1.524 . S
C856 C855 1.524 . S
C856 C857 1.397 1_565 S
C856 C861 1.363 1_565 S
C857 H828 0.950 . S
C857 C856 1.397 1_545 S
C857 C858 1.334 . S
C858 H829 0.950 . S
C858 C857 1.334 . S
C858 C859 1.287 . S
C859 C858 1.287 . S
C859 C860 1.524 . S
C859 H862 0.999 . S
C860 H830 0.950 . S
C860 C859 1.524 . S
C860 C861 1.415 . S
C861 H831 0.950 1_545 S
C861 C856 1.363 1_545 S
C861 C860 1.415 . S
H862 C859 0.999 . S
H863 C844 0.913 . S
H864 C882 0.951 . S
H865 C884 0.951 . S
H866 C886 0.950 . S
H867 C887 0.950 . S
H868 C889 0.950 . S
H869 C892 0.950 . S
H870 C893 0.950 . S
H871 C895 0.950 . S
H872 C896 0.954 . S
H873 C897 0.951 . S
H874 C899 0.951 . S
H875 C901 0.950 . S
H876 C902 0.950 1_554 S
H877 C904 0.950 . S
H878 C907 0.950 . S
H879 C908 0.950 . S
H880 C910 0.950 . S
H881 C911 0.950 . S
C882 H864 0.951 . S
C882 C883 1.366 . S
C882 C884 1.388 . S
C883 C882 1.366 . S
C883 C887 1.385 . S
C884 H865 0.951 . S
C884 C882 1.388 . S
C884 C885 1.366 . S
C885 C884 1.366 . S
C885 C886 1.414 . S
C885 C888 1.499 . S
C886 H866 0.950 . S
C886 C885 1.414 . S
C886 C887 1.374 . S
C887 H867 0.950 . S
C887 C883 1.385 . S
C887 C886 1.374 . S
C888 C885 1.499 . S
C888 C889 1.373 . S
C888 C890 1.389 . S
C889 H868 0.950 . S
C889 C888 1.373 . S
C889 C905 1.377 . S
C890 C888 1.389 . S
C890 C891 1.524 . S
C890 C904 1.377 . S
C891 C890 1.524 . S
C891 C892 1.397 . S
C891 C896 1.363 1_556 S
C892 H869 0.950 . S
C892 C891 1.397 . S
C892 C893 1.334 1_556 S
C893 H870 0.950 . S
C893 C892 1.334 1_554 S
C893 C894 1.287 . S
C894 C893 1.287 . S
C894 C895 1.524 . S
C894 H913 0.913 . S
C895 H871 0.950 . S
C895 C894 1.524 . S
C895 C896 1.415 . S
C896 H872 0.954 . S
C896 C891 1.363 1_554 S
C896 C895 1.415 . S
C897 H873 0.951 . S
C897 C898 1.366 . S
C897 C899 1.388 . S
C898 C897 1.366 . S
C898 C902 1.385 . S
C899 H874 0.951 . S
C899 C897 1.388 . S
C899 C900 1.366 . S
C900 C899 1.366 . S
C900 C901 1.414 . S
C900 C903 1.499 . S
C901 H875 0.950 . S
C901 C900 1.414 . S
C901 C902 1.374 . S
C902 H876 0.950 1_556 S
C902 C898 1.385 . S
C902 C901 1.374 . S
C903 C900 1.499 . S
C903 C904 1.373 . S
C903 C905 1.389 . S
C904 H877 0.950 . S
C904 C890 1.377 . S
C904 C903 1.373 . S
C905 C889 1.377 . S
C905 C903 1.389 . S
C905 C906 1.524 . S
C906 C905 1.524 . S
C906 C907 1.397 . S
C906 C911 1.363 . S
C907 H878 0.950 . S
C907 C906 1.397 . S
C907 C908 1.334 . S
C908 H879 0.950 . S
C908 C907 1.334 . S
C908 C909 1.287 . S
C909 C908 1.287 . S
C909 C910 1.524 . S
C909 H912 0.999 . S
C910 H880 0.950 . S
C910 C909 1.524 . S
C910 C911 1.415 . S
C911 H881 0.950 . S
C911 C906 1.363 . S
C911 C910 1.415 . S
H912 C909 0.999 . S
H913 C894 0.913 . S
H914 C932 0.951 . S
H915 C934 0.951 . S
H916 C936 0.950 . S
H917 C937 0.950 . S
H918 C939 0.950 . S
H919 C942 0.950 . S
H920 C943 0.950 . S
H921 C945 0.950 . S
H922 C946 0.950 . S
H923 C947 0.951 . S
H924 C949 0.951 . S
H925 C951 0.950 . S
H926 C952 0.950 . S
H927 C954 0.950 . S
H928 C957 0.950 . S
H929 C958 0.950 . S
H930 C960 0.950 . S
H931 C961 0.950 . S
C932 H914 0.951 . S
C932 C933 1.366 . S
C932 C934 1.388 . S
C933 C932 1.366 . S
C933 C937 1.385 . S
C934 H915 0.951 . S
C934 C932 1.388 . S
C934 C935 1.366 . S
C935 C934 1.366 . S
C935 C936 1.414 . S
C935 C938 1.499 . S
C936 H916 0.950 . S
C936 C935 1.414 . S
C936 C937 1.374 . S
C937 H917 0.950 . S
C937 C933 1.385 . S
C937 C936 1.374 . S
C938 C935 1.499 . S
C938 C939 1.373 . S
C938 C940 1.389 . S
C939 H918 0.950 . S
C939 C938 1.373 . S
C939 C955 1.377 . S
C940 C938 1.389 . S
C940 C941 1.524 . S
C940 C954 1.377 . S
C941 C940 1.524 . S
C941 C942 1.397 . S
C941 C946 1.363 . S
C942 H919 0.950 . S
C942 C941 1.397 . S
C942 C943 1.334 . S
C943 H920 0.950 . S
C943 C942 1.334 . S
C943 C944 1.287 . S
C944 C943 1.287 . S
C944 C945 1.524 . S
C944 H963 0.913 . S
C945 H921 0.950 . S
C945 C944 1.524 . S
C945 C946 1.415 . S
C946 H922 0.950 . S
C946 C941 1.363 . S
C946 C945 1.415 . S
C947 H923 0.951 . S
C947 C948 1.366 . S
C947 C949 1.388 . S
C948 C947 1.366 . S
C948 C952 1.385 . S
C949 H924 0.951 . S
C949 C947 1.388 . S
C949 C950 1.366 . S
C950 C949 1.366 . S
C950 C951 1.414 . S
C950 C953 1.499 . S
C951 H925 0.950 . S
C951 C950 1.414 . S
C951 C952 1.374 . S
C952 H926 0.950 . S
C952 C948 1.385 . S
C952 C951 1.374 . S
C953 C950 1.499 . S
C953 C954 1.373 . S
C953 C955 1.389 . S
C954 H927 0.950 . S
C954 C940 1.377 . S
C954 C953 1.373 . S
C955 C939 1.377 . S
C955 C953 1.389 . S
C955 C956 1.524 . S
C956 C955 1.524 . S
C956 C957 1.397 . S
C956 C961 1.363 . S
C957 H928 0.950 . S
C957 C956 1.397 . S
C957 C958 1.334 . S
C958 H929 0.950 . S
C958 C957 1.334 . S
C958 C959 1.287 . S
C959 C958 1.287 . S
C959 C960 1.524 . S
C959 H962 0.999 . S
C960 H930 0.950 . S
C960 C959 1.524 . S
C960 C961 1.415 . S
C961 H931 0.950 . S
C961 C956 1.363 . S
C961 C960 1.415 . S
H962 C959 0.999 . S
H963 C944 0.913 . S
H964 C982 0.951 . S
H965 C984 0.951 . S
H966 C986 0.950 . S
H967 C987 0.950 . S
H968 C989 0.950 . S
H969 C992 0.950 . S
H970 C993 0.950 . S
H971 C995 0.945 1_656 S
H972 C996 0.950 . S
H973 C997 0.951 . S
H974 C999 0.951 . S
H975 C1001 0.950 . S
H976 C1002 0.950 1_655 S
H977 C1004 0.950 . S
H978 C1007 0.950 . S
H979 C1008 0.950 . S
H980 C1010 0.950 . S
H981 C1011 0.950 . S
C982 H964 0.951 . S
C982 C983 1.366 . S
C982 C984 1.388 . S
C983 C982 1.366 . S
C983 C987 1.385 . S
C984 H965 0.951 . S
C984 C982 1.388 . S
C984 C985 1.366 . S
C985 C984 1.366 . S
C985 C986 1.414 . S
C985 C988 1.499 . S
C986 H966 0.950 . S
C986 C985 1.414 . S
C986 C987 1.374 . S
C987 H967 0.950 . S
C987 C983 1.385 . S
C987 C986 1.374 . S
C988 C985 1.499 . S
C988 C989 1.373 . S
C988 C990 1.389 . S
C989 H968 0.950 . S
C989 C988 1.373 . S
C989 C1005 1.377 . S
C990 C988 1.389 . S
C990 C991 1.524 . S
C990 C1004 1.377 . S
C991 C990 1.524 . S
C991 C992 1.397 . S
C991 C996 1.363 . S
C992 H969 0.950 . S
C992 C991 1.397 . S
C992 C993 1.334 1_554 S
C993 H970 0.950 . S
C993 C992 1.334 1_556 S
C993 C994 1.287 . S
C994 C993 1.287 . S
C994 C995 1.514 1_556 S
C994 H1013 0.913 . S
C995 H971 0.945 1_454 S
C995 C994 1.514 1_554 S
C995 C996 1.431 . S
C996 H972 0.950 . S
C996 C991 1.363 . S
C996 C995 1.431 . S
C997 H973 0.951 . S
C997 C998 1.366 . S
C997 C999 1.388 . S
C998 C997 1.366 . S
C998 C1002 1.385 . S
C999 H974 0.951 . S
C999 C997 1.388 . S
C999 C1000 1.366 . S
C1000 C999 1.366 . S
C1000 C1001 1.414 . S
C1000 C1003 1.499 . S
C1001 H975 0.950 . S
C1001 C1000 1.414 . S
C1001 C1002 1.374 . S
C1002 H976 0.950 1_455 S
C1002 C998 1.385 . S
C1002 C1001 1.374 . S
C1003 C1000 1.499 . S
C1003 C1004 1.373 . S
C1003 C1005 1.389 . S
C1004 H977 0.950 . S
C1004 C990 1.377 . S
C1004 C1003 1.373 . S
C1005 C989 1.377 . S
C1005 C1003 1.389 . S
C1005 C1006 1.524 . S
C1006 C1005 1.524 . S
C1006 C1007 1.397 . S
C1006 C1011 1.363 . S
C1007 H978 0.950 . S
C1007 C1006 1.397 . S
C1007 C1008 1.334 . S
C1008 H979 0.950 . S
C1008 C1007 1.334 . S
C1008 C1009 1.287 . S
C1009 C1008 1.287 . S
C1009 C1010 1.524 . S
C1009 H1012 0.999 . S
C1010 H980 0.950 . S
C1010 C1009 1.524 . S
C1010 C1011 1.415 . S
C1011 H981 0.950 . S
C1011 C1006 1.363 . S
C1011 C1010 1.415 . S
H1012 C1009 0.999 . S
H1013 C994 0.913 . S
H1014 C1032 0.951 . S
H1015 C1034 0.951 . S
H1016 C1036 0.950 . S
H1017 C1037 0.950 . S
H1018 C1039 0.950 . S
H1019 C1042 0.950 . S
H1020 C1043 0.950 1_554 S
H1021 C1045 0.950 . S
H1022 C1046 0.950 . S
H1023 C1047 0.951 . S
H1024 C1049 0.951 . S
H1025 C1051 0.950 . S
H1026 C1052 0.950 . S
H1027 C1054 0.950 . S
H1028 C1057 0.950 . S
H1029 C1058 0.950 . S
H1030 C1060 0.950 . S
H1031 C1061 0.950 . S
C1032 H1014 0.951 . S
C1032 C1033 1.366 . S
C1032 C1034 1.388 . S
C1033 C1032 1.366 . S
C1033 C1037 1.385 . S
C1034 H1015 0.951 . S
C1034 C1032 1.388 . S
C1034 C1035 1.366 . S
C1035 C1034 1.366 . S
C1035 C1036 1.414 . S
C1035 C1038 1.499 . S
C1036 H1016 0.950 . S
C1036 C1035 1.414 . S
C1036 C1037 1.374 . S
C1037 H1017 0.950 . S
C1037 C1033 1.385 . S
C1037 C1036 1.374 . S
C1038 C1035 1.499 . S
C1038 C1039 1.373 . S
C1038 C1040 1.389 . S
C1039 H1018 0.950 . S
C1039 C1038 1.373 . S
C1039 C1055 1.377 . S
C1040 C1038 1.389 . S
C1040 C1041 1.524 . S
C1040 C1054 1.377 . S
C1041 C1040 1.524 . S
C1041 C1042 1.397 . S
C1041 C1046 1.363 . S
C1042 H1019 0.950 . S
C1042 C1041 1.397 . S
C1042 C1043 1.334 . S
C1043 H1020 0.950 1_556 S
C1043 C1042 1.334 . S
C1043 C1044 1.287 . S
C1044 C1043 1.287 . S
C1044 C1045 1.524 . S
C1044 H1063 0.913 1_556 S
C1045 H1021 0.950 . S
C1045 C1044 1.524 . S
C1045 C1046 1.415 . S
C1046 H1022 0.950 . S
C1046 C1041 1.363 . S
C1046 C1045 1.415 . S
C1047 H1023 0.951 . S
C1047 C1048 1.366 . S
C1047 C1049 1.388 . S
C1048 C1047 1.366 . S
C1048 C1052 1.385 . S
C1049 H1024 0.951 . S
C1049 C1047 1.388 . S
C1049 C1050 1.366 . S
C1050 C1049 1.366 . S
C1050 C1051 1.414 . S
C1050 C1053 1.499 . S
C1051 H1025 0.950 . S
C1051 C1050 1.414 . S
C1051 C1052 1.374 . S
C1052 H1026 0.950 . S
C1052 C1048 1.385 . S
C1052 C1051 1.374 . S
C1053 C1050 1.499 . S
C1053 C1054 1.373 . S
C1053 C1055 1.389 . S
C1054 H1027 0.950 . S
C1054 C1040 1.377 . S
C1054 C1053 1.373 . S
C1055 C1039 1.377 . S
C1055 C1053 1.389 . S
C1055 C1056 1.524 . S
C1056 C1055 1.524 . S
C1056 C1057 1.397 . S
C1056 C1061 1.363 . S
C1057 H1028 0.950 . S
C1057 C1056 1.397 . S
C1057 C1058 1.334 . S
C1058 H1029 0.950 . S
C1058 C1057 1.334 . S
C1058 C1059 1.287 . S
C1059 C1058 1.287 . S
C1059 C1060 1.524 . S
C1059 H1062 0.999 . S
C1060 H1030 0.950 . S
C1060 C1059 1.524 . S
C1060 C1061 1.415 . S
C1061 H1031 0.950 . S
C1061 C1056 1.363 . S
C1061 C1060 1.415 . S
H1062 C1059 0.999 . S
H1063 C1044 0.913 1_554 S
H1064 C1082 0.951 . S
H1065 C1084 0.951 . S
H1066 C1086 0.950 . S
H1067 C1087 0.950 . S
H1068 C1089 0.950 . S
H1069 C1092 0.950 . S
H1070 C1093 0.950 . S
H1071 C1095 0.950 . S
H1072 C1096 0.950 . S
H1073 C1097 0.951 . S
H1074 C1099 0.951 . S
H1075 C1101 0.923 1_455 S
H1076 C1102 0.950 1_455 S
H1077 C1104 0.950 . S
H1078 C1107 0.950 . S
H1079 C1108 0.950 . S
H1080 C1110 0.950 . S
H1081 C1111 0.950 . S
C1082 H1064 0.951 . S
C1082 C1083 1.366 . S
C1082 C1084 1.388 . S
C1083 C1082 1.366 . S
C1083 C1087 1.385 . S
C1084 H1065 0.951 . S
C1084 C1082 1.388 . S
C1084 C1085 1.366 . S
C1085 C1084 1.366 . S
C1085 C1086 1.414 . S
C1085 C1088 1.499 . S
C1086 H1066 0.950 . S
C1086 C1085 1.414 . S
C1086 C1087 1.374 . S
C1087 H1067 0.950 . S
C1087 C1083 1.385 . S
C1087 C1086 1.374 . S
C1088 C1085 1.499 . S
C1088 C1089 1.373 . S
C1088 C1090 1.389 . S
C1089 H1068 0.950 . S
C1089 C1088 1.373 . S
C1089 C1105 1.377 . S
C1090 C1088 1.389 . S
C1090 C1091 1.524 . S
C1090 C1104 1.377 . S
C1091 C1090 1.524 . S
C1091 C1092 1.397 . S
C1091 C1096 1.363 1_655 S
C1092 H1069 0.950 . S
C1092 C1091 1.397 . S
C1092 C1093 1.334 . S
C1093 H1070 0.950 . S
C1093 C1092 1.334 . S
C1093 C1094 1.287 . S
C1094 C1093 1.287 . S
C1094 C1095 1.524 1_655 S
C1094 H1113 0.913 1_655 S
C1095 H1071 0.950 . S
C1095 C1094 1.524 1_455 S
C1095 C1096 1.415 . S
C1096 H1072 0.950 . S
C1096 C1091 1.363 1_455 S
C1096 C1095 1.415 . S
C1097 H1073 0.951 . S
C1097 C1098 1.366 . S
C1097 C1099 1.388 . S
C1098 C1097 1.366 . S
C1098 C1102 1.385 . S
C1099 H1074 0.951 . S
C1099 C1097 1.388 . S
C1099 C1100 1.366 . S
C1100 C1099 1.366 . S
C1100 C1101 1.414 . S
C1100 C1103 1.499 . S
C1101 H1075 0.923 1_655 S
C1101 C1100 1.414 . S
C1101 C1102 1.374 . S
C1102 H1076 0.950 1_655 S
C1102 C1098 1.385 . S
C1102 C1101 1.374 . S
C1103 C1100 1.499 . S
C1103 C1104 1.373 . S
C1103 C1105 1.389 . S
C1104 H1077 0.950 . S
C1104 C1090 1.377 . S
C1104 C1103 1.373 . S
C1105 C1089 1.377 . S
C1105 C1103 1.389 . S
C1105 C1106 1.524 . S
C1106 C1105 1.524 . S
C1106 C1107 1.397 . S
C1106 C1111 1.363 . S
C1107 H1078 0.950 . S
C1107 C1106 1.397 . S
C1107 C1108 1.334 . S
C1108 H1079 0.950 . S
C1108 C1107 1.334 . S
C1108 C1109 1.287 . S
C1109 C1108 1.287 . S
C1109 C1110 1.524 . S
C1109 H1112 0.999 . S
C1110 H1080 0.950 . S
C1110 C1109 1.524 . S
C1110 C1111 1.415 . S
C1111 H1081 0.950 . S
C1111 C1106 1.363 . S
C1111 C1110 1.415 . S
H1112 C1109 0.999 . S
H1113 C1094 0.913 1_455 S
H1114 C1132 0.951 . S
H1115 C1134 0.951 . S
H1116 C1136 0.950 . S
H1117 C1137 0.950 . S
H1118 C1139 0.950 . S
H1119 C1142 0.950 . S
H1120 C1143 0.950 . S
H1121 C1145 0.950 . S
H1122 C1146 0.950 . S
H1123 C1147 0.951 . S
H1124 C1149 0.951 . S
H1125 C1151 0.950 . S
H1126 C1152 0.950 . S
H1127 C1154 0.950 . S
H1128 C1157 0.950 . S
H1129 C1158 0.950 . S
H1130 C1160 0.950 . S
H1131 C1161 0.950 . S
C1132 H1114 0.951 . S
C1132 C1133 1.366 . S
C1132 C1134 1.388 . S
C1133 C1132 1.366 . S
C1133 C1137 1.385 . S
C1134 H1115 0.951 . S
C1134 C1132 1.388 . S
C1134 C1135 1.366 . S
C1135 C1134 1.366 . S
C1135 C1136 1.414 . S
C1135 C1138 1.499 . S
C1136 H1116 0.950 . S
C1136 C1135 1.414 . S
C1136 C1137 1.374 . S
C1137 H1117 0.950 . S
C1137 C1133 1.385 . S
C1137 C1136 1.374 . S
C1138 C1135 1.499 . S
C1138 C1139 1.373 . S
C1138 C1140 1.389 . S
C1139 H1118 0.950 . S
C1139 C1138 1.373 . S
C1139 C1155 1.377 . S
C1140 C1138 1.389 . S
C1140 C1141 1.524 . S
C1140 C1154 1.377 . S
C1141 C1140 1.524 . S
C1141 C1142 1.397 . S
C1141 C1146 1.363 . S
C1142 H1119 0.950 . S
C1142 C1141 1.397 . S
C1142 C1143 1.334 . S
C1143 H1120 0.950 . S
C1143 C1142 1.334 . S
C1143 C1144 1.287 . S
C1144 C1143 1.287 . S
C1144 C1145 1.524 . S
C1144 H1163 0.913 . S
C1145 H1121 0.950 . S
C1145 C1144 1.524 . S
C1145 C1146 1.415 . S
C1146 H1122 0.950 . S
C1146 C1141 1.363 . S
C1146 C1145 1.415 . S
C1147 H1123 0.951 . S
C1147 C1148 1.366 . S
C1147 C1149 1.388 . S
C1148 C1147 1.366 . S
C1148 C1152 1.385 . S
C1149 H1124 0.951 . S
C1149 C1147 1.388 . S
C1149 C1150 1.366 . S
C1150 C1149 1.366 . S
C1150 C1151 1.414 . S
C1150 C1153 1.499 . S
C1151 H1125 0.950 . S
C1151 C1150 1.414 . S
C1151 C1152 1.374 . S
C1152 H1126 0.950 . S
C1152 C1148 1.385 . S
C1152 C1151 1.374 . S
C1153 C1150 1.499 . S
C1153 C1154 1.373 . S
C1153 C1155 1.389 . S
C1154 H1127 0.950 . S
C1154 C1140 1.377 . S
C1154 C1153 1.373 . S
C1155 C1139 1.377 . S
C1155 C1153 1.389 . S
C1155 C1156 1.524 . S
C1156 C1155 1.524 . S
C1156 C1157 1.397 . S
C1156 C1161 1.363 . S
C1157 H1128 0.950 . S
C1157 C1156 1.397 . S
C1157 C1158 1.334 . S
C1158 H1129 0.950 . S
C1158 C1157 1.334 . S
C1158 C1159 1.287 . S
C1159 C1158 1.287 . S
C1159 C1160 1.524 . S
C1159 H1162 0.999 . S
C1160 H1130 0.950 . S
C1160 C1159 1.524 . S
C1160 C1161 1.415 . S
C1161 H1131 0.950 . S
C1161 C1156 1.363 . S
C1161 C1160 1.415 . S
H1162 C1159 0.999 . S
H1163 C1144 0.913 . S
H1164 C1182 0.951 . S
H1165 C1184 0.951 . S
H1166 C1186 0.950 . S
H1167 C1187 0.950 . S
H1168 C1189 0.950 . S
H1169 C1192 0.950 . S
H1170 C1193 0.950 . S
H1171 C1195 0.950 . S
H1172 C1196 0.950 . S
H1173 C1197 0.978 1_455 S
H1174 C1199 0.951 . S
H1175 C1201 0.950 . S
H1176 C1202 0.950 . S
H1177 C1204 0.950 . S
H1178 C1207 0.946 1_565 S
H1179 C1208 0.950 . S
H1180 C1210 0.950 . S
H1181 C1211 0.950 . S
C1182 H1164 0.951 . S
C1182 C1183 1.366 . S
C1182 C1184 1.388 . S
C1183 C1182 1.366 . S
C1183 C1187 1.385 . S
C1184 H1165 0.951 . S
C1184 C1182 1.388 . S
C1184 C1185 1.366 . S
C1185 C1184 1.366 . S
C1185 C1186 1.414 . S
C1185 C1188 1.499 . S
C1186 H1166 0.950 . S
C1186 C1185 1.414 . S
C1186 C1187 1.374 . S
C1187 H1167 0.950 . S
C1187 C1183 1.385 . S
C1187 C1186 1.374 . S
C1188 C1185 1.499 . S
C1188 C1189 1.373 . S
C1188 C1190 1.389 . S
C1189 H1168 0.950 . S
C1189 C1188 1.373 . S
C1189 C1205 1.377 . S
C1190 C1188 1.389 . S
C1190 C1191 1.524 . S
C1190 C1204 1.377 . S
C1191 C1190 1.524 . S
C1191 C1192 1.397 . S
C1191 C1196 1.363 . S
C1192 H1169 0.950 . S
C1192 C1191 1.397 . S
C1192 C1193 1.334 . S
C1193 H1170 0.950 . S
C1193 C1192 1.334 . S
C1193 C1194 1.287 . S
C1194 C1193 1.287 . S
C1194 C1195 1.524 . S
C1194 H1213 0.913 . S
C1195 H1171 0.950 . S
C1195 C1194 1.524 . S
C1195 C1196 1.415 . S
C1196 H1172 0.950 . S
C1196 C1191 1.363 . S
C1196 C1195 1.415 . S
C1197 H1173 0.978 1_655 S
C1197 C1198 1.366 . S
C1197 C1199 1.388 . S
C1198 C1197 1.366 . S
C1198 C1202 1.385 . S
C1199 H1174 0.951 . S
C1199 C1197 1.388 . S
C1199 C1200 1.366 . S
C1200 C1199 1.366 . S
C1200 C1201 1.414 . S
C1200 C1203 1.499 . S
C1201 H1175 0.950 . S
C1201 C1200 1.414 . S
C1201 C1202 1.374 . S
C1202 H1176 0.950 . S
C1202 C1198 1.385 . S
C1202 C1201 1.374 . S
C1203 C1200 1.499 . S
C1203 C1204 1.373 . S
C1203 C1205 1.389 . S
C1204 H1177 0.950 . S
C1204 C1190 1.377 . S
C1204 C1203 1.373 . S
C1205 C1189 1.377 . S
C1205 C1203 1.389 . S
C1205 C1206 1.524 1_565 S
C1206 C1205 1.524 1_545 S
C1206 C1207 1.397 . S
C1206 C1211 1.363 . S
C1207 H1178 0.946 1_545 S
C1207 C1206 1.397 . S
C1207 C1208 1.334 . S
C1208 H1179 0.950 . S
C1208 C1207 1.334 . S
C1208 C1209 1.287 . S
C1209 C1208 1.287 . S
C1209 C1210 1.524 . S
C1209 H1212 0.999 . S
C1210 H1180 0.950 . S
C1210 C1209 1.524 . S
C1210 C1211 1.415 . S
C1211 H1181 0.950 . S
C1211 C1206 1.363 . S
C1211 C1210 1.415 . S
H1212 C1209 0.999 . S
H1213 C1194 0.913 . S
H1214 C1232 0.951 . S
H1215 C1234 0.951 . S
H1216 C1236 0.950 . S
H1217 C1237 0.950 . S
H1218 C1239 0.950 . S
H1219 C1242 0.950 . S
H1220 C1243 0.950 . S
H1221 C1245 0.950 . S
H1222 C1246 0.950 . S
H1223 C1247 0.951 . S
H1224 C1249 0.951 . S
H1225 C1251 0.950 . S
H1226 C1252 0.985 . S
H1227 C1254 0.950 . S
H1228 C1257 0.950 . S
H1229 C1258 0.950 . S
H1230 C1260 0.950 . S
H1231 C1261 0.950 . S
C1232 H1214 0.951 . S
C1232 C1233 1.366 . S
C1232 C1234 1.388 . S
C1233 C1232 1.366 . S
C1233 C1237 1.385 . S
C1234 H1215 0.951 . S
C1234 C1232 1.388 . S
C1234 C1235 1.366 . S
C1235 C1234 1.366 . S
C1235 C1236 1.414 . S
C1235 C1238 1.499 . S
C1236 H1216 0.950 . S
C1236 C1235 1.414 . S
C1236 C1237 1.374 . S
C1237 H1217 0.950 . S
C1237 C1233 1.385 . S
C1237 C1236 1.374 . S
C1238 C1235 1.499 . S
C1238 C1239 1.373 . S
C1238 C1240 1.389 . S
C1239 H1218 0.950 . S
C1239 C1238 1.373 . S
C1239 C1255 1.377 . S
C1240 C1238 1.389 . S
C1240 C1241 1.524 . S
C1240 C1254 1.377 . S
C1241 C1240 1.524 . S
C1241 C1242 1.397 . S
C1241 C1246 1.363 . S
C1242 H1219 0.950 . S
C1242 C1241 1.397 . S
C1242 C1243 1.334 . S
C1243 H1220 0.950 . S
C1243 C1242 1.334 . S
C1243 C1244 1.287 . S
C1244 C1243 1.287 . S
C1244 C1245 1.524 1_545 S
C1244 H1263 0.913 . S
C1245 H1221 0.950 . S
C1245 C1244 1.524 1_565 S
C1245 C1246 1.415 1_565 S
C1246 H1222 0.950 . S
C1246 C1241 1.363 . S
C1246 C1245 1.415 1_545 S
C1247 H1223 0.951 . S
C1247 C1248 1.366 . S
C1247 C1249 1.388 . S
C1248 C1247 1.366 . S
C1248 C1252 1.385 . S
C1249 H1224 0.951 . S
C1249 C1247 1.388 . S
C1249 C1250 1.366 . S
C1250 C1249 1.366 . S
C1250 C1251 1.414 . S
C1250 C1253 1.499 . S
C1251 H1225 0.950 . S
C1251 C1250 1.414 . S
C1251 C1252 1.374 . S
C1252 H1226 0.985 . S
C1252 C1248 1.385 . S
C1252 C1251 1.374 . S
C1253 C1250 1.499 . S
C1253 C1254 1.373 . S
C1253 C1255 1.389 . S
C1254 H1227 0.950 . S
C1254 C1240 1.377 . S
C1254 C1253 1.373 . S
C1255 C1239 1.377 . S
C1255 C1253 1.389 . S
C1255 C1256 1.524 . S
C1256 C1255 1.524 . S
C1256 C1257 1.397 . S
C1256 C1261 1.363 . S
C1257 H1228 0.950 . S
C1257 C1256 1.397 . S
C1257 C1258 1.334 . S
C1258 H1229 0.950 . S
C1258 C1257 1.334 . S
C1258 C1259 1.287 . S
C1259 C1258 1.287 . S
C1259 C1260 1.524 . S
C1259 H1262 0.999 . S
C1260 H1230 0.950 . S
C1260 C1259 1.524 . S
C1260 C1261 1.415 . S
C1261 H1231 0.950 . S
C1261 C1256 1.363 . S
C1261 C1260 1.415 . S
H1262 C1259 0.999 . S
H1263 C1244 0.913 . S
H1264 C1282 0.951 . S
H1265 C1284 0.951 . S
H1266 C1286 0.950 . S
H1267 C1287 0.950 . S
H1268 C1289 0.950 . S
H1269 C1292 0.950 . S
H1270 C1293 0.950 . S
H1271 C1295 0.950 . S
H1272 C1296 0.950 . S
H1273 C1297 0.951 . S
H1274 C1299 0.951 . S
H1275 C1301 0.950 . S
H1276 C1302 0.950 . S
H1277 C1304 0.950 . S
H1278 C1307 0.950 . S
H1279 C1308 0.950 . S
H1280 C1310 0.950 . S
H1281 C1311 0.950 . S
C1282 H1264 0.951 . S
C1282 C1283 1.366 . S
C1282 C1284 1.388 . S
C1283 C1282 1.366 . S
C1283 C1287 1.385 . S
C1284 H1265 0.951 . S
C1284 C1282 1.388 . S
C1284 C1285 1.366 . S
C1285 C1284 1.366 . S
C1285 C1286 1.414 . S
C1285 C1288 1.499 . S
C1286 H1266 0.950 . S
C1286 C1285 1.414 . S
C1286 C1287 1.374 . S
C1287 H1267 0.950 . S
C1287 C1283 1.385 . S
C1287 C1286 1.374 . S
C1288 C1285 1.499 . S
C1288 C1289 1.373 . S
C1288 C1290 1.389 . S
C1289 H1268 0.950 . S
C1289 C1288 1.373 . S
C1289 C1305 1.377 . S
C1290 C1288 1.389 . S
C1290 C1291 1.524 . S
C1290 C1304 1.377 . S
C1291 C1290 1.524 . S
C1291 C1292 1.397 . S
C1291 C1296 1.363 . S
C1292 H1269 0.950 . S
C1292 C1291 1.397 . S
C1292 C1293 1.334 . S
C1293 H1270 0.950 . S
C1293 C1292 1.334 . S
C1293 C1294 1.287 . S
C1294 C1293 1.287 . S
C1294 C1295 1.524 . S
C1294 H1313 0.913 . S
C1295 H1271 0.950 . S
C1295 C1294 1.524 . S
C1295 C1296 1.415 . S
C1296 H1272 0.950 . S
C1296 C1291 1.363 . S
C1296 C1295 1.415 . S
C1297 H1273 0.951 . S
C1297 C1298 1.366 . S
C1297 C1299 1.388 . S
C1298 C1297 1.366 . S
C1298 C1302 1.385 . S
C1299 H1274 0.951 . S
C1299 C1297 1.388 . S
C1299 C1300 1.366 . S
C1300 C1299 1.366 . S
C1300 C1301 1.414 . S
C1300 C1303 1.499 . S
C1301 H1275 0.950 . S
C1301 C1300 1.414 . S
C1301 C1302 1.374 . S
C1302 H1276 0.950 . S
C1302 C1298 1.385 . S
C1302 C1301 1.374 . S
C1303 C1300 1.499 . S
C1303 C1304 1.373 . S
C1303 C1305 1.389 . S
C1304 H1277 0.950 . S
C1304 C1290 1.377 . S
C1304 C1303 1.373 . S
C1305 C1289 1.377 . S
C1305 C1303 1.389 . S
C1305 C1306 1.524 . S
C1306 C1305 1.524 . S
C1306 C1307 1.397 . S
C1306 C1311 1.363 . S
C1307 H1278 0.950 . S
C1307 C1306 1.397 . S
C1307 C1308 1.334 . S
C1308 H1279 0.950 . S
C1308 C1307 1.334 . S
C1308 C1309 1.287 . S
C1309 C1308 1.287 . S
C1309 C1310 1.524 . S
C1309 H1312 0.999 . S
C1310 H1280 0.950 . S
C1310 C1309 1.524 . S
C1310 C1311 1.415 . S
C1311 H1281 0.950 . S
C1311 C1306 1.363 . S
C1311 C1310 1.415 . S
H1312 C1309 0.999 . S
H1313 C1294 0.913 . S
H1314 C1332 0.951 . S
H1315 C1334 0.951 . S
H1316 C1336 0.950 . S
H1317 C1337 0.950 . S
H1318 C1339 0.950 . S
H1319 C1342 0.950 . S
H1320 C1343 0.950 . S
H1321 C1345 0.950 . S
H1322 C1346 0.950 . S
H1323 C1347 0.951 . S
H1324 C1349 0.951 . S
H1325 C1351 0.950 . S
H1326 C1352 0.950 . S
H1327 C1354 0.950 . S
H1328 C1357 0.949 1_655 S
H1329 C1358 0.950 . S
H1330 C1360 0.950 . S
H1331 C1361 0.950 . S
C1332 H1314 0.951 . S
C1332 C1333 1.366 . S
C1332 C1334 1.388 . S
C1333 C1332 1.366 . S
C1333 C1337 1.385 . S
C1334 H1315 0.951 . S
C1334 C1332 1.388 . S
C1334 C1335 1.366 . S
C1335 C1334 1.366 . S
C1335 C1336 1.414 . S
C1335 C1338 1.499 . S
C1336 H1316 0.950 . S
C1336 C1335 1.414 . S
C1336 C1337 1.374 . S
C1337 H1317 0.950 . S
C1337 C1333 1.385 . S
C1337 C1336 1.374 . S
C1338 C1335 1.499 . S
C1338 C1339 1.373 . S
C1338 C1340 1.389 . S
C1339 H1318 0.950 . S
C1339 C1338 1.373 . S
C1339 C1355 1.377 . S
C1340 C1338 1.389 . S
C1340 C1341 1.524 . S
C1340 C1354 1.377 . S
C1341 C1340 1.524 . S
C1341 C1342 1.397 . S
C1341 C1346 1.363 . S
C1342 H1319 0.950 . S
C1342 C1341 1.397 . S
C1342 C1343 1.334 . S
C1343 H1320 0.950 . S
C1343 C1342 1.334 . S
C1343 C1344 1.287 . S
C1344 C1343 1.287 . S
C1344 C1345 1.524 . S
C1344 H1363 0.913 . S
C1345 H1321 0.950 . S
C1345 C1344 1.524 . S
C1345 C1346 1.415 . S
C1346 H1322 0.950 . S
C1346 C1341 1.363 . S
C1346 C1345 1.415 . S
C1347 H1323 0.951 . S
C1347 C1348 1.366 . S
C1347 C1349 1.388 . S
C1348 C1347 1.366 . S
C1348 C1352 1.385 . S
C1349 H1324 0.951 . S
C1349 C1347 1.388 . S
C1349 C1350 1.366 . S
C1350 C1349 1.366 . S
C1350 C1351 1.414 . S
C1350 C1353 1.499 . S
C1351 H1325 0.950 . S
C1351 C1350 1.414 . S
C1351 C1352 1.374 . S
C1352 H1326 0.950 . S
C1352 C1348 1.385 . S
C1352 C1351 1.374 . S
C1353 C1350 1.499 . S
C1353 C1354 1.373 . S
C1353 C1355 1.389 . S
C1354 H1327 0.950 . S
C1354 C1340 1.377 . S
C1354 C1353 1.373 . S
C1355 C1339 1.377 . S
C1355 C1353 1.389 . S
C1355 C1356 1.524 . S
C1356 C1355 1.524 . S
C1356 C1357 1.397 . S
C1356 C1361 1.363 . S
C1357 H1328 0.949 1_455 S
C1357 C1356 1.397 . S
C1357 C1358 1.334 1_455 S
C1358 H1329 0.950 . S
C1358 C1357 1.334 1_655 S
C1358 C1359 1.287 1_655 S
C1359 C1358 1.287 1_455 S
C1359 C1360 1.524 . S
C1359 H1362 0.999 1_455 S
C1360 H1330 0.950 . S
C1360 C1359 1.524 . S
C1360 C1361 1.415 . S
C1361 H1331 0.950 . S
C1361 C1356 1.363 . S
C1361 C1360 1.415 . S
H1362 C1359 0.999 1_655 S
H1363 C1344 0.913 . S
H1364 C1382 0.951 . S
H1365 C1384 0.951 . S
H1366 C1386 0.950 . S
H1367 C1387 0.950 . S
H1368 C1389 0.950 . S
H1369 C1392 0.950 . S
H1370 C1393 0.950 . S
H1371 C1395 0.950 . S
H1372 C1396 0.950 . S
H1373 C1397 0.951 1_545 S
H1374 C1399 0.951 . S
H1375 C1401 0.950 . S
H1376 C1402 0.950 1_554 S
H1377 C1404 0.950 . S
H1378 C1407 0.950 . S
H1379 C1408 0.964 . S
H1380 C1410 0.950 . S
H1381 C1411 0.950 . S
C1382 H1364 0.951 . S
C1382 C1383 1.366 . S
C1382 C1384 1.388 . S
C1383 C1382 1.366 . S
C1383 C1387 1.385 . S
C1384 H1365 0.951 . S
C1384 C1382 1.388 . S
C1384 C1385 1.366 . S
C1385 C1384 1.366 . S
C1385 C1386 1.414 . S
C1385 C1388 1.499 . S
C1386 H1366 0.950 . S
C1386 C1385 1.414 . S
C1386 C1387 1.374 . S
C1387 H1367 0.950 . S
C1387 C1383 1.385 . S
C1387 C1386 1.374 . S
C1388 C1385 1.499 . S
C1388 C1389 1.373 . S
C1388 C1390 1.389 . S
C1389 H1368 0.950 . S
C1389 C1388 1.373 . S
C1389 C1405 1.377 . S
C1390 C1388 1.389 . S
C1390 C1391 1.524 . S
C1390 C1404 1.377 . S
C1391 C1390 1.524 . S
C1391 C1392 1.397 . S
C1391 C1396 1.363 . S
C1392 H1369 0.950 . S
C1392 C1391 1.397 . S
C1392 C1393 1.334 . S
C1393 H1370 0.950 . S
C1393 C1392 1.334 . S
C1393 C1394 1.287 . S
C1394 C1393 1.287 . S
C1394 C1395 1.524 . S
C1394 H1413 0.913 . S
C1395 H1371 0.950 . S
C1395 C1394 1.524 . S
C1395 C1396 1.415 . S
C1396 H1372 0.950 . S
C1396 C1391 1.363 . S
C1396 C1395 1.415 . S
C1397 H1373 0.951 1_565 S
C1397 C1398 1.366 . S
C1397 C1399 1.388 . S
C1398 C1397 1.366 . S
C1398 C1402 1.385 . S
C1399 H1374 0.951 . S
C1399 C1397 1.388 . S
C1399 C1400 1.366 . S
C1400 C1399 1.366 . S
C1400 C1401 1.414 . S
C1400 C1403 1.499 . S
C1401 H1375 0.950 . S
C1401 C1400 1.414 . S
C1401 C1402 1.374 . S
C1402 H1376 0.950 1_556 S
C1402 C1398 1.385 . S
C1402 C1401 1.374 . S
C1403 C1400 1.499 . S
C1403 C1404 1.373 . S
C1403 C1405 1.389 . S
C1404 H1377 0.950 . S
C1404 C1390 1.377 . S
C1404 C1403 1.373 . S
C1405 C1389 1.377 . S
C1405 C1403 1.389 . S
C1405 C1406 1.524 1_565 S
C1406 C1405 1.524 1_545 S
C1406 C1407 1.397 . S
C1406 C1411 1.363 . S
C1407 H1378 0.950 . S
C1407 C1406 1.397 . S
C1407 C1408 1.334 . S
C1408 H1379 0.964 . S
C1408 C1407 1.334 . S
C1408 C1409 1.287 . S
C1409 C1408 1.287 . S
C1409 C1410 1.524 . S
C1409 H1412 0.999 . S
C1410 H1380 0.950 . S
C1410 C1409 1.524 . S
C1410 C1411 1.415 . S
C1411 H1381 0.950 . S
C1411 C1406 1.363 . S
C1411 C1410 1.415 . S
H1412 C1409 0.999 . S
H1413 C1394 0.913 . S
H1414 C1432 0.951 . S
H1415 C1434 0.951 . S
H1416 C1436 0.950 . S
H1417 C1437 0.950 . S
H1418 C1439 0.950 . S
H1419 C1442 0.950 . S
H1420 C1443 0.950 . S
H1421 C1445 0.950 . S
H1422 C1446 0.950 . S
H1423 C1447 0.951 . S
H1424 C1449 0.951 . S
H1425 C1451 0.950 . S
H1426 C1452 0.950 . S
H1427 C1454 0.950 . S
H1428 C1457 0.950 . S
H1429 C1458 0.950 1_565 S
H1430 C1460 0.950 . S
H1431 C1461 0.950 . S
C1432 H1414 0.951 . S
C1432 C1433 1.366 . S
C1432 C1434 1.388 . S
C1433 C1432 1.366 . S
C1433 C1437 1.385 . S
C1434 H1415 0.951 . S
C1434 C1432 1.388 . S
C1434 C1435 1.366 . S
C1435 C1434 1.366 . S
C1435 C1436 1.414 . S
C1435 C1438 1.499 . S
C1436 H1416 0.950 . S
C1436 C1435 1.414 . S
C1436 C1437 1.374 . S
C1437 H1417 0.950 . S
C1437 C1433 1.385 . S
C1437 C1436 1.374 . S
C1438 C1435 1.499 . S
C1438 C1439 1.373 . S
C1438 C1440 1.389 . S
C1439 H1418 0.950 . S
C1439 C1438 1.373 . S
C1439 C1455 1.377 . S
C1440 C1438 1.389 . S
C1440 C1441 1.524 . S
C1440 C1454 1.377 . S
C1441 C1440 1.524 . S
C1441 C1442 1.397 . S
C1441 C1446 1.363 . S
C1442 H1419 0.950 . S
C1442 C1441 1.397 . S
C1442 C1443 1.334 . S
C1443 H1420 0.950 . S
C1443 C1442 1.334 . S
C1443 C1444 1.287 . S
C1444 C1443 1.287 . S
C1444 C1445 1.524 . S
C1444 H1463 0.913 . S
C1445 H1421 0.950 . S
C1445 C1444 1.524 . S
C1445 C1446 1.415 . S
C1446 H1422 0.950 . S
C1446 C1441 1.363 . S
C1446 C1445 1.415 . S
C1447 H1423 0.951 . S
C1447 C1448 1.366 . S
C1447 C1449 1.388 . S
C1448 C1447 1.366 . S
C1448 C1452 1.385 . S
C1449 H1424 0.951 . S
C1449 C1447 1.388 . S
C1449 C1450 1.366 . S
C1450 C1449 1.366 . S
C1450 C1451 1.414 . S
C1450 C1453 1.499 . S
C1451 H1425 0.950 . S
C1451 C1450 1.414 . S
C1451 C1452 1.374 . S
C1452 H1426 0.950 . S
C1452 C1448 1.385 . S
C1452 C1451 1.374 . S
C1453 C1450 1.499 . S
C1453 C1454 1.373 . S
C1453 C1455 1.389 . S
C1454 H1427 0.950 . S
C1454 C1440 1.377 . S
C1454 C1453 1.373 . S
C1455 C1439 1.377 . S
C1455 C1453 1.389 . S
C1455 C1456 1.524 . S
C1456 C1455 1.524 . S
C1456 C1457 1.397 . S
C1456 C1461 1.363 . S
C1457 H1428 0.950 . S
C1457 C1456 1.397 . S
C1457 C1458 1.334 . S
C1458 H1429 0.950 1_545 S
C1458 C1457 1.334 . S
C1458 C1459 1.287 . S
C1459 C1458 1.287 . S
C1459 C1460 1.524 . S
C1459 H1462 0.999 . S
C1460 H1430 0.950 . S
C1460 C1459 1.524 . S
C1460 C1461 1.415 . S
C1461 H1431 0.950 . S
C1461 C1456 1.363 . S
C1461 C1460 1.415 . S
H1462 C1459 0.999 . S
H1463 C1444 0.913 . S
H1464 C1482 0.951 . S
H1465 C1484 0.951 . S
H1466 C1486 0.950 . S
H1467 C1487 0.950 . S
H1468 C1489 0.950 . S
H1469 C1492 0.950 . S
H1470 C1493 0.950 . S
H1471 C1495 0.950 . S
H1472 C1496 0.950 . S
H1473 C1497 0.951 . S
H1474 C1499 0.951 . S
H1475 C1501 0.950 . S
H1476 C1502 0.950 1_556 S
H1477 C1504 0.950 . S
H1478 C1507 0.950 . S
H1479 C1508 0.950 . S
H1480 C1510 0.950 . S
H1481 C1511 0.950 . S
C1482 H1464 0.951 . S
C1482 C1483 1.366 . S
C1482 C1484 1.388 . S
C1483 C1482 1.366 . S
C1483 C1487 1.385 . S
C1484 H1465 0.951 . S
C1484 C1482 1.388 . S
C1484 C1485 1.366 . S
C1485 C1484 1.366 . S
C1485 C1486 1.414 . S
C1485 C1488 1.499 . S
C1486 H1466 0.950 . S
C1486 C1485 1.414 . S
C1486 C1487 1.374 . S
C1487 H1467 0.950 . S
C1487 C1483 1.385 . S
C1487 C1486 1.374 . S
C1488 C1485 1.499 . S
C1488 C1489 1.373 . S
C1488 C1490 1.389 . S
C1489 H1468 0.950 . S
C1489 C1488 1.373 . S
C1489 C1505 1.377 . S
C1490 C1488 1.389 . S
C1490 C1491 1.524 . S
C1490 C1504 1.377 . S
C1491 C1490 1.524 . S
C1491 C1492 1.397 . S
C1491 C1496 1.363 . S
C1492 H1469 0.950 . S
C1492 C1491 1.397 . S
C1492 C1493 1.334 . S
C1493 H1470 0.950 . S
C1493 C1492 1.334 . S
C1493 C1494 1.287 . S
C1494 C1493 1.287 . S
C1494 C1495 1.524 . S
C1494 H1513 0.913 . S
C1495 H1471 0.950 . S
C1495 C1494 1.524 . S
C1495 C1496 1.415 . S
C1496 H1472 0.950 . S
C1496 C1491 1.363 . S
C1496 C1495 1.415 . S
C1497 H1473 0.951 . S
C1497 C1498 1.366 . S
C1497 C1499 1.388 . S
C1498 C1497 1.366 . S
C1498 C1502 1.385 . S
C1499 H1474 0.951 . S
C1499 C1497 1.388 . S
C1499 C1500 1.366 . S
C1500 C1499 1.366 . S
C1500 C1501 1.414 . S
C1500 C1503 1.499 . S
C1501 H1475 0.950 . S
C1501 C1500 1.414 . S
C1501 C1502 1.374 . S
C1502 H1476 0.950 1_554 S
C1502 C1498 1.385 . S
C1502 C1501 1.374 . S
C1503 C1500 1.499 . S
C1503 C1504 1.373 . S
C1503 C1505 1.389 . S
C1504 H1477 0.950 . S
C1504 C1490 1.377 . S
C1504 C1503 1.373 . S
C1505 C1489 1.377 . S
C1505 C1503 1.389 . S
C1505 C1506 1.524 . S
C1506 C1505 1.524 . S
C1506 C1507 1.397 . S
C1506 C1511 1.363 . S
C1507 H1478 0.950 . S
C1507 C1506 1.397 . S
C1507 C1508 1.334 . S
C1508 H1479 0.950 . S
C1508 C1507 1.334 . S
C1508 C1509 1.287 . S
C1509 C1508 1.287 . S
C1509 C1510 1.524 . S
C1509 H1512 0.999 . S
C1510 H1480 0.950 . S
C1510 C1509 1.524 . S
C1510 C1511 1.415 . S
C1511 H1481 0.950 . S
C1511 C1506 1.363 . S
C1511 C1510 1.415 . S
H1512 C1509 0.999 . S
H1513 C1494 0.913 . S
H1514 C1532 0.951 . S
H1515 C1534 0.951 . S
H1516 C1536 0.950 . S
H1517 C1537 0.950 . S
H1518 C1539 0.950 . S
H1519 C1542 0.950 . S
H1520 C1543 0.950 . S
H1521 C1545 0.950 . S
H1522 C1546 0.950 . S
H1523 C1547 0.951 . S
H1524 C1549 0.951 . S
H1525 C1551 0.950 . S
H1526 C1552 0.950 . S
H1527 C1554 0.950 . S
H1528 C1557 0.950 . S
H1529 C1558 0.950 . S
H1530 C1560 0.950 . S
H1531 C1561 0.950 . S
C1532 H1514 0.951 . S
C1532 C1533 1.366 . S
C1532 C1534 1.388 . S
C1533 C1532 1.366 . S
C1533 C1537 1.385 . S
C1534 H1515 0.951 . S
C1534 C1532 1.388 . S
C1534 C1535 1.366 . S
C1535 C1534 1.366 . S
C1535 C1536 1.414 . S
C1535 C1538 1.499 . S
C1536 H1516 0.950 . S
C1536 C1535 1.414 . S
C1536 C1537 1.374 . S
C1537 H1517 0.950 . S
C1537 C1533 1.385 . S
C1537 C1536 1.374 . S
C1538 C1535 1.499 . S
C1538 C1539 1.373 . S
C1538 C1540 1.389 . S
C1539 H1518 0.950 . S
C1539 C1538 1.373 . S
C1539 C1555 1.377 . S
C1540 C1538 1.389 . S
C1540 C1541 1.524 . S
C1540 C1554 1.377 . S
C1541 C1540 1.524 . S
C1541 C1542 1.397 . S
C1541 C1546 1.363 . S
C1542 H1519 0.950 . S
C1542 C1541 1.397 . S
C1542 C1543 1.334 . S
C1543 H1520 0.950 . S
C1543 C1542 1.334 . S
C1543 C1544 1.287 . S
C1544 C1543 1.287 . S
C1544 C1545 1.524 . S
C1544 H1563 0.913 . S
C1545 H1521 0.950 . S
C1545 C1544 1.524 . S
C1545 C1546 1.415 . S
C1546 H1522 0.950 . S
C1546 C1541 1.363 . S
C1546 C1545 1.415 . S
C1547 H1523 0.951 . S
C1547 C1548 1.366 . S
C1547 C1549 1.388 . S
C1548 C1547 1.366 . S
C1548 C1552 1.385 . S
C1549 H1524 0.951 . S
C1549 C1547 1.388 . S
C1549 C1550 1.366 . S
C1550 C1549 1.366 . S
C1550 C1551 1.414 . S
C1550 C1553 1.499 . S
C1551 H1525 0.950 . S
C1551 C1550 1.414 . S
C1551 C1552 1.374 . S
C1552 H1526 0.950 . S
C1552 C1548 1.385 . S
C1552 C1551 1.374 . S
C1553 C1550 1.499 . S
C1553 C1554 1.373 . S
C1553 C1555 1.389 . S
C1554 H1527 0.950 . S
C1554 C1540 1.377 . S
C1554 C1553 1.373 . S
C1555 C1539 1.377 . S
C1555 C1553 1.389 . S
C1555 C1556 1.524 . S
C1556 C1555 1.524 . S
C1556 C1557 1.397 . S
C1556 C1561 1.363 . S
C1557 H1528 0.950 . S
C1557 C1556 1.397 . S
C1557 C1558 1.334 . S
C1558 H1529 0.950 . S
C1558 C1557 1.334 . S
C1558 C1559 1.287 . S
C1559 C1558 1.287 . S
C1559 C1560 1.524 . S
C1559 H1562 0.999 . S
C1560 H1530 0.950 . S
C1560 C1559 1.524 . S
C1560 C1561 1.415 . S
C1561 H1531 0.950 . S
C1561 C1556 1.363 . S
C1561 C1560 1.415 . S
H1562 C1559 0.999 . S
H1563 C1544 0.913 . S
H1564 C1582 0.951 . S
H1565 C1584 0.951 . S
H1566 C1586 0.950 . S
H1567 C1587 0.950 . S
H1568 C1589 0.950 . S
H1569 C1592 0.950 . S
H1570 C1593 0.950 1_556 S
H1571 C1595 0.950 . S
H1572 C1596 0.950 . S
H1573 C1597 0.951 . S
H1574 C1599 0.951 . S
H1575 C1601 0.950 1_554 S
H1576 C1602 0.950 1_554 S
H1577 C1604 0.950 . S
H1578 C1607 0.950 . S
H1579 C1608 0.950 . S
H1580 C1610 0.950 . S
H1581 C1611 0.950 . S
C1582 H1564 0.951 . S
C1582 C1583 1.366 . S
C1582 C1584 1.388 . S
C1583 C1582 1.366 . S
C1583 C1587 1.385 . S
C1584 H1565 0.951 . S
C1584 C1582 1.388 . S
C1584 C1585 1.366 . S
C1585 C1584 1.366 . S
C1585 C1586 1.414 . S
C1585 C1588 1.499 . S
C1586 H1566 0.950 . S
C1586 C1585 1.414 . S
C1586 C1587 1.374 . S
C1587 H1567 0.950 . S
C1587 C1583 1.385 . S
C1587 C1586 1.374 . S
C1588 C1585 1.499 . S
C1588 C1589 1.373 . S
C1588 C1590 1.389 . S
C1589 H1568 0.950 . S
C1589 C1588 1.373 . S
C1589 C1605 1.377 . S
C1590 C1588 1.389 . S
C1590 C1591 1.524 . S
C1590 C1604 1.377 . S
C1591 C1590 1.524 . S
C1591 C1592 1.397 . S
C1591 C1596 1.363 1_556 S
C1592 H1569 0.950 . S
C1592 C1591 1.397 . S
C1592 C1593 1.334 1_556 S
C1593 H1570 0.950 1_554 S
C1593 C1592 1.334 1_554 S
C1593 C1594 1.287 . S
C1594 C1593 1.287 . S
C1594 C1595 1.524 . S
C1594 H1613 0.913 . S
C1595 H1571 0.950 . S
C1595 C1594 1.524 . S
C1595 C1596 1.415 . S
C1596 H1572 0.950 . S
C1596 C1591 1.363 1_554 S
C1596 C1595 1.415 . S
C1597 H1573 0.951 . S
C1597 C1598 1.366 . S
C1597 C1599 1.388 . S
C1598 C1597 1.366 . S
C1598 C1602 1.385 . S
C1599 H1574 0.951 . S
C1599 C1597 1.388 . S
C1599 C1600 1.366 . S
C1600 C1599 1.366 . S
C1600 C1601 1.414 . S
C1600 C1603 1.499 . S
C1601 H1575 0.950 1_556 S
C1601 C1600 1.414 . S
C1601 C1602 1.374 . S
C1602 H1576 0.950 1_556 S
C1602 C1598 1.385 . S
C1602 C1601 1.374 . S
C1603 C1600 1.499 . S
C1603 C1604 1.373 . S
C1603 C1605 1.389 . S
C1604 H1577 0.950 . S
C1604 C1590 1.377 . S
C1604 C1603 1.373 . S
C1605 C1589 1.377 . S
C1605 C1603 1.389 . S
C1605 C1606 1.524 . S
C1606 C1605 1.524 . S
C1606 C1607 1.397 . S
C1606 C1611 1.363 . S
C1607 H1578 0.950 . S
C1607 C1606 1.397 . S
C1607 C1608 1.334 . S
C1608 H1579 0.950 . S
C1608 C1607 1.334 . S
C1608 C1609 1.287 . S
C1609 C1608 1.287 . S
C1609 C1610 1.524 . S
C1609 H1612 0.999 . S
C1610 H1580 0.950 . S
C1610 C1609 1.524 . S
C1610 C1611 1.415 . S
C1611 H1581 0.950 . S
C1611 C1606 1.363 . S
C1611 C1610 1.415 . S
H1612 C1609 0.999 . S
H1613 C1594 0.913 . S
H1614 C1632 0.951 . S
H1615 C1634 0.951 . S
H1616 C1636 0.950 . S
H1617 C1637 0.950 . S
H1618 C1639 0.950 . S
H1619 C1642 0.950 . S
H1620 C1643 0.950 . S
H1621 C1645 0.950 . S
H1622 C1646 0.950 . S
H1623 C1647 0.951 . S
H1624 C1649 0.951 . S
H1625 C1651 0.950 . S
H1626 C1652 0.950 . S
H1627 C1654 0.950 . S
H1628 C1657 0.950 . S
H1629 C1658 0.950 . S
H1630 C1660 0.950 . S
H1631 C1661 0.950 . S
C1632 H1614 0.951 . S
C1632 C1633 1.366 . S
C1632 C1634 1.388 . S
C1633 C1632 1.366 . S
C1633 C1637 1.385 . S
C1634 H1615 0.951 . S
C1634 C1632 1.388 . S
C1634 C1635 1.366 . S
C1635 C1634 1.366 . S
C1635 C1636 1.414 . S
C1635 C1638 1.499 . S
C1636 H1616 0.950 . S
C1636 C1635 1.414 . S
C1636 C1637 1.374 . S
C1637 H1617 0.950 . S
C1637 C1633 1.385 . S
C1637 C1636 1.374 . S
C1638 C1635 1.499 . S
C1638 C1639 1.373 . S
C1638 C1640 1.389 . S
C1639 H1618 0.950 . S
C1639 C1638 1.373 . S
C1639 C1655 1.377 . S
C1640 C1638 1.389 . S
C1640 C1641 1.524 . S
C1640 C1654 1.377 . S
C1641 C1640 1.524 . S
C1641 C1642 1.397 . S
C1641 C1646 1.363 . S
C1642 H1619 0.950 . S
C1642 C1641 1.397 . S
C1642 C1643 1.334 . S
C1643 H1620 0.950 . S
C1643 C1642 1.334 . S
C1643 C1644 1.287 . S
C1644 C1643 1.287 . S
C1644 C1645 1.524 . S
C1644 H1663 0.913 . S
C1645 H1621 0.950 . S
C1645 C1644 1.524 . S
C1645 C1646 1.415 . S
C1646 H1622 0.950 . S
C1646 C1641 1.363 . S
C1646 C1645 1.415 . S
C1647 H1623 0.951 . S
C1647 C1648 1.366 . S
C1647 C1649 1.388 . S
C1648 C1647 1.366 . S
C1648 C1652 1.385 . S
C1649 H1624 0.951 . S
C1649 C1647 1.388 . S
C1649 C1650 1.366 . S
C1650 C1649 1.366 . S
C1650 C1651 1.414 . S
C1650 C1653 1.499 . S
C1651 H1625 0.950 . S
C1651 C1650 1.414 . S
C1651 C1652 1.374 . S
C1652 H1626 0.950 . S
C1652 C1648 1.385 . S
C1652 C1651 1.374 . S
C1653 C1650 1.499 . S
C1653 C1654 1.373 . S
C1653 C1655 1.389 . S
C1654 H1627 0.950 . S
C1654 C1640 1.377 . S
C1654 C1653 1.373 . S
C1655 C1639 1.377 . S
C1655 C1653 1.389 . S
C1655 C1656 1.524 . S
C1656 C1655 1.524 . S
C1656 C1657 1.397 . S
C1656 C1661 1.363 . S
C1657 H1628 0.950 . S
C1657 C1656 1.397 . S
C1657 C1658 1.334 . S
C1658 H1629 0.950 . S
C1658 C1657 1.334 . S
C1658 C1659 1.287 . S
C1659 C1658 1.287 . S
C1659 C1660 1.524 . S
C1659 H1662 0.999 . S
C1660 H1630 0.950 . S
C1660 C1659 1.524 . S
C1660 C1661 1.415 . S
C1661 H1631 0.950 . S
C1661 C1656 1.363 . S
C1661 C1660 1.415 . S
H1662 C1659 0.999 . S
H1663 C1644 0.913 . S
H1664 C1682 0.951 . S
H1665 C1684 0.951 . S
H1666 C1686 0.950 . S
H1667 C1687 0.950 . S
H1668 C1689 0.950 . S
H1669 C1692 0.950 . S
H1670 C1693 0.950 . S
H1671 C1695 0.950 . S
H1672 C1696 0.947 1_655 S
H1673 C1697 0.951 . S
H1674 C1699 0.951 . S
H1675 C1701 0.950 1_655 S
H1676 C1702 0.978 . S
H1677 C1704 0.950 . S
H1678 C1707 0.950 . S
H1679 C1708 0.950 . S
H1680 C1710 0.950 . S
H1681 C1711 0.950 . S
C1682 H1664 0.951 . S
C1682 C1683 1.366 . S
C1682 C1684 1.388 . S
C1683 C1682 1.366 . S
C1683 C1687 1.385 . S
C1684 H1665 0.951 . S
C1684 C1682 1.388 . S
C1684 C1685 1.366 . S
C1685 C1684 1.366 . S
C1685 C1686 1.414 . S
C1685 C1688 1.499 . S
C1686 H1666 0.950 . S
C1686 C1685 1.414 . S
C1686 C1687 1.374 . S
C1687 H1667 0.950 . S
C1687 C1683 1.385 . S
C1687 C1686 1.374 . S
C1688 C1685 1.499 . S
C1688 C1689 1.373 . S
C1688 C1690 1.389 . S
C1689 H1668 0.950 . S
C1689 C1688 1.373 . S
C1689 C1705 1.377 . S
C1690 C1688 1.389 . S
C1690 C1691 1.524 . S
C1690 C1704 1.377 . S
C1691 C1690 1.524 . S
C1691 C1692 1.397 . S
C1691 C1696 1.368 . S
C1692 H1669 0.950 . S
C1692 C1691 1.397 . S
C1692 C1693 1.334 . S
C1693 H1670 0.950 . S
C1693 C1692 1.334 . S
C1693 C1694 1.287 . S
C1694 C1693 1.287 . S
C1694 C1695 1.524 1_455 S
C1694 H1713 0.913 . S
C1695 H1671 0.950 . S
C1695 C1694 1.524 1_655 S
C1695 C1696 1.413 1_655 S
C1696 H1672 0.947 1_455 S
C1696 C1691 1.368 . S
C1696 C1695 1.413 1_455 S
C1697 H1673 0.951 . S
C1697 C1698 1.366 . S
C1697 C1699 1.388 . S
C1698 C1697 1.366 . S
C1698 C1702 1.362 1_455 S
C1699 H1674 0.951 . S
C1699 C1697 1.388 . S
C1699 C1700 1.366 . S
C1700 C1699 1.366 . S
C1700 C1701 1.414 . S
C1700 C1703 1.499 . S
C1701 H1675 0.950 1_455 S
C1701 C1700 1.414 . S
C1701 C1702 1.369 1_455 S
C1702 H1676 0.978 . S
C1702 C1698 1.362 1_655 S
C1702 C1701 1.369 1_655 S
C1703 C1700 1.499 . S
C1703 C1704 1.373 . S
C1703 C1705 1.389 . S
C1704 H1677 0.950 . S
C1704 C1690 1.377 . S
C1704 C1703 1.373 . S
C1705 C1689 1.377 . S
C1705 C1703 1.389 . S
C1705 C1706 1.524 . S
C1706 C1705 1.524 . S
C1706 C1707 1.397 . S
C1706 C1711 1.363 . S
C1707 H1678 0.950 . S
C1707 C1706 1.397 . S
C1707 C1708 1.334 . S
C1708 H1679 0.950 . S
C1708 C1707 1.334 . S
C1708 C1709 1.287 . S
C1709 C1708 1.287 . S
C1709 C1710 1.524 . S
C1709 H1712 0.999 . S
C1710 H1680 0.950 . S
C1710 C1709 1.524 . S
C1710 C1711 1.415 . S
C1711 H1681 0.950 . S
C1711 C1706 1.363 . S
C1711 C1710 1.415 . S
H1712 C1709 0.999 . S
H1713 C1694 0.913 . S
H1714 C1732 0.951 . S
H1715 C1734 0.951 . S
H1716 C1736 0.950 . S
H1717 C1737 0.950 . S
H1718 C1739 0.950 . S
H1719 C1742 0.950 . S
H1720 C1743 0.950 . S
H1721 C1745 0.950 . S
H1722 C1746 0.950 . S
H1723 C1747 0.951 . S
H1724 C1749 0.951 . S
H1725 C1751 0.950 . S
H1726 C1752 0.950 . S
H1727 C1754 0.950 . S
H1728 C1757 0.950 . S
H1729 C1758 0.950 . S
H1730 C1760 0.950 . S
H1731 C1761 0.950 . S
C1732 H1714 0.951 . S
C1732 C1733 1.366 . S
C1732 C1734 1.388 . S
C1733 C1732 1.366 . S
C1733 C1737 1.385 . S
C1734 H1715 0.951 . S
C1734 C1732 1.388 . S
C1734 C1735 1.366 . S
C1735 C1734 1.366 . S
C1735 C1736 1.414 . S
C1735 C1738 1.499 . S
C1736 H1716 0.950 . S
C1736 C1735 1.414 . S
C1736 C1737 1.374 . S
C1737 H1717 0.950 . S
C1737 C1733 1.385 . S
C1737 C1736 1.374 . S
C1738 C1735 1.499 . S
C1738 C1739 1.373 . S
C1738 C1740 1.389 . S
C1739 H1718 0.950 . S
C1739 C1738 1.373 . S
C1739 C1755 1.377 . S
C1740 C1738 1.389 . S
C1740 C1741 1.524 . S
C1740 C1754 1.377 . S
C1741 C1740 1.524 . S
C1741 C1742 1.397 . S
C1741 C1746 1.363 . S
C1742 H1719 0.950 . S
C1742 C1741 1.397 . S
C1742 C1743 1.334 . S
C1743 H1720 0.950 . S
C1743 C1742 1.334 . S
C1743 C1744 1.287 . S
C1744 C1743 1.287 . S
C1744 C1745 1.524 . S
C1744 H1763 0.913 . S
C1745 H1721 0.950 . S
C1745 C1744 1.524 . S
C1745 C1746 1.415 . S
C1746 H1722 0.950 . S
C1746 C1741 1.363 . S
C1746 C1745 1.415 . S
C1747 H1723 0.951 . S
C1747 C1748 1.366 . S
C1747 C1749 1.388 . S
C1748 C1747 1.366 . S
C1748 C1752 1.385 . S
C1749 H1724 0.951 . S
C1749 C1747 1.388 . S
C1749 C1750 1.366 . S
C1750 C1749 1.366 . S
C1750 C1751 1.414 . S
C1750 C1753 1.499 . S
C1751 H1725 0.950 . S
C1751 C1750 1.414 . S
C1751 C1752 1.374 . S
C1752 H1726 0.950 . S
C1752 C1748 1.385 . S
C1752 C1751 1.374 . S
C1753 C1750 1.499 . S
C1753 C1754 1.373 . S
C1753 C1755 1.389 . S
C1754 H1727 0.950 . S
C1754 C1740 1.377 . S
C1754 C1753 1.373 . S
C1755 C1739 1.377 . S
C1755 C1753 1.389 . S
C1755 C1756 1.524 . S
C1756 C1755 1.524 . S
C1756 C1757 1.397 . S
C1756 C1761 1.363 . S
C1757 H1728 0.950 . S
C1757 C1756 1.397 . S
C1757 C1758 1.334 . S
C1758 H1729 0.950 . S
C1758 C1757 1.334 . S
C1758 C1759 1.287 . S
C1759 C1758 1.287 . S
C1759 C1760 1.524 . S
C1759 H1762 0.999 . S
C1760 H1730 0.950 . S
C1760 C1759 1.524 . S
C1760 C1761 1.415 . S
C1761 H1731 0.950 . S
C1761 C1756 1.363 . S
C1761 C1760 1.415 . S
H1762 C1759 0.999 . S
H1763 C1744 0.913 . S
C583 C1 1.628 . S
C598 C498 1.601 . S
C633 C80 1.468 . S
C648 C515 1.461 . S
C698 C538 1.175 . S
C683 C140 1.361 . S
C733 C211 1.792 . S
C748 C559 1.539 . S
C798 C518 1.809 . S
C783 C31 1.837 . S
C848 C495 1.700 . S
C833 C61 1.692 . S
C898 C557 1.266 . S
C883 C151 1.277 . S
C948 C536 1.420 . S
C933 C200 1.423 . S
C983 C20 1.808 . S
C998 C560 1.768 . S
C1048 C517 1.340 . S
C1033 C121 1.584 . S
C1083 C181 1.656 . S
C1098 C493 1.527 . S
C1133 C91 1.481 . S
C1148 C539 1.498 . S
C1198 C497 1.615 . S
C1183 C260 1.668 . S
C1233 C320 1.241 . S
C1248 C516 1.239 . S
C1283 C361 1.488 . S
C1298 C535 1.276 . S
C1333 C451 1.697 . S
C1348 C556 1.442 . S
C1383 C271 1.817 . S
C1398 C519 1.787 . S
C1448 C494 1.786 . S
C1433 C301 1.786 . S
C1498 C558 1.137 . S
C1483 C380 1.169 . S
C1548 C537 1.552 . S
C1533 C440 1.562 . S
C1583 C241 1.576 . S
C1598 C561 1.553 . S
C1648 C514 1.244 . S
C1633 C391 1.476 . S
C1698 C496 1.282 . S
C1683 C421 1.398 . S
C1733 C331 1.437 . S
C1748 C540 1.435 . S
