# Generated by pormake.
# Topology apo, (3,6)-cn, num edge types: 1
# Building blocks:
#     Node 0, Type 0, BuildingBlock: ESEHIV_clean_linker_0, # of connection points: 3
#     Node 1, Type 0, BuildingBlock: ESEHIV_clean_linker_0, # of connection points: 3
#     Node 2, Type 0, BuildingBlock: ESEHIV_clean_linker_0, # of connection points: 3
#     Node 3, Type 0, BuildingBlock: ESEHIV_clean_linker_0, # of connection points: 3
#     Node 4, Type 0, BuildingBlock: ESEHIV_clean_linker_0, # of connection points: 3
#     Node 5, Type 0, BuildingBlock: ESEHIV_clean_linker_0, # of connection points: 3
#     Node 6, Type 0, BuildingBlock: ESEHIV_clean_linker_0, # of connection points: 3
#     Node 7, Type 0, BuildingBlock: ESEHIV_clean_linker_0, # of connection points: 3
#     Node 8, Type 1, BuildingBlock: KUMBOL_clean_sbu_1, # of connection points: 6
#     Node 9, Type 1, BuildingBlock: KUMBOL_clean_sbu_1, # of connection points: 6
#     Node 10, Type 1, BuildingBlock: KUMBOL_clean_sbu_1, # of connection points: 6
#     Node 11, Type 1, BuildingBlock: KUMBOL_clean_sbu_1, # of connection points: 6
#     Edge 12, Type (0, 1), BuildingBlock: KIFKEQ_clean_linker_1, # of connection points: 2
#     Edge 13, Type (0, 1), BuildingBlock: KIFKEQ_clean_linker_1, # of connection points: 2
#     Edge 14, Type (0, 1), BuildingBlock: KIFKEQ_clean_linker_1, # of connection points: 2
#     Edge 15, Type (0, 1), BuildingBlock: KIFKEQ_clean_linker_1, # of connection points: 2
#     Edge 16, Type (0, 1), BuildingBlock: KIFKEQ_clean_linker_1, # of connection points: 2
#     Edge 17, Type (0, 1), BuildingBlock: KIFKEQ_clean_linker_1, # of connection points: 2
#     Edge 18, Type (0, 1), BuildingBlock: KIFKEQ_clean_linker_1, # of connection points: 2
#     Edge 19, Type (0, 1), BuildingBlock: KIFKEQ_clean_linker_1, # of connection points: 2
#     Edge 20, Type (0, 1), BuildingBlock: KIFKEQ_clean_linker_1, # of connection points: 2
#     Edge 21, Type (0, 1), BuildingBlock: KIFKEQ_clean_linker_1, # of connection points: 2
#     Edge 22, Type (0, 1), BuildingBlock: KIFKEQ_clean_linker_1, # of connection points: 2
#     Edge 23, Type (0, 1), BuildingBlock: KIFKEQ_clean_linker_1, # of connection points: 2
#     Edge 24, Type (0, 1), BuildingBlock: KIFKEQ_clean_linker_1, # of connection points: 2
#     Edge 25, Type (0, 1), BuildingBlock: KIFKEQ_clean_linker_1, # of connection points: 2
#     Edge 26, Type (0, 1), BuildingBlock: KIFKEQ_clean_linker_1, # of connection points: 2
#     Edge 27, Type (0, 1), BuildingBlock: KIFKEQ_clean_linker_1, # of connection points: 2
#     Edge 28, Type (0, 1), BuildingBlock: KIFKEQ_clean_linker_1, # of connection points: 2
#     Edge 29, Type (0, 1), BuildingBlock: KIFKEQ_clean_linker_1, # of connection points: 2
#     Edge 30, Type (0, 1), BuildingBlock: KIFKEQ_clean_linker_1, # of connection points: 2
#     Edge 31, Type (0, 1), BuildingBlock: KIFKEQ_clean_linker_1, # of connection points: 2
#     Edge 32, Type (0, 1), BuildingBlock: KIFKEQ_clean_linker_1, # of connection points: 2
#     Edge 33, Type (0, 1), BuildingBlock: KIFKEQ_clean_linker_1, # of connection points: 2
#     Edge 34, Type (0, 1), BuildingBlock: KIFKEQ_clean_linker_1, # of connection points: 2
#     Edge 35, Type (0, 1), BuildingBlock: KIFKEQ_clean_linker_1, # of connection points: 2
# Relax obj value: 0.008
# Max RMSD: 0.113
# Mean RMSD: 0.086
data_MOF--net-apo--node1-KUMBOL_clean_sbu_1--node2-ESEHIV_clean_linker_0--edge1-KIFKEQ_clean_linker_1
_symmetry_space_group_name_H-M    P1
_symmetry_Int_Tables_number       1
_symmetry_cell_setting            triclinic
loop_
_symmetry_equiv_pos_as_xyz
'x, y, z'
_cell_length_a     23.206368
_cell_length_b     40.600352
_cell_length_c     51.463693
_cell_angle_alpha  89.823839
_cell_angle_beta   90.091166
_cell_angle_gamma 90.279726
loop_
_atom_site_label
_atom_site_type_symbol
_atom_site_fract_x
_atom_site_fract_y
_atom_site_fract_z
_atom_type_partial_charge
H0 H 0.33982 0.42595 0.43393 0.0
H1 H 0.27167 0.3836 0.36406 0.0
H2 H 0.24567 0.33425 0.43726 0.0
C3 C 0.31644 0.40626 0.42434 0.0
C4 C 0.29457 0.37966 0.43904 0.0
C5 C 0.3085 0.40777 0.39731 0.0
C6 C 0.2776 0.38251 0.38493 0.0
C7 C 0.25404 0.35604 0.39912 0.0
C8 C 0.26319 0.35468 0.42619 0.0
H9 H 0.17916 0.0695 0.9383 0.0
H10 H 0.23602 0.11567 0.86752 0.0
H11 H 0.25993 0.16516 0.94068 0.0
C12 C 0.19954 0.09005 0.92836 0.0
C13 C 0.21922 0.11726 0.94276 0.0
C14 C 0.20539 0.08932 0.90122 0.0
C15 C 0.23151 0.1161 0.88848 0.0
C16 C 0.25131 0.14358 0.90251 0.0
C17 C 0.24505 0.144 0.92971 0.0
H18 H 0.84996 0.0892 0.59199 0.0
H19 H 0.77119 0.12234 0.66269 0.0
H20 H 0.75674 0.18066 0.59313 0.0
C21 C 0.82474 0.10729 0.60238 0.0
C22 C 0.80411 0.13532 0.58922 0.0
C23 C 0.81352 0.10268 0.62896 0.0
C24 C 0.78096 0.12625 0.64232 0.0
C25 C 0.7598 0.15433 0.62954 0.0
C26 C 0.77146 0.1586 0.60296 0.0
H27 H 0.66263 0.42069 0.08884 0.0
H28 H 0.72378 0.38212 0.16158 0.0
H29 H 0.74619 0.32619 0.09167 0.0
C30 C 0.68337 0.40121 0.09977 0.0
C31 C 0.70446 0.37329 0.08675 0.0
C32 C 0.68914 0.4042 0.12687 0.0
C33 C 0.7171 0.37919 0.14087 0.0
C34 C 0.73828 0.35106 0.12839 0.0
C35 C 0.73138 0.34824 0.10134 0.0
H36 H 0.67268 0.57214 0.59248 0.0
H37 H 0.76999 0.66247 0.58699 0.0
H38 H 0.74301 0.61627 0.66137 0.0
C39 C 0.69767 0.59153 0.60162 0.0
C40 C 0.70556 0.59098 0.6287 0.0
C41 C 0.72032 0.61733 0.58635 0.0
C42 C 0.75121 0.6429 0.59862 0.0
C43 C 0.76007 0.64259 0.6257 0.0
C44 C 0.73675 0.6166 0.6405 0.0
H45 H 0.83916 0.92897 0.08991 0.0
H46 H 0.7673 0.88586 0.15915 0.0
H47 H 0.74516 0.83787 0.08529 0.0
C48 C 0.81566 0.90935 0.0996 0.0
C49 C 0.79505 0.88279 0.08479 0.0
C50 C 0.80494 0.91118 0.12642 0.0
C51 C 0.77336 0.88563 0.1383 0.0
C52 C 0.75089 0.85921 0.12374 0.0
C53 C 0.76191 0.85804 0.09684 0.0
H54 H 0.16057 0.91798 0.43421 0.0
H55 H 0.24563 0.82402 0.43689 0.0
H56 H 0.22969 0.87598 0.36437 0.0
C57 C 0.18327 0.89834 0.42444 0.0
C58 C 0.19203 0.90009 0.39742 0.0
C59 C 0.20235 0.87095 0.43885 0.0
C60 C 0.23056 0.84513 0.42592 0.0
C61 C 0.24002 0.84658 0.39897 0.0
C62 C 0.22074 0.87419 0.38499 0.0
H63 H 0.32556 0.57821 0.94005 0.0
H64 H 0.26637 0.61579 0.86667 0.0
H65 H 0.2431 0.67297 0.93589 0.0
C66 C 0.30587 0.59774 0.92878 0.0
C67 C 0.28628 0.62637 0.94132 0.0
C68 C 0.29786 0.5935 0.9019 0.0
C69 C 0.27075 0.61848 0.88752 0.0
C70 C 0.25021 0.64708 0.89956 0.0
C71 C 0.25863 0.65093 0.92646 0.0
C72 C 0.81779 0.11733 0.26189 0.0
C73 C 0.80403 0.05905 0.27056 0.0
C74 C 0.83674 0.08822 0.27294 0.0
C75 C 0.75349 0.05921 0.25552 0.0
C76 C 0.76535 0.11804 0.24802 0.0
C77 C 0.73425 0.08865 0.24421 0.0
N78 N 0.84824 0.14538 0.26653 0.0
C79 C 0.82509 0.17528 0.26049 0.0
C80 C 0.7445 0.14848 0.23943 0.0
C81 C 0.77392 0.1773 0.24619 0.0
Gd82 Gd 0.07309 0.14117 0.23901 0.0
Gd83 Gd 0.93664 0.13889 0.28858 0.0
N84 N 0.88619 0.0888 0.28702 0.0
C85 C 0.82236 0.0309 0.28399 0.0
C86 C 0.90263 0.06208 0.30136 0.0
C87 C 0.87132 0.0326 0.29983 0.0
H88 H 0.94064 0.06347 0.31348 0.0
H89 H 0.88512 0.0112 0.31072 0.0
H90 H 0.03552 0.20321 0.19803 0.0
H91 H 0.84553 0.1977 0.267 0.0
H92 H 0.05946 0.26171 0.1915 0.0
H93 H 0.79832 0.00802 0.28274 0.0
H94 H 0.72814 0.03694 0.25313 0.0
H95 H 0.17943 0.10929 0.27397 0.0
H96 H 0.70442 0.15011 0.22868 0.0
H97 H 0.75669 0.2011 0.2408 0.0
H98 H 0.22195 0.28005 0.24745 0.0
H99 H 0.69422 0.08865 0.23334 0.0
H100 H 0.29933 0.1865 0.29247 0.0
H101 H 0.26947 0.12797 0.29548 0.0
N102 N 0.15897 0.15685 0.25949 0.0
C103 C 0.17595 0.18867 0.2565 0.0
C104 C 0.19252 0.13482 0.27259 0.0
C105 C 0.26011 0.17839 0.28294 0.0
C106 C 0.24337 0.14532 0.28471 0.0
C107 C 0.22652 0.20049 0.26853 0.0
H108 H 0.28045 0.24343 0.27496 0.0
N109 N 0.09585 0.19641 0.22878 0.0
C110 C 0.14274 0.20923 0.24109 0.0
C111 C 0.12786 0.26165 0.21984 0.0
C112 C 0.15963 0.24229 0.23719 0.0
C113 C 0.06808 0.21437 0.21014 0.0
C114 C 0.08258 0.24741 0.20588 0.0
O115 O 0.95364 0.09623 0.26126 0.0
O116 O 0.98722 0.12221 0.22494 0.0
O117 O 0.11724 0.1438 0.20171 0.0
O118 O 0.11644 0.09833 0.22344 0.0
O119 O 0.01847 0.11422 0.30214 0.0
O120 O 0.06827 0.09642 0.26559 0.0
O121 O 0.08128 0.15993 0.28042 0.0
O122 O 0.9939 0.18391 0.28743 0.0
O123 O 0.94803 0.13342 0.33022 0.0
O124 O 0.87176 0.15702 0.31534 0.0
O125 O 0.98843 0.16313 0.22531 0.0
O126 O 0.94671 0.18389 0.26248 0.0
C127 C 0.95918 0.09785 0.23593 0.0
C128 C 0.05358 0.09366 0.29034 0.0
C129 C 0.11029 0.09464 0.17748 0.0
C130 C 0.11118 0.0893 0.13013 0.0
C131 C 0.05205 0.05256 0.15633 0.0
C132 C 0.07109 0.06815 0.1789 0.0
C133 C 0.07141 0.06324 0.13208 0.0
C134 C 0.13094 0.1048 0.15296 0.0
C135 C 0.12808 0.11243 0.20127 0.0
C136 C 0.20868 0.25463 0.25001 0.0
C137 C 0.24211 0.23375 0.26561 0.0
H138 H 0.13941 0.28716 0.2163 0.0
C139 C 0.0498 0.18299 0.2911 0.0
C140 C 0.95444 0.18427 0.2371 0.0
C141 C 0.90659 0.17413 0.35629 0.0
C142 C 0.90105 0.18878 0.40219 0.0
C143 C 0.93433 0.22893 0.37025 0.0
C144 C 0.92664 0.20589 0.35043 0.0
C145 C 0.92177 0.22047 0.396 0.0
C146 C 0.89369 0.16569 0.3821 0.0
C147 C 0.90106 0.14904 0.33595 0.0
H148 H 0.02195 0.0322 0.15764 0.0
H149 H 0.05468 0.05959 0.19742 0.0
H150 H 0.05592 0.05082 0.1148 0.0
H151 H 0.16126 0.12513 0.15159 0.0
H152 H 0.95002 0.25341 0.36565 0.0
H153 H 0.93641 0.21275 0.33059 0.0
H154 H 0.9275 0.23886 0.41099 0.0
H155 H 0.87892 0.14093 0.38655 0.0
C156 C 0.67832 0.3912 0.76506 0.0
C157 C 0.6796 0.44864 0.77795 0.0
C158 C 0.65231 0.41751 0.77768 0.0
C159 C 0.73233 0.45309 0.76501 0.0
C160 C 0.73139 0.39555 0.75216 0.0
C161 C 0.75814 0.42663 0.75216 0.0
N162 N 0.6505 0.36165 0.76457 0.0
C163 C 0.67438 0.33514 0.75255 0.0
C164 C 0.75561 0.36859 0.73933 0.0
C165 C 0.72708 0.33822 0.73964 0.0
Gd166 Gd 0.41936 0.36433 0.74109 0.0
Gd167 Gd 0.56242 0.3588 0.78665 0.0
N168 N 0.60047 0.41266 0.78958 0.0
C169 C 0.65341 0.47435 0.79149 0.0
C170 C 0.57712 0.43707 0.80432 0.0
C171 C 0.60242 0.46837 0.80505 0.0
H172 H 0.54021 0.43249 0.81631 0.0
H173 H 0.58306 0.48773 0.81647 0.0
H174 H 0.4476 0.29726 0.70343 0.0
H175 H 0.65327 0.31146 0.75338 0.0
H176 H 0.41218 0.24071 0.69858 0.0
H177 H 0.67301 0.49861 0.79218 0.0
H178 H 0.75367 0.47689 0.76493 0.0
H179 H 0.32192 0.40335 0.77689 0.0
H180 H 0.79633 0.37095 0.7292 0.0
H181 H 0.74578 0.31714 0.73004 0.0
H182 H 0.2429 0.23662 0.75162 0.0
H183 H 0.79881 0.43048 0.74227 0.0
H184 H 0.18506 0.3357 0.79446 0.0
H185 H 0.22857 0.39127 0.79816 0.0
N186 N 0.3308 0.35515 0.76162 0.0
C187 C 0.30722 0.32464 0.75886 0.0
C188 C 0.30315 0.37906 0.77529 0.0
C189 C 0.22582 0.34092 0.78503 0.0
C190 C 0.25031 0.3723 0.78723 0.0
C191 C 0.25425 0.31661 0.77074 0.0
H192 H 0.19132 0.27792 0.77742 0.0
N193 N 0.38793 0.30983 0.73321 0.0
C194 C 0.33711 0.30119 0.74467 0.0
C195 C 0.34229 0.24699 0.72553 0.0
C196 C 0.31354 0.26933 0.7415 0.0
C197 C 0.41271 0.28914 0.71562 0.0
C198 C 0.39142 0.25719 0.71211 0.0
O199 O 0.5692 0.38323 0.74693 0.0
O200 O 0.48092 0.40733 0.74221 0.0
O201 O 0.40778 0.36736 0.69862 0.0
O202 O 0.35368 0.39588 0.72486 0.0
O203 O 0.48454 0.38462 0.80378 0.0
O204 O 0.43486 0.40667 0.76864 0.0
O205 O 0.40987 0.34114 0.7811 0.0
O206 O 0.4978 0.31704 0.78812 0.0
O207 O 0.57897 0.36096 0.82881 0.0
O208 O 0.62575 0.32672 0.80392 0.0
O209 O 0.49976 0.33976 0.7251 0.0
O210 O 0.54079 0.31554 0.76116 0.0
C211 C 0.5362 0.4064 0.73727 0.0
C212 C 0.44729 0.40561 0.79366 0.0
C213 C 0.33415 0.40326 0.67894 0.0
C214 C 0.3147 0.40921 0.63241 0.0
C215 C 0.267 0.44477 0.66344 0.0
C216 C 0.29545 0.42906 0.68383 0.0
C217 C 0.27677 0.4351 0.6379 0.0
C218 C 0.34318 0.39308 0.65304 0.0
C219 C 0.36596 0.38842 0.70101 0.0
C220 C 0.26129 0.26105 0.75369 0.0
C221 C 0.23174 0.28462 0.76827 0.0
H222 H 0.32556 0.22232 0.72256 0.0
C223 C 0.44242 0.31931 0.79288 0.0
C224 C 0.53286 0.31721 0.73591 0.0
C225 C 0.65123 0.32502 0.84952 0.0
C226 C 0.68195 0.32704 0.89496 0.0
C227 C 0.72314 0.28668 0.86574 0.0
C228 C 0.68931 0.29867 0.84546 0.0
C229 C 0.71984 0.30086 0.89028 0.0
C230 C 0.64705 0.33892 0.87455 0.0
C231 C 0.61805 0.33809 0.82719 0.0
H232 H 0.23753 0.4647 0.66745 0.0
H233 H 0.28757 0.43747 0.70345 0.0
H234 H 0.25432 0.44773 0.62233 0.0
H235 H 0.37292 0.37329 0.64889 0.0
H236 H 0.75236 0.26644 0.86236 0.0
H237 H 0.69337 0.28737 0.82652 0.0
H238 H 0.74675 0.29125 0.90574 0.0
H239 H 0.61811 0.3593 0.87802 0.0
C240 C 0.81119 0.83558 0.76014 0.0
C241 C 0.80986 0.77607 0.76497 0.0
C242 C 0.83781 0.8067 0.76836 0.0
C243 C 0.75542 0.77484 0.75305 0.0
C244 C 0.75656 0.8344 0.74813 0.0
C245 C 0.72886 0.8039 0.74465 0.0
N246 N 0.83954 0.86472 0.76312 0.0
C247 C 0.81544 0.89358 0.75508 0.0
C248 C 0.73169 0.86391 0.73965 0.0
C249 C 0.76122 0.89362 0.74321 0.0
Gd250 Gd 0.07565 0.8639 0.73946 0.0
Gd251 Gd 0.93046 0.86199 0.78266 0.0
N252 N 0.89147 0.80851 0.77912 0.0
C253 C 0.83747 0.74753 0.77367 0.0
C254 C 0.91701 0.78092 0.78889 0.0
C255 C 0.89093 0.75004 0.78596 0.0
H256 H 0.9567 0.78238 0.79954 0.0
H257 H 0.91183 0.7282 0.79346 0.0
H258 H 0.04903 0.93526 0.70709 0.0
H259 H 0.83761 0.91663 0.75825 0.0
H260 H 0.08109 0.99292 0.70827 0.0
H261 H 0.81743 0.72354 0.77142 0.0
H262 H 0.73348 0.7515 0.7502 0.0
H263 H 0.1701 0.82137 0.77512 0.0
H264 H 0.68977 0.86402 0.73034 0.0
H265 H 0.7422 0.91657 0.73686 0.0
H266 H 0.24184 0.99196 0.76683 0.0
H267 H 0.68694 0.80251 0.73541 0.0
H268 H 0.29862 0.88834 0.80336 0.0
H269 H 0.25826 0.83191 0.80085 0.0
N270 N 0.15996 0.87137 0.76393 0.0
C271 C 0.18236 0.90239 0.76434 0.0
C272 C 0.18695 0.84611 0.77646 0.0
C273 C 0.25993 0.88384 0.79208 0.0
C274 C 0.23714 0.85197 0.79081 0.0
C275 C 0.23262 0.90953 0.77874 0.0
H276 H 0.29173 0.94804 0.79083 0.0
N277 N 0.10507 0.91954 0.73731 0.0
C278 C 0.15354 0.92725 0.75105 0.0
C279 C 0.14745 0.98384 0.73665 0.0
C280 C 0.17533 0.95976 0.75147 0.0
C281 C 0.08142 0.94227 0.72094 0.0
C282 C 0.10101 0.97488 0.7209 0.0
O283 O 0.92591 0.84027 0.7422 0.0
O284 O 0.01653 0.82007 0.73385 0.0
O285 O 0.09573 0.86858 0.69776 0.0
O286 O 0.14633 0.83652 0.72312 0.0
O287 O 0.00931 0.83541 0.79818 0.0
O288 O 0.06075 0.81745 0.76251 0.0
O289 O 0.07631 0.88372 0.78083 0.0
O290 O 0.98733 0.90692 0.78514 0.0
O291 O 0.92782 0.85378 0.82447 0.0
O292 O 0.86352 0.88425 0.80603 0.0
O293 O 0.99506 0.88808 0.72281 0.0
O294 O 0.94606 0.90772 0.75866 0.0
C295 C 0.9605 0.81994 0.73013 0.0
C296 C 0.04782 0.81603 0.78736 0.0
C297 C 0.17695 0.83866 0.67819 0.0
C298 C 0.20486 0.84042 0.63237 0.0
C299 C 0.26435 0.81144 0.66379 0.0
C300 C 0.2263 0.81984 0.68358 0.0
C301 C 0.25397 0.82177 0.6384 0.0
C302 C 0.16599 0.84865 0.65236 0.0
C303 C 0.13892 0.84835 0.6999 0.0
C304 C 0.22486 0.96707 0.76613 0.0
C305 C 0.25345 0.94203 0.77969 0.0
H306 H 0.16285 0.00908 0.73643 0.0
C307 C 0.04254 0.90644 0.79046 0.0
C308 C 0.95821 0.90859 0.73365 0.0
C309 C 0.89206 0.89861 0.84851 0.0
C310 C 0.88774 0.91372 0.89449 0.0
C311 C 0.91592 0.95429 0.8618 0.0
C312 C 0.9094 0.93082 0.8423 0.0
C313 C 0.9049 0.94596 0.88766 0.0
C314 C 0.88156 0.8901 0.8746 0.0
C315 C 0.88482 0.8738 0.82792 0.0
H316 H 0.30225 0.797 0.66819 0.0
H317 H 0.23596 0.81181 0.70319 0.0
H318 H 0.28416 0.81493 0.62333 0.0
H319 H 0.12824 0.86323 0.64788 0.0
H320 H 0.92908 0.97914 0.85684 0.0
H321 H 0.91741 0.93788 0.82233 0.0
H322 H 0.90901 0.965 0.90223 0.0
H323 H 0.86912 0.86503 0.87931 0.0
C324 C 0.69122 0.68221 0.26342 0.0
C325 C 0.68269 0.73816 0.27926 0.0
C326 C 0.66105 0.70568 0.27749 0.0
C327 C 0.73326 0.74692 0.2659 0.0
C328 C 0.74246 0.69078 0.25029 0.0
C329 C 0.76306 0.7233 0.25146 0.0
N330 N 0.66935 0.65114 0.26187 0.0
C331 C 0.69715 0.62723 0.24824 0.0
C332 C 0.77105 0.66647 0.23608 0.0
C333 C 0.74837 0.63454 0.23512 0.0
Gd334 Gd 0.43755 0.6434 0.24093 0.0
Gd335 Gd 0.58373 0.64103 0.28454 0.0
N336 N 0.61177 0.69657 0.29007 0.0
C337 C 0.65376 0.76069 0.295 0.0
C338 C 0.587 0.71765 0.30738 0.0
C339 C 0.60642 0.75017 0.30952 0.0
H340 H 0.55368 0.70945 0.32041 0.0
H341 H 0.58565 0.7669 0.32286 0.0
H342 H 0.45935 0.57019 0.21063 0.0
H343 H 0.67971 0.60253 0.24756 0.0
H344 H 0.41883 0.51435 0.21129 0.0
H345 H 0.66904 0.78583 0.2969 0.0
H346 H 0.75016 0.77181 0.26691 0.0
H347 H 0.3459 0.69012 0.27428 0.0
H348 H 0.81053 0.6721 0.22573 0.0
H349 H 0.77024 0.61559 0.22423 0.0
H350 H 0.25192 0.52324 0.26549 0.0
H351 H 0.80214 0.73042 0.24136 0.0
H352 H 0.20709 0.62907 0.30093 0.0
H353 H 0.25512 0.68357 0.29883 0.0
N354 N 0.35044 0.63978 0.26376 0.0
C355 C 0.32386 0.60985 0.2639 0.0
C356 C 0.326 0.66616 0.2757 0.0
C357 C 0.24711 0.63181 0.2903 0.0
C358 C 0.27421 0.66258 0.28927 0.0
C359 C 0.27174 0.60498 0.27746 0.0
H360 H 0.2064 0.5693 0.28846 0.0
N361 N 0.40081 0.5892 0.23845 0.0
C362 C 0.35007 0.58377 0.25112 0.0
C363 C 0.35011 0.52688 0.23745 0.0
C364 C 0.32396 0.55231 0.25133 0.0
C365 C 0.42378 0.5651 0.2233 0.0
C366 C 0.39969 0.53347 0.22302 0.0
O367 O 0.58828 0.66248 0.24378 0.0
O368 O 0.49974 0.68624 0.23891 0.0
O369 O 0.42102 0.64121 0.19873 0.0
O370 O 0.37189 0.67404 0.22387 0.0
O371 O 0.50316 0.6638 0.30189 0.0
O372 O 0.45828 0.68694 0.26634 0.0
O373 O 0.43417 0.61892 0.28072 0.0
O374 O 0.52444 0.59695 0.28609 0.0
O375 O 0.60144 0.64062 0.32662 0.0
O376 O 0.65304 0.61133 0.29991 0.0
O377 O 0.5154 0.61766 0.22356 0.0
O378 O 0.56796 0.59728 0.25851 0.0
C379 C 0.55447 0.68432 0.23285 0.0
C380 C 0.46718 0.68522 0.29154 0.0
C381 C 0.34626 0.6758 0.1783 0.0
C382 C 0.31464 0.67354 0.13297 0.0
C383 C 0.27305 0.71355 0.16239 0.0
C384 C 0.30758 0.70182 0.18251 0.0
C385 C 0.27621 0.69941 0.13784 0.0
C386 C 0.35029 0.66194 0.15323 0.0
C387 C 0.38041 0.66317 0.2005 0.0
C388 C 0.27232 0.5473 0.26502 0.0
C389 C 0.24628 0.57355 0.27803 0.0
H390 H 0.3314 0.50238 0.2371 0.0
C391 C 0.46875 0.59649 0.29039 0.0
C392 C 0.55312 0.59699 0.23375 0.0
C393 C 0.68016 0.60759 0.34533 0.0
C394 C 0.70269 0.602 0.39155 0.0
C395 C 0.76067 0.57376 0.35947 0.0
C396 C 0.72675 0.58679 0.33961 0.0
C397 C 0.74863 0.58118 0.3853 0.0
C398 C 0.66847 0.61539 0.37152 0.0
C399 C 0.64411 0.62024 0.32375 0.0
H400 H 0.24341 0.73355 0.16589 0.0
H401 H 0.30365 0.71312 0.20147 0.0
H402 H 0.24874 0.70882 0.1225 0.0
H403 H 0.37969 0.64181 0.14965 0.0
H404 H 0.79629 0.55771 0.35483 0.0
H405 H 0.73697 0.5804 0.31973 0.0
H406 H 0.77528 0.57066 0.40049 0.0
H407 H 0.63271 0.6313 0.37635 0.0
H408 H 0.14118 0.90003 0.34938 0.0
H409 H 0.19765 0.96553 0.41044 0.0
H410 H 0.11117 0.94721 0.32339 0.0
H411 H 0.16709 0.01276 0.38446 0.0
H412 H 0.04363 0.08395 0.34271 0.0
H413 H 0.07791 0.03771 0.36837 0.0
H414 H 0.15217 0.99463 0.29957 0.0
H415 H 0.11705 0.04088 0.2736 0.0
C416 C 0.14758 0.92451 0.3572 0.0
C417 C 0.17197 0.92897 0.382 0.0
C418 C 0.13045 0.95156 0.34226 0.0
C419 C 0.13698 0.98375 0.35179 0.0
C420 C 0.16093 0.98825 0.37667 0.0
C421 C 0.17827 0.96117 0.39159 0.0
C422 C 0.06744 0.06475 0.33296 0.0
C423 C 0.07739 0.06616 0.306 0.0
C424 C 0.08741 0.03828 0.34777 0.0
C425 C 0.11772 0.01245 0.33604 0.0
C426 C 0.12836 0.01398 0.30914 0.0
C427 C 0.10856 0.0406 0.29429 0.0
H428 H 0.39925 0.55974 0.90826 0.0
H429 H 0.23918 0.55815 0.86531 0.0
H430 H 0.4329 0.5123 0.8834 0.0
H431 H 0.27285 0.51108 0.84047 0.0
H432 H 0.3848 0.45964 0.77933 0.0
H433 H 0.347 0.50275 0.8071 0.0
H434 H 0.41447 0.45274 0.8747 0.0
H435 H 0.45255 0.40935 0.84688 0.0
C436 C 0.37097 0.549 0.89379 0.0
C437 C 0.31687 0.56299 0.88853 0.0
C438 C 0.39022 0.52185 0.87955 0.0
C439 C 0.35577 0.50818 0.85977 0.0
C440 C 0.30089 0.52146 0.8552 0.0
C441 C 0.28164 0.54845 0.86943 0.0
C442 C 0.39125 0.45757 0.80012 0.0
C443 C 0.42191 0.431 0.81083 0.0
C444 C 0.36938 0.4823 0.81606 0.0
C445 C 0.37773 0.48117 0.84311 0.0
C446 C 0.40785 0.45447 0.8539 0.0
C447 C 0.42942 0.42955 0.83795 0.0
H448 H 0.70719 0.52478 0.61853 0.0
H449 H 0.64928 0.59546 0.67521 0.0
H450 H 0.6673 0.48007 0.64496 0.0
H451 H 0.61094 0.55079 0.70195 0.0
H452 H 0.49033 0.46659 0.72648 0.0
H453 H 0.532 0.51077 0.70039 0.0
H454 H 0.68307 0.45154 0.6868 0.0
H455 H 0.6404 0.40679 0.71227 0.0
C456 C 0.68586 0.53076 0.6366 0.0
C457 C 0.68131 0.56368 0.64474 0.0
C458 C 0.66361 0.50513 0.65189 0.0
C459 C 0.63599 0.51186 0.67558 0.0
C460 C 0.63149 0.54478 0.6837 0.0
C461 C 0.65393 0.57036 0.66849 0.0
C462 C 0.53239 0.46292 0.71789 0.0
C463 C 0.56225 0.43324 0.7216 0.0
C464 C 0.55649 0.48838 0.7031 0.0
C465 C 0.61095 0.48475 0.69157 0.0
C466 C 0.64083 0.45503 0.69525 0.0
C467 C 0.6167 0.42953 0.7101 0.0
H468 H 0.90594 0.94639 0.12019 0.0
H469 H 0.75316 0.94101 0.16821 0.0
H470 H 0.9404 0.99304 0.14568 0.0
H471 H 0.79005 0.9863 0.19453 0.0
H472 H 0.92833 0.03573 0.25084 0.0
H473 H 0.88735 0.99199 0.22404 0.0
H474 H 0.8999 0.05482 0.15652 0.0
H475 H 0.93801 0.09942 0.18364 0.0
C476 C 0.87939 0.95514 0.13598 0.0
C477 C 0.82659 0.93966 0.14204 0.0
C478 C 0.89946 0.98178 0.15065 0.0
C479 C 0.86786 0.99308 0.17202 0.0
C480 C 0.81534 0.97778 0.17822 0.0
C481 C 0.79459 0.95162 0.16323 0.0
C482 C 0.92087 0.04058 0.23047 0.0
C483 C 0.93519 0.07126 0.21952 0.0
C484 C 0.89794 0.01544 0.21509 0.0
C485 C 0.89039 0.02019 0.1883 0.0
C486 C 0.90537 0.05065 0.17718 0.0
C487 C 0.92718 0.07608 0.19269 0.0
H488 H 0.80736 0.0378 0.61474 0.0
H489 H 0.87056 0.10197 0.67519 0.0
H490 H 0.83964 0.98986 0.63959 0.0
H491 H 0.90449 0.05447 0.69966 0.0
H492 H 0.9057 0.96463 0.75055 0.0
H493 H 0.86928 0.01009 0.72467 0.0
H494 H 0.92154 0.96018 0.65453 0.0
H495 H 0.95518 0.91373 0.68051 0.0
C496 C 0.82884 0.04162 0.63319 0.0
C497 C 0.83608 0.07356 0.64314 0.0
C498 C 0.84746 0.01419 0.64744 0.0
C499 C 0.87424 0.01817 0.67182 0.0
C500 C 0.88272 0.0503 0.68133 0.0
C501 C 0.8636 0.07759 0.66725 0.0
C502 C 0.90865 0.96306 0.72959 0.0
C503 C 0.93345 0.9355 0.71763 0.0
C504 C 0.88843 0.98941 0.71471 0.0
C505 C 0.89306 0.98913 0.68745 0.0
C506 C 0.91678 0.96121 0.67544 0.0
C507 C 0.93645 0.93465 0.69035 0.0
H508 H 0.62921 0.40496 0.17235 0.0
H509 H 0.69853 0.46946 0.11315 0.0
H510 H 0.59822 0.45254 0.19725 0.0
H511 H 0.66748 0.51734 0.13821 0.0
H512 H 0.54944 0.59244 0.18058 0.0
H513 H 0.58135 0.54653 0.1537 0.0
H514 H 0.6433 0.49634 0.22232 0.0
H515 H 0.6103 0.54162 0.24918 0.0
C516 C 0.638 0.42936 0.1647 0.0
C517 C 0.66679 0.43344 0.14089 0.0
C518 C 0.62037 0.45664 0.179 0.0
C519 C 0.63106 0.48876 0.16989 0.0
C520 C 0.65835 0.49291 0.1457 0.0
C521 C 0.67604 0.46551 0.13133 0.0
C522 C 0.57006 0.57164 0.1899 0.0
C523 C 0.57671 0.57057 0.21707 0.0
C524 C 0.5886 0.54542 0.17448 0.0
C525 C 0.61426 0.5176 0.18589 0.0
C526 C 0.62262 0.51709 0.21296 0.0
C527 C 0.60414 0.54324 0.22835 0.0
H528 H 0.36549 0.40505 0.35093 0.0
H529 H 0.30477 0.47368 0.40856 0.0
H530 H 0.40188 0.45076 0.32477 0.0
H531 H 0.34279 0.51948 0.38271 0.0
H532 H 0.36527 0.59426 0.31595 0.0
H533 H 0.32528 0.54856 0.34126 0.0
H534 H 0.47876 0.49186 0.32649 0.0
H535 H 0.51767 0.53695 0.30051 0.0
C536 C 0.35989 0.42993 0.358 0.0
C537 C 0.33218 0.43573 0.38182 0.0
C538 C 0.38121 0.45611 0.34312 0.0
C539 C 0.3753 0.48878 0.35165 0.0
C540 C 0.34754 0.49463 0.37546 0.0
C541 C 0.32638 0.46838 0.39042 0.0
C542 C 0.39005 0.57186 0.31783 0.0
C543 C 0.44436 0.56912 0.30601 0.0
C544 C 0.36748 0.54583 0.3326 0.0
C545 C 0.39882 0.51653 0.33589 0.0
C546 C 0.45317 0.5139 0.32408 0.0
C547 C 0.4757 0.53988 0.30936 0.0
H548 H 0.26101 0.05406 0.8638 0.0
H549 H 0.09869 0.06113 0.9042 0.0
H550 H 0.2222 0.00882 0.8375 0.0
H551 H 0.05981 0.01608 0.87782 0.0
H552 H 0.99717 0.96681 0.80079 0.0
H553 H 0.03689 0.00979 0.82873 0.0
H554 H 0.18442 0.94878 0.84513 0.0
H555 H 0.14305 0.90492 0.81832 0.0
C556 C 0.21711 0.04587 0.86705 0.0
C557 C 0.18282 0.06106 0.88601 0.0
C558 C 0.19508 0.01992 0.85215 0.0
C559 C 0.13802 0.00906 0.85562 0.0
C560 C 0.10383 0.02414 0.87466 0.0
C561 C 0.12616 0.04971 0.88985 0.0
C562 C 0.03765 0.96233 0.81065 0.0
C563 C 0.0671 0.93249 0.80727 0.0
C564 C 0.06045 0.98699 0.82655 0.0
C565 C 0.11372 0.9826 0.83905 0.0
C566 C 0.14349 0.9529 0.83553 0.0
C567 C 0.12001 0.92792 0.82006 0.0
H568 H 0.16607 0.16429 0.97186 0.0
H569 H 0.25309 0.07092 0.97793 0.0
H570 H 0.14402 0.16212 0.01848 0.0
H571 H 0.23204 0.06901 0.02454 0.0
H572 H 0.22188 0.09133 0.11229 0.0
H573 H 0.25389 0.10189 0.06751 0.0
H574 H 0.07813 0.12113 0.04476 0.0
H575 H 0.04621 0.10993 0.08927 0.0
C576 C 0.18133 0.14364 0.98329 0.0
C577 C 0.21113 0.11773 0.97136 0.0
C578 C 0.16854 0.14233 1.00987 0.0
C579 C 0.1864 0.11542 0.0251 0.0
C580 C 0.2182 0.09017 0.01333 0.0
C581 C 0.22995 0.09117 0.98668 0.0
C582 C 0.19041 0.09835 0.09775 0.0
C583 C 0.13166 0.09981 0.10411 0.0
C584 C 0.20859 0.1042 0.07218 0.0
C585 C 0.16845 0.11231 0.0527 0.0
C586 C 0.11003 0.1152 0.05941 0.0
C587 C 0.09176 0.10868 0.0848 0.0
H588 H 0.21892 0.35936 0.47711 0.0
H589 H 0.39155 0.39742 0.46637 0.0
H590 H 0.2321 0.36168 0.52414 0.0
H591 H 0.40378 0.4006 0.51335 0.0
H592 H 0.35685 0.4479 0.59383 0.0
H593 H 0.35775 0.43645 0.54726 0.0
H594 H 0.29088 0.33875 0.56212 0.0
H595 H 0.29064 0.35034 0.609 0.0
C596 C 0.25999 0.36773 0.48468 0.0
C597 C 0.30389 0.37856 0.46779 0.0
C598 C 0.2675 0.36906 0.51169 0.0
C599 C 0.31886 0.38151 0.52246 0.0
C600 C 0.36342 0.3913 0.50564 0.0
C601 C 0.35619 0.38966 0.47868 0.0
C602 C 0.34359 0.42375 0.58713 0.0
C603 C 0.32393 0.39993 0.60491 0.0
C604 C 0.34415 0.41714 0.56051 0.0
C605 C 0.32418 0.38673 0.55099 0.0
C606 C 0.30618 0.36247 0.56888 0.0
C607 C 0.30653 0.36894 0.59565 0.0
H608 H 0.61321 0.39074 0.05532 0.0
H609 H 0.78405 0.34907 0.05275 0.0
H610 H 0.60553 0.38537 1.00817 0.0
H611 H 0.77514 0.34196 1.00617 0.0
H612 H 0.77074 0.35534 0.9209 0.0
H613 H 0.77426 0.37106 0.96654 0.0
H614 H 0.59435 0.34481 0.97463 0.0
H615 H 0.59077 0.33042 0.92843 0.0
C616 C 0.64921 0.38054 0.04473 0.0
C617 C 0.69924 0.37029 0.05793 0.0
C618 C 0.64452 0.37711 0.0177 0.0
C619 C 0.68976 0.36335 1.00322 0.0
C620 C 0.73975 0.35324 0.01649 0.0
C621 C 0.74454 0.35682 0.04338 0.0
C622 C 0.73173 0.35362 0.93238 0.0
C623 C 0.68056 0.34162 0.92129 0.0
C624 C 0.73379 0.36226 0.9586 0.0
C625 C 0.68492 0.35855 0.97453 0.0
C626 C 0.63278 0.34816 0.963 0.0
C627 C 0.6306 0.33989 0.93656 0.0
H628 H 0.90802 0.1277 0.56495 0.0
H629 H 0.73166 0.15602 0.5506 0.0
H630 H 0.93162 0.13917 0.51955 0.0
H631 H 0.75551 0.16817 0.50538 0.0
H632 H 0.807 0.15484 0.4201 0.0
H633 H 0.78405 0.14002 0.46494 0.0
H634 H 0.94012 0.18813 0.49094 0.0
H635 H 0.96371 0.20231 0.44602 0.0
C636 C 0.87421 0.13613 0.55205 0.0
C637 C 0.81797 0.14097 0.56136 0.0
C638 C 0.88787 0.14303 0.52612 0.0
C639 C 0.84549 0.15469 0.50888 0.0
C640 C 0.78903 0.15898 0.5181 0.0
C641 C 0.77548 0.15229 0.54406 0.0
C642 C 0.83665 0.162 0.43537 0.0
C643 C 0.88716 0.17976 0.42951 0.0
C644 C 0.82324 0.15377 0.46108 0.0
C645 C 0.86024 0.16292 0.4815 0.0
C646 C 0.911 0.18045 0.47562 0.0
C647 C 0.92421 0.18888 0.44993 0.0
H648 H 0.90109 0.88445 0.06275 0.0
H649 H 0.72037 0.87847 0.04376 0.0
H650 H 0.92501 0.88734 0.01673 0.0
H651 H 0.74356 0.8831 0.99754 0.0
H652 H 0.80395 0.87238 0.91428 0.0
H653 H 0.78346 0.86003 0.95971 0.0
H654 H 0.92171 0.92535 0.98302 0.0
H655 H 0.94481 0.93562 0.93787 0.0
C656 C 0.8665 0.88373 0.04859 0.0
C657 C 0.80894 0.8814 0.05672 0.0
C658 C 0.88005 0.88568 0.0222 0.0
C659 C 0.83626 0.88603 1.00322 0.0
C660 C 0.77859 0.88258 1.01144 0.0
C661 C 0.76513 0.88005 0.03792 0.0
C662 C 0.83075 0.88358 0.92909 0.0
C663 C 0.87596 0.90516 0.92225 0.0
C664 C 0.81842 0.87685 0.95523 0.0
C665 C 0.8507 0.89171 0.97525 0.0
C666 C 0.8963 0.91295 0.96832 0.0
C667 C 0.909 0.91935 0.94226 0.0
H668 H 0.73036 0.56492 0.55356 0.0
H669 H 0.69317 0.66902 0.55395 0.0
H670 H 0.71778 0.56377 0.50669 0.0
H671 H 0.67997 0.66788 0.50679 0.0
H672 H 0.73396 0.65607 0.41944 0.0
H673 H 0.73359 0.66151 0.46686 0.0
H674 H 0.6468 0.56737 0.47325 0.0
H675 H 0.64917 0.56181 0.42599 0.0
C676 C 0.71873 0.58752 0.54366 0.0
C677 C 0.71254 0.61702 0.55758 0.0
C678 C 0.71129 0.58686 0.51672 0.0
C679 C 0.69723 0.61567 0.50286 0.0
C680 C 0.6912 0.64527 0.51676 0.0
C681 C 0.69883 0.64594 0.54379 0.0
C682 C 0.71357 0.63706 0.4311 0.0
C683 C 0.69118 0.60867 0.41926 0.0
C684 C 0.71337 0.64008 0.45823 0.0
C685 C 0.69085 0.61467 0.47399 0.0
C686 C 0.66561 0.5871 0.46183 0.0
C687 C 0.66619 0.58405 0.43477 0.0
H688 H 0.20839 0.65166 0.9757 0.0
H689 H 0.37882 0.60958 0.97214 0.0
H690 H 0.21906 0.65923 0.02217 0.0
H691 H 0.38834 0.61555 0.01919 0.0
H692 H 0.4051 0.67058 0.099 0.0
H693 H 0.40043 0.65642 0.05275 0.0
H694 H 0.22104 0.62956 0.06172 0.0
H695 H 0.22564 0.64492 0.10742 0.0
C696 C 0.24825 0.644 0.98482 0.0
C697 C 0.29285 0.6302 0.97003 0.0
C698 C 0.25404 0.64785 1.01165 0.0
C699 C 0.3044 0.63771 0.02463 0.0
C700 C 0.34908 0.6238 1.00989 0.0
C701 C 0.34335 0.62007 0.98292 0.0
C702 C 0.36517 0.661 0.09106 0.0
C703 C 0.31564 0.65898 0.10661 0.0
C704 C 0.36236 0.65289 0.06459 0.0
C705 C 0.31 0.64242 0.0533 0.0
C706 C 0.26163 0.63842 0.06948 0.0
C707 C 0.26432 0.64685 0.09573 0.0
H708 H 0.22291 0.91973 0.4742 0.0
H709 H 0.16328 0.81914 0.46824 0.0
H710 H 0.21519 0.91654 0.52152 0.0
H711 H 0.15605 0.81586 0.51559 0.0
H712 H 0.11083 0.82889 0.60148 0.0
H713 H 0.10278 0.83916 0.55453 0.0
H714 H 0.27106 0.88505 0.55506 0.0
H715 H 0.27895 0.87466 0.60167 0.0
C716 C 0.20746 0.89708 0.48299 0.0
C717 C 0.19405 0.86962 0.46751 0.0
C718 C 0.20334 0.89521 0.51008 0.0
C719 C 0.18509 0.86594 0.52229 0.0
C720 C 0.16975 0.83884 0.50676 0.0
C721 C 0.17449 0.8406 0.47967 0.0
C722 C 0.14541 0.84177 0.59155 0.0
C723 C 0.19553 0.85096 0.60509 0.0
C724 C 0.14108 0.84739 0.56472 0.0
C725 C 0.1864 0.8628 0.55109 0.0
C726 C 0.23521 0.87339 0.565 0.0
C727 C 0.23987 0.86734 0.59164 0.0
H728 H 0.17694 0.36426 0.35931 0.0
H729 H 0.25362 0.289 0.40758 0.0
H730 H 0.1279 0.32227 0.33413 0.0
H731 H 0.20099 0.24686 0.38347 0.0
H732 H 0.15306 0.17832 0.31636 0.0
H733 H 0.20055 0.21978 0.34303 0.0
H734 H 0.05323 0.28359 0.33367 0.0
H735 H 0.00834 0.24316 0.30519 0.0
C736 C 0.18318 0.33871 0.36467 0.0
C737 C 0.22002 0.33011 0.38532 0.0
C738 C 0.15417 0.31454 0.35042 0.0
C739 C 0.16033 0.28098 0.35662 0.0
C740 C 0.19584 0.27237 0.37779 0.0
C741 C 0.22543 0.29661 0.39191 0.0
C742 C 0.13133 0.20144 0.31966 0.0
C743 C 0.07732 0.2076 0.30837 0.0
C744 C 0.15809 0.22505 0.33538 0.0
C745 C 0.13094 0.25524 0.34062 0.0
C746 C 0.07612 0.26098 0.32976 0.0
C747 C 0.0499 0.23757 0.31368 0.0
H748 H 0.20936 0.17609 0.86016 0.0
H749 H 0.35404 0.17416 0.91293 0.0
H750 H 0.25599 0.21997 0.83511 0.0
H751 H 0.40099 0.2181 0.88775 0.0
H752 H 0.48961 0.26325 0.81351 0.0
H753 H 0.44315 0.2226 0.84175 0.0
H754 H 0.28706 0.27996 0.84105 0.0
H755 H 0.3341 0.32125 0.81376 0.0
C756 C 0.25106 0.18519 0.86644 0.0
C757 C 0.27818 0.1717 0.88844 0.0
C758 C 0.27758 0.21041 0.8522 0.0
C759 C 0.33218 0.22238 0.85945 0.0
C760 C 0.35907 0.20916 0.88163 0.0
C761 C 0.33208 0.18425 0.89613 0.0
C762 C 0.44551 0.26735 0.81951 0.0
C763 C 0.41508 0.29517 0.81079 0.0
C764 C 0.419 0.24409 0.83575 0.0
C765 C 0.36135 0.24798 0.84343 0.0
C766 C 0.33126 0.27605 0.83511 0.0
C767 C 0.35807 0.29956 0.81926 0.0
H768 H 0.66259 0.18724 0.61392 0.0
H769 H 0.78134 0.1781 0.67825 0.0
H770 H 0.60604 0.22681 0.63877 0.0
H771 H 0.72484 0.21737 0.70302 0.0
H772 H 0.57655 0.25779 0.75041 0.0
H773 H 0.63035 0.21905 0.72396 0.0
H774 H 0.61094 0.28302 0.65732 0.0
H775 H 0.55651 0.32186 0.68388 0.0
C776 C 0.67692 0.19389 0.63325 0.0
C777 C 0.72622 0.17929 0.64418 0.0
C778 C 0.64451 0.21654 0.64748 0.0
C779 C 0.66065 0.225 0.67296 0.0
C780 C 0.71054 0.21085 0.68366 0.0
C781 C 0.74292 0.18832 0.66945 0.0
C782 C 0.58366 0.2636 0.73011 0.0
C783 C 0.56269 0.293 0.71927 0.0
C784 C 0.61474 0.24146 0.71497 0.0
C785 C 0.62545 0.24811 0.6886 0.0
C786 C 0.60313 0.27711 0.67755 0.0
C787 C 0.57207 0.29936 0.69275 0.0
H788 H 0.71046 0.32716 0.17671 0.0
H789 H 0.83471 0.31616 0.1149 0.0
H790 H 0.76292 0.28703 0.20283 0.0
H791 H 0.88647 0.27552 0.14093 0.0
H792 H 0.92645 0.17947 0.18578 0.0
H793 H 0.87363 0.21902 0.15915 0.0
H794 H 0.85801 0.28338 0.22539 0.0
H795 H 0.91147 0.24394 0.25199 0.0
C796 C 0.74907 0.3163 0.1687 0.0
C797 C 0.76848 0.32509 0.14371 0.0
C798 C 0.77908 0.29328 0.18369 0.0
C799 C 0.82899 0.27825 0.174 0.0
C800 C 0.84783 0.28646 0.14884 0.0
C801 C 0.81802 0.30968 0.13389 0.0
C802 C 0.91201 0.20216 0.19462 0.0
C803 C 0.92281 0.20853 0.22103 0.0
C804 C 0.88184 0.22481 0.17935 0.0
C805 C 0.86148 0.25427 0.19018 0.0
C806 C 0.87245 0.26068 0.21658 0.0
C807 C 0.90308 0.23814 0.2318 0.0
H808 H 0.84083 0.63597 0.66414 0.0
H809 H 0.75573 0.70924 0.61691 0.0
H810 H 0.89074 0.67931 0.68792 0.0
H811 H 0.80757 0.7527 0.64006 0.0
H812 H 0.85268 0.82024 0.70878 0.0
H813 H 0.80697 0.77772 0.68263 0.0
H814 H 0.96436 0.72131 0.68437 0.0
H815 H 0.00935 0.76333 0.71163 0.0
C816 C 0.83295 0.66137 0.65875 0.0
C817 C 0.7938 0.66913 0.63877 0.0
C818 C 0.86216 0.68623 0.67219 0.0
C819 C 0.85314 0.71955 0.66599 0.0
C820 C 0.81501 0.72732 0.64558 0.0
C821 C 0.78576 0.7024 0.6321 0.0
C822 C 0.87746 0.79866 0.70379 0.0
C823 C 0.93441 0.79497 0.71267 0.0
C824 C 0.85145 0.77444 0.68845 0.0
C825 C 0.8819 0.74601 0.68136 0.0
C826 C 0.93937 0.74267 0.68975 0.0
C827 C 0.96535 0.7669 0.7052 0.0
H828 H 0.67079 0.86637 0.16226 0.0
H829 H 0.754 0.79229 0.11558 0.0
H830 H 0.62229 0.82358 0.18709 0.0
H831 H 0.70259 0.74931 0.13948 0.0
H832 H 0.65857 0.68158 0.20819 0.0
H833 H 0.70334 0.7234 0.18088 0.0
H834 H 0.54965 0.78271 0.18651 0.0
H835 H 0.50661 0.74175 0.21533 0.0
C836 C 0.67847 0.84091 0.15715 0.0
C837 C 0.71694 0.83284 0.13707 0.0
C838 C 0.64992 0.81629 0.1712 0.0
C839 C 0.65849 0.78284 0.16543 0.0
C840 C 0.69557 0.77476 0.14478 0.0
C841 C 0.7245 0.79945 0.1308 0.0
C842 C 0.63474 0.70379 0.20397 0.0
C843 C 0.57969 0.7087 0.21456 0.0
C844 C 0.66 0.72758 0.18786 0.0
C845 C 0.63036 0.75667 0.1815 0.0
C846 C 0.57434 0.76098 0.19138 0.0
C847 C 0.54938 0.73733 0.20775 0.0
H848 H 0.33766 0.8139 0.41448 0.0
H849 H 0.21311 0.819 0.35215 0.0
H850 H 0.39341 0.77387 0.38964 0.0
H851 H 0.26882 0.77931 0.32737 0.0
H852 H 0.41794 0.74353 0.27784 0.0
H853 H 0.36248 0.7806 0.30508 0.0
H854 H 0.39109 0.717 0.37124 0.0
H855 H 0.44699 0.67973 0.34384 0.0
C856 C 0.32172 0.80612 0.39567 0.0
C857 C 0.27127 0.81992 0.38517 0.0
C858 C 0.35372 0.78324 0.38143 0.0
C859 C 0.33595 0.77379 0.35639 0.0
C860 C 0.28437 0.78667 0.34636 0.0
C861 C 0.25242 0.80939 0.36057 0.0
C862 C 0.41243 0.73741 0.29819 0.0
C863 C 0.43633 0.70852 0.30863 0.0
C864 C 0.3804 0.75857 0.31378 0.0
C865 C 0.37176 0.75153 0.34025 0.0
C866 C 0.39712 0.72314 0.35092 0.0
C867 C 0.42906 0.70181 0.33525 0.0
H868 H 0.25706 0.71465 0.90335 0.0
H869 H 0.17261 0.63697 0.86021 0.0
H870 H 0.2077 0.75568 0.87663 0.0
H871 H 0.12476 0.67792 0.83323 0.0
H872 H 0.10425 0.7603 0.77217 0.0
H873 H 0.15306 0.72004 0.79975 0.0
H874 H 0.10676 0.77589 0.86779 0.0
H875 H 0.05805 0.81623 0.84025 0.0
C876 C 0.22774 0.70628 0.88835 0.0
C877 C 0.21924 0.67242 0.88387 0.0
C878 C 0.19961 0.7298 0.87299 0.0
C879 C 0.16272 0.72 0.8527 0.0
C880 C 0.15374 0.68623 0.84841 0.0
C881 C 0.18134 0.66277 0.86387 0.0
C882 C 0.10451 0.764 0.793 0.0
C883 C 0.07718 0.79141 0.80402 0.0
C884 C 0.13222 0.74087 0.8088 0.0
C885 C 0.1337 0.7448 0.83594 0.0
C886 C 0.10674 0.77234 0.84693 0.0
C887 C 0.07848 0.79529 0.83116 0.0
loop_
_geom_bond_atom_site_label_1
_geom_bond_atom_site_label_2
_geom_bond_distance
_geom_bond_site_symmetry_2
_ccdc_geom_bond_type
H0 C3 0.931 . S
H1 C6 0.928 . S
H2 C8 0.930 . S
C3 H0 0.931 . S
C3 C4 1.413 . S
C3 C5 1.360 . S
C4 C3 1.413 . S
C4 C8 1.429 . S
C5 C3 1.360 . S
C5 C6 1.372 . S
C6 H1 0.928 . S
C6 C5 1.372 . S
C6 C7 1.404 . S
C7 C6 1.404 . S
C7 C8 1.391 . S
C8 H2 0.930 . S
C8 C4 1.429 . S
C8 C7 1.391 . S
H9 C12 0.931 . S
H10 C15 0.928 . S
H11 C17 0.930 . S
C12 H9 0.931 . S
C12 C13 1.413 . S
C12 C14 1.360 . S
C13 C12 1.413 . S
C13 C17 1.429 . S
C14 C12 1.360 . S
C14 C15 1.372 . S
C15 H10 0.928 . S
C15 C14 1.372 . S
C15 C16 1.404 . S
C16 C15 1.404 . S
C16 C17 1.391 . S
C17 H11 0.930 . S
C17 C13 1.429 . S
C17 C16 1.391 . S
H18 C21 0.931 . S
H19 C24 0.928 . S
H20 C26 0.930 . S
C21 H18 0.931 . S
C21 C22 1.413 . S
C21 C23 1.360 . S
C22 C21 1.413 . S
C22 C26 1.429 . S
C23 C21 1.360 . S
C23 C24 1.372 . S
C24 H19 0.928 . S
C24 C23 1.372 . S
C24 C25 1.404 . S
C25 C24 1.404 . S
C25 C26 1.391 . S
C26 H20 0.930 . S
C26 C22 1.429 . S
C26 C25 1.391 . S
H27 C30 0.931 . S
H28 C33 0.928 . S
H29 C35 0.930 . S
C30 H27 0.931 . S
C30 C31 1.413 . S
C30 C32 1.360 . S
C31 C30 1.413 . S
C31 C35 1.429 . S
C32 C30 1.360 . S
C32 C33 1.372 . S
C33 H28 0.928 . S
C33 C32 1.372 . S
C33 C34 1.404 . S
C34 C33 1.404 . S
C34 C35 1.391 . S
C35 H29 0.930 . S
C35 C31 1.429 . S
C35 C34 1.391 . S
H36 C39 0.931 . S
H37 C42 0.928 . S
H38 C44 0.930 . S
C39 H36 0.931 . S
C39 C40 1.413 . S
C39 C41 1.360 . S
C40 C39 1.413 . S
C40 C44 1.429 . S
C41 C39 1.360 . S
C41 C42 1.372 . S
C42 H37 0.928 . S
C42 C41 1.372 . S
C42 C43 1.404 . S
C43 C42 1.404 . S
C43 C44 1.391 . S
C44 H38 0.930 . S
C44 C40 1.429 . S
C44 C43 1.391 . S
H45 C48 0.931 . S
H46 C51 0.928 . S
H47 C53 0.930 . S
C48 H45 0.931 . S
C48 C49 1.413 . S
C48 C50 1.360 . S
C49 C48 1.413 . S
C49 C53 1.429 . S
C50 C48 1.360 . S
C50 C51 1.372 . S
C51 H46 0.928 . S
C51 C50 1.372 . S
C51 C52 1.404 . S
C52 C51 1.404 . S
C52 C53 1.391 . S
C53 H47 0.930 . S
C53 C49 1.429 . S
C53 C52 1.391 . S
H54 C57 0.931 . S
H55 C60 0.928 . S
H56 C62 0.930 . S
C57 H54 0.931 . S
C57 C58 1.413 . S
C57 C59 1.360 . S
C58 C57 1.413 . S
C58 C62 1.429 . S
C59 C57 1.360 . S
C59 C60 1.372 . S
C60 H55 0.928 . S
C60 C59 1.372 . S
C60 C61 1.404 . S
C61 C60 1.404 . S
C61 C62 1.391 . S
C62 H56 0.930 . S
C62 C58 1.429 . S
C62 C61 1.391 . S
H63 C66 0.931 . S
H64 C69 0.928 . S
H65 C71 0.930 . S
C66 H63 0.931 . S
C66 C67 1.413 . S
C66 C68 1.360 . S
C67 C66 1.413 . S
C67 C71 1.429 . S
C68 C66 1.360 . S
C68 C69 1.372 . S
C69 H64 0.928 . S
C69 C68 1.372 . S
C69 C70 1.404 . S
C70 C69 1.404 . S
C70 C71 1.391 . S
C71 H65 0.930 . S
C71 C67 1.429 . S
C71 C70 1.391 . S
C72 C74 1.422 . S
C72 C76 1.415 . S
C72 N78 1.369 . S
C73 C74 1.421 . S
C73 C75 1.417 . S
C73 C85 1.422 . S
C74 C72 1.422 . S
C74 C73 1.421 . S
C74 N84 1.359 . S
C75 C73 1.417 . S
C75 C77 1.329 . S
C75 H94 0.930 . S
C76 C72 1.415 . S
C76 C77 1.437 . S
C76 C80 1.413 . S
C77 C75 1.329 . S
C77 C76 1.437 . S
C77 H99 0.929 . S
N78 C72 1.369 . S
N78 C79 1.338 . S
N78 Gd83 2.622 . S
C79 N78 1.338 . S
C79 C81 1.378 . S
C79 H91 0.929 . S
C80 C76 1.413 . S
C80 C81 1.348 . S
C80 H96 0.931 . S
C81 C79 1.378 . S
C81 C80 1.348 . S
C81 H97 0.930 . S
Gd82 N102 2.622 . S
Gd82 N109 2.570 . S
Gd82 O116 2.353 . S
Gd82 O117 2.468 . S
Gd82 O118 2.427 . S
Gd82 O120 2.388 . S
Gd82 O121 2.386 . S
Gd82 O125 2.307 . S
Gd82 C135 2.805 . S
Gd83 N78 2.622 . S
Gd83 N84 2.570 . S
Gd83 O115 2.386 . S
Gd83 O119 2.307 1_655 S
Gd83 O122 2.353 1_655 S
Gd83 O123 2.468 . S
Gd83 O124 2.427 . S
Gd83 O126 2.388 . S
Gd83 C147 2.805 . S
N84 C74 1.359 . S
N84 Gd83 2.570 . S
N84 C86 1.343 . S
C85 C73 1.422 . S
C85 C87 1.321 . S
C85 H93 0.931 . S
C86 N84 1.343 . S
C86 C87 1.390 . S
C86 H88 0.931 . S
C87 C85 1.321 . S
C87 C86 1.390 . S
C87 H89 0.930 . S
H88 C86 0.931 . S
H89 C87 0.930 . S
H90 C113 0.931 . S
H91 C79 0.929 . S
H92 C114 0.930 . S
H93 C85 0.931 . S
H94 C75 0.930 . S
H95 C104 0.929 . S
H96 C80 0.931 . S
H97 C81 0.930 . S
H98 C136 0.930 . S
H99 C77 0.929 . S
H100 C105 0.931 . S
H101 C106 0.930 . S
N102 Gd82 2.622 . S
N102 C103 1.369 . S
N102 C104 1.338 . S
C103 N102 1.369 . S
C103 C107 1.415 . S
C103 C110 1.422 . S
C104 H95 0.929 . S
C104 N102 1.338 . S
C104 C106 1.378 . S
C105 H100 0.931 . S
C105 C106 1.348 . S
C105 C107 1.413 . S
C106 H101 0.930 . S
C106 C104 1.378 . S
C106 C105 1.348 . S
C107 C103 1.415 . S
C107 C105 1.413 . S
C107 C137 1.437 . S
H108 C137 0.929 . S
N109 Gd82 2.570 . S
N109 C110 1.359 . S
N109 C113 1.343 . S
C110 C103 1.422 . S
C110 N109 1.359 . S
C110 C112 1.421 . S
C111 C112 1.422 . S
C111 C114 1.321 . S
C111 H138 0.931 . S
C112 C110 1.421 . S
C112 C111 1.422 . S
C112 C136 1.417 . S
C113 H90 0.931 . S
C113 N109 1.343 . S
C113 C114 1.390 . S
C114 H92 0.930 . S
C114 C111 1.321 . S
C114 C113 1.390 . S
O115 Gd83 2.386 . S
O115 C127 1.265 . S
O116 Gd82 2.353 . S
O116 C127 1.242 1_455 S
O117 Gd82 2.468 . S
O117 C135 1.263 . S
O118 Gd82 2.427 . S
O118 C135 1.252 . S
O119 Gd83 2.307 1_455 S
O119 C128 1.261 . S
O120 Gd82 2.388 . S
O120 C128 1.252 . S
O121 Gd82 2.386 . S
O121 C139 1.265 . S
O122 Gd83 2.353 1_455 S
O122 C139 1.242 . S
O123 Gd83 2.468 . S
O123 C147 1.263 . S
O124 Gd83 2.427 . S
O124 C147 1.252 . S
O125 Gd82 2.307 . S
O125 C140 1.261 1_455 S
O126 Gd83 2.388 . S
O126 C140 1.252 . S
C127 O115 1.265 . S
C127 O116 1.242 1_655 S
C128 O119 1.261 . S
C128 O120 1.252 . S
C129 C132 1.394 . S
C129 C134 1.370 . S
C129 C135 1.500 . S
C130 C133 1.383 . S
C130 C134 1.395 . S
C131 C132 1.396 . S
C131 C133 1.365 . S
C131 H148 0.929 . S
C132 C129 1.394 . S
C132 C131 1.396 . S
C132 H149 0.930 . S
C133 C130 1.383 . S
C133 C131 1.365 . S
C133 H150 0.931 . S
C134 C129 1.370 . S
C134 C130 1.395 . S
C134 H151 0.930 . S
C135 Gd82 2.805 . S
C135 O117 1.263 . S
C135 O118 1.252 . S
C135 C129 1.500 . S
C136 H98 0.930 . S
C136 C112 1.417 . S
C136 C137 1.329 . S
C137 C107 1.437 . S
C137 H108 0.929 . S
C137 C136 1.329 . S
H138 C111 0.931 . S
C139 O121 1.265 . S
C139 O122 1.242 . S
C140 O125 1.261 1_655 S
C140 O126 1.252 . S
C141 C144 1.394 . S
C141 C146 1.370 . S
C141 C147 1.500 . S
C142 C145 1.383 . S
C142 C146 1.395 . S
C143 C144 1.396 . S
C143 C145 1.365 . S
C143 H152 0.929 . S
C144 C141 1.394 . S
C144 C143 1.396 . S
C144 H153 0.930 . S
C145 C142 1.383 . S
C145 C143 1.365 . S
C145 H154 0.931 . S
C146 C141 1.370 . S
C146 C142 1.395 . S
C146 H155 0.930 . S
C147 Gd83 2.805 . S
C147 O123 1.263 . S
C147 O124 1.252 . S
C147 C141 1.500 . S
H148 C131 0.929 . S
H149 C132 0.930 . S
H150 C133 0.931 . S
H151 C134 0.930 . S
H152 C143 0.929 . S
H153 C144 0.930 . S
H154 C145 0.931 . S
H155 C146 0.930 . S
C156 C158 1.422 . S
C156 C160 1.415 . S
C156 N162 1.369 . S
C157 C158 1.421 . S
C157 C159 1.417 . S
C157 C169 1.422 . S
C158 C156 1.422 . S
C158 C157 1.421 . S
C158 N168 1.359 . S
C159 C157 1.417 . S
C159 C161 1.329 . S
C159 H178 0.930 . S
C160 C156 1.415 . S
C160 C161 1.437 . S
C160 C164 1.413 . S
C161 C159 1.329 . S
C161 C160 1.437 . S
C161 H183 0.929 . S
N162 C156 1.369 . S
N162 C163 1.338 . S
N162 Gd167 2.622 . S
C163 N162 1.338 . S
C163 C165 1.378 . S
C163 H175 0.929 . S
C164 C160 1.413 . S
C164 C165 1.348 . S
C164 H180 0.931 . S
C165 C163 1.378 . S
C165 C164 1.348 . S
C165 H181 0.930 . S
Gd166 N186 2.622 . S
Gd166 N193 2.570 . S
Gd166 O200 2.353 . S
Gd166 O201 2.468 . S
Gd166 O202 2.427 . S
Gd166 O204 2.388 . S
Gd166 O205 2.386 . S
Gd166 O209 2.307 . S
Gd166 C219 2.805 . S
Gd167 N162 2.622 . S
Gd167 N168 2.570 . S
Gd167 O199 2.386 . S
Gd167 O203 2.307 . S
Gd167 O206 2.353 . S
Gd167 O207 2.468 . S
Gd167 O208 2.427 . S
Gd167 O210 2.388 . S
Gd167 C231 2.805 . S
N168 C158 1.359 . S
N168 Gd167 2.570 . S
N168 C170 1.343 . S
C169 C157 1.422 . S
C169 C171 1.321 . S
C169 H177 0.931 . S
C170 N168 1.343 . S
C170 C171 1.390 . S
C170 H172 0.931 . S
C171 C169 1.321 . S
C171 C170 1.390 . S
C171 H173 0.930 . S
H172 C170 0.931 . S
H173 C171 0.930 . S
H174 C197 0.931 . S
H175 C163 0.929 . S
H176 C198 0.930 . S
H177 C169 0.931 . S
H178 C159 0.930 . S
H179 C188 0.929 . S
H180 C164 0.931 . S
H181 C165 0.930 . S
H182 C220 0.930 . S
H183 C161 0.929 . S
H184 C189 0.931 . S
H185 C190 0.930 . S
N186 Gd166 2.622 . S
N186 C187 1.369 . S
N186 C188 1.338 . S
C187 N186 1.369 . S
C187 C191 1.415 . S
C187 C194 1.422 . S
C188 H179 0.929 . S
C188 N186 1.338 . S
C188 C190 1.378 . S
C189 H184 0.931 . S
C189 C190 1.348 . S
C189 C191 1.413 . S
C190 H185 0.930 . S
C190 C188 1.378 . S
C190 C189 1.348 . S
C191 C187 1.415 . S
C191 C189 1.413 . S
C191 C221 1.437 . S
H192 C221 0.929 . S
N193 Gd166 2.570 . S
N193 C194 1.359 . S
N193 C197 1.343 . S
C194 C187 1.422 . S
C194 N193 1.359 . S
C194 C196 1.421 . S
C195 C196 1.422 . S
C195 C198 1.321 . S
C195 H222 0.931 . S
C196 C194 1.421 . S
C196 C195 1.422 . S
C196 C220 1.417 . S
C197 H174 0.931 . S
C197 N193 1.343 . S
C197 C198 1.390 . S
C198 H176 0.930 . S
C198 C195 1.321 . S
C198 C197 1.390 . S
O199 Gd167 2.386 . S
O199 C211 1.265 . S
O200 Gd166 2.353 . S
O200 C211 1.242 . S
O201 Gd166 2.468 . S
O201 C219 1.263 . S
O202 Gd166 2.427 . S
O202 C219 1.252 . S
O203 Gd167 2.307 . S
O203 C212 1.261 . S
O204 Gd166 2.388 . S
O204 C212 1.252 . S
O205 Gd166 2.386 . S
O205 C223 1.265 . S
O206 Gd167 2.353 . S
O206 C223 1.242 . S
O207 Gd167 2.468 . S
O207 C231 1.263 . S
O208 Gd167 2.427 . S
O208 C231 1.252 . S
O209 Gd166 2.307 . S
O209 C224 1.261 . S
O210 Gd167 2.388 . S
O210 C224 1.252 . S
C211 O199 1.265 . S
C211 O200 1.242 . S
C212 O203 1.261 . S
C212 O204 1.252 . S
C213 C216 1.394 . S
C213 C218 1.370 . S
C213 C219 1.500 . S
C214 C217 1.383 . S
C214 C218 1.395 . S
C215 C216 1.396 . S
C215 C217 1.365 . S
C215 H232 0.929 . S
C216 C213 1.394 . S
C216 C215 1.396 . S
C216 H233 0.930 . S
C217 C214 1.383 . S
C217 C215 1.365 . S
C217 H234 0.931 . S
C218 C213 1.370 . S
C218 C214 1.395 . S
C218 H235 0.930 . S
C219 Gd166 2.805 . S
C219 O201 1.263 . S
C219 O202 1.252 . S
C219 C213 1.500 . S
C220 H182 0.930 . S
C220 C196 1.417 . S
C220 C221 1.329 . S
C221 C191 1.437 . S
C221 H192 0.929 . S
C221 C220 1.329 . S
H222 C195 0.931 . S
C223 O205 1.265 . S
C223 O206 1.242 . S
C224 O209 1.261 . S
C224 O210 1.252 . S
C225 C228 1.394 . S
C225 C230 1.370 . S
C225 C231 1.500 . S
C226 C229 1.383 . S
C226 C230 1.395 . S
C227 C228 1.396 . S
C227 C229 1.365 . S
C227 H236 0.929 . S
C228 C225 1.394 . S
C228 C227 1.396 . S
C228 H237 0.930 . S
C229 C226 1.383 . S
C229 C227 1.365 . S
C229 H238 0.931 . S
C230 C225 1.370 . S
C230 C226 1.395 . S
C230 H239 0.930 . S
C231 Gd167 2.805 . S
C231 O207 1.263 . S
C231 O208 1.252 . S
C231 C225 1.500 . S
H232 C215 0.929 . S
H233 C216 0.930 . S
H234 C217 0.931 . S
H235 C218 0.930 . S
H236 C227 0.929 . S
H237 C228 0.930 . S
H238 C229 0.931 . S
H239 C230 0.930 . S
C240 C242 1.422 . S
C240 C244 1.415 . S
C240 N246 1.369 . S
C241 C242 1.421 . S
C241 C243 1.417 . S
C241 C253 1.422 . S
C242 C240 1.422 . S
C242 C241 1.421 . S
C242 N252 1.359 . S
C243 C241 1.417 . S
C243 C245 1.329 . S
C243 H262 0.930 . S
C244 C240 1.415 . S
C244 C245 1.437 . S
C244 C248 1.413 . S
C245 C243 1.329 . S
C245 C244 1.437 . S
C245 H267 0.929 . S
N246 C240 1.369 . S
N246 C247 1.338 . S
N246 Gd251 2.622 . S
C247 N246 1.338 . S
C247 C249 1.378 . S
C247 H259 0.929 . S
C248 C244 1.413 . S
C248 C249 1.348 . S
C248 H264 0.931 . S
C249 C247 1.378 . S
C249 C248 1.348 . S
C249 H265 0.930 . S
Gd250 N270 2.622 . S
Gd250 N277 2.570 . S
Gd250 O284 2.353 . S
Gd250 O285 2.468 . S
Gd250 O286 2.427 . S
Gd250 O288 2.388 . S
Gd250 O289 2.386 . S
Gd250 O293 2.307 . S
Gd250 C303 2.805 . S
Gd251 N246 2.622 . S
Gd251 N252 2.570 . S
Gd251 O283 2.386 . S
Gd251 O287 2.307 1_655 S
Gd251 O290 2.353 1_655 S
Gd251 O291 2.468 . S
Gd251 O292 2.427 . S
Gd251 O294 2.388 . S
Gd251 C315 2.805 . S
N252 C242 1.359 . S
N252 Gd251 2.570 . S
N252 C254 1.343 . S
C253 C241 1.422 . S
C253 C255 1.321 . S
C253 H261 0.931 . S
C254 N252 1.343 . S
C254 C255 1.390 . S
C254 H256 0.931 . S
C255 C253 1.321 . S
C255 C254 1.390 . S
C255 H257 0.930 . S
H256 C254 0.931 . S
H257 C255 0.930 . S
H258 C281 0.931 . S
H259 C247 0.929 . S
H260 C282 0.930 . S
H261 C253 0.931 . S
H262 C243 0.930 . S
H263 C272 0.929 . S
H264 C248 0.931 . S
H265 C249 0.930 . S
H266 C304 0.930 . S
H267 C245 0.929 . S
H268 C273 0.931 . S
H269 C274 0.930 . S
N270 Gd250 2.622 . S
N270 C271 1.369 . S
N270 C272 1.338 . S
C271 N270 1.369 . S
C271 C275 1.415 . S
C271 C278 1.422 . S
C272 H263 0.929 . S
C272 N270 1.338 . S
C272 C274 1.378 . S
C273 H268 0.931 . S
C273 C274 1.348 . S
C273 C275 1.413 . S
C274 H269 0.930 . S
C274 C272 1.378 . S
C274 C273 1.348 . S
C275 C271 1.415 . S
C275 C273 1.413 . S
C275 C305 1.437 . S
H276 C305 0.929 . S
N277 Gd250 2.570 . S
N277 C278 1.359 . S
N277 C281 1.343 . S
C278 C271 1.422 . S
C278 N277 1.359 . S
C278 C280 1.421 . S
C279 C280 1.422 . S
C279 C282 1.321 . S
C279 H306 0.931 . S
C280 C278 1.421 . S
C280 C279 1.422 . S
C280 C304 1.417 . S
C281 H258 0.931 . S
C281 N277 1.343 . S
C281 C282 1.390 . S
C282 H260 0.930 . S
C282 C279 1.321 . S
C282 C281 1.390 . S
O283 Gd251 2.386 . S
O283 C295 1.265 . S
O284 Gd250 2.353 . S
O284 C295 1.242 1_455 S
O285 Gd250 2.468 . S
O285 C303 1.263 . S
O286 Gd250 2.427 . S
O286 C303 1.252 . S
O287 Gd251 2.307 1_455 S
O287 C296 1.261 . S
O288 Gd250 2.388 . S
O288 C296 1.252 . S
O289 Gd250 2.386 . S
O289 C307 1.265 . S
O290 Gd251 2.353 1_455 S
O290 C307 1.242 . S
O291 Gd251 2.468 . S
O291 C315 1.263 . S
O292 Gd251 2.427 . S
O292 C315 1.252 . S
O293 Gd250 2.307 . S
O293 C308 1.261 1_455 S
O294 Gd251 2.388 . S
O294 C308 1.252 . S
C295 O283 1.265 . S
C295 O284 1.242 1_655 S
C296 O287 1.261 . S
C296 O288 1.252 . S
C297 C300 1.394 . S
C297 C302 1.370 . S
C297 C303 1.500 . S
C298 C301 1.383 . S
C298 C302 1.395 . S
C299 C300 1.396 . S
C299 C301 1.365 . S
C299 H316 0.929 . S
C300 C297 1.394 . S
C300 C299 1.396 . S
C300 H317 0.930 . S
C301 C298 1.383 . S
C301 C299 1.365 . S
C301 H318 0.931 . S
C302 C297 1.370 . S
C302 C298 1.395 . S
C302 H319 0.930 . S
C303 Gd250 2.805 . S
C303 O285 1.263 . S
C303 O286 1.252 . S
C303 C297 1.500 . S
C304 H266 0.930 . S
C304 C280 1.417 . S
C304 C305 1.329 . S
C305 C275 1.437 . S
C305 H276 0.929 . S
C305 C304 1.329 . S
H306 C279 0.931 . S
C307 O289 1.265 . S
C307 O290 1.242 . S
C308 O293 1.261 1_655 S
C308 O294 1.252 . S
C309 C312 1.394 . S
C309 C314 1.370 . S
C309 C315 1.500 . S
C310 C313 1.383 . S
C310 C314 1.395 . S
C311 C312 1.396 . S
C311 C313 1.365 . S
C311 H320 0.929 . S
C312 C309 1.394 . S
C312 C311 1.396 . S
C312 H321 0.930 . S
C313 C310 1.383 . S
C313 C311 1.365 . S
C313 H322 0.931 . S
C314 C309 1.370 . S
C314 C310 1.395 . S
C314 H323 0.930 . S
C315 Gd251 2.805 . S
C315 O291 1.263 . S
C315 O292 1.252 . S
C315 C309 1.500 . S
H316 C299 0.929 . S
H317 C300 0.930 . S
H318 C301 0.931 . S
H319 C302 0.930 . S
H320 C311 0.929 . S
H321 C312 0.930 . S
H322 C313 0.931 . S
H323 C314 0.930 . S
C324 C326 1.422 . S
C324 C328 1.415 . S
C324 N330 1.369 . S
C325 C326 1.421 . S
C325 C327 1.417 . S
C325 C337 1.422 . S
C326 C324 1.422 . S
C326 C325 1.421 . S
C326 N336 1.359 . S
C327 C325 1.417 . S
C327 C329 1.329 . S
C327 H346 0.930 . S
C328 C324 1.415 . S
C328 C329 1.437 . S
C328 C332 1.413 . S
C329 C327 1.329 . S
C329 C328 1.437 . S
C329 H351 0.929 . S
N330 C324 1.369 . S
N330 C331 1.338 . S
N330 Gd335 2.622 . S
C331 N330 1.338 . S
C331 C333 1.378 . S
C331 H343 0.929 . S
C332 C328 1.413 . S
C332 C333 1.348 . S
C332 H348 0.931 . S
C333 C331 1.378 . S
C333 C332 1.348 . S
C333 H349 0.930 . S
Gd334 N354 2.622 . S
Gd334 N361 2.570 . S
Gd334 O368 2.353 . S
Gd334 O369 2.468 . S
Gd334 O370 2.427 . S
Gd334 O372 2.388 . S
Gd334 O373 2.386 . S
Gd334 O377 2.307 . S
Gd334 C387 2.805 . S
Gd335 N330 2.622 . S
Gd335 N336 2.570 . S
Gd335 O367 2.386 . S
Gd335 O371 2.307 . S
Gd335 O374 2.353 . S
Gd335 O375 2.468 . S
Gd335 O376 2.427 . S
Gd335 O378 2.388 . S
Gd335 C399 2.805 . S
N336 C326 1.359 . S
N336 Gd335 2.570 . S
N336 C338 1.343 . S
C337 C325 1.422 . S
C337 C339 1.321 . S
C337 H345 0.931 . S
C338 N336 1.343 . S
C338 C339 1.390 . S
C338 H340 0.931 . S
C339 C337 1.321 . S
C339 C338 1.390 . S
C339 H341 0.930 . S
H340 C338 0.931 . S
H341 C339 0.930 . S
H342 C365 0.931 . S
H343 C331 0.929 . S
H344 C366 0.930 . S
H345 C337 0.931 . S
H346 C327 0.930 . S
H347 C356 0.929 . S
H348 C332 0.931 . S
H349 C333 0.930 . S
H350 C388 0.930 . S
H351 C329 0.929 . S
H352 C357 0.931 . S
H353 C358 0.930 . S
N354 Gd334 2.622 . S
N354 C355 1.369 . S
N354 C356 1.338 . S
C355 N354 1.369 . S
C355 C359 1.415 . S
C355 C362 1.422 . S
C356 H347 0.929 . S
C356 N354 1.338 . S
C356 C358 1.378 . S
C357 H352 0.931 . S
C357 C358 1.348 . S
C357 C359 1.413 . S
C358 H353 0.930 . S
C358 C356 1.378 . S
C358 C357 1.348 . S
C359 C355 1.415 . S
C359 C357 1.413 . S
C359 C389 1.437 . S
H360 C389 0.929 . S
N361 Gd334 2.570 . S
N361 C362 1.359 . S
N361 C365 1.343 . S
C362 C355 1.422 . S
C362 N361 1.359 . S
C362 C364 1.421 . S
C363 C364 1.422 . S
C363 C366 1.321 . S
C363 H390 0.931 . S
C364 C362 1.421 . S
C364 C363 1.422 . S
C364 C388 1.417 . S
C365 H342 0.931 . S
C365 N361 1.343 . S
C365 C366 1.390 . S
C366 H344 0.930 . S
C366 C363 1.321 . S
C366 C365 1.390 . S
O367 Gd335 2.386 . S
O367 C379 1.265 . S
O368 Gd334 2.353 . S
O368 C379 1.242 . S
O369 Gd334 2.468 . S
O369 C387 1.263 . S
O370 Gd334 2.427 . S
O370 C387 1.252 . S
O371 Gd335 2.307 . S
O371 C380 1.261 . S
O372 Gd334 2.388 . S
O372 C380 1.252 . S
O373 Gd334 2.386 . S
O373 C391 1.265 . S
O374 Gd335 2.353 . S
O374 C391 1.242 . S
O375 Gd335 2.468 . S
O375 C399 1.263 . S
O376 Gd335 2.427 . S
O376 C399 1.252 . S
O377 Gd334 2.307 . S
O377 C392 1.261 . S
O378 Gd335 2.388 . S
O378 C392 1.252 . S
C379 O367 1.265 . S
C379 O368 1.242 . S
C380 O371 1.261 . S
C380 O372 1.252 . S
C381 C384 1.394 . S
C381 C386 1.370 . S
C381 C387 1.500 . S
C382 C385 1.383 . S
C382 C386 1.395 . S
C383 C384 1.396 . S
C383 C385 1.365 . S
C383 H400 0.929 . S
C384 C381 1.394 . S
C384 C383 1.396 . S
C384 H401 0.930 . S
C385 C382 1.383 . S
C385 C383 1.365 . S
C385 H402 0.931 . S
C386 C381 1.370 . S
C386 C382 1.395 . S
C386 H403 0.930 . S
C387 Gd334 2.805 . S
C387 O369 1.263 . S
C387 O370 1.252 . S
C387 C381 1.500 . S
C388 H350 0.930 . S
C388 C364 1.417 . S
C388 C389 1.329 . S
C389 C359 1.437 . S
C389 H360 0.929 . S
C389 C388 1.329 . S
H390 C363 0.931 . S
C391 O373 1.265 . S
C391 O374 1.242 . S
C392 O377 1.261 . S
C392 O378 1.252 . S
C393 C396 1.394 . S
C393 C398 1.370 . S
C393 C399 1.500 . S
C394 C397 1.383 . S
C394 C398 1.395 . S
C395 C396 1.396 . S
C395 C397 1.365 . S
C395 H404 0.929 . S
C396 C393 1.394 . S
C396 C395 1.396 . S
C396 H405 0.930 . S
C397 C394 1.383 . S
C397 C395 1.365 . S
C397 H406 0.931 . S
C398 C393 1.370 . S
C398 C394 1.395 . S
C398 H407 0.930 . S
C399 Gd335 2.805 . S
C399 O375 1.263 . S
C399 O376 1.252 . S
C399 C393 1.500 . S
H400 C383 0.929 . S
H401 C384 0.930 . S
H402 C385 0.931 . S
H403 C386 0.930 . S
H404 C395 0.929 . S
H405 C396 0.930 . S
H406 C397 0.931 . S
H407 C398 0.930 . S
H408 C416 0.950 . S
H409 C421 0.950 . S
H410 C418 0.950 . S
H411 C420 0.950 1_545 S
H412 C422 0.950 . S
H413 C424 0.950 . S
H414 C426 0.950 . S
H415 C427 0.950 . S
C416 H408 0.950 . S
C416 C417 1.386 . S
C416 C418 1.391 . S
C417 C416 1.386 . S
C417 C421 1.393 . S
C418 H410 0.950 . S
C418 C416 1.391 . S
C418 C419 1.400 . S
C419 C418 1.400 . S
C419 C420 1.398 . S
C419 C425 1.491 1_565 S
C420 H411 0.950 1_565 S
C420 C419 1.398 . S
C420 C421 1.391 . S
C421 H409 0.950 . S
C421 C417 1.393 . S
C421 C420 1.391 . S
C422 H412 0.950 . S
C422 C423 1.386 . S
C422 C424 1.391 . S
C423 C422 1.386 . S
C423 C427 1.393 . S
C424 H413 0.950 . S
C424 C422 1.391 . S
C424 C425 1.400 . S
C425 C419 1.491 1_545 S
C425 C424 1.400 . S
C425 C426 1.398 . S
C426 H414 0.950 . S
C426 C425 1.398 . S
C426 C427 1.391 . S
C427 H415 0.950 . S
C427 C423 1.393 . S
C427 C426 1.391 . S
H428 C436 0.950 . S
H429 C441 0.950 . S
H430 C438 0.950 . S
H431 C440 0.950 . S
H432 C442 0.950 . S
H433 C444 0.950 . S
H434 C446 0.950 . S
H435 C447 0.950 . S
C436 H428 0.950 . S
C436 C437 1.386 . S
C436 C438 1.391 . S
C437 C436 1.386 . S
C437 C441 1.393 . S
C438 H430 0.950 . S
C438 C436 1.391 . S
C438 C439 1.400 . S
C439 C438 1.400 . S
C439 C440 1.398 . S
C439 C445 1.491 . S
C440 H431 0.950 . S
C440 C439 1.398 . S
C440 C441 1.391 . S
C441 H429 0.950 . S
C441 C437 1.393 . S
C441 C440 1.391 . S
C442 H432 0.950 . S
C442 C443 1.386 . S
C442 C444 1.391 . S
C443 C442 1.386 . S
C443 C447 1.393 . S
C444 H433 0.950 . S
C444 C442 1.391 . S
C444 C445 1.400 . S
C445 C439 1.491 . S
C445 C444 1.400 . S
C445 C446 1.398 . S
C446 H434 0.950 . S
C446 C445 1.398 . S
C446 C447 1.391 . S
C447 H435 0.950 . S
C447 C443 1.393 . S
C447 C446 1.391 . S
H448 C456 0.950 . S
H449 C461 0.950 . S
H450 C458 0.950 . S
H451 C460 0.950 . S
H452 C462 0.950 . S
H453 C464 0.950 . S
H454 C466 0.950 . S
H455 C467 0.950 . S
C456 H448 0.950 . S
C456 C457 1.386 . S
C456 C458 1.391 . S
C457 C456 1.386 . S
C457 C461 1.393 . S
C458 H450 0.950 . S
C458 C456 1.391 . S
C458 C459 1.400 . S
C459 C458 1.400 . S
C459 C460 1.398 . S
C459 C465 1.491 . S
C460 H451 0.950 . S
C460 C459 1.398 . S
C460 C461 1.391 . S
C461 H449 0.950 . S
C461 C457 1.393 . S
C461 C460 1.391 . S
C462 H452 0.950 . S
C462 C463 1.386 . S
C462 C464 1.391 . S
C463 C462 1.386 . S
C463 C467 1.393 . S
C464 H453 0.950 . S
C464 C462 1.391 . S
C464 C465 1.400 . S
C465 C459 1.491 . S
C465 C464 1.400 . S
C465 C466 1.398 . S
C466 H454 0.950 . S
C466 C465 1.398 . S
C466 C467 1.391 . S
C467 H455 0.950 . S
C467 C463 1.393 . S
C467 C466 1.391 . S
H468 C476 0.950 . S
H469 C481 0.950 . S
H470 C478 0.950 . S
H471 C480 0.950 . S
H472 C482 0.950 . S
H473 C484 0.950 . S
H474 C486 0.950 . S
H475 C487 0.950 . S
C476 H468 0.950 . S
C476 C477 1.386 . S
C476 C478 1.391 . S
C477 C476 1.386 . S
C477 C481 1.393 . S
C478 H470 0.950 . S
C478 C476 1.391 . S
C478 C479 1.400 . S
C479 C478 1.400 . S
C479 C480 1.398 . S
C479 C485 1.491 1_565 S
C480 H471 0.950 . S
C480 C479 1.398 . S
C480 C481 1.391 . S
C481 H469 0.950 . S
C481 C477 1.393 . S
C481 C480 1.391 . S
C482 H472 0.950 . S
C482 C483 1.386 . S
C482 C484 1.391 . S
C483 C482 1.386 . S
C483 C487 1.393 . S
C484 H473 0.950 . S
C484 C482 1.391 . S
C484 C485 1.400 . S
C485 C479 1.491 1_545 S
C485 C484 1.400 . S
C485 C486 1.398 . S
C486 H474 0.950 . S
C486 C485 1.398 . S
C486 C487 1.391 . S
C487 H475 0.950 . S
C487 C483 1.393 . S
C487 C486 1.391 . S
H488 C496 0.950 . S
H489 C501 0.950 . S
H490 C498 0.950 1_565 S
H491 C500 0.950 . S
H492 C502 0.950 . S
H493 C504 0.950 1_545 S
H494 C506 0.950 . S
H495 C507 0.950 . S
C496 H488 0.950 . S
C496 C497 1.386 . S
C496 C498 1.391 . S
C497 C496 1.386 . S
C497 C501 1.393 . S
C498 H490 0.950 1_545 S
C498 C496 1.391 . S
C498 C499 1.400 . S
C499 C498 1.400 . S
C499 C500 1.398 . S
C499 C505 1.491 1_545 S
C500 H491 0.950 . S
C500 C499 1.398 . S
C500 C501 1.391 . S
C501 H489 0.950 . S
C501 C497 1.393 . S
C501 C500 1.391 . S
C502 H492 0.950 . S
C502 C503 1.386 . S
C502 C504 1.391 . S
C503 C502 1.386 . S
C503 C507 1.393 . S
C504 H493 0.950 1_565 S
C504 C502 1.391 . S
C504 C505 1.400 . S
C505 C499 1.491 1_565 S
C505 C504 1.400 . S
C505 C506 1.398 . S
C506 H494 0.950 . S
C506 C505 1.398 . S
C506 C507 1.391 . S
C507 H495 0.950 . S
C507 C503 1.393 . S
C507 C506 1.391 . S
H508 C516 0.950 . S
H509 C521 0.950 . S
H510 C518 0.950 . S
H511 C520 0.950 . S
H512 C522 0.950 . S
H513 C524 0.950 . S
H514 C526 0.950 . S
H515 C527 0.950 . S
C516 H508 0.950 . S
C516 C517 1.386 . S
C516 C518 1.391 . S
C517 C516 1.386 . S
C517 C521 1.393 . S
C518 H510 0.950 . S
C518 C516 1.391 . S
C518 C519 1.400 . S
C519 C518 1.400 . S
C519 C520 1.398 . S
C519 C525 1.491 . S
C520 H511 0.950 . S
C520 C519 1.398 . S
C520 C521 1.391 . S
C521 H509 0.950 . S
C521 C517 1.393 . S
C521 C520 1.391 . S
C522 H512 0.950 . S
C522 C523 1.386 . S
C522 C524 1.391 . S
C523 C522 1.386 . S
C523 C527 1.393 . S
C524 H513 0.950 . S
C524 C522 1.391 . S
C524 C525 1.400 . S
C525 C519 1.491 . S
C525 C524 1.400 . S
C525 C526 1.398 . S
C526 H514 0.950 . S
C526 C525 1.398 . S
C526 C527 1.391 . S
C527 H515 0.950 . S
C527 C523 1.393 . S
C527 C526 1.391 . S
H528 C536 0.950 . S
H529 C541 0.950 . S
H530 C538 0.950 . S
H531 C540 0.950 . S
H532 C542 0.950 . S
H533 C544 0.950 . S
H534 C546 0.950 . S
H535 C547 0.950 . S
C536 H528 0.950 . S
C536 C537 1.386 . S
C536 C538 1.391 . S
C537 C536 1.386 . S
C537 C541 1.393 . S
C538 H530 0.950 . S
C538 C536 1.391 . S
C538 C539 1.400 . S
C539 C538 1.400 . S
C539 C540 1.398 . S
C539 C545 1.491 . S
C540 H531 0.950 . S
C540 C539 1.398 . S
C540 C541 1.391 . S
C541 H529 0.950 . S
C541 C537 1.393 . S
C541 C540 1.391 . S
C542 H532 0.950 . S
C542 C543 1.386 . S
C542 C544 1.391 . S
C543 C542 1.386 . S
C543 C547 1.393 . S
C544 H533 0.950 . S
C544 C542 1.391 . S
C544 C545 1.400 . S
C545 C539 1.491 . S
C545 C544 1.400 . S
C545 C546 1.398 . S
C546 H534 0.950 . S
C546 C545 1.398 . S
C546 C547 1.391 . S
C547 H535 0.950 . S
C547 C543 1.393 . S
C547 C546 1.391 . S
H548 C556 0.950 . S
H549 C561 0.950 . S
H550 C558 0.949 1_565 S
H551 C560 0.950 . S
H552 C562 0.950 . S
H553 C564 0.950 . S
H554 C566 0.950 . S
H555 C567 0.950 . S
C556 H548 0.950 . S
C556 C557 1.386 . S
C556 C558 1.391 . S
C557 C556 1.386 . S
C557 C561 1.393 . S
C558 H550 0.949 1_545 S
C558 C556 1.391 . S
C558 C559 1.400 . S
C559 C558 1.400 . S
C559 C560 1.398 . S
C559 C565 1.491 1_545 S
C560 H551 0.950 . S
C560 C559 1.398 . S
C560 C561 1.391 . S
C561 H549 0.950 . S
C561 C557 1.393 . S
C561 C560 1.391 . S
C562 H552 0.950 . S
C562 C563 1.386 . S
C562 C564 1.391 . S
C563 C562 1.386 . S
C563 C567 1.393 . S
C564 H553 0.950 . S
C564 C562 1.391 . S
C564 C565 1.400 . S
C565 C559 1.491 1_565 S
C565 C564 1.400 . S
C565 C566 1.398 . S
C566 H554 0.950 . S
C566 C565 1.398 . S
C566 C567 1.391 . S
C567 H555 0.950 . S
C567 C563 1.393 . S
C567 C566 1.391 . S
H568 C576 0.950 . S
H569 C581 0.950 . S
H570 C578 0.950 . S
H571 C580 0.950 1_554 S
H572 C582 0.950 . S
H573 C584 0.950 . S
H574 C586 0.950 . S
H575 C587 0.950 . S
C576 H568 0.950 . S
C576 C577 1.386 . S
C576 C578 1.391 . S
C577 C576 1.386 . S
C577 C581 1.393 . S
C578 H570 0.950 . S
C578 C576 1.391 . S
C578 C579 1.400 1_556 S
C579 C578 1.400 1_554 S
C579 C580 1.398 1_554 S
C579 C585 1.491 . S
C580 H571 0.950 1_556 S
C580 C579 1.398 1_556 S
C580 C581 1.391 . S
C581 H569 0.950 . S
C581 C577 1.393 . S
C581 C580 1.391 . S
C582 H572 0.950 . S
C582 C583 1.386 . S
C582 C584 1.391 . S
C583 C582 1.386 . S
C583 C587 1.393 . S
C584 H573 0.950 . S
C584 C582 1.391 . S
C584 C585 1.400 . S
C585 C579 1.491 . S
C585 C584 1.400 . S
C585 C586 1.398 . S
C586 H574 0.950 . S
C586 C585 1.398 . S
C586 C587 1.391 . S
C587 H575 0.950 . S
C587 C583 1.393 . S
C587 C586 1.391 . S
H588 C596 0.950 . S
H589 C601 0.950 . S
H590 C598 0.950 . S
H591 C600 0.950 . S
H592 C602 0.950 . S
H593 C604 0.950 . S
H594 C606 0.950 . S
H595 C607 0.950 . S
C596 H588 0.950 . S
C596 C597 1.386 . S
C596 C598 1.391 . S
C597 C596 1.386 . S
C597 C601 1.393 . S
C598 H590 0.950 . S
C598 C596 1.391 . S
C598 C599 1.400 . S
C599 C598 1.400 . S
C599 C600 1.398 . S
C599 C605 1.491 . S
C600 H591 0.950 . S
C600 C599 1.398 . S
C600 C601 1.391 . S
C601 H589 0.950 . S
C601 C597 1.393 . S
C601 C600 1.391 . S
C602 H592 0.950 . S
C602 C603 1.386 . S
C602 C604 1.391 . S
C603 C602 1.386 . S
C603 C607 1.393 . S
C604 H593 0.950 . S
C604 C602 1.391 . S
C604 C605 1.400 . S
C605 C599 1.491 . S
C605 C604 1.400 . S
C605 C606 1.398 . S
C606 H594 0.950 . S
C606 C605 1.398 . S
C606 C607 1.391 . S
C607 H595 0.950 . S
C607 C603 1.393 . S
C607 C606 1.391 . S
H608 C616 0.950 . S
H609 C621 0.950 . S
H610 C618 0.950 . S
H611 C620 0.950 1_556 S
H612 C622 0.950 . S
H613 C624 0.950 . S
H614 C626 0.950 . S
H615 C627 0.950 . S
C616 H608 0.950 . S
C616 C617 1.386 . S
C616 C618 1.391 . S
C617 C616 1.386 . S
C617 C621 1.393 . S
C618 H610 0.950 . S
C618 C616 1.391 . S
C618 C619 1.400 1_554 S
C619 C618 1.400 1_556 S
C619 C620 1.398 1_556 S
C619 C625 1.491 . S
C620 H611 0.950 1_554 S
C620 C619 1.398 1_554 S
C620 C621 1.391 . S
C621 H609 0.950 . S
C621 C617 1.393 . S
C621 C620 1.391 . S
C622 H612 0.950 . S
C622 C623 1.386 . S
C622 C624 1.391 . S
C623 C622 1.386 . S
C623 C627 1.393 . S
C624 H613 0.950 . S
C624 C622 1.391 . S
C624 C625 1.400 . S
C625 C619 1.491 . S
C625 C624 1.400 . S
C625 C626 1.398 . S
C626 H614 0.950 . S
C626 C625 1.398 . S
C626 C627 1.391 . S
C627 H615 0.950 . S
C627 C623 1.393 . S
C627 C626 1.391 . S
H628 C636 0.950 . S
H629 C641 0.950 . S
H630 C638 0.950 . S
H631 C640 0.950 . S
H632 C642 0.950 . S
H633 C644 0.950 . S
H634 C646 0.950 . S
H635 C647 0.950 . S
C636 H628 0.950 . S
C636 C637 1.386 . S
C636 C638 1.391 . S
C637 C636 1.386 . S
C637 C641 1.393 . S
C638 H630 0.950 . S
C638 C636 1.391 . S
C638 C639 1.400 . S
C639 C638 1.400 . S
C639 C640 1.398 . S
C639 C645 1.491 . S
C640 H631 0.950 . S
C640 C639 1.398 . S
C640 C641 1.391 . S
C641 H629 0.950 . S
C641 C637 1.393 . S
C641 C640 1.391 . S
C642 H632 0.950 . S
C642 C643 1.386 . S
C642 C644 1.391 . S
C643 C642 1.386 . S
C643 C647 1.393 . S
C644 H633 0.950 . S
C644 C642 1.391 . S
C644 C645 1.400 . S
C645 C639 1.491 . S
C645 C644 1.400 . S
C645 C646 1.398 . S
C646 H634 0.950 . S
C646 C645 1.398 . S
C646 C647 1.391 . S
C647 H635 0.950 . S
C647 C643 1.393 . S
C647 C646 1.391 . S
H648 C656 0.950 . S
H649 C661 0.950 . S
H650 C658 0.950 . S
H651 C660 0.950 1_556 S
H652 C662 0.950 . S
H653 C664 0.950 . S
H654 C666 0.950 . S
H655 C667 0.950 . S
C656 H648 0.950 . S
C656 C657 1.386 . S
C656 C658 1.391 . S
C657 C656 1.386 . S
C657 C661 1.393 . S
C658 H650 0.950 . S
C658 C656 1.391 . S
C658 C659 1.400 1_554 S
C659 C658 1.400 1_556 S
C659 C660 1.398 1_556 S
C659 C665 1.491 . S
C660 H651 0.950 1_554 S
C660 C659 1.398 1_554 S
C660 C661 1.391 . S
C661 H649 0.950 . S
C661 C657 1.393 . S
C661 C660 1.391 . S
C662 H652 0.950 . S
C662 C663 1.386 . S
C662 C664 1.391 . S
C663 C662 1.386 . S
C663 C667 1.393 . S
C664 H653 0.950 . S
C664 C662 1.391 . S
C664 C665 1.400 . S
C665 C659 1.491 . S
C665 C664 1.400 . S
C665 C666 1.398 . S
C666 H654 0.950 . S
C666 C665 1.398 . S
C666 C667 1.391 . S
C667 H655 0.950 . S
C667 C663 1.393 . S
C667 C666 1.391 . S
H668 C676 0.950 . S
H669 C681 0.950 . S
H670 C678 0.950 . S
H671 C680 0.950 . S
H672 C682 0.950 . S
H673 C684 0.950 . S
H674 C686 0.950 . S
H675 C687 0.950 . S
C676 H668 0.950 . S
C676 C677 1.386 . S
C676 C678 1.391 . S
C677 C676 1.386 . S
C677 C681 1.393 . S
C678 H670 0.950 . S
C678 C676 1.391 . S
C678 C679 1.400 . S
C679 C678 1.400 . S
C679 C680 1.398 . S
C679 C685 1.491 . S
C680 H671 0.950 . S
C680 C679 1.398 . S
C680 C681 1.391 . S
C681 H669 0.950 . S
C681 C677 1.393 . S
C681 C680 1.391 . S
C682 H672 0.950 . S
C682 C683 1.386 . S
C682 C684 1.391 . S
C683 C682 1.386 . S
C683 C687 1.393 . S
C684 H673 0.950 . S
C684 C682 1.391 . S
C684 C685 1.400 . S
C685 C679 1.491 . S
C685 C684 1.400 . S
C685 C686 1.398 . S
C686 H674 0.950 . S
C686 C685 1.398 . S
C686 C687 1.391 . S
C687 H675 0.950 . S
C687 C683 1.393 . S
C687 C686 1.391 . S
H688 C696 0.950 . S
H689 C701 0.950 . S
H690 C698 0.950 1_554 S
H691 C700 0.950 . S
H692 C702 0.950 . S
H693 C704 0.950 . S
H694 C706 0.950 . S
H695 C707 0.950 . S
C696 H688 0.950 . S
C696 C697 1.386 . S
C696 C698 1.391 . S
C697 C696 1.386 . S
C697 C701 1.393 . S
C698 H690 0.950 1_556 S
C698 C696 1.391 . S
C698 C699 1.400 1_556 S
C699 C698 1.400 1_554 S
C699 C700 1.398 1_554 S
C699 C705 1.491 . S
C700 H691 0.950 . S
C700 C699 1.398 1_556 S
C700 C701 1.391 . S
C701 H689 0.950 . S
C701 C697 1.393 . S
C701 C700 1.391 . S
C702 H692 0.950 . S
C702 C703 1.386 . S
C702 C704 1.391 . S
C703 C702 1.386 . S
C703 C707 1.393 . S
C704 H693 0.950 . S
C704 C702 1.391 . S
C704 C705 1.400 . S
C705 C699 1.491 . S
C705 C704 1.400 . S
C705 C706 1.398 . S
C706 H694 0.950 . S
C706 C705 1.398 . S
C706 C707 1.391 . S
C707 H695 0.950 . S
C707 C703 1.393 . S
C707 C706 1.391 . S
H708 C716 0.950 . S
H709 C721 0.950 . S
H710 C718 0.950 . S
H711 C720 0.950 . S
H712 C722 0.950 . S
H713 C724 0.950 . S
H714 C726 0.950 . S
H715 C727 0.950 . S
C716 H708 0.950 . S
C716 C717 1.386 . S
C716 C718 1.391 . S
C717 C716 1.386 . S
C717 C721 1.393 . S
C718 H710 0.950 . S
C718 C716 1.391 . S
C718 C719 1.400 . S
C719 C718 1.400 . S
C719 C720 1.398 . S
C719 C725 1.491 . S
C720 H711 0.950 . S
C720 C719 1.398 . S
C720 C721 1.391 . S
C721 H709 0.950 . S
C721 C717 1.393 . S
C721 C720 1.391 . S
C722 H712 0.950 . S
C722 C723 1.386 . S
C722 C724 1.391 . S
C723 C722 1.386 . S
C723 C727 1.393 . S
C724 H713 0.950 . S
C724 C722 1.391 . S
C724 C725 1.400 . S
C725 C719 1.491 . S
C725 C724 1.400 . S
C725 C726 1.398 . S
C726 H714 0.950 . S
C726 C725 1.398 . S
C726 C727 1.391 . S
C727 H715 0.950 . S
C727 C723 1.393 . S
C727 C726 1.391 . S
H728 C736 0.950 . S
H729 C741 0.950 . S
H730 C738 0.950 . S
H731 C740 0.950 . S
H732 C742 0.950 . S
H733 C744 0.950 . S
H734 C746 0.950 . S
H735 C747 0.950 . S
C736 H728 0.950 . S
C736 C737 1.386 . S
C736 C738 1.391 . S
C737 C736 1.386 . S
C737 C741 1.393 . S
C738 H730 0.950 . S
C738 C736 1.391 . S
C738 C739 1.400 . S
C739 C738 1.400 . S
C739 C740 1.398 . S
C739 C745 1.491 . S
C740 H731 0.950 . S
C740 C739 1.398 . S
C740 C741 1.391 . S
C741 H729 0.950 . S
C741 C737 1.393 . S
C741 C740 1.391 . S
C742 H732 0.950 . S
C742 C743 1.386 . S
C742 C744 1.391 . S
C743 C742 1.386 . S
C743 C747 1.393 . S
C744 H733 0.950 . S
C744 C742 1.391 . S
C744 C745 1.400 . S
C745 C739 1.491 . S
C745 C744 1.400 . S
C745 C746 1.398 . S
C746 H734 0.950 . S
C746 C745 1.398 . S
C746 C747 1.391 . S
C747 H735 0.950 . S
C747 C743 1.393 . S
C747 C746 1.391 . S
H748 C756 0.950 . S
H749 C761 0.950 . S
H750 C758 0.950 . S
H751 C760 0.950 . S
H752 C762 0.950 . S
H753 C764 0.950 . S
H754 C766 0.950 . S
H755 C767 0.950 . S
C756 H748 0.950 . S
C756 C757 1.386 . S
C756 C758 1.391 . S
C757 C756 1.386 . S
C757 C761 1.393 . S
C758 H750 0.950 . S
C758 C756 1.391 . S
C758 C759 1.400 . S
C759 C758 1.400 . S
C759 C760 1.398 . S
C759 C765 1.491 . S
C760 H751 0.950 . S
C760 C759 1.398 . S
C760 C761 1.391 . S
C761 H749 0.950 . S
C761 C757 1.393 . S
C761 C760 1.391 . S
C762 H752 0.950 . S
C762 C763 1.386 . S
C762 C764 1.391 . S
C763 C762 1.386 . S
C763 C767 1.393 . S
C764 H753 0.950 . S
C764 C762 1.391 . S
C764 C765 1.400 . S
C765 C759 1.491 . S
C765 C764 1.400 . S
C765 C766 1.398 . S
C766 H754 0.950 . S
C766 C765 1.398 . S
C766 C767 1.391 . S
C767 H755 0.950 . S
C767 C763 1.393 . S
C767 C766 1.391 . S
H768 C776 0.950 . S
H769 C781 0.950 . S
H770 C778 0.950 . S
H771 C780 0.950 . S
H772 C782 0.950 . S
H773 C784 0.950 . S
H774 C786 0.950 . S
H775 C787 0.950 . S
C776 H768 0.950 . S
C776 C777 1.386 . S
C776 C778 1.391 . S
C777 C776 1.386 . S
C777 C781 1.393 . S
C778 H770 0.950 . S
C778 C776 1.391 . S
C778 C779 1.400 . S
C779 C778 1.400 . S
C779 C780 1.398 . S
C779 C785 1.491 . S
C780 H771 0.950 . S
C780 C779 1.398 . S
C780 C781 1.391 . S
C781 H769 0.950 . S
C781 C777 1.393 . S
C781 C780 1.391 . S
C782 H772 0.950 . S
C782 C783 1.386 . S
C782 C784 1.391 . S
C783 C782 1.386 . S
C783 C787 1.393 . S
C784 H773 0.950 . S
C784 C782 1.391 . S
C784 C785 1.400 . S
C785 C779 1.491 . S
C785 C784 1.400 . S
C785 C786 1.398 . S
C786 H774 0.950 . S
C786 C785 1.398 . S
C786 C787 1.391 . S
C787 H775 0.950 . S
C787 C783 1.393 . S
C787 C786 1.391 . S
H788 C796 0.950 . S
H789 C801 0.950 . S
H790 C798 0.950 . S
H791 C800 0.950 . S
H792 C802 0.950 . S
H793 C804 0.950 . S
H794 C806 0.950 . S
H795 C807 0.950 . S
C796 H788 0.950 . S
C796 C797 1.386 . S
C796 C798 1.391 . S
C797 C796 1.386 . S
C797 C801 1.393 . S
C798 H790 0.950 . S
C798 C796 1.391 . S
C798 C799 1.400 . S
C799 C798 1.400 . S
C799 C800 1.398 . S
C799 C805 1.491 . S
C800 H791 0.950 . S
C800 C799 1.398 . S
C800 C801 1.391 . S
C801 H789 0.950 . S
C801 C797 1.393 . S
C801 C800 1.391 . S
C802 H792 0.950 . S
C802 C803 1.386 . S
C802 C804 1.391 . S
C803 C802 1.386 . S
C803 C807 1.393 . S
C804 H793 0.950 . S
C804 C802 1.391 . S
C804 C805 1.400 . S
C805 C799 1.491 . S
C805 C804 1.400 . S
C805 C806 1.398 . S
C806 H794 0.950 . S
C806 C805 1.398 . S
C806 C807 1.391 . S
C807 H795 0.950 . S
C807 C803 1.393 . S
C807 C806 1.391 . S
H808 C816 0.950 . S
H809 C821 0.950 . S
H810 C818 0.950 . S
H811 C820 0.950 . S
H812 C822 0.950 . S
H813 C824 0.950 . S
H814 C826 0.950 . S
H815 C827 0.950 . S
C816 H808 0.950 . S
C816 C817 1.386 . S
C816 C818 1.391 . S
C817 C816 1.386 . S
C817 C821 1.393 . S
C818 H810 0.950 . S
C818 C816 1.391 . S
C818 C819 1.400 . S
C819 C818 1.400 . S
C819 C820 1.398 . S
C819 C825 1.491 . S
C820 H811 0.950 . S
C820 C819 1.398 . S
C820 C821 1.391 . S
C821 H809 0.950 . S
C821 C817 1.393 . S
C821 C820 1.391 . S
C822 H812 0.950 . S
C822 C823 1.386 . S
C822 C824 1.391 . S
C823 C822 1.386 . S
C823 C827 1.393 . S
C824 H813 0.950 . S
C824 C822 1.391 . S
C824 C825 1.400 . S
C825 C819 1.491 . S
C825 C824 1.400 . S
C825 C826 1.398 . S
C826 H814 0.950 . S
C826 C825 1.398 . S
C826 C827 1.391 . S
C827 H815 0.950 . S
C827 C823 1.393 . S
C827 C826 1.391 . S
H828 C836 0.950 . S
H829 C841 0.950 . S
H830 C838 0.950 . S
H831 C840 0.950 . S
H832 C842 0.950 . S
H833 C844 0.950 . S
H834 C846 0.950 . S
H835 C847 0.950 . S
C836 H828 0.950 . S
C836 C837 1.386 . S
C836 C838 1.391 . S
C837 C836 1.386 . S
C837 C841 1.393 . S
C838 H830 0.950 . S
C838 C836 1.391 . S
C838 C839 1.400 . S
C839 C838 1.400 . S
C839 C840 1.398 . S
C839 C845 1.491 . S
C840 H831 0.950 . S
C840 C839 1.398 . S
C840 C841 1.391 . S
C841 H829 0.950 . S
C841 C837 1.393 . S
C841 C840 1.391 . S
C842 H832 0.950 . S
C842 C843 1.386 . S
C842 C844 1.391 . S
C843 C842 1.386 . S
C843 C847 1.393 . S
C844 H833 0.950 . S
C844 C842 1.391 . S
C844 C845 1.400 . S
C845 C839 1.491 . S
C845 C844 1.400 . S
C845 C846 1.398 . S
C846 H834 0.950 . S
C846 C845 1.398 . S
C846 C847 1.391 . S
C847 H835 0.950 . S
C847 C843 1.393 . S
C847 C846 1.391 . S
H848 C856 0.950 . S
H849 C861 0.950 . S
H850 C858 0.950 . S
H851 C860 0.950 . S
H852 C862 0.950 . S
H853 C864 0.950 . S
H854 C866 0.950 . S
H855 C867 0.950 . S
C856 H848 0.950 . S
C856 C857 1.386 . S
C856 C858 1.391 . S
C857 C856 1.386 . S
C857 C861 1.393 . S
C858 H850 0.950 . S
C858 C856 1.391 . S
C858 C859 1.400 . S
C859 C858 1.400 . S
C859 C860 1.398 . S
C859 C865 1.491 . S
C860 H851 0.950 . S
C860 C859 1.398 . S
C860 C861 1.391 . S
C861 H849 0.950 . S
C861 C857 1.393 . S
C861 C860 1.391 . S
C862 H852 0.950 . S
C862 C863 1.386 . S
C862 C864 1.391 . S
C863 C862 1.386 . S
C863 C867 1.393 . S
C864 H853 0.950 . S
C864 C862 1.391 . S
C864 C865 1.400 . S
C865 C859 1.491 . S
C865 C864 1.400 . S
C865 C866 1.398 . S
C866 H854 0.950 . S
C866 C865 1.398 . S
C866 C867 1.391 . S
C867 H855 0.950 . S
C867 C863 1.393 . S
C867 C866 1.391 . S
H868 C876 0.950 . S
H869 C881 0.950 . S
H870 C878 0.950 . S
H871 C880 0.950 . S
H872 C882 0.950 . S
H873 C884 0.950 . S
H874 C886 0.950 . S
H875 C887 0.950 . S
C876 H868 0.950 . S
C876 C877 1.386 . S
C876 C878 1.391 . S
C877 C876 1.386 . S
C877 C881 1.393 . S
C878 H870 0.950 . S
C878 C876 1.391 . S
C878 C879 1.400 . S
C879 C878 1.400 . S
C879 C880 1.398 . S
C879 C885 1.491 . S
C880 H871 0.950 . S
C880 C879 1.398 . S
C880 C881 1.391 . S
C881 H869 0.950 . S
C881 C877 1.393 . S
C881 C880 1.391 . S
C882 H872 0.950 . S
C882 C883 1.386 . S
C882 C884 1.391 . S
C883 C882 1.386 . S
C883 C887 1.393 . S
C884 H873 0.950 . S
C884 C882 1.391 . S
C884 C885 1.400 . S
C885 C879 1.491 . S
C885 C884 1.400 . S
C885 C886 1.398 . S
C886 H874 0.950 . S
C886 C885 1.398 . S
C886 C887 1.391 . S
C887 H875 0.950 . S
C887 C883 1.393 . S
C887 C886 1.391 . S
C417 C58 1.470 . S
C423 C128 1.452 . S
C443 C212 1.443 . S
C437 C68 1.474 . S
C463 C211 1.457 . S
C457 C40 1.459 . S
C477 C50 1.462 . S
C483 C127 1.462 . S
C503 C308 1.454 . S
C497 C23 1.472 . S
C523 C392 1.458 . S
C517 C32 1.473 . S
C537 C5 1.461 . S
C543 C391 1.459 . S
C557 C14 1.463 . S
C563 C307 1.463 . S
C583 C130 1.332 . S
C577 C13 1.499 . S
C603 C214 1.306 . S
C597 C4 1.496 . S
C623 C226 1.388 . S
C617 C31 1.524 . S
C643 C142 1.392 . S
C637 C22 1.524 . S
C663 C310 1.320 . S
C657 C49 1.499 . S
C677 C41 1.498 . S
C683 C394 1.318 . S
C703 C382 1.381 . S
C697 C67 1.524 . S
C717 C59 1.523 . S
C723 C298 1.388 . S
C743 C139 1.531 . S
C737 C7 1.526 . S
C763 C223 1.534 . S
C757 C16 1.532 . S
C777 C25 1.525 . S
C783 C224 1.512 . S
C803 C140 1.507 . S
C797 C34 1.522 . S
C823 C295 1.533 . S
C817 C43 1.535 . S
C837 C52 1.534 . S
C843 C379 1.536 . S
C857 C61 1.526 . S
C863 C380 1.506 . S
C877 C70 1.522 . S
C883 C296 1.516 . S
