# Generated by pormake.
# Topology nom, (4,4)-cn, num edge types: 1
# Building blocks:
#     Node 0, Type 0, BuildingBlock: NAHDIM_clean_linker_0, # of connection points: 4
#     Node 1, Type 0, BuildingBlock: NAHDIM_clean_linker_0, # of connection points: 4
#     Node 2, Type 0, BuildingBlock: NAHDIM_clean_linker_0, # of connection points: 4
#     Node 3, Type 0, BuildingBlock: NAHDIM_clean_linker_0, # of connection points: 4
#     Node 4, Type 0, BuildingBlock: NAHDIM_clean_linker_0, # of connection points: 4
#     Node 5, Type 0, BuildingBlock: NAHDIM_clean_linker_0, # of connection points: 4
#     Node 6, Type 1, BuildingBlock: QUQFOY_clean_sbu_1, # of connection points: 4
#     Node 7, Type 1, BuildingBlock: QUQFOY_clean_sbu_1, # of connection points: 4
#     Node 8, Type 1, BuildingBlock: QUQFOY_clean_sbu_1, # of connection points: 4
#     Node 9, Type 1, BuildingBlock: QUQFOY_clean_sbu_1, # of connection points: 4
#     Node 10, Type 1, BuildingBlock: QUQFOY_clean_sbu_1, # of connection points: 4
#     Node 11, Type 1, BuildingBlock: QUQFOY_clean_sbu_1, # of connection points: 4
#     Edge 12, Type (0, 1), BuildingBlock: MIFKUJ_clean_linker_0, # of connection points: 2
#     Edge 13, Type (0, 1), BuildingBlock: MIFKUJ_clean_linker_0, # of connection points: 2
#     Edge 14, Type (0, 1), BuildingBlock: MIFKUJ_clean_linker_0, # of connection points: 2
#     Edge 15, Type (0, 1), BuildingBlock: MIFKUJ_clean_linker_0, # of connection points: 2
#     Edge 16, Type (0, 1), BuildingBlock: MIFKUJ_clean_linker_0, # of connection points: 2
#     Edge 17, Type (0, 1), BuildingBlock: MIFKUJ_clean_linker_0, # of connection points: 2
#     Edge 18, Type (0, 1), BuildingBlock: MIFKUJ_clean_linker_0, # of connection points: 2
#     Edge 19, Type (0, 1), BuildingBlock: MIFKUJ_clean_linker_0, # of connection points: 2
#     Edge 20, Type (0, 1), BuildingBlock: MIFKUJ_clean_linker_0, # of connection points: 2
#     Edge 21, Type (0, 1), BuildingBlock: MIFKUJ_clean_linker_0, # of connection points: 2
#     Edge 22, Type (0, 1), BuildingBlock: MIFKUJ_clean_linker_0, # of connection points: 2
#     Edge 23, Type (0, 1), BuildingBlock: MIFKUJ_clean_linker_0, # of connection points: 2
#     Edge 24, Type (0, 1), BuildingBlock: MIFKUJ_clean_linker_0, # of connection points: 2
#     Edge 25, Type (0, 1), BuildingBlock: MIFKUJ_clean_linker_0, # of connection points: 2
#     Edge 26, Type (0, 1), BuildingBlock: MIFKUJ_clean_linker_0, # of connection points: 2
#     Edge 27, Type (0, 1), BuildingBlock: MIFKUJ_clean_linker_0, # of connection points: 2
#     Edge 28, Type (0, 1), BuildingBlock: MIFKUJ_clean_linker_0, # of connection points: 2
#     Edge 29, Type (0, 1), BuildingBlock: MIFKUJ_clean_linker_0, # of connection points: 2
#     Edge 30, Type (0, 1), BuildingBlock: MIFKUJ_clean_linker_0, # of connection points: 2
#     Edge 31, Type (0, 1), BuildingBlock: MIFKUJ_clean_linker_0, # of connection points: 2
#     Edge 32, Type (0, 1), BuildingBlock: MIFKUJ_clean_linker_0, # of connection points: 2
#     Edge 33, Type (0, 1), BuildingBlock: MIFKUJ_clean_linker_0, # of connection points: 2
#     Edge 34, Type (0, 1), BuildingBlock: MIFKUJ_clean_linker_0, # of connection points: 2
#     Edge 35, Type (0, 1), BuildingBlock: MIFKUJ_clean_linker_0, # of connection points: 2
# Relax obj value: 0.084
# Max RMSD: 0.156
# Mean RMSD: 0.147
data_MOF--net-nom--node1-QUQFOY_clean_sbu_1--node2-NAHDIM_clean_linker_0--edge1-MIFKUJ_clean_linker_0
_symmetry_space_group_name_H-M    P1
_symmetry_Int_Tables_number       1
_symmetry_cell_setting            triclinic
loop_
_symmetry_equiv_pos_as_xyz
'x, y, z'
_cell_length_a     72.386322
_cell_length_b     72.557774
_cell_length_c     81.646974
_cell_angle_alpha  90.107922
_cell_angle_beta   90.143587
_cell_angle_gamma 120.00069
loop_
_atom_site_label
_atom_site_type_symbol
_atom_site_fract_x
_atom_site_fract_y
_atom_site_fract_z
_atom_type_partial_charge
C0 C 0.14196 0.53873 0.26601 0.0
C1 C 0.14586 0.55359 0.28062 0.0
C2 C 0.10906 0.54518 0.28667 0.0
C3 C 0.10203 0.52492 0.29343 0.0
C4 C 0.08051 0.51162 0.29756 0.0
C5 C 0.06576 0.51874 0.29498 0.0
C6 C 0.07287 0.53929 0.28858 0.0
C7 C 0.09447 0.55226 0.28457 0.0
C8 C 0.07344 0.48982 0.30448 0.0
C9 C 0.05758 0.54741 0.28578 0.0
C10 C 0.98131 0.41917 0.20613 0.0
C11 C 0.97418 0.43211 0.21643 0.0
C12 C 0.97827 0.43691 0.24606 0.0
C13 C 0.98058 0.45729 0.24698 0.0
C14 C 0.98955 0.47008 0.26093 0.0
C15 C 0.99644 0.46236 0.27414 0.0
C16 C 0.9934 0.44152 0.27344 0.0
C17 C 0.98398 0.42893 0.25948 0.0
C18 C 0.99213 0.49203 0.26141 0.0
C19 C 0.00077 0.43281 0.28718 0.0
C20 C 0.90545 0.4259 0.35882 0.0
C21 C 0.91115 0.44545 0.35141 0.0
C22 C 0.9327 0.46074 0.349 0.0
C23 C 0.94878 0.45614 0.35381 0.0
C24 C 0.94301 0.43662 0.36167 0.0
C25 C 0.92138 0.42191 0.36432 0.0
C26 C 0.93826 0.48172 0.3412 0.0
C27 C 0.95964 0.43113 0.36705 0.0
C28 C 0.09815 0.57505 0.39782 0.0
C29 C 0.08754 0.55397 0.40714 0.0
C30 C 0.05037 0.5344 0.39913 0.0
C31 C 0.03697 0.54118 0.39252 0.0
C32 C 0.02182 0.52907 0.38046 0.0
C33 C 0.01984 0.50955 0.37526 0.0
C34 C 0.03231 0.5019 0.38286 0.0
C35 C 0.04755 0.51451 0.39467 0.0
C36 C 0.00861 0.53755 0.37275 0.0
C37 C 0.0301 0.48079 0.37806 0.0
C38 C 0.04276 0.50434 0.29836 0.0
C39 C 0.03007 0.49102 0.28571 0.0
C40 C 0.00838 0.47664 0.28803 0.0
C41 C 0.99891 0.47555 0.3034 0.0
C42 C 0.97712 0.46141 0.30614 0.0
C43 C 0.96812 0.46002 0.32146 0.0
C44 C 0.98051 0.47292 0.3346 0.0
C45 C 0.97159 0.47145 0.3503 0.0
C46 C 0.98462 0.48398 0.3632 0.0
C47 C 0.00638 0.49809 0.36085 0.0
C48 C 0.01539 0.50028 0.34513 0.0
C49 C 0.0371 0.51481 0.34225 0.0
C50 C 0.04605 0.51633 0.32691 0.0
C51 C 0.03367 0.50334 0.31386 0.0
C52 C 0.01166 0.48886 0.31639 0.0
C53 C 0.00248 0.48745 0.33202 0.0
C54 C 0.85934 0.38121 0.34552 0.0
C55 C 0.86849 0.40476 0.34967 0.0
O56 O 0.12955 0.5583 0.28184 0.0
O57 O 0.06616 0.54743 0.40956 0.0
O58 O 0.88478 0.41072 0.36105 0.0
O59 O 0.97085 0.42466 0.23238 0.0
H60 H 0.14679 0.54585 0.2921 0.0
H61 H 0.12702 0.52332 0.26765 0.0
H62 H 0.14063 0.54608 0.25446 0.0
H63 H 0.1553 0.53538 0.26485 0.0
H64 H 0.11312 0.51925 0.29539 0.0
H65 H 0.10003 0.56794 0.27946 0.0
H66 H 0.06144 0.47746 0.29618 0.0
H67 H 0.08693 0.48678 0.30609 0.0
H68 H 0.06566 0.48813 0.31652 0.0
H69 H 0.06574 0.56404 0.28121 0.0
H70 H 0.04523 0.53705 0.27673 0.0
H71 H 0.04927 0.54668 0.29738 0.0
H72 H 0.98744 0.44894 0.21596 0.0
H73 H 0.98422 0.42492 0.19327 0.0
H74 H 0.99639 0.42097 0.21119 0.0
H75 H 0.96901 0.402 0.20621 0.0
H76 H 0.97549 0.46324 0.2368 0.0
H77 H 0.98186 0.41307 0.25869 0.0
H78 H 0.00931 0.50413 0.2605 0.0
H79 H 0.98346 0.4946 0.25123 0.0
H80 H 0.98622 0.49463 0.27325 0.0
H81 H 0.99842 0.41681 0.28428 0.0
H82 H 0.01795 0.4438 0.28978 0.0
H83 H 0.9918 0.43163 0.2985 0.0
H84 H 0.87476 0.41379 0.33805 0.0
H85 H 0.89877 0.44883 0.34768 0.0
H86 H 0.91676 0.40688 0.37027 0.0
H87 H 0.94448 0.48238 0.32868 0.0
H88 H 0.92423 0.48402 0.34029 0.0
H89 H 0.95099 0.4951 0.34836 0.0
H90 H 0.95243 0.41447 0.37144 0.0
H91 H 0.9706 0.43343 0.35676 0.0
H92 H 0.96934 0.44197 0.37714 0.0
H93 H 0.08924 0.54212 0.39957 0.0
H94 H 0.11531 0.58055 0.39578 0.0
H95 H 0.09032 0.57289 0.38569 0.0
H96 H 0.09673 0.58749 0.40475 0.0
H97 H 0.03909 0.55645 0.3963 0.0
H98 H 0.05748 0.50898 0.4003 0.0
H99 H 0.01205 0.53997 0.35943 0.0
H100 H 0.9914 0.52574 0.3741 0.0
H101 H 0.01183 0.55286 0.37832 0.0
H102 H 0.03855 0.47572 0.38672 0.0
H103 H 0.01301 0.46828 0.37754 0.0
H104 H 0.03689 0.48209 0.36565 0.0
H105 H 0.03725 0.49166 0.27392 0.0
H106 H 0.96681 0.45112 0.29649 0.0
H107 H 0.95132 0.44863 0.32289 0.0
H108 H 0.97784 0.48241 0.37531 0.0
H109 H 0.04748 0.52517 0.35183 0.0
H110 H 0.06286 0.5277 0.32545 0.0
H111 H 0.85268 0.37126 0.35664 0.0
H112 H 0.84653 0.37604 0.33613 0.0
H113 H 0.87212 0.37861 0.34052 0.0
C114 C 0.36246 0.89723 0.58083 0.0
C115 C 0.36474 0.88768 0.56472 0.0
C116 C 0.36887 0.91536 0.54568 0.0
C117 C 0.39112 0.92629 0.54372 0.0
C118 C 0.40203 0.94754 0.53852 0.0
C119 C 0.39048 0.95813 0.53528 0.0
C120 C 0.36796 0.94687 0.53651 0.0
C121 C 0.35742 0.9255 0.54151 0.0
C122 C 0.42597 0.95883 0.53677 0.0
C123 C 0.35514 0.95761 0.53296 0.0
C124 C 0.47195 0.10728 0.61045 0.0
C125 C 0.45433 0.09112 0.60007 0.0
C126 C 0.44675 0.0593 0.58447 0.0
C127 C 0.42864 0.05699 0.57623 0.0
C128 C 0.41971 0.04276 0.56303 0.0
C129 C 0.4295 0.03112 0.55765 0.0
C130 C 0.44751 0.03317 0.56615 0.0
C131 C 0.45567 0.04701 0.57962 0.0
C132 C 0.39998 0.04038 0.55471 0.0
C133 C 0.45832 0.02092 0.56094 0.0
C134 C 0.4731 0.11794 0.46812 0.0
C135 C 0.45135 0.10743 0.47234 0.0
C136 C 0.44027 0.08552 0.47569 0.0
C137 C 0.4512 0.07392 0.47511 0.0
C138 C 0.4731 0.08446 0.471 0.0
C139 C 0.4837 0.1063 0.46745 0.0
C140 C 0.41683 0.07474 0.47977 0.0
C141 C 0.48532 0.07266 0.47031 0.0
C142 C 0.38866 0.97707 0.38804 0.0
C143 C 0.38754 0.95887 0.39833 0.0
C144 C 0.40751 0.97727 0.42339 0.0
C145 C 0.39239 0.9821 0.4298 0.0
C146 C 0.39663 0.99404 0.4443 0.0
C147 C 0.4162 0.00103 0.45261 0.0
C148 C 0.43118 0.99573 0.4464 0.0
C149 C 0.42662 0.98395 0.43185 0.0
C150 C 0.38034 0.99943 0.45066 0.0
C151 C 0.45215 0.00279 0.45502 0.0
C152 C 0.40212 0.98132 0.53174 0.0
C153 C 0.4093 0.9953 0.5451 0.0
C154 C 0.42137 0.01731 0.54287 0.0
C155 C 0.4262 0.02577 0.52685 0.0
C156 C 0.43856 0.04782 0.52414 0.0
C157 C 0.44293 0.05602 0.50835 0.0
C158 C 0.43538 0.04249 0.49462 0.0
C159 C 0.43961 0.05069 0.47851 0.0
C160 C 0.43271 0.03673 0.46516 0.0
C161 C 0.42154 0.01469 0.4674 0.0
C162 C 0.4165 0.00617 0.48339 0.0
C163 C 0.40487 0.98408 0.48607 0.0
C164 C 0.40004 0.97588 0.50189 0.0
C165 C 0.40679 0.98946 0.51561 0.0
C166 C 0.41872 0.01179 0.51318 0.0
C167 C 0.42347 0.02016 0.49705 0.0
C168 C 0.47809 0.16036 0.48375 0.0
C169 C 0.47779 0.15393 0.46581 0.0
O170 O 0.35805 0.89521 0.55169 0.0
O171 O 0.40466 0.96653 0.40909 0.0
O172 O 0.4845 0.13911 0.46463 0.0
O173 O 0.45623 0.07333 0.59697 0.0
H174 H 0.38177 0.89235 0.56323 0.0
H175 H 0.37282 0.91481 0.58068 0.0
H176 H 0.34567 0.89333 0.58263 0.0
H177 H 0.36742 0.89097 0.59135 0.0
H178 H 0.40008 0.91832 0.54615 0.0
H179 H 0.34022 0.91684 0.5428 0.0
H180 H 0.43342 0.97151 0.54621 0.0
H181 H 0.4324 0.94785 0.5382 0.0
H182 H 0.43072 0.96658 0.5246 0.0
H183 H 0.33771 0.94655 0.53414 0.0
H184 H 0.35995 0.97116 0.54154 0.0
H185 H 0.35854 0.96418 0.52035 0.0
H186 H 0.43795 0.0871 0.60383 0.0
H187 H 0.46395 0.10807 0.62203 0.0
H188 H 0.4799 0.09902 0.61641 0.0
H189 H 0.48821 0.13346 0.59478 0.0
H190 H 0.42138 0.06619 0.58011 0.0
H191 H 0.46953 0.04879 0.58615 0.0
H192 H 0.40434 0.04828 0.54258 0.0
H193 H 0.3882 0.0233 0.55261 0.0
H194 H 0.3923 0.04765 0.56199 0.0
H195 H 0.47383 0.02657 0.56731 0.0
H196 H 0.44778 0.00384 0.56384 0.0
H197 H 0.4611 0.02227 0.54751 0.0
H198 H 0.46134 0.14705 0.4608 0.0
H199 H 0.4428 0.11607 0.47302 0.0
H200 H 0.50044 0.11448 0.46419 0.0
H201 H 0.41441 0.06921 0.49267 0.0
H202 H 0.41018 0.0855 0.47822 0.0
H203 H 0.4077 0.06052 0.47185 0.0
H204 H 0.50273 0.08357 0.46881 0.0
H205 H 0.4826 0.06321 0.48165 0.0
H206 H 0.47944 0.06138 0.45982 0.0
H207 H 0.37233 0.95106 0.40531 0.0
H208 H 0.40391 0.98532 0.38117 0.0
H209 H 0.37516 0.97077 0.37918 0.0
H210 H 0.38759 0.98894 0.39596 0.0
H211 H 0.37741 0.97688 0.42352 0.0
H212 H 0.43812 0.98006 0.42686 0.0
H213 H 0.37575 0.99336 0.46334 0.0
H214 H 0.38743 0.01698 0.45114 0.0
H215 H 0.36574 0.99259 0.44291 0.0
H216 H 0.46164 0.9965 0.44903 0.0
H217 H 0.46171 0.02044 0.45514 0.0
H218 H 0.44925 0.9974 0.46796 0.0
H219 H 0.40579 0.98894 0.55743 0.0
H220 H 0.44493 0.05905 0.53421 0.0
H221 H 0.4524 0.07313 0.50703 0.0
H222 H 0.43629 0.04311 0.45283 0.0
H223 H 0.39929 0.97289 0.47596 0.0
H224 H 0.39098 0.95875 0.50323 0.0
H225 H 0.47279 0.17229 0.48472 0.0
H226 H 0.46712 0.14631 0.49116 0.0
H227 H 0.49442 0.16727 0.48897 0.0
C228 C 0.57069 0.46437 0.73982 0.0
C229 C 0.58372 0.46607 0.72448 0.0
C230 C 0.56699 0.47976 0.7058 0.0
C231 C 0.58203 0.50158 0.70592 0.0
C232 C 0.57631 0.51659 0.70096 0.0
C233 C 0.55498 0.50965 0.69617 0.0
C234 C 0.53981 0.48759 0.69609 0.0
C235 C 0.5462 0.47293 0.70053 0.0
C236 C 0.59311 0.53987 0.70095 0.0
C237 C 0.51675 0.47943 0.69155 0.0
C238 C 0.53429 0.64147 0.73699 0.0
C239 C 0.52341 0.61813 0.74219 0.0
C240 C 0.53885 0.59626 0.7349 0.0
C241 C 0.52019 0.57674 0.73209 0.0
C242 C 0.52041 0.56141 0.72172 0.0
C243 C 0.53963 0.56596 0.71384 0.0
C244 C 0.55871 0.58512 0.71749 0.0
C245 C 0.5581 0.59991 0.72821 0.0
C246 C 0.49997 0.5408 0.71858 0.0
C247 C 0.57955 0.5904 0.70949 0.0
C248 C 0.48758 0.59747 0.62517 0.0
C249 C 0.47567 0.57722 0.6321 0.0
C250 C 0.48495 0.56453 0.63496 0.0
C251 C 0.50676 0.57255 0.63116 0.0
C252 C 0.51864 0.59286 0.62384 0.0
C253 C 0.50873 0.6049 0.62066 0.0
C254 C 0.47145 0.54263 0.64216 0.0
C255 C 0.54191 0.60206 0.61967 0.0
C256 C 0.59413 0.50636 0.58811 0.0
C257 C 0.58543 0.51338 0.57374 0.0
C258 C 0.55657 0.51585 0.58753 0.0
C259 C 0.53485 0.50441 0.59131 0.0
C260 C 0.52619 0.51156 0.60348 0.0
C261 C 0.53963 0.5308 0.61185 0.0
C262 C 0.56141 0.543 0.60753 0.0
C263 C 0.56969 0.53534 0.59553 0.0
C264 C 0.5029 0.49826 0.60777 0.0
C265 C 0.57611 0.56393 0.6159 0.0
C266 C 0.54841 0.52537 0.69151 0.0
C267 C 0.54615 0.53736 0.70397 0.0
C268 C 0.53946 0.55198 0.70048 0.0
C269 C 0.53389 0.5541 0.68426 0.0
C270 C 0.52622 0.56799 0.68043 0.0
C271 C 0.52056 0.56978 0.66447 0.0
C272 C 0.52288 0.5582 0.65162 0.0
C273 C 0.51723 0.55996 0.63531 0.0
C274 C 0.52185 0.54992 0.62262 0.0
C275 C 0.53153 0.53776 0.62584 0.0
C276 C 0.53547 0.53428 0.6422 0.0
C277 C 0.54379 0.52092 0.64591 0.0
C278 C 0.54796 0.51788 0.66204 0.0
C279 C 0.54425 0.52833 0.67505 0.0
C280 C 0.5364 0.54231 0.6715 0.0
C281 C 0.53143 0.5448 0.65511 0.0
C282 C 0.48402 0.6387 0.63962 0.0
C283 C 0.46901 0.6156 0.6345 0.0
O284 O 0.572 0.46488 0.71063 0.0
O285 O 0.56421 0.50736 0.57638 0.0
O286 O 0.47888 0.60998 0.62253 0.0
O287 O 0.53869 0.61204 0.74369 0.0
H288 H 0.59897 0.48148 0.72479 0.0
H289 H 0.56674 0.47732 0.73993 0.0
H290 H 0.55557 0.44883 0.73997 0.0
H291 H 0.57985 0.46597 0.75117 0.0
H292 H 0.59832 0.50693 0.70958 0.0
H293 H 0.53476 0.45602 0.70041 0.0
H294 H 0.59079 0.54768 0.71182 0.0
H295 H 0.6095 0.54224 0.70154 0.0
H296 H 0.5917 0.54789 0.68984 0.0
H297 H 0.50637 0.46249 0.69504 0.0
H298 H 0.5107 0.48909 0.69759 0.0
H299 H 0.51541 0.48073 0.67812 0.0
H300 H 0.51169 0.60882 0.73235 0.0
H301 H 0.52234 0.64673 0.73574 0.0
H302 H 0.54659 0.65182 0.7461 0.0
H303 H 0.54218 0.64341 0.72496 0.0
H304 H 0.50542 0.57364 0.73782 0.0
H305 H 0.57246 0.61491 0.73075 0.0
H306 H 0.50285 0.52716 0.71928 0.0
H307 H 0.48731 0.53828 0.72746 0.0
H308 H 0.49412 0.541 0.70604 0.0
H309 H 0.5929 0.60611 0.71348 0.0
H310 H 0.58366 0.57798 0.71255 0.0
H311 H 0.57793 0.59049 0.69597 0.0
H312 H 0.46577 0.60553 0.6456 0.0
H313 H 0.45908 0.57131 0.63513 0.0
H314 H 0.51765 0.62049 0.61511 0.0
H315 H 0.47592 0.54284 0.6552 0.0
H316 H 0.45416 0.5373 0.64157 0.0
H317 H 0.47428 0.53083 0.63563 0.0
H318 H 0.54953 0.61906 0.61603 0.0
H319 H 0.55075 0.60069 0.63029 0.0
H320 H 0.54344 0.59293 0.60935 0.0
H321 H 0.59505 0.53095 0.57239 0.0
H322 H 0.61102 0.51088 0.58587 0.0
H323 H 0.59358 0.5142 0.59963 0.0
H324 H 0.58452 0.48884 0.58978 0.0
H325 H 0.52478 0.4895 0.58501 0.0
H326 H 0.58646 0.54466 0.59267 0.0
H327 H 0.5013 0.49356 0.62086 0.0
H328 H 0.49492 0.50782 0.60615 0.0
H329 H 0.49454 0.48367 0.60011 0.0
H330 H 0.59187 0.57273 0.60978 0.0
H331 H 0.56875 0.57417 0.61611 0.0
H332 H 0.57874 0.56094 0.62879 0.0
H333 H 0.54988 0.53549 0.71652 0.0
H334 H 0.52429 0.57753 0.68974 0.0
H335 H 0.51461 0.58061 0.66232 0.0
H336 H 0.51844 0.55209 0.61005 0.0
H337 H 0.54701 0.51249 0.6364 0.0
H338 H 0.55433 0.5074 0.66415 0.0
H339 H 0.48769 0.64953 0.62899 0.0
H340 H 0.47669 0.64352 0.64945 0.0
H341 H 0.4992 0.64043 0.64439 0.0
C342 C 0.12369 0.46292 0.91779 0.0
C343 C 0.13221 0.47658 0.90238 0.0
C344 C 0.1065 0.45667 0.88089 0.0
C345 C 0.0992 0.47067 0.87667 0.0
C346 C 0.07908 0.46306 0.86941 0.0
C347 C 0.06605 0.44101 0.86628 0.0
C348 C 0.07376 0.42699 0.86989 0.0
C349 C 0.09407 0.43508 0.87699 0.0
C350 C 0.07158 0.47853 0.86529 0.0
C351 C 0.06036 0.40343 0.86657 0.0
C352 C 0.91947 0.38551 0.93715 0.0
C353 C 0.9332 0.38394 0.92436 0.0
C354 C 0.96152 0.40693 0.90534 0.0
C355 C 0.96297 0.39037 0.8976 0.0
C356 C 0.97767 0.39472 0.88494 0.0
C357 C 0.99087 0.41597 0.87972 0.0
C358 C 0.98916 0.4326 0.8873 0.0
C359 C 0.97457 0.42783 0.90009 0.0
C360 C 0.97927 0.37663 0.87725 0.0
C361 C 0.00289 0.45542 0.882 0.0
C362 C 0.92214 0.39161 0.78355 0.0
C363 C 0.92686 0.37645 0.7897 0.0
C364 C 0.94781 0.38226 0.79425 0.0
C365 C 0.96417 0.40384 0.79302 0.0
C366 C 0.9594 0.41906 0.78646 0.0
C367 C 0.93843 0.41263 0.78155 0.0
C368 C 0.95238 0.3654 0.80055 0.0
C369 C 0.97634 0.44217 0.78492 0.0
C370 C 0.12712 0.44875 0.75868 0.0
C371 C 0.11206 0.45676 0.75342 0.0
C372 C 0.07415 0.43529 0.75942 0.0
C373 C 0.05986 0.41425 0.76376 0.0
C374 C 0.04247 0.40933 0.77403 0.0
C375 C 0.03918 0.42588 0.77976 0.0
C376 C 0.05269 0.44699 0.77437 0.0
C377 C 0.07009 0.45149 0.76425 0.0
C378 C 0.02816 0.3866 0.77932 0.0
C379 C 0.04918 0.4649 0.77979 0.0
C380 C 0.04396 0.43258 0.86007 0.0
C381 C 0.02795 0.42785 0.87157 0.0
C382 C 0.00695 0.42087 0.86671 0.0
C383 C 0.00166 0.41863 0.84986 0.0
C384 C 0.98088 0.41246 0.84451 0.0
C385 C 0.97578 0.41008 0.82791 0.0
C386 C 0.9912 0.41351 0.816 0.0
C387 C 0.98606 0.41065 0.79909 0.0
C388 C 0.00192 0.4146 0.7876 0.0
C389 C 0.0229 0.42146 0.79251 0.0
C390 C 0.02829 0.42424 0.80936 0.0
C391 C 0.04925 0.43106 0.81473 0.0
C392 C 0.05445 0.43392 0.8313 0.0
C393 C 0.03886 0.42981 0.84318 0.0
C394 C 0.01762 0.42283 0.83807 0.0
C395 C 0.01235 0.42015 0.82113 0.0
C396 C 0.88668 0.39999 0.79828 0.0
C397 C 0.88572 0.38011 0.79088 0.0
O398 O 0.12548 0.46355 0.88862 0.0
O399 O 0.09183 0.43947 0.7508 0.0
O400 O 0.90189 0.38616 0.77948 0.0
O401 O 0.94795 0.40351 0.91794 0.0
H402 H 0.12585 0.48771 0.90223 0.0
H403 H 0.10597 0.45415 0.91761 0.0
H404 H 0.12924 0.45116 0.91845 0.0
H405 H 0.12915 0.47313 0.92893 0.0
H406 H 0.10923 0.48755 0.87896 0.0
H407 H 0.10004 0.42447 0.88005 0.0
H408 H 0.05756 0.47506 0.87295 0.0
H409 H 0.08417 0.49533 0.8674 0.0
H410 H 0.06643 0.47658 0.85228 0.0
H411 H 0.06875 0.39466 0.86993 0.0
H412 H 0.04529 0.39678 0.87364 0.0
H413 H 0.05602 0.40067 0.85339 0.0
H414 H 0.94023 0.37385 0.92775 0.0
H415 H 0.92348 0.37987 0.94875 0.0
H416 H 0.92763 0.40272 0.94099 0.0
H417 H 0.88895 0.36989 0.92662 0.0
H418 H 0.95287 0.37407 0.90146 0.0
H419 H 0.97329 0.44048 0.9061 0.0
H420 H 0.97457 0.37506 0.86415 0.0
H421 H 0.99602 0.38005 0.87777 0.0
H422 H 0.96889 0.36119 0.88342 0.0
H423 H 0.99797 0.46614 0.88783 0.0
H424 H 0.01974 0.46101 0.88536 0.0
H425 H 0.00212 0.45665 0.86848 0.0
H426 H 0.88785 0.37098 0.80095 0.0
H427 H 0.91413 0.36009 0.79088 0.0
H428 H 0.93452 0.42412 0.77661 0.0
H429 H 0.95511 0.36733 0.81398 0.0
H430 H 0.93894 0.34908 0.79811 0.0
H431 H 0.96705 0.36711 0.79483 0.0
H432 H 0.96962 0.4523 0.78106 0.0
H433 H 0.98479 0.44823 0.7968 0.0
H434 H 0.98832 0.44375 0.77574 0.0
H435 H 0.11203 0.46678 0.76377 0.0
H436 H 0.14355 0.46236 0.76048 0.0
H437 H 0.1216 0.44005 0.77045 0.0
H438 H 0.12748 0.43773 0.74939 0.0
H439 H 0.06292 0.40181 0.75967 0.0
H440 H 0.08063 0.46768 0.76027 0.0
H441 H 0.02921 0.38545 0.79282 0.0
H442 H 0.01132 0.38151 0.77625 0.0
H443 H 0.03248 0.37547 0.77341 0.0
H444 H 0.05958 0.47992 0.77312 0.0
H445 H 0.03226 0.46043 0.77782 0.0
H446 H 0.0526 0.46781 0.7931 0.0
H447 H 0.03194 0.42979 0.88452 0.0
H448 H 0.96832 0.40944 0.85311 0.0
H449 H 0.95954 0.4054 0.82455 0.0
H450 H 0.99793 0.41246 0.77465 0.0
H451 H 0.06192 0.43432 0.80617 0.0
H452 H 0.07084 0.43927 0.8347 0.0
H453 H 0.88474 0.40961 0.78856 0.0
H454 H 0.87393 0.39547 0.80755 0.0
H455 H 0.9023 0.40995 0.80445 0.0
C456 C 0.41502 0.89041 0.92182 0.0
C457 C 0.41908 0.8839 0.93874 0.0
C458 C 0.44606 0.91903 0.94958 0.0
C459 C 0.43222 0.92703 0.95245 0.0
C460 C 0.44026 0.94836 0.9571 0.0
C461 C 0.46254 0.96192 0.95893 0.0
C462 C 0.47644 0.95378 0.95639 0.0
C463 C 0.46797 0.93239 0.95185 0.0
C464 C 0.425 0.95651 0.95994 0.0
C465 C 0.50028 0.96779 0.95821 0.0
C466 C 0.45719 0.04786 0.87138 0.0
C467 C 0.47824 0.05643 0.88076 0.0
C468 C 0.47898 0.05315 0.91048 0.0
C469 C 0.49575 0.04876 0.91175 0.0
C470 C 0.49814 0.03908 0.92585 0.0
C471 C 0.48343 0.03366 0.93885 0.0
C472 C 0.4671 0.03898 0.93783 0.0
C473 C 0.46536 0.04902 0.92374 0.0
C474 C 0.51607 0.03419 0.9267 0.0
C475 C 0.4509 0.03327 0.95132 0.0
C476 C 0.54405 0.11939 0.031 0.0
C477 C 0.55381 0.10706 0.0294 0.0
C478 C 0.54222 0.08575 0.02431 0.0
C479 C 0.52015 0.07643 0.02095 0.0
C480 C 0.51019 0.08892 0.02218 0.0
C481 C 0.52233 0.11041 0.0269 0.0
C482 C 0.5535 0.07307 0.02288 0.0
C483 C 0.48664 0.07945 0.01883 0.0
C484 C 0.42835 0.92476 0.06572 0.0
C485 C 0.43518 0.94031 0.08024 0.0
C486 C 0.4641 0.97202 0.06702 0.0
C487 C 0.48594 0.98232 0.06368 0.0
C488 C 0.49482 0.99751 0.05115 0.0
C489 C 0.48151 0.00281 0.04202 0.0
C490 C 0.45961 0.99336 0.04598 0.0
C491 C 0.45109 0.97794 0.05832 0.0
C492 C 0.51826 0.00743 0.04736 0.0
C493 C 0.44504 0.99915 0.03688 0.0
C494 C 0.47143 0.98481 0.9629 0.0
C495 C 0.47463 0.99871 0.95002 0.0
C496 C 0.48362 0.02058 0.95272 0.0
C497 C 0.49057 0.02903 0.96861 0.0
C498 C 0.50137 0.05109 0.97157 0.0
C499 C 0.50749 0.05916 0.9874 0.0
C500 C 0.50232 0.04544 0.00089 0.0
C501 C 0.50743 0.05333 0.01712 0.0
C502 C 0.50081 0.0391 0.03027 0.0
C503 C 0.48996 0.01712 0.02764 0.0
C504 C 0.48606 0.00898 0.01149 0.0
C505 C 0.47645 0.98699 0.0084 0.0
C506 C 0.47201 0.97905 0.99249 0.0
C507 C 0.47659 0.99276 0.97908 0.0
C508 C 0.48641 0.01499 0.98191 0.0
C509 C 0.49168 0.02315 0.9981 0.0
C510 C 0.53627 0.14779 0.0562 0.0
C511 C 0.54994 0.15431 0.04062 0.0
O512 O 0.43918 0.89874 0.94448 0.0
O513 O 0.45625 0.95633 0.07847 0.0
O514 O 0.55618 0.13958 0.03681 0.0
O515 O 0.47535 0.06122 0.89666 0.0
H516 H 0.40675 0.88261 0.9475 0.0
H517 H 0.41528 0.90581 0.92254 0.0
H518 H 0.42743 0.8921 0.913 0.0
H519 H 0.3991 0.87825 0.9171 0.0
H520 H 0.41518 0.91684 0.95101 0.0
H521 H 0.47851 0.92605 0.94973 0.0
H522 H 0.42777 0.96877 0.95064 0.0
H523 H 0.40805 0.94364 0.95918 0.0
H524 H 0.42795 0.96421 0.97218 0.0
H525 H 0.50897 0.95914 0.95544 0.0
H526 H 0.50607 0.98165 0.94988 0.0
H527 H 0.50421 0.97405 0.97093 0.0
H528 H 0.48235 0.04355 0.8806 0.0
H529 H 0.45905 0.04382 0.85858 0.0
H530 H 0.44468 0.03319 0.87739 0.0
H531 H 0.45183 0.05978 0.87118 0.0
H532 H 0.50689 0.05279 0.90174 0.0
H533 H 0.45271 0.05283 0.92269 0.0
H534 H 0.50943 0.01677 0.92535 0.0
H535 H 0.52805 0.04237 0.91691 0.0
H536 H 0.52417 0.039 0.93881 0.0
H537 H 0.43812 0.03682 0.94797 0.0
H538 H 0.44343 0.01609 0.95429 0.0
H539 H 0.45897 0.0424 0.96257 0.0
H540 H 0.54064 0.15552 0.03022 0.0
H541 H 0.5706 0.11417 0.0324 0.0
H542 H 0.51465 0.1199 0.0276 0.0
H543 H 0.54971 0.06463 0.01091 0.0
H544 H 0.57109 0.08324 0.02405 0.0
H545 H 0.54778 0.06085 0.03266 0.0
H546 H 0.48102 0.09088 0.02135 0.0
H547 H 0.48319 0.07437 0.00583 0.0
H548 H 0.47739 0.06508 0.0265 0.0
H549 H 0.42468 0.94739 0.08091 0.0
H550 H 0.4116 0.91172 0.06726 0.0
H551 H 0.42926 0.93305 0.05409 0.0
H552 H 0.43889 0.91774 0.06475 0.0
H553 H 0.49591 0.97786 0.07057 0.0
H554 H 0.43425 0.97053 0.06093 0.0
H555 H 0.5204 0.00473 0.03428 0.0
H556 H 0.52624 0.02489 0.04937 0.0
H557 H 0.52626 0.00089 0.0551 0.0
H558 H 0.42942 0.99305 0.04308 0.0
H559 H 0.45265 0.0167 0.03566 0.0
H560 H 0.44208 0.99227 0.02435 0.0
H561 H 0.46966 0.99235 0.93773 0.0
H562 H 0.5053 0.06232 0.96165 0.0
H563 H 0.51586 0.07628 0.98897 0.0
H564 H 0.50407 0.04522 0.04271 0.0
H565 H 0.47231 0.97565 0.01827 0.0
H566 H 0.46456 0.96199 0.99084 0.0
H567 H 0.54492 0.14558 0.06659 0.0
H568 H 0.53227 0.16023 0.05957 0.0
H569 H 0.52108 0.13268 0.05434 0.0
C570 C 0.65882 0.54831 0.07815 0.0
C571 C 0.65835 0.53791 0.09457 0.0
C572 C 0.65554 0.56193 0.11405 0.0
C573 C 0.63398 0.54965 0.11847 0.0
C574 C 0.62298 0.55925 0.12509 0.0
C575 C 0.63376 0.58157 0.12736 0.0
C576 C 0.6557 0.59388 0.12358 0.0
C577 C 0.66638 0.58382 0.11713 0.0
C578 C 0.59973 0.54558 0.12945 0.0
C579 C 0.6677 0.61769 0.12601 0.0
C580 C 0.54704 0.64316 0.05549 0.0
C581 C 0.56364 0.64398 0.06671 0.0
C582 C 0.56861 0.62064 0.08556 0.0
C583 C 0.58779 0.63676 0.09241 0.0
C584 C 0.59783 0.63227 0.10526 0.0
C585 C 0.58832 0.61135 0.11155 0.0
C586 C 0.56896 0.59514 0.10475 0.0
C587 C 0.55945 0.6 0.09174 0.0
C588 C 0.61865 0.64985 0.11207 0.0
C589 C 0.55836 0.57267 0.11117 0.0
C590 C 0.55303 0.65141 0.20407 0.0
C591 C 0.57431 0.66389 0.19895 0.0
C592 C 0.58682 0.65457 0.19551 0.0
C593 C 0.5778 0.63228 0.19698 0.0
C594 C 0.55665 0.61977 0.20269 0.0
C595 C 0.54463 0.62958 0.20637 0.0
C596 C 0.6096 0.66853 0.19005 0.0
C597 C 0.54657 0.59598 0.20451 0.0
C598 C 0.6844 0.57494 0.23115 0.0
C599 C 0.66202 0.56741 0.23787 0.0
C600 C 0.64742 0.59066 0.23325 0.0
C601 C 0.65583 0.61191 0.22872 0.0
C602 C 0.64435 0.61806 0.21839 0.0
C603 C 0.62382 0.60256 0.21282 0.0
C604 C 0.61454 0.58138 0.21855 0.0
C605 C 0.62648 0.57563 0.2287 0.0
C606 C 0.65456 0.64085 0.21274 0.0
C607 C 0.59238 0.56463 0.21332 0.0
C608 C 0.6217 0.59206 0.13283 0.0
C609 C 0.61142 0.5974 0.12084 0.0
C610 C 0.59885 0.60631 0.12502 0.0
C611 C 0.59638 0.61005 0.14165 0.0
C612 C 0.58347 0.61855 0.14631 0.0
C613 C 0.58131 0.62236 0.16271 0.0
C614 C 0.59201 0.61785 0.1751 0.0
C615 C 0.59021 0.62202 0.19179 0.0
C616 C 0.60071 0.61691 0.20382 0.0
C617 C 0.61316 0.60785 0.1996 0.0
C618 C 0.61543 0.6039 0.18295 0.0
C619 C 0.62807 0.59506 0.17827 0.0
C620 C 0.63011 0.5911 0.16188 0.0
C621 C 0.61975 0.59601 0.14952 0.0
C622 C 0.60701 0.60503 0.15394 0.0
C623 C 0.60481 0.60892 0.17068 0.0
C624 C 0.53008 0.66805 0.18122 0.0
C625 C 0.54018 0.67615 0.19813 0.0
O626 O 0.66632 0.55321 0.10687 0.0
O627 O 0.65999 0.58497 0.24163 0.0
O628 O 0.54019 0.65979 0.20691 0.0
O629 O 0.55846 0.62427 0.07303 0.0
H630 H 0.64155 0.52568 0.09712 0.0
H631 H 0.6484 0.55547 0.07871 0.0
H632 H 0.6753 0.56105 0.0752 0.0
H633 H 0.65285 0.53624 0.06817 0.0
H634 H 0.62569 0.53256 0.11692 0.0
H635 H 0.68311 0.59312 0.11394 0.0
H636 H 0.58995 0.54975 0.12145 0.0
H637 H 0.59402 0.52832 0.12802 0.0
H638 H 0.59709 0.54871 0.14231 0.0
H639 H 0.68483 0.62496 0.12274 0.0
H640 H 0.66037 0.62499 0.11836 0.0
H641 H 0.6665 0.62155 0.13899 0.0
H642 H 0.58029 0.65305 0.062 0.0
H643 H 0.55504 0.64802 0.04319 0.0
H644 H 0.53646 0.62596 0.0519 0.0
H645 H 0.53559 0.66077 0.06791 0.0
H646 H 0.5951 0.65282 0.08771 0.0
H647 H 0.54467 0.58769 0.08638 0.0
H648 H 0.61648 0.65288 0.12506 0.0
H649 H 0.63092 0.64493 0.11178 0.0
H650 H 0.62467 0.66493 0.10515 0.0
H651 H 0.54233 0.56243 0.10567 0.0
H652 H 0.56849 0.56558 0.10836 0.0
H653 H 0.55674 0.57269 0.1247 0.0
H654 H 0.55675 0.68941 0.19639 0.0
H655 H 0.5814 0.68093 0.19778 0.0
H656 H 0.52831 0.62011 0.21055 0.0
H657 H 0.61101 0.66538 0.17693 0.0
H658 H 0.61508 0.68573 0.19153 0.0
H659 H 0.62039 0.66475 0.19714 0.0
H660 H 0.52969 0.58839 0.20853 0.0
H661 H 0.54723 0.5888 0.19266 0.0
H662 H 0.55571 0.59234 0.21362 0.0
H663 H 0.65078 0.55774 0.22789 0.0
H664 H 0.68656 0.5611 0.22857 0.0
H665 H 0.68658 0.58374 0.21954 0.0
H666 H 0.69688 0.58577 0.23994 0.0
H667 H 0.67187 0.62345 0.23261 0.0
H668 H 0.61966 0.55933 0.23282 0.0
H669 H 0.65677 0.64151 0.19926 0.0
H670 H 0.64391 0.64736 0.21551 0.0
H671 H 0.6703 0.65114 0.21866 0.0
H672 H 0.58639 0.54975 0.22051 0.0
H673 H 0.58113 0.57074 0.21473 0.0
H674 H 0.59254 0.5608 0.20017 0.0
H675 H 0.61304 0.59437 0.10804 0.0
H676 H 0.57488 0.62237 0.13733 0.0
H677 H 0.57113 0.62891 0.16554 0.0
H678 H 0.59925 0.6201 0.21659 0.0
H679 H 0.63657 0.59106 0.18721 0.0
H680 H 0.63999 0.58423 0.15902 0.0
H681 H 0.51355 0.65445 0.18243 0.0
H682 H 0.52968 0.68098 0.17423 0.0
H683 H 0.53962 0.66267 0.17414 0.0
O684 O 0.61447 0.41273 0.42173 0.0
Cd685 Cd 0.61742 0.3996 0.40013 0.0
Cd686 Cd 0.65891 0.42679 0.40548 0.0
O687 O 0.64873 0.43158 0.42776 0.0
O688 O 0.59038 0.37192 0.39791 0.0
O689 O 0.62185 0.37447 0.40182 0.0
C690 C 0.6014 0.36264 0.40031 0.0
C691 C 0.68733 0.42039 0.40342 0.0
C692 C 0.62937 0.42493 0.43145 0.0
C693 C 0.63895 0.43453 0.3759 0.0
O694 O 0.65481 0.4417 0.38561 0.0
O695 O 0.62231 0.41673 0.37873 0.0
O696 O 0.69033 0.43895 0.40723 0.0
O697 O 0.66793 0.4051 0.40141 0.0
O698 O 0.21785 0.58031 0.60114 0.0
Cd699 Cd 0.2371 0.59649 0.58156 0.0
Cd700 Cd 0.22337 0.62354 0.58899 0.0
O701 O 0.2122 0.60575 0.61012 0.0
O702 O 0.25664 0.58477 0.57895 0.0
O703 O 0.26772 0.61804 0.58642 0.0
C704 C 0.27204 0.60306 0.58359 0.0
C705 C 0.24395 0.66054 0.58958 0.0
C706 C 0.21028 0.58745 0.61184 0.0
C707 C 0.20932 0.60032 0.55672 0.0
O708 O 0.20631 0.61105 0.56763 0.0
O709 O 0.22267 0.59408 0.55918 0.0
O710 O 0.22365 0.65093 0.59203 0.0
O711 O 0.2528 0.64903 0.58751 0.0
O712 O 0.61726 0.21542 0.7567 0.0
Cd713 Cd 0.63128 0.2333 0.73609 0.0
Cd714 Cd 0.60573 0.24926 0.74216 0.0
O715 O 0.60137 0.23329 0.76401 0.0
O716 O 0.65983 0.23589 0.7336 0.0
O717 O 0.65519 0.26316 0.73941 0.0
C718 C 0.66801 0.25585 0.73705 0.0
C719 C 0.60955 0.28319 0.74251 0.0
C720 C 0.60626 0.21906 0.76693 0.0
C721 C 0.59726 0.22282 0.7115 0.0
O722 O 0.59053 0.23152 0.72155 0.0
O723 O 0.61458 0.22292 0.71434 0.0
O724 O 0.59167 0.26647 0.74595 0.0
O725 O 0.62568 0.2808 0.73927 0.0
O726 O 0.43673 0.65266 0.93893 0.0
Cd727 Cd 0.42279 0.65668 0.91828 0.0
Cd728 Cd 0.39813 0.61373 0.9217 0.0
O729 O 0.4146 0.61857 0.94348 0.0
O730 O 0.43634 0.68815 0.91681 0.0
O731 O 0.40171 0.6671 0.92037 0.0
C732 C 0.41778 0.68612 0.91887 0.0
C733 C 0.36104 0.59555 0.92126 0.0
C734 C 0.43074 0.63616 0.94765 0.0
C735 C 0.42485 0.62959 0.89138 0.0
O736 O 0.41289 0.61356 0.90015 0.0
O737 O 0.42986 0.64821 0.89611 0.0
O738 O 0.37155 0.58557 0.92257 0.0
O739 O 0.37169 0.61611 0.92068 0.0
O740 O 0.80058 0.37512 0.05732 0.0
Cd741 Cd 0.7823 0.37231 0.07752 0.0
Cd742 Cd 0.79953 0.41416 0.07284 0.0
O743 O 0.81025 0.40829 0.05112 0.0
O744 O 0.76176 0.34127 0.07951 0.0
O745 O 0.75184 0.36483 0.07368 0.0
C746 C 0.74675 0.34523 0.07592 0.0
C747 C 0.77938 0.43099 0.07308 0.0
C748 C 0.80989 0.39099 0.04779 0.0
C749 C 0.81164 0.40056 0.10376 0.0
O750 O 0.8158 0.41587 0.09411 0.0
O751 O 0.79744 0.3817 0.09995 0.0
O752 O 0.79978 0.44164 0.07107 0.0
O753 O 0.77032 0.41056 0.07453 0.0
O754 O 0.41291 0.81444 0.23306 0.0
Cd755 Cd 0.41163 0.79987 0.25498 0.0
Cd756 Cd 0.36944 0.7849 0.25174 0.0
O757 O 0.37827 0.80053 0.22955 0.0
O758 O 0.43897 0.79967 0.25602 0.0
O759 O 0.40739 0.77029 0.25479 0.0
C760 C 0.42795 0.77919 0.25508 0.0
C761 C 0.34062 0.75025 0.25261 0.0
C762 C 0.39725 0.81228 0.22454 0.0
C763 C 0.39169 0.81351 0.28065 0.0
O764 O 0.3745 0.80299 0.27252 0.0
O765 O 0.40871 0.81402 0.27605 0.0
O766 O 0.33795 0.76632 0.25022 0.0
O767 O 0.35989 0.7538 0.25423 0.0
H768 H 0.15408 0.58895 0.26256 0.0
H769 H 0.18845 0.62094 0.25768 0.0
H770 H 0.21974 0.59547 0.28743 0.0
H771 H 0.18519 0.56361 0.29273 0.0
H772 H 0.23551 0.63655 0.29402 0.0
H773 H 0.22193 0.59479 0.24561 0.0
H774 H 0.20123 0.57341 0.22181 0.0
H775 H 0.19924 0.62733 0.20236 0.0
H776 H 0.21966 0.64896 0.22618 0.0
H777 H 0.33918 0.71476 0.2656 0.0
H778 H 0.30737 0.67983 0.27 0.0
H779 H 0.26829 0.70211 0.24733 0.0
H780 H 0.29982 0.73698 0.24306 0.0
H781 H 0.25843 0.66096 0.23708 0.0
H782 H 0.26986 0.70149 0.28695 0.0
H783 H 0.29083 0.72255 0.31079 0.0
H784 H 0.29758 0.67003 0.32723 0.0
H785 H 0.27689 0.64876 0.30333 0.0
C786 C 0.16824 0.59032 0.26826 0.0
C787 C 0.16691 0.57397 0.27831 0.0
C788 C 0.18791 0.6085 0.26533 0.0
C789 C 0.20672 0.6105 0.27203 0.0
C790 C 0.20543 0.59428 0.28215 0.0
C791 C 0.18573 0.57613 0.28519 0.0
C792 C 0.22769 0.62953 0.26843 0.0
C793 C 0.24068 0.64166 0.28156 0.0
C794 C 0.23437 0.63636 0.25217 0.0
C795 C 0.22218 0.62345 0.23776 0.0
C796 C 0.21695 0.60205 0.23632 0.0
C797 C 0.20528 0.58989 0.22282 0.0
C798 C 0.19888 0.599 0.2106 0.0
C799 C 0.20419 0.6203 0.21184 0.0
C800 C 0.21583 0.63252 0.22534 0.0
C801 C 0.32383 0.71212 0.26141 0.0
C802 C 0.32196 0.72862 0.25406 0.0
C803 C 0.3057 0.69222 0.26398 0.0
C804 C 0.2855 0.68849 0.25908 0.0
C805 C 0.28374 0.70469 0.2512 0.0
C806 C 0.30176 0.72462 0.24882 0.0
C807 C 0.26599 0.66801 0.26265 0.0
C808 C 0.25331 0.65565 0.24951 0.0
C809 C 0.25968 0.66089 0.27888 0.0
C810 C 0.27206 0.67364 0.29325 0.0
C811 C 0.27599 0.69451 0.29556 0.0
C812 C 0.28778 0.70647 0.3091 0.0
C813 C 0.29559 0.69766 0.32049 0.0
C814 C 0.29156 0.67685 0.31838 0.0
C815 C 0.2798 0.66483 0.30485 0.0
H816 H 0.30471 0.70694 0.33096 0.0
H817 H 0.18985 0.58956 0.20015 0.0
H818 H 0.52137 0.17296 0.46093 0.0
H819 H 0.54462 0.20609 0.44636 0.0
H820 H 0.49019 0.21301 0.43486 0.0
H821 H 0.46685 0.17962 0.44899 0.0
H822 H 0.51609 0.22387 0.40915 0.0
H823 H 0.52411 0.23964 0.46717 0.0
H824 H 0.5323 0.23541 0.49579 0.0
H825 H 0.59576 0.25137 0.48192 0.0
H826 H 0.58784 0.25541 0.45316 0.0
H827 H 0.55871 0.33429 0.39889 0.0
H828 H 0.54044 0.29685 0.40645 0.0
H829 H 0.60105 0.30047 0.41477 0.0
H830 H 0.61954 0.33827 0.40752 0.0
H831 H 0.57542 0.2827 0.44006 0.0
H832 H 0.56826 0.27158 0.38225 0.0
H833 H 0.55958 0.27641 0.35393 0.0
H834 H 0.49419 0.25234 0.36744 0.0
H835 H 0.50253 0.24764 0.3959 0.0
C836 C 0.51434 0.18135 0.45501 0.0
C837 C 0.49222 0.17349 0.45582 0.0
C838 C 0.52765 0.20036 0.44681 0.0
C839 C 0.51918 0.21213 0.4396 0.0
C840 C 0.49708 0.20415 0.44022 0.0
C841 C 0.48377 0.1851 0.44831 0.0
C842 C 0.53329 0.2332 0.43202 0.0
C843 C 0.529 0.23678 0.41592 0.0
C844 C 0.5505 0.24989 0.4407 0.0
C845 C 0.5553 0.24758 0.45799 0.0
C846 C 0.53975 0.24209 0.4702 0.0
C847 C 0.54436 0.23975 0.48645 0.0
C848 C 0.56452 0.24305 0.49066 0.0
C849 C 0.58014 0.24877 0.47864 0.0
C850 C 0.57561 0.25109 0.46236 0.0
C851 C 0.56821 0.32708 0.40206 0.0
C852 C 0.5906 0.3393 0.40264 0.0
C853 C 0.55771 0.30559 0.4063 0.0
C854 C 0.56935 0.29574 0.41105 0.0
C855 C 0.59174 0.30772 0.41112 0.0
C856 C 0.60229 0.32929 0.40691 0.0
C857 C 0.55802 0.27353 0.41725 0.0
C858 C 0.56278 0.26972 0.43313 0.0
C859 C 0.54117 0.25668 0.40839 0.0
C860 C 0.53606 0.25938 0.39124 0.0
C861 C 0.55206 0.26745 0.37921 0.0
C862 C 0.54719 0.27014 0.36312 0.0
C863 C 0.52636 0.26472 0.35889 0.0
C864 C 0.51033 0.25654 0.37073 0.0
C865 C 0.51511 0.25382 0.38684 0.0
H866 H 0.52263 0.26682 0.34643 0.0
H867 H 0.56805 0.24124 0.50325 0.0
H868 H 0.45734 0.61913 0.60274 0.0
H869 H 0.42426 0.61726 0.59355 0.0
H870 H 0.40142 0.60674 0.64335 0.0
H871 H 0.4341 0.60767 0.65245 0.0
H872 H 0.37014 0.58248 0.62456 0.0
H873 H 0.42264 0.65623 0.62409 0.0
H874 H 0.45678 0.68807 0.61702 0.0
H875 H 0.44035 0.67744 0.56595 0.0
H876 H 0.40623 0.64534 0.57271 0.0
H877 H 0.30656 0.63757 0.59747 0.0
H878 H 0.34054 0.64048 0.60554 0.0
H879 H 0.32017 0.5785 0.58473 0.0
H880 H 0.28613 0.57532 0.57691 0.0
H881 H 0.373 0.64033 0.59037 0.0
H882 H 0.33626 0.55155 0.60905 0.0
H883 H 0.30221 0.52237 0.61953 0.0
H884 H 0.28728 0.56781 0.6402 0.0
H885 H 0.32136 0.59725 0.63004 0.0
C886 C 0.44509 0.61602 0.61167 0.0
C887 C 0.44811 0.61308 0.62829 0.0
C888 C 0.42628 0.61521 0.60644 0.0
C889 C 0.41039 0.61209 0.61777 0.0
C890 C 0.41336 0.60906 0.63434 0.0
C891 C 0.43202 0.60958 0.63954 0.0
C892 C 0.39074 0.61218 0.61245 0.0
C893 C 0.37081 0.59512 0.61705 0.0
C894 C 0.39151 0.62892 0.60301 0.0
C895 C 0.41197 0.64827 0.5989 0.0
C896 C 0.42638 0.66059 0.61134 0.0
C897 C 0.44571 0.6787 0.60739 0.0
C898 C 0.45075 0.68475 0.59104 0.0
C899 C 0.43644 0.67272 0.57861 0.0
C900 C 0.41709 0.65458 0.58249 0.0
C901 C 0.30942 0.62467 0.59445 0.0
C902 C 0.29357 0.60613 0.58668 0.0
C903 C 0.32886 0.62636 0.59905 0.0
C904 C 0.33276 0.60955 0.59599 0.0
C905 C 0.31736 0.5915 0.58751 0.0
C906 C 0.29793 0.58975 0.58298 0.0
C907 C 0.3525 0.61044 0.60221 0.0
C908 C 0.37239 0.62767 0.59781 0.0
C909 C 0.35172 0.59422 0.61231 0.0
C910 C 0.33127 0.5766 0.61862 0.0
C911 C 0.32575 0.55531 0.61588 0.0
C912 C 0.30644 0.53872 0.62175 0.0
C913 C 0.29256 0.54323 0.63047 0.0
C914 C 0.298 0.56434 0.63338 0.0
C915 C 0.3173 0.58098 0.62755 0.0
H916 H 0.27762 0.53037 0.63499 0.0
H917 H 0.46573 0.69877 0.58801 0.0
H918 H 0.84891 0.3517 0.80604 0.0
H919 H 0.81314 0.33069 0.79438 0.0
H920 H 0.83778 0.35615 0.74652 0.0
H921 H 0.87337 0.37805 0.75832 0.0
H922 H 0.8026 0.35566 0.75016 0.0
H923 H 0.82331 0.30348 0.75825 0.0
H924 H 0.83707 0.2834 0.77333 0.0
H925 H 0.78521 0.26159 0.80735 0.0
H926 H 0.77128 0.28176 0.79259 0.0
H927 H 0.69905 0.24645 0.72927 0.0
H928 H 0.73723 0.26772 0.73501 0.0
H929 H 0.7278 0.31691 0.75623 0.0
H930 H 0.68969 0.29599 0.75006 0.0
H931 H 0.75693 0.2789 0.76258 0.0
H932 H 0.77204 0.3649 0.75324 0.0
H933 H 0.75956 0.3838 0.73528 0.0
H934 H 0.74228 0.33577 0.69824 0.0
H935 H 0.75491 0.31674 0.71588 0.0
C936 C 0.8467 0.35261 0.793 0.0
C937 C 0.86406 0.3661 0.78305 0.0
C938 C 0.82627 0.34055 0.78632 0.0
C939 C 0.82277 0.34142 0.76947 0.0
C940 C 0.84006 0.35505 0.75952 0.0
C941 C 0.86046 0.36742 0.76626 0.0
C942 C 0.80097 0.32857 0.76238 0.0
C943 C 0.79266 0.33885 0.75283 0.0
C944 C 0.78808 0.30651 0.7655 0.0
C945 C 0.79634 0.29427 0.77438 0.0
C946 C 0.81491 0.29451 0.76901 0.0
C947 C 0.82273 0.2831 0.77749 0.0
C948 C 0.81204 0.27126 0.79131 0.0
C949 C 0.79348 0.27077 0.79665 0.0
C950 C 0.7856 0.28217 0.78822 0.0
C951 C 0.70515 0.26194 0.73495 0.0
C952 C 0.69134 0.26955 0.7392 0.0
C953 C 0.72699 0.27405 0.73828 0.0
C954 C 0.73548 0.29399 0.74598 0.0
C955 C 0.72175 0.30177 0.75 0.0
C956 C 0.69992 0.28975 0.74652 0.0
C957 C 0.75844 0.30607 0.75063 0.0
C958 C 0.76694 0.29566 0.75979 0.0
C959 C 0.77169 0.32784 0.74672 0.0
C960 C 0.76425 0.3393 0.73596 0.0
C961 C 0.76566 0.35842 0.74124 0.0
C962 C 0.75855 0.36915 0.73112 0.0
C963 C 0.75008 0.36096 0.71565 0.0
C964 C 0.74877 0.34206 0.71025 0.0
C965 C 0.75588 0.33128 0.72031 0.0
H966 H 0.74457 0.36928 0.70784 0.0
H967 H 0.81812 0.26244 0.79786 0.0
H968 H 0.45055 0.8747 0.93043 0.0
H969 H 0.44733 0.83981 0.92681 0.0
H970 H 0.38044 0.80948 0.93881 0.0
H971 H 0.38381 0.84452 0.94305 0.0
H972 H 0.39803 0.78905 0.95302 0.0
H973 H 0.39744 0.81368 0.89885 0.0
H974 H 0.41044 0.83906 0.87589 0.0
H975 H 0.46894 0.83747 0.87517 0.0
H976 H 0.45642 0.81231 0.89829 0.0
H977 H 0.38141 0.68808 0.92472 0.0
H978 H 0.37846 0.7202 0.9274 0.0
H979 H 0.44593 0.75922 0.91833 0.0
H980 H 0.44894 0.72743 0.91542 0.0
H981 H 0.42379 0.77337 0.90149 0.0
H982 H 0.4255 0.75134 0.95718 0.0
H983 H 0.4127 0.72622 0.98032 0.0
H984 H 0.3518 0.72282 0.97792 0.0
H985 H 0.36417 0.74773 0.95461 0.0
C986 C 0.43524 0.86061 0.93257 0.0
C987 C 0.41751 0.86233 0.93738 0.0
C988 C 0.43335 0.84066 0.93031 0.0
C989 C 0.41357 0.822 0.93232 0.0
C990 C 0.39586 0.82365 0.93721 0.0
C991 C 0.3978 0.84363 0.93964 0.0
C992 C 0.41144 0.80085 0.92919 0.0
C993 C 0.40331 0.78548 0.94164 0.0
C994 C 0.41855 0.79624 0.91441 0.0
C995 C 0.42604 0.81121 0.90038 0.0
C996 C 0.41313 0.81884 0.89386 0.0
C997 C 0.42041 0.83318 0.88081 0.0
C998 C 0.44052 0.8399 0.87409 0.0
C999 C 0.45337 0.83225 0.88039 0.0
C1000 C 0.44618 0.81793 0.89345 0.0
C1001 C 0.39557 0.70351 0.92321 0.0
C1002 C 0.41542 0.7052 0.9199 0.0
C1003 C 0.39388 0.72184 0.92482 0.0
C1004 C 0.41202 0.74212 0.92321 0.0
C1005 C 0.43172 0.74376 0.9196 0.0
C1006 C 0.43341 0.72553 0.91799 0.0
C1007 C 0.41083 0.7618 0.92544 0.0
C1008 C 0.41828 0.77687 0.9128 0.0
C1009 C 0.40308 0.76609 0.94001 0.0
C1010 C 0.39568 0.75119 0.95404 0.0
C1011 C 0.40933 0.7451 0.9615 0.0
C1012 C 0.40216 0.73093 0.97466 0.0
C1013 C 0.38143 0.72288 0.98055 0.0
C1014 C 0.36784 0.72903 0.97333 0.0
C1015 C 0.37492 0.74319 0.96015 0.0
H1016 H 0.37591 0.71191 0.99074 0.0
H1017 H 0.44613 0.85101 0.86399 0.0
H1018 H 0.70212 0.55591 0.09547 0.0
H1019 H 0.72309 0.53809 0.09208 0.0
H1020 H 0.66501 0.47769 0.08697 0.0
H1021 H 0.64404 0.49538 0.09054 0.0
H1022 H 0.69362 0.4747 0.10675 0.0
H1023 H 0.69385 0.5041 0.05372 0.0
H1024 H 0.70009 0.53285 0.03453 0.0
H1025 H 0.76665 0.56619 0.04719 0.0
H1026 H 0.76073 0.53777 0.06663 0.0
H1027 H 0.73598 0.41329 0.07424 0.0
H1028 H 0.71575 0.43175 0.07776 0.0
H1029 H 0.77447 0.49206 0.07894 0.0
H1030 H 0.79472 0.47378 0.07494 0.0
H1031 H 0.74604 0.49569 0.06159 0.0
H1032 H 0.7467 0.46731 0.1144 0.0
H1033 H 0.74125 0.43948 0.13426 0.0
H1034 H 0.67428 0.40542 0.12302 0.0
H1035 H 0.67938 0.43292 0.10293 0.0
C1036 C 0.69388 0.53881 0.09382 0.0
C1037 C 0.67145 0.52697 0.0935 0.0
C1038 C 0.70584 0.52867 0.09177 0.0
C1039 C 0.69559 0.50658 0.08916 0.0
C1040 C 0.67323 0.49473 0.08903 0.0
C1041 C 0.66128 0.50484 0.09107 0.0
C1042 C 0.70809 0.49577 0.08631 0.0
C1043 C 0.7049 0.47911 0.09676 0.0
C1044 C 0.72321 0.50191 0.07354 0.0
C1045 C 0.7268 0.51891 0.06174 0.0
C1046 C 0.70978 0.51764 0.0525 0.0
C1047 C 0.71327 0.53386 0.04156 0.0
C1048 C 0.73374 0.55136 0.03967 0.0
C1049 C 0.75079 0.55264 0.04868 0.0
C1050 C 0.74738 0.53648 0.05965 0.0
C1051 C 0.74456 0.43049 0.07515 0.0
C1052 C 0.76695 0.44206 0.07438 0.0
C1053 C 0.73299 0.44102 0.07726 0.0
C1054 C 0.74361 0.46329 0.07891 0.0
C1055 C 0.76593 0.47488 0.07774 0.0
C1056 C 0.77749 0.46439 0.07547 0.0
C1057 C 0.73151 0.47451 0.082 0.0
C1058 C 0.73478 0.49127 0.0716 0.0
C1059 C 0.71659 0.46858 0.09492 0.0
C1060 C 0.71346 0.45207 0.10704 0.0
C1061 C 0.73084 0.4538 0.11608 0.0
C1062 C 0.72781 0.4381 0.12739 0.0
C1063 C 0.70744 0.42066 0.12987 0.0
C1064 C 0.69005 0.41892 0.12107 0.0
C1065 C 0.693 0.43457 0.10973 0.0
H1066 H 0.70513 0.40852 0.13863 0.0
H1067 H 0.73641 0.56391 0.0312 0.0
H1068 H 0.32141 0.86132 0.5598 0.0
H1069 H 0.30044 0.82261 0.56332 0.0
H1070 H 0.35774 0.82149 0.57609 0.0
H1071 H 0.37874 0.86002 0.57231 0.0
H1072 H 0.33273 0.78898 0.55581 0.0
H1073 H 0.32325 0.8201 0.60538 0.0
H1074 H 0.31313 0.84283 0.62098 0.0
H1075 H 0.24929 0.80735 0.60199 0.0
H1076 H 0.25912 0.78459 0.58609 0.0
H1077 H 0.28734 0.68655 0.59086 0.0
H1078 H 0.30757 0.72509 0.58667 0.0
H1079 H 0.24874 0.7257 0.57975 0.0
H1080 H 0.22851 0.68747 0.58471 0.0
H1081 H 0.274 0.7586 0.59633 0.0
H1082 H 0.28203 0.72758 0.54688 0.0
H1083 H 0.29112 0.70493 0.53011 0.0
H1084 H 0.35595 0.73996 0.54711 0.0
H1085 H 0.34719 0.76265 0.56414 0.0
C1086 C 0.32953 0.85273 0.56309 0.0
C1087 C 0.35176 0.86363 0.56549 0.0
C1088 C 0.31754 0.83067 0.56523 0.0
C1089 C 0.32751 0.81918 0.5701 0.0
C1090 C 0.34972 0.83 0.57227 0.0
C1091 C 0.3617 0.852 0.57009 0.0
C1092 C 0.31489 0.79596 0.57333 0.0
C1093 C 0.32003 0.78234 0.56479 0.0
C1094 C 0.29793 0.78724 0.58473 0.0
C1095 C 0.29198 0.80077 0.59443 0.0
C1096 C 0.3071 0.81723 0.60445 0.0
C1097 C 0.30141 0.83011 0.61336 0.0
C1098 C 0.2806 0.82656 0.61245 0.0
C1099 C 0.26541 0.81009 0.60267 0.0
C1100 C 0.27103 0.79719 0.59372 0.0
C1101 C 0.27875 0.69496 0.58858 0.0
C1102 C 0.25635 0.68398 0.58808 0.0
C1103 C 0.29032 0.71697 0.58605 0.0
C1104 C 0.27972 0.72831 0.58252 0.0
C1105 C 0.25733 0.71738 0.58241 0.0
C1106 C 0.24577 0.69548 0.58524 0.0
C1107 C 0.29186 0.7515 0.57884 0.0
C1108 C 0.28665 0.76516 0.5873 0.0
C1109 C 0.30857 0.76023 0.5672 0.0
C1110 C 0.3139 0.74668 0.5569 0.0
C1111 C 0.29819 0.73036 0.54712 0.0
C1112 C 0.30329 0.71753 0.53755 0.0
C1113 C 0.32409 0.72097 0.53757 0.0
C1114 C 0.33985 0.73729 0.54712 0.0
C1115 C 0.33483 0.75016 0.55672 0.0
H1116 H 0.328 0.71102 0.53016 0.0
H1117 H 0.27623 0.83655 0.61934 0.0
H1118 H 0.60879 0.45985 0.74631 0.0
H1119 H 0.61585 0.4304 0.74792 0.0
H1120 H 0.58023 0.40411 0.70318 0.0
H1121 H 0.57155 0.43241 0.7023 0.0
H1122 H 0.5695 0.37396 0.72171 0.0
H1123 H 0.638 0.42969 0.70678 0.0
H1124 H 0.67054 0.46498 0.70794 0.0
H1125 H 0.68463 0.45131 0.75602 0.0
H1126 H 0.65202 0.41603 0.75523 0.0
H1127 H 0.63806 0.3181 0.72511 0.0
H1128 H 0.63657 0.35068 0.72024 0.0
H1129 H 0.58285 0.32817 0.75294 0.0
H1130 H 0.5837 0.29534 0.75722 0.0
H1131 H 0.64001 0.3828 0.73647 0.0
H1132 H 0.54709 0.34046 0.73999 0.0
H1133 H 0.51604 0.30516 0.73396 0.0
H1134 H 0.5534 0.29244 0.69986 0.0
H1135 H 0.58457 0.32777 0.7055 0.0
C1136 C 0.60234 0.44771 0.73687 0.0
C1137 C 0.58931 0.44844 0.72437 0.0
C1138 C 0.60668 0.43101 0.73765 0.0
C1139 C 0.59885 0.41505 0.72555 0.0
C1140 C 0.5864 0.41611 0.71274 0.0
C1141 C 0.58152 0.43246 0.71222 0.0
C1142 C 0.60253 0.39662 0.72678 0.0
C1143 C 0.58498 0.376 0.72484 0.0
C1144 C 0.62281 0.39907 0.73045 0.0
C1145 C 0.64246 0.42027 0.73099 0.0
C1146 C 0.64796 0.43426 0.71764 0.0
C1147 C 0.66643 0.45426 0.71823 0.0
C1148 C 0.67962 0.4604 0.73206 0.0
C1149 C 0.67439 0.44654 0.74532 0.0
C1150 C 0.65592 0.42653 0.7448 0.0
C1151 C 0.6261 0.32026 0.73138 0.0
C1152 C 0.61083 0.30411 0.74138 0.0
C1153 C 0.62525 0.33887 0.72859 0.0
C1154 C 0.60925 0.34167 0.7359 0.0
C1155 C 0.59493 0.32612 0.74676 0.0
C1156 C 0.59552 0.30741 0.74929 0.0
C1157 C 0.60689 0.36035 0.73179 0.0
C1158 C 0.62462 0.38091 0.7332 0.0
C1159 C 0.587 0.35791 0.72688 0.0
C1160 C 0.56822 0.3367 0.72329 0.0
C1161 C 0.54865 0.33017 0.73115 0.0
C1162 C 0.53104 0.31015 0.72781 0.0
C1163 C 0.53277 0.29654 0.71657 0.0
C1164 C 0.5521 0.30296 0.7086 0.0
C1165 C 0.56975 0.32297 0.71188 0.0
H1166 H 0.51912 0.28104 0.71401 0.0
H1167 H 0.69391 0.47589 0.73249 0.0
H1168 H 0.15754 0.51865 0.9105 0.0
H1169 H 0.19641 0.53901 0.91325 0.0
H1170 H 0.20004 0.48362 0.89899 0.0
H1171 H 0.16106 0.4631 0.89641 0.0
H1172 H 0.22414 0.50277 0.92578 0.0
H1173 H 0.21459 0.52478 0.87249 0.0
H1174 H 0.19949 0.53902 0.85239 0.0
H1175 H 0.2258 0.59765 0.87942 0.0
H1176 H 0.24081 0.58365 0.89981 0.0
H1177 H 0.3356 0.5533 0.91479 0.0
H1178 H 0.29699 0.53358 0.9113 0.0
H1179 H 0.29442 0.59068 0.92135 0.0
H1180 H 0.33334 0.61077 0.92421 0.0
H1181 H 0.26953 0.5707 0.89671 0.0
H1182 H 0.27891 0.54901 0.95012 0.0
H1183 H 0.29373 0.53489 0.97058 0.0
H1184 H 0.26744 0.47594 0.94398 0.0
H1185 H 0.2527 0.4898 0.92325 0.0
C1186 C 0.16667 0.51091 0.90774 0.0
C1187 C 0.15633 0.48941 0.90294 0.0
C1188 C 0.18885 0.52255 0.9093 0.0
C1189 C 0.20114 0.51292 0.90611 0.0
C1190 C 0.19086 0.4914 0.90142 0.0
C1191 C 0.16865 0.47975 0.89985 0.0
C1192 C 0.22466 0.52511 0.90821 0.0
C1193 C 0.23413 0.51748 0.91926 0.0
C1194 C 0.23758 0.5446 0.90005 0.0
C1195 C 0.22866 0.55309 0.88775 0.0
C1196 C 0.21702 0.54065 0.87421 0.0
C1197 C 0.2085 0.54869 0.86275 0.0
C1198 C 0.21164 0.56921 0.86465 0.0
C1199 C 0.22336 0.58175 0.87798 0.0
C1200 C 0.23189 0.57378 0.88948 0.0
C1201 C 0.32683 0.56166 0.91637 0.0
C1202 C 0.33751 0.58358 0.91988 0.0
C1203 C 0.3047 0.55032 0.91443 0.0
C1204 C 0.29268 0.56052 0.91635 0.0
C1205 C 0.30333 0.58243 0.91986 0.0
C1206 C 0.32555 0.59389 0.92154 0.0
C1207 C 0.2691 0.54839 0.91431 0.0
C1208 C 0.25959 0.55602 0.90327 0.0
C1209 C 0.25611 0.52893 0.92255 0.0
C1210 C 0.26486 0.52052 0.93506 0.0
C1211 C 0.27641 0.53308 0.94858 0.0
C1212 C 0.28477 0.52512 0.96023 0.0
C1213 C 0.28157 0.50455 0.95856 0.0
C1214 C 0.26993 0.49188 0.94526 0.0
C1215 C 0.26154 0.49977 0.93356 0.0
H1216 H 0.28806 0.49842 0.96759 0.0
H1217 H 0.20503 0.5754 0.85576 0.0
H1218 H 0.58508 0.1633 0.05922 0.0
H1219 H 0.61631 0.19796 0.06511 0.0
H1220 H 0.59057 0.22843 0.03478 0.0
H1221 H 0.55915 0.1936 0.0288 0.0
H1222 H 0.63384 0.24416 0.02952 0.0
H1223 H 0.58771 0.23179 0.07472 0.0
H1224 H 0.56376 0.21147 0.0974 0.0
H1225 H 0.61502 0.20842 0.12136 0.0
H1226 H 0.63922 0.22843 0.09869 0.0
H1227 H 0.71375 0.34622 0.06024 0.0
H1228 H 0.67822 0.31591 0.05423 0.0
H1229 H 0.69444 0.27427 0.08031 0.0
H1230 H 0.72991 0.30431 0.0862 0.0
H1231 H 0.65334 0.267 0.08736 0.0
H1232 H 0.69793 0.27569 0.04064 0.0
H1233 H 0.7219 0.29561 0.01785 0.0
H1234 H 0.67326 0.30571 0.99682 0.0
H1235 H 0.64908 0.28608 0.01963 0.0
C1236 C 0.58615 0.17737 0.05371 0.0
C1237 C 0.56976 0.17574 0.04344 0.0
C1238 C 0.60393 0.19716 0.05715 0.0
C1239 C 0.60565 0.21578 0.05051 0.0
C1240 C 0.58952 0.21424 0.04003 0.0
C1241 C 0.57163 0.19438 0.03663 0.0
C1242 C 0.6243 0.23677 0.05472 0.0
C1243 C 0.63788 0.24939 0.04214 0.0
C1244 C 0.62969 0.24343 0.07121 0.0
C1245 C 0.61524 0.23148 0.08493 0.0
C1246 C 0.59384 0.22665 0.08476 0.0
C1247 C 0.58022 0.2152 0.09763 0.0
C1248 C 0.58785 0.20862 0.1108 0.0
C1249 C 0.60913 0.21351 0.11115 0.0
C1250 C 0.62281 0.22493 0.0983 0.0
C1251 C 0.70963 0.33065 0.06485 0.0
C1252 C 0.72463 0.3276 0.07364 0.0
C1253 C 0.68939 0.31336 0.06135 0.0
C1254 C 0.6838 0.29286 0.06674 0.0
C1255 C 0.69845 0.28997 0.07605 0.0
C1256 C 0.71873 0.30714 0.07936 0.0
C1257 C 0.66305 0.27413 0.06219 0.0
C1258 C 0.64909 0.26194 0.07473 0.0
C1259 C 0.65731 0.2679 0.04567 0.0
C1260 C 0.67181 0.27967 0.03195 0.0
C1261 C 0.69242 0.28234 0.03124 0.0
C1262 C 0.70603 0.29354 0.0183 0.0
C1263 C 0.69914 0.30199 0.00592 0.0
C1264 C 0.67859 0.2992 0.00643 0.0
C1265 C 0.66493 0.28803 0.01936 0.0
H1266 H 0.70969 0.31065 0.99591 0.0
H1267 H 0.57728 0.19977 0.12075 0.0
H1268 H 0.5498 0.71757 0.20073 0.0
H1269 H 0.52941 0.73182 0.21406 0.0
H1270 H 0.48208 0.66851 0.2289 0.0
H1271 H 0.50238 0.65408 0.21528 0.0
H1272 H 0.464 0.69021 0.21615 0.0
H1273 H 0.51696 0.70384 0.25706 0.0
H1274 H 0.55351 0.71697 0.26739 0.0
H1275 H 0.57116 0.78048 0.25274 0.0
H1276 H 0.53481 0.76769 0.24212 0.0
H1277 H 0.4111 0.73614 0.25897 0.0
H1278 H 0.4288 0.71544 0.25362 0.0
H1279 H 0.48639 0.77311 0.24044 0.0
H1280 H 0.46922 0.79381 0.24656 0.0
H1281 H 0.49713 0.7497 0.25616 0.0
H1282 H 0.44749 0.73624 0.21146 0.0
H1283 H 0.41193 0.72418 0.19943 0.0
H1284 H 0.38911 0.66185 0.2195 0.0
H1285 H 0.4245 0.67362 0.2318 0.0
C1286 C 0.53522 0.70673 0.20705 0.0
C1287 C 0.52797 0.68479 0.20733 0.0
C1288 C 0.52358 0.71488 0.21468 0.0
C1289 C 0.50444 0.70128 0.22278 0.0
C1290 C 0.49694 0.6793 0.22288 0.0
C1291 C 0.50858 0.67111 0.2152 0.0
C1292 C 0.49201 0.71013 0.23057 0.0
C1293 C 0.47107 0.70293 0.22516 0.0
C1294 C 0.50137 0.72698 0.24209 0.0
C1295 C 0.52317 0.73478 0.24873 0.0
C1296 C 0.52866 0.72059 0.25597 0.0
C1297 C 0.54934 0.72798 0.26189 0.0
C1298 C 0.56465 0.74954 0.26071 0.0
C1299 C 0.55929 0.76378 0.25365 0.0
C1300 C 0.53863 0.75648 0.24771 0.0
C1301 C 0.42762 0.74437 0.25512 0.0
C1302 C 0.43875 0.76658 0.25313 0.0
C1303 C 0.43769 0.73253 0.25195 0.0
C1304 C 0.45885 0.74263 0.24629 0.0
C1305 C 0.47009 0.76488 0.24479 0.0
C1306 C 0.46021 0.77673 0.24827 0.0
C1307 C 0.46931 0.73027 0.24135 0.0
C1308 C 0.48989 0.73676 0.24735 0.0
C1309 C 0.45973 0.71297 0.23019 0.0
C1310 C 0.43854 0.70587 0.22269 0.0
C1311 C 0.43484 0.72 0.21338 0.0
C1312 C 0.41473 0.71322 0.20651 0.0
C1313 C 0.39825 0.69228 0.20874 0.0
C1314 C 0.40188 0.67807 0.21781 0.0
C1315 C 0.42195 0.68478 0.22472 0.0
H1316 H 0.38269 0.68707 0.20342 0.0
H1317 H 0.58066 0.75522 0.26528 0.0
H1318 H 0.85572 0.40366 0.38183 0.0
H1319 H 0.82544 0.40661 0.39172 0.0
H1320 H 0.81028 0.41477 0.34206 0.0
H1321 H 0.84112 0.41275 0.33222 0.0
H1322 H 0.80447 0.43999 0.36068 0.0
H1323 H 0.78316 0.36626 0.36262 0.0
H1324 H 0.78581 0.33476 0.3701 0.0
H1325 H 0.78277 0.34755 0.4211 0.0
H1326 H 0.7804 0.37933 0.41392 0.0
H1327 H 0.68698 0.38541 0.39034 0.0
H1328 H 0.71786 0.38242 0.38201 0.0
H1329 H 0.76008 0.44534 0.40112 0.0
H1330 H 0.72939 0.4486 0.40917 0.0
H1331 H 0.75116 0.38346 0.39669 0.0
H1332 H 0.80209 0.47148 0.37588 0.0
H1333 H 0.79662 0.50012 0.36501 0.0
H1334 H 0.73546 0.45365 0.34584 0.0
H1335 H 0.74068 0.42475 0.35641 0.0
C1336 C 0.8462 0.40653 0.37306 0.0
C1337 C 0.85103 0.4084 0.35626 0.0
C1338 C 0.82873 0.40796 0.37871 0.0
C1339 C 0.81537 0.41064 0.36762 0.0
C1340 C 0.82036 0.41278 0.35087 0.0
C1341 C 0.83797 0.41164 0.34525 0.0
C1342 C 0.79598 0.41081 0.37338 0.0
C1343 C 0.79288 0.42765 0.3686 0.0
C1344 C 0.78048 0.39443 0.38336 0.0
C1345 C 0.78181 0.37529 0.38773 0.0
C1346 C 0.78321 0.36244 0.37543 0.0
C1347 C 0.78464 0.34453 0.37962 0.0
C1348 C 0.78451 0.33919 0.39607 0.0
C1349 C 0.7829 0.35172 0.40836 0.0
C1350 C 0.78149 0.36968 0.40424 0.0
C1351 C 0.70285 0.3985 0.39294 0.0
C1352 C 0.70574 0.41732 0.40027 0.0
C1353 C 0.72048 0.39676 0.38818 0.0
C1354 C 0.74128 0.41381 0.39067 0.0
C1355 C 0.74418 0.43216 0.39877 0.0
C1356 C 0.7266 0.43395 0.40343 0.0
C1357 C 0.75993 0.41282 0.38423 0.0
C1358 C 0.76285 0.39584 0.38886 0.0
C1359 C 0.77489 0.42867 0.37364 0.0
C1360 C 0.7717 0.44597 0.3671 0.0
C1361 C 0.78751 0.46738 0.3693 0.0
C1362 C 0.78445 0.48366 0.3632 0.0
C1363 C 0.76567 0.47871 0.35479 0.0
C1364 C 0.74995 0.45747 0.35242 0.0
C1365 C 0.75295 0.44113 0.35848 0.0
H1366 H 0.76333 0.49133 0.35008 0.0
H1367 H 0.78562 0.3253 0.39929 0.0
H1368 H 0.11859 0.54424 0.41447 0.0
H1369 H 0.13885 0.55096 0.43996 0.0
H1370 H 0.10258 0.57712 0.46164 0.0
H1371 H 0.08257 0.57081 0.43601 0.0
H1372 H 0.14415 0.60226 0.46714 0.0
H1373 H 0.09416 0.52744 0.47235 0.0
H1374 H 0.07524 0.48985 0.46359 0.0
H1375 H 0.13473 0.49035 0.46101 0.0
H1376 H 0.15405 0.52805 0.46955 0.0
H1377 H 0.17658 0.60731 0.54918 0.0
H1378 H 0.15592 0.59837 0.52388 0.0
H1379 H 0.19323 0.57245 0.50378 0.0
H1380 H 0.21378 0.58094 0.52931 0.0
H1381 H 0.15175 0.54701 0.49717 0.0
H1382 H 0.20176 0.62151 0.492 0.0
H1383 H 0.22096 0.65912 0.50072 0.0
H1384 H 0.16179 0.65931 0.50294 0.0
H1385 H 0.1422 0.62159 0.49445 0.0
C1386 C 0.11474 0.55113 0.42477 0.0
C1387 C 0.09869 0.55657 0.42339 0.0
C1388 C 0.12629 0.55493 0.43932 0.0
C1389 C 0.12201 0.56425 0.4528 0.0
C1390 C 0.10605 0.56979 0.45143 0.0
C1391 C 0.09454 0.56604 0.43685 0.0
C1392 C 0.13479 0.56905 0.46807 0.0
C1393 C 0.14555 0.59011 0.47384 0.0
C1394 C 0.13717 0.55333 0.47652 0.0
C1395 C 0.12557 0.53063 0.47144 0.0
C1396 C 0.10323 0.51959 0.46979 0.0
C1397 C 0.09243 0.49825 0.46489 0.0
C1398 C 0.10378 0.48773 0.4617 0.0
C1399 C 0.12596 0.49852 0.46346 0.0
C1400 C 0.13684 0.51987 0.46835 0.0
C1401 C 0.18048 0.59975 0.53939 0.0
C1402 C 0.19694 0.59495 0.54125 0.0
C1403 C 0.16867 0.59471 0.52489 0.0
C1404 C 0.17323 0.58504 0.51183 0.0
C1405 C 0.18948 0.57997 0.51369 0.0
C1406 C 0.20125 0.58489 0.52827 0.0
C1407 C 0.16094 0.58018 0.4963 0.0
C1408 C 0.15033 0.55914 0.49046 0.0
C1409 C 0.15873 0.59593 0.48774 0.0
C1410 C 0.1705 0.61867 0.49272 0.0
C1411 C 0.19283 0.62953 0.49445 0.0
C1412 C 0.20378 0.65087 0.49934 0.0
C1413 C 0.1926 0.66158 0.50241 0.0
C1414 C 0.17044 0.65098 0.50056 0.0
C1415 C 0.1594 0.62963 0.4957 0.0
H1416 H 0.20111 0.67811 0.5062 0.0
H1417 H 0.09539 0.47121 0.4579 0.0
H1418 H 0.44378 0.12638 0.59731 0.0
H1419 H 0.47537 0.1535 0.62114 0.0
H1420 H 0.52432 0.12675 0.60433 0.0
H1421 H 0.49409 0.09898 0.57991 0.0
H1422 H 0.51914 0.12783 0.63809 0.0
H1423 H 0.53091 0.18012 0.5981 0.0
H1424 H 0.52137 0.20007 0.57873 0.0
H1425 H 0.49749 0.22111 0.61836 0.0
H1426 H 0.50661 0.20103 0.63797 0.0
H1427 H 0.60585 0.2016 0.68756 0.0
H1428 H 0.58362 0.18249 0.6639 0.0
H1429 H 0.53721 0.19998 0.67858 0.0
H1430 H 0.55942 0.21937 0.70205 0.0
H1431 H 0.5435 0.20441 0.64634 0.0
H1432 H 0.52954 0.15037 0.68613 0.0
H1433 H 0.5386 0.13008 0.70555 0.0
H1434 H 0.56597 0.11199 0.66648 0.0
H1435 H 0.55734 0.13244 0.64685 0.0
C1436 C 0.45916 0.12733 0.59795 0.0
C1437 C 0.46409 0.10704 0.58812 0.0
C1438 C 0.47852 0.1434 0.61326 0.0
C1439 C 0.50272 0.14226 0.61589 0.0
C1440 C 0.50931 0.12639 0.60272 0.0
C1441 C 0.49106 0.10977 0.58703 0.0
C1442 C 0.51787 0.15497 0.62895 0.0
C1443 C 0.52475 0.14466 0.63977 0.0
C1444 C 0.52476 0.17677 0.63124 0.0
C1445 C 0.51924 0.18887 0.61949 0.0
C1446 C 0.52345 0.18884 0.60268 0.0
C1447 C 0.51815 0.20021 0.59166 0.0
C1448 C 0.50877 0.2118 0.59731 0.0
C1449 C 0.50473 0.2121 0.614 0.0
C1450 C 0.50998 0.20074 0.62508 0.0
C1451 C 0.59097 0.20148 0.68571 0.0
C1452 C 0.58438 0.21195 0.69675 0.0
C1453 C 0.57823 0.19046 0.67222 0.0
C1454 C 0.55862 0.18958 0.66959 0.0
C1455 C 0.55226 0.20042 0.68038 0.0
C1456 C 0.56497 0.21146 0.69383 0.0
C1457 C 0.54455 0.17721 0.65572 0.0
C1458 C 0.53793 0.18759 0.64467 0.0
C1459 C 0.53776 0.1554 0.65328 0.0
C1460 C 0.54303 0.14315 0.66506 0.0
C1461 C 0.53767 0.14223 0.68171 0.0
C1462 C 0.54269 0.13067 0.69274 0.0
C1463 C 0.55292 0.11981 0.68726 0.0
C1464 C 0.55809 0.12045 0.67071 0.0
C1465 C 0.55313 0.13202 0.65963 0.0
H1466 H 0.55677 0.11085 0.69582 0.0
H1467 H 0.50469 0.22059 0.58875 0.0
H1468 H 0.48059 0.6016 0.74715 0.0
H1469 H 0.46238 0.60032 0.77271 0.0
H1470 H 0.52235 0.62767 0.79872 0.0
H1471 H 0.54058 0.62869 0.7732 0.0
H1472 H 0.4902 0.59708 0.8168 0.0
H1473 H 0.50373 0.65896 0.78603 0.0
H1474 H 0.50242 0.6782 0.76159 0.0
H1475 H 0.43394 0.64337 0.76279 0.0
H1476 H 0.43486 0.62369 0.78711 0.0
H1477 H 0.45311 0.66053 0.8709 0.0
H1478 H 0.46863 0.65596 0.84583 0.0
H1479 H 0.43165 0.58776 0.85123 0.0
H1480 H 0.41631 0.59218 0.87657 0.0
H1481 H 0.45207 0.63801 0.81743 0.0
H1482 H 0.46079 0.56597 0.83628 0.0
H1483 H 0.46544 0.54971 0.86132 0.0
H1484 H 0.49522 0.61052 0.88547 0.0
H1485 H 0.491 0.62718 0.86051 0.0
C1486 C 0.48979 0.60697 0.75839 0.0
C1487 C 0.51195 0.61513 0.75825 0.0
C1488 C 0.47941 0.60631 0.77294 0.0
C1489 C 0.49106 0.61409 0.78756 0.0
C1490 C 0.51307 0.62152 0.78758 0.0
C1491 C 0.52345 0.62214 0.77302 0.0
C1492 C 0.48062 0.61587 0.80257 0.0
C1493 C 0.48174 0.60591 0.81694 0.0
C1494 C 0.46996 0.62774 0.8028 0.0
C1495 C 0.46936 0.63971 0.78828 0.0
C1496 C 0.48839 0.6553 0.78101 0.0
C1497 C 0.48772 0.6663 0.76719 0.0
C1498 C 0.46811 0.66197 0.76061 0.0
C1499 C 0.44912 0.64668 0.76788 0.0
C1500 C 0.44971 0.63561 0.78169 0.0
C1501 C 0.44821 0.64453 0.86677 0.0
C1502 C 0.43353 0.62671 0.8758 0.0
C1503 C 0.45707 0.64196 0.8524 0.0
C1504 C 0.45146 0.62154 0.84674 0.0
C1505 C 0.43647 0.60368 0.85551 0.0
C1506 C 0.42765 0.60624 0.86996 0.0
C1507 C 0.46149 0.6191 0.8317 0.0
C1508 C 0.4603 0.62896 0.81729 0.0
C1509 C 0.4725 0.60755 0.83157 0.0
C1510 C 0.47534 0.59776 0.84659 0.0
C1511 C 0.46838 0.57587 0.84692 0.0
C1512 C 0.47094 0.56659 0.8611 0.0
C1513 C 0.48054 0.57906 0.875 0.0
C1514 C 0.4877 0.60086 0.87472 0.0
C1515 C 0.4852 0.61023 0.86057 0.0
H1516 H 0.48249 0.57184 0.88597 0.0
H1517 H 0.46762 0.6705 0.74991 0.0
H1518 H 0.91414 0.40805 0.90545 0.0
H1519 H 0.89214 0.41171 0.93377 0.0
H1520 H 0.88057 0.34241 0.95603 0.0
H1521 H 0.90231 0.33691 0.92838 0.0
H1522 H 0.84769 0.34882 0.95987 0.0
H1523 H 0.92069 0.40075 0.97551 0.0
H1524 H 0.95669 0.43133 0.97064 0.0
H1525 H 0.92938 0.46993 0.95748 0.0
H1526 H 0.89323 0.43952 0.96225 0.0
H1527 H 0.81925 0.35993 0.04024 0.0
H1528 H 0.8371 0.35714 0.01587 0.0
H1529 H 0.84193 0.41489 0.99696 0.0
H1530 H 0.82467 0.41818 0.02165 0.0
H1531 H 0.87794 0.41552 0.99244 0.0
H1532 H 0.80477 0.36447 0.98188 0.0
H1533 H 0.76923 0.33387 0.98784 0.0
H1534 H 0.7962 0.29307 0.99141 0.0
H1535 H 0.83196 0.32349 0.9857 0.0
C1536 C 0.90727 0.39557 0.91453 0.0
C1537 C 0.91395 0.37389 0.91552 0.0
C1538 C 0.89456 0.39822 0.9326 0.0
C1539 C 0.88541 0.37833 0.94853 0.0
C1540 C 0.88709 0.35439 0.94656 0.0
C1541 C 0.89957 0.35025 0.92899 0.0
C1542 C 0.87432 0.38056 0.96288 0.0
C1543 C 0.85442 0.36329 0.96714 0.0
C1544 C 0.88277 0.39964 0.97202 0.0
C1545 C 0.90434 0.41783 0.96895 0.0
C1546 C 0.9224 0.41575 0.97149 0.0
C1547 C 0.94282 0.43305 0.96878 0.0
C1548 C 0.94532 0.45254 0.96367 0.0
C1549 C 0.92741 0.4548 0.96136 0.0
C1550 C 0.90698 0.43756 0.96408 0.0
C1551 C 0.82404 0.37202 0.03088 0.0
C1552 C 0.82046 0.38924 0.03286 0.0
C1553 C 0.83415 0.37034 0.0169 0.0
C1554 C 0.84052 0.38559 0.00442 0.0
C1555 C 0.83709 0.40288 0.0064 0.0
C1556 C 0.8272 0.40473 0.0205 0.0
C1557 C 0.85123 0.38374 0.98953 0.0
C1558 C 0.87109 0.40105 0.98515 0.0
C1559 C 0.84262 0.3647 0.98021 0.0
C1560 C 0.82108 0.34631 0.9835 0.0
C1561 C 0.80315 0.349 0.98404 0.0
C1562 C 0.78296 0.33168 0.98736 0.0
C1563 C 0.78047 0.31155 0.99003 0.0
C1564 C 0.79815 0.30868 0.98935 0.0
C1565 C 0.81838 0.32595 0.98605 0.0
H1566 H 0.76482 0.29817 0.99261 0.0
H1567 H 0.96112 0.4659 0.96156 0.0
H1568 H 0.46427 0.93228 0.0962 0.0
H1569 H 0.45858 0.91101 0.12084 0.0
H1570 H 0.39365 0.89816 0.12343 0.0
H1571 H 0.39957 0.92016 0.09919 0.0
H1572 H 0.41021 0.90598 0.1528 0.0
H1573 H 0.40704 0.86147 0.108 0.0
H1574 H 0.4201 0.85224 0.08319 0.0
H1575 H 0.47441 0.85922 0.10993 0.0
H1576 H 0.46182 0.86879 0.13484 0.0
H1577 H 0.36845 0.81682 0.20569 0.0
H1578 H 0.37567 0.83862 0.18115 0.0
H1579 H 0.44216 0.85682 0.18388 0.0
H1580 H 0.43514 0.83508 0.20843 0.0
H1581 H 0.4256 0.84657 0.15221 0.0
H1582 H 0.42777 0.89055 0.1972 0.0
H1583 H 0.41386 0.89911 0.22184 0.0
H1584 H 0.36006 0.89207 0.19432 0.0
H1585 H 0.3735 0.88315 0.16955 0.0
C1586 C 0.44892 0.92524 0.1022 0.0
C1587 C 0.43248 0.92827 0.09599 0.0
C1588 C 0.4456 0.91287 0.11617 0.0
C1589 C 0.42561 0.90278 0.1239 0.0
C1590 C 0.40923 0.90585 0.11774 0.0
C1591 C 0.41262 0.91841 0.1039 0.0
C1592 C 0.42161 0.88886 0.13833 0.0
C1593 C 0.41333 0.89283 0.15258 0.0
C1594 C 0.42607 0.87194 0.13818 0.0
C1595 C 0.43359 0.86605 0.12324 0.0
C1596 C 0.42184 0.86118 0.10856 0.0
C1597 C 0.42915 0.85587 0.09448 0.0
C1598 C 0.4481 0.85519 0.09497 0.0
C1599 C 0.45975 0.85977 0.10956 0.0
C1600 C 0.45253 0.86513 0.12366 0.0
C1601 C 0.38459 0.82533 0.20102 0.0
C1602 C 0.40125 0.8243 0.20907 0.0
C1603 C 0.38869 0.83784 0.18703 0.0
C1604 C 0.40949 0.84949 0.18083 0.0
C1605 C 0.42602 0.84797 0.18852 0.0
C1606 C 0.42197 0.83559 0.20257 0.0
C1607 C 0.41408 0.86365 0.16654 0.0
C1608 C 0.4225 0.85974 0.15237 0.0
C1609 C 0.40959 0.88052 0.16671 0.0
C1610 C 0.40154 0.88598 0.18156 0.0
C1611 C 0.41288 0.89065 0.19643 0.0
C1612 C 0.4051 0.8956 0.21042 0.0
C1613 C 0.38605 0.89608 0.20966 0.0
C1614 C 0.37479 0.89166 0.1949 0.0
C1615 C 0.38249 0.88668 0.18088 0.0
H1616 H 0.38005 0.89992 0.2205 0.0
H1617 H 0.45374 0.85108 0.08406 0.0
H1618 H 0.63099 0.5257 0.24214 0.0
H1619 H 0.62531 0.50283 0.26584 0.0
H1620 H 0.67768 0.55527 0.29107 0.0
H1621 H 0.68312 0.57838 0.26754 0.0
H1622 H 0.67959 0.51684 0.29021 0.0
H1623 H 0.63075 0.54125 0.30363 0.0
H1624 H 0.60092 0.54776 0.29849 0.0
H1625 H 0.55833 0.48074 0.29184 0.0
H1626 H 0.588 0.47385 0.2967 0.0
H1627 H 0.66957 0.47526 0.36908 0.0
H1628 H 0.67158 0.4968 0.34564 0.0
H1629 H 0.61304 0.44477 0.32643 0.0
H1630 H 0.61058 0.42311 0.35025 0.0
H1631 H 0.61339 0.48167 0.32329 0.0
H1632 H 0.66141 0.45669 0.31026 0.0
H1633 H 0.69091 0.44962 0.31527 0.0
H1634 H 0.73469 0.51662 0.32037 0.0
H1635 H 0.70539 0.52409 0.31562 0.0
C1636 C 0.64118 0.53238 0.25279 0.0
C1637 C 0.65771 0.55373 0.25291 0.0
C1638 C 0.6379 0.51933 0.26631 0.0
C1639 C 0.65114 0.52738 0.28013 0.0
C1640 C 0.66739 0.54877 0.28044 0.0
C1641 C 0.67049 0.56192 0.26702 0.0
C1642 C 0.64855 0.51325 0.29404 0.0
C1643 C 0.66524 0.50934 0.29759 0.0
C1644 C 0.62953 0.50297 0.30326 0.0
C1645 C 0.61165 0.50706 0.30034 0.0
C1646 C 0.61507 0.52792 0.30091 0.0
C1647 C 0.59818 0.53167 0.29808 0.0
C1648 C 0.57776 0.51468 0.29479 0.0
C1649 C 0.57417 0.49389 0.29436 0.0
C1650 C 0.59102 0.49005 0.29716 0.0
C1651 C 0.65711 0.4683 0.35988 0.0
C1652 C 0.63998 0.44737 0.36149 0.0
C1653 C 0.65833 0.48065 0.34644 0.0
C1654 C 0.64267 0.47228 0.33412 0.0
C1655 C 0.62535 0.45151 0.33576 0.0
C1656 C 0.62401 0.43914 0.34934 0.0
C1657 C 0.64454 0.48537 0.31961 0.0
C1658 C 0.62772 0.48906 0.31589 0.0
C1659 C 0.6634 0.49533 0.31012 0.0
C1660 C 0.68115 0.49093 0.31272 0.0
C1661 C 0.6773 0.46991 0.31254 0.0
C1662 C 0.69399 0.46583 0.31533 0.0
C1663 C 0.71465 0.48266 0.31818 0.0
C1664 C 0.71868 0.50361 0.31818 0.0
C1665 C 0.70204 0.50777 0.31542 0.0
H1666 H 0.72754 0.47946 0.32037 0.0
H1667 H 0.5647 0.51762 0.29262 0.0
H1668 H 0.42245 0.96074 0.38343 0.0
H1669 H 0.42351 0.93487 0.3648 0.0
H1670 H 0.35518 0.89508 0.36857 0.0
H1671 H 0.35412 0.92078 0.38755 0.0
H1672 H 0.37435 0.87157 0.37008 0.0
H1673 H 0.37752 0.92584 0.33516 0.0
H1674 H 0.391 0.96239 0.32514 0.0
H1675 H 0.45229 0.96866 0.31605 0.0
H1676 H 0.43925 0.93223 0.32625 0.0
H1677 H 0.35753 0.81042 0.2972 0.0
H1678 H 0.35783 0.83379 0.3189 0.0
H1679 H 0.42659 0.86914 0.31786 0.0
H1680 H 0.42648 0.84573 0.29616 0.0
H1681 H 0.40777 0.89458 0.31539 0.0
H1682 H 0.40298 0.83872 0.34966 0.0
H1683 H 0.38804 0.8017 0.35903 0.0
H1684 H 0.32786 0.79785 0.36836 0.0
H1685 H 0.34236 0.83478 0.35883 0.0
C1686 C 0.40769 0.94636 0.38041 0.0
C1687 C 0.38823 0.94258 0.38714 0.0
C1688 C 0.40829 0.93168 0.36969 0.0
C1689 C 0.3894 0.91312 0.36521 0.0
C1690 C 0.36995 0.90926 0.37192 0.0
C1691 C 0.36935 0.92393 0.38272 0.0
C1692 C 0.38998 0.89788 0.35338 0.0
C1693 C 0.38143 0.87654 0.35805 0.0
C1694 C 0.39957 0.90446 0.33779 0.0
C1695 C 0.40747 0.92638 0.33164 0.0
C1696 C 0.39392 0.93508 0.33116 0.0
C1697 C 0.40148 0.95576 0.32542 0.0
C1698 C 0.42251 0.96786 0.32001 0.0
C1699 C 0.43601 0.95928 0.32028 0.0
C1700 C 0.42855 0.93861 0.32602 0.0
C1701 C 0.37274 0.823 0.30171 0.0
C1702 C 0.39199 0.82627 0.29492 0.0
C1703 C 0.37287 0.83629 0.31415 0.0
C1704 C 0.39223 0.85314 0.31999 0.0
C1705 C 0.41149 0.85619 0.31351 0.0
C1706 C 0.41139 0.84275 0.30117 0.0
C1707 C 0.39223 0.86833 0.33213 0.0
C1708 C 0.40082 0.88966 0.32747 0.0
C1709 C 0.38247 0.86167 0.34763 0.0
C1710 C 0.37371 0.83946 0.35338 0.0
C1711 C 0.38651 0.82993 0.35357 0.0
C1712 C 0.37813 0.80897 0.35894 0.0
C1713 C 0.357 0.79741 0.36425 0.0
C1714 C 0.34422 0.80682 0.36423 0.0
C1715 C 0.35252 0.82777 0.35886 0.0
H1716 H 0.35054 0.78119 0.3684 0.0
H1717 H 0.42832 0.98387 0.31556 0.0
H1718 H 0.61862 0.53034 0.55225 0.0
H1719 H 0.6239 0.51394 0.52791 0.0
H1720 H 0.56294 0.45746 0.53588 0.0
H1721 H 0.55791 0.47365 0.5606 0.0
H1722 H 0.59159 0.44679 0.52859 0.0
H1723 H 0.57006 0.49283 0.50485 0.0
H1724 H 0.56991 0.52628 0.5 0.0
H1725 H 0.63456 0.55588 0.48299 0.0
H1726 H 0.63521 0.52269 0.48796 0.0
H1727 H 0.59097 0.40719 0.44717 0.0
H1728 H 0.58192 0.42078 0.47154 0.0
H1729 H 0.64657 0.47312 0.47426 0.0
H1730 H 0.65588 0.4595 0.4501 0.0
H1731 H 0.61315 0.48432 0.47528 0.0
H1732 H 0.63377 0.43705 0.50062 0.0
H1733 H 0.632 0.40255 0.5048 0.0
H1734 H 0.56587 0.37397 0.51775 0.0
H1735 H 0.56718 0.40825 0.51341 0.0
C1736 C 0.60622 0.51455 0.54866 0.0
C1737 C 0.5876 0.50352 0.55805 0.0
C1738 C 0.60921 0.5052 0.53474 0.0
C1739 C 0.59361 0.48464 0.52986 0.0
C1740 C 0.5751 0.47343 0.53933 0.0
C1741 C 0.57216 0.48274 0.55335 0.0
C1742 C 0.59711 0.47467 0.51519 0.0
C1743 C 0.59594 0.45485 0.51686 0.0
C1744 C 0.60302 0.48527 0.49992 0.0
C1745 C 0.60274 0.50531 0.49692 0.0
C1746 C 0.58431 0.50652 0.5002 0.0
C1747 C 0.58412 0.52543 0.49741 0.0
C1748 C 0.60223 0.54321 0.49123 0.0
C1749 C 0.62055 0.5421 0.4878 0.0
C1750 C 0.62083 0.52323 0.49058 0.0
C1751 C 0.6033 0.4215 0.45303 0.0
C1752 C 0.62414 0.43229 0.44672 0.0
C1753 C 0.5981 0.4292 0.46694 0.0
C1754 C 0.61359 0.44793 0.47462 0.0
C1755 C 0.63442 0.45864 0.46845 0.0
C1756 C 0.63972 0.45078 0.45471 0.0
C1757 C 0.60795 0.45674 0.48884 0.0
C1758 C 0.60866 0.47629 0.48702 0.0
C1759 C 0.60131 0.44575 0.50387 0.0
C1760 C 0.60051 0.42515 0.5065 0.0
C1761 C 0.6188 0.42336 0.50419 0.0
C1762 C 0.61789 0.40385 0.50663 0.0
C1763 C 0.59881 0.38606 0.51149 0.0
C1764 C 0.58062 0.38775 0.51396 0.0
C1765 C 0.58144 0.40722 0.51152 0.0
H1766 H 0.59815 0.37098 0.51338 0.0
H1767 H 0.60205 0.55783 0.48907 0.0
H1768 H 0.1256 0.49925 0.74971 0.0
H1769 H 0.14066 0.5213 0.72528 0.0
H1770 H 0.13188 0.46637 0.6982 0.0
H1771 H 0.11642 0.44415 0.72253 0.0
H1772 H 0.17342 0.50242 0.69586 0.0
H1773 H 0.10009 0.48441 0.69012 0.0
H1774 H 0.0663 0.48146 0.69933 0.0
H1775 H 0.0977 0.54918 0.70621 0.0
H1776 H 0.13177 0.5525 0.69727 0.0
H1777 H 0.19768 0.54561 0.61665 0.0
H1778 H 0.17984 0.52379 0.64046 0.0
H1779 H 0.18025 0.57741 0.66376 0.0
H1780 H 0.19763 0.59929 0.63967 0.0
H1781 H 0.14312 0.54252 0.66855 0.0
H1782 H 0.21613 0.56138 0.67472 0.0
H1783 H 0.25062 0.56538 0.66624 0.0
H1784 H 0.22123 0.49773 0.65981 0.0
H1785 H 0.18647 0.49335 0.66802 0.0
C1786 C 0.1267 0.49185 0.7385 0.0
C1787 C 0.12001 0.47003 0.73804 0.0
C1788 C 0.13528 0.50444 0.72458 0.0
C1789 C 0.13739 0.49544 0.70998 0.0
C1790 C 0.13044 0.4736 0.70939 0.0
C1791 C 0.12162 0.46095 0.72326 0.0
C1792 C 0.14752 0.50897 0.69547 0.0
C1793 C 0.16667 0.51097 0.68972 0.0
C1794 C 0.13902 0.52063 0.68787 0.0
C1795 C 0.11853 0.51868 0.69319 0.0
C1796 C 0.09983 0.49866 0.69374 0.0
C1797 C 0.08062 0.49692 0.69888 0.0
C1798 C 0.07987 0.51511 0.7034 0.0
C1799 C 0.09832 0.53509 0.70273 0.0
C1800 C 0.11758 0.53691 0.69762 0.0
C1801 C 0.194 0.55281 0.62682 0.0
C1802 C 0.19922 0.57426 0.62629 0.0
C1803 C 0.18385 0.54031 0.64047 0.0
C1804 C 0.17904 0.54905 0.65403 0.0
C1805 C 0.18387 0.57035 0.65345 0.0
C1806 C 0.19385 0.58285 0.6397 0.0
C1807 C 0.16902 0.5359 0.6688 0.0
C1808 C 0.14992 0.534 0.67466 0.0
C1809 C 0.17771 0.52451 0.67664 0.0
C1810 C 0.19864 0.52706 0.67185 0.0
C1811 C 0.21699 0.54737 0.67139 0.0
C1812 C 0.23659 0.5497 0.66664 0.0
C1813 C 0.2381 0.53183 0.66245 0.0
C1814 C 0.22002 0.51157 0.66304 0.0
C1815 C 0.20037 0.50914 0.66776 0.0
H1816 H 0.25329 0.53367 0.65878 0.0
H1817 H 0.06497 0.51373 0.70738 0.0
H1818 H 0.50895 0.05922 0.85976 0.0
H1819 H 0.53442 0.09001 0.84383 0.0
H1820 H 0.51128 0.12834 0.86649 0.0
H1821 H 0.48551 0.09744 0.88223 0.0
H1822 H 0.51253 0.1322 0.8341 0.0
H1823 H 0.56101 0.13605 0.87563 0.0
H1824 H 0.57893 0.12231 0.89343 0.0
H1825 H 0.60446 0.10763 0.85119 0.0
H1826 H 0.58643 0.12099 0.8331 0.0
H1827 H 0.58639 0.22519 0.7931 0.0
H1828 H 0.56869 0.20087 0.81584 0.0
H1829 H 0.58845 0.15798 0.79673 0.0
H1830 H 0.60668 0.18247 0.77418 0.0
H1831 H 0.59018 0.15883 0.8295 0.0
H1832 H 0.53884 0.1509 0.78822 0.0
H1833 H 0.52018 0.16333 0.76991 0.0
H1834 H 0.49942 0.18444 0.8115 0.0
H1835 H 0.5182 0.17237 0.83004 0.0
C1836 C 0.50961 0.07433 0.86155 0.0
C1837 C 0.49551 0.07605 0.87241 0.0
C1838 C 0.52419 0.09192 0.8525 0.0
C1839 C 0.52495 0.11156 0.85413 0.0
C1840 C 0.51106 0.11338 0.86512 0.0
C1841 C 0.49645 0.09578 0.87416 0.0
C1842 C 0.53904 0.12967 0.84344 0.0
C1843 C 0.52959 0.13832 0.83336 0.0
C1844 C 0.56119 0.13726 0.84215 0.0
C1845 C 0.57223 0.12939 0.853 0.0
C1846 C 0.57032 0.12976 0.87012 0.0
C1847 C 0.58052 0.12206 0.88027 0.0
C1848 C 0.59279 0.11407 0.87344 0.0
C1849 C 0.59494 0.11382 0.85646 0.0
C1850 C 0.58475 0.12148 0.84625 0.0
C1851 C 0.58722 0.21072 0.79384 0.0
C1852 C 0.59772 0.20564 0.78171 0.0
C1853 C 0.57705 0.19681 0.80684 0.0
C1854 C 0.57688 0.17741 0.8078 0.0
C1855 C 0.58831 0.17283 0.7962 0.0
C1856 C 0.59867 0.18683 0.78328 0.0
C1857 C 0.56362 0.16124 0.82016 0.0
C1858 C 0.57318 0.1529 0.83046 0.0
C1859 C 0.5415 0.15379 0.82162 0.0
C1860 C 0.53011 0.16095 0.81049 0.0
C1861 C 0.53042 0.15833 0.79344 0.0
C1862 C 0.5198 0.16529 0.78303 0.0
C1863 C 0.50867 0.17473 0.78954 0.0
C1864 C 0.50808 0.17716 0.80648 0.0
C1865 C 0.5187 0.17026 0.81694 0.0
H1866 H 0.50046 0.1801 0.78146 0.0
H1867 H 0.60067 0.1081 0.88132 0.0
H1868 H 0.58211 0.69124 0.06232 0.0
H1869 H 0.55177 0.68664 0.03733 0.0
H1870 H 0.49461 0.61984 0.06324 0.0
H1871 H 0.52346 0.62271 0.08904 0.0
H1872 H 0.49814 0.61693 0.02963 0.0
H1873 H 0.4988 0.6733 0.0603 0.0
H1874 H 0.5149 0.70798 0.07448 0.0
H1875 H 0.54277 0.74001 0.02934 0.0
H1876 H 0.52709 0.7055 0.01492 0.0
H1877 H 0.41833 0.60867 0.97368 0.0
H1878 H 0.43901 0.61194 0.99841 0.0
H1879 H 0.49194 0.66979 0.97956 0.0
H1880 H 0.47114 0.66707 0.95527 0.0
H1881 H 0.48721 0.6754 0.00989 0.0
H1882 H 0.48987 0.61986 0.9795 0.0
H1883 H 0.4751 0.58551 0.96496 0.0
H1884 H 0.44269 0.55246 0.00867 0.0
H1885 H 0.45706 0.58666 0.02342 0.0
C1886 C 0.56561 0.67872 0.06304 0.0
C1887 C 0.55695 0.65533 0.07667 0.0
C1888 C 0.54685 0.67517 0.04714 0.0
C1889 C 0.52026 0.65225 0.04712 0.0
C1890 C 0.51087 0.63293 0.06343 0.0
C1891 C 0.52838 0.63505 0.07991 0.0
C1892 C 0.50562 0.64929 0.03352 0.0
C1893 C 0.49546 0.62959 0.02543 0.0
C1894 C 0.50257 0.66599 0.02793 0.0
C1895 C 0.51192 0.68678 0.03656 0.0
C1896 C 0.50849 0.68772 0.05342 0.0
C1897 C 0.51752 0.70736 0.06149 0.0
C1898 C 0.52989 0.72618 0.05282 0.0
C1899 C 0.5332 0.72542 0.03604 0.0
C1900 C 0.52422 0.70582 0.02791 0.0
C1901 C 0.43438 0.62205 0.97483 0.0
C1902 C 0.44309 0.63762 0.96254 0.0
C1903 C 0.44623 0.62386 0.98893 0.0
C1904 C 0.46716 0.641 0.99079 0.0
C1905 C 0.47582 0.65647 0.97847 0.0
C1906 C 0.4639 0.65487 0.96455 0.0
C1907 C 0.48008 0.64317 0.00559 0.0
C1908 C 0.48983 0.66269 0.01404 0.0
C1909 C 0.48301 0.62639 0.01136 0.0
C1910 C 0.47434 0.60583 0.00251 0.0
C1911 C 0.47945 0.60528 0.98597 0.0
C1912 C 0.47118 0.58584 0.9777 0.0
C1913 C 0.45791 0.56682 0.98587 0.0
C1914 C 0.45293 0.56721 0.00235 0.0
C1915 C 0.46115 0.58661 0.01067 0.0
H1916 H 0.45152 0.55179 0.97944 0.0
H1917 H 0.53688 0.74136 0.0591 0.0
H1918 H 0.93289 0.39897 0.21925 0.0
H1919 H 0.90126 0.39402 0.20441 0.0
H1920 H 0.93879 0.45556 0.18193 0.0
H1921 H 0.97037 0.46067 0.19691 0.0
H1922 H 0.898 0.44715 0.18964 0.0
H1923 H 0.93171 0.4124 0.16242 0.0
H1924 H 0.94593 0.38784 0.16093 0.0
H1925 H 0.88412 0.33527 0.17258 0.0
H1926 H 0.86962 0.3596 0.1744 0.0
H1927 H 0.84668 0.43767 0.11357 0.0
H1928 H 0.87002 0.44302 0.13685 0.0
H1929 H 0.82883 0.37794 0.15171 0.0
H1930 H 0.80564 0.37228 0.12817 0.0
H1931 H 0.86833 0.38637 0.15068 0.0
H1932 H 0.83341 0.4208 0.17444 0.0
H1933 H 0.81946 0.44557 0.17582 0.0
H1934 H 0.88289 0.49868 0.17059 0.0
H1935 H 0.89721 0.47422 0.16894 0.0
C1936 C 0.93423 0.41163 0.21145 0.0
C1937 C 0.95403 0.43026 0.20928 0.0
C1938 C 0.91621 0.40877 0.20294 0.0
C1939 C 0.91775 0.42435 0.19197 0.0
C1940 C 0.93725 0.44338 0.19039 0.0
C1941 C 0.95527 0.44626 0.1989 0.0
C1942 C 0.89971 0.42003 0.18094 0.0
C1943 C 0.89152 0.43393 0.18105 0.0
C1944 C 0.891 0.4025 0.17001 0.0
C1945 C 0.89965 0.38784 0.16873 0.0
C1946 C 0.9212 0.39562 0.16478 0.0
C1947 C 0.9293 0.38175 0.16387 0.0
C1948 C 0.91595 0.36002 0.1667 0.0
C1949 C 0.89445 0.35211 0.17042 0.0
C1950 C 0.88628 0.36593 0.17139 0.0
C1951 C 0.84238 0.42456 0.12191 0.0
C1952 C 0.82435 0.4045 0.11893 0.0
C1953 C 0.8557 0.42769 0.13531 0.0
C1954 C 0.85111 0.41093 0.14613 0.0
C1955 C 0.8327 0.3911 0.14352 0.0
C1956 C 0.81944 0.38791 0.13006 0.0
C1957 C 0.86654 0.41357 0.15922 0.0
C1958 C 0.87441 0.39939 0.15944 0.0
C1959 C 0.8749 0.43085 0.17041 0.0
C1960 C 0.86637 0.44564 0.17145 0.0
C1961 C 0.84438 0.43775 0.17346 0.0
C1962 C 0.8364 0.45174 0.17431 0.0
C1963 C 0.85028 0.47368 0.17326 0.0
C1964 C 0.87216 0.48168 0.17139 0.0
C1965 C 0.88022 0.46776 0.17052 0.0
H1966 H 0.84407 0.48449 0.17392 0.0
H1967 H 0.92225 0.34929 0.16599 0.0
loop_
_geom_bond_atom_site_label_1
_geom_bond_atom_site_label_2
_geom_bond_distance
_geom_bond_site_symmetry_2
_ccdc_geom_bond_type
C0 C1 1.560 . S
C0 H61 0.959 . S
C0 H62 0.959 . S
C0 H63 0.960 . S
C1 C0 1.560 . S
C1 O56 1.426 . S
C1 H60 0.980 . S
C2 C3 1.407 . S
C2 C7 1.418 . S
C2 O56 1.334 . S
C3 C2 1.407 . S
C3 C4 1.360 . S
C3 H64 0.929 . S
C4 C3 1.360 . S
C4 C5 1.401 . S
C4 C8 1.527 . S
C5 C4 1.401 . S
C5 C6 1.405 . S
C5 C38 1.587 . S
C6 C5 1.405 . S
C6 C7 1.332 . S
C6 C9 1.496 . S
C7 C2 1.418 . S
C7 C6 1.332 . S
C7 H65 0.929 . S
C8 C4 1.527 . S
C8 H66 0.959 . S
C8 H67 0.961 . S
C8 H68 0.961 . S
C9 C6 1.496 . S
C9 H69 0.960 . S
C9 H70 0.960 . S
C9 H71 0.961 . S
C10 C11 1.517 . S
C10 H73 0.961 . S
C10 H74 0.960 . S
C10 H75 0.959 . S
C11 C10 1.517 . S
C11 O59 1.468 . S
C11 H72 0.980 . S
C12 C13 1.349 . S
C12 C17 1.367 . S
C12 O59 1.408 . S
C13 C12 1.349 . S
C13 C14 1.407 . S
C13 H76 0.930 . S
C14 C13 1.407 . S
C14 C15 1.449 . S
C14 C18 1.528 . S
C15 C14 1.449 . S
C15 C16 1.384 . S
C15 C40 1.553 1_655 S
C16 C15 1.384 . S
C16 C17 1.364 . S
C16 C19 1.494 . S
C17 C12 1.367 . S
C17 C16 1.364 . S
C17 H77 0.931 . S
C18 C14 1.528 . S
C18 H78 0.935 1_655 S
C18 H79 0.960 1_655 S
C18 H80 0.994 . S
C19 C16 1.494 . S
C19 H81 0.946 . S
C19 H82 0.908 1_655 S
C19 H83 0.988 . S
C20 C21 1.309 . S
C20 C25 1.304 . S
C20 O58 1.435 . S
C21 C20 1.309 . S
C21 C22 1.476 . S
C21 H85 0.930 . S
C22 C21 1.476 . S
C22 C23 1.400 . S
C22 C26 1.567 . S
C23 C22 1.400 . S
C23 C24 1.373 . S
C23 C45 1.432 . S
C24 C23 1.373 . S
C24 C25 1.339 . S
C24 C27 1.530 . S
C25 C20 1.304 . S
C25 C24 1.339 . S
C25 H86 0.930 . S
C26 C22 1.567 . S
C26 H87 0.961 . S
C26 H88 0.960 . S
C26 H89 0.958 . S
C27 C24 1.530 . S
C27 H90 0.961 . S
C27 H91 0.960 . S
C27 H92 0.960 . S
C28 C29 1.530 . S
C28 H94 0.961 . S
C28 H95 0.961 . S
C28 H96 0.959 . S
C29 C28 1.530 . S
C29 O57 1.412 . S
C29 H93 0.980 . S
C30 C31 1.288 . S
C30 C35 1.377 . S
C30 O57 1.393 . S
C31 C30 1.288 . S
C31 C32 1.369 . S
C31 H97 0.932 . S
C32 C31 1.369 . S
C32 C33 1.398 . S
C32 C36 1.527 . S
C33 C32 1.398 . S
C33 C34 1.380 . S
C33 C47 1.497 . S
C34 C33 1.380 . S
C34 C35 1.383 . S
C34 C37 1.603 . S
C35 C30 1.377 . S
C35 C34 1.383 . S
C35 H98 0.929 . S
C36 C32 1.527 . S
C36 H99 0.961 . S
C36 H100 0.959 . S
C36 H101 0.959 . S
C37 C34 1.603 . S
C37 H102 0.960 . S
C37 H103 0.962 . S
C37 H104 0.961 . S
C38 C5 1.587 . S
C38 C39 1.360 . S
C38 C51 1.412 . S
C39 C38 1.360 . S
C39 C40 1.365 . S
C39 H105 0.929 . S
C40 C15 1.553 1_455 S
C40 C39 1.365 . S
C40 C41 1.404 . S
C41 C40 1.404 . S
C41 C42 1.395 1_455 S
C41 C52 1.451 . S
C42 C41 1.395 1_655 S
C42 C43 1.322 . S
C42 H106 0.930 . S
C43 C42 1.322 . S
C43 C44 1.459 . S
C43 H107 0.929 . S
C44 C43 1.459 . S
C44 C45 1.445 . S
C44 C53 1.395 1_655 S
C45 C23 1.432 . S
C45 C44 1.445 . S
C45 C46 1.370 . S
C46 C45 1.370 . S
C46 C47 1.438 1_655 S
C46 H108 0.930 . S
C47 C33 1.497 . S
C47 C46 1.438 1_455 S
C47 C48 1.360 . S
C48 C47 1.360 . S
C48 C49 1.401 . S
C48 C53 1.446 . S
C49 C48 1.401 . S
C49 C50 1.347 . S
C49 H109 0.929 . S
C50 C49 1.347 . S
C50 C51 1.455 . S
C50 H110 0.930 . S
C51 C38 1.412 . S
C51 C50 1.455 . S
C51 C52 1.331 . S
C52 C41 1.451 . S
C52 C51 1.331 . S
C52 C53 1.497 . S
C53 C44 1.395 1_455 S
C53 C48 1.446 . S
C53 C52 1.497 . S
C54 C55 1.582 . S
C54 H111 0.962 . S
C54 H112 0.959 . S
C54 H113 0.958 . S
C55 C54 1.582 . S
C55 O58 1.458 . S
C55 H84 0.980 . S
O56 C1 1.426 . S
O56 C2 1.334 . S
O57 C29 1.412 . S
O57 C30 1.393 . S
O58 C20 1.435 . S
O58 C55 1.458 . S
O59 C11 1.468 . S
O59 C12 1.408 . S
H60 C1 0.980 . S
H61 C0 0.959 . S
H62 C0 0.959 . S
H63 C0 0.960 . S
H64 C3 0.929 . S
H65 C7 0.929 . S
H66 C8 0.959 . S
H67 C8 0.961 . S
H68 C8 0.961 . S
H69 C9 0.960 . S
H70 C9 0.960 . S
H71 C9 0.961 . S
H72 C11 0.980 . S
H73 C10 0.961 . S
H74 C10 0.960 . S
H75 C10 0.959 . S
H76 C13 0.930 . S
H77 C17 0.931 . S
H78 C18 0.935 1_455 S
H79 C18 0.960 1_455 S
H80 C18 0.994 . S
H81 C19 0.946 . S
H82 C19 0.908 1_455 S
H83 C19 0.988 . S
H84 C55 0.980 . S
H85 C21 0.930 . S
H86 C25 0.930 . S
H87 C26 0.961 . S
H88 C26 0.960 . S
H89 C26 0.958 . S
H90 C27 0.961 . S
H91 C27 0.960 . S
H92 C27 0.960 . S
H93 C29 0.980 . S
H94 C28 0.961 . S
H95 C28 0.961 . S
H96 C28 0.959 . S
H97 C31 0.932 . S
H98 C35 0.929 . S
H99 C36 0.961 . S
H100 C36 0.959 . S
H101 C36 0.959 . S
H102 C37 0.960 . S
H103 C37 0.962 . S
H104 C37 0.961 . S
H105 C39 0.929 . S
H106 C42 0.930 . S
H107 C43 0.929 . S
H108 C46 0.930 . S
H109 C49 0.929 . S
H110 C50 0.930 . S
H111 C54 0.962 . S
H112 C54 0.959 . S
H113 C54 0.958 . S
C114 C115 1.560 . S
C114 H175 0.959 . S
C114 H176 0.959 . S
C114 H177 0.960 . S
C115 C114 1.560 . S
C115 O170 1.426 . S
C115 H174 0.980 . S
C116 C117 1.407 . S
C116 C121 1.418 . S
C116 O170 1.334 . S
C117 C116 1.407 . S
C117 C118 1.360 . S
C117 H178 0.929 . S
C118 C117 1.360 . S
C118 C119 1.401 . S
C118 C122 1.527 . S
C119 C118 1.401 . S
C119 C120 1.405 . S
C119 C152 1.587 . S
C120 C119 1.405 . S
C120 C121 1.332 . S
C120 C123 1.496 . S
C121 C116 1.418 . S
C121 C120 1.332 . S
C121 H179 0.929 . S
C122 C118 1.527 . S
C122 H180 0.959 . S
C122 H181 0.961 . S
C122 H182 0.961 . S
C123 C120 1.496 . S
C123 H183 0.960 . S
C123 H184 0.960 . S
C123 H185 0.961 . S
C124 C125 1.517 . S
C124 H187 0.961 . S
C124 H188 0.960 . S
C124 H189 0.959 . S
C125 C124 1.517 . S
C125 O173 1.468 . S
C125 H186 0.980 . S
C126 C127 1.349 . S
C126 C131 1.367 . S
C126 O173 1.408 . S
C127 C126 1.349 . S
C127 C128 1.407 . S
C127 H190 0.930 . S
C128 C127 1.407 . S
C128 C129 1.449 . S
C128 C132 1.535 . S
C129 C128 1.449 . S
C129 C130 1.384 . S
C129 C154 1.553 . S
C130 C129 1.384 . S
C130 C131 1.364 . S
C130 C133 1.450 . S
C131 C126 1.367 . S
C131 C130 1.364 . S
C131 H191 0.931 . S
C132 C128 1.535 . S
C132 H192 0.959 . S
C132 H193 0.961 . S
C132 H194 0.959 . S
C133 C130 1.450 . S
C133 H195 0.960 . S
C133 H196 0.960 . S
C133 H197 0.960 . S
C134 C135 1.309 . S
C134 C139 1.304 . S
C134 O172 1.435 . S
C135 C134 1.309 . S
C135 C136 1.476 . S
C135 H199 0.930 . S
C136 C135 1.476 . S
C136 C137 1.400 . S
C136 C140 1.567 . S
C137 C136 1.400 . S
C137 C138 1.373 . S
C137 C159 1.432 . S
C138 C137 1.373 . S
C138 C139 1.339 . S
C138 C141 1.530 . S
C139 C134 1.304 . S
C139 C138 1.339 . S
C139 H200 0.930 . S
C140 C136 1.567 . S
C140 H201 0.961 . S
C140 H202 0.960 . S
C140 H203 0.958 . S
C141 C138 1.530 . S
C141 H204 0.961 . S
C141 H205 0.960 . S
C141 H206 0.960 . S
C142 C143 1.530 . S
C142 H208 0.961 . S
C142 H209 0.961 . S
C142 H210 0.959 . S
C143 C142 1.530 . S
C143 O171 1.412 . S
C143 H207 0.980 . S
C144 C145 1.288 . S
C144 C149 1.377 . S
C144 O171 1.393 . S
C145 C144 1.288 . S
C145 C146 1.369 . S
C145 H211 0.932 . S
C146 C145 1.369 . S
C146 C147 1.398 . S
C146 C150 1.527 1_565 S
C147 C146 1.398 . S
C147 C148 1.380 . S
C147 C161 1.497 1_565 S
C148 C147 1.380 . S
C148 C149 1.383 . S
C148 C151 1.603 . S
C149 C144 1.377 . S
C149 C148 1.383 . S
C149 H212 0.929 . S
C150 C146 1.527 1_545 S
C150 H213 0.961 . S
C150 H214 0.959 . S
C150 H215 0.959 . S
C151 C148 1.603 . S
C151 H216 0.960 . S
C151 H217 0.962 1_565 S
C151 H218 0.961 . S
C152 C119 1.587 . S
C152 C153 1.360 . S
C152 C165 1.412 . S
C153 C152 1.360 . S
C153 C154 1.365 1_565 S
C153 H219 0.929 . S
C154 C129 1.553 . S
C154 C153 1.365 1_545 S
C154 C155 1.404 . S
C155 C154 1.404 . S
C155 C156 1.395 . S
C155 C166 1.451 . S
C156 C155 1.395 . S
C156 C157 1.322 . S
C156 H220 0.930 . S
C157 C156 1.322 . S
C157 C158 1.459 . S
C157 H221 0.929 . S
C158 C157 1.459 . S
C158 C159 1.445 . S
C158 C167 1.395 . S
C159 C137 1.432 . S
C159 C158 1.445 . S
C159 C160 1.370 . S
C160 C159 1.370 . S
C160 C161 1.438 . S
C160 H222 0.930 . S
C161 C147 1.497 1_545 S
C161 C160 1.438 . S
C161 C162 1.360 . S
C162 C161 1.360 . S
C162 C163 1.401 1_545 S
C162 C167 1.446 . S
C163 C162 1.401 1_565 S
C163 C164 1.347 . S
C163 H223 0.929 . S
C164 C163 1.347 . S
C164 C165 1.455 . S
C164 H224 0.930 . S
C165 C152 1.412 . S
C165 C164 1.455 . S
C165 C166 1.331 1_565 S
C166 C155 1.451 . S
C166 C165 1.331 1_545 S
C166 C167 1.497 . S
C167 C158 1.395 . S
C167 C162 1.446 . S
C167 C166 1.497 . S
C168 C169 1.582 . S
C168 H225 0.962 . S
C168 H226 0.959 . S
C168 H227 0.958 . S
C169 C168 1.582 . S
C169 O172 1.458 . S
C169 H198 0.980 . S
O170 C115 1.426 . S
O170 C116 1.334 . S
O171 C143 1.412 . S
O171 C144 1.393 . S
O172 C134 1.435 . S
O172 C169 1.458 . S
O173 C125 1.468 . S
O173 C126 1.408 . S
H174 C115 0.980 . S
H175 C114 0.959 . S
H176 C114 0.959 . S
H177 C114 0.960 . S
H178 C117 0.929 . S
H179 C121 0.929 . S
H180 C122 0.959 . S
H181 C122 0.961 . S
H182 C122 0.961 . S
H183 C123 0.960 . S
H184 C123 0.960 . S
H185 C123 0.961 . S
H186 C125 0.980 . S
H187 C124 0.961 . S
H188 C124 0.960 . S
H189 C124 0.959 . S
H190 C127 0.930 . S
H191 C131 0.931 . S
H192 C132 0.959 . S
H193 C132 0.961 . S
H194 C132 0.959 . S
H195 C133 0.960 . S
H196 C133 0.960 . S
H197 C133 0.960 . S
H198 C169 0.980 . S
H199 C135 0.930 . S
H200 C139 0.930 . S
H201 C140 0.961 . S
H202 C140 0.960 . S
H203 C140 0.958 . S
H204 C141 0.961 . S
H205 C141 0.960 . S
H206 C141 0.960 . S
H207 C143 0.980 . S
H208 C142 0.961 . S
H209 C142 0.961 . S
H210 C142 0.959 . S
H211 C145 0.932 . S
H212 C149 0.929 . S
H213 C150 0.961 . S
H214 C150 0.959 . S
H215 C150 0.959 . S
H216 C151 0.960 . S
H217 C151 0.962 1_545 S
H218 C151 0.961 . S
H219 C153 0.929 . S
H220 C156 0.930 . S
H221 C157 0.929 . S
H222 C160 0.930 . S
H223 C163 0.929 . S
H224 C164 0.930 . S
H225 C168 0.962 . S
H226 C168 0.959 . S
H227 C168 0.958 . S
C228 C229 1.560 . S
C228 H289 0.959 . S
C228 H290 0.959 . S
C228 H291 0.960 . S
C229 C228 1.560 . S
C229 O284 1.426 . S
C229 H288 0.980 . S
C230 C231 1.407 . S
C230 C235 1.418 . S
C230 O284 1.334 . S
C231 C230 1.407 . S
C231 C232 1.360 . S
C231 H292 0.929 . S
C232 C231 1.360 . S
C232 C233 1.401 . S
C232 C236 1.527 . S
C233 C232 1.401 . S
C233 C234 1.405 . S
C233 C266 1.587 . S
C234 C233 1.405 . S
C234 C235 1.332 . S
C234 C237 1.496 . S
C235 C230 1.418 . S
C235 C234 1.332 . S
C235 H293 0.929 . S
C236 C232 1.527 . S
C236 H294 0.959 . S
C236 H295 0.961 . S
C236 H296 0.961 . S
C237 C234 1.496 . S
C237 H297 0.960 . S
C237 H298 0.960 . S
C237 H299 0.961 . S
C238 C239 1.517 . S
C238 H301 0.961 . S
C238 H302 0.960 . S
C238 H303 0.959 . S
C239 C238 1.517 . S
C239 O287 1.468 . S
C239 H300 0.980 . S
C240 C241 1.349 . S
C240 C245 1.367 . S
C240 O287 1.408 . S
C241 C240 1.349 . S
C241 C242 1.407 . S
C241 H304 0.930 . S
C242 C241 1.407 . S
C242 C243 1.449 . S
C242 C246 1.535 . S
C243 C242 1.449 . S
C243 C244 1.384 . S
C243 C268 1.553 . S
C244 C243 1.384 . S
C244 C245 1.364 . S
C244 C247 1.450 . S
C245 C240 1.367 . S
C245 C244 1.364 . S
C245 H305 0.931 . S
C246 C242 1.535 . S
C246 H306 0.959 . S
C246 H307 0.961 . S
C246 H308 0.959 . S
C247 C244 1.450 . S
C247 H309 0.960 . S
C247 H310 0.960 . S
C247 H311 0.960 . S
C248 C249 1.309 . S
C248 C253 1.304 . S
C248 O286 1.435 . S
C249 C248 1.309 . S
C249 C250 1.476 . S
C249 H313 0.930 . S
C250 C249 1.476 . S
C250 C251 1.400 . S
C250 C254 1.567 . S
C251 C250 1.400 . S
C251 C252 1.373 . S
C251 C273 1.432 . S
C252 C251 1.373 . S
C252 C253 1.339 . S
C252 C255 1.530 . S
C253 C248 1.304 . S
C253 C252 1.339 . S
C253 H314 0.930 . S
C254 C250 1.567 . S
C254 H315 0.961 . S
C254 H316 0.960 . S
C254 H317 0.958 . S
C255 C252 1.530 . S
C255 H318 0.961 . S
C255 H319 0.960 . S
C255 H320 0.960 . S
C256 C257 1.530 . S
C256 H322 0.961 . S
C256 H323 0.961 . S
C256 H324 0.959 . S
C257 C256 1.530 . S
C257 O285 1.412 . S
C257 H321 0.980 . S
C258 C259 1.288 . S
C258 C263 1.377 . S
C258 O285 1.393 . S
C259 C258 1.288 . S
C259 C260 1.369 . S
C259 H325 0.932 . S
C260 C259 1.369 . S
C260 C261 1.398 . S
C260 C264 1.527 . S
C261 C260 1.398 . S
C261 C262 1.380 . S
C261 C275 1.497 . S
C262 C261 1.380 . S
C262 C263 1.383 . S
C262 C265 1.603 . S
C263 C258 1.377 . S
C263 C262 1.383 . S
C263 H326 0.929 . S
C264 C260 1.527 . S
C264 H327 0.961 . S
C264 H328 0.959 . S
C264 H329 0.959 . S
C265 C262 1.603 . S
C265 H330 0.960 . S
C265 H331 0.962 . S
C265 H332 0.961 . S
C266 C233 1.587 . S
C266 C267 1.360 . S
C266 C279 1.412 . S
C267 C266 1.360 . S
C267 C268 1.365 . S
C267 H333 0.929 . S
C268 C243 1.553 . S
C268 C267 1.365 . S
C268 C269 1.404 . S
C269 C268 1.404 . S
C269 C270 1.395 . S
C269 C280 1.451 . S
C270 C269 1.395 . S
C270 C271 1.322 . S
C270 H334 0.930 . S
C271 C270 1.322 . S
C271 C272 1.459 . S
C271 H335 0.929 . S
C272 C271 1.459 . S
C272 C273 1.445 . S
C272 C281 1.395 . S
C273 C251 1.432 . S
C273 C272 1.445 . S
C273 C274 1.370 . S
C274 C273 1.370 . S
C274 C275 1.438 . S
C274 H336 0.930 . S
C275 C261 1.497 . S
C275 C274 1.438 . S
C275 C276 1.360 . S
C276 C275 1.360 . S
C276 C277 1.401 . S
C276 C281 1.446 . S
C277 C276 1.401 . S
C277 C278 1.347 . S
C277 H337 0.929 . S
C278 C277 1.347 . S
C278 C279 1.455 . S
C278 H338 0.930 . S
C279 C266 1.412 . S
C279 C278 1.455 . S
C279 C280 1.331 . S
C280 C269 1.451 . S
C280 C279 1.331 . S
C280 C281 1.497 . S
C281 C272 1.395 . S
C281 C276 1.446 . S
C281 C280 1.497 . S
C282 C283 1.582 . S
C282 H339 0.962 . S
C282 H340 0.959 . S
C282 H341 0.958 . S
C283 C282 1.582 . S
C283 O286 1.458 . S
C283 H312 0.980 . S
O284 C229 1.426 . S
O284 C230 1.334 . S
O285 C257 1.412 . S
O285 C258 1.393 . S
O286 C248 1.435 . S
O286 C283 1.458 . S
O287 C239 1.468 . S
O287 C240 1.408 . S
H288 C229 0.980 . S
H289 C228 0.959 . S
H290 C228 0.959 . S
H291 C228 0.960 . S
H292 C231 0.929 . S
H293 C235 0.929 . S
H294 C236 0.959 . S
H295 C236 0.961 . S
H296 C236 0.961 . S
H297 C237 0.960 . S
H298 C237 0.960 . S
H299 C237 0.961 . S
H300 C239 0.980 . S
H301 C238 0.961 . S
H302 C238 0.960 . S
H303 C238 0.959 . S
H304 C241 0.930 . S
H305 C245 0.931 . S
H306 C246 0.959 . S
H307 C246 0.961 . S
H308 C246 0.959 . S
H309 C247 0.960 . S
H310 C247 0.960 . S
H311 C247 0.960 . S
H312 C283 0.980 . S
H313 C249 0.930 . S
H314 C253 0.930 . S
H315 C254 0.961 . S
H316 C254 0.960 . S
H317 C254 0.958 . S
H318 C255 0.961 . S
H319 C255 0.960 . S
H320 C255 0.960 . S
H321 C257 0.980 . S
H322 C256 0.961 . S
H323 C256 0.961 . S
H324 C256 0.959 . S
H325 C259 0.932 . S
H326 C263 0.929 . S
H327 C264 0.961 . S
H328 C264 0.959 . S
H329 C264 0.959 . S
H330 C265 0.960 . S
H331 C265 0.962 . S
H332 C265 0.961 . S
H333 C267 0.929 . S
H334 C270 0.930 . S
H335 C271 0.929 . S
H336 C274 0.930 . S
H337 C277 0.929 . S
H338 C278 0.930 . S
H339 C282 0.962 . S
H340 C282 0.959 . S
H341 C282 0.958 . S
C342 C343 1.560 . S
C342 H403 0.959 . S
C342 H404 0.959 . S
C342 H405 0.960 . S
C343 C342 1.560 . S
C343 O398 1.426 . S
C343 H402 0.980 . S
C344 C345 1.407 . S
C344 C349 1.418 . S
C344 O398 1.334 . S
C345 C344 1.407 . S
C345 C346 1.360 . S
C345 H406 0.929 . S
C346 C345 1.360 . S
C346 C347 1.401 . S
C346 C350 1.527 . S
C347 C346 1.401 . S
C347 C348 1.405 . S
C347 C380 1.587 . S
C348 C347 1.405 . S
C348 C349 1.332 . S
C348 C351 1.496 . S
C349 C344 1.418 . S
C349 C348 1.332 . S
C349 H407 0.929 . S
C350 C346 1.527 . S
C350 H408 0.959 . S
C350 H409 0.961 . S
C350 H410 0.961 . S
C351 C348 1.496 . S
C351 H411 0.960 . S
C351 H412 0.960 . S
C351 H413 0.961 . S
C352 C353 1.517 . S
C352 H415 0.961 . S
C352 H416 0.960 . S
C352 H417 0.959 . S
C353 C352 1.517 . S
C353 O401 1.468 . S
C353 H414 0.980 . S
C354 C355 1.349 . S
C354 C359 1.367 . S
C354 O401 1.408 . S
C355 C354 1.349 . S
C355 C356 1.407 . S
C355 H418 0.930 . S
C356 C355 1.407 . S
C356 C357 1.449 . S
C356 C360 1.535 . S
C357 C356 1.449 . S
C357 C358 1.384 . S
C357 C382 1.553 1_655 S
C358 C357 1.384 . S
C358 C359 1.364 . S
C358 C361 1.450 . S
C359 C354 1.367 . S
C359 C358 1.364 . S
C359 H419 0.931 . S
C360 C356 1.535 . S
C360 H420 0.959 1_655 S
C360 H421 0.961 1_655 S
C360 H422 0.959 . S
C361 C358 1.450 . S
C361 H423 0.960 . S
C361 H424 0.960 1_655 S
C361 H425 0.960 . S
C362 C363 1.309 . S
C362 C367 1.304 . S
C362 O400 1.435 . S
C363 C362 1.309 . S
C363 C364 1.476 . S
C363 H427 0.930 . S
C364 C363 1.476 . S
C364 C365 1.400 . S
C364 C368 1.567 . S
C365 C364 1.400 . S
C365 C366 1.373 . S
C365 C387 1.432 . S
C366 C365 1.373 . S
C366 C367 1.339 . S
C366 C369 1.530 . S
C367 C362 1.304 . S
C367 C366 1.339 . S
C367 H428 0.930 . S
C368 C364 1.567 . S
C368 H429 0.961 . S
C368 H430 0.960 . S
C368 H431 0.958 . S
C369 C366 1.530 . S
C369 H432 0.961 . S
C369 H433 0.960 . S
C369 H434 0.960 . S
C370 C371 1.530 . S
C370 H436 0.961 . S
C370 H437 0.961 . S
C370 H438 0.959 . S
C371 C370 1.530 . S
C371 O399 1.412 . S
C371 H435 0.980 . S
C372 C373 1.288 . S
C372 C377 1.377 . S
C372 O399 1.393 . S
C373 C372 1.288 . S
C373 C374 1.369 . S
C373 H439 0.932 . S
C374 C373 1.369 . S
C374 C375 1.398 . S
C374 C378 1.527 . S
C375 C374 1.398 . S
C375 C376 1.380 . S
C375 C389 1.497 . S
C376 C375 1.380 . S
C376 C377 1.383 . S
C376 C379 1.603 . S
C377 C372 1.377 . S
C377 C376 1.383 . S
C377 H440 0.929 . S
C378 C374 1.527 . S
C378 H441 0.961 . S
C378 H442 0.959 . S
C378 H443 0.959 . S
C379 C376 1.603 . S
C379 H444 0.960 . S
C379 H445 0.962 . S
C379 H446 0.961 . S
C380 C347 1.587 . S
C380 C381 1.360 . S
C380 C393 1.412 . S
C381 C380 1.360 . S
C381 C382 1.365 . S
C381 H447 0.929 . S
C382 C357 1.553 1_455 S
C382 C381 1.365 . S
C382 C383 1.404 . S
C383 C382 1.404 . S
C383 C384 1.395 1_455 S
C383 C394 1.451 . S
C384 C383 1.395 1_655 S
C384 C385 1.322 . S
C384 H448 0.930 . S
C385 C384 1.322 . S
C385 C386 1.459 . S
C385 H449 0.929 . S
C386 C385 1.459 . S
C386 C387 1.445 . S
C386 C395 1.395 1_655 S
C387 C365 1.432 . S
C387 C386 1.445 . S
C387 C388 1.370 . S
C388 C387 1.370 . S
C388 C389 1.438 1_655 S
C388 H450 0.930 . S
C389 C375 1.497 . S
C389 C388 1.438 1_455 S
C389 C390 1.360 . S
C390 C389 1.360 . S
C390 C391 1.401 . S
C390 C395 1.446 . S
C391 C390 1.401 . S
C391 C392 1.347 . S
C391 H451 0.929 . S
C392 C391 1.347 . S
C392 C393 1.455 . S
C392 H452 0.930 . S
C393 C380 1.412 . S
C393 C392 1.455 . S
C393 C394 1.331 . S
C394 C383 1.451 . S
C394 C393 1.331 . S
C394 C395 1.497 . S
C395 C386 1.395 1_455 S
C395 C390 1.446 . S
C395 C394 1.497 . S
C396 C397 1.582 . S
C396 H453 0.962 . S
C396 H454 0.959 . S
C396 H455 0.958 . S
C397 C396 1.582 . S
C397 O400 1.458 . S
C397 H426 0.980 . S
O398 C343 1.426 . S
O398 C344 1.334 . S
O399 C371 1.412 . S
O399 C372 1.393 . S
O400 C362 1.435 . S
O400 C397 1.458 . S
O401 C353 1.468 . S
O401 C354 1.408 . S
H402 C343 0.980 . S
H403 C342 0.959 . S
H404 C342 0.959 . S
H405 C342 0.960 . S
H406 C345 0.929 . S
H407 C349 0.929 . S
H408 C350 0.959 . S
H409 C350 0.961 . S
H410 C350 0.961 . S
H411 C351 0.960 . S
H412 C351 0.960 . S
H413 C351 0.961 . S
H414 C353 0.980 . S
H415 C352 0.961 . S
H416 C352 0.960 . S
H417 C352 0.959 . S
H418 C355 0.930 . S
H419 C359 0.931 . S
H420 C360 0.959 1_455 S
H421 C360 0.961 1_455 S
H422 C360 0.959 . S
H423 C361 0.960 . S
H424 C361 0.960 1_455 S
H425 C361 0.960 . S
H426 C397 0.980 . S
H427 C363 0.930 . S
H428 C367 0.930 . S
H429 C368 0.961 . S
H430 C368 0.960 . S
H431 C368 0.958 . S
H432 C369 0.961 . S
H433 C369 0.960 . S
H434 C369 0.960 . S
H435 C371 0.980 . S
H436 C370 0.961 . S
H437 C370 0.961 . S
H438 C370 0.959 . S
H439 C373 0.932 . S
H440 C377 0.929 . S
H441 C378 0.961 . S
H442 C378 0.959 . S
H443 C378 0.959 . S
H444 C379 0.960 . S
H445 C379 0.962 . S
H446 C379 0.961 . S
H447 C381 0.929 . S
H448 C384 0.930 . S
H449 C385 0.929 . S
H450 C388 0.930 . S
H451 C391 0.929 . S
H452 C392 0.930 . S
H453 C396 0.962 . S
H454 C396 0.959 . S
H455 C396 0.958 . S
C456 C457 1.560 . S
C456 H517 0.959 . S
C456 H518 0.959 . S
C456 H519 0.960 . S
C457 C456 1.560 . S
C457 O512 1.426 . S
C457 H516 0.980 . S
C458 C459 1.407 . S
C458 C463 1.418 . S
C458 O512 1.334 . S
C459 C458 1.407 . S
C459 C460 1.360 . S
C459 H520 0.929 . S
C460 C459 1.360 . S
C460 C461 1.401 . S
C460 C464 1.527 . S
C461 C460 1.401 . S
C461 C462 1.405 . S
C461 C494 1.587 . S
C462 C461 1.405 . S
C462 C463 1.332 . S
C462 C465 1.496 . S
C463 C458 1.418 . S
C463 C462 1.332 . S
C463 H521 0.929 . S
C464 C460 1.527 . S
C464 H522 0.959 . S
C464 H523 0.961 . S
C464 H524 0.961 . S
C465 C462 1.496 . S
C465 H525 0.960 . S
C465 H526 0.960 . S
C465 H527 0.961 . S
C466 C467 1.517 . S
C466 H529 0.961 . S
C466 H530 0.960 . S
C466 H531 0.959 . S
C467 C466 1.517 . S
C467 O515 1.468 . S
C467 H528 0.980 . S
C468 C469 1.349 . S
C468 C473 1.367 . S
C468 O515 1.408 . S
C469 C468 1.349 . S
C469 C470 1.407 . S
C469 H532 0.930 . S
C470 C469 1.407 . S
C470 C471 1.449 . S
C470 C474 1.535 . S
C471 C470 1.449 . S
C471 C472 1.384 . S
C471 C496 1.553 . S
C472 C471 1.384 . S
C472 C473 1.364 . S
C472 C475 1.450 . S
C473 C468 1.367 . S
C473 C472 1.364 . S
C473 H533 0.931 . S
C474 C470 1.535 . S
C474 H534 0.959 . S
C474 H535 0.961 . S
C474 H536 0.959 . S
C475 C472 1.450 . S
C475 H537 0.960 . S
C475 H538 0.960 . S
C475 H539 0.960 . S
C476 C477 1.309 . S
C476 C481 1.304 . S
C476 O514 1.435 . S
C477 C476 1.309 . S
C477 C478 1.476 . S
C477 H541 0.930 . S
C478 C477 1.476 . S
C478 C479 1.400 . S
C478 C482 1.567 . S
C479 C478 1.400 . S
C479 C480 1.373 . S
C479 C501 1.432 . S
C480 C479 1.373 . S
C480 C481 1.339 . S
C480 C483 1.530 . S
C481 C476 1.304 . S
C481 C480 1.339 . S
C481 H542 0.930 . S
C482 C478 1.567 . S
C482 H543 0.961 . S
C482 H544 0.960 . S
C482 H545 0.958 . S
C483 C480 1.530 . S
C483 H546 0.961 . S
C483 H547 0.960 . S
C483 H548 0.960 . S
C484 C485 1.530 . S
C484 H550 0.961 . S
C484 H551 0.961 . S
C484 H552 0.959 . S
C485 C484 1.530 . S
C485 O513 1.412 . S
C485 H549 0.980 . S
C486 C487 1.288 . S
C486 C491 1.377 . S
C486 O513 1.393 . S
C487 C486 1.288 . S
C487 C488 1.369 . S
C487 H553 0.932 . S
C488 C487 1.369 . S
C488 C489 1.404 . S
C488 C492 1.527 1_565 S
C489 C488 1.404 . S
C489 C490 1.381 . S
C489 C503 1.491 1_565 S
C490 C489 1.381 . S
C490 C491 1.383 . S
C490 C493 1.603 . S
C491 C486 1.377 . S
C491 C490 1.383 . S
C491 H554 0.929 . S
C492 C488 1.527 1_545 S
C492 H555 0.961 . S
C492 H556 0.959 . S
C492 H557 0.959 . S
C493 C490 1.603 . S
C493 H558 0.960 . S
C493 H559 0.962 1_565 S
C493 H560 0.961 . S
C494 C461 1.587 . S
C494 C495 1.360 . S
C494 C507 1.412 . S
C495 C494 1.360 . S
C495 C496 1.365 1_565 S
C495 H561 0.929 . S
C496 C471 1.553 . S
C496 C495 1.365 1_545 S
C496 C497 1.404 . S
C497 C496 1.404 . S
C497 C498 1.395 . S
C497 C508 1.451 . S
C498 C497 1.395 . S
C498 C499 1.322 . S
C498 H562 0.930 . S
C499 C498 1.322 . S
C499 C500 1.459 1_556 S
C499 H563 0.929 . S
C500 C499 1.459 1_554 S
C500 C501 1.445 . S
C500 C509 1.394 1_554 S
C501 C479 1.432 . S
C501 C500 1.445 . S
C501 C502 1.370 . S
C502 C501 1.370 . S
C502 C503 1.438 . S
C502 H564 0.930 . S
C503 C489 1.491 1_545 S
C503 C502 1.438 . S
C503 C504 1.360 . S
C504 C503 1.360 . S
C504 C505 1.401 1_545 S
C504 C509 1.438 1_554 S
C505 C504 1.401 1_565 S
C505 C506 1.347 1_554 S
C505 H565 0.929 . S
C506 C505 1.347 1_556 S
C506 C507 1.455 . S
C506 H566 0.930 . S
C507 C494 1.412 . S
C507 C506 1.455 . S
C507 C508 1.331 1_565 S
C508 C497 1.451 . S
C508 C507 1.331 1_545 S
C508 C509 1.506 . S
C509 C500 1.394 1_556 S
C509 C504 1.438 1_556 S
C509 C508 1.506 . S
C510 C511 1.582 . S
C510 H567 0.962 . S
C510 H568 0.959 . S
C510 H569 0.958 . S
C511 C510 1.582 . S
C511 O514 1.458 . S
C511 H540 0.980 . S
O512 C457 1.426 . S
O512 C458 1.334 . S
O513 C485 1.412 . S
O513 C486 1.393 . S
O514 C476 1.435 . S
O514 C511 1.458 . S
O515 C467 1.468 . S
O515 C468 1.408 . S
H516 C457 0.980 . S
H517 C456 0.959 . S
H518 C456 0.959 . S
H519 C456 0.960 . S
H520 C459 0.929 . S
H521 C463 0.929 . S
H522 C464 0.959 . S
H523 C464 0.961 . S
H524 C464 0.961 . S
H525 C465 0.960 . S
H526 C465 0.960 . S
H527 C465 0.961 . S
H528 C467 0.980 . S
H529 C466 0.961 . S
H530 C466 0.960 . S
H531 C466 0.959 . S
H532 C469 0.930 . S
H533 C473 0.931 . S
H534 C474 0.959 . S
H535 C474 0.961 . S
H536 C474 0.959 . S
H537 C475 0.960 . S
H538 C475 0.960 . S
H539 C475 0.960 . S
H540 C511 0.980 . S
H541 C477 0.930 . S
H542 C481 0.930 . S
H543 C482 0.961 . S
H544 C482 0.960 . S
H545 C482 0.958 . S
H546 C483 0.961 . S
H547 C483 0.960 . S
H548 C483 0.960 . S
H549 C485 0.980 . S
H550 C484 0.961 . S
H551 C484 0.961 . S
H552 C484 0.959 . S
H553 C487 0.932 . S
H554 C491 0.929 . S
H555 C492 0.961 . S
H556 C492 0.959 . S
H557 C492 0.959 . S
H558 C493 0.960 . S
H559 C493 0.962 1_545 S
H560 C493 0.961 . S
H561 C495 0.929 . S
H562 C498 0.930 . S
H563 C499 0.929 . S
H564 C502 0.930 . S
H565 C505 0.929 . S
H566 C506 0.930 . S
H567 C510 0.962 . S
H568 C510 0.959 . S
H569 C510 0.958 . S
C570 C571 1.560 . S
C570 H631 0.959 . S
C570 H632 0.959 . S
C570 H633 0.960 . S
C571 C570 1.560 . S
C571 O626 1.426 . S
C571 H630 0.980 . S
C572 C573 1.407 . S
C572 C577 1.418 . S
C572 O626 1.334 . S
C573 C572 1.407 . S
C573 C574 1.360 . S
C573 H634 0.929 . S
C574 C573 1.360 . S
C574 C575 1.401 . S
C574 C578 1.527 . S
C575 C574 1.401 . S
C575 C576 1.405 . S
C575 C608 1.587 . S
C576 C575 1.405 . S
C576 C577 1.332 . S
C576 C579 1.496 . S
C577 C572 1.418 . S
C577 C576 1.332 . S
C577 H635 0.929 . S
C578 C574 1.527 . S
C578 H636 0.959 . S
C578 H637 0.961 . S
C578 H638 0.961 . S
C579 C576 1.496 . S
C579 H639 0.960 . S
C579 H640 0.960 . S
C579 H641 0.961 . S
C580 C581 1.517 . S
C580 H643 0.961 . S
C580 H644 0.960 . S
C580 H645 0.959 . S
C581 C580 1.517 . S
C581 O629 1.468 . S
C581 H642 0.980 . S
C582 C583 1.349 . S
C582 C587 1.367 . S
C582 O629 1.408 . S
C583 C582 1.349 . S
C583 C584 1.407 . S
C583 H646 0.930 . S
C584 C583 1.407 . S
C584 C585 1.449 . S
C584 C588 1.535 . S
C585 C584 1.449 . S
C585 C586 1.384 . S
C585 C610 1.553 . S
C586 C585 1.384 . S
C586 C587 1.364 . S
C586 C589 1.450 . S
C587 C582 1.367 . S
C587 C586 1.364 . S
C587 H647 0.931 . S
C588 C584 1.535 . S
C588 H648 0.959 . S
C588 H649 0.961 . S
C588 H650 0.959 . S
C589 C586 1.450 . S
C589 H651 0.960 . S
C589 H652 0.960 . S
C589 H653 0.960 . S
C590 C591 1.309 . S
C590 C595 1.304 . S
C590 O628 1.435 . S
C591 C590 1.309 . S
C591 C592 1.476 . S
C591 H655 0.930 . S
C592 C591 1.476 . S
C592 C593 1.400 . S
C592 C596 1.567 . S
C593 C592 1.400 . S
C593 C594 1.373 . S
C593 C615 1.432 . S
C594 C593 1.373 . S
C594 C595 1.339 . S
C594 C597 1.530 . S
C595 C590 1.304 . S
C595 C594 1.339 . S
C595 H656 0.930 . S
C596 C592 1.567 . S
C596 H657 0.961 . S
C596 H658 0.960 . S
C596 H659 0.958 . S
C597 C594 1.530 . S
C597 H660 0.961 . S
C597 H661 0.960 . S
C597 H662 0.960 . S
C598 C599 1.530 . S
C598 H664 0.961 . S
C598 H665 0.961 . S
C598 H666 0.959 . S
C599 C598 1.530 . S
C599 O627 1.412 . S
C599 H663 0.980 . S
C600 C601 1.288 . S
C600 C605 1.377 . S
C600 O627 1.393 . S
C601 C600 1.288 . S
C601 C602 1.369 . S
C601 H667 0.932 . S
C602 C601 1.369 . S
C602 C603 1.398 . S
C602 C606 1.527 . S
C603 C602 1.398 . S
C603 C604 1.380 . S
C603 C617 1.497 . S
C604 C603 1.380 . S
C604 C605 1.383 . S
C604 C607 1.603 . S
C605 C600 1.377 . S
C605 C604 1.383 . S
C605 H668 0.929 . S
C606 C602 1.527 . S
C606 H669 0.961 . S
C606 H670 0.959 . S
C606 H671 0.959 . S
C607 C604 1.603 . S
C607 H672 0.960 . S
C607 H673 0.962 . S
C607 H674 0.961 . S
C608 C575 1.587 . S
C608 C609 1.360 . S
C608 C621 1.412 . S
C609 C608 1.360 . S
C609 C610 1.365 . S
C609 H675 0.929 . S
C610 C585 1.553 . S
C610 C609 1.365 . S
C610 C611 1.404 . S
C611 C610 1.404 . S
C611 C612 1.395 . S
C611 C622 1.451 . S
C612 C611 1.395 . S
C612 C613 1.322 . S
C612 H676 0.930 . S
C613 C612 1.322 . S
C613 C614 1.459 . S
C613 H677 0.929 . S
C614 C613 1.459 . S
C614 C615 1.445 . S
C614 C623 1.395 . S
C615 C593 1.432 . S
C615 C614 1.445 . S
C615 C616 1.370 . S
C616 C615 1.370 . S
C616 C617 1.438 . S
C616 H678 0.930 . S
C617 C603 1.497 . S
C617 C616 1.438 . S
C617 C618 1.360 . S
C618 C617 1.360 . S
C618 C619 1.401 . S
C618 C623 1.446 . S
C619 C618 1.401 . S
C619 C620 1.347 . S
C619 H679 0.929 . S
C620 C619 1.347 . S
C620 C621 1.455 . S
C620 H680 0.930 . S
C621 C608 1.412 . S
C621 C620 1.455 . S
C621 C622 1.331 . S
C622 C611 1.451 . S
C622 C621 1.331 . S
C622 C623 1.497 . S
C623 C614 1.395 . S
C623 C618 1.446 . S
C623 C622 1.497 . S
C624 C625 1.582 . S
C624 H681 0.962 . S
C624 H682 0.959 . S
C624 H683 0.958 . S
C625 C624 1.582 . S
C625 O628 1.458 . S
C625 H654 0.980 . S
O626 C571 1.426 . S
O626 C572 1.334 . S
O627 C599 1.412 . S
O627 C600 1.393 . S
O628 C590 1.435 . S
O628 C625 1.458 . S
O629 C581 1.468 . S
O629 C582 1.408 . S
H630 C571 0.980 . S
H631 C570 0.959 . S
H632 C570 0.959 . S
H633 C570 0.960 . S
H634 C573 0.929 . S
H635 C577 0.929 . S
H636 C578 0.959 . S
H637 C578 0.961 . S
H638 C578 0.961 . S
H639 C579 0.960 . S
H640 C579 0.960 . S
H641 C579 0.961 . S
H642 C581 0.980 . S
H643 C580 0.961 . S
H644 C580 0.960 . S
H645 C580 0.959 . S
H646 C583 0.930 . S
H647 C587 0.931 . S
H648 C588 0.959 . S
H649 C588 0.961 . S
H650 C588 0.959 . S
H651 C589 0.960 . S
H652 C589 0.960 . S
H653 C589 0.960 . S
H654 C625 0.980 . S
H655 C591 0.930 . S
H656 C595 0.930 . S
H657 C596 0.961 . S
H658 C596 0.960 . S
H659 C596 0.958 . S
H660 C597 0.961 . S
H661 C597 0.960 . S
H662 C597 0.960 . S
H663 C599 0.980 . S
H664 C598 0.961 . S
H665 C598 0.961 . S
H666 C598 0.959 . S
H667 C601 0.932 . S
H668 C605 0.929 . S
H669 C606 0.961 . S
H670 C606 0.959 . S
H671 C606 0.959 . S
H672 C607 0.960 . S
H673 C607 0.962 . S
H674 C607 0.961 . S
H675 C609 0.929 . S
H676 C612 0.930 . S
H677 C613 0.929 . S
H678 C616 0.930 . S
H679 C619 0.929 . S
H680 C620 0.930 . S
H681 C624 0.962 . S
H682 C624 0.959 . S
H683 C624 0.958 . S
O684 Cd685 2.223 . S
O684 C692 1.315 . S
Cd685 O684 2.223 . S
Cd685 O688 2.297 . S
Cd685 O689 2.439 . S
Cd685 O695 2.240 . S
Cd686 O687 2.240 . S
Cd686 O694 2.223 . S
Cd686 O696 2.297 . S
Cd686 O697 2.439 . S
O687 Cd686 2.240 . S
O687 C692 1.279 . S
O688 Cd685 2.297 . S
O688 C690 1.247 . S
O689 Cd685 2.439 . S
O689 C690 1.208 . S
C690 O688 1.247 . S
C690 O689 1.208 . S
C691 O696 1.247 . S
C691 O697 1.208 . S
C692 O684 1.315 . S
C692 O687 1.279 . S
C693 O694 1.315 . S
C693 O695 1.279 . S
O694 Cd686 2.223 . S
O694 C693 1.315 . S
O695 Cd685 2.240 . S
O695 C693 1.279 . S
O696 Cd686 2.297 . S
O696 C691 1.247 . S
O697 Cd686 2.439 . S
O697 C691 1.208 . S
O698 Cd699 2.223 . S
O698 C706 1.315 . S
Cd699 O698 2.223 . S
Cd699 O702 2.297 . S
Cd699 O703 2.439 . S
Cd699 O709 2.240 . S
Cd700 O701 2.240 . S
Cd700 O708 2.223 . S
Cd700 O710 2.297 . S
Cd700 O711 2.439 . S
O701 Cd700 2.240 . S
O701 C706 1.279 . S
O702 Cd699 2.297 . S
O702 C704 1.247 . S
O703 Cd699 2.439 . S
O703 C704 1.208 . S
C704 O702 1.247 . S
C704 O703 1.208 . S
C705 O710 1.247 . S
C705 O711 1.208 . S
C706 O698 1.315 . S
C706 O701 1.279 . S
C707 O708 1.315 . S
C707 O709 1.279 . S
O708 Cd700 2.223 . S
O708 C707 1.315 . S
O709 Cd699 2.240 . S
O709 C707 1.279 . S
O710 Cd700 2.297 . S
O710 C705 1.247 . S
O711 Cd700 2.439 . S
O711 C705 1.208 . S
O712 Cd713 2.223 . S
O712 C720 1.315 . S
Cd713 O712 2.223 . S
Cd713 O716 2.297 . S
Cd713 O717 2.439 . S
Cd713 O723 2.240 . S
Cd714 O715 2.240 . S
Cd714 O722 2.223 . S
Cd714 O724 2.297 . S
Cd714 O725 2.439 . S
O715 Cd714 2.240 . S
O715 C720 1.279 . S
O716 Cd713 2.297 . S
O716 C718 1.247 . S
O717 Cd713 2.439 . S
O717 C718 1.208 . S
C718 O716 1.247 . S
C718 O717 1.208 . S
C719 O724 1.247 . S
C719 O725 1.208 . S
C720 O712 1.315 . S
C720 O715 1.279 . S
C721 O722 1.315 . S
C721 O723 1.279 . S
O722 Cd714 2.223 . S
O722 C721 1.315 . S
O723 Cd713 2.240 . S
O723 C721 1.279 . S
O724 Cd714 2.297 . S
O724 C719 1.247 . S
O725 Cd714 2.439 . S
O725 C719 1.208 . S
O726 Cd727 2.223 . S
O726 C734 1.315 . S
Cd727 O726 2.223 . S
Cd727 O730 2.297 . S
Cd727 O731 2.439 . S
Cd727 O737 2.240 . S
Cd728 O729 2.240 . S
Cd728 O736 2.223 . S
Cd728 O738 2.297 . S
Cd728 O739 2.439 . S
O729 Cd728 2.240 . S
O729 C734 1.279 . S
O730 Cd727 2.297 . S
O730 C732 1.247 . S
O731 Cd727 2.439 . S
O731 C732 1.208 . S
C732 O730 1.247 . S
C732 O731 1.208 . S
C733 O738 1.247 . S
C733 O739 1.208 . S
C734 O726 1.315 . S
C734 O729 1.279 . S
C735 O736 1.315 . S
C735 O737 1.279 . S
O736 Cd728 2.223 . S
O736 C735 1.315 . S
O737 Cd727 2.240 . S
O737 C735 1.279 . S
O738 Cd728 2.297 . S
O738 C733 1.247 . S
O739 Cd728 2.439 . S
O739 C733 1.208 . S
O740 Cd741 2.223 . S
O740 C748 1.315 . S
Cd741 O740 2.223 . S
Cd741 O744 2.297 . S
Cd741 O745 2.439 . S
Cd741 O751 2.240 . S
Cd742 O743 2.240 . S
Cd742 O750 2.223 . S
Cd742 O752 2.297 . S
Cd742 O753 2.439 . S
O743 Cd742 2.240 . S
O743 C748 1.279 . S
O744 Cd741 2.297 . S
O744 C746 1.247 . S
O745 Cd741 2.439 . S
O745 C746 1.208 . S
C746 O744 1.247 . S
C746 O745 1.208 . S
C747 O752 1.247 . S
C747 O753 1.208 . S
C748 O740 1.315 . S
C748 O743 1.279 . S
C749 O750 1.315 . S
C749 O751 1.279 . S
O750 Cd742 2.223 . S
O750 C749 1.315 . S
O751 Cd741 2.240 . S
O751 C749 1.279 . S
O752 Cd742 2.297 . S
O752 C747 1.247 . S
O753 Cd742 2.439 . S
O753 C747 1.208 . S
O754 Cd755 2.223 . S
O754 C762 1.315 . S
Cd755 O754 2.223 . S
Cd755 O758 2.297 . S
Cd755 O759 2.439 . S
Cd755 O765 2.240 . S
Cd756 O757 2.240 . S
Cd756 O764 2.223 . S
Cd756 O766 2.297 . S
Cd756 O767 2.439 . S
O757 Cd756 2.240 . S
O757 C762 1.279 . S
O758 Cd755 2.297 . S
O758 C760 1.247 . S
O759 Cd755 2.439 . S
O759 C760 1.208 . S
C760 O758 1.247 . S
C760 O759 1.208 . S
C761 O766 1.247 . S
C761 O767 1.208 . S
C762 O754 1.315 . S
C762 O757 1.279 . S
C763 O764 1.315 . S
C763 O765 1.279 . S
O764 Cd756 2.223 . S
O764 C763 1.315 . S
O765 Cd755 2.240 . S
O765 C763 1.279 . S
O766 Cd756 2.297 . S
O766 C761 1.247 . S
O767 Cd756 2.439 . S
O767 C761 1.208 . S
H768 C786 0.951 . S
H769 C788 0.951 . S
H770 C790 0.950 . S
H771 C791 0.950 . S
H772 C793 0.950 . S
H773 C796 0.950 . S
H774 C797 0.950 . S
H775 C799 0.950 . S
H776 C800 0.950 . S
H777 C801 0.951 . S
H778 C803 0.951 . S
H779 C805 0.950 . S
H780 C806 0.950 . S
H781 C808 0.950 . S
H782 C811 0.950 . S
H783 C812 0.950 . S
H784 C814 0.950 . S
H785 C815 0.950 . S
C786 H768 0.951 . S
C786 C787 1.366 . S
C786 C788 1.388 . S
C787 C786 1.366 . S
C787 C791 1.385 . S
C788 H769 0.951 . S
C788 C786 1.388 . S
C788 C789 1.366 . S
C789 C788 1.366 . S
C789 C790 1.414 . S
C789 C792 1.499 . S
C790 H770 0.950 . S
C790 C789 1.414 . S
C790 C791 1.374 . S
C791 H771 0.950 . S
C791 C787 1.385 . S
C791 C790 1.374 . S
C792 C789 1.499 . S
C792 C793 1.373 . S
C792 C794 1.389 . S
C793 H772 0.950 . S
C793 C792 1.373 . S
C793 C809 1.377 . S
C794 C792 1.389 . S
C794 C795 1.524 . S
C794 C808 1.377 . S
C795 C794 1.524 . S
C795 C796 1.397 . S
C795 C800 1.363 . S
C796 H773 0.950 . S
C796 C795 1.397 . S
C796 C797 1.334 . S
C797 H774 0.950 . S
C797 C796 1.334 . S
C797 C798 1.287 . S
C798 C797 1.287 . S
C798 C799 1.524 . S
C798 H817 0.913 . S
C799 H775 0.950 . S
C799 C798 1.524 . S
C799 C800 1.415 . S
C800 H776 0.950 . S
C800 C795 1.363 . S
C800 C799 1.415 . S
C801 H777 0.951 . S
C801 C802 1.366 . S
C801 C803 1.388 . S
C802 C801 1.366 . S
C802 C806 1.385 . S
C803 H778 0.951 . S
C803 C801 1.388 . S
C803 C804 1.366 . S
C804 C803 1.366 . S
C804 C805 1.414 . S
C804 C807 1.499 . S
C805 H779 0.950 . S
C805 C804 1.414 . S
C805 C806 1.374 . S
C806 H780 0.950 . S
C806 C802 1.385 . S
C806 C805 1.374 . S
C807 C804 1.499 . S
C807 C808 1.373 . S
C807 C809 1.389 . S
C808 H781 0.950 . S
C808 C794 1.377 . S
C808 C807 1.373 . S
C809 C793 1.377 . S
C809 C807 1.389 . S
C809 C810 1.524 . S
C810 C809 1.524 . S
C810 C811 1.397 . S
C810 C815 1.363 . S
C811 H782 0.950 . S
C811 C810 1.397 . S
C811 C812 1.334 . S
C812 H783 0.950 . S
C812 C811 1.334 . S
C812 C813 1.287 . S
C813 C812 1.287 . S
C813 C814 1.524 . S
C813 H816 0.999 . S
C814 H784 0.950 . S
C814 C813 1.524 . S
C814 C815 1.415 . S
C815 H785 0.950 . S
C815 C810 1.363 . S
C815 C814 1.415 . S
H816 C813 0.999 . S
H817 C798 0.913 . S
H818 C836 0.951 . S
H819 C838 0.951 . S
H820 C840 0.950 . S
H821 C841 0.950 . S
H822 C843 0.950 . S
H823 C846 0.950 . S
H824 C847 0.950 . S
H825 C849 0.950 . S
H826 C850 0.950 . S
H827 C851 0.951 . S
H828 C853 0.951 . S
H829 C855 0.950 . S
H830 C856 0.950 . S
H831 C858 0.950 . S
H832 C861 0.950 . S
H833 C862 0.950 . S
H834 C864 0.950 . S
H835 C865 0.950 . S
C836 H818 0.951 . S
C836 C837 1.366 . S
C836 C838 1.388 . S
C837 C836 1.366 . S
C837 C841 1.385 . S
C838 H819 0.951 . S
C838 C836 1.388 . S
C838 C839 1.366 . S
C839 C838 1.366 . S
C839 C840 1.414 . S
C839 C842 1.499 . S
C840 H820 0.950 . S
C840 C839 1.414 . S
C840 C841 1.374 . S
C841 H821 0.950 . S
C841 C837 1.385 . S
C841 C840 1.374 . S
C842 C839 1.499 . S
C842 C843 1.373 . S
C842 C844 1.389 . S
C843 H822 0.950 . S
C843 C842 1.373 . S
C843 C859 1.377 . S
C844 C842 1.389 . S
C844 C845 1.524 . S
C844 C858 1.377 . S
C845 C844 1.524 . S
C845 C846 1.397 . S
C845 C850 1.363 . S
C846 H823 0.950 . S
C846 C845 1.397 . S
C846 C847 1.334 . S
C847 H824 0.950 . S
C847 C846 1.334 . S
C847 C848 1.287 . S
C848 C847 1.287 . S
C848 C849 1.524 . S
C848 H867 0.913 . S
C849 H825 0.950 . S
C849 C848 1.524 . S
C849 C850 1.415 . S
C850 H826 0.950 . S
C850 C845 1.363 . S
C850 C849 1.415 . S
C851 H827 0.951 . S
C851 C852 1.366 . S
C851 C853 1.388 . S
C852 C851 1.366 . S
C852 C856 1.385 . S
C853 H828 0.951 . S
C853 C851 1.388 . S
C853 C854 1.366 . S
C854 C853 1.366 . S
C854 C855 1.414 . S
C854 C857 1.499 . S
C855 H829 0.950 . S
C855 C854 1.414 . S
C855 C856 1.374 . S
C856 H830 0.950 . S
C856 C852 1.385 . S
C856 C855 1.374 . S
C857 C854 1.499 . S
C857 C858 1.373 . S
C857 C859 1.389 . S
C858 H831 0.950 . S
C858 C844 1.377 . S
C858 C857 1.373 . S
C859 C843 1.377 . S
C859 C857 1.389 . S
C859 C860 1.524 . S
C860 C859 1.524 . S
C860 C861 1.397 . S
C860 C865 1.363 . S
C861 H832 0.950 . S
C861 C860 1.397 . S
C861 C862 1.334 . S
C862 H833 0.950 . S
C862 C861 1.334 . S
C862 C863 1.287 . S
C863 C862 1.287 . S
C863 C864 1.524 . S
C863 H866 0.999 . S
C864 H834 0.950 . S
C864 C863 1.524 . S
C864 C865 1.415 . S
C865 H835 0.950 . S
C865 C860 1.363 . S
C865 C864 1.415 . S
H866 C863 0.999 . S
H867 C848 0.913 . S
H868 C886 0.951 . S
H869 C888 0.951 . S
H870 C890 0.950 . S
H871 C891 0.950 . S
H872 C893 0.950 . S
H873 C896 0.950 . S
H874 C897 0.950 . S
H875 C899 0.950 . S
H876 C900 0.950 . S
H877 C901 0.951 . S
H878 C903 0.951 . S
H879 C905 0.950 . S
H880 C906 0.950 . S
H881 C908 0.950 . S
H882 C911 0.950 . S
H883 C912 0.950 . S
H884 C914 0.950 . S
H885 C915 0.950 . S
C886 H868 0.951 . S
C886 C887 1.366 . S
C886 C888 1.388 . S
C887 C886 1.366 . S
C887 C891 1.385 . S
C888 H869 0.951 . S
C888 C886 1.388 . S
C888 C889 1.366 . S
C889 C888 1.366 . S
C889 C890 1.414 . S
C889 C892 1.499 . S
C890 H870 0.950 . S
C890 C889 1.414 . S
C890 C891 1.374 . S
C891 H871 0.950 . S
C891 C887 1.385 . S
C891 C890 1.374 . S
C892 C889 1.499 . S
C892 C893 1.373 . S
C892 C894 1.389 . S
C893 H872 0.950 . S
C893 C892 1.373 . S
C893 C909 1.377 . S
C894 C892 1.389 . S
C894 C895 1.524 . S
C894 C908 1.377 . S
C895 C894 1.524 . S
C895 C896 1.397 . S
C895 C900 1.363 . S
C896 H873 0.950 . S
C896 C895 1.397 . S
C896 C897 1.334 . S
C897 H874 0.950 . S
C897 C896 1.334 . S
C897 C898 1.287 . S
C898 C897 1.287 . S
C898 C899 1.524 . S
C898 H917 0.913 . S
C899 H875 0.950 . S
C899 C898 1.524 . S
C899 C900 1.415 . S
C900 H876 0.950 . S
C900 C895 1.363 . S
C900 C899 1.415 . S
C901 H877 0.951 . S
C901 C902 1.366 . S
C901 C903 1.388 . S
C902 C901 1.366 . S
C902 C906 1.385 . S
C903 H878 0.951 . S
C903 C901 1.388 . S
C903 C904 1.366 . S
C904 C903 1.366 . S
C904 C905 1.414 . S
C904 C907 1.499 . S
C905 H879 0.950 . S
C905 C904 1.414 . S
C905 C906 1.374 . S
C906 H880 0.950 . S
C906 C902 1.385 . S
C906 C905 1.374 . S
C907 C904 1.499 . S
C907 C908 1.373 . S
C907 C909 1.389 . S
C908 H881 0.950 . S
C908 C894 1.377 . S
C908 C907 1.373 . S
C909 C893 1.377 . S
C909 C907 1.389 . S
C909 C910 1.524 . S
C910 C909 1.524 . S
C910 C911 1.397 . S
C910 C915 1.363 . S
C911 H882 0.950 . S
C911 C910 1.397 . S
C911 C912 1.334 . S
C912 H883 0.950 . S
C912 C911 1.334 . S
C912 C913 1.287 . S
C913 C912 1.287 . S
C913 C914 1.524 . S
C913 H916 0.999 . S
C914 H884 0.950 . S
C914 C913 1.524 . S
C914 C915 1.415 . S
C915 H885 0.950 . S
C915 C910 1.363 . S
C915 C914 1.415 . S
H916 C913 0.999 . S
H917 C898 0.913 . S
H918 C936 0.951 . S
H919 C938 0.951 . S
H920 C940 0.950 . S
H921 C941 0.950 . S
H922 C943 0.950 . S
H923 C946 0.950 . S
H924 C947 0.950 . S
H925 C949 0.950 . S
H926 C950 0.950 . S
H927 C951 0.951 . S
H928 C953 0.951 . S
H929 C955 0.950 . S
H930 C956 0.950 . S
H931 C958 0.950 . S
H932 C961 0.950 . S
H933 C962 0.950 . S
H934 C964 0.950 . S
H935 C965 0.950 . S
C936 H918 0.951 . S
C936 C937 1.366 . S
C936 C938 1.388 . S
C937 C936 1.366 . S
C937 C941 1.385 . S
C938 H919 0.951 . S
C938 C936 1.388 . S
C938 C939 1.366 . S
C939 C938 1.366 . S
C939 C940 1.414 . S
C939 C942 1.499 . S
C940 H920 0.950 . S
C940 C939 1.414 . S
C940 C941 1.374 . S
C941 H921 0.950 . S
C941 C937 1.385 . S
C941 C940 1.374 . S
C942 C939 1.499 . S
C942 C943 1.373 . S
C942 C944 1.389 . S
C943 H922 0.950 . S
C943 C942 1.373 . S
C943 C959 1.377 . S
C944 C942 1.389 . S
C944 C945 1.524 . S
C944 C958 1.377 . S
C945 C944 1.524 . S
C945 C946 1.397 . S
C945 C950 1.363 . S
C946 H923 0.950 . S
C946 C945 1.397 . S
C946 C947 1.334 . S
C947 H924 0.950 . S
C947 C946 1.334 . S
C947 C948 1.287 . S
C948 C947 1.287 . S
C948 C949 1.524 . S
C948 H967 0.913 . S
C949 H925 0.950 . S
C949 C948 1.524 . S
C949 C950 1.415 . S
C950 H926 0.950 . S
C950 C945 1.363 . S
C950 C949 1.415 . S
C951 H927 0.951 . S
C951 C952 1.366 . S
C951 C953 1.388 . S
C952 C951 1.366 . S
C952 C956 1.385 . S
C953 H928 0.951 . S
C953 C951 1.388 . S
C953 C954 1.366 . S
C954 C953 1.366 . S
C954 C955 1.414 . S
C954 C957 1.499 . S
C955 H929 0.950 . S
C955 C954 1.414 . S
C955 C956 1.374 . S
C956 H930 0.950 . S
C956 C952 1.385 . S
C956 C955 1.374 . S
C957 C954 1.499 . S
C957 C958 1.373 . S
C957 C959 1.389 . S
C958 H931 0.950 . S
C958 C944 1.377 . S
C958 C957 1.373 . S
C959 C943 1.377 . S
C959 C957 1.389 . S
C959 C960 1.524 . S
C960 C959 1.524 . S
C960 C961 1.397 . S
C960 C965 1.363 . S
C961 H932 0.950 . S
C961 C960 1.397 . S
C961 C962 1.334 . S
C962 H933 0.950 . S
C962 C961 1.334 . S
C962 C963 1.287 . S
C963 C962 1.287 . S
C963 C964 1.524 . S
C963 H966 0.999 . S
C964 H934 0.950 . S
C964 C963 1.524 . S
C964 C965 1.415 . S
C965 H935 0.950 . S
C965 C960 1.363 . S
C965 C964 1.415 . S
H966 C963 0.999 . S
H967 C948 0.913 . S
H968 C986 0.951 . S
H969 C988 0.951 . S
H970 C990 0.950 . S
H971 C991 0.950 . S
H972 C993 0.950 . S
H973 C996 0.950 . S
H974 C997 0.950 . S
H975 C999 0.950 . S
H976 C1000 0.950 . S
H977 C1001 0.951 . S
H978 C1003 0.951 . S
H979 C1005 0.950 . S
H980 C1006 0.950 . S
H981 C1008 0.950 . S
H982 C1011 0.950 . S
H983 C1012 0.950 . S
H984 C1014 0.950 . S
H985 C1015 0.950 . S
C986 H968 0.951 . S
C986 C987 1.366 . S
C986 C988 1.388 . S
C987 C986 1.366 . S
C987 C991 1.385 . S
C988 H969 0.951 . S
C988 C986 1.388 . S
C988 C989 1.366 . S
C989 C988 1.366 . S
C989 C990 1.414 . S
C989 C992 1.499 . S
C990 H970 0.950 . S
C990 C989 1.414 . S
C990 C991 1.374 . S
C991 H971 0.950 . S
C991 C987 1.385 . S
C991 C990 1.374 . S
C992 C989 1.499 . S
C992 C993 1.373 . S
C992 C994 1.389 . S
C993 H972 0.950 . S
C993 C992 1.373 . S
C993 C1009 1.377 . S
C994 C992 1.389 . S
C994 C995 1.524 . S
C994 C1008 1.377 . S
C995 C994 1.524 . S
C995 C996 1.397 . S
C995 C1000 1.363 . S
C996 H973 0.950 . S
C996 C995 1.397 . S
C996 C997 1.334 . S
C997 H974 0.950 . S
C997 C996 1.334 . S
C997 C998 1.287 . S
C998 C997 1.287 . S
C998 C999 1.524 . S
C998 H1017 0.913 . S
C999 H975 0.950 . S
C999 C998 1.524 . S
C999 C1000 1.415 . S
C1000 H976 0.950 . S
C1000 C995 1.363 . S
C1000 C999 1.415 . S
C1001 H977 0.951 . S
C1001 C1002 1.366 . S
C1001 C1003 1.388 . S
C1002 C1001 1.366 . S
C1002 C1006 1.385 . S
C1003 H978 0.951 . S
C1003 C1001 1.388 . S
C1003 C1004 1.366 . S
C1004 C1003 1.366 . S
C1004 C1005 1.414 . S
C1004 C1007 1.499 . S
C1005 H979 0.950 . S
C1005 C1004 1.414 . S
C1005 C1006 1.374 . S
C1006 H980 0.950 . S
C1006 C1002 1.385 . S
C1006 C1005 1.374 . S
C1007 C1004 1.499 . S
C1007 C1008 1.373 . S
C1007 C1009 1.389 . S
C1008 H981 0.950 . S
C1008 C994 1.377 . S
C1008 C1007 1.373 . S
C1009 C993 1.377 . S
C1009 C1007 1.389 . S
C1009 C1010 1.524 . S
C1010 C1009 1.524 . S
C1010 C1011 1.397 . S
C1010 C1015 1.363 . S
C1011 H982 0.950 . S
C1011 C1010 1.397 . S
C1011 C1012 1.334 . S
C1012 H983 0.950 . S
C1012 C1011 1.334 . S
C1012 C1013 1.287 . S
C1013 C1012 1.287 . S
C1013 C1014 1.524 . S
C1013 H1016 0.999 . S
C1014 H984 0.950 . S
C1014 C1013 1.524 . S
C1014 C1015 1.415 . S
C1015 H985 0.950 . S
C1015 C1010 1.363 . S
C1015 C1014 1.415 . S
H1016 C1013 0.999 . S
H1017 C998 0.913 . S
H1018 C1036 0.951 . S
H1019 C1038 0.951 . S
H1020 C1040 0.950 . S
H1021 C1041 0.950 . S
H1022 C1043 0.950 . S
H1023 C1046 0.950 . S
H1024 C1047 0.950 . S
H1025 C1049 0.950 . S
H1026 C1050 0.950 . S
H1027 C1051 0.951 . S
H1028 C1053 0.951 . S
H1029 C1055 0.950 . S
H1030 C1056 0.950 . S
H1031 C1058 0.950 . S
H1032 C1061 0.950 . S
H1033 C1062 0.950 . S
H1034 C1064 0.950 . S
H1035 C1065 0.950 . S
C1036 H1018 0.951 . S
C1036 C1037 1.366 . S
C1036 C1038 1.388 . S
C1037 C1036 1.366 . S
C1037 C1041 1.385 . S
C1038 H1019 0.951 . S
C1038 C1036 1.388 . S
C1038 C1039 1.366 . S
C1039 C1038 1.366 . S
C1039 C1040 1.414 . S
C1039 C1042 1.499 . S
C1040 H1020 0.950 . S
C1040 C1039 1.414 . S
C1040 C1041 1.374 . S
C1041 H1021 0.950 . S
C1041 C1037 1.385 . S
C1041 C1040 1.374 . S
C1042 C1039 1.499 . S
C1042 C1043 1.373 . S
C1042 C1044 1.389 . S
C1043 H1022 0.950 . S
C1043 C1042 1.373 . S
C1043 C1059 1.377 . S
C1044 C1042 1.389 . S
C1044 C1045 1.524 . S
C1044 C1058 1.377 . S
C1045 C1044 1.524 . S
C1045 C1046 1.397 . S
C1045 C1050 1.363 . S
C1046 H1023 0.950 . S
C1046 C1045 1.397 . S
C1046 C1047 1.334 . S
C1047 H1024 0.950 . S
C1047 C1046 1.334 . S
C1047 C1048 1.287 . S
C1048 C1047 1.287 . S
C1048 C1049 1.524 . S
C1048 H1067 0.913 . S
C1049 H1025 0.950 . S
C1049 C1048 1.524 . S
C1049 C1050 1.415 . S
C1050 H1026 0.950 . S
C1050 C1045 1.363 . S
C1050 C1049 1.415 . S
C1051 H1027 0.951 . S
C1051 C1052 1.366 . S
C1051 C1053 1.388 . S
C1052 C1051 1.366 . S
C1052 C1056 1.385 . S
C1053 H1028 0.951 . S
C1053 C1051 1.388 . S
C1053 C1054 1.366 . S
C1054 C1053 1.366 . S
C1054 C1055 1.414 . S
C1054 C1057 1.499 . S
C1055 H1029 0.950 . S
C1055 C1054 1.414 . S
C1055 C1056 1.374 . S
C1056 H1030 0.950 . S
C1056 C1052 1.385 . S
C1056 C1055 1.374 . S
C1057 C1054 1.499 . S
C1057 C1058 1.373 . S
C1057 C1059 1.389 . S
C1058 H1031 0.950 . S
C1058 C1044 1.377 . S
C1058 C1057 1.373 . S
C1059 C1043 1.377 . S
C1059 C1057 1.389 . S
C1059 C1060 1.524 . S
C1060 C1059 1.524 . S
C1060 C1061 1.397 . S
C1060 C1065 1.363 . S
C1061 H1032 0.950 . S
C1061 C1060 1.397 . S
C1061 C1062 1.334 . S
C1062 H1033 0.950 . S
C1062 C1061 1.334 . S
C1062 C1063 1.287 . S
C1063 C1062 1.287 . S
C1063 C1064 1.524 . S
C1063 H1066 0.999 . S
C1064 H1034 0.950 . S
C1064 C1063 1.524 . S
C1064 C1065 1.415 . S
C1065 H1035 0.950 . S
C1065 C1060 1.363 . S
C1065 C1064 1.415 . S
H1066 C1063 0.999 . S
H1067 C1048 0.913 . S
H1068 C1086 0.951 . S
H1069 C1088 0.951 . S
H1070 C1090 0.950 . S
H1071 C1091 0.950 . S
H1072 C1093 0.950 . S
H1073 C1096 0.950 . S
H1074 C1097 0.950 . S
H1075 C1099 0.950 . S
H1076 C1100 0.950 . S
H1077 C1101 0.951 . S
H1078 C1103 0.951 . S
H1079 C1105 0.950 . S
H1080 C1106 0.950 . S
H1081 C1108 0.950 . S
H1082 C1111 0.950 . S
H1083 C1112 0.950 . S
H1084 C1114 0.950 . S
H1085 C1115 0.950 . S
C1086 H1068 0.951 . S
C1086 C1087 1.366 . S
C1086 C1088 1.388 . S
C1087 C1086 1.366 . S
C1087 C1091 1.385 . S
C1088 H1069 0.951 . S
C1088 C1086 1.388 . S
C1088 C1089 1.366 . S
C1089 C1088 1.366 . S
C1089 C1090 1.414 . S
C1089 C1092 1.499 . S
C1090 H1070 0.950 . S
C1090 C1089 1.414 . S
C1090 C1091 1.374 . S
C1091 H1071 0.950 . S
C1091 C1087 1.385 . S
C1091 C1090 1.374 . S
C1092 C1089 1.499 . S
C1092 C1093 1.373 . S
C1092 C1094 1.389 . S
C1093 H1072 0.950 . S
C1093 C1092 1.373 . S
C1093 C1109 1.377 . S
C1094 C1092 1.389 . S
C1094 C1095 1.524 . S
C1094 C1108 1.377 . S
C1095 C1094 1.524 . S
C1095 C1096 1.397 . S
C1095 C1100 1.363 . S
C1096 H1073 0.950 . S
C1096 C1095 1.397 . S
C1096 C1097 1.334 . S
C1097 H1074 0.950 . S
C1097 C1096 1.334 . S
C1097 C1098 1.287 . S
C1098 C1097 1.287 . S
C1098 C1099 1.524 . S
C1098 H1117 0.913 . S
C1099 H1075 0.950 . S
C1099 C1098 1.524 . S
C1099 C1100 1.415 . S
C1100 H1076 0.950 . S
C1100 C1095 1.363 . S
C1100 C1099 1.415 . S
C1101 H1077 0.951 . S
C1101 C1102 1.366 . S
C1101 C1103 1.388 . S
C1102 C1101 1.366 . S
C1102 C1106 1.385 . S
C1103 H1078 0.951 . S
C1103 C1101 1.388 . S
C1103 C1104 1.366 . S
C1104 C1103 1.366 . S
C1104 C1105 1.414 . S
C1104 C1107 1.499 . S
C1105 H1079 0.950 . S
C1105 C1104 1.414 . S
C1105 C1106 1.374 . S
C1106 H1080 0.950 . S
C1106 C1102 1.385 . S
C1106 C1105 1.374 . S
C1107 C1104 1.499 . S
C1107 C1108 1.373 . S
C1107 C1109 1.389 . S
C1108 H1081 0.950 . S
C1108 C1094 1.377 . S
C1108 C1107 1.373 . S
C1109 C1093 1.377 . S
C1109 C1107 1.389 . S
C1109 C1110 1.524 . S
C1110 C1109 1.524 . S
C1110 C1111 1.397 . S
C1110 C1115 1.363 . S
C1111 H1082 0.950 . S
C1111 C1110 1.397 . S
C1111 C1112 1.334 . S
C1112 H1083 0.950 . S
C1112 C1111 1.334 . S
C1112 C1113 1.287 . S
C1113 C1112 1.287 . S
C1113 C1114 1.524 . S
C1113 H1116 0.999 . S
C1114 H1084 0.950 . S
C1114 C1113 1.524 . S
C1114 C1115 1.415 . S
C1115 H1085 0.950 . S
C1115 C1110 1.363 . S
C1115 C1114 1.415 . S
H1116 C1113 0.999 . S
H1117 C1098 0.913 . S
H1118 C1136 0.951 . S
H1119 C1138 0.951 . S
H1120 C1140 0.950 . S
H1121 C1141 0.950 . S
H1122 C1143 0.950 . S
H1123 C1146 0.950 . S
H1124 C1147 0.950 . S
H1125 C1149 0.950 . S
H1126 C1150 0.950 . S
H1127 C1151 0.951 . S
H1128 C1153 0.951 . S
H1129 C1155 0.950 . S
H1130 C1156 0.950 . S
H1131 C1158 0.950 . S
H1132 C1161 0.950 . S
H1133 C1162 0.950 . S
H1134 C1164 0.950 . S
H1135 C1165 0.950 . S
C1136 H1118 0.951 . S
C1136 C1137 1.366 . S
C1136 C1138 1.388 . S
C1137 C1136 1.366 . S
C1137 C1141 1.385 . S
C1138 H1119 0.951 . S
C1138 C1136 1.388 . S
C1138 C1139 1.366 . S
C1139 C1138 1.366 . S
C1139 C1140 1.414 . S
C1139 C1142 1.499 . S
C1140 H1120 0.950 . S
C1140 C1139 1.414 . S
C1140 C1141 1.374 . S
C1141 H1121 0.950 . S
C1141 C1137 1.385 . S
C1141 C1140 1.374 . S
C1142 C1139 1.499 . S
C1142 C1143 1.373 . S
C1142 C1144 1.389 . S
C1143 H1122 0.950 . S
C1143 C1142 1.373 . S
C1143 C1159 1.377 . S
C1144 C1142 1.389 . S
C1144 C1145 1.524 . S
C1144 C1158 1.377 . S
C1145 C1144 1.524 . S
C1145 C1146 1.397 . S
C1145 C1150 1.363 . S
C1146 H1123 0.950 . S
C1146 C1145 1.397 . S
C1146 C1147 1.334 . S
C1147 H1124 0.950 . S
C1147 C1146 1.334 . S
C1147 C1148 1.287 . S
C1148 C1147 1.287 . S
C1148 C1149 1.524 . S
C1148 H1167 0.913 . S
C1149 H1125 0.950 . S
C1149 C1148 1.524 . S
C1149 C1150 1.415 . S
C1150 H1126 0.950 . S
C1150 C1145 1.363 . S
C1150 C1149 1.415 . S
C1151 H1127 0.951 . S
C1151 C1152 1.366 . S
C1151 C1153 1.388 . S
C1152 C1151 1.366 . S
C1152 C1156 1.385 . S
C1153 H1128 0.951 . S
C1153 C1151 1.388 . S
C1153 C1154 1.366 . S
C1154 C1153 1.366 . S
C1154 C1155 1.414 . S
C1154 C1157 1.499 . S
C1155 H1129 0.950 . S
C1155 C1154 1.414 . S
C1155 C1156 1.374 . S
C1156 H1130 0.950 . S
C1156 C1152 1.385 . S
C1156 C1155 1.374 . S
C1157 C1154 1.499 . S
C1157 C1158 1.373 . S
C1157 C1159 1.389 . S
C1158 H1131 0.950 . S
C1158 C1144 1.377 . S
C1158 C1157 1.373 . S
C1159 C1143 1.377 . S
C1159 C1157 1.389 . S
C1159 C1160 1.524 . S
C1160 C1159 1.524 . S
C1160 C1161 1.397 . S
C1160 C1165 1.363 . S
C1161 H1132 0.950 . S
C1161 C1160 1.397 . S
C1161 C1162 1.334 . S
C1162 H1133 0.950 . S
C1162 C1161 1.334 . S
C1162 C1163 1.287 . S
C1163 C1162 1.287 . S
C1163 C1164 1.524 . S
C1163 H1166 0.999 . S
C1164 H1134 0.950 . S
C1164 C1163 1.524 . S
C1164 C1165 1.415 . S
C1165 H1135 0.950 . S
C1165 C1160 1.363 . S
C1165 C1164 1.415 . S
H1166 C1163 0.999 . S
H1167 C1148 0.913 . S
H1168 C1186 0.951 . S
H1169 C1188 0.951 . S
H1170 C1190 0.950 . S
H1171 C1191 0.950 . S
H1172 C1193 0.950 . S
H1173 C1196 0.950 . S
H1174 C1197 0.950 . S
H1175 C1199 0.950 . S
H1176 C1200 0.950 . S
H1177 C1201 0.951 . S
H1178 C1203 0.951 . S
H1179 C1205 0.950 . S
H1180 C1206 0.950 . S
H1181 C1208 0.950 . S
H1182 C1211 0.950 . S
H1183 C1212 0.950 . S
H1184 C1214 0.950 . S
H1185 C1215 0.950 . S
C1186 H1168 0.951 . S
C1186 C1187 1.366 . S
C1186 C1188 1.388 . S
C1187 C1186 1.366 . S
C1187 C1191 1.385 . S
C1188 H1169 0.951 . S
C1188 C1186 1.388 . S
C1188 C1189 1.366 . S
C1189 C1188 1.366 . S
C1189 C1190 1.414 . S
C1189 C1192 1.499 . S
C1190 H1170 0.950 . S
C1190 C1189 1.414 . S
C1190 C1191 1.374 . S
C1191 H1171 0.950 . S
C1191 C1187 1.385 . S
C1191 C1190 1.374 . S
C1192 C1189 1.499 . S
C1192 C1193 1.373 . S
C1192 C1194 1.389 . S
C1193 H1172 0.950 . S
C1193 C1192 1.373 . S
C1193 C1209 1.377 . S
C1194 C1192 1.389 . S
C1194 C1195 1.524 . S
C1194 C1208 1.377 . S
C1195 C1194 1.524 . S
C1195 C1196 1.397 . S
C1195 C1200 1.363 . S
C1196 H1173 0.950 . S
C1196 C1195 1.397 . S
C1196 C1197 1.334 . S
C1197 H1174 0.950 . S
C1197 C1196 1.334 . S
C1197 C1198 1.287 . S
C1198 C1197 1.287 . S
C1198 C1199 1.524 . S
C1198 H1217 0.913 . S
C1199 H1175 0.950 . S
C1199 C1198 1.524 . S
C1199 C1200 1.415 . S
C1200 H1176 0.950 . S
C1200 C1195 1.363 . S
C1200 C1199 1.415 . S
C1201 H1177 0.951 . S
C1201 C1202 1.366 . S
C1201 C1203 1.388 . S
C1202 C1201 1.366 . S
C1202 C1206 1.385 . S
C1203 H1178 0.951 . S
C1203 C1201 1.388 . S
C1203 C1204 1.366 . S
C1204 C1203 1.366 . S
C1204 C1205 1.414 . S
C1204 C1207 1.499 . S
C1205 H1179 0.950 . S
C1205 C1204 1.414 . S
C1205 C1206 1.374 . S
C1206 H1180 0.950 . S
C1206 C1202 1.385 . S
C1206 C1205 1.374 . S
C1207 C1204 1.499 . S
C1207 C1208 1.373 . S
C1207 C1209 1.389 . S
C1208 H1181 0.950 . S
C1208 C1194 1.377 . S
C1208 C1207 1.373 . S
C1209 C1193 1.377 . S
C1209 C1207 1.389 . S
C1209 C1210 1.524 . S
C1210 C1209 1.524 . S
C1210 C1211 1.397 . S
C1210 C1215 1.363 . S
C1211 H1182 0.950 . S
C1211 C1210 1.397 . S
C1211 C1212 1.334 . S
C1212 H1183 0.950 . S
C1212 C1211 1.334 . S
C1212 C1213 1.287 . S
C1213 C1212 1.287 . S
C1213 C1214 1.524 . S
C1213 H1216 0.999 . S
C1214 H1184 0.950 . S
C1214 C1213 1.524 . S
C1214 C1215 1.415 . S
C1215 H1185 0.950 . S
C1215 C1210 1.363 . S
C1215 C1214 1.415 . S
H1216 C1213 0.999 . S
H1217 C1198 0.913 . S
H1218 C1236 0.951 . S
H1219 C1238 0.951 . S
H1220 C1240 0.950 . S
H1221 C1241 0.950 . S
H1222 C1243 0.950 . S
H1223 C1246 0.950 . S
H1224 C1247 0.950 . S
H1225 C1249 0.950 . S
H1226 C1250 0.950 . S
H1227 C1251 0.951 . S
H1228 C1253 0.951 . S
H1229 C1255 0.950 . S
H1230 C1256 0.950 . S
H1231 C1258 0.950 . S
H1232 C1261 0.950 . S
H1233 C1262 0.950 . S
H1234 C1264 0.950 . S
H1235 C1265 0.950 . S
C1236 H1218 0.951 . S
C1236 C1237 1.366 . S
C1236 C1238 1.388 . S
C1237 C1236 1.366 . S
C1237 C1241 1.385 . S
C1238 H1219 0.951 . S
C1238 C1236 1.388 . S
C1238 C1239 1.366 . S
C1239 C1238 1.366 . S
C1239 C1240 1.414 . S
C1239 C1242 1.499 . S
C1240 H1220 0.950 . S
C1240 C1239 1.414 . S
C1240 C1241 1.374 . S
C1241 H1221 0.950 . S
C1241 C1237 1.385 . S
C1241 C1240 1.374 . S
C1242 C1239 1.499 . S
C1242 C1243 1.373 . S
C1242 C1244 1.389 . S
C1243 H1222 0.950 . S
C1243 C1242 1.373 . S
C1243 C1259 1.377 . S
C1244 C1242 1.389 . S
C1244 C1245 1.524 . S
C1244 C1258 1.377 . S
C1245 C1244 1.524 . S
C1245 C1246 1.397 . S
C1245 C1250 1.363 . S
C1246 H1223 0.950 . S
C1246 C1245 1.397 . S
C1246 C1247 1.334 . S
C1247 H1224 0.950 . S
C1247 C1246 1.334 . S
C1247 C1248 1.287 . S
C1248 C1247 1.287 . S
C1248 C1249 1.524 . S
C1248 H1267 0.913 . S
C1249 H1225 0.950 . S
C1249 C1248 1.524 . S
C1249 C1250 1.415 . S
C1250 H1226 0.950 . S
C1250 C1245 1.363 . S
C1250 C1249 1.415 . S
C1251 H1227 0.951 . S
C1251 C1252 1.366 . S
C1251 C1253 1.388 . S
C1252 C1251 1.366 . S
C1252 C1256 1.385 . S
C1253 H1228 0.951 . S
C1253 C1251 1.388 . S
C1253 C1254 1.366 . S
C1254 C1253 1.366 . S
C1254 C1255 1.414 . S
C1254 C1257 1.499 . S
C1255 H1229 0.950 . S
C1255 C1254 1.414 . S
C1255 C1256 1.374 . S
C1256 H1230 0.950 . S
C1256 C1252 1.385 . S
C1256 C1255 1.374 . S
C1257 C1254 1.499 . S
C1257 C1258 1.373 . S
C1257 C1259 1.389 . S
C1258 H1231 0.950 . S
C1258 C1244 1.377 . S
C1258 C1257 1.373 . S
C1259 C1243 1.377 . S
C1259 C1257 1.389 . S
C1259 C1260 1.524 . S
C1260 C1259 1.524 . S
C1260 C1261 1.397 . S
C1260 C1265 1.363 . S
C1261 H1232 0.950 . S
C1261 C1260 1.397 . S
C1261 C1262 1.334 . S
C1262 H1233 0.950 . S
C1262 C1261 1.334 . S
C1262 C1263 1.287 1_554 S
C1263 C1262 1.287 1_556 S
C1263 C1264 1.524 . S
C1263 H1266 0.999 . S
C1264 H1234 0.950 . S
C1264 C1263 1.524 . S
C1264 C1265 1.415 1_556 S
C1265 H1235 0.950 . S
C1265 C1260 1.363 . S
C1265 C1264 1.415 1_554 S
H1266 C1263 0.999 . S
H1267 C1248 0.913 . S
H1268 C1286 0.951 . S
H1269 C1288 0.951 . S
H1270 C1290 0.950 . S
H1271 C1291 0.950 . S
H1272 C1293 0.950 . S
H1273 C1296 0.950 . S
H1274 C1297 0.950 . S
H1275 C1299 0.950 . S
H1276 C1300 0.950 . S
H1277 C1301 0.951 . S
H1278 C1303 0.951 . S
H1279 C1305 0.950 . S
H1280 C1306 0.950 . S
H1281 C1308 0.950 . S
H1282 C1311 0.950 . S
H1283 C1312 0.950 . S
H1284 C1314 0.950 . S
H1285 C1315 0.950 . S
C1286 H1268 0.951 . S
C1286 C1287 1.366 . S
C1286 C1288 1.388 . S
C1287 C1286 1.366 . S
C1287 C1291 1.385 . S
C1288 H1269 0.951 . S
C1288 C1286 1.388 . S
C1288 C1289 1.366 . S
C1289 C1288 1.366 . S
C1289 C1290 1.414 . S
C1289 C1292 1.499 . S
C1290 H1270 0.950 . S
C1290 C1289 1.414 . S
C1290 C1291 1.374 . S
C1291 H1271 0.950 . S
C1291 C1287 1.385 . S
C1291 C1290 1.374 . S
C1292 C1289 1.499 . S
C1292 C1293 1.373 . S
C1292 C1294 1.389 . S
C1293 H1272 0.950 . S
C1293 C1292 1.373 . S
C1293 C1309 1.377 . S
C1294 C1292 1.389 . S
C1294 C1295 1.524 . S
C1294 C1308 1.377 . S
C1295 C1294 1.524 . S
C1295 C1296 1.397 . S
C1295 C1300 1.363 . S
C1296 H1273 0.950 . S
C1296 C1295 1.397 . S
C1296 C1297 1.334 . S
C1297 H1274 0.950 . S
C1297 C1296 1.334 . S
C1297 C1298 1.287 . S
C1298 C1297 1.287 . S
C1298 C1299 1.524 . S
C1298 H1317 0.913 . S
C1299 H1275 0.950 . S
C1299 C1298 1.524 . S
C1299 C1300 1.415 . S
C1300 H1276 0.950 . S
C1300 C1295 1.363 . S
C1300 C1299 1.415 . S
C1301 H1277 0.951 . S
C1301 C1302 1.366 . S
C1301 C1303 1.388 . S
C1302 C1301 1.366 . S
C1302 C1306 1.385 . S
C1303 H1278 0.951 . S
C1303 C1301 1.388 . S
C1303 C1304 1.366 . S
C1304 C1303 1.366 . S
C1304 C1305 1.414 . S
C1304 C1307 1.499 . S
C1305 H1279 0.950 . S
C1305 C1304 1.414 . S
C1305 C1306 1.374 . S
C1306 H1280 0.950 . S
C1306 C1302 1.385 . S
C1306 C1305 1.374 . S
C1307 C1304 1.499 . S
C1307 C1308 1.373 . S
C1307 C1309 1.389 . S
C1308 H1281 0.950 . S
C1308 C1294 1.377 . S
C1308 C1307 1.373 . S
C1309 C1293 1.377 . S
C1309 C1307 1.389 . S
C1309 C1310 1.524 . S
C1310 C1309 1.524 . S
C1310 C1311 1.397 . S
C1310 C1315 1.363 . S
C1311 H1282 0.950 . S
C1311 C1310 1.397 . S
C1311 C1312 1.334 . S
C1312 H1283 0.950 . S
C1312 C1311 1.334 . S
C1312 C1313 1.287 . S
C1313 C1312 1.287 . S
C1313 C1314 1.524 . S
C1313 H1316 0.999 . S
C1314 H1284 0.950 . S
C1314 C1313 1.524 . S
C1314 C1315 1.415 . S
C1315 H1285 0.950 . S
C1315 C1310 1.363 . S
C1315 C1314 1.415 . S
H1316 C1313 0.999 . S
H1317 C1298 0.913 . S
H1318 C1336 0.951 . S
H1319 C1338 0.951 . S
H1320 C1340 0.950 . S
H1321 C1341 0.950 . S
H1322 C1343 0.950 . S
H1323 C1346 0.950 . S
H1324 C1347 0.950 . S
H1325 C1349 0.950 . S
H1326 C1350 0.950 . S
H1327 C1351 0.951 . S
H1328 C1353 0.951 . S
H1329 C1355 0.950 . S
H1330 C1356 0.950 . S
H1331 C1358 0.950 . S
H1332 C1361 0.950 . S
H1333 C1362 0.950 . S
H1334 C1364 0.950 . S
H1335 C1365 0.950 . S
C1336 H1318 0.951 . S
C1336 C1337 1.366 . S
C1336 C1338 1.388 . S
C1337 C1336 1.366 . S
C1337 C1341 1.385 . S
C1338 H1319 0.951 . S
C1338 C1336 1.388 . S
C1338 C1339 1.366 . S
C1339 C1338 1.366 . S
C1339 C1340 1.414 . S
C1339 C1342 1.499 . S
C1340 H1320 0.950 . S
C1340 C1339 1.414 . S
C1340 C1341 1.374 . S
C1341 H1321 0.950 . S
C1341 C1337 1.385 . S
C1341 C1340 1.374 . S
C1342 C1339 1.499 . S
C1342 C1343 1.373 . S
C1342 C1344 1.389 . S
C1343 H1322 0.950 . S
C1343 C1342 1.373 . S
C1343 C1359 1.377 . S
C1344 C1342 1.389 . S
C1344 C1345 1.524 . S
C1344 C1358 1.377 . S
C1345 C1344 1.524 . S
C1345 C1346 1.397 . S
C1345 C1350 1.363 . S
C1346 H1323 0.950 . S
C1346 C1345 1.397 . S
C1346 C1347 1.334 . S
C1347 H1324 0.950 . S
C1347 C1346 1.334 . S
C1347 C1348 1.287 . S
C1348 C1347 1.287 . S
C1348 C1349 1.524 . S
C1348 H1367 0.913 . S
C1349 H1325 0.950 . S
C1349 C1348 1.524 . S
C1349 C1350 1.415 . S
C1350 H1326 0.950 . S
C1350 C1345 1.363 . S
C1350 C1349 1.415 . S
C1351 H1327 0.951 . S
C1351 C1352 1.366 . S
C1351 C1353 1.388 . S
C1352 C1351 1.366 . S
C1352 C1356 1.385 . S
C1353 H1328 0.951 . S
C1353 C1351 1.388 . S
C1353 C1354 1.366 . S
C1354 C1353 1.366 . S
C1354 C1355 1.414 . S
C1354 C1357 1.499 . S
C1355 H1329 0.950 . S
C1355 C1354 1.414 . S
C1355 C1356 1.374 . S
C1356 H1330 0.950 . S
C1356 C1352 1.385 . S
C1356 C1355 1.374 . S
C1357 C1354 1.499 . S
C1357 C1358 1.373 . S
C1357 C1359 1.389 . S
C1358 H1331 0.950 . S
C1358 C1344 1.377 . S
C1358 C1357 1.373 . S
C1359 C1343 1.377 . S
C1359 C1357 1.389 . S
C1359 C1360 1.524 . S
C1360 C1359 1.524 . S
C1360 C1361 1.397 . S
C1360 C1365 1.363 . S
C1361 H1332 0.950 . S
C1361 C1360 1.397 . S
C1361 C1362 1.334 . S
C1362 H1333 0.950 . S
C1362 C1361 1.334 . S
C1362 C1363 1.287 . S
C1363 C1362 1.287 . S
C1363 C1364 1.524 . S
C1363 H1366 0.999 . S
C1364 H1334 0.950 . S
C1364 C1363 1.524 . S
C1364 C1365 1.415 . S
C1365 H1335 0.950 . S
C1365 C1360 1.363 . S
C1365 C1364 1.415 . S
H1366 C1363 0.999 . S
H1367 C1348 0.913 . S
H1368 C1386 0.951 . S
H1369 C1388 0.951 . S
H1370 C1390 0.950 . S
H1371 C1391 0.950 . S
H1372 C1393 0.950 . S
H1373 C1396 0.950 . S
H1374 C1397 0.950 . S
H1375 C1399 0.950 . S
H1376 C1400 0.950 . S
H1377 C1401 0.951 . S
H1378 C1403 0.951 . S
H1379 C1405 0.950 . S
H1380 C1406 0.950 . S
H1381 C1408 0.950 . S
H1382 C1411 0.950 . S
H1383 C1412 0.950 . S
H1384 C1414 0.950 . S
H1385 C1415 0.950 . S
C1386 H1368 0.951 . S
C1386 C1387 1.366 . S
C1386 C1388 1.388 . S
C1387 C1386 1.366 . S
C1387 C1391 1.385 . S
C1388 H1369 0.951 . S
C1388 C1386 1.388 . S
C1388 C1389 1.366 . S
C1389 C1388 1.366 . S
C1389 C1390 1.414 . S
C1389 C1392 1.499 . S
C1390 H1370 0.950 . S
C1390 C1389 1.414 . S
C1390 C1391 1.374 . S
C1391 H1371 0.950 . S
C1391 C1387 1.385 . S
C1391 C1390 1.374 . S
C1392 C1389 1.499 . S
C1392 C1393 1.373 . S
C1392 C1394 1.389 . S
C1393 H1372 0.950 . S
C1393 C1392 1.373 . S
C1393 C1409 1.377 . S
C1394 C1392 1.389 . S
C1394 C1395 1.524 . S
C1394 C1408 1.377 . S
C1395 C1394 1.524 . S
C1395 C1396 1.397 . S
C1395 C1400 1.363 . S
C1396 H1373 0.950 . S
C1396 C1395 1.397 . S
C1396 C1397 1.334 . S
C1397 H1374 0.950 . S
C1397 C1396 1.334 . S
C1397 C1398 1.287 . S
C1398 C1397 1.287 . S
C1398 C1399 1.524 . S
C1398 H1417 0.913 . S
C1399 H1375 0.950 . S
C1399 C1398 1.524 . S
C1399 C1400 1.415 . S
C1400 H1376 0.950 . S
C1400 C1395 1.363 . S
C1400 C1399 1.415 . S
C1401 H1377 0.951 . S
C1401 C1402 1.366 . S
C1401 C1403 1.388 . S
C1402 C1401 1.366 . S
C1402 C1406 1.385 . S
C1403 H1378 0.951 . S
C1403 C1401 1.388 . S
C1403 C1404 1.366 . S
C1404 C1403 1.366 . S
C1404 C1405 1.414 . S
C1404 C1407 1.499 . S
C1405 H1379 0.950 . S
C1405 C1404 1.414 . S
C1405 C1406 1.374 . S
C1406 H1380 0.950 . S
C1406 C1402 1.385 . S
C1406 C1405 1.374 . S
C1407 C1404 1.499 . S
C1407 C1408 1.373 . S
C1407 C1409 1.389 . S
C1408 H1381 0.950 . S
C1408 C1394 1.377 . S
C1408 C1407 1.373 . S
C1409 C1393 1.377 . S
C1409 C1407 1.389 . S
C1409 C1410 1.524 . S
C1410 C1409 1.524 . S
C1410 C1411 1.397 . S
C1410 C1415 1.363 . S
C1411 H1382 0.950 . S
C1411 C1410 1.397 . S
C1411 C1412 1.334 . S
C1412 H1383 0.950 . S
C1412 C1411 1.334 . S
C1412 C1413 1.287 . S
C1413 C1412 1.287 . S
C1413 C1414 1.524 . S
C1413 H1416 0.999 . S
C1414 H1384 0.950 . S
C1414 C1413 1.524 . S
C1414 C1415 1.415 . S
C1415 H1385 0.950 . S
C1415 C1410 1.363 . S
C1415 C1414 1.415 . S
H1416 C1413 0.999 . S
H1417 C1398 0.913 . S
H1418 C1436 0.951 . S
H1419 C1438 0.951 . S
H1420 C1440 0.950 . S
H1421 C1441 0.950 . S
H1422 C1443 0.950 . S
H1423 C1446 0.950 . S
H1424 C1447 0.950 . S
H1425 C1449 0.950 . S
H1426 C1450 0.950 . S
H1427 C1451 0.951 . S
H1428 C1453 0.951 . S
H1429 C1455 0.950 . S
H1430 C1456 0.950 . S
H1431 C1458 0.950 . S
H1432 C1461 0.950 . S
H1433 C1462 0.950 . S
H1434 C1464 0.950 . S
H1435 C1465 0.950 . S
C1436 H1418 0.951 . S
C1436 C1437 1.366 . S
C1436 C1438 1.388 . S
C1437 C1436 1.366 . S
C1437 C1441 1.385 . S
C1438 H1419 0.951 . S
C1438 C1436 1.388 . S
C1438 C1439 1.366 . S
C1439 C1438 1.366 . S
C1439 C1440 1.414 . S
C1439 C1442 1.499 . S
C1440 H1420 0.950 . S
C1440 C1439 1.414 . S
C1440 C1441 1.374 . S
C1441 H1421 0.950 . S
C1441 C1437 1.385 . S
C1441 C1440 1.374 . S
C1442 C1439 1.499 . S
C1442 C1443 1.373 . S
C1442 C1444 1.389 . S
C1443 H1422 0.950 . S
C1443 C1442 1.373 . S
C1443 C1459 1.377 . S
C1444 C1442 1.389 . S
C1444 C1445 1.524 . S
C1444 C1458 1.377 . S
C1445 C1444 1.524 . S
C1445 C1446 1.397 . S
C1445 C1450 1.363 . S
C1446 H1423 0.950 . S
C1446 C1445 1.397 . S
C1446 C1447 1.334 . S
C1447 H1424 0.950 . S
C1447 C1446 1.334 . S
C1447 C1448 1.287 . S
C1448 C1447 1.287 . S
C1448 C1449 1.524 . S
C1448 H1467 0.913 . S
C1449 H1425 0.950 . S
C1449 C1448 1.524 . S
C1449 C1450 1.415 . S
C1450 H1426 0.950 . S
C1450 C1445 1.363 . S
C1450 C1449 1.415 . S
C1451 H1427 0.951 . S
C1451 C1452 1.366 . S
C1451 C1453 1.388 . S
C1452 C1451 1.366 . S
C1452 C1456 1.385 . S
C1453 H1428 0.951 . S
C1453 C1451 1.388 . S
C1453 C1454 1.366 . S
C1454 C1453 1.366 . S
C1454 C1455 1.414 . S
C1454 C1457 1.499 . S
C1455 H1429 0.950 . S
C1455 C1454 1.414 . S
C1455 C1456 1.374 . S
C1456 H1430 0.950 . S
C1456 C1452 1.385 . S
C1456 C1455 1.374 . S
C1457 C1454 1.499 . S
C1457 C1458 1.373 . S
C1457 C1459 1.389 . S
C1458 H1431 0.950 . S
C1458 C1444 1.377 . S
C1458 C1457 1.373 . S
C1459 C1443 1.377 . S
C1459 C1457 1.389 . S
C1459 C1460 1.524 . S
C1460 C1459 1.524 . S
C1460 C1461 1.397 . S
C1460 C1465 1.363 . S
C1461 H1432 0.950 . S
C1461 C1460 1.397 . S
C1461 C1462 1.334 . S
C1462 H1433 0.950 . S
C1462 C1461 1.334 . S
C1462 C1463 1.287 . S
C1463 C1462 1.287 . S
C1463 C1464 1.524 . S
C1463 H1466 0.999 . S
C1464 H1434 0.950 . S
C1464 C1463 1.524 . S
C1464 C1465 1.415 . S
C1465 H1435 0.950 . S
C1465 C1460 1.363 . S
C1465 C1464 1.415 . S
H1466 C1463 0.999 . S
H1467 C1448 0.913 . S
H1468 C1486 0.951 . S
H1469 C1488 0.951 . S
H1470 C1490 0.950 . S
H1471 C1491 0.950 . S
H1472 C1493 0.950 . S
H1473 C1496 0.950 . S
H1474 C1497 0.950 . S
H1475 C1499 0.950 . S
H1476 C1500 0.950 . S
H1477 C1501 0.951 . S
H1478 C1503 0.951 . S
H1479 C1505 0.950 . S
H1480 C1506 0.950 . S
H1481 C1508 0.950 . S
H1482 C1511 0.950 . S
H1483 C1512 0.950 . S
H1484 C1514 0.950 . S
H1485 C1515 0.950 . S
C1486 H1468 0.951 . S
C1486 C1487 1.366 . S
C1486 C1488 1.388 . S
C1487 C1486 1.366 . S
C1487 C1491 1.385 . S
C1488 H1469 0.951 . S
C1488 C1486 1.388 . S
C1488 C1489 1.366 . S
C1489 C1488 1.366 . S
C1489 C1490 1.414 . S
C1489 C1492 1.499 . S
C1490 H1470 0.950 . S
C1490 C1489 1.414 . S
C1490 C1491 1.374 . S
C1491 H1471 0.950 . S
C1491 C1487 1.385 . S
C1491 C1490 1.374 . S
C1492 C1489 1.499 . S
C1492 C1493 1.373 . S
C1492 C1494 1.389 . S
C1493 H1472 0.950 . S
C1493 C1492 1.373 . S
C1493 C1509 1.377 . S
C1494 C1492 1.389 . S
C1494 C1495 1.524 . S
C1494 C1508 1.377 . S
C1495 C1494 1.524 . S
C1495 C1496 1.397 . S
C1495 C1500 1.363 . S
C1496 H1473 0.950 . S
C1496 C1495 1.397 . S
C1496 C1497 1.334 . S
C1497 H1474 0.950 . S
C1497 C1496 1.334 . S
C1497 C1498 1.287 . S
C1498 C1497 1.287 . S
C1498 C1499 1.524 . S
C1498 H1517 0.913 . S
C1499 H1475 0.950 . S
C1499 C1498 1.524 . S
C1499 C1500 1.415 . S
C1500 H1476 0.950 . S
C1500 C1495 1.363 . S
C1500 C1499 1.415 . S
C1501 H1477 0.951 . S
C1501 C1502 1.366 . S
C1501 C1503 1.388 . S
C1502 C1501 1.366 . S
C1502 C1506 1.385 . S
C1503 H1478 0.951 . S
C1503 C1501 1.388 . S
C1503 C1504 1.366 . S
C1504 C1503 1.366 . S
C1504 C1505 1.414 . S
C1504 C1507 1.499 . S
C1505 H1479 0.950 . S
C1505 C1504 1.414 . S
C1505 C1506 1.374 . S
C1506 H1480 0.950 . S
C1506 C1502 1.385 . S
C1506 C1505 1.374 . S
C1507 C1504 1.499 . S
C1507 C1508 1.373 . S
C1507 C1509 1.389 . S
C1508 H1481 0.950 . S
C1508 C1494 1.377 . S
C1508 C1507 1.373 . S
C1509 C1493 1.377 . S
C1509 C1507 1.389 . S
C1509 C1510 1.524 . S
C1510 C1509 1.524 . S
C1510 C1511 1.397 . S
C1510 C1515 1.363 . S
C1511 H1482 0.950 . S
C1511 C1510 1.397 . S
C1511 C1512 1.334 . S
C1512 H1483 0.950 . S
C1512 C1511 1.334 . S
C1512 C1513 1.287 . S
C1513 C1512 1.287 . S
C1513 C1514 1.524 . S
C1513 H1516 0.999 . S
C1514 H1484 0.950 . S
C1514 C1513 1.524 . S
C1514 C1515 1.415 . S
C1515 H1485 0.950 . S
C1515 C1510 1.363 . S
C1515 C1514 1.415 . S
H1516 C1513 0.999 . S
H1517 C1498 0.913 . S
H1518 C1536 0.951 . S
H1519 C1538 0.951 . S
H1520 C1540 0.950 . S
H1521 C1541 0.950 . S
H1522 C1543 0.950 . S
H1523 C1546 0.950 . S
H1524 C1547 0.950 . S
H1525 C1549 0.950 . S
H1526 C1550 0.950 . S
H1527 C1551 0.951 . S
H1528 C1553 0.951 . S
H1529 C1555 0.949 . S
H1530 C1556 0.950 . S
H1531 C1558 0.950 . S
H1532 C1561 0.950 . S
H1533 C1562 0.950 . S
H1534 C1564 0.950 . S
H1535 C1565 0.950 . S
C1536 H1518 0.951 . S
C1536 C1537 1.366 . S
C1536 C1538 1.388 . S
C1537 C1536 1.366 . S
C1537 C1541 1.385 . S
C1538 H1519 0.951 . S
C1538 C1536 1.388 . S
C1538 C1539 1.366 . S
C1539 C1538 1.366 . S
C1539 C1540 1.414 . S
C1539 C1542 1.499 . S
C1540 H1520 0.950 . S
C1540 C1539 1.414 . S
C1540 C1541 1.374 . S
C1541 H1521 0.950 . S
C1541 C1537 1.385 . S
C1541 C1540 1.374 . S
C1542 C1539 1.499 . S
C1542 C1543 1.373 . S
C1542 C1544 1.389 . S
C1543 H1522 0.950 . S
C1543 C1542 1.373 . S
C1543 C1559 1.377 . S
C1544 C1542 1.389 . S
C1544 C1545 1.524 . S
C1544 C1558 1.377 . S
C1545 C1544 1.524 . S
C1545 C1546 1.397 . S
C1545 C1550 1.363 . S
C1546 H1523 0.950 . S
C1546 C1545 1.397 . S
C1546 C1547 1.334 . S
C1547 H1524 0.950 . S
C1547 C1546 1.334 . S
C1547 C1548 1.287 . S
C1548 C1547 1.287 . S
C1548 C1549 1.524 . S
C1548 H1567 0.913 . S
C1549 H1525 0.950 . S
C1549 C1548 1.524 . S
C1549 C1550 1.415 . S
C1550 H1526 0.950 . S
C1550 C1545 1.363 . S
C1550 C1549 1.415 . S
C1551 H1527 0.951 . S
C1551 C1552 1.366 . S
C1551 C1553 1.388 . S
C1552 C1551 1.366 . S
C1552 C1556 1.385 . S
C1553 H1528 0.951 . S
C1553 C1551 1.388 . S
C1553 C1554 1.366 . S
C1554 C1553 1.366 . S
C1554 C1555 1.414 . S
C1554 C1557 1.499 1_554 S
C1555 H1529 0.949 . S
C1555 C1554 1.414 . S
C1555 C1556 1.374 . S
C1556 H1530 0.950 . S
C1556 C1552 1.385 . S
C1556 C1555 1.374 . S
C1557 C1554 1.499 1_556 S
C1557 C1558 1.373 . S
C1557 C1559 1.389 . S
C1558 H1531 0.950 . S
C1558 C1544 1.377 . S
C1558 C1557 1.373 . S
C1559 C1543 1.377 . S
C1559 C1557 1.389 . S
C1559 C1560 1.524 . S
C1560 C1559 1.524 . S
C1560 C1561 1.397 . S
C1560 C1565 1.363 1_556 S
C1561 H1532 0.950 . S
C1561 C1560 1.397 . S
C1561 C1562 1.334 . S
C1562 H1533 0.950 . S
C1562 C1561 1.334 . S
C1562 C1563 1.287 1_556 S
C1563 C1562 1.287 1_554 S
C1563 C1564 1.524 . S
C1563 H1566 0.999 . S
C1564 H1534 0.950 . S
C1564 C1563 1.524 . S
C1564 C1565 1.415 . S
C1565 H1535 0.950 . S
C1565 C1560 1.363 1_554 S
C1565 C1564 1.415 . S
H1566 C1563 0.999 . S
H1567 C1548 0.913 . S
H1568 C1586 0.951 . S
H1569 C1588 0.951 . S
H1570 C1590 0.950 . S
H1571 C1591 0.950 . S
H1572 C1593 0.950 . S
H1573 C1596 0.950 . S
H1574 C1597 0.950 . S
H1575 C1599 0.950 . S
H1576 C1600 0.950 . S
H1577 C1601 0.951 . S
H1578 C1603 0.951 . S
H1579 C1605 0.950 . S
H1580 C1606 0.950 . S
H1581 C1608 0.950 . S
H1582 C1611 0.950 . S
H1583 C1612 0.950 . S
H1584 C1614 0.950 . S
H1585 C1615 0.950 . S
C1586 H1568 0.951 . S
C1586 C1587 1.366 . S
C1586 C1588 1.388 . S
C1587 C1586 1.366 . S
C1587 C1591 1.385 . S
C1588 H1569 0.951 . S
C1588 C1586 1.388 . S
C1588 C1589 1.366 . S
C1589 C1588 1.366 . S
C1589 C1590 1.414 . S
C1589 C1592 1.499 . S
C1590 H1570 0.950 . S
C1590 C1589 1.414 . S
C1590 C1591 1.374 . S
C1591 H1571 0.950 . S
C1591 C1587 1.385 . S
C1591 C1590 1.374 . S
C1592 C1589 1.499 . S
C1592 C1593 1.373 . S
C1592 C1594 1.389 . S
C1593 H1572 0.950 . S
C1593 C1592 1.373 . S
C1593 C1609 1.377 . S
C1594 C1592 1.389 . S
C1594 C1595 1.524 . S
C1594 C1608 1.377 . S
C1595 C1594 1.524 . S
C1595 C1596 1.397 . S
C1595 C1600 1.363 . S
C1596 H1573 0.950 . S
C1596 C1595 1.397 . S
C1596 C1597 1.334 . S
C1597 H1574 0.950 . S
C1597 C1596 1.334 . S
C1597 C1598 1.287 . S
C1598 C1597 1.287 . S
C1598 C1599 1.524 . S
C1598 H1617 0.913 . S
C1599 H1575 0.950 . S
C1599 C1598 1.524 . S
C1599 C1600 1.415 . S
C1600 H1576 0.950 . S
C1600 C1595 1.363 . S
C1600 C1599 1.415 . S
C1601 H1577 0.951 . S
C1601 C1602 1.366 . S
C1601 C1603 1.388 . S
C1602 C1601 1.366 . S
C1602 C1606 1.385 . S
C1603 H1578 0.951 . S
C1603 C1601 1.388 . S
C1603 C1604 1.366 . S
C1604 C1603 1.366 . S
C1604 C1605 1.414 . S
C1604 C1607 1.499 . S
C1605 H1579 0.950 . S
C1605 C1604 1.414 . S
C1605 C1606 1.374 . S
C1606 H1580 0.950 . S
C1606 C1602 1.385 . S
C1606 C1605 1.374 . S
C1607 C1604 1.499 . S
C1607 C1608 1.373 . S
C1607 C1609 1.389 . S
C1608 H1581 0.950 . S
C1608 C1594 1.377 . S
C1608 C1607 1.373 . S
C1609 C1593 1.377 . S
C1609 C1607 1.389 . S
C1609 C1610 1.524 . S
C1610 C1609 1.524 . S
C1610 C1611 1.397 . S
C1610 C1615 1.363 . S
C1611 H1582 0.950 . S
C1611 C1610 1.397 . S
C1611 C1612 1.334 . S
C1612 H1583 0.950 . S
C1612 C1611 1.334 . S
C1612 C1613 1.287 . S
C1613 C1612 1.287 . S
C1613 C1614 1.524 . S
C1613 H1616 0.999 . S
C1614 H1584 0.950 . S
C1614 C1613 1.524 . S
C1614 C1615 1.415 . S
C1615 H1585 0.950 . S
C1615 C1610 1.363 . S
C1615 C1614 1.415 . S
H1616 C1613 0.999 . S
H1617 C1598 0.913 . S
H1618 C1636 0.951 . S
H1619 C1638 0.951 . S
H1620 C1640 0.950 . S
H1621 C1641 0.950 . S
H1622 C1643 0.950 . S
H1623 C1646 0.950 . S
H1624 C1647 0.950 . S
H1625 C1649 0.950 . S
H1626 C1650 0.950 . S
H1627 C1651 0.951 . S
H1628 C1653 0.951 . S
H1629 C1655 0.950 . S
H1630 C1656 0.950 . S
H1631 C1658 0.950 . S
H1632 C1661 0.950 . S
H1633 C1662 0.950 . S
H1634 C1664 0.950 . S
H1635 C1665 0.950 . S
C1636 H1618 0.951 . S
C1636 C1637 1.366 . S
C1636 C1638 1.388 . S
C1637 C1636 1.366 . S
C1637 C1641 1.385 . S
C1638 H1619 0.951 . S
C1638 C1636 1.388 . S
C1638 C1639 1.366 . S
C1639 C1638 1.366 . S
C1639 C1640 1.414 . S
C1639 C1642 1.499 . S
C1640 H1620 0.950 . S
C1640 C1639 1.414 . S
C1640 C1641 1.374 . S
C1641 H1621 0.950 . S
C1641 C1637 1.385 . S
C1641 C1640 1.374 . S
C1642 C1639 1.499 . S
C1642 C1643 1.373 . S
C1642 C1644 1.389 . S
C1643 H1622 0.950 . S
C1643 C1642 1.373 . S
C1643 C1659 1.377 . S
C1644 C1642 1.389 . S
C1644 C1645 1.524 . S
C1644 C1658 1.377 . S
C1645 C1644 1.524 . S
C1645 C1646 1.397 . S
C1645 C1650 1.363 . S
C1646 H1623 0.950 . S
C1646 C1645 1.397 . S
C1646 C1647 1.334 . S
C1647 H1624 0.950 . S
C1647 C1646 1.334 . S
C1647 C1648 1.287 . S
C1648 C1647 1.287 . S
C1648 C1649 1.524 . S
C1648 H1667 0.913 . S
C1649 H1625 0.950 . S
C1649 C1648 1.524 . S
C1649 C1650 1.415 . S
C1650 H1626 0.950 . S
C1650 C1645 1.363 . S
C1650 C1649 1.415 . S
C1651 H1627 0.951 . S
C1651 C1652 1.366 . S
C1651 C1653 1.388 . S
C1652 C1651 1.366 . S
C1652 C1656 1.385 . S
C1653 H1628 0.951 . S
C1653 C1651 1.388 . S
C1653 C1654 1.366 . S
C1654 C1653 1.366 . S
C1654 C1655 1.414 . S
C1654 C1657 1.499 . S
C1655 H1629 0.950 . S
C1655 C1654 1.414 . S
C1655 C1656 1.374 . S
C1656 H1630 0.950 . S
C1656 C1652 1.385 . S
C1656 C1655 1.374 . S
C1657 C1654 1.499 . S
C1657 C1658 1.373 . S
C1657 C1659 1.389 . S
C1658 H1631 0.950 . S
C1658 C1644 1.377 . S
C1658 C1657 1.373 . S
C1659 C1643 1.377 . S
C1659 C1657 1.389 . S
C1659 C1660 1.524 . S
C1660 C1659 1.524 . S
C1660 C1661 1.397 . S
C1660 C1665 1.363 . S
C1661 H1632 0.950 . S
C1661 C1660 1.397 . S
C1661 C1662 1.334 . S
C1662 H1633 0.950 . S
C1662 C1661 1.334 . S
C1662 C1663 1.287 . S
C1663 C1662 1.287 . S
C1663 C1664 1.524 . S
C1663 H1666 0.999 . S
C1664 H1634 0.950 . S
C1664 C1663 1.524 . S
C1664 C1665 1.415 . S
C1665 H1635 0.950 . S
C1665 C1660 1.363 . S
C1665 C1664 1.415 . S
H1666 C1663 0.999 . S
H1667 C1648 0.913 . S
H1668 C1686 0.951 . S
H1669 C1688 0.951 . S
H1670 C1690 0.950 . S
H1671 C1691 0.950 . S
H1672 C1693 0.950 . S
H1673 C1696 0.950 . S
H1674 C1697 0.950 . S
H1675 C1699 0.950 . S
H1676 C1700 0.950 . S
H1677 C1701 0.951 . S
H1678 C1703 0.951 . S
H1679 C1705 0.950 . S
H1680 C1706 0.950 . S
H1681 C1708 0.950 . S
H1682 C1711 0.950 . S
H1683 C1712 0.950 . S
H1684 C1714 0.950 . S
H1685 C1715 0.950 . S
C1686 H1668 0.951 . S
C1686 C1687 1.366 . S
C1686 C1688 1.388 . S
C1687 C1686 1.366 . S
C1687 C1691 1.385 . S
C1688 H1669 0.951 . S
C1688 C1686 1.388 . S
C1688 C1689 1.366 . S
C1689 C1688 1.366 . S
C1689 C1690 1.414 . S
C1689 C1692 1.499 . S
C1690 H1670 0.950 . S
C1690 C1689 1.414 . S
C1690 C1691 1.374 . S
C1691 H1671 0.950 . S
C1691 C1687 1.385 . S
C1691 C1690 1.374 . S
C1692 C1689 1.499 . S
C1692 C1693 1.373 . S
C1692 C1694 1.389 . S
C1693 H1672 0.950 . S
C1693 C1692 1.373 . S
C1693 C1709 1.377 . S
C1694 C1692 1.389 . S
C1694 C1695 1.524 . S
C1694 C1708 1.377 . S
C1695 C1694 1.524 . S
C1695 C1696 1.397 . S
C1695 C1700 1.363 . S
C1696 H1673 0.950 . S
C1696 C1695 1.397 . S
C1696 C1697 1.334 . S
C1697 H1674 0.950 . S
C1697 C1696 1.334 . S
C1697 C1698 1.287 . S
C1698 C1697 1.287 . S
C1698 C1699 1.524 . S
C1698 H1717 0.913 . S
C1699 H1675 0.950 . S
C1699 C1698 1.524 . S
C1699 C1700 1.415 . S
C1700 H1676 0.950 . S
C1700 C1695 1.363 . S
C1700 C1699 1.415 . S
C1701 H1677 0.951 . S
C1701 C1702 1.366 . S
C1701 C1703 1.388 . S
C1702 C1701 1.366 . S
C1702 C1706 1.385 . S
C1703 H1678 0.951 . S
C1703 C1701 1.388 . S
C1703 C1704 1.366 . S
C1704 C1703 1.366 . S
C1704 C1705 1.414 . S
C1704 C1707 1.499 . S
C1705 H1679 0.950 . S
C1705 C1704 1.414 . S
C1705 C1706 1.374 . S
C1706 H1680 0.950 . S
C1706 C1702 1.385 . S
C1706 C1705 1.374 . S
C1707 C1704 1.499 . S
C1707 C1708 1.373 . S
C1707 C1709 1.389 . S
C1708 H1681 0.950 . S
C1708 C1694 1.377 . S
C1708 C1707 1.373 . S
C1709 C1693 1.377 . S
C1709 C1707 1.389 . S
C1709 C1710 1.524 . S
C1710 C1709 1.524 . S
C1710 C1711 1.397 . S
C1710 C1715 1.363 . S
C1711 H1682 0.950 . S
C1711 C1710 1.397 . S
C1711 C1712 1.334 . S
C1712 H1683 0.950 . S
C1712 C1711 1.334 . S
C1712 C1713 1.287 . S
C1713 C1712 1.287 . S
C1713 C1714 1.524 . S
C1713 H1716 0.999 . S
C1714 H1684 0.950 . S
C1714 C1713 1.524 . S
C1714 C1715 1.415 . S
C1715 H1685 0.950 . S
C1715 C1710 1.363 . S
C1715 C1714 1.415 . S
H1716 C1713 0.999 . S
H1717 C1698 0.913 . S
H1718 C1736 0.951 . S
H1719 C1738 0.951 . S
H1720 C1740 0.950 . S
H1721 C1741 0.950 . S
H1722 C1743 0.950 . S
H1723 C1746 0.950 . S
H1724 C1747 0.950 . S
H1725 C1749 0.950 . S
H1726 C1750 0.950 . S
H1727 C1751 0.951 . S
H1728 C1753 0.951 . S
H1729 C1755 0.950 . S
H1730 C1756 0.950 . S
H1731 C1758 0.950 . S
H1732 C1761 0.950 . S
H1733 C1762 0.950 . S
H1734 C1764 0.950 . S
H1735 C1765 0.950 . S
C1736 H1718 0.951 . S
C1736 C1737 1.366 . S
C1736 C1738 1.388 . S
C1737 C1736 1.366 . S
C1737 C1741 1.385 . S
C1738 H1719 0.951 . S
C1738 C1736 1.388 . S
C1738 C1739 1.366 . S
C1739 C1738 1.366 . S
C1739 C1740 1.414 . S
C1739 C1742 1.499 . S
C1740 H1720 0.950 . S
C1740 C1739 1.414 . S
C1740 C1741 1.374 . S
C1741 H1721 0.950 . S
C1741 C1737 1.385 . S
C1741 C1740 1.374 . S
C1742 C1739 1.499 . S
C1742 C1743 1.373 . S
C1742 C1744 1.389 . S
C1743 H1722 0.950 . S
C1743 C1742 1.373 . S
C1743 C1759 1.377 . S
C1744 C1742 1.389 . S
C1744 C1745 1.524 . S
C1744 C1758 1.377 . S
C1745 C1744 1.524 . S
C1745 C1746 1.397 . S
C1745 C1750 1.363 . S
C1746 H1723 0.950 . S
C1746 C1745 1.397 . S
C1746 C1747 1.334 . S
C1747 H1724 0.950 . S
C1747 C1746 1.334 . S
C1747 C1748 1.287 . S
C1748 C1747 1.287 . S
C1748 C1749 1.524 . S
C1748 H1767 0.913 . S
C1749 H1725 0.950 . S
C1749 C1748 1.524 . S
C1749 C1750 1.415 . S
C1750 H1726 0.950 . S
C1750 C1745 1.363 . S
C1750 C1749 1.415 . S
C1751 H1727 0.951 . S
C1751 C1752 1.366 . S
C1751 C1753 1.388 . S
C1752 C1751 1.366 . S
C1752 C1756 1.385 . S
C1753 H1728 0.951 . S
C1753 C1751 1.388 . S
C1753 C1754 1.366 . S
C1754 C1753 1.366 . S
C1754 C1755 1.414 . S
C1754 C1757 1.499 . S
C1755 H1729 0.950 . S
C1755 C1754 1.414 . S
C1755 C1756 1.374 . S
C1756 H1730 0.950 . S
C1756 C1752 1.385 . S
C1756 C1755 1.374 . S
C1757 C1754 1.499 . S
C1757 C1758 1.373 . S
C1757 C1759 1.389 . S
C1758 H1731 0.950 . S
C1758 C1744 1.377 . S
C1758 C1757 1.373 . S
C1759 C1743 1.377 . S
C1759 C1757 1.389 . S
C1759 C1760 1.524 . S
C1760 C1759 1.524 . S
C1760 C1761 1.397 . S
C1760 C1765 1.363 . S
C1761 H1732 0.950 . S
C1761 C1760 1.397 . S
C1761 C1762 1.334 . S
C1762 H1733 0.950 . S
C1762 C1761 1.334 . S
C1762 C1763 1.287 . S
C1763 C1762 1.287 . S
C1763 C1764 1.524 . S
C1763 H1766 0.999 . S
C1764 H1734 0.950 . S
C1764 C1763 1.524 . S
C1764 C1765 1.415 . S
C1765 H1735 0.950 . S
C1765 C1760 1.363 . S
C1765 C1764 1.415 . S
H1766 C1763 0.999 . S
H1767 C1748 0.913 . S
H1768 C1786 0.951 . S
H1769 C1788 0.951 . S
H1770 C1790 0.950 . S
H1771 C1791 0.950 . S
H1772 C1793 0.950 . S
H1773 C1796 0.950 . S
H1774 C1797 0.950 . S
H1775 C1799 0.950 . S
H1776 C1800 0.950 . S
H1777 C1801 0.951 . S
H1778 C1803 0.951 . S
H1779 C1805 0.950 . S
H1780 C1806 0.950 . S
H1781 C1808 0.950 . S
H1782 C1811 0.950 . S
H1783 C1812 0.950 . S
H1784 C1814 0.950 . S
H1785 C1815 0.950 . S
C1786 H1768 0.951 . S
C1786 C1787 1.366 . S
C1786 C1788 1.388 . S
C1787 C1786 1.366 . S
C1787 C1791 1.385 . S
C1788 H1769 0.951 . S
C1788 C1786 1.388 . S
C1788 C1789 1.366 . S
C1789 C1788 1.366 . S
C1789 C1790 1.414 . S
C1789 C1792 1.499 . S
C1790 H1770 0.950 . S
C1790 C1789 1.414 . S
C1790 C1791 1.374 . S
C1791 H1771 0.950 . S
C1791 C1787 1.385 . S
C1791 C1790 1.374 . S
C1792 C1789 1.499 . S
C1792 C1793 1.373 . S
C1792 C1794 1.389 . S
C1793 H1772 0.950 . S
C1793 C1792 1.373 . S
C1793 C1809 1.377 . S
C1794 C1792 1.389 . S
C1794 C1795 1.524 . S
C1794 C1808 1.377 . S
C1795 C1794 1.524 . S
C1795 C1796 1.397 . S
C1795 C1800 1.363 . S
C1796 H1773 0.950 . S
C1796 C1795 1.397 . S
C1796 C1797 1.334 . S
C1797 H1774 0.950 . S
C1797 C1796 1.334 . S
C1797 C1798 1.287 . S
C1798 C1797 1.287 . S
C1798 C1799 1.524 . S
C1798 H1817 0.913 . S
C1799 H1775 0.950 . S
C1799 C1798 1.524 . S
C1799 C1800 1.415 . S
C1800 H1776 0.950 . S
C1800 C1795 1.363 . S
C1800 C1799 1.415 . S
C1801 H1777 0.951 . S
C1801 C1802 1.366 . S
C1801 C1803 1.388 . S
C1802 C1801 1.366 . S
C1802 C1806 1.385 . S
C1803 H1778 0.951 . S
C1803 C1801 1.388 . S
C1803 C1804 1.366 . S
C1804 C1803 1.366 . S
C1804 C1805 1.414 . S
C1804 C1807 1.499 . S
C1805 H1779 0.950 . S
C1805 C1804 1.414 . S
C1805 C1806 1.374 . S
C1806 H1780 0.950 . S
C1806 C1802 1.385 . S
C1806 C1805 1.374 . S
C1807 C1804 1.499 . S
C1807 C1808 1.373 . S
C1807 C1809 1.389 . S
C1808 H1781 0.950 . S
C1808 C1794 1.377 . S
C1808 C1807 1.373 . S
C1809 C1793 1.377 . S
C1809 C1807 1.389 . S
C1809 C1810 1.524 . S
C1810 C1809 1.524 . S
C1810 C1811 1.397 . S
C1810 C1815 1.363 . S
C1811 H1782 0.950 . S
C1811 C1810 1.397 . S
C1811 C1812 1.334 . S
C1812 H1783 0.950 . S
C1812 C1811 1.334 . S
C1812 C1813 1.287 . S
C1813 C1812 1.287 . S
C1813 C1814 1.524 . S
C1813 H1816 0.999 . S
C1814 H1784 0.950 . S
C1814 C1813 1.524 . S
C1814 C1815 1.415 . S
C1815 H1785 0.950 . S
C1815 C1810 1.363 . S
C1815 C1814 1.415 . S
H1816 C1813 0.999 . S
H1817 C1798 0.913 . S
H1818 C1836 0.951 . S
H1819 C1838 0.951 . S
H1820 C1840 0.950 . S
H1821 C1841 0.950 . S
H1822 C1843 0.950 . S
H1823 C1846 0.950 . S
H1824 C1847 0.950 . S
H1825 C1849 0.950 . S
H1826 C1850 0.950 . S
H1827 C1851 0.951 . S
H1828 C1853 0.951 . S
H1829 C1855 0.950 . S
H1830 C1856 0.950 . S
H1831 C1858 0.950 . S
H1832 C1861 0.950 . S
H1833 C1862 0.950 . S
H1834 C1864 0.950 . S
H1835 C1865 0.950 . S
C1836 H1818 0.951 . S
C1836 C1837 1.366 . S
C1836 C1838 1.388 . S
C1837 C1836 1.366 . S
C1837 C1841 1.385 . S
C1838 H1819 0.951 . S
C1838 C1836 1.388 . S
C1838 C1839 1.366 . S
C1839 C1838 1.366 . S
C1839 C1840 1.414 . S
C1839 C1842 1.499 . S
C1840 H1820 0.950 . S
C1840 C1839 1.414 . S
C1840 C1841 1.374 . S
C1841 H1821 0.950 . S
C1841 C1837 1.385 . S
C1841 C1840 1.374 . S
C1842 C1839 1.499 . S
C1842 C1843 1.373 . S
C1842 C1844 1.389 . S
C1843 H1822 0.950 . S
C1843 C1842 1.373 . S
C1843 C1859 1.377 . S
C1844 C1842 1.389 . S
C1844 C1845 1.524 . S
C1844 C1858 1.377 . S
C1845 C1844 1.524 . S
C1845 C1846 1.397 . S
C1845 C1850 1.363 . S
C1846 H1823 0.950 . S
C1846 C1845 1.397 . S
C1846 C1847 1.334 . S
C1847 H1824 0.950 . S
C1847 C1846 1.334 . S
C1847 C1848 1.287 . S
C1848 C1847 1.287 . S
C1848 C1849 1.524 . S
C1848 H1867 0.913 . S
C1849 H1825 0.950 . S
C1849 C1848 1.524 . S
C1849 C1850 1.415 . S
C1850 H1826 0.950 . S
C1850 C1845 1.363 . S
C1850 C1849 1.415 . S
C1851 H1827 0.951 . S
C1851 C1852 1.366 . S
C1851 C1853 1.388 . S
C1852 C1851 1.366 . S
C1852 C1856 1.385 . S
C1853 H1828 0.951 . S
C1853 C1851 1.388 . S
C1853 C1854 1.366 . S
C1854 C1853 1.366 . S
C1854 C1855 1.414 . S
C1854 C1857 1.499 . S
C1855 H1829 0.950 . S
C1855 C1854 1.414 . S
C1855 C1856 1.374 . S
C1856 H1830 0.950 . S
C1856 C1852 1.385 . S
C1856 C1855 1.374 . S
C1857 C1854 1.499 . S
C1857 C1858 1.373 . S
C1857 C1859 1.389 . S
C1858 H1831 0.950 . S
C1858 C1844 1.377 . S
C1858 C1857 1.373 . S
C1859 C1843 1.377 . S
C1859 C1857 1.389 . S
C1859 C1860 1.524 . S
C1860 C1859 1.524 . S
C1860 C1861 1.397 . S
C1860 C1865 1.363 . S
C1861 H1832 0.950 . S
C1861 C1860 1.397 . S
C1861 C1862 1.334 . S
C1862 H1833 0.950 . S
C1862 C1861 1.334 . S
C1862 C1863 1.287 . S
C1863 C1862 1.287 . S
C1863 C1864 1.524 . S
C1863 H1866 0.999 . S
C1864 H1834 0.950 . S
C1864 C1863 1.524 . S
C1864 C1865 1.415 . S
C1865 H1835 0.950 . S
C1865 C1860 1.363 . S
C1865 C1864 1.415 . S
H1866 C1863 0.999 . S
H1867 C1848 0.913 . S
H1868 C1886 0.951 . S
H1869 C1888 0.951 . S
H1870 C1890 0.950 . S
H1871 C1891 0.950 . S
H1872 C1893 0.950 . S
H1873 C1896 0.950 . S
H1874 C1897 0.950 . S
H1875 C1899 0.950 1_556 S
H1876 C1900 0.950 1_556 S
H1877 C1901 0.951 . S
H1878 C1903 0.951 . S
H1879 C1905 0.950 . S
H1880 C1906 0.950 . S
H1881 C1908 0.950 . S
H1882 C1911 0.950 . S
H1883 C1912 0.950 . S
H1884 C1914 0.950 . S
H1885 C1915 0.950 . S
C1886 H1868 0.951 . S
C1886 C1887 1.366 . S
C1886 C1888 1.388 . S
C1887 C1886 1.366 . S
C1887 C1891 1.385 . S
C1888 H1869 0.951 . S
C1888 C1886 1.388 . S
C1888 C1889 1.366 . S
C1889 C1888 1.366 . S
C1889 C1890 1.414 . S
C1889 C1892 1.499 . S
C1890 H1870 0.950 . S
C1890 C1889 1.414 . S
C1890 C1891 1.374 . S
C1891 H1871 0.950 . S
C1891 C1887 1.385 . S
C1891 C1890 1.374 . S
C1892 C1889 1.499 . S
C1892 C1893 1.373 . S
C1892 C1894 1.389 . S
C1893 H1872 0.950 . S
C1893 C1892 1.373 . S
C1893 C1909 1.392 . S
C1894 C1892 1.389 . S
C1894 C1895 1.524 . S
C1894 C1908 1.377 1_554 S
C1895 C1894 1.524 . S
C1895 C1896 1.397 . S
C1895 C1900 1.363 . S
C1896 H1873 0.950 . S
C1896 C1895 1.397 . S
C1896 C1897 1.334 . S
C1897 H1874 0.950 . S
C1897 C1896 1.334 . S
C1897 C1898 1.287 . S
C1898 C1897 1.287 . S
C1898 C1899 1.524 . S
C1898 H1917 0.913 . S
C1899 H1875 0.950 1_554 S
C1899 C1898 1.524 . S
C1899 C1900 1.415 . S
C1900 H1876 0.950 1_554 S
C1900 C1895 1.363 . S
C1900 C1899 1.415 . S
C1901 H1877 0.951 . S
C1901 C1902 1.366 . S
C1901 C1903 1.388 . S
C1902 C1901 1.366 . S
C1902 C1906 1.385 . S
C1903 H1878 0.951 . S
C1903 C1901 1.388 . S
C1903 C1904 1.366 . S
C1904 C1903 1.366 . S
C1904 C1905 1.414 . S
C1904 C1907 1.499 . S
C1905 H1879 0.950 . S
C1905 C1904 1.414 . S
C1905 C1906 1.374 . S
C1906 H1880 0.950 . S
C1906 C1902 1.385 . S
C1906 C1905 1.374 . S
C1907 C1904 1.499 . S
C1907 C1908 1.373 . S
C1907 C1909 1.379 1_556 S
C1908 H1881 0.950 . S
C1908 C1894 1.377 1_556 S
C1908 C1907 1.373 . S
C1909 C1893 1.392 . S
C1909 C1907 1.379 1_554 S
C1909 C1910 1.520 1_554 S
C1910 C1909 1.520 1_556 S
C1910 C1911 1.397 . S
C1910 C1915 1.363 1_556 S
C1911 H1882 0.950 . S
C1911 C1910 1.397 . S
C1911 C1912 1.334 . S
C1912 H1883 0.950 . S
C1912 C1911 1.334 . S
C1912 C1913 1.287 . S
C1913 C1912 1.287 . S
C1913 C1914 1.524 1_556 S
C1913 H1916 0.999 . S
C1914 H1884 0.950 . S
C1914 C1913 1.524 1_554 S
C1914 C1915 1.415 . S
C1915 H1885 0.950 . S
C1915 C1910 1.363 1_554 S
C1915 C1914 1.415 . S
H1916 C1913 0.999 . S
H1917 C1898 0.913 . S
H1918 C1936 0.951 . S
H1919 C1938 0.951 . S
H1920 C1940 0.950 . S
H1921 C1941 0.950 . S
H1922 C1943 0.950 . S
H1923 C1946 0.950 . S
H1924 C1947 0.950 . S
H1925 C1949 0.950 . S
H1926 C1950 0.950 . S
H1927 C1951 0.951 . S
H1928 C1953 0.951 . S
H1929 C1955 0.950 . S
H1930 C1956 0.950 . S
H1931 C1958 0.950 . S
H1932 C1961 0.950 . S
H1933 C1962 0.950 . S
H1934 C1964 0.950 . S
H1935 C1965 0.950 . S
C1936 H1918 0.951 . S
C1936 C1937 1.366 . S
C1936 C1938 1.388 . S
C1937 C1936 1.366 . S
C1937 C1941 1.385 . S
C1938 H1919 0.951 . S
C1938 C1936 1.388 . S
C1938 C1939 1.366 . S
C1939 C1938 1.366 . S
C1939 C1940 1.414 . S
C1939 C1942 1.499 . S
C1940 H1920 0.950 . S
C1940 C1939 1.414 . S
C1940 C1941 1.374 . S
C1941 H1921 0.950 . S
C1941 C1937 1.385 . S
C1941 C1940 1.374 . S
C1942 C1939 1.499 . S
C1942 C1943 1.373 . S
C1942 C1944 1.389 . S
C1943 H1922 0.950 . S
C1943 C1942 1.373 . S
C1943 C1959 1.377 . S
C1944 C1942 1.389 . S
C1944 C1945 1.524 . S
C1944 C1958 1.377 . S
C1945 C1944 1.524 . S
C1945 C1946 1.397 . S
C1945 C1950 1.363 . S
C1946 H1923 0.950 . S
C1946 C1945 1.397 . S
C1946 C1947 1.334 . S
C1947 H1924 0.950 . S
C1947 C1946 1.334 . S
C1947 C1948 1.287 . S
C1948 C1947 1.287 . S
C1948 C1949 1.524 . S
C1948 H1967 0.913 . S
C1949 H1925 0.950 . S
C1949 C1948 1.524 . S
C1949 C1950 1.415 . S
C1950 H1926 0.950 . S
C1950 C1945 1.363 . S
C1950 C1949 1.415 . S
C1951 H1927 0.951 . S
C1951 C1952 1.366 . S
C1951 C1953 1.388 . S
C1952 C1951 1.366 . S
C1952 C1956 1.385 . S
C1953 H1928 0.951 . S
C1953 C1951 1.388 . S
C1953 C1954 1.366 . S
C1954 C1953 1.366 . S
C1954 C1955 1.414 . S
C1954 C1957 1.499 . S
C1955 H1929 0.950 . S
C1955 C1954 1.414 . S
C1955 C1956 1.374 . S
C1956 H1930 0.950 . S
C1956 C1952 1.385 . S
C1956 C1955 1.374 . S
C1957 C1954 1.499 . S
C1957 C1958 1.373 . S
C1957 C1959 1.389 . S
C1958 H1931 0.950 . S
C1958 C1944 1.377 . S
C1958 C1957 1.373 . S
C1959 C1943 1.377 . S
C1959 C1957 1.389 . S
C1959 C1960 1.524 . S
C1960 C1959 1.524 . S
C1960 C1961 1.397 . S
C1960 C1965 1.363 . S
C1961 H1932 0.950 . S
C1961 C1960 1.397 . S
C1961 C1962 1.334 . S
C1962 H1933 0.950 . S
C1962 C1961 1.334 . S
C1962 C1963 1.287 . S
C1963 C1962 1.287 . S
C1963 C1964 1.524 . S
C1963 H1966 0.999 . S
C1964 H1934 0.950 . S
C1964 C1963 1.524 . S
C1964 C1965 1.415 . S
C1965 H1935 0.950 . S
C1965 C1960 1.363 . S
C1965 C1964 1.415 . S
H1966 C1963 0.999 . S
H1967 C1948 0.913 . S
C802 C761 1.897 . S
C787 C1 1.445 . S
C837 C169 1.035 . S
C852 C690 1.485 . S
C887 C283 1.711 . S
C902 C704 2.012 . S
C937 C397 0.925 . S
C952 C718 1.350 . S
C1002 C732 1.735 . S
C987 C457 1.318 . S
C1037 C571 1.089 . S
C1052 C747 1.251 . S
C1087 C115 1.172 . S
C1102 C705 1.362 . S
C1137 C229 1.321 . S
C1152 C719 1.751 . S
C1187 C343 1.084 . S
C1202 C733 1.237 . S
C1252 C746 1.864 . S
C1237 C511 1.575 . S
C1302 C760 1.462 . S
C1287 C625 1.006 . S
C1352 C691 2.032 . S
C1337 C55 1.733 . S
C1387 C29 1.116 . S
C1402 C707 1.449 . S
C1437 C125 1.186 . S
C1452 C721 1.962 . S
C1502 C735 1.475 . S
C1487 C239 0.990 . S
C1537 C353 1.140 . S
C1552 C748 1.899 . S
C1602 C762 1.386 . S
C1587 C485 1.060 . S
C1652 C693 1.867 . S
C1637 C599 1.682 . S
C1702 C763 1.860 . S
C1687 C143 1.681 . S
C1737 C257 1.111 . S
C1752 C692 1.453 . S
C1802 C706 1.801 . S
C1787 C371 1.623 . S
C1837 C467 0.999 . S
C1852 C720 1.475 . S
C1887 C581 1.127 . S
C1902 C734 1.896 . S
C1937 C11 1.035 . S
C1952 C749 1.542 . S
