# Generated by pormake.
# Topology apo, (3,6)-cn, num edge types: 1
# Building blocks:
#     Node 0, Type 0, BuildingBlock: QEWDON_clean_linker_0, # of connection points: 3
#     Node 1, Type 0, BuildingBlock: QEWDON_clean_linker_0, # of connection points: 3
#     Node 2, Type 0, BuildingBlock: QEWDON_clean_linker_0, # of connection points: 3
#     Node 3, Type 0, BuildingBlock: QEWDON_clean_linker_0, # of connection points: 3
#     Node 4, Type 0, BuildingBlock: QEWDON_clean_linker_0, # of connection points: 3
#     Node 5, Type 0, BuildingBlock: QEWDON_clean_linker_0, # of connection points: 3
#     Node 6, Type 0, BuildingBlock: QEWDON_clean_linker_0, # of connection points: 3
#     Node 7, Type 0, BuildingBlock: QEWDON_clean_linker_0, # of connection points: 3
#     Node 8, Type 1, BuildingBlock: KUMJIN_clean_sbu_1, # of connection points: 6
#     Node 9, Type 1, BuildingBlock: KUMJIN_clean_sbu_1, # of connection points: 6
#     Node 10, Type 1, BuildingBlock: KUMJIN_clean_sbu_1, # of connection points: 6
#     Node 11, Type 1, BuildingBlock: KUMJIN_clean_sbu_1, # of connection points: 6
#     Edge 12, Type (0, 1), BuildingBlock: EZIPEK_clean_linker_0, # of connection points: 2
#     Edge 13, Type (0, 1), BuildingBlock: EZIPEK_clean_linker_0, # of connection points: 2
#     Edge 14, Type (0, 1), BuildingBlock: EZIPEK_clean_linker_0, # of connection points: 2
#     Edge 15, Type (0, 1), BuildingBlock: EZIPEK_clean_linker_0, # of connection points: 2
#     Edge 16, Type (0, 1), BuildingBlock: EZIPEK_clean_linker_0, # of connection points: 2
#     Edge 17, Type (0, 1), BuildingBlock: EZIPEK_clean_linker_0, # of connection points: 2
#     Edge 18, Type (0, 1), BuildingBlock: EZIPEK_clean_linker_0, # of connection points: 2
#     Edge 19, Type (0, 1), BuildingBlock: EZIPEK_clean_linker_0, # of connection points: 2
#     Edge 20, Type (0, 1), BuildingBlock: EZIPEK_clean_linker_0, # of connection points: 2
#     Edge 21, Type (0, 1), BuildingBlock: EZIPEK_clean_linker_0, # of connection points: 2
#     Edge 22, Type (0, 1), BuildingBlock: EZIPEK_clean_linker_0, # of connection points: 2
#     Edge 23, Type (0, 1), BuildingBlock: EZIPEK_clean_linker_0, # of connection points: 2
#     Edge 24, Type (0, 1), BuildingBlock: EZIPEK_clean_linker_0, # of connection points: 2
#     Edge 25, Type (0, 1), BuildingBlock: EZIPEK_clean_linker_0, # of connection points: 2
#     Edge 26, Type (0, 1), BuildingBlock: EZIPEK_clean_linker_0, # of connection points: 2
#     Edge 27, Type (0, 1), BuildingBlock: EZIPEK_clean_linker_0, # of connection points: 2
#     Edge 28, Type (0, 1), BuildingBlock: EZIPEK_clean_linker_0, # of connection points: 2
#     Edge 29, Type (0, 1), BuildingBlock: EZIPEK_clean_linker_0, # of connection points: 2
#     Edge 30, Type (0, 1), BuildingBlock: EZIPEK_clean_linker_0, # of connection points: 2
#     Edge 31, Type (0, 1), BuildingBlock: EZIPEK_clean_linker_0, # of connection points: 2
#     Edge 32, Type (0, 1), BuildingBlock: EZIPEK_clean_linker_0, # of connection points: 2
#     Edge 33, Type (0, 1), BuildingBlock: EZIPEK_clean_linker_0, # of connection points: 2
#     Edge 34, Type (0, 1), BuildingBlock: EZIPEK_clean_linker_0, # of connection points: 2
#     Edge 35, Type (0, 1), BuildingBlock: EZIPEK_clean_linker_0, # of connection points: 2
# Relax obj value: 0.076
# Max RMSD: 0.275
# Mean RMSD: 0.217
data_MOF--net-apo--node1-KUMJIN_clean_sbu_1--node2-QEWDON_clean_linker_0--edge1-EZIPEK_clean_linker_0
_symmetry_space_group_name_H-M    P1
_symmetry_Int_Tables_number       1
_symmetry_cell_setting            triclinic
loop_
_symmetry_equiv_pos_as_xyz
'x, y, z'
_cell_length_a     22.652533
_cell_length_b     31.474614
_cell_length_c     40.147292
_cell_angle_alpha  89.638867
_cell_angle_beta   90.141528
_cell_angle_gamma 90.055085
loop_
_atom_site_label
_atom_site_type_symbol
_atom_site_fract_x
_atom_site_fract_y
_atom_site_fract_z
_atom_type_partial_charge
H0 H 0.26808 0.40819 0.35935 0.0
C1 C 0.28 0.40868 0.38552 0.0
C2 C 0.32966 0.43201 0.39605 0.0
C3 C 0.24468 0.38731 0.40899 0.0
H4 H 0.38153 0.45203 0.43846 0.0
C5 C 0.34385 0.43362 0.43015 0.0
C6 C 0.30849 0.41247 0.4536 0.0
C7 C 0.25926 0.38935 0.4429 0.0
C8 C 0.18884 0.36661 0.39916 0.0
H9 H 0.23129 0.37373 0.46115 0.0
C10 C 0.18825 0.32827 0.38125 0.0
C11 C 0.13414 0.30802 0.37432 0.0
C12 C 0.13534 0.38446 0.40975 0.0
H13 H 0.13509 0.41378 0.42376 0.0
C14 C 0.08183 0.36462 0.4025 0.0
H15 H 0.22933 0.31401 0.37324 0.0
C16 C 0.08116 0.32659 0.38492 0.0
H17 H 0.03921 0.3115 0.37955 0.0
H18 H 0.04079 0.37864 0.41069 0.0
H19 H 0.23664 0.11933 0.86108 0.0
C20 C 0.21981 0.11748 0.88629 0.0
C21 C 0.17135 0.09069 0.89361 0.0
C22 C 0.24883 0.13942 0.91208 0.0
H23 H 0.11631 0.06458 0.93272 0.0
C24 C 0.15198 0.08629 0.92676 0.0
C25 C 0.18043 0.10844 0.95241 0.0
C26 C 0.2275 0.13546 0.94477 0.0
C27 C 0.30608 0.16178 0.90705 0.0
H28 H 0.24982 0.15186 0.9649 0.0
C29 C 0.31328 0.19552 0.884 0.0
C30 C 0.36624 0.2195 0.88389 0.0
C31 C 0.35341 0.1509 0.92823 0.0
H32 H 0.34952 0.12467 0.94572 0.0
C33 C 0.40557 0.17417 0.92787 0.0
H34 H 0.27756 0.204 0.86724 0.0
C35 C 0.41165 0.20859 0.90631 0.0
H36 H 0.45245 0.22659 0.90682 0.0
H37 H 0.44121 0.1658 0.94467 0.0
H38 H 0.7665 0.15005 0.67681 0.0
C39 C 0.79234 0.15093 0.65412 0.0
C40 C 0.84086 0.12344 0.65061 0.0
C41 C 0.77463 0.17711 0.62749 0.0
H42 H 0.90728 0.09976 0.61682 0.0
C43 C 0.8718 0.12238 0.62021 0.0
C44 C 0.85511 0.14931 0.59375 0.0
C45 C 0.80744 0.1771 0.59797 0.0
C46 C 0.71752 0.19993 0.62814 0.0
H47 H 0.79358 0.19711 0.57728 0.0
C48 C 0.70384 0.22915 0.65335 0.0
C49 C 0.64941 0.25072 0.65264 0.0
C50 C 0.67617 0.19238 0.60262 0.0
H51 H 0.68555 0.16975 0.5831 0.0
C52 C 0.62219 0.21356 0.60216 0.0
H53 H 0.7353 0.2354 0.67311 0.0
C54 C 0.6088 0.24263 0.62702 0.0
H55 H 0.5667 0.25894 0.62631 0.0
H56 H 0.59066 0.20743 0.58246 0.0
H57 H 0.76983 0.39438 0.1759 0.0
C58 C 0.75425 0.39644 0.15039 0.0
C59 C 0.70656 0.42339 0.14237 0.0
C60 C 0.78312 0.37354 0.12525 0.0
H61 H 0.65016 0.44711 0.10285 0.0
C62 C 0.68692 0.42652 0.10913 0.0
C63 C 0.71531 0.40349 0.08394 0.0
C64 C 0.76303 0.37719 0.09225 0.0
C65 C 0.83653 0.3476 0.13229 0.0
H66 H 0.78492 0.35957 0.07271 0.0
C67 C 0.83684 0.31546 0.15695 0.0
C68 C 0.88686 0.28923 0.16101 0.0
C69 C 0.88713 0.3537 0.11257 0.0
H70 H 0.88822 0.37837 0.09363 0.0
C71 C 0.93662 0.32795 0.11682 0.0
H72 H 0.79818 0.31018 0.17229 0.0
C73 C 0.93639 0.29569 0.14072 0.0
H74 H 0.97489 0.27562 0.14337 0.0
H75 H 0.97514 0.33281 0.10135 0.0
H76 H 0.68569 0.65223 0.6728 0.0
C77 C 0.68705 0.63603 0.64911 0.0
C78 C 0.659 0.59592 0.64594 0.0
C79 C 0.71496 0.65553 0.62138 0.0
H80 H 0.63332 0.54696 0.61101 0.0
C81 C 0.65687 0.57665 0.61433 0.0
C82 C 0.68071 0.59678 0.58637 0.0
C83 C 0.71276 0.6343 0.5904 0.0
C84 C 0.74282 0.69907 0.62297 0.0
H85 H 0.7337 0.6476 0.5685 0.0
C86 C 0.77025 0.71569 0.65209 0.0
C87 C 0.79982 0.75552 0.65083 0.0
C88 C 0.74248 0.7247 0.59392 0.0
H89 H 0.71822 0.71564 0.57185 0.0
C90 C 0.77334 0.76275 0.59245 0.0
H91 H 0.76899 0.69808 0.67533 0.0
C92 C 0.80279 0.77757 0.62033 0.0
H93 H 0.82577 0.80772 0.61851 0.0
H94 H 0.7737 0.78123 0.56961 0.0
H95 H 0.86563 0.86494 0.1851 0.0
C96 C 0.85352 0.87285 0.15966 0.0
C97 C 0.85976 0.91487 0.14793 0.0
C98 C 0.83034 0.84098 0.13923 0.0
H99 H 0.85105 0.95563 0.10445 0.0
C100 C 0.84573 0.92372 0.1143 0.0
C101 C 0.82867 0.89085 0.09269 0.0
C102 C 0.81867 0.8499 0.10564 0.0
C103 C 0.82115 0.79792 0.15303 0.0
H104 H 0.80428 0.82463 0.08926 0.0
C105 C 0.76385 0.78278 0.15966 0.0
C106 C 0.75594 0.74326 0.17566 0.0
C107 C 0.87016 0.77299 0.1618 0.0
H108 H 0.91454 0.78439 0.15711 0.0
C109 C 0.86223 0.73331 0.17685 0.0
H110 H 0.72579 0.80214 0.15343 0.0
C111 C 0.80547 0.71852 0.18383 0.0
H112 H 0.80008 0.68788 0.19588 0.0
H113 H 0.9002 0.71416 0.18349 0.0
H114 H 0.21807 0.86092 0.36004 0.0
C115 C 0.21056 0.87117 0.38539 0.0
C116 C 0.17888 0.90911 0.39123 0.0
C117 C 0.23032 0.84598 0.41243 0.0
H118 H 0.13962 0.94916 0.42874 0.0
C119 C 0.16585 0.921 0.42416 0.0
C120 C 0.18773 0.89737 0.45121 0.0
C121 C 0.2216 0.86111 0.44499 0.0
C122 C 0.25503 0.80219 0.40817 0.0
H123 H 0.23906 0.84345 0.46608 0.0
C124 C 0.29442 0.79116 0.38223 0.0
C125 C 0.31794 0.74952 0.38079 0.0
C126 C 0.23837 0.77043 0.43131 0.0
H127 H 0.20632 0.7768 0.45062 0.0
C128 C 0.26227 0.72984 0.43004 0.0
H129 H 0.30686 0.81445 0.36355 0.0
C130 C 0.30211 0.71953 0.40519 0.0
H131 H 0.31951 0.68747 0.40439 0.0
H132 H 0.24932 0.70609 0.44824 0.0
H133 H 0.3175 0.66985 0.85654 0.0
C134 C 0.31906 0.66037 0.88254 0.0
C135 C 0.34358 0.62097 0.89154 0.0
C136 C 0.29858 0.68806 0.90723 0.0
H137 H 0.36726 0.57912 0.93208 0.0
C138 C 0.34766 0.60939 0.92526 0.0
C139 C 0.32518 0.63598 0.95014 0.0
C140 C 0.3005 0.6753 0.94085 0.0
C141 C 0.28172 0.73212 0.89856 0.0
H142 H 0.28403 0.69647 0.9599 0.0
C143 C 0.23189 0.74129 0.87865 0.0
C144 C 0.21728 0.78386 0.87121 0.0
C145 C 0.31664 0.76557 0.91061 0.0
H146 H 0.35516 0.75909 0.92588 0.0
C147 C 0.30266 0.80758 0.90281 0.0
H148 H 0.20418 0.71573 0.86961 0.0
C149 C 0.25329 0.81672 0.88329 0.0
H150 H 0.24265 0.84962 0.87787 0.0
H151 H 0.32997 0.83315 0.91211 0.0
Eu152 Eu 0.07753 0.09864 0.23789 0.0
C153 C 0.83179 0.04379 0.30695 0.0
N154 N 0.85629 0.0819 0.29873 0.0
C155 C 0.76341 0.10633 0.27728 0.0
C156 C 0.77178 0.03539 0.3002 0.0
C157 C 0.82292 0.11339 0.28471 0.0
C158 C 0.73776 0.06712 0.28491 0.0
C159 C 0.84221 0.97358 0.33173 0.0
C160 C 0.86691 0.01298 0.32215 0.0
C161 C 0.78253 0.96512 0.32491 0.0
C162 C 0.74751 0.99585 0.30906 0.0
Eu163 Eu 0.95679 0.09015 0.31283 0.0
N164 N 0.92517 0.02129 0.32737 0.0
C165 C 0.87839 0.9437 0.34774 0.0
C166 C 0.9596 0.99333 0.34471 0.0
C167 C 0.93718 0.95383 0.35456 0.0
H168 H 0.84153 0.14424 0.27962 0.0
H169 H 0.965 0.93151 0.3679 0.0
H170 H 0.19684 0.05408 0.27284 0.0
H171 H 0.05395 0.25465 0.17844 0.0
H172 H 0.00379 1.00184 0.35196 0.0
H173 H 0.86111 0.91308 0.35544 0.0
H174 H 0.02523 0.18111 0.1919 0.0
H175 H 0.73721 0.13129 0.26595 0.0
H176 H 0.76302 0.93489 0.33183 0.0
H177 H 0.70152 0.98884 0.304 0.0
H178 H 0.29628 0.07583 0.29183 0.0
H179 H 0.69154 0.06186 0.27927 0.0
H180 H 0.14804 0.28374 0.19958 0.0
N181 N 0.17345 0.11585 0.25594 0.0
C182 C 0.19157 0.15638 0.24988 0.0
C183 C 0.26711 0.09886 0.28029 0.0
C184 C 0.24811 0.17006 0.25991 0.0
C185 C 0.21074 0.08669 0.26977 0.0
C186 C 0.28568 0.14083 0.27567 0.0
N187 N 0.09964 0.16971 0.22324 0.0
C188 C 0.06527 0.1938 0.20248 0.0
C189 C 0.17238 0.22565 0.2253 0.0
C190 C 0.15366 0.184 0.23311 0.0
C191 C 0.13525 0.25157 0.20611 0.0
C192 C 0.08194 0.23531 0.1942 0.0
H193 H 0.32946 0.15013 0.28376 0.0
H194 H 0.30882 0.22328 0.2612 0.0
H195 H 0.24271 0.27184 0.23072 0.0
O196 O 0.07087 0.10094 0.18363 0.0
O197 O 0.09813 0.13054 0.28791 0.0
O198 O 0.00776 0.15149 0.30809 0.0
O199 O 0.14088 0.0649 0.20658 0.0
O200 O 0.98556 0.12744 0.22986 0.0
O201 O 0.94847 0.14889 0.28061 0.0
O202 O 0.97651 0.08586 0.366 0.0
O203 O 0.93169 0.05534 0.26459 0.0
O204 O 0.02033 0.03976 0.23918 0.0
O205 O 0.89973 0.12085 0.3493 0.0
O206 O 0.0486 0.06152 0.31939 0.0
O207 O 0.08568 0.03839 0.26911 0.0
C208 C 0.06497 0.15631 0.3055 0.0
C209 C 0.15888 0.0952 0.15317 0.0
C210 C 0.18241 0.10644 0.09449 0.0
C211 C 0.23459 0.12731 0.10384 0.0
C212 C 0.21126 0.1162 0.16207 0.0
C213 C 0.2488 0.1322 0.13747 0.0
C214 C 0.14445 0.09052 0.11926 0.0
C215 C 0.95293 0.15311 0.24812 0.0
C216 C 0.1182 0.07867 0.17871 0.0
C217 C 0.26569 0.2121 0.25347 0.0
C218 C 0.22799 0.23978 0.23615 0.0
C219 C 0.96271 0.03656 0.24108 0.0
C220 C 0.9444 0.14193 0.40001 0.0
C221 C 0.93949 0.16388 0.45815 0.0
C222 C 0.96195 0.20391 0.44894 0.0
C223 C 0.96698 0.18196 0.39123 0.0
C224 C 0.93218 0.13267 0.43354 0.0
C225 C 0.97626 0.21263 0.41572 0.0
C226 C 0.07772 0.0337 0.30143 0.0
C227 C 0.93213 0.10953 0.37472 0.0
H228 H 0.2643 0.13975 0.08505 0.0
H229 H 0.22326 0.12018 0.18796 0.0
H230 H 0.28911 0.14835 0.14449 0.0
H231 H 0.10403 0.07445 0.11213 0.0
H232 H 0.9678 0.22849 0.46743 0.0
H233 H 0.97684 0.18962 0.36552 0.0
H234 H 0.91479 0.10171 0.44037 0.0
H235 H 0.99362 0.2435 0.40885 0.0
Eu236 Eu 0.42373 0.42475 0.73959 0.0
C237 C 0.68242 0.47197 0.80656 0.0
N238 N 0.65358 0.4384 0.79303 0.0
C239 C 0.74027 0.4194 0.76238 0.0
C240 C 0.7412 0.48137 0.79753 0.0
C241 C 0.68226 0.41119 0.77229 0.0
C242 C 0.76971 0.45491 0.77478 0.0
C243 C 0.68252 0.53158 0.84455 0.0
C244 C 0.65336 0.49672 0.82984 0.0
C245 C 0.74067 0.54142 0.83522 0.0
C246 C 0.76991 0.5164 0.81175 0.0
Eu247 Eu 0.55644 0.4259 0.81179 0.0
N248 N 0.59669 0.48694 0.83797 0.0
C249 C 0.65251 0.55546 0.86839 0.0
C250 C 0.56851 0.50883 0.86261 0.0
C251 C 0.59547 0.54377 0.87766 0.0
H252 H 0.66092 0.38276 0.76368 0.0
H253 H 0.57245 0.56133 0.89674 0.0
H254 H 0.3174 0.49731 0.75774 0.0
H255 H 0.39121 0.25783 0.70882 0.0
H256 H 0.52548 0.49912 0.87134 0.0
H257 H 0.67338 0.58245 0.88021 0.0
H258 H 0.44213 0.32762 0.70842 0.0
H259 H 0.76244 0.39803 0.7455 0.0
H260 H 0.76359 0.56816 0.84617 0.0
H261 H 0.81495 0.52418 0.805 0.0
H262 H 0.2159 0.49796 0.77946 0.0
H263 H 0.81481 0.46108 0.76722 0.0
H264 H 0.29416 0.25039 0.73651 0.0
N265 N 0.32448 0.42972 0.75839 0.0
C266 C 0.29452 0.3924 0.76126 0.0
C267 C 0.23776 0.468 0.77489 0.0
C268 C 0.23576 0.39139 0.77285 0.0
C269 C 0.29573 0.46742 0.76302 0.0
C270 C 0.20806 0.42979 0.78054 0.0
N271 N 0.37644 0.35782 0.73751 0.0
C272 C 0.40012 0.32418 0.72086 0.0
C273 C 0.29012 0.31656 0.75085 0.0
C274 C 0.32117 0.35539 0.75038 0.0
C275 C 0.31659 0.28081 0.73664 0.0
C276 C 0.37133 0.28487 0.72095 0.0
H277 H 0.16301 0.43036 0.78953 0.0
H278 H 0.16102 0.35094 0.78453 0.0
H279 H 0.20869 0.28537 0.76527 0.0
O280 O 0.4319 0.41055 0.68636 0.0
O281 O 0.43441 0.36788 0.77499 0.0
O282 O 0.46391 0.40082 0.8224 0.0
O283 O 0.37238 0.4595 0.70215 0.0
O284 O 0.5157 0.40303 0.72614 0.0
O285 O 0.55316 0.37211 0.77396 0.0
O286 O 0.56061 0.41475 0.86556 0.0
O287 O 0.57556 0.46402 0.76394 0.0
O288 O 0.483 0.4837 0.74426 0.0
O289 O 0.60898 0.37381 0.83272 0.0
O290 O 0.48339 0.47302 0.82122 0.0
O291 O 0.41332 0.4773 0.77817 0.0
C292 C 0.44138 0.36769 0.80742 0.0
C293 C 0.34647 0.42138 0.65377 0.0
C294 C 0.31358 0.41032 0.59665 0.0
C295 C 0.26118 0.39207 0.60863 0.0
C296 C 0.29378 0.4031 0.66536 0.0
C297 C 0.25148 0.38841 0.64286 0.0
C298 C 0.35639 0.42479 0.61931 0.0
C299 C 0.54721 0.37379 0.74132 0.0
C300 C 0.3912 0.43724 0.67722 0.0
C301 C 0.20586 0.35237 0.77525 0.0
C302 C 0.23299 0.31502 0.76428 0.0
C303 C 0.54125 0.48713 0.74412 0.0
C304 C 0.65218 0.38988 0.88541 0.0
C305 C 0.69361 0.39879 0.94128 0.0
C306 C 0.75039 0.4007 0.92741 0.0
C307 C 0.70949 0.39195 0.87211 0.0
C308 C 0.64449 0.39363 0.92012 0.0
C309 C 0.75815 0.39739 0.89305 0.0
C310 C 0.43617 0.48936 0.80696 0.0
C311 C 0.60007 0.38503 0.86349 0.0
H312 H 0.22781 0.38077 0.59145 0.0
H313 H 0.28511 0.40044 0.69173 0.0
H314 H 0.21093 0.37438 0.65197 0.0
H315 H 0.39689 0.43896 0.61011 0.0
H316 H 0.78873 0.40476 0.94326 0.0
H317 H 0.71683 0.38953 0.84556 0.0
H318 H 0.60052 0.39243 0.93069 0.0
H319 H 0.80209 0.39901 0.88259 0.0
Eu320 Eu 0.03687 0.93556 0.72919 0.0
C321 C 0.77538 0.92578 0.78381 0.0
N322 N 0.81593 0.95647 0.79054 0.0
C323 C 0.74331 1.01048 0.78045 0.0
C324 C 0.71734 0.93644 0.77418 0.0
C325 C 0.80031 0.99837 0.78997 0.0
C326 C 0.7018 0.97942 0.77218 0.0
C327 C 0.75059 0.8508 0.78112 0.0
C328 C 0.79165 0.88349 0.78722 0.0
C329 C 0.69318 0.86126 0.77067 0.0
C330 C 0.67659 0.90397 0.76722 0.0
Eu331 Eu 0.91234 0.93275 0.80389 0.0
N332 N 0.84791 0.87438 0.79672 0.0
C333 C 0.76838 0.80862 0.78604 0.0
C334 C 0.86467 0.83354 0.80324 0.0
C335 C 0.82542 0.8 0.79757 0.0
H336 H 0.83181 0.02259 0.79686 0.0
H337 H 0.83925 0.76754 0.80197 0.0
H338 H 0.16812 0.90453 0.76027 0.0
H339 H 0.98985 0.08261 0.6601 0.0
H340 H 0.90872 0.82676 0.8121 0.0
H341 H 0.73817 0.78256 0.78154 0.0
H342 H 0.97568 1.00768 0.67636 0.0
H343 H 0.73141 0.04376 0.77955 0.0
H344 H 0.66108 0.83658 0.76559 0.0
H345 H 0.63192 0.91155 0.75955 0.0
H346 H 0.26198 0.93717 0.77856 0.0
H347 H 0.65767 0.98892 0.76483 0.0
H348 H 0.07251 0.12394 0.68383 0.0
N349 N 0.13089 0.96306 0.7437 0.0
C350 C 0.13985 1.00513 0.73799 0.0
C351 C 0.22791 0.95666 0.76732 0.0
C352 C 0.19283 0.025 0.74787 0.0
C353 C 0.17484 0.93828 0.7569 0.0
C354 C 0.23663 1.00032 0.76323 0.0
N355 N 0.04715 1.00722 0.71096 0.0
C356 C 0.01108 0.02561 0.68766 0.0
C357 C 0.1067 0.07077 0.71241 0.0
C358 C 0.0967 0.02786 0.72112 0.0
C359 C 0.06625 0.09111 0.69132 0.0
C360 C 0.01939 0.06795 0.67799 0.0
H361 H 0.27786 0.01446 0.77128 0.0
H362 H 0.24108 0.08447 0.74913 0.0
H363 H 0.16601 0.12444 0.71757 0.0
O364 O 0.03724 0.93374 0.67441 0.0
O365 O 0.06675 0.95811 0.78013 0.0
O366 O 0.98398 0.98415 0.80658 0.0
O367 O 0.09678 0.89395 0.70203 0.0
O368 O 0.94406 0.96464 0.72474 0.0
O369 O 0.92614 0.99413 0.77543 0.0
O370 O 0.92559 0.90997 0.85508 0.0
O371 O 0.89332 0.89953 0.75432 0.0
O372 O 0.98052 0.87575 0.73158 0.0
O373 O 0.86606 0.96176 0.84579 0.0
O374 O 0.98614 0.88415 0.81016 0.0
O375 O 0.05935 0.8872 0.76909 0.0
C376 C 0.0418 0.98106 0.8033 0.0
C377 C 0.13046 0.92016 0.64988 0.0
C378 C 0.16992 0.92535 0.59322 0.0
C379 C 0.22516 0.93655 0.60658 0.0
C380 C 0.18598 0.93206 0.66244 0.0
C381 C 0.23281 0.94038 0.64089 0.0
C382 C 0.12223 0.91792 0.61511 0.0
C383 C 0.92319 0.99613 0.74285 0.0
C384 C 0.08197 0.90814 0.67275 0.0
C385 C 0.20096 0.06851 0.74141 0.0
C386 C 0.15809 0.09131 0.72356 0.0
C387 C 0.92369 0.87166 0.73699 0.0
C388 C 0.84423 0.91689 0.89156 0.0
C389 C 0.81263 0.90143 0.94862 0.0
C390 C 0.76268 0.88049 0.93601 0.0
C391 C 0.79366 0.89612 0.87964 0.0
C392 C 0.85342 0.91978 0.92621 0.0
C393 C 0.75326 0.878 0.90173 0.0
C394 C 0.03704 0.87221 0.79718 0.0
C395 C 0.88716 0.93569 0.86804 0.0
H396 H 0.26253 0.9422 0.59035 0.0
H397 H 0.19368 0.9343 0.68892 0.0
H398 H 0.27551 0.94916 0.65087 0.0
H399 H 0.0795 0.90901 0.60511 0.0
H400 H 0.73095 0.86607 0.95279 0.0
H401 H 0.78518 0.89401 0.8533 0.0
H402 H 0.89218 0.93591 0.93574 0.0
H403 H 0.71449 0.86196 0.89223 0.0
Eu404 Eu 0.4537 0.5844 0.23032 0.0
C405 C 0.72216 0.57376 0.27391 0.0
N406 N 0.6773 0.54933 0.28565 0.0
C407 C 0.73517 0.4865 0.27746 0.0
C408 C 0.77472 0.55523 0.26214 0.0
C409 C 0.68429 0.50643 0.28931 0.0
C410 C 0.78013 0.51094 0.2632 0.0
C411 C 0.76514 0.64388 0.26732 0.0
C412 C 0.71722 0.61751 0.27605 0.0
C413 C 0.81617 0.62575 0.25362 0.0
C414 C 0.82084 0.58149 0.25089 0.0
Eu415 Eu 0.58916 0.58575 0.29937 0.0
N416 N 0.66726 0.63406 0.28931 0.0
C417 C 0.76146 0.68734 0.27431 0.0
C418 C 0.66588 0.6754 0.29932 0.0
C419 C 0.71241 0.70287 0.2914 0.0
H420 H 0.64973 0.48743 0.30052 0.0
H421 H 0.71047 0.73593 0.29854 0.0
H422 H 0.35867 0.66655 0.2258 0.0
H423 H 0.40982 0.41515 0.24467 0.0
H424 H 0.62853 0.68703 0.31297 0.0
H425 H 0.79738 0.7087 0.2681 0.0
H426 H 0.46848 0.47923 0.22971 0.0
H427 H 0.7397 0.45235 0.27935 0.0
H428 H 0.85312 0.64554 0.24624 0.0
H429 H 0.86123 0.56785 0.24131 0.0
H430 H 0.25242 0.67975 0.23534 0.0
H431 H 0.81966 0.49545 0.25423 0.0
H432 H 0.30533 0.42322 0.26159 0.0
N433 N 0.35299 0.60074 0.23768 0.0
C434 C 0.31761 0.56759 0.24644 0.0
C435 C 0.27023 0.64809 0.23857 0.0
C436 C 0.25688 0.57373 0.25227 0.0
C437 C 0.33027 0.64053 0.23319 0.0
C438 C 0.23346 0.61464 0.24843 0.0
N439 N 0.39989 0.52188 0.24102 0.0
C440 C 0.42376 0.48246 0.23816 0.0
C441 C 0.30588 0.49173 0.25595 0.0
C442 C 0.34168 0.527 0.24811 0.0
C443 C 0.3313 0.45115 0.25559 0.0
C444 C 0.3903 0.44645 0.24611 0.0
H445 H 0.187 0.62066 0.25266 0.0
H446 H 0.17472 0.543 0.266 0.0
H447 H 0.21766 0.47128 0.26937 0.0
O448 O 0.4506 0.55157 0.18224 0.0
O449 O 0.43993 0.55487 0.2827 0.0
O450 O 0.5293 0.52897 0.30063 0.0
O451 O 0.41918 0.61615 0.18597 0.0
O452 O 0.54403 0.55726 0.21823 0.0
O453 O 0.57454 0.52727 0.26708 0.0
O454 O 0.56084 0.60011 0.35023 0.0
O455 O 0.59711 0.63188 0.25575 0.0
O456 O 0.51173 0.64214 0.22387 0.0
O457 O 0.64646 0.57274 0.34218 0.0
O458 O 0.51131 0.63145 0.30834 0.0
O459 O 0.44738 0.64263 0.26293 0.0
C460 C 0.47177 0.53073 0.30294 0.0
C461 C 0.37569 0.57429 0.14428 0.0
C462 C 0.32887 0.5834 0.08972 0.0
C463 C 0.27572 0.56793 0.1032 0.0
C464 C 0.32292 0.55727 0.15671 0.0
C465 C 0.27319 0.55426 0.1363 0.0
C466 C 0.37901 0.58623 0.1105 0.0
C467 C 0.57445 0.5284 0.23438 0.0
C468 C 0.42566 0.58343 0.16669 0.0
C469 C 0.22138 0.53883 0.26113 0.0
C470 C 0.24583 0.49796 0.26306 0.0
C471 C 0.56688 0.65047 0.23167 0.0
C472 C 0.60035 0.55699 0.39337 0.0
C473 C 0.61297 0.54334 0.45299 0.0
C474 C 0.58705 0.50318 0.44893 0.0
C475 C 0.57456 0.51673 0.38979 0.0
C476 C 0.61946 0.57025 0.42506 0.0
C477 C 0.56788 0.49005 0.41749 0.0
C478 C 0.46576 0.65045 0.29357 0.0
C479 C 0.60841 0.58508 0.36422 0.0
H480 H 0.23636 0.5659 0.0879 0.0
H481 H 0.31979 0.54686 0.18221 0.0
H482 H 0.23234 0.54171 0.14628 0.0
H483 H 0.41997 0.59886 0.10061 0.0
H484 H 0.58129 0.48218 0.47016 0.0
H485 H 0.55987 0.50593 0.3656 0.0
H486 H 0.63924 0.60138 0.42805 0.0
H487 H 0.54775 0.45908 0.41456 0.0
C488 C 0.11329 0.92675 0.3416 0.0
C489 C 0.16015 0.93802 0.36342 0.0
C490 C 0.1576 1.01117 0.34183 0.0
C491 C 0.11145 0.99986 0.31952 0.0
N492 N 0.05534 0.94469 0.29254 0.0
N493 N 0.2375 0.98725 0.37761 0.0
C494 C 0.09308 0.95676 0.31733 0.0
C495 C 0.18565 0.97913 0.36134 0.0
N496 N 0.08562 0.88843 0.34539 0.0
N497 N 0.17391 0.05273 0.34502 0.0
H498 H 0.25971 0.96423 0.39162 0.0
H499 H 0.26146 0.01525 0.37455 0.0
H500 H 0.15715 0.0768 0.32986 0.0
H501 H 0.20158 0.0637 0.36386 0.0
H502 H 0.04678 0.88039 0.33301 0.0
H503 H 0.09887 0.86574 0.36289 0.0
H504 H 0.04453 0.91315 0.28777 0.0
H505 H 0.03862 0.96593 0.27491 0.0
C506 C 0.42048 0.5952 0.85119 0.0
C507 C 0.3639 0.59062 0.86585 0.0
C508 C 0.35292 0.52058 0.84049 0.0
C509 C 0.40835 0.52569 0.82456 0.0
N510 N 0.48853 0.57172 0.80857 0.0
N511 N 0.27065 0.55391 0.86851 0.0
C512 C 0.44019 0.56429 0.82802 0.0
C513 C 0.32826 0.55491 0.85846 0.0
N514 N 0.45624 0.62812 0.86037 0.0
N515 N 0.32547 0.48207 0.84021 0.0
H516 H 0.25122 0.57849 0.88192 0.0
H517 H 0.24077 0.5307 0.86093 0.0
H518 H 0.34263 0.45654 0.82728 0.0
H519 H 0.28862 0.47465 0.85459 0.0
H520 H 0.50051 0.63032 0.85364 0.0
H521 H 0.44278 0.65182 0.87673 0.0
H522 H 0.51084 0.60065 0.80776 0.0
H523 H 0.5028 0.55012 0.79079 0.0
C524 C 0.56823 0.5595 0.66825 0.0
C525 C 0.6262 0.57482 0.67417 0.0
C526 C 0.6194 0.54356 0.73021 0.0
C527 C 0.56929 0.5192 0.72069 0.0
N528 N 0.5077 0.49768 0.67461 0.0
N529 N 0.71095 0.57469 0.7112 0.0
C530 C 0.54629 0.52579 0.68813 0.0
C531 C 0.65312 0.56515 0.70536 0.0
N532 N 0.53427 0.57656 0.64345 0.0
N533 N 0.6325 0.5488 0.76295 0.0
H534 H 0.73827 0.58852 0.69333 0.0
H535 H 0.7328 0.56485 0.73281 0.0
H536 H 0.60361 0.53844 0.78138 0.0
H537 H 0.66638 0.56864 0.77116 0.0
H538 H 0.49042 0.56755 0.6397 0.0
H539 H 0.54787 0.60287 0.62949 0.0
H540 H 0.49263 0.49998 0.65009 0.0
H541 H 0.49944 0.46881 0.68616 0.0
C542 C 0.9278 0.97752 0.16083 0.0
C543 C 0.88282 0.94863 0.17096 0.0
C544 C 0.89637 0.97355 0.22803 0.0
C545 C 0.93272 1.00732 0.21699 0.0
N546 N 0.96574 0.04806 0.16947 0.0
N547 N 0.81142 0.93134 0.21401 0.0
C548 C 0.94323 0.01141 0.18229 0.0
C549 C 0.86266 0.95061 0.20447 0.0
N550 N 0.95867 0.97163 0.13208 0.0
N551 N 0.89833 0.9602 0.26022 0.0
H552 H 0.7828 0.91705 0.19703 0.0
H553 H 0.79469 0.93428 0.23809 0.0
H554 H 0.93009 0.97179 0.27655 0.0
H555 H 0.87527 0.93347 0.26856 0.0
H556 H 0.99428 0.99092 0.12543 0.0
H557 H 0.95408 0.94466 0.11738 0.0
H558 H 0.97099 0.05314 0.14395 0.0
H559 H 0.97059 0.07494 0.18411 0.0
C560 C 0.88981 0.10497 0.70533 0.0
C561 C 0.85496 0.09244 0.67764 0.0
C562 C 0.84666 0.02082 0.70142 0.0
C563 C 0.88918 0.03128 0.72588 0.0
N564 N 0.92422 0.08783 0.76096 0.0
N565 N 0.79838 0.03858 0.64932 0.0
C566 C 0.90292 0.07478 0.73095 0.0
C567 C 0.83223 0.05051 0.67591 0.0
N568 N 0.91291 0.14506 0.70632 0.0
N569 N 0.81558 0.98405 0.70485 0.0
H570 H 0.78442 0.05979 0.63085 0.0
H571 H 0.78703 1.00711 0.64454 0.0
H572 H 0.82289 0.96352 0.72487 0.0
H573 H 0.77851 0.97662 0.69065 0.0
H574 H 0.94483 0.15441 0.7235 0.0
H575 H 0.90354 0.16815 0.68832 0.0
H576 H 0.93077 0.1196 0.76704 0.0
H577 H 0.92732 0.06756 0.78142 0.0
C578 C 0.69463 0.49203 0.17364 0.0
C579 C 0.67747 0.44914 0.16873 0.0
C580 C 0.60454 0.45555 0.21351 0.0
C581 C 0.61486 0.5001 0.21488 0.0
N582 N 0.67239 0.56079 0.19759 0.0
N583 N 0.61367 0.3903 0.18212 0.0
C584 C 0.66092 0.5183 0.19535 0.0
C585 C 0.6321 0.43088 0.18836 0.0
N586 N 0.74391 0.50727 0.15796 0.0
N587 N 0.56924 0.4365 0.23661 0.0
H588 H 0.63369 0.37081 0.16453 0.0
H589 H 0.57588 0.37695 0.19258 0.0
H590 H 0.54831 0.45353 0.25511 0.0
H591 H 0.56504 0.40372 0.23935 0.0
H592 H 0.76292 0.53667 0.16289 0.0
H593 H 0.76884 0.48905 0.14156 0.0
H594 H 0.70067 0.5773 0.18175 0.0
H595 H 0.65199 0.58022 0.21499 0.0
C596 C 0.36025 0.50145 0.37023 0.0
C597 C 0.36593 0.45665 0.37178 0.0
C598 C 0.44824 0.45992 0.33206 0.0
C599 C 0.4405 0.50481 0.3291 0.0
N600 N 0.40558 0.56842 0.35539 0.0
N601 N 0.40987 0.39214 0.35174 0.0
C602 C 0.40068 0.52562 0.35082 0.0
C603 C 0.40832 0.43559 0.35193 0.0
N604 N 0.31465 0.52087 0.38636 0.0
N605 N 0.49631 0.44075 0.31832 0.0
H606 H 0.38404 0.37328 0.36741 0.0
H607 H 0.43334 0.37449 0.3344 0.0
H608 H 0.53062 0.45745 0.30748 0.0
H609 H 0.50704 0.4089 0.32174 0.0
H610 H 0.30392 0.55278 0.38297 0.0
H611 H 0.284 0.50427 0.4008 0.0
H612 H 0.38228 0.58515 0.37337 0.0
H613 H 0.43826 0.58647 0.34384 0.0
C614 C 0.16084 0.0205 0.86441 0.0
C615 C 0.1439 0.06375 0.86729 0.0
C616 C 0.07304 0.05422 0.8217 0.0
C617 C 0.08125 1.00962 0.82329 0.0
N618 N 0.13829 0.95009 0.84377 0.0
N619 N 0.08214 0.12197 0.84953 0.0
C620 C 0.12726 0.99272 0.84369 0.0
C621 C 0.09972 0.08073 0.84603 0.0
N622 N 0.20996 1.00636 0.88097 0.0
N623 N 0.04342 0.07155 0.79535 0.0
H624 H 0.1017 0.14271 0.86647 0.0
H625 H 0.04553 0.1346 0.83723 0.0
H626 H 0.02764 0.05297 0.77586 0.0
H627 H 0.04121 0.10413 0.79078 0.0
H628 H 0.22874 0.97658 0.87749 0.0
H629 H 0.2352 0.02582 0.89641 0.0
H630 H 0.16523 0.93481 0.86111 0.0
H631 H 0.11869 0.92932 0.82707 0.0
C632 C 0.19546 0.06758 1.00569 0.0
C633 C 0.16641 0.10091 0.98818 0.0
C634 C 0.13749 0.13357 0.04102 0.0
C635 C 0.16873 0.10125 0.05846 0.0
N636 N 0.21416 0.03217 0.05862 0.0
N637 N 0.09831 0.15935 0.98813 0.0
C638 C 0.1931 0.06635 0.0411 0.0
C639 C 0.13335 0.13178 1.00563 0.0
N640 N 0.22816 0.03857 0.9885 0.0
N641 N 0.11408 0.16684 0.05828 0.0
H642 H 0.09478 0.15842 0.96221 0.0
H643 H 0.06919 0.18056 0.99914 0.0
H644 H 0.11443 0.16819 0.08424 0.0
H645 H 0.09666 0.19395 0.04705 0.0
H646 H 0.25653 0.01681 0.99979 0.0
H647 H 0.22931 0.03757 0.96255 0.0
H648 H 0.22733 1.00389 0.04759 0.0
H649 H 0.21376 0.0307 0.08458 0.0
C650 C 0.35027 0.38282 0.50672 0.0
C651 C 0.32014 0.41612 0.4899 0.0
C652 C 0.30001 0.45079 0.54324 0.0
C653 C 0.32247 0.41452 0.56012 0.0
N654 N 0.36853 0.34559 0.55892 0.0
N655 N 0.26465 0.4814 0.49127 0.0
C656 C 0.34818 0.38059 0.54213 0.0
C657 C 0.29524 0.45036 0.5079 0.0
N658 N 0.38108 0.3536 0.48869 0.0
N659 N 0.28347 0.48564 0.5611 0.0
H660 H 0.26184 0.48289 0.46535 0.0
H661 H 0.23926 0.50438 0.50302 0.0
H662 H 0.28548 0.48664 0.58705 0.0
H663 H 0.27231 0.51471 0.55032 0.0
H664 H 0.40857 0.33072 0.49928 0.0
H665 H 0.38297 0.3544 0.46272 0.0
H666 H 0.38141 0.31761 0.54735 0.0
H667 H 0.3698 0.34367 0.58486 0.0
C668 C 0.67173 0.36984 0.0331 0.0
C669 C 0.69661 0.40627 0.04833 0.0
C670 C 0.70109 0.44161 0.99372 0.0
C671 C 0.68678 0.40257 0.97812 0.0
N672 N 0.66215 0.32812 0.98286 0.0
N673 N 0.73873 0.47645 0.04309 0.0
C674 C 0.67217 0.36639 0.99777 0.0
C675 C 0.71152 0.44238 0.0287 0.0
N676 N 0.64765 0.33858 0.05256 0.0
N677 N 0.70426 0.47797 0.97502 0.0
H678 H 0.74678 0.47847 0.0686 0.0
H679 H 0.757 0.50144 0.02946 0.0
H680 H 0.69627 0.4784 0.9494 0.0
H681 H 0.70903 0.50809 0.98528 0.0
H682 H 0.6239 0.31305 0.04301 0.0
H683 H 0.64647 0.34048 0.0785 0.0
H684 H 0.65814 0.29967 0.99604 0.0
H685 H 0.6622 0.3241 0.95711 0.0
C686 C 0.94037 0.15876 0.55339 0.0
C687 C 0.88148 0.14573 0.55985 0.0
C688 C 0.86059 0.14506 0.50001 0.0
C689 C 0.92039 0.15553 0.49321 0.0
N690 N 0.0205 0.16134 0.51345 0.0
N691 N 0.79226 0.11335 0.53911 0.0
C692 C 0.96142 0.15893 0.51995 0.0
C693 C 0.84393 0.13441 0.53301 0.0
N694 N 0.97534 0.17282 0.5788 0.0
N695 N 0.81868 0.14791 0.47554 0.0
H696 H 0.77942 0.1041 0.56303 0.0
H697 H 0.76571 0.10111 0.52021 0.0
H698 H 0.82785 0.15813 0.45136 0.0
H699 H 0.77366 0.14462 0.48022 0.0
H700 H 0.0163 0.18709 0.57496 0.0
H701 H 0.96159 0.17319 0.60356 0.0
H702 H 0.05269 0.15993 0.53201 0.0
H703 H 0.03752 0.16044 0.48934 0.0
C704 C 0.87293 0.87964 0.03614 0.0
C705 C 0.82761 0.89778 0.05588 0.0
C706 C 0.78133 0.92678 1.0053 0.0
C707 C 0.82149 0.90327 0.98547 0.0
N708 N 0.90125 0.85265 0.98215 0.0
N709 N 0.73549 0.93563 0.05942 0.0
C710 C 0.8665 0.87867 1.0009 0.0
C711 C 0.78108 0.92084 0.04053 0.0
N712 N 0.92283 0.86411 0.05106 0.0
N713 N 0.74424 0.95544 0.99043 0.0
H714 H 0.73413 0.93213 0.08526 0.0
H715 H 0.69704 0.94851 0.04932 0.0
H716 H 0.74393 0.96096 0.96477 0.0
H717 H 0.71792 0.9765 1.00367 0.0
H718 H 0.95994 0.85456 0.03781 0.0
H719 H 0.92951 0.86464 0.07678 0.0
H720 H 0.93004 0.83034 0.99245 0.0
H721 H 0.89793 0.85067 0.95631 0.0
C722 C 0.61054 0.5979 0.53774 0.0
C723 C 0.66392 0.58259 0.55216 0.0
C724 C 0.68671 0.54485 0.5003 0.0
C725 C 0.63129 0.55759 0.4869 0.0
N726 N 0.53656 0.59095 0.49428 0.0
N727 N 0.74993 0.53805 0.54917 0.0
C728 C 0.59215 0.5827 0.50603 0.0
C729 C 0.70126 0.55506 0.53396 0.0
N730 N 0.57814 0.62798 0.55398 0.0
N731 N 0.72595 0.52386 0.48051 0.0
H732 H 0.76225 0.54566 0.57347 0.0
H733 H 0.7758 0.51433 0.53873 0.0
H734 H 0.71638 0.51543 0.45598 0.0
H735 H 0.76936 0.51742 0.48739 0.0
H736 H 0.54282 0.64415 0.54317 0.0
H737 H 0.58913 0.63939 0.57753 0.0
H738 H 0.50341 0.60456 0.5086 0.0
H739 H 0.52187 0.58128 0.47088 0.0
C740 C 0.35497 0.64867 1.01017 0.0
C741 C 0.32756 0.62243 0.98594 0.0
C742 C 0.31298 0.56768 0.0288 0.0
C743 C 0.33116 0.59659 0.05385 0.0
N744 N 0.3568 0.66891 0.06812 0.0
N745 N 0.2672 0.56063 0.97477 0.0
C746 C 0.34873 0.63837 0.04452 0.0
C747 C 0.30276 0.5829 0.99596 0.0
N748 N 0.38876 0.68253 1.00055 0.0
N749 N 0.30718 0.52541 0.036 0.0
H750 H 0.25543 0.57176 0.95116 0.0
H751 H 0.2441 0.53351 0.98216 0.0
H752 H 0.3172 0.51256 0.05934 0.0
H753 H 0.29899 0.50268 1.01778 0.0
H754 H 0.41379 0.70024 1.01732 0.0
H755 H 0.39704 0.68995 0.97565 0.0
H756 H 0.36432 0.70072 0.06211 0.0
H757 H 0.3496 0.66354 0.09343 0.0
C758 C 0.14526 0.87719 0.50688 0.0
C759 C 0.17317 0.90828 0.4865 0.0
C760 C 0.17975 0.95502 0.53502 0.0
C761 C 0.1639 0.92058 0.55628 0.0
N762 N 0.14049 0.84578 0.56179 0.0
N763 N 0.22409 0.97568 0.4826 0.0
C764 C 0.14837 0.88086 0.54208 0.0
C765 C 0.19182 0.9472 0.50082 0.0
N766 N 0.11548 0.8442 0.49258 0.0
N767 N 0.18278 0.99526 0.54745 0.0
H768 H 0.23581 0.97072 0.45785 0.0
H769 H 0.24386 1.00241 0.49301 0.0
H770 H 0.17256 1.00219 0.57216 0.0
H771 H 0.18912 0.02202 0.53246 0.0
H772 H 0.09014 0.82269 0.50628 0.0
H773 H 0.11082 0.84124 0.46683 0.0
H774 H 0.13513 0.81534 0.55216 0.0
H775 H 0.14532 0.8461 0.5876 0.0
C776 C 0.11722 0.26958 0.32123 0.0
C777 C 0.1309 0.26755 0.35553 0.0
C778 C 0.11267 0.1905 0.35538 0.0
C779 C 0.09177 0.19384 0.32207 0.0
N780 N 0.06072 0.239 0.27662 0.0
N781 N 0.13939 0.22719 0.40641 0.0
C782 C 0.09094 0.23396 0.30574 0.0
C783 C 0.12885 0.22813 0.37288 0.0
N784 N 0.12846 0.30591 0.30355 0.0
N785 N 0.11523 0.15158 0.37055 0.0
H786 H 0.15356 0.25384 0.41955 0.0
H787 H 0.13151 0.20082 0.42153 0.0
H788 H 0.09887 0.12413 0.35947 0.0
H789 H 0.13576 0.14607 0.39338 0.0
H790 H 0.1247 0.30774 0.27769 0.0
H791 H 0.14723 0.3328 0.31437 0.0
H792 H 0.05272 0.26849 0.26558 0.0
H793 H 0.03833 0.2141 0.26538 0.0
C794 C 0.34547 0.29448 0.86254 0.0
C795 C 0.37736 0.25575 0.86042 0.0
C796 C 0.45419 0.29232 0.8287 0.0
C797 C 0.41981 0.32991 0.82711 0.0
N798 N 0.32637 0.36349 0.83795 0.0
N799 N 0.45298 0.21579 0.83246 0.0
C800 C 0.3633 0.32991 0.84255 0.0
C801 C 0.42843 0.25405 0.84026 0.0
N802 N 0.30025 0.29839 0.88474 0.0
N803 N 0.51291 0.29349 0.82186 0.0
H804 H 0.4343 0.18695 0.83996 0.0
H805 H 0.48778 0.21293 0.81565 0.0
H806 H 0.53426 0.32166 0.81618 0.0
H807 H 0.54094 0.26763 0.82561 0.0
H808 H 0.27985 0.32728 0.88982 0.0
H809 H 0.28626 0.27358 0.90011 0.0
H810 H 0.28249 0.36362 0.84568 0.0
H811 H 0.33857 0.38944 0.82354 0.0
C812 C 0.60184 0.26797 0.70685 0.0
C813 C 0.63334 0.28205 0.67851 0.0
C814 C 0.61771 0.35616 0.69492 0.0
C815 C 0.57892 0.3421 0.72055 0.0
N816 N 0.52635 0.28425 0.74695 0.0
N817 N 0.66952 0.33909 0.64388 0.0
C818 C 0.56958 0.29786 0.72582 0.0
C819 C 0.64113 0.32607 0.67217 0.0
N820 N 0.60203 0.22584 0.71535 0.0
N821 N 0.63364 0.39802 0.6929 0.0
H822 H 0.68997 0.31796 0.62765 0.0
H823 H 0.67006 0.37047 0.63553 0.0
H824 H 0.61807 0.42103 0.7092 0.0
H825 H 0.66646 0.4094 0.67708 0.0
H826 H 0.58504 0.21426 0.73772 0.0
H827 H 0.62411 0.20291 0.70148 0.0
H828 H 0.51309 0.25267 0.74917 0.0
H829 H 0.49891 0.30511 0.75946 0.0
C830 C 0.90853 0.26407 0.21916 0.0
C831 C 0.88887 0.25471 0.1865 0.0
C832 C 0.89194 0.17835 0.19952 0.0
C833 C 0.91895 0.18765 0.23059 0.0
N834 N 0.92529 0.23926 0.27535 0.0
N835 N 0.85879 0.20382 0.1453 0.0
C836 C 0.91868 0.23039 0.24226 0.0
C837 C 0.87865 0.21203 0.1768 0.0
N838 N 0.92103 0.30517 0.22758 0.0
N839 N 0.87614 0.13735 0.1928 0.0
H840 H 0.84593 0.22782 0.12877 0.0
H841 H 0.8571 0.17364 0.13494 0.0
H842 H 0.88132 0.11288 0.21023 0.0
H843 H 0.85267 0.12805 0.17178 0.0
H844 H 0.94415 0.31347 0.24903 0.0
H845 H 0.912 0.33098 0.21196 0.0
H846 H 0.91936 0.26949 0.28518 0.0
H847 H 0.92965 0.21653 0.29397 0.0
C848 C 0.8763 0.76556 0.69729 0.0
C849 C 0.8236 0.77838 0.68072 0.0
C850 C 0.84045 0.85101 0.69884 0.0
C851 C 0.89002 0.83855 0.71796 0.0
N852 N 0.94583 0.7807 0.74194 0.0
N853 N 0.74556 0.83019 0.67713 0.0
C854 C 0.90521 0.79469 0.7193 0.0
C855 C 0.80184 0.81986 0.68617 0.0
N856 N 0.90019 0.72668 0.69104 0.0
N857 N 0.83418 0.89216 0.68898 0.0
H858 H 0.71619 0.80764 0.66769 0.0
H859 H 0.72714 0.85978 0.68236 0.0
H860 H 0.86805 0.91409 0.6925 0.0
H861 H 0.80081 0.90211 0.67278 0.0
H862 H 0.94172 0.71759 0.69972 0.0
H863 H 0.87994 0.70462 0.67547 0.0
H864 H 0.95519 0.74864 0.74577 0.0
H865 H 0.96523 0.80099 0.75923 0.0
C866 C 0.67182 0.69287 0.16618 0.0
C867 C 0.69622 0.72707 0.18455 0.0
C868 C 0.61554 0.72121 0.22487 0.0
C869 C 0.59978 0.68176 0.21092 0.0
N870 N 0.603 0.63344 0.16481 0.0
N871 N 0.69013 0.77605 0.23045 0.0
C872 C 0.62431 0.66897 0.18011 0.0
C873 C 0.66704 0.7425 0.21331 0.0
N874 N 0.69449 0.68355 0.13555 0.0
N875 N 0.58 0.73845 0.24856 0.0
H876 H 0.72757 0.79257 0.22266 0.0
H877 H 0.6741 0.78621 0.25332 0.0
H878 H 0.53995 0.72421 0.25494 0.0
H879 H 0.5863 0.76845 0.25873 0.0
H880 H 0.67734 0.66066 0.11967 0.0
H881 H 0.72875 0.70108 0.12484 0.0
H882 H 0.62195 0.61951 0.14401 0.0
H883 H 0.56597 0.61714 0.17345 0.0
C884 C 0.4172 0.74028 0.35274 0.0
C885 C 0.35517 0.73402 0.35278 0.0
C886 C 0.36684 0.67256 0.3168 0.0
C887 C 0.4285 0.68027 0.3139 0.0
N888 N 0.51067 0.72663 0.32554 0.0
N889 N 0.27027 0.70213 0.32702 0.0
C890 C 0.45322 0.71583 0.33077 0.0
C891 C 0.32999 0.70322 0.3317 0.0
N892 N 0.44188 0.7682 0.37464 0.0
N893 N 0.34386 0.63396 0.30882 0.0
H894 H 0.24206 0.72435 0.33779 0.0
H895 H 0.25004 0.68204 0.30987 0.0
H896 H 0.36993 0.60907 0.3007 0.0
H897 H 0.30054 0.62516 0.31427 0.0
H898 H 0.48718 0.77058 0.37872 0.0
H899 H 0.41653 0.78745 0.39008 0.0
H900 H 0.52983 0.75446 0.33439 0.0
H901 H 0.53762 0.70921 0.30989 0.0
C902 C 0.1603 0.79327 0.81741 0.0
C903 C 0.1627 0.7957 0.85258 0.0
C904 C 0.08009 0.84545 0.85234 0.0
C905 C 0.07537 0.84217 0.8169 0.0
N906 N 0.10066 0.80174 0.76777 0.0
N907 N 0.11251 0.81176 0.90361 0.0
C908 C 0.11213 0.81242 0.80006 0.0
C909 C 0.1177 0.81714 0.86996 0.0
N910 N 0.2052 0.77438 0.80038 0.0
N911 N 0.05456 0.87823 0.86916 0.0
H912 H 0.14008 0.79139 0.91713 0.0
H913 H 0.07715 0.82379 0.91718 0.0
H914 H 0.03501 0.90419 0.85751 0.0
H915 H 0.06113 0.88334 0.89452 0.0
H916 H 0.20939 0.7763 0.77457 0.0
H917 H 0.24039 0.75916 0.81225 0.0
H918 H 0.12284 0.77749 0.75547 0.0
H919 H 0.06489 0.81373 0.75441 0.0
loop_
_geom_bond_atom_site_label_1
_geom_bond_atom_site_label_2
_geom_bond_distance
_geom_bond_site_symmetry_2
_ccdc_geom_bond_type
H0 C1 0.949 . S
C1 H0 0.949 . S
C1 C2 1.395 . S
C1 C3 1.391 . S
C2 C1 1.395 . S
C2 C5 1.390 . S
C3 C1 1.391 . S
C3 C7 1.387 . S
C3 C8 1.491 . S
H4 C5 0.950 . S
C5 C2 1.390 . S
C5 H4 0.950 . S
C5 C6 1.378 . S
C6 C5 1.378 . S
C6 C7 1.409 . S
C7 C3 1.387 . S
C7 C6 1.409 . S
C7 H9 0.951 . S
C8 C3 1.491 . S
C8 C10 1.382 . S
C8 C12 1.404 . S
H9 C7 0.951 . S
C10 C8 1.382 . S
C10 C11 1.390 . S
C10 H15 0.949 . S
C11 C10 1.390 . S
C11 C16 1.399 . S
C12 C8 1.404 . S
C12 H13 0.950 . S
C12 C14 1.375 . S
H13 C12 0.950 . S
C14 C12 1.375 . S
C14 C16 1.382 . S
C14 H18 0.950 . S
H15 C10 0.949 . S
C16 C11 1.399 . S
C16 C14 1.382 . S
C16 H17 0.952 . S
H17 C16 0.952 . S
H18 C14 0.950 . S
H19 C20 0.949 . S
C20 H19 0.949 . S
C20 C21 1.395 . S
C20 C22 1.391 . S
C21 C20 1.395 . S
C21 C24 1.390 . S
C22 C20 1.391 . S
C22 C26 1.387 . S
C22 C27 1.491 . S
H23 C24 0.950 . S
C24 C21 1.390 . S
C24 H23 0.950 . S
C24 C25 1.378 . S
C25 C24 1.378 . S
C25 C26 1.409 . S
C26 C22 1.387 . S
C26 C25 1.409 . S
C26 H28 0.951 . S
C27 C22 1.491 . S
C27 C29 1.382 . S
C27 C31 1.404 . S
H28 C26 0.951 . S
C29 C27 1.382 . S
C29 C30 1.390 . S
C29 H34 0.949 . S
C30 C29 1.390 . S
C30 C35 1.399 . S
C31 C27 1.404 . S
C31 H32 0.950 . S
C31 C33 1.375 . S
H32 C31 0.950 . S
C33 C31 1.375 . S
C33 C35 1.382 . S
C33 H37 0.950 . S
H34 C29 0.949 . S
C35 C30 1.399 . S
C35 C33 1.382 . S
C35 H36 0.952 . S
H36 C35 0.952 . S
H37 C33 0.950 . S
H38 C39 0.949 . S
C39 H38 0.949 . S
C39 C40 1.395 . S
C39 C41 1.391 . S
C40 C39 1.395 . S
C40 C43 1.390 . S
C41 C39 1.391 . S
C41 C45 1.387 . S
C41 C46 1.491 . S
H42 C43 0.950 . S
C43 C40 1.390 . S
C43 H42 0.950 . S
C43 C44 1.378 . S
C44 C43 1.378 . S
C44 C45 1.409 . S
C45 C41 1.387 . S
C45 C44 1.409 . S
C45 H47 0.951 . S
C46 C41 1.491 . S
C46 C48 1.382 . S
C46 C50 1.404 . S
H47 C45 0.951 . S
C48 C46 1.382 . S
C48 C49 1.390 . S
C48 H53 0.949 . S
C49 C48 1.390 . S
C49 C54 1.399 . S
C50 C46 1.404 . S
C50 H51 0.950 . S
C50 C52 1.375 . S
H51 C50 0.950 . S
C52 C50 1.375 . S
C52 C54 1.382 . S
C52 H56 0.950 . S
H53 C48 0.949 . S
C54 C49 1.399 . S
C54 C52 1.382 . S
C54 H55 0.952 . S
H55 C54 0.952 . S
H56 C52 0.950 . S
H57 C58 0.949 . S
C58 H57 0.949 . S
C58 C59 1.395 . S
C58 C60 1.391 . S
C59 C58 1.395 . S
C59 C62 1.390 . S
C60 C58 1.391 . S
C60 C64 1.387 . S
C60 C65 1.491 . S
H61 C62 0.950 . S
C62 C59 1.390 . S
C62 H61 0.950 . S
C62 C63 1.378 . S
C63 C62 1.378 . S
C63 C64 1.409 . S
C64 C60 1.387 . S
C64 C63 1.409 . S
C64 H66 0.951 . S
C65 C60 1.491 . S
C65 C67 1.382 . S
C65 C69 1.404 . S
H66 C64 0.951 . S
C67 C65 1.382 . S
C67 C68 1.390 . S
C67 H72 0.949 . S
C68 C67 1.390 . S
C68 C73 1.399 . S
C69 C65 1.404 . S
C69 H70 0.950 . S
C69 C71 1.375 . S
H70 C69 0.950 . S
C71 C69 1.375 . S
C71 C73 1.382 . S
C71 H75 0.950 . S
H72 C67 0.949 . S
C73 C68 1.399 . S
C73 C71 1.382 . S
C73 H74 0.952 . S
H74 C73 0.952 . S
H75 C71 0.950 . S
H76 C77 0.949 . S
C77 H76 0.949 . S
C77 C78 1.395 . S
C77 C79 1.391 . S
C78 C77 1.395 . S
C78 C81 1.390 . S
C79 C77 1.391 . S
C79 C83 1.387 . S
C79 C84 1.491 . S
H80 C81 0.950 . S
C81 C78 1.390 . S
C81 H80 0.950 . S
C81 C82 1.378 . S
C82 C81 1.378 . S
C82 C83 1.409 . S
C83 C79 1.387 . S
C83 C82 1.409 . S
C83 H85 0.951 . S
C84 C79 1.491 . S
C84 C86 1.382 . S
C84 C88 1.404 . S
H85 C83 0.951 . S
C86 C84 1.382 . S
C86 C87 1.390 . S
C86 H91 0.949 . S
C87 C86 1.390 . S
C87 C92 1.399 . S
C88 C84 1.404 . S
C88 H89 0.950 . S
C88 C90 1.375 . S
H89 C88 0.950 . S
C90 C88 1.375 . S
C90 C92 1.382 . S
C90 H94 0.950 . S
H91 C86 0.949 . S
C92 C87 1.399 . S
C92 C90 1.382 . S
C92 H93 0.952 . S
H93 C92 0.952 . S
H94 C90 0.950 . S
H95 C96 0.949 . S
C96 H95 0.949 . S
C96 C97 1.395 . S
C96 C98 1.391 . S
C97 C96 1.395 . S
C97 C100 1.390 . S
C98 C96 1.391 . S
C98 C102 1.387 . S
C98 C103 1.491 . S
H99 C100 0.950 . S
C100 C97 1.390 . S
C100 H99 0.950 . S
C100 C101 1.378 . S
C101 C100 1.378 . S
C101 C102 1.409 . S
C102 C98 1.387 . S
C102 C101 1.409 . S
C102 H104 0.951 . S
C103 C98 1.491 . S
C103 C105 1.382 . S
C103 C107 1.404 . S
H104 C102 0.951 . S
C105 C103 1.382 . S
C105 C106 1.390 . S
C105 H110 0.949 . S
C106 C105 1.390 . S
C106 C111 1.399 . S
C107 C103 1.404 . S
C107 H108 0.950 . S
C107 C109 1.375 . S
H108 C107 0.950 . S
C109 C107 1.375 . S
C109 C111 1.382 . S
C109 H113 0.950 . S
H110 C105 0.949 . S
C111 C106 1.399 . S
C111 C109 1.382 . S
C111 H112 0.952 . S
H112 C111 0.952 . S
H113 C109 0.950 . S
H114 C115 0.949 . S
C115 H114 0.949 . S
C115 C116 1.395 . S
C115 C117 1.391 . S
C116 C115 1.395 . S
C116 C119 1.390 . S
C117 C115 1.391 . S
C117 C121 1.387 . S
C117 C122 1.491 . S
H118 C119 0.950 . S
C119 C116 1.390 . S
C119 H118 0.950 . S
C119 C120 1.378 . S
C120 C119 1.378 . S
C120 C121 1.409 . S
C121 C117 1.387 . S
C121 C120 1.409 . S
C121 H123 0.951 . S
C122 C117 1.491 . S
C122 C124 1.382 . S
C122 C126 1.404 . S
H123 C121 0.951 . S
C124 C122 1.382 . S
C124 C125 1.390 . S
C124 H129 0.949 . S
C125 C124 1.390 . S
C125 C130 1.399 . S
C126 C122 1.404 . S
C126 H127 0.950 . S
C126 C128 1.375 . S
H127 C126 0.950 . S
C128 C126 1.375 . S
C128 C130 1.382 . S
C128 H132 0.950 . S
H129 C124 0.949 . S
C130 C125 1.399 . S
C130 C128 1.382 . S
C130 H131 0.952 . S
H131 C130 0.952 . S
H132 C128 0.950 . S
H133 C134 0.949 . S
C134 H133 0.949 . S
C134 C135 1.395 . S
C134 C136 1.391 . S
C135 C134 1.395 . S
C135 C138 1.390 . S
C136 C134 1.391 . S
C136 C140 1.387 . S
C136 C141 1.491 . S
H137 C138 0.950 . S
C138 C135 1.390 . S
C138 H137 0.950 . S
C138 C139 1.378 . S
C139 C138 1.378 . S
C139 C140 1.409 . S
C140 C136 1.387 . S
C140 C139 1.409 . S
C140 H142 0.951 . S
C141 C136 1.491 . S
C141 C143 1.382 . S
C141 C145 1.404 . S
H142 C140 0.951 . S
C143 C141 1.382 . S
C143 C144 1.390 . S
C143 H148 0.949 . S
C144 C143 1.390 . S
C144 C149 1.399 . S
C145 C141 1.404 . S
C145 H146 0.950 . S
C145 C147 1.375 . S
H146 C145 0.950 . S
C147 C145 1.375 . S
C147 C149 1.382 . S
C147 H151 0.950 . S
H148 C143 0.949 . S
C149 C144 1.399 . S
C149 C147 1.382 . S
C149 H150 0.952 . S
H150 C149 0.952 . S
H151 C147 0.950 . S
Eu152 N181 2.600 . S
Eu152 N187 2.562 . S
Eu152 O196 2.462 . S
Eu152 O197 2.373 . S
Eu152 O199 2.432 . S
Eu152 O200 2.291 1_455 S
Eu152 O204 2.335 1_455 S
Eu152 O207 2.372 . S
Eu152 C216 2.787 . S
C153 N154 1.365 . S
C153 C156 1.405 . S
C153 C160 1.448 . S
N154 C153 1.365 . S
N154 C157 1.319 . S
N154 Eu163 2.600 . S
C155 C157 1.397 . S
C155 C158 1.367 . S
C155 H175 0.931 . S
C156 C153 1.405 . S
C156 C158 1.403 . S
C156 C162 1.439 . S
C157 N154 1.319 . S
C157 C155 1.397 . S
C157 H168 0.930 . S
C158 C155 1.367 . S
C158 C156 1.403 . S
C158 H179 0.929 . S
C159 C160 1.430 1_565 S
C159 C161 1.387 . S
C159 C165 1.404 . S
C160 C153 1.448 . S
C160 C159 1.430 1_545 S
C160 N164 1.351 . S
C161 C159 1.387 . S
C161 C162 1.374 1_565 S
C161 H176 0.931 . S
C162 C156 1.439 . S
C162 C161 1.374 1_545 S
C162 H177 0.931 . S
Eu163 N154 2.600 . S
Eu163 N164 2.562 . S
Eu163 O198 2.335 1_655 S
Eu163 O201 2.372 . S
Eu163 O202 2.462 . S
Eu163 O203 2.373 . S
Eu163 O205 2.432 . S
Eu163 O206 2.291 1_655 S
Eu163 C227 2.787 . S
N164 C160 1.351 . S
N164 Eu163 2.562 . S
N164 C166 1.325 1_545 S
C165 C159 1.404 . S
C165 C167 1.366 . S
C165 H173 0.930 . S
C166 N164 1.325 1_565 S
C166 C167 1.416 . S
C166 H172 0.929 . S
C167 C165 1.366 . S
C167 C166 1.416 . S
C167 H169 0.930 . S
H168 C157 0.930 . S
H169 C167 0.930 . S
H170 C185 0.930 . S
H171 C192 0.930 . S
H172 C166 0.929 . S
H173 C165 0.930 . S
H174 C188 0.929 . S
H175 C155 0.931 . S
H176 C161 0.931 . S
H177 C162 0.931 . S
H178 C183 0.931 . S
H179 C158 0.929 . S
H180 C191 0.930 . S
N181 Eu152 2.600 . S
N181 C182 1.365 . S
N181 C185 1.319 . S
C182 N181 1.365 . S
C182 C184 1.405 . S
C182 C190 1.448 . S
C183 H178 0.931 . S
C183 C185 1.397 . S
C183 C186 1.367 . S
C184 C182 1.405 . S
C184 C186 1.403 . S
C184 C217 1.439 . S
C185 H170 0.930 . S
C185 N181 1.319 . S
C185 C183 1.397 . S
C186 C183 1.367 . S
C186 C184 1.403 . S
C186 H193 0.929 . S
N187 Eu152 2.562 . S
N187 C188 1.325 . S
N187 C190 1.351 . S
C188 H174 0.929 . S
C188 N187 1.325 . S
C188 C192 1.416 . S
C189 C190 1.430 . S
C189 C191 1.404 . S
C189 C218 1.387 . S
C190 C182 1.448 . S
C190 N187 1.351 . S
C190 C189 1.430 . S
C191 H180 0.930 . S
C191 C189 1.404 . S
C191 C192 1.366 . S
C192 H171 0.930 . S
C192 C188 1.416 . S
C192 C191 1.366 . S
H193 C186 0.929 . S
H194 C217 0.931 . S
H195 C218 0.931 . S
O196 Eu152 2.462 . S
O196 C216 1.252 . S
O197 Eu152 2.373 . S
O197 C208 1.249 . S
O198 Eu163 2.335 1_455 S
O198 C208 1.264 . S
O199 Eu152 2.432 . S
O199 C216 1.268 . S
O200 Eu152 2.291 1_655 S
O200 C215 1.255 . S
O201 Eu163 2.372 . S
O201 C215 1.257 . S
O202 Eu163 2.462 . S
O202 C227 1.252 . S
O203 Eu163 2.373 . S
O203 C219 1.249 . S
O204 Eu152 2.335 1_655 S
O204 C219 1.264 . S
O205 Eu163 2.432 . S
O205 C227 1.268 . S
O206 Eu163 2.291 1_455 S
O206 C226 1.255 . S
O207 Eu152 2.372 . S
O207 C226 1.257 . S
C208 O197 1.249 . S
C208 O198 1.264 . S
C209 C212 1.382 . S
C209 C214 1.390 . S
C209 C216 1.506 . S
C210 C211 1.398 . S
C210 C214 1.392 . S
C211 C210 1.398 . S
C211 C213 1.372 . S
C211 H228 0.931 . S
C212 C209 1.382 . S
C212 C213 1.390 . S
C212 H229 0.931 . S
C213 C211 1.372 . S
C213 C212 1.390 . S
C213 H230 0.929 1_545 S
C214 C209 1.390 . S
C214 C210 1.392 . S
C214 H231 0.930 . S
C215 O200 1.255 . S
C215 O201 1.257 . S
C216 Eu152 2.787 . S
C216 O196 1.252 . S
C216 O199 1.268 . S
C216 C209 1.506 . S
C217 C184 1.439 . S
C217 H194 0.931 . S
C217 C218 1.374 . S
C218 C189 1.387 . S
C218 H195 0.931 . S
C218 C217 1.374 . S
C219 O203 1.249 . S
C219 O204 1.264 . S
C220 C223 1.382 . S
C220 C224 1.390 . S
C220 C227 1.506 . S
C221 C222 1.398 . S
C221 C224 1.392 . S
C222 C221 1.398 . S
C222 C225 1.372 . S
C222 H232 0.931 . S
C223 C220 1.382 . S
C223 C225 1.390 . S
C223 H233 0.931 . S
C224 C220 1.390 . S
C224 C221 1.392 . S
C224 H234 0.930 . S
C225 C222 1.372 . S
C225 C223 1.390 . S
C225 H235 0.929 . S
C226 O206 1.255 . S
C226 O207 1.257 . S
C227 Eu163 2.787 . S
C227 O202 1.252 . S
C227 O205 1.268 . S
C227 C220 1.506 . S
H228 C211 0.931 . S
H229 C212 0.931 . S
H230 C213 0.929 1_565 S
H231 C214 0.930 . S
H232 C222 0.931 . S
H233 C223 0.931 . S
H234 C224 0.930 . S
H235 C225 0.929 . S
Eu236 N265 2.600 . S
Eu236 N271 2.562 . S
Eu236 O280 2.462 . S
Eu236 O281 2.373 . S
Eu236 O283 2.432 . S
Eu236 O284 2.291 . S
Eu236 O288 2.335 . S
Eu236 O291 2.372 . S
Eu236 C300 2.787 . S
C237 N238 1.365 . S
C237 C240 1.405 . S
C237 C244 1.448 . S
N238 C237 1.365 . S
N238 C241 1.319 . S
N238 Eu247 2.600 . S
C239 C241 1.397 . S
C239 C242 1.367 . S
C239 H259 0.931 . S
C240 C237 1.405 . S
C240 C242 1.403 . S
C240 C246 1.439 . S
C241 N238 1.319 . S
C241 C239 1.397 . S
C241 H252 0.930 . S
C242 C239 1.367 . S
C242 C240 1.403 . S
C242 H263 0.929 . S
C243 C244 1.430 . S
C243 C245 1.387 . S
C243 C249 1.404 . S
C244 C237 1.448 . S
C244 C243 1.430 . S
C244 N248 1.351 . S
C245 C243 1.387 . S
C245 C246 1.374 . S
C245 H260 0.931 . S
C246 C240 1.439 . S
C246 C245 1.374 . S
C246 H261 0.931 . S
Eu247 N238 2.600 . S
Eu247 N248 2.562 . S
Eu247 O282 2.335 . S
Eu247 O285 2.372 . S
Eu247 O286 2.462 . S
Eu247 O287 2.373 . S
Eu247 O289 2.432 . S
Eu247 O290 2.291 . S
Eu247 C311 2.787 . S
N248 C244 1.351 . S
N248 Eu247 2.562 . S
N248 C250 1.325 . S
C249 C243 1.404 . S
C249 C251 1.366 . S
C249 H257 0.930 . S
C250 N248 1.325 . S
C250 C251 1.416 . S
C250 H256 0.929 . S
C251 C249 1.366 . S
C251 C250 1.416 . S
C251 H253 0.930 . S
H252 C241 0.930 . S
H253 C251 0.930 . S
H254 C269 0.930 . S
H255 C276 0.930 . S
H256 C250 0.929 . S
H257 C249 0.930 . S
H258 C272 0.929 . S
H259 C239 0.931 . S
H260 C245 0.931 . S
H261 C246 0.931 . S
H262 C267 0.931 . S
H263 C242 0.929 . S
H264 C275 0.930 . S
N265 Eu236 2.600 . S
N265 C266 1.365 . S
N265 C269 1.319 . S
C266 N265 1.365 . S
C266 C268 1.405 . S
C266 C274 1.448 . S
C267 H262 0.931 . S
C267 C269 1.397 . S
C267 C270 1.367 . S
C268 C266 1.405 . S
C268 C270 1.403 . S
C268 C301 1.439 . S
C269 H254 0.930 . S
C269 N265 1.319 . S
C269 C267 1.397 . S
C270 C267 1.367 . S
C270 C268 1.403 . S
C270 H277 0.929 . S
N271 Eu236 2.562 . S
N271 C272 1.325 . S
N271 C274 1.351 . S
C272 H258 0.929 . S
C272 N271 1.325 . S
C272 C276 1.416 . S
C273 C274 1.430 . S
C273 C275 1.404 . S
C273 C302 1.387 . S
C274 C266 1.448 . S
C274 N271 1.351 . S
C274 C273 1.430 . S
C275 H264 0.930 . S
C275 C273 1.404 . S
C275 C276 1.366 . S
C276 H255 0.930 . S
C276 C272 1.416 . S
C276 C275 1.366 . S
H277 C270 0.929 . S
H278 C301 0.931 . S
H279 C302 0.931 . S
O280 Eu236 2.462 . S
O280 C300 1.252 . S
O281 Eu236 2.373 . S
O281 C292 1.249 . S
O282 Eu247 2.335 . S
O282 C292 1.264 . S
O283 Eu236 2.432 . S
O283 C300 1.268 . S
O284 Eu236 2.291 . S
O284 C299 1.255 . S
O285 Eu247 2.372 . S
O285 C299 1.257 . S
O286 Eu247 2.462 . S
O286 C311 1.252 . S
O287 Eu247 2.373 . S
O287 C303 1.249 . S
O288 Eu236 2.335 . S
O288 C303 1.264 . S
O289 Eu247 2.432 . S
O289 C311 1.268 . S
O290 Eu247 2.291 . S
O290 C310 1.255 . S
O291 Eu236 2.372 . S
O291 C310 1.257 . S
C292 O281 1.249 . S
C292 O282 1.264 . S
C293 C296 1.382 . S
C293 C298 1.390 . S
C293 C300 1.506 . S
C294 C295 1.398 . S
C294 C298 1.392 . S
C295 C294 1.398 . S
C295 C297 1.372 . S
C295 H312 0.931 . S
C296 C293 1.382 . S
C296 C297 1.390 . S
C296 H313 0.931 . S
C297 C295 1.372 . S
C297 C296 1.390 . S
C297 H314 0.929 . S
C298 C293 1.390 . S
C298 C294 1.392 . S
C298 H315 0.930 . S
C299 O284 1.255 . S
C299 O285 1.257 . S
C300 Eu236 2.787 . S
C300 O280 1.252 . S
C300 O283 1.268 . S
C300 C293 1.506 . S
C301 C268 1.439 . S
C301 H278 0.931 . S
C301 C302 1.374 . S
C302 C273 1.387 . S
C302 H279 0.931 . S
C302 C301 1.374 . S
C303 O287 1.249 . S
C303 O288 1.264 . S
C304 C307 1.382 . S
C304 C308 1.390 . S
C304 C311 1.506 . S
C305 C306 1.398 . S
C305 C308 1.392 . S
C306 C305 1.398 . S
C306 C309 1.372 . S
C306 H316 0.931 . S
C307 C304 1.382 . S
C307 C309 1.390 . S
C307 H317 0.931 . S
C308 C304 1.390 . S
C308 C305 1.392 . S
C308 H318 0.930 . S
C309 C306 1.372 . S
C309 C307 1.390 . S
C309 H319 0.929 . S
C310 O290 1.255 . S
C310 O291 1.257 . S
C311 Eu247 2.787 . S
C311 O286 1.252 . S
C311 O289 1.268 . S
C311 C304 1.506 . S
H312 C295 0.931 . S
H313 C296 0.931 . S
H314 C297 0.929 . S
H315 C298 0.930 . S
H316 C306 0.931 . S
H317 C307 0.931 . S
H318 C308 0.930 . S
H319 C309 0.929 . S
Eu320 N349 2.600 . S
Eu320 N355 2.562 . S
Eu320 O364 2.462 . S
Eu320 O365 2.373 . S
Eu320 O367 2.432 . S
Eu320 O368 2.287 1_455 S
Eu320 O372 2.335 1_455 S
Eu320 O375 2.372 . S
Eu320 C384 2.787 . S
C321 N322 1.365 . S
C321 C324 1.405 . S
C321 C328 1.448 . S
N322 C321 1.365 . S
N322 C325 1.319 . S
N322 Eu331 2.600 . S
C323 C325 1.397 . S
C323 C326 1.367 . S
C323 H343 0.931 . S
C324 C321 1.405 . S
C324 C326 1.403 . S
C324 C330 1.439 . S
C325 N322 1.319 . S
C325 C323 1.397 . S
C325 H336 0.930 . S
C326 C323 1.367 . S
C326 C324 1.403 . S
C326 H347 0.929 . S
C327 C328 1.430 . S
C327 C329 1.387 . S
C327 C333 1.404 . S
C328 C321 1.448 . S
C328 C327 1.430 . S
C328 N332 1.351 . S
C329 C327 1.387 . S
C329 C330 1.374 . S
C329 H344 0.931 . S
C330 C324 1.439 . S
C330 C329 1.374 . S
C330 H345 0.931 . S
Eu331 N322 2.600 . S
Eu331 N332 2.562 . S
Eu331 O366 2.335 1_655 S
Eu331 O369 2.372 . S
Eu331 O370 2.462 . S
Eu331 O371 2.373 . S
Eu331 O373 2.432 . S
Eu331 O374 2.291 1_655 S
Eu331 C395 2.787 . S
N332 C328 1.351 . S
N332 Eu331 2.562 . S
N332 C334 1.325 . S
C333 C327 1.404 . S
C333 C335 1.366 . S
C333 H341 0.930 . S
C334 N332 1.325 . S
C334 C335 1.416 . S
C334 H340 0.929 . S
C335 C333 1.366 . S
C335 C334 1.416 . S
C335 H337 0.930 . S
H336 C325 0.930 . S
H337 C335 0.930 . S
H338 C353 0.930 . S
H339 C360 0.930 . S
H340 C334 0.929 . S
H341 C333 0.930 . S
H342 C356 0.929 . S
H343 C323 0.931 . S
H344 C329 0.931 . S
H345 C330 0.931 . S
H346 C351 0.931 . S
H347 C326 0.929 . S
H348 C359 0.930 . S
N349 Eu320 2.600 . S
N349 C350 1.365 . S
N349 C353 1.319 . S
C350 N349 1.365 . S
C350 C352 1.405 . S
C350 C358 1.448 . S
C351 H346 0.931 . S
C351 C353 1.397 . S
C351 C354 1.367 . S
C352 C350 1.405 . S
C352 C354 1.403 . S
C352 C385 1.439 . S
C353 H338 0.930 . S
C353 N349 1.319 . S
C353 C351 1.397 . S
C354 C351 1.367 . S
C354 C352 1.403 . S
C354 H361 0.929 . S
N355 Eu320 2.562 . S
N355 C356 1.325 1_565 S
N355 C358 1.351 . S
C356 H342 0.929 . S
C356 N355 1.325 1_545 S
C356 C360 1.416 . S
C357 C358 1.430 1_545 S
C357 C359 1.404 . S
C357 C386 1.387 . S
C358 C350 1.448 . S
C358 N355 1.351 . S
C358 C357 1.430 1_565 S
C359 H348 0.930 . S
C359 C357 1.404 . S
C359 C360 1.366 . S
C360 H339 0.930 . S
C360 C356 1.416 . S
C360 C359 1.366 . S
H361 C354 0.929 . S
H362 C385 0.931 . S
H363 C386 0.931 . S
O364 Eu320 2.462 . S
O364 C384 1.252 . S
O365 Eu320 2.373 . S
O365 C376 1.249 . S
O366 Eu331 2.335 1_455 S
O366 C376 1.264 . S
O367 Eu320 2.432 . S
O367 C384 1.268 . S
O368 Eu320 2.287 1_655 S
O368 C383 1.260 . S
O369 Eu331 2.372 . S
O369 C383 1.257 . S
O370 Eu331 2.462 . S
O370 C395 1.252 . S
O371 Eu331 2.373 . S
O371 C387 1.249 . S
O372 Eu320 2.335 1_655 S
O372 C387 1.264 . S
O373 Eu331 2.432 . S
O373 C395 1.268 . S
O374 Eu331 2.291 1_455 S
O374 C394 1.255 . S
O375 Eu320 2.372 . S
O375 C394 1.257 . S
C376 O365 1.249 . S
C376 O366 1.264 . S
C377 C380 1.382 . S
C377 C382 1.390 . S
C377 C384 1.506 . S
C378 C379 1.398 . S
C378 C382 1.392 . S
C379 C378 1.398 . S
C379 C381 1.372 . S
C379 H396 0.931 . S
C380 C377 1.382 . S
C380 C381 1.390 . S
C380 H397 0.931 . S
C381 C379 1.372 . S
C381 C380 1.390 . S
C381 H398 0.929 . S
C382 C377 1.390 . S
C382 C378 1.392 . S
C382 H399 0.930 . S
C383 O368 1.260 . S
C383 O369 1.257 . S
C384 Eu320 2.787 . S
C384 O364 1.252 . S
C384 O367 1.268 . S
C384 C377 1.506 . S
C385 C352 1.439 . S
C385 H362 0.931 . S
C385 C386 1.374 1_565 S
C386 C357 1.387 . S
C386 H363 0.931 . S
C386 C385 1.374 1_545 S
C387 O371 1.249 . S
C387 O372 1.264 . S
C388 C391 1.382 . S
C388 C392 1.390 . S
C388 C395 1.506 . S
C389 C390 1.398 . S
C389 C392 1.392 . S
C390 C389 1.398 . S
C390 C393 1.372 . S
C390 H400 0.931 . S
C391 C388 1.382 . S
C391 C393 1.390 . S
C391 H401 0.931 . S
C392 C388 1.390 . S
C392 C389 1.392 . S
C392 H402 0.930 . S
C393 C390 1.372 . S
C393 C391 1.390 . S
C393 H403 0.929 1_565 S
C394 O374 1.255 . S
C394 O375 1.257 . S
C395 Eu331 2.787 . S
C395 O370 1.252 . S
C395 O373 1.268 . S
C395 C388 1.506 . S
H396 C379 0.931 . S
H397 C380 0.931 . S
H398 C381 0.929 . S
H399 C382 0.930 . S
H400 C390 0.931 . S
H401 C391 0.931 . S
H402 C392 0.930 . S
H403 C393 0.929 1_545 S
Eu404 N433 2.600 . S
Eu404 N439 2.562 . S
Eu404 O448 2.462 . S
Eu404 O449 2.373 . S
Eu404 O451 2.432 . S
Eu404 O452 2.291 . S
Eu404 O456 2.335 . S
Eu404 O459 2.372 . S
Eu404 C468 2.787 . S
C405 N406 1.365 . S
C405 C408 1.405 . S
C405 C412 1.448 . S
N406 C405 1.365 . S
N406 C409 1.319 . S
N406 Eu415 2.600 . S
C407 C409 1.397 . S
C407 C410 1.367 . S
C407 H427 0.931 . S
C408 C405 1.405 . S
C408 C410 1.403 . S
C408 C414 1.439 . S
C409 N406 1.319 . S
C409 C407 1.397 . S
C409 H420 0.930 . S
C410 C407 1.367 . S
C410 C408 1.403 . S
C410 H431 0.929 . S
C411 C412 1.430 . S
C411 C413 1.387 . S
C411 C417 1.404 . S
C412 C405 1.448 . S
C412 C411 1.430 . S
C412 N416 1.351 . S
C413 C411 1.387 . S
C413 C414 1.374 . S
C413 H428 0.931 . S
C414 C408 1.439 . S
C414 C413 1.374 . S
C414 H429 0.931 . S
Eu415 N406 2.600 . S
Eu415 N416 2.562 . S
Eu415 O450 2.335 . S
Eu415 O453 2.372 . S
Eu415 O454 2.462 . S
Eu415 O455 2.373 . S
Eu415 O457 2.432 . S
Eu415 O458 2.291 . S
Eu415 C479 2.787 . S
N416 C412 1.351 . S
N416 Eu415 2.562 . S
N416 C418 1.325 . S
C417 C411 1.404 . S
C417 C419 1.366 . S
C417 H425 0.930 . S
C418 N416 1.325 . S
C418 C419 1.416 . S
C418 H424 0.929 . S
C419 C417 1.366 . S
C419 C418 1.416 . S
C419 H421 0.930 . S
H420 C409 0.930 . S
H421 C419 0.930 . S
H422 C437 0.930 . S
H423 C444 0.930 . S
H424 C418 0.929 . S
H425 C417 0.930 . S
H426 C440 0.929 . S
H427 C407 0.931 . S
H428 C413 0.931 . S
H429 C414 0.931 . S
H430 C435 0.931 . S
H431 C410 0.929 . S
H432 C443 0.930 . S
N433 Eu404 2.600 . S
N433 C434 1.365 . S
N433 C437 1.319 . S
C434 N433 1.365 . S
C434 C436 1.405 . S
C434 C442 1.448 . S
C435 H430 0.931 . S
C435 C437 1.397 . S
C435 C438 1.367 . S
C436 C434 1.405 . S
C436 C438 1.403 . S
C436 C469 1.439 . S
C437 H422 0.930 . S
C437 N433 1.319 . S
C437 C435 1.397 . S
C438 C435 1.367 . S
C438 C436 1.403 . S
C438 H445 0.929 . S
N439 Eu404 2.562 . S
N439 C440 1.325 . S
N439 C442 1.351 . S
C440 H426 0.929 . S
C440 N439 1.325 . S
C440 C444 1.416 . S
C441 C442 1.430 . S
C441 C443 1.404 . S
C441 C470 1.387 . S
C442 C434 1.448 . S
C442 N439 1.351 . S
C442 C441 1.430 . S
C443 H432 0.930 . S
C443 C441 1.404 . S
C443 C444 1.366 . S
C444 H423 0.930 . S
C444 C440 1.416 . S
C444 C443 1.366 . S
H445 C438 0.929 . S
H446 C469 0.931 . S
H447 C470 0.931 . S
O448 Eu404 2.462 . S
O448 C468 1.252 . S
O449 Eu404 2.373 . S
O449 C460 1.249 . S
O450 Eu415 2.335 . S
O450 C460 1.264 . S
O451 Eu404 2.432 . S
O451 C468 1.268 . S
O452 Eu404 2.291 . S
O452 C467 1.255 . S
O453 Eu415 2.372 . S
O453 C467 1.257 . S
O454 Eu415 2.462 . S
O454 C479 1.252 . S
O455 Eu415 2.373 . S
O455 C471 1.249 . S
O456 Eu404 2.335 . S
O456 C471 1.264 . S
O457 Eu415 2.432 . S
O457 C479 1.268 . S
O458 Eu415 2.291 . S
O458 C478 1.255 . S
O459 Eu404 2.372 . S
O459 C478 1.257 . S
C460 O449 1.249 . S
C460 O450 1.264 . S
C461 C464 1.382 . S
C461 C466 1.390 . S
C461 C468 1.506 . S
C462 C463 1.398 . S
C462 C466 1.392 . S
C463 C462 1.398 . S
C463 C465 1.372 . S
C463 H480 0.931 . S
C464 C461 1.382 . S
C464 C465 1.390 . S
C464 H481 0.931 . S
C465 C463 1.372 . S
C465 C464 1.390 . S
C465 H482 0.929 . S
C466 C461 1.390 . S
C466 C462 1.392 . S
C466 H483 0.930 . S
C467 O452 1.255 . S
C467 O453 1.257 . S
C468 Eu404 2.787 . S
C468 O448 1.252 . S
C468 O451 1.268 . S
C468 C461 1.506 . S
C469 C436 1.439 . S
C469 H446 0.931 . S
C469 C470 1.374 . S
C470 C441 1.387 . S
C470 H447 0.931 . S
C470 C469 1.374 . S
C471 O455 1.249 . S
C471 O456 1.264 . S
C472 C475 1.382 . S
C472 C476 1.390 . S
C472 C479 1.506 . S
C473 C474 1.398 . S
C473 C476 1.392 . S
C474 C473 1.398 . S
C474 C477 1.372 . S
C474 H484 0.931 . S
C475 C472 1.382 . S
C475 C477 1.390 . S
C475 H485 0.931 . S
C476 C472 1.390 . S
C476 C473 1.392 . S
C476 H486 0.930 . S
C477 C474 1.372 . S
C477 C475 1.390 . S
C477 H487 0.929 . S
C478 O458 1.255 . S
C478 O459 1.257 . S
C479 Eu415 2.787 . S
C479 O454 1.252 . S
C479 O457 1.268 . S
C479 C472 1.506 . S
H480 C463 0.931 . S
H481 C464 0.931 . S
H482 C465 0.929 . S
H483 C466 0.930 . S
H484 C474 0.931 . S
H485 C475 0.931 . S
H486 C476 0.930 . S
H487 C477 0.929 . S
C488 C489 1.363 . S
C488 C494 1.379 . S
C488 N496 1.356 . S
C489 C488 1.363 . S
C489 C495 1.363 . S
C490 C491 1.363 . S
C490 C495 1.379 . S
C490 N497 1.356 1_565 S
C491 C490 1.363 . S
C491 C494 1.363 . S
N492 C494 1.356 . S
N492 H504 0.984 1_455 S
N492 H505 0.985 . S
N493 C495 1.356 . S
N493 H498 0.984 . S
N493 H499 0.985 . S
C494 C488 1.379 . S
C494 C491 1.363 . S
C494 N492 1.356 . S
C495 C489 1.363 . S
C495 C490 1.379 . S
C495 N493 1.356 . S
N496 C488 1.356 . S
N496 H502 0.984 . S
N496 H503 0.984 . S
N497 C490 1.356 1_545 S
N497 H500 0.984 . S
N497 H501 0.985 . S
H498 N493 0.984 . S
H499 N493 0.985 . S
H500 N497 0.984 . S
H501 N497 0.985 . S
H502 N496 0.984 . S
H503 N496 0.984 . S
H504 N492 0.984 1_655 S
H505 N492 0.985 . S
C506 C507 1.363 . S
C506 C512 1.379 . S
C506 N514 1.356 . S
C507 C506 1.363 . S
C507 C513 1.363 . S
C508 C509 1.363 . S
C508 C513 1.379 . S
C508 N515 1.356 . S
C509 C508 1.363 . S
C509 C512 1.363 . S
N510 C512 1.356 . S
N510 H522 0.984 . S
N510 H523 0.985 . S
N511 C513 1.356 . S
N511 H516 0.984 . S
N511 H517 0.985 . S
C512 C506 1.379 . S
C512 C509 1.363 . S
C512 N510 1.356 . S
C513 C507 1.363 . S
C513 C508 1.379 . S
C513 N511 1.356 . S
N514 C506 1.356 . S
N514 H520 0.984 . S
N514 H521 0.984 . S
N515 C508 1.356 . S
N515 H518 0.984 . S
N515 H519 0.985 . S
H516 N511 0.984 . S
H517 N511 0.985 . S
H518 N515 0.984 . S
H519 N515 0.985 . S
H520 N514 0.984 . S
H521 N514 0.984 . S
H522 N510 0.984 . S
H523 N510 0.985 . S
C524 C525 1.363 . S
C524 C530 1.379 . S
C524 N532 1.356 . S
C525 C524 1.363 . S
C525 C531 1.363 . S
C526 C527 1.363 . S
C526 C531 1.379 . S
C526 N533 1.356 . S
C527 C526 1.363 . S
C527 C530 1.363 . S
N528 C530 1.356 . S
N528 H540 0.984 . S
N528 H541 0.985 . S
N529 C531 1.356 . S
N529 H534 0.984 . S
N529 H535 0.985 . S
C530 C524 1.379 . S
C530 C527 1.363 . S
C530 N528 1.356 . S
C531 C525 1.363 . S
C531 C526 1.379 . S
C531 N529 1.356 . S
N532 C524 1.356 . S
N532 H538 0.984 . S
N532 H539 0.984 . S
N533 C526 1.356 . S
N533 H536 0.984 . S
N533 H537 0.985 . S
H534 N529 0.984 . S
H535 N529 0.985 . S
H536 N533 0.984 . S
H537 N533 0.985 . S
H538 N532 0.984 . S
H539 N532 0.984 . S
H540 N528 0.984 . S
H541 N528 0.985 . S
C542 C543 1.363 . S
C542 C548 1.379 . S
C542 N550 1.356 . S
C543 C542 1.363 . S
C543 C549 1.363 . S
C544 C545 1.363 . S
C544 C549 1.379 . S
C544 N551 1.356 . S
C545 C544 1.363 . S
C545 C548 1.363 . S
N546 C548 1.356 1_545 S
N546 H558 0.984 . S
N546 H559 0.985 . S
N547 C549 1.356 . S
N547 H552 0.984 . S
N547 H553 0.985 . S
C548 C542 1.379 . S
C548 C545 1.363 . S
C548 N546 1.356 1_565 S
C549 C543 1.363 . S
C549 C544 1.379 . S
C549 N547 1.356 . S
N550 C542 1.356 . S
N550 H556 0.984 . S
N550 H557 0.984 . S
N551 C544 1.356 . S
N551 H554 0.984 . S
N551 H555 0.985 . S
H552 N547 0.984 . S
H553 N547 0.985 . S
H554 N551 0.984 . S
H555 N551 0.985 . S
H556 N550 0.984 . S
H557 N550 0.984 . S
H558 N546 0.984 . S
H559 N546 0.985 . S
C560 C561 1.363 . S
C560 C566 1.379 . S
C560 N568 1.356 . S
C561 C560 1.363 . S
C561 C567 1.363 . S
C562 C563 1.363 . S
C562 C567 1.379 . S
C562 N569 1.356 1_545 S
C563 C562 1.363 . S
C563 C566 1.363 . S
N564 C566 1.356 . S
N564 H576 0.984 1_655 S
N564 H577 0.985 1_655 S
N565 C567 1.356 . S
N565 H570 0.984 . S
N565 H571 0.985 . S
C566 C560 1.379 . S
C566 C563 1.363 . S
C566 N564 1.356 . S
C567 C561 1.363 . S
C567 C562 1.379 . S
C567 N565 1.356 . S
N568 C560 1.356 . S
N568 H574 0.984 . S
N568 H575 0.984 . S
N569 C562 1.356 1_565 S
N569 H572 0.984 . S
N569 H573 0.985 . S
H570 N565 0.984 . S
H571 N565 0.985 . S
H572 N569 0.984 . S
H573 N569 0.985 . S
H574 N568 0.984 . S
H575 N568 0.984 . S
H576 N564 0.984 1_455 S
H577 N564 0.985 1_455 S
C578 C579 1.363 . S
C578 C584 1.379 . S
C578 N586 1.356 . S
C579 C578 1.363 . S
C579 C585 1.363 . S
C580 C581 1.363 . S
C580 C585 1.379 . S
C580 N587 1.356 . S
C581 C580 1.363 . S
C581 C584 1.363 . S
N582 C584 1.356 . S
N582 H594 0.984 . S
N582 H595 0.985 . S
N583 C585 1.356 . S
N583 H588 0.984 . S
N583 H589 0.985 . S
C584 C578 1.379 . S
C584 C581 1.363 . S
C584 N582 1.356 . S
C585 C579 1.363 . S
C585 C580 1.379 . S
C585 N583 1.356 . S
N586 C578 1.356 . S
N586 H592 0.984 . S
N586 H593 0.984 . S
N587 C580 1.356 . S
N587 H590 0.984 . S
N587 H591 0.985 . S
H588 N583 0.984 . S
H589 N583 0.985 . S
H590 N587 0.984 . S
H591 N587 0.985 . S
H592 N586 0.984 . S
H593 N586 0.984 . S
H594 N582 0.984 . S
H595 N582 0.985 . S
C596 C597 1.363 . S
C596 C602 1.379 . S
C596 N604 1.356 . S
C597 C596 1.363 . S
C597 C603 1.363 . S
C598 C599 1.363 . S
C598 C603 1.379 . S
C598 N605 1.356 . S
C599 C598 1.363 . S
C599 C602 1.363 . S
N600 C602 1.356 . S
N600 H612 0.984 . S
N600 H613 0.985 . S
N601 C603 1.356 . S
N601 H606 0.984 . S
N601 H607 0.985 . S
C602 C596 1.379 . S
C602 C599 1.363 . S
C602 N600 1.356 . S
C603 C597 1.363 . S
C603 C598 1.379 . S
C603 N601 1.356 . S
N604 C596 1.356 . S
N604 H610 0.984 . S
N604 H611 0.984 . S
N605 C598 1.356 . S
N605 H608 0.984 . S
N605 H609 0.985 . S
H606 N601 0.984 . S
H607 N601 0.985 . S
H608 N605 0.984 . S
H609 N605 0.985 . S
H610 N604 0.984 . S
H611 N604 0.984 . S
H612 N600 0.984 . S
H613 N600 0.985 . S
C614 C615 1.363 . S
C614 C620 1.379 . S
C614 N622 1.356 . S
C615 C614 1.363 . S
C615 C621 1.363 . S
C616 C617 1.363 . S
C616 C621 1.379 . S
C616 N623 1.356 . S
C617 C616 1.363 . S
C617 C620 1.363 . S
N618 C620 1.356 1_565 S
N618 H630 0.984 . S
N618 H631 0.985 . S
N619 C621 1.356 . S
N619 H624 0.984 . S
N619 H625 0.985 . S
C620 C614 1.379 . S
C620 C617 1.363 . S
C620 N618 1.356 1_545 S
C621 C615 1.363 . S
C621 C616 1.379 . S
C621 N619 1.356 . S
N622 C614 1.356 . S
N622 H628 0.984 . S
N622 H629 0.984 . S
N623 C616 1.356 . S
N623 H626 0.984 . S
N623 H627 0.985 . S
H624 N619 0.984 . S
H625 N619 0.985 . S
H626 N623 0.984 . S
H627 N623 0.985 . S
H628 N622 0.984 . S
H629 N622 0.984 . S
H630 N618 0.984 . S
H631 N618 0.985 . S
C632 C633 1.363 . S
C632 C638 1.379 1_556 S
C632 N640 1.356 . S
C633 C632 1.363 . S
C633 C639 1.363 1_556 S
C634 C635 1.363 . S
C634 C639 1.379 . S
C634 N641 1.356 . S
C635 C634 1.363 . S
C635 C638 1.363 . S
N636 C638 1.356 . S
N636 H648 0.984 1_554 S
N636 H649 0.985 . S
N637 C639 1.356 1_556 S
N637 H642 0.984 . S
N637 H643 0.985 1_556 S
C638 C632 1.379 1_554 S
C638 C635 1.363 . S
C638 N636 1.356 . S
C639 C633 1.363 1_554 S
C639 C634 1.379 . S
C639 N637 1.356 1_554 S
N640 C632 1.356 . S
N640 H646 0.984 . S
N640 H647 0.984 . S
N641 C634 1.356 . S
N641 H644 0.984 . S
N641 H645 0.985 . S
H642 N637 0.984 . S
H643 N637 0.985 1_554 S
H644 N641 0.984 . S
H645 N641 0.985 . S
H646 N640 0.984 . S
H647 N640 0.984 . S
H648 N636 0.984 1_556 S
H649 N636 0.985 . S
C650 C651 1.363 . S
C650 C656 1.379 . S
C650 N658 1.356 . S
C651 C650 1.363 . S
C651 C657 1.363 . S
C652 C653 1.363 . S
C652 C657 1.379 . S
C652 N659 1.356 . S
C653 C652 1.363 . S
C653 C656 1.363 . S
N654 C656 1.356 . S
N654 H666 0.984 . S
N654 H667 0.985 . S
N655 C657 1.356 . S
N655 H660 0.984 . S
N655 H661 0.985 . S
C656 C650 1.379 . S
C656 C653 1.363 . S
C656 N654 1.356 . S
C657 C651 1.363 . S
C657 C652 1.379 . S
C657 N655 1.356 . S
N658 C650 1.356 . S
N658 H664 0.984 . S
N658 H665 0.984 . S
N659 C652 1.356 . S
N659 H662 0.984 . S
N659 H663 0.985 . S
H660 N655 0.984 . S
H661 N655 0.985 . S
H662 N659 0.984 . S
H663 N659 0.985 . S
H664 N658 0.984 . S
H665 N658 0.984 . S
H666 N654 0.984 . S
H667 N654 0.985 . S
C668 C669 1.366 1_556 S
C668 C674 1.375 . S
C668 N676 1.358 1_556 S
C669 C668 1.366 1_554 S
C669 C675 1.363 . S
C670 C671 1.363 . S
C670 C675 1.379 1_556 S
C670 N677 1.356 . S
C671 C670 1.363 . S
C671 C674 1.363 . S
N672 C674 1.356 . S
N672 H684 0.984 . S
N672 H685 0.985 . S
N673 C675 1.356 . S
N673 H678 0.984 . S
N673 H679 0.985 . S
C674 C668 1.375 . S
C674 C671 1.363 . S
C674 N672 1.356 . S
C675 C669 1.363 . S
C675 C670 1.379 1_554 S
C675 N673 1.356 . S
N676 C668 1.358 1_554 S
N676 H682 0.984 1_554 S
N676 H683 0.984 . S
N677 C670 1.356 . S
N677 H680 0.984 . S
N677 H681 0.985 1_556 S
H678 N673 0.984 . S
H679 N673 0.985 . S
H680 N677 0.984 . S
H681 N677 0.985 1_554 S
H682 N676 0.984 1_556 S
H683 N676 0.984 . S
H684 N672 0.984 . S
H685 N672 0.985 . S
C686 C687 1.363 . S
C686 C692 1.379 . S
C686 N694 1.356 . S
C687 C686 1.363 . S
C687 C693 1.363 . S
C688 C689 1.363 . S
C688 C693 1.379 . S
C688 N695 1.356 . S
C689 C688 1.363 . S
C689 C692 1.363 . S
N690 C692 1.356 . S
N690 H702 0.984 . S
N690 H703 0.985 . S
N691 C693 1.356 . S
N691 H696 0.984 . S
N691 H697 0.985 . S
C692 C686 1.379 . S
C692 C689 1.363 . S
C692 N690 1.356 . S
C693 C687 1.363 . S
C693 C688 1.379 . S
C693 N691 1.356 . S
N694 C686 1.356 . S
N694 H700 0.984 . S
N694 H701 0.984 . S
N695 C688 1.356 . S
N695 H698 0.984 . S
N695 H699 0.985 . S
H696 N691 0.984 . S
H697 N691 0.985 . S
H698 N695 0.984 . S
H699 N695 0.985 . S
H700 N694 0.984 . S
H701 N694 0.984 . S
H702 N690 0.984 . S
H703 N690 0.985 . S
C704 C705 1.363 . S
C704 C710 1.379 1_554 S
C704 N712 1.356 . S
C705 C704 1.363 . S
C705 C711 1.363 . S
C706 C707 1.363 . S
C706 C711 1.379 1_556 S
C706 N713 1.356 . S
C707 C706 1.363 . S
C707 C710 1.363 . S
N708 C710 1.356 . S
N708 H720 0.984 . S
N708 H721 0.985 . S
N709 C711 1.356 . S
N709 H714 0.984 . S
N709 H715 0.985 . S
C710 C704 1.379 1_556 S
C710 C707 1.363 . S
C710 N708 1.356 . S
C711 C705 1.363 . S
C711 C706 1.379 1_554 S
C711 N709 1.356 . S
N712 C704 1.356 . S
N712 H718 0.984 . S
N712 H719 0.984 . S
N713 C706 1.356 . S
N713 H716 0.984 . S
N713 H717 0.985 1_565 S
H714 N709 0.984 . S
H715 N709 0.985 . S
H716 N713 0.984 . S
H717 N713 0.985 1_545 S
H718 N712 0.984 . S
H719 N712 0.984 . S
H720 N708 0.984 . S
H721 N708 0.985 . S
C722 C723 1.363 . S
C722 C728 1.379 . S
C722 N730 1.356 . S
C723 C722 1.363 . S
C723 C729 1.363 . S
C724 C725 1.363 . S
C724 C729 1.379 . S
C724 N731 1.356 . S
C725 C724 1.363 . S
C725 C728 1.363 . S
N726 C728 1.356 . S
N726 H738 0.984 . S
N726 H739 0.985 . S
N727 C729 1.356 . S
N727 H732 0.984 . S
N727 H733 0.985 . S
C728 C722 1.379 . S
C728 C725 1.363 . S
C728 N726 1.356 . S
C729 C723 1.363 . S
C729 C724 1.379 . S
C729 N727 1.356 . S
N730 C722 1.356 . S
N730 H736 0.984 . S
N730 H737 0.984 . S
N731 C724 1.356 . S
N731 H734 0.984 . S
N731 H735 0.985 . S
H732 N727 0.984 . S
H733 N727 0.985 . S
H734 N731 0.984 . S
H735 N731 0.985 . S
H736 N730 0.984 . S
H737 N730 0.984 . S
H738 N726 0.984 . S
H739 N726 0.985 . S
C740 C741 1.363 . S
C740 C746 1.379 1_556 S
C740 N748 1.356 . S
C741 C740 1.363 . S
C741 C747 1.363 . S
C742 C743 1.363 . S
C742 C747 1.379 1_554 S
C742 N749 1.356 . S
C743 C742 1.363 . S
C743 C746 1.363 . S
N744 C746 1.356 . S
N744 H756 0.984 . S
N744 H757 0.985 . S
N745 C747 1.356 . S
N745 H750 0.984 . S
N745 H751 0.985 . S
C746 C740 1.379 1_554 S
C746 C743 1.363 . S
C746 N744 1.356 . S
C747 C741 1.363 . S
C747 C742 1.379 1_556 S
C747 N745 1.356 . S
N748 C740 1.356 . S
N748 H754 0.984 . S
N748 H755 0.984 . S
N749 C742 1.356 . S
N749 H752 0.984 . S
N749 H753 0.985 . S
H750 N745 0.984 . S
H751 N745 0.985 . S
H752 N749 0.984 . S
H753 N749 0.985 . S
H754 N748 0.984 . S
H755 N748 0.984 . S
H756 N744 0.984 . S
H757 N744 0.985 . S
C758 C759 1.363 . S
C758 C764 1.379 . S
C758 N766 1.356 . S
C759 C758 1.363 . S
C759 C765 1.363 . S
C760 C761 1.363 . S
C760 C765 1.379 . S
C760 N767 1.356 . S
C761 C760 1.363 . S
C761 C764 1.363 . S
N762 C764 1.356 . S
N762 H774 0.984 . S
N762 H775 0.985 . S
N763 C765 1.356 . S
N763 H768 0.984 . S
N763 H769 0.985 . S
C764 C758 1.379 . S
C764 C761 1.363 . S
C764 N762 1.356 . S
C765 C759 1.363 . S
C765 C760 1.379 . S
C765 N763 1.356 . S
N766 C758 1.356 . S
N766 H772 0.984 . S
N766 H773 0.984 . S
N767 C760 1.356 . S
N767 H770 0.984 . S
N767 H771 0.985 1_565 S
H768 N763 0.984 . S
H769 N763 0.985 . S
H770 N767 0.984 . S
H771 N767 0.985 1_545 S
H772 N766 0.984 . S
H773 N766 0.984 . S
H774 N762 0.984 . S
H775 N762 0.985 . S
C776 C777 1.363 . S
C776 C782 1.379 . S
C776 N784 1.356 . S
C777 C776 1.363 . S
C777 C783 1.363 . S
C778 C779 1.363 . S
C778 C783 1.379 . S
C778 N785 1.356 . S
C779 C778 1.363 . S
C779 C782 1.363 . S
N780 C782 1.356 . S
N780 H792 0.984 . S
N780 H793 0.985 . S
N781 C783 1.356 . S
N781 H786 0.984 . S
N781 H787 0.985 . S
C782 C776 1.379 . S
C782 C779 1.363 . S
C782 N780 1.356 . S
C783 C777 1.363 . S
C783 C778 1.379 . S
C783 N781 1.356 . S
N784 C776 1.356 . S
N784 H790 0.984 . S
N784 H791 0.984 . S
N785 C778 1.356 . S
N785 H788 0.984 . S
N785 H789 0.985 . S
H786 N781 0.984 . S
H787 N781 0.985 . S
H788 N785 0.984 . S
H789 N785 0.985 . S
H790 N784 0.984 . S
H791 N784 0.984 . S
H792 N780 0.984 . S
H793 N780 0.985 . S
C794 C795 1.363 . S
C794 C800 1.379 . S
C794 N802 1.356 . S
C795 C794 1.363 . S
C795 C801 1.363 . S
C796 C797 1.363 . S
C796 C801 1.379 . S
C796 N803 1.356 . S
C797 C796 1.363 . S
C797 C800 1.363 . S
N798 C800 1.356 . S
N798 H810 0.984 . S
N798 H811 0.985 . S
N799 C801 1.356 . S
N799 H804 0.984 . S
N799 H805 0.985 . S
C800 C794 1.379 . S
C800 C797 1.363 . S
C800 N798 1.356 . S
C801 C795 1.363 . S
C801 C796 1.379 . S
C801 N799 1.356 . S
N802 C794 1.356 . S
N802 H808 0.984 . S
N802 H809 0.984 . S
N803 C796 1.356 . S
N803 H806 0.984 . S
N803 H807 0.985 . S
H804 N799 0.984 . S
H805 N799 0.985 . S
H806 N803 0.984 . S
H807 N803 0.985 . S
H808 N802 0.984 . S
H809 N802 0.984 . S
H810 N798 0.984 . S
H811 N798 0.985 . S
C812 C813 1.363 . S
C812 C818 1.379 . S
C812 N820 1.356 . S
C813 C812 1.363 . S
C813 C819 1.363 . S
C814 C815 1.363 . S
C814 C819 1.379 . S
C814 N821 1.356 . S
C815 C814 1.363 . S
C815 C818 1.363 . S
N816 C818 1.356 . S
N816 H828 0.984 . S
N816 H829 0.985 . S
N817 C819 1.356 . S
N817 H822 0.984 . S
N817 H823 0.985 . S
C818 C812 1.379 . S
C818 C815 1.363 . S
C818 N816 1.356 . S
C819 C813 1.363 . S
C819 C814 1.379 . S
C819 N817 1.356 . S
N820 C812 1.356 . S
N820 H826 0.984 . S
N820 H827 0.984 . S
N821 C814 1.356 . S
N821 H824 0.984 . S
N821 H825 0.985 . S
H822 N817 0.984 . S
H823 N817 0.985 . S
H824 N821 0.984 . S
H825 N821 0.985 . S
H826 N820 0.984 . S
H827 N820 0.984 . S
H828 N816 0.984 . S
H829 N816 0.985 . S
C830 C831 1.363 . S
C830 C836 1.379 . S
C830 N838 1.356 . S
C831 C830 1.363 . S
C831 C837 1.363 . S
C832 C833 1.363 . S
C832 C837 1.379 . S
C832 N839 1.356 . S
C833 C832 1.363 . S
C833 C836 1.363 . S
N834 C836 1.356 . S
N834 H846 0.984 . S
N834 H847 0.985 . S
N835 C837 1.356 . S
N835 H840 0.984 . S
N835 H841 0.985 . S
C836 C830 1.379 . S
C836 C833 1.363 . S
C836 N834 1.356 . S
C837 C831 1.363 . S
C837 C832 1.379 . S
C837 N835 1.356 . S
N838 C830 1.356 . S
N838 H844 0.984 . S
N838 H845 0.984 . S
N839 C832 1.356 . S
N839 H842 0.984 . S
N839 H843 0.985 . S
H840 N835 0.984 . S
H841 N835 0.985 . S
H842 N839 0.984 . S
H843 N839 0.985 . S
H844 N838 0.984 . S
H845 N838 0.984 . S
H846 N834 0.984 . S
H847 N834 0.985 . S
C848 C849 1.363 . S
C848 C854 1.379 . S
C848 N856 1.356 . S
C849 C848 1.363 . S
C849 C855 1.363 . S
C850 C851 1.363 . S
C850 C855 1.379 . S
C850 N857 1.356 . S
C851 C850 1.363 . S
C851 C854 1.363 . S
N852 C854 1.356 . S
N852 H864 0.984 . S
N852 H865 0.985 . S
N853 C855 1.356 . S
N853 H858 0.984 . S
N853 H859 0.985 . S
C854 C848 1.379 . S
C854 C851 1.363 . S
C854 N852 1.356 . S
C855 C849 1.363 . S
C855 C850 1.379 . S
C855 N853 1.356 . S
N856 C848 1.356 . S
N856 H862 0.984 . S
N856 H863 0.984 . S
N857 C850 1.356 . S
N857 H860 0.984 . S
N857 H861 0.985 . S
H858 N853 0.984 . S
H859 N853 0.985 . S
H860 N857 0.984 . S
H861 N857 0.985 . S
H862 N856 0.984 . S
H863 N856 0.984 . S
H864 N852 0.984 . S
H865 N852 0.985 . S
C866 C867 1.363 . S
C866 C872 1.379 . S
C866 N874 1.356 . S
C867 C866 1.363 . S
C867 C873 1.363 . S
C868 C869 1.363 . S
C868 C873 1.379 . S
C868 N875 1.356 . S
C869 C868 1.363 . S
C869 C872 1.363 . S
N870 C872 1.356 . S
N870 H882 0.984 . S
N870 H883 0.985 . S
N871 C873 1.356 . S
N871 H876 0.984 . S
N871 H877 0.985 . S
C872 C866 1.379 . S
C872 C869 1.363 . S
C872 N870 1.356 . S
C873 C867 1.363 . S
C873 C868 1.379 . S
C873 N871 1.356 . S
N874 C866 1.356 . S
N874 H880 0.984 . S
N874 H881 0.984 . S
N875 C868 1.356 . S
N875 H878 0.984 . S
N875 H879 0.985 . S
H876 N871 0.984 . S
H877 N871 0.985 . S
H878 N875 0.984 . S
H879 N875 0.985 . S
H880 N874 0.984 . S
H881 N874 0.984 . S
H882 N870 0.984 . S
H883 N870 0.985 . S
C884 C885 1.363 . S
C884 C890 1.379 . S
C884 N892 1.356 . S
C885 C884 1.363 . S
C885 C891 1.363 . S
C886 C887 1.363 . S
C886 C891 1.379 . S
C886 N893 1.356 . S
C887 C886 1.363 . S
C887 C890 1.363 . S
N888 C890 1.356 . S
N888 H900 0.984 . S
N888 H901 0.985 . S
N889 C891 1.356 . S
N889 H894 0.984 . S
N889 H895 0.985 . S
C890 C884 1.379 . S
C890 C887 1.363 . S
C890 N888 1.356 . S
C891 C885 1.363 . S
C891 C886 1.379 . S
C891 N889 1.356 . S
N892 C884 1.356 . S
N892 H898 0.984 . S
N892 H899 0.984 . S
N893 C886 1.356 . S
N893 H896 0.984 . S
N893 H897 0.985 . S
H894 N889 0.984 . S
H895 N889 0.985 . S
H896 N893 0.984 . S
H897 N893 0.985 . S
H898 N892 0.984 . S
H899 N892 0.984 . S
H900 N888 0.984 . S
H901 N888 0.985 . S
C902 C903 1.363 . S
C902 C908 1.379 . S
C902 N910 1.356 . S
C903 C902 1.363 . S
C903 C909 1.363 . S
C904 C905 1.363 . S
C904 C909 1.379 . S
C904 N911 1.356 . S
C905 C904 1.363 . S
C905 C908 1.363 . S
N906 C908 1.356 . S
N906 H918 0.984 . S
N906 H919 0.985 . S
N907 C909 1.356 . S
N907 H912 0.984 . S
N907 H913 0.985 . S
C908 C902 1.379 . S
C908 C905 1.363 . S
C908 N906 1.356 . S
C909 C903 1.363 . S
C909 C904 1.379 . S
C909 N907 1.356 . S
N910 C902 1.356 . S
N910 H916 0.984 . S
N910 H917 0.984 . S
N911 C904 1.356 . S
N911 H914 0.984 . S
N911 H915 0.985 . S
H912 N907 0.984 . S
H913 N907 0.985 . S
H914 N911 0.984 . S
H915 N911 0.985 . S
H916 N910 0.984 . S
H917 N910 0.984 . S
H918 N906 0.984 . S
H919 N906 0.985 . S
C489 C116 1.809 . S
C491 C226 1.809 1_565 S
C509 C310 1.809 . S
C507 C135 1.809 . S
C527 C303 1.798 . S
C525 C78 1.807 . S
C543 C97 1.808 . S
C545 C219 1.798 1_565 S
C563 C383 1.809 1_545 S
C561 C40 1.810 . S
C581 C467 1.809 . S
C579 C59 1.810 . S
C597 C2 1.809 . S
C599 C460 1.798 . S
C615 C21 1.809 . S
C617 C376 1.798 1_545 S
C635 C210 1.555 . S
C633 C25 1.728 . S
C653 C294 1.555 . S
C651 C6 1.728 . S
C671 C305 1.427 . S
C669 C63 1.723 . S
C689 C221 1.427 . S
C687 C44 1.723 . S
C707 C389 1.555 . S
C705 C101 1.725 . S
C723 C82 1.725 . S
C725 C473 1.556 . S
C743 C462 1.427 . S
C741 C139 1.721 . S
C759 C120 1.721 . S
C761 C378 1.427 . S
C779 C208 1.508 . S
C777 C11 1.438 . S
C797 C292 1.508 . S
C795 C30 1.438 . S
C813 C49 1.429 . S
C815 C299 1.471 . S
C833 C215 1.472 . S
C831 C68 1.429 . S
C851 C387 1.508 . S
C849 C87 1.375 . S
C867 C106 1.375 . S
C869 C471 1.508 . S
C885 C125 1.376 . S
C887 C478 1.472 . S
C903 C144 1.376 . S
C905 C394 1.472 . S
