# Generated by pormake.
# Topology hwx, (6,3)-cn, num edge types: 1
# Building blocks:
#     Node 0, Type 0, BuildingBlock: IZENUY_clean_sbu_0, # of connection points: 6
#     Node 1, Type 0, BuildingBlock: IZENUY_clean_sbu_0, # of connection points: 6
#     Node 2, Type 0, BuildingBlock: IZENUY_clean_sbu_0, # of connection points: 6
#     Node 3, Type 0, BuildingBlock: IZENUY_clean_sbu_0, # of connection points: 6
#     Node 4, Type 1, BuildingBlock: MIDCAF_clean_linker_0, # of connection points: 3
#     Node 5, Type 1, BuildingBlock: MIDCAF_clean_linker_0, # of connection points: 3
#     Node 6, Type 1, BuildingBlock: MIDCAF_clean_linker_0, # of connection points: 3
#     Node 7, Type 1, BuildingBlock: MIDCAF_clean_linker_0, # of connection points: 3
#     Node 8, Type 1, BuildingBlock: MIDCAF_clean_linker_0, # of connection points: 3
#     Node 9, Type 1, BuildingBlock: MIDCAF_clean_linker_0, # of connection points: 3
#     Node 10, Type 1, BuildingBlock: MIDCAF_clean_linker_0, # of connection points: 3
#     Node 11, Type 1, BuildingBlock: MIDCAF_clean_linker_0, # of connection points: 3
#     Edge 12, Type (0, 1), BuildingBlock: EZIPEK_clean_linker_0, # of connection points: 2
#     Edge 13, Type (0, 1), BuildingBlock: EZIPEK_clean_linker_0, # of connection points: 2
#     Edge 14, Type (0, 1), BuildingBlock: EZIPEK_clean_linker_0, # of connection points: 2
#     Edge 15, Type (0, 1), BuildingBlock: EZIPEK_clean_linker_0, # of connection points: 2
#     Edge 16, Type (0, 1), BuildingBlock: EZIPEK_clean_linker_0, # of connection points: 2
#     Edge 17, Type (0, 1), BuildingBlock: EZIPEK_clean_linker_0, # of connection points: 2
#     Edge 18, Type (0, 1), BuildingBlock: EZIPEK_clean_linker_0, # of connection points: 2
#     Edge 19, Type (0, 1), BuildingBlock: EZIPEK_clean_linker_0, # of connection points: 2
#     Edge 20, Type (0, 1), BuildingBlock: EZIPEK_clean_linker_0, # of connection points: 2
#     Edge 21, Type (0, 1), BuildingBlock: EZIPEK_clean_linker_0, # of connection points: 2
#     Edge 22, Type (0, 1), BuildingBlock: EZIPEK_clean_linker_0, # of connection points: 2
#     Edge 23, Type (0, 1), BuildingBlock: EZIPEK_clean_linker_0, # of connection points: 2
#     Edge 24, Type (0, 1), BuildingBlock: EZIPEK_clean_linker_0, # of connection points: 2
#     Edge 25, Type (0, 1), BuildingBlock: EZIPEK_clean_linker_0, # of connection points: 2
#     Edge 26, Type (0, 1), BuildingBlock: EZIPEK_clean_linker_0, # of connection points: 2
#     Edge 27, Type (0, 1), BuildingBlock: EZIPEK_clean_linker_0, # of connection points: 2
#     Edge 28, Type (0, 1), BuildingBlock: EZIPEK_clean_linker_0, # of connection points: 2
#     Edge 29, Type (0, 1), BuildingBlock: EZIPEK_clean_linker_0, # of connection points: 2
#     Edge 30, Type (0, 1), BuildingBlock: EZIPEK_clean_linker_0, # of connection points: 2
#     Edge 31, Type (0, 1), BuildingBlock: EZIPEK_clean_linker_0, # of connection points: 2
#     Edge 32, Type (0, 1), BuildingBlock: EZIPEK_clean_linker_0, # of connection points: 2
#     Edge 33, Type (0, 1), BuildingBlock: EZIPEK_clean_linker_0, # of connection points: 2
#     Edge 34, Type (0, 1), BuildingBlock: EZIPEK_clean_linker_0, # of connection points: 2
#     Edge 35, Type (0, 1), BuildingBlock: EZIPEK_clean_linker_0, # of connection points: 2
# Relax obj value: 0.053
# Max RMSD: 0.077
# Mean RMSD: 0.069
data_MOF--net-hwx--node1-IZENUY_clean_sbu_0--node2-MIDCAF_clean_linker_0--edge1-EZIPEK_clean_linker_0
_symmetry_space_group_name_H-M    P1
_symmetry_Int_Tables_number       1
_symmetry_cell_setting            triclinic
loop_
_symmetry_equiv_pos_as_xyz
'x, y, z'
_cell_length_a     45.119481
_cell_length_b     44.928216
_cell_length_c     21.958457
_cell_angle_alpha  89.786443
_cell_angle_beta   90.142839
_cell_angle_gamma 90.015045
loop_
_atom_site_label
_atom_site_type_symbol
_atom_site_fract_x
_atom_site_fract_y
_atom_site_fract_z
_atom_type_partial_charge
Fe0 Fe 0.23544 0.21023 0.07269 0.0
Fe1 Fe 0.24056 0.21253 0.93362 0.0
O2 O 0.22752 0.1947 0.00041 0.0
Fe3 Fe 0.20673 0.1612 0.99465 0.0
O4 O 0.18366 0.16865 0.06229 0.0
O5 O 0.19652 0.21379 0.08993 0.0
O6 O 0.23385 0.24918 0.04626 0.0
C7 C 0.22233 0.26058 -0.00107 0.0
C8 C 0.24182 0.1478 0.09213 0.0
O9 O 0.22028 0.24618 0.95007 0.0
C10 C 0.25135 0.15469 0.90446 0.0
O11 O 0.275 0.20785 0.0607 0.0
O12 O 0.27455 0.22712 0.9686 0.0
O13 O 0.23356 0.14072 0.03941 0.0
O14 O 0.23837 0.17401 0.11201 0.0
C15 C 0.18302 0.19251 0.90011 0.0
O16 O 0.26195 0.18018 0.91351 0.0
O17 O 0.22623 0.14759 0.92596 0.0
C18 C 0.28835 0.21911 0.01606 0.0
O19 O 0.20882 0.20121 0.88587 0.0
O20 O 0.17828 0.17926 0.9497 0.0
C21 C 0.17863 0.19235 0.09167 0.0
Fe22 Fe 0.26192 0.70091 0.5705 0.0
Fe23 Fe 0.29464 0.65731 0.4866 0.0
O24 O 0.27255 0.68968 0.49624 0.0
Fe25 Fe 0.2609 0.71058 0.43193 0.0
O26 O 0.26283 0.74666 0.47078 0.0
O27 O 0.28037 0.73662 0.56236 0.0
O28 O 0.29587 0.68728 0.60773 0.0
C29 C 0.32125 0.68206 0.58585 0.0
C30 C 0.21055 0.71376 0.49978 0.0
O31 O 0.32432 0.67279 0.53223 0.0
C32 C 0.25512 0.6507 0.393 0.0
O33 O 0.2427 0.66588 0.58337 0.0
O34 O 0.27885 0.63737 0.55206 0.0
O35 O 0.22212 0.70553 0.45057 0.0
O36 O 0.22617 0.71713 0.54716 0.0
C37 C 0.31734 0.6973 0.39751 0.0
O38 O 0.26652 0.63948 0.44021 0.0
O39 O 0.25714 0.67823 0.38154 0.0
C40 C 0.25435 0.6404 0.57911 0.0
O41 O 0.31443 0.67135 0.41932 0.0
O42 O 0.29862 0.7173 0.40823 0.0
C43 C 0.27586 0.75465 0.51914 0.0
Fe44 Fe 0.7635 0.80733 0.92252 0.0
Fe45 Fe 0.76047 0.81011 0.06243 0.0
O46 O 0.77231 0.82545 0.99198 0.0
Fe47 Fe 0.7932 0.85913 0.99094 0.0
O48 O 0.77889 0.87217 0.9171 0.0
O49 O 0.74413 0.8399 0.89388 0.0
O50 O 0.72734 0.79331 0.94793 0.0
C51 C 0.71115 0.80002 0.9927 0.0
C52 C 0.82292 0.82652 0.90659 0.0
O53 O 0.7218 0.81135 0.0403 0.0
C54 C 0.81611 0.82878 0.09344 0.0
O55 O 0.78199 0.77335 0.94543 0.0
O56 O 0.76418 0.77105 0.03859 0.0
O57 O 0.82444 0.84088 0.95562 0.0
O58 O 0.79831 0.81785 0.8851 0.0
C59 C 0.75192 0.87255 0.07676 0.0
O60 O 0.79818 0.80744 0.09003 0.0
O61 O 0.81171 0.85269 0.06442 0.0
C62 C 0.77714 0.75911 0.99381 0.0
O63 O 0.75467 0.84653 0.09872 0.0
O64 O 0.76331 0.87957 0.02638 0.0
C65 C 0.75549 0.86537 0.88869 0.0
Fe66 Fe 0.70689 0.35877 0.51434 0.0
Fe67 Fe 0.73599 0.30572 0.58051 0.0
O68 O 0.72717 0.32477 0.51184 0.0
Fe69 Fe 0.73839 0.31005 0.44067 0.0
O70 O 0.7445 0.34676 0.40533 0.0
O71 O 0.73706 0.37908 0.47904 0.0
O72 O 0.72165 0.37069 0.58837 0.0
C73 C 0.74501 0.36322 0.6163 0.0
C74 C 0.68301 0.32999 0.41134 0.0
O75 O 0.75599 0.33766 0.61001 0.0
C76 C 0.72121 0.25855 0.50786 0.0
O77 O 0.67545 0.34062 0.54959 0.0
O78 O 0.70146 0.31629 0.61882 0.0
O79 O 0.70053 0.30828 0.41393 0.0
O80 O 0.68797 0.35353 0.44093 0.0
C81 C 0.78789 0.29837 0.50896 0.0
O82 O 0.71684 0.27231 0.55681 0.0
O83 O 0.7342 0.27079 0.46328 0.0
C84 C 0.67691 0.32553 0.59796 0.0
O85 O 0.77182 0.29143 0.5539 0.0
O86 O 0.77719 0.31045 0.462 0.0
C87 C 0.74787 0.37247 0.42798 0.0
C88 C 0.19357 0.59215 0.1506 0.0
C89 C 0.2043 0.57794 0.20312 0.0
C90 C 0.20559 0.5468 0.20536 0.0
C91 C 0.19744 0.53002 0.15454 0.0
H92 H 0.1945 0.44524 0.09236 0.0
H93 H 0.20188 0.39134 0.09382 0.0
H94 H 0.17843 0.38683 0.90376 0.0
H95 H 0.1713 0.44087 0.90123 0.0
H96 H 0.18598 0.50013 0.82232 0.0
H97 H 0.19985 0.52488 0.72711 0.0
H98 H 0.20422 0.60907 0.81993 0.0
H99 H 0.1903 0.58481 0.91539 0.0
H100 H 0.17852 0.58706 0.05881 0.0
H101 H 0.19257 0.61622 0.14826 0.0
H102 H 0.21396 0.53558 0.24563 0.0
H103 H 0.19969 0.50605 0.15688 0.0
N104 N 0.18276 0.49664 0.04588 0.0
N105 N 0.18186 0.4948 0.93917 0.0
N106 N 0.18435 0.54079 0.98889 0.0
C107 C 0.18142 0.48045 0.9938 0.0
C108 C 0.18328 0.525 0.9363 0.0
C109 C 0.18396 0.52683 0.04384 0.0
C110 C 0.18254 0.44748 0.99648 0.0
C111 C 0.19047 0.43284 0.05096 0.0
C112 C 0.19471 0.40204 0.05202 0.0
C113 C 0.19072 0.38531 -0.00108 0.0
C114 C 0.18153 0.39952 0.94515 0.0
C115 C 0.17759 0.43038 0.94383 0.0
C116 C 0.18733 0.54037 0.8769 0.0
C117 C 0.18936 0.52399 0.8225 0.0
C118 C 0.19724 0.53805 0.76797 0.0
C119 C 0.20314 0.56868 0.7669 0.0
C120 C 0.1997 0.58539 0.82013 0.0
C121 C 0.19179 0.5714 0.87465 0.0
C122 C 0.18827 0.54421 0.1004 0.0
C123 C 0.18571 0.57543 0.09954 0.0
C124 C 0.89321 0.80939 0.66504 0.0
C125 C 0.90833 0.80702 0.72056 0.0
C126 C 0.93859 0.79998 0.72112 0.0
C127 C 0.95357 0.79521 0.66629 0.0
H128 H 0.03677 0.78246 0.59088 0.0
H129 H 0.08844 0.76618 0.59055 0.0
H130 H 0.08049 0.74141 0.40176 0.0
H131 H 0.02879 0.75797 0.40109 0.0
H132 H 0.97338 0.8096 0.33269 0.0
H133 H 0.94364 0.82062 0.2413 0.0
H134 H 0.86448 0.79381 0.33654 0.0
H135 H 0.89368 0.78359 0.42794 0.0
H136 H 0.89563 0.80668 0.56837 0.0
H137 H 0.86983 0.81489 0.66406 0.0
H138 H 0.95051 0.79819 0.76385 0.0
H139 H 0.97695 0.7898 0.66787 0.0
N140 N 0.98303 0.78506 0.55048 0.0
N141 N 0.98186 0.78425 0.44349 0.0
N142 N 0.93899 0.79583 0.49852 0.0
C143 C 0.99712 0.78069 0.49656 0.0
C144 C 0.95272 0.79178 0.44436 0.0
C145 C 0.95394 0.79267 0.55177 0.0
C146 C 0.02861 0.77151 0.49597 0.0
C147 C 0.04593 0.77359 0.54918 0.0
C148 C 0.07544 0.76431 0.54918 0.0
C149 C 0.08806 0.75254 0.49624 0.0
C150 C 0.07098 0.75044 0.44301 0.0
C151 C 0.04152 0.76 0.44275 0.0
C152 C 0.93578 0.79591 0.38741 0.0
C153 C 0.94968 0.80578 0.33376 0.0
C154 C 0.93279 0.81211 0.28173 0.0
C155 C 0.90195 0.80795 0.28242 0.0
C156 C 0.88827 0.79713 0.33527 0.0
C157 C 0.90497 0.79138 0.38741 0.0
C158 C 0.93843 0.79752 0.61027 0.0
C159 C 0.90807 0.80468 0.61042 0.0
C160 C 0.80332 0.42516 0.85818 0.0
C161 C 0.79341 0.43892 0.8045 0.0
C162 C 0.79249 0.47007 0.80098 0.0
C163 C 0.8 0.48727 0.85172 0.0
H164 H 0.81639 0.57383 0.91311 0.0
H165 H 0.80968 0.62783 0.90843 0.0
H166 H 0.79636 0.63018 0.1026 0.0
H167 H 0.80325 0.57628 0.10825 0.0
H168 H 0.80658 0.51757 0.18507 0.0
H169 H 0.79478 0.49161 0.28026 0.0
H170 H 0.79734 0.40749 0.18684 0.0
H171 H 0.80927 0.43292 0.09165 0.0
H172 H 0.81719 0.4309 0.95046 0.0
H173 H 0.8041 0.40111 0.86158 0.0
H174 H 0.78476 0.48099 0.75984 0.0
H175 H 0.79794 0.51123 0.84843 0.0
N176 N 0.81174 0.52143 0.96141 0.0
N177 N 0.81178 0.52324 0.06821 0.0
N178 N 0.81152 0.47725 0.01842 0.0
C179 C 0.81204 0.53763 0.01362 0.0
C180 C 0.81167 0.49303 0.07102 0.0
C181 C 0.81163 0.49119 0.96345 0.0
C182 C 0.81021 0.57059 0.01104 0.0
C183 C 0.81228 0.58577 0.955 0.0
C184 C 0.80849 0.61663 0.95213 0.0
C185 C 0.80243 0.63281 0.00513 0.0
C186 C 0.80104 0.61796 0.06128 0.0
C187 C 0.805 0.58715 0.0643 0.0
C188 C 0.80852 0.4774 0.13033 0.0
C189 C 0.80512 0.49351 0.1848 0.0
C190 C 0.79843 0.47877 0.2393 0.0
C191 C 0.79501 0.44775 0.24014 0.0
C192 C 0.79985 0.43148 0.18681 0.0
C193 C 0.8066 0.44613 0.13242 0.0
C194 C 0.80826 0.4735 0.90694 0.0
C195 C 0.81066 0.44227 0.90897 0.0
C196 C 0.09094 0.17488 0.32327 0.0
C197 C 0.08589 0.19369 0.27321 0.0
C198 C 0.0624 0.21411 0.27484 0.0
C199 C 0.04531 0.21695 0.32761 0.0
H200 H 0.96172 0.24 0.40172 0.0
H201 H 0.91121 0.25931 0.40727 0.0
H202 H 0.91727 0.26227 0.60301 0.0
H203 H 0.96792 0.24296 0.59844 0.0
H204 H 0.02754 0.22263 0.66408 0.0
H205 H 0.05917 0.21835 0.7547 0.0
H206 H 0.13005 0.18376 0.6445 0.0
H207 H 0.09892 0.18767 0.55399 0.0
H208 H 0.07964 0.16427 0.41526 0.0
H209 H 0.10907 0.15907 0.32272 0.0
H210 H 0.0584 0.22894 0.23668 0.0
H211 H 0.02825 0.2339 0.32902 0.0
N212 N 0.01088 0.21911 0.44184 0.0
N213 N 0.01498 0.22178 0.54835 0.0
N214 N 0.05371 0.20176 0.49081 0.0
C215 C -0.001 0.22658 0.49658 0.0
C216 C 0.04243 0.20942 0.54576 0.0
C217 C 0.03814 0.20648 0.43879 0.0
C218 C 0.96892 0.23972 0.49969 0.0
C219 C 0.95251 0.24491 0.44606 0.0
C220 C 0.92368 0.25603 0.44899 0.0
C221 C 0.91075 0.2622 0.50547 0.0
C222 C 0.92709 0.25771 0.55905 0.0
C223 C 0.95598 0.24659 0.55623 0.0
C224 C 0.06066 0.2056 0.60155 0.0
C225 C 0.04979 0.21397 0.65906 0.0
C226 C 0.06778 0.21159 0.71087 0.0
C227 C 0.09689 0.20094 0.70587 0.0
C228 C 0.10764 0.19214 0.64897 0.0
C229 C 0.08973 0.19439 0.59733 0.0
C230 C 0.05196 0.19978 0.37957 0.0
C231 C 0.07426 0.17804 0.37617 0.0
C232 C 0.70765 0.93247 0.31909 0.0
C233 C 0.70454 0.94739 0.26335 0.0
C234 C 0.69341 0.97654 0.26228 0.0
C235 C 0.68693 0.99115 0.31689 0.0
H236 H 0.69482 0.076 0.39157 0.0
H237 H 0.70177 0.12994 0.39649 0.0
H238 H 0.68538 0.12791 0.5897 0.0
H239 H 0.67858 0.07397 0.58575 0.0
H240 H 0.70016 0.01274 0.65311 0.0
H241 H 0.71417 0.98347 0.74298 0.0
H242 H 0.6966 0.90242 0.64496 0.0
H243 H 0.6827 0.93124 0.55485 0.0
H244 H 0.70422 0.93484 0.41576 0.0
H245 H 0.71611 0.90991 0.32057 0.0
H246 H 0.69078 0.98827 0.21942 0.0
H247 H 0.67927 0.01398 0.31502 0.0
N248 N 0.68598 0.02281 0.43287 0.0
N249 N 0.68579 0.0217 0.53978 0.0
N250 N 0.68766 0.9772 0.48484 0.0
C251 C 0.68514 0.03754 0.48688 0.0
C252 C 0.68688 0.9915 0.53913 0.0
C253 C 0.68713 0.99259 0.43154 0.0
C254 C 0.68635 0.07053 0.48837 0.0
C255 C 0.69233 0.08697 0.43508 0.0
C256 C 0.69634 0.1178 0.43769 0.0
C257 C 0.6942 0.13272 0.49346 0.0
C258 C 0.68716 0.11665 0.54631 0.0
C259 C 0.68333 0.08583 0.54386 0.0
C260 C 0.69067 0.97434 0.59641 0.0
C261 C 0.69866 0.98871 0.65093 0.0
C262 C 0.70664 0.97207 0.70239 0.0
C263 C 0.70646 0.94089 0.70024 0.0
C264 C 0.69681 0.92651 0.64727 0.0
C265 C 0.689 0.94306 0.59578 0.0
C266 C 0.69103 0.97658 0.37317 0.0
C267 C 0.7008 0.94682 0.37344 0.0
C268 C 0.60686 0.30552 0.83873 0.0
C269 C 0.59147 0.30406 0.78345 0.0
C270 C 0.56106 0.29758 0.78329 0.0
C271 C 0.54618 0.29269 0.83834 0.0
H272 H 0.46515 0.26947 0.91394 0.0
H273 H 0.41325 0.25388 0.91855 0.0
H274 H 0.41786 0.25125 0.11453 0.0
H275 H 0.46969 0.26692 0.11091 0.0
H276 H 0.52629 0.30985 0.17113 0.0
H277 H 0.55555 0.32188 0.26239 0.0
H278 H 0.6356 0.29732 0.16821 0.0
H279 H 0.60687 0.28608 0.07686 0.0
H280 H 0.60479 0.30214 0.93534 0.0
H281 H 0.63036 0.31054 0.83943 0.0
H282 H 0.54891 0.29648 0.74075 0.0
H283 H 0.52267 0.28791 0.83715 0.0
N284 N 0.51711 0.2822 0.95524 0.0
N285 N 0.51844 0.28386 0.06217 0.0
N286 N 0.56109 0.29472 0.00582 0.0
C287 C 0.50314 0.27886 0.00972 0.0
C288 C 0.54746 0.2917 0.0604 0.0
C289 C 0.54614 0.29018 0.95303 0.0
C290 C 0.47166 0.26953 0.01207 0.0
C291 C 0.45523 0.26559 0.95811 0.0
C292 C 0.4256 0.25665 0.96053 0.0
C293 C 0.41196 0.25144 0.01683 0.0
C294 C 0.42818 0.25519 0.07073 0.0
C295 C 0.45777 0.2642 0.06843 0.0
C296 C 0.56434 0.29715 0.11689 0.0
C297 C 0.5501 0.30682 0.17017 0.0
C298 C 0.56671 0.31373 0.22215 0.0
C299 C 0.59764 0.31036 0.22182 0.0
C300 C 0.61174 0.30001 0.16919 0.0
C301 C 0.59529 0.29368 0.11708 0.0
C302 C 0.56157 0.29437 0.89413 0.0
C303 C 0.59212 0.30072 0.8935 0.0
C304 C 0.29752 0.09057 0.66323 0.0
C305 C 0.29887 0.07805 0.72243 0.0
C306 C 0.29731 0.04657 0.72619 0.0
C307 C 0.2978 0.02882 0.67385 0.0
H308 H 0.31901 0.9417 0.60103 0.0
H309 H 0.31683 0.88725 0.60813 0.0
H310 H 0.27162 0.88379 0.43517 0.0
H311 H 0.27426 0.93806 0.4268 0.0
H312 H 0.29916 1.00019 0.336 0.0
H313 H 0.29024 0.02741 0.24024 0.0
H314 H 0.26576 0.10544 0.34191 0.0
H315 H 0.27494 0.07902 0.43704 0.0
H316 H 0.29725 0.08402 0.56739 0.0
H317 H 0.29492 0.11414 0.65547 0.0
H318 H 0.29447 0.03493 0.76869 0.0
H319 H 0.29679 0.00485 0.67905 0.0
N320 N 0.2988 0.99345 0.56201 0.0
N321 N 0.29348 0.99125 0.45545 0.0
N322 N 0.29433 0.03728 0.5049 0.0
C323 C 0.2968 0.97711 0.51005 0.0
C324 C 0.29235 0.02145 0.45269 0.0
C325 C 0.29755 0.02364 0.55965 0.0
C326 C 0.29675 0.9442 0.51338 0.0
C327 C 0.30873 0.92935 0.56434 0.0
C328 C 0.30756 0.89831 0.56851 0.0
C329 C 0.29386 0.8817 0.5224 0.0
C330 C 0.28217 0.89636 0.47124 0.0
C331 C 0.2838 0.92733 0.4665 0.0
C332 C 0.2877 0.03737 0.39422 0.0
C333 C 0.29199 0.02317 0.33789 0.0
C334 C 0.28705 0.03865 0.28327 0.0
C335 C 0.2773 0.06832 0.28443 0.0
C336 C 0.27328 0.08255 0.34035 0.0
C337 C 0.27857 0.06733 0.39466 0.0
C338 C 0.29841 0.04186 0.61577 0.0
C339 C 0.29797 0.07296 0.6113 0.0
C340 C 0.40069 0.68924 0.16106 0.0
C341 C 0.40616 0.70816 0.2104 0.0
C342 C 0.43002 0.72815 0.20798 0.0
C343 C 0.44762 0.72987 0.15568 0.0
H344 H 0.53326 0.74823 0.08821 0.0
H345 H 0.5843 0.76629 0.0863 0.0
H346 H 0.58396 0.76348 0.89019 0.0
H347 H 0.5328 0.74533 0.89109 0.0
H348 H 0.47685 0.7172 0.82133 0.0
H349 H 0.44843 0.70812 0.72771 0.0
H350 H 0.37135 0.68648 0.83456 0.0
H351 H 0.3992 0.69511 0.92787 0.0
H352 H 0.41255 0.67696 0.07051 0.0
H353 H 0.38231 0.67371 0.16227 0.0
H354 H 0.43437 0.74304 0.24567 0.0
H355 H 0.46535 0.74611 0.15399 0.0
N356 N 0.48449 0.72819 0.04507 0.0
N357 N 0.48429 0.72553 0.93822 0.0
N358 N 0.44316 0.70911 0.99377 0.0
C359 C 0.49844 0.73274 0.99098 0.0
C360 C 0.45655 0.71375 0.93935 0.0
C361 C 0.4569 0.71622 0.04669 0.0
C362 C 0.52889 0.74513 0.98976 0.0
C363 C 0.54384 0.7516 0.0445 0.0
C364 C 0.57298 0.762 0.04365 0.0
C365 C 0.58765 0.7662 0.98816 0.0
C366 C 0.57278 0.76043 0.93337 0.0
C367 C 0.5436 0.74998 0.93411 0.0
C368 C 0.44032 0.70704 0.88226 0.0
C369 C 0.4539 0.71036 0.82496 0.0
C370 C 0.43778 0.70517 0.77147 0.0
C371 C 0.40785 0.69684 0.77462 0.0
C372 C 0.39443 0.69298 0.83148 0.0
C373 C 0.41047 0.69795 0.88476 0.0
C374 C 0.44114 0.71199 0.1049 0.0
C375 C 0.4179 0.69124 0.10864 0.0
C376 C 0.12467 0.18594 0.11956 0.0
C377 C 0.15419 0.19323 0.13684 0.0
C378 C 0.13678 0.20653 0.2386 0.0
C379 C 0.10837 0.19517 0.22418 0.0
N380 N 0.0757 0.17079 0.15318 0.0
N381 N 0.18902 0.20344 0.21855 0.0
C382 C 0.10236 0.18396 0.16518 0.0
C383 C 0.16047 0.20171 0.19788 0.0
N384 N 0.11767 0.18211 0.05955 0.0
N385 N 0.14112 0.22239 0.29092 0.0
H386 H 0.20736 0.19839 0.19199 0.0
H387 H 0.19437 0.20649 0.26431 0.0
H388 H 0.12416 0.22689 0.32176 0.0
H389 H 0.16075 0.23372 0.30034 0.0
H390 H 0.09602 0.17961 0.04384 0.0
H391 H 0.13317 0.18434 0.02474 0.0
H392 H 0.07123 0.15935 0.11302 0.0
H393 H 0.05878 0.16937 0.18537 0.0
C394 C 0.25864 0.59477 0.64799 0.0
C395 C 0.24089 0.61512 0.61421 0.0
C396 C 0.19687 0.59861 0.67067 0.0
C397 C 0.21561 0.58285 0.71148 0.0
N398 N 0.26463 0.56707 0.74191 0.0
N399 N 0.19234 0.6251 0.57445 0.0
C400 C 0.24655 0.58099 0.70063 0.0
C401 C 0.20963 0.61375 0.62007 0.0
N402 N 0.28601 0.58659 0.62757 0.0
N403 N 0.16712 0.6001 0.68184 0.0
H404 H 0.20149 0.63448 0.53522 0.0
H405 H 0.16943 0.62265 0.5723 0.0
H406 H 0.15699 0.58836 0.7172 0.0
H407 H 0.15269 0.61412 0.6583 0.0
H408 H 0.29895 0.57034 0.64864 0.0
H409 H 0.29379 0.59196 0.5844 0.0
H410 H 0.28766 0.56852 0.74055 0.0
H411 H 0.25672 0.55602 0.78043 0.0
C412 C 0.83939 0.84314 0.19295 0.0
C413 C 0.84068 0.82687 0.13782 0.0
C414 C 0.88395 0.79944 0.17507 0.0
C415 C 0.88324 0.81638 0.22945 0.0
N416 N 0.86585 0.85988 0.28258 0.0
N417 N 0.86901 0.79641 0.06924 0.0
C418 C 0.86274 0.84009 0.23586 0.0
C419 C 0.86453 0.80716 0.12658 0.0
N420 N 0.81524 0.86033 0.20582 0.0
N421 N 0.90199 0.77512 0.17074 0.0
H422 H 0.85543 0.80222 0.03256 0.0
H423 H 0.88762 0.7841 0.05703 0.0
H424 H 0.91642 0.76854 0.20542 0.0
H425 H 0.90088 0.76012 0.13474 0.0
H426 H 0.81167 0.87006 0.24815 0.0
H427 H 0.79749 0.86287 0.17589 0.0
H428 H 0.85324 0.87921 0.28623 0.0
H429 H 0.88308 0.85854 0.31428 0.0
C430 C 0.78343 0.39964 0.65198 0.0
C431 C 0.75714 0.38326 0.66356 0.0
C432 C 0.75258 0.40715 0.7632 0.0
C433 C 0.78076 0.42054 0.75478 0.0
N434 N 0.82488 0.42707 0.69451 0.0
N435 N 0.71853 0.36831 0.73322 0.0
C436 C 0.79674 0.41614 0.7 0.0
C437 C 0.74217 0.3862 0.71999 0.0
N438 N 0.79499 0.40034 0.59453 0.0
N439 N 0.73534 0.41516 0.81161 0.0
H440 H 0.71003 0.35284 0.70273 0.0
H441 H 0.70886 0.36703 0.77617 0.0
H442 H 0.74207 0.43058 0.84423 0.0
H443 H 0.7133 0.40869 0.81641 0.0
H444 H 0.8125 0.41411 0.58179 0.0
H445 H 0.78528 0.38915 0.55804 0.0
H446 H 0.83882 0.42186 0.65837 0.0
H447 H 0.83514 0.43954 0.72855 0.0
C448 C 0.63453 0.30882 0.37807 0.0
C449 C 0.65822 0.32884 0.36741 0.0
C450 C 0.63612 0.34279 0.26963 0.0
C451 C 0.61594 0.31873 0.27528 0.0
N452 N 0.5976 0.27668 0.33289 0.0
N453 N 0.68331 0.36337 0.30056 0.0
C454 C 0.61531 0.3013 0.32927 0.0
C455 C 0.65935 0.34574 0.31279 0.0
N456 N 0.63009 0.2975 0.43513 0.0
N457 N 0.63286 0.36293 0.22329 0.0
H458 H 0.70097 0.36584 0.33069 0.0
H459 H 0.68681 0.37362 0.25856 0.0
H460 H 0.61573 0.3616 0.1914 0.0
H461 H 0.64523 0.38245 0.22014 0.0
H462 H 0.61159 0.28488 0.44695 0.0
H463 H 0.64357 0.30314 0.47199 0.0
H464 H 0.59885 0.26138 0.36858 0.0
H465 H 0.58336 0.27017 0.29795 0.0
C466 C 0.27915 0.14691 0.80694 0.0
C467 C 0.2673 0.13471 0.86165 0.0
C468 C 0.29184 0.0873 0.83751 0.0
C469 C 0.29756 0.09815 0.7781 0.0
N470 N 0.31917 0.14236 0.73527 0.0
N471 N 0.26471 0.09283 0.93152 0.0
C472 C 0.29822 0.12936 0.77121 0.0
C473 C 0.27433 0.10473 0.87787 0.0
N474 N 0.27089 0.17442 0.78637 0.0
N475 N 0.30765 0.06359 0.85892 0.0
H476 H 0.2539 0.10516 0.9646 0.0
H477 H 0.26626 0.0702 0.9416 0.0
H478 H 0.32512 0.05462 0.83383 0.0
H479 H 0.3067 0.05607 0.9038 0.0
H480 H 0.27773 0.18273 0.74425 0.0
H481 H 0.25463 0.18728 0.80721 0.0
H482 H 0.32216 0.16536 0.73298 0.0
H483 H 0.33551 0.12968 0.71386 0.0
C484 C 0.33295 0.71293 0.29233 0.0
C485 C 0.34077 0.70299 0.35177 0.0
C486 C 0.39241 0.69714 0.31942 0.0
C487 C 0.38475 0.70883 0.26145 0.0
N488 N 0.34981 0.73566 0.19866 0.0
N489 N 0.3791 0.69306 0.42591 0.0
C490 C 0.35567 0.7193 0.24993 0.0
C491 C 0.3709 0.69729 0.36659 0.0
N492 N 0.30391 0.71456 0.27472 0.0
N493 N 0.41979 0.68495 0.32885 0.0
H494 H 0.36407 0.69436 0.46175 0.0
H495 H 0.4011 0.69151 0.44003 0.0
H496 H 0.43618 0.68463 0.29546 0.0
H497 H 0.42542 0.67317 0.36816 0.0
H498 H 0.29739 0.71843 0.22983 0.0
H499 H 0.28626 0.70913 0.30305 0.0
H500 H 0.32964 0.74636 0.19111 0.0
H501 H 0.36606 0.74112 0.16679 0.0
C502 C 0.75873 0.88943 0.78574 0.0
C503 C 0.7437 0.88607 0.84203 0.0
C504 C 0.70374 0.91857 0.80552 0.0
C505 C 0.7196 0.92315 0.7506 0.0
N506 N 0.76513 0.91869 0.69391 0.0
N507 N 0.7058 0.90267 0.91114 0.0
C508 C 0.74802 0.9103 0.74238 0.0
C509 C 0.71729 0.90217 0.85363 0.0
N510 N 0.78266 0.87197 0.77268 0.0
N511 N 0.67548 0.92912 0.81102 0.0
H512 H 0.71569 0.89154 0.94767 0.0
H513 H 0.68817 0.91623 0.92385 0.0
H514 H 0.66503 0.94153 0.77692 0.0
H515 H 0.66164 0.9237 0.84729 0.0
H516 H 0.79238 0.87095 0.72977 0.0
H517 H 0.79144 0.85662 0.80334 0.0
H518 H 0.78727 0.91259 0.68915 0.0
H519 H 0.75815 0.93408 0.6612 0.0
C520 C 0.8619 0.84708 0.83688 0.0
C521 C 0.84976 0.82256 0.86926 0.0
C522 C 0.88024 0.78787 0.81098 0.0
C523 C 0.89188 0.8123 0.7777 0.0
N524 N 0.90017 0.86504 0.76851 0.0
N525 N 0.85328 0.77126 0.90031 0.0
C526 C 0.88483 0.84193 0.79405 0.0
C527 C 0.8609 0.79343 0.86053 0.0
N528 N 0.85045 0.87498 0.84457 0.0
N529 N 0.88654 0.75941 0.79342 0.0
H530 H 0.83979 0.77506 0.93798 0.0
H531 H 0.86261 0.75007 0.89974 0.0
H532 H 0.90122 0.75449 0.75826 0.0
H533 H 0.87591 0.74074 0.81118 0.0
H534 H 0.85565 0.893 0.81662 0.0
H535 H 0.83427 0.87988 0.87676 0.0
H536 H 0.89811 0.88704 0.78259 0.0
H537 H 0.91705 0.86184 0.73679 0.0
C538 C 0.79186 0.39525 0.37607 0.0
C539 C 0.7611 0.39606 0.38937 0.0
C540 C 0.75317 0.4331 0.30889 0.0
C541 C 0.78389 0.43223 0.2953 0.0
N542 N 0.83349 0.41765 0.32273 0.0
N543 N 0.71401 0.42127 0.38008 0.0
C544 C 0.8036 0.4149 0.33119 0.0
C545 C 0.7423 0.41693 0.35979 0.0
N546 N 0.80968 0.37533 0.40585 0.0
N547 N 0.73407 0.44795 0.271 0.0
H548 H 0.70484 0.40943 0.41625 0.0
H549 H 0.70041 0.43843 0.36455 0.0
H550 H 0.74101 0.46031 0.23338 0.0
H551 H 0.7111 0.44616 0.27391 0.0
H552 H 0.83148 0.37085 0.39359 0.0
H553 H 0.80215 0.36242 0.44217 0.0
H554 H 0.84931 0.40774 0.35075 0.0
H555 H 0.84261 0.4319 0.29014 0.0
C556 C 0.14694 0.16832 0.82808 0.0
C557 C 0.15884 0.19459 0.85449 0.0
C558 C 0.12955 0.22523 0.78409 0.0
C559 C 0.11656 0.19904 0.75996 0.0
N560 N 0.10773 0.14627 0.76751 0.0
N561 N 0.15579 0.24768 0.8685 0.0
C562 C 0.12365 0.17075 0.78472 0.0
C563 C 0.14846 0.22298 0.83567 0.0
N564 N 0.15878 0.14114 0.84209 0.0
N565 N 0.12473 0.25211 0.75645 0.0
H566 H 0.16855 0.24656 0.90799 0.0
H567 H 0.14663 0.26862 0.86056 0.0
H568 H 0.11086 0.25477 0.71876 0.0
H569 H 0.13631 0.27137 0.76786 0.0
H570 H 0.15341 0.12171 0.81882 0.0
H571 H 0.17576 0.13819 0.8737 0.0
H572 H 0.10974 0.12557 0.78863 0.0
H573 H 0.09047 0.14728 0.73584 0.0
C574 C 0.21178 0.62332 0.3487 0.0
C575 C 0.2423 0.63088 0.34625 0.0
C576 C 0.24743 0.60467 0.24915 0.0
C577 C 0.2173 0.59581 0.25313 0.0
N578 N 0.17154 0.59302 0.30906 0.0
N579 N 0.2904 0.62533 0.30002 0.0
C580 C 0.19967 0.60403 0.30373 0.0
C581 C 0.26048 0.62058 0.2981 0.0
N582 N 0.19426 0.63531 0.39303 0.0
N583 N 0.2634 0.5984 0.19785 0.0
H584 H 0.30074 0.63719 0.33466 0.0
H585 H 0.30539 0.61559 0.27016 0.0
H586 H 0.25518 0.58557 0.16211 0.0
H587 H 0.28414 0.60746 0.18859 0.0
H588 H 0.17128 0.63342 0.39381 0.0
H589 H 0.20258 0.64891 0.42743 0.0
H590 H 0.15855 0.59547 0.34781 0.0
H591 H 0.16174 0.57959 0.27597 0.0
C592 C 0.35849 0.65965 0.65764 0.0
C593 C 0.34748 0.68486 0.62588 0.0
C594 C 0.37889 0.71782 0.68667 0.0
C595 C 0.38986 0.69264 0.71875 0.0
N596 N 0.39561 0.63947 0.72661 0.0
N597 N 0.35279 0.73635 0.59769 0.0
C598 C 0.3814 0.66345 0.70149 0.0
C599 C 0.35954 0.71348 0.63644 0.0
N600 N 0.34635 0.63228 0.64724 0.0
N601 N 0.38574 0.74589 0.70606 0.0
H602 H 0.33919 0.73342 0.5598 0.0
H603 H 0.36291 0.75716 0.59933 0.0
H604 H 0.40006 0.75008 0.74236 0.0
H605 H 0.37563 0.76502 0.68899 0.0
H606 H 0.35057 0.61361 0.67413 0.0
H607 H 0.33081 0.62857 0.61295 0.0
H608 H 0.39245 0.61766 0.71217 0.0
H609 H 0.41257 0.64165 0.75869 0.0
C610 C 0.70783 0.89382 0.12968 0.0
C611 C 0.73835 0.89592 0.1151 0.0
C612 C 0.74383 0.93784 0.18557 0.0
C613 C 0.71465 0.93251 0.20688 0.0
N614 N 0.66841 0.90588 0.20044 0.0
N615 N 0.78598 0.91959 0.12876 0.0
C616 C 0.69639 0.91079 0.17883 0.0
C617 C 0.75641 0.91823 0.14204 0.0
N618 N 0.68975 0.87614 0.09529 0.0
N619 N 0.75959 0.96155 0.20737 0.0
H620 H 0.796 0.90648 0.09572 0.0
H621 H 0.80116 0.93241 0.15295 0.0
H622 H 0.75167 0.97564 0.24125 0.0
H623 H 0.77956 0.96876 0.18885 0.0
H624 H 0.6668 0.87543 0.0998 0.0
H625 H 0.69752 0.86422 0.05795 0.0
H626 H 0.65522 0.88802 0.1872 0.0
H627 H 0.65882 0.91901 0.23418 0.0
C628 C 0.63836 0.34539 0.66919 0.0
C629 C 0.65008 0.32128 0.63531 0.0
C630 C 0.61899 0.28606 0.69154 0.0
C631 C 0.60776 0.31006 0.72628 0.0
N632 N 0.60034 0.36274 0.73851 0.0
N633 N 0.64572 0.2706 0.60131 0.0
C634 C 0.61531 0.33985 0.71165 0.0
C635 C 0.63845 0.29218 0.64234 0.0
N636 N 0.65032 0.37321 0.66327 0.0
N637 N 0.6122 0.25742 0.70741 0.0
H638 H 0.6593 0.27483 0.56392 0.0
H639 H 0.63604 0.24957 0.60064 0.0
H640 H 0.5974 0.25212 0.74221 0.0
H641 H 0.62252 0.23889 0.68857 0.0
H642 H 0.64541 0.39078 0.69231 0.0
H643 H 0.66664 0.3784 0.63149 0.0
H644 H 0.60279 0.38494 0.72574 0.0
H645 H 0.58337 0.35924 0.76995 0.0
C646 C 0.28216 0.12408 0.15387 0.0
C647 C 0.25217 0.12423 0.13444 0.0
C648 C 0.24135 0.08204 0.20218 0.0
C649 C 0.27012 0.08478 0.22762 0.0
N650 N 0.31811 0.10826 0.22978 0.0
N651 N 0.20251 0.10439 0.14111 0.0
C652 C 0.2907 0.10562 0.20368 0.0
C653 C 0.23165 0.10318 0.15817 0.0
N654 N 0.30254 0.14101 0.12349 0.0
N655 N 0.22328 0.05924 0.22032 0.0
H656 H 0.19459 0.1186 0.10733 0.0
H657 H 0.18571 0.09255 0.16276 0.0
H658 H 0.22918 0.04397 0.2541 0.0
H659 H 0.20341 0.05391 0.19875 0.0
H660 H 0.32526 0.13998 0.13149 0.0
H661 H 0.29695 0.15427 0.08613 0.0
H662 H 0.33287 0.12538 0.21968 0.0
H663 H 0.32563 0.094 0.2641 0.0
C664 C 0.18479 0.30092 0.01403 0.0
C665 C 0.21413 0.29245 -0.00127 0.0
C666 C 0.22734 0.34462 0.97954 0.0
C667 C 0.19855 0.35325 0.99851 0.0
N668 N 0.15065 0.34078 0.0395 0.0
N669 N 0.26424 0.30562 0.97192 0.0
C670 C 0.17746 0.3317 0.01738 0.0
C671 C 0.23566 0.31414 0.98278 0.0
N672 N 0.16379 0.27946 0.02381 0.0
N673 N 0.24653 0.36559 0.95728 0.0
H674 H 0.27081 0.28344 0.97044 0.0
H675 H 0.28192 0.32037 0.96788 0.0
H676 H 0.24187 0.38832 0.95684 0.0
H677 H 0.26641 0.36052 0.93576 0.0
H678 H 0.14129 0.28388 0.02864 0.0
H679 H 0.16853 0.25675 0.02294 0.0
H680 H 0.13549 0.32661 0.06039 0.0
H681 H 0.14416 0.36305 0.04041 0.0
C682 C 0.15798 0.70972 0.53727 0.0
C683 C 0.17926 0.72408 0.49967 0.0
C684 C 0.14107 0.75933 0.46499 0.0
C685 C 0.11938 0.74257 0.49666 0.0
N686 N 0.1061 0.69876 0.55413 0.0
N687 N 0.19055 0.76164 0.42359 0.0
C688 C 0.12753 0.7169 0.53038 0.0
C689 C 0.17061 0.74849 0.46197 0.0
N690 N 0.16675 0.68964 0.58051 0.0
N691 N 0.13375 0.78636 0.44029 0.0
H692 H 0.21303 0.75659 0.42328 0.0
H693 H 0.18449 0.77656 0.38936 0.0
H694 H 0.11241 0.79521 0.442 0.0
H695 H 0.14928 0.80128 0.42294 0.0
H696 H 0.15254 0.68099 0.61345 0.0
H697 H 0.18874 0.68364 0.58729 0.0
H698 H 0.11062 0.678 0.5733 0.0
H699 H 0.08349 0.70311 0.54956 0.0
C700 C 0.76429 0.70627 0.96804 0.0
C701 C 0.78396 0.72684 0.99583 0.0
C702 C 0.81737 0.6859 0.02393 0.0
C703 C 0.79626 0.66524 0.00152 0.0
N704 N 0.74731 0.65521 0.96216 0.0
N705 N 0.82741 0.73632 0.05682 0.0
C706 C 0.76908 0.67527 0.97618 0.0
C707 C 0.80997 0.71665 0.02583 0.0
N708 N 0.74126 0.71628 0.93299 0.0
N709 N 0.84484 0.67623 0.04146 0.0
H710 H 0.82308 0.75904 0.05744 0.0
H711 H 0.84479 0.72996 0.08529 0.0
H712 H 0.85104 0.65387 0.04055 0.0
H713 H 0.86229 0.69048 0.05203 0.0
H714 H 0.72822 0.7024 0.9061 0.0
H715 H 0.7366 0.73876 0.92671 0.0
H716 H 0.72582 0.66137 0.95017 0.0
H717 H 0.74985 0.63229 0.96775 0.0
C718 C 0.8269 0.25939 0.49429 0.0
C719 C 0.81936 0.28919 0.50893 0.0
C720 C 0.87201 0.30184 0.51855 0.0
C721 C 0.87932 0.27156 0.50842 0.0
N722 N 0.86389 0.2204 0.49839 0.0
N723 N 0.83396 0.33756 0.54518 0.0
C724 C 0.85679 0.24999 0.49976 0.0
C725 C 0.84173 0.31011 0.524 0.0
N726 N 0.80569 0.24032 0.47313 0.0
N727 N 0.89398 0.32276 0.52123 0.0
H728 H 0.81194 0.34416 0.54966 0.0
H729 H 0.84906 0.35279 0.56286 0.0
H730 H 0.91643 0.31741 0.51822 0.0
H731 H 0.88994 0.34557 0.52183 0.0
H732 H 0.81037 0.21938 0.45541 0.0
H733 H 0.78357 0.24636 0.46834 0.0
H734 H 0.84814 0.20345 0.49915 0.0
H735 H 0.8856 0.21259 0.50198 0.0
C736 C 0.6882 0.2168 0.47313 0.0
C737 C 0.7139 0.2264 0.50494 0.0
C738 C 0.72783 0.17448 0.52433 0.0
C739 C 0.70088 0.16502 0.49718 0.0
N740 N 0.6531 0.17694 0.4543 0.0
N741 N 0.75553 0.21471 0.57019 0.0
C742 C 0.6804 0.18613 0.47383 0.0
C743 C 0.73289 0.20533 0.53349 0.0
N744 N 0.6714 0.23697 0.44176 0.0
N745 N 0.74914 0.15403 0.53916 0.0
H746 H 0.76046 0.23706 0.57722 0.0
H747 H 0.76794 0.20041 0.59759 0.0
H748 H 0.7464 0.1312 0.5328 0.0
H749 H 0.77053 0.1598 0.55255 0.0
H750 H 0.65438 0.23111 0.41203 0.0
H751 H 0.67585 0.25967 0.44233 0.0
H752 H 0.63598 0.19148 0.44295 0.0
H753 H 0.64665 0.15464 0.45414 0.0
C754 C 0.32883 0.25455 0.04334 0.0
C755 C 0.32015 0.22619 0.02157 0.0
C756 C 0.37214 0.2129 0.0048 0.0
C757 C 0.38039 0.24252 0.01943 0.0
N758 N 0.36656 0.29286 0.04468 0.0
N759 N 0.33266 0.17861 0.97828 0.0
C760 C 0.35874 0.26371 0.03677 0.0
C761 C 0.34158 0.20536 0.00148 0.0
N762 N 0.30865 0.27241 0.07167 0.0
N763 N 0.39357 0.19185 0.99586 0.0
H764 H 0.31061 0.17166 0.97843 0.0
H765 H 0.34678 0.16395 0.956 0.0
H766 H 0.41618 0.19664 0.99778 0.0
H767 H 0.38911 0.16923 0.99134 0.0
H768 H 0.31428 0.29205 0.09391 0.0
H769 H 0.2866 0.26622 0.07792 0.0
H770 H 0.35122 0.30992 0.05046 0.0
H771 H 0.38829 0.3005 0.04036 0.0
C772 C 0.26312 0.805 0.56048 0.0
C773 C 0.28277 0.78662 0.52702 0.0
C774 C 0.31093 0.83049 0.4937 0.0
C775 C 0.29138 0.84883 0.52746 0.0
N776 N 0.2518 0.85401 0.60028 0.0
N777 N 0.32787 0.78059 0.46993 0.0
C778 C 0.26846 0.83617 0.56338 0.0
C779 C 0.30747 0.79903 0.49607 0.0
N780 N 0.2385 0.79282 0.58692 0.0
N781 N 0.33237 0.84331 0.45828 0.0
H782 H 0.32576 0.75752 0.47011 0.0
H783 H 0.34798 0.78775 0.45201 0.0
H784 H 0.33671 0.86611 0.45826 0.0
H785 H 0.34501 0.83174 0.42667 0.0
H786 H 0.22119 0.80526 0.60498 0.0
H787 H 0.2344 0.77002 0.58791 0.0
H788 H 0.23718 0.84594 0.63299 0.0
H789 H 0.2539 0.87711 0.60122 0.0
C790 C 0.67112 0.76207 0.00748 0.0
C791 C 0.6795 0.79152 0.99147 0.0
C792 C 0.62734 0.80497 0.97635 0.0
C793 C 0.61928 0.77496 0.98783 0.0
N794 N 0.63342 0.72373 0.00352 0.0
N795 N 0.66658 0.8398 0.95144 0.0
C796 C 0.64117 0.75314 0.00026 0.0
C797 C 0.65786 0.81267 0.97325 0.0
N798 N 0.6916 0.74288 0.03139 0.0
N799 N 0.60582 0.82618 0.97006 0.0
H800 H 0.68877 0.84608 0.94903 0.0
H801 H 0.65218 0.8551 0.93145 0.0
H802 H 0.58324 0.82122 0.9711 0.0
H803 H 0.61024 0.84891 0.96831 0.0
H804 H 0.68624 0.72225 0.0501 0.0
H805 H 0.71376 0.74856 0.03729 0.0
H806 H 0.64879 0.70647 0.00546 0.0
H807 H 0.61162 0.7163 -0.001 0.0
loop_
_geom_bond_atom_site_label_1
_geom_bond_atom_site_label_2
_geom_bond_distance
_geom_bond_site_symmetry_2
_ccdc_geom_bond_type
Fe0 O2 1.918 . S
Fe0 O5 1.997 . S
Fe0 O6 2.002 . S
Fe0 O11 1.976 . S
Fe0 O14 1.996 . S
Fe1 O2 1.918 1_556 S
Fe1 O9 1.997 . S
Fe1 O12 1.996 . S
Fe1 O16 1.976 . S
Fe1 O19 2.002 . S
O2 Fe0 1.918 . S
O2 Fe1 1.918 1_554 S
O2 Fe3 1.918 . S
Fe3 O2 1.918 . S
Fe3 O4 2.013 . S
Fe3 O13 1.987 . S
Fe3 O17 1.985 1_554 S
Fe3 O20 1.985 1_554 S
O4 Fe3 2.013 . S
O4 C21 1.295 . S
O5 Fe0 1.997 . S
O5 C21 1.235 . S
O6 Fe0 2.002 . S
O6 C7 1.295 . S
C7 O6 1.295 . S
C7 O9 1.235 1_554 S
C8 O13 1.287 . S
C8 O14 1.255 . S
O9 Fe1 1.997 . S
O9 C7 1.235 1_556 S
C10 O16 1.287 . S
C10 O17 1.255 . S
O11 Fe0 1.976 . S
O11 C18 1.280 1_554 S
O12 Fe1 1.996 . S
O12 C18 1.262 . S
O13 Fe3 1.987 . S
O13 C8 1.287 . S
O14 Fe0 1.996 . S
O14 C8 1.255 . S
C15 O19 1.295 . S
C15 O20 1.235 . S
O16 Fe1 1.976 . S
O16 C10 1.287 . S
O17 Fe3 1.985 1_556 S
O17 C10 1.255 . S
C18 O11 1.280 1_556 S
C18 O12 1.262 . S
O19 Fe1 2.002 . S
O19 C15 1.295 . S
O20 Fe3 1.985 1_556 S
O20 C15 1.235 . S
C21 O4 1.295 . S
C21 O5 1.235 . S
Fe22 O24 1.918 . S
Fe22 O27 1.997 . S
Fe22 O28 2.002 . S
Fe22 O33 1.976 . S
Fe22 O36 1.996 . S
Fe23 O24 1.918 . S
Fe23 O31 1.997 . S
Fe23 O34 1.996 . S
Fe23 O38 1.976 . S
Fe23 O41 2.002 . S
O24 Fe22 1.918 . S
O24 Fe23 1.918 . S
O24 Fe25 1.918 . S
Fe25 O24 1.918 . S
Fe25 O26 2.002 . S
Fe25 O35 1.976 . S
Fe25 O39 1.996 . S
Fe25 O42 1.997 . S
O26 Fe25 2.002 . S
O26 C43 1.295 . S
O27 Fe22 1.997 . S
O27 C43 1.235 . S
O28 Fe22 2.002 . S
O28 C29 1.295 . S
C29 O28 1.295 . S
C29 O31 1.235 . S
C30 O35 1.287 . S
C30 O36 1.255 . S
O31 Fe23 1.997 . S
O31 C29 1.235 . S
C32 O38 1.287 . S
C32 O39 1.255 . S
O33 Fe22 1.976 . S
O33 C40 1.287 . S
O34 Fe23 1.996 . S
O34 C40 1.255 . S
O35 Fe25 1.976 . S
O35 C30 1.287 . S
O36 Fe22 1.996 . S
O36 C30 1.255 . S
C37 O41 1.295 . S
C37 O42 1.235 . S
O38 Fe23 1.976 . S
O38 C32 1.287 . S
O39 Fe25 1.996 . S
O39 C32 1.255 . S
C40 O33 1.287 . S
C40 O34 1.255 . S
O41 Fe23 2.002 . S
O41 C37 1.295 . S
O42 Fe25 1.997 . S
O42 C37 1.235 . S
C43 O26 1.295 . S
C43 O27 1.235 . S
Fe44 O46 1.905 1_556 S
Fe44 O49 1.997 . S
Fe44 O50 2.002 . S
Fe44 O55 1.976 . S
Fe44 O58 1.996 . S
Fe45 O46 1.931 . S
Fe45 O53 1.997 . S
Fe45 O56 1.996 . S
Fe45 O60 1.976 . S
Fe45 O63 2.002 . S
O46 Fe44 1.905 1_554 S
O46 Fe45 1.931 . S
O46 Fe47 1.918 . S
Fe47 O46 1.918 . S
Fe47 O48 2.002 1_554 S
Fe47 O57 1.976 1_554 S
Fe47 O61 1.996 . S
Fe47 O64 1.997 . S
O48 Fe47 2.002 1_556 S
O48 C65 1.295 . S
O49 Fe44 1.997 . S
O49 C65 1.235 . S
O50 Fe44 2.002 . S
O50 C51 1.309 . S
C51 O50 1.309 . S
C51 O53 1.222 1_556 S
C52 O57 1.287 . S
C52 O58 1.255 . S
O53 Fe45 1.997 . S
O53 C51 1.222 1_554 S
C54 O60 1.287 . S
C54 O61 1.255 . S
O55 Fe44 1.976 . S
O55 C62 1.287 1_556 S
O56 Fe45 1.996 . S
O56 C62 1.255 . S
O57 Fe47 1.976 1_556 S
O57 C52 1.287 . S
O58 Fe44 1.996 . S
O58 C52 1.255 . S
C59 O63 1.295 . S
C59 O64 1.235 . S
O60 Fe45 1.976 . S
O60 C54 1.287 . S
O61 Fe47 1.996 . S
O61 C54 1.255 . S
C62 O55 1.287 1_554 S
C62 O56 1.255 . S
O63 Fe45 2.002 . S
O63 C59 1.295 . S
O64 Fe47 1.997 . S
O64 C59 1.235 . S
C65 O48 1.295 . S
C65 O49 1.235 . S
Fe66 O68 1.918 . S
Fe66 O71 1.997 . S
Fe66 O72 2.002 . S
Fe66 O77 1.976 . S
Fe66 O80 1.996 . S
Fe67 O68 1.918 . S
Fe67 O75 1.997 . S
Fe67 O78 1.996 . S
Fe67 O82 1.976 . S
Fe67 O85 2.002 . S
O68 Fe66 1.918 . S
O68 Fe67 1.918 . S
O68 Fe69 1.918 . S
Fe69 O68 1.918 . S
Fe69 O70 2.002 . S
Fe69 O79 1.976 . S
Fe69 O83 1.996 . S
Fe69 O86 1.997 . S
O70 Fe69 2.002 . S
O70 C87 1.295 . S
O71 Fe66 1.997 . S
O71 C87 1.235 . S
O72 Fe66 2.002 . S
O72 C73 1.295 . S
C73 O72 1.295 . S
C73 O75 1.235 . S
C74 O79 1.287 . S
C74 O80 1.255 . S
O75 Fe67 1.997 . S
O75 C73 1.235 . S
C76 O82 1.287 . S
C76 O83 1.255 . S
O77 Fe66 1.976 . S
O77 C84 1.287 . S
O78 Fe67 1.996 . S
O78 C84 1.255 . S
O79 Fe69 1.976 . S
O79 C74 1.287 . S
O80 Fe66 1.996 . S
O80 C74 1.255 . S
C81 O85 1.295 . S
C81 O86 1.235 . S
O82 Fe67 1.976 . S
O82 C76 1.287 . S
O83 Fe69 1.996 . S
O83 C76 1.255 . S
C84 O77 1.287 . S
C84 O78 1.255 . S
O85 Fe67 2.002 . S
O85 C81 1.295 . S
O86 Fe69 1.997 . S
O86 C81 1.235 . S
C87 O70 1.295 . S
C87 O71 1.235 . S
C88 C89 1.384 . S
C88 H101 0.947 . S
C88 C123 1.382 . S
C89 C88 1.384 . S
C89 C90 1.378 . S
C90 C89 1.378 . S
C90 C91 1.378 . S
C90 H102 0.952 . S
C91 C90 1.378 . S
C91 H103 0.950 . S
C91 C122 1.383 . S
H92 C111 0.947 . S
H93 C112 0.946 . S
H94 C114 0.953 . S
H95 C115 0.945 . S
H96 C117 0.952 . S
H97 C118 0.949 . S
H98 C120 0.950 . S
H99 C121 0.948 . S
H100 C123 0.951 . S
H101 C88 0.947 . S
H102 C90 0.952 . S
H103 C91 0.950 . S
N104 C107 1.382 1_554 S
N104 C109 1.363 . S
N105 C107 1.371 . S
N105 C108 1.372 . S
N106 C108 1.361 . S
N106 C109 1.377 1_556 S
C107 N104 1.382 1_556 S
C107 N105 1.371 . S
C107 C110 1.480 . S
C108 N105 1.372 . S
C108 N106 1.361 . S
C108 C116 1.457 . S
C109 N104 1.363 . S
C109 N106 1.377 1_554 S
C109 C122 1.479 . S
C110 C107 1.480 . S
C110 C111 1.383 1_556 S
C110 C115 1.385 . S
C111 H92 0.947 . S
C111 C110 1.383 1_554 S
C111 C112 1.388 . S
C112 H93 0.946 . S
C112 C111 1.388 . S
C112 C113 1.384 1_554 S
C113 C112 1.384 1_556 S
C113 C114 1.377 . S
C114 H94 0.953 . S
C114 C113 1.377 . S
C114 C115 1.369 . S
C115 H95 0.945 . S
C115 C110 1.385 . S
C115 C114 1.369 . S
C116 C108 1.457 . S
C116 C117 1.372 . S
C116 C121 1.364 . S
C117 H96 0.952 . S
C117 C116 1.372 . S
C117 C118 1.389 . S
C118 H97 0.949 . S
C118 C117 1.389 . S
C118 C119 1.387 . S
C119 C118 1.387 . S
C119 C120 1.372 . S
C120 H98 0.950 . S
C120 C119 1.372 . S
C120 C121 1.379 . S
C121 H99 0.948 . S
C121 C116 1.364 . S
C121 C120 1.379 . S
C122 C91 1.383 . S
C122 C109 1.479 . S
C122 C123 1.398 . S
C123 C88 1.382 . S
C123 H100 0.951 . S
C123 C122 1.398 . S
C124 C125 1.384 . S
C124 H137 0.947 . S
C124 C159 1.382 . S
C125 C124 1.384 . S
C125 C126 1.378 . S
C126 C125 1.378 . S
C126 C127 1.378 . S
C126 H138 0.952 . S
C127 C126 1.378 . S
C127 H139 0.950 . S
C127 C158 1.383 . S
H128 C147 0.947 . S
H129 C148 0.946 . S
H130 C150 0.953 . S
H131 C151 0.945 . S
H132 C153 0.952 . S
H133 C154 0.949 . S
H134 C156 0.950 . S
H135 C157 0.948 . S
H136 C159 0.951 . S
H137 C124 0.947 . S
H138 C126 0.952 . S
H139 C127 0.950 . S
N140 C143 1.382 1_655 S
N140 C145 1.363 . S
N141 C143 1.371 1_655 S
N141 C144 1.372 . S
N142 C144 1.361 . S
N142 C145 1.377 . S
C143 N140 1.382 1_455 S
C143 N141 1.371 1_455 S
C143 C146 1.480 . S
C144 N141 1.372 . S
C144 N142 1.361 . S
C144 C152 1.457 . S
C145 N140 1.363 . S
C145 N142 1.377 . S
C145 C158 1.479 . S
C146 C143 1.480 . S
C146 C147 1.383 . S
C146 C151 1.385 . S
C147 H128 0.947 . S
C147 C146 1.383 . S
C147 C148 1.388 . S
C148 H129 0.946 . S
C148 C147 1.388 . S
C148 C149 1.384 . S
C149 C148 1.384 . S
C149 C150 1.377 . S
C150 H130 0.953 . S
C150 C149 1.377 . S
C150 C151 1.369 . S
C151 H131 0.945 . S
C151 C146 1.385 . S
C151 C150 1.369 . S
C152 C144 1.457 . S
C152 C153 1.372 . S
C152 C157 1.364 . S
C153 H132 0.952 . S
C153 C152 1.372 . S
C153 C154 1.389 . S
C154 H133 0.949 . S
C154 C153 1.389 . S
C154 C155 1.387 . S
C155 C154 1.387 . S
C155 C156 1.372 . S
C156 H134 0.950 . S
C156 C155 1.372 . S
C156 C157 1.379 . S
C157 H135 0.948 . S
C157 C152 1.364 . S
C157 C156 1.379 . S
C158 C127 1.383 . S
C158 C145 1.479 . S
C158 C159 1.398 . S
C159 C124 1.382 . S
C159 H136 0.951 . S
C159 C158 1.398 . S
C160 C161 1.384 . S
C160 H173 0.947 . S
C160 C195 1.382 . S
C161 C160 1.384 . S
C161 C162 1.378 . S
C162 C161 1.378 . S
C162 C163 1.378 . S
C162 H174 0.952 . S
C163 C162 1.378 . S
C163 H175 0.950 . S
C163 C194 1.383 . S
H164 C183 0.947 . S
H165 C184 0.946 . S
H166 C186 0.953 . S
H167 C187 0.945 . S
H168 C189 0.952 . S
H169 C190 0.949 . S
H170 C192 0.950 . S
H171 C193 0.948 . S
H172 C195 0.951 . S
H173 C160 0.947 . S
H174 C162 0.952 . S
H175 C163 0.950 . S
N176 C179 1.382 1_556 S
N176 C181 1.363 . S
N177 C179 1.371 . S
N177 C180 1.372 . S
N178 C180 1.361 . S
N178 C181 1.377 1_554 S
C179 N176 1.382 1_554 S
C179 N177 1.371 . S
C179 C182 1.480 . S
C180 N177 1.372 . S
C180 N178 1.361 . S
C180 C188 1.457 . S
C181 N176 1.363 . S
C181 N178 1.377 1_556 S
C181 C194 1.479 . S
C182 C179 1.480 . S
C182 C183 1.383 1_554 S
C182 C187 1.385 . S
C183 H164 0.947 . S
C183 C182 1.383 1_556 S
C183 C184 1.388 . S
C184 H165 0.946 . S
C184 C183 1.388 . S
C184 C185 1.384 1_556 S
C185 C184 1.384 1_554 S
C185 C186 1.377 . S
C186 H166 0.953 . S
C186 C185 1.377 . S
C186 C187 1.369 . S
C187 H167 0.945 . S
C187 C182 1.385 . S
C187 C186 1.369 . S
C188 C180 1.457 . S
C188 C189 1.372 . S
C188 C193 1.364 . S
C189 H168 0.952 . S
C189 C188 1.372 . S
C189 C190 1.389 . S
C190 H169 0.949 . S
C190 C189 1.389 . S
C190 C191 1.387 . S
C191 C190 1.387 . S
C191 C192 1.372 . S
C192 H170 0.950 . S
C192 C191 1.372 . S
C192 C193 1.379 . S
C193 H171 0.948 . S
C193 C188 1.364 . S
C193 C192 1.379 . S
C194 C163 1.383 . S
C194 C181 1.479 . S
C194 C195 1.398 . S
C195 C160 1.382 . S
C195 H172 0.951 . S
C195 C194 1.398 . S
C196 C197 1.384 . S
C196 H209 0.947 . S
C196 C231 1.382 . S
C197 C196 1.384 . S
C197 C198 1.378 . S
C198 C197 1.378 . S
C198 C199 1.378 . S
C198 H210 0.952 . S
C199 C198 1.378 . S
C199 H211 0.950 . S
C199 C230 1.383 . S
H200 C219 0.947 . S
H201 C220 0.946 . S
H202 C222 0.953 . S
H203 C223 0.945 . S
H204 C225 0.952 . S
H205 C226 0.949 . S
H206 C228 0.950 . S
H207 C229 0.948 . S
H208 C231 0.951 . S
H209 C196 0.947 . S
H210 C198 0.952 . S
H211 C199 0.950 . S
N212 C215 1.382 1_455 S
N212 C217 1.363 . S
N213 C215 1.371 1_455 S
N213 C216 1.372 . S
N214 C216 1.361 . S
N214 C217 1.377 . S
C215 N212 1.382 1_655 S
C215 N213 1.371 1_655 S
C215 C218 1.480 . S
C216 N213 1.372 . S
C216 N214 1.361 . S
C216 C224 1.457 . S
C217 N212 1.363 . S
C217 N214 1.377 . S
C217 C230 1.479 . S
C218 C215 1.480 . S
C218 C219 1.383 . S
C218 C223 1.385 . S
C219 H200 0.947 . S
C219 C218 1.383 . S
C219 C220 1.388 . S
C220 H201 0.946 . S
C220 C219 1.388 . S
C220 C221 1.384 . S
C221 C220 1.384 . S
C221 C222 1.377 . S
C222 H202 0.953 . S
C222 C221 1.377 . S
C222 C223 1.369 . S
C223 H203 0.945 . S
C223 C218 1.385 . S
C223 C222 1.369 . S
C224 C216 1.457 . S
C224 C225 1.372 . S
C224 C229 1.364 . S
C225 H204 0.952 . S
C225 C224 1.372 . S
C225 C226 1.389 . S
C226 H205 0.949 . S
C226 C225 1.389 . S
C226 C227 1.387 . S
C227 C226 1.387 . S
C227 C228 1.372 . S
C228 H206 0.950 . S
C228 C227 1.372 . S
C228 C229 1.379 . S
C229 H207 0.948 . S
C229 C224 1.364 . S
C229 C228 1.379 . S
C230 C199 1.383 . S
C230 C217 1.479 . S
C230 C231 1.398 . S
C231 C196 1.382 . S
C231 H208 0.951 . S
C231 C230 1.398 . S
C232 C233 1.384 . S
C232 H245 0.947 . S
C232 C267 1.382 . S
C233 C232 1.384 . S
C233 C234 1.378 . S
C234 C233 1.378 . S
C234 C235 1.378 . S
C234 H246 0.952 . S
C235 C234 1.378 . S
C235 H247 0.950 1_565 S
C235 C266 1.383 . S
H236 C255 0.947 . S
H237 C256 0.946 . S
H238 C258 0.953 . S
H239 C259 0.945 . S
H240 C261 0.952 . S
H241 C262 0.949 . S
H242 C264 0.950 . S
H243 C265 0.948 . S
H244 C267 0.951 . S
H245 C232 0.947 . S
H246 C234 0.952 . S
H247 C235 0.950 1_545 S
N248 C251 1.382 . S
N248 C253 1.363 1_545 S
N249 C251 1.371 . S
N249 C252 1.372 1_545 S
N250 C252 1.361 . S
N250 C253 1.377 . S
C251 N248 1.382 . S
C251 N249 1.371 . S
C251 C254 1.480 . S
C252 N249 1.372 1_565 S
C252 N250 1.361 . S
C252 C260 1.457 . S
C253 N248 1.363 1_565 S
C253 N250 1.377 . S
C253 C266 1.479 . S
C254 C251 1.480 . S
C254 C255 1.383 . S
C254 C259 1.385 . S
C255 H236 0.947 . S
C255 C254 1.383 . S
C255 C256 1.388 . S
C256 H237 0.946 . S
C256 C255 1.388 . S
C256 C257 1.384 . S
C257 C256 1.384 . S
C257 C258 1.377 . S
C258 H238 0.953 . S
C258 C257 1.377 . S
C258 C259 1.369 . S
C259 H239 0.945 . S
C259 C254 1.385 . S
C259 C258 1.369 . S
C260 C252 1.457 . S
C260 C261 1.372 . S
C260 C265 1.364 . S
C261 H240 0.952 . S
C261 C260 1.372 . S
C261 C262 1.389 . S
C262 H241 0.949 . S
C262 C261 1.389 . S
C262 C263 1.387 . S
C263 C262 1.387 . S
C263 C264 1.372 . S
C264 H242 0.950 . S
C264 C263 1.372 . S
C264 C265 1.379 . S
C265 H243 0.948 . S
C265 C260 1.364 . S
C265 C264 1.379 . S
C266 C235 1.383 . S
C266 C253 1.479 . S
C266 C267 1.398 . S
C267 C232 1.382 . S
C267 H244 0.951 . S
C267 C266 1.398 . S
C268 C269 1.384 . S
C268 H281 0.947 . S
C268 C303 1.382 . S
C269 C268 1.384 . S
C269 C270 1.378 . S
C270 C269 1.378 . S
C270 C271 1.378 . S
C270 H282 0.952 . S
C271 C270 1.378 . S
C271 H283 0.950 . S
C271 C302 1.383 . S
H272 C291 0.947 . S
H273 C292 0.946 . S
H274 C294 0.953 . S
H275 C295 0.945 . S
H276 C297 0.952 . S
H277 C298 0.949 . S
H278 C300 0.950 . S
H279 C301 0.948 . S
H280 C303 0.951 . S
H281 C268 0.947 . S
H282 C270 0.952 . S
H283 C271 0.950 . S
N284 C287 1.382 1_556 S
N284 C289 1.363 . S
N285 C287 1.371 . S
N285 C288 1.372 . S
N286 C288 1.361 . S
N286 C289 1.377 1_554 S
C287 N284 1.382 1_554 S
C287 N285 1.371 . S
C287 C290 1.480 . S
C288 N285 1.372 . S
C288 N286 1.361 . S
C288 C296 1.457 . S
C289 N284 1.363 . S
C289 N286 1.377 1_556 S
C289 C302 1.479 . S
C290 C287 1.480 . S
C290 C291 1.383 1_554 S
C290 C295 1.385 . S
C291 H272 0.947 . S
C291 C290 1.383 1_556 S
C291 C292 1.388 . S
C292 H273 0.946 . S
C292 C291 1.388 . S
C292 C293 1.384 1_556 S
C293 C292 1.384 1_554 S
C293 C294 1.377 . S
C294 H274 0.953 . S
C294 C293 1.377 . S
C294 C295 1.369 . S
C295 H275 0.945 . S
C295 C290 1.385 . S
C295 C294 1.369 . S
C296 C288 1.457 . S
C296 C297 1.372 . S
C296 C301 1.364 . S
C297 H276 0.952 . S
C297 C296 1.372 . S
C297 C298 1.389 . S
C298 H277 0.949 . S
C298 C297 1.389 . S
C298 C299 1.387 . S
C299 C298 1.387 . S
C299 C300 1.372 . S
C300 H278 0.950 . S
C300 C299 1.372 . S
C300 C301 1.379 . S
C301 H279 0.948 . S
C301 C296 1.364 . S
C301 C300 1.379 . S
C302 C271 1.383 . S
C302 C289 1.479 . S
C302 C303 1.398 . S
C303 C268 1.382 . S
C303 H280 0.951 . S
C303 C302 1.398 . S
C304 C305 1.384 . S
C304 H317 0.947 . S
C304 C339 1.382 . S
C305 C304 1.384 . S
C305 C306 1.378 . S
C306 C305 1.378 . S
C306 C307 1.378 . S
C306 H318 0.952 . S
C307 C306 1.378 . S
C307 H319 0.950 . S
C307 C338 1.383 . S
H308 C327 0.947 . S
H309 C328 0.946 . S
H310 C330 0.953 . S
H311 C331 0.945 . S
H312 C333 0.952 . S
H313 C334 0.949 . S
H314 C336 0.950 . S
H315 C337 0.948 . S
H316 C339 0.951 . S
H317 C304 0.947 . S
H318 C306 0.952 . S
H319 C307 0.950 . S
N320 C323 1.384 . S
N320 C325 1.359 1_565 S
N321 C323 1.371 . S
N321 C324 1.372 1_565 S
N322 C324 1.361 . S
N322 C325 1.377 . S
C323 N320 1.384 . S
C323 N321 1.371 . S
C323 C326 1.480 . S
C324 N321 1.372 1_545 S
C324 N322 1.361 . S
C324 C332 1.457 . S
C325 N320 1.359 1_545 S
C325 N322 1.377 . S
C325 C338 1.479 . S
C326 C323 1.480 . S
C326 C327 1.383 . S
C326 C331 1.385 . S
C327 H308 0.947 . S
C327 C326 1.383 . S
C327 C328 1.388 . S
C328 H309 0.946 . S
C328 C327 1.388 . S
C328 C329 1.384 . S
C329 C328 1.384 . S
C329 C330 1.377 . S
C330 H310 0.953 . S
C330 C329 1.377 . S
C330 C331 1.369 . S
C331 H311 0.945 . S
C331 C326 1.385 . S
C331 C330 1.369 . S
C332 C324 1.457 . S
C332 C333 1.372 . S
C332 C337 1.364 . S
C333 H312 0.952 . S
C333 C332 1.372 . S
C333 C334 1.389 . S
C334 H313 0.949 . S
C334 C333 1.389 . S
C334 C335 1.387 . S
C335 C334 1.387 . S
C335 C336 1.372 . S
C336 H314 0.950 . S
C336 C335 1.372 . S
C336 C337 1.379 . S
C337 H315 0.948 . S
C337 C332 1.364 . S
C337 C336 1.379 . S
C338 C307 1.383 . S
C338 C325 1.479 . S
C338 C339 1.398 . S
C339 C304 1.382 . S
C339 H316 0.951 . S
C339 C338 1.398 . S
C340 C341 1.384 . S
C340 H353 0.947 . S
C340 C375 1.382 . S
C341 C340 1.384 . S
C341 C342 1.378 . S
C342 C341 1.378 . S
C342 C343 1.378 . S
C342 H354 0.952 . S
C343 C342 1.378 . S
C343 H355 0.950 . S
C343 C374 1.383 . S
H344 C363 0.947 . S
H345 C364 0.946 . S
H346 C366 0.953 . S
H347 C367 0.945 . S
H348 C369 0.952 . S
H349 C370 0.949 . S
H350 C372 0.950 . S
H351 C373 0.948 . S
H352 C375 0.951 . S
H353 C340 0.947 . S
H354 C342 0.952 . S
H355 C343 0.950 . S
N356 C359 1.382 1_554 S
N356 C361 1.363 . S
N357 C359 1.371 . S
N357 C360 1.372 . S
N358 C360 1.361 . S
N358 C361 1.377 1_556 S
C359 N356 1.382 1_556 S
C359 N357 1.371 . S
C359 C362 1.480 . S
C360 N357 1.372 . S
C360 N358 1.361 . S
C360 C368 1.457 . S
C361 N356 1.363 . S
C361 N358 1.377 1_554 S
C361 C374 1.479 . S
C362 C359 1.480 . S
C362 C363 1.383 1_556 S
C362 C367 1.385 . S
C363 H344 0.947 . S
C363 C362 1.383 1_554 S
C363 C364 1.388 . S
C364 H345 0.946 . S
C364 C363 1.388 . S
C364 C365 1.384 1_554 S
C365 C364 1.384 1_556 S
C365 C366 1.377 . S
C366 H346 0.953 . S
C366 C365 1.377 . S
C366 C367 1.369 . S
C367 H347 0.945 . S
C367 C362 1.385 . S
C367 C366 1.369 . S
C368 C360 1.457 . S
C368 C369 1.372 . S
C368 C373 1.364 . S
C369 H348 0.952 . S
C369 C368 1.372 . S
C369 C370 1.389 . S
C370 H349 0.949 . S
C370 C369 1.389 . S
C370 C371 1.387 . S
C371 C370 1.387 . S
C371 C372 1.372 . S
C372 H350 0.950 . S
C372 C371 1.372 . S
C372 C373 1.379 . S
C373 H351 0.948 . S
C373 C368 1.364 . S
C373 C372 1.379 . S
C374 C343 1.383 . S
C374 C361 1.479 . S
C374 C375 1.398 . S
C375 C340 1.382 . S
C375 H352 0.951 . S
C375 C374 1.398 . S
C376 C377 1.363 . S
C376 C382 1.379 . S
C376 N384 1.356 . S
C377 C376 1.363 . S
C377 C383 1.363 . S
C378 C379 1.363 . S
C378 C383 1.379 . S
C378 N385 1.356 . S
C379 C378 1.363 . S
C379 C382 1.363 . S
N380 C382 1.356 . S
N380 H392 0.984 . S
N380 H393 0.985 . S
N381 C383 1.356 . S
N381 H386 0.984 . S
N381 H387 0.985 . S
C382 C376 1.379 . S
C382 C379 1.363 . S
C382 N380 1.356 . S
C383 C377 1.363 . S
C383 C378 1.379 . S
C383 N381 1.356 . S
N384 C376 1.356 . S
N384 H390 0.984 . S
N384 H391 0.984 . S
N385 C378 1.356 . S
N385 H388 0.984 . S
N385 H389 0.985 . S
H386 N381 0.984 . S
H387 N381 0.985 . S
H388 N385 0.984 . S
H389 N385 0.985 . S
H390 N384 0.984 . S
H391 N384 0.984 . S
H392 N380 0.984 . S
H393 N380 0.985 . S
C394 C395 1.363 . S
C394 C400 1.379 . S
C394 N402 1.356 . S
C395 C394 1.363 . S
C395 C401 1.363 . S
C396 C397 1.363 . S
C396 C401 1.379 . S
C396 N403 1.356 . S
C397 C396 1.363 . S
C397 C400 1.363 . S
N398 C400 1.356 . S
N398 H410 0.984 . S
N398 H411 0.985 . S
N399 C401 1.356 . S
N399 H404 0.984 . S
N399 H405 0.985 . S
C400 C394 1.379 . S
C400 C397 1.363 . S
C400 N398 1.356 . S
C401 C395 1.363 . S
C401 C396 1.379 . S
C401 N399 1.356 . S
N402 C394 1.356 . S
N402 H408 0.984 . S
N402 H409 0.984 . S
N403 C396 1.356 . S
N403 H406 0.984 . S
N403 H407 0.985 . S
H404 N399 0.984 . S
H405 N399 0.985 . S
H406 N403 0.984 . S
H407 N403 0.985 . S
H408 N402 0.984 . S
H409 N402 0.984 . S
H410 N398 0.984 . S
H411 N398 0.985 . S
C412 C413 1.363 . S
C412 C418 1.379 . S
C412 N420 1.356 . S
C413 C412 1.363 . S
C413 C419 1.363 . S
C414 C415 1.363 . S
C414 C419 1.379 . S
C414 N421 1.356 . S
C415 C414 1.363 . S
C415 C418 1.363 . S
N416 C418 1.356 . S
N416 H428 0.984 . S
N416 H429 0.985 . S
N417 C419 1.356 . S
N417 H422 0.984 . S
N417 H423 0.985 . S
C418 C412 1.379 . S
C418 C415 1.363 . S
C418 N416 1.356 . S
C419 C413 1.363 . S
C419 C414 1.379 . S
C419 N417 1.356 . S
N420 C412 1.356 . S
N420 H426 0.984 . S
N420 H427 0.984 . S
N421 C414 1.356 . S
N421 H424 0.984 . S
N421 H425 0.985 . S
H422 N417 0.984 . S
H423 N417 0.985 . S
H424 N421 0.984 . S
H425 N421 0.985 . S
H426 N420 0.984 . S
H427 N420 0.984 . S
H428 N416 0.984 . S
H429 N416 0.985 . S
C430 C431 1.363 . S
C430 C436 1.379 . S
C430 N438 1.356 . S
C431 C430 1.363 . S
C431 C437 1.363 . S
C432 C433 1.363 . S
C432 C437 1.379 . S
C432 N439 1.356 . S
C433 C432 1.363 . S
C433 C436 1.363 . S
N434 C436 1.356 . S
N434 H446 0.984 . S
N434 H447 0.985 . S
N435 C437 1.356 . S
N435 H440 0.984 . S
N435 H441 0.985 . S
C436 C430 1.379 . S
C436 C433 1.363 . S
C436 N434 1.356 . S
C437 C431 1.363 . S
C437 C432 1.379 . S
C437 N435 1.356 . S
N438 C430 1.356 . S
N438 H444 0.984 . S
N438 H445 0.984 . S
N439 C432 1.356 . S
N439 H442 0.984 . S
N439 H443 0.985 . S
H440 N435 0.984 . S
H441 N435 0.985 . S
H442 N439 0.984 . S
H443 N439 0.985 . S
H444 N438 0.984 . S
H445 N438 0.984 . S
H446 N434 0.984 . S
H447 N434 0.985 . S
C448 C449 1.363 . S
C448 C454 1.379 . S
C448 N456 1.356 . S
C449 C448 1.363 . S
C449 C455 1.363 . S
C450 C451 1.363 . S
C450 C455 1.379 . S
C450 N457 1.356 . S
C451 C450 1.363 . S
C451 C454 1.363 . S
N452 C454 1.356 . S
N452 H464 0.984 . S
N452 H465 0.985 . S
N453 C455 1.356 . S
N453 H458 0.984 . S
N453 H459 0.985 . S
C454 C448 1.379 . S
C454 C451 1.363 . S
C454 N452 1.356 . S
C455 C449 1.363 . S
C455 C450 1.379 . S
C455 N453 1.356 . S
N456 C448 1.356 . S
N456 H462 0.984 . S
N456 H463 0.984 . S
N457 C450 1.356 . S
N457 H460 0.984 . S
N457 H461 0.985 . S
H458 N453 0.984 . S
H459 N453 0.985 . S
H460 N457 0.984 . S
H461 N457 0.985 . S
H462 N456 0.984 . S
H463 N456 0.984 . S
H464 N452 0.984 . S
H465 N452 0.985 . S
C466 C467 1.363 . S
C466 C472 1.379 . S
C466 N474 1.356 . S
C467 C466 1.363 . S
C467 C473 1.363 . S
C468 C469 1.363 . S
C468 C473 1.379 . S
C468 N475 1.356 . S
C469 C468 1.363 . S
C469 C472 1.363 . S
N470 C472 1.356 . S
N470 H482 0.984 . S
N470 H483 0.985 . S
N471 C473 1.356 . S
N471 H476 0.984 . S
N471 H477 0.985 . S
C472 C466 1.379 . S
C472 C469 1.363 . S
C472 N470 1.356 . S
C473 C467 1.363 . S
C473 C468 1.379 . S
C473 N471 1.356 . S
N474 C466 1.356 . S
N474 H480 0.984 . S
N474 H481 0.984 . S
N475 C468 1.356 . S
N475 H478 0.984 . S
N475 H479 0.985 . S
H476 N471 0.984 . S
H477 N471 0.985 . S
H478 N475 0.984 . S
H479 N475 0.985 . S
H480 N474 0.984 . S
H481 N474 0.984 . S
H482 N470 0.984 . S
H483 N470 0.985 . S
C484 C485 1.363 . S
C484 C490 1.379 . S
C484 N492 1.356 . S
C485 C484 1.363 . S
C485 C491 1.363 . S
C486 C487 1.363 . S
C486 C491 1.379 . S
C486 N493 1.356 . S
C487 C486 1.363 . S
C487 C490 1.363 . S
N488 C490 1.356 . S
N488 H500 0.984 . S
N488 H501 0.985 . S
N489 C491 1.356 . S
N489 H494 0.984 . S
N489 H495 0.985 . S
C490 C484 1.379 . S
C490 C487 1.363 . S
C490 N488 1.356 . S
C491 C485 1.363 . S
C491 C486 1.379 . S
C491 N489 1.356 . S
N492 C484 1.356 . S
N492 H498 0.984 . S
N492 H499 0.984 . S
N493 C486 1.356 . S
N493 H496 0.984 . S
N493 H497 0.985 . S
H494 N489 0.984 . S
H495 N489 0.985 . S
H496 N493 0.984 . S
H497 N493 0.985 . S
H498 N492 0.984 . S
H499 N492 0.984 . S
H500 N488 0.984 . S
H501 N488 0.985 . S
C502 C503 1.363 . S
C502 C508 1.379 . S
C502 N510 1.356 . S
C503 C502 1.363 . S
C503 C509 1.363 . S
C504 C505 1.363 . S
C504 C509 1.379 . S
C504 N511 1.356 . S
C505 C504 1.363 . S
C505 C508 1.363 . S
N506 C508 1.356 . S
N506 H518 0.984 . S
N506 H519 0.985 . S
N507 C509 1.356 . S
N507 H512 0.984 . S
N507 H513 0.985 . S
C508 C502 1.379 . S
C508 C505 1.363 . S
C508 N506 1.356 . S
C509 C503 1.363 . S
C509 C504 1.379 . S
C509 N507 1.356 . S
N510 C502 1.356 . S
N510 H516 0.984 . S
N510 H517 0.984 . S
N511 C504 1.356 . S
N511 H514 0.984 . S
N511 H515 0.985 . S
H512 N507 0.984 . S
H513 N507 0.985 . S
H514 N511 0.984 . S
H515 N511 0.985 . S
H516 N510 0.984 . S
H517 N510 0.984 . S
H518 N506 0.984 . S
H519 N506 0.985 . S
C520 C521 1.363 . S
C520 C526 1.379 . S
C520 N528 1.356 . S
C521 C520 1.363 . S
C521 C527 1.363 . S
C522 C523 1.363 . S
C522 C527 1.379 . S
C522 N529 1.356 . S
C523 C522 1.363 . S
C523 C526 1.363 . S
N524 C526 1.356 . S
N524 H536 0.984 . S
N524 H537 0.985 . S
N525 C527 1.356 . S
N525 H530 0.984 . S
N525 H531 0.985 . S
C526 C520 1.379 . S
C526 C523 1.363 . S
C526 N524 1.356 . S
C527 C521 1.363 . S
C527 C522 1.379 . S
C527 N525 1.356 . S
N528 C520 1.356 . S
N528 H534 0.984 . S
N528 H535 0.984 . S
N529 C522 1.356 . S
N529 H532 0.984 . S
N529 H533 0.985 . S
H530 N525 0.984 . S
H531 N525 0.985 . S
H532 N529 0.984 . S
H533 N529 0.985 . S
H534 N528 0.984 . S
H535 N528 0.984 . S
H536 N524 0.984 . S
H537 N524 0.985 . S
C538 C539 1.363 . S
C538 C544 1.379 . S
C538 N546 1.356 . S
C539 C538 1.363 . S
C539 C545 1.363 . S
C540 C541 1.363 . S
C540 C545 1.379 . S
C540 N547 1.356 . S
C541 C540 1.363 . S
C541 C544 1.363 . S
N542 C544 1.356 . S
N542 H554 0.984 . S
N542 H555 0.985 . S
N543 C545 1.356 . S
N543 H548 0.984 . S
N543 H549 0.985 . S
C544 C538 1.379 . S
C544 C541 1.363 . S
C544 N542 1.356 . S
C545 C539 1.363 . S
C545 C540 1.379 . S
C545 N543 1.356 . S
N546 C538 1.356 . S
N546 H552 0.984 . S
N546 H553 0.984 . S
N547 C540 1.356 . S
N547 H550 0.984 . S
N547 H551 0.985 . S
H548 N543 0.984 . S
H549 N543 0.985 . S
H550 N547 0.984 . S
H551 N547 0.985 . S
H552 N546 0.984 . S
H553 N546 0.984 . S
H554 N542 0.984 . S
H555 N542 0.985 . S
C556 C557 1.363 . S
C556 C562 1.379 . S
C556 N564 1.356 . S
C557 C556 1.363 . S
C557 C563 1.363 . S
C558 C559 1.363 . S
C558 C563 1.379 . S
C558 N565 1.356 . S
C559 C558 1.363 . S
C559 C562 1.363 . S
N560 C562 1.356 . S
N560 H572 0.984 . S
N560 H573 0.985 . S
N561 C563 1.356 . S
N561 H566 0.984 . S
N561 H567 0.985 . S
C562 C556 1.379 . S
C562 C559 1.363 . S
C562 N560 1.356 . S
C563 C557 1.363 . S
C563 C558 1.379 . S
C563 N561 1.356 . S
N564 C556 1.356 . S
N564 H570 0.984 . S
N564 H571 0.984 . S
N565 C558 1.356 . S
N565 H568 0.984 . S
N565 H569 0.985 . S
H566 N561 0.984 . S
H567 N561 0.985 . S
H568 N565 0.984 . S
H569 N565 0.985 . S
H570 N564 0.984 . S
H571 N564 0.984 . S
H572 N560 0.984 . S
H573 N560 0.985 . S
C574 C575 1.363 . S
C574 C580 1.379 . S
C574 N582 1.356 . S
C575 C574 1.363 . S
C575 C581 1.363 . S
C576 C577 1.363 . S
C576 C581 1.379 . S
C576 N583 1.356 . S
C577 C576 1.363 . S
C577 C580 1.363 . S
N578 C580 1.356 . S
N578 H590 0.984 . S
N578 H591 0.985 . S
N579 C581 1.356 . S
N579 H584 0.984 . S
N579 H585 0.985 . S
C580 C574 1.379 . S
C580 C577 1.363 . S
C580 N578 1.356 . S
C581 C575 1.363 . S
C581 C576 1.379 . S
C581 N579 1.356 . S
N582 C574 1.356 . S
N582 H588 0.984 . S
N582 H589 0.984 . S
N583 C576 1.356 . S
N583 H586 0.984 . S
N583 H587 0.985 . S
H584 N579 0.984 . S
H585 N579 0.985 . S
H586 N583 0.984 . S
H587 N583 0.985 . S
H588 N582 0.984 . S
H589 N582 0.984 . S
H590 N578 0.984 . S
H591 N578 0.985 . S
C592 C593 1.363 . S
C592 C598 1.379 . S
C592 N600 1.356 . S
C593 C592 1.363 . S
C593 C599 1.363 . S
C594 C595 1.363 . S
C594 C599 1.379 . S
C594 N601 1.356 . S
C595 C594 1.363 . S
C595 C598 1.363 . S
N596 C598 1.356 . S
N596 H608 0.984 . S
N596 H609 0.985 . S
N597 C599 1.356 . S
N597 H602 0.984 . S
N597 H603 0.985 . S
C598 C592 1.379 . S
C598 C595 1.363 . S
C598 N596 1.356 . S
C599 C593 1.363 . S
C599 C594 1.379 . S
C599 N597 1.356 . S
N600 C592 1.356 . S
N600 H606 0.984 . S
N600 H607 0.984 . S
N601 C594 1.356 . S
N601 H604 0.984 . S
N601 H605 0.985 . S
H602 N597 0.984 . S
H603 N597 0.985 . S
H604 N601 0.984 . S
H605 N601 0.985 . S
H606 N600 0.984 . S
H607 N600 0.984 . S
H608 N596 0.984 . S
H609 N596 0.985 . S
C610 C611 1.363 . S
C610 C616 1.379 . S
C610 N618 1.356 . S
C611 C610 1.363 . S
C611 C617 1.363 . S
C612 C613 1.363 . S
C612 C617 1.379 . S
C612 N619 1.356 . S
C613 C612 1.363 . S
C613 C616 1.363 . S
N614 C616 1.356 . S
N614 H626 0.984 . S
N614 H627 0.985 . S
N615 C617 1.356 . S
N615 H620 0.984 . S
N615 H621 0.985 . S
C616 C610 1.379 . S
C616 C613 1.363 . S
C616 N614 1.356 . S
C617 C611 1.363 . S
C617 C612 1.379 . S
C617 N615 1.356 . S
N618 C610 1.356 . S
N618 H624 0.984 . S
N618 H625 0.984 . S
N619 C612 1.356 . S
N619 H622 0.984 . S
N619 H623 0.985 . S
H620 N615 0.984 . S
H621 N615 0.985 . S
H622 N619 0.984 . S
H623 N619 0.985 . S
H624 N618 0.984 . S
H625 N618 0.984 . S
H626 N614 0.984 . S
H627 N614 0.985 . S
C628 C629 1.363 . S
C628 C634 1.379 . S
C628 N636 1.356 . S
C629 C628 1.363 . S
C629 C635 1.363 . S
C630 C631 1.363 . S
C630 C635 1.379 . S
C630 N637 1.356 . S
C631 C630 1.363 . S
C631 C634 1.363 . S
N632 C634 1.356 . S
N632 H644 0.984 . S
N632 H645 0.985 . S
N633 C635 1.356 . S
N633 H638 0.984 . S
N633 H639 0.985 . S
C634 C628 1.379 . S
C634 C631 1.363 . S
C634 N632 1.356 . S
C635 C629 1.363 . S
C635 C630 1.379 . S
C635 N633 1.356 . S
N636 C628 1.356 . S
N636 H642 0.984 . S
N636 H643 0.984 . S
N637 C630 1.356 . S
N637 H640 0.984 . S
N637 H641 0.985 . S
H638 N633 0.984 . S
H639 N633 0.985 . S
H640 N637 0.984 . S
H641 N637 0.985 . S
H642 N636 0.984 . S
H643 N636 0.984 . S
H644 N632 0.984 . S
H645 N632 0.985 . S
C646 C647 1.363 . S
C646 C652 1.379 . S
C646 N654 1.356 . S
C647 C646 1.363 . S
C647 C653 1.363 . S
C648 C649 1.363 . S
C648 C653 1.379 . S
C648 N655 1.356 . S
C649 C648 1.363 . S
C649 C652 1.363 . S
N650 C652 1.356 . S
N650 H662 0.984 . S
N650 H663 0.985 . S
N651 C653 1.356 . S
N651 H656 0.984 . S
N651 H657 0.985 . S
C652 C646 1.379 . S
C652 C649 1.363 . S
C652 N650 1.356 . S
C653 C647 1.363 . S
C653 C648 1.379 . S
C653 N651 1.356 . S
N654 C646 1.356 . S
N654 H660 0.984 . S
N654 H661 0.984 . S
N655 C648 1.356 . S
N655 H658 0.984 . S
N655 H659 0.985 . S
H656 N651 0.984 . S
H657 N651 0.985 . S
H658 N655 0.984 . S
H659 N655 0.985 . S
H660 N654 0.984 . S
H661 N654 0.984 . S
H662 N650 0.984 . S
H663 N650 0.985 . S
C664 C665 1.363 . S
C664 C670 1.379 . S
C664 N672 1.356 . S
C665 C664 1.363 . S
C665 C671 1.363 1_554 S
C666 C667 1.360 1_556 S
C666 C671 1.379 . S
C666 N673 1.356 . S
C667 C666 1.360 1_554 S
C667 C670 1.367 . S
N668 C670 1.356 . S
N668 H680 0.984 . S
N668 H681 0.985 . S
N669 C671 1.356 . S
N669 H674 0.984 . S
N669 H675 0.985 . S
C670 C664 1.379 . S
C670 C667 1.367 . S
C670 N668 1.356 . S
C671 C665 1.363 1_556 S
C671 C666 1.379 . S
C671 N669 1.356 . S
N672 C664 1.356 . S
N672 H678 0.984 . S
N672 H679 0.984 . S
N673 C666 1.356 . S
N673 H676 0.984 . S
N673 H677 0.985 . S
H674 N669 0.984 . S
H675 N669 0.985 . S
H676 N673 0.984 . S
H677 N673 0.985 . S
H678 N672 0.984 . S
H679 N672 0.984 . S
H680 N668 0.984 . S
H681 N668 0.985 . S
C682 C683 1.363 . S
C682 C688 1.379 . S
C682 N690 1.356 . S
C683 C682 1.363 . S
C683 C689 1.363 . S
C684 C685 1.363 . S
C684 C689 1.379 . S
C684 N691 1.356 . S
C685 C684 1.363 . S
C685 C688 1.363 . S
N686 C688 1.356 . S
N686 H698 0.984 . S
N686 H699 0.985 . S
N687 C689 1.356 . S
N687 H692 0.984 . S
N687 H693 0.985 . S
C688 C682 1.379 . S
C688 C685 1.363 . S
C688 N686 1.356 . S
C689 C683 1.363 . S
C689 C684 1.379 . S
C689 N687 1.356 . S
N690 C682 1.356 . S
N690 H696 0.984 . S
N690 H697 0.984 . S
N691 C684 1.356 . S
N691 H694 0.984 . S
N691 H695 0.985 . S
H692 N687 0.984 . S
H693 N687 0.985 . S
H694 N691 0.984 . S
H695 N691 0.985 . S
H696 N690 0.984 . S
H697 N690 0.984 . S
H698 N686 0.984 . S
H699 N686 0.985 . S
C700 C701 1.363 1_556 S
C700 C706 1.379 . S
C700 N708 1.356 . S
C701 C700 1.363 1_554 S
C701 C707 1.363 . S
C702 C703 1.363 . S
C702 C707 1.379 . S
C702 N709 1.356 . S
C703 C702 1.363 . S
C703 C706 1.363 1_554 S
N704 C706 1.356 . S
N704 H716 0.984 . S
N704 H717 0.985 . S
N705 C707 1.356 . S
N705 H710 0.984 . S
N705 H711 0.985 . S
C706 C700 1.379 . S
C706 C703 1.363 1_556 S
C706 N704 1.356 . S
C707 C701 1.363 . S
C707 C702 1.379 . S
C707 N705 1.356 . S
N708 C700 1.356 . S
N708 H714 0.984 . S
N708 H715 0.984 . S
N709 C702 1.356 . S
N709 H712 0.984 . S
N709 H713 0.985 . S
H710 N705 0.984 . S
H711 N705 0.985 . S
H712 N709 0.984 . S
H713 N709 0.985 . S
H714 N708 0.984 . S
H715 N708 0.984 . S
H716 N704 0.984 . S
H717 N704 0.985 . S
C718 C719 1.363 . S
C718 C724 1.379 . S
C718 N726 1.356 . S
C719 C718 1.363 . S
C719 C725 1.363 . S
C720 C721 1.363 . S
C720 C725 1.379 . S
C720 N727 1.356 . S
C721 C720 1.363 . S
C721 C724 1.363 . S
N722 C724 1.356 . S
N722 H734 0.984 . S
N722 H735 0.985 . S
N723 C725 1.356 . S
N723 H728 0.984 . S
N723 H729 0.985 . S
C724 C718 1.379 . S
C724 C721 1.363 . S
C724 N722 1.356 . S
C725 C719 1.363 . S
C725 C720 1.379 . S
C725 N723 1.356 . S
N726 C718 1.356 . S
N726 H732 0.984 . S
N726 H733 0.984 . S
N727 C720 1.356 . S
N727 H730 0.984 . S
N727 H731 0.985 . S
H728 N723 0.984 . S
H729 N723 0.985 . S
H730 N727 0.984 . S
H731 N727 0.985 . S
H732 N726 0.984 . S
H733 N726 0.984 . S
H734 N722 0.984 . S
H735 N722 0.985 . S
C736 C737 1.363 . S
C736 C742 1.379 . S
C736 N744 1.356 . S
C737 C736 1.363 . S
C737 C743 1.363 . S
C738 C739 1.363 . S
C738 C743 1.379 . S
C738 N745 1.356 . S
C739 C738 1.363 . S
C739 C742 1.363 . S
N740 C742 1.356 . S
N740 H752 0.984 . S
N740 H753 0.985 . S
N741 C743 1.356 . S
N741 H746 0.984 . S
N741 H747 0.985 . S
C742 C736 1.379 . S
C742 C739 1.363 . S
C742 N740 1.356 . S
C743 C737 1.363 . S
C743 C738 1.379 . S
C743 N741 1.356 . S
N744 C736 1.356 . S
N744 H750 0.984 . S
N744 H751 0.984 . S
N745 C738 1.356 . S
N745 H748 0.984 . S
N745 H749 0.985 . S
H746 N741 0.984 . S
H747 N741 0.985 . S
H748 N745 0.984 . S
H749 N745 0.985 . S
H750 N744 0.984 . S
H751 N744 0.984 . S
H752 N740 0.984 . S
H753 N740 0.985 . S
C754 C755 1.373 . S
C754 C760 1.379 . S
C754 N762 1.356 . S
C755 C754 1.373 . S
C755 C761 1.353 1_554 S
C756 C757 1.349 1_556 S
C756 C761 1.379 . S
C756 N763 1.356 . S
C757 C756 1.349 1_554 S
C757 C760 1.377 . S
N758 C760 1.356 . S
N758 H770 0.984 . S
N758 H771 0.985 . S
N759 C761 1.356 . S
N759 H764 0.984 . S
N759 H765 0.985 . S
C760 C754 1.379 . S
C760 C757 1.377 . S
C760 N758 1.356 . S
C761 C755 1.353 1_556 S
C761 C756 1.379 . S
C761 N759 1.356 . S
N762 C754 1.356 . S
N762 H768 0.984 . S
N762 H769 0.984 . S
N763 C756 1.356 . S
N763 H766 0.984 . S
N763 H767 0.985 . S
H764 N759 0.984 . S
H765 N759 0.985 . S
H766 N763 0.984 . S
H767 N763 0.985 . S
H768 N762 0.984 . S
H769 N762 0.984 . S
H770 N758 0.984 . S
H771 N758 0.985 . S
C772 C773 1.363 . S
C772 C778 1.379 . S
C772 N780 1.356 . S
C773 C772 1.363 . S
C773 C779 1.363 . S
C774 C775 1.363 . S
C774 C779 1.379 . S
C774 N781 1.356 . S
C775 C774 1.363 . S
C775 C778 1.363 . S
N776 C778 1.356 . S
N776 H788 0.984 . S
N776 H789 0.985 . S
N777 C779 1.356 . S
N777 H782 0.984 . S
N777 H783 0.985 . S
C778 C772 1.379 . S
C778 C775 1.363 . S
C778 N776 1.356 . S
C779 C773 1.363 . S
C779 C774 1.379 . S
C779 N777 1.356 . S
N780 C772 1.356 . S
N780 H786 0.984 . S
N780 H787 0.984 . S
N781 C774 1.356 . S
N781 H784 0.984 . S
N781 H785 0.985 . S
H782 N777 0.984 . S
H783 N777 0.985 . S
H784 N781 0.984 . S
H785 N781 0.985 . S
H786 N780 0.984 . S
H787 N780 0.984 . S
H788 N776 0.984 . S
H789 N776 0.985 . S
C790 C791 1.366 . S
C790 C796 1.379 . S
C790 N798 1.356 . S
C791 C790 1.366 . S
C791 C797 1.360 1_554 S
C792 C793 1.352 1_556 S
C792 C797 1.379 . S
C792 N799 1.356 . S
C793 C792 1.352 1_554 S
C793 C796 1.374 . S
N794 C796 1.356 . S
N794 H806 0.984 . S
N794 H807 0.985 . S
N795 C797 1.356 . S
N795 H800 0.984 . S
N795 H801 0.985 . S
C796 C790 1.379 . S
C796 C793 1.374 . S
C796 N794 1.356 . S
C797 C791 1.360 1_556 S
C797 C792 1.379 . S
C797 N795 1.356 . S
N798 C790 1.356 . S
N798 H804 0.984 . S
N798 H805 0.984 . S
N799 C792 1.356 . S
N799 H802 0.984 . S
N799 H803 0.985 . S
H800 N795 0.984 . S
H801 N795 0.985 . S
H802 N799 0.984 . S
H803 N799 0.985 . S
H804 N798 0.984 . S
H805 N798 0.984 . S
H806 N794 0.984 . S
H807 N794 0.985 . S
C377 C21 1.666 . S
C379 C197 1.619 . S
C395 C40 1.815 . S
C397 C119 1.669 . S
C415 C155 1.625 . S
C413 C54 1.654 . S
C431 C73 1.854 . S
C433 C161 1.783 . S
C451 C299 1.625 . S
C449 C74 1.655 . S
C469 C305 1.749 . S
C467 C10 1.813 . S
C487 C341 1.619 . S
C485 C37 1.665 . S
C505 C263 1.703 . S
C503 C65 1.856 . S
C521 C52 1.662 . S
C523 C125 1.632 . S
C539 C87 1.852 . S
C541 C191 1.783 . S
C557 C15 1.676 . S
C559 C227 1.602 . S
C577 C89 1.685 . S
C575 C32 1.806 . S
C593 C29 1.677 . S
C595 C371 1.603 . S
C613 C233 1.722 . S
C611 C59 1.850 . S
C631 C269 1.632 . S
C629 C84 1.661 . S
C647 C8 1.809 . S
C649 C335 1.745 . S
C667 C113 1.754 1_554 S
C665 C7 1.898 . S
C685 C149 1.705 . S
C683 C30 1.704 . S
C701 C62 1.905 . S
C703 C185 1.856 . S
C719 C81 1.671 . S
C721 C221 1.638 . S
C739 C257 1.769 . S
C737 C76 1.905 . S
C755 C18 1.704 1_554 S
C757 C293 1.705 . S
C773 C43 1.898 . S
C775 C329 1.838 . S
C791 C51 1.671 1_554 S
C793 C365 1.638 1_554 S
