# Generated by pormake.
# Topology anh, (6,3)-cn, num edge types: 1
# Building blocks:
#     Node 0, Type 0, BuildingBlock: GEDQOX_clean_sbu_0, # of connection points: 6
#     Node 1, Type 0, BuildingBlock: GEDQOX_clean_sbu_0, # of connection points: 6
#     Node 2, Type 0, BuildingBlock: GEDQOX_clean_sbu_0, # of connection points: 6
#     Node 3, Type 1, BuildingBlock: PAMTOO_clean_linker_0, # of connection points: 3
#     Node 4, Type 1, BuildingBlock: PAMTOO_clean_linker_0, # of connection points: 3
#     Node 5, Type 1, BuildingBlock: PAMTOO_clean_linker_0, # of connection points: 3
#     Node 6, Type 1, BuildingBlock: PAMTOO_clean_linker_0, # of connection points: 3
#     Node 7, Type 1, BuildingBlock: PAMTOO_clean_linker_0, # of connection points: 3
#     Node 8, Type 1, BuildingBlock: PAMTOO_clean_linker_0, # of connection points: 3
#     Edge 9, Type (0, 1), BuildingBlock: TEMPAE_clean_linker_10, # of connection points: 2
#     Edge 10, Type (0, 1), BuildingBlock: TEMPAE_clean_linker_10, # of connection points: 2
#     Edge 11, Type (0, 1), BuildingBlock: TEMPAE_clean_linker_10, # of connection points: 2
#     Edge 12, Type (0, 1), BuildingBlock: TEMPAE_clean_linker_10, # of connection points: 2
#     Edge 13, Type (0, 1), BuildingBlock: TEMPAE_clean_linker_10, # of connection points: 2
#     Edge 14, Type (0, 1), BuildingBlock: TEMPAE_clean_linker_10, # of connection points: 2
#     Edge 15, Type (0, 1), BuildingBlock: TEMPAE_clean_linker_10, # of connection points: 2
#     Edge 16, Type (0, 1), BuildingBlock: TEMPAE_clean_linker_10, # of connection points: 2
#     Edge 17, Type (0, 1), BuildingBlock: TEMPAE_clean_linker_10, # of connection points: 2
#     Edge 18, Type (0, 1), BuildingBlock: TEMPAE_clean_linker_10, # of connection points: 2
#     Edge 19, Type (0, 1), BuildingBlock: TEMPAE_clean_linker_10, # of connection points: 2
#     Edge 20, Type (0, 1), BuildingBlock: TEMPAE_clean_linker_10, # of connection points: 2
#     Edge 21, Type (0, 1), BuildingBlock: TEMPAE_clean_linker_10, # of connection points: 2
#     Edge 22, Type (0, 1), BuildingBlock: TEMPAE_clean_linker_10, # of connection points: 2
#     Edge 23, Type (0, 1), BuildingBlock: TEMPAE_clean_linker_10, # of connection points: 2
#     Edge 24, Type (0, 1), BuildingBlock: TEMPAE_clean_linker_10, # of connection points: 2
#     Edge 25, Type (0, 1), BuildingBlock: TEMPAE_clean_linker_10, # of connection points: 2
#     Edge 26, Type (0, 1), BuildingBlock: TEMPAE_clean_linker_10, # of connection points: 2
# Relax obj value: 0.164
# Max RMSD: 0.190
# Mean RMSD: 0.128
data_MOF--net-anh--node1-GEDQOX_clean_sbu_0--node2-PAMTOO_clean_linker_0--edge1-TEMPAE_clean_linker_10
_symmetry_space_group_name_H-M    P1
_symmetry_Int_Tables_number       1
_symmetry_cell_setting            triclinic
loop_
_symmetry_equiv_pos_as_xyz
'x, y, z'
_cell_length_a     32.34187
_cell_length_b     30.334656
_cell_length_c     49.962291
_cell_angle_alpha  88.464383
_cell_angle_beta   91.752854
_cell_angle_gamma 104.8139
loop_
_atom_site_label
_atom_site_type_symbol
_atom_site_fract_x
_atom_site_fract_y
_atom_site_fract_z
_atom_type_partial_charge
Nd0 Nd 0.11161 0.56392 0.13615 0.0
Nd1 Nd 0.08942 0.46356 0.13615 0.0
C2 C 0.14621 0.65199 0.1277 0.0
C3 C 0.18829 0.68411 0.133 0.0
C4 C 0.22668 0.67341 0.1268 0.0
C5 C 0.26619 0.70371 0.1329 0.0
C6 C 0.26816 0.74531 0.14535 0.0
C7 C 0.22959 0.75583 0.15144 0.0
C8 C 0.19015 0.7256 0.14529 0.0
C9 C 0.09837 0.52509 0.18614 0.0
C10 C 0.19437 0.51066 0.13671 0.0
C11 C 1.05576 0.37566 0.14605 0.0
C12 C 1.0136 0.34535 0.15314 0.0
C13 C 0.99549 0.3479 0.17812 0.0
C14 C 0.95635 0.31802 0.1848 0.0
C15 C 0.93422 0.28494 0.16666 0.0
C16 C 0.95219 0.28285 0.14156 0.0
C17 C 0.99147 0.31256 0.13495 0.0
C18 C 0.10381 0.50439 0.0865 0.0
C19 C 1.00704 0.51596 0.13478 0.0
O20 O 0.14432 0.62111 0.10958 0.0
O21 O 0.12381 0.63583 0.14875 0.0
O22 O 0.0841 0.55951 0.17806 0.0
O23 O 0.11954 0.51272 0.1683 0.0
O24 O 0.18154 0.54934 0.13406 0.0
O25 O 0.1643 0.47155 0.13954 0.0
O26 O 0.076 0.40415 0.1642 0.0
O27 O 1.05917 0.39365 0.12187 0.0
O28 O 0.11808 0.46954 0.09401 0.0
O29 O 0.08205 0.5151 0.10451 0.0
O30 O 1.02047 0.47877 0.14162 0.0
O31 O 1.03684 0.55374 0.12814 0.0
H32 H 0.22622 0.6416 0.11733 0.0
H33 H 0.29518 0.69469 0.12763 0.0
H34 H 0.22982 0.78717 0.1614 0.0
H35 H 0.16099 0.73443 0.15041 0.0
H36 H 1.01169 0.37265 0.19269 0.0
H37 H 0.94392 0.32026 0.20445 0.0
H38 H 0.93584 0.25831 0.12692 0.0
H39 H 1.00466 0.30976 0.11558 0.0
Nd40 Nd 0.5394 0.98657 0.51845 0.0
Nd41 Nd 0.63369 1.00934 0.51068 0.0
C42 C 0.45931 0.95225 0.53252 0.0
C43 C 0.42698 0.90892 0.52822 0.0
C44 C 0.43816 0.86707 0.52909 0.0
C45 C 0.40752 0.82661 0.52321 0.0
C46 C 0.3652 0.82729 0.51622 0.0
C47 C 0.35417 0.8693 0.51565 0.0
C48 C 0.38477 0.90967 0.52164 0.0
C49 C 0.56316 0.99985 0.46611 0.0
C50 C 0.58731 0.90171 0.51502 0.0
C51 C 0.71161 0.04108 0.49216 0.0
C52 C 0.74352 0.08453 0.48677 0.0
C53 C 0.75652 0.09591 0.46041 0.0
C54 C 0.78857 0.13534 0.45489 0.0
C55 C 0.80862 0.16407 0.47568 0.0
C56 C 0.79494 0.15315 0.50205 0.0
C57 C 0.76267 0.11376 0.50755 0.0
C58 C 0.61141 0.9943 0.56307 0.0
C59 C 0.58644 0.09367 0.51793 0.0
O60 O 0.49224 0.95081 0.5481 0.0
O61 O 0.46986 0.97805 0.51117 0.0
O62 O 0.53361 0.016 0.47599 0.0
O63 O 0.57853 0.97721 0.48343 0.0
O64 O 0.55265 0.91465 0.52103 0.0
O65 O 0.62272 0.93177 0.50791 0.0
O66 O 0.67719 0.03181 0.47672 0.0
O67 O 0.7039 0.02874 0.51718 0.0
O68 O 0.64356 0.98279 0.55303 0.0
O69 O 0.59442 0.01664 0.54633 0.0
O70 O 0.61921 0.08104 0.5081 0.0
O71 O 0.55313 0.06282 0.52723 0.0
H72 H 0.47063 0.86562 0.534 0.0
H73 H 0.417 0.79484 0.52413 0.0
H74 H 0.32211 0.87121 0.50989 0.0
H75 H 0.37565 0.94166 0.52061 0.0
H76 H 0.74224 0.07393 0.44405 0.0
H77 H 0.7978 0.1432 0.4343 0.0
H78 H 0.80998 0.17435 0.51854 0.0
H79 H 0.75334 0.10588 0.52812 0.0
Nd80 Nd 0.55079 0.45359 0.82416 0.0
Nd81 Nd 0.65045 0.47974 0.84291 0.0
C82 C 0.4761 0.45347 0.8015 0.0
C83 C 0.4525 0.48883 0.8018 0.0
C84 C 0.42027 0.49001 0.78262 0.0
C85 C 0.39855 0.52444 0.78317 0.0
C86 C 0.40912 0.55825 0.80279 0.0
C87 C 0.44185 0.55703 0.82172 0.0
C88 C 0.46323 0.52266 0.82124 0.0
C89 C 0.56828 0.45188 0.87824 0.0
C90 C 0.60515 0.56383 0.83056 0.0
C91 C 0.72128 0.49827 0.87277 0.0
C92 C 0.75911 0.53671 0.87532 0.0
C93 C 0.78559 0.53969 0.8982 0.0
C94 C 0.82235 0.57551 0.90061 0.0
C95 C 0.83326 0.60883 0.8801 0.0
C96 C 0.80576 0.60648 0.85754 0.0
C97 C 0.76886 0.57065 0.85519 0.0
C98 C 0.64186 0.47812 0.7878 0.0
C99 C 0.5978 0.37183 0.83202 0.0
O100 O 0.51184 0.46453 0.78845 0.0
O101 O 0.48005 0.43369 0.82471 0.0
O102 O 0.53582 0.42352 0.86692 0.0
O103 O 0.58811 0.48024 0.8613 0.0
O104 O 0.56901 0.53292 0.82453 0.0
O105 O 0.64082 0.55243 0.8382 0.0
O106 O 0.71714 0.47561 0.8505 0.0
O107 O 0.68545 0.50584 0.88033 0.0
O108 O 0.67892 0.48936 0.80012 0.0
O109 O 0.61329 0.46909 0.80495 0.0
O110 O 0.62728 0.40044 0.84683 0.0
O111 O 0.56822 0.3859 0.81764 0.0
H112 H 0.41188 0.46435 0.76734 0.0
H113 H 0.37362 0.52472 0.76823 0.0
H114 H 0.45028 0.58202 0.83737 0.0
H115 H 0.48795 0.52227 0.83629 0.0
H116 H 0.77808 0.51407 0.91407 0.0
H117 H 0.84251 0.57687 0.91845 0.0
H118 H 0.81345 0.63146 0.84135 0.0
H119 H 0.74832 0.56901 0.8375 0.0
H120 H 0.67779 0.07916 0.27058 0.0
H121 H 0.5678 0.96584 0.25715 0.0
H122 H 0.64375 0.02804 0.19123 0.0
H123 H 0.55326 1.00119 0.17393 0.0
C124 C 0.54117 0.9824 0.1927 0.0
O125 O 0.57403 0.96799 0.20549 0.0
H126 H 0.53005 1.00662 0.20536 0.0
C127 C 0.65746 0.05455 0.25741 0.0
C128 C 0.66617 0.05695 0.22988 0.0
C129 C 0.62236 0.02161 0.26791 0.0
C130 C 0.59488 0.99195 0.24999 0.0
C131 C 0.60209 0.99523 0.22246 0.0
C132 C 0.63801 0.02697 0.21251 0.0
H133 H 0.60088 0.59003 0.59261 0.0
H134 H 0.61162 0.45515 0.57681 0.0
H135 H 0.5834 0.53919 0.51199 0.0
H136 H 0.54525 0.42928 0.5025 0.0
C137 C 0.56178 0.42217 0.52133 0.0
O138 O 0.59718 0.45854 0.52576 0.0
H139 H 0.53841 0.41901 0.53765 0.0
C140 C 0.59941 0.56325 0.57849 0.0
C141 C 0.59114 0.57088 0.55106 0.0
C142 C 0.60589 0.52151 0.58817 0.0
C143 C 0.60542 0.48705 0.56991 0.0
C144 C 0.59712 0.49306 0.54263 0.0
C145 C 0.58994 0.53496 0.53315 0.0
H146 H 0.10198 0.71736 0.93579 0.0
H147 H 0.23213 0.72532 0.91679 0.0
H148 H 0.1621 0.8074 0.87233 0.0
H149 H 0.23507 0.80316 0.8368 0.0
C150 C 0.23058 0.77125 0.84906 0.0
O151 O 0.23413 0.78312 0.87582 0.0
H152 H 0.19807 0.74961 0.84391 0.0
C153 C 0.13016 0.73301 0.92436 0.0
C154 C 0.12774 0.76502 0.90399 0.0
C155 C 0.1675 0.71842 0.92905 0.0
C156 C 0.20333 0.73675 0.91338 0.0
C157 C 0.2013 0.76875 0.89282 0.0
C158 C 0.16387 0.78368 0.88867 0.0
H159 H 1.03735 0.41165 0.38209 0.0
H160 H 0.14935 0.52232 0.39599 0.0
H161 H 0.0772 0.45436 0.46225 0.0
H162 H 0.10782 0.54797 0.4742 0.0
C163 C 0.12864 0.55861 0.45664 0.0
O164 O 0.1411 0.52143 0.44768 0.0
H165 H 0.10945 0.57169 0.44086 0.0
C166 C 1.05982 0.43358 0.39559 0.0
C167 C 1.05345 0.42824 0.42331 0.0
C168 C 0.09442 0.46713 0.38519 0.0
C169 C 0.12241 0.49604 0.40318 0.0
C170 C 0.11585 0.49147 0.43079 0.0
C171 C 0.08203 0.45715 0.44084 0.0
H172 H 0.5935 0.87777 0.75912 0.0
H173 H 0.60496 0.01951 0.77341 0.0
H174 H 0.60892 0.92758 0.83977 0.0
H175 H 0.5659 0.01361 0.85314 0.0
C176 C 0.57546 0.02902 0.83311 0.0
O177 O 0.60983 0.01338 0.82501 0.0
H178 H 0.54742 0.01756 0.81919 0.0
C179 C 0.59802 0.90564 0.77293 0.0
C180 C 0.60282 0.89692 0.80051 0.0
C181 C 0.59915 0.94956 0.76277 0.0
C182 C 0.60309 0.98519 0.78078 0.0
C183 C 0.60541 0.97738 0.80845 0.0
C184 C 0.60544 0.93315 0.81842 0.0
H185 H 0.68977 0.50374 0.0749 0.0
H186 H 0.55606 0.48999 0.08553 0.0
H187 H 0.64235 0.51144 0.15437 0.0
H188 H 0.53797 0.55409 0.11433 0.0
C189 C 0.53042 0.53414 0.13335 0.0
O190 O 0.55622 0.50203 0.1356 0.0
H191 H 0.5417 0.55954 0.1493 0.0
C192 C 0.66396 0.50202 0.08851 0.0
C193 C 0.67343 0.50562 0.11627 0.0
C194 C 0.62239 0.49607 0.07742 0.0
C195 C 0.58823 0.49624 0.09401 0.0
C196 C 0.59383 0.50399 0.12144 0.0
C197 C 0.63728 0.50817 0.13294 0.0
C198 C 0.2766 0.55191 0.13389 0.0
C199 C 0.24335 0.51119 0.13653 0.0
C200 C 0.32152 0.55272 0.1336 0.0
C201 C 0.33607 0.51186 0.13597 0.0
C202 C 0.30267 0.47067 0.13867 0.0
C203 C 0.25798 0.47083 0.13891 0.0
C204 C 0.35381 0.59809 0.13069 0.0
C205 C 0.3142 0.42566 0.14137 0.0
C206 C 0.45241 0.51201 0.11126 0.0
C207 C 0.47908 0.51762 0.13473 0.0
C208 C 0.40707 0.5092 0.11142 0.0
C209 C 0.38535 0.51223 0.13564 0.0
C210 C 0.41179 0.51651 0.15948 0.0
C211 C 0.45709 0.51929 0.15874 0.0
C212 C 0.38248 0.5046 0.08512 0.0
C213 C 0.39238 0.51986 0.18614 0.0
H214 H 0.26754 0.58386 0.13203 0.0
H215 H 0.23417 0.43863 0.14098 0.0
H216 H 0.37645 0.60343 0.14815 0.0
H217 H 0.37283 0.59837 0.11255 0.0
H218 H 0.33854 0.627 0.12914 0.0
H219 H 0.28558 0.39644 0.14338 0.0
H220 H 0.33202 0.42047 0.12359 0.0
H221 H 0.33562 0.42584 0.15916 0.0
H222 H 0.46756 0.51192 0.09223 0.0
H223 H 0.47593 0.52497 0.17722 0.0
H224 H 0.3709 0.53561 0.08106 0.0
H225 H 0.35391 0.47518 0.08611 0.0
H226 H 0.40222 0.49989 0.06814 0.0
H227 H 0.38147 0.55166 0.18653 0.0
H228 H 0.41539 0.51999 0.20312 0.0
H229 H 0.36387 0.49088 0.18905 0.0
C230 C 0.84802 0.24598 0.48257 0.0
C231 C 0.84457 0.20442 0.46989 0.0
C232 C 0.88181 0.28425 0.47698 0.0
C233 C 0.91266 0.28086 0.45818 0.0
C234 C 0.90956 0.23893 0.44551 0.0
C235 C 0.87569 0.20122 0.4516 0.0
C236 C 0.88424 0.3284 0.49094 0.0
C237 C 0.94183 0.23399 0.42531 0.0
C238 C 0.9762 0.38555 0.42094 0.0
C239 C 1.01653 0.39277 0.43373 0.0
C240 C 0.94174 0.35008 0.42925 0.0
C241 C 0.94765 0.32133 0.45102 0.0
C242 C 0.98778 0.32951 0.46471 0.0
C243 C 1.02182 0.36512 0.45586 0.0
C244 C 0.8994 0.34247 0.41415 0.0
C245 C 0.99518 0.2997 0.48811 0.0
H246 H 0.8239 0.24881 0.49655 0.0
H247 H 0.87375 0.169 0.44214 0.0
H248 H 0.91581 0.3404 0.50131 0.0
H249 H 0.88127 0.35517 0.47598 0.0
H250 H 0.85873 0.32488 0.50584 0.0
H251 H 0.93508 0.19887 0.41747 0.0
H252 H 0.94182 0.25808 0.4082 0.0
H253 H 0.97446 0.24279 0.43454 0.0
H254 H 0.97168 0.40745 0.40419 0.0
H255 H 1.05296 0.3704 0.46574 0.0
H256 H 0.87329 0.34156 0.42821 0.0
H257 H 0.89201 0.30896 0.40423 0.0
H258 H 0.8994 0.3694 0.39864 0.0
H259 H 0.97016 0.29708 0.50321 0.0
H260 H 1.02706 0.31288 0.49796 0.0
H261 H 0.99284 0.26471 0.48114 0.0
C262 C 0.57198 0.6272 0.81494 0.0
C263 C 0.60495 0.61327 0.82902 0.0
C264 C 0.57159 0.67357 0.81273 0.0
C265 C 0.60451 0.70734 0.82531 0.0
C266 C 0.63717 0.69336 0.84024 0.0
C267 C 0.63726 0.64678 0.84168 0.0
C268 C 0.53649 0.68653 0.7962 0.0
C269 C 0.67242 0.72777 0.85448 0.0
C270 C 0.6299 0.82721 0.79389 0.0
C271 C 0.6065 0.8501 0.80935 0.0
C272 C 0.62983 0.78138 0.7991 0.0
C273 C 0.60667 0.75729 0.82087 0.0
C274 C 0.58471 0.7807 0.83749 0.0
C275 C 0.58474 0.82667 0.8315 0.0
C276 C 0.65347 0.75827 0.78061 0.0
C277 C 0.56016 0.75678 0.86118 0.0
H278 H 0.54676 0.60186 0.80506 0.0
H279 H 0.66264 0.63661 0.85288 0.0
H280 H 0.5194 0.70577 0.80851 0.0
H281 H 0.55057 0.70925 0.77924 0.0
H282 H 0.51287 0.6563 0.78801 0.0
H283 H 0.69329 0.7113 0.86714 0.0
H284 H 0.69253 0.7507 0.8396 0.0
H285 H 0.65856 0.74938 0.86731 0.0
H286 H 0.64781 0.84504 0.77713 0.0
H287 H 0.56652 0.84369 0.84361 0.0
H288 H 0.63064 0.72901 0.77095 0.0
H289 H 0.67736 0.7445 0.79217 0.0
H290 H 0.67025 0.78176 0.76468 0.0
H291 H 0.53166 0.73055 0.85402 0.0
H292 H 0.54927 0.7808 0.87398 0.0
H293 H 0.5802 0.73897 0.87356 0.0
C294 C 0.94084 0.54769 0.12017 0.0
C295 C 0.95793 0.51501 0.13451 0.0
C296 C 0.89576 0.54643 0.11914 0.0
C297 C 0.86467 0.5126 0.13354 0.0
C298 C 0.88195 0.48018 0.14862 0.0
C299 C 0.92697 0.48127 0.14851 0.0
C300 C 0.8812 0.58132 0.10187 0.0
C301 C 0.85282 0.44346 0.16512 0.0
C302 C 0.7481 0.53341 0.14355 0.0
C303 C 0.72107 0.50459 0.12469 0.0
C304 C 0.79343 0.53555 0.14722 0.0
C305 C 0.81473 0.50939 0.13134 0.0
C306 C 0.78733 0.47977 0.11283 0.0
C307 C 0.74233 0.47712 0.1103 0.0
C308 C 0.81876 0.56674 0.16815 0.0
C309 C 0.80581 0.451 0.09478 0.0
H310 H 0.96285 0.57419 0.10897 0.0
H311 H 0.938 0.45542 0.15992 0.0
H312 H 0.85584 0.56395 0.08744 0.0
H313 H 0.86711 0.6029 0.11454 0.0
H314 H 0.9078 0.60374 0.09053 0.0
H315 H 0.87081 0.43046 0.1815 0.0
H316 H 0.82708 0.4561 0.17401 0.0
H317 H 0.83759 0.4144 0.15214 0.0
H318 H 0.73423 0.55543 0.15515 0.0
H319 H 0.72354 0.45335 0.09605 0.0
H320 H 0.83762 0.59838 0.1583 0.0
H321 H 0.84155 0.55039 0.17905 0.0
H322 H 0.79764 0.57633 0.18284 0.0
H323 H 0.83419 0.47245 0.08454 0.0
H324 H 0.78228 0.43358 0.07933 0.0
H325 H 0.81658 0.42468 0.10689 0.0
C326 C 0.34388 0.75229 0.49282 0.0
C327 C 0.33284 0.78469 0.50882 0.0
C328 C 0.31303 0.71319 0.48449 0.0
C329 C 0.27007 0.70654 0.49215 0.0
C330 C 0.2589 0.73858 0.50875 0.0
C331 C 0.29043 0.7771 0.51698 0.0
C332 C 0.3262 0.6796 0.46696 0.0
C333 C 0.2134 0.73269 0.51734 0.0
C334 C 0.17965 0.63577 0.44933 0.0
C335 C 0.16723 0.59561 0.46479 0.0
C336 C 0.21381 0.67177 0.4577 0.0
C337 C 0.23627 0.66718 0.48197 0.0
C338 C 0.22488 0.6259 0.49711 0.0
C339 C 0.19037 0.59055 0.48832 0.0
C340 C 0.22497 0.71525 0.44101 0.0
C341 C 0.24839 0.61956 0.52291 0.0
H342 H 0.37645 0.75809 0.48616 0.0
H343 H 0.28179 0.80149 0.52975 0.0
H344 H 0.31557 0.6446 0.47564 0.0
H345 H 0.31045 0.67933 0.4469 0.0
H346 H 0.36137 0.68799 0.4644 0.0
H347 H 0.21021 0.76009 0.53084 0.0
H348 H 0.19223 0.73281 0.49946 0.0
H349 H 0.20176 0.6993 0.52783 0.0
H350 H 0.16197 0.63943 0.43097 0.0
H351 H 0.18085 0.55921 0.50008 0.0
H352 H 0.25934 0.72407 0.43603 0.0
H353 H 0.21951 0.74381 0.45265 0.0
H354 H 0.20565 0.71257 0.42207 0.0
H355 H 0.2833 0.62722 0.51959 0.0
H356 H 0.23748 0.58436 0.53133 0.0
H357 H 0.24337 0.6438 0.53797 0.0
C358 C 0.63037 0.30628 0.84474 0.0
C359 C 0.59742 0.32215 0.83196 0.0
C360 C 0.63013 0.25959 0.84494 0.0
C361 C 0.59597 0.22745 0.83223 0.0
C362 C 0.56276 0.24328 0.81919 0.0
C363 C 0.56395 0.29015 0.81913 0.0
C364 C 0.66638 0.2446 0.85895 0.0
C365 C 0.52548 0.21053 0.80554 0.0
C366 C 0.60682 0.10892 0.81325 0.0
C367 C 0.58578 0.08104 0.83419 0.0
C368 C 0.61147 0.1566 0.81271 0.0
C369 C 0.59404 0.17715 0.83334 0.0
C370 C 0.57311 0.14913 0.85461 0.0
C371 C 0.56914 0.10171 0.8547 0.0
C372 C 0.63414 0.18486 0.78966 0.0
C373 C 0.55368 0.16904 0.87696 0.0
H374 H 0.65656 0.33038 0.85465 0.0
H375 H 0.53822 0.30162 0.80917 0.0
H376 H 0.65386 0.22065 0.87571 0.0
H377 H 0.68141 0.22601 0.84487 0.0
H378 H 0.69138 0.27378 0.86704 0.0
H379 H 0.5026 0.22814 0.79585 0.0
H380 H 0.53721 0.1914 0.7901 0.0
H381 H 0.50808 0.18517 0.82038 0.0
H382 H 0.61896 0.09332 0.797 0.0
H383 H 0.55195 0.08046 0.87064 0.0
H384 H 0.66002 0.21358 0.79732 0.0
H385 H 0.61131 0.19987 0.77786 0.0
H386 H 0.6482 0.16446 0.7761 0.0
H387 H 0.57818 0.19701 0.88652 0.0
H388 H 0.53998 0.14314 0.89259 0.0
H389 H 0.52793 0.18397 0.8687 0.0
C390 C 0.54929 0.81856 0.51022 0.0
C391 C 0.58655 0.8523 0.51683 0.0
C392 C 0.54801 0.77172 0.51259 0.0
C393 C 0.58427 0.75798 0.52292 0.0
C394 C 0.62194 0.79208 0.52964 0.0
C395 C 0.62286 0.83862 0.52603 0.0
C396 C 0.50769 0.73693 0.50415 0.0
C397 C 0.66083 0.77949 0.5417 0.0
C398 C 0.56658 0.64232 0.55919 0.0
C399 C 0.58481 0.61678 0.54196 0.0
C400 C 0.56612 0.68781 0.55319 0.0
C401 C 0.58207 0.70834 0.52854 0.0
C402 C 0.59757 0.68192 0.51009 0.0
C403 C 0.59941 0.63691 0.51714 0.0
C404 C 0.55009 0.7145 0.57387 0.0
C405 C 0.61324 0.70156 0.48309 0.0
H406 H 0.52118 0.82883 0.5029 0.0
H407 H 0.65163 0.86445 0.53142 0.0
H408 H 0.51545 0.7123 0.49034 0.0
H409 H 0.49268 0.71723 0.5219 0.0
H410 H 0.48395 0.75298 0.49407 0.0
H411 H 0.68758 0.8099 0.54587 0.0
H412 H 0.6523 0.75999 0.56073 0.0
H413 H 0.67216 0.75713 0.52801 0.0
H414 H 0.55326 0.62713 0.57791 0.0
H415 H 0.61352 0.61813 0.50346 0.0
H416 H 0.5229 0.72687 0.56546 0.0
H417 H 0.57584 0.74496 0.57949 0.0
H418 H 0.5395 0.69394 0.5923 0.0
H419 H 0.58983 0.71827 0.47325 0.0
H420 H 0.61863 0.67509 0.46964 0.0
H421 H 0.64379 0.72803 0.48566 0.0
C422 C 0.87744 0.68966 0.87411 0.0
C423 C 0.87456 0.64403 0.88158 0.0
C424 C 0.91692 0.72261 0.87517 0.0
C425 C 0.95409 0.70945 0.88402 0.0
C426 C 0.95122 0.66337 0.8915 0.0
C427 C 0.9116 0.63135 0.89009 0.0
C428 C 0.91862 0.77138 0.86725 0.0
C429 C 0.99011 0.64762 0.90091 0.0
C430 C 0.0694 0.75939 0.86982 0.0
C431 C 0.08501 0.77077 0.89588 0.0
C432 C 1.02525 0.74538 0.8644 0.0
C433 C 0.9966 0.74274 0.88559 0.0
C434 C 1.01221 0.76159 0.91065 0.0
C435 C 1.05649 0.77545 0.91553 0.0
C436 C 1.00978 0.72697 0.83712 0.0
C437 C 0.98265 0.76078 0.93353 0.0
H438 H 0.84877 0.69967 0.86772 0.0
H439 H 0.90973 0.59599 0.89532 0.0
H440 H 0.9217 0.792 0.88555 0.0
H441 H 0.94684 0.78645 0.85486 0.0
H442 H 0.88926 0.77425 0.85596 0.0
H443 H 0.98221 0.6106 0.90605 0.0
H444 H 1.01436 0.65454 0.88506 0.0
H445 H 1.00497 0.66672 0.91887 0.0
H446 H 0.09136 0.75609 0.85448 0.0
H447 H 0.06867 0.78519 0.93557 0.0
H448 H 0.9793 0.7353 0.83112 0.0
H449 H 1.00384 0.68927 0.83778 0.0
H450 H 1.03387 0.74073 0.82161 0.0
H451 H 0.95262 0.76892 0.92637 0.0
H452 H 0.99804 0.7853 0.94923 0.0
H453 H 0.97409 0.72605 0.94278 0.0
C454 C 0.34457 0.76159 0.16246 0.0
C455 C 0.31014 0.77764 0.15209 0.0
C456 C 0.38392 0.79193 0.16941 0.0
C457 C 0.389 0.83951 0.16602 0.0
C458 C 0.35451 0.85588 0.15538 0.0
C459 C 0.31565 0.82482 0.14849 0.0
C460 C 0.41992 0.77311 0.18064 0.0
C461 C 0.35859 0.90633 0.15136 0.0
C462 C 0.47312 0.9253 0.20593 0.0
C463 C 0.50389 0.94229 0.18657 0.0
C464 C 0.43617 0.89073 0.1998 0.0
C465 C 0.43013 0.87249 0.17373 0.0
C466 C 0.46225 0.88801 0.15452 0.0
C467 C 0.49884 0.92268 0.16121 0.0
C468 C 0.40286 0.87501 0.22089 0.0
C469 C 0.45726 0.8692 0.1266 0.0
H470 H 0.34053 0.72526 0.16561 0.0
H471 H 0.28957 0.83756 0.14006 0.0
H472 H 0.44879 0.78549 0.16839 0.0
H473 H 0.42859 0.78552 0.20126 0.0
H474 H 0.41132 0.73523 0.18123 0.0
H475 H 0.3288 0.91352 0.14284 0.0
H476 H 0.36641 0.92385 0.17077 0.0
H477 H 0.38519 0.92131 0.13772 0.0
H478 H 0.47741 0.94013 0.22566 0.0
H479 H 0.52298 0.93543 0.14636 0.0
H480 H 0.39475 0.83733 0.22319 0.0
H481 H 0.37308 0.88457 0.21456 0.0
H482 H 0.41371 0.89026 0.24068 0.0
H483 H 0.44987 0.83142 0.12749 0.0
H484 H 0.48646 0.88238 0.1147 0.0
H485 H 0.43001 0.87857 0.11596 0.0
C486 C 0.62329 0.17761 0.5115 0.0
C487 C 0.5869 0.14324 0.51867 0.0
C488 C 0.62351 0.22427 0.51187 0.0
C489 C 0.58637 0.23725 0.51936 0.0
C490 C 0.54967 0.2027 0.5267 0.0
C491 C 0.55043 0.15644 0.52635 0.0
C492 C 0.6635 0.25973 0.50411 0.0
C493 C 0.50921 0.21456 0.53466 0.0
C494 C 0.58942 0.35762 0.54263 0.0
C495 C 0.57398 0.37691 0.51981 0.0
C496 C 0.59531 0.31305 0.54248 0.0
C497 C 0.58517 0.28666 0.51901 0.0
C498 C 0.57097 0.30666 0.49564 0.0
C499 C 0.56562 0.35135 0.49633 0.0
C500 C 0.61083 0.29356 0.56782 0.0
C501 C 0.55963 0.28013 0.47017 0.0
H502 H 0.65175 0.16809 0.50559 0.0
H503 H 0.52203 0.13049 0.53189 0.0
H504 H 0.65669 0.27936 0.48619 0.0
H505 H 0.67402 0.28433 0.52052 0.0
H506 H 0.69018 0.24439 0.49961 0.0
H507 H 0.48351 0.18389 0.54006 0.0
H508 H 0.51594 0.23758 0.55202 0.0
H509 H 0.49725 0.23309 0.51792 0.0
H510 H 0.59554 0.37688 0.56091 0.0
H511 H 0.55343 0.36579 0.47863 0.0
H512 H 0.63813 0.27911 0.56355 0.0
H513 H 0.58488 0.2653 0.57575 0.0
H514 H 0.621 0.31955 0.58357 0.0
H515 H 0.58651 0.26612 0.4644 0.0
H516 H 0.55183 0.30137 0.45325 0.0
H517 H 0.53158 0.25077 0.47349 0.0
C518 C 0.4064 0.63859 0.8108 0.0
C519 C 0.38494 0.59349 0.80471 0.0
C520 C 0.38371 0.67088 0.81619 0.0
C521 C 0.33846 0.65774 0.81541 0.0
C522 C 0.31662 0.61293 0.80794 0.0
C523 C 0.34015 0.5813 0.80269 0.0
C524 C 0.40816 0.71842 0.82388 0.0
C525 C 0.26835 0.5977 0.80679 0.0
C526 C 0.27718 0.71693 0.85977 0.0
C527 C 0.26274 0.74575 0.84142 0.0
C528 C 0.30293 0.68915 0.85167 0.0
C529 C 0.31388 0.68959 0.82443 0.0
C530 C 0.29979 0.7189 0.80581 0.0
C531 C 0.27422 0.74649 0.81454 0.0
C532 C 0.31738 0.65834 0.87215 0.0
C533 C 0.31054 0.72003 0.77657 0.0
H534 H 0.44105 0.64834 0.81199 0.0
H535 H 0.32337 0.54643 0.79823 0.0
H536 H 0.39679 0.7442 0.8116 0.0
H537 H 0.40232 0.72407 0.84513 0.0
H538 H 0.44318 0.72426 0.82136 0.0
H539 H 0.25638 0.56308 0.79838 0.0
H540 H 0.25584 0.59727 0.82725 0.0
H541 H 0.25511 0.62201 0.79442 0.0
H542 H 0.26786 0.71535 0.88038 0.0
H543 H 0.26223 0.76794 0.80017 0.0
H544 H 0.3527 0.66442 0.87204 0.0
H545 H 0.30343 0.62215 0.86695 0.0
H546 H 0.30778 0.66362 0.89275 0.0
H547 H 0.3456 0.72628 0.77435 0.0
H548 H 0.29938 0.74678 0.765 0.0
H549 H 0.29542 0.68646 0.76765 0.0
C550 C 0.88443 0.20614 0.16693 0.0
C551 C 0.89317 0.25208 0.17419 0.0
C552 C 0.84668 0.17445 0.17471 0.0
C553 C 0.81699 0.18881 0.19041 0.0
C554 C 0.82524 0.23519 0.19751 0.0
C555 C 0.86306 0.26625 0.18922 0.0
C556 C 0.83897 0.12537 0.16657 0.0
C557 C 0.79448 0.25186 0.21429 0.0
C558 C 0.70301 0.11407 0.19503 0.0
C559 C 0.70478 0.09063 0.21949 0.0
C560 C 0.73927 0.14594 0.18523 0.0
C561 C 0.7782 0.15493 0.20033 0.0
C562 C 0.7802 0.13144 0.22502 0.0
C563 C 0.74364 0.09948 0.23419 0.0
C564 C 0.7359 0.17007 0.15874 0.0
C565 C 0.82103 0.14007 0.24178 0.0
H566 H 0.90763 0.19458 0.15565 0.0
H567 H 0.86903 0.30176 0.19455 0.0
H568 H 0.83851 0.10323 0.18465 0.0
H569 H 0.80729 0.11393 0.15626 0.0
H570 H 0.86393 0.12021 0.15308 0.0
H571 H 0.80495 0.28922 0.21747 0.0
H572 H 0.76221 0.24366 0.20456 0.0
H573 H 0.79145 0.23411 0.23412 0.0
H574 H 0.67309 0.10798 0.18365 0.0
H575 H 0.74566 0.08101 0.25286 0.0
H576 H 0.75972 0.16377 0.14479 0.0
H577 H 0.74333 0.20743 0.16165 0.0
H578 H 0.70354 0.15873 0.14922 0.0
H579 H 0.84676 0.13185 0.23023 0.0
H580 H 0.81714 0.1195 0.2607 0.0
H581 H 0.83181 0.1767 0.24682 0.0
C582 C 0.14545 0.52221 0.04436 0.0
C583 C 0.11642 0.53233 0.06201 0.0
C584 C 0.15864 0.54998 0.0216 0.0
C585 C 0.1425 0.58872 0.01657 0.0
C586 C 0.11324 0.59899 0.03442 0.0
C587 C 0.1004 0.57053 0.05681 0.0
C588 C 0.18962 0.53781 0.0029 0.0
C589 C 0.0953 0.64001 0.02984 0.0
C590 C 0.195 0.68897 0.97147 0.0
C591 C 0.16688 0.68167 0.94924 0.0
C592 C 0.18908 0.65746 -0.00692 0.0
C593 C 0.15447 0.61784 0.99215 0.0
C594 C 0.12797 0.60893 0.96882 0.0
C595 C 0.13443 0.64106 0.9477 0.0
C596 C 0.21798 0.66814 0.01762 0.0
C597 C 0.09096 0.56701 0.96687 0.0
H598 H 0.15798 0.49274 0.0484 0.0
H599 H 0.07795 0.57846 0.07042 0.0
H600 H 0.17462 0.5314 0.98264 0.0
H601 H 0.21841 0.56676 0.00093 0.0
H602 H 0.19983 0.50708 0.00993 0.0
H603 H 0.07391 0.64398 0.04609 0.0
H604 H 0.12175 0.67149 0.02847 0.0
H605 H 0.07692 0.63688 0.01056 0.0
H606 H 0.21999 0.72048 0.97263 0.0
H607 H 0.11292 0.63534 0.93033 0.0
H608 H 0.229 0.63782 0.02436 0.0
H609 H 0.19989 0.67725 0.03422 0.0
H610 H 0.24638 0.69699 0.01394 0.0
H611 H 0.10137 0.53603 0.973 0.0
H612 H 0.07677 0.56239 0.94628 0.0
H613 H 0.06566 0.56997 0.98071 0.0
C614 C 0.57178 0.04258 0.42259 0.0
C615 C 0.57411 1.00365 0.4376 0.0
C616 C 0.58144 0.04652 0.39528 0.0
C617 C 0.59194 1.0098 0.38252 0.0
C618 C 0.59409 0.97023 0.39768 0.0
C619 C 0.58599 0.96804 0.42521 0.0
C620 C 0.58048 0.08999 0.38011 0.0
C621 C 0.60372 0.92973 0.38467 0.0
C622 C 0.57273 1.00394 0.30708 0.0
C623 C 0.61453 0.01837 0.29741 0.0
C624 C 0.56508 0.99992 0.33467 0.0
C625 C 0.59982 1.01245 0.35322 0.0
C626 C 0.64196 0.02784 0.34377 0.0
C627 C 0.64887 0.02965 0.31609 0.0
C628 C 0.51972 0.98215 0.34396 0.0
C629 C 0.67978 0.04279 0.36288 0.0
H630 H 0.56297 0.07027 0.43233 0.0
H631 H 0.58752 0.93781 0.43688 0.0
H632 H 0.6113 0.10392 0.36998 0.0
H633 H 0.55495 0.08283 0.36432 0.0
H634 H 0.57464 0.11647 0.39338 0.0
H635 H 0.60359 0.90132 0.3992 0.0
H636 H 0.57961 0.91705 0.36852 0.0
H637 H 0.63544 0.93994 0.37524 0.0
H638 H 0.54568 0.99606 0.29315 0.0
H639 H 0.68142 0.03973 0.30921 0.0
H640 H 0.50988 1.00912 0.35477 0.0
H641 H 0.51768 0.953 0.3582 0.0
H642 H 0.49664 0.97082 0.32706 0.0
H643 H 0.67472 0.06971 0.37608 0.0
H644 H 0.71027 0.05623 0.35227 0.0
H645 H 0.68299 0.01371 0.37598 0.0
C646 C 0.66596 0.47365 0.74145 0.0
C647 C 0.63527 0.48144 0.75861 0.0
C648 C 0.66129 0.47835 0.71358 0.0
C649 C 0.62557 0.49229 0.70274 0.0
C650 C 0.59455 0.50037 0.72009 0.0
C651 C 0.5997 0.49457 0.74786 0.0
C652 C 0.69469 0.4687 0.69575 0.0
C653 C 0.55652 0.51625 0.70938 0.0
C654 C 0.63619 0.54876 0.63359 0.0
C655 C 0.61221 0.51362 0.61745 0.0
C656 C 0.64052 0.54237 0.66137 0.0
C657 C 0.62122 0.49948 0.67331 0.0
C658 C 0.59778 0.46356 0.65714 0.0
C659 C 0.59321 0.47117 0.62949 0.0
C660 C 0.66548 0.58168 0.67797 0.0
C661 C 0.57725 0.41714 0.66909 0.0
H662 H 0.69359 0.46363 0.74987 0.0
H663 H 0.57681 0.50205 0.76123 0.0
H664 H 0.67931 0.44274 0.68083 0.0
H665 H 0.71062 0.50011 0.68446 0.0
H666 H 0.7195 0.45623 0.70728 0.0
H667 H 0.53486 0.52008 0.72551 0.0
H668 H 0.5677 0.54958 0.69874 0.0
H669 H 0.53797 0.49171 0.69465 0.0
H670 H 0.65176 0.58139 0.62452 0.0
H671 H 0.57407 0.44396 0.61737 0.0
H672 H 0.69305 0.57242 0.68826 0.0
H673 H 0.64493 0.58916 0.69373 0.0
H674 H 0.67768 0.61317 0.66571 0.0
H675 H 0.60168 0.40348 0.68018 0.0
H676 H 0.56153 0.3923 0.65363 0.0
H677 H 0.55295 0.42002 0.68368 0.0
C678 C 0.63586 0.02064 0.60872 0.0
C679 C 0.60477 0.99346 0.59196 0.0
C680 C 0.63242 0.01677 0.63665 0.0
C681 C 0.59759 0.98408 0.64792 0.0
C682 C 0.56548 0.95739 0.6309 0.0
C683 C 0.56938 0.96264 0.603 0.0
C684 C 0.66693 0.04637 0.65407 0.0
C685 C 0.52829 0.92164 0.64211 0.0
C686 C 0.61934 0.93594 0.71619 0.0
C687 C 0.59798 0.9583 0.73327 0.0
C688 C 0.61866 0.94342 0.6884 0.0
C689 C 0.59697 0.97492 0.67732 0.0
C690 C 0.57568 0.99803 0.69435 0.0
C691 C 0.57612 0.98916 0.7221 0.0
C692 C 0.64149 0.91778 0.67091 0.0
C693 C 0.55276 0.03234 0.68326 0.0
H694 H 0.66328 0.04435 0.59993 0.0
H695 H 0.5458 0.94123 0.58985 0.0
H696 H 0.65247 0.06289 0.66956 0.0
H697 H 0.68565 0.02496 0.66466 0.0
H698 H 0.68927 0.07328 0.64228 0.0
H699 H 0.50432 0.90647 0.62632 0.0
H700 H 0.54021 0.89395 0.65203 0.0
H701 H 0.51218 0.93649 0.65752 0.0
H702 H 0.63722 0.91289 0.72455 0.0
H703 H 0.55911 1.00624 0.73502 0.0
H704 H 0.66787 0.94213 0.66047 0.0
H705 H 0.61908 0.8992 0.65529 0.0
H706 H 0.65509 0.89285 0.68255 0.0
H707 H 0.57553 0.06008 0.67233 0.0
H708 H 0.53801 0.04767 0.6992 0.0
H709 H 0.52734 0.01584 0.66867 0.0
C710 C 0.60603 0.49454 0.91758 0.0
C711 C 0.5762 0.45624 0.90747 0.0
C712 C 0.61423 0.49972 0.94518 0.0
C713 C 0.59079 0.46662 0.96325 0.0
C714 C 0.55997 0.42821 0.95321 0.0
C715 C 0.55329 0.42326 0.92537 0.0
C716 C 0.64781 0.54084 0.95497 0.0
C717 C 0.53365 0.39274 0.97187 0.0
C718 C 0.63585 0.46171 0.03416 0.0
C719 C 0.61424 0.48838 0.04807 0.0
C720 C 0.6285 0.45427 0.0066 0.0
C721 C 0.59801 0.47296 -0.00736 0.0
C722 C 0.57551 0.49919 0.00657 0.0
C723 C 0.58428 0.50708 0.03397 0.0
C724 C 0.65374 0.42685 0.99234 0.0
C725 C 0.54231 0.51922 0.99248 0.0
H726 H 0.62264 0.52099 0.9039 0.0
H727 H 0.52985 0.39385 0.91763 0.0
H728 H 0.63264 0.56261 0.96678 0.0
H729 H 0.67144 0.52986 0.96839 0.0
H730 H 0.66516 0.56178 0.93824 0.0
H731 H 0.51092 0.36497 0.96089 0.0
H732 H 0.55493 0.37751 0.9849 0.0
H733 H 0.51523 0.409 0.98517 0.0
H734 H 0.6584 0.44627 0.04485 0.0
H735 H 0.56784 0.52834 0.04428 0.0
H736 H 0.67208 0.44785 0.97601 0.0
H737 H 0.63171 0.39676 0.98297 0.0
H738 H 0.67647 0.41484 0.00605 0.0
H739 H 0.5577 0.54461 0.97706 0.0
H740 H 0.52562 0.53621 0.00653 0.0
H741 H 0.51814 0.49208 0.98202 0.0
C742 C 0.13339 0.49726 0.22598 0.0
C743 C 0.09825 0.51031 0.21439 0.0
C744 C 0.13544 0.48823 0.25365 0.0
C745 C 0.10087 0.49087 0.26974 0.0
C746 C 0.06441 0.50184 0.25775 0.0
C747 C 0.06391 0.51224 0.23027 0.0
C748 C 0.17533 0.47794 0.26581 0.0
C749 C 1.02627 0.50349 0.27404 0.0
C750 C 0.08829 0.43483 0.33887 0.0
C751 C 0.0999 0.4728 0.35561 0.0
C752 C 0.08901 0.44005 0.31089 0.0
C753 C 0.10326 0.48416 0.29928 0.0
C754 C 0.11734 0.52237 0.31595 0.0
C755 C 0.11483 0.51635 0.34385 0.0
C756 C 0.07287 0.39857 0.29378 0.0
C757 C 0.13381 0.56989 0.3043 0.0
H758 H 0.16009 0.49617 0.21363 0.0
H759 H 1.03665 0.52207 0.22114 0.0
H760 H 0.19122 0.5055 0.27967 0.0
H761 H 0.16706 0.44572 0.27777 0.0
H762 H 0.19848 0.47505 0.25039 0.0
H763 H 0.99908 0.50864 0.2613 0.0
H764 H 1.01532 0.47137 0.2859 0.0
H765 H 1.03547 0.5318 0.28841 0.0
H766 H 0.07791 0.40084 0.34759 0.0
H767 H 0.12338 0.54611 0.35634 0.0
H768 H 0.09744 0.39595 0.27933 0.0
H769 H 1.04421 0.40192 0.28192 0.0
H770 H 0.0642 0.36645 0.30591 0.0
H771 H 0.15839 0.57027 0.28922 0.0
H772 H 0.14796 0.59512 0.31991 0.0
H773 H 0.10722 0.58089 0.29391 0.0
loop_
_geom_bond_atom_site_label_1
_geom_bond_atom_site_label_2
_geom_bond_distance
_geom_bond_site_symmetry_2
_ccdc_geom_bond_type
Nd0 C2 2.836 . S
Nd0 O20 2.500 . S
Nd0 O21 2.492 . S
Nd0 O22 2.487 . S
Nd0 O23 2.681 1_455 S
Nd0 O24 2.410 . S
Nd0 O29 2.414 . S
Nd0 O31 2.424 1_455 S
Nd1 C11 2.836 . S
Nd1 O23 2.413 . S
Nd1 O25 2.424 1_655 S
Nd1 O26 2.500 . S
Nd1 O27 2.492 . S
Nd1 O28 2.487 . S
Nd1 O29 2.682 1_655 S
Nd1 O30 2.410 . S
C2 Nd0 2.836 . S
C2 C3 1.498 . S
C2 O20 1.258 . S
C2 O21 1.239 . S
C3 C2 1.498 . S
C3 C4 1.366 . S
C3 C8 1.407 . S
C4 C3 1.366 . S
C4 C5 1.392 . S
C4 H32 0.930 . S
C5 C4 1.392 . S
C5 C6 1.398 . S
C5 H33 0.929 . S
C6 C5 1.398 . S
C6 C7 1.352 . S
C7 C6 1.352 . S
C7 C8 1.384 . S
C7 H34 0.930 . S
C8 C3 1.407 . S
C8 C7 1.384 . S
C8 H35 0.929 . S
C9 O22 1.241 . S
C9 O23 1.273 1_455 S
C10 O24 1.251 . S
C10 O25 1.268 . S
C11 Nd1 2.836 . S
C11 C12 1.498 . S
C11 O26 1.258 . S
C11 O27 1.239 . S
C12 C11 1.498 . S
C12 C13 1.366 . S
C12 C17 1.407 . S
C13 C12 1.366 . S
C13 C14 1.392 . S
C13 H36 0.930 . S
C14 C13 1.392 . S
C14 C15 1.398 . S
C14 H37 0.929 . S
C15 C14 1.398 . S
C15 C16 1.352 . S
C16 C15 1.352 . S
C16 C17 1.384 . S
C16 H38 0.930 . S
C17 C12 1.407 . S
C17 C16 1.384 . S
C17 H39 0.929 . S
C18 O28 1.241 1_455 S
C18 O29 1.273 . S
C19 O30 1.251 . S
C19 O31 1.268 . S
O20 Nd0 2.500 . S
O20 C2 1.258 . S
O21 Nd0 2.492 . S
O21 C2 1.239 . S
O22 Nd0 2.487 . S
O22 C9 1.241 . S
O23 Nd0 2.681 1_655 S
O23 Nd1 2.413 . S
O23 C9 1.273 1_655 S
O24 Nd0 2.410 . S
O24 C10 1.251 . S
O25 Nd1 2.424 1_455 S
O25 C10 1.268 . S
O26 Nd1 2.500 . S
O26 C11 1.258 . S
O27 Nd1 2.492 . S
O27 C11 1.239 . S
O28 Nd1 2.487 . S
O28 C18 1.241 1_655 S
O29 Nd0 2.414 . S
O29 Nd1 2.682 1_455 S
O29 C18 1.273 . S
O30 Nd1 2.410 . S
O30 C19 1.251 . S
O31 Nd0 2.424 1_655 S
O31 C19 1.268 . S
H32 C4 0.930 . S
H33 C5 0.929 . S
H34 C7 0.930 . S
H35 C8 0.929 . S
H36 C13 0.930 . S
H37 C14 0.929 . S
H38 C16 0.930 . S
H39 C17 0.929 . S
Nd40 C42 2.836 . S
Nd40 O60 2.500 . S
Nd40 O61 2.492 . S
Nd40 O62 2.487 . S
Nd40 O63 2.682 1_565 S
Nd40 O64 2.410 . S
Nd40 O69 2.414 . S
Nd40 O71 2.424 1_565 S
Nd41 C51 2.836 . S
Nd41 O63 2.414 . S
Nd41 O65 2.424 1_545 S
Nd41 O66 2.500 . S
Nd41 O67 2.492 . S
Nd41 O68 2.487 . S
Nd41 O69 2.682 1_545 S
Nd41 O70 2.410 . S
C42 Nd40 2.836 . S
C42 C43 1.498 . S
C42 O60 1.258 . S
C42 O61 1.239 . S
C43 C42 1.498 . S
C43 C44 1.366 . S
C43 C48 1.407 . S
C44 C43 1.366 . S
C44 C45 1.392 . S
C44 H72 0.930 . S
C45 C44 1.392 . S
C45 C46 1.398 . S
C45 H73 0.929 . S
C46 C45 1.398 . S
C46 C47 1.352 . S
C47 C46 1.352 . S
C47 C48 1.384 . S
C47 H74 0.930 . S
C48 C43 1.407 . S
C48 C47 1.384 . S
C48 H75 0.929 . S
C49 O62 1.241 1_545 S
C49 O63 1.273 . S
C50 O64 1.251 . S
C50 O65 1.268 . S
C51 Nd41 2.836 . S
C51 C52 1.498 . S
C51 O66 1.258 . S
C51 O67 1.239 . S
C52 C51 1.498 . S
C52 C53 1.366 . S
C52 C57 1.407 . S
C53 C52 1.366 . S
C53 C54 1.392 . S
C53 H76 0.930 . S
C54 C53 1.392 . S
C54 C55 1.398 . S
C54 H77 0.929 . S
C55 C54 1.398 . S
C55 C56 1.352 . S
C56 C55 1.352 . S
C56 C57 1.384 . S
C56 H78 0.930 . S
C57 C52 1.407 . S
C57 C56 1.384 . S
C57 H79 0.929 . S
C58 O68 1.241 . S
C58 O69 1.273 1_545 S
C59 O70 1.251 . S
C59 O71 1.268 . S
O60 Nd40 2.500 . S
O60 C42 1.258 . S
O61 Nd40 2.492 . S
O61 C42 1.239 . S
O62 Nd40 2.487 . S
O62 C49 1.241 1_565 S
O63 Nd40 2.682 1_545 S
O63 Nd41 2.414 . S
O63 C49 1.273 . S
O64 Nd40 2.410 . S
O64 C50 1.251 . S
O65 Nd41 2.424 1_565 S
O65 C50 1.268 . S
O66 Nd41 2.500 . S
O66 C51 1.258 . S
O67 Nd41 2.492 . S
O67 C51 1.239 . S
O68 Nd41 2.487 . S
O68 C58 1.241 . S
O69 Nd40 2.414 . S
O69 Nd41 2.682 1_565 S
O69 C58 1.273 1_565 S
O70 Nd41 2.410 . S
O70 C59 1.251 . S
O71 Nd40 2.424 1_545 S
O71 C59 1.268 . S
H72 C44 0.930 . S
H73 C45 0.929 . S
H74 C47 0.930 . S
H75 C48 0.929 . S
H76 C53 0.930 . S
H77 C54 0.929 . S
H78 C56 0.930 . S
H79 C57 0.929 . S
Nd80 C82 2.836 . S
Nd80 O100 2.500 . S
Nd80 O101 2.492 . S
Nd80 O102 2.487 . S
Nd80 O103 2.682 . S
Nd80 O104 2.410 . S
Nd80 O109 2.414 . S
Nd80 O111 2.424 . S
Nd81 C91 2.836 . S
Nd81 O103 2.414 . S
Nd81 O105 2.424 . S
Nd81 O106 2.500 . S
Nd81 O107 2.492 . S
Nd81 O108 2.487 . S
Nd81 O109 2.682 . S
Nd81 O110 2.410 . S
C82 Nd80 2.836 . S
C82 C83 1.498 . S
C82 O100 1.258 . S
C82 O101 1.239 . S
C83 C82 1.498 . S
C83 C84 1.366 . S
C83 C88 1.407 . S
C84 C83 1.366 . S
C84 C85 1.392 . S
C84 H112 0.930 . S
C85 C84 1.392 . S
C85 C86 1.398 . S
C85 H113 0.929 . S
C86 C85 1.398 . S
C86 C87 1.352 . S
C87 C86 1.352 . S
C87 C88 1.384 . S
C87 H114 0.930 . S
C88 C83 1.407 . S
C88 C87 1.384 . S
C88 H115 0.929 . S
C89 O102 1.241 . S
C89 O103 1.273 . S
C90 O104 1.251 . S
C90 O105 1.268 . S
C91 Nd81 2.836 . S
C91 C92 1.498 . S
C91 O106 1.258 . S
C91 O107 1.239 . S
C92 C91 1.498 . S
C92 C93 1.366 . S
C92 C97 1.407 . S
C93 C92 1.366 . S
C93 C94 1.392 . S
C93 H116 0.930 . S
C94 C93 1.392 . S
C94 C95 1.398 . S
C94 H117 0.929 . S
C95 C94 1.398 . S
C95 C96 1.352 . S
C96 C95 1.352 . S
C96 C97 1.384 . S
C96 H118 0.930 . S
C97 C92 1.407 . S
C97 C96 1.384 . S
C97 H119 0.929 . S
C98 O108 1.241 . S
C98 O109 1.273 . S
C99 O110 1.251 . S
C99 O111 1.268 . S
O100 Nd80 2.500 . S
O100 C82 1.258 . S
O101 Nd80 2.492 . S
O101 C82 1.239 . S
O102 Nd80 2.487 . S
O102 C89 1.241 . S
O103 Nd80 2.682 . S
O103 Nd81 2.414 . S
O103 C89 1.273 . S
O104 Nd80 2.410 . S
O104 C90 1.251 . S
O105 Nd81 2.424 . S
O105 C90 1.268 . S
O106 Nd81 2.500 . S
O106 C91 1.258 . S
O107 Nd81 2.492 . S
O107 C91 1.239 . S
O108 Nd81 2.487 . S
O108 C98 1.241 . S
O109 Nd80 2.414 . S
O109 Nd81 2.682 . S
O109 C98 1.273 . S
O110 Nd81 2.410 . S
O110 C99 1.251 . S
O111 Nd80 2.424 . S
O111 C99 1.268 . S
H112 C84 0.930 . S
H113 C85 0.929 . S
H114 C87 0.930 . S
H115 C88 0.929 . S
H116 C93 0.930 . S
H117 C94 0.929 . S
H118 C96 0.930 . S
H119 C97 0.929 . S
H120 C127 0.929 . S
H121 C130 0.930 . S
H122 C132 0.929 . S
H123 C124 0.969 . S
C124 H123 0.969 . S
C124 O125 1.550 . S
C124 H126 0.973 . S
O125 C124 1.550 . S
O125 C131 1.412 . S
H126 C124 0.973 . S
C127 H120 0.929 . S
C127 C128 1.400 . S
C127 C129 1.364 . S
C128 C127 1.400 . S
C128 C132 1.377 . S
C129 C127 1.364 . S
C129 C130 1.374 1_545 S
C130 H121 0.930 . S
C130 C129 1.374 1_565 S
C130 C131 1.383 . S
C131 O125 1.412 . S
C131 C130 1.383 . S
C131 C132 1.394 1_565 S
C132 H122 0.929 . S
C132 C128 1.377 . S
C132 C131 1.394 1_545 S
H133 C140 0.929 . S
H134 C143 0.930 . S
H135 C145 0.929 . S
H136 C137 0.969 . S
C137 H136 0.969 . S
C137 O138 1.550 . S
C137 H139 0.973 . S
O138 C137 1.550 . S
O138 C144 1.412 . S
H139 C137 0.973 . S
C140 H133 0.929 . S
C140 C141 1.400 . S
C140 C142 1.364 . S
C141 C140 1.400 . S
C141 C145 1.377 . S
C142 C140 1.364 . S
C142 C143 1.374 . S
C143 H134 0.930 . S
C143 C142 1.374 . S
C143 C144 1.383 . S
C144 O138 1.412 . S
C144 C143 1.383 . S
C144 C145 1.394 . S
C145 H135 0.929 . S
C145 C141 1.377 . S
C145 C144 1.394 . S
H146 C153 0.929 1_655 S
H147 C156 0.930 . S
H148 C158 0.929 . S
H149 C150 0.969 . S
C150 H149 0.969 . S
C150 O151 1.550 . S
C150 H152 0.973 . S
O151 C150 1.550 . S
O151 C157 1.412 . S
H152 C150 0.973 . S
C153 H146 0.929 1_455 S
C153 C154 1.400 . S
C153 C155 1.364 . S
C154 C153 1.400 . S
C154 C158 1.377 . S
C155 C153 1.364 . S
C155 C156 1.374 . S
C156 H147 0.930 . S
C156 C155 1.374 . S
C156 C157 1.383 . S
C157 O151 1.412 . S
C157 C156 1.383 . S
C157 C158 1.394 . S
C158 H148 0.929 . S
C158 C154 1.377 . S
C158 C157 1.394 . S
H159 C166 0.929 . S
H160 C169 0.930 . S
H161 C171 0.929 . S
H162 C163 0.969 . S
C163 H162 0.969 . S
C163 O164 1.550 . S
C163 H165 0.973 . S
O164 C163 1.550 . S
O164 C170 1.412 . S
H165 C163 0.973 . S
C166 H159 0.929 . S
C166 C167 1.400 . S
C166 C168 1.364 1_655 S
C167 C166 1.400 . S
C167 C171 1.377 1_655 S
C168 C166 1.364 1_455 S
C168 C169 1.374 . S
C169 H160 0.930 . S
C169 C168 1.374 . S
C169 C170 1.383 . S
C170 O164 1.412 . S
C170 C169 1.383 . S
C170 C171 1.394 . S
C171 H161 0.929 . S
C171 C167 1.377 1_455 S
C171 C170 1.394 . S
H172 C179 0.929 . S
H173 C182 0.930 . S
H174 C184 0.929 . S
H175 C176 0.969 . S
C176 H175 0.969 . S
C176 O177 1.550 . S
C176 H178 0.973 . S
O177 C176 1.550 . S
O177 C183 1.412 . S
H178 C176 0.973 . S
C179 H172 0.929 . S
C179 C180 1.400 . S
C179 C181 1.386 . S
C180 C179 1.400 . S
C180 C184 1.377 . S
C181 C179 1.386 . S
C181 C182 1.354 1_565 S
C182 H173 0.930 . S
C182 C181 1.354 1_545 S
C182 C183 1.383 . S
C183 O177 1.412 . S
C183 C182 1.383 . S
C183 C184 1.394 1_545 S
C184 H174 0.929 . S
C184 C180 1.377 . S
C184 C183 1.394 1_565 S
H185 C192 0.929 . S
H186 C195 0.930 . S
H187 C197 0.929 . S
H188 C189 0.969 . S
C189 H188 0.969 . S
C189 O190 1.550 . S
C189 H191 0.973 . S
O190 C189 1.550 . S
O190 C196 1.412 . S
H191 C189 0.973 . S
C192 H185 0.929 . S
C192 C193 1.400 . S
C192 C194 1.364 . S
C193 C192 1.400 . S
C193 C197 1.377 . S
C194 C192 1.364 . S
C194 C195 1.374 . S
C195 H186 0.930 . S
C195 C194 1.374 . S
C195 C196 1.383 . S
C196 O190 1.412 . S
C196 C195 1.383 . S
C196 C197 1.394 . S
C197 H187 0.929 . S
C197 C193 1.377 . S
C197 C196 1.394 . S
C198 C199 1.391 . S
C198 C200 1.394 . S
C198 H214 0.931 . S
C199 C198 1.391 . S
C199 C203 1.376 . S
C200 C198 1.394 . S
C200 C201 1.369 . S
C200 C204 1.531 . S
C201 C200 1.369 . S
C201 C202 1.410 . S
C201 C209 1.503 . S
C202 C201 1.410 . S
C202 C203 1.392 . S
C202 C205 1.511 . S
C203 C199 1.376 . S
C203 C202 1.392 . S
C203 H215 0.929 . S
C204 C200 1.531 . S
C204 H216 0.960 . S
C204 H217 0.962 . S
C204 H218 0.960 . S
C205 C202 1.511 . S
C205 H219 0.961 . S
C205 H220 0.961 . S
C205 H221 0.961 . S
C206 C207 1.370 . S
C206 C208 1.363 . S
C206 H222 0.931 . S
C207 C206 1.370 . S
C207 C211 1.408 . S
C208 C206 1.363 . S
C208 C209 1.370 . S
C208 C212 1.524 . S
C209 C201 1.503 . S
C209 C208 1.370 . S
C209 C210 1.403 . S
C210 C209 1.403 . S
C210 C211 1.404 . S
C210 C213 1.539 . S
C211 C207 1.408 . S
C211 C210 1.404 . S
C211 H223 0.930 . S
C212 C208 1.524 . S
C212 H224 0.956 . S
C212 H225 0.961 . S
C212 H226 0.961 . S
C213 C210 1.539 . S
C213 H227 0.958 . S
C213 H228 0.961 . S
C213 H229 0.960 . S
H214 C198 0.931 . S
H215 C203 0.929 . S
H216 C204 0.960 . S
H217 C204 0.962 . S
H218 C204 0.960 . S
H219 C205 0.961 . S
H220 C205 0.961 . S
H221 C205 0.961 . S
H222 C206 0.931 . S
H223 C211 0.930 . S
H224 C212 0.956 . S
H225 C212 0.961 . S
H226 C212 0.961 . S
H227 C213 0.958 . S
H228 C213 0.961 . S
H229 C213 0.960 . S
C230 C231 1.391 . S
C230 C232 1.394 . S
C230 H246 0.931 . S
C231 C230 1.391 . S
C231 C235 1.376 . S
C232 C230 1.394 . S
C232 C233 1.369 . S
C232 C236 1.531 . S
C233 C232 1.369 . S
C233 C234 1.410 . S
C233 C241 1.503 . S
C234 C233 1.410 . S
C234 C235 1.392 . S
C234 C237 1.511 . S
C235 C231 1.376 . S
C235 C234 1.392 . S
C235 H247 0.929 . S
C236 C232 1.531 . S
C236 H248 0.960 . S
C236 H249 0.962 . S
C236 H250 0.960 . S
C237 C234 1.511 . S
C237 H251 0.961 . S
C237 H252 0.961 . S
C237 H253 0.961 . S
C238 C239 1.370 . S
C238 C240 1.363 . S
C238 H254 0.931 . S
C239 C238 1.370 . S
C239 C243 1.408 . S
C240 C238 1.363 . S
C240 C241 1.370 . S
C240 C244 1.524 . S
C241 C233 1.503 . S
C241 C240 1.370 . S
C241 C242 1.403 . S
C242 C241 1.403 . S
C242 C243 1.404 . S
C242 C245 1.539 . S
C243 C239 1.408 . S
C243 C242 1.404 . S
C243 H255 0.930 . S
C244 C240 1.524 . S
C244 H256 0.956 . S
C244 H257 0.961 . S
C244 H258 0.961 . S
C245 C242 1.539 . S
C245 H259 0.958 . S
C245 H260 0.961 . S
C245 H261 0.960 . S
H246 C230 0.931 . S
H247 C235 0.929 . S
H248 C236 0.960 . S
H249 C236 0.962 . S
H250 C236 0.960 . S
H251 C237 0.961 . S
H252 C237 0.961 . S
H253 C237 0.961 . S
H254 C238 0.931 . S
H255 C243 0.930 . S
H256 C244 0.956 . S
H257 C244 0.961 . S
H258 C244 0.961 . S
H259 C245 0.958 . S
H260 C245 0.961 . S
H261 C245 0.960 . S
C262 C263 1.391 . S
C262 C264 1.394 . S
C262 H278 0.931 . S
C263 C262 1.391 . S
C263 C267 1.376 . S
C264 C262 1.394 . S
C264 C265 1.369 . S
C264 C268 1.531 . S
C265 C264 1.369 . S
C265 C266 1.410 . S
C265 C273 1.503 . S
C266 C265 1.410 . S
C266 C267 1.392 . S
C266 C269 1.511 . S
C267 C263 1.376 . S
C267 C266 1.392 . S
C267 H279 0.929 . S
C268 C264 1.531 . S
C268 H280 0.960 . S
C268 H281 0.962 . S
C268 H282 0.960 . S
C269 C266 1.511 . S
C269 H283 0.961 . S
C269 H284 0.961 . S
C269 H285 0.961 . S
C270 C271 1.370 . S
C270 C272 1.363 . S
C270 H286 0.931 . S
C271 C270 1.370 . S
C271 C275 1.408 . S
C272 C270 1.363 . S
C272 C273 1.370 . S
C272 C276 1.524 . S
C273 C265 1.503 . S
C273 C272 1.370 . S
C273 C274 1.403 . S
C274 C273 1.403 . S
C274 C275 1.404 . S
C274 C277 1.539 . S
C275 C271 1.408 . S
C275 C274 1.404 . S
C275 H287 0.930 . S
C276 C272 1.524 . S
C276 H288 0.956 . S
C276 H289 0.961 . S
C276 H290 0.961 . S
C277 C274 1.539 . S
C277 H291 0.958 . S
C277 H292 0.961 . S
C277 H293 0.960 . S
H278 C262 0.931 . S
H279 C267 0.929 . S
H280 C268 0.960 . S
H281 C268 0.962 . S
H282 C268 0.960 . S
H283 C269 0.961 . S
H284 C269 0.961 . S
H285 C269 0.961 . S
H286 C270 0.931 . S
H287 C275 0.930 . S
H288 C276 0.956 . S
H289 C276 0.961 . S
H290 C276 0.961 . S
H291 C277 0.958 . S
H292 C277 0.961 . S
H293 C277 0.960 . S
C294 C295 1.391 . S
C294 C296 1.394 . S
C294 H310 0.931 . S
C295 C294 1.391 . S
C295 C299 1.376 . S
C296 C294 1.394 . S
C296 C297 1.369 . S
C296 C300 1.531 . S
C297 C296 1.369 . S
C297 C298 1.410 . S
C297 C305 1.503 . S
C298 C297 1.410 . S
C298 C299 1.392 . S
C298 C301 1.511 . S
C299 C295 1.376 . S
C299 C298 1.392 . S
C299 H311 0.929 . S
C300 C296 1.531 . S
C300 H312 0.960 . S
C300 H313 0.962 . S
C300 H314 0.960 . S
C301 C298 1.511 . S
C301 H315 0.961 . S
C301 H316 0.961 . S
C301 H317 0.961 . S
C302 C303 1.370 . S
C302 C304 1.363 . S
C302 H318 0.931 . S
C303 C302 1.370 . S
C303 C307 1.408 . S
C304 C302 1.363 . S
C304 C305 1.370 . S
C304 C308 1.524 . S
C305 C297 1.503 . S
C305 C304 1.370 . S
C305 C306 1.403 . S
C306 C305 1.403 . S
C306 C307 1.404 . S
C306 C309 1.539 . S
C307 C303 1.408 . S
C307 C306 1.404 . S
C307 H319 0.930 . S
C308 C304 1.524 . S
C308 H320 0.956 . S
C308 H321 0.961 . S
C308 H322 0.961 . S
C309 C306 1.539 . S
C309 H323 0.958 . S
C309 H324 0.961 . S
C309 H325 0.960 . S
H310 C294 0.931 . S
H311 C299 0.929 . S
H312 C300 0.960 . S
H313 C300 0.962 . S
H314 C300 0.960 . S
H315 C301 0.961 . S
H316 C301 0.961 . S
H317 C301 0.961 . S
H318 C302 0.931 . S
H319 C307 0.930 . S
H320 C308 0.956 . S
H321 C308 0.961 . S
H322 C308 0.961 . S
H323 C309 0.958 . S
H324 C309 0.961 . S
H325 C309 0.960 . S
C326 C327 1.391 . S
C326 C328 1.394 . S
C326 H342 0.931 . S
C327 C326 1.391 . S
C327 C331 1.376 . S
C328 C326 1.394 . S
C328 C329 1.369 . S
C328 C332 1.531 . S
C329 C328 1.369 . S
C329 C330 1.410 . S
C329 C337 1.503 . S
C330 C329 1.410 . S
C330 C331 1.392 . S
C330 C333 1.511 . S
C331 C327 1.376 . S
C331 C330 1.392 . S
C331 H343 0.929 . S
C332 C328 1.531 . S
C332 H344 0.960 . S
C332 H345 0.962 . S
C332 H346 0.960 . S
C333 C330 1.511 . S
C333 H347 0.961 . S
C333 H348 0.961 . S
C333 H349 0.961 . S
C334 C335 1.370 . S
C334 C336 1.363 . S
C334 H350 0.931 . S
C335 C334 1.370 . S
C335 C339 1.408 . S
C336 C334 1.363 . S
C336 C337 1.370 . S
C336 C340 1.524 . S
C337 C329 1.503 . S
C337 C336 1.370 . S
C337 C338 1.403 . S
C338 C337 1.403 . S
C338 C339 1.404 . S
C338 C341 1.539 . S
C339 C335 1.408 . S
C339 C338 1.404 . S
C339 H351 0.930 . S
C340 C336 1.524 . S
C340 H352 0.956 . S
C340 H353 0.961 . S
C340 H354 0.961 . S
C341 C338 1.539 . S
C341 H355 0.958 . S
C341 H356 0.961 . S
C341 H357 0.960 . S
H342 C326 0.931 . S
H343 C331 0.929 . S
H344 C332 0.960 . S
H345 C332 0.962 . S
H346 C332 0.960 . S
H347 C333 0.961 . S
H348 C333 0.961 . S
H349 C333 0.961 . S
H350 C334 0.931 . S
H351 C339 0.930 . S
H352 C340 0.956 . S
H353 C340 0.961 . S
H354 C340 0.961 . S
H355 C341 0.958 . S
H356 C341 0.961 . S
H357 C341 0.960 . S
C358 C359 1.391 . S
C358 C360 1.394 . S
C358 H374 0.931 . S
C359 C358 1.391 . S
C359 C363 1.376 . S
C360 C358 1.394 . S
C360 C361 1.369 . S
C360 C364 1.531 . S
C361 C360 1.369 . S
C361 C362 1.410 . S
C361 C369 1.503 . S
C362 C361 1.410 . S
C362 C363 1.392 . S
C362 C365 1.511 . S
C363 C359 1.376 . S
C363 C362 1.392 . S
C363 H375 0.929 . S
C364 C360 1.531 . S
C364 H376 0.960 . S
C364 H377 0.962 . S
C364 H378 0.960 . S
C365 C362 1.511 . S
C365 H379 0.961 . S
C365 H380 0.961 . S
C365 H381 0.961 . S
C366 C367 1.370 . S
C366 C368 1.363 . S
C366 H382 0.931 . S
C367 C366 1.370 . S
C367 C371 1.408 . S
C368 C366 1.363 . S
C368 C369 1.370 . S
C368 C372 1.524 . S
C369 C361 1.503 . S
C369 C368 1.370 . S
C369 C370 1.403 . S
C370 C369 1.403 . S
C370 C371 1.404 . S
C370 C373 1.539 . S
C371 C367 1.408 . S
C371 C370 1.404 . S
C371 H383 0.930 . S
C372 C368 1.524 . S
C372 H384 0.956 . S
C372 H385 0.961 . S
C372 H386 0.961 . S
C373 C370 1.539 . S
C373 H387 0.958 . S
C373 H388 0.961 . S
C373 H389 0.960 . S
H374 C358 0.931 . S
H375 C363 0.929 . S
H376 C364 0.960 . S
H377 C364 0.962 . S
H378 C364 0.960 . S
H379 C365 0.961 . S
H380 C365 0.961 . S
H381 C365 0.961 . S
H382 C366 0.931 . S
H383 C371 0.930 . S
H384 C372 0.956 . S
H385 C372 0.961 . S
H386 C372 0.961 . S
H387 C373 0.958 . S
H388 C373 0.961 . S
H389 C373 0.960 . S
C390 C391 1.391 . S
C390 C392 1.394 . S
C390 H406 0.931 . S
C391 C390 1.391 . S
C391 C395 1.376 . S
C392 C390 1.394 . S
C392 C393 1.369 . S
C392 C396 1.531 . S
C393 C392 1.369 . S
C393 C394 1.410 . S
C393 C401 1.503 . S
C394 C393 1.410 . S
C394 C395 1.392 . S
C394 C397 1.511 . S
C395 C391 1.376 . S
C395 C394 1.392 . S
C395 H407 0.929 . S
C396 C392 1.531 . S
C396 H408 0.960 . S
C396 H409 0.962 . S
C396 H410 0.960 . S
C397 C394 1.511 . S
C397 H411 0.961 . S
C397 H412 0.961 . S
C397 H413 0.961 . S
C398 C399 1.370 . S
C398 C400 1.363 . S
C398 H414 0.931 . S
C399 C398 1.370 . S
C399 C403 1.408 . S
C400 C398 1.363 . S
C400 C401 1.370 . S
C400 C404 1.524 . S
C401 C393 1.503 . S
C401 C400 1.370 . S
C401 C402 1.403 . S
C402 C401 1.403 . S
C402 C403 1.404 . S
C402 C405 1.539 . S
C403 C399 1.408 . S
C403 C402 1.404 . S
C403 H415 0.930 . S
C404 C400 1.524 . S
C404 H416 0.956 . S
C404 H417 0.961 . S
C404 H418 0.961 . S
C405 C402 1.539 . S
C405 H419 0.958 . S
C405 H420 0.961 . S
C405 H421 0.960 . S
H406 C390 0.931 . S
H407 C395 0.929 . S
H408 C396 0.960 . S
H409 C396 0.962 . S
H410 C396 0.960 . S
H411 C397 0.961 . S
H412 C397 0.961 . S
H413 C397 0.961 . S
H414 C398 0.931 . S
H415 C403 0.930 . S
H416 C404 0.956 . S
H417 C404 0.961 . S
H418 C404 0.961 . S
H419 C405 0.958 . S
H420 C405 0.961 . S
H421 C405 0.960 . S
C422 C423 1.391 . S
C422 C424 1.394 . S
C422 H438 0.931 . S
C423 C422 1.391 . S
C423 C427 1.376 . S
C424 C422 1.394 . S
C424 C425 1.369 . S
C424 C428 1.531 . S
C425 C424 1.369 . S
C425 C426 1.410 . S
C425 C433 1.503 . S
C426 C425 1.410 . S
C426 C427 1.392 . S
C426 C429 1.511 . S
C427 C423 1.376 . S
C427 C426 1.392 . S
C427 H439 0.929 . S
C428 C424 1.531 . S
C428 H440 0.960 . S
C428 H441 0.962 . S
C428 H442 0.960 . S
C429 C426 1.511 . S
C429 H443 0.961 . S
C429 H444 0.961 . S
C429 H445 0.961 . S
C430 C431 1.370 1_655 S
C430 C432 1.363 . S
C430 H446 0.931 1_655 S
C431 C430 1.370 1_455 S
C431 C435 1.408 1_455 S
C432 C430 1.363 . S
C432 C433 1.370 . S
C432 C436 1.524 . S
C433 C425 1.503 . S
C433 C432 1.370 . S
C433 C434 1.403 . S
C434 C433 1.403 . S
C434 C435 1.404 . S
C434 C437 1.539 . S
C435 C431 1.408 1_655 S
C435 C434 1.404 . S
C435 H447 0.930 . S
C436 C432 1.524 . S
C436 H448 0.956 . S
C436 H449 0.961 . S
C436 H450 0.961 . S
C437 C434 1.539 . S
C437 H451 0.958 . S
C437 H452 0.961 . S
C437 H453 0.960 . S
H438 C422 0.931 . S
H439 C427 0.929 . S
H440 C428 0.960 . S
H441 C428 0.962 . S
H442 C428 0.960 . S
H443 C429 0.961 . S
H444 C429 0.961 . S
H445 C429 0.961 . S
H446 C430 0.931 1_455 S
H447 C435 0.930 . S
H448 C436 0.956 . S
H449 C436 0.961 . S
H450 C436 0.961 . S
H451 C437 0.958 . S
H452 C437 0.961 . S
H453 C437 0.960 . S
C454 C455 1.391 . S
C454 C456 1.394 . S
C454 H470 0.931 . S
C455 C454 1.391 . S
C455 C459 1.376 . S
C456 C454 1.394 . S
C456 C457 1.369 . S
C456 C460 1.531 . S
C457 C456 1.369 . S
C457 C458 1.410 . S
C457 C465 1.503 . S
C458 C457 1.410 . S
C458 C459 1.392 . S
C458 C461 1.511 . S
C459 C455 1.376 . S
C459 C458 1.392 . S
C459 H471 0.929 . S
C460 C456 1.531 . S
C460 H472 0.960 . S
C460 H473 0.962 . S
C460 H474 0.960 . S
C461 C458 1.511 . S
C461 H475 0.961 . S
C461 H476 0.961 . S
C461 H477 0.961 . S
C462 C463 1.370 . S
C462 C464 1.363 . S
C462 H478 0.931 . S
C463 C462 1.370 . S
C463 C467 1.408 . S
C464 C462 1.363 . S
C464 C465 1.370 . S
C464 C468 1.524 . S
C465 C457 1.503 . S
C465 C464 1.370 . S
C465 C466 1.403 . S
C466 C465 1.403 . S
C466 C467 1.404 . S
C466 C469 1.539 . S
C467 C463 1.408 . S
C467 C466 1.404 . S
C467 H479 0.930 . S
C468 C464 1.524 . S
C468 H480 0.956 . S
C468 H481 0.961 . S
C468 H482 0.961 . S
C469 C466 1.539 . S
C469 H483 0.958 . S
C469 H484 0.961 . S
C469 H485 0.960 . S
H470 C454 0.931 . S
H471 C459 0.929 . S
H472 C460 0.960 . S
H473 C460 0.962 . S
H474 C460 0.960 . S
H475 C461 0.961 . S
H476 C461 0.961 . S
H477 C461 0.961 . S
H478 C462 0.931 . S
H479 C467 0.930 . S
H480 C468 0.956 . S
H481 C468 0.961 . S
H482 C468 0.961 . S
H483 C469 0.958 . S
H484 C469 0.961 . S
H485 C469 0.960 . S
C486 C487 1.391 . S
C486 C488 1.394 . S
C486 H502 0.931 . S
C487 C486 1.391 . S
C487 C491 1.376 . S
C488 C486 1.394 . S
C488 C489 1.369 . S
C488 C492 1.531 . S
C489 C488 1.369 . S
C489 C490 1.410 . S
C489 C497 1.503 . S
C490 C489 1.410 . S
C490 C491 1.392 . S
C490 C493 1.511 . S
C491 C487 1.376 . S
C491 C490 1.392 . S
C491 H503 0.929 . S
C492 C488 1.531 . S
C492 H504 0.960 . S
C492 H505 0.962 . S
C492 H506 0.960 . S
C493 C490 1.511 . S
C493 H507 0.961 . S
C493 H508 0.961 . S
C493 H509 0.961 . S
C494 C495 1.370 . S
C494 C496 1.363 . S
C494 H510 0.931 . S
C495 C494 1.370 . S
C495 C499 1.408 . S
C496 C494 1.363 . S
C496 C497 1.370 . S
C496 C500 1.524 . S
C497 C489 1.503 . S
C497 C496 1.370 . S
C497 C498 1.403 . S
C498 C497 1.403 . S
C498 C499 1.404 . S
C498 C501 1.539 . S
C499 C495 1.408 . S
C499 C498 1.404 . S
C499 H511 0.930 . S
C500 C496 1.524 . S
C500 H512 0.956 . S
C500 H513 0.961 . S
C500 H514 0.961 . S
C501 C498 1.539 . S
C501 H515 0.958 . S
C501 H516 0.961 . S
C501 H517 0.960 . S
H502 C486 0.931 . S
H503 C491 0.929 . S
H504 C492 0.960 . S
H505 C492 0.962 . S
H506 C492 0.960 . S
H507 C493 0.961 . S
H508 C493 0.961 . S
H509 C493 0.961 . S
H510 C494 0.931 . S
H511 C499 0.930 . S
H512 C500 0.956 . S
H513 C500 0.961 . S
H514 C500 0.961 . S
H515 C501 0.958 . S
H516 C501 0.961 . S
H517 C501 0.960 . S
C518 C519 1.391 . S
C518 C520 1.394 . S
C518 H534 0.931 . S
C519 C518 1.391 . S
C519 C523 1.376 . S
C520 C518 1.394 . S
C520 C521 1.369 . S
C520 C524 1.531 . S
C521 C520 1.369 . S
C521 C522 1.410 . S
C521 C529 1.503 . S
C522 C521 1.410 . S
C522 C523 1.392 . S
C522 C525 1.511 . S
C523 C519 1.376 . S
C523 C522 1.392 . S
C523 H535 0.929 . S
C524 C520 1.531 . S
C524 H536 0.960 . S
C524 H537 0.962 . S
C524 H538 0.960 . S
C525 C522 1.511 . S
C525 H539 0.961 . S
C525 H540 0.961 . S
C525 H541 0.961 . S
C526 C527 1.370 . S
C526 C528 1.363 . S
C526 H542 0.931 . S
C527 C526 1.370 . S
C527 C531 1.408 . S
C528 C526 1.363 . S
C528 C529 1.370 . S
C528 C532 1.524 . S
C529 C521 1.503 . S
C529 C528 1.370 . S
C529 C530 1.403 . S
C530 C529 1.403 . S
C530 C531 1.404 . S
C530 C533 1.539 . S
C531 C527 1.408 . S
C531 C530 1.404 . S
C531 H543 0.930 . S
C532 C528 1.524 . S
C532 H544 0.956 . S
C532 H545 0.961 . S
C532 H546 0.961 . S
C533 C530 1.539 . S
C533 H547 0.958 . S
C533 H548 0.961 . S
C533 H549 0.960 . S
H534 C518 0.931 . S
H535 C523 0.929 . S
H536 C524 0.960 . S
H537 C524 0.962 . S
H538 C524 0.960 . S
H539 C525 0.961 . S
H540 C525 0.961 . S
H541 C525 0.961 . S
H542 C526 0.931 . S
H543 C531 0.930 . S
H544 C532 0.956 . S
H545 C532 0.961 . S
H546 C532 0.961 . S
H547 C533 0.958 . S
H548 C533 0.961 . S
H549 C533 0.960 . S
C550 C551 1.391 . S
C550 C552 1.394 . S
C550 H566 0.931 . S
C551 C550 1.391 . S
C551 C555 1.376 . S
C552 C550 1.394 . S
C552 C553 1.369 . S
C552 C556 1.531 . S
C553 C552 1.369 . S
C553 C554 1.410 . S
C553 C561 1.503 . S
C554 C553 1.410 . S
C554 C555 1.392 . S
C554 C557 1.511 . S
C555 C551 1.376 . S
C555 C554 1.392 . S
C555 H567 0.929 . S
C556 C552 1.531 . S
C556 H568 0.960 . S
C556 H569 0.962 . S
C556 H570 0.960 . S
C557 C554 1.511 . S
C557 H571 0.961 . S
C557 H572 0.961 . S
C557 H573 0.961 . S
C558 C559 1.370 . S
C558 C560 1.363 . S
C558 H574 0.931 . S
C559 C558 1.370 . S
C559 C563 1.408 . S
C560 C558 1.363 . S
C560 C561 1.370 . S
C560 C564 1.524 . S
C561 C553 1.503 . S
C561 C560 1.370 . S
C561 C562 1.403 . S
C562 C561 1.403 . S
C562 C563 1.404 . S
C562 C565 1.539 . S
C563 C559 1.408 . S
C563 C562 1.404 . S
C563 H575 0.930 . S
C564 C560 1.524 . S
C564 H576 0.956 . S
C564 H577 0.961 . S
C564 H578 0.961 . S
C565 C562 1.539 . S
C565 H579 0.958 . S
C565 H580 0.961 . S
C565 H581 0.960 . S
H566 C550 0.931 . S
H567 C555 0.929 . S
H568 C556 0.960 . S
H569 C556 0.962 . S
H570 C556 0.960 . S
H571 C557 0.961 . S
H572 C557 0.961 . S
H573 C557 0.961 . S
H574 C558 0.931 . S
H575 C563 0.930 . S
H576 C564 0.956 . S
H577 C564 0.961 . S
H578 C564 0.961 . S
H579 C565 0.958 . S
H580 C565 0.961 . S
H581 C565 0.960 . S
C582 C583 1.391 . S
C582 C584 1.394 . S
C582 H598 0.931 . S
C583 C582 1.391 . S
C583 C587 1.376 1_455 S
C584 C582 1.394 . S
C584 C585 1.369 . S
C584 C588 1.531 . S
C585 C584 1.369 . S
C585 C586 1.410 1_455 S
C585 C593 1.503 . S
C586 C585 1.410 1_655 S
C586 C587 1.392 . S
C586 C589 1.511 . S
C587 C583 1.376 1_655 S
C587 C586 1.392 . S
C587 H599 0.929 . S
C588 C584 1.531 . S
C588 H600 0.960 . S
C588 H601 0.962 . S
C588 H602 0.960 . S
C589 C586 1.511 . S
C589 H603 0.961 . S
C589 H604 0.961 . S
C589 H605 0.961 . S
C590 C591 1.370 . S
C590 C592 1.363 . S
C590 H606 0.931 . S
C591 C590 1.370 . S
C591 C595 1.408 . S
C592 C590 1.363 . S
C592 C593 1.370 1_556 S
C592 C596 1.524 1_556 S
C593 C585 1.503 . S
C593 C592 1.370 1_554 S
C593 C594 1.403 1_554 S
C594 C593 1.403 1_556 S
C594 C595 1.404 . S
C594 C597 1.539 . S
C595 C591 1.408 . S
C595 C594 1.404 . S
C595 H607 0.930 . S
C596 C592 1.524 1_554 S
C596 H608 0.956 . S
C596 H609 0.961 . S
C596 H610 0.961 . S
C597 C594 1.539 . S
C597 H611 0.958 . S
C597 H612 0.961 1_455 S
C597 H613 0.960 1_456 S
H598 C582 0.931 . S
H599 C587 0.929 . S
H600 C588 0.960 . S
H601 C588 0.962 . S
H602 C588 0.960 . S
H603 C589 0.961 . S
H604 C589 0.961 . S
H605 C589 0.961 . S
H606 C590 0.931 . S
H607 C595 0.930 . S
H608 C596 0.956 . S
H609 C596 0.961 . S
H610 C596 0.961 . S
H611 C597 0.958 . S
H612 C597 0.961 1_655 S
H613 C597 0.960 1_654 S
C614 C615 1.391 . S
C614 C616 1.394 . S
C614 H630 0.931 . S
C615 C614 1.391 . S
C615 C619 1.376 1_545 S
C616 C614 1.394 . S
C616 C617 1.369 . S
C616 C620 1.531 . S
C617 C616 1.369 . S
C617 C618 1.410 1_545 S
C617 C625 1.503 . S
C618 C617 1.410 1_565 S
C618 C619 1.392 . S
C618 C621 1.511 . S
C619 C615 1.376 1_565 S
C619 C618 1.392 . S
C619 H631 0.929 . S
C620 C616 1.531 . S
C620 H632 0.960 . S
C620 H633 0.962 . S
C620 H634 0.960 . S
C621 C618 1.511 . S
C621 H635 0.961 . S
C621 H636 0.961 . S
C621 H637 0.961 . S
C622 C623 1.370 1_565 S
C622 C624 1.363 . S
C622 H638 0.931 . S
C623 C622 1.370 1_545 S
C623 C627 1.408 . S
C624 C622 1.363 . S
C624 C625 1.370 1_565 S
C624 C628 1.524 . S
C625 C617 1.503 . S
C625 C624 1.370 1_545 S
C625 C626 1.403 . S
C626 C625 1.403 . S
C626 C627 1.404 . S
C626 C629 1.539 . S
C627 C623 1.408 . S
C627 C626 1.404 . S
C627 H639 0.930 . S
C628 C624 1.524 . S
C628 H640 0.956 . S
C628 H641 0.961 . S
C628 H642 0.961 . S
C629 C626 1.539 . S
C629 H643 0.958 . S
C629 H644 0.961 . S
C629 H645 0.960 . S
H630 C614 0.931 . S
H631 C619 0.929 . S
H632 C620 0.960 . S
H633 C620 0.962 . S
H634 C620 0.960 . S
H635 C621 0.961 . S
H636 C621 0.961 . S
H637 C621 0.961 . S
H638 C622 0.931 . S
H639 C627 0.930 . S
H640 C628 0.956 . S
H641 C628 0.961 . S
H642 C628 0.961 . S
H643 C629 0.958 . S
H644 C629 0.961 . S
H645 C629 0.960 . S
C646 C647 1.391 . S
C646 C648 1.394 . S
C646 H662 0.931 . S
C647 C646 1.391 . S
C647 C651 1.376 . S
C648 C646 1.394 . S
C648 C649 1.369 . S
C648 C652 1.531 . S
C649 C648 1.369 . S
C649 C650 1.410 . S
C649 C657 1.503 . S
C650 C649 1.410 . S
C650 C651 1.392 . S
C650 C653 1.511 . S
C651 C647 1.376 . S
C651 C650 1.392 . S
C651 H663 0.929 . S
C652 C648 1.531 . S
C652 H664 0.960 . S
C652 H665 0.962 . S
C652 H666 0.960 . S
C653 C650 1.511 . S
C653 H667 0.961 . S
C653 H668 0.961 . S
C653 H669 0.961 . S
C654 C655 1.370 . S
C654 C656 1.363 . S
C654 H670 0.931 . S
C655 C654 1.370 . S
C655 C659 1.408 . S
C656 C654 1.363 . S
C656 C657 1.370 . S
C656 C660 1.524 . S
C657 C649 1.503 . S
C657 C656 1.370 . S
C657 C658 1.403 . S
C658 C657 1.403 . S
C658 C659 1.404 . S
C658 C661 1.539 . S
C659 C655 1.408 . S
C659 C658 1.404 . S
C659 H671 0.930 . S
C660 C656 1.524 . S
C660 H672 0.956 . S
C660 H673 0.961 . S
C660 H674 0.961 . S
C661 C658 1.539 . S
C661 H675 0.958 . S
C661 H676 0.961 . S
C661 H677 0.960 . S
H662 C646 0.931 . S
H663 C651 0.929 . S
H664 C652 0.960 . S
H665 C652 0.962 . S
H666 C652 0.960 . S
H667 C653 0.961 . S
H668 C653 0.961 . S
H669 C653 0.961 . S
H670 C654 0.931 . S
H671 C659 0.930 . S
H672 C660 0.956 . S
H673 C660 0.961 . S
H674 C660 0.961 . S
H675 C661 0.958 . S
H676 C661 0.961 . S
H677 C661 0.960 . S
C678 C679 1.391 . S
C678 C680 1.394 . S
C678 H694 0.931 . S
C679 C678 1.391 . S
C679 C683 1.376 1_545 S
C680 C678 1.394 . S
C680 C681 1.369 . S
C680 C684 1.531 . S
C681 C680 1.369 . S
C681 C682 1.410 1_545 S
C681 C689 1.503 . S
C682 C681 1.410 1_565 S
C682 C683 1.392 . S
C682 C685 1.511 . S
C683 C679 1.376 1_565 S
C683 C682 1.392 . S
C683 H695 0.929 . S
C684 C680 1.531 . S
C684 H696 0.960 . S
C684 H697 0.962 . S
C684 H698 0.960 . S
C685 C682 1.511 . S
C685 H699 0.961 . S
C685 H700 0.961 . S
C685 H701 0.961 . S
C686 C687 1.370 1_565 S
C686 C688 1.363 . S
C686 H702 0.931 . S
C687 C686 1.370 1_545 S
C687 C691 1.408 . S
C688 C686 1.363 . S
C688 C689 1.370 1_565 S
C688 C692 1.524 . S
C689 C681 1.503 . S
C689 C688 1.370 1_545 S
C689 C690 1.403 . S
C690 C689 1.403 . S
C690 C691 1.404 . S
C690 C693 1.539 . S
C691 C687 1.408 . S
C691 C690 1.404 . S
C691 H703 0.930 . S
C692 C688 1.524 . S
C692 H704 0.956 . S
C692 H705 0.961 . S
C692 H706 0.961 . S
C693 C690 1.539 . S
C693 H707 0.958 . S
C693 H708 0.961 . S
C693 H709 0.960 . S
H694 C678 0.931 . S
H695 C683 0.929 . S
H696 C684 0.960 . S
H697 C684 0.962 . S
H698 C684 0.960 . S
H699 C685 0.961 . S
H700 C685 0.961 . S
H701 C685 0.961 . S
H702 C686 0.931 . S
H703 C691 0.930 . S
H704 C692 0.956 . S
H705 C692 0.961 . S
H706 C692 0.961 . S
H707 C693 0.958 . S
H708 C693 0.961 . S
H709 C693 0.960 . S
C710 C711 1.391 . S
C710 C712 1.394 . S
C710 H726 0.931 . S
C711 C710 1.391 . S
C711 C715 1.376 . S
C712 C710 1.394 . S
C712 C713 1.369 . S
C712 C716 1.531 . S
C713 C712 1.369 . S
C713 C714 1.410 . S
C713 C721 1.503 1_556 S
C714 C713 1.410 . S
C714 C715 1.392 . S
C714 C717 1.511 . S
C715 C711 1.376 . S
C715 C714 1.392 . S
C715 H727 0.929 . S
C716 C712 1.531 . S
C716 H728 0.980 . S
C716 H729 0.962 . S
C716 H730 0.960 . S
C717 C714 1.511 . S
C717 H731 0.961 . S
C717 H732 0.961 . S
C717 H733 0.961 . S
C718 C719 1.370 . S
C718 C720 1.363 . S
C718 H734 0.931 . S
C719 C718 1.370 . S
C719 C723 1.408 . S
C720 C718 1.363 . S
C720 C721 1.370 . S
C720 C724 1.524 . S
C721 C713 1.503 1_554 S
C721 C720 1.370 . S
C721 C722 1.403 . S
C722 C721 1.403 . S
C722 C723 1.404 . S
C722 C725 1.539 . S
C723 C719 1.408 . S
C723 C722 1.404 . S
C723 H735 0.930 . S
C724 C720 1.524 . S
C724 H736 0.956 1_554 S
C724 H737 0.961 1_554 S
C724 H738 0.961 . S
C725 C722 1.539 . S
C725 H739 0.958 . S
C725 H740 0.961 . S
C725 H741 0.960 1_554 S
H726 C710 0.931 . S
H727 C715 0.929 . S
H728 C716 0.980 . S
H729 C716 0.962 . S
H730 C716 0.960 . S
H731 C717 0.961 . S
H732 C717 0.961 . S
H733 C717 0.961 . S
H734 C718 0.931 . S
H735 C723 0.930 . S
H736 C724 0.956 1_556 S
H737 C724 0.961 1_556 S
H738 C724 0.961 . S
H739 C725 0.958 . S
H740 C725 0.961 . S
H741 C725 0.960 1_556 S
C742 C743 1.391 . S
C742 C744 1.394 . S
C742 H758 0.931 . S
C743 C742 1.391 . S
C743 C747 1.376 1_455 S
C744 C742 1.394 . S
C744 C745 1.369 . S
C744 C748 1.531 . S
C745 C744 1.369 . S
C745 C746 1.410 1_455 S
C745 C753 1.503 . S
C746 C745 1.410 1_655 S
C746 C747 1.392 . S
C746 C749 1.511 . S
C747 C743 1.376 1_655 S
C747 C746 1.392 . S
C747 H759 0.929 . S
C748 C744 1.531 . S
C748 H760 0.960 . S
C748 H761 0.962 . S
C748 H762 0.960 . S
C749 C746 1.511 . S
C749 H763 0.961 . S
C749 H764 0.961 . S
C749 H765 0.961 . S
C750 C751 1.370 . S
C750 C752 1.363 . S
C750 H766 0.931 . S
C751 C750 1.370 . S
C751 C755 1.408 . S
C752 C750 1.363 . S
C752 C753 1.370 . S
C752 C756 1.524 . S
C753 C745 1.503 . S
C753 C752 1.370 . S
C753 C754 1.403 1_455 S
C754 C753 1.403 1_655 S
C754 C755 1.404 1_655 S
C754 C757 1.539 . S
C755 C751 1.408 . S
C755 C754 1.404 1_455 S
C755 H767 0.930 1_455 S
C756 C752 1.524 . S
C756 H768 0.956 . S
C756 H769 0.961 . S
C756 H770 0.961 . S
C757 C754 1.539 . S
C757 H771 0.958 . S
C757 H772 0.961 . S
C757 H773 0.960 . S
H758 C742 0.931 . S
H759 C747 0.929 . S
H760 C748 0.960 . S
H761 C748 0.962 . S
H762 C748 0.960 . S
H763 C749 0.961 . S
H764 C749 0.961 . S
H765 C749 0.961 . S
H766 C750 0.931 . S
H767 C755 0.930 1_655 S
H768 C756 0.956 . S
H769 C756 0.961 . S
H770 C756 0.961 . S
H771 C757 0.958 . S
H772 C757 0.961 . S
H773 C757 0.960 . S
C199 C10 3.153 . S
C207 C189 2.954 . S
C231 C55 1.100 . S
C239 C167 1.097 . S
C263 C90 1.828 . S
C271 C180 1.831 . S
C295 C19 2.925 . S
C303 C193 2.918 . S
C335 C163 1.357 . S
C327 C46 1.397 . S
C367 C176 1.916 . S
C359 C99 2.035 . S
C391 C50 1.823 . S
C399 C141 1.815 . S
C423 C95 0.402 . S
C431 C154 0.343 . S
C455 C6 1.319 . S
C463 C124 1.253 . S
C495 C137 1.883 . S
C487 C59 2.024 . S
C527 C150 0.569 . S
C519 C86 0.680 . S
C551 C15 1.143 . S
C559 C128 1.151 . S
C591 C155 1.256 . S
C583 C18 1.205 . S
C615 C49 1.501 . S
C623 C129 1.542 . S
C647 C98 1.467 . S
C655 C142 1.492 . S
C687 C181 1.497 1_545 S
C679 C58 1.452 . S
C719 C194 1.759 . S
C711 C89 1.639 . S
C743 C9 1.472 . S
C751 C168 1.576 . S
