# Generated by pormake.
# Topology zzz, (3,6)-cn, num edge types: 1
# Building blocks:
#     Node 0, Type 0, BuildingBlock: PAMTOO_clean_linker_0, # of connection points: 3
#     Node 1, Type 0, BuildingBlock: PAMTOO_clean_linker_0, # of connection points: 3
#     Node 2, Type 0, BuildingBlock: PAMTOO_clean_linker_0, # of connection points: 3
#     Node 3, Type 0, BuildingBlock: PAMTOO_clean_linker_0, # of connection points: 3
#     Node 4, Type 0, BuildingBlock: PAMTOO_clean_linker_0, # of connection points: 3
#     Node 5, Type 0, BuildingBlock: PAMTOO_clean_linker_0, # of connection points: 3
#     Node 6, Type 0, BuildingBlock: PAMTOO_clean_linker_0, # of connection points: 3
#     Node 7, Type 0, BuildingBlock: PAMTOO_clean_linker_0, # of connection points: 3
#     Node 8, Type 1, BuildingBlock: GEDQOX_clean_sbu_0, # of connection points: 6
#     Node 9, Type 1, BuildingBlock: GEDQOX_clean_sbu_0, # of connection points: 6
#     Node 10, Type 1, BuildingBlock: GEDQOX_clean_sbu_0, # of connection points: 6
#     Node 11, Type 1, BuildingBlock: GEDQOX_clean_sbu_0, # of connection points: 6
#     Edge 12, Type (0, 1), BuildingBlock: XUDNAN_clean_linker_2, # of connection points: 2
#     Edge 13, Type (0, 1), BuildingBlock: XUDNAN_clean_linker_2, # of connection points: 2
#     Edge 14, Type (0, 1), BuildingBlock: XUDNAN_clean_linker_2, # of connection points: 2
#     Edge 15, Type (0, 1), BuildingBlock: XUDNAN_clean_linker_2, # of connection points: 2
#     Edge 16, Type (0, 1), BuildingBlock: XUDNAN_clean_linker_2, # of connection points: 2
#     Edge 17, Type (0, 1), BuildingBlock: XUDNAN_clean_linker_2, # of connection points: 2
#     Edge 18, Type (0, 1), BuildingBlock: XUDNAN_clean_linker_2, # of connection points: 2
#     Edge 19, Type (0, 1), BuildingBlock: XUDNAN_clean_linker_2, # of connection points: 2
#     Edge 20, Type (0, 1), BuildingBlock: XUDNAN_clean_linker_2, # of connection points: 2
#     Edge 21, Type (0, 1), BuildingBlock: XUDNAN_clean_linker_2, # of connection points: 2
#     Edge 22, Type (0, 1), BuildingBlock: XUDNAN_clean_linker_2, # of connection points: 2
#     Edge 23, Type (0, 1), BuildingBlock: XUDNAN_clean_linker_2, # of connection points: 2
#     Edge 24, Type (0, 1), BuildingBlock: XUDNAN_clean_linker_2, # of connection points: 2
#     Edge 25, Type (0, 1), BuildingBlock: XUDNAN_clean_linker_2, # of connection points: 2
#     Edge 26, Type (0, 1), BuildingBlock: XUDNAN_clean_linker_2, # of connection points: 2
#     Edge 27, Type (0, 1), BuildingBlock: XUDNAN_clean_linker_2, # of connection points: 2
#     Edge 28, Type (0, 1), BuildingBlock: XUDNAN_clean_linker_2, # of connection points: 2
#     Edge 29, Type (0, 1), BuildingBlock: XUDNAN_clean_linker_2, # of connection points: 2
#     Edge 30, Type (0, 1), BuildingBlock: XUDNAN_clean_linker_2, # of connection points: 2
#     Edge 31, Type (0, 1), BuildingBlock: XUDNAN_clean_linker_2, # of connection points: 2
#     Edge 32, Type (0, 1), BuildingBlock: XUDNAN_clean_linker_2, # of connection points: 2
#     Edge 33, Type (0, 1), BuildingBlock: XUDNAN_clean_linker_2, # of connection points: 2
#     Edge 34, Type (0, 1), BuildingBlock: XUDNAN_clean_linker_2, # of connection points: 2
#     Edge 35, Type (0, 1), BuildingBlock: XUDNAN_clean_linker_2, # of connection points: 2
# Relax obj value: 0.128
# Max RMSD: 0.184
# Mean RMSD: 0.084
data_MOF--net-zzz--node1-GEDQOX_clean_sbu_0--node2-PAMTOO_clean_linker_0--edge1-XUDNAN_clean_linker_2
_symmetry_space_group_name_H-M    P1
_symmetry_Int_Tables_number       1
_symmetry_cell_setting            triclinic
loop_
_symmetry_equiv_pos_as_xyz
'x, y, z'
_cell_length_a     54.537907
_cell_length_b     54.060456
_cell_length_c     17.236558
_cell_angle_alpha  79.514649
_cell_angle_beta   89.095603
_cell_angle_gamma 99.86984
loop_
_atom_site_label
_atom_site_type_symbol
_atom_site_fract_x
_atom_site_fract_y
_atom_site_fract_z
_atom_type_partial_charge
H0 H 0.85575 0.55934 0.08987 0.0
H1 H 0.80568 0.58268 0.91357 0.0
H2 H 0.78137 0.56546 0.15973 0.0
H3 H 0.76333 0.54851 0.93801 0.0
C4 C 0.75551 0.56541 0.94881 0.0
O5 O 0.76657 0.57509 0.01167 0.0
H6 H 0.75983 0.58032 0.89445 0.0
C7 C 0.83707 0.56224 0.07446 0.0
C8 C 0.81961 0.56186 0.13476 0.0
C9 C 0.83247 0.57094 0.99533 0.0
C10 C 0.80901 0.57576 0.97486 0.0
C11 C 0.78974 0.57148 0.03343 0.0
C12 C 0.7953 0.56557 0.11415 0.0
H13 H 0.99551 0.83693 0.20274 0.0
H14 H 0.98764 0.77948 0.05797 0.0
H15 H 0.00827 0.76188 0.30031 0.0
H16 H 0.03468 0.73655 0.16162 0.0
C17 C 0.01876 0.7383 0.12274 0.0
O18 O 0.9991 0.74351 0.16583 0.0
H19 H 0.02537 0.75453 0.07309 0.0
C20 C 0.99492 0.81728 0.19648 0.0
C21 C 1.00092 0.8004 0.26143 0.0
C22 C 0.99014 0.81021 0.12306 0.0
C23 C 0.99104 0.78513 0.1146 0.0
C24 C 0.99776 0.76756 0.17769 0.0
C25 C 1.00302 0.77529 0.25153 0.0
H26 H 0.69478 0.95863 0.18472 0.0
H27 H 0.7428 0.94652 1.00002 0.0
H28 H 0.77276 0.96285 0.22007 0.0
H29 H 0.79679 0.99158 0.03621 0.0
C30 C 0.79944 0.97245 0.026 0.0
O31 O 0.78412 0.95329 0.07897 0.0
H32 H 0.79397 0.97077 0.96506 0.0
C33 C 0.71306 0.95666 0.16332 0.0
C34 C 0.73277 0.96001 0.21255 0.0
C35 C 0.71601 0.95117 0.08785 0.0
C36 C 0.74013 0.95059 0.05852 0.0
C37 C 0.7609 0.95517 0.10569 0.0
C38 C 0.75708 0.9599 0.18304 0.0
H39 H 0.51117 0.72314 0.47455 0.0
H40 H 0.50978 0.79768 0.34762 0.0
H41 H 0.51459 0.78582 0.60025 0.0
H42 H 0.48927 0.8432 0.48601 0.0
C43 C 0.49534 0.83431 0.43743 0.0
O44 O 0.51435 0.82104 0.46428 0.0
H45 H 0.47857 0.82099 0.42469 0.0
C46 C 0.51021 0.74289 0.4763 0.0
C47 C 0.51191 0.75151 0.54832 0.0
C48 C 0.50778 0.75908 0.4053 0.0
C49 C 0.51019 0.78511 0.40324 0.0
C50 C 0.5123 0.79515 0.47215 0.0
C51 C 0.51293 0.77825 0.54621 0.0
H52 H 0.20081 0.48079 0.7372 0.0
H53 H 0.26061 0.50428 0.88173 0.0
H54 H 0.27662 0.48805 0.65282 0.0
H55 H 0.30959 0.46401 0.79933 0.0
C56 C 0.30596 0.4783 0.83497 0.0
O57 O 0.29569 0.49712 0.78827 0.0
H58 H 0.29273 0.46828 0.88535 0.0
C59 C 0.22061 0.48402 0.74758 0.0
C60 C 0.23746 0.48452 0.68562 0.0
C61 C 0.22871 0.49313 0.81558 0.0
C62 C 0.25406 0.49716 0.82951 0.0
C63 C 0.27125 0.49358 0.77305 0.0
C64 C 0.26312 0.48821 0.69938 0.0
H65 H 0.07131 0.22788 0.63605 0.0
H66 H 0.05015 0.28151 0.76633 0.0
H67 H 0.05862 0.3011 0.51279 0.0
H68 H 0.08696 0.34277 0.65026 0.0
C69 C 0.06941 0.33536 0.68708 0.0
O70 O 0.05328 0.31939 0.64788 0.0
H71 H 0.07451 0.32439 0.74379 0.0
C72 C 0.06829 0.24724 0.63579 0.0
C73 C 0.06524 0.26296 0.56414 0.0
C74 C 0.06144 0.2533 0.70766 0.0
C75 C 0.05605 0.27727 0.71056 0.0
C76 C 0.05736 0.2956 0.64135 0.0
C77 C 0.06062 0.28806 0.56697 0.0
H78 H 0.36487 0.1137 0.67541 0.0
H79 H 0.29837 0.08734 0.82318 0.0
H80 H 0.29304 0.1149 0.57597 0.0
H81 H 0.25532 0.13288 0.7257 0.0
C82 C 0.25335 0.11265 0.75639 0.0
O83 O 0.26764 0.09974 0.71524 0.0
H84 H 0.26004 0.11223 0.81717 0.0
C85 C 0.34479 0.11194 0.68267 0.0
C86 C 0.33071 0.11452 0.61533 0.0
C87 C 0.3333 0.09986 0.75588 0.0
C88 C 0.30747 0.09742 0.76721 0.0
C89 C 0.29293 0.1052 0.70394 0.0
C90 C 0.30453 0.11283 0.62657 0.0
H91 H 0.56887 0.34094 0.30607 0.0
H92 H 0.56488 0.26957 0.46605 0.0
H93 H 0.52798 0.27189 0.24729 0.0
H94 H 0.57431 0.23187 0.3887 0.0
C95 C 0.55433 0.22295 0.38814 0.0
O96 O 0.5393 0.2416 0.3788 0.0
H97 H 0.55233 0.21304 0.33696 0.0
C98 C 0.56411 0.32022 0.31725 0.0
C99 C 0.54859 0.30835 0.26583 0.0
C100 C 0.56927 0.30652 0.39022 0.0
C101 C 0.56151 0.28005 0.40851 0.0
C102 C 0.54805 0.26709 0.35531 0.0
C103 C 0.54082 0.28138 0.28437 0.0
Nd104 Nd 0.02079 0.01821 0.83519 0.0
Nd105 Nd 0.03346 0.03601 0.00689 0.0
C106 C 0.9998 0.98997 0.73349 0.0
C107 C 0.00444 0.96901 0.69098 0.0
C108 C 0.98612 0.94694 0.69531 0.0
C109 C 0.98926 0.92751 0.65335 0.0
C110 C 0.01096 0.9293 0.60545 0.0
C111 C 0.02948 0.95135 0.60179 0.0
C112 C 0.02626 0.97087 0.64364 0.0
C113 C 0.07119 0.0384 0.83384 0.0
C114 C 0.04526 0.98144 0.97723 0.0
C115 C 0.05273 0.06434 0.11152 0.0
C116 C 0.05009 0.08688 0.14993 0.0
C117 C 0.07119 0.10564 0.15423 0.0
C118 C 0.07001 0.12602 0.19434 0.0
C119 C 0.04758 0.12865 0.23124 0.0
C120 C 0.0263 0.11005 0.22591 0.0
C121 C 0.02755 0.08944 0.18648 0.0
C122 C 0.98329 0.01372 0.00488 0.0
C123 C 0.01683 0.07502 0.85764 0.0
O124 O 0.99504 0.98401 0.81008 0.0
O125 O 0.01318 0.0129 0.71183 0.0
O126 O 0.05946 0.02928 0.7773 0.0
O127 O 0.05564 0.03637 0.89224 0.0
O128 O 0.03721 0.98615 0.90537 0.0
O129 O 0.04593 0.99699 0.02885 0.0
O130 O 0.06034 0.06874 0.03707 0.0
O131 O 0.03651 0.04306 0.13066 0.0
O132 O 0.99413 0.02101 0.06563 0.0
O133 O 0.99976 0.01802 0.94876 0.0
O134 O 0.01578 0.06692 0.93452 0.0
O135 O 0.01582 0.05988 0.80514 0.0
H136 H 0.96909 0.94477 0.73104 0.0
H137 H 0.97468 0.91086 0.65933 0.0
H138 H 0.04638 0.95383 0.56531 0.0
H139 H 0.04083 0.98752 0.63837 0.0
H140 H 0.08887 0.10437 0.12712 0.0
H141 H 0.08675 0.13995 0.19565 0.0
H142 H 0.00865 0.11113 0.25366 0.0
H143 H 0.01089 0.0754 0.1852 0.0
Nd144 Nd 0.53322 0.01702 0.84132 0.0
Nd145 Nd 0.52726 0.0461 0.9826 0.0
C146 C 0.54732 0.98727 0.74724 0.0
C147 C 0.56968 0.98568 0.69764 0.0
C148 C 0.58342 0.96581 0.71882 0.0
C149 C 0.60413 0.96396 0.67151 0.0
C150 C 0.61175 0.98204 0.60199 0.0
C151 C 0.59774 1.0016 0.58029 0.0
C152 C 0.57702 1.00335 0.62705 0.0
C153 C 0.53504 0.06867 0.79533 0.0
C154 C 0.58116 0.03156 0.95029 0.0
C155 C 0.51472 0.07908 0.06736 0.0
C156 C 0.49234 0.0822 0.11466 0.0
C157 C 0.48241 0.10475 0.09562 0.0
C158 C 0.46208 0.10887 0.13979 0.0
C159 C 0.4505 0.09044 0.20473 0.0
C160 C 0.46036 0.0676 0.22326 0.0
C161 C 0.48095 0.06358 0.17916 0.0
C162 C 0.51419 0.99377 0.03986 0.0
C163 C 0.47955 0.02813 0.8814 0.0
O164 O 0.54862 0.98248 0.82413 0.0
O165 O 0.53518 0.00594 0.72364 0.0
O166 O 0.52532 0.05156 0.7557 0.0
O167 O 0.54509 0.0587 0.85703 0.0
O168 O 0.57236 0.02337 0.887 0.0
O169 O 0.56836 0.04271 0.99555 0.0
O170 O 0.51311 0.08196 0.99063 0.0
O171 O 0.52708 0.06092 0.09534 0.0
O172 O 0.51266 0.01144 0.08006 0.0
O173 O 0.52086 1.00429 0.96917 0.0
O174 O 0.49197 0.04548 0.91691 0.0
O175 O 0.49034 0.0106 0.85664 0.0
H176 H 0.57819 0.9517 0.77227 0.0
H177 H 0.61454 0.94874 0.69035 0.0
H178 H 0.60282 0.01567 0.52667 0.0
H179 H 0.56681 0.01869 0.60774 0.0
H180 H 0.49068 0.11955 0.04667 0.0
H181 H 0.45593 0.12701 0.12343 0.0
H182 H 0.45211 0.05258 0.2715 0.0
H183 H 0.48793 0.04586 0.19573 0.0
Nd184 Nd 0.52499 0.53542 0.99846 0.0
Nd185 Nd 0.53138 0.52424 0.84501 0.0
C186 C 0.51155 0.55521 0.11585 0.0
C187 C 0.50987 0.58219 0.11244 0.0
C188 C 0.48974 0.59221 0.07668 0.0
C189 C 0.48911 0.61814 0.06822 0.0
C190 C 0.5086 0.63436 0.09483 0.0
C191 C 0.52915 0.62476 0.12769 0.0
C192 C 0.52975 0.59877 0.13676 0.0
C193 C 0.57277 0.53014 0.96881 0.0
C194 C 0.53241 0.58359 0.84428 0.0
C195 C 0.54094 0.50294 0.72554 0.0
C196 C 0.54422 0.47664 0.72417 0.0
C197 C 0.56172 0.46545 0.77115 0.0
C198 C 0.56579 0.44112 0.76516 0.0
C199 C 0.55227 0.42764 0.71286 0.0
C200 C 0.53298 0.43765 0.67235 0.0
C201 C 0.52907 0.46213 0.67768 0.0
C202 C 0.48312 0.52673 0.88386 0.0
C203 C 0.52406 0.4767 1.00029 0.0
O204 O 0.49534 0.54264 0.07551 0.0
O205 O 0.53407 0.55051 0.10738 0.0
O206 O 0.56009 0.52057 0.03485 0.0
O207 O 0.56037 0.54263 0.9191 0.0
O208 O 0.52538 0.57517 0.91937 0.0
O209 O 0.53818 0.56779 0.79972 0.0
O210 O 0.5583 0.51714 0.75772 0.0
O211 O 0.51847 0.50533 0.74586 0.0
O212 O 0.49429 0.53776 0.81644 0.0
O213 O 0.49735 0.51516 0.92788 0.0
O214 O 0.53443 0.48541 0.92836 0.0
O215 O 0.51502 0.49232 0.03867 0.0
H216 H 0.4743 0.58005 0.05601 0.0
H217 H 0.47286 0.62535 0.04465 0.0
H218 H 0.54397 0.63709 0.15065 0.0
H219 H 0.54564 0.59163 0.16344 0.0
H220 H 0.57299 0.47583 0.81003 0.0
H221 H 0.58068 0.43357 0.79705 0.0
H222 H 0.52241 0.42751 0.63148 0.0
H223 H 0.5149 0.47013 0.64311 0.0
Nd224 Nd 0.01941 0.53593 0.83227 0.0
Nd225 Nd 0.03011 0.51927 1.00451 0.0
C226 C 0.00785 0.55542 0.68673 0.0
C227 C 0.98491 0.55676 0.63999 0.0
C228 C 0.97204 0.57729 0.63774 0.0
C229 C 0.95176 0.57968 0.58937 0.0
C230 C 0.94369 0.56173 0.54097 0.0
C231 C 0.95602 0.54069 0.54512 0.0
C232 C 0.97639 0.53831 0.59359 0.0
C233 C 0.02021 0.48426 0.87355 0.0
C234 C 0.97371 0.51328 0.96215 0.0
C235 C 0.05308 0.49486 0.12219 0.0
C236 C 0.07621 0.49719 0.16801 0.0
C237 C 0.09577 0.48514 0.14888 0.0
C238 C 0.11647 0.48431 0.19555 0.0
C239 C 0.11823 0.495 0.2644 0.0
C240 C 0.0992 0.50815 0.28183 0.0
C241 C 0.07843 0.50919 0.23428 0.0
C242 C 0.01909 0.56774 0.994 0.0
C243 C 0.07508 0.54948 0.89372 0.0
O244 O 0.01139 0.56872 0.74326 0.0
O245 O 0.0147 0.53319 0.70582 0.0
O246 O 1.00207 0.49396 0.83924 0.0
O247 O 0.0355 0.50223 0.89383 0.0
O248 O 0.98186 0.52914 0.89591 0.0
O249 O 0.98873 0.50267 0.01178 0.0
O250 O 0.05568 0.49273 0.04824 0.0
O251 O 0.03578 0.50807 0.13371 0.0
O252 O 0.02369 0.55314 0.05877 0.0
O253 O 0.01921 0.55623 0.9356 0.0
O254 O 0.0634 0.54917 0.96016 0.0
O255 O 0.06254 0.54439 0.83174 0.0
H256 H 0.9779 0.59189 0.67238 0.0
H257 H 0.94254 0.5959 0.58928 0.0
H258 H 0.95057 0.52654 0.50863 0.0
H259 H 0.98582 0.52225 0.59327 0.0
H260 H 0.09486 0.47572 0.09837 0.0
H261 H 0.13097 0.47478 0.17795 0.0
H262 H 0.09975 0.51672 0.334 0.0
H263 H 0.06378 0.51871 0.25092 0.0
H264 H 0.21615 0.10773 0.87736 0.0
H265 H 0.22786 0.09117 0.64358 0.0
H266 H 0.18397 0.07128 0.64543 0.0
H267 H 0.17106 0.04989 0.95671 0.0
H268 H 0.15106 0.06544 0.00853 0.0
H269 H 0.18383 0.07851 0.99249 0.0
H270 H 0.17333 0.12177 0.92511 0.0
H271 H 0.1405 0.10888 0.94052 0.0
H272 H 0.15345 0.12309 0.84246 0.0
H273 H 0.14142 0.05262 0.66863 0.0
H274 H 0.09831 0.03649 0.70683 0.0
H275 H 0.10761 0.06468 0.928 0.0
C276 C 0.20935 0.09967 0.82703 0.0
C277 C 0.22586 0.10028 0.76097 0.0
C278 C 0.21606 0.09032 0.69546 0.0
C279 C 0.19101 0.07905 0.69592 0.0
C280 C 0.17549 0.07823 0.76168 0.0
C281 C 0.18387 0.08838 0.82608 0.0
C282 C 0.16209 0.08509 0.88731 0.0
C283 C 0.16733 0.06875 0.96593 0.0
C284 C 0.15704 0.11127 0.89957 0.0
C285 C 0.14043 0.07106 0.84693 0.0
C286 C 0.14926 0.06763 0.77465 0.0
C287 C 0.13418 0.05527 0.72478 0.0
C288 C 0.10933 0.04607 0.74793 0.0
C289 C 0.09877 0.04903 0.82097 0.0
C290 C 0.11476 0.06187 0.87191 0.0
H291 H 0.58497 0.19692 0.4877 0.0
H292 H 0.50731 0.20252 0.45581 0.0
H293 H 0.49517 0.16774 0.57131 0.0
H294 H 0.57622 0.13002 0.53558 0.0
H295 H 0.59953 0.12842 0.60848 0.0
H296 H 0.60239 0.1558 0.52988 0.0
H297 H 0.60495 0.18535 0.63298 0.0
H298 H 0.60175 0.15794 0.71205 0.0
H299 H 0.5804 0.18009 0.70857 0.0
H300 H 0.49092 0.1303 0.68305 0.0
H301 H 0.49445 0.09035 0.77404 0.0
H302 H 0.57468 0.10727 0.73522 0.0
C303 C 0.56545 0.19125 0.50643 0.0
C304 C 0.54712 0.20317 0.46396 0.0
C305 C 0.52173 0.19438 0.48851 0.0
C306 C 0.51467 0.17457 0.55421 0.0
C307 C 0.53316 0.16344 0.59513 0.0
C308 C 0.55806 0.17135 0.57208 0.0
C309 C 0.57397 0.15465 0.62249 0.0
C310 C 0.58889 0.14143 0.57102 0.0
C311 C 0.5913 0.17046 0.67194 0.0
C312 C 0.55403 0.13547 0.67521 0.0
C313 C 0.53068 0.14137 0.65947 0.0
C314 C 0.50914 0.12582 0.69685 0.0
C315 C 0.51134 0.10324 0.74921 0.0
C316 C 0.53486 0.09613 0.76426 0.0
C317 C 0.55656 0.11279 0.7279 0.0
H318 H 0.34465 0.51226 0.75201 0.0
H319 H 0.32221 0.46839 0.98603 0.0
H320 H 0.36452 0.48156 0.03079 0.0
H321 H 0.40066 0.49533 0.73881 0.0
H322 H 0.41758 0.52562 0.68723 0.0
H323 H 0.38456 0.51759 0.67795 0.0
H324 H 0.37783 0.55877 0.72633 0.0
H325 H 0.41104 0.56729 0.73398 0.0
H326 H 0.39031 0.56519 0.81831 0.0
H327 H 0.41078 0.49305 0.04245 0.0
H328 H 0.45666 0.50342 0.0213 0.0
H329 H 0.44854 0.54063 0.78048 0.0
C330 C 0.34845 0.50625 0.81338 0.0
C331 C 0.33017 0.48966 0.86586 0.0
C332 C 0.33593 0.48141 0.9452 0.0
C333 C 0.35986 0.48886 0.97116 0.0
C334 C 0.37772 0.5047 0.91716 0.0
C335 C 0.37215 0.51366 0.84021 0.0
C336 C 0.39519 0.52814 0.79146 0.0
C337 C 0.39976 0.51593 0.71969 0.0
C338 C 0.39348 0.55653 0.76604 0.0
C339 C 0.41481 0.52465 0.85145 0.0
C340 C 0.40438 0.51148 0.92409 0.0
C341 C 0.41909 0.50393 0.98645 0.0
C342 C 0.4451 0.5098 0.97386 0.0
C343 C 0.45601 0.52298 0.89948 0.0
C344 C 0.44065 0.53091 0.83829 0.0
H345 H 0.05762 0.34784 0.83309 0.0
H346 H 0.05737 0.37439 0.58005 0.0
H347 H 0.04589 0.41478 0.60321 0.0
H348 H 0.00419 0.37763 0.88519 0.0
H349 H 0.01752 0.38584 0.97413 0.0
H350 H 0.02432 0.35817 0.93924 0.0
H351 H 0.07136 0.37601 0.93991 0.0
H352 H 0.06468 0.40398 0.97316 0.0
H353 H 0.08375 0.40739 0.88419 0.0
H354 H 0.03842 0.45312 0.65008 0.0
H355 H 0.0287 0.48646 0.71884 0.0
H356 H 0.03149 0.43662 0.94511 0.0
C357 C 0.05462 0.362 0.78271 0.0
C358 C 0.0583 0.35793 0.70412 0.0
C359 C 0.05447 0.37701 0.64012 0.0
C360 C 0.04812 0.40006 0.6529 0.0
C361 C 0.0454 0.40383 0.7303 0.0
C362 C 0.04797 0.38525 0.79456 0.0
C363 C 0.04386 0.39471 0.87152 0.0
C364 C 0.02112 0.3781 0.92038 0.0
C365 C 0.06732 0.39557 0.92003 0.0
C366 C 0.03894 0.42161 0.83982 0.0
C367 C 0.0402 0.42626 0.7581 0.0
C368 C 0.037 0.44959 0.71396 0.0
C369 C 0.03153 0.46848 0.75372 0.0
C370 C 0.02907 0.46418 0.83723 0.0
C371 C 0.03324 0.44048 0.8812 0.0
H372 H 0.83744 0.98378 0.90804 0.0
H373 H 0.8242 0.96006 0.1615 0.0
H374 H 0.86944 0.96293 0.17692 0.0
H375 H 0.89361 0.95103 0.89495 0.0
H376 H 0.90934 0.97649 0.81903 0.0
H377 H 0.87576 0.96882 0.82544 0.0
H378 H 0.87372 0.01567 0.83325 0.0
H379 H 0.9072 0.02348 0.82766 0.0
H380 H 0.88978 0.02998 0.9092 0.0
H381 H 0.91522 0.97125 0.16809 0.0
H382 H 0.95961 0.98764 0.13919 0.0
H383 H 0.94632 0.00873 0.89005 0.0
C384 C 0.8441 0.97847 0.96651 0.0
C385 C 0.82705 0.97088 0.03362 0.0
C386 C 0.83663 0.9651 0.10924 0.0
C387 C 0.86238 0.96673 0.11845 0.0
C388 C 0.87861 0.9743 0.05154 0.0
C389 C 0.86998 0.98004 0.97678 0.0
C390 C 0.89191 0.98955 0.91587 0.0
C391 C 0.89269 0.97034 0.86052 0.0
C392 C 0.89057 0.01627 0.86876 0.0
C393 C 0.91414 0.99003 0.96897 0.0
C394 C 0.90573 0.98022 0.04653 0.0
C395 C 0.922 0.97882 0.10764 0.0
C396 C 0.94737 0.9883 0.09025 0.0
C397 C 0.95683 0.99961 0.01233 0.0
C398 C 0.93993 0.99993 0.9501 0.0
H399 H 0.50791 0.88656 0.4261 0.0
H400 H 0.49703 0.82928 0.27821 0.0
H401 H 0.50593 0.86285 0.15947 0.0
H402 H 0.47288 0.92554 0.30836 0.0
H403 H 0.49067 0.95527 0.32496 0.0
H404 H 0.48917 0.92666 0.3982 0.0
H405 H 0.53751 0.93249 0.39262 0.0
H406 H 0.53909 0.96132 0.31993 0.0
H407 H 0.55407 0.93589 0.29884 0.0
H408 H 0.51307 0.90522 0.05194 0.0
H409 H 0.51423 0.94946 0.97592 0.0
H410 H 0.51415 0.97709 0.1967 0.0
C411 C 0.50823 0.88099 0.3689 0.0
C412 C 0.50325 0.85487 0.36301 0.0
C413 C 0.50257 0.84873 0.28611 0.0
C414 C 0.50712 0.86792 0.21741 0.0
C415 C 0.51153 0.89349 0.22554 0.0
C416 C 0.51179 0.89992 0.29981 0.0
C417 C 0.51337 0.92842 0.29371 0.0
C418 C 0.49015 0.93431 0.33368 0.0
C419 C 0.53744 0.94022 0.32833 0.0
C420 C 0.51388 0.93709 0.205 0.0
C421 C 0.51327 0.91695 0.16569 0.0
C422 C 0.51345 0.92101 0.08276 0.0
C423 C 0.51402 0.94617 0.03983 0.0
C424 C 0.5139 0.96678 0.0801 0.0
C425 C 0.51398 0.96185 0.1636 0.0
H426 H 0.71788 0.58604 0.86873 0.0
H427 H 0.73125 0.52589 0.05838 0.0
H428 H 0.6861 0.50848 0.07277 0.0
H429 H 0.66078 0.59685 0.95264 0.0
H430 H 0.64608 0.60225 0.85958 0.0
H431 H 0.67948 0.6095 0.8624 0.0
H432 H 0.68344 0.58019 0.76141 0.0
H433 H 0.64999 0.57256 0.75933 0.0
H434 H 0.66788 0.54732 0.78307 0.0
H435 H 0.64101 0.49717 0.06606 0.0
H436 H 0.59606 0.49558 0.05408 0.0
H437 H 0.61002 0.56379 0.871 0.0
C438 C 0.71116 0.56936 0.91378 0.0
C439 C 0.72785 0.55722 0.96305 0.0
C440 C 0.7186 0.53541 0.02087 0.0
C441 C 0.69312 0.52531 0.02874 0.0
C442 C 0.6772 0.53731 0.97828 0.0
C443 C 0.68566 0.55906 0.92265 0.0
C444 C 0.66417 0.5686 0.87829 0.0
C445 C 0.66253 0.59592 0.88893 0.0
C446 C 0.66652 0.56707 0.79031 0.0
C447 C 0.64226 0.54924 0.91996 0.0
C448 C 0.65051 0.53106 0.97578 0.0
C449 C 0.63425 0.51131 0.02295 0.0
C450 C 0.60875 0.5106 0.01565 0.0
C451 C 0.59963 0.52967 0.96227 0.0
C452 C 0.61656 0.54889 0.91192 0.0
H453 H 0.01937 0.68884 0.19598 0.0
H454 H 1.00353 0.7328 0.97251 0.0
H455 H 0.99936 0.69386 0.9126 0.0
H456 H 0.0573 0.65307 0.1183 0.0
H457 H 0.04711 0.62405 0.18928 0.0
H458 H 0.0456 0.6545 0.2155 0.0
H459 H 0.99821 0.64031 0.25187 0.0
H460 H 0.9997 0.60958 0.2274 0.0
H461 H 0.97788 0.62835 0.18043 0.0
H462 H 1.00137 0.64861 0.87498 0.0
H463 H 0.00706 0.60412 0.86904 0.0
H464 H 0.02156 0.59194 0.11826 0.0
C465 C 0.01439 0.69013 0.135 0.0
C466 C 0.01178 0.71387 0.08918 0.0
C467 C 0.00556 0.71478 0.00905 0.0
C468 C 1.00325 0.69272 0.97441 0.0
C469 C 0.00699 0.66971 0.02074 0.0
C470 C 0.01209 0.6684 0.09976 0.0
C471 C 0.0167 0.64213 0.13671 0.0
C472 C 0.04325 0.64353 0.1667 0.0
C473 C 0.99695 0.62934 0.20303 0.0
C474 C 0.01376 0.62876 0.06672 0.0
C475 C 0.0081 0.64467 0.99981 0.0
C476 C 0.00555 0.63609 0.92768 0.0
C477 C 0.00885 0.61078 0.92461 0.0
C478 C 0.01466 0.59437 0.99322 0.0
C479 C 0.01695 0.60375 0.06465 0.0
H480 H 0.01976 0.22156 0.70297 0.0
H481 H 0.08427 0.23541 0.84219 0.0
H482 H 0.07784 0.18924 0.90088 0.0
H483 H 0.98099 0.16339 0.80791 0.0
H484 H 0.97803 0.15031 0.71865 0.0
H485 H 0.9823 0.18434 0.713 0.0
H486 H 0.0204 0.18913 0.61546 0.0
H487 H 0.01736 0.15498 0.62509 0.0
H488 H 0.04615 0.17363 0.6472 0.0
H489 H 0.07128 0.14239 0.91535 0.0
H490 H 0.05891 0.09691 0.91105 0.0
H491 H 1.00081 0.11332 0.75146 0.0
C492 C 0.0313 0.215 0.75036 0.0
C493 C 0.05204 0.23162 0.77018 0.0
C494 C 0.06798 0.22274 0.82831 0.0
C495 C 0.0647 0.19659 0.86038 0.0
C496 C 0.04611 0.1802 0.8306 0.0
C497 C 0.02966 0.18905 0.77686 0.0
C498 C 0.01598 0.16807 0.73829 0.0
C499 C 0.98763 0.16642 0.74505 0.0
C500 C 0.02549 0.17167 0.65141 0.0
C501 C 0.02453 0.14539 0.78676 0.0
C502 C 0.04296 0.15307 0.83629 0.0
C503 C 0.05617 0.13611 0.87956 0.0
C504 C 0.04893 0.1104 0.87695 0.0
C505 C 0.02792 0.10187 0.8352 0.0
C506 C 0.01636 0.1195 0.78583 0.0
H507 H 0.36949 0.10622 0.86389 0.0
H508 H 0.3286 0.05173 0.7363 0.0
H509 H 0.36071 0.02472 0.76086 0.0
H510 H 0.42731 0.10507 0.80224 0.0
H511 H 0.44255 0.10516 0.89425 0.0
H512 H 0.41456 0.11833 0.87939 0.0
H513 H 0.3934 0.08803 0.00527 0.0
H514 H 0.42166 0.07515 0.02161 0.0
H515 H 0.39257 0.05409 0.01612 0.0
H516 H 0.40158 0.00911 0.77262 0.0
H517 H 0.44459 1.00107 0.79767 0.0
H518 H 0.45557 0.06277 0.93105 0.0
C519 C 0.36659 0.08779 0.84591 0.0
C520 C 0.34638 0.0806 0.8001 0.0
C521 C 0.3436 0.05696 0.77395 0.0
C522 C 0.3619 0.04169 0.78661 0.0
C523 C 0.38231 0.04978 0.82858 0.0
C524 C 0.38423 0.07168 0.86109 0.0
C525 C 0.40849 0.07638 0.90169 0.0
C526 C 0.42413 0.10279 0.86722 0.0
C527 C 0.40374 0.07321 0.99148 0.0
C528 C 0.4204 0.05488 0.88162 0.0
C529 C 0.40516 0.03969 0.83953 0.0
C530 C 0.41342 0.02021 0.80834 0.0
C531 C 0.43782 0.01579 0.8225 0.0
C532 C 0.4534 0.03084 0.86734 0.0
C533 C 0.44425 0.05046 0.89733 0.0
H534 H 0.54216 0.30471 0.52338 0.0
H535 H 0.61077 0.3426 0.39186 0.0
H536 H 0.61705 0.37377 0.48152 0.0
H537 H 0.52054 0.35806 0.53657 0.0
H538 H 0.50585 0.34788 0.6343 0.0
H539 H 0.51003 0.32454 0.57561 0.0
H540 H 0.5341 0.3015 0.6866 0.0
H541 H 0.52968 0.32467 0.74638 0.0
H542 H 0.56061 0.31931 0.72527 0.0
H543 H 0.61293 0.40364 0.56926 0.0
H544 H 0.59744 0.43305 0.64339 0.0
H545 H 0.52935 0.37817 0.71154 0.0
C546 C 0.55919 0.31872 0.51659 0.0
C547 C 0.57657 0.32084 0.45322 0.0
C548 C 0.59784 0.34032 0.44208 0.0
C549 C 0.60148 0.35802 0.49258 0.0
C550 C 0.58358 0.35591 0.55325 0.0
C551 C 0.56279 0.33679 0.56548 0.0
C552 C 0.54433 0.34132 0.62578 0.0
C553 C 0.5187 0.34307 0.5909 0.0
C554 C 0.54205 0.32046 0.70046 0.0
C555 C 0.55733 0.3668 0.64195 0.0
C556 C 0.58035 0.37428 0.60166 0.0
C557 C 0.59529 0.39775 0.60275 0.0
C558 C 0.58639 0.41426 0.64515 0.0
C559 C 0.56256 0.40747 0.68418 0.0
C560 C 0.5479 0.38336 0.68354 0.0
H561 H 0.20387 0.52718 0.74043 0.0
H562 H 0.21374 0.48631 0.97524 0.0
H563 H 0.17767 0.50275 0.02602 0.0
H564 H 0.1749 0.57827 0.76073 0.0
H565 H 0.15156 0.57049 0.69186 0.0
H566 H 0.18177 0.56188 0.68299 0.0
H567 H 0.16106 0.51183 0.69848 0.0
H568 H 0.13208 0.52387 0.69393 0.0
H569 H 0.1373 0.49936 0.7748 0.0
H570 H 0.13916 0.52367 0.04402 0.0
H571 H 0.09883 0.53772 0.03001 0.0
H572 H 0.1098 0.55252 0.77431 0.0
C573 C 0.19889 0.52208 0.80313 0.0
C574 C 0.21139 0.50564 0.85412 0.0
C575 C 0.20438 0.49921 0.9356 0.0
C576 C 0.18395 0.50834 0.96443 0.0
C577 C 0.17081 0.52296 0.90996 0.0
C578 C 0.17769 0.5288 0.83067 0.0
C579 C 0.15756 0.53783 0.78036 0.0
C580 C 0.16703 0.56366 0.72579 0.0
C581 C 0.14631 0.5171 0.73396 0.0
C582 C 0.13938 0.5399 0.84361 0.0
C583 C 0.14715 0.53102 0.91822 0.0
C584 C 0.13295 0.53049 0.98595 0.0
C585 C 0.11009 0.53873 0.97687 0.0
C586 C 0.10124 0.54651 0.9004 0.0
C587 C 0.11623 0.54724 0.83316 0.0
H588 H 0.96436 0.84904 0.11652 0.0
H589 H 0.01525 0.81914 0.97858 0.0
H590 H 0.03423 0.86291 0.91538 0.0
H591 H 0.96628 0.91656 1.00033 0.0
H592 H 0.9698 0.92864 0.09112 0.0
H593 H 0.95177 0.89742 0.09151 0.0
H594 H 0.97939 0.87864 0.20025 0.0
H595 H 0.99815 0.90962 0.19687 0.0
H596 H 0.01263 0.88334 0.18091 0.0
H597 H 0.05639 0.90827 0.9005 0.0
H598 H 0.07324 0.9529 0.91191 0.0
H599 H 0.01538 0.94993 0.08992 0.0
C600 C 0.97842 0.85182 0.0691 0.0
C601 C 0.98902 0.83095 0.05459 0.0
C602 C 0.00709 0.83491 0.99174 0.0
C603 C 0.01833 0.85983 0.95656 0.0
C604 C 0.01134 0.8801 0.98617 0.0
C605 C 0.99148 0.87637 0.04065 0.0
C606 C 0.99207 0.89919 0.08066 0.0
C607 C 0.9686 0.91118 0.06483 0.0
C608 C 0.99576 0.89224 0.16992 0.0
C609 C 0.01507 0.91633 0.03993 0.0
C610 C 0.02588 0.90516 0.98534 0.0
C611 C 0.04792 0.91724 0.94267 0.0
C612 C 0.0579 0.94218 0.95157 0.0
C613 C 0.04589 0.95447 1.00322 0.0
C614 C 0.0253 0.9407 0.05174 0.0
H615 H 0.70596 0.97664 0.93974 0.0
H616 H 0.67295 0.9185 0.13801 0.0
H617 H 0.63375 0.93503 0.12603 0.0
H618 H 0.68576 0.02483 0.94206 0.0
H619 H 0.67261 0.03424 0.84816 0.0
H620 H 0.69575 0.01407 0.85544 0.0
H621 H 0.66645 0.97918 0.80028 0.0
H622 H 0.6436 0.9999 0.78776 0.0
H623 H 0.63537 0.96788 0.84357 0.0
H624 H 0.60847 0.96985 0.12846 0.0
H625 H 0.58304 1.00361 0.09537 0.0
H626 H 0.62533 0.03129 0.8721 0.0
C627 C 0.68988 0.96589 0.97592 0.0
C628 C 0.69287 0.94753 0.04339 0.0
C629 C 0.67121 0.93333 0.08786 0.0
C630 C 0.64889 0.94279 0.08232 0.0
C631 C 0.64769 0.96384 0.02375 0.0
C632 C 0.66632 0.97307 0.96508 0.0
C633 C 0.65882 0.99462 0.90559 0.0
C634 C 0.67949 0.01835 0.88689 0.0
C635 C 0.65059 0.98483 0.82984 0.0
C636 C 0.63646 0.99957 0.95003 0.0
C637 C 0.63024 0.98134 0.0178 0.0
C638 C 0.61217 0.98339 0.07328 0.0
C639 C 0.59837 1.00314 0.0552 0.0
C640 C 0.60238 0.02015 0.98159 0.0
C641 C 0.62215 0.01875 0.92933 0.0
H642 H 0.47706 0.71492 0.39489 0.0
H643 H 0.52784 0.77858 0.2548 0.0
H644 H 0.52514 0.75603 0.14255 0.0
H645 H 0.50839 0.67227 0.34752 0.0
H646 H 0.48256 0.64657 0.34711 0.0
H647 H 0.48023 0.67011 0.40648 0.0
H648 H 0.44074 0.68131 0.33947 0.0
H649 H 0.44189 0.65706 0.28096 0.0
H650 H 0.44073 0.68939 0.23321 0.0
H651 H 0.52675 0.72294 0.06207 0.0
H652 H 0.52997 0.68239 0.01723 0.0
H653 H 0.47946 0.64032 0.21101 0.0
C654 C 0.48708 0.72443 0.33978 0.0
C655 C 0.50283 0.74831 0.33346 0.0
C656 C 0.51551 0.76031 0.2606 0.0
C657 C 0.51408 0.74764 0.19653 0.0
C658 C 0.49989 0.72317 0.20674 0.0
C659 C 0.48638 0.71177 0.27656 0.0
C660 C 0.47698 0.68371 0.2796 0.0
C661 C 0.48771 0.66722 0.34917 0.0
C662 C 0.44838 0.67754 0.28346 0.0
C663 C 0.48773 0.68099 0.20131 0.0
C664 C 0.50076 0.70389 0.1596 0.0
C665 C 0.51576 0.70507 0.09212 0.0
C666 C 0.51758 0.68215 0.06721 0.0
C667 C 0.50423 0.65885 0.10976 0.0
C668 C 0.48884 0.65831 0.17612 0.0
H669 H 0.84427 0.54582 0.88003 0.0
H670 H 0.86954 0.61066 0.99047 0.0
H671 H 0.91169 0.60088 0.99259 0.0
H672 H 0.86673 0.50407 0.95174 0.0
H673 H 0.88239 0.49123 0.87935 0.0
H674 H 0.85803 0.50894 0.85007 0.0
H675 H 0.88702 0.54117 0.74417 0.0
H676 H 0.91118 0.52251 0.76881 0.0
H677 H 0.91701 0.55619 0.77054 0.0
H678 H 0.93814 0.57047 0.0505 0.0
H679 H 0.9657 0.53859 0.07639 0.0
H680 H 0.92896 0.49865 0.90209 0.0
C681 C 0.85927 0.55955 0.89621 0.0
C682 C 0.85395 0.57808 0.93876 0.0
C683 C 0.87359 0.59603 0.95921 0.0
C684 C 0.89756 0.59044 0.96157 0.0
C685 C 0.90153 0.56888 0.93349 0.0
C686 C 0.88394 0.55557 0.89192 0.0
C687 C 0.8933 0.53261 0.87079 0.0
C688 C 0.87392 0.50776 0.88927 0.0
C689 C 0.90268 0.53846 0.78346 0.0
C690 C 0.91497 0.5317 0.92403 0.0
C691 C 0.91953 0.55299 0.95886 0.0
C692 C 0.93606 0.55466 0.01919 0.0
C693 C 0.95081 0.53582 0.03623 0.0
C694 C 0.94962 0.51663 0.98997 0.0
C695 C 0.93015 0.51324 0.93814 0.0
H696 H 0.09387 0.2305 0.51357 0.0
H697 H 0.02738 0.26297 0.46038 0.0
H698 H 0.01548 0.23252 0.37021 0.0
H699 H 0.10715 0.21658 0.32023 0.0
H700 H 0.11659 0.1866 0.35967 0.0
H701 H 0.12062 0.212 0.41554 0.0
H702 H 0.09484 0.18195 0.5348 0.0
H703 H 0.09151 0.1565 0.47918 0.0
H704 H 0.06426 0.16527 0.5194 0.0
H705 H 0.009 0.19502 0.29339 0.0
H706 H 0.01076 0.15814 0.22825 0.0
H707 H 0.08155 0.14981 0.33158 0.0
C708 C 0.07714 0.23179 0.48119 0.0
C709 C 0.0619 0.24987 0.49333 0.0
C710 C 0.03989 0.25017 0.45072 0.0
C711 C 0.03275 0.23251 0.40023 0.0
C712 C 0.04774 0.21441 0.39222 0.0
C713 C 0.06965 0.21415 0.43115 0.0
C714 C 0.08208 0.19224 0.41502 0.0
C715 C 0.10816 0.20247 0.37522 0.0
C716 C 0.08325 0.17287 0.49167 0.0
C717 C 0.06418 0.18056 0.35902 0.0
C718 C 0.04422 0.1933 0.34781 0.0
C719 C 0.02474 0.18519 0.3014 0.0
C720 C 0.02583 0.16398 0.2648 0.0
C721 C 0.04638 0.15086 0.27348 0.0
C722 C 0.06574 0.15948 0.32195 0.0
H723 H 0.36373 0.08321 0.59376 0.0
H724 H 0.3271 0.1417 0.46243 0.0
H725 H 0.35192 0.14023 0.34119 0.0
H726 H 0.42418 0.1079 0.50695 0.0
H727 H 0.43233 0.07684 0.50915 0.0
H728 H 0.40995 0.08109 0.58124 0.0
H729 H 0.37777 0.04525 0.54109 0.0
H730 H 0.39993 0.04085 0.46837 0.0
H731 H 0.36974 0.04743 0.43933 0.0
H732 H 0.38227 0.13205 0.23414 0.0
H733 H 0.41518 0.12081 0.15539 0.0
H734 H 0.43502 0.07119 0.36397 0.0
C735 C 0.36087 0.09597 0.53981 0.0
C736 C 0.34353 0.11295 0.53851 0.0
C737 C 0.34011 0.12854 0.46547 0.0
C738 C 0.35427 0.12786 0.39639 0.0
C739 C 0.37177 0.11143 0.40106 0.0
C740 C 0.37505 0.09585 0.47142 0.0
C741 C 0.39566 0.08066 0.46313 0.0
C742 C 0.41678 0.08702 0.51837 0.0
C743 C 0.38514 0.05184 0.4789 0.0
C744 C 0.40406 0.09038 0.37686 0.0
C745 C 0.38976 0.10774 0.34167 0.0
C746 C 0.39373 0.1188 0.26187 0.0
C747 C 0.41291 0.11241 0.21754 0.0
C748 C 0.42871 0.09546 0.25256 0.0
C749 C 0.42367 0.08413 0.33379 0.0
H750 H 0.56483 0.33855 0.11892 0.0
H751 H 0.50449 0.32041 0.29767 0.0
H752 H 0.49086 0.36104 0.24495 0.0
H753 H 0.58171 0.40145 0.11101 0.0
H754 H 0.58545 0.41266 0.00564 0.0
H755 H 0.58868 0.3804 0.04688 0.0
H756 H 0.55463 0.36257 0.95894 0.0
H757 H 0.55185 0.39488 0.91536 0.0
H758 H 0.52473 0.37249 0.95936 0.0
H759 H 0.48975 0.40677 0.19462 0.0
H760 H 0.49366 0.45141 0.12645 0.0
H761 H 0.55113 0.4401 0.96588 0.0
C762 C 0.54782 0.34244 0.14353 0.0
C763 C 0.53532 0.32587 0.21155 0.0
C764 C 0.5138 0.33224 0.24424 0.0
C765 C 0.50615 0.35555 0.21534 0.0
C766 C 0.51954 0.37202 0.15119 0.0
C767 C 0.53914 0.36532 0.11275 0.0
C768 C 0.55013 0.38698 0.04479 0.0
C769 C 0.57816 0.3959 0.05265 0.0
C770 C 0.54504 0.37874 0.96488 0.0
C771 C 0.53512 0.40753 0.05603 0.0
C772 C 0.51757 0.39828 0.11779 0.0
C773 C 0.50275 0.41393 0.14423 0.0
C774 C 0.50525 0.43943 0.10521 0.0
C775 C 0.5223 0.44933 0.03949 0.0
C776 C 0.5375 0.43304 0.0147 0.0
H777 H 0.21458 0.52131 0.60265 0.0
H778 H 0.23475 0.44768 0.59483 0.0
H779 H 0.20791 0.44368 0.48131 0.0
H780 H 0.15238 0.50641 0.56496 0.0
H781 H 0.14944 0.53596 0.5011 0.0
H782 H 0.17275 0.53593 0.57342 0.0
H783 H 0.20763 0.55578 0.46916 0.0
H784 H 0.18475 0.55737 0.39493 0.0
H785 H 0.21076 0.54154 0.38353 0.0
H786 H 0.17427 0.4447 0.38433 0.0
H787 H 0.14021 0.45247 0.29729 0.0
H788 H 0.14294 0.52715 0.36014 0.0
C789 C 0.21403 0.5048 0.57491 0.0
C790 C 0.22715 0.48493 0.60621 0.0
C791 C 0.22542 0.46328 0.57035 0.0
C792 C 0.21 0.46081 0.50651 0.0
C793 C 0.19663 0.48028 0.47887 0.0
C794 C 0.19887 0.50215 0.51078 0.0
C795 C 0.18181 0.51983 0.47146 0.0
C796 C 0.16297 0.52476 0.53149 0.0
C797 C 0.19716 0.54512 0.42707 0.0
C798 C 0.16888 0.50398 0.41469 0.0
C799 C 0.1778 0.4813 0.4201 0.0
C800 C 0.16769 0.46271 0.37788 0.0
C801 C 0.1483 0.46746 0.32791 0.0
C802 C 0.13903 0.49079 0.31919 0.0
C803 C 0.14953 0.50921 0.36418 0.0
H804 H 0.9689 0.82085 0.34403 0.0
H805 H 0.0452 0.80876 0.33574 0.0
H806 H 0.05629 0.8397 0.42541 0.0
H807 H 0.98302 0.88791 0.33694 0.0
H808 H 0.95638 0.88797 0.39959 0.0
H809 H 0.95564 0.86355 0.34079 0.0
H810 H 0.94462 0.82957 0.4708 0.0
H811 H 0.94669 0.85459 0.52792 0.0
H812 H 0.96546 0.83006 0.55091 0.0
H813 H 0.05958 0.87657 0.50505 0.0
H814 H 0.05414 0.91113 0.57649 0.0
H815 H 0.9754 0.89938 0.53072 0.0
C816 C 0.98771 0.8238 0.36411 0.0
C817 C 0.00599 0.81151 0.33481 0.0
C818 C 0.03066 0.81698 0.35958 0.0
C819 C 0.03717 0.83496 0.40951 0.0
C820 C 0.01884 0.84748 0.43451 0.0
C821 C 0.9945 0.84178 0.41328 0.0
C822 C 0.97842 0.8586 0.44445 0.0
C823 C 0.96772 0.87547 0.37631 0.0
C824 C 0.95756 0.84223 0.50197 0.0
C825 C 0.99739 0.87474 0.48689 0.0
C826 C 0.02068 0.86825 0.47994 0.0
C827 C 0.04131 0.88147 0.51131 0.0
C828 C 0.03805 0.90137 0.55145 0.0
C829 C 0.01427 0.90823 0.56062 0.0
C830 C 0.99378 0.89454 0.52701 0.0
H831 H 0.70185 0.92748 0.32679 0.0
H832 H 0.74513 1.00395 0.27084 0.0
H833 H 0.72056 0.01677 0.37395 0.0
H834 H 0.64547 0.94488 0.34434 0.0
H835 H 0.63221 0.91979 0.42521 0.0
H836 H 0.65632 0.91476 0.36049 0.0
H837 H 0.68334 0.90352 0.47909 0.0
H838 H 0.65907 0.90789 0.54488 0.0
H839 H 0.69027 0.92539 0.54646 0.0
H840 H 0.68661 0.0233 0.46436 0.0
H841 H 0.64903 0.02221 0.54721 0.0
H842 H 0.62677 0.94129 0.54645 0.0
C843 C 0.70712 0.94649 0.33979 0.0
C844 C 0.72606 0.96454 0.29244 0.0
C845 C 0.73151 0.9896 0.30817 0.0
C846 C 0.7173 0.99711 0.36589 0.0
C847 C 0.69779 0.97928 0.40801 0.0
C848 C 0.69302 0.95428 0.39697 0.0
C849 C 0.66957 0.9395 0.44463 0.0
C850 C 0.64973 0.92914 0.39041 0.0
C851 C 0.67595 0.91779 0.50752 0.0
C852 C 0.66143 0.96032 0.48243 0.0
C853 C 0.67806 0.98307 0.46049 0.0
C854 C 0.67378 1.00548 0.48313 0.0
C855 C 0.65222 1.00471 0.52982 0.0
C856 C 0.63491 0.98169 0.55405 0.0
C857 C 0.6398 0.95912 0.53026 0.0
H858 H 0.48573 0.70249 0.58104 0.0
H859 H 0.54227 0.75355 0.67733 0.0
H860 H 0.5523 0.71613 0.77061 0.0
H861 H 0.46737 0.65025 0.74581 0.0
H862 H 0.46754 0.62656 0.68452 0.0
H863 H 0.46085 0.65757 0.64271 0.0
H864 H 0.49661 0.66335 0.53651 0.0
H865 H 0.50343 0.63243 0.57861 0.0
H866 H 0.52755 0.66036 0.56686 0.0
H867 H 0.55734 0.67077 0.84869 0.0
H868 H 0.55873 0.62479 0.8953 0.0
H869 H 0.50604 0.60472 0.72211 0.0
C870 C 0.50003 0.70611 0.62247 0.0
C871 C 0.51332 0.7313 0.62074 0.0
C872 C 0.53155 0.73473 0.67739 0.0
C873 C 0.53758 0.71342 0.72997 0.0
C874 C 0.52567 0.6887 0.72401 0.0
C875 C 0.50741 0.68514 0.67067 0.0
C876 C 0.50023 0.65715 0.6647 0.0
C877 C 0.47234 0.64731 0.68575 0.0
C878 C 0.50738 0.65307 0.58178 0.0
C879 C 0.51633 0.645 0.72604 0.0
C880 C 0.53072 0.66341 0.76051 0.0
C881 C 0.54637 0.65644 0.82098 0.0
C882 C 0.54714 0.63026 0.84692 0.0
C883 C 0.533 0.61122 0.81107 0.0
C884 C 0.51756 0.61885 0.74932 0.0
H885 H 0.82973 0.5259 0.2624 0.0
H886 H 0.83765 0.60712 0.17128 0.0
H887 H 0.86962 0.61581 0.26685 0.0
H888 H 0.83963 0.53504 0.47677 0.0
H889 H 0.85532 0.508 0.49797 0.0
H890 H 0.83099 0.50819 0.42829 0.0
H891 H 0.86131 0.50002 0.32281 0.0
H892 H 0.88589 0.50027 0.39126 0.0
H893 H 0.89046 0.52177 0.29702 0.0
H894 H 0.90494 0.61551 0.35652 0.0
H895 H 0.9372 0.60711 0.45088 0.0
H896 H 0.90527 0.52624 0.49645 0.0
C897 C 0.83719 0.54553 0.26593 0.0
C898 C 0.83047 0.56595 0.21113 0.0
C899 C 0.84165 0.59133 0.21483 0.0
C900 C 0.86017 0.59642 0.26816 0.0
C901 C 0.86694 0.57597 0.31968 0.0
C902 C 0.85525 0.55106 0.32125 0.0
C903 C 0.8664 0.53277 0.38313 0.0
C904 C 0.84694 0.52025 0.45054 0.0
C905 C 0.87663 0.51252 0.34628 0.0
C906 C 0.88727 0.55111 0.41166 0.0
C907 C 0.88699 0.57594 0.37445 0.0
C908 C 0.90487 0.59623 0.38783 0.0
C909 C 0.92315 0.59124 0.44206 0.0
C910 C 0.9237 0.56609 0.48313 0.0
C911 C 0.90546 0.54572 0.46678 0.0
loop_
_geom_bond_atom_site_label_1
_geom_bond_atom_site_label_2
_geom_bond_distance
_geom_bond_site_symmetry_2
_ccdc_geom_bond_type
H0 C7 0.929 . S
H1 C10 0.930 . S
H2 C12 0.929 . S
H3 C4 0.969 . S
C4 H3 0.969 . S
C4 O5 1.550 1_556 S
C4 H6 0.973 . S
O5 C4 1.550 1_554 S
O5 C11 1.412 . S
H6 C4 0.973 . S
C7 H0 0.929 . S
C7 C8 1.400 . S
C7 C9 1.364 1_554 S
C8 C7 1.400 . S
C8 C12 1.377 . S
C9 C7 1.364 1_556 S
C9 C10 1.374 . S
C10 H1 0.930 . S
C10 C9 1.374 . S
C10 C11 1.383 1_556 S
C11 O5 1.412 . S
C11 C10 1.383 1_554 S
C11 C12 1.394 . S
C12 H2 0.929 . S
C12 C8 1.377 . S
C12 C11 1.394 . S
H13 C20 0.929 . S
H14 C23 0.930 . S
H15 C25 0.929 . S
H16 C17 0.971 . S
C17 H16 0.971 . S
C17 O18 1.550 1_455 S
C17 H19 0.972 1_455 S
O18 C17 1.550 1_655 S
O18 C24 1.412 . S
H19 C17 0.972 1_655 S
C20 H13 0.929 . S
C20 C21 1.400 . S
C20 C22 1.364 . S
C21 C20 1.400 . S
C21 C25 1.377 . S
C22 C20 1.364 . S
C22 C23 1.374 . S
C23 H14 0.930 . S
C23 C22 1.374 . S
C23 C24 1.383 . S
C24 O18 1.412 . S
C24 C23 1.383 . S
C24 C25 1.394 . S
C25 H15 0.929 . S
C25 C21 1.377 . S
C25 C24 1.394 . S
H26 C33 0.929 . S
H27 C36 0.930 1_556 S
H28 C38 0.929 . S
H29 C30 0.969 . S
C30 H29 0.969 . S
C30 O31 1.550 . S
C30 H32 0.973 1_554 S
O31 C30 1.550 . S
O31 C37 1.412 . S
H32 C30 0.973 1_556 S
C33 H26 0.929 . S
C33 C34 1.400 . S
C33 C35 1.364 . S
C34 C33 1.400 . S
C34 C38 1.377 . S
C35 C33 1.364 . S
C35 C36 1.374 . S
C36 H27 0.930 1_554 S
C36 C35 1.374 . S
C36 C37 1.383 . S
C37 O31 1.412 . S
C37 C36 1.383 . S
C37 C38 1.394 . S
C38 H28 0.929 . S
C38 C34 1.377 . S
C38 C37 1.394 . S
H39 C46 0.929 . S
H40 C49 0.930 . S
H41 C51 0.929 . S
H42 C43 0.969 . S
C43 H42 0.969 . S
C43 O44 1.550 . S
C43 H45 0.973 . S
O44 C43 1.550 . S
O44 C50 1.412 . S
H45 C43 0.973 . S
C46 H39 0.929 . S
C46 C47 1.400 . S
C46 C48 1.364 . S
C47 C46 1.400 . S
C47 C51 1.377 . S
C48 C46 1.364 . S
C48 C49 1.374 . S
C49 H40 0.930 . S
C49 C48 1.374 . S
C49 C50 1.383 . S
C50 O44 1.412 . S
C50 C49 1.383 . S
C50 C51 1.394 . S
C51 H41 0.929 . S
C51 C47 1.377 . S
C51 C50 1.394 . S
H52 C59 0.929 . S
H53 C62 0.930 . S
H54 C64 0.929 . S
H55 C56 0.969 . S
C56 H55 0.969 . S
C56 O57 1.550 . S
C56 H58 0.973 . S
O57 C56 1.550 . S
O57 C63 1.412 . S
H58 C56 0.973 . S
C59 H52 0.929 . S
C59 C60 1.400 . S
C59 C61 1.364 . S
C60 C59 1.400 . S
C60 C64 1.377 . S
C61 C59 1.364 . S
C61 C62 1.374 . S
C62 H53 0.930 . S
C62 C61 1.374 . S
C62 C63 1.383 . S
C63 O57 1.412 . S
C63 C62 1.383 . S
C63 C64 1.394 . S
C64 H54 0.929 . S
C64 C60 1.377 . S
C64 C63 1.394 . S
H65 C72 0.929 . S
H66 C75 0.930 . S
H67 C77 0.929 . S
H68 C69 0.969 . S
C69 H68 0.969 . S
C69 O70 1.550 . S
C69 H71 0.973 . S
O70 C69 1.550 . S
O70 C76 1.412 . S
H71 C69 0.973 . S
C72 H65 0.929 . S
C72 C73 1.400 . S
C72 C74 1.364 . S
C73 C72 1.400 . S
C73 C77 1.377 . S
C74 C72 1.364 . S
C74 C75 1.374 . S
C75 H66 0.930 . S
C75 C74 1.374 . S
C75 C76 1.383 . S
C76 O70 1.412 . S
C76 C75 1.383 . S
C76 C77 1.394 . S
C77 H67 0.929 . S
C77 C73 1.377 . S
C77 C76 1.394 . S
H78 C85 0.929 . S
H79 C88 0.930 . S
H80 C90 0.929 . S
H81 C82 0.969 . S
C82 H81 0.969 . S
C82 O83 1.550 . S
C82 H84 0.973 . S
O83 C82 1.550 . S
O83 C89 1.412 . S
H84 C82 0.973 . S
C85 H78 0.929 . S
C85 C86 1.400 . S
C85 C87 1.364 . S
C86 C85 1.400 . S
C86 C90 1.377 . S
C87 C85 1.364 . S
C87 C88 1.374 . S
C88 H79 0.930 . S
C88 C87 1.374 . S
C88 C89 1.383 . S
C89 O83 1.412 . S
C89 C88 1.383 . S
C89 C90 1.394 . S
C90 H80 0.929 . S
C90 C86 1.377 . S
C90 C89 1.394 . S
H91 C98 0.929 . S
H92 C101 0.930 . S
H93 C103 0.929 . S
H94 C95 0.969 . S
C95 H94 0.969 . S
C95 O96 1.550 . S
C95 H97 0.973 . S
O96 C95 1.550 . S
O96 C102 1.412 . S
H97 C95 0.973 . S
C98 H91 0.929 . S
C98 C99 1.400 . S
C98 C100 1.364 . S
C99 C98 1.400 . S
C99 C103 1.377 . S
C100 C98 1.364 . S
C100 C101 1.374 . S
C101 H92 0.930 . S
C101 C100 1.374 . S
C101 C102 1.383 . S
C102 O96 1.412 . S
C102 C101 1.383 . S
C102 C103 1.394 . S
C103 H93 0.929 . S
C103 C99 1.377 . S
C103 C102 1.394 . S
Nd104 C106 2.836 1_545 S
Nd104 O124 2.500 1_445 S
Nd104 O125 2.492 1_545 S
Nd104 O126 2.487 . S
Nd104 O127 2.682 . S
Nd104 O128 2.410 1_545 S
Nd104 O133 2.414 1_455 S
Nd104 O135 2.424 . S
Nd105 C115 2.836 . S
Nd105 O127 2.414 1_554 S
Nd105 O129 2.424 1_545 S
Nd105 O130 2.500 . S
Nd105 O131 2.492 . S
Nd105 O132 2.487 1_455 S
Nd105 O133 2.682 1_454 S
Nd105 O134 2.410 1_554 S
C106 Nd104 2.836 1_565 S
C106 C107 1.498 . S
C106 O124 1.258 1_455 S
C106 O125 1.239 . S
C107 C106 1.498 . S
C107 C108 1.366 1_455 S
C107 C112 1.407 . S
C108 C107 1.366 1_655 S
C108 C109 1.392 . S
C108 H136 0.930 . S
C109 C108 1.392 . S
C109 C110 1.398 1_655 S
C109 H137 0.929 . S
C110 C109 1.398 1_455 S
C110 C111 1.352 . S
C111 C110 1.352 . S
C111 C112 1.384 . S
C111 H138 0.930 . S
C112 C107 1.407 . S
C112 C111 1.384 . S
C112 H139 0.929 . S
C113 O126 1.241 . S
C113 O127 1.273 . S
C114 O128 1.251 . S
C114 O129 1.268 1_556 S
C115 Nd105 2.836 . S
C115 C116 1.498 . S
C115 O130 1.258 . S
C115 O131 1.239 . S
C116 C115 1.498 . S
C116 C117 1.366 . S
C116 C121 1.407 . S
C117 C116 1.366 . S
C117 C118 1.392 . S
C117 H140 0.930 . S
C118 C117 1.392 . S
C118 C119 1.398 . S
C118 H141 0.929 . S
C119 C118 1.398 . S
C119 C120 1.352 . S
C120 C119 1.352 . S
C120 C121 1.384 . S
C120 H142 0.930 . S
C121 C116 1.407 . S
C121 C120 1.384 . S
C121 H143 0.929 . S
C122 O132 1.241 1_556 S
C122 O133 1.273 . S
C123 O134 1.251 . S
C123 O135 1.268 . S
O124 Nd104 2.500 1_665 S
O124 C106 1.258 1_655 S
O125 Nd104 2.492 1_565 S
O125 C106 1.239 . S
O126 Nd104 2.487 . S
O126 C113 1.241 . S
O127 Nd104 2.682 . S
O127 Nd105 2.414 1_556 S
O127 C113 1.273 . S
O128 Nd104 2.410 1_565 S
O128 C114 1.251 . S
O129 Nd105 2.424 1_565 S
O129 C114 1.268 1_554 S
O130 Nd105 2.500 . S
O130 C115 1.258 . S
O131 Nd105 2.492 . S
O131 C115 1.239 . S
O132 Nd105 2.487 1_655 S
O132 C122 1.241 1_554 S
O133 Nd104 2.414 1_655 S
O133 Nd105 2.682 1_656 S
O133 C122 1.273 . S
O134 Nd105 2.410 1_556 S
O134 C123 1.251 . S
O135 Nd104 2.424 . S
O135 C123 1.268 . S
H136 C108 0.930 . S
H137 C109 0.929 . S
H138 C111 0.930 . S
H139 C112 0.929 . S
H140 C117 0.930 . S
H141 C118 0.929 . S
H142 C120 0.930 . S
H143 C121 0.929 . S
Nd144 C146 2.836 1_545 S
Nd144 O164 2.500 1_545 S
Nd144 O165 2.492 . S
Nd144 O166 2.487 . S
Nd144 O167 2.682 . S
Nd144 O168 2.410 . S
Nd144 O173 2.414 1_545 S
Nd144 O175 2.424 . S
Nd145 C155 2.836 . S
Nd145 O167 2.414 1_554 S
Nd145 O169 2.424 1_554 S
Nd145 O170 2.500 . S
Nd145 O171 2.492 . S
Nd145 O172 2.487 1_545 S
Nd145 O173 2.682 1_544 S
Nd145 O174 2.410 1_554 S
C146 Nd144 2.836 1_565 S
C146 C147 1.498 . S
C146 O164 1.258 . S
C146 O165 1.239 1_565 S
C147 C146 1.498 . S
C147 C148 1.366 . S
C147 C152 1.407 . S
C148 C147 1.366 . S
C148 C149 1.392 . S
C148 H176 0.930 . S
C149 C148 1.392 . S
C149 C150 1.398 . S
C149 H177 0.929 . S
C150 C149 1.398 . S
C150 C151 1.352 . S
C151 C150 1.352 . S
C151 C152 1.384 . S
C151 H178 0.930 . S
C152 C147 1.407 . S
C152 C151 1.384 . S
C152 H179 0.929 1_565 S
C153 O166 1.241 . S
C153 O167 1.273 . S
C154 O168 1.251 . S
C154 O169 1.268 . S
C155 Nd145 2.836 . S
C155 C156 1.498 . S
C155 O170 1.258 . S
C155 O171 1.239 . S
C156 C155 1.498 . S
C156 C157 1.366 . S
C156 C161 1.407 . S
C157 C156 1.366 . S
C157 C158 1.392 . S
C157 H180 0.930 . S
C158 C157 1.392 . S
C158 C159 1.398 . S
C158 H181 0.929 . S
C159 C158 1.398 . S
C159 C160 1.352 . S
C160 C159 1.352 . S
C160 C161 1.384 . S
C160 H182 0.930 . S
C161 C156 1.407 . S
C161 C160 1.384 . S
C161 H183 0.929 . S
C162 O172 1.241 . S
C162 O173 1.273 1_554 S
C163 O174 1.251 . S
C163 O175 1.268 . S
O164 Nd144 2.500 1_565 S
O164 C146 1.258 . S
O165 Nd144 2.492 . S
O165 C146 1.239 1_545 S
O166 Nd144 2.487 . S
O166 C153 1.241 . S
O167 Nd144 2.682 . S
O167 Nd145 2.414 1_556 S
O167 C153 1.273 . S
O168 Nd144 2.410 . S
O168 C154 1.251 . S
O169 Nd145 2.424 1_556 S
O169 C154 1.268 . S
O170 Nd145 2.500 . S
O170 C155 1.258 . S
O171 Nd145 2.492 . S
O171 C155 1.239 . S
O172 Nd145 2.487 1_565 S
O172 C162 1.241 . S
O173 Nd144 2.414 1_565 S
O173 Nd145 2.682 1_566 S
O173 C162 1.273 1_556 S
O174 Nd145 2.410 1_556 S
O174 C163 1.251 . S
O175 Nd144 2.424 . S
O175 C163 1.268 . S
H176 C148 0.930 . S
H177 C149 0.929 . S
H178 C151 0.930 . S
H179 C152 0.929 1_545 S
H180 C157 0.930 . S
H181 C158 0.929 . S
H182 C160 0.930 . S
H183 C161 0.929 . S
Nd184 C186 2.836 . S
Nd184 O204 2.500 . S
Nd184 O205 2.492 . S
Nd184 O206 2.487 1_554 S
Nd184 O207 2.682 1_554 S
Nd184 O208 2.410 1_554 S
Nd184 O213 2.414 1_554 S
Nd184 O215 2.424 . S
Nd185 C195 2.836 . S
Nd185 O207 2.414 . S
Nd185 O209 2.424 . S
Nd185 O210 2.500 . S
Nd185 O211 2.492 . S
Nd185 O212 2.487 . S
Nd185 O213 2.682 . S
Nd185 O214 2.410 . S
C186 Nd184 2.836 . S
C186 C187 1.498 . S
C186 O204 1.258 . S
C186 O205 1.239 . S
C187 C186 1.498 . S
C187 C188 1.366 . S
C187 C192 1.407 . S
C188 C187 1.366 . S
C188 C189 1.392 . S
C188 H216 0.930 . S
C189 C188 1.392 . S
C189 C190 1.398 . S
C189 H217 0.929 . S
C190 C189 1.398 . S
C190 C191 1.352 . S
C191 C190 1.352 . S
C191 C192 1.384 . S
C191 H218 0.930 . S
C192 C187 1.407 . S
C192 C191 1.384 . S
C192 H219 0.929 . S
C193 O206 1.241 . S
C193 O207 1.273 . S
C194 O208 1.251 . S
C194 O209 1.268 . S
C195 Nd185 2.836 . S
C195 C196 1.498 . S
C195 O210 1.258 . S
C195 O211 1.239 . S
C196 C195 1.498 . S
C196 C197 1.366 . S
C196 C201 1.407 . S
C197 C196 1.366 . S
C197 C198 1.392 . S
C197 H220 0.930 . S
C198 C197 1.392 . S
C198 C199 1.398 . S
C198 H221 0.929 . S
C199 C198 1.398 . S
C199 C200 1.352 . S
C200 C199 1.352 . S
C200 C201 1.384 . S
C200 H222 0.930 . S
C201 C196 1.407 . S
C201 C200 1.384 . S
C201 H223 0.929 . S
C202 O212 1.241 . S
C202 O213 1.273 . S
C203 O214 1.251 . S
C203 O215 1.268 1_556 S
O204 Nd184 2.500 . S
O204 C186 1.258 . S
O205 Nd184 2.492 . S
O205 C186 1.239 . S
O206 Nd184 2.487 1_556 S
O206 C193 1.241 . S
O207 Nd184 2.682 1_556 S
O207 Nd185 2.414 . S
O207 C193 1.273 . S
O208 Nd184 2.410 1_556 S
O208 C194 1.251 . S
O209 Nd185 2.424 . S
O209 C194 1.268 . S
O210 Nd185 2.500 . S
O210 C195 1.258 . S
O211 Nd185 2.492 . S
O211 C195 1.239 . S
O212 Nd185 2.487 . S
O212 C202 1.241 . S
O213 Nd184 2.414 1_556 S
O213 Nd185 2.682 . S
O213 C202 1.273 . S
O214 Nd185 2.410 . S
O214 C203 1.251 . S
O215 Nd184 2.424 . S
O215 C203 1.268 1_554 S
H216 C188 0.930 . S
H217 C189 0.929 . S
H218 C191 0.930 . S
H219 C192 0.929 . S
H220 C197 0.930 . S
H221 C198 0.929 . S
H222 C200 0.930 . S
H223 C201 0.929 . S
Nd224 C226 2.836 1_455 S
Nd224 O244 2.500 1_455 S
Nd224 O245 2.492 1_455 S
Nd224 O246 2.487 . S
Nd224 O247 2.682 . S
Nd224 O248 2.410 1_455 S
Nd224 O253 2.414 . S
Nd224 O255 2.424 . S
Nd225 C235 2.836 . S
Nd225 O247 2.414 1_554 S
Nd225 O249 2.424 1_454 S
Nd225 O250 2.500 . S
Nd225 O251 2.492 . S
Nd225 O252 2.487 . S
Nd225 O253 2.682 1_554 S
Nd225 O254 2.410 1_554 S
C226 Nd224 2.836 1_655 S
C226 C227 1.498 . S
C226 O244 1.258 . S
C226 O245 1.239 . S
C227 C226 1.498 . S
C227 C228 1.366 . S
C227 C232 1.407 . S
C228 C227 1.366 . S
C228 C229 1.392 . S
C228 H256 0.930 . S
C229 C228 1.392 . S
C229 C230 1.398 . S
C229 H257 0.929 . S
C230 C229 1.398 . S
C230 C231 1.352 . S
C231 C230 1.352 . S
C231 C232 1.384 . S
C231 H258 0.930 . S
C232 C227 1.407 . S
C232 C231 1.384 . S
C232 H259 0.929 . S
C233 O246 1.241 . S
C233 O247 1.273 . S
C234 O248 1.251 . S
C234 O249 1.268 . S
C235 Nd225 2.836 . S
C235 C236 1.498 . S
C235 O250 1.258 . S
C235 O251 1.239 . S
C236 C235 1.498 . S
C236 C237 1.366 . S
C236 C241 1.407 . S
C237 C236 1.366 . S
C237 C238 1.392 . S
C237 H260 0.930 . S
C238 C237 1.392 . S
C238 C239 1.398 . S
C238 H261 0.929 . S
C239 C238 1.398 . S
C239 C240 1.352 . S
C240 C239 1.352 . S
C240 C241 1.384 . S
C240 H262 0.930 . S
C241 C236 1.407 . S
C241 C240 1.384 . S
C241 H263 0.929 . S
C242 O252 1.241 1_556 S
C242 O253 1.273 . S
C243 O254 1.251 . S
C243 O255 1.268 . S
O244 Nd224 2.500 1_655 S
O244 C226 1.258 . S
O245 Nd224 2.492 1_655 S
O245 C226 1.239 . S
O246 Nd224 2.487 . S
O246 C233 1.241 . S
O247 Nd224 2.682 . S
O247 Nd225 2.414 1_556 S
O247 C233 1.273 . S
O248 Nd224 2.410 1_655 S
O248 C234 1.251 . S
O249 Nd225 2.424 1_656 S
O249 C234 1.268 . S
O250 Nd225 2.500 . S
O250 C235 1.258 . S
O251 Nd225 2.492 . S
O251 C235 1.239 . S
O252 Nd225 2.487 . S
O252 C242 1.241 1_554 S
O253 Nd224 2.414 . S
O253 Nd225 2.682 1_556 S
O253 C242 1.273 . S
O254 Nd225 2.410 1_556 S
O254 C243 1.251 . S
O255 Nd224 2.424 . S
O255 C243 1.268 . S
H256 C228 0.930 . S
H257 C229 0.929 . S
H258 C231 0.930 . S
H259 C232 0.929 . S
H260 C237 0.930 . S
H261 C238 0.929 . S
H262 C240 0.930 . S
H263 C241 0.929 . S
H264 C276 0.930 . S
H265 C278 0.930 . S
H266 C279 0.930 . S
H267 C283 0.959 . S
H268 C283 0.959 1_554 S
H269 C283 0.961 1_554 S
H270 C284 0.960 . S
H271 C284 0.961 . S
H272 C284 0.959 . S
H273 C287 0.929 . S
H274 C288 0.931 . S
H275 C290 0.930 . S
C276 H264 0.930 . S
C276 C277 1.399 . S
C276 C281 1.399 . S
C277 C276 1.399 . S
C277 C278 1.376 . S
C278 H265 0.930 . S
C278 C277 1.376 . S
C278 C279 1.388 . S
C279 H266 0.930 . S
C279 C278 1.388 . S
C279 C280 1.390 . S
C280 C279 1.390 . S
C280 C281 1.394 . S
C280 C286 1.465 . S
C281 C276 1.399 . S
C281 C280 1.394 . S
C281 C282 1.516 . S
C282 C281 1.516 . S
C282 C283 1.502 . S
C282 C284 1.561 . S
C282 C285 1.526 . S
C283 H267 0.959 . S
C283 H268 0.959 1_556 S
C283 H269 0.961 1_556 S
C283 C282 1.502 . S
C284 H270 0.960 . S
C284 H271 0.961 . S
C284 H272 0.959 . S
C284 C282 1.561 . S
C285 C282 1.526 . S
C285 C286 1.396 . S
C285 C290 1.390 . S
C286 C280 1.465 . S
C286 C285 1.396 . S
C286 C287 1.399 . S
C287 H273 0.929 . S
C287 C286 1.399 . S
C287 C288 1.385 . S
C288 H274 0.931 . S
C288 C287 1.385 . S
C288 C289 1.389 . S
C289 C288 1.389 . S
C289 C290 1.387 . S
C290 H275 0.930 . S
C290 C285 1.390 . S
C290 C289 1.387 . S
H291 C303 0.930 . S
H292 C305 0.930 . S
H293 C306 0.930 . S
H294 C310 0.959 . S
H295 C310 0.959 . S
H296 C310 0.961 . S
H297 C311 0.960 . S
H298 C311 0.961 . S
H299 C311 0.959 . S
H300 C314 0.929 . S
H301 C315 0.931 . S
H302 C317 0.930 . S
C303 H291 0.930 . S
C303 C304 1.399 . S
C303 C308 1.399 . S
C304 C303 1.399 . S
C304 C305 1.376 . S
C305 H292 0.930 . S
C305 C304 1.376 . S
C305 C306 1.388 . S
C306 H293 0.930 . S
C306 C305 1.388 . S
C306 C307 1.390 . S
C307 C306 1.390 . S
C307 C308 1.394 . S
C307 C313 1.465 . S
C308 C303 1.399 . S
C308 C307 1.394 . S
C308 C309 1.516 . S
C309 C308 1.516 . S
C309 C310 1.502 . S
C309 C311 1.561 . S
C309 C312 1.526 . S
C310 H294 0.959 . S
C310 H295 0.959 . S
C310 H296 0.961 . S
C310 C309 1.502 . S
C311 H297 0.960 . S
C311 H298 0.961 . S
C311 H299 0.959 . S
C311 C309 1.561 . S
C312 C309 1.526 . S
C312 C313 1.396 . S
C312 C317 1.390 . S
C313 C307 1.465 . S
C313 C312 1.396 . S
C313 C314 1.399 . S
C314 H300 0.929 . S
C314 C313 1.399 . S
C314 C315 1.385 . S
C315 H301 0.931 . S
C315 C314 1.385 . S
C315 C316 1.389 . S
C316 C315 1.389 . S
C316 C317 1.387 . S
C317 H302 0.930 . S
C317 C312 1.390 . S
C317 C316 1.387 . S
H318 C330 0.930 . S
H319 C332 0.930 . S
H320 C333 0.930 1_554 S
H321 C337 0.959 . S
H322 C337 0.959 . S
H323 C337 0.961 . S
H324 C338 0.960 . S
H325 C338 0.961 . S
H326 C338 0.959 . S
H327 C341 0.929 1_554 S
H328 C342 0.931 1_554 S
H329 C344 0.930 . S
C330 H318 0.930 . S
C330 C331 1.399 . S
C330 C335 1.399 . S
C331 C330 1.399 . S
C331 C332 1.376 . S
C332 H319 0.930 . S
C332 C331 1.376 . S
C332 C333 1.388 . S
C333 H320 0.930 1_556 S
C333 C332 1.388 . S
C333 C334 1.390 . S
C334 C333 1.390 . S
C334 C335 1.394 . S
C334 C340 1.465 . S
C335 C330 1.399 . S
C335 C334 1.394 . S
C335 C336 1.516 . S
C336 C335 1.516 . S
C336 C337 1.502 . S
C336 C338 1.561 . S
C336 C339 1.526 . S
C337 H321 0.959 . S
C337 H322 0.959 . S
C337 H323 0.961 . S
C337 C336 1.502 . S
C338 H324 0.960 . S
C338 H325 0.961 . S
C338 H326 0.959 . S
C338 C336 1.561 . S
C339 C336 1.526 . S
C339 C340 1.396 . S
C339 C344 1.390 . S
C340 C334 1.465 . S
C340 C339 1.396 . S
C340 C341 1.399 . S
C341 H327 0.929 1_556 S
C341 C340 1.399 . S
C341 C342 1.385 . S
C342 H328 0.931 1_556 S
C342 C341 1.385 . S
C342 C343 1.389 . S
C343 C342 1.389 . S
C343 C344 1.387 . S
C344 H329 0.930 . S
C344 C339 1.390 . S
C344 C343 1.387 . S
H345 C357 0.930 . S
H346 C359 0.930 . S
H347 C360 0.930 . S
H348 C364 0.959 . S
H349 C364 0.959 1_554 S
H350 C364 0.961 . S
H351 C365 0.960 . S
H352 C365 0.961 . S
H353 C365 0.959 . S
H354 C368 0.929 . S
H355 C369 0.931 . S
H356 C371 0.930 . S
C357 H345 0.930 . S
C357 C358 1.399 . S
C357 C362 1.399 . S
C358 C357 1.399 . S
C358 C359 1.376 . S
C359 H346 0.930 . S
C359 C358 1.376 . S
C359 C360 1.388 . S
C360 H347 0.930 . S
C360 C359 1.388 . S
C360 C361 1.390 . S
C361 C360 1.390 . S
C361 C362 1.394 . S
C361 C367 1.465 . S
C362 C357 1.399 . S
C362 C361 1.394 . S
C362 C363 1.516 . S
C363 C362 1.516 . S
C363 C364 1.502 . S
C363 C365 1.561 . S
C363 C366 1.526 . S
C364 H348 0.959 . S
C364 H349 0.959 1_556 S
C364 H350 0.961 . S
C364 C363 1.502 . S
C365 H351 0.960 . S
C365 H352 0.961 . S
C365 H353 0.959 . S
C365 C363 1.561 . S
C366 C363 1.526 . S
C366 C367 1.396 . S
C366 C371 1.390 . S
C367 C361 1.465 . S
C367 C366 1.396 . S
C367 C368 1.399 . S
C368 H354 0.929 . S
C368 C367 1.399 . S
C368 C369 1.385 . S
C369 H355 0.931 . S
C369 C368 1.385 . S
C369 C370 1.389 . S
C370 C369 1.389 . S
C370 C371 1.387 . S
C371 H356 0.930 . S
C371 C366 1.390 . S
C371 C370 1.387 . S
H372 C384 0.930 . S
H373 C386 0.930 . S
H374 C387 0.930 . S
H375 C391 0.959 . S
H376 C391 0.959 . S
H377 C391 0.961 . S
H378 C392 0.960 . S
H379 C392 0.961 . S
H380 C392 0.959 . S
H381 C395 0.929 . S
H382 C396 0.922 1_545 S
H383 C398 0.929 . S
C384 H372 0.930 . S
C384 C385 1.399 1_556 S
C384 C389 1.399 . S
C385 C384 1.399 1_554 S
C385 C386 1.376 . S
C386 H373 0.930 . S
C386 C385 1.376 . S
C386 C387 1.388 . S
C387 H374 0.930 . S
C387 C386 1.388 . S
C387 C388 1.390 . S
C388 C387 1.390 . S
C388 C389 1.394 1_554 S
C388 C394 1.465 . S
C389 C384 1.399 . S
C389 C388 1.394 1_556 S
C389 C390 1.516 . S
C390 C389 1.516 . S
C390 C391 1.502 . S
C390 C392 1.561 1_565 S
C390 C393 1.526 . S
C391 H375 0.959 . S
C391 H376 0.959 . S
C391 H377 0.961 . S
C391 C390 1.502 . S
C392 H378 0.960 . S
C392 H379 0.961 . S
C392 H380 0.959 . S
C392 C390 1.561 1_545 S
C393 C390 1.526 . S
C393 C394 1.396 1_556 S
C393 C398 1.390 . S
C394 C388 1.465 . S
C394 C393 1.396 1_554 S
C394 C395 1.399 . S
C395 H381 0.929 . S
C395 C394 1.399 . S
C395 C396 1.391 . S
C396 H382 0.922 1_565 S
C396 C395 1.391 . S
C396 C397 1.395 1_564 S
C397 C396 1.395 1_546 S
C397 C398 1.387 1_545 S
C398 H383 0.929 . S
C398 C393 1.390 . S
C398 C397 1.387 1_565 S
H399 C411 0.930 . S
H400 C413 0.930 . S
H401 C414 0.930 . S
H402 C418 0.959 . S
H403 C418 0.959 . S
H404 C418 0.961 . S
H405 C419 0.960 . S
H406 C419 0.961 . S
H407 C419 0.959 . S
H408 C422 0.929 . S
H409 C423 0.931 1_556 S
H410 C425 0.930 . S
C411 H399 0.930 . S
C411 C412 1.399 . S
C411 C416 1.399 . S
C412 C411 1.399 . S
C412 C413 1.376 . S
C413 H400 0.930 . S
C413 C412 1.376 . S
C413 C414 1.388 . S
C414 H401 0.930 . S
C414 C413 1.388 . S
C414 C415 1.390 . S
C415 C414 1.390 . S
C415 C416 1.394 . S
C415 C421 1.465 . S
C416 C411 1.399 . S
C416 C415 1.394 . S
C416 C417 1.516 . S
C417 C416 1.516 . S
C417 C418 1.502 . S
C417 C419 1.561 . S
C417 C420 1.526 . S
C418 H402 0.959 . S
C418 H403 0.959 . S
C418 H404 0.961 . S
C418 C417 1.502 . S
C419 H405 0.960 . S
C419 H406 0.961 . S
C419 H407 0.959 . S
C419 C417 1.561 . S
C420 C417 1.526 . S
C420 C421 1.396 . S
C420 C425 1.390 . S
C421 C415 1.465 . S
C421 C420 1.396 . S
C421 C422 1.399 . S
C422 H408 0.929 . S
C422 C421 1.399 . S
C422 C423 1.385 . S
C423 H409 0.931 1_554 S
C423 C422 1.385 . S
C423 C424 1.389 . S
C424 C423 1.389 . S
C424 C425 1.387 . S
C425 H410 0.930 . S
C425 C420 1.390 . S
C425 C424 1.387 . S
H426 C438 0.930 . S
H427 C440 0.930 . S
H428 C441 0.930 . S
H429 C445 0.959 . S
H430 C445 0.959 . S
H431 C445 0.961 . S
H432 C446 0.960 . S
H433 C446 0.961 . S
H434 C446 0.959 . S
H435 C449 0.929 . S
H436 C450 0.931 1_554 S
H437 C452 0.930 . S
C438 H426 0.930 . S
C438 C439 1.399 . S
C438 C443 1.399 . S
C439 C438 1.399 . S
C439 C440 1.376 1_556 S
C440 H427 0.930 . S
C440 C439 1.376 1_554 S
C440 C441 1.388 . S
C441 H428 0.930 . S
C441 C440 1.388 . S
C441 C442 1.390 1_554 S
C442 C441 1.390 1_556 S
C442 C443 1.394 . S
C442 C448 1.465 . S
C443 C438 1.399 . S
C443 C442 1.394 . S
C443 C444 1.516 . S
C444 C443 1.516 . S
C444 C445 1.502 . S
C444 C446 1.561 . S
C444 C447 1.526 . S
C445 H429 0.959 . S
C445 H430 0.959 . S
C445 H431 0.961 . S
C445 C444 1.502 . S
C446 H432 0.960 . S
C446 H433 0.961 . S
C446 H434 0.959 . S
C446 C444 1.561 . S
C447 C444 1.526 . S
C447 C448 1.396 . S
C447 C452 1.390 . S
C448 C442 1.465 . S
C448 C447 1.396 . S
C448 C449 1.399 1_556 S
C449 H435 0.929 . S
C449 C448 1.399 1_554 S
C449 C450 1.385 1_554 S
C450 H436 0.931 1_556 S
C450 C449 1.385 1_556 S
C450 C451 1.389 . S
C451 C450 1.389 . S
C451 C452 1.387 . S
C452 H437 0.930 . S
C452 C447 1.390 . S
C452 C451 1.387 . S
H453 C465 0.930 . S
H454 C467 0.930 . S
H455 C468 0.930 . S
H456 C472 0.959 . S
H457 C472 0.959 . S
H458 C472 0.961 . S
H459 C473 0.960 . S
H460 C473 0.961 . S
H461 C473 0.959 . S
H462 C476 0.929 . S
H463 C477 0.931 . S
H464 C479 0.930 . S
C465 H453 0.930 . S
C465 C466 1.399 1_455 S
C465 C470 1.399 . S
C466 C465 1.399 1_655 S
C466 C467 1.376 1_554 S
C467 H454 0.930 . S
C467 C466 1.376 1_556 S
C467 C468 1.388 . S
C468 H455 0.930 . S
C468 C467 1.388 . S
C468 C469 1.390 1_655 S
C469 C468 1.390 1_455 S
C469 C470 1.394 1_556 S
C469 C475 1.465 . S
C470 C465 1.399 . S
C470 C469 1.394 1_554 S
C470 C471 1.516 . S
C471 C470 1.516 . S
C471 C472 1.502 . S
C471 C473 1.561 1_455 S
C471 C474 1.526 . S
C472 H456 0.959 . S
C472 H457 0.959 . S
C472 H458 0.961 . S
C472 C471 1.502 . S
C473 H459 0.960 . S
C473 H460 0.961 . S
C473 H461 0.959 . S
C473 C471 1.561 1_655 S
C474 C471 1.526 . S
C474 C475 1.396 1_554 S
C474 C479 1.390 . S
C475 C469 1.465 . S
C475 C474 1.396 1_556 S
C475 C476 1.399 . S
C476 H462 0.929 . S
C476 C475 1.399 . S
C476 C477 1.385 . S
C477 H463 0.931 . S
C477 C476 1.385 . S
C477 C478 1.389 . S
C478 C477 1.389 . S
C478 C479 1.387 1_556 S
C479 H464 0.930 . S
C479 C474 1.390 . S
C479 C478 1.387 1_554 S
H480 C492 0.930 . S
H481 C494 0.930 . S
H482 C495 0.930 . S
H483 C499 0.959 1_655 S
H484 C499 0.959 . S
H485 C499 0.961 . S
H486 C500 0.960 . S
H487 C500 0.961 . S
H488 C500 0.959 . S
H489 C503 0.929 . S
H490 C504 0.931 . S
H491 C506 0.930 . S
C492 H480 0.930 . S
C492 C493 1.399 . S
C492 C497 1.399 . S
C493 C492 1.399 . S
C493 C494 1.376 . S
C494 H481 0.930 . S
C494 C493 1.376 . S
C494 C495 1.388 . S
C495 H482 0.930 . S
C495 C494 1.388 . S
C495 C496 1.390 . S
C496 C495 1.390 . S
C496 C497 1.394 . S
C496 C502 1.465 . S
C497 C492 1.399 . S
C497 C496 1.394 . S
C497 C498 1.516 . S
C498 C497 1.516 . S
C498 C499 1.502 . S
C498 C500 1.561 . S
C498 C501 1.526 . S
C499 H483 0.959 1_455 S
C499 H484 0.959 . S
C499 H485 0.961 . S
C499 C498 1.502 . S
C500 H486 0.960 . S
C500 H487 0.961 . S
C500 H488 0.959 . S
C500 C498 1.561 . S
C501 C498 1.526 . S
C501 C502 1.396 . S
C501 C506 1.390 . S
C502 C496 1.465 . S
C502 C501 1.396 . S
C502 C503 1.399 . S
C503 H489 0.929 . S
C503 C502 1.399 . S
C503 C504 1.385 . S
C504 H490 0.931 . S
C504 C503 1.385 . S
C504 C505 1.389 . S
C505 C504 1.389 . S
C505 C506 1.387 . S
C506 H491 0.930 . S
C506 C501 1.390 . S
C506 C505 1.387 . S
H507 C519 0.930 . S
H508 C521 0.930 . S
H509 C522 0.930 . S
H510 C526 0.959 . S
H511 C526 0.959 . S
H512 C526 0.961 . S
H513 C527 0.960 . S
H514 C527 0.961 . S
H515 C527 0.959 . S
H516 C530 0.929 . S
H517 C531 0.931 . S
H518 C533 0.930 . S
C519 H507 0.930 . S
C519 C520 1.399 . S
C519 C524 1.399 . S
C520 C519 1.399 . S
C520 C521 1.376 . S
C521 H508 0.930 . S
C521 C520 1.376 . S
C521 C522 1.388 . S
C522 H509 0.930 . S
C522 C521 1.388 . S
C522 C523 1.390 . S
C523 C522 1.390 . S
C523 C524 1.394 . S
C523 C529 1.465 . S
C524 C519 1.399 . S
C524 C523 1.394 . S
C524 C525 1.516 . S
C525 C524 1.516 . S
C525 C526 1.502 . S
C525 C527 1.561 1_556 S
C525 C528 1.526 . S
C526 H510 0.959 . S
C526 H511 0.959 . S
C526 H512 0.961 . S
C526 C525 1.502 . S
C527 H513 0.960 . S
C527 H514 0.961 . S
C527 H515 0.959 . S
C527 C525 1.561 1_554 S
C528 C525 1.526 . S
C528 C529 1.396 . S
C528 C533 1.390 . S
C529 C523 1.465 . S
C529 C528 1.396 . S
C529 C530 1.399 . S
C530 H516 0.929 . S
C530 C529 1.399 . S
C530 C531 1.385 . S
C531 H517 0.931 . S
C531 C530 1.385 . S
C531 C532 1.389 . S
C532 C531 1.389 . S
C532 C533 1.387 . S
C533 H518 0.930 . S
C533 C528 1.390 . S
C533 C532 1.387 . S
H534 C546 0.930 . S
H535 C548 0.930 . S
H536 C549 0.930 . S
H537 C553 0.959 . S
H538 C553 0.959 . S
H539 C553 0.961 . S
H540 C554 0.960 . S
H541 C554 0.961 . S
H542 C554 0.959 . S
H543 C557 0.929 . S
H544 C558 0.931 . S
H545 C560 0.930 . S
C546 H534 0.930 . S
C546 C547 1.399 . S
C546 C551 1.399 . S
C547 C546 1.399 . S
C547 C548 1.376 . S
C548 H535 0.930 . S
C548 C547 1.376 . S
C548 C549 1.388 . S
C549 H536 0.930 . S
C549 C548 1.388 . S
C549 C550 1.390 . S
C550 C549 1.390 . S
C550 C551 1.394 . S
C550 C556 1.465 . S
C551 C546 1.399 . S
C551 C550 1.394 . S
C551 C552 1.516 . S
C552 C551 1.516 . S
C552 C553 1.502 . S
C552 C554 1.561 . S
C552 C555 1.526 . S
C553 H537 0.959 . S
C553 H538 0.959 . S
C553 H539 0.961 . S
C553 C552 1.502 . S
C554 H540 0.960 . S
C554 H541 0.961 . S
C554 H542 0.959 . S
C554 C552 1.561 . S
C555 C552 1.526 . S
C555 C556 1.396 . S
C555 C560 1.390 . S
C556 C550 1.465 . S
C556 C555 1.396 . S
C556 C557 1.399 . S
C557 H543 0.929 . S
C557 C556 1.399 . S
C557 C558 1.385 . S
C558 H544 0.931 . S
C558 C557 1.385 . S
C558 C559 1.389 . S
C559 C558 1.389 . S
C559 C560 1.387 . S
C560 H545 0.930 . S
C560 C555 1.390 . S
C560 C559 1.387 . S
H561 C573 0.930 . S
H562 C575 0.930 1_554 S
H563 C576 0.930 1_554 S
H564 C580 0.959 . S
H565 C580 0.959 . S
H566 C580 0.961 . S
H567 C581 0.960 . S
H568 C581 0.961 . S
H569 C581 0.959 . S
H570 C584 0.929 1_554 S
H571 C585 0.931 1_554 S
H572 C587 0.930 . S
C573 H561 0.930 . S
C573 C574 1.399 . S
C573 C578 1.399 . S
C574 C573 1.399 . S
C574 C575 1.376 . S
C575 H562 0.930 1_556 S
C575 C574 1.376 . S
C575 C576 1.388 . S
C576 H563 0.930 1_556 S
C576 C575 1.388 . S
C576 C577 1.390 . S
C577 C576 1.390 . S
C577 C578 1.394 . S
C577 C583 1.465 . S
C578 C573 1.399 . S
C578 C577 1.394 . S
C578 C579 1.516 . S
C579 C578 1.516 . S
C579 C580 1.502 . S
C579 C581 1.561 . S
C579 C582 1.526 . S
C580 H564 0.959 . S
C580 H565 0.959 . S
C580 H566 0.961 . S
C580 C579 1.502 . S
C581 H567 0.960 . S
C581 H568 0.961 . S
C581 H569 0.959 . S
C581 C579 1.561 . S
C582 C579 1.526 . S
C582 C583 1.396 . S
C582 C587 1.390 . S
C583 C577 1.465 . S
C583 C582 1.396 . S
C583 C584 1.399 . S
C584 H570 0.929 1_556 S
C584 C583 1.399 . S
C584 C585 1.385 . S
C585 H571 0.931 1_556 S
C585 C584 1.385 . S
C585 C586 1.389 . S
C586 C585 1.389 . S
C586 C587 1.387 . S
C587 H572 0.930 . S
C587 C582 1.390 . S
C587 C586 1.387 . S
H588 C600 0.930 . S
H589 C602 0.930 . S
H590 C603 0.930 . S
H591 C607 0.959 . S
H592 C607 0.959 . S
H593 C607 0.961 . S
H594 C608 0.960 . S
H595 C608 0.961 . S
H596 C608 0.959 . S
H597 C611 0.929 . S
H598 C612 0.931 . S
H599 C614 0.930 . S
C600 H588 0.930 . S
C600 C601 1.414 . S
C600 C605 1.399 1_655 S
C601 C600 1.414 . S
C601 C602 1.357 1_654 S
C602 H589 0.930 . S
C602 C601 1.357 1_456 S
C602 C603 1.388 . S
C603 H590 0.930 . S
C603 C602 1.388 . S
C603 C604 1.390 . S
C604 C603 1.390 . S
C604 C605 1.394 1_556 S
C604 C610 1.465 . S
C605 C600 1.399 1_455 S
C605 C604 1.394 1_554 S
C605 C606 1.516 1_455 S
C606 C605 1.516 1_655 S
C606 C607 1.502 . S
C606 C608 1.561 1_655 S
C606 C609 1.526 1_655 S
C607 H591 0.959 . S
C607 H592 0.959 . S
C607 H593 0.961 . S
C607 C606 1.502 . S
C608 H594 0.960 . S
C608 H595 0.961 . S
C608 H596 0.959 . S
C608 C606 1.561 1_455 S
C609 C606 1.526 1_455 S
C609 C610 1.396 1_554 S
C609 C614 1.390 . S
C610 C604 1.465 . S
C610 C609 1.396 1_556 S
C610 C611 1.399 . S
C611 H597 0.929 . S
C611 C610 1.399 . S
C611 C612 1.385 . S
C612 H598 0.931 . S
C612 C611 1.385 . S
C612 C613 1.389 . S
C613 C612 1.389 . S
C613 C614 1.387 1_556 S
C614 H599 0.930 . S
C614 C609 1.390 . S
C614 C613 1.387 1_554 S
H615 C627 0.930 . S
H616 C629 0.930 . S
H617 C630 0.930 . S
H618 C634 0.959 . S
H619 C634 0.959 . S
H620 C634 0.961 1_565 S
H621 C635 0.960 . S
H622 C635 0.961 . S
H623 C635 0.959 . S
H624 C638 0.929 . S
H625 C639 0.931 . S
H626 C641 0.930 . S
C627 H615 0.930 . S
C627 C628 1.399 1_556 S
C627 C632 1.399 . S
C628 C627 1.399 1_554 S
C628 C629 1.376 . S
C629 H616 0.930 . S
C629 C628 1.376 . S
C629 C630 1.388 . S
C630 H617 0.930 . S
C630 C629 1.388 . S
C630 C631 1.390 . S
C631 C630 1.390 . S
C631 C632 1.394 1_554 S
C631 C637 1.465 . S
C632 C627 1.399 . S
C632 C631 1.394 1_556 S
C632 C633 1.516 . S
C633 C632 1.516 . S
C633 C634 1.502 1_565 S
C633 C635 1.561 . S
C633 C636 1.526 . S
C634 H618 0.959 . S
C634 H619 0.959 . S
C634 H620 0.961 1_545 S
C634 C633 1.502 1_545 S
C635 H621 0.960 . S
C635 H622 0.961 . S
C635 H623 0.959 . S
C635 C633 1.561 . S
C636 C633 1.526 . S
C636 C637 1.396 1_556 S
C636 C641 1.390 1_565 S
C637 C631 1.465 . S
C637 C636 1.396 1_554 S
C637 C638 1.399 . S
C638 H624 0.929 . S
C638 C637 1.399 . S
C638 C639 1.385 1_565 S
C639 H625 0.931 . S
C639 C638 1.385 1_545 S
C639 C640 1.389 1_554 S
C640 C639 1.389 1_556 S
C640 C641 1.387 . S
C641 H626 0.930 . S
C641 C636 1.390 1_545 S
C641 C640 1.387 . S
H642 C654 0.930 . S
H643 C656 0.930 . S
H644 C657 0.930 . S
H645 C661 0.959 . S
H646 C661 0.959 . S
H647 C661 0.961 . S
H648 C662 0.960 . S
H649 C662 0.961 . S
H650 C662 0.959 . S
H651 C665 0.929 . S
H652 C666 0.931 . S
H653 C668 0.930 . S
C654 H642 0.930 . S
C654 C655 1.399 . S
C654 C659 1.399 . S
C655 C654 1.399 . S
C655 C656 1.376 . S
C656 H643 0.930 . S
C656 C655 1.376 . S
C656 C657 1.388 . S
C657 H644 0.930 . S
C657 C656 1.388 . S
C657 C658 1.390 . S
C658 C657 1.390 . S
C658 C659 1.394 . S
C658 C664 1.465 . S
C659 C654 1.399 . S
C659 C658 1.394 . S
C659 C660 1.516 . S
C660 C659 1.516 . S
C660 C661 1.502 . S
C660 C662 1.561 . S
C660 C663 1.526 . S
C661 H645 0.959 . S
C661 H646 0.959 . S
C661 H647 0.961 . S
C661 C660 1.502 . S
C662 H648 0.960 . S
C662 H649 0.961 . S
C662 H650 0.959 . S
C662 C660 1.561 . S
C663 C660 1.526 . S
C663 C664 1.396 . S
C663 C668 1.390 . S
C664 C658 1.465 . S
C664 C663 1.396 . S
C664 C665 1.399 . S
C665 H651 0.929 . S
C665 C664 1.399 . S
C665 C666 1.385 . S
C666 H652 0.931 . S
C666 C665 1.385 . S
C666 C667 1.389 . S
C667 C666 1.389 . S
C667 C668 1.387 . S
C668 H653 0.930 . S
C668 C663 1.390 . S
C668 C667 1.387 . S
H669 C681 0.930 . S
H670 C683 0.930 1_554 S
H671 C684 0.930 . S
H672 C688 0.959 . S
H673 C688 0.959 . S
H674 C688 0.961 . S
H675 C689 0.960 . S
H676 C689 0.961 . S
H677 C689 0.959 . S
H678 C692 0.929 . S
H679 C693 0.931 1_554 S
H680 C695 0.930 . S
C681 H669 0.930 . S
C681 C682 1.399 . S
C681 C686 1.399 . S
C682 C681 1.399 . S
C682 C683 1.376 . S
C683 H670 0.930 1_556 S
C683 C682 1.376 . S
C683 C684 1.388 1_556 S
C684 H671 0.930 . S
C684 C683 1.388 1_554 S
C684 C685 1.390 1_554 S
C685 C684 1.390 1_556 S
C685 C686 1.394 . S
C685 C691 1.465 . S
C686 C681 1.399 . S
C686 C685 1.394 . S
C686 C687 1.516 . S
C687 C686 1.516 . S
C687 C688 1.502 . S
C687 C689 1.561 . S
C687 C690 1.526 . S
C688 H672 0.959 . S
C688 H673 0.959 . S
C688 H674 0.961 . S
C688 C687 1.502 . S
C689 H675 0.960 . S
C689 H676 0.961 . S
C689 H677 0.959 . S
C689 C687 1.561 . S
C690 C687 1.526 . S
C690 C691 1.396 . S
C690 C695 1.390 . S
C691 C685 1.465 . S
C691 C690 1.396 . S
C691 C692 1.399 1_556 S
C692 H678 0.929 . S
C692 C691 1.399 1_554 S
C692 C693 1.385 1_554 S
C693 H679 0.931 1_556 S
C693 C692 1.385 1_556 S
C693 C694 1.389 . S
C694 C693 1.389 . S
C694 C695 1.387 . S
C695 H680 0.930 . S
C695 C690 1.390 . S
C695 C694 1.387 . S
H696 C708 0.930 . S
H697 C710 0.930 . S
H698 C711 0.930 . S
H699 C715 0.959 . S
H700 C715 0.959 . S
H701 C715 0.961 . S
H702 C716 0.960 . S
H703 C716 0.961 . S
H704 C716 0.959 . S
H705 C719 0.929 . S
H706 C720 0.931 . S
H707 C722 0.930 . S
C708 H696 0.930 . S
C708 C709 1.399 . S
C708 C713 1.399 . S
C709 C708 1.399 . S
C709 C710 1.376 . S
C710 H697 0.930 . S
C710 C709 1.376 . S
C710 C711 1.388 . S
C711 H698 0.930 . S
C711 C710 1.388 . S
C711 C712 1.390 . S
C712 C711 1.390 . S
C712 C713 1.394 . S
C712 C718 1.465 . S
C713 C708 1.399 . S
C713 C712 1.394 . S
C713 C714 1.516 . S
C714 C713 1.516 . S
C714 C715 1.502 . S
C714 C716 1.561 . S
C714 C717 1.526 . S
C715 H699 0.959 . S
C715 H700 0.959 . S
C715 H701 0.961 . S
C715 C714 1.502 . S
C716 H702 0.960 . S
C716 H703 0.961 . S
C716 H704 0.959 . S
C716 C714 1.561 . S
C717 C714 1.526 . S
C717 C718 1.396 . S
C717 C722 1.390 . S
C718 C712 1.465 . S
C718 C717 1.396 . S
C718 C719 1.399 . S
C719 H705 0.929 . S
C719 C718 1.399 . S
C719 C720 1.385 . S
C720 H706 0.931 . S
C720 C719 1.385 . S
C720 C721 1.389 . S
C721 C720 1.389 . S
C721 C722 1.387 . S
C722 H707 0.930 . S
C722 C717 1.390 . S
C722 C721 1.387 . S
H723 C735 0.930 . S
H724 C737 0.930 . S
H725 C738 0.930 . S
H726 C742 0.959 . S
H727 C742 0.959 . S
H728 C742 0.961 . S
H729 C743 0.960 . S
H730 C743 0.961 . S
H731 C743 0.959 . S
H732 C746 0.929 . S
H733 C747 0.931 . S
H734 C749 0.930 . S
C735 H723 0.930 . S
C735 C736 1.399 . S
C735 C740 1.399 . S
C736 C735 1.399 . S
C736 C737 1.376 . S
C737 H724 0.930 . S
C737 C736 1.376 . S
C737 C738 1.388 . S
C738 H725 0.930 . S
C738 C737 1.388 . S
C738 C739 1.390 . S
C739 C738 1.390 . S
C739 C740 1.394 . S
C739 C745 1.465 . S
C740 C735 1.399 . S
C740 C739 1.394 . S
C740 C741 1.516 . S
C741 C740 1.516 . S
C741 C742 1.502 . S
C741 C743 1.561 . S
C741 C744 1.526 . S
C742 H726 0.959 . S
C742 H727 0.959 . S
C742 H728 0.961 . S
C742 C741 1.502 . S
C743 H729 0.960 . S
C743 H730 0.961 . S
C743 H731 0.959 . S
C743 C741 1.561 . S
C744 C741 1.526 . S
C744 C745 1.396 . S
C744 C749 1.390 . S
C745 C739 1.465 . S
C745 C744 1.396 . S
C745 C746 1.399 . S
C746 H732 0.929 . S
C746 C745 1.399 . S
C746 C747 1.385 . S
C747 H733 0.931 . S
C747 C746 1.385 . S
C747 C748 1.389 . S
C748 C747 1.389 . S
C748 C749 1.387 . S
C749 H734 0.930 . S
C749 C744 1.390 . S
C749 C748 1.387 . S
H750 C762 0.930 . S
H751 C764 0.930 . S
H752 C765 0.930 . S
H753 C769 0.959 . S
H754 C769 0.959 1_556 S
H755 C769 0.961 . S
H756 C770 0.960 . S
H757 C770 0.961 . S
H758 C770 0.959 . S
H759 C773 0.929 . S
H760 C774 0.931 . S
H761 C776 0.930 1_556 S
C762 H750 0.930 . S
C762 C763 1.399 . S
C762 C767 1.399 . S
C763 C762 1.399 . S
C763 C764 1.376 . S
C764 H751 0.930 . S
C764 C763 1.376 . S
C764 C765 1.388 . S
C765 H752 0.930 . S
C765 C764 1.388 . S
C765 C766 1.390 . S
C766 C765 1.390 . S
C766 C767 1.394 . S
C766 C772 1.465 . S
C767 C762 1.399 . S
C767 C766 1.394 . S
C767 C768 1.516 . S
C768 C767 1.516 . S
C768 C769 1.502 . S
C768 C770 1.561 1_554 S
C768 C771 1.526 . S
C769 H753 0.959 . S
C769 H754 0.959 1_554 S
C769 H755 0.961 . S
C769 C768 1.502 . S
C770 H756 0.960 . S
C770 H757 0.961 . S
C770 H758 0.959 . S
C770 C768 1.561 1_556 S
C771 C768 1.526 . S
C771 C772 1.396 . S
C771 C776 1.390 . S
C772 C766 1.465 . S
C772 C771 1.396 . S
C772 C773 1.399 . S
C773 H759 0.929 . S
C773 C772 1.399 . S
C773 C774 1.385 . S
C774 H760 0.931 . S
C774 C773 1.385 . S
C774 C775 1.389 . S
C775 C774 1.389 . S
C775 C776 1.387 . S
C776 H761 0.930 1_554 S
C776 C771 1.390 . S
C776 C775 1.387 . S
H777 C789 0.930 . S
H778 C791 0.930 . S
H779 C792 0.930 . S
H780 C796 0.959 . S
H781 C796 0.959 . S
H782 C796 0.961 . S
H783 C797 0.960 . S
H784 C797 0.961 . S
H785 C797 0.959 . S
H786 C800 0.929 . S
H787 C801 0.931 . S
H788 C803 0.930 . S
C789 H777 0.930 . S
C789 C790 1.399 . S
C789 C794 1.399 . S
C790 C789 1.399 . S
C790 C791 1.376 . S
C791 H778 0.930 . S
C791 C790 1.376 . S
C791 C792 1.388 . S
C792 H779 0.930 . S
C792 C791 1.388 . S
C792 C793 1.390 . S
C793 C792 1.390 . S
C793 C794 1.394 . S
C793 C799 1.465 . S
C794 C789 1.399 . S
C794 C793 1.394 . S
C794 C795 1.516 . S
C795 C794 1.516 . S
C795 C796 1.502 . S
C795 C797 1.561 . S
C795 C798 1.526 . S
C796 H780 0.959 . S
C796 H781 0.959 . S
C796 H782 0.961 . S
C796 C795 1.502 . S
C797 H783 0.960 . S
C797 H784 0.961 . S
C797 H785 0.959 . S
C797 C795 1.561 . S
C798 C795 1.526 . S
C798 C799 1.396 . S
C798 C803 1.390 . S
C799 C793 1.465 . S
C799 C798 1.396 . S
C799 C800 1.399 . S
C800 H786 0.929 . S
C800 C799 1.399 . S
C800 C801 1.385 . S
C801 H787 0.931 . S
C801 C800 1.385 . S
C801 C802 1.389 . S
C802 C801 1.389 . S
C802 C803 1.387 . S
C803 H788 0.930 . S
C803 C798 1.390 . S
C803 C802 1.387 . S
H804 C816 0.930 . S
H805 C818 0.930 . S
H806 C819 0.930 . S
H807 C823 0.959 . S
H808 C823 0.959 . S
H809 C823 0.961 . S
H810 C824 0.960 . S
H811 C824 0.961 . S
H812 C824 0.959 . S
H813 C827 0.929 . S
H814 C828 0.931 . S
H815 C830 0.930 . S
C816 H804 0.930 . S
C816 C817 1.431 . S
C816 C821 1.399 . S
C817 C816 1.431 . S
C817 C818 1.341 1_655 S
C818 H805 0.930 . S
C818 C817 1.341 1_455 S
C818 C819 1.388 . S
C819 H806 0.930 . S
C819 C818 1.388 . S
C819 C820 1.390 . S
C820 C819 1.390 . S
C820 C821 1.394 1_455 S
C820 C826 1.465 . S
C821 C816 1.399 . S
C821 C820 1.394 1_655 S
C821 C822 1.516 . S
C822 C821 1.516 . S
C822 C823 1.502 . S
C822 C824 1.561 . S
C822 C825 1.526 . S
C823 H807 0.959 . S
C823 H808 0.959 . S
C823 H809 0.961 . S
C823 C822 1.502 . S
C824 H810 0.960 . S
C824 H811 0.961 . S
C824 H812 0.959 . S
C824 C822 1.561 . S
C825 C822 1.526 . S
C825 C826 1.396 1_655 S
C825 C830 1.390 . S
C826 C820 1.465 . S
C826 C825 1.396 1_455 S
C826 C827 1.399 . S
C827 H813 0.929 . S
C827 C826 1.399 . S
C827 C828 1.385 . S
C828 H814 0.931 . S
C828 C827 1.385 . S
C828 C829 1.389 . S
C829 C828 1.389 . S
C829 C830 1.387 1_455 S
C830 H815 0.930 . S
C830 C825 1.390 . S
C830 C829 1.387 1_655 S
H831 C843 0.930 . S
H832 C845 0.930 . S
H833 C846 0.930 . S
H834 C850 0.959 . S
H835 C850 0.959 . S
H836 C850 0.961 . S
H837 C851 0.960 . S
H838 C851 0.961 . S
H839 C851 0.959 . S
H840 C854 0.929 1_545 S
H841 C855 0.931 . S
H842 C857 0.930 . S
C843 H831 0.930 . S
C843 C844 1.399 . S
C843 C848 1.399 . S
C844 C843 1.399 . S
C844 C845 1.376 . S
C845 H832 0.930 . S
C845 C844 1.376 . S
C845 C846 1.388 . S
C846 H833 0.930 . S
C846 C845 1.388 . S
C846 C847 1.390 . S
C847 C846 1.390 . S
C847 C848 1.394 . S
C847 C853 1.465 . S
C848 C843 1.399 . S
C848 C847 1.394 . S
C848 C849 1.516 . S
C849 C848 1.516 . S
C849 C850 1.502 . S
C849 C851 1.561 . S
C849 C852 1.526 . S
C850 H834 0.959 . S
C850 H835 0.959 . S
C850 H836 0.961 . S
C850 C849 1.502 . S
C851 H837 0.960 . S
C851 H838 0.961 . S
C851 H839 0.959 . S
C851 C849 1.561 . S
C852 C849 1.526 . S
C852 C853 1.396 . S
C852 C857 1.390 . S
C853 C847 1.465 . S
C853 C852 1.396 . S
C853 C854 1.399 . S
C854 H840 0.929 1_565 S
C854 C853 1.399 . S
C854 C855 1.385 . S
C855 H841 0.931 . S
C855 C854 1.385 . S
C855 C856 1.389 . S
C856 C855 1.389 . S
C856 C857 1.387 . S
C857 H842 0.930 . S
C857 C852 1.390 . S
C857 C856 1.387 . S
H858 C870 0.930 . S
H859 C872 0.930 . S
H860 C873 0.930 . S
H861 C877 0.959 . S
H862 C877 0.959 . S
H863 C877 0.961 . S
H864 C878 0.960 . S
H865 C878 0.961 . S
H866 C878 0.959 . S
H867 C881 0.929 . S
H868 C882 0.931 . S
H869 C884 0.930 . S
C870 H858 0.930 . S
C870 C871 1.399 . S
C870 C875 1.399 . S
C871 C870 1.399 . S
C871 C872 1.376 . S
C872 H859 0.930 . S
C872 C871 1.376 . S
C872 C873 1.388 . S
C873 H860 0.930 . S
C873 C872 1.388 . S
C873 C874 1.390 . S
C874 C873 1.390 . S
C874 C875 1.394 . S
C874 C880 1.465 . S
C875 C870 1.399 . S
C875 C874 1.394 . S
C875 C876 1.516 . S
C876 C875 1.516 . S
C876 C877 1.502 . S
C876 C878 1.561 . S
C876 C879 1.526 . S
C877 H861 0.959 . S
C877 H862 0.959 . S
C877 H863 0.961 . S
C877 C876 1.502 . S
C878 H864 0.960 . S
C878 H865 0.961 . S
C878 H866 0.959 . S
C878 C876 1.561 . S
C879 C876 1.526 . S
C879 C880 1.396 . S
C879 C884 1.390 . S
C880 C874 1.465 . S
C880 C879 1.396 . S
C880 C881 1.399 . S
C881 H867 0.929 . S
C881 C880 1.399 . S
C881 C882 1.385 . S
C882 H868 0.931 . S
C882 C881 1.385 . S
C882 C883 1.389 . S
C883 C882 1.389 . S
C883 C884 1.387 . S
C884 H869 0.930 . S
C884 C879 1.390 . S
C884 C883 1.387 . S
H885 C897 0.930 . S
H886 C899 0.930 . S
H887 C900 0.930 . S
H888 C904 0.959 . S
H889 C904 0.959 . S
H890 C904 0.961 . S
H891 C905 0.960 . S
H892 C905 0.961 . S
H893 C905 0.959 . S
H894 C908 0.929 . S
H895 C909 0.931 . S
H896 C911 0.930 . S
C897 H885 0.930 . S
C897 C898 1.399 . S
C897 C902 1.399 . S
C898 C897 1.399 . S
C898 C899 1.376 . S
C899 H886 0.930 . S
C899 C898 1.376 . S
C899 C900 1.388 . S
C900 H887 0.930 . S
C900 C899 1.388 . S
C900 C901 1.390 . S
C901 C900 1.390 . S
C901 C902 1.394 . S
C901 C907 1.465 . S
C902 C897 1.399 . S
C902 C901 1.394 . S
C902 C903 1.516 . S
C903 C902 1.516 . S
C903 C904 1.502 . S
C903 C905 1.561 . S
C903 C906 1.526 . S
C904 H888 0.959 . S
C904 H889 0.959 . S
C904 H890 0.961 . S
C904 C903 1.502 . S
C905 H891 0.960 . S
C905 H892 0.961 . S
C905 H893 0.959 . S
C905 C903 1.561 . S
C906 C903 1.526 . S
C906 C907 1.396 . S
C906 C911 1.390 . S
C907 C901 1.465 . S
C907 C906 1.396 . S
C907 C908 1.399 . S
C908 H894 0.929 . S
C908 C907 1.399 . S
C908 C909 1.385 . S
C909 H895 0.931 . S
C909 C908 1.385 . S
C909 C910 1.389 . S
C910 C909 1.389 . S
C910 C911 1.387 . S
C911 H896 0.930 . S
C911 C906 1.390 . S
C911 C910 1.387 . S
C277 C82 1.712 . S
C289 C113 1.629 . S
C316 C153 1.295 . S
C304 C95 1.147 . S
C343 C202 1.349 . S
C331 C56 1.322 . S
C370 C233 1.610 . S
C358 C69 1.710 . S
C397 C122 1.629 . S
C385 C30 1.600 . S
C412 C43 1.171 . S
C424 C162 1.349 . S
C439 C4 1.287 . S
C451 C193 1.316 . S
C466 C17 1.630 1_655 S
C478 C242 1.688 . S
C505 C123 0.958 . S
C493 C74 0.970 . S
C532 C163 1.498 . S
C520 C87 1.288 . S
C559 C199 0.778 . S
C547 C100 0.782 . S
C574 C61 1.112 . S
C586 C243 1.140 . S
C601 C22 0.943 . S
C613 C114 0.951 . S
C640 C154 1.489 . S
C628 C35 1.299 . S
C667 C190 0.811 . S
C655 C48 0.819 . S
C682 C9 1.004 . S
C694 C234 1.137 . S
C709 C73 1.626 . S
C721 C119 1.650 . S
C736 C86 1.443 . S
C748 C159 1.439 . S
C775 C203 1.924 1_554 S
C763 C99 1.754 . S
C802 C239 1.443 . S
C790 C60 1.439 . S
C817 C21 1.635 . S
C829 C110 1.649 . S
C856 C150 1.397 . S
C844 C34 1.422 . S
C883 C194 1.927 . S
C871 C47 1.803 . S
C898 C8 1.410 . S
C910 C230 1.430 . S
