# Generated by pormake.
# Topology pts, (4,4)-cn, num edge types: 1
# Building blocks:
#     Node 0, Type 0, BuildingBlock: MIFKUJ_clean_linker_1, # of connection points: 4
#     Node 1, Type 0, BuildingBlock: MIFKUJ_clean_linker_1, # of connection points: 4
#     Node 2, Type 1, BuildingBlock: AZAVOO_clean_sbu_0, # of connection points: 4
#     Node 3, Type 1, BuildingBlock: AZAVOO_clean_sbu_0, # of connection points: 4
#     Edge 4, Type (0, 1), BuildingBlock: TEMPAE_clean_linker_10, # of connection points: 2
#     Edge 5, Type (0, 1), BuildingBlock: TEMPAE_clean_linker_10, # of connection points: 2
#     Edge 6, Type (0, 1), BuildingBlock: TEMPAE_clean_linker_10, # of connection points: 2
#     Edge 7, Type (0, 1), BuildingBlock: TEMPAE_clean_linker_10, # of connection points: 2
#     Edge 8, Type (0, 1), BuildingBlock: TEMPAE_clean_linker_10, # of connection points: 2
#     Edge 9, Type (0, 1), BuildingBlock: TEMPAE_clean_linker_10, # of connection points: 2
#     Edge 10, Type (0, 1), BuildingBlock: TEMPAE_clean_linker_10, # of connection points: 2
#     Edge 11, Type (0, 1), BuildingBlock: TEMPAE_clean_linker_10, # of connection points: 2
# Relax obj value: 0.003
# Max RMSD: 0.043
# Mean RMSD: 0.032
data_MOF--net-pts--node1-AZAVOO_clean_sbu_0--node2-MIFKUJ_clean_linker_1--edge1-TEMPAE_clean_linker_10
_symmetry_space_group_name_H-M    P1
_symmetry_Int_Tables_number       1
_symmetry_cell_setting            triclinic
loop_
_symmetry_equiv_pos_as_xyz
'x, y, z'
_cell_length_a     29.939075
_cell_length_b     30.90715
_cell_length_c     42.154626
_cell_angle_alpha  90.065706
_cell_angle_beta   96.209506
_cell_angle_gamma 89.964434
loop_
_atom_site_label
_atom_site_type_symbol
_atom_site_fract_x
_atom_site_fract_y
_atom_site_fract_z
_atom_type_partial_charge
H0 H 0.63457 0.96704 0.01711 0.0
H1 H 0.70761 0.96026 0.04858 0.0
H2 H 0.67611 0.07049 0.10539 0.0
H3 H 0.6043 0.07857 0.07262 0.0
H4 H 0.53445 0.02826 0.06539 0.0
H5 H 0.5823 0.97307 0.94267 0.0
H6 H 0.64583 0.974 0.91091 0.0
H7 H 0.69894 0.08681 0.96259 0.0
H8 H 0.63447 0.08639 0.99378 0.0
H9 H 0.44897 0.08346 0.94108 0.0
H10 H 0.37719 0.07766 0.90783 0.0
H11 H 0.34312 0.96601 0.96201 0.0
H12 H 0.41592 0.9707 0.99406 0.0
H13 H 0.51735 0.02995 0.94705 0.0
H14 H 0.42265 0.09273 0.02082 0.0
H15 H 0.3571 0.09517 0.05078 0.0
H16 H 0.39806 0.97373 0.09584 0.0
H17 H 0.46408 0.9724 0.0666 0.0
C18 C 0.61409 0.02372 0.04217 0.0
C19 C 0.64375 0.99027 0.03595 0.0
C20 C 0.68535 0.98609 0.05425 0.0
C21 C 0.69792 0.01486 0.07955 0.0
C22 C 0.66802 0.04823 0.08576 0.0
C23 C 0.62665 0.05262 0.06725 0.0
C24 C 0.5694 0.02775 0.02324 0.0
C25 C 0.53082 0.02891 0.03951 0.0
C26 C 0.56445 0.02899 0.98946 0.0
C27 C 0.6037 0.02951 0.97071 0.0
C28 C 0.60757 -0.00194 0.94714 0.0
C29 C 0.64416 -0.00162 0.92922 0.0
C30 C 0.67762 0.03032 0.93436 0.0
C31 C 0.67363 0.06192 0.95794 0.0
C32 C 0.63698 0.06153 0.97593 0.0
C33 C 0.43777 0.02779 0.97027 0.0
C34 C 0.426 0.05777 0.94581 0.0
C35 C 0.3847 0.05466 0.92703 0.0
C36 C 0.35421 0.02145 0.93231 0.0
C37 C 0.3659 0.99175 0.95709 0.0
C38 C 0.40735 -0.00529 0.97571 0.0
C39 C 0.48258 0.02999 0.98919 0.0
C40 C 0.52112 0.02985 0.97293 0.0
C41 C 0.48755 0.03036 0.02295 0.0
C42 C 0.44818 0.03234 0.04147 0.0
C43 C 0.41746 0.06674 0.03725 0.0
C44 C 0.37987 0.06794 0.05427 0.0
C45 C 0.37218 0.03466 0.0758 0.0
C46 C 0.40324 0.00035 0.07997 0.0
C47 C 0.44096 -0.00061 0.06317 0.0
H48 H 0.10487 0.43204 0.45777 0.0
H49 H 0.10377 0.36762 0.42382 0.0
H50 H 0.96646 0.34296 0.44099 0.0
H51 H 0.96785 0.40749 0.47522 0.0
H52 H 0.04413 0.50302 0.44616 0.0
H53 H 0.083 0.39083 0.52449 0.0
H54 H 0.07308 0.32702 0.55733 0.0
H55 H 0.95965 0.38787 0.59425 0.0
H56 H 0.96817 0.45089 0.56032 0.0
H57 H 0.98758 0.61664 0.50979 0.0
H58 H 0.98707 0.68129 0.54285 0.0
H59 H 0.09157 0.6259 0.60948 0.0
H60 H 0.09427 0.56288 0.575 0.0
H61 H 0.0321 0.50581 0.56246 0.0
H62 H 0.9799 0.57386 0.44243 0.0
H63 H 0.9856 0.63585 0.40739 0.0
H64 H 0.11928 0.66179 0.45324 0.0
H65 H 0.11218 0.60059 0.48928 0.0
C66 C 0.03655 0.42419 0.4691 0.0
C67 C 0.07466 0.41254 0.45438 0.0
C68 C 0.07402 0.37582 0.43509 0.0
C69 C 0.03499 0.35055 0.42976 0.0
C70 C 0.99682 0.36221 0.44455 0.0
C71 C 0.99767 0.39871 0.46424 0.0
C72 C 0.03702 0.4646 0.48784 0.0
C73 C 0.0416 0.5036 0.47165 0.0
C74 C 0.03263 0.46531 0.5209 0.0
C75 C 0.02592 0.42551 0.5395 0.0
C76 C 0.05524 0.39008 0.53894 0.0
C77 C 0.04979 0.35378 0.55788 0.0
C78 C 0.01563 0.35276 0.57823 0.0
C79 C 0.98636 0.3881 0.57884 0.0
C80 C 0.99127 0.42401 0.55948 0.0
C81 C 0.04145 0.58508 0.53958 0.0
C82 C 0.01136 0.61896 0.53097 0.0
C83 C 0.01051 0.65563 0.5503 0.0
C84 C 0.03903 0.65878 0.57906 0.0
C85 C 0.06955 0.625 0.58736 0.0
C86 C 0.07085 0.58869 0.56776 0.0
C87 C 0.04 0.54429 0.52089 0.0
C88 C 0.0348 0.50518 0.537 0.0
C89 C 0.04252 0.54338 0.48762 0.0
C90 C 0.04555 0.58292 0.46841 0.0
C91 C 0.01022 0.59325 0.44508 0.0
C92 C 0.01377 0.62843 0.42487 0.0
C93 C 0.05317 0.65352 0.42714 0.0
C94 C 0.08831 0.64343 0.45099 0.0
C95 C 0.08442 0.60847 0.47156 0.0
Mg96 Mg 0.07434 -0.00577 0.27022 0.0
O97 O 0.0059 0.98903 0.23949 0.0
O98 O 0.95508 0.97496 0.27328 0.0
Mg99 Mg 0.98979 0.96659 0.32383 0.0
C100 C 0.96531 0.98258 0.24517 0.0
C101 C 0.11118 0.00047 0.205 0.0
O102 O 0.09109 0.96262 0.20345 0.0
O103 O 0.0537 0.05987 0.28949 0.0
O104 O 0.00728 0.03854 0.32456 0.0
O105 O 0.0884 0.92319 0.26585 0.0
O106 O 0.05216 0.95196 0.30351 0.0
C107 C 0.02874 0.06817 0.31154 0.0
C108 C 0.06705 0.91791 0.29064 0.0
O109 O 0.10776 0.0243 0.22924 0.0
Mg110 Mg 0.98133 -0.0056 0.73743 0.0
O111 O 0.05013 -0.00476 0.76805 0.0
O112 O 0.1026 0.98914 0.73441 0.0
Mg113 Mg 0.06897 0.98429 0.6834 0.0
C114 C 0.09129 -0.00686 0.76261 0.0
C115 C 0.90229 0.01531 0.77347 0.0
O116 O 0.8851 0.00561 0.74431 0.0
O117 O 0.99187 0.06399 0.72141 0.0
O118 O 0.04436 0.05396 0.688 0.0
O119 O 0.97944 0.92184 0.7386 0.0
O120 O 0.00807 0.96025 0.70165 0.0
C121 C 0.01801 0.07845 0.70183 0.0
C122 C 0.99973 0.92293 0.71299 0.0
O123 O 0.9448 0.0154 0.77968 0.0
C124 C 0.28997 0.04924 0.07895 0.0
C125 C 0.33184 0.03532 0.09369 0.0
C126 C 0.25141 0.04812 0.09524 0.0
C127 C 0.25464 0.03214 0.12686 0.0
C128 C 0.29689 0.01886 0.14207 0.0
C129 C 0.33495 0.02094 0.12543 0.0
C130 C 0.20705 0.06304 0.07835 0.0
C131 C 0.30177 0.00138 0.17572 0.0
C132 C 0.16586 0.05134 0.18339 0.0
C133 C 0.14331 0.01148 0.18181 0.0
C134 C 0.20072 0.0595 0.16437 0.0
C135 C 0.21366 0.02681 0.14362 0.0
C136 C 0.18961 0.98734 0.14085 0.0
C137 C 0.15456 0.98029 0.15979 0.0
C138 C 0.22497 0.10234 0.16751 0.0
C139 C 0.20249 0.95152 0.11918 0.0
H140 H 0.28701 0.05999 0.05436 0.0
H141 H 0.36723 0.01104 0.13731 0.0
H142 H 0.18391 0.03507 0.07435 0.0
H143 H 0.19096 0.0867 0.09335 0.0
H144 H 0.2109 0.0782 0.05491 0.0
H145 H 0.33715 -0.0067 0.18438 0.0
H146 H 0.28926 0.02541 0.19222 0.0
H147 H 0.28107 0.97176 0.17682 0.0
H148 H 0.15719 0.07575 0.20017 0.0
H149 H 0.13731 0.94942 0.15829 0.0
H150 H 0.22802 0.11631 0.1436 0.0
H151 H 0.25952 0.0974 0.17934 0.0
H152 H 0.20758 0.12607 0.18173 0.0
H153 H 0.20403 0.96394 0.09465 0.0
H154 H 0.17852 0.92399 0.1181 0.0
H155 H 0.23646 0.93927 0.12789 0.0
C156 C 0.01125 0.32133 0.63236 0.0
C157 C 0.01135 0.31528 0.59941 0.0
C158 C 0.01 0.2858 0.65296 0.0
C159 C 0.00801 0.24344 0.64011 0.0
C160 C 0.00644 0.23736 0.60668 0.0
C161 C 0.00862 0.27339 0.58675 0.0
C162 C 0.0126 0.2935 0.68848 0.0
C163 C 0.00355 0.19271 0.59199 0.0
C164 C 0.0551 0.14519 0.68527 0.0
C165 C 0.01589 0.1243 0.69234 0.0
C166 C 0.05317 0.18566 0.67031 0.0
C167 C 0.01086 0.20511 0.66147 0.0
C168 C 0.97131 0.18532 0.67022 0.0
C169 C 0.97437 0.14519 0.68594 0.0
C170 C 0.09624 0.20624 0.66217 0.0
C171 C 0.92556 0.20483 0.66087 0.0
H172 H 0.01366 0.35384 0.6421 0.0
H173 H 0.00827 0.26887 0.56121 0.0
H174 H 0.98504 0.27619 0.69869 0.0
H175 H 0.04473 0.28038 0.70021 0.0
H176 H 0.01064 0.32842 0.69444 0.0
H177 H 0.99897 0.19378 0.5655 0.0
H178 H 0.03474 0.1744 0.59964 0.0
H179 H 0.97512 0.17452 0.60037 0.0
H180 H 0.08726 0.12908 0.69046 0.0
H181 H 0.944 0.1288 0.69117 0.0
H182 H 0.09733 0.24092 0.66901 0.0
H183 H 0.09778 0.20452 0.63602 0.0
H184 H 0.12645 0.18988 0.67426 0.0
H185 H 0.92551 0.23981 0.66675 0.0
H186 H 0.89892 0.18853 0.67287 0.0
H187 H 0.91707 0.2018 0.63467 0.0
C188 C 0.76617 0.04549 0.11184 0.0
C189 C 0.74122 0.00929 0.10018 0.0
C190 C 0.80499 0.04085 0.13343 0.0
C191 C 0.81961 -0.00104 0.14337 0.0
C192 C 0.7958 0.96221 0.13063 0.0
C193 C 0.75677 0.96781 0.10937 0.0
C194 C 0.82932 0.08088 0.14657 0.0
C195 C 0.8105 0.91698 0.14044 0.0
C196 C 0.93737 0.98674 0.18675 0.0
C197 C 0.92838 0.98559 0.21875 0.0
C198 C 0.90231 0.99053 0.16184 0.0
C199 C 0.85735 -0.00621 0.16915 0.0
C200 C 0.84813 -0.00741 0.20135 0.0
C201 C 0.88364 0.98827 0.22568 0.0
C202 C 0.91334 0.99114 0.12774 0.0
C203 C 0.80069 -0.00359 0.2102 0.0
H204 H 0.75501 0.07763 0.10439 0.0
H205 H 0.73758 0.93961 0.10084 0.0
H206 H 0.82673 0.08334 0.17257 0.0
H207 H 0.86555 0.07875 0.14339 0.0
H208 H 0.8154 0.11092 0.13491 0.0
H209 H 0.79124 0.89184 0.12593 0.0
H210 H 0.84679 0.91258 0.13812 0.0
H211 H 0.8057 0.91179 0.16589 0.0
H212 H 0.97178 0.98455 0.18114 0.0
H213 H 0.87624 0.9877 0.25028 0.0
H214 H 0.90203 0.0221 0.11623 0.0
H215 H 0.89506 0.96476 0.114 0.0
H216 H 0.94989 0.98727 0.12601 0.0
H217 H 0.78563 0.02744 0.20116 0.0
H218 H 0.79923 -0.005 0.2364 0.0
H219 H 0.77962 0.96996 0.19884 0.0
C220 C 0.99394 0.71467 0.60478 0.0
C221 C 0.0359 0.69638 0.60082 0.0
C222 C 0.99032 0.7504 0.62485 0.0
C223 C 0.02951 0.76783 0.64192 0.0
C224 C 0.07186 0.74894 0.63876 0.0
C225 C 0.07461 0.71372 0.61801 0.0
C226 C 0.94458 0.77 0.62729 0.0
C227 C 0.11431 0.76638 0.65689 0.0
C228 C 0.02271 0.88585 0.66493 0.0
C229 C 0.01162 0.88313 0.69636 0.0
C230 C 0.02971 0.84855 0.64726 0.0
C231 C 0.02622 0.80746 0.66151 0.0
C232 C 0.01693 0.80445 0.69368 0.0
C233 C 0.00929 0.84241 0.71068 0.0
C234 C 0.03891 0.85313 0.61287 0.0
C235 C 0.01387 0.76115 0.70982 0.0
H236 H 0.96371 0.70095 0.59228 0.0
H237 H 0.10726 0.70021 0.6149 0.0
H238 H 0.93716 0.77019 0.65251 0.0
H239 H 0.94422 0.80414 0.61913 0.0
H240 H 0.91734 0.7522 0.61277 0.0
H241 H 0.14404 0.74589 0.6538 0.0
H242 H 0.12088 0.79956 0.64854 0.0
H243 H 0.11036 0.76859 0.68271 0.0
H244 H 0.02428 0.9172 0.65361 0.0
H245 H 0.00093 0.84017 0.73501 0.0
H246 H 0.011 0.83841 0.597 0.0
H247 H 0.07009 0.83557 0.60877 0.0
H248 H 0.04246 0.88747 0.60581 0.0
H249 H 0.9844 0.74304 0.69844 0.0
H250 H 0.01047 0.76448 0.73569 0.0
H251 H 0.04417 0.74146 0.70689 0.0
C252 C 0.2866 0.05343 0.90016 0.0
C253 C 0.31137 0.01679 0.91107 0.0
C254 C 0.24825 0.04968 0.87801 0.0
C255 C 0.2341 0.00825 0.86663 0.0
C256 C 0.2578 0.97101 0.87853 0.0
C257 C 0.29623 0.97573 0.90048 0.0
C258 C 0.22392 0.09018 0.86586 0.0
C259 C 0.24369 0.92625 0.86708 0.0
C260 C 0.11757 -0.00409 0.82137 0.0
C261 C 0.12745 -0.00351 0.78956 0.0
C262 C 0.1519 -0.00049 0.8468 0.0
C263 C 0.19706 0.00414 0.84024 0.0
C264 C 0.20719 0.00483 0.80823 0.0
C265 C 0.17238 0.00085 0.78336 0.0
C266 C 0.13992 -0.00171 0.88066 0.0
C267 C 0.25488 0.01 0.8002 0.0
H268 H 0.29754 0.08521 0.90866 0.0
H269 H 0.31535 0.94723 0.90843 0.0
H270 H 0.22742 0.09431 0.8401 0.0
H271 H 0.18751 0.08743 0.86829 0.0
H272 H 0.23718 0.11963 0.87876 0.0
H273 H 0.26291 0.90046 0.88092 0.0
H274 H 0.20735 0.92129 0.86887 0.0
H275 H 0.24906 0.92266 0.84158 0.0
H276 H 0.08303 -0.00753 0.82645 0.0
H277 H 0.1805 0.00157 0.75893 0.0
H278 H 0.15101 0.02859 0.89327 0.0
H279 H 0.15779 0.97117 0.89379 0.0
H280 H 0.10324 -0.00569 0.88177 0.0
H281 H 0.26929 0.04067 0.81045 0.0
H282 H 0.25705 0.01022 0.77405 0.0
H283 H 0.27606 0.98321 0.81093 0.0
C284 C 0.9993 0.3059 0.38443 0.0
C285 C 0.03431 0.312 0.4089 0.0
C286 C 0.99794 0.26899 0.36492 0.0
C287 C 0.03196 0.23722 0.3705 0.0
C288 C 0.06784 0.24371 0.39481 0.0
C289 C 0.06872 0.28122 0.41358 0.0
C290 C 0.95955 0.26346 0.33892 0.0
C291 C 0.10434 0.21025 0.40185 0.0
C292 C 0.00362 0.12029 0.35122 0.0
C293 C 0.02642 0.11278 0.32431 0.0
C294 C 0.00432 0.16092 0.3659 0.0
C295 C 0.0279 0.19529 0.35319 0.0
C296 C 0.04941 0.18865 0.32526 0.0
C297 C 0.04866 0.14732 0.31121 0.0
C298 C 0.98122 0.16656 0.39581 0.0
C299 C 0.07424 0.22485 0.31079 0.0
H300 H 0.97303 0.33007 0.38055 0.0
H301 H 0.09567 0.28589 0.43262 0.0
H302 H 0.97257 0.2554 0.31597 0.0
H303 H 0.93797 0.23615 0.34494 0.0
H304 H 0.93842 0.29301 0.33559 0.0
H305 H 0.13118 0.22135 0.42033 0.0
H306 H 0.08958 0.18001 0.41032 0.0
H307 H 0.11979 0.20219 0.37984 0.0
H308 H 0.98618 0.09399 0.36158 0.0
H309 H 0.06615 0.14193 0.29035 0.0
H310 H 0.9569 0.19371 0.39284 0.0
H311 H 0.00644 0.17479 0.41618 0.0
H312 H 0.96304 0.13694 0.40199 0.0
H313 H 0.05248 0.25391 0.3073 0.0
H314 H 0.08559 0.21556 0.28748 0.0
H315 H 0.10411 0.23409 0.32729 0.0
C316 C 0.73695 -0.00761 0.9071 0.0
C317 C 0.71577 0.03106 0.9145 0.0
C318 C 0.77033 0.99198 0.88616 0.0
C319 C 0.78295 0.0312 0.87227 0.0
C320 C 0.76307 0.07059 0.88066 0.0
C321 C 0.72968 0.07005 0.90166 0.0
C322 C 0.79083 0.94929 0.87795 0.0
C323 C 0.77564 0.11307 0.86639 0.0
C324 C 0.88968 0.02963 0.83058 0.0
C325 C 0.87223 0.0226 0.79873 0.0
C326 C 0.86104 0.03358 0.85479 0.0
C327 C 0.81395 0.03031 0.84692 0.0
C328 C 0.79619 0.0243 0.81472 0.0
C329 C 0.82549 0.0206 0.79108 0.0
C330 C 0.88116 0.04024 0.88884 0.0
C331 C 0.74619 0.02062 0.8053 0.0
H332 H 0.72695 0.96226 0.91739 0.0
H333 H 0.71326 0.10002 0.90707 0.0
H334 H 0.78116 0.94174 0.85239 0.0
H335 H 0.82803 0.95127 0.88157 0.0
H336 H 0.77979 0.9222 0.89254 0.0
H337 H 0.76049 0.14118 0.87772 0.0
H338 H 0.81268 0.11706 0.86893 0.0
H339 H 0.76403 0.11335 0.84049 0.0
H340 H 0.92574 0.0313 0.83671 0.0
H341 H 0.81162 0.01532 0.76655 0.0
H342 H 0.87367 0.01185 0.90345 0.0
H343 H 0.86587 0.06894 0.89924 0.0
H344 H 0.91817 0.04474 0.89076 0.0
H345 H 0.73287 0.99187 0.8169 0.0
H346 H 0.73771 0.01758 0.77908 0.0
H347 H 0.72868 0.04943 0.81367 0.0
C348 C 0.07832 0.72859 0.41492 0.0
C349 C 0.05739 0.68977 0.40447 0.0
C350 C 0.08086 0.76354 0.39399 0.0
C351 C 0.06139 0.75981 0.36196 0.0
C352 C 0.04096 0.72052 0.35107 0.0
C353 C 0.03958 0.68586 0.37236 0.0
C354 C 0.10338 0.80485 0.40638 0.0
C355 C 0.01952 0.71548 0.31716 0.0
C356 C 0.02643 0.8665 0.32284 0.0
C357 C 0.06227 0.87491 0.305 0.0
C358 C 0.02482 0.82823 0.34043 0.0
C359 C 0.06027 0.79792 0.34049 0.0
C360 C 0.09561 0.80535 0.32139 0.0
C361 C 0.09598 0.8437 0.3036 0.0
C362 C 0.98599 0.821 0.35991 0.0
C363 C 0.13418 0.77391 0.32105 0.0
H364 H 0.09177 0.73214 0.4397 0.0
H365 H 0.02427 0.65567 0.36384 0.0
H366 H 0.12915 0.81484 0.39082 0.0
H367 H 0.07817 0.83124 0.40587 0.0
H368 H 0.11971 0.80144 0.4312 0.0
H369 H 0.00652 0.68224 0.31211 0.0
H370 H 0.99123 0.73865 0.31259 0.0
H371 H 0.04413 0.72324 0.30013 0.0
H372 H 0.99986 0.89008 0.32344 0.0
H373 H 0.12386 0.85026 0.28991 0.0
H374 H 0.99831 0.82152 0.38569 0.0
H375 H 0.97076 0.78874 0.35453 0.0
H376 H 0.95947 0.84606 0.35532 0.0
H377 H 0.15384 0.77336 0.34493 0.0
H378 H 0.15707 0.78268 0.30303 0.0
H379 H 0.12142 0.74066 0.31602 0.0
loop_
_geom_bond_atom_site_label_1
_geom_bond_atom_site_label_2
_geom_bond_distance
_geom_bond_site_symmetry_2
_ccdc_geom_bond_type
H0 C19 0.949 . S
H1 C20 0.950 . S
H2 C22 0.950 . S
H3 C23 0.950 . S
H4 C25 0.950 1_565 S
H5 C28 0.950 . S
H6 C29 0.950 . S
H7 C31 0.951 . S
H8 C32 0.949 . S
H9 C34 0.949 . S
H10 C35 0.950 . S
H11 C37 0.950 . S
H12 C38 0.950 . S
H13 C40 0.950 . S
H14 C43 0.950 . S
H15 C44 0.950 . S
H16 C46 0.951 . S
H17 C47 0.949 . S
C18 C19 1.376 1_545 S
C18 C23 1.386 . S
C18 C24 1.483 . S
C19 H0 0.949 . S
C19 C18 1.376 1_565 S
C19 C20 1.397 . S
C20 H1 0.950 . S
C20 C19 1.397 . S
C20 C21 1.391 1_565 S
C21 C20 1.391 1_545 S
C21 C22 1.405 . S
C22 H2 0.950 . S
C22 C21 1.405 . S
C22 C23 1.367 . S
C23 H3 0.950 . S
C23 C18 1.386 . S
C23 C22 1.367 . S
C24 C18 1.483 . S
C24 C25 1.382 . S
C24 C26 1.403 1_554 S
C25 H4 0.950 1_545 S
C25 C24 1.382 . S
C25 C41 1.411 . S
C26 C24 1.403 1_556 S
C26 C27 1.489 . S
C26 C40 1.411 . S
C27 C26 1.489 . S
C27 C28 1.383 1_545 S
C27 C32 1.382 . S
C28 H5 0.950 . S
C28 C27 1.383 1_565 S
C28 C29 1.395 . S
C29 H6 0.950 . S
C29 C28 1.395 . S
C29 C30 1.288 1_565 S
C30 C29 1.288 1_545 S
C30 C31 1.392 . S
C31 H7 0.951 . S
C31 C30 1.392 . S
C31 C32 1.392 . S
C32 H8 0.949 . S
C32 C27 1.382 . S
C32 C31 1.392 . S
C33 C34 1.376 . S
C33 C38 1.386 1_545 S
C33 C39 1.483 . S
C34 H9 0.949 . S
C34 C33 1.376 . S
C34 C35 1.397 . S
C35 H10 0.950 . S
C35 C34 1.397 . S
C35 C36 1.391 . S
C36 C35 1.391 . S
C36 C37 1.405 1_545 S
C37 H11 0.950 . S
C37 C36 1.405 1_565 S
C37 C38 1.367 . S
C38 H12 0.950 . S
C38 C33 1.386 1_565 S
C38 C37 1.367 . S
C39 C33 1.483 . S
C39 C40 1.382 . S
C39 C41 1.403 1_556 S
C40 H13 0.950 . S
C40 C26 1.411 . S
C40 C39 1.382 . S
C41 C25 1.411 . S
C41 C39 1.403 1_554 S
C41 C42 1.489 . S
C42 C41 1.489 . S
C42 C43 1.383 . S
C42 C47 1.382 1_545 S
C43 H14 0.950 . S
C43 C42 1.383 . S
C43 C44 1.395 . S
C44 H15 0.950 . S
C44 C43 1.395 . S
C44 C45 1.288 . S
C45 C44 1.288 . S
C45 C46 1.392 1_545 S
C46 H16 0.951 . S
C46 C45 1.392 1_565 S
C46 C47 1.392 . S
C47 H17 0.949 . S
C47 C42 1.382 1_565 S
C47 C46 1.392 . S
H48 C67 0.949 . S
H49 C68 0.950 . S
H50 C70 0.950 . S
H51 C71 0.950 . S
H52 C73 0.950 . S
H53 C76 0.950 . S
H54 C77 0.950 . S
H55 C79 0.951 . S
H56 C80 0.949 . S
H57 C82 0.949 . S
H58 C83 0.950 . S
H59 C85 0.950 . S
H60 C86 0.950 . S
H61 C88 0.950 . S
H62 C91 0.950 1_655 S
H63 C92 0.950 1_655 S
H64 C94 0.951 . S
H65 C95 0.949 . S
C66 C67 1.376 . S
C66 C71 1.386 1_455 S
C66 C72 1.483 . S
C67 H48 0.949 . S
C67 C66 1.376 . S
C67 C68 1.397 . S
C68 H49 0.950 . S
C68 C67 1.397 . S
C68 C69 1.391 . S
C69 C68 1.391 . S
C69 C70 1.405 1_455 S
C70 H50 0.950 . S
C70 C69 1.405 1_655 S
C70 C71 1.367 . S
C71 H51 0.950 . S
C71 C66 1.386 1_655 S
C71 C70 1.367 . S
C72 C66 1.483 . S
C72 C73 1.382 . S
C72 C74 1.403 . S
C73 H52 0.950 . S
C73 C72 1.382 . S
C73 C89 1.411 . S
C74 C72 1.403 . S
C74 C75 1.489 . S
C74 C88 1.411 . S
C75 C74 1.489 . S
C75 C76 1.383 . S
C75 C80 1.382 1_455 S
C76 H53 0.950 . S
C76 C75 1.383 . S
C76 C77 1.395 . S
C77 H54 0.950 . S
C77 C76 1.395 . S
C77 C78 1.288 . S
C78 C77 1.288 . S
C78 C79 1.392 1_455 S
C79 H55 0.951 . S
C79 C78 1.392 1_655 S
C79 C80 1.392 . S
C80 H56 0.949 . S
C80 C75 1.382 1_655 S
C80 C79 1.392 . S
C81 C82 1.376 1_455 S
C81 C86 1.386 . S
C81 C87 1.483 . S
C82 H57 0.949 . S
C82 C81 1.376 1_655 S
C82 C83 1.397 . S
C83 H58 0.950 . S
C83 C82 1.397 . S
C83 C84 1.391 1_655 S
C84 C83 1.391 1_455 S
C84 C85 1.405 . S
C85 H59 0.950 . S
C85 C84 1.405 . S
C85 C86 1.367 . S
C86 H60 0.950 . S
C86 C81 1.386 . S
C86 C85 1.367 . S
C87 C81 1.483 . S
C87 C88 1.382 . S
C87 C89 1.403 . S
C88 H61 0.950 . S
C88 C74 1.411 . S
C88 C87 1.382 . S
C89 C73 1.411 . S
C89 C87 1.403 . S
C89 C90 1.489 . S
C90 C89 1.489 . S
C90 C91 1.383 . S
C90 C95 1.382 . S
C91 H62 0.950 1_455 S
C91 C90 1.383 . S
C91 C92 1.395 . S
C92 H63 0.950 1_455 S
C92 C91 1.395 . S
C92 C93 1.288 . S
C93 C92 1.288 . S
C93 C94 1.392 . S
C94 H64 0.951 . S
C94 C93 1.392 . S
C94 C95 1.392 . S
C95 H65 0.949 . S
C95 C90 1.382 . S
C95 C94 1.392 . S
Mg96 O97 2.028 . S
Mg96 O103 1.986 . S
Mg96 O105 2.114 1_545 S
Mg96 O106 2.251 1_545 S
Mg96 O109 2.010 . S
O97 Mg96 2.028 . S
O97 C100 1.250 1_455 S
O98 Mg99 2.028 . S
O98 C100 1.248 . S
Mg99 O98 2.028 . S
Mg99 O104 2.032 1_655 S
Mg99 O106 2.079 1_645 S
C100 O97 1.250 1_655 S
C100 O98 1.248 . S
C101 O102 1.264 . S
C101 O109 1.249 . S
O102 C101 1.264 . S
O103 Mg96 1.986 . S
O103 C107 1.246 . S
O104 Mg99 2.032 1_455 S
O104 C107 1.259 . S
O105 Mg96 2.114 1_565 S
O105 C108 1.252 . S
O106 Mg96 2.251 1_565 S
O106 Mg99 2.079 1_465 S
O106 C108 1.273 . S
C107 O103 1.246 . S
C107 O104 1.259 . S
C108 O105 1.252 . S
C108 O106 1.273 . S
O109 Mg96 2.010 . S
O109 C101 1.249 . S
Mg110 O111 2.028 1_655 S
Mg110 O117 1.986 . S
Mg110 O119 2.114 1_545 S
Mg110 O120 2.251 1_645 S
Mg110 O123 2.010 . S
O111 Mg110 2.028 1_455 S
O111 C114 1.250 . S
O112 Mg113 2.028 . S
O112 C114 1.248 . S
Mg113 O112 2.028 . S
Mg113 O118 2.032 . S
Mg113 O120 2.079 1_545 S
C114 O111 1.250 . S
C114 O112 1.248 . S
C115 O116 1.264 . S
C115 O123 1.249 . S
O116 C115 1.264 . S
O117 Mg110 1.986 . S
O117 C121 1.246 1_655 S
O118 Mg113 2.032 . S
O118 C121 1.259 . S
O119 Mg110 2.114 1_565 S
O119 C122 1.252 1_655 S
O120 Mg110 2.251 1_465 S
O120 Mg113 2.079 1_565 S
O120 C122 1.273 . S
C121 O117 1.246 1_455 S
C121 O118 1.259 . S
C122 O119 1.252 1_455 S
C122 O120 1.273 . S
O123 Mg110 2.010 . S
O123 C115 1.249 . S
C124 C125 1.393 . S
C124 C126 1.393 1_545 S
C124 H140 0.929 1_545 S
C125 C124 1.393 . S
C125 C129 1.376 . S
C126 C124 1.393 1_565 S
C126 C127 1.369 1_565 S
C126 C130 1.531 . S
C127 C126 1.369 1_545 S
C127 C128 1.410 . S
C127 C135 1.503 . S
C128 C127 1.410 . S
C128 C129 1.392 . S
C128 C131 1.511 . S
C129 C125 1.376 . S
C129 C128 1.392 . S
C129 H141 0.929 . S
C130 C126 1.531 . S
C130 H142 0.960 . S
C130 H143 0.962 1_565 S
C130 H144 0.960 . S
C131 C128 1.511 . S
C131 H145 0.961 . S
C131 H146 0.961 . S
C131 H147 0.961 1_545 S
C132 C133 1.370 . S
C132 C134 1.363 . S
C132 H148 0.931 . S
C133 C132 1.370 . S
C133 C137 1.408 1_545 S
C134 C132 1.363 . S
C134 C135 1.370 . S
C134 C138 1.524 . S
C135 C127 1.503 . S
C135 C134 1.370 . S
C135 C136 1.403 1_545 S
C136 C135 1.403 1_565 S
C136 C137 1.404 . S
C136 C139 1.539 . S
C137 C133 1.408 1_565 S
C137 C136 1.404 . S
C137 H149 0.930 . S
C138 C134 1.524 . S
C138 H150 0.956 . S
C138 H151 0.961 . S
C138 H152 0.961 . S
C139 C136 1.539 . S
C139 H153 0.958 . S
C139 H154 0.961 . S
C139 H155 0.960 . S
H140 C124 0.929 1_565 S
H141 C129 0.929 . S
H142 C130 0.960 . S
H143 C130 0.962 1_545 S
H144 C130 0.960 . S
H145 C131 0.961 . S
H146 C131 0.961 . S
H147 C131 0.961 1_565 S
H148 C132 0.931 . S
H149 C137 0.930 . S
H150 C138 0.956 . S
H151 C138 0.961 . S
H152 C138 0.961 . S
H153 C139 0.958 . S
H154 C139 0.961 . S
H155 C139 0.960 . S
C156 C157 1.391 . S
C156 C158 1.394 . S
C156 H172 0.931 . S
C157 C156 1.391 . S
C157 C161 1.376 . S
C158 C156 1.394 . S
C158 C159 1.369 . S
C158 C162 1.531 . S
C159 C158 1.369 . S
C159 C160 1.409 1_455 S
C159 C167 1.503 . S
C160 C159 1.409 1_655 S
C160 C161 1.391 1_655 S
C160 C163 1.513 . S
C161 C157 1.376 . S
C161 C160 1.391 1_455 S
C161 H173 0.929 . S
C162 C158 1.531 . S
C162 H174 0.960 . S
C162 H175 0.962 . S
C162 H176 0.960 . S
C163 C160 1.513 . S
C163 H177 0.961 . S
C163 H178 0.961 1_655 S
C163 H179 0.961 . S
C164 C165 1.370 . S
C164 C166 1.363 . S
C164 H180 0.931 . S
C165 C164 1.370 . S
C165 C169 1.408 1_455 S
C166 C164 1.363 . S
C166 C167 1.370 . S
C166 C170 1.524 . S
C167 C159 1.503 . S
C167 C166 1.370 . S
C167 C168 1.403 1_455 S
C168 C167 1.403 1_655 S
C168 C169 1.404 . S
C168 C171 1.539 . S
C169 C165 1.408 1_655 S
C169 C168 1.404 . S
C169 H181 0.930 . S
C170 C166 1.524 . S
C170 H182 0.956 . S
C170 H183 0.961 . S
C170 H184 0.961 . S
C171 C168 1.539 . S
C171 H185 0.958 . S
C171 H186 0.961 . S
C171 H187 0.960 . S
H172 C156 0.931 . S
H173 C161 0.929 . S
H174 C162 0.960 . S
H175 C162 0.962 . S
H176 C162 0.960 . S
H177 C163 0.961 . S
H178 C163 0.961 1_455 S
H179 C163 0.961 . S
H180 C164 0.931 . S
H181 C169 0.930 . S
H182 C170 0.956 . S
H183 C170 0.961 . S
H184 C170 0.961 . S
H185 C171 0.958 . S
H186 C171 0.961 . S
H187 C171 0.960 . S
C188 C189 1.391 . S
C188 C190 1.394 . S
C188 H204 0.931 . S
C189 C188 1.391 . S
C189 C193 1.372 1_545 S
C190 C188 1.394 . S
C190 C191 1.369 . S
C190 C194 1.531 . S
C191 C190 1.369 . S
C191 C192 1.410 . S
C191 C199 1.503 . S
C192 C191 1.410 . S
C192 C193 1.391 1_545 S
C192 C195 1.511 1_545 S
C193 C189 1.372 1_565 S
C193 C192 1.391 1_565 S
C193 H205 0.935 . S
C194 C190 1.531 . S
C194 H206 0.960 . S
C194 H207 0.962 . S
C194 H208 0.960 . S
C195 C192 1.511 1_565 S
C195 H209 0.961 . S
C195 H210 0.961 . S
C195 H211 0.961 1_565 S
C196 C197 1.370 1_565 S
C196 C198 1.363 . S
C196 H212 0.931 . S
C197 C196 1.370 1_545 S
C197 C201 1.408 . S
C198 C196 1.363 . S
C198 C199 1.370 1_565 S
C198 C202 1.524 . S
C199 C191 1.503 . S
C199 C198 1.370 1_545 S
C199 C200 1.403 . S
C200 C199 1.403 . S
C200 C201 1.404 . S
C200 C203 1.539 . S
C201 C197 1.408 . S
C201 C200 1.404 . S
C201 H213 0.930 . S
C202 C198 1.524 . S
C202 H214 0.956 . S
C202 H215 0.961 . S
C202 H216 0.961 . S
C203 C200 1.539 . S
C203 H217 0.958 . S
C203 H218 0.961 . S
C203 H219 0.960 . S
H204 C188 0.931 . S
H205 C193 0.935 . S
H206 C194 0.960 . S
H207 C194 0.962 . S
H208 C194 0.960 . S
H209 C195 0.961 . S
H210 C195 0.961 . S
H211 C195 0.961 1_545 S
H212 C196 0.931 . S
H213 C201 0.930 . S
H214 C202 0.956 . S
H215 C202 0.961 . S
H216 C202 0.961 . S
H217 C203 0.958 . S
H218 C203 0.961 . S
H219 C203 0.960 . S
C220 C221 1.391 1_655 S
C220 C222 1.393 . S
C220 H236 0.931 . S
C221 C220 1.391 1_455 S
C221 C225 1.376 . S
C222 C220 1.393 . S
C222 C223 1.359 1_655 S
C222 C226 1.542 . S
C223 C222 1.359 1_455 S
C223 C224 1.410 . S
C223 C231 1.503 . S
C224 C223 1.410 . S
C224 C225 1.392 . S
C224 C227 1.511 . S
C225 C221 1.376 . S
C225 C224 1.392 . S
C225 H237 0.929 . S
C226 C222 1.542 . S
C226 H238 0.960 . S
C226 H239 0.962 . S
C226 H240 0.960 . S
C227 C224 1.511 . S
C227 H241 0.961 . S
C227 H242 0.961 . S
C227 H243 0.961 . S
C228 C229 1.370 1_655 S
C228 C230 1.363 . S
C228 H244 0.931 . S
C229 C228 1.370 1_455 S
C229 C233 1.408 . S
C230 C228 1.363 . S
C230 C231 1.370 1_655 S
C230 C234 1.524 . S
C231 C223 1.503 . S
C231 C230 1.370 1_455 S
C231 C232 1.403 . S
C232 C231 1.403 . S
C232 C233 1.404 . S
C232 C235 1.539 . S
C233 C229 1.408 . S
C233 C232 1.404 . S
C233 H245 0.930 . S
C234 C230 1.524 . S
C234 H246 0.956 . S
C234 H247 0.961 . S
C234 H248 0.961 . S
C235 C232 1.539 . S
C235 H249 0.958 . S
C235 H250 0.961 . S
C235 H251 0.960 . S
H236 C220 0.931 . S
H237 C225 0.929 . S
H238 C226 0.960 . S
H239 C226 0.962 . S
H240 C226 0.960 . S
H241 C227 0.961 . S
H242 C227 0.961 . S
H243 C227 0.961 . S
H244 C228 0.931 . S
H245 C233 0.930 . S
H246 C234 0.956 . S
H247 C234 0.961 . S
H248 C234 0.961 . S
H249 C235 0.958 . S
H250 C235 0.961 . S
H251 C235 0.960 . S
C252 C253 1.391 . S
C252 C254 1.394 . S
C252 H268 0.931 . S
C253 C252 1.391 . S
C253 C257 1.376 1_545 S
C254 C252 1.394 . S
C254 C255 1.369 . S
C254 C258 1.531 . S
C255 C254 1.369 . S
C255 C256 1.410 1_545 S
C255 C263 1.503 . S
C256 C255 1.410 1_565 S
C256 C257 1.392 . S
C256 C259 1.511 . S
C257 C253 1.376 1_565 S
C257 C256 1.392 . S
C257 H269 0.929 . S
C258 C254 1.531 . S
C258 H270 0.960 . S
C258 H271 0.962 . S
C258 H272 0.960 . S
C259 C256 1.511 . S
C259 H273 0.961 . S
C259 H274 0.961 . S
C259 H275 0.961 . S
C260 C261 1.370 . S
C260 C262 1.363 . S
C260 H276 0.931 . S
C261 C260 1.370 . S
C261 C265 1.408 . S
C262 C260 1.363 . S
C262 C263 1.370 . S
C262 C266 1.524 . S
C263 C255 1.503 . S
C263 C262 1.370 . S
C263 C264 1.403 . S
C264 C263 1.403 . S
C264 C265 1.404 . S
C264 C267 1.539 . S
C265 C261 1.408 . S
C265 C264 1.404 . S
C265 H277 0.930 . S
C266 C262 1.524 . S
C266 H278 0.956 . S
C266 H279 0.961 1_545 S
C266 H280 0.961 . S
C267 C264 1.539 . S
C267 H281 0.958 . S
C267 H282 0.961 1_545 S
C267 H283 0.960 1_545 S
H268 C252 0.931 . S
H269 C257 0.929 . S
H270 C258 0.960 . S
H271 C258 0.962 . S
H272 C258 0.960 . S
H273 C259 0.961 . S
H274 C259 0.961 . S
H275 C259 0.961 . S
H276 C260 0.931 . S
H277 C265 0.930 . S
H278 C266 0.956 . S
H279 C266 0.961 1_565 S
H280 C266 0.961 . S
H281 C267 0.958 . S
H282 C267 0.961 1_565 S
H283 C267 0.960 1_565 S
C284 C285 1.391 . S
C284 C286 1.394 . S
C284 H300 0.931 1_455 S
C285 C284 1.391 . S
C285 C289 1.376 . S
C286 C284 1.394 . S
C286 C287 1.369 . S
C286 C290 1.531 1_455 S
C287 C286 1.369 . S
C287 C288 1.410 . S
C287 C295 1.503 . S
C288 C287 1.410 . S
C288 C289 1.392 . S
C288 C291 1.511 . S
C289 C285 1.376 . S
C289 C288 1.392 . S
C289 H301 0.929 . S
C290 C286 1.531 1_655 S
C290 H302 0.960 . S
C290 H303 0.962 . S
C290 H304 0.960 . S
C291 C288 1.511 . S
C291 H305 0.961 . S
C291 H306 0.961 . S
C291 H307 0.961 . S
C292 C293 1.370 . S
C292 C294 1.363 . S
C292 H308 0.931 . S
C293 C292 1.370 . S
C293 C297 1.408 . S
C294 C292 1.363 . S
C294 C295 1.370 . S
C294 C298 1.524 . S
C295 C287 1.503 . S
C295 C294 1.370 . S
C295 C296 1.403 . S
C296 C295 1.403 . S
C296 C297 1.404 . S
C296 C299 1.539 . S
C297 C293 1.408 . S
C297 C296 1.404 . S
C297 H309 0.930 . S
C298 C294 1.524 . S
C298 H310 0.956 1_455 S
C298 H311 0.961 . S
C298 H312 0.961 . S
C299 C296 1.539 . S
C299 H313 0.958 . S
C299 H314 0.961 . S
C299 H315 0.960 . S
H300 C284 0.931 1_655 S
H301 C289 0.929 . S
H302 C290 0.960 . S
H303 C290 0.962 . S
H304 C290 0.960 . S
H305 C291 0.961 . S
H306 C291 0.961 . S
H307 C291 0.961 . S
H308 C292 0.931 . S
H309 C297 0.930 . S
H310 C298 0.956 1_655 S
H311 C298 0.961 . S
H312 C298 0.961 . S
H313 C299 0.958 . S
H314 C299 0.961 . S
H315 C299 0.960 . S
C316 C317 1.391 1_565 S
C316 C318 1.394 . S
C316 H332 0.931 . S
C317 C316 1.391 1_545 S
C317 C321 1.376 . S
C318 C316 1.394 . S
C318 C319 1.369 1_565 S
C318 C322 1.531 . S
C319 C318 1.369 1_545 S
C319 C320 1.410 . S
C319 C327 1.503 . S
C320 C319 1.410 . S
C320 C321 1.392 . S
C320 C323 1.511 . S
C321 C317 1.376 . S
C321 C320 1.392 . S
C321 H333 0.929 . S
C322 C318 1.531 . S
C322 H334 0.960 . S
C322 H335 0.962 . S
C322 H336 0.960 . S
C323 C320 1.511 . S
C323 H337 0.961 . S
C323 H338 0.961 . S
C323 H339 0.961 . S
C324 C325 1.370 . S
C324 C326 1.363 . S
C324 H340 0.931 . S
C325 C324 1.370 . S
C325 C329 1.408 1_545 S
C326 C324 1.363 . S
C326 C327 1.370 . S
C326 C330 1.524 . S
C327 C319 1.503 . S
C327 C326 1.370 . S
C327 C328 1.403 1_545 S
C328 C327 1.403 1_565 S
C328 C329 1.404 . S
C328 C331 1.539 . S
C329 C325 1.408 1_565 S
C329 C328 1.404 . S
C329 H341 0.930 . S
C330 C326 1.524 . S
C330 H342 0.956 . S
C330 H343 0.961 . S
C330 H344 0.961 . S
C331 C328 1.539 . S
C331 H345 0.958 . S
C331 H346 0.961 . S
C331 H347 0.960 . S
H332 C316 0.931 . S
H333 C321 0.929 . S
H334 C322 0.960 . S
H335 C322 0.962 . S
H336 C322 0.960 . S
H337 C323 0.961 . S
H338 C323 0.961 . S
H339 C323 0.961 . S
H340 C324 0.931 . S
H341 C329 0.930 . S
H342 C330 0.956 . S
H343 C330 0.961 . S
H344 C330 0.961 . S
H345 C331 0.958 . S
H346 C331 0.961 . S
H347 C331 0.960 . S
C348 C349 1.391 . S
C348 C350 1.394 . S
C348 H364 0.931 . S
C349 C348 1.391 . S
C349 C353 1.376 1_455 S
C350 C348 1.394 . S
C350 C351 1.369 . S
C350 C354 1.531 . S
C351 C350 1.369 . S
C351 C352 1.410 1_455 S
C351 C359 1.503 . S
C352 C351 1.410 1_655 S
C352 C353 1.392 . S
C352 C355 1.511 . S
C353 C349 1.376 1_655 S
C353 C352 1.392 . S
C353 H365 0.929 . S
C354 C350 1.531 . S
C354 H366 0.960 . S
C354 H367 0.962 . S
C354 H368 0.960 . S
C355 C352 1.511 . S
C355 H369 0.961 . S
C355 H370 0.961 . S
C355 H371 0.961 . S
C356 C357 1.370 . S
C356 C358 1.363 . S
C356 H372 0.931 . S
C357 C356 1.370 . S
C357 C361 1.408 . S
C358 C356 1.363 . S
C358 C359 1.370 . S
C358 C362 1.524 . S
C359 C351 1.503 . S
C359 C358 1.370 . S
C359 C360 1.403 . S
C360 C359 1.403 . S
C360 C361 1.404 . S
C360 C363 1.539 1_455 S
C361 C357 1.408 . S
C361 C360 1.404 . S
C361 H373 0.930 . S
C362 C358 1.524 . S
C362 H374 0.956 . S
C362 H375 0.961 . S
C362 H376 0.961 . S
C363 C360 1.539 1_655 S
C363 H377 0.958 1_655 S
C363 H378 0.961 . S
C363 H379 0.960 . S
H364 C348 0.931 . S
H365 C353 0.929 . S
H366 C354 0.960 . S
H367 C354 0.962 . S
H368 C354 0.960 . S
H369 C355 0.961 . S
H370 C355 0.961 . S
H371 C355 0.961 . S
H372 C356 0.931 . S
H373 C361 0.930 . S
H374 C362 0.956 . S
H375 C362 0.961 . S
H376 C362 0.961 . S
H377 C363 0.958 1_455 S
H378 C363 0.961 . S
H379 C363 0.960 . S
C133 C101 1.265 . S
C125 C45 1.513 . S
C165 C121 1.499 . S
C157 C78 1.498 . S
C197 C100 1.470 . S
C189 C21 1.519 . S
C229 C122 1.525 . S
C221 C84 1.524 . S
C261 C114 1.464 . S
C253 C36 1.518 . S
C293 C107 1.500 . S
C285 C69 1.514 . S
C325 C115 1.254 . S
C317 C30 1.524 . S
C349 C93 1.517 . S
C357 C108 1.525 . S
