# Generated by pormake.
# Topology pyr, (3,6)-cn, num edge types: 1
# Building blocks:
#     Node 0, Type 0, BuildingBlock: VETTIZ_charged_linker_0, # of connection points: 3
#     Node 1, Type 0, BuildingBlock: VETTIZ_charged_linker_0, # of connection points: 3
#     Node 2, Type 0, BuildingBlock: VETTIZ_charged_linker_0, # of connection points: 3
#     Node 3, Type 0, BuildingBlock: VETTIZ_charged_linker_0, # of connection points: 3
#     Node 4, Type 0, BuildingBlock: VETTIZ_charged_linker_0, # of connection points: 3
#     Node 5, Type 0, BuildingBlock: VETTIZ_charged_linker_0, # of connection points: 3
#     Node 6, Type 0, BuildingBlock: VETTIZ_charged_linker_0, # of connection points: 3
#     Node 7, Type 0, BuildingBlock: VETTIZ_charged_linker_0, # of connection points: 3
#     Node 8, Type 1, BuildingBlock: BETGAK_clean_sbu_0, # of connection points: 6
#     Node 9, Type 1, BuildingBlock: BETGAK_clean_sbu_0, # of connection points: 6
#     Node 10, Type 1, BuildingBlock: BETGAK_clean_sbu_0, # of connection points: 6
#     Node 11, Type 1, BuildingBlock: BETGAK_clean_sbu_0, # of connection points: 6
#     Edge 12, Type (0, 1), None
#     Edge 13, Type (0, 1), None
#     Edge 14, Type (0, 1), None
#     Edge 15, Type (0, 1), None
#     Edge 16, Type (0, 1), None
#     Edge 17, Type (0, 1), None
#     Edge 18, Type (0, 1), None
#     Edge 19, Type (0, 1), None
#     Edge 20, Type (0, 1), None
#     Edge 21, Type (0, 1), None
#     Edge 22, Type (0, 1), None
#     Edge 23, Type (0, 1), None
#     Edge 24, Type (0, 1), None
#     Edge 25, Type (0, 1), None
#     Edge 26, Type (0, 1), None
#     Edge 27, Type (0, 1), None
#     Edge 28, Type (0, 1), None
#     Edge 29, Type (0, 1), None
#     Edge 30, Type (0, 1), None
#     Edge 31, Type (0, 1), None
#     Edge 32, Type (0, 1), None
#     Edge 33, Type (0, 1), None
#     Edge 34, Type (0, 1), None
#     Edge 35, Type (0, 1), None
# Relax obj value: 0.235
# Max RMSD: 0.159
# Mean RMSD: 0.078
data_MOF--net-pyr--node1-BETGAK_clean_sbu_0--node2-VETTIZ_charged_linker_0--edge1-none
_symmetry_space_group_name_H-M    P1
_symmetry_Int_Tables_number       1
_symmetry_cell_setting            triclinic
loop_
_symmetry_equiv_pos_as_xyz
'x, y, z'
_cell_length_a     25.101969
_cell_length_b     26.115147
_cell_length_c     24.100292
_cell_angle_alpha  89.81685
_cell_angle_beta   87.902173
_cell_angle_gamma 102.9393
loop_
_atom_site_label
_atom_site_type_symbol
_atom_site_fract_x
_atom_site_fract_y
_atom_site_fract_z
_atom_type_partial_charge
C0 C 0.41193 0.27547 0.48613 0.0
C1 C 0.37207 0.29443 0.51754 0.0
C2 C 0.37319 0.34865 0.51467 0.0
C3 C 0.43035 0.35511 0.43142 0.0
C4 C 0.44045 0.30644 0.44228 0.0
C5 C 0.47235 0.28812 0.39507 0.0
H6 H 0.4762 0.23435 0.13904 0.0
C7 C 0.44264 0.36729 0.37212 0.0
C8 C 0.47257 0.33127 0.3517 0.0
H9 H 0.59371 0.20686 0.25586 0.0
H10 H 0.57341 0.2783 0.31417 0.0
H11 H 0.51573 0.36015 0.14739 0.0
H12 H 0.37782 0.25215 0.22496 0.0
H13 H 0.35684 0.30411 0.19099 0.0
H14 H 0.38995 0.26197 0.15127 0.0
H15 H 0.45219 0.34105 0.11323 0.0
H16 H 0.46503 0.39596 0.1602 0.0
C17 C 0.53009 0.28658 0.41451 0.0
C18 C 0.44098 0.2335 0.37544 0.0
C19 C 0.29656 0.44099 0.27961 0.0
C20 C 0.27731 0.43692 0.22544 0.0
C21 C 0.30862 0.41888 0.18311 0.0
C22 C 0.35608 0.40175 0.19544 0.0
C23 C 0.37165 0.40125 0.25082 0.0
C24 C 0.34316 0.42228 0.29155 0.0
C25 C 0.36587 0.4192 0.34807 0.0
C26 C 0.41199 0.39085 0.33472 0.0
C27 C 0.41449 0.38011 0.27752 0.0
C28 C 0.38878 0.47589 0.36768 0.0
C29 C 0.3196 0.3874 0.38767 0.0
C30 C 0.49686 0.24286 0.17775 0.0
C31 C 0.5342 0.21346 0.19477 0.0
C32 C 0.56317 0.2276 0.24341 0.0
C33 C 0.55039 0.26698 0.27775 0.0
C34 C 0.50778 0.29061 0.2634 0.0
C35 C 0.48521 0.28222 0.21228 0.0
C36 C 0.44674 0.3178 0.2019 0.0
C37 C 0.44802 0.34646 0.25719 0.0
C38 C 0.48118 0.32708 0.29376 0.0
C39 C 0.47071 0.35561 0.15298 0.0
C40 C 0.38971 0.2825 0.19155 0.0
H41 H 0.40095 0.41997 0.46792 0.0
H42 H 0.41437 0.23481 0.48954 0.0
H43 H 0.39874 0.2348 0.36412 0.0
H44 H 0.46154 0.21962 0.33904 0.0
H45 H 0.43857 0.20306 0.40824 0.0
H46 H 0.53145 0.28478 0.46054 0.0
H47 H 0.54321 0.25107 0.39933 0.0
H48 H 0.56102 0.32179 0.39991 0.0
H49 H 0.27447 0.45653 0.31256 0.0
H50 H 0.29514 0.41581 0.14083 0.0
H51 H 0.37753 0.38732 0.16183 0.0
H52 H 0.41308 0.50028 0.33361 0.0
H53 H 0.355 0.49482 0.38102 0.0
H54 H 0.41672 0.47726 0.40228 0.0
H55 H 0.27797 0.38446 0.37209 0.0
H56 H 0.32359 0.34621 0.39326 0.0
H57 H 0.31854 0.40622 0.42872 0.0
H58 H 0.34564 0.36534 0.54092 0.0
C59 C 0.40352 0.37964 0.47176 0.0
C60 C 0.08884 0.9358 0.66738 0.0
C61 C 0.06416 0.9776 0.68108 0.0
C62 C 0.04624 0.98272 0.73634 0.0
C63 C 0.08685 0.91072 0.7643 0.0
C64 C 0.10079 0.90375 0.7094 0.0
C65 C 0.13547 0.86407 0.70209 0.0
H66 H 0.31394 0.74298 0.81554 0.0
C67 C 0.11247 0.87606 0.79832 0.0
C68 C 0.14063 0.84837 0.76197 0.0
H69 H 0.28931 0.76812 0.64195 0.0
H70 H 0.20613 0.79597 0.666 0.0
H71 H 0.29461 0.85139 0.85088 0.0
H72 H 0.18832 0.69783 0.85554 0.0
H73 H 0.1649 0.73107 0.91136 0.0
H74 H 0.23352 0.71997 0.91074 0.0
H75 H 0.3034 0.79804 0.89421 0.0
H76 H 0.26242 0.84205 0.91686 0.0
C77 C 0.19141 0.89193 0.67389 0.0
C78 C 0.10304 0.81742 0.66898 0.0
C79 C 0.14721 0.91881 0.99839 0.0
C80 C 0.18943 0.90655 1.02913 0.0
C81 C 0.20013 0.85603 1.02346 0.0
C82 C 0.18015 0.82497 0.97827 0.0
C83 C 0.15206 0.84632 0.93807 0.0
C84 C 0.13096 0.88952 0.95084 0.0
C85 C 0.10432 0.90806 0.90186 0.0
C86 C 0.11819 0.8723 0.85653 0.0
C87 C 0.14795 0.83744 0.87782 0.0
C88 C 0.13192 0.96678 0.89011 0.0
C89 C 0.042 0.89735 0.91486 0.0
C90 C 0.29043 0.75432 0.7827 0.0
C91 C 0.30909 0.7548 0.72699 0.0
C92 C 0.27631 0.76792 0.68531 0.0
C93 C 0.22829 0.78466 0.69936 0.0
C94 C 0.21355 0.7895 0.75561 0.0
C95 C 0.24309 0.77232 0.79613 0.0
C96 C 0.22388 0.78356 0.85367 0.0
C97 C 0.17825 0.81126 0.84093 0.0
C98 C 0.17334 0.81553 0.78336 0.0
C99 C 0.27321 0.82041 0.88088 0.0
C100 C 0.2018 0.73059 0.88487 0.0
H101 H 0.04317 0.95498 0.81967 0.0
H102 H 0.10262 0.93039 0.62512 0.0
H103 H 0.05951 0.80683 0.68411 0.0
H104 H 0.11862 0.78135 0.67385 0.0
H105 H 0.10378 0.82757 0.62411 0.0
H106 H 0.19819 0.9355 0.67471 0.0
H107 H 0.19432 0.88067 0.62967 0.0
H108 H 0.22678 0.88374 0.69551 0.0
H109 H 0.13555 0.95593 1.00457 0.0
H110 H 0.23029 0.84378 1.04825 0.0
H111 H 0.19412 0.78943 0.97215 0.0
H112 H 0.17682 0.97389 0.89523 0.0
H113 H 0.11532 0.99292 0.91899 0.0
H114 H 0.12806 0.98012 0.84753 0.0
H115 H 1.01795 0.89102 0.87697 0.0
H116 H 1.03108 0.92996 0.93896 0.0
H117 H 1.02776 0.86056 0.93981 0.0
H118 H 1.02624 1.0141 0.74761 0.0
C119 C 0.05638 0.94856 0.77795 0.0
C120 C 0.62921 0.24434 1.00372 0.0
C121 C 0.57796 0.21295 0.99099 0.0
C122 C 0.54902 0.23228 0.94902 0.0
C123 C 0.62095 0.313 0.93568 0.0
C124 C 0.6491 0.29376 0.97661 0.0
C125 C 0.69945 0.33353 0.99135 0.0
H126 H 0.86923 0.57374 0.97911 0.0
C127 C 0.6517 0.36856 0.91979 0.0
C128 C 0.69664 0.38036 0.95471 0.0
H129 H 0.87573 0.4388 1.08126 0.0
H130 H 0.79632 0.38915 1.03977 0.0
H131 H 0.7244 0.55328 0.98619 0.0
H132 H 0.83502 0.50634 0.86376 0.0
H133 H 0.78606 0.53512 0.83265 0.0
H134 H 0.8362 0.57457 0.87555 0.0
H135 H 0.77903 0.60036 0.95223 0.0
H136 H 0.71628 0.57511 0.91789 0.0
C137 C 0.69448 0.34548 1.05433 0.0
C138 C 0.74949 0.31106 0.97354 0.0
C139 C 0.59697 0.47564 0.75631 0.0
C140 C 0.61564 0.52832 0.73601 0.0
C141 C 0.65848 0.56055 0.76501 0.0
C142 C 0.68304 0.54138 0.81057 0.0
C143 C 0.66465 0.48894 0.82973 0.0
C144 C 0.62115 0.45724 0.80345 0.0
C145 C 0.60278 0.4045 0.83402 0.0
C146 C 0.6449 0.40785 0.87943 0.0
C147 C 0.68167 0.45808 0.87686 0.0
C148 C 0.54479 0.40129 0.85945 0.0
C149 C 0.60533 0.35975 0.79324 0.0
C150 C 0.85285 0.53364 0.99299 0.0
C151 C 0.87964 0.51079 1.03462 0.0
C152 C 0.8568 0.45819 1.05019 0.0
C153 C 0.80985 0.42903 1.02576 0.0
C154 C 0.78345 0.45189 0.98488 0.0
C155 C 0.80488 0.50336 0.96867 0.0
C156 C 0.77113 0.51967 0.92303 0.0
C157 C 0.72645 0.46943 0.91451 0.0
C158 C 0.73393 0.43041 0.95214 0.0
C159 C 0.74635 0.56476 0.94556 0.0
C160 C 0.80888 0.53511 0.87083 0.0
H161 H 0.54607 0.29299 0.88964 0.0
H162 H 0.65173 0.23253 1.03712 0.0
H163 H 0.7426 0.28975 0.93359 0.0
H164 H 0.78728 0.34168 0.96579 0.0
H165 H 0.75711 0.28304 1.00497 0.0
H166 H 0.65108 0.3369 1.06996 0.0
H167 H 0.71621 0.32151 1.07957 0.0
H168 H 0.7098 0.38754 1.06372 0.0
H169 H 0.56299 0.4498 0.73706 0.0
H170 H 0.67364 0.6011 0.75196 0.0
H171 H 0.71535 0.56859 0.82983 0.0
H172 H 0.54208 0.43913 0.87916 0.0
H173 H 0.51373 0.39286 0.82704 0.0
H174 H 0.53363 0.3712 0.89258 0.0
H175 H 0.64651 0.36636 0.77219 0.0
H176 H 0.59782 0.32114 0.81447 0.0
H177 H 0.57455 0.35768 0.76087 0.0
H178 H 0.50883 0.21001 0.93881 0.0
C179 C 0.57037 0.28111 0.92092 0.0
C180 C 0.99155 0.93008 0.45004 0.0
C181 C 0.96616 0.9604 0.48841 0.0
C182 C 0.91011 0.94132 0.5012 0.0
C183 C 0.90787 0.86059 0.45063 0.0
C184 C 0.96062 0.88038 0.43045 0.0
C185 C 0.97546 0.84241 0.38653 0.0
H186 H 0.89755 0.5975 0.25754 0.0
C187 C 0.88718 0.80668 0.42912 0.0
C188 C 0.92532 0.79504 0.38946 0.0
H189 H 0.0399 0.71882 0.21268 0.0
H190 H 1.0156 0.77419 0.287 0.0
H191 H 0.90784 0.61372 0.39573 0.0
H192 H 0.81095 0.67553 0.27801 0.0
H193 H 0.77073 0.64725 0.3368 0.0
H194 H 0.80108 0.60619 0.29149 0.0
H195 H 0.85488 0.5715 0.35834 0.0
H196 H 0.83908 0.60458 0.42006 0.0
C197 C 1.02813 0.82605 0.40228 0.0
C198 C 0.98133 0.87054 0.32964 0.0
C199 C 0.71869 0.69987 0.53195 0.0
C200 C 0.68559 0.64924 0.52776 0.0
C201 C 0.69897 0.61687 0.4848 0.0
C202 C 0.74547 0.63455 0.44824 0.0
C203 C 0.77853 0.68582 0.45355 0.0
C204 C 0.76352 0.71727 0.49466 0.0
C205 C 0.79819 0.77182 0.49275 0.0
C206 C 0.84034 0.76769 0.44686 0.0
C207 C 0.82907 0.7175 0.42292 0.0
C208 C 0.82379 0.78281 0.55044 0.0
C209 C 0.76084 0.80917 0.476 0.0
C210 C 0.92341 0.6362 0.26289 0.0
C211 C 0.97076 0.65319 0.22763 0.0
C212 C 1.00291 0.70418 0.23779 0.0
C213 C 0.98856 0.73666 0.28097 0.0
C214 C 0.94072 0.71923 0.31501 0.0
C215 C 0.90922 0.66927 0.30541 0.0
C216 C 0.85992 0.656 0.34535 0.0
C217 C 0.86534 0.70618 0.37922 0.0
C218 C 0.91342 0.74417 0.36205 0.0
C219 C 0.86523 0.60875 0.38181 0.0
C220 C 0.80765 0.64532 0.31138 0.0
H221 H 0.84013 0.88099 0.49808 0.0
H222 H 1.03391 0.9441 0.4365 0.0
H223 H 0.94486 0.8869 0.32242 0.0
H224 H 0.9846 0.84384 0.29502 0.0
H225 H 1.01805 0.90354 0.32768 0.0
H226 H 1.02358 0.80934 0.44514 0.0
H227 H 0.06345 0.86043 0.40065 0.0
H228 H 0.03769 0.79578 0.37404 0.0
H229 H 0.70891 0.72661 0.563 0.0
H230 H 0.67382 0.57782 0.47977 0.0
H231 H 0.75369 0.60791 0.41684 0.0
H232 H 0.83846 0.7482 0.56538 0.0
H233 H 0.79328 0.79097 0.58179 0.0
H234 H 0.85984 0.81573 0.55052 0.0
H235 H 0.72224 0.78781 0.45751 0.0
H236 H 0.78054 0.83782 0.44318 0.0
H237 H 0.74894 0.83066 0.51245 0.0
H238 H 0.88758 0.96393 0.52655 0.0
C239 C 0.88168 0.89246 0.48354 0.0
C240 C 0.76172 0.75108 0.97408 0.0
C241 C 0.79325 0.72047 0.94507 0.0
C242 C 0.77342 0.69595 0.89541 0.0
C243 C 0.7025 0.74457 0.89654 0.0
C244 C 0.71581 0.76224 0.94894 0.0
C245 C 0.67776 0.79575 0.97062 0.0
H246 H 0.53838 0.9772 0.90986 0.0
C247 C 0.66294 0.77237 0.87505 0.0
C248 C 0.64467 0.79979 0.91908 0.0
H249 H 0.56568 0.91945 1.0719 0.0
H250 H 0.59573 0.84574 1.02983 0.0
H251 H 0.48786 0.84865 0.85934 0.0
H252 H 0.61627 0.97885 0.84614 0.0
H253 H 0.65029 0.93657 0.80885 0.0
H254 H 0.58948 0.95319 0.78295 0.0
H255 H 0.49554 0.91353 0.83002 0.0
H256 H 0.51194 0.86135 0.78957 0.0
C257 C 0.6416 0.76617 1.01946 0.0
C258 C 0.71263 0.84977 0.98721 0.0
C259 C 0.71136 0.84871 0.68524 0.0
C260 C 0.69906 0.89473 0.66387 0.0
C261 C 0.64586 0.90267 0.67485 0.0
C262 C 0.61277 0.87437 0.71781 0.0
C263 C 0.63406 0.83942 0.74992 0.0
C264 C 0.67947 0.82272 0.73015 0.0
C265 C 0.69693 0.78576 0.77003 0.0
C266 C 0.65723 0.78767 0.81949 0.0
C267 C 0.62275 0.82196 0.80824 0.0
C268 C 0.68858 0.73073 0.74331 0.0
C269 C 0.75752 0.80888 0.78407 0.0
C270 C 0.55034 0.94827 0.93611 0.0
C271 C 0.55056 0.95421 0.99387 0.0
C272 C 0.56565 0.91571 1.02716 0.0
C273 C 0.5838 0.87359 1.00292 0.0
C274 C 0.58824 0.87083 0.94492 0.0
C275 C 0.56919 0.90607 0.91248 0.0
C276 C 0.57303 0.894 0.85163 0.0
C277 C 0.5998 0.84664 0.85304 0.0
C278 C 0.61001 0.8347 0.90816 0.0
C279 C 0.51401 0.87865 0.8312 0.0
C280 C 0.60903 0.94279 0.82061 0.0
H281 H 0.71149 0.68666 0.83498 0.0
H282 H 0.77437 0.76835 1.01359 0.0
H283 H 0.73946 0.86836 0.95153 0.0
H284 H 0.68749 0.87738 1.00076 0.0
H285 H 0.73897 0.84547 1.02217 0.0
H286 H 0.64688 0.72528 1.02474 0.0
H287 H 0.65157 0.7863 1.05955 0.0
H288 H 0.59738 0.7624 1.01262 0.0
H289 H 0.74981 0.83861 0.67447 0.0
H290 H 0.63272 0.93492 0.65534 0.0
H291 H 0.57412 0.88363 0.72759 0.0
H292 H 0.68288 0.73222 0.69781 0.0
H293 H 0.72484 0.71355 0.74785 0.0
H294 H 0.65193 0.70307 0.76173 0.0
H295 H 0.7628 0.84996 0.79884 0.0
H296 H 0.77281 0.78653 0.81617 0.0
H297 H 0.78541 0.80868 0.74732 0.0
H298 H 0.79489 0.66971 0.874 0.0
C299 C 0.72663 0.70645 0.87211 0.0
C300 C 0.9875 0.24983 0.5209 0.0
C301 C 1.01047 0.20692 0.50736 0.0
C302 C 1.02824 0.20116 0.45218 0.0
C303 C 0.98983 0.27441 0.42383 0.0
C304 C 0.9764 0.28215 0.4787 0.0
C305 C 0.94288 0.32285 0.48573 0.0
H306 H 0.7618 0.44039 0.37311 0.0
C307 C 0.96447 0.30906 0.38954 0.0
C308 C 0.93716 0.33769 0.42566 0.0
H309 H 0.79183 0.42085 0.54649 0.0
H310 H 0.875 0.39358 0.52121 0.0
H311 H 0.77138 0.3839 0.29509 0.0
H312 H 0.88722 0.48566 0.3293 0.0
H313 H 0.90888 0.45103 0.2736 0.0
H314 H 0.84023 0.46208 0.27599 0.0
H315 H 0.81226 0.33946 0.27324 0.0
H316 H 0.7813 0.33196 0.33984 0.0
C317 C 0.88702 0.29662 0.51521 0.0
C318 C 0.97687 0.36962 0.5175 0.0
C319 C 0.92969 0.26347 0.18991 0.0
C320 C 0.88705 0.27425 0.15876 0.0
C321 C 0.87415 0.32388 0.16455 0.0
C322 C 0.89327 0.35562 0.20956 0.0
C323 C 0.92256 0.33574 0.24979 0.0
C324 C 0.9448 0.29313 0.23742 0.0
C325 C 0.97145 0.27521 0.28668 0.0
C326 C 0.9578 0.31163 0.33141 0.0
C327 C 0.92742 0.34579 0.30981 0.0
C328 C 0.94342 0.21669 0.29925 0.0
C329 C 1.03377 0.28539 0.27368 0.0
C330 C 0.78646 0.43038 0.40563 0.0
C331 C 0.76927 0.43123 0.46172 0.0
C332 C 0.80359 0.41994 0.50289 0.0
C333 C 0.85159 0.40347 0.48816 0.0
C334 C 0.86469 0.39692 0.43183 0.0
C335 C 0.83382 0.41262 0.39159 0.0
C336 C 0.85176 0.39996 0.33402 0.0
C337 C 0.89794 0.37292 0.34653 0.0
C338 C 0.90428 0.37025 0.40404 0.0
C339 C 0.80199 0.36211 0.30866 0.0
C340 C 0.87282 0.45215 0.30111 0.0
H341 H 1.03197 0.22862 0.36869 0.0
H342 H 0.97409 0.25581 0.56316 0.0
H343 H 1.02019 0.37903 0.50164 0.0
H344 H 0.96218 0.40613 0.51215 0.0
H345 H 0.97664 0.36026 0.56253 0.0
H346 H 0.85159 0.30398 0.49303 0.0
H347 H 0.8798 0.25303 0.51684 0.0
H348 H 0.88452 0.31002 0.55873 0.0
H349 H 0.94297 0.22711 0.18387 0.0
H350 H 0.84344 0.335 0.13963 0.0
H351 H 0.87806 0.39052 0.21543 0.0
H352 H 0.89871 0.2094 0.29277 0.0
H353 H 0.96067 0.18994 0.27171 0.0
H354 H 0.94596 0.20424 0.34244 0.0
H355 H 0.05787 0.29314 0.31148 0.0
H356 H 0.0446 0.25188 0.25115 0.0
H357 H 0.04805 0.32115 0.24718 0.0
H358 H 0.0471 0.16895 0.44108 0.0
C359 C 1.01913 0.23562 0.4104 0.0
C360 C 0.48152 0.70503 0.43409 0.0
C361 C 0.46147 0.65342 0.4567 0.0
C362 C 0.41705 0.62135 0.42968 0.0
C363 C 0.41246 0.69105 0.36195 0.0
C364 C 0.45727 0.72253 0.38652 0.0
C365 C 0.47678 0.77393 0.35389 0.0
H366 H 0.43318 0.94085 0.14358 0.0
C367 C 0.39619 0.7207 0.31339 0.0
C368 C 0.43447 0.76998 0.30862 0.0
H369 H 0.5747 0.96407 0.24409 0.0
H370 H 0.53568 0.88264 0.29526 0.0
H371 H 0.34183 0.89309 0.24191 0.0
H372 H 0.43338 0.83007 0.11705 0.0
H373 H 0.3706 0.78448 0.12218 0.0
H374 H 0.37242 0.85157 0.10204 0.0
H375 H 0.32503 0.889 0.1703 0.0
H376 H 0.29638 0.83668 0.21869 0.0
C377 C 0.47566 0.82032 0.39292 0.0
C378 C 0.53434 0.7749 0.32848 0.0
C379 C 0.22228 0.64601 0.20029 0.0
C380 C 0.19661 0.66835 0.15724 0.0
C381 C 0.22178 0.7196 0.13889 0.0
C382 C 0.26999 0.74794 0.16179 0.0
C383 C 0.29509 0.72573 0.20428 0.0
C384 C 0.27133 0.6756 0.2234 0.0
C385 C 0.3041 0.6601 0.27052 0.0
C386 C 0.35122 0.70906 0.27592 0.0
C387 C 0.34529 0.74692 0.23613 0.0
C388 C 0.2666 0.65023 0.32342 0.0
C389 C 0.32543 0.61149 0.25221 0.0
C390 C 0.45514 0.92945 0.17769 0.0
C391 C 0.50646 0.96063 0.1906 0.0
C392 C 0.53451 0.94193 0.23372 0.0
C393 C 0.51207 0.89403 0.26305 0.0
C394 C 0.46128 0.86243 0.24842 0.0
C395 C 0.43419 0.88089 0.20608 0.0
C396 C 0.38336 0.84145 0.19197 0.0
C397 C 0.38407 0.79603 0.23149 0.0
C398 C 0.42898 0.80804 0.26639 0.0
C399 C 0.33386 0.86611 0.206 0.0
C400 C 0.38964 0.82612 0.13013 0.0
H401 H 0.35883 0.61276 0.36599 0.0
H402 H 0.51662 0.73062 0.45183 0.0
H403 H 0.53593 0.73603 0.31057 0.0
H404 H 0.5459 0.80352 0.29398 0.0
H405 H 0.56572 0.78403 0.3605 0.0
H406 H 0.43489 0.81499 0.41461 0.0
H407 H 0.50696 0.82313 0.42488 0.0
H408 H 0.48325 0.8582 0.37026 0.0
H409 H 0.20415 0.60695 0.21625 0.0
H410 H 0.20388 0.73845 0.10655 0.0
H411 H 0.28555 0.78676 0.14538 0.0
H412 H 0.24524 0.6829 0.32959 0.0
H413 H 0.23502 0.61312 0.32021 0.0
H414 H 0.28934 0.64825 0.36133 0.0
H415 H 0.34254 0.61676 0.20881 0.0
H416 H 0.3589 0.60484 0.27771 0.0
H417 H 0.29191 0.57551 0.25385 0.0
H418 H 0.40078 0.58155 0.44462 0.0
C419 C 0.39244 0.63971 0.38364 0.0
C420 C 0.08313 0.25461 0.73852 0.0
C421 C 0.10595 0.22735 0.69497 0.0
C422 C 0.15853 0.2515 0.67366 0.0
C423 C 0.16336 0.32812 0.7318 0.0
C424 C 0.11338 0.30519 0.75686 0.0
C425 C 0.09981 0.3418 0.803 0.0
H426 H 0.17823 0.58468 0.93646 0.0
C427 C 0.18462 0.38106 0.75556 0.0
C428 C 0.14862 0.39047 0.79859 0.0
H429 H 1.03624 0.46248 0.98001 0.0
H430 H 0.06097 0.408 0.90503 0.0
H431 H 0.17071 0.5724 0.79766 0.0
H432 H 0.26405 0.50374 0.91364 0.0
H433 H 0.305 0.53397 0.85608 0.0
H434 H 0.27536 0.57369 0.90368 0.0
H435 H 0.22205 0.61243 0.83886 0.0
H436 H 0.24058 0.58241 0.77627 0.0
C437 C 0.04543 0.35662 0.79081 0.0
C438 C 0.09766 0.31313 0.85921 0.0
C439 C 0.35552 0.48666 0.65714 0.0
C440 C 0.3914 0.53538 0.66413 0.0
C441 C 0.37971 0.56675 0.70891 0.0
C442 C 0.33241 0.54969 0.7448 0.0
C443 C 0.2968 0.50004 0.73686 0.0
C444 C 0.31011 0.46984 0.69368 0.0
C445 C 0.27274 0.41692 0.69203 0.0
C446 C 0.23175 0.42012 0.73904 0.0
C447 C 0.24513 0.46865 0.76622 0.0
C448 C 0.24623 0.41155 0.63426 0.0
C449 C 0.30755 0.37612 0.70511 0.0
C450 C 0.15237 0.5461 0.93046 0.0
C451 C 0.10493 0.52863 0.96555 0.0
C452 C 0.07307 0.47764 0.95485 0.0
C453 C 0.08752 0.44579 0.91107 0.0
C454 C 0.13504 0.46398 0.87673 0.0
C455 C 0.1666 0.51372 0.88723 0.0
C456 C 0.21618 0.52742 0.84763 0.0
C457 C 0.20982 0.47851 0.81159 0.0
C458 C 0.16165 0.44022 0.82825 0.0
C459 C 0.2126 0.57646 0.81325 0.0
C460 C 0.26817 0.53549 0.88183 0.0
H461 H 0.22477 0.31522 0.66997 0.0
H462 H 0.04314 0.23757 0.75704 0.0
H463 H 0.13563 0.2986 0.86415 0.0
H464 H 0.09436 0.3391 0.89455 0.0
H465 H 0.06227 0.27883 0.86204 0.0
H466 H 0.04712 0.37336 0.74814 0.0
H467 H 1.01098 0.32148 0.79394 0.0
H468 H 1.03639 0.38643 0.8199 0.0
H469 H 0.36337 0.46067 0.62438 0.0
H470 H 0.40676 0.60453 0.71587 0.0
H471 H 0.32549 0.57548 0.77763 0.0
H472 H 0.24242 0.45036 0.61771 0.0
H473 H 0.27106 0.39461 0.60328 0.0
H474 H 0.20384 0.38774 0.63556 0.0
H475 H 0.34389 0.39355 0.72951 0.0
H476 H 0.28483 0.34309 0.73167 0.0
H477 H 0.32288 0.36031 0.66645 0.0
H478 H 0.17889 0.23306 0.6416 0.0
C479 C 0.18629 0.30054 0.69097 0.0
La480 La 0.08761 0.09453 0.56502 0.0
La481 La 0.98514 1.08964 0.62372 0.0
C482 C 0.18266 0.12661 0.52344 0.0
C483 C 0.22819 0.17232 0.53223 0.0
C484 C 0.27732 0.16426 0.55282 0.0
C485 C 0.32317 0.20585 0.55515 0.0
C486 C 0.32105 0.25621 0.53587 0.0
C487 C 0.27023 0.26511 0.52032 0.0
C488 C 0.2243 0.22359 0.51846 0.0
C489 C 0.06265 1.01717 0.63772 0.0
C490 C 0.07848 0.17654 0.66629 0.0
C491 C 0.89127 1.06003 0.66953 0.0
C492 C 0.84175 1.01931 0.6603 0.0
C493 C 0.79085 1.02938 0.67546 0.0
C494 C 0.74326 0.99036 0.67073 0.0
C495 C 0.74548 0.94032 0.65009 0.0
C496 C 0.79646 0.93238 0.62988 0.0
C497 C 0.84428 0.97108 0.63623 0.0
C498 C 1.01016 0.16691 0.55069 0.0
C499 C 0.99412 1.00932 0.51984 0.0
O500 O 0.17073 0.09314 0.56479 0.0
O501 O 0.13876 0.13505 0.50053 0.0
O502 O 0.08527 1.01457 0.58913 0.0
O503 O 0.05602 1.06332 0.64576 0.0
O504 O 0.10361 0.16373 0.62046 0.0
O505 O 1.03005 0.14745 0.68193 0.0
O506 O 0.90359 0.09642 0.63112 0.0
O507 O 0.93442 1.04455 0.68578 0.0
O508 O 0.98697 0.16951 0.59898 0.0
O509 O 1.01668 0.12074 0.54296 0.0
O510 O 0.9674 1.02273 0.56453 0.0
O511 O 0.04399 1.03667 0.50651 0.0
H512 H 0.28105 0.1252 0.56473 0.0
H513 H 0.36131 0.19774 0.56819 0.0
H514 H 0.26679 0.30314 0.50475 0.0
H515 H 0.18665 0.23133 0.50353 0.0
H516 H 0.7881 1.06675 0.6934 0.0
H517 H 0.70552 0.99856 0.68753 0.0
H518 H 0.80008 0.89513 0.61238 0.0
H519 H 0.88333 0.96263 0.62417 0.0
La520 La 0.59917 1.08987 0.09978 0.0
La521 La 0.48565 1.0824 1.08038 0.0
C522 C 0.7018 0.11031 0.10707 0.0
C523 C 0.75087 0.15176 0.11585 0.0
C524 C 0.78568 0.14371 0.15729 0.0
C525 C 0.83211 0.18204 0.16815 0.0
C526 C 0.84527 0.2296 0.13749 0.0
C527 C 0.81167 0.23643 0.09389 0.0
C528 C 0.76478 0.1977 1.0831 0.0
C529 C 0.53525 1.00592 0.15297 0.0
C530 C 0.5386 0.16627 0.16346 0.0
C531 C 0.38334 1.0635 1.07157 0.0
C532 C 0.33243 1.02381 1.06505 0.0
C533 C 0.2976 1.03255 1.02394 0.0
C534 C 0.24896 0.9963 1.01556 0.0
C535 C 0.23364 0.95013 1.04832 0.0
C536 C 0.26734 0.94282 1.09165 0.0
C537 C 0.31646 0.9795 0.10004 0.0
C538 C 0.54978 0.1672 1.02846 0.0
C539 C 0.54565 1.00418 1.0192 0.0
O540 O 0.66738 0.09727 0.14953 0.0
O541 O 0.67698 0.11084 1.06041 0.0
O542 O 0.58409 1.00921 0.13271 0.0
O543 O 0.52447 1.0511 0.14715 0.0
O544 O 0.58637 0.15979 0.14389 0.0
O545 O 0.49277 0.13403 0.15058 0.0
O546 O 0.41826 1.07255 1.02905 0.0
O547 O 0.40742 1.06507 0.1189 0.0
O548 O 0.50102 0.16358 1.04889 0.0
O549 O 0.56027 0.12178 1.03325 0.0
O550 O 0.49838 1.01025 1.04055 0.0
O551 O 0.59141 1.03764 1.02974 0.0
H552 H 0.77617 0.10809 0.18243 0.0
H553 H 0.85571 0.17517 0.20296 0.0
H554 H 0.82089 0.2723 1.06937 0.0
H555 H 0.73893 0.20382 1.04998 0.0
H556 H 0.30866 1.06709 0.99725 0.0
H557 H 0.22518 1.00343 0.981 0.0
H558 H 0.25635 0.90802 0.11778 0.0
H559 H 0.34229 0.97302 0.13308 0.0
La560 La 0.5319 0.54332 0.56776 0.0
La561 La 0.54598 0.63978 0.62519 0.0
C562 C 0.55551 0.46804 0.51443 0.0
C563 C 0.60834 0.45372 0.50521 0.0
C564 C 0.61662 0.42396 0.45893 0.0
C565 C 0.66882 0.41639 0.44506 0.0
C566 C 0.71387 0.43933 0.47685 0.0
C567 C 0.70517 0.46884 0.52359 0.0
C568 C 0.65289 0.47604 0.53756 0.0
C569 C 0.44033 0.55068 0.62458 0.0
C570 C 0.58985 0.55126 0.68736 0.0
C571 C 0.52247 0.71524 0.67828 0.0
C572 C 0.46977 0.72999 0.68683 0.0
C573 C 0.46095 0.75919 0.73338 0.0
C574 C 0.40884 0.76753 0.74619 0.0
C575 C 0.36441 0.74596 0.713 0.0
C576 C 0.37361 0.71688 0.66611 0.0
C577 C 0.42579 0.70881 0.65328 0.0
C578 C 0.63745 0.63268 0.56797 0.0
C579 C 0.48765 0.63107 0.50541 0.0
O580 O 0.53443 0.46321 0.56509 0.0
O581 O 0.55371 0.51304 0.49211 0.0
O582 O 0.4427 0.52639 0.57793 0.0
O583 O 0.48902 0.5663 0.63951 0.0
O584 O 0.57667 0.5239 0.64143 0.0
O585 O 0.58135 0.59945 0.69068 0.0
O586 O 0.54413 0.72003 0.62786 0.0
O587 O 0.5237 0.6701 0.70065 0.0
O588 O 0.63523 0.65672 0.6148 0.0
O589 O 0.58865 0.61706 0.55336 0.0
O590 O 0.50097 0.65866 0.55123 0.0
O591 O 0.49626 0.58297 0.5022 0.0
H592 H 0.58296 0.40795 0.43268 0.0
H593 H 0.67385 0.39265 0.40931 0.0
H594 H 0.73898 0.48754 0.54851 0.0
H595 H 0.64776 0.50072 0.57238 0.0
H596 H 0.49411 0.77419 0.7606 0.0
H597 H 0.40337 0.79081 0.7822 0.0
H598 H 0.34024 0.6992 0.64016 0.0
H599 H 0.43123 0.68451 0.61825 0.0
La600 La 1.03567 0.54688 0.13139 0.0
La601 La 0.03918 0.63396 1.06225 0.0
C602 C 0.06331 0.47016 0.17699 0.0
C603 C 0.11805 0.46227 0.18965 0.0
C604 C 0.12561 0.43581 0.23837 0.0
C605 C 0.17757 0.42854 0.25049 0.0
C606 C 0.22295 0.44761 0.21403 0.0
C607 C 0.21529 0.4747 0.1656 0.0
C608 C 0.16345 0.48207 0.1536 0.0
C609 C 0.98696 0.61686 0.1829 0.0
C610 C 0.14277 0.64127 0.13271 0.0
C611 C 1.00857 0.70936 1.01743 0.0
C612 C 0.95362 0.71342 0.9996 0.0
C613 C 0.9453 0.72276 0.94357 0.0
C614 C 0.89308 0.72416 0.92596 0.0
C615 C 0.84805 0.71678 0.96409 0.0
C616 C 0.85641 0.70779 1.02022 0.0
C617 C 0.90849 0.70579 1.03775 0.0
C618 C 0.0884 0.56452 1.01067 0.0
C619 C 0.93257 0.53875 1.06011 0.0
O620 O 0.04671 0.50682 0.20482 0.0
O621 O 0.0535 0.4724 0.12433 0.0
O622 O 0.9694 0.56607 0.18459 0.0
O623 O 1.03057 0.62653 0.15199 0.0
O624 O 0.12099 0.59116 0.14362 0.0
O625 O 0.11603 0.66856 0.10196 0.0
O626 O 1.03222 0.67715 0.98963 0.0
O627 O 1.01397 0.70498 1.0708 0.0
O628 O 0.10556 0.61539 1.00897 0.0
O629 O 0.04467 0.55438 1.04155 0.0
O630 O 0.9548 0.58844 1.04767 0.0
O631 O 0.95855 0.51229 1.09255 0.0
H632 H 0.09129 0.42051 0.26686 0.0
H633 H 0.18197 0.4069 0.28783 0.0
H634 H 0.24942 0.49028 0.13701 0.0
H635 H 0.15889 0.50312 0.1159 0.0
H636 H 0.97918 0.72871 0.91331 0.0
H637 H 0.8881 0.73193 0.8825 0.0
H638 H 0.82255 0.70167 1.05049 0.0
H639 H 0.91316 0.69791 1.08124 0.0
loop_
_geom_bond_atom_site_label_1
_geom_bond_atom_site_label_2
_geom_bond_distance
_geom_bond_site_symmetry_2
_ccdc_geom_bond_type
C0 C1 1.391 . S
C0 C4 1.391 . S
C0 H42 0.948 . S
C1 C0 1.391 . S
C1 C2 1.391 . S
C2 C1 1.391 . S
C2 H58 0.947 . S
C2 C59 1.392 . S
C3 C4 1.391 . S
C3 C7 1.397 . S
C3 C59 1.419 . S
C4 C0 1.391 . S
C4 C3 1.391 . S
C4 C5 1.399 . S
C5 C4 1.399 . S
C5 C8 1.396 . S
C5 C17 1.453 . S
C5 C18 1.684 . S
H6 C30 0.948 . S
C7 C3 1.397 . S
C7 C8 1.394 . S
C7 C26 1.723 . S
C8 C5 1.396 . S
C8 C7 1.394 . S
C8 C38 1.723 . S
H9 C32 0.947 . S
H10 C33 0.948 . S
H11 C39 0.982 . S
H12 C40 0.979 . S
H13 C40 0.980 . S
H14 C40 0.983 . S
H15 C39 0.979 . S
H16 C39 0.977 . S
C17 C5 1.453 . S
C17 H46 0.982 . S
C17 H47 0.979 . S
C17 H48 0.977 . S
C18 C5 1.684 . S
C18 H43 0.979 . S
C18 H44 0.980 . S
C18 H45 0.983 . S
C19 C20 1.391 . S
C19 C24 1.391 . S
C19 H49 0.948 . S
C20 C19 1.391 . S
C20 C21 1.391 . S
C21 C20 1.391 . S
C21 C22 1.392 . S
C21 H50 0.947 . S
C22 C21 1.392 . S
C22 C23 1.419 . S
C22 H51 0.948 . S
C23 C22 1.419 . S
C23 C24 1.391 . S
C23 C27 1.397 . S
C24 C19 1.391 . S
C24 C23 1.391 . S
C24 C25 1.399 . S
C25 C24 1.399 . S
C25 C26 1.396 . S
C25 C28 1.453 . S
C25 C29 1.684 . S
C26 C7 1.723 . S
C26 C25 1.396 . S
C26 C27 1.394 . S
C27 C23 1.397 . S
C27 C26 1.394 . S
C27 C37 1.723 . S
C28 C25 1.453 . S
C28 H52 0.982 . S
C28 H53 0.979 . S
C28 H54 0.977 . S
C29 C25 1.684 . S
C29 H55 0.979 . S
C29 H56 0.980 . S
C29 H57 0.983 . S
C30 H6 0.948 . S
C30 C31 1.391 . S
C30 C35 1.391 . S
C31 C30 1.391 . S
C31 C32 1.391 . S
C32 H9 0.947 . S
C32 C31 1.391 . S
C32 C33 1.392 . S
C33 H10 0.948 . S
C33 C32 1.392 . S
C33 C34 1.419 . S
C34 C33 1.419 . S
C34 C35 1.391 . S
C34 C38 1.397 . S
C35 C30 1.391 . S
C35 C34 1.391 . S
C35 C36 1.399 . S
C36 C35 1.399 . S
C36 C37 1.396 . S
C36 C39 1.453 . S
C36 C40 1.684 . S
C37 C27 1.723 . S
C37 C36 1.396 . S
C37 C38 1.394 . S
C38 C8 1.723 . S
C38 C34 1.397 . S
C38 C37 1.394 . S
C39 H11 0.982 . S
C39 H15 0.979 . S
C39 H16 0.977 . S
C39 C36 1.453 . S
C40 H12 0.979 . S
C40 H13 0.980 . S
C40 H14 0.983 . S
C40 C36 1.684 . S
H41 C59 0.948 . S
H42 C0 0.948 . S
H43 C18 0.979 . S
H44 C18 0.980 . S
H45 C18 0.983 . S
H46 C17 0.982 . S
H47 C17 0.979 . S
H48 C17 0.977 . S
H49 C19 0.948 . S
H50 C21 0.947 . S
H51 C22 0.948 . S
H52 C28 0.982 . S
H53 C28 0.979 . S
H54 C28 0.977 . S
H55 C29 0.979 . S
H56 C29 0.980 . S
H57 C29 0.983 . S
H58 C2 0.947 . S
C59 C2 1.392 . S
C59 C3 1.419 . S
C59 H41 0.948 . S
C60 C61 1.391 . S
C60 C64 1.391 . S
C60 H102 0.948 . S
C61 C60 1.391 . S
C61 C62 1.391 . S
C62 C61 1.391 . S
C62 H118 0.947 . S
C62 C119 1.392 . S
C63 C64 1.391 . S
C63 C67 1.397 . S
C63 C119 1.419 . S
C64 C60 1.391 . S
C64 C63 1.391 . S
C64 C65 1.399 . S
C65 C64 1.399 . S
C65 C68 1.396 . S
C65 C77 1.453 . S
C65 C78 1.684 . S
H66 C90 0.948 . S
C67 C63 1.397 . S
C67 C68 1.394 . S
C67 C86 1.723 . S
C68 C65 1.396 . S
C68 C67 1.394 . S
C68 C98 1.723 . S
H69 C92 0.947 . S
H70 C93 0.948 . S
H71 C99 0.982 . S
H72 C100 0.979 . S
H73 C100 0.980 . S
H74 C100 0.983 . S
H75 C99 0.979 . S
H76 C99 0.977 . S
C77 C65 1.453 . S
C77 H106 0.982 . S
C77 H107 0.979 . S
C77 H108 0.977 . S
C78 C65 1.684 . S
C78 H103 0.979 . S
C78 H104 0.980 . S
C78 H105 0.983 . S
C79 C80 1.391 . S
C79 C84 1.391 . S
C79 H109 0.948 . S
C80 C79 1.391 . S
C80 C81 1.391 . S
C81 C80 1.391 . S
C81 C82 1.392 . S
C81 H110 0.947 . S
C82 C81 1.392 . S
C82 C83 1.419 . S
C82 H111 0.948 . S
C83 C82 1.419 . S
C83 C84 1.391 . S
C83 C87 1.397 . S
C84 C79 1.391 . S
C84 C83 1.391 . S
C84 C85 1.399 . S
C85 C84 1.399 . S
C85 C86 1.396 . S
C85 C88 1.453 . S
C85 C89 1.684 . S
C86 C67 1.723 . S
C86 C85 1.396 . S
C86 C87 1.394 . S
C87 C83 1.397 . S
C87 C86 1.394 . S
C87 C97 1.723 . S
C88 C85 1.453 . S
C88 H112 0.982 . S
C88 H113 0.979 . S
C88 H114 0.977 . S
C89 C85 1.684 . S
C89 H115 0.979 . S
C89 H116 0.980 . S
C89 H117 0.983 . S
C90 H66 0.948 . S
C90 C91 1.391 . S
C90 C95 1.391 . S
C91 C90 1.391 . S
C91 C92 1.391 . S
C92 H69 0.947 . S
C92 C91 1.391 . S
C92 C93 1.392 . S
C93 H70 0.948 . S
C93 C92 1.392 . S
C93 C94 1.419 . S
C94 C93 1.419 . S
C94 C95 1.391 . S
C94 C98 1.397 . S
C95 C90 1.391 . S
C95 C94 1.391 . S
C95 C96 1.399 . S
C96 C95 1.399 . S
C96 C97 1.396 . S
C96 C99 1.453 . S
C96 C100 1.684 . S
C97 C87 1.723 . S
C97 C96 1.396 . S
C97 C98 1.394 . S
C98 C68 1.723 . S
C98 C94 1.397 . S
C98 C97 1.394 . S
C99 H71 0.982 . S
C99 H75 0.979 . S
C99 H76 0.977 . S
C99 C96 1.453 . S
C100 H72 0.979 . S
C100 H73 0.980 . S
C100 H74 0.983 . S
C100 C96 1.684 . S
H101 C119 0.948 . S
H102 C60 0.948 . S
H103 C78 0.979 . S
H104 C78 0.980 . S
H105 C78 0.983 . S
H106 C77 0.982 . S
H107 C77 0.979 . S
H108 C77 0.977 . S
H109 C79 0.948 . S
H110 C81 0.947 . S
H111 C82 0.948 . S
H112 C88 0.982 . S
H113 C88 0.979 . S
H114 C88 0.977 . S
H115 C89 0.979 . S
H116 C89 0.980 . S
H117 C89 0.983 . S
H118 C62 0.947 . S
C119 C62 1.392 . S
C119 C63 1.419 . S
C119 H101 0.948 . S
C120 C121 1.391 . S
C120 C124 1.391 . S
C120 H162 0.948 . S
C121 C120 1.391 . S
C121 C122 1.391 . S
C122 C121 1.391 . S
C122 H178 0.947 . S
C122 C179 1.392 . S
C123 C124 1.391 . S
C123 C127 1.397 . S
C123 C179 1.419 . S
C124 C120 1.391 . S
C124 C123 1.391 . S
C124 C125 1.399 . S
C125 C124 1.399 . S
C125 C128 1.396 . S
C125 C137 1.453 . S
C125 C138 1.684 . S
H126 C150 0.948 . S
C127 C123 1.397 . S
C127 C128 1.394 . S
C127 C146 1.723 . S
C128 C125 1.396 . S
C128 C127 1.394 . S
C128 C158 1.723 . S
H129 C152 0.947 . S
H130 C153 0.948 . S
H131 C159 0.982 . S
H132 C160 0.979 . S
H133 C160 0.980 . S
H134 C160 0.983 . S
H135 C159 0.979 . S
H136 C159 0.977 . S
C137 C125 1.453 . S
C137 H166 0.982 . S
C137 H167 0.979 . S
C137 H168 0.977 . S
C138 C125 1.684 . S
C138 H163 0.979 . S
C138 H164 0.980 . S
C138 H165 0.983 . S
C139 C140 1.391 . S
C139 C144 1.391 . S
C139 H169 0.948 . S
C140 C139 1.391 . S
C140 C141 1.391 . S
C141 C140 1.391 . S
C141 C142 1.392 . S
C141 H170 0.947 . S
C142 C141 1.392 . S
C142 C143 1.419 . S
C142 H171 0.948 . S
C143 C142 1.419 . S
C143 C144 1.391 . S
C143 C147 1.397 . S
C144 C139 1.391 . S
C144 C143 1.391 . S
C144 C145 1.399 . S
C145 C144 1.399 . S
C145 C146 1.396 . S
C145 C148 1.453 . S
C145 C149 1.684 . S
C146 C127 1.723 . S
C146 C145 1.396 . S
C146 C147 1.394 . S
C147 C143 1.397 . S
C147 C146 1.394 . S
C147 C157 1.723 . S
C148 C145 1.453 . S
C148 H172 0.982 . S
C148 H173 0.979 . S
C148 H174 0.977 . S
C149 C145 1.684 . S
C149 H175 0.979 . S
C149 H176 0.980 . S
C149 H177 0.983 . S
C150 H126 0.948 . S
C150 C151 1.391 . S
C150 C155 1.391 . S
C151 C150 1.391 . S
C151 C152 1.391 . S
C152 H129 0.947 . S
C152 C151 1.391 . S
C152 C153 1.392 . S
C153 H130 0.948 . S
C153 C152 1.392 . S
C153 C154 1.419 . S
C154 C153 1.419 . S
C154 C155 1.391 . S
C154 C158 1.397 . S
C155 C150 1.391 . S
C155 C154 1.391 . S
C155 C156 1.399 . S
C156 C155 1.399 . S
C156 C157 1.396 . S
C156 C159 1.453 . S
C156 C160 1.684 . S
C157 C147 1.723 . S
C157 C156 1.396 . S
C157 C158 1.394 . S
C158 C128 1.723 . S
C158 C154 1.397 . S
C158 C157 1.394 . S
C159 H131 0.982 . S
C159 H135 0.979 . S
C159 H136 0.977 . S
C159 C156 1.453 . S
C160 H132 0.979 . S
C160 H133 0.980 . S
C160 H134 0.983 . S
C160 C156 1.684 . S
H161 C179 0.948 . S
H162 C120 0.948 . S
H163 C138 0.979 . S
H164 C138 0.980 . S
H165 C138 0.983 . S
H166 C137 0.982 . S
H167 C137 0.979 . S
H168 C137 0.977 . S
H169 C139 0.948 . S
H170 C141 0.947 . S
H171 C142 0.948 . S
H172 C148 0.982 . S
H173 C148 0.979 . S
H174 C148 0.977 . S
H175 C149 0.979 . S
H176 C149 0.980 . S
H177 C149 0.983 . S
H178 C122 0.947 . S
C179 C122 1.392 . S
C179 C123 1.419 . S
C179 H161 0.948 . S
C180 C181 1.391 . S
C180 C184 1.391 . S
C180 H222 0.948 . S
C181 C180 1.391 . S
C181 C182 1.391 . S
C182 C181 1.391 . S
C182 H238 0.947 . S
C182 C239 1.392 . S
C183 C184 1.391 . S
C183 C187 1.397 . S
C183 C239 1.419 . S
C184 C180 1.391 . S
C184 C183 1.391 . S
C184 C185 1.399 . S
C185 C184 1.399 . S
C185 C188 1.396 . S
C185 C197 1.453 . S
C185 C198 1.684 . S
H186 C210 0.948 . S
C187 C183 1.397 . S
C187 C188 1.394 . S
C187 C206 1.723 . S
C188 C185 1.396 . S
C188 C187 1.394 . S
C188 C218 1.723 . S
H189 C212 0.947 . S
H190 C213 0.948 . S
H191 C219 0.982 . S
H192 C220 0.979 . S
H193 C220 0.980 . S
H194 C220 0.983 . S
H195 C219 0.979 . S
H196 C219 0.977 . S
C197 C185 1.453 . S
C197 H226 0.982 . S
C197 H227 0.979 . S
C197 H228 0.977 . S
C198 C185 1.684 . S
C198 H223 0.979 . S
C198 H224 0.980 . S
C198 H225 0.983 . S
C199 C200 1.391 . S
C199 C204 1.391 . S
C199 H229 0.948 . S
C200 C199 1.391 . S
C200 C201 1.391 . S
C201 C200 1.391 . S
C201 C202 1.392 . S
C201 H230 0.947 . S
C202 C201 1.392 . S
C202 C203 1.419 . S
C202 H231 0.948 . S
C203 C202 1.419 . S
C203 C204 1.391 . S
C203 C207 1.397 . S
C204 C199 1.391 . S
C204 C203 1.391 . S
C204 C205 1.399 . S
C205 C204 1.399 . S
C205 C206 1.396 . S
C205 C208 1.453 . S
C205 C209 1.684 . S
C206 C187 1.723 . S
C206 C205 1.396 . S
C206 C207 1.394 . S
C207 C203 1.397 . S
C207 C206 1.394 . S
C207 C217 1.723 . S
C208 C205 1.453 . S
C208 H232 0.982 . S
C208 H233 0.979 . S
C208 H234 0.977 . S
C209 C205 1.684 . S
C209 H235 0.979 . S
C209 H236 0.980 . S
C209 H237 0.983 . S
C210 H186 0.948 . S
C210 C211 1.391 . S
C210 C215 1.391 . S
C211 C210 1.391 . S
C211 C212 1.391 . S
C212 H189 0.947 . S
C212 C211 1.391 . S
C212 C213 1.392 . S
C213 H190 0.948 . S
C213 C212 1.392 . S
C213 C214 1.419 . S
C214 C213 1.419 . S
C214 C215 1.391 . S
C214 C218 1.397 . S
C215 C210 1.391 . S
C215 C214 1.391 . S
C215 C216 1.399 . S
C216 C215 1.399 . S
C216 C217 1.396 . S
C216 C219 1.453 . S
C216 C220 1.684 . S
C217 C207 1.723 . S
C217 C216 1.396 . S
C217 C218 1.394 . S
C218 C188 1.723 . S
C218 C214 1.397 . S
C218 C217 1.394 . S
C219 H191 0.982 . S
C219 H195 0.979 . S
C219 H196 0.977 . S
C219 C216 1.453 . S
C220 H192 0.979 . S
C220 H193 0.980 . S
C220 H194 0.983 . S
C220 C216 1.684 . S
H221 C239 0.948 . S
H222 C180 0.948 . S
H223 C198 0.979 . S
H224 C198 0.980 . S
H225 C198 0.983 . S
H226 C197 0.982 . S
H227 C197 0.979 . S
H228 C197 0.977 . S
H229 C199 0.948 . S
H230 C201 0.947 . S
H231 C202 0.948 . S
H232 C208 0.982 . S
H233 C208 0.979 . S
H234 C208 0.977 . S
H235 C209 0.979 . S
H236 C209 0.980 . S
H237 C209 0.983 . S
H238 C182 0.947 . S
C239 C182 1.392 . S
C239 C183 1.419 . S
C239 H221 0.948 . S
C240 C241 1.391 . S
C240 C244 1.391 . S
C240 H282 0.948 . S
C241 C240 1.391 . S
C241 C242 1.391 . S
C242 C241 1.391 . S
C242 H298 0.947 . S
C242 C299 1.392 . S
C243 C244 1.391 . S
C243 C247 1.397 . S
C243 C299 1.419 . S
C244 C240 1.391 . S
C244 C243 1.391 . S
C244 C245 1.399 . S
C245 C244 1.399 . S
C245 C248 1.396 . S
C245 C257 1.453 . S
C245 C258 1.684 . S
H246 C270 0.948 . S
C247 C243 1.397 . S
C247 C248 1.394 . S
C247 C266 1.723 . S
C248 C245 1.396 . S
C248 C247 1.394 . S
C248 C278 1.723 . S
H249 C272 0.947 . S
H250 C273 0.948 . S
H251 C279 0.982 . S
H252 C280 0.979 . S
H253 C280 0.980 . S
H254 C280 0.983 . S
H255 C279 0.979 . S
H256 C279 0.977 . S
C257 C245 1.453 . S
C257 H286 0.982 . S
C257 H287 0.979 . S
C257 H288 0.977 . S
C258 C245 1.684 . S
C258 H283 0.979 . S
C258 H284 0.980 . S
C258 H285 0.983 . S
C259 C260 1.391 . S
C259 C264 1.391 . S
C259 H289 0.948 . S
C260 C259 1.391 . S
C260 C261 1.391 . S
C261 C260 1.391 . S
C261 C262 1.392 . S
C261 H290 0.947 . S
C262 C261 1.392 . S
C262 C263 1.419 . S
C262 H291 0.948 . S
C263 C262 1.419 . S
C263 C264 1.391 . S
C263 C267 1.397 . S
C264 C259 1.391 . S
C264 C263 1.391 . S
C264 C265 1.399 . S
C265 C264 1.399 . S
C265 C266 1.396 . S
C265 C268 1.453 . S
C265 C269 1.684 . S
C266 C247 1.723 . S
C266 C265 1.396 . S
C266 C267 1.394 . S
C267 C263 1.397 . S
C267 C266 1.394 . S
C267 C277 1.723 . S
C268 C265 1.453 . S
C268 H292 0.982 . S
C268 H293 0.979 . S
C268 H294 0.977 . S
C269 C265 1.684 . S
C269 H295 0.979 . S
C269 H296 0.980 . S
C269 H297 0.983 . S
C270 H246 0.948 . S
C270 C271 1.391 . S
C270 C275 1.391 . S
C271 C270 1.391 . S
C271 C272 1.391 . S
C272 H249 0.947 . S
C272 C271 1.391 . S
C272 C273 1.392 . S
C273 H250 0.948 . S
C273 C272 1.392 . S
C273 C274 1.419 . S
C274 C273 1.419 . S
C274 C275 1.391 . S
C274 C278 1.397 . S
C275 C270 1.391 . S
C275 C274 1.391 . S
C275 C276 1.399 . S
C276 C275 1.399 . S
C276 C277 1.396 . S
C276 C279 1.453 . S
C276 C280 1.684 . S
C277 C267 1.723 . S
C277 C276 1.396 . S
C277 C278 1.394 . S
C278 C248 1.723 . S
C278 C274 1.397 . S
C278 C277 1.394 . S
C279 H251 0.982 . S
C279 H255 0.979 . S
C279 H256 0.977 . S
C279 C276 1.453 . S
C280 H252 0.979 . S
C280 H253 0.980 . S
C280 H254 0.983 . S
C280 C276 1.684 . S
H281 C299 0.948 . S
H282 C240 0.948 . S
H283 C258 0.979 . S
H284 C258 0.980 . S
H285 C258 0.983 . S
H286 C257 0.982 . S
H287 C257 0.979 . S
H288 C257 0.977 . S
H289 C259 0.948 . S
H290 C261 0.947 . S
H291 C262 0.948 . S
H292 C268 0.982 . S
H293 C268 0.979 . S
H294 C268 0.977 . S
H295 C269 0.979 . S
H296 C269 0.980 . S
H297 C269 0.983 . S
H298 C242 0.947 . S
C299 C242 1.392 . S
C299 C243 1.419 . S
C299 H281 0.948 . S
C300 C301 1.391 . S
C300 C304 1.391 . S
C300 H342 0.948 . S
C301 C300 1.391 . S
C301 C302 1.391 . S
C302 C301 1.391 . S
C302 H358 0.947 . S
C302 C359 1.392 . S
C303 C304 1.391 . S
C303 C307 1.397 . S
C303 C359 1.419 . S
C304 C300 1.391 . S
C304 C303 1.391 . S
C304 C305 1.399 . S
C305 C304 1.399 . S
C305 C308 1.396 . S
C305 C317 1.453 . S
C305 C318 1.684 . S
H306 C330 0.948 . S
C307 C303 1.397 . S
C307 C308 1.394 . S
C307 C326 1.723 . S
C308 C305 1.396 . S
C308 C307 1.394 . S
C308 C338 1.723 . S
H309 C332 0.947 . S
H310 C333 0.948 . S
H311 C339 0.982 . S
H312 C340 0.979 . S
H313 C340 0.980 . S
H314 C340 0.983 . S
H315 C339 0.979 . S
H316 C339 0.977 . S
C317 C305 1.453 . S
C317 H346 0.982 . S
C317 H347 0.979 . S
C317 H348 0.977 . S
C318 C305 1.684 . S
C318 H343 0.979 . S
C318 H344 0.980 . S
C318 H345 0.983 . S
C319 C320 1.391 . S
C319 C324 1.391 . S
C319 H349 0.948 . S
C320 C319 1.391 . S
C320 C321 1.391 . S
C321 C320 1.391 . S
C321 C322 1.392 . S
C321 H350 0.947 . S
C322 C321 1.392 . S
C322 C323 1.419 . S
C322 H351 0.948 . S
C323 C322 1.419 . S
C323 C324 1.391 . S
C323 C327 1.397 . S
C324 C319 1.391 . S
C324 C323 1.391 . S
C324 C325 1.399 . S
C325 C324 1.399 . S
C325 C326 1.396 . S
C325 C328 1.453 . S
C325 C329 1.684 . S
C326 C307 1.723 . S
C326 C325 1.396 . S
C326 C327 1.394 . S
C327 C323 1.397 . S
C327 C326 1.394 . S
C327 C337 1.723 . S
C328 C325 1.453 . S
C328 H352 0.982 . S
C328 H353 0.979 . S
C328 H354 0.977 . S
C329 C325 1.684 . S
C329 H355 0.979 . S
C329 H356 0.980 . S
C329 H357 0.983 . S
C330 H306 0.948 . S
C330 C331 1.391 . S
C330 C335 1.391 . S
C331 C330 1.391 . S
C331 C332 1.391 . S
C332 H309 0.947 . S
C332 C331 1.391 . S
C332 C333 1.392 . S
C333 H310 0.948 . S
C333 C332 1.392 . S
C333 C334 1.419 . S
C334 C333 1.419 . S
C334 C335 1.391 . S
C334 C338 1.397 . S
C335 C330 1.391 . S
C335 C334 1.391 . S
C335 C336 1.399 . S
C336 C335 1.399 . S
C336 C337 1.396 . S
C336 C339 1.453 . S
C336 C340 1.684 . S
C337 C327 1.723 . S
C337 C336 1.396 . S
C337 C338 1.394 . S
C338 C308 1.723 . S
C338 C334 1.397 . S
C338 C337 1.394 . S
C339 H311 0.982 . S
C339 H315 0.979 . S
C339 H316 0.977 . S
C339 C336 1.453 . S
C340 H312 0.979 . S
C340 H313 0.980 . S
C340 H314 0.983 . S
C340 C336 1.684 . S
H341 C359 0.948 . S
H342 C300 0.948 . S
H343 C318 0.979 . S
H344 C318 0.980 . S
H345 C318 0.983 . S
H346 C317 0.982 . S
H347 C317 0.979 . S
H348 C317 0.977 . S
H349 C319 0.948 . S
H350 C321 0.947 . S
H351 C322 0.948 . S
H352 C328 0.982 . S
H353 C328 0.979 . S
H354 C328 0.977 . S
H355 C329 0.979 . S
H356 C329 0.980 . S
H357 C329 0.983 . S
H358 C302 0.947 . S
C359 C302 1.392 . S
C359 C303 1.419 . S
C359 H341 0.948 . S
C360 C361 1.391 . S
C360 C364 1.391 . S
C360 H402 0.948 . S
C361 C360 1.391 . S
C361 C362 1.391 . S
C362 C361 1.391 . S
C362 H418 0.947 . S
C362 C419 1.392 . S
C363 C364 1.391 . S
C363 C367 1.397 . S
C363 C419 1.419 . S
C364 C360 1.391 . S
C364 C363 1.391 . S
C364 C365 1.399 . S
C365 C364 1.399 . S
C365 C368 1.396 . S
C365 C377 1.453 . S
C365 C378 1.684 . S
H366 C390 0.948 . S
C367 C363 1.397 . S
C367 C368 1.394 . S
C367 C386 1.723 . S
C368 C365 1.396 . S
C368 C367 1.394 . S
C368 C398 1.723 . S
H369 C392 0.947 . S
H370 C393 0.948 . S
H371 C399 0.982 . S
H372 C400 0.979 . S
H373 C400 0.980 . S
H374 C400 0.983 . S
H375 C399 0.979 . S
H376 C399 0.977 . S
C377 C365 1.453 . S
C377 H406 0.982 . S
C377 H407 0.979 . S
C377 H408 0.977 . S
C378 C365 1.684 . S
C378 H403 0.979 . S
C378 H404 0.980 . S
C378 H405 0.983 . S
C379 C380 1.391 . S
C379 C384 1.391 . S
C379 H409 0.948 . S
C380 C379 1.391 . S
C380 C381 1.391 . S
C381 C380 1.391 . S
C381 C382 1.392 . S
C381 H410 0.947 . S
C382 C381 1.392 . S
C382 C383 1.419 . S
C382 H411 0.948 . S
C383 C382 1.419 . S
C383 C384 1.391 . S
C383 C387 1.397 . S
C384 C379 1.391 . S
C384 C383 1.391 . S
C384 C385 1.399 . S
C385 C384 1.399 . S
C385 C386 1.396 . S
C385 C388 1.453 . S
C385 C389 1.684 . S
C386 C367 1.723 . S
C386 C385 1.396 . S
C386 C387 1.394 . S
C387 C383 1.397 . S
C387 C386 1.394 . S
C387 C397 1.723 . S
C388 C385 1.453 . S
C388 H412 0.982 . S
C388 H413 0.979 . S
C388 H414 0.977 . S
C389 C385 1.684 . S
C389 H415 0.979 . S
C389 H416 0.980 . S
C389 H417 0.983 . S
C390 H366 0.948 . S
C390 C391 1.391 . S
C390 C395 1.391 . S
C391 C390 1.391 . S
C391 C392 1.391 . S
C392 H369 0.947 . S
C392 C391 1.391 . S
C392 C393 1.392 . S
C393 H370 0.948 . S
C393 C392 1.392 . S
C393 C394 1.419 . S
C394 C393 1.419 . S
C394 C395 1.391 . S
C394 C398 1.397 . S
C395 C390 1.391 . S
C395 C394 1.391 . S
C395 C396 1.399 . S
C396 C395 1.399 . S
C396 C397 1.396 . S
C396 C399 1.453 . S
C396 C400 1.684 . S
C397 C387 1.723 . S
C397 C396 1.396 . S
C397 C398 1.394 . S
C398 C368 1.723 . S
C398 C394 1.397 . S
C398 C397 1.394 . S
C399 H371 0.982 . S
C399 H375 0.979 . S
C399 H376 0.977 . S
C399 C396 1.453 . S
C400 H372 0.979 . S
C400 H373 0.980 . S
C400 H374 0.983 . S
C400 C396 1.684 . S
H401 C419 0.948 . S
H402 C360 0.948 . S
H403 C378 0.979 . S
H404 C378 0.980 . S
H405 C378 0.983 . S
H406 C377 0.982 . S
H407 C377 0.979 . S
H408 C377 0.977 . S
H409 C379 0.948 . S
H410 C381 0.947 . S
H411 C382 0.948 . S
H412 C388 0.982 . S
H413 C388 0.979 . S
H414 C388 0.977 . S
H415 C389 0.979 . S
H416 C389 0.980 . S
H417 C389 0.983 . S
H418 C362 0.947 . S
C419 C362 1.392 . S
C419 C363 1.419 . S
C419 H401 0.948 . S
C420 C421 1.391 . S
C420 C424 1.391 . S
C420 H462 0.948 . S
C421 C420 1.391 . S
C421 C422 1.391 . S
C422 C421 1.391 . S
C422 H478 0.947 . S
C422 C479 1.392 . S
C423 C424 1.391 . S
C423 C427 1.397 . S
C423 C479 1.419 . S
C424 C420 1.391 . S
C424 C423 1.391 . S
C424 C425 1.399 . S
C425 C424 1.399 . S
C425 C428 1.396 . S
C425 C437 1.453 . S
C425 C438 1.684 . S
H426 C450 0.948 . S
C427 C423 1.397 . S
C427 C428 1.394 . S
C427 C446 1.723 . S
C428 C425 1.396 . S
C428 C427 1.394 . S
C428 C458 1.723 . S
H429 C452 0.947 . S
H430 C453 0.948 . S
H431 C459 0.982 . S
H432 C460 0.979 . S
H433 C460 0.980 . S
H434 C460 0.983 . S
H435 C459 0.979 . S
H436 C459 0.977 . S
C437 C425 1.453 . S
C437 H466 0.982 . S
C437 H467 0.979 . S
C437 H468 0.977 . S
C438 C425 1.684 . S
C438 H463 0.979 . S
C438 H464 0.980 . S
C438 H465 0.983 . S
C439 C440 1.391 . S
C439 C444 1.391 . S
C439 H469 0.948 . S
C440 C439 1.391 . S
C440 C441 1.391 . S
C441 C440 1.391 . S
C441 C442 1.392 . S
C441 H470 0.947 . S
C442 C441 1.392 . S
C442 C443 1.419 . S
C442 H471 0.948 . S
C443 C442 1.419 . S
C443 C444 1.391 . S
C443 C447 1.397 . S
C444 C439 1.391 . S
C444 C443 1.391 . S
C444 C445 1.399 . S
C445 C444 1.399 . S
C445 C446 1.396 . S
C445 C448 1.453 . S
C445 C449 1.684 . S
C446 C427 1.723 . S
C446 C445 1.396 . S
C446 C447 1.394 . S
C447 C443 1.397 . S
C447 C446 1.394 . S
C447 C457 1.723 . S
C448 C445 1.453 . S
C448 H472 0.982 . S
C448 H473 0.979 . S
C448 H474 0.977 . S
C449 C445 1.684 . S
C449 H475 0.979 . S
C449 H476 0.980 . S
C449 H477 0.983 . S
C450 H426 0.948 . S
C450 C451 1.391 . S
C450 C455 1.391 . S
C451 C450 1.391 . S
C451 C452 1.391 . S
C452 H429 0.947 . S
C452 C451 1.391 . S
C452 C453 1.392 . S
C453 H430 0.948 . S
C453 C452 1.392 . S
C453 C454 1.419 . S
C454 C453 1.419 . S
C454 C455 1.391 . S
C454 C458 1.397 . S
C455 C450 1.391 . S
C455 C454 1.391 . S
C455 C456 1.399 . S
C456 C455 1.399 . S
C456 C457 1.396 . S
C456 C459 1.453 . S
C456 C460 1.684 . S
C457 C447 1.723 . S
C457 C456 1.396 . S
C457 C458 1.394 . S
C458 C428 1.723 . S
C458 C454 1.397 . S
C458 C457 1.394 . S
C459 H431 0.982 . S
C459 H435 0.979 . S
C459 H436 0.977 . S
C459 C456 1.453 . S
C460 H432 0.979 . S
C460 H433 0.980 . S
C460 H434 0.983 . S
C460 C456 1.684 . S
H461 C479 0.948 . S
H462 C420 0.948 . S
H463 C438 0.979 . S
H464 C438 0.980 . S
H465 C438 0.983 . S
H466 C437 0.982 . S
H467 C437 0.979 . S
H468 C437 0.977 . S
H469 C439 0.948 . S
H470 C441 0.947 . S
H471 C442 0.948 . S
H472 C448 0.982 . S
H473 C448 0.979 . S
H474 C448 0.977 . S
H475 C449 0.979 . S
H476 C449 0.980 . S
H477 C449 0.983 . S
H478 C422 0.947 . S
C479 C422 1.392 . S
C479 C423 1.419 . S
C479 H461 0.948 . S
La480 C482 2.928 . S
La480 O500 2.521 . S
La480 O501 2.628 . S
La480 O502 2.554 1_545 S
La480 O503 2.757 1_545 S
La480 O504 2.470 . S
La480 O509 2.482 1_455 S
La480 O511 2.503 1_445 S
La481 C491 2.928 . S
La481 O503 2.482 1_655 S
La481 O505 2.503 1_665 S
La481 O506 2.521 . S
La481 O507 2.628 . S
La481 O508 2.554 1_565 S
La481 O509 2.757 1_565 S
La481 O510 2.470 . S
C482 La480 2.928 . S
C482 C483 1.503 . S
C482 O500 1.261 . S
C482 O501 1.243 . S
C483 C482 1.503 . S
C483 C484 1.394 . S
C483 C488 1.373 . S
C484 C483 1.394 . S
C484 C485 1.380 . S
C484 H512 0.930 . S
C485 C484 1.380 . S
C485 C486 1.376 . S
C485 H513 0.930 . S
C486 C485 1.376 . S
C486 C487 1.370 . S
C487 C486 1.370 . S
C487 C488 1.396 . S
C487 H514 0.929 . S
C488 C483 1.373 . S
C488 C487 1.396 . S
C488 H515 0.929 . S
C489 O502 1.240 . S
C489 O503 1.289 . S
C490 O504 1.258 . S
C490 O505 1.256 . S
C491 La481 2.928 . S
C491 C492 1.503 . S
C491 O506 1.261 . S
C491 O507 1.243 . S
C492 C491 1.503 . S
C492 C493 1.394 . S
C492 C497 1.373 . S
C493 C492 1.394 . S
C493 C494 1.380 . S
C493 H516 0.930 . S
C494 C493 1.380 . S
C494 C495 1.376 . S
C494 H517 0.930 . S
C495 C494 1.376 . S
C495 C496 1.370 . S
C496 C495 1.370 . S
C496 C497 1.396 . S
C496 H518 0.929 . S
C497 C492 1.373 . S
C497 C496 1.396 . S
C497 H519 0.929 . S
C498 O508 1.240 . S
C498 O509 1.289 . S
C499 O510 1.258 . S
C499 O511 1.256 . S
O500 La480 2.521 . S
O500 C482 1.261 . S
O501 La480 2.628 . S
O501 C482 1.243 . S
O502 La480 2.554 1_565 S
O502 C489 1.240 . S
O503 La480 2.757 1_565 S
O503 La481 2.482 1_455 S
O503 C489 1.289 . S
O504 La480 2.470 . S
O504 C490 1.258 . S
O505 La481 2.503 1_445 S
O505 C490 1.256 . S
O506 La481 2.521 . S
O506 C491 1.261 . S
O507 La481 2.628 . S
O507 C491 1.243 . S
O508 La481 2.554 1_545 S
O508 C498 1.240 . S
O509 La480 2.482 1_655 S
O509 La481 2.757 1_545 S
O509 C498 1.289 . S
O510 La481 2.470 . S
O510 C499 1.258 . S
O511 La480 2.503 1_665 S
O511 C499 1.256 . S
H512 C484 0.930 . S
H513 C485 0.930 . S
H514 C487 0.929 . S
H515 C488 0.929 . S
H516 C493 0.930 . S
H517 C494 0.930 . S
H518 C496 0.929 . S
H519 C497 0.929 . S
La520 C522 2.928 1_565 S
La520 O540 2.521 1_565 S
La520 O541 2.628 1_565 S
La520 O542 2.554 . S
La520 O543 2.757 . S
La520 O544 2.470 1_565 S
La520 O549 2.482 1_564 S
La520 O551 2.503 1_554 S
La521 C531 2.928 1_545 S
La521 O543 2.482 1_546 S
La521 O545 2.503 1_556 S
La521 O546 2.521 1_545 S
La521 O547 2.628 1_545 S
La521 O548 2.554 . S
La521 O549 2.757 . S
La521 O550 2.470 1_545 S
C522 La520 2.928 1_545 S
C522 C523 1.503 . S
C522 O540 1.261 . S
C522 O541 1.243 . S
C523 C522 1.503 . S
C523 C524 1.394 . S
C523 C528 1.373 . S
C524 C523 1.394 . S
C524 C525 1.380 . S
C524 H552 0.930 . S
C525 C524 1.380 . S
C525 C526 1.376 . S
C525 H553 0.930 . S
C526 C525 1.376 . S
C526 C527 1.370 . S
C527 C526 1.370 . S
C527 C528 1.396 . S
C527 H554 0.929 . S
C528 C523 1.373 . S
C528 C527 1.396 . S
C528 H555 0.929 . S
C529 O542 1.240 . S
C529 O543 1.289 . S
C530 O544 1.258 . S
C530 O545 1.256 . S
C531 La521 2.928 1_565 S
C531 C532 1.503 . S
C531 O546 1.261 . S
C531 O547 1.243 . S
C532 C531 1.503 . S
C532 C533 1.394 . S
C532 C537 1.373 . S
C533 C532 1.394 . S
C533 C534 1.380 . S
C533 H556 0.930 . S
C534 C533 1.380 . S
C534 C535 1.376 . S
C534 H557 0.930 . S
C535 C534 1.376 . S
C535 C536 1.370 . S
C536 C535 1.370 . S
C536 C537 1.396 . S
C536 H558 0.929 . S
C537 C532 1.373 . S
C537 C536 1.396 . S
C537 H559 0.929 . S
C538 O548 1.240 . S
C538 O549 1.289 . S
C539 O550 1.258 . S
C539 O551 1.256 . S
O540 La520 2.521 1_545 S
O540 C522 1.261 . S
O541 La520 2.628 1_545 S
O541 C522 1.243 . S
O542 La520 2.554 . S
O542 C529 1.240 . S
O543 La520 2.757 . S
O543 La521 2.482 1_564 S
O543 C529 1.289 . S
O544 La520 2.470 1_545 S
O544 C530 1.258 . S
O545 La521 2.503 1_554 S
O545 C530 1.256 . S
O546 La521 2.521 1_565 S
O546 C531 1.261 . S
O547 La521 2.628 1_565 S
O547 C531 1.243 . S
O548 La521 2.554 . S
O548 C538 1.240 . S
O549 La520 2.482 1_546 S
O549 La521 2.757 . S
O549 C538 1.289 . S
O550 La521 2.470 1_565 S
O550 C539 1.258 . S
O551 La520 2.503 1_556 S
O551 C539 1.256 . S
H552 C524 0.930 . S
H553 C525 0.930 . S
H554 C527 0.929 . S
H555 C528 0.929 . S
H556 C533 0.930 . S
H557 C534 0.930 . S
H558 C536 0.929 . S
H559 C537 0.929 . S
La560 C562 2.928 . S
La560 O580 2.521 . S
La560 O581 2.628 . S
La560 O582 2.554 . S
La560 O583 2.757 . S
La560 O584 2.470 . S
La560 O589 2.482 . S
La560 O591 2.503 . S
La561 C571 2.928 . S
La561 O583 2.482 . S
La561 O585 2.503 . S
La561 O586 2.521 . S
La561 O587 2.628 . S
La561 O588 2.554 . S
La561 O589 2.757 . S
La561 O590 2.470 . S
C562 La560 2.928 . S
C562 C563 1.503 . S
C562 O580 1.261 . S
C562 O581 1.243 . S
C563 C562 1.503 . S
C563 C564 1.394 . S
C563 C568 1.373 . S
C564 C563 1.394 . S
C564 C565 1.380 . S
C564 H592 0.930 . S
C565 C564 1.380 . S
C565 C566 1.376 . S
C565 H593 0.930 . S
C566 C565 1.376 . S
C566 C567 1.370 . S
C567 C566 1.370 . S
C567 C568 1.396 . S
C567 H594 0.929 . S
C568 C563 1.373 . S
C568 C567 1.396 . S
C568 H595 0.929 . S
C569 O582 1.240 . S
C569 O583 1.289 . S
C570 O584 1.258 . S
C570 O585 1.256 . S
C571 La561 2.928 . S
C571 C572 1.503 . S
C571 O586 1.261 . S
C571 O587 1.243 . S
C572 C571 1.503 . S
C572 C573 1.394 . S
C572 C577 1.373 . S
C573 C572 1.394 . S
C573 C574 1.380 . S
C573 H596 0.930 . S
C574 C573 1.380 . S
C574 C575 1.376 . S
C574 H597 0.930 . S
C575 C574 1.376 . S
C575 C576 1.370 . S
C576 C575 1.370 . S
C576 C577 1.396 . S
C576 H598 0.929 . S
C577 C572 1.373 . S
C577 C576 1.396 . S
C577 H599 0.929 . S
C578 O588 1.240 . S
C578 O589 1.289 . S
C579 O590 1.258 . S
C579 O591 1.256 . S
O580 La560 2.521 . S
O580 C562 1.261 . S
O581 La560 2.628 . S
O581 C562 1.243 . S
O582 La560 2.554 . S
O582 C569 1.240 . S
O583 La560 2.757 . S
O583 La561 2.482 . S
O583 C569 1.289 . S
O584 La560 2.470 . S
O584 C570 1.258 . S
O585 La561 2.503 . S
O585 C570 1.256 . S
O586 La561 2.521 . S
O586 C571 1.261 . S
O587 La561 2.628 . S
O587 C571 1.243 . S
O588 La561 2.554 . S
O588 C578 1.240 . S
O589 La560 2.482 . S
O589 La561 2.757 . S
O589 C578 1.289 . S
O590 La561 2.470 . S
O590 C579 1.258 . S
O591 La560 2.503 . S
O591 C579 1.256 . S
H592 C564 0.930 . S
H593 C565 0.930 . S
H594 C567 0.929 . S
H595 C568 0.929 . S
H596 C573 0.930 . S
H597 C574 0.930 . S
H598 C576 0.929 . S
H599 C577 0.929 . S
La600 C602 2.928 . S
La600 O620 2.521 . S
La600 O621 2.628 . S
La600 O622 2.554 1_455 S
La600 O623 2.757 1_455 S
La600 O624 2.470 . S
La600 O629 2.482 1_554 S
La600 O631 2.503 1_454 S
La601 C611 2.928 . S
La601 O623 2.482 1_556 S
La601 O625 2.503 1_656 S
La601 O626 2.521 . S
La601 O627 2.628 . S
La601 O628 2.554 1_655 S
La601 O629 2.757 1_655 S
La601 O630 2.470 . S
C602 La600 2.928 . S
C602 C603 1.503 . S
C602 O620 1.261 . S
C602 O621 1.243 . S
C603 C602 1.503 . S
C603 C604 1.394 . S
C603 C608 1.373 . S
C604 C603 1.394 . S
C604 C605 1.380 . S
C604 H632 0.930 . S
C605 C604 1.380 . S
C605 C606 1.376 . S
C605 H633 0.930 . S
C606 C605 1.376 . S
C606 C607 1.370 . S
C607 C606 1.370 . S
C607 C608 1.396 . S
C607 H634 0.929 . S
C608 C603 1.373 . S
C608 C607 1.396 . S
C608 H635 0.929 . S
C609 O622 1.240 . S
C609 O623 1.289 . S
C610 O624 1.258 . S
C610 O625 1.256 . S
C611 La601 2.928 . S
C611 C612 1.503 . S
C611 O626 1.261 . S
C611 O627 1.243 . S
C612 C611 1.503 . S
C612 C613 1.394 . S
C612 C617 1.373 . S
C613 C612 1.394 . S
C613 C614 1.380 . S
C613 H636 0.930 . S
C614 C613 1.380 . S
C614 C615 1.376 . S
C614 H637 0.930 . S
C615 C614 1.376 . S
C615 C616 1.370 . S
C616 C615 1.370 . S
C616 C617 1.396 . S
C616 H638 0.929 . S
C617 C612 1.373 . S
C617 C616 1.396 . S
C617 H639 0.929 . S
C618 O628 1.240 . S
C618 O629 1.289 . S
C619 O630 1.258 . S
C619 O631 1.256 . S
O620 La600 2.521 . S
O620 C602 1.261 . S
O621 La600 2.628 . S
O621 C602 1.243 . S
O622 La600 2.554 1_655 S
O622 C609 1.240 . S
O623 La600 2.757 1_655 S
O623 La601 2.482 1_554 S
O623 C609 1.289 . S
O624 La600 2.470 . S
O624 C610 1.258 . S
O625 La601 2.503 1_454 S
O625 C610 1.256 . S
O626 La601 2.521 . S
O626 C611 1.261 . S
O627 La601 2.628 . S
O627 C611 1.243 . S
O628 La601 2.554 1_455 S
O628 C618 1.240 . S
O629 La600 2.482 1_556 S
O629 La601 2.757 1_455 S
O629 C618 1.289 . S
O630 La601 2.470 . S
O630 C619 1.258 . S
O631 La600 2.503 1_656 S
O631 C619 1.256 . S
H632 C604 0.930 . S
H633 C605 0.930 . S
H634 C607 0.929 . S
H635 C608 0.929 . S
H636 C613 0.930 . S
H637 C614 0.930 . S
H638 C616 0.929 . S
H639 C617 0.929 . S
C1 C486 1.897 . S
C80 C535 1.562 . S
C570 C140 3.579 . S
C211 C609 3.606 . S
C530 C31 4.310 . S
C489 C61 1.502 . S
C619 C151 2.443 . S
C578 C200 2.362 . S
C20 C606 3.027 . S
C538 C121 3.366 . S
C181 C499 3.235 . S
C91 C575 2.799 . S
C495 C260 2.195 . S
C320 C526 1.562 . S
C361 C579 3.579 . S
C451 C618 3.606 . S
C271 C539 4.460 . S
C498 C301 1.502 . S
C610 C380 2.396 . S
C569 C440 2.362 . S
C241 C615 2.705 . S
C529 C391 3.370 . S
C490 C421 3.235 . S
C331 C566 2.800 . S
