# Generated by pormake.
# Topology ssb, (4,4)-cn, num edge types: 1
# Building blocks:
#     Node 0, Type 0, BuildingBlock: MUDLON_clean_linker_0, # of connection points: 4
#     Node 1, Type 0, BuildingBlock: MUDLON_clean_linker_0, # of connection points: 4
#     Node 2, Type 0, BuildingBlock: MUDLON_clean_linker_0, # of connection points: 4
#     Node 3, Type 0, BuildingBlock: MUDLON_clean_linker_0, # of connection points: 4
#     Node 4, Type 0, BuildingBlock: MUDLON_clean_linker_0, # of connection points: 4
#     Node 5, Type 0, BuildingBlock: MUDLON_clean_linker_0, # of connection points: 4
#     Node 6, Type 0, BuildingBlock: MUDLON_clean_linker_0, # of connection points: 4
#     Node 7, Type 0, BuildingBlock: MUDLON_clean_linker_0, # of connection points: 4
#     Node 8, Type 1, BuildingBlock: KOZSID_clean_sbu_0, # of connection points: 4
#     Node 9, Type 1, BuildingBlock: KOZSID_clean_sbu_0, # of connection points: 4
#     Node 10, Type 1, BuildingBlock: KOZSID_clean_sbu_0, # of connection points: 4
#     Node 11, Type 1, BuildingBlock: KOZSID_clean_sbu_0, # of connection points: 4
#     Node 12, Type 1, BuildingBlock: KOZSID_clean_sbu_0, # of connection points: 4
#     Node 13, Type 1, BuildingBlock: KOZSID_clean_sbu_0, # of connection points: 4
#     Node 14, Type 1, BuildingBlock: KOZSID_clean_sbu_0, # of connection points: 4
#     Node 15, Type 1, BuildingBlock: KOZSID_clean_sbu_0, # of connection points: 4
#     Edge 16, Type (0, 1), BuildingBlock: AJUNOK_clean_linker_0, # of connection points: 2
#     Edge 17, Type (0, 1), BuildingBlock: AJUNOK_clean_linker_0, # of connection points: 2
#     Edge 18, Type (0, 1), BuildingBlock: AJUNOK_clean_linker_0, # of connection points: 2
#     Edge 19, Type (0, 1), BuildingBlock: AJUNOK_clean_linker_0, # of connection points: 2
#     Edge 20, Type (0, 1), BuildingBlock: AJUNOK_clean_linker_0, # of connection points: 2
#     Edge 21, Type (0, 1), BuildingBlock: AJUNOK_clean_linker_0, # of connection points: 2
#     Edge 22, Type (0, 1), BuildingBlock: AJUNOK_clean_linker_0, # of connection points: 2
#     Edge 23, Type (0, 1), BuildingBlock: AJUNOK_clean_linker_0, # of connection points: 2
#     Edge 24, Type (0, 1), BuildingBlock: AJUNOK_clean_linker_0, # of connection points: 2
#     Edge 25, Type (0, 1), BuildingBlock: AJUNOK_clean_linker_0, # of connection points: 2
#     Edge 26, Type (0, 1), BuildingBlock: AJUNOK_clean_linker_0, # of connection points: 2
#     Edge 27, Type (0, 1), BuildingBlock: AJUNOK_clean_linker_0, # of connection points: 2
#     Edge 28, Type (0, 1), BuildingBlock: AJUNOK_clean_linker_0, # of connection points: 2
#     Edge 29, Type (0, 1), BuildingBlock: AJUNOK_clean_linker_0, # of connection points: 2
#     Edge 30, Type (0, 1), BuildingBlock: AJUNOK_clean_linker_0, # of connection points: 2
#     Edge 31, Type (0, 1), BuildingBlock: AJUNOK_clean_linker_0, # of connection points: 2
#     Edge 32, Type (0, 1), BuildingBlock: AJUNOK_clean_linker_0, # of connection points: 2
#     Edge 33, Type (0, 1), BuildingBlock: AJUNOK_clean_linker_0, # of connection points: 2
#     Edge 34, Type (0, 1), BuildingBlock: AJUNOK_clean_linker_0, # of connection points: 2
#     Edge 35, Type (0, 1), BuildingBlock: AJUNOK_clean_linker_0, # of connection points: 2
#     Edge 36, Type (0, 1), BuildingBlock: AJUNOK_clean_linker_0, # of connection points: 2
#     Edge 37, Type (0, 1), BuildingBlock: AJUNOK_clean_linker_0, # of connection points: 2
#     Edge 38, Type (0, 1), BuildingBlock: AJUNOK_clean_linker_0, # of connection points: 2
#     Edge 39, Type (0, 1), BuildingBlock: AJUNOK_clean_linker_0, # of connection points: 2
#     Edge 40, Type (0, 1), BuildingBlock: AJUNOK_clean_linker_0, # of connection points: 2
#     Edge 41, Type (0, 1), BuildingBlock: AJUNOK_clean_linker_0, # of connection points: 2
#     Edge 42, Type (0, 1), BuildingBlock: AJUNOK_clean_linker_0, # of connection points: 2
#     Edge 43, Type (0, 1), BuildingBlock: AJUNOK_clean_linker_0, # of connection points: 2
#     Edge 44, Type (0, 1), BuildingBlock: AJUNOK_clean_linker_0, # of connection points: 2
#     Edge 45, Type (0, 1), BuildingBlock: AJUNOK_clean_linker_0, # of connection points: 2
#     Edge 46, Type (0, 1), BuildingBlock: AJUNOK_clean_linker_0, # of connection points: 2
#     Edge 47, Type (0, 1), BuildingBlock: AJUNOK_clean_linker_0, # of connection points: 2
# Relax obj value: 0.004
# Max RMSD: 0.063
# Mean RMSD: 0.026
data_MOF--net-ssb--node1-KOZSID_clean_sbu_0--node2-MUDLON_clean_linker_0--edge1-AJUNOK_clean_linker_0
_symmetry_space_group_name_H-M    P1
_symmetry_Int_Tables_number       1
_symmetry_cell_setting            triclinic
loop_
_symmetry_equiv_pos_as_xyz
'x, y, z'
_cell_length_a     57.333412
_cell_length_b     57.276194
_cell_length_c     42.263811
_cell_angle_alpha  92.646282
_cell_angle_beta   95.188996
_cell_angle_gamma 89.966631
loop_
_atom_site_label
_atom_site_type_symbol
_atom_site_fract_x
_atom_site_fract_y
_atom_site_fract_z
_atom_type_partial_charge
H0 H 0.30335 0.31579 0.16799 0.0
N1 N 0.32453 0.31365 0.22871 0.0
H2 H 0.29299 0.35138 0.14058 0.0
H3 H 0.32043 0.35635 0.2554 0.0
H4 H 0.30834 0.39204 0.22866 0.0
H5 H 0.36934 0.32585 0.23879 0.0
H6 H 0.40134 0.31388 0.20686 0.0
H7 H 0.32215 0.27927 0.1814 0.0
H8 H 0.35403 0.26755 0.14881 0.0
H9 H 0.27986 0.29748 0.21088 0.0
H10 H 0.33779 0.29355 0.28276 0.0
H11 H 0.25672 0.27223 0.24091 0.0
H12 H 0.31551 0.26692 0.31198 0.0
H13 H 0.18488 0.1904 0.34123 0.0
H14 H 0.15018 0.20403 0.36616 0.0
H15 H 0.18964 0.26296 0.41027 0.0
H16 H 0.22445 0.2487 0.38629 0.0
H17 H 0.23699 0.2085 0.4147 0.0
H18 H 0.24653 0.1747 0.44595 0.0
H19 H 0.2554 0.13333 0.35969 0.0
H20 H 0.24339 0.1669 0.32839 0.0
H21 H 0.22631 0.21071 0.2871 0.0
H22 H 0.25011 0.23511 0.25662 0.0
H23 H 0.28584 0.26358 0.34457 0.0
N24 N 0.22791 0.20805 0.34981 0.0
H25 H 0.26301 0.23768 0.3744 0.0
C26 C 0.31329 0.33345 0.21374 0.0
C27 C 0.30443 0.3323 0.18152 0.0
C28 C 0.29833 0.35274 0.16585 0.0
C29 C 0.30056 0.37473 0.18212 0.0
C30 C 0.30735 0.37554 0.21503 0.0
C31 C 0.31389 0.35513 0.23052 0.0
C32 C 0.34343 0.30361 0.21235 0.0
C33 C 0.36604 0.31274 0.21961 0.0
C34 C 0.38424 0.30591 0.20138 0.0
C35 C 0.38006 0.28999 0.1752 0.0
C36 C 0.35761 0.28005 0.16866 0.0
C37 C 0.33945 0.28668 0.18727 0.0
C38 C 0.31055 0.29775 0.24482 0.0
C39 C 0.28771 0.29105 0.23302 0.0
C40 C 0.27453 0.27629 0.25022 0.0
C41 C 0.28402 0.2674 0.27925 0.0
C42 C 0.30718 0.27372 0.29034 0.0
C43 C 0.32012 0.2888 0.27346 0.0
C44 C 0.2072 0.21858 0.36138 0.0
C45 C 0.18587 0.20652 0.35573 0.0
C46 C 0.16604 0.21442 0.36989 0.0
C47 C 0.16703 0.23481 0.38987 0.0
C48 C 0.1883 0.24723 0.39497 0.0
C49 C 0.20821 0.23919 0.38096 0.0
C50 C 0.23898 0.19015 0.36898 0.0
C51 C 0.24122 0.19227 0.40243 0.0
C52 C 0.24707 0.17283 0.42044 0.0
C53 C 0.25181 0.15104 0.40552 0.0
C54 C 0.25144 0.14961 0.3721 0.0
C55 C 0.24488 0.16887 0.3541 0.0
C56 C 0.2427 0.22254 0.33291 0.0
C57 C 0.23943 0.22215 0.29965 0.0
C58 C 0.25294 0.23637 0.2823 0.0
C59 C 0.26993 0.25172 0.29788 0.0
C60 C 0.27325 0.25189 0.33145 0.0
C61 C 0.25998 0.23728 0.34872 0.0
H62 H 0.70859 0.37902 0.25256 0.0
N63 N 0.70509 0.33334 0.23973 0.0
H64 H 0.7225 0.40866 0.21859 0.0
H65 H 0.72614 0.32481 0.18466 0.0
H66 H 0.74098 0.3541 0.15147 0.0
H67 H 0.70372 0.29298 0.20224 0.0
H68 H 0.6692 0.277 0.16978 0.0
H69 H 0.66128 0.34766 0.24035 0.0
H70 H 0.62678 0.33188 0.20811 0.0
H71 H 0.69907 0.32982 0.30056 0.0
H72 H 0.74414 0.30725 0.22889 0.0
H73 H 0.72382 0.30956 0.34051 0.0
H74 H 0.76976 0.28814 0.26882 0.0
H75 H 0.82342 0.24871 0.46552 0.0
H76 H 0.86512 0.25175 0.48209 0.0
H77 H 0.87849 0.26722 0.38619 0.0
H78 H 0.83694 0.26194 0.36922 0.0
H79 H 0.82674 0.21219 0.38686 0.0
H80 H 0.81778 0.17153 0.39521 0.0
H81 H 0.7533 0.19281 0.43371 0.0
H82 H 0.76352 0.23377 0.42775 0.0
H83 H 0.78288 0.29222 0.41184 0.0
H84 H 0.76048 0.31286 0.36992 0.0
H85 H 0.77343 0.25632 0.30234 0.0
N86 N 0.80243 0.2504 0.40728 0.0
H87 H 0.79697 0.23664 0.34409 0.0
C88 C 0.71626 0.34981 0.22122 0.0
C89 C 0.71595 0.37353 0.23071 0.0
C90 C 0.72397 0.39036 0.21138 0.0
C91 C 0.7325 0.38367 0.18218 0.0
C92 C 0.73403 0.35977 0.17353 0.0
C93 C 0.72576 0.34298 0.1927 0.0
C94 C 0.68494 0.32155 0.22367 0.0
C95 C 0.68692 0.30131 0.20401 0.0
C96 C 0.66723 0.29221 0.1855 0.0
C97 C 0.6453 0.30308 0.18668 0.0
C98 C 0.64332 0.32282 0.20724 0.0
C99 C 0.66297 0.33192 0.22552 0.0
C100 C 0.71983 0.32036 0.26194 0.0
C101 C 0.71442 0.32059 0.29355 0.0
C102 C 0.72877 0.30922 0.31636 0.0
C103 C 0.74909 0.29752 0.30807 0.0
C104 C 0.75422 0.29686 0.27609 0.0
C105 C 0.73963 0.30801 0.25317 0.0
C106 C 0.82688 0.25544 0.41638 0.0
C107 C 0.83534 0.25309 0.44821 0.0
C108 C 0.85921 0.25511 0.45768 0.0
C109 C 0.87521 0.26035 0.43567 0.0
C110 C 0.86667 0.26319 0.40378 0.0
C111 C 0.84279 0.26044 0.39409 0.0
C112 C 0.79604 0.22605 0.40761 0.0
C113 C 0.81065 0.20812 0.39703 0.0
C114 C 0.80526 0.18477 0.40129 0.0
C115 C 0.78475 0.17885 0.41508 0.0
C116 C 0.76939 0.19679 0.42346 0.0
C117 C 0.77511 0.22016 0.41998 0.0
C118 C 0.79121 0.26284 0.38125 0.0
C119 C 0.78109 0.28453 0.38785 0.0
C120 C 0.76808 0.29611 0.3639 0.0
C121 C 0.76467 0.28604 0.3328 0.0
C122 C 0.7757 0.26467 0.32593 0.0
C123 C 0.78903 0.25326 0.34986 0.0
H124 H 0.82902 0.8252 0.40735 0.0
N125 N 0.81898 0.83003 0.34298 0.0
H126 H 0.86608 0.81345 0.43382 0.0
H127 H 0.85578 0.81218 0.31606 0.0
H128 H 0.89245 0.79796 0.34253 0.0
H129 H 0.83169 0.87421 0.33809 0.0
H130 H 0.81914 0.9087 0.36848 0.0
H131 H 0.7845 0.8311 0.38381 0.0
H132 H 0.77155 0.86565 0.41415 0.0
H133 H 0.80489 0.7871 0.36042 0.0
H134 H 0.79627 0.83636 0.28635 0.0
H135 H 0.78081 0.75872 0.32737 0.0
H136 H 0.77062 0.80892 0.25392 0.0
H137 H 0.69748 0.67302 0.21235 0.0
H138 H 0.70815 0.63694 0.18374 0.0
H139 H 0.76447 0.67355 0.14592 0.0
H140 H 0.75349 0.70954 0.17402 0.0
H141 H 0.71165 0.71989 0.14368 0.0
H142 H 0.67738 0.73241 0.11113 0.0
H143 H 0.64342 0.75107 0.19599 0.0
H144 H 0.67711 0.73601 0.22846 0.0
H145 H 0.72067 0.71884 0.27161 0.0
H146 H 0.7444 0.74703 0.30559 0.0
H147 H 0.76964 0.77552 0.22185 0.0
N148 N 0.71521 0.71551 0.20852 0.0
H149 H 0.74429 0.74842 0.18833 0.0
C150 C 0.83969 0.82018 0.35946 0.0
C151 C 0.84267 0.81937 0.39284 0.0
C152 C 0.86392 0.8121 0.4081 0.0
C153 C 0.8824 0.80445 0.39044 0.0
C154 C 0.87881 0.80401 0.357 0.0
C155 C 0.85781 0.81198 0.34178 0.0
C156 C 0.80905 0.85017 0.35862 0.0
C157 C 0.8183 0.87231 0.35431 0.0
C158 C 0.81109 0.89196 0.37166 0.0
C159 C 0.7945 0.88987 0.39393 0.0
C160 C 0.78461 0.86776 0.39752 0.0
C161 C 0.7918 0.84806 0.37999 0.0
C162 C 0.8027 0.81379 0.32559 0.0
C163 C 0.79752 0.79193 0.33716 0.0
C164 C 0.78349 0.77574 0.31818 0.0
C165 C 0.77378 0.78121 0.28751 0.0
C166 C 0.77823 0.80358 0.27681 0.0
C167 C 0.79265 0.81952 0.29551 0.0
C168 C 0.7246 0.69403 0.19555 0.0
C169 C 0.71242 0.67312 0.1984 0.0
C170 C 0.71852 0.65256 0.18201 0.0
C171 C 0.73694 0.65249 0.16219 0.0
C172 C 0.74991 0.67317 0.16052 0.0
C173 C 0.7438 0.69376 0.17697 0.0
C174 C 0.69679 0.72642 0.18873 0.0
C175 C 0.69692 0.72665 0.15545 0.0
C176 C 0.6773 0.73432 0.13671 0.0
C177 C 0.65748 0.74298 0.15078 0.0
C178 C 0.65813 0.74419 0.18421 0.0
C179 C 0.67745 0.73578 0.20287 0.0
C180 C 0.73103 0.73121 0.22757 0.0
C181 C 0.73149 0.73112 0.26074 0.0
C182 C 0.74523 0.74725 0.28013 0.0
C183 C 0.75921 0.76374 0.26676 0.0
C184 C 0.75892 0.76349 0.23328 0.0
C185 C 0.74475 0.74764 0.21392 0.0
H186 H 0.313 0.74521 0.08334 0.0
N187 N 0.2975 0.73964 0.13955 0.0
H188 H 0.35325 0.75255 0.07164 0.0
H189 H 0.33474 0.75022 0.18377 0.0
H190 H 0.37471 0.75874 0.17236 0.0
H191 H 0.3204 0.70686 0.17559 0.0
H192 H 0.31715 0.66442 0.16649 0.0
H193 H 0.2673 0.71647 0.09847 0.0
H194 H 0.26364 0.67397 0.08949 0.0
H195 H 0.26483 0.77098 0.12526 0.0
H196 H 0.30088 0.73732 0.2045 0.0
H197 H 0.24115 0.79289 0.16141 0.0
H198 H 0.27858 0.76029 0.24121 0.0
H199 H 0.18428 0.87503 0.29273 0.0
H200 H 0.2001 0.90754 0.32751 0.0
H201 H 0.26072 0.86602 0.35592 0.0
H202 H 0.24419 0.83317 0.32191 0.0
H203 H 0.21122 0.81125 0.34397 0.0
H204 H 0.18252 0.79936 0.37952 0.0
H205 H 0.12647 0.81616 0.30914 0.0
H206 H 0.15539 0.82782 0.27337 0.0
H207 H 0.21701 0.84525 0.23386 0.0
H208 H 0.24177 0.82353 0.19907 0.0
H209 H 0.24193 0.76506 0.26034 0.0
N210 N 0.20137 0.83219 0.28736 0.0
H211 H 0.2186 0.78743 0.29592 0.0
C212 C 0.32072 0.74726 0.13427 0.0
C213 C 0.32637 0.74845 0.10284 0.0
C214 C 0.34936 0.75267 0.09626 0.0
C215 C 0.36726 0.75594 0.12108 0.0
C216 C 0.36143 0.75571 0.15269 0.0
C217 C 0.33842 0.75116 0.15926 0.0
C218 C 0.29399 0.71475 0.13763 0.0
C219 C 0.30765 0.69982 0.15721 0.0
C220 C 0.30573 0.67558 0.15204 0.0
C221 C 0.29009 0.66594 0.12733 0.0
C222 C 0.27591 0.68095 0.10858 0.0
C223 C 0.27786 0.70513 0.11376 0.0
C224 C 0.28482 0.75287 0.16211 0.0
C225 C 0.26789 0.76869 0.15059 0.0
C226 C 0.25451 0.78131 0.1714 0.0
C227 C 0.25802 0.77864 0.20445 0.0
C228 C 0.27513 0.7627 0.21597 0.0
C229 C 0.28822 0.74975 0.19498 0.0
C230 C 0.21307 0.85184 0.30451 0.0
C231 C 0.20121 0.87317 0.30595 0.0
C232 C 0.21039 0.89176 0.32567 0.0
C233 C 0.23187 0.88949 0.34411 0.0
C234 C 0.24415 0.86829 0.34194 0.0
C235 C 0.23481 0.84957 0.32238 0.0
C236 C 0.18538 0.8205 0.30592 0.0
C237 C 0.19281 0.81184 0.33581 0.0
C238 C 0.1764 0.80523 0.35622 0.0
C239 C 0.15232 0.80731 0.34726 0.0
C240 C 0.14495 0.81441 0.3166 0.0
C241 C 0.16139 0.82101 0.29616 0.0
C242 C 0.21565 0.81814 0.2674 0.0
C243 C 0.22248 0.82776 0.23977 0.0
C244 C 0.2365 0.81518 0.21977 0.0
C245 C 0.24377 0.79234 0.22658 0.0
C246 C 0.237 0.78269 0.25444 0.0
C247 C 0.22331 0.7955 0.27481 0.0
H248 H 0.20481 0.8794 0.71578 0.0
N249 N 0.21982 0.83575 0.70887 0.0
H250 H 0.21624 0.91347 0.68774 0.0
H251 H 0.25668 0.8379 0.67162 0.0
H252 H 0.26839 0.87191 0.64387 0.0
H253 H 0.21268 0.83058 0.64349 0.0
H254 H 0.17707 0.81713 0.61292 0.0
H255 H 0.18317 0.81491 0.73046 0.0
H256 H 0.14828 0.79881 0.69959 0.0
H257 H 0.22633 0.83547 0.77184 0.0
H258 H 0.24682 0.80043 0.68652 0.0
H259 H 0.24873 0.80752 0.80412 0.0
H260 H 0.27091 0.77345 0.71835 0.0
H261 H 0.33115 0.72917 0.9 0.0
H262 H 0.36924 0.74101 0.9246 0.0
H263 H 0.39255 0.75173 0.83187 0.0
H264 H 0.35479 0.73723 0.80706 0.0
H265 H 0.32747 0.67642 0.82765 0.0
H266 H 0.31507 0.64452 0.85916 0.0
H267 H 0.27427 0.69325 0.91207 0.0
H268 H 0.28661 0.72512 0.88011 0.0
H269 H 0.30716 0.76613 0.85581 0.0
H270 H 0.28446 0.79444 0.82465 0.0
H271 H 0.27 0.74152 0.74896 0.0
N272 N 0.31854 0.72172 0.8357 0.0
H273 H 0.29431 0.71401 0.77951 0.0
C274 C 0.22991 0.85611 0.69618 0.0
C275 C 0.21913 0.87782 0.70078 0.0
C276 C 0.22573 0.89727 0.68478 0.0
C277 C 0.24335 0.89543 0.66373 0.0
C278 C 0.25476 0.87387 0.65995 0.0
C279 C 0.2482 0.85441 0.67609 0.0
C280 C 0.20041 0.82459 0.68964 0.0
C281 C 0.19873 0.82397 0.65616 0.0
C282 C 0.17828 0.81591 0.6385 0.0
C283 C 0.15932 0.80749 0.6537 0.0
C284 C 0.16193 0.80624 0.68703 0.0
C285 C 0.18205 0.81508 0.70475 0.0
C286 C 0.23527 0.82035 0.72691 0.0
C287 C 0.23625 0.82205 0.76016 0.0
C288 C 0.24921 0.80604 0.77857 0.0
C289 C 0.26186 0.78801 0.76412 0.0
C290 C 0.26116 0.7867 0.73058 0.0
C291 C 0.24776 0.80247 0.71219 0.0
C292 C 0.34019 0.73139 0.85133 0.0
C293 C 0.34439 0.73365 0.88469 0.0
C294 C 0.36631 0.74085 0.89892 0.0
C295 C 0.3844 0.74679 0.88032 0.0
C296 C 0.37954 0.74625 0.84703 0.0
C297 C 0.35783 0.73829 0.83275 0.0
C298 C 0.30804 0.70307 0.85153 0.0
C299 C 0.31544 0.6801 0.84556 0.0
C300 C 0.30836 0.66194 0.86358 0.0
C301 C 0.29391 0.66646 0.88827 0.0
C302 C 0.28563 0.68934 0.8934 0.0
C303 C 0.29249 0.70749 0.87502 0.0
C304 C 0.30274 0.73798 0.81973 0.0
C305 C 0.2991 0.76066 0.83249 0.0
C306 C 0.28589 0.77684 0.81458 0.0
C307 C 0.27545 0.77058 0.78381 0.0
C308 C 0.27825 0.74743 0.77196 0.0
C309 C 0.29187 0.73147 0.7896 0.0
H310 H 0.32935 0.32172 0.96423 0.0
N311 N 0.30276 0.30741 0.91082 0.0
H312 H 0.37035 0.31344 0.97891 0.0
H313 H 0.33086 0.27479 0.88115 0.0
H314 H 0.37168 0.26649 0.89633 0.0
H315 H 0.32677 0.34468 0.89135 0.0
H316 H 0.32074 0.38586 0.906 0.0
H317 H 0.26883 0.32555 0.94321 0.0
H318 H 0.26243 0.36692 0.9576 0.0
H319 H 0.26391 0.28203 0.89953 0.0
H320 H 0.31773 0.31506 0.8523 0.0
H321 H 0.2446 0.26843 0.84809 0.0
H322 H 0.29955 0.30046 0.80098 0.0
H323 H 0.20687 0.20699 0.70841 0.0
H324 H 0.21313 0.1664 0.69059 0.0
H325 H 0.2785 0.18605 0.6559 0.0
H326 H 0.27207 0.2269 0.67355 0.0
H327 H 0.2207 0.24635 0.63575 0.0
H328 H 0.18124 0.25038 0.61042 0.0
H329 H 0.15539 0.26245 0.70276 0.0
H330 H 0.19461 0.25585 0.72802 0.0
H331 H 0.23092 0.22529 0.75532 0.0
H332 H 0.24736 0.24128 0.80657 0.0
H333 H 0.26873 0.30337 0.76205 0.0
N334 N 0.23393 0.24452 0.69727 0.0
H335 H 0.25367 0.28621 0.71021 0.0
C336 C 0.32696 0.3007 0.91992 0.0
C337 C 0.33842 0.30998 0.94872 0.0
C338 C 0.36188 0.30501 0.95742 0.0
C339 C 0.37446 0.29 0.9381 0.0
C340 C 0.36268 0.27899 0.91088 0.0
C341 C 0.33916 0.284 0.90207 0.0
C342 C 0.29824 0.33201 0.9164 0.0
C343 C 0.31243 0.34938 0.90532 0.0
C344 C 0.30902 0.37291 0.91378 0.0
C345 C 0.29137 0.37952 0.93336 0.0
C346 C 0.27652 0.36225 0.94312 0.0
C347 C 0.28 0.3387 0.93475 0.0
C348 C 0.29238 0.2992 0.87987 0.0
C349 C 0.27168 0.28608 0.878 0.0
C350 C 0.26077 0.27822 0.84852 0.0
C351 C 0.27054 0.2831 0.82012 0.0
C352 C 0.29119 0.29662 0.82211 0.0
C353 C 0.30179 0.30488 0.85158 0.0
C354 C 0.23896 0.22002 0.6919 0.0
C355 C 0.22277 0.20255 0.69752 0.0
C356 C 0.22632 0.17941 0.68736 0.0
C357 C 0.24616 0.17332 0.67169 0.0
C358 C 0.26311 0.19042 0.66803 0.0
C359 C 0.25945 0.21365 0.67799 0.0
C360 C 0.21089 0.25105 0.6837 0.0
C361 C 0.20657 0.25026 0.65049 0.0
C362 C 0.18393 0.25285 0.63603 0.0
C363 C 0.16502 0.25732 0.65443 0.0
C364 C 0.16947 0.25895 0.6878 0.0
C365 C 0.19206 0.25549 0.70233 0.0
C366 C 0.24158 0.25435 0.7286 0.0
C367 C 0.23929 0.24223 0.75638 0.0
C368 C 0.24849 0.25163 0.78598 0.0
C369 C 0.25966 0.27363 0.78871 0.0
C370 C 0.26089 0.28613 0.76097 0.0
C371 C 0.25209 0.27649 0.7313 0.0
H372 H 0.81821 0.23486 0.65215 0.0
N373 N 0.82065 0.21868 0.71236 0.0
H374 H 0.85125 0.24757 0.62428 0.0
H375 H 0.86454 0.22615 0.73686 0.0
H376 H 0.89774 0.2389 0.70908 0.0
H377 H 0.83648 0.17608 0.72376 0.0
H378 H 0.82499 0.1394 0.69445 0.0
H379 H 0.78429 0.21301 0.66597 0.0
H380 H 0.77259 0.17628 0.63641 0.0
H381 H 0.79452 0.25555 0.68989 0.0
H382 H 0.81156 0.21546 0.77247 0.0
H383 H 0.77031 0.28157 0.72052 0.0
H384 H 0.78652 0.24062 0.80308 0.0
H385 H 0.71348 0.36798 0.81809 0.0
H386 H 0.72304 0.40445 0.84906 0.0
H387 H 0.75546 0.36492 0.92566 0.0
H388 H 0.74504 0.32869 0.8952 0.0
H389 H 0.723 0.29353 0.88483 0.0
H390 H 0.69134 0.28104 0.91568 0.0
H391 H 0.64158 0.31922 0.8553 0.0
H392 H 0.67338 0.33192 0.82486 0.0
H393 H 0.71151 0.31151 0.77629 0.0
H394 H 0.73517 0.2853 0.74499 0.0
H395 H 0.78421 0.27791 0.82782 0.0
N396 N 0.71894 0.32467 0.8374 0.0
H397 H 0.7599 0.30313 0.859 0.0
C398 C 0.83894 0.2295 0.69671 0.0
C399 C 0.83538 0.2361 0.66499 0.0
C400 C 0.8543 0.2433 0.64902 0.0
C401 C 0.87706 0.24431 0.66453 0.0
C402 C 0.88036 0.23869 0.69665 0.0
C403 C 0.86147 0.23134 0.71252 0.0
C404 C 0.81124 0.1972 0.69718 0.0
C405 C 0.82218 0.17613 0.70516 0.0
C406 C 0.81553 0.1552 0.68846 0.0
C407 C 0.79772 0.1549 0.66329 0.0
C408 C 0.78636 0.17598 0.6557 0.0
C409 C 0.79297 0.19696 0.67261 0.0
C410 C 0.8051 0.23365 0.72905 0.0
C411 C 0.79292 0.25222 0.71457 0.0
C412 C 0.77888 0.26703 0.73219 0.0
C413 C 0.77646 0.26344 0.76455 0.0
C414 C 0.78828 0.24441 0.77855 0.0
C415 C 0.80245 0.22981 0.76102 0.0
C416 C 0.72879 0.34555 0.85389 0.0
C417 C 0.72322 0.36725 0.84121 0.0
C418 C 0.72877 0.38808 0.85894 0.0
C419 C 0.74022 0.38765 0.8898 0.0
C420 C 0.74661 0.36588 0.90201 0.0
C421 C 0.74089 0.34506 0.88434 0.0
C422 C 0.70051 0.31385 0.85266 0.0
C423 C 0.70527 0.29899 0.878 0.0
C424 C 0.68719 0.29192 0.89566 0.0
C425 C 0.66407 0.2994 0.88807 0.0
C426 C 0.65921 0.31315 0.86162 0.0
C427 C 0.6773 0.32039 0.84422 0.0
C428 C 0.7339 0.30955 0.8199 0.0
C429 C 0.7274 0.3042 0.7876 0.0
C430 C 0.74108 0.28931 0.76969 0.0
C431 C 0.76179 0.27941 0.78367 0.0
C432 C 0.76827 0.28484 0.81619 0.0
C433 C 0.75442 0.29958 0.83414 0.0
H434 H 0.77839 0.80811 0.61323 0.0
N435 N 0.80616 0.79202 0.66081 0.0
H436 H 0.77252 0.84917 0.6001 0.0
H437 H 0.82137 0.83012 0.69834 0.0
H438 H 0.81497 0.87106 0.68582 0.0
H439 H 0.84583 0.79512 0.70173 0.0
H440 H 0.88613 0.79262 0.68617 0.0
H441 H 0.81915 0.77618 0.60544 0.0
H442 H 0.85919 0.77342 0.58979 0.0
H443 H 0.78068 0.75394 0.64665 0.0
H444 H 0.80555 0.80081 0.72505 0.0
H445 H 0.75761 0.73268 0.68175 0.0
H446 H 0.78146 0.78067 0.76004 0.0
H447 H 0.66577 0.68653 0.80024 0.0
H448 H 0.63476 0.70104 0.83185 0.0
H449 H 0.67726 0.76145 0.8634 0.0
H450 H 0.70871 0.74609 0.83302 0.0
H451 H 0.72497 0.707 0.86204 0.0
H452 H 0.73908 0.67459 0.89381 0.0
H453 H 0.73556 0.62918 0.80896 0.0
H454 H 0.71975 0.66147 0.77758 0.0
H455 H 0.69869 0.71566 0.73953 0.0
H456 H 0.72313 0.7378 0.70712 0.0
H457 H 0.77553 0.74625 0.78717 0.0
N458 N 0.7084 0.70396 0.7991 0.0
H459 H 0.75025 0.72529 0.8198 0.0
C460 C 0.79999 0.81608 0.65685 0.0
C461 C 0.78592 0.82182 0.62952 0.0
C462 C 0.78266 0.84513 0.62205 0.0
C463 C 0.79322 0.86305 0.64213 0.0
C464 C 0.80642 0.85744 0.67031 0.0
C465 C 0.80997 0.83406 0.67752 0.0
C466 C 0.82962 0.78587 0.65456 0.0
C467 C 0.84869 0.7898 0.67749 0.0
C468 C 0.87164 0.78832 0.66861 0.0
C469 C 0.87564 0.78299 0.63675 0.0
C470 C 0.85652 0.7777 0.61444 0.0
C471 C 0.83373 0.7791 0.62333 0.0
C472 C 0.7945 0.77906 0.68305 0.0
C473 C 0.78109 0.75962 0.6715 0.0
C474 C 0.76771 0.74772 0.69155 0.0
C475 C 0.76721 0.75525 0.72366 0.0
C476 C 0.78141 0.77433 0.7355 0.0
C477 C 0.7951 0.78603 0.71541 0.0
C478 C 0.68945 0.71517 0.81411 0.0
C479 C 0.66821 0.70307 0.81363 0.0
C480 C 0.65053 0.71142 0.83167 0.0
C481 C 0.65364 0.73226 0.8505 0.0
C482 C 0.67454 0.74504 0.84979 0.0
C483 C 0.69241 0.73646 0.83201 0.0
C484 C 0.72053 0.68637 0.81752 0.0
C485 C 0.72723 0.69011 0.85022 0.0
C486 C 0.73556 0.67159 0.86834 0.0
C487 C 0.7378 0.64915 0.85403 0.0
C488 C 0.73319 0.64605 0.82085 0.0
C489 C 0.72439 0.66447 0.80285 0.0
C490 C 0.72274 0.71851 0.78176 0.0
C491 C 0.71536 0.72254 0.75006 0.0
C492 C 0.7295 0.73496 0.73154 0.0
C493 C 0.7516 0.74341 0.74428 0.0
C494 C 0.75864 0.74006 0.77653 0.0
C495 C 0.74426 0.72789 0.79521 0.0
C496 C 0.05781 0.27814 0.58452 0.0
C497 C 0.06453 0.29958 0.59919 0.0
C498 C 0.05251 0.31626 0.58239 0.0
C499 C 0.03895 0.30407 0.55882 0.0
N500 N 0.04132 0.28064 0.55992 0.0
Co501 Co 0.02406 0.25645 0.53116 0.0
N502 N 0.00724 0.28089 0.5059 0.0
C503 C 0.01191 0.30402 0.50752 0.0
C504 C 0.99747 0.31637 0.48672 0.0
C505 C 0.98249 0.30014 0.47134 0.0
C506 C 0.98863 0.27881 0.48389 0.0
N507 N 0.00513 0.23234 0.50405 0.0
C508 C 0.98545 0.23503 0.48423 0.0
C509 C 0.9759 0.21359 0.4731 0.0
C510 C 0.99 0.19681 0.48649 0.0
C511 C 0.00708 0.20888 0.50525 0.0
N512 N 0.04206 0.23192 0.55521 0.0
C513 C 0.04115 0.20863 0.54837 0.0
C514 C 0.0574 0.1962 0.56638 0.0
C515 C 0.06984 0.21257 0.58537 0.0
C516 C 0.06027 0.23416 0.57804 0.0
N517 N 0.99916 0.2566 0.56074 0.0
C518 C 0.96008 0.25557 0.59652 0.0
C519 C 0.97227 0.23515 0.58945 0.0
C520 C 0.99176 0.23607 0.57198 0.0
C521 C 0.96834 0.2767 0.58647 0.0
C522 C 0.9878 0.27683 0.56864 0.0
N523 N 0.04918 0.25617 0.50112 0.0
C524 C 0.06952 0.2363 0.45984 0.0
C525 C 0.08661 0.25371 0.46185 0.0
C526 C 0.0845 0.27266 0.48333 0.0
C527 C 0.06566 0.27371 0.50227 0.0
C528 C 0.05116 0.23784 0.47938 0.0
H529 H 0.0651 0.2889 0.51776 0.0
H530 H 0.03906 0.22368 0.4764 0.0
H531 H 1.00029 0.21988 0.56712 0.0
H532 H 0.99301 0.29335 0.56068 0.0
C533 C 0.02624 0.31395 0.53306 0.0
C534 C 0.06996 0.25638 0.59176 0.0
C535 C 0.9749 0.25754 0.47673 0.0
C536 C 0.02461 0.19892 0.52528 0.0
H537 H 0.07779 0.30285 0.6188 0.0
H538 H 0.05435 0.33503 0.58592 0.0
H539 H 0.99678 0.33513 0.48464 0.0
H540 H 0.96792 0.30369 0.45413 0.0
H541 H 0.96013 0.21026 0.45754 0.0
H542 H 0.9876 0.17806 0.48374 0.0
H543 H 0.06015 0.17749 0.56539 0.0
H544 H 0.08464 0.20891 0.60209 0.0
H545 H 0.96667 0.21845 0.5972 0.0
H546 H 0.95935 0.29293 0.59132 0.0
H547 H 0.0706 0.22113 0.44374 0.0
H548 H 0.09732 0.28667 0.48547 0.0
C549 C 0.76366 0.05669 0.57555 0.0
C550 C 0.74254 0.06404 0.58617 0.0
C551 C 0.72552 0.05024 0.57026 0.0
C552 C 0.73715 0.03532 0.55088 0.0
N553 N 0.76065 0.03853 0.55374 0.0
Co554 Co 0.78413 0.02139 0.52882 0.0
N555 N 0.75889 0.00258 0.50325 0.0
C556 C 0.73553 0.00421 0.50537 0.0
C557 C 0.72263 0.98846 0.48559 0.0
C558 C 0.7387 0.97579 0.47016 0.0
C559 C 0.76055 0.98459 0.48149 0.0
N560 N 0.80767 0.00415 0.50416 0.0
C561 C 0.80467 0.98601 0.48239 0.0
C562 C 0.82583 0.97854 0.47194 0.0
C563 C 0.84286 0.99217 0.48805 0.0
C564 C 0.8312 0.00712 0.50731 0.0
N565 N 0.80938 0.0403 0.55417 0.0
C566 C 0.83273 0.03886 0.5518 0.0
C567 C 0.84565 0.05464 0.57148 0.0
C568 C 0.82962 0.06721 0.58702 0.0
C569 C 0.80773 0.05835 0.5758 0.0
N570 N 0.78684 0.99685 0.56054 0.0
C571 C 0.79023 0.9568 0.59647 0.0
C572 C 0.81031 0.96787 0.58825 0.0
C573 C 0.80825 0.98797 0.57082 0.0
C574 C 0.76854 0.96695 0.58848 0.0
C575 C 0.76725 0.9869 0.57067 0.0
N576 N 0.78139 0.04589 0.49705 0.0
C577 C 0.79978 0.07434 0.46682 0.0
C578 C 0.77837 0.08536 0.46007 0.0
C579 C 0.75828 0.07556 0.47019 0.0
C580 C 0.76012 0.05565 0.48803 0.0
C581 C 0.8009 0.05475 0.48531 0.0
H582 H 0.7442 0.04899 0.49515 0.0
H583 H 0.81785 0.04766 0.49074 0.0
H584 H 0.82417 0.99551 0.56501 0.0
H585 H 0.75016 0.99337 0.56438 0.0
C586 C 0.72641 0.01943 0.52795 0.0
C587 C 0.78593 0.06828 0.58562 0.0
C588 C 0.78239 0.97461 0.47192 0.0
C589 C 0.8419 0.02335 0.52971 0.0
H590 H 0.73969 0.0783 0.60307 0.0
H591 H 0.70682 0.05147 0.57183 0.0
H592 H 0.70383 0.98597 0.4834 0.0
H593 H 0.73484 0.96134 0.45307 0.0
H594 H 0.82869 0.96435 0.45493 0.0
H595 H 0.86157 0.99092 0.48652 0.0
H596 H 0.86446 0.05711 0.57366 0.0
H597 H 0.83354 0.08159 0.6042 0.0
H598 H 0.8275 0.96064 0.59445 0.0
H599 H 0.75253 0.95884 0.59443 0.0
H600 H 0.81576 0.08156 0.45935 0.0
H601 H 0.74133 0.08362 0.46511 0.0
C602 C 0.06293 0.81613 0.56075 0.0
C603 C 0.07207 0.83779 0.57181 0.0
C604 C 0.05807 0.85429 0.55781 0.0
C605 C 0.04144 0.84191 0.53872 0.0
N606 N 0.04388 0.81844 0.53964 0.0
Co607 Co 0.0249 0.79412 0.51292 0.0
N608 N 0.00457 0.81862 0.49189 0.0
C609 C 0.00626 0.84205 0.49748 0.0
C610 C 0.98888 0.8544 0.48149 0.0
C611 C 0.975 0.83792 0.46493 0.0
C612 C 0.98492 0.81632 0.47153 0.0
N613 N 0.00604 0.76987 0.48589 0.0
C614 C 0.98669 0.77221 0.46529 0.0
C615 C 0.97902 0.75081 0.45146 0.0
C616 C 0.9937 0.73429 0.46431 0.0
C617 C 0.00952 0.7465 0.48501 0.0
N618 N 0.04497 0.76963 0.53435 0.0
C619 C 0.0431 0.7462 0.52902 0.0
C620 C 0.05895 0.73377 0.54769 0.0
C621 C 0.07185 0.75022 0.56597 0.0
C622 C 0.06319 0.77185 0.55717 0.0
N623 N 0.00263 0.79231 0.546 0.0
C624 C 0.96564 0.79003 0.58509 0.0
C625 C 0.97557 0.76967 0.57294 0.0
C626 C 0.99401 0.7712 0.5537 0.0
C627 C 0.9755 0.81148 0.57912 0.0
C628 C 0.99406 0.81221 0.55995 0.0
N629 N 0.04717 0.79586 0.47961 0.0
C630 C 0.07363 0.77701 0.44494 0.0
C631 C 0.08112 0.7986 0.43571 0.0
C632 C 0.07075 0.81875 0.44777 0.0
C633 C 0.0539 0.81699 0.4694 0.0
C634 C 0.05679 0.77605 0.46679 0.0
H635 H 0.04676 0.83302 0.47767 0.0
H636 H 0.05213 0.75907 0.4732 0.0
H637 H 1.0004 0.75509 0.54438 0.0
H638 H 0.00068 0.82908 0.5559 0.0
C639 C 0.02366 0.8519 0.51915 0.0
C640 C 0.07309 0.79396 0.57089 0.0
C641 C 0.97451 0.79413 0.4589 0.0
C642 C 0.02664 0.73642 0.50572 0.0
H643 H 0.08743 0.84143 0.58809 0.0
H644 H 0.06 0.87308 0.56081 0.0
H645 H 0.9862 0.87312 0.48254 0.0
H646 H 0.95906 0.84153 0.45032 0.0
H647 H 0.96404 0.74745 0.43436 0.0
H648 H 0.99255 0.71555 0.45979 0.0
H649 H 0.06101 0.71499 0.54783 0.0
H650 H 0.08613 0.74669 0.58361 0.0
H651 H 0.96838 0.75267 0.57687 0.0
H652 H 0.96846 0.82768 0.58847 0.0
H653 H 0.08113 0.76094 0.43593 0.0
H654 H 0.07564 0.83586 0.44058 0.0
C655 C 0.27635 0.98344 0.5754 0.0
C656 C 0.29783 0.97576 0.58874 0.0
C657 C 0.31457 0.98834 0.57593 0.0
C658 C 0.30241 0.00301 0.55571 0.0
N659 N 0.27892 1.0005 0.5547 0.0
Co660 Co 0.25485 0.01926 0.52952 0.0
N661 N 0.27947 0.0368 0.50938 0.0
C662 C 0.30272 0.03251 0.51226 0.0
C663 C 0.31528 0.04642 0.49438 0.0
C664 C 0.29908 0.06052 0.47925 0.0
C665 C 0.2775 0.05459 0.48916 0.0
N666 N 0.23082 0.03929 0.50633 0.0
C667 C 0.2335 0.05825 0.48882 0.0
C668 C 0.21213 0.0688 0.48047 0.0
C669 C 0.19539 0.05594 0.49275 0.0
C670 C 0.20741 0.03855 0.50824 0.0
N671 N 0.23014 1.00054 0.54779 0.0
C672 C 0.20672 0.0024 0.54115 0.0
C673 C 0.19404 0.98655 0.55593 0.0
C674 C 0.21034 0.97361 0.57282 0.0
C675 C 0.23212 0.98241 0.56742 0.0
N676 N 0.25581 0.04272 0.56557 0.0
C677 C 0.25401 0.08227 0.60704 0.0
C678 C 0.2349 0.06709 0.60147 0.0
C679 C 0.23611 0.04761 0.5807 0.0
C680 C 0.27486 0.07598 0.59424 0.0
C681 C 0.27547 0.05602 0.57401 0.0
N682 N 0.25377 0.99594 0.49314 0.0
C683 C 0.23236 0.97657 0.44745 0.0
C684 C 0.25159 0.96256 0.44204 0.0
C685 C 0.27198 0.96543 0.46243 0.0
C686 C 0.2728 0.98232 0.48747 0.0
C687 C 0.23373 0.99289 0.47306 0.0
H688 H 0.289 0.98392 0.50193 0.0
H689 H 0.21822 0.00263 0.47621 0.0
H690 H 0.22055 0.03733 0.57643 0.0
H691 H 0.29177 0.0522 0.56453 0.0
C692 C 0.31241 0.01739 0.5348 0.0
C693 C 0.25407 0.97332 0.58212 0.0
C694 C 0.25584 0.06698 0.47973 0.0
C695 C 0.19721 0.02072 0.52369 0.0
H696 H 0.30105 0.96213 0.60548 0.0
H697 H 0.33338 0.98653 0.58015 0.0
H698 H 0.33407 0.0468 0.4933 0.0
H699 H 0.30281 0.07402 0.46334 0.0
H700 H 0.20887 0.08429 0.46709 0.0
H701 H 0.17669 0.05898 0.49074 0.0
H702 H 0.17518 0.98497 0.55513 0.0
H703 H 0.20661 0.95949 0.5878 0.0
H704 H 0.21871 0.0707 0.61214 0.0
H705 H 0.29031 0.08695 0.59855 0.0
H706 H 0.21609 0.97456 0.43237 0.0
H707 H 0.28725 0.95478 0.45893 0.0
C708 C 0.56082 0.77725 0.06001 0.0
C709 C 0.56923 0.79864 0.07308 0.0
C710 C 0.55673 0.81547 0.05726 0.0
C711 C 0.54128 0.80348 0.03578 0.0
N712 N 0.54301 0.77998 0.03708 0.0
Co713 Co 0.52326 0.75603 0.01075 0.0
N714 N 0.50606 0.78074 0.98592 0.0
C715 C 0.51049 0.80397 0.98823 0.0
C716 C 0.49612 0.81659 0.96774 0.0
C717 C 0.48152 0.80048 0.95147 0.0
C718 C 0.48774 0.7789 0.96321 0.0
N719 N 0.50277 0.7321 0.98546 0.0
C720 C 0.48378 0.73492 0.96442 0.0
C721 C 0.47287 0.71365 0.95537 0.0
C722 C 0.48559 0.69683 0.97073 0.0
C723 C 0.50322 0.70869 0.98862 0.0
N724 N 0.54109 0.73122 0.03467 0.0
C725 C 0.5383 0.70783 0.02996 0.0
C726 C 0.55439 0.69502 0.04761 0.0
C727 C 0.56857 0.71114 0.06442 0.0
C728 C 0.56008 0.73302 0.0563 0.0
N729 N 0.49981 0.75795 0.04252 0.0
C730 C 0.46082 0.75991 0.07857 0.0
C731 C 0.47163 0.73863 0.07165 0.0
C732 C 0.4912 0.73811 0.05423 0.0
C733 C 0.47087 0.78032 0.06895 0.0
C734 C 0.49023 0.77896 0.05114 0.0
N735 N 0.5466 0.75413 0.9787 0.0
C736 C 0.56732 0.73154 0.94047 0.0
C737 C 0.58092 0.75087 0.9352 0.0
C738 C 0.57693 0.77198 0.95149 0.0
C739 C 0.5596 0.7733 0.9727 0.0
C740 C 0.55052 0.73347 0.96236 0.0
H741 H 0.55719 0.78999 0.98406 0.0
H742 H 0.54113 0.71791 0.96582 0.0
H743 H 0.49851 0.72136 0.04947 0.0
H744 H 0.49662 0.79509 0.04372 0.0
C745 C 0.52654 0.81362 0.01211 0.0
C746 C 0.57103 0.75491 0.06917 0.0
C747 C 0.47524 0.7573 0.95273 0.0
C748 C 0.52035 0.69836 0.00886 0.0
H749 H 0.58336 0.80175 0.09157 0.0
H750 H 0.55911 0.83421 0.06038 0.0
H751 H 0.49581 0.83535 0.96559 0.0
H752 H 0.46755 0.80423 0.93346 0.0
H753 H 0.45713 0.71048 0.93966 0.0
H754 H 0.48213 0.67822 0.96947 0.0
H755 H 0.55586 0.67618 0.04787 0.0
H756 H 0.58367 0.7071 0.08042 0.0
H757 H 0.46443 0.72226 0.07821 0.0
H758 H 0.46337 0.79727 0.07426 0.0
H759 H 0.57003 0.71482 0.92829 0.0
H760 H 0.58709 0.7874 0.94777 0.0
C761 C 0.26651 0.5555 0.08244 0.0
C762 C 0.24529 0.56344 0.09202 0.0
C763 C 0.22825 0.55061 0.07447 0.0
C764 C 0.24004 0.53574 0.05521 0.0
N765 N 0.2636 0.53782 0.06004 0.0
Co766 Co 0.28748 0.52161 0.03512 0.0
N767 N 0.26249 0.50461 0.00683 0.0
C768 C 0.23907 0.50591 0.00845 0.0
C769 C 0.2265 0.49077 0.98734 0.0
C770 C 0.24292 0.47863 0.97189 0.0
C771 C 0.26456 0.4872 0.98452 0.0
N772 N 0.31135 0.50616 0.00944 0.0
C773 C 0.30851 0.48917 0.98607 0.0
C774 C 0.32966 0.4827 0.9748 0.0
C775 C 0.34658 0.49582 0.99219 0.0
C776 C 0.33481 0.50949 0.01296 0.0
N777 N 0.31251 0.53785 0.06419 0.0
C778 C 0.33595 0.5352 0.06409 0.0
C779 C 0.34857 0.54939 0.08645 0.0
C780 C 0.33221 0.56216 0.10123 0.0
C781 C 0.31054 0.55498 0.08689 0.0
N782 N 0.28878 0.49488 0.06385 0.0
C783 C 0.2912 0.45689 0.10452 0.0
C784 C 0.31106 0.46481 0.09133 0.0
C785 C 0.30952 0.48371 0.07157 0.0
C786 C 0.26992 0.46799 0.09631 0.0
C787 C 0.26909 0.48678 0.07607 0.0
N788 N 0.28631 0.5484 0.00651 0.0
C789 C 0.30596 0.5803 0.98405 0.0
C790 C 0.28492 0.58795 0.96892 0.0
C791 C 0.26458 0.57528 0.97231 0.0
C792 C 0.26561 0.55581 0.99137 0.0
C793 C 0.30631 0.56057 0.00228 0.0
H794 H 0.24943 0.54718 0.99373 0.0
H795 H 0.32301 0.55565 0.01289 0.0
H796 H 0.32542 0.4888 0.06264 0.0
H797 H 0.25234 0.49443 0.07061 0.0
C798 C 0.22957 0.52067 0.03113 0.0
C799 C 0.2888 0.56664 0.09304 0.0
C800 C 0.28658 0.47698 0.97647 0.0
C801 C 0.34542 0.52249 0.03924 0.0
H802 H 0.24245 0.5776 0.10908 0.0
H803 H 0.20949 0.55256 0.07478 0.0
H804 H 0.2077 0.48827 0.98436 0.0
H805 H 0.23948 0.46454 0.95412 0.0
H806 H 0.33261 0.46913 0.95694 0.0
H807 H 0.36533 0.49446 0.99117 0.0
H808 H 0.36741 0.55135 0.09011 0.0
H809 H 0.33576 0.576 0.11934 0.0
H810 H 0.32781 0.45628 0.09589 0.0
H811 H 0.25399 0.46238 0.10571 0.0
H812 H 0.32221 0.58943 0.98158 0.0
H813 H 0.2479 0.58062 0.96081 0.0
C814 C 0.48617 0.30569 0.9829 0.0
C815 C 0.47832 0.32685 0.97137 0.0
C816 C 0.49191 0.34382 0.9876 0.0
C817 C 0.50719 0.33209 0.00804 0.0
N818 N 0.50447 0.30862 0.00529 0.0
Co819 Co 0.52195 0.28477 0.03125 0.0
N820 N 0.53754 0.3097 0.06064 0.0
C821 C 0.53411 0.33304 0.05958 0.0
C822 C 0.547 0.34576 0.08325 0.0
C823 C 0.55949 0.32959 0.10039 0.0
C824 C 0.55352 0.30786 0.08602 0.0
N825 N 0.54019 0.2609 0.05633 0.0
C826 C 0.55681 0.26378 0.08113 0.0
C827 C 0.5662 0.24258 0.09047 0.0
C828 C 0.55532 0.22569 0.07059 0.0
C829 C 0.54 0.23749 0.05032 0.0
N830 N 0.50527 0.2599 0.0029 0.0
C831 C 0.50819 0.23652 0.00402 0.0
C832 C 0.49247 0.22387 0.98363 0.0
C833 C 0.47819 0.24015 0.96934 0.0
C834 C 0.48617 0.26178 0.98188 0.0
N835 N 0.54794 0.28601 0.00288 0.0
C836 C 0.58647 0.28773 0.96579 0.0
C837 C 0.57427 0.26689 0.96805 0.0
C838 C 0.55529 0.26638 0.98675 0.0
C839 C 0.57871 0.30777 0.98156 0.0
C840 C 0.55956 0.30657 0.9996 0.0
N841 N 0.49611 0.28361 0.05941 0.0
C842 C 0.47055 0.26182 0.08998 0.0
C843 C 0.45751 0.28188 0.09595 0.0
C844 C 0.46438 0.30285 0.08405 0.0
C845 C 0.48371 0.30338 0.06627 0.0
C846 C 0.48958 0.26301 0.07149 0.0
H847 H 0.48817 0.31999 0.05808 0.0
H848 H 0.4986 0.24706 0.06693 0.0
H849 H 0.54707 0.24984 0.98793 0.0
H850 H 0.55468 0.32259 0.01076 0.0
C851 C 0.52054 0.34255 0.03418 0.0
C852 C 0.4742 0.28354 0.97476 0.0
C853 C 0.56457 0.28618 0.09614 0.0
C854 C 0.52471 0.22708 0.02613 0.0
H855 H 0.4635 0.32982 0.95432 0.0
H856 H 0.48968 0.36254 0.9864 0.0
H857 H 0.54783 0.36458 0.08696 0.0
H858 H 0.57206 0.33341 0.12066 0.0
H859 H 0.57964 0.23969 0.10956 0.0
H860 H 0.55824 0.20702 0.07085 0.0
H861 H 0.49093 0.20505 0.98057 0.0
H862 H 0.46314 0.23658 0.95244 0.0
H863 H 0.57963 0.25095 0.95597 0.0
H864 H 0.58734 0.32444 0.97984 0.0
H865 H 0.4658 0.24524 0.099 0.0
H866 H 0.45492 0.31886 0.08864 0.0
C867 C 0.72493 0.55704 0.06987 0.0
C868 C 0.70328 0.56502 0.07794 0.0
C869 C 0.68676 0.55203 0.05972 0.0
C870 C 0.69919 0.5369 0.04169 0.0
N871 N 0.72271 0.53931 0.04739 0.0
Co872 Co 0.74733 0.52081 0.02635 0.0
N873 N 0.72297 0.50264 0.99823 0.0
C874 C 0.69948 0.50565 0.99671 0.0
C875 C 0.68723 0.49079 0.97492 0.0
C876 C 0.70383 0.47733 0.96187 0.0
C877 C 0.72535 0.48469 0.97668 0.0
N878 N 0.77188 0.5019 0.00581 0.0
C879 C 0.76961 0.48355 0.9842 0.0
C880 C 0.79126 0.47457 0.9777 0.0
C881 C 0.80778 0.48767 0.99577 0.0
C882 C 0.79536 0.50374 0.01239 0.0
N883 N 0.77165 0.53936 0.05404 0.0
C884 C 0.79517 0.53725 0.05433 0.0
C885 C 0.80742 0.55292 0.075 0.0
C886 C 0.79075 0.56602 0.08853 0.0
C887 C 0.76922 0.55751 0.0753 0.0
N888 N 0.74661 0.4971 0.05896 0.0
C889 C 0.74525 0.45979 0.09963 0.0
C890 C 0.76653 0.47015 0.09459 0.0
C891 C 0.76682 0.48873 0.07426 0.0
C892 C 0.72466 0.46921 0.08554 0.0
C893 C 0.72573 0.48769 0.06549 0.0
N894 N 0.74803 0.54438 0.99347 0.0
C895 C 0.76911 0.56689 0.95809 0.0
C896 C 0.74821 0.57635 0.94489 0.0
C897 C 0.72741 0.57023 0.95716 0.0
C898 C 0.7277 0.55429 0.98103 0.0
C899 C 0.76863 0.55104 0.98226 0.0
H900 H 0.71117 0.5503 0.98892 0.0
H901 H 0.7851 0.54435 0.99136 0.0
H902 H 0.78356 0.49573 0.07083 0.0
H903 H 0.70941 0.49375 0.05514 0.0
C904 C 0.68934 0.5214 0.01763 0.0
C905 C 0.74701 0.56756 0.08333 0.0
C906 C 0.74743 0.47361 0.97 0.0
C907 C 0.80519 0.52045 0.03479 0.0
H908 H 0.69979 0.5791 0.09483 0.0
H909 H 0.66793 0.55381 0.05911 0.0
H910 H 0.66843 0.48953 0.96967 0.0
H911 H 0.70046 0.46341 0.94384 0.0
H912 H 0.79476 0.45985 0.96185 0.0
H913 H 0.82659 0.48548 0.99705 0.0
H914 H 0.82623 0.55474 0.07947 0.0
H915 H 0.79403 0.58035 0.10598 0.0
H916 H 0.78289 0.46355 0.10556 0.0
H917 H 0.70772 0.46219 0.08971 0.0
H918 H 0.7857 0.57145 0.94955 0.0
H919 H 0.71086 0.5778 0.94847 0.0
C920 C 0.14926 0.24787 0.43995 0.0
C921 C 0.1464 0.24206 0.40705 0.0
C922 C 0.12989 0.25254 0.45731 0.0
C923 C 0.10693 0.25143 0.44247 0.0
H924 H 0.16654 0.24795 0.45266 0.0
H925 H 0.13285 0.25612 0.48276 0.0
S926 S 0.09002 0.24022 0.35634 0.0
N927 N 0.11885 0.23794 0.35985 0.0
N928 N 0.0825 0.24628 0.39262 0.0
C929 C 0.10386 0.24667 0.40943 0.0
C930 C 0.12356 0.24209 0.39171 0.0
C931 C 0.77355 0.15063 0.45446 0.0
C932 C 0.7807 0.15449 0.42409 0.0
C933 C 0.77188 0.12804 0.46525 0.0
C934 C 0.77758 0.10851 0.44627 0.0
H935 H 0.77012 0.16519 0.47063 0.0
H936 H 0.76704 0.1259 0.48915 0.0
S937 S 0.79488 0.10852 0.36402 0.0
N938 N 0.7914 0.13643 0.37412 0.0
N939 N 0.7892 0.09393 0.39527 0.0
C940 C 0.78405 0.11186 0.41562 0.0
C941 C 0.78539 0.13488 0.40431 0.0
C942 C 0.92636 0.80691 0.39425 0.0
C943 C 0.90592 0.79896 0.40669 0.0
C944 C 0.94856 0.80426 0.41048 0.0
C945 C 0.9512 0.79404 0.44014 0.0
H946 H 0.92522 0.81612 0.37236 0.0
H947 H 0.96372 0.81114 0.40042 0.0
S948 S 0.9042 0.76787 0.48178 0.0
N949 N 0.89046 0.77787 0.44912 0.0
N950 N 0.93213 0.77439 0.48044 0.0
C951 C 0.93125 0.78513 0.45235 0.0
C952 C 0.90863 0.78733 0.43552 0.0
C953 C 0.2473 0.90302 0.39925 0.0
C954 C 0.24016 0.90843 0.36765 0.0
C955 C 0.2521 0.9207 0.42299 0.0
C956 C 0.24975 0.94436 0.416 0.0
H957 H 0.24812 0.88501 0.40602 0.0
H958 H 0.25661 0.91583 0.44725 0.0
S959 S 0.23493 0.96794 0.33656 0.0
N960 N 0.23369 0.93928 0.33015 0.0
N961 N 0.24206 0.97245 0.3751 0.0
C962 C 0.2438 0.95006 0.38437 0.0
C963 C 0.23917 0.93211 0.36011 0.0
C964 C 0.13674 0.79025 0.60415 0.0
C965 C 0.13668 0.80128 0.63471 0.0
C966 C 0.116 0.78701 0.58411 0.0
C967 C 0.09432 0.79422 0.59408 0.0
H968 H 0.15304 0.78458 0.59523 0.0
H969 H 0.117 0.77949 0.56028 0.0
S970 S 0.08376 0.82244 0.67202 0.0
N971 N 0.11243 0.81894 0.67385 0.0
N972 N 0.07348 0.81117 0.63688 0.0
C973 C 0.09368 0.8039 0.62507 0.0
C974 C 0.11481 0.80783 0.64522 0.0
C975 C 0.26719 0.13541 0.66337 0.0
C976 C 0.24781 0.14985 0.65602 0.0
C977 C 0.26903 0.11339 0.64777 0.0
C978 C 0.25163 0.10524 0.62418 0.0
H979 H 0.28091 0.14116 0.68133 0.0
H980 H 0.28411 0.10265 0.65425 0.0
S981 S 0.19878 0.1378 0.5941 0.0
N982 N 0.2117 0.15526 0.62256 0.0
N983 N 0.21534 0.11426 0.5927 0.0
C984 C 0.23243 0.11985 0.61627 0.0
C985 C 0.23049 0.14207 0.63232 0.0
C986 C 0.90043 0.23603 0.61805 0.0
C987 C 0.89755 0.24906 0.64649 0.0
C988 C 0.92052 0.23855 0.60188 0.0
C989 C 0.93843 0.25439 0.61329 0.0
H990 H 0.88736 0.22324 0.60872 0.0
H991 H 0.92215 0.22788 0.58036 0.0
S992 S 0.93884 0.2936 0.68564 0.0
N993 N 0.91387 0.27909 0.68464 0.0
N994 N 0.95165 0.28386 0.65415 0.0
C995 C 0.93548 0.26804 0.64114 0.0
C996 C 0.91509 0.26532 0.6578 0.0
C997 C 0.80258 0.89245 0.60382 0.0
C998 C 0.79256 0.88728 0.63181 0.0
C999 C 0.80234 0.91521 0.59321 0.0
C1000 C 0.79171 0.93347 0.60994 0.0
H1001 H 0.81073 0.87878 0.59009 0.0
H1002 H 0.81007 0.91846 0.57137 0.0
S1003 S 0.7634 0.92901 0.68485 0.0
N1004 N 0.77226 0.90215 0.67652 0.0
N1005 N 0.77127 0.94506 0.65607 0.0
C1006 C 0.78172 0.92857 0.63805 0.0
C1007 C 0.78233 0.90542 0.64917 0.0
C1008 C 0.90242 0.79995 0.60068 0.0
C1009 C 0.89927 0.78522 0.62568 0.0
C1010 C 0.92418 0.80191 0.58851 0.0
C1011 C 0.94357 0.78905 0.6007 0.0
H1012 H 0.88786 0.80996 0.59028 0.0
H1013 H 0.92565 0.81307 0.56876 0.0
S1014 S 0.94473 0.74863 0.66686 0.0
N1015 N 0.91742 0.75808 0.66287 0.0
N1016 N 0.9585 0.76163 0.63978 0.0
C1017 C 0.9408 0.77454 0.62606 0.0
C1018 C 0.91862 0.77272 0.63869 0.0
C1019 C 0.24826 0.91173 0.61056 0.0
C1020 C 0.24832 0.91535 0.64379 0.0
C1021 C 0.25074 0.93048 0.59082 0.0
C1022 C 0.25353 0.95348 0.60363 0.0
H1023 H 0.24548 0.89437 0.5996 0.0
H1024 H 0.24995 0.92708 0.56532 0.0
S1025 S 0.2566 0.97236 0.68884 0.0
N1026 N 0.25272 0.94376 0.68855 0.0
N1027 N 0.25725 0.97891 0.65127 0.0
C1028 C 0.25433 0.95734 0.63671 0.0
C1029 C 0.25174 0.9383 0.65683 0.0
C1030 C 0.12205 0.24782 0.65257 0.0
C1031 C 0.1406 0.25867 0.63896 0.0
C1032 C 0.0992 0.24746 0.63755 0.0
C1033 C 0.09413 0.2574 0.60799 0.0
H1034 H 0.12524 0.23903 0.67468 0.0
H1035 H 0.08546 0.239 0.64886 0.0
S1036 S 0.13548 0.28935 0.563 0.0
N1037 N 0.15148 0.28145 0.59518 0.0
N1038 N 0.10894 0.27905 0.566 0.0
C1039 C 0.11225 0.26859 0.59428 0.0
C1040 C 0.13537 0.26958 0.60992 0.0
C1041 C 0.79228 0.13281 0.61038 0.0
C1042 C 0.79229 0.13291 0.64374 0.0
C1043 C 0.78961 0.11191 0.59165 0.0
C1044 C 0.78664 0.09044 0.60558 0.0
H1045 H 0.79521 0.14889 0.59877 0.0
H1046 H 0.79038 0.11244 0.56617 0.0
S1047 S 0.78365 0.0812 0.69121 0.0
N1048 N 0.78774 0.10965 0.68953 0.0
N1049 N 0.78286 0.07045 0.65418 0.0
C1050 C 0.78588 0.09031 0.63863 0.0
C1051 C 0.78868 0.11152 0.65774 0.0
C1052 C 0.91684 0.25079 0.42601 0.0
C1053 C 0.90082 0.2614 0.44561 0.0
C1054 C 0.94084 0.25 0.43581 0.0
C1055 C 0.94961 0.25927 0.46586 0.0
H1056 H 0.91076 0.2425 0.4032 0.0
H1057 H 0.95257 0.24173 0.42002 0.0
S1058 S 0.91592 0.2909 0.52501 0.0
N1059 N 0.89619 0.2835 0.49533 0.0
N1060 N 0.94106 0.28058 0.51433 0.0
C1061 C 0.93407 0.27051 0.48529 0.0
C1062 C 0.90973 0.27183 0.47511 0.0
C1063 C 0.78348 0.93223 0.40023 0.0
C1064 C 0.78859 0.91069 0.41415 0.0
C1065 C 0.78039 0.95269 0.419 0.0
C1066 C 0.78235 0.95234 0.45232 0.0
H1067 H 0.78234 0.93335 0.37462 0.0
H1068 H 0.7772 0.96904 0.40746 0.0
S1069 S 0.79521 0.90087 0.50072 0.0
N1070 N 0.79518 0.8905 0.46358 0.0
N1071 N 0.78925 0.92901 0.49863 0.0
C1072 C 0.78683 0.93098 0.46658 0.0
C1073 C 0.78993 0.91012 0.44755 0.0
C1074 C 0.11524 0.78971 0.36305 0.0
C1075 C 0.13496 0.80417 0.37071 0.0
C1076 C 0.09808 0.7876 0.38445 0.0
C1077 C 0.09988 0.80019 0.41395 0.0
H1078 H 0.11305 0.78003 0.34034 0.0
H1079 H 0.08304 0.77644 0.37758 0.0
S1080 S 0.14815 0.84025 0.44539 0.0
N1081 N 0.1553 0.8312 0.4099 0.0
N1082 N 0.12317 0.82709 0.45008 0.0
C1083 C 0.11961 0.81452 0.42198 0.0
C1084 C 0.13712 0.81653 0.40038 0.0
C1085 C 0.24407 0.10831 0.41203 0.0
C1086 C 0.25485 0.12942 0.42422 0.0
C1087 C 0.24504 0.08813 0.4297 0.0
C1088 C 0.25638 0.08827 0.46059 0.0
H1089 H 0.23418 0.10745 0.38894 0.0
H1090 H 0.23633 0.07241 0.41944 0.0
S1091 S 0.28884 0.13796 0.5031 0.0
N1092 N 0.279 0.14828 0.46856 0.0
N1093 N 0.27938 0.1107 0.50236 0.0
C1094 C 0.26763 0.10892 0.47295 0.0
C1095 C 0.26713 0.1294 0.45472 0.0
C1096 C 0.61155 0.73797 0.86071 0.0
C1097 C 0.63544 0.73969 0.87183 0.0
C1098 C 0.59396 0.74218 0.88119 0.0
C1099 C 0.59961 0.74864 0.91341 0.0
H1100 H 0.60638 0.73287 0.83607 0.0
H1101 H 0.5758 0.74008 0.87189 0.0
S1102 S 0.6591 0.75558 0.95479 0.0
N1103 N 0.66362 0.74811 0.91763 0.0
N1104 N 0.63039 0.75683 0.95569 0.0
C1105 C 0.62326 0.75116 0.92475 0.0
C1106 C 0.64123 0.74654 0.90405 0.0
C1107 C 0.28025 0.62574 0.89699 0.0
C1108 C 0.289 0.6475 0.90972 0.0
C1109 C 0.27788 0.60681 0.91651 0.0
C1110 C 0.28461 0.60886 0.94935 0.0
H1111 H 0.2756 0.62322 0.87164 0.0
H1112 H 0.27164 0.5902 0.90566 0.0
S1113 S 0.30771 0.66213 0.99468 0.0
N1114 N 0.30363 0.6701 0.95752 0.0
N1115 N 0.29944 0.63448 0.994 0.0
C1116 C 0.2928 0.63063 0.9625 0.0
C1117 C 0.2949 0.64997 0.94275 0.0
C1118 C 0.40845 0.28206 0.97775 0.0
C1119 C 0.39992 0.2864 0.94625 0.0
C1120 C 0.43254 0.28053 0.98656 0.0
C1121 C 0.44887 0.28333 0.96419 0.0
H1122 H 0.39641 0.2801 0.99579 0.0
H1123 H 0.43849 0.27764 0.01114 0.0
S1124 S 0.436 0.29471 0.87896 0.0
N1125 N 0.40999 0.29339 0.89273 0.0
N1126 N 0.45528 0.29002 0.90945 0.0
C1127 C 0.44073 0.28709 0.93261 0.0
C1128 C 0.41623 0.28873 0.92358 0.0
C1129 C 0.73729 0.41013 0.94173 0.0
C1130 C 0.74366 0.40956 0.91024 0.0
C1131 C 0.73895 0.43079 0.96101 0.0
C1132 C 0.74706 0.45165 0.94958 0.0
H1133 H 0.73039 0.39462 0.95134 0.0
H1134 H 0.73353 0.43056 0.9849 0.0
S1135 S 0.76694 0.45961 0.86982 0.0
N1136 N 0.75939 0.43174 0.8692 0.0
N1137 N 0.76194 0.47063 0.90537 0.0
C1138 C 0.75379 0.45137 0.91847 0.0
C1139 C 0.75221 0.43033 0.89881 0.0
C1140 C 0.62733 0.29325 0.13156 0.0
C1141 C 0.62496 0.29541 0.16444 0.0
C1142 C 0.60776 0.28936 0.10958 0.0
C1143 C 0.58527 0.28735 0.11982 0.0
H1144 H 0.64427 0.29568 0.12268 0.0
H1145 H 0.61007 0.2887 0.08439 0.0
S1146 S 0.5698 0.28931 0.20298 0.0
N1147 N 0.59845 0.29344 0.20608 0.0
N1148 N 0.56168 0.28622 0.1645 0.0
C1149 C 0.58271 0.2884 0.15249 0.0
C1150 C 0.60258 0.29242 0.17489 0.0
C1151 C 0.743 0.60907 0.15551 0.0
C1152 C 0.74158 0.63118 0.14213 0.0
C1153 C 0.74552 0.58857 0.13655 0.0
C1154 C 0.74663 0.58949 0.10358 0.0
H1155 H 0.74189 0.60759 0.18079 0.0
H1156 H 0.7461 0.57186 0.14759 0.0
S1157 S 0.74332 0.64248 0.05655 0.0
N1158 N 0.74126 0.65243 0.09351 0.0
N1159 N 0.74615 0.61385 0.05818 0.0
C1160 C 0.74557 0.61133 0.08991 0.0
C1161 C 0.74304 0.6322 0.10911 0.0
C1162 C 0.39708 0.77326 0.08918 0.0
C1163 C 0.39192 0.75864 0.11349 0.0
C1164 C 0.41961 0.7742 0.07898 0.0
C1165 C 0.43798 0.76063 0.09275 0.0
H1166 H 0.38345 0.7837 0.07739 0.0
H1167 H 0.42239 0.78499 0.05926 0.0
S1168 S 0.4342 0.72085 0.15897 0.0
N1169 N 0.40733 0.73091 0.15197 0.0
N1170 N 0.44994 0.73349 0.1337 0.0
C1171 C 0.43335 0.74673 0.11807 0.0
C1172 C 0.41031 0.7456 0.12829 0.0
C1173 C 0.27874 0.3987 0.14041 0.0
C1174 C 0.29738 0.39665 0.16427 0.0
C1175 C 0.27647 0.41845 0.1218 0.0
C1176 C 0.2928 0.43693 0.12616 0.0
H1177 H 0.26588 0.38483 0.13587 0.0
H1178 H 0.26217 0.41892 0.10324 0.0
S1179 S 0.34431 0.44074 0.18612 0.0
N1180 N 0.3324 0.41512 0.19122 0.0
N1181 N 0.3275 0.45249 0.15736 0.0
C1182 C 0.31113 0.43541 0.1505 0.0
C1183 C 0.31355 0.41527 0.16926 0.0
C1184 C 0.42113 0.27792 0.16624 0.0
C1185 C 0.39884 0.2852 0.15376 0.0
C1186 C 0.43984 0.27579 0.14701 0.0
C1187 C 0.43698 0.28131 0.11483 0.0
H1188 H 0.42421 0.27428 0.1912 0.0
H1189 H 0.45687 0.27069 0.15767 0.0
S1190 S 0.38212 0.30039 0.07038 0.0
N1191 N 0.37487 0.29715 0.10688 0.0
N1192 N 0.41012 0.29345 0.07097 0.0
C1193 C 0.4147 0.28803 0.10188 0.0
C1194 C 0.39559 0.28987 0.12128 0.0
C1195 C 0.75149 0.42142 0.17067 0.0
C1196 C 0.73785 0.40172 0.15982 0.0
C1197 C 0.7547 0.43981 0.15066 0.0
C1198 C 0.74418 0.43917 0.11928 0.0
H1199 H 0.75936 0.42282 0.19497 0.0
H1200 H 0.76472 0.45499 0.16015 0.0
S1201 S 0.70797 0.39109 0.07878 0.0
N1202 N 0.71442 0.38244 0.11525 0.0
N1203 N 0.72093 0.41672 0.07758 0.0
C1204 C 0.73127 0.41922 0.1078 0.0
C1205 C 0.728 0.40055 0.12808 0.0
C1206 C 0.61363 0.74168 0.14024 0.0
C1207 C 0.63548 0.74865 0.13083 0.0
C1208 C 0.5928 0.74468 0.12081 0.0
C1209 C 0.593 0.75427 0.09087 0.0
H1210 H 0.61258 0.73303 0.16232 0.0
H1211 H 0.57648 0.73866 0.12874 0.0
S1212 S 0.64468 0.77751 0.0559 0.0
N1213 N 0.65535 0.76796 0.09055 0.0
N1214 N 0.61629 0.77202 0.05325 0.0
C1215 C 0.61441 0.76204 0.08147 0.0
C1216 C 0.63561 0.75953 0.10155 0.0
C1217 C 0.2914 0.63225 0.08787 0.0
C1218 C 0.28964 0.64044 0.1195 0.0
C1219 C 0.29127 0.6083 0.07964 0.0
C1220 C 0.2893 0.59178 0.10273 0.0
H1221 H 0.29315 0.64446 0.06938 0.0
H1222 H 0.29265 0.60263 0.05505 0.0
S1223 S 0.28367 0.60378 0.18845 0.0
N1224 N 0.28545 0.62993 0.17385 0.0
N1225 N 0.28538 0.58477 0.15813 0.0
C1226 C 0.28752 0.59954 0.13432 0.0
C1227 C 0.28768 0.62394 0.14279 0.0
C1228 C 0.41092 0.76512 0.9255 0.0
C1229 C 0.40834 0.75238 0.89598 0.0
C1230 C 0.43282 0.76765 0.94306 0.0
C1231 C 0.45304 0.75794 0.9315 0.0
H1232 H 0.39578 0.77262 0.93567 0.0
H1233 H 0.4338 0.77649 0.96636 0.0
S1234 S 0.4568 0.72498 0.85473 0.0
N1235 N 0.42865 0.73078 0.85567 0.0
N1236 N 0.46985 0.73714 0.88784 0.0
C1237 C 0.45115 0.7467 0.90118 0.0
C1238 C 0.42881 0.74352 0.88362 0.0
C1239 C 0.28906 0.42224 0.92283 0.0
C1240 C 0.2892 0.40429 0.94456 0.0
C1241 C 0.28798 0.44582 0.93316 0.0
C1242 C 0.28711 0.45211 0.9655 0.0
H1243 H 0.28978 0.41801 0.89769 0.0
H1244 H 0.28798 0.45921 0.91587 0.0
S1245 S 0.28783 0.41229 0.03207 0.0
N1246 N 0.28898 0.39474 1.0001 0.0
N1247 N 0.28665 0.43908 0.01918 0.0
C1248 C 0.28716 0.43451 0.98742 0.0
C1249 C 0.28826 0.41056 0.97702 0.0
C1250 C 0.62375 0.2847 0.89568 0.0
C1251 C 0.64523 0.29443 0.90881 0.0
C1252 C 0.60506 0.28175 0.91449 0.0
C1253 C 0.60706 0.28884 0.94694 0.0
H1254 H 0.62131 0.2796 0.87059 0.0
H1255 H 0.58869 0.27459 0.90335 0.0
S1256 S 0.65966 0.31476 0.99291 0.0
N1257 N 0.6675 0.31066 0.95642 0.0
N1258 N 0.6324 0.30523 0.99164 0.0
C1259 C 0.62856 0.29817 0.96046 0.0
C1260 C 0.64764 0.30091 0.94144 0.0
C1261 C 0.75989 0.63045 0.90022 0.0
C1262 C 0.74265 0.62885 0.87425 0.0
C1263 C 0.76244 0.61282 0.92223 0.0
C1264 C 0.74779 0.59302 0.91905 0.0
H1265 H 0.77104 0.64576 0.90408 0.0
H1266 H 0.77523 0.61522 0.94261 0.0
S1267 S 0.70134 0.57934 0.85395 0.0
N1268 N 0.71145 0.60519 0.84597 0.0
N1269 N 0.71697 0.57174 0.88656 0.0
C1270 C 0.7314 0.59058 0.8923 0.0
C1271 C 0.72866 0.60855 0.87007 0.0
loop_
_geom_bond_atom_site_label_1
_geom_bond_atom_site_label_2
_geom_bond_distance
_geom_bond_site_symmetry_2
_ccdc_geom_bond_type
H0 C27 0.929 . S
N1 C26 1.433 . S
N1 C32 1.435 . S
N1 C38 1.423 . S
H2 C28 0.930 . S
H3 C31 0.931 . S
H4 C30 0.929 . S
H5 C33 0.930 . S
H6 C34 0.932 . S
H7 C37 0.929 . S
H8 C36 0.931 . S
H9 C39 0.929 . S
H10 C43 0.932 . S
H11 C40 0.931 . S
H12 C42 0.929 . S
H13 C45 0.929 . S
H14 C46 0.930 . S
H15 C48 0.929 . S
H16 C49 0.931 . S
H17 C51 0.930 . S
H18 C52 0.932 . S
H19 C54 0.931 . S
H20 C55 0.929 . S
H21 C57 0.929 . S
H22 C58 0.931 . S
H23 C60 0.929 . S
N24 C44 1.433 . S
N24 C50 1.435 . S
N24 C56 1.423 . S
H25 C61 0.932 . S
C26 N1 1.433 . S
C26 C27 1.363 . S
C26 C31 1.370 . S
C27 H0 0.929 . S
C27 C26 1.363 . S
C27 C28 1.385 . S
C28 H2 0.930 . S
C28 C27 1.385 . S
C28 C29 1.357 . S
C29 C28 1.357 . S
C29 C30 1.406 . S
C30 H4 0.929 . S
C30 C29 1.406 . S
C30 C31 1.391 . S
C31 H3 0.931 . S
C31 C26 1.370 . S
C31 C30 1.391 . S
C32 N1 1.435 . S
C32 C33 1.358 . S
C32 C37 1.371 . S
C33 H5 0.930 . S
C33 C32 1.358 . S
C33 C34 1.405 . S
C34 H6 0.932 . S
C34 C33 1.405 . S
C34 C35 1.383 . S
C35 C34 1.383 . S
C35 C36 1.393 . S
C36 H8 0.931 . S
C36 C35 1.393 . S
C36 C37 1.382 . S
C37 H7 0.929 . S
C37 C32 1.371 . S
C37 C36 1.382 . S
C38 N1 1.423 . S
C38 C39 1.362 . S
C38 C43 1.388 . S
C39 H9 0.929 . S
C39 C38 1.362 . S
C39 C40 1.376 . S
C40 H11 0.931 . S
C40 C39 1.376 . S
C40 C41 1.396 . S
C41 C40 1.396 . S
C41 C42 1.348 . S
C41 C59 1.472 . S
C42 H12 0.929 . S
C42 C41 1.348 . S
C42 C43 1.443 . S
C43 H10 0.932 . S
C43 C38 1.388 . S
C43 C42 1.443 . S
C44 N24 1.433 . S
C44 C45 1.363 . S
C44 C49 1.370 . S
C45 H13 0.929 . S
C45 C44 1.363 . S
C45 C46 1.385 . S
C46 H14 0.930 . S
C46 C45 1.385 . S
C46 C47 1.357 . S
C47 C46 1.357 . S
C47 C48 1.406 . S
C48 H15 0.929 . S
C48 C47 1.406 . S
C48 C49 1.391 . S
C49 H16 0.931 . S
C49 C44 1.370 . S
C49 C48 1.391 . S
C50 N24 1.435 . S
C50 C51 1.358 . S
C50 C55 1.371 . S
C51 H17 0.930 . S
C51 C50 1.358 . S
C51 C52 1.405 . S
C52 H18 0.932 . S
C52 C51 1.405 . S
C52 C53 1.383 . S
C53 C52 1.383 . S
C53 C54 1.393 . S
C54 H19 0.931 . S
C54 C53 1.393 . S
C54 C55 1.382 . S
C55 H20 0.929 . S
C55 C50 1.371 . S
C55 C54 1.382 . S
C56 N24 1.423 . S
C56 C57 1.362 . S
C56 C61 1.388 . S
C57 H21 0.929 . S
C57 C56 1.362 . S
C57 C58 1.376 . S
C58 H22 0.931 . S
C58 C57 1.376 . S
C58 C59 1.396 . S
C59 C41 1.472 . S
C59 C58 1.396 . S
C59 C60 1.348 . S
C60 H23 0.929 . S
C60 C59 1.348 . S
C60 C61 1.443 . S
C61 H25 0.932 . S
C61 C56 1.388 . S
C61 C60 1.443 . S
H62 C89 0.929 . S
N63 C88 1.433 . S
N63 C94 1.435 . S
N63 C100 1.423 . S
H64 C90 0.930 . S
H65 C93 0.931 . S
H66 C92 0.929 . S
H67 C95 0.930 . S
H68 C96 0.932 . S
H69 C99 0.929 . S
H70 C98 0.931 . S
H71 C101 0.929 . S
H72 C105 0.932 . S
H73 C102 0.931 . S
H74 C104 0.929 . S
H75 C107 0.929 . S
H76 C108 0.930 . S
H77 C110 0.929 . S
H78 C111 0.931 . S
H79 C113 0.930 . S
H80 C114 0.932 . S
H81 C116 0.931 . S
H82 C117 0.929 . S
H83 C119 0.929 . S
H84 C120 0.931 . S
H85 C122 0.929 . S
N86 C106 1.433 . S
N86 C112 1.435 . S
N86 C118 1.423 . S
H87 C123 0.932 . S
C88 N63 1.433 . S
C88 C89 1.363 . S
C88 C93 1.370 . S
C89 H62 0.929 . S
C89 C88 1.363 . S
C89 C90 1.385 . S
C90 H64 0.930 . S
C90 C89 1.385 . S
C90 C91 1.357 . S
C91 C90 1.357 . S
C91 C92 1.406 . S
C92 H66 0.929 . S
C92 C91 1.406 . S
C92 C93 1.391 . S
C93 H65 0.931 . S
C93 C88 1.370 . S
C93 C92 1.391 . S
C94 N63 1.435 . S
C94 C95 1.358 . S
C94 C99 1.371 . S
C95 H67 0.930 . S
C95 C94 1.358 . S
C95 C96 1.405 . S
C96 H68 0.932 . S
C96 C95 1.405 . S
C96 C97 1.383 . S
C97 C96 1.383 . S
C97 C98 1.393 . S
C98 H70 0.931 . S
C98 C97 1.393 . S
C98 C99 1.382 . S
C99 H69 0.929 . S
C99 C94 1.371 . S
C99 C98 1.382 . S
C100 N63 1.423 . S
C100 C101 1.362 . S
C100 C105 1.388 . S
C101 H71 0.929 . S
C101 C100 1.362 . S
C101 C102 1.376 . S
C102 H73 0.931 . S
C102 C101 1.376 . S
C102 C103 1.396 . S
C103 C102 1.396 . S
C103 C104 1.348 . S
C103 C121 1.472 . S
C104 H74 0.929 . S
C104 C103 1.348 . S
C104 C105 1.443 . S
C105 H72 0.932 . S
C105 C100 1.388 . S
C105 C104 1.443 . S
C106 N86 1.433 . S
C106 C107 1.363 . S
C106 C111 1.370 . S
C107 H75 0.929 . S
C107 C106 1.363 . S
C107 C108 1.385 . S
C108 H76 0.930 . S
C108 C107 1.385 . S
C108 C109 1.357 . S
C109 C108 1.357 . S
C109 C110 1.406 . S
C110 H77 0.929 . S
C110 C109 1.406 . S
C110 C111 1.391 . S
C111 H78 0.931 . S
C111 C106 1.370 . S
C111 C110 1.391 . S
C112 N86 1.435 . S
C112 C113 1.358 . S
C112 C117 1.371 . S
C113 H79 0.930 . S
C113 C112 1.358 . S
C113 C114 1.405 . S
C114 H80 0.932 . S
C114 C113 1.405 . S
C114 C115 1.383 . S
C115 C114 1.383 . S
C115 C116 1.393 . S
C116 H81 0.931 . S
C116 C115 1.393 . S
C116 C117 1.382 . S
C117 H82 0.929 . S
C117 C112 1.371 . S
C117 C116 1.382 . S
C118 N86 1.423 . S
C118 C119 1.362 . S
C118 C123 1.388 . S
C119 H83 0.929 . S
C119 C118 1.362 . S
C119 C120 1.376 . S
C120 H84 0.931 . S
C120 C119 1.376 . S
C120 C121 1.396 . S
C121 C103 1.472 . S
C121 C120 1.396 . S
C121 C122 1.348 . S
C122 H85 0.929 . S
C122 C121 1.348 . S
C122 C123 1.443 . S
C123 H87 0.932 . S
C123 C118 1.388 . S
C123 C122 1.443 . S
H124 C151 0.929 . S
N125 C150 1.433 . S
N125 C156 1.435 . S
N125 C162 1.423 . S
H126 C152 0.930 . S
H127 C155 0.931 . S
H128 C154 0.929 . S
H129 C157 0.930 . S
H130 C158 0.932 . S
H131 C161 0.929 . S
H132 C160 0.931 . S
H133 C163 0.929 . S
H134 C167 0.932 . S
H135 C164 0.931 . S
H136 C166 0.929 . S
H137 C169 0.929 . S
H138 C170 0.930 . S
H139 C172 0.929 . S
H140 C173 0.931 . S
H141 C175 0.930 . S
H142 C176 0.932 . S
H143 C178 0.931 . S
H144 C179 0.929 . S
H145 C181 0.929 . S
H146 C182 0.931 . S
H147 C184 0.929 . S
N148 C168 1.433 . S
N148 C174 1.435 . S
N148 C180 1.423 . S
H149 C185 0.932 . S
C150 N125 1.433 . S
C150 C151 1.363 . S
C150 C155 1.370 . S
C151 H124 0.929 . S
C151 C150 1.363 . S
C151 C152 1.385 . S
C152 H126 0.930 . S
C152 C151 1.385 . S
C152 C153 1.357 . S
C153 C152 1.357 . S
C153 C154 1.406 . S
C154 H128 0.929 . S
C154 C153 1.406 . S
C154 C155 1.391 . S
C155 H127 0.931 . S
C155 C150 1.370 . S
C155 C154 1.391 . S
C156 N125 1.435 . S
C156 C157 1.358 . S
C156 C161 1.371 . S
C157 H129 0.930 . S
C157 C156 1.358 . S
C157 C158 1.405 . S
C158 H130 0.932 . S
C158 C157 1.405 . S
C158 C159 1.383 . S
C159 C158 1.383 . S
C159 C160 1.393 . S
C160 H132 0.931 . S
C160 C159 1.393 . S
C160 C161 1.382 . S
C161 H131 0.929 . S
C161 C156 1.371 . S
C161 C160 1.382 . S
C162 N125 1.423 . S
C162 C163 1.362 . S
C162 C167 1.388 . S
C163 H133 0.929 . S
C163 C162 1.362 . S
C163 C164 1.376 . S
C164 H135 0.931 . S
C164 C163 1.376 . S
C164 C165 1.396 . S
C165 C164 1.396 . S
C165 C166 1.348 . S
C165 C183 1.472 . S
C166 H136 0.929 . S
C166 C165 1.348 . S
C166 C167 1.443 . S
C167 H134 0.932 . S
C167 C162 1.388 . S
C167 C166 1.443 . S
C168 N148 1.433 . S
C168 C169 1.363 . S
C168 C173 1.370 . S
C169 H137 0.929 . S
C169 C168 1.363 . S
C169 C170 1.385 . S
C170 H138 0.930 . S
C170 C169 1.385 . S
C170 C171 1.357 . S
C171 C170 1.357 . S
C171 C172 1.406 . S
C172 H139 0.929 . S
C172 C171 1.406 . S
C172 C173 1.391 . S
C173 H140 0.931 . S
C173 C168 1.370 . S
C173 C172 1.391 . S
C174 N148 1.435 . S
C174 C175 1.358 . S
C174 C179 1.371 . S
C175 H141 0.930 . S
C175 C174 1.358 . S
C175 C176 1.405 . S
C176 H142 0.932 . S
C176 C175 1.405 . S
C176 C177 1.383 . S
C177 C176 1.383 . S
C177 C178 1.393 . S
C178 H143 0.931 . S
C178 C177 1.393 . S
C178 C179 1.382 . S
C179 H144 0.929 . S
C179 C174 1.371 . S
C179 C178 1.382 . S
C180 N148 1.423 . S
C180 C181 1.362 . S
C180 C185 1.388 . S
C181 H145 0.929 . S
C181 C180 1.362 . S
C181 C182 1.376 . S
C182 H146 0.931 . S
C182 C181 1.376 . S
C182 C183 1.396 . S
C183 C165 1.472 . S
C183 C182 1.396 . S
C183 C184 1.348 . S
C184 H147 0.929 . S
C184 C183 1.348 . S
C184 C185 1.443 . S
C185 H149 0.932 . S
C185 C180 1.388 . S
C185 C184 1.443 . S
H186 C213 0.929 . S
N187 C212 1.433 . S
N187 C218 1.435 . S
N187 C224 1.423 . S
H188 C214 0.930 . S
H189 C217 0.931 . S
H190 C216 0.929 . S
H191 C219 0.930 . S
H192 C220 0.932 . S
H193 C223 0.929 . S
H194 C222 0.931 . S
H195 C225 0.929 . S
H196 C229 0.932 . S
H197 C226 0.931 . S
H198 C228 0.929 . S
H199 C231 0.929 . S
H200 C232 0.930 . S
H201 C234 0.929 . S
H202 C235 0.931 . S
H203 C237 0.930 . S
H204 C238 0.932 . S
H205 C240 0.931 . S
H206 C241 0.929 . S
H207 C243 0.929 . S
H208 C244 0.931 . S
H209 C246 0.929 . S
N210 C230 1.433 . S
N210 C236 1.435 . S
N210 C242 1.423 . S
H211 C247 0.932 . S
C212 N187 1.433 . S
C212 C213 1.363 . S
C212 C217 1.370 . S
C213 H186 0.929 . S
C213 C212 1.363 . S
C213 C214 1.385 . S
C214 H188 0.930 . S
C214 C213 1.385 . S
C214 C215 1.357 . S
C215 C214 1.357 . S
C215 C216 1.406 . S
C216 H190 0.929 . S
C216 C215 1.406 . S
C216 C217 1.391 . S
C217 H189 0.931 . S
C217 C212 1.370 . S
C217 C216 1.391 . S
C218 N187 1.435 . S
C218 C219 1.358 . S
C218 C223 1.371 . S
C219 H191 0.930 . S
C219 C218 1.358 . S
C219 C220 1.405 . S
C220 H192 0.932 . S
C220 C219 1.405 . S
C220 C221 1.383 . S
C221 C220 1.383 . S
C221 C222 1.393 . S
C222 H194 0.931 . S
C222 C221 1.393 . S
C222 C223 1.382 . S
C223 H193 0.929 . S
C223 C218 1.371 . S
C223 C222 1.382 . S
C224 N187 1.423 . S
C224 C225 1.362 . S
C224 C229 1.388 . S
C225 H195 0.929 . S
C225 C224 1.362 . S
C225 C226 1.376 . S
C226 H197 0.931 . S
C226 C225 1.376 . S
C226 C227 1.396 . S
C227 C226 1.396 . S
C227 C228 1.348 . S
C227 C245 1.472 . S
C228 H198 0.929 . S
C228 C227 1.348 . S
C228 C229 1.443 . S
C229 H196 0.932 . S
C229 C224 1.388 . S
C229 C228 1.443 . S
C230 N210 1.433 . S
C230 C231 1.363 . S
C230 C235 1.370 . S
C231 H199 0.929 . S
C231 C230 1.363 . S
C231 C232 1.385 . S
C232 H200 0.930 . S
C232 C231 1.385 . S
C232 C233 1.357 . S
C233 C232 1.357 . S
C233 C234 1.406 . S
C234 H201 0.929 . S
C234 C233 1.406 . S
C234 C235 1.391 . S
C235 H202 0.931 . S
C235 C230 1.370 . S
C235 C234 1.391 . S
C236 N210 1.435 . S
C236 C237 1.358 . S
C236 C241 1.371 . S
C237 H203 0.930 . S
C237 C236 1.358 . S
C237 C238 1.405 . S
C238 H204 0.932 . S
C238 C237 1.405 . S
C238 C239 1.383 . S
C239 C238 1.383 . S
C239 C240 1.393 . S
C240 H205 0.931 . S
C240 C239 1.393 . S
C240 C241 1.382 . S
C241 H206 0.929 . S
C241 C236 1.371 . S
C241 C240 1.382 . S
C242 N210 1.423 . S
C242 C243 1.362 . S
C242 C247 1.388 . S
C243 H207 0.929 . S
C243 C242 1.362 . S
C243 C244 1.376 . S
C244 H208 0.931 . S
C244 C243 1.376 . S
C244 C245 1.396 . S
C245 C227 1.472 . S
C245 C244 1.396 . S
C245 C246 1.348 . S
C246 H209 0.929 . S
C246 C245 1.348 . S
C246 C247 1.443 . S
C247 H211 0.932 . S
C247 C242 1.388 . S
C247 C246 1.443 . S
H248 C275 0.929 . S
N249 C274 1.433 . S
N249 C280 1.435 . S
N249 C286 1.423 . S
H250 C276 0.930 . S
H251 C279 0.931 . S
H252 C278 0.929 . S
H253 C281 0.930 . S
H254 C282 0.932 . S
H255 C285 0.929 . S
H256 C284 0.931 . S
H257 C287 0.929 . S
H258 C291 0.932 . S
H259 C288 0.931 . S
H260 C290 0.929 . S
H261 C293 0.929 . S
H262 C294 0.930 . S
H263 C296 0.929 . S
H264 C297 0.931 . S
H265 C299 0.930 . S
H266 C300 0.932 . S
H267 C302 0.931 . S
H268 C303 0.929 . S
H269 C305 0.929 . S
H270 C306 0.931 . S
H271 C308 0.929 . S
N272 C292 1.433 . S
N272 C298 1.435 . S
N272 C304 1.423 . S
H273 C309 0.932 . S
C274 N249 1.433 . S
C274 C275 1.363 . S
C274 C279 1.370 . S
C275 H248 0.929 . S
C275 C274 1.363 . S
C275 C276 1.385 . S
C276 H250 0.930 . S
C276 C275 1.385 . S
C276 C277 1.357 . S
C277 C276 1.357 . S
C277 C278 1.406 . S
C278 H252 0.929 . S
C278 C277 1.406 . S
C278 C279 1.391 . S
C279 H251 0.931 . S
C279 C274 1.370 . S
C279 C278 1.391 . S
C280 N249 1.435 . S
C280 C281 1.358 . S
C280 C285 1.371 . S
C281 H253 0.930 . S
C281 C280 1.358 . S
C281 C282 1.405 . S
C282 H254 0.932 . S
C282 C281 1.405 . S
C282 C283 1.383 . S
C283 C282 1.383 . S
C283 C284 1.393 . S
C284 H256 0.931 . S
C284 C283 1.393 . S
C284 C285 1.382 . S
C285 H255 0.929 . S
C285 C280 1.371 . S
C285 C284 1.382 . S
C286 N249 1.423 . S
C286 C287 1.362 . S
C286 C291 1.388 . S
C287 H257 0.929 . S
C287 C286 1.362 . S
C287 C288 1.376 . S
C288 H259 0.931 . S
C288 C287 1.376 . S
C288 C289 1.396 . S
C289 C288 1.396 . S
C289 C290 1.348 . S
C289 C307 1.472 . S
C290 H260 0.929 . S
C290 C289 1.348 . S
C290 C291 1.443 . S
C291 H258 0.932 . S
C291 C286 1.388 . S
C291 C290 1.443 . S
C292 N272 1.433 . S
C292 C293 1.363 . S
C292 C297 1.370 . S
C293 H261 0.929 . S
C293 C292 1.363 . S
C293 C294 1.385 . S
C294 H262 0.930 . S
C294 C293 1.385 . S
C294 C295 1.357 . S
C295 C294 1.357 . S
C295 C296 1.406 . S
C296 H263 0.929 . S
C296 C295 1.406 . S
C296 C297 1.391 . S
C297 H264 0.931 . S
C297 C292 1.370 . S
C297 C296 1.391 . S
C298 N272 1.435 . S
C298 C299 1.358 . S
C298 C303 1.371 . S
C299 H265 0.930 . S
C299 C298 1.358 . S
C299 C300 1.405 . S
C300 H266 0.932 . S
C300 C299 1.405 . S
C300 C301 1.383 . S
C301 C300 1.383 . S
C301 C302 1.393 . S
C302 H267 0.931 . S
C302 C301 1.393 . S
C302 C303 1.382 . S
C303 H268 0.929 . S
C303 C298 1.371 . S
C303 C302 1.382 . S
C304 N272 1.423 . S
C304 C305 1.362 . S
C304 C309 1.388 . S
C305 H269 0.929 . S
C305 C304 1.362 . S
C305 C306 1.376 . S
C306 H270 0.931 . S
C306 C305 1.376 . S
C306 C307 1.396 . S
C307 C289 1.472 . S
C307 C306 1.396 . S
C307 C308 1.348 . S
C308 H271 0.929 . S
C308 C307 1.348 . S
C308 C309 1.443 . S
C309 H273 0.932 . S
C309 C304 1.388 . S
C309 C308 1.443 . S
H310 C337 0.929 . S
N311 C336 1.433 . S
N311 C342 1.435 . S
N311 C348 1.423 . S
H312 C338 0.930 . S
H313 C341 0.931 . S
H314 C340 0.929 . S
H315 C343 0.930 . S
H316 C344 0.932 . S
H317 C347 0.929 . S
H318 C346 0.931 . S
H319 C349 0.929 . S
H320 C353 0.932 . S
H321 C350 0.931 . S
H322 C352 0.929 . S
H323 C355 0.929 . S
H324 C356 0.930 . S
H325 C358 0.929 . S
H326 C359 0.931 . S
H327 C361 0.930 . S
H328 C362 0.932 . S
H329 C364 0.931 . S
H330 C365 0.929 . S
H331 C367 0.929 . S
H332 C368 0.931 . S
H333 C370 0.929 . S
N334 C354 1.433 . S
N334 C360 1.435 . S
N334 C366 1.423 . S
H335 C371 0.932 . S
C336 N311 1.433 . S
C336 C337 1.363 . S
C336 C341 1.370 . S
C337 H310 0.929 . S
C337 C336 1.363 . S
C337 C338 1.385 . S
C338 H312 0.930 . S
C338 C337 1.385 . S
C338 C339 1.357 . S
C339 C338 1.357 . S
C339 C340 1.406 . S
C340 H314 0.929 . S
C340 C339 1.406 . S
C340 C341 1.391 . S
C341 H313 0.931 . S
C341 C336 1.370 . S
C341 C340 1.391 . S
C342 N311 1.435 . S
C342 C343 1.358 . S
C342 C347 1.371 . S
C343 H315 0.930 . S
C343 C342 1.358 . S
C343 C344 1.405 . S
C344 H316 0.932 . S
C344 C343 1.405 . S
C344 C345 1.383 . S
C345 C344 1.383 . S
C345 C346 1.393 . S
C346 H318 0.931 . S
C346 C345 1.393 . S
C346 C347 1.382 . S
C347 H317 0.929 . S
C347 C342 1.371 . S
C347 C346 1.382 . S
C348 N311 1.423 . S
C348 C349 1.362 . S
C348 C353 1.388 . S
C349 H319 0.929 . S
C349 C348 1.362 . S
C349 C350 1.376 . S
C350 H321 0.931 . S
C350 C349 1.376 . S
C350 C351 1.396 . S
C351 C350 1.396 . S
C351 C352 1.348 . S
C351 C369 1.472 . S
C352 H322 0.929 . S
C352 C351 1.348 . S
C352 C353 1.443 . S
C353 H320 0.932 . S
C353 C348 1.388 . S
C353 C352 1.443 . S
C354 N334 1.433 . S
C354 C355 1.363 . S
C354 C359 1.370 . S
C355 H323 0.929 . S
C355 C354 1.363 . S
C355 C356 1.385 . S
C356 H324 0.930 . S
C356 C355 1.385 . S
C356 C357 1.357 . S
C357 C356 1.357 . S
C357 C358 1.406 . S
C358 H325 0.929 . S
C358 C357 1.406 . S
C358 C359 1.391 . S
C359 H326 0.931 . S
C359 C354 1.370 . S
C359 C358 1.391 . S
C360 N334 1.435 . S
C360 C361 1.358 . S
C360 C365 1.371 . S
C361 H327 0.930 . S
C361 C360 1.358 . S
C361 C362 1.405 . S
C362 H328 0.932 . S
C362 C361 1.405 . S
C362 C363 1.383 . S
C363 C362 1.383 . S
C363 C364 1.393 . S
C364 H329 0.931 . S
C364 C363 1.393 . S
C364 C365 1.382 . S
C365 H330 0.929 . S
C365 C360 1.371 . S
C365 C364 1.382 . S
C366 N334 1.423 . S
C366 C367 1.362 . S
C366 C371 1.388 . S
C367 H331 0.929 . S
C367 C366 1.362 . S
C367 C368 1.376 . S
C368 H332 0.931 . S
C368 C367 1.376 . S
C368 C369 1.396 . S
C369 C351 1.472 . S
C369 C368 1.396 . S
C369 C370 1.348 . S
C370 H333 0.929 . S
C370 C369 1.348 . S
C370 C371 1.443 . S
C371 H335 0.932 . S
C371 C366 1.388 . S
C371 C370 1.443 . S
H372 C399 0.929 . S
N373 C398 1.433 . S
N373 C404 1.435 . S
N373 C410 1.423 . S
H374 C400 0.930 . S
H375 C403 0.931 . S
H376 C402 0.929 . S
H377 C405 0.930 . S
H378 C406 0.932 . S
H379 C409 0.929 . S
H380 C408 0.931 . S
H381 C411 0.929 . S
H382 C415 0.932 . S
H383 C412 0.931 . S
H384 C414 0.929 . S
H385 C417 0.929 . S
H386 C418 0.930 . S
H387 C420 0.929 . S
H388 C421 0.931 . S
H389 C423 0.930 . S
H390 C424 0.932 . S
H391 C426 0.931 . S
H392 C427 0.929 . S
H393 C429 0.929 . S
H394 C430 0.931 . S
H395 C432 0.929 . S
N396 C416 1.433 . S
N396 C422 1.435 . S
N396 C428 1.423 . S
H397 C433 0.932 . S
C398 N373 1.433 . S
C398 C399 1.363 . S
C398 C403 1.370 . S
C399 H372 0.929 . S
C399 C398 1.363 . S
C399 C400 1.385 . S
C400 H374 0.930 . S
C400 C399 1.385 . S
C400 C401 1.357 . S
C401 C400 1.357 . S
C401 C402 1.406 . S
C402 H376 0.929 . S
C402 C401 1.406 . S
C402 C403 1.391 . S
C403 H375 0.931 . S
C403 C398 1.370 . S
C403 C402 1.391 . S
C404 N373 1.435 . S
C404 C405 1.358 . S
C404 C409 1.371 . S
C405 H377 0.930 . S
C405 C404 1.358 . S
C405 C406 1.405 . S
C406 H378 0.932 . S
C406 C405 1.405 . S
C406 C407 1.383 . S
C407 C406 1.383 . S
C407 C408 1.393 . S
C408 H380 0.931 . S
C408 C407 1.393 . S
C408 C409 1.382 . S
C409 H379 0.929 . S
C409 C404 1.371 . S
C409 C408 1.382 . S
C410 N373 1.423 . S
C410 C411 1.362 . S
C410 C415 1.388 . S
C411 H381 0.929 . S
C411 C410 1.362 . S
C411 C412 1.376 . S
C412 H383 0.931 . S
C412 C411 1.376 . S
C412 C413 1.396 . S
C413 C412 1.396 . S
C413 C414 1.348 . S
C413 C431 1.472 . S
C414 H384 0.929 . S
C414 C413 1.348 . S
C414 C415 1.443 . S
C415 H382 0.932 . S
C415 C410 1.388 . S
C415 C414 1.443 . S
C416 N396 1.433 . S
C416 C417 1.363 . S
C416 C421 1.370 . S
C417 H385 0.929 . S
C417 C416 1.363 . S
C417 C418 1.385 . S
C418 H386 0.930 . S
C418 C417 1.385 . S
C418 C419 1.357 . S
C419 C418 1.357 . S
C419 C420 1.406 . S
C420 H387 0.929 . S
C420 C419 1.406 . S
C420 C421 1.391 . S
C421 H388 0.931 . S
C421 C416 1.370 . S
C421 C420 1.391 . S
C422 N396 1.435 . S
C422 C423 1.358 . S
C422 C427 1.371 . S
C423 H389 0.930 . S
C423 C422 1.358 . S
C423 C424 1.405 . S
C424 H390 0.932 . S
C424 C423 1.405 . S
C424 C425 1.383 . S
C425 C424 1.383 . S
C425 C426 1.393 . S
C426 H391 0.931 . S
C426 C425 1.393 . S
C426 C427 1.382 . S
C427 H392 0.929 . S
C427 C422 1.371 . S
C427 C426 1.382 . S
C428 N396 1.423 . S
C428 C429 1.362 . S
C428 C433 1.388 . S
C429 H393 0.929 . S
C429 C428 1.362 . S
C429 C430 1.376 . S
C430 H394 0.931 . S
C430 C429 1.376 . S
C430 C431 1.396 . S
C431 C413 1.472 . S
C431 C430 1.396 . S
C431 C432 1.348 . S
C432 H395 0.929 . S
C432 C431 1.348 . S
C432 C433 1.443 . S
C433 H397 0.932 . S
C433 C428 1.388 . S
C433 C432 1.443 . S
H434 C461 0.929 . S
N435 C460 1.433 . S
N435 C466 1.435 . S
N435 C472 1.423 . S
H436 C462 0.930 . S
H437 C465 0.931 . S
H438 C464 0.929 . S
H439 C467 0.930 . S
H440 C468 0.932 . S
H441 C471 0.929 . S
H442 C470 0.931 . S
H443 C473 0.929 . S
H444 C477 0.932 . S
H445 C474 0.931 . S
H446 C476 0.929 . S
H447 C479 0.929 . S
H448 C480 0.930 . S
H449 C482 0.929 . S
H450 C483 0.931 . S
H451 C485 0.930 . S
H452 C486 0.932 . S
H453 C488 0.931 . S
H454 C489 0.929 . S
H455 C491 0.929 . S
H456 C492 0.931 . S
H457 C494 0.929 . S
N458 C478 1.433 . S
N458 C484 1.435 . S
N458 C490 1.423 . S
H459 C495 0.932 . S
C460 N435 1.433 . S
C460 C461 1.363 . S
C460 C465 1.370 . S
C461 H434 0.929 . S
C461 C460 1.363 . S
C461 C462 1.385 . S
C462 H436 0.930 . S
C462 C461 1.385 . S
C462 C463 1.357 . S
C463 C462 1.357 . S
C463 C464 1.406 . S
C464 H438 0.929 . S
C464 C463 1.406 . S
C464 C465 1.391 . S
C465 H437 0.931 . S
C465 C460 1.370 . S
C465 C464 1.391 . S
C466 N435 1.435 . S
C466 C467 1.358 . S
C466 C471 1.371 . S
C467 H439 0.930 . S
C467 C466 1.358 . S
C467 C468 1.405 . S
C468 H440 0.932 . S
C468 C467 1.405 . S
C468 C469 1.383 . S
C469 C468 1.383 . S
C469 C470 1.393 . S
C470 H442 0.931 . S
C470 C469 1.393 . S
C470 C471 1.382 . S
C471 H441 0.929 . S
C471 C466 1.371 . S
C471 C470 1.382 . S
C472 N435 1.423 . S
C472 C473 1.362 . S
C472 C477 1.388 . S
C473 H443 0.929 . S
C473 C472 1.362 . S
C473 C474 1.376 . S
C474 H445 0.931 . S
C474 C473 1.376 . S
C474 C475 1.396 . S
C475 C474 1.396 . S
C475 C476 1.348 . S
C475 C493 1.472 . S
C476 H446 0.929 . S
C476 C475 1.348 . S
C476 C477 1.443 . S
C477 H444 0.932 . S
C477 C472 1.388 . S
C477 C476 1.443 . S
C478 N458 1.433 . S
C478 C479 1.363 . S
C478 C483 1.370 . S
C479 H447 0.929 . S
C479 C478 1.363 . S
C479 C480 1.385 . S
C480 H448 0.930 . S
C480 C479 1.385 . S
C480 C481 1.357 . S
C481 C480 1.357 . S
C481 C482 1.406 . S
C482 H449 0.929 . S
C482 C481 1.406 . S
C482 C483 1.391 . S
C483 H450 0.931 . S
C483 C478 1.370 . S
C483 C482 1.391 . S
C484 N458 1.435 . S
C484 C485 1.358 . S
C484 C489 1.371 . S
C485 H451 0.930 . S
C485 C484 1.358 . S
C485 C486 1.405 . S
C486 H452 0.932 . S
C486 C485 1.405 . S
C486 C487 1.383 . S
C487 C486 1.383 . S
C487 C488 1.393 . S
C488 H453 0.931 . S
C488 C487 1.393 . S
C488 C489 1.382 . S
C489 H454 0.929 . S
C489 C484 1.371 . S
C489 C488 1.382 . S
C490 N458 1.423 . S
C490 C491 1.362 . S
C490 C495 1.388 . S
C491 H455 0.929 . S
C491 C490 1.362 . S
C491 C492 1.376 . S
C492 H456 0.931 . S
C492 C491 1.376 . S
C492 C493 1.396 . S
C493 C475 1.472 . S
C493 C492 1.396 . S
C493 C494 1.348 . S
C494 H457 0.929 . S
C494 C493 1.348 . S
C494 C495 1.443 . S
C495 H459 0.932 . S
C495 C490 1.388 . S
C495 C494 1.443 . S
C496 C497 1.443 . S
C496 N500 1.376 . S
C496 C534 1.389 . S
C497 C496 1.443 . S
C497 C498 1.340 . S
C497 H537 0.951 . S
C498 C497 1.340 . S
C498 C499 1.439 . S
C498 H538 0.950 . S
C499 C498 1.439 . S
C499 N500 1.374 . S
C499 C533 1.395 . S
N500 C496 1.376 . S
N500 C499 1.374 . S
N500 Co501 2.008 . S
Co501 N500 2.008 . S
Co501 N502 1.995 1_455 S
Co501 N507 2.008 1_455 S
Co501 N512 1.995 . S
Co501 N517 2.282 1_455 S
Co501 N523 2.282 . S
N502 Co501 1.995 1_655 S
N502 C503 1.375 . S
N502 C506 1.383 . S
C503 N502 1.375 . S
C503 C504 1.443 . S
C503 C533 1.394 1_655 S
C504 C503 1.443 . S
C504 C505 1.339 . S
C504 H539 0.949 . S
C505 C504 1.339 . S
C505 C506 1.439 . S
C505 H540 0.950 . S
C506 N502 1.383 . S
C506 C505 1.439 . S
C506 C535 1.392 . S
N507 Co501 2.008 1_655 S
N507 C508 1.376 . S
N507 C511 1.374 . S
C508 N507 1.376 . S
C508 C509 1.443 . S
C508 C535 1.389 . S
C509 C508 1.443 . S
C509 C510 1.340 . S
C509 H541 0.951 . S
C510 C509 1.340 . S
C510 C511 1.439 . S
C510 H542 0.950 . S
C511 N507 1.374 . S
C511 C510 1.439 . S
C511 C536 1.395 1_655 S
N512 Co501 1.995 . S
N512 C513 1.376 . S
N512 C516 1.383 . S
C513 N512 1.376 . S
C513 C514 1.446 . S
C513 C536 1.391 . S
C514 C513 1.446 . S
C514 C515 1.339 . S
C514 H543 0.949 . S
C515 C514 1.339 . S
C515 C516 1.439 . S
C515 H544 0.950 . S
C516 N512 1.383 . S
C516 C515 1.439 . S
C516 C534 1.392 . S
N517 Co501 2.282 1_655 S
N517 C520 1.332 . S
N517 C522 1.332 . S
C518 C519 1.386 . S
C518 C521 1.388 . S
C519 C518 1.386 . S
C519 C520 1.382 . S
C519 H545 0.950 . S
C520 N517 1.332 . S
C520 C519 1.382 . S
C520 H531 0.952 . S
C521 C518 1.388 . S
C521 C522 1.382 . S
C521 H546 0.950 . S
C522 N517 1.332 . S
C522 C521 1.382 . S
C522 H532 0.948 . S
N523 Co501 2.282 . S
N523 C527 1.332 . S
N523 C528 1.332 . S
C524 C525 1.388 . S
C524 C528 1.382 . S
C524 H547 0.950 . S
C525 C524 1.388 . S
C525 C526 1.386 . S
C526 C525 1.386 . S
C526 C527 1.382 . S
C526 H548 0.950 . S
C527 N523 1.332 . S
C527 C526 1.382 . S
C527 H529 0.952 . S
C528 N523 1.332 . S
C528 C524 1.382 . S
C528 H530 0.948 . S
H529 C527 0.952 . S
H530 C528 0.948 . S
H531 C520 0.952 . S
H532 C522 0.948 . S
C533 C499 1.395 . S
C533 C503 1.394 1_455 S
C534 C496 1.389 . S
C534 C516 1.392 . S
C535 C506 1.392 . S
C535 C508 1.389 . S
C536 C511 1.395 1_455 S
C536 C513 1.391 . S
H537 C497 0.951 . S
H538 C498 0.950 . S
H539 C504 0.949 . S
H540 C505 0.950 . S
H541 C509 0.951 . S
H542 C510 0.950 . S
H543 C514 0.949 . S
H544 C515 0.950 . S
H545 C519 0.950 . S
H546 C521 0.950 . S
H547 C524 0.950 . S
H548 C526 0.950 . S
C549 C550 1.443 . S
C549 N553 1.376 . S
C549 C587 1.389 . S
C550 C549 1.443 . S
C550 C551 1.340 . S
C550 H590 0.951 . S
C551 C550 1.340 . S
C551 C552 1.439 . S
C551 H591 0.950 . S
C552 C551 1.439 . S
C552 N553 1.374 . S
C552 C586 1.395 . S
N553 C549 1.376 . S
N553 C552 1.374 . S
N553 Co554 2.008 . S
Co554 N553 2.008 . S
Co554 N555 1.995 1_545 S
Co554 N560 2.008 1_545 S
Co554 N565 1.995 . S
Co554 N570 2.282 1_545 S
Co554 N576 2.282 . S
N555 Co554 1.995 1_565 S
N555 C556 1.376 1_565 S
N555 C559 1.383 . S
C556 N555 1.376 1_545 S
C556 C557 1.446 1_545 S
C556 C586 1.391 . S
C557 C556 1.446 1_565 S
C557 C558 1.339 . S
C557 H592 0.949 . S
C558 C557 1.339 . S
C558 C559 1.439 . S
C558 H593 0.950 . S
C559 N555 1.383 . S
C559 C558 1.439 . S
C559 C588 1.392 . S
N560 Co554 2.008 1_565 S
N560 C561 1.376 . S
N560 C564 1.374 . S
C561 N560 1.376 . S
C561 C562 1.443 . S
C561 C588 1.389 . S
C562 C561 1.443 . S
C562 C563 1.340 . S
C562 H594 0.951 . S
C563 C562 1.340 . S
C563 C564 1.439 . S
C563 H595 0.950 . S
C564 N560 1.374 . S
C564 C563 1.439 . S
C564 C589 1.395 1_565 S
N565 Co554 1.995 . S
N565 C566 1.376 . S
N565 C569 1.383 . S
C566 N565 1.376 . S
C566 C567 1.446 . S
C566 C589 1.391 . S
C567 C566 1.446 . S
C567 C568 1.339 . S
C567 H596 0.949 . S
C568 C567 1.339 . S
C568 C569 1.439 . S
C568 H597 0.950 . S
C569 N565 1.383 . S
C569 C568 1.439 . S
C569 C587 1.392 . S
N570 Co554 2.282 1_565 S
N570 C573 1.332 . S
N570 C575 1.332 . S
C571 C572 1.386 . S
C571 C574 1.388 . S
C572 C571 1.386 . S
C572 C573 1.382 . S
C572 H598 0.950 . S
C573 N570 1.332 . S
C573 C572 1.382 . S
C573 H584 0.952 . S
C574 C571 1.388 . S
C574 C575 1.382 . S
C574 H599 0.950 . S
C575 N570 1.332 . S
C575 C574 1.382 . S
C575 H585 0.948 . S
N576 Co554 2.282 . S
N576 C580 1.332 . S
N576 C581 1.332 . S
C577 C578 1.388 . S
C577 C581 1.382 . S
C577 H600 0.950 . S
C578 C577 1.388 . S
C578 C579 1.386 . S
C579 C578 1.386 . S
C579 C580 1.382 . S
C579 H601 0.950 . S
C580 N576 1.332 . S
C580 C579 1.382 . S
C580 H582 0.952 . S
C581 N576 1.332 . S
C581 C577 1.382 . S
C581 H583 0.948 . S
H582 C580 0.952 . S
H583 C581 0.948 . S
H584 C573 0.952 . S
H585 C575 0.948 . S
C586 C552 1.395 . S
C586 C556 1.391 . S
C587 C549 1.389 . S
C587 C569 1.392 . S
C588 C559 1.392 . S
C588 C561 1.389 . S
C589 C564 1.395 1_545 S
C589 C566 1.391 . S
H590 C550 0.951 . S
H591 C551 0.950 . S
H592 C557 0.949 . S
H593 C558 0.950 . S
H594 C562 0.951 . S
H595 C563 0.950 . S
H596 C567 0.949 . S
H597 C568 0.950 . S
H598 C572 0.950 . S
H599 C574 0.950 . S
H600 C577 0.950 . S
H601 C579 0.950 . S
C602 C603 1.443 . S
C602 N606 1.376 . S
C602 C640 1.389 . S
C603 C602 1.443 . S
C603 C604 1.340 . S
C603 H643 0.951 . S
C604 C603 1.340 . S
C604 C605 1.439 . S
C604 H644 0.950 . S
C605 C604 1.439 . S
C605 N606 1.374 . S
C605 C639 1.395 . S
N606 C602 1.376 . S
N606 C605 1.374 . S
N606 Co607 2.008 . S
Co607 N606 2.008 . S
Co607 N608 1.995 1_455 S
Co607 N613 2.008 1_455 S
Co607 N618 1.995 . S
Co607 N623 2.282 1_455 S
Co607 N629 2.282 . S
N608 Co607 1.995 1_655 S
N608 C609 1.376 . S
N608 C612 1.383 . S
C609 N608 1.376 . S
C609 C610 1.446 . S
C609 C639 1.391 1_655 S
C610 C609 1.446 . S
C610 C611 1.339 . S
C610 H645 0.949 . S
C611 C610 1.339 . S
C611 C612 1.439 . S
C611 H646 0.950 . S
C612 N608 1.383 . S
C612 C611 1.439 . S
C612 C641 1.392 . S
N613 Co607 2.008 1_655 S
N613 C614 1.376 . S
N613 C617 1.374 . S
C614 N613 1.376 . S
C614 C615 1.443 . S
C614 C641 1.389 . S
C615 C614 1.443 . S
C615 C616 1.340 . S
C615 H647 0.951 . S
C616 C615 1.340 . S
C616 C617 1.439 . S
C616 H648 0.950 . S
C617 N613 1.374 . S
C617 C616 1.439 . S
C617 C642 1.395 1_655 S
N618 Co607 1.995 . S
N618 C619 1.376 . S
N618 C622 1.383 . S
C619 N618 1.376 . S
C619 C620 1.446 . S
C619 C642 1.391 . S
C620 C619 1.446 . S
C620 C621 1.339 . S
C620 H649 0.949 . S
C621 C620 1.339 . S
C621 C622 1.439 . S
C621 H650 0.950 . S
C622 N618 1.383 . S
C622 C621 1.439 . S
C622 C640 1.392 . S
N623 Co607 2.282 1_655 S
N623 C626 1.332 . S
N623 C628 1.332 . S
C624 C625 1.386 . S
C624 C627 1.388 . S
C625 C624 1.386 . S
C625 C626 1.382 . S
C625 H651 0.950 . S
C626 N623 1.332 . S
C626 C625 1.382 . S
C626 H637 0.952 . S
C627 C624 1.388 . S
C627 C628 1.382 . S
C627 H652 0.950 . S
C628 N623 1.332 . S
C628 C627 1.382 . S
C628 H638 0.948 . S
N629 Co607 2.282 . S
N629 C633 1.332 . S
N629 C634 1.332 . S
C630 C631 1.388 . S
C630 C634 1.382 . S
C630 H653 0.950 . S
C631 C630 1.388 . S
C631 C632 1.386 . S
C632 C631 1.386 . S
C632 C633 1.382 . S
C632 H654 0.950 . S
C633 N629 1.332 . S
C633 C632 1.382 . S
C633 H635 0.952 . S
C634 N629 1.332 . S
C634 C630 1.382 . S
C634 H636 0.948 . S
H635 C633 0.952 . S
H636 C634 0.948 . S
H637 C626 0.952 . S
H638 C628 0.948 . S
C639 C605 1.395 . S
C639 C609 1.391 1_455 S
C640 C602 1.389 . S
C640 C622 1.392 . S
C641 C612 1.392 . S
C641 C614 1.389 . S
C642 C617 1.395 1_455 S
C642 C619 1.391 . S
H643 C603 0.951 . S
H644 C604 0.950 . S
H645 C610 0.949 . S
H646 C611 0.950 . S
H647 C615 0.951 . S
H648 C616 0.950 . S
H649 C620 0.949 . S
H650 C621 0.950 . S
H651 C625 0.950 . S
H652 C627 0.950 . S
H653 C630 0.950 . S
H654 C632 0.950 . S
C655 C656 1.443 . S
C655 N659 1.376 . S
C655 C693 1.389 . S
C656 C655 1.443 . S
C656 C657 1.340 . S
C656 H696 0.951 . S
C657 C656 1.340 . S
C657 C658 1.439 . S
C657 H697 0.950 . S
C658 C657 1.439 . S
C658 N659 1.374 . S
C658 C692 1.395 1_565 S
N659 C655 1.376 . S
N659 C658 1.374 . S
N659 Co660 2.008 1_565 S
Co660 N659 2.008 1_545 S
Co660 N661 1.995 . S
Co660 N666 2.008 . S
Co660 N671 1.995 1_545 S
Co660 N676 2.282 . S
Co660 N682 2.282 1_545 S
N661 Co660 1.995 . S
N661 C662 1.376 . S
N661 C665 1.383 . S
C662 N661 1.376 . S
C662 C663 1.446 . S
C662 C692 1.391 . S
C663 C662 1.446 . S
C663 C664 1.339 . S
C663 H698 0.949 . S
C664 C663 1.339 . S
C664 C665 1.439 . S
C664 H699 0.950 . S
C665 N661 1.383 . S
C665 C664 1.439 . S
C665 C694 1.392 . S
N666 Co660 2.008 . S
N666 C667 1.376 . S
N666 C670 1.374 . S
C667 N666 1.376 . S
C667 C668 1.443 . S
C667 C694 1.389 . S
C668 C667 1.443 . S
C668 C669 1.340 . S
C668 H700 0.951 . S
C669 C668 1.340 . S
C669 C670 1.439 . S
C669 H701 0.950 . S
C670 N666 1.374 . S
C670 C669 1.439 . S
C670 C695 1.395 . S
N671 Co660 1.995 1_565 S
N671 C672 1.376 1_565 S
N671 C675 1.383 . S
C672 N671 1.376 1_545 S
C672 C673 1.446 1_545 S
C672 C695 1.391 . S
C673 C672 1.446 1_565 S
C673 C674 1.339 . S
C673 H702 0.949 . S
C674 C673 1.339 . S
C674 C675 1.439 . S
C674 H703 0.950 . S
C675 N671 1.383 . S
C675 C674 1.439 . S
C675 C693 1.392 . S
N676 Co660 2.282 . S
N676 C679 1.332 . S
N676 C681 1.332 . S
C677 C678 1.386 . S
C677 C680 1.388 . S
C678 C677 1.386 . S
C678 C679 1.382 . S
C678 H704 0.950 . S
C679 N676 1.332 . S
C679 C678 1.382 . S
C679 H690 0.952 . S
C680 C677 1.388 . S
C680 C681 1.382 . S
C680 H705 0.950 . S
C681 N676 1.332 . S
C681 C680 1.382 . S
C681 H691 0.948 . S
N682 Co660 2.282 1_565 S
N682 C686 1.332 . S
N682 C687 1.332 . S
C683 C684 1.388 . S
C683 C687 1.382 . S
C683 H706 0.950 . S
C684 C683 1.388 . S
C684 C685 1.386 . S
C685 C684 1.386 . S
C685 C686 1.382 . S
C685 H707 0.950 . S
C686 N682 1.332 . S
C686 C685 1.382 . S
C686 H688 0.952 . S
C687 N682 1.332 . S
C687 C683 1.382 . S
C687 H689 0.948 . S
H688 C686 0.952 . S
H689 C687 0.948 . S
H690 C679 0.952 . S
H691 C681 0.948 . S
C692 C658 1.395 1_545 S
C692 C662 1.391 . S
C693 C655 1.389 . S
C693 C675 1.392 . S
C694 C665 1.392 . S
C694 C667 1.389 . S
C695 C670 1.395 . S
C695 C672 1.391 . S
H696 C656 0.951 . S
H697 C657 0.950 . S
H698 C663 0.949 . S
H699 C664 0.950 . S
H700 C668 0.951 . S
H701 C669 0.950 . S
H702 C673 0.949 . S
H703 C674 0.950 . S
H704 C678 0.950 . S
H705 C680 0.950 . S
H706 C683 0.950 . S
H707 C685 0.950 . S
C708 C709 1.443 . S
C708 N712 1.376 . S
C708 C746 1.389 . S
C709 C708 1.443 . S
C709 C710 1.340 . S
C709 H749 0.951 . S
C710 C709 1.340 . S
C710 C711 1.439 . S
C710 H750 0.950 . S
C711 C710 1.439 . S
C711 N712 1.374 . S
C711 C745 1.383 1_554 S
N712 C708 1.376 . S
N712 C711 1.374 . S
N712 Co713 2.008 . S
Co713 N712 2.008 . S
Co713 N714 1.995 1_554 S
Co713 N719 2.008 1_554 S
Co713 N724 1.995 . S
Co713 N729 2.282 . S
Co713 N735 2.282 1_554 S
N714 Co713 1.995 1_556 S
N714 C715 1.376 . S
N714 C718 1.383 . S
C715 N714 1.376 . S
C715 C716 1.446 . S
C715 C745 1.403 . S
C716 C715 1.446 . S
C716 C717 1.339 . S
C716 H751 0.949 . S
C717 C716 1.339 . S
C717 C718 1.439 . S
C717 H752 0.950 . S
C718 N714 1.383 . S
C718 C717 1.439 . S
C718 C747 1.392 . S
N719 Co713 2.008 1_556 S
N719 C720 1.376 . S
N719 C723 1.374 . S
C720 N719 1.376 . S
C720 C721 1.443 . S
C720 C747 1.389 . S
C721 C720 1.443 . S
C721 C722 1.340 . S
C721 H753 0.951 . S
C722 C721 1.340 . S
C722 C723 1.439 . S
C722 H754 0.950 . S
C723 N719 1.374 . S
C723 C722 1.439 . S
C723 C748 1.378 1_556 S
N724 Co713 1.995 . S
N724 C725 1.376 . S
N724 C728 1.383 . S
C725 N724 1.376 . S
C725 C726 1.446 . S
C725 C748 1.407 . S
C726 C725 1.446 . S
C726 C727 1.339 . S
C726 H755 0.949 . S
C727 C726 1.339 . S
C727 C728 1.439 . S
C727 H756 0.950 . S
C728 N724 1.383 . S
C728 C727 1.439 . S
C728 C746 1.392 . S
N729 Co713 2.282 . S
N729 C732 1.332 . S
N729 C734 1.332 . S
C730 C731 1.386 . S
C730 C733 1.388 . S
C731 C730 1.386 . S
C731 C732 1.382 . S
C731 H757 0.950 . S
C732 N729 1.332 . S
C732 C731 1.382 . S
C732 H743 0.952 . S
C733 C730 1.388 . S
C733 C734 1.382 . S
C733 H758 0.950 . S
C734 N729 1.332 . S
C734 C733 1.382 . S
C734 H744 0.948 . S
N735 Co713 2.282 1_556 S
N735 C739 1.332 . S
N735 C740 1.332 . S
C736 C737 1.388 . S
C736 C740 1.382 . S
C736 H759 0.950 . S
C737 C736 1.388 . S
C737 C738 1.386 . S
C738 C737 1.386 . S
C738 C739 1.382 . S
C738 H760 0.950 . S
C739 N735 1.332 . S
C739 C738 1.382 . S
C739 H741 0.952 . S
C740 N735 1.332 . S
C740 C736 1.382 . S
C740 H742 0.948 . S
H741 C739 0.952 . S
H742 C740 0.948 . S
H743 C732 0.952 . S
H744 C734 0.948 . S
C745 C711 1.383 1_556 S
C745 C715 1.403 . S
C746 C708 1.389 . S
C746 C728 1.392 . S
C747 C718 1.392 . S
C747 C720 1.389 . S
C748 C723 1.378 1_554 S
C748 C725 1.407 . S
H749 C709 0.951 . S
H750 C710 0.950 . S
H751 C716 0.949 . S
H752 C717 0.950 . S
H753 C721 0.951 . S
H754 C722 0.950 . S
H755 C726 0.949 . S
H756 C727 0.950 . S
H757 C731 0.950 . S
H758 C733 0.950 . S
H759 C736 0.950 . S
H760 C738 0.950 . S
C761 C762 1.443 . S
C761 N765 1.376 . S
C761 C799 1.389 . S
C762 C761 1.443 . S
C762 C763 1.340 . S
C762 H802 0.951 . S
C763 C762 1.340 . S
C763 C764 1.439 . S
C763 H803 0.950 . S
C764 C763 1.439 . S
C764 N765 1.374 . S
C764 C798 1.395 . S
N765 C761 1.376 . S
N765 C764 1.374 . S
N765 Co766 2.008 . S
Co766 N765 2.008 . S
Co766 N767 1.995 . S
Co766 N772 2.008 . S
Co766 N777 1.995 . S
Co766 N782 2.282 . S
Co766 N788 2.282 . S
N767 Co766 1.995 . S
N767 C768 1.376 . S
N767 C771 1.383 1_554 S
C768 N767 1.376 . S
C768 C769 1.446 1_554 S
C768 C798 1.391 . S
C769 C768 1.446 1_556 S
C769 C770 1.339 . S
C769 H804 0.949 . S
C770 C769 1.339 . S
C770 C771 1.439 . S
C770 H805 0.950 . S
C771 N767 1.383 1_556 S
C771 C770 1.439 . S
C771 C800 1.392 . S
N772 Co766 2.008 . S
N772 C773 1.376 . S
N772 C776 1.374 . S
C773 N772 1.376 . S
C773 C774 1.443 . S
C773 C800 1.389 1_554 S
C774 C773 1.443 . S
C774 C775 1.340 . S
C774 H806 0.951 1_554 S
C775 C774 1.340 . S
C775 C776 1.439 . S
C775 H807 0.950 . S
C776 N772 1.374 . S
C776 C775 1.439 . S
C776 C801 1.395 . S
N777 Co766 1.995 . S
N777 C778 1.376 . S
N777 C781 1.383 . S
C778 N777 1.376 . S
C778 C779 1.446 . S
C778 C801 1.391 . S
C779 C778 1.446 . S
C779 C780 1.339 . S
C779 H808 0.949 . S
C780 C779 1.339 . S
C780 C781 1.439 . S
C780 H809 0.950 . S
C781 N777 1.383 . S
C781 C780 1.439 . S
C781 C799 1.392 . S
N782 Co766 2.282 . S
N782 C785 1.332 . S
N782 C787 1.332 . S
C783 C784 1.386 . S
C783 C786 1.388 . S
C784 C783 1.386 . S
C784 C785 1.382 . S
C784 H810 0.950 . S
C785 N782 1.332 . S
C785 C784 1.382 . S
C785 H796 0.952 . S
C786 C783 1.388 . S
C786 C787 1.382 . S
C786 H811 0.950 . S
C787 N782 1.332 . S
C787 C786 1.382 . S
C787 H797 0.948 . S
N788 Co766 2.282 . S
N788 C792 1.332 1_554 S
N788 C793 1.332 . S
C789 C790 1.388 . S
C789 C793 1.382 1_556 S
C789 H812 0.950 . S
C790 C789 1.388 . S
C790 C791 1.386 . S
C791 C790 1.386 . S
C791 C792 1.382 . S
C791 H813 0.950 . S
C792 N788 1.332 1_556 S
C792 C791 1.382 . S
C792 H794 0.952 . S
C793 N788 1.332 . S
C793 C789 1.382 1_554 S
C793 H795 0.948 . S
H794 C792 0.952 . S
H795 C793 0.948 . S
H796 C785 0.952 . S
H797 C787 0.948 . S
C798 C764 1.395 . S
C798 C768 1.391 . S
C799 C761 1.389 . S
C799 C781 1.392 . S
C800 C771 1.392 . S
C800 C773 1.389 1_556 S
C801 C776 1.395 . S
C801 C778 1.391 . S
H802 C762 0.951 . S
H803 C763 0.950 . S
H804 C769 0.949 . S
H805 C770 0.950 . S
H806 C774 0.951 1_556 S
H807 C775 0.950 . S
H808 C779 0.949 . S
H809 C780 0.950 . S
H810 C784 0.950 . S
H811 C786 0.950 . S
H812 C789 0.950 . S
H813 C791 0.950 . S
C814 C815 1.443 . S
C814 N818 1.376 1_556 S
C814 C852 1.389 . S
C815 C814 1.443 . S
C815 C816 1.340 1_556 S
C815 H855 0.951 . S
C816 C815 1.340 1_554 S
C816 C817 1.439 . S
C816 H856 0.950 . S
C817 C816 1.439 . S
C817 N818 1.374 . S
C817 C851 1.395 . S
N818 C814 1.376 1_554 S
N818 C817 1.374 . S
N818 Co819 2.008 . S
Co819 N818 2.008 . S
Co819 N820 1.995 . S
Co819 N825 2.008 . S
Co819 N830 1.995 . S
Co819 N835 2.282 1_554 S
Co819 N841 2.282 . S
N820 Co819 1.995 . S
N820 C821 1.376 . S
N820 C824 1.383 . S
C821 N820 1.376 . S
C821 C822 1.446 . S
C821 C851 1.391 . S
C822 C821 1.446 . S
C822 C823 1.339 . S
C822 H857 0.949 . S
C823 C822 1.339 . S
C823 C824 1.439 . S
C823 H858 0.950 . S
C824 N820 1.383 . S
C824 C823 1.439 . S
C824 C853 1.392 . S
N825 Co819 2.008 . S
N825 C826 1.376 . S
N825 C829 1.374 . S
C826 N825 1.376 . S
C826 C827 1.443 . S
C826 C853 1.389 . S
C827 C826 1.443 . S
C827 C828 1.340 . S
C827 H859 0.951 . S
C828 C827 1.340 . S
C828 C829 1.439 . S
C828 H860 0.950 . S
C829 N825 1.374 . S
C829 C828 1.439 . S
C829 C854 1.395 . S
N830 Co819 1.995 . S
N830 C831 1.376 . S
N830 C834 1.383 1_554 S
C831 N830 1.376 . S
C831 C832 1.446 1_554 S
C831 C854 1.391 . S
C832 C831 1.446 1_556 S
C832 C833 1.339 . S
C832 H861 0.949 . S
C833 C832 1.339 . S
C833 C834 1.439 . S
C833 H862 0.950 . S
C834 N830 1.383 1_556 S
C834 C833 1.439 . S
C834 C852 1.392 . S
N835 Co819 2.282 1_556 S
N835 C838 1.332 . S
N835 C840 1.332 . S
C836 C837 1.386 . S
C836 C839 1.388 . S
C837 C836 1.386 . S
C837 C838 1.382 . S
C837 H863 0.950 . S
C838 N835 1.332 . S
C838 C837 1.382 . S
C838 H849 0.952 . S
C839 C836 1.388 . S
C839 C840 1.382 . S
C839 H864 0.950 . S
C840 N835 1.332 . S
C840 C839 1.382 . S
C840 H850 0.948 1_556 S
N841 Co819 2.282 . S
N841 C845 1.332 . S
N841 C846 1.332 . S
C842 C843 1.388 . S
C842 C846 1.382 . S
C842 H865 0.950 . S
C843 C842 1.388 . S
C843 C844 1.386 . S
C844 C843 1.386 . S
C844 C845 1.382 . S
C844 H866 0.950 . S
C845 N841 1.332 . S
C845 C844 1.382 . S
C845 H847 0.952 . S
C846 N841 1.332 . S
C846 C842 1.382 . S
C846 H848 0.948 . S
H847 C845 0.952 . S
H848 C846 0.948 . S
H849 C838 0.952 . S
H850 C840 0.948 1_554 S
C851 C817 1.395 . S
C851 C821 1.391 . S
C852 C814 1.389 . S
C852 C834 1.392 . S
C853 C824 1.392 . S
C853 C826 1.389 . S
C854 C829 1.395 . S
C854 C831 1.391 . S
H855 C815 0.951 . S
H856 C816 0.950 . S
H857 C822 0.949 . S
H858 C823 0.950 . S
H859 C827 0.951 . S
H860 C828 0.950 . S
H861 C832 0.949 . S
H862 C833 0.950 . S
H863 C837 0.950 . S
H864 C839 0.950 . S
H865 C842 0.950 . S
H866 C844 0.950 . S
C867 C868 1.443 . S
C867 N871 1.376 . S
C867 C905 1.389 . S
C868 C867 1.443 . S
C868 C869 1.340 . S
C868 H908 0.951 . S
C869 C868 1.340 . S
C869 C870 1.439 . S
C869 H909 0.950 . S
C870 C869 1.439 . S
C870 N871 1.374 . S
C870 C904 1.395 . S
N871 C867 1.376 . S
N871 C870 1.374 . S
N871 Co872 2.008 . S
Co872 N871 2.008 . S
Co872 N873 1.995 . S
Co872 N878 2.008 . S
Co872 N883 1.995 . S
Co872 N888 2.282 . S
Co872 N894 2.282 1_554 S
N873 Co872 1.995 . S
N873 C874 1.377 1_554 S
N873 C877 1.383 1_554 S
C874 N873 1.377 1_556 S
C874 C875 1.467 . S
C874 C904 1.372 1_556 S
C875 C874 1.467 . S
C875 C876 1.339 . S
C875 H910 0.949 . S
C876 C875 1.339 . S
C876 C877 1.439 . S
C876 H911 0.950 . S
C877 N873 1.383 1_556 S
C877 C876 1.439 . S
C877 C906 1.392 . S
N878 Co872 2.008 . S
N878 C879 1.376 1_554 S
N878 C882 1.374 . S
C879 N878 1.376 1_556 S
C879 C880 1.443 . S
C879 C906 1.389 . S
C880 C879 1.443 . S
C880 C881 1.340 1_556 S
C880 H912 0.951 . S
C881 C880 1.340 1_554 S
C881 C882 1.439 . S
C881 H913 0.950 . S
C882 N878 1.374 . S
C882 C881 1.439 . S
C882 C907 1.395 . S
N883 Co872 1.995 . S
N883 C884 1.376 . S
N883 C887 1.383 . S
C884 N883 1.376 . S
C884 C885 1.446 . S
C884 C907 1.391 . S
C885 C884 1.446 . S
C885 C886 1.339 . S
C885 H914 0.949 . S
C886 C885 1.339 . S
C886 C887 1.439 . S
C886 H915 0.950 . S
C887 N883 1.383 . S
C887 C886 1.439 . S
C887 C905 1.392 . S
N888 Co872 2.282 . S
N888 C891 1.332 . S
N888 C893 1.332 . S
C889 C890 1.386 . S
C889 C892 1.388 . S
C890 C889 1.386 . S
C890 C891 1.382 . S
C890 H916 0.950 . S
C891 N888 1.332 . S
C891 C890 1.382 . S
C891 H902 0.952 . S
C892 C889 1.388 . S
C892 C893 1.382 . S
C892 H917 0.950 . S
C893 N888 1.332 . S
C893 C892 1.382 . S
C893 H903 0.948 . S
N894 Co872 2.282 1_556 S
N894 C898 1.332 . S
N894 C899 1.332 . S
C895 C896 1.388 . S
C895 C899 1.382 . S
C895 H918 0.950 . S
C896 C895 1.388 . S
C896 C897 1.386 . S
C897 C896 1.386 . S
C897 C898 1.382 . S
C897 H919 0.950 . S
C898 N894 1.332 . S
C898 C897 1.382 . S
C898 H900 0.952 . S
C899 N894 1.332 . S
C899 C895 1.382 . S
C899 H901 0.948 1_556 S
H900 C898 0.952 . S
H901 C899 0.948 1_554 S
H902 C891 0.952 . S
H903 C893 0.948 . S
C904 C870 1.395 . S
C904 C874 1.372 1_554 S
C905 C867 1.389 . S
C905 C887 1.392 . S
C906 C877 1.392 . S
C906 C879 1.389 . S
C907 C882 1.395 . S
C907 C884 1.391 . S
H908 C868 0.951 . S
H909 C869 0.950 . S
H910 C875 0.949 . S
H911 C876 0.950 . S
H912 C880 0.951 . S
H913 C881 0.950 . S
H914 C885 0.949 . S
H915 C886 0.950 . S
H916 C890 0.950 . S
H917 C892 0.950 . S
H918 C895 0.950 . S
H919 C897 0.950 . S
C920 C921 1.369 . S
C920 C922 1.419 . S
C920 H924 0.930 . S
C921 C920 1.369 . S
C921 C930 1.429 . S
C922 C920 1.419 . S
C922 C923 1.363 . S
C922 H925 0.929 . S
C923 C922 1.363 . S
C923 C929 1.428 . S
H924 C920 0.930 . S
H925 C922 0.929 . S
S926 N927 1.613 . S
S926 N928 1.610 . S
N927 S926 1.613 . S
N927 C930 1.350 . S
N928 S926 1.610 . S
N928 C929 1.351 . S
C929 C923 1.428 . S
C929 N928 1.351 . S
C929 C930 1.434 . S
C930 C921 1.429 . S
C930 N927 1.350 . S
C930 C929 1.434 . S
C931 C932 1.369 . S
C931 C933 1.419 . S
C931 H935 0.930 . S
C932 C931 1.369 . S
C932 C941 1.429 . S
C933 C931 1.419 . S
C933 C934 1.363 . S
C933 H936 0.929 . S
C934 C933 1.363 . S
C934 C940 1.428 . S
H935 C931 0.930 . S
H936 C933 0.929 . S
S937 N938 1.613 . S
S937 N939 1.610 . S
N938 S937 1.613 . S
N938 C941 1.350 . S
N939 S937 1.610 . S
N939 C940 1.351 . S
C940 C934 1.428 . S
C940 N939 1.351 . S
C940 C941 1.434 . S
C941 C932 1.429 . S
C941 N938 1.350 . S
C941 C940 1.434 . S
C942 C943 1.369 . S
C942 C944 1.419 . S
C942 H946 0.930 . S
C943 C942 1.369 . S
C943 C952 1.429 . S
C944 C942 1.419 . S
C944 C945 1.363 . S
C944 H947 0.929 . S
C945 C944 1.363 . S
C945 C951 1.428 . S
H946 C942 0.930 . S
H947 C944 0.929 . S
S948 N949 1.613 . S
S948 N950 1.610 . S
N949 S948 1.613 . S
N949 C952 1.350 . S
N950 S948 1.610 . S
N950 C951 1.351 . S
C951 C945 1.428 . S
C951 N950 1.351 . S
C951 C952 1.434 . S
C952 C943 1.429 . S
C952 N949 1.350 . S
C952 C951 1.434 . S
C953 C954 1.369 . S
C953 C955 1.419 . S
C953 H957 0.930 . S
C954 C953 1.369 . S
C954 C963 1.429 . S
C955 C953 1.419 . S
C955 C956 1.363 . S
C955 H958 0.929 . S
C956 C955 1.363 . S
C956 C962 1.428 . S
H957 C953 0.930 . S
H958 C955 0.929 . S
S959 N960 1.613 . S
S959 N961 1.610 . S
N960 S959 1.613 . S
N960 C963 1.350 . S
N961 S959 1.610 . S
N961 C962 1.351 . S
C962 C956 1.428 . S
C962 N961 1.351 . S
C962 C963 1.434 . S
C963 C954 1.429 . S
C963 N960 1.350 . S
C963 C962 1.434 . S
C964 C965 1.369 . S
C964 C966 1.419 . S
C964 H968 0.930 . S
C965 C964 1.369 . S
C965 C974 1.429 . S
C966 C964 1.419 . S
C966 C967 1.363 . S
C966 H969 0.929 . S
C967 C966 1.363 . S
C967 C973 1.428 . S
H968 C964 0.930 . S
H969 C966 0.929 . S
S970 N971 1.613 . S
S970 N972 1.610 . S
N971 S970 1.613 . S
N971 C974 1.350 . S
N972 S970 1.610 . S
N972 C973 1.351 . S
C973 C967 1.428 . S
C973 N972 1.351 . S
C973 C974 1.434 . S
C974 C965 1.429 . S
C974 N971 1.350 . S
C974 C973 1.434 . S
C975 C976 1.369 . S
C975 C977 1.419 . S
C975 H979 0.930 . S
C976 C975 1.369 . S
C976 C985 1.429 . S
C977 C975 1.419 . S
C977 C978 1.363 . S
C977 H980 0.929 . S
C978 C977 1.363 . S
C978 C984 1.428 . S
H979 C975 0.930 . S
H980 C977 0.929 . S
S981 N982 1.613 . S
S981 N983 1.610 . S
N982 S981 1.613 . S
N982 C985 1.350 . S
N983 S981 1.610 . S
N983 C984 1.351 . S
C984 C978 1.428 . S
C984 N983 1.351 . S
C984 C985 1.434 . S
C985 C976 1.429 . S
C985 N982 1.350 . S
C985 C984 1.434 . S
C986 C987 1.369 . S
C986 C988 1.419 . S
C986 H990 0.930 . S
C987 C986 1.369 . S
C987 C996 1.429 . S
C988 C986 1.419 . S
C988 C989 1.363 . S
C988 H991 0.929 . S
C989 C988 1.363 . S
C989 C995 1.428 . S
H990 C986 0.930 . S
H991 C988 0.929 . S
S992 N993 1.613 . S
S992 N994 1.610 . S
N993 S992 1.613 . S
N993 C996 1.350 . S
N994 S992 1.610 . S
N994 C995 1.351 . S
C995 C989 1.428 . S
C995 N994 1.351 . S
C995 C996 1.434 . S
C996 C987 1.429 . S
C996 N993 1.350 . S
C996 C995 1.434 . S
C997 C998 1.369 . S
C997 C999 1.419 . S
C997 H1001 0.930 . S
C998 C997 1.369 . S
C998 C1007 1.429 . S
C999 C997 1.419 . S
C999 C1000 1.363 . S
C999 H1002 0.929 . S
C1000 C999 1.363 . S
C1000 C1006 1.428 . S
H1001 C997 0.930 . S
H1002 C999 0.929 . S
S1003 N1004 1.613 . S
S1003 N1005 1.610 . S
N1004 S1003 1.613 . S
N1004 C1007 1.350 . S
N1005 S1003 1.610 . S
N1005 C1006 1.351 . S
C1006 C1000 1.428 . S
C1006 N1005 1.351 . S
C1006 C1007 1.434 . S
C1007 C998 1.429 . S
C1007 N1004 1.350 . S
C1007 C1006 1.434 . S
C1008 C1009 1.369 . S
C1008 C1010 1.419 . S
C1008 H1012 0.930 . S
C1009 C1008 1.369 . S
C1009 C1018 1.429 . S
C1010 C1008 1.419 . S
C1010 C1011 1.363 . S
C1010 H1013 0.929 . S
C1011 C1010 1.363 . S
C1011 C1017 1.428 . S
H1012 C1008 0.930 . S
H1013 C1010 0.929 . S
S1014 N1015 1.613 . S
S1014 N1016 1.610 . S
N1015 S1014 1.613 . S
N1015 C1018 1.350 . S
N1016 S1014 1.610 . S
N1016 C1017 1.351 . S
C1017 C1011 1.428 . S
C1017 N1016 1.351 . S
C1017 C1018 1.434 . S
C1018 C1009 1.429 . S
C1018 N1015 1.350 . S
C1018 C1017 1.434 . S
C1019 C1020 1.369 . S
C1019 C1021 1.419 . S
C1019 H1023 0.930 . S
C1020 C1019 1.369 . S
C1020 C1029 1.429 . S
C1021 C1019 1.419 . S
C1021 C1022 1.363 . S
C1021 H1024 0.929 . S
C1022 C1021 1.363 . S
C1022 C1028 1.428 . S
H1023 C1019 0.930 . S
H1024 C1021 0.929 . S
S1025 N1026 1.613 . S
S1025 N1027 1.610 . S
N1026 S1025 1.613 . S
N1026 C1029 1.350 . S
N1027 S1025 1.610 . S
N1027 C1028 1.351 . S
C1028 C1022 1.428 . S
C1028 N1027 1.351 . S
C1028 C1029 1.434 . S
C1029 C1020 1.429 . S
C1029 N1026 1.350 . S
C1029 C1028 1.434 . S
C1030 C1031 1.369 . S
C1030 C1032 1.419 . S
C1030 H1034 0.930 . S
C1031 C1030 1.369 . S
C1031 C1040 1.429 . S
C1032 C1030 1.419 . S
C1032 C1033 1.363 . S
C1032 H1035 0.929 . S
C1033 C1032 1.363 . S
C1033 C1039 1.428 . S
H1034 C1030 0.930 . S
H1035 C1032 0.929 . S
S1036 N1037 1.613 . S
S1036 N1038 1.610 . S
N1037 S1036 1.613 . S
N1037 C1040 1.350 . S
N1038 S1036 1.610 . S
N1038 C1039 1.351 . S
C1039 C1033 1.428 . S
C1039 N1038 1.351 . S
C1039 C1040 1.434 . S
C1040 C1031 1.429 . S
C1040 N1037 1.350 . S
C1040 C1039 1.434 . S
C1041 C1042 1.369 . S
C1041 C1043 1.419 . S
C1041 H1045 0.930 . S
C1042 C1041 1.369 . S
C1042 C1051 1.429 . S
C1043 C1041 1.419 . S
C1043 C1044 1.363 . S
C1043 H1046 0.929 . S
C1044 C1043 1.363 . S
C1044 C1050 1.428 . S
H1045 C1041 0.930 . S
H1046 C1043 0.929 . S
S1047 N1048 1.613 . S
S1047 N1049 1.610 . S
N1048 S1047 1.613 . S
N1048 C1051 1.350 . S
N1049 S1047 1.610 . S
N1049 C1050 1.351 . S
C1050 C1044 1.428 . S
C1050 N1049 1.351 . S
C1050 C1051 1.434 . S
C1051 C1042 1.429 . S
C1051 N1048 1.350 . S
C1051 C1050 1.434 . S
C1052 C1053 1.369 . S
C1052 C1054 1.419 . S
C1052 H1056 0.930 . S
C1053 C1052 1.369 . S
C1053 C1062 1.429 . S
C1054 C1052 1.419 . S
C1054 C1055 1.363 . S
C1054 H1057 0.929 . S
C1055 C1054 1.363 . S
C1055 C1061 1.428 . S
H1056 C1052 0.930 . S
H1057 C1054 0.929 . S
S1058 N1059 1.613 . S
S1058 N1060 1.610 . S
N1059 S1058 1.613 . S
N1059 C1062 1.350 . S
N1060 S1058 1.610 . S
N1060 C1061 1.351 . S
C1061 C1055 1.428 . S
C1061 N1060 1.351 . S
C1061 C1062 1.434 . S
C1062 C1053 1.429 . S
C1062 N1059 1.350 . S
C1062 C1061 1.434 . S
C1063 C1064 1.369 . S
C1063 C1065 1.419 . S
C1063 H1067 0.930 . S
C1064 C1063 1.369 . S
C1064 C1073 1.429 . S
C1065 C1063 1.419 . S
C1065 C1066 1.363 . S
C1065 H1068 0.929 . S
C1066 C1065 1.363 . S
C1066 C1072 1.428 . S
H1067 C1063 0.930 . S
H1068 C1065 0.929 . S
S1069 N1070 1.613 . S
S1069 N1071 1.610 . S
N1070 S1069 1.613 . S
N1070 C1073 1.350 . S
N1071 S1069 1.610 . S
N1071 C1072 1.351 . S
C1072 C1066 1.428 . S
C1072 N1071 1.351 . S
C1072 C1073 1.434 . S
C1073 C1064 1.429 . S
C1073 N1070 1.350 . S
C1073 C1072 1.434 . S
C1074 C1075 1.369 . S
C1074 C1076 1.419 . S
C1074 H1078 0.930 . S
C1075 C1074 1.369 . S
C1075 C1084 1.429 . S
C1076 C1074 1.419 . S
C1076 C1077 1.363 . S
C1076 H1079 0.929 . S
C1077 C1076 1.363 . S
C1077 C1083 1.428 . S
H1078 C1074 0.930 . S
H1079 C1076 0.929 . S
S1080 N1081 1.613 . S
S1080 N1082 1.610 . S
N1081 S1080 1.613 . S
N1081 C1084 1.350 . S
N1082 S1080 1.610 . S
N1082 C1083 1.351 . S
C1083 C1077 1.428 . S
C1083 N1082 1.351 . S
C1083 C1084 1.434 . S
C1084 C1075 1.429 . S
C1084 N1081 1.350 . S
C1084 C1083 1.434 . S
C1085 C1086 1.369 . S
C1085 C1087 1.419 . S
C1085 H1089 0.930 . S
C1086 C1085 1.369 . S
C1086 C1095 1.429 . S
C1087 C1085 1.419 . S
C1087 C1088 1.363 . S
C1087 H1090 0.929 . S
C1088 C1087 1.363 . S
C1088 C1094 1.428 . S
H1089 C1085 0.930 . S
H1090 C1087 0.929 . S
S1091 N1092 1.613 . S
S1091 N1093 1.610 . S
N1092 S1091 1.613 . S
N1092 C1095 1.350 . S
N1093 S1091 1.610 . S
N1093 C1094 1.351 . S
C1094 C1088 1.428 . S
C1094 N1093 1.351 . S
C1094 C1095 1.434 . S
C1095 C1086 1.429 . S
C1095 N1092 1.350 . S
C1095 C1094 1.434 . S
C1096 C1097 1.369 . S
C1096 C1098 1.419 . S
C1096 H1100 0.930 . S
C1097 C1096 1.369 . S
C1097 C1106 1.429 . S
C1098 C1096 1.419 . S
C1098 C1099 1.363 . S
C1098 H1101 0.929 . S
C1099 C1098 1.363 . S
C1099 C1105 1.428 . S
H1100 C1096 0.930 . S
H1101 C1098 0.929 . S
S1102 N1103 1.613 . S
S1102 N1104 1.610 . S
N1103 S1102 1.613 . S
N1103 C1106 1.350 . S
N1104 S1102 1.610 . S
N1104 C1105 1.351 . S
C1105 C1099 1.428 . S
C1105 N1104 1.351 . S
C1105 C1106 1.434 . S
C1106 C1097 1.429 . S
C1106 N1103 1.350 . S
C1106 C1105 1.434 . S
C1107 C1108 1.369 . S
C1107 C1109 1.419 . S
C1107 H1111 0.930 . S
C1108 C1107 1.369 . S
C1108 C1117 1.429 . S
C1109 C1107 1.419 . S
C1109 C1110 1.363 . S
C1109 H1112 0.929 . S
C1110 C1109 1.363 . S
C1110 C1116 1.428 . S
H1111 C1107 0.930 . S
H1112 C1109 0.929 . S
S1113 N1114 1.613 . S
S1113 N1115 1.610 . S
N1114 S1113 1.613 . S
N1114 C1117 1.350 . S
N1115 S1113 1.610 . S
N1115 C1116 1.351 . S
C1116 C1110 1.428 . S
C1116 N1115 1.351 . S
C1116 C1117 1.434 . S
C1117 C1108 1.429 . S
C1117 N1114 1.350 . S
C1117 C1116 1.434 . S
C1118 C1119 1.369 . S
C1118 C1120 1.419 . S
C1118 H1122 0.930 . S
C1119 C1118 1.369 . S
C1119 C1128 1.429 . S
C1120 C1118 1.419 . S
C1120 C1121 1.363 . S
C1120 H1123 0.929 . S
C1121 C1120 1.363 . S
C1121 C1127 1.428 . S
H1122 C1118 0.930 . S
H1123 C1120 0.929 . S
S1124 N1125 1.613 . S
S1124 N1126 1.610 . S
N1125 S1124 1.613 . S
N1125 C1128 1.350 . S
N1126 S1124 1.610 . S
N1126 C1127 1.351 . S
C1127 C1121 1.428 . S
C1127 N1126 1.351 . S
C1127 C1128 1.434 . S
C1128 C1119 1.429 . S
C1128 N1125 1.350 . S
C1128 C1127 1.434 . S
C1129 C1130 1.369 . S
C1129 C1131 1.419 . S
C1129 H1133 0.930 . S
C1130 C1129 1.369 . S
C1130 C1139 1.429 . S
C1131 C1129 1.419 . S
C1131 C1132 1.363 . S
C1131 H1134 0.929 . S
C1132 C1131 1.363 . S
C1132 C1138 1.428 . S
H1133 C1129 0.930 . S
H1134 C1131 0.929 . S
S1135 N1136 1.613 . S
S1135 N1137 1.610 . S
N1136 S1135 1.613 . S
N1136 C1139 1.350 . S
N1137 S1135 1.610 . S
N1137 C1138 1.351 . S
C1138 C1132 1.428 . S
C1138 N1137 1.351 . S
C1138 C1139 1.434 . S
C1139 C1130 1.429 . S
C1139 N1136 1.350 . S
C1139 C1138 1.434 . S
C1140 C1141 1.369 . S
C1140 C1142 1.419 . S
C1140 H1144 0.930 . S
C1141 C1140 1.369 . S
C1141 C1150 1.429 . S
C1142 C1140 1.419 . S
C1142 C1143 1.363 . S
C1142 H1145 0.929 . S
C1143 C1142 1.363 . S
C1143 C1149 1.428 . S
H1144 C1140 0.930 . S
H1145 C1142 0.929 . S
S1146 N1147 1.613 . S
S1146 N1148 1.610 . S
N1147 S1146 1.613 . S
N1147 C1150 1.350 . S
N1148 S1146 1.610 . S
N1148 C1149 1.351 . S
C1149 C1143 1.428 . S
C1149 N1148 1.351 . S
C1149 C1150 1.434 . S
C1150 C1141 1.429 . S
C1150 N1147 1.350 . S
C1150 C1149 1.434 . S
C1151 C1152 1.369 . S
C1151 C1153 1.419 . S
C1151 H1155 0.930 . S
C1152 C1151 1.369 . S
C1152 C1161 1.429 . S
C1153 C1151 1.419 . S
C1153 C1154 1.363 . S
C1153 H1156 0.929 . S
C1154 C1153 1.363 . S
C1154 C1160 1.428 . S
H1155 C1151 0.930 . S
H1156 C1153 0.929 . S
S1157 N1158 1.613 . S
S1157 N1159 1.610 . S
N1158 S1157 1.613 . S
N1158 C1161 1.350 . S
N1159 S1157 1.610 . S
N1159 C1160 1.351 . S
C1160 C1154 1.428 . S
C1160 N1159 1.351 . S
C1160 C1161 1.434 . S
C1161 C1152 1.429 . S
C1161 N1158 1.350 . S
C1161 C1160 1.434 . S
C1162 C1163 1.369 . S
C1162 C1164 1.419 . S
C1162 H1166 0.930 . S
C1163 C1162 1.369 . S
C1163 C1172 1.429 . S
C1164 C1162 1.419 . S
C1164 C1165 1.363 . S
C1164 H1167 0.929 . S
C1165 C1164 1.363 . S
C1165 C1171 1.428 . S
H1166 C1162 0.930 . S
H1167 C1164 0.929 . S
S1168 N1169 1.613 . S
S1168 N1170 1.610 . S
N1169 S1168 1.613 . S
N1169 C1172 1.350 . S
N1170 S1168 1.610 . S
N1170 C1171 1.351 . S
C1171 C1165 1.428 . S
C1171 N1170 1.351 . S
C1171 C1172 1.434 . S
C1172 C1163 1.429 . S
C1172 N1169 1.350 . S
C1172 C1171 1.434 . S
C1173 C1174 1.369 . S
C1173 C1175 1.419 . S
C1173 H1177 0.930 . S
C1174 C1173 1.369 . S
C1174 C1183 1.429 . S
C1175 C1173 1.419 . S
C1175 C1176 1.363 . S
C1175 H1178 0.929 . S
C1176 C1175 1.363 . S
C1176 C1182 1.428 . S
H1177 C1173 0.930 . S
H1178 C1175 0.929 . S
S1179 N1180 1.613 . S
S1179 N1181 1.610 . S
N1180 S1179 1.613 . S
N1180 C1183 1.350 . S
N1181 S1179 1.610 . S
N1181 C1182 1.351 . S
C1182 C1176 1.428 . S
C1182 N1181 1.351 . S
C1182 C1183 1.434 . S
C1183 C1174 1.429 . S
C1183 N1180 1.350 . S
C1183 C1182 1.434 . S
C1184 C1185 1.369 . S
C1184 C1186 1.419 . S
C1184 H1188 0.930 . S
C1185 C1184 1.369 . S
C1185 C1194 1.429 . S
C1186 C1184 1.419 . S
C1186 C1187 1.363 . S
C1186 H1189 0.929 . S
C1187 C1186 1.363 . S
C1187 C1193 1.428 . S
H1188 C1184 0.930 . S
H1189 C1186 0.929 . S
S1190 N1191 1.613 . S
S1190 N1192 1.610 . S
N1191 S1190 1.613 . S
N1191 C1194 1.350 . S
N1192 S1190 1.610 . S
N1192 C1193 1.351 . S
C1193 C1187 1.428 . S
C1193 N1192 1.351 . S
C1193 C1194 1.434 . S
C1194 C1185 1.429 . S
C1194 N1191 1.350 . S
C1194 C1193 1.434 . S
C1195 C1196 1.369 . S
C1195 C1197 1.419 . S
C1195 H1199 0.930 . S
C1196 C1195 1.369 . S
C1196 C1205 1.429 . S
C1197 C1195 1.419 . S
C1197 C1198 1.363 . S
C1197 H1200 0.929 . S
C1198 C1197 1.363 . S
C1198 C1204 1.428 . S
H1199 C1195 0.930 . S
H1200 C1197 0.929 . S
S1201 N1202 1.613 . S
S1201 N1203 1.610 . S
N1202 S1201 1.613 . S
N1202 C1205 1.350 . S
N1203 S1201 1.610 . S
N1203 C1204 1.351 . S
C1204 C1198 1.428 . S
C1204 N1203 1.351 . S
C1204 C1205 1.434 . S
C1205 C1196 1.429 . S
C1205 N1202 1.350 . S
C1205 C1204 1.434 . S
C1206 C1207 1.369 . S
C1206 C1208 1.419 . S
C1206 H1210 0.930 . S
C1207 C1206 1.369 . S
C1207 C1216 1.429 . S
C1208 C1206 1.419 . S
C1208 C1209 1.363 . S
C1208 H1211 0.929 . S
C1209 C1208 1.363 . S
C1209 C1215 1.428 . S
H1210 C1206 0.930 . S
H1211 C1208 0.929 . S
S1212 N1213 1.613 . S
S1212 N1214 1.610 . S
N1213 S1212 1.613 . S
N1213 C1216 1.350 . S
N1214 S1212 1.610 . S
N1214 C1215 1.351 . S
C1215 C1209 1.428 . S
C1215 N1214 1.351 . S
C1215 C1216 1.434 . S
C1216 C1207 1.429 . S
C1216 N1213 1.350 . S
C1216 C1215 1.434 . S
C1217 C1218 1.369 . S
C1217 C1219 1.419 . S
C1217 H1221 0.930 . S
C1218 C1217 1.369 . S
C1218 C1227 1.429 . S
C1219 C1217 1.419 . S
C1219 C1220 1.363 . S
C1219 H1222 0.929 . S
C1220 C1219 1.363 . S
C1220 C1226 1.428 . S
H1221 C1217 0.930 . S
H1222 C1219 0.929 . S
S1223 N1224 1.613 . S
S1223 N1225 1.610 . S
N1224 S1223 1.613 . S
N1224 C1227 1.350 . S
N1225 S1223 1.610 . S
N1225 C1226 1.351 . S
C1226 C1220 1.428 . S
C1226 N1225 1.351 . S
C1226 C1227 1.434 . S
C1227 C1218 1.429 . S
C1227 N1224 1.350 . S
C1227 C1226 1.434 . S
C1228 C1229 1.369 . S
C1228 C1230 1.419 . S
C1228 H1232 0.930 . S
C1229 C1228 1.369 . S
C1229 C1238 1.429 . S
C1230 C1228 1.419 . S
C1230 C1231 1.363 . S
C1230 H1233 0.929 . S
C1231 C1230 1.363 . S
C1231 C1237 1.428 . S
H1232 C1228 0.930 . S
H1233 C1230 0.929 . S
S1234 N1235 1.613 . S
S1234 N1236 1.610 . S
N1235 S1234 1.613 . S
N1235 C1238 1.350 . S
N1236 S1234 1.610 . S
N1236 C1237 1.351 . S
C1237 C1231 1.428 . S
C1237 N1236 1.351 . S
C1237 C1238 1.434 . S
C1238 C1229 1.429 . S
C1238 N1235 1.350 . S
C1238 C1237 1.434 . S
C1239 C1240 1.369 . S
C1239 C1241 1.419 . S
C1239 H1243 0.930 . S
C1240 C1239 1.369 . S
C1240 C1249 1.429 . S
C1241 C1239 1.419 . S
C1241 C1242 1.363 . S
C1241 H1244 0.929 . S
C1242 C1241 1.363 . S
C1242 C1248 1.428 . S
H1243 C1239 0.930 . S
H1244 C1241 0.929 . S
S1245 N1246 1.613 1_554 S
S1245 N1247 1.610 . S
N1246 S1245 1.613 1_556 S
N1246 C1249 1.350 . S
N1247 S1245 1.610 . S
N1247 C1248 1.351 1_554 S
C1248 C1242 1.428 . S
C1248 N1247 1.351 1_556 S
C1248 C1249 1.434 . S
C1249 C1240 1.429 . S
C1249 N1246 1.350 . S
C1249 C1248 1.434 . S
C1250 C1251 1.369 . S
C1250 C1252 1.419 . S
C1250 H1254 0.930 . S
C1251 C1250 1.369 . S
C1251 C1260 1.429 . S
C1252 C1250 1.419 . S
C1252 C1253 1.363 . S
C1252 H1255 0.929 . S
C1253 C1252 1.363 . S
C1253 C1259 1.428 . S
H1254 C1250 0.930 . S
H1255 C1252 0.929 . S
S1256 N1257 1.613 . S
S1256 N1258 1.610 . S
N1257 S1256 1.613 . S
N1257 C1260 1.350 . S
N1258 S1256 1.610 . S
N1258 C1259 1.351 . S
C1259 C1253 1.428 . S
C1259 N1258 1.351 . S
C1259 C1260 1.434 . S
C1260 C1251 1.429 . S
C1260 N1257 1.350 . S
C1260 C1259 1.434 . S
C1261 C1262 1.369 . S
C1261 C1263 1.419 . S
C1261 H1265 0.930 . S
C1262 C1261 1.369 . S
C1262 C1271 1.429 . S
C1263 C1261 1.419 . S
C1263 C1264 1.363 . S
C1263 H1266 0.929 . S
C1264 C1263 1.363 . S
C1264 C1270 1.428 . S
H1265 C1261 0.930 . S
H1266 C1263 0.929 . S
S1267 N1268 1.613 . S
S1267 N1269 1.610 . S
N1268 S1267 1.613 . S
N1268 C1271 1.350 . S
N1269 S1267 1.610 . S
N1269 C1270 1.351 . S
C1270 C1264 1.428 . S
C1270 N1269 1.351 . S
C1270 C1271 1.434 . S
C1271 C1262 1.429 . S
C1271 N1268 1.350 . S
C1271 C1270 1.434 . S
C923 C525 1.582 . S
C921 C47 1.466 . S
C934 C578 1.336 . S
C932 C115 1.300 . S
C945 C641 1.599 . S
C943 C153 1.447 . S
C956 C684 1.450 . S
C954 C233 1.320 . S
C965 C283 1.515 . S
C967 C640 1.554 . S
C978 C677 1.419 . S
C976 C357 1.317 . S
C989 C518 1.628 . S
C987 C401 1.485 . S
C1000 C571 1.394 . S
C998 C463 1.246 . S
C1011 C624 1.448 . S
C1009 C469 1.392 . S
C1022 C693 1.815 . S
C1020 C277 1.685 . S
C1033 C534 1.586 . S
C1031 C363 1.573 . S
C1044 C587 1.632 . S
C1042 C407 1.607 . S
C1055 C535 1.572 . S
C1053 C109 1.445 . S
C1066 C588 1.694 . S
C1064 C159 1.644 . S
C1077 C631 1.424 . S
C1075 C239 1.375 . S
C1088 C694 1.736 . S
C1086 C53 1.717 . S
C1099 C737 1.566 . S
C1097 C481 1.435 . S
C1108 C301 1.635 . S
C1110 C790 1.687 . S
C1119 C339 1.476 . S
C1121 C852 1.615 . S
C1130 C419 1.694 . S
C1132 C906 1.837 . S
C1141 C97 1.482 . S
C1143 C853 1.516 . S
C1152 C171 1.734 . S
C1154 C905 1.855 . S
C1163 C215 1.503 . S
C1165 C730 1.635 . S
C1176 C783 1.755 . S
C1174 C29 1.563 . S
C1187 C843 1.420 . S
C1185 C35 1.367 . S
C1196 C91 1.248 . S
C1198 C889 1.364 . S
C1207 C177 1.623 . S
C1209 C746 1.630 . S
C1218 C221 1.287 . S
C1220 C799 1.297 . S
C1231 C747 1.558 . S
C1229 C295 1.429 . S
C1242 C800 1.320 . S
C1240 C345 1.293 . S
C1251 C425 1.392 . S
C1253 C836 1.441 . S
C1264 C896 1.310 . S
C1262 C487 1.293 . S
