# Generated by pormake.
# Topology zzz, (3,6)-cn, num edge types: 1
# Building blocks:
#     Node 0, Type 0, BuildingBlock: VETTIZ_charged_linker_0, # of connection points: 3
#     Node 1, Type 0, BuildingBlock: VETTIZ_charged_linker_0, # of connection points: 3
#     Node 2, Type 0, BuildingBlock: VETTIZ_charged_linker_0, # of connection points: 3
#     Node 3, Type 0, BuildingBlock: VETTIZ_charged_linker_0, # of connection points: 3
#     Node 4, Type 0, BuildingBlock: VETTIZ_charged_linker_0, # of connection points: 3
#     Node 5, Type 0, BuildingBlock: VETTIZ_charged_linker_0, # of connection points: 3
#     Node 6, Type 0, BuildingBlock: VETTIZ_charged_linker_0, # of connection points: 3
#     Node 7, Type 0, BuildingBlock: VETTIZ_charged_linker_0, # of connection points: 3
#     Node 8, Type 1, BuildingBlock: JUFBIX_clean_sbu_0, # of connection points: 6
#     Node 9, Type 1, BuildingBlock: JUFBIX_clean_sbu_0, # of connection points: 6
#     Node 10, Type 1, BuildingBlock: JUFBIX_clean_sbu_0, # of connection points: 6
#     Node 11, Type 1, BuildingBlock: JUFBIX_clean_sbu_0, # of connection points: 6
#     Edge 12, Type (0, 1), BuildingBlock: OJICUG_clean_linker_0, # of connection points: 2
#     Edge 13, Type (0, 1), BuildingBlock: OJICUG_clean_linker_0, # of connection points: 2
#     Edge 14, Type (0, 1), BuildingBlock: OJICUG_clean_linker_0, # of connection points: 2
#     Edge 15, Type (0, 1), BuildingBlock: OJICUG_clean_linker_0, # of connection points: 2
#     Edge 16, Type (0, 1), BuildingBlock: OJICUG_clean_linker_0, # of connection points: 2
#     Edge 17, Type (0, 1), BuildingBlock: OJICUG_clean_linker_0, # of connection points: 2
#     Edge 18, Type (0, 1), BuildingBlock: OJICUG_clean_linker_0, # of connection points: 2
#     Edge 19, Type (0, 1), BuildingBlock: OJICUG_clean_linker_0, # of connection points: 2
#     Edge 20, Type (0, 1), BuildingBlock: OJICUG_clean_linker_0, # of connection points: 2
#     Edge 21, Type (0, 1), BuildingBlock: OJICUG_clean_linker_0, # of connection points: 2
#     Edge 22, Type (0, 1), BuildingBlock: OJICUG_clean_linker_0, # of connection points: 2
#     Edge 23, Type (0, 1), BuildingBlock: OJICUG_clean_linker_0, # of connection points: 2
#     Edge 24, Type (0, 1), BuildingBlock: OJICUG_clean_linker_0, # of connection points: 2
#     Edge 25, Type (0, 1), BuildingBlock: OJICUG_clean_linker_0, # of connection points: 2
#     Edge 26, Type (0, 1), BuildingBlock: OJICUG_clean_linker_0, # of connection points: 2
#     Edge 27, Type (0, 1), BuildingBlock: OJICUG_clean_linker_0, # of connection points: 2
#     Edge 28, Type (0, 1), BuildingBlock: OJICUG_clean_linker_0, # of connection points: 2
#     Edge 29, Type (0, 1), BuildingBlock: OJICUG_clean_linker_0, # of connection points: 2
#     Edge 30, Type (0, 1), BuildingBlock: OJICUG_clean_linker_0, # of connection points: 2
#     Edge 31, Type (0, 1), BuildingBlock: OJICUG_clean_linker_0, # of connection points: 2
#     Edge 32, Type (0, 1), BuildingBlock: OJICUG_clean_linker_0, # of connection points: 2
#     Edge 33, Type (0, 1), BuildingBlock: OJICUG_clean_linker_0, # of connection points: 2
#     Edge 34, Type (0, 1), BuildingBlock: OJICUG_clean_linker_0, # of connection points: 2
#     Edge 35, Type (0, 1), BuildingBlock: OJICUG_clean_linker_0, # of connection points: 2
# Relax obj value: 0.289
# Max RMSD: 0.234
# Mean RMSD: 0.189
data_MOF--net-zzz--node1-JUFBIX_clean_sbu_0--node2-VETTIZ_charged_linker_0--edge1-OJICUG_clean_linker_0
_symmetry_space_group_name_H-M    P1
_symmetry_Int_Tables_number       1
_symmetry_cell_setting            triclinic
loop_
_symmetry_equiv_pos_as_xyz
'x, y, z'
_cell_length_a     44.467749
_cell_length_b     45.45938
_cell_length_c     17.772316
_cell_angle_alpha  80.437486
_cell_angle_beta   90.396051
_cell_angle_gamma 86.1616
loop_
_atom_site_label
_atom_site_type_symbol
_atom_site_fract_x
_atom_site_fract_y
_atom_site_fract_z
_atom_type_partial_charge
C0 C 0.81966 0.56772 0.54136 0.0
C1 C 0.84768 0.58099 0.54399 0.0
C2 C 0.85864 0.59678 0.47563 0.0
C3 C 0.82072 0.57751 0.40393 0.0
C4 C 0.80569 0.56761 0.46956 0.0
C5 C 0.77691 0.55394 0.44994 0.0
H6 H 0.70248 0.50294 0.16126 0.0
C7 C 0.80804 0.56491 0.34124 0.0
C8 C 0.77945 0.55566 0.36309 0.0
H9 H 0.66492 0.57707 0.26114 0.0
H10 H 0.71179 0.57625 0.33737 0.0
H11 H 0.76285 0.53476 0.11795 0.0
H12 H 0.7507 0.4672 0.31797 0.0
H13 H 0.78473 0.46038 0.27156 0.0
H14 H 0.74935 0.45826 0.22326 0.0
H15 H 0.74951 0.49888 0.10958 0.0
H16 H 0.78827 0.50251 0.12358 0.0
C17 C 0.74922 0.57263 0.47137 0.0
C18 C 0.7768 0.52129 0.49103 0.0
C19 C 0.88718 0.52074 0.18046 0.0
C20 C 0.88891 0.49486 0.14653 0.0
C21 C 0.86444 0.47642 0.15411 0.0
C22 C 0.83824 0.48456 0.19139 0.0
C23 C 0.83632 0.51157 0.22007 0.0
C24 C 0.86123 0.5281 0.21877 0.0
C25 C 0.85709 0.55332 0.26349 0.0
C26 C 0.82485 0.54959 0.29011 0.0
C27 C 0.81254 0.5259 0.26137 0.0
C28 C 0.85954 0.58318 0.20878 0.0
C29 C 0.88095 0.54827 0.32954 0.0
C30 C 0.70364 0.51787 0.20259 0.0
C31 C 0.67967 0.53916 0.2076 0.0
C32 C 0.68261 0.55972 0.25852 0.0
C33 C 0.70916 0.559 0.30325 0.0
C34 C 0.73291 0.53774 0.29636 0.0
C35 C 0.73048 0.5185 0.24413 0.0
C36 C 0.76084 0.50427 0.22741 0.0
C37 C 0.78159 0.52099 0.27143 0.0
C38 C 0.7649 0.53739 0.31872 0.0
C39 C 0.7658 0.51037 0.14015 0.0
C40 C 0.76159 0.47068 0.26129 0.0
H41 H 0.85462 0.60637 0.35394 0.0
H42 H 0.80997 0.55643 0.59305 0.0
H43 H 0.79723 0.50797 0.47675 0.0
H44 H 0.75661 0.51075 0.4736 0.0
H45 H 0.77636 0.52022 0.55392 0.0
H46 H 0.74788 0.59545 0.43683 0.0
H47 H 0.75045 0.57478 0.53269 0.0
H48 H 0.72822 0.56173 0.46212 0.0
H49 H 0.90536 0.53558 0.17621 0.0
H50 H 0.86539 0.45589 0.13057 0.0
H51 H 0.82026 0.46986 0.19584 0.0
H52 H 0.8459 0.58372 0.15578 0.0
H53 H 0.88333 0.58634 0.19243 0.0
H54 H 0.85094 0.60253 0.23457 0.0
H55 H 0.87179 0.5362 0.38311 0.0
H56 H 0.88953 0.56952 0.34022 0.0
H57 H 0.90142 0.53477 0.31653 0.0
H58 H 0.87939 0.60798 0.47546 0.0
C59 C 0.84505 0.59521 0.40543 0.0
C60 C 0.07603 0.8677 0.03094 0.0
C61 C 0.09472 0.88924 0.05034 0.0
C62 C 0.10653 0.8855 0.12546 0.0
C63 C 0.07361 0.84565 0.16383 0.0
C64 C 0.0658 0.84613 0.08847 0.0
C65 C 0.04286 0.82409 0.07891 0.0
H66 H 0.99218 0.69515 0.24072 0.0
C67 C 0.05391 0.82555 0.21105 0.0
C68 C 0.03691 0.81176 0.16192 0.0
H69 H 0.99038 0.7352 1.00192 0.0
H70 H 1.00164 0.78249 0.03576 0.0
H71 H 0.05023 0.73221 0.30743 0.0
H72 H 0.95689 0.76755 0.31134 0.0
H73 H 0.97669 0.74796 0.397 0.0
H74 H 0.96328 0.72748 0.32875 0.0
H75 H 0.02275 0.7077 0.35149 0.0
H76 H 0.03273 0.73893 0.39465 0.0
C77 C 0.05736 0.80021 0.03434 0.0
C78 C 0.01424 0.8414 0.03939 0.0
C79 C 0.03157 0.8442 0.47612 0.0
C80 C 1.00431 0.84162 0.51531 0.0
C81 C 0.98374 0.8218 0.49438 0.0
C82 C 0.98996 0.80578 0.43402 0.0
C83 C 0.01724 0.80892 0.3952 0.0
C84 C 0.0368 0.82918 0.41417 0.0
C85 C 0.05758 0.83927 0.34985 0.0
C86 C 0.0469 0.82211 0.28954 0.0
C87 C 0.02516 0.80244 0.31868 0.0
C88 C 0.09035 0.82905 0.37658 0.0
C89 C 0.05168 0.8737 0.32607 0.0
C90 C 0.99395 0.71428 0.19613 0.0
C91 C 0.99101 0.71131 0.11828 0.0
C92 C 0.9928 0.73678 0.06182 0.0
C93 C 0.99999 0.764 0.08113 0.0
C94 C 1.00527 0.766 0.1577 0.0
C95 C 1.00001 0.74243 0.21469 0.0
C96 C 1.00348 0.75132 0.29308 0.0
C97 C 0.01276 0.78359 0.27159 0.0
C98 C 0.01679 0.79013 0.19253 0.0
C99 C 0.02879 0.73133 0.33933 0.0
C100 C 0.97334 0.74872 0.33483 0.0
H101 H 0.1045 0.86267 0.23958 0.0
H102 H 0.06676 0.86937 0.97381 0.0
H103 H 0.00887 0.8623 0.06294 0.0
H104 H 0.994 0.82848 0.04873 0.0
H105 H 0.01744 0.84766 0.97697 0.0
H106 H 0.08073 0.80486 0.01642 0.0
H107 H 0.04451 0.79934 0.98107 0.0
H108 H 0.05909 0.77755 0.0695 0.0
H109 H 0.04686 0.86066 0.48683 0.0
H110 H 0.96209 0.82001 0.52164 0.0
H111 H 0.9722 0.79406 0.4139 0.0
H112 H 0.09129 0.80724 0.41594 0.0
H113 H 0.10019 0.84558 0.40743 0.0
H114 H 0.10506 0.82516 0.32883 0.0
H115 H 0.0271 0.88022 0.32544 0.0
H116 H 0.05906 0.88263 0.26861 0.0
H117 H 0.06288 0.88582 0.36659 0.0
H118 H 0.12181 0.90108 0.14148 0.0
C119 C 0.09628 0.86346 0.18233 0.0
C120 C 0.85873 1.00712 0.17499 0.0
C121 C 0.8685 1.00289 0.10106 0.0
C122 C 0.84711 0.99674 0.0479 0.0
C123 C 0.80719 1.0034 0.13481 0.0
C124 C 0.82754 1.00621 0.19153 0.0
C125 C 0.81114 1.00618 0.26729 0.0
H126 H 0.67911 0.9631 0.44844 0.0
C127 C 0.77741 1.00156 0.16627 0.0
C128 C 0.77899 0.99948 0.2454 0.0
H129 H 0.74319 0.01627 0.53617 0.0
H130 H 0.77532 1.01289 0.42504 0.0
H131 H 0.67565 1.01158 0.24869 0.0
H132 H 0.69495 0.93202 0.24819 0.0
H133 H 0.68081 0.92971 0.34349 0.0
H134 H 0.72053 0.92369 0.32746 0.0
H135 H 0.66329 0.99766 0.34059 0.0
H136 H 0.65493 0.97812 0.26719 0.0
C137 C 0.81202 0.03764 0.28828 0.0
C138 C 0.82557 0.98178 0.32979 0.0
C139 C 0.68146 0.03333 0.01639 0.0
C140 C 0.65214 0.02374 0.02767 0.0
C141 C 0.64779 0.99714 0.07873 0.0
C142 C 0.67175 0.98207 0.1235 0.0
C143 C 0.69956 0.99463 0.11952 0.0
C144 C 0.70506 0.01787 0.06218 0.0
C145 C 0.73792 0.02366 0.05941 0.0
C146 C 0.7501 1.00059 0.12747 0.0
C147 C 0.7265 0.98722 0.168 0.0
C148 C 0.74223 0.05583 0.07253 0.0
C149 C 0.75036 0.01867 0.98156 0.0
C150 C 0.70073 0.97293 0.4456 0.0
C151 C 0.70901 0.98907 0.5018 0.0
C152 C 0.73655 1.00313 0.4941 0.0
C153 C 0.75484 1.0016 0.42946 0.0
C154 C 0.74433 0.98786 0.36981 0.0
C155 C 0.71681 0.97505 0.37793 0.0
C156 C 0.70331 0.97085 0.30338 0.0
C157 C 0.72794 0.98175 0.24905 0.0
C158 C 0.75293 0.99029 0.28819 0.0
C159 C 0.67291 0.99044 0.28868 0.0
C160 C 0.69956 0.93722 0.30559 0.0
H161 H 0.80155 0.98835 0.02682 0.0
H162 H 0.87484 1.01033 0.21832 0.0
H163 H 0.82538 0.95949 0.31194 0.0
H164 H 0.81318 0.98094 0.38387 0.0
H165 H 0.84932 0.98618 0.34119 0.0
H166 H 0.80259 0.0549 0.24069 0.0
H167 H 0.83561 0.04257 0.29965 0.0
H168 H 0.7988 0.04013 0.33928 0.0
H169 H 0.68572 0.05272 0.97454 0.0
H170 H 0.62584 0.98806 0.08406 0.0
H171 H 0.6681 0.96147 0.16061 0.0
H172 H 0.73216 0.05982 0.12739 0.0
H173 H 0.73142 0.07248 0.02562 0.0
H174 H 0.76659 0.05977 0.07459 0.0
H175 H 0.7356 0.03084 0.93417 0.0
H176 H 0.75167 0.99454 0.97688 0.0
H177 H 0.7728 0.02777 0.97206 0.0
H178 H 0.85398 0.99211 0.9924 0.0
C179 C 0.81674 0.99609 0.06545 0.0
C180 C 0.50595 0.7136 0.42825 0.0
C181 C 0.49398 0.68615 0.46009 0.0
C182 C 0.46985 0.67603 0.42232 0.0
C183 C 0.47263 0.71687 0.31786 0.0
C184 C 0.49425 0.72907 0.35684 0.0
C185 C 0.50141 0.75949 0.31283 0.0
H186 H 0.49482 0.85031 0.95973 0.0
C187 C 0.46823 0.73456 0.2412 0.0
C188 C 0.48456 0.76023 0.23662 0.0
H189 H 0.52555 0.8752 0.16977 0.0
H190 H 0.51526 0.82584 0.23893 0.0
H191 H 0.52566 0.78622 0.987 0.0
H192 H 0.43598 0.82087 0.02372 0.0
H193 H 0.43338 0.78922 0.97906 0.0
H194 H 0.45247 0.82056 0.93182 0.0
H195 H 0.49737 0.79101 0.91308 0.0
H196 H 0.50324 0.75646 0.97991 0.0
C197 C 0.53569 0.7606 0.30258 0.0
C198 C 0.48794 0.78362 0.35692 0.0
C199 C 0.43348 0.67747 0.04067 0.0
C200 C 0.43988 0.68093 0.96293 0.0
C201 C 0.44702 0.70913 0.92415 0.0
C202 C 0.45099 0.73265 0.9644 0.0
C203 C 0.44885 0.72746 0.04438 0.0
C204 C 0.43946 0.70045 0.08087 0.0
C205 C 0.44166 0.69737 0.1661 0.0
C206 C 0.456 0.72616 0.17466 0.0
C207 C 0.45936 0.74397 0.1036 0.0
C208 C 0.46214 0.66864 0.19821 0.0
C209 C 0.40904 0.69744 0.1964 0.0
C210 C 0.49964 0.84523 0.02052 0.0
C211 C 0.51115 0.86673 0.05888 0.0
C212 C 0.51653 0.85912 0.13862 0.0
C213 C 0.51032 0.83062 0.17883 0.0
C214 C 0.49795 0.80971 0.13937 0.0
C215 C 0.49286 0.81747 0.06134 0.0
C216 C 0.47892 0.79347 0.02754 0.0
C217 C 0.474 0.77097 0.09849 0.0
C218 C 0.48606 0.77972 0.16446 0.0
C219 C 0.50225 0.78116 0.97375 0.0
C220 C 0.44864 0.80657 0.98792 0.0
H221 H 0.44068 0.68227 0.32677 0.0
H222 H 0.52361 0.72258 0.45796 0.0
H223 H 0.46478 0.77861 0.37603 0.0
H224 H 0.48566 0.80602 0.32171 0.0
H225 H 0.50194 0.78456 0.40839 0.0
H226 H 0.54467 0.74164 0.27515 0.0
H227 H 0.54743 0.75907 0.35862 0.0
H228 H 0.54153 0.78151 0.2662 0.0
H229 H 0.42837 0.65581 0.07163 0.0
H230 H 0.45199 0.71214 0.86386 0.0
H231 H 0.45751 0.75325 0.93226 0.0
H232 H 0.47222 0.65718 0.15289 0.0
H233 H 0.44942 0.65182 0.23524 0.0
H234 H 0.48202 0.67362 0.23054 0.0
H235 H 0.39335 0.7128 0.15656 0.0
H236 H 0.40703 0.70582 0.25125 0.0
H237 H 0.40052 0.67475 0.20278 0.0
H238 H 0.4598 0.65554 0.44634 0.0
C239 C 0.45895 0.69136 0.35235 0.0
C240 C 0.31446 0.48964 0.35718 0.0
C241 C 0.32545 0.48346 0.43431 0.0
C242 C 0.30646 0.47032 0.49178 0.0
C243 C 0.26531 0.47651 0.40175 0.0
C244 C 0.28402 0.48449 0.34189 0.0
C245 C 0.26661 0.48592 0.26617 0.0
H246 H 0.12749 0.46082 0.11413 0.0
C247 C 0.23512 0.47537 0.37341 0.0
C248 C 0.23497 0.4777 0.29409 0.0
H249 H 0.20218 0.49538 0.98277 0.0
H250 H 0.23279 0.49122 0.10075 0.0
H251 H 0.16132 0.41515 0.26479 0.0
H252 H 0.11965 0.49874 0.19416 0.0
H253 H 0.13489 0.50797 0.27842 0.0
H254 H 0.10748 0.48001 0.28162 0.0
H255 H 0.12276 0.42918 0.24469 0.0
H256 H 0.13905 0.42673 0.33869 0.0
C257 C 0.28132 0.46282 0.22122 0.0
C258 C 0.26602 0.51803 0.22167 0.0
C259 C 0.14863 0.52077 0.50339 0.0
C260 C 0.1173 0.51817 0.49825 0.0
C261 C 0.10672 0.49505 0.46287 0.0
C262 C 0.12659 0.47723 0.42622 0.0
C263 C 0.15695 0.48312 0.42331 0.0
C264 C 0.16807 0.50219 0.46753 0.0
C265 C 0.20192 0.5 0.46948 0.0
C266 C 0.20828 0.47841 0.41292 0.0
C267 C 0.18161 0.47178 0.37992 0.0
C268 C 0.21311 0.48769 0.55174 0.0
C269 C 0.21373 0.531 0.44085 0.0
C270 C 0.15083 0.4664 0.11008 0.0
C271 C 0.1627 0.47732 0.03927 0.0
C272 C 0.19269 0.48617 0.03684 0.0
C273 C 0.21027 0.48399 0.10494 0.0
C274 C 0.19712 0.47439 0.17595 0.0
C275 C 0.16739 0.46682 0.17681 0.0
C276 C 0.15393 0.46401 0.25423 0.0
C277 C 0.18107 0.46883 0.30167 0.0
C278 C 0.20698 0.47402 0.25664 0.0
C279 C 0.14355 0.43205 0.27699 0.0
C280 C 0.12778 0.48883 0.25268 0.0
H281 H 0.26268 0.45515 0.51915 0.0
H282 H 0.32892 0.49836 0.31124 0.0
H283 H 0.25731 0.53429 0.25801 0.0
H284 H 0.25127 0.52106 0.17036 0.0
H285 H 0.28906 0.52376 0.20346 0.0
H286 H 0.2827 0.44015 0.25657 0.0
H287 H 0.30454 0.46855 0.2047 0.0
H288 H 0.26829 0.46172 0.16873 0.0
H289 H 0.15782 0.53706 0.53347 0.0
H290 H 0.08312 0.49054 0.46382 0.0
H291 H 0.11801 0.45941 0.4014 0.0
H292 H 0.19999 0.49863 0.59375 0.0
H293 H 0.23682 0.49262 0.56049 0.0
H294 H 0.2108 0.46321 0.56597 0.0
H295 H 0.20489 0.54011 0.38234 0.0
H296 H 0.23873 0.52954 0.43931 0.0
H297 H 0.20678 0.54709 0.47922 0.0
H298 H 0.31442 0.46425 0.55043 0.0
C299 C 0.27653 0.46638 0.47533 0.0
C300 C 0.93718 0.19109 0.56597 0.0
C301 C 0.91851 0.16939 0.54739 0.0
C302 C 0.90641 0.17294 0.47258 0.0
C303 C 0.93888 0.21306 0.43289 0.0
C304 C 0.94702 0.21271 0.50799 0.0
C305 C 0.96984 0.23494 0.51675 0.0
H306 H 0.0154 0.36557 0.35421 0.0
C307 C 0.95812 0.23344 0.38494 0.0
C308 C 0.97524 0.24739 0.43351 0.0
H309 H 0.02098 0.32458 0.59233 0.0
H310 H 0.01147 0.27689 0.55799 0.0
H311 H 0.05296 0.29489 0.28053 0.0
H312 H 0.95861 0.32638 0.29035 0.0
H313 H 0.97558 0.32061 0.20176 0.0
H314 H 0.98476 0.35211 0.24487 0.0
H315 H 0.04459 0.33474 0.26215 0.0
H316 H 0.03173 0.3131 0.19572 0.0
C317 C 0.99876 0.21785 0.55517 0.0
C318 C 0.95546 0.25866 0.562 0.0
C319 C 0.9801 0.21508 0.11957 0.0
C320 C 0.00726 0.21811 0.08013 0.0
C321 C 0.02742 0.23842 0.10053 0.0
C322 C 0.02088 0.2545 0.16059 0.0
C323 C 0.99371 0.25087 0.19973 0.0
C324 C 0.97459 0.23014 0.18135 0.0
C325 C 0.9541 0.21972 0.24611 0.0
C326 C 0.9646 0.23713 0.30611 0.0
C327 C 0.98578 0.2573 0.27623 0.0
C328 C 0.96055 0.18536 0.26996 0.0
C329 C 0.92117 0.22938 0.21991 0.0
C330 C 0.01483 0.34617 0.39854 0.0
C331 C 0.01825 0.34895 0.47641 0.0
C332 C 0.01808 0.32315 0.53247 0.0
C333 C 0.01185 0.29569 0.51299 0.0
C334 C 0.00587 0.29383 0.43668 0.0
C335 C 0.00978 0.31781 0.37974 0.0
C336 C 0.00599 0.30902 0.30135 0.0
C337 C 0.99809 0.27631 0.32295 0.0
C338 C 0.99482 0.26942 0.40219 0.0
C339 C 0.03555 0.31289 0.25751 0.0
C340 C 0.97968 0.32819 0.25703 0.0
H341 H 0.90777 0.19576 0.35826 0.0
H342 H 0.9467 0.18954 0.62281 0.0
H343 H 0.9327 0.25318 0.5833 0.0
H344 H 0.95241 0.28114 0.52612 0.0
H345 H 0.96915 0.26035 0.61338 0.0
H346 H 1.00409 0.19696 0.53153 0.0
H347 H 0.99597 0.2116 0.61774 0.0
H348 H 0.01885 0.23093 0.5449 0.0
H349 H 0.96515 0.19828 0.10917 0.0
H350 H 0.04901 0.24055 0.07306 0.0
H351 H 0.03835 0.26672 0.1803 0.0
H352 H 0.98523 0.17929 0.27124 0.0
H353 H 0.94983 0.17305 0.22913 0.0
H354 H 0.95298 0.17628 0.3271 0.0
H355 H 0.9198 0.25128 0.18083 0.0
H356 H 0.90645 0.23288 0.26794 0.0
H357 H 0.91163 0.21274 0.18892 0.0
H358 H 0.89113 0.15724 0.45718 0.0
C359 C 0.91626 0.19504 0.41524 0.0
C360 C 0.2778 0.06734 0.1087 0.0
C361 C 0.30371 0.08366 0.08972 0.0
C362 C 0.31117 0.10505 0.13469 0.0
C363 C 0.2754 0.08603 0.22757 0.0
C364 C 0.26267 0.07051 0.1771 0.0
C365 C 0.23539 0.05552 0.21317 0.0
H366 H 0.16303 0.02008 0.55539 0.0
C367 C 0.26379 0.07622 0.30332 0.0
C368 C 0.23623 0.06369 0.29388 0.0
H369 H 0.11716 0.07286 0.35875 0.0
H370 H 0.16521 0.07457 0.28884 0.0
H371 H 0.20876 0.97791 0.46867 0.0
H372 H 0.21765 0.06036 0.55248 0.0
H373 H 0.24809 0.03388 0.58499 0.0
H374 H 0.21064 0.02499 0.6095 0.0
H375 H 0.22308 0.97814 0.56297 0.0
H376 H 0.24777 0.98022 0.48224 0.0
C377 C 0.23949 0.02141 0.21601 0.0
C378 C 0.20656 0.06854 0.16833 0.0
C379 C 0.34884 0.03678 0.49211 0.0
C380 C 0.35102 0.01342 0.55477 0.0
C381 C 0.32506 0.99864 0.57912 0.0
C382 C 0.29729 1.00721 0.54145 0.0
C383 C 0.29549 0.03098 0.47971 0.0
C384 C 0.3211 0.0448 0.45451 0.0
C385 C 0.3153 0.06811 0.38439 0.0
C386 C 0.28189 0.06483 0.36949 0.0
C387 C 0.27056 0.04381 0.42737 0.0
C388 C 0.33624 0.06035 0.31986 0.0
C389 C 0.32052 0.09894 0.40565 0.0
C390 C 0.16297 0.03091 0.49629 0.0
C391 C 0.13644 0.04579 0.46201 0.0
C392 C 0.13721 0.06054 0.38544 0.0
C393 C 0.16451 0.06113 0.34477 0.0
C394 C 0.19075 0.04609 0.38053 0.0
C395 C 0.18985 0.03184 0.45566 0.0
C396 C 0.22091 0.02257 0.48929 0.0
C397 C 0.24009 0.0371 0.42513 0.0
C398 C 0.22268 0.04805 0.35946 0.0
C399 C 0.22546 0.98796 0.50193 0.0
C400 C 0.22467 0.03606 0.56311 0.0
H401 H 0.30444 0.12126 0.24009 0.0
H402 H 0.27079 0.05156 0.07382 0.0
H403 H 0.20188 0.09249 0.17304 0.0
H404 H 0.18697 0.05594 0.18975 0.0
H405 H 0.20889 0.06682 0.10695 0.0
H406 H 0.26077 1.01214 0.24691 0.0
H407 H 0.24028 0.01581 0.1575 0.0
H408 H 0.22044 1.01022 0.24601 0.0
H409 H 0.36831 0.04896 0.4734 0.0
H410 H 0.32627 0.98058 0.62742 0.0
H411 H 0.27819 0.99532 0.56212 0.0
H412 H 0.32565 0.04516 0.28611 0.0
H413 H 0.35815 0.04902 0.3422 0.0
H414 H 0.3425 0.08065 0.28146 0.0
H415 H 0.34492 0.10114 0.41545 0.0
H416 H 0.30841 0.10205 0.45864 0.0
H417 H 0.31213 0.11746 0.36069 0.0
H418 H 0.3302 0.1185 0.12055 0.0
C419 C 0.29697 0.10629 0.20404 0.0
C420 C 0.50375 0.35869 0.14162 0.0
C421 C 0.51587 0.38619 0.11056 0.0
C422 C 0.53962 0.39628 0.14972 0.0
C423 C 0.5363 0.35526 0.25358 0.0
C424 C 0.51496 0.34314 0.2135 0.0
C425 C 0.50758 0.31266 0.25699 0.0
H426 H 0.51316 0.221 0.60944 0.0
C427 C 0.54032 0.3374 0.33018 0.0
C428 C 0.52399 0.31176 0.33391 0.0
H429 H 0.48292 0.19665 0.39835 0.0
H430 H 0.49329 0.24615 0.33009 0.0
H431 H 0.57215 0.25063 0.5466 0.0
H432 H 0.48232 0.28529 0.58245 0.0
H433 H 0.50489 0.31477 0.59122 0.0
H434 H 0.51036 0.27993 0.65709 0.0
H435 H 0.55541 0.25055 0.63837 0.0
H436 H 0.57456 0.28204 0.59231 0.0
C437 C 0.52131 0.28858 0.21311 0.0
C438 C 0.47325 0.31157 0.26598 0.0
C439 C 0.57604 0.39329 0.53219 0.0
C440 C 0.56966 0.3898 0.60995 0.0
C441 C 0.56188 0.36175 0.64827 0.0
C442 C 0.55735 0.33846 0.60758 0.0
C443 C 0.55964 0.34373 0.52762 0.0
C444 C 0.56955 0.37058 0.49161 0.0
C445 C 0.5672 0.374 0.40638 0.0
C446 C 0.55246 0.34551 0.39716 0.0
C447 C 0.54889 0.32756 0.46791 0.0
C448 C 0.59977 0.3737 0.37574 0.0
C449 C 0.54694 0.40301 0.37535 0.0
C450 C 0.50847 0.22622 0.54861 0.0
C451 C 0.49707 0.20482 0.50971 0.0
C452 C 0.49186 0.21264 0.42993 0.0
C453 C 0.49811 0.24122 0.39024 0.0
C454 C 0.51038 0.26202 0.43025 0.0
C455 C 0.5153 0.25407 0.50831 0.0
C456 C 0.52916 0.27795 0.54277 0.0
C457 C 0.53419 0.30062 0.47225 0.0
C458 C 0.52229 0.29208 0.4058 0.0
C459 C 0.55936 0.26475 0.58264 0.0
C460 C 0.50572 0.29011 0.59653 0.0
H461 H 0.56804 0.39003 0.24655 0.0
H462 H 0.48636 0.34973 0.11096 0.0
H463 H 0.46409 0.33047 0.29337 0.0
H464 H 0.46725 0.29061 0.30189 0.0
H465 H 0.46182 0.3132 0.2095 0.0
H466 H 0.54469 0.29342 0.1956 0.0
H467 H 0.50776 0.28796 0.16069 0.0
H468 H 0.52308 0.2661 0.24791 0.0
H469 H 0.58155 0.41486 0.50145 0.0
H470 H 0.5569 0.3587 0.70855 0.0
H471 H 0.55036 0.31798 0.63937 0.0
H472 H 0.61541 0.35815 0.41527 0.0
H473 H 0.60852 0.39629 0.36951 0.0
H474 H 0.60158 0.3654 0.32073 0.0
H475 H 0.53642 0.4138 0.42134 0.0
H476 H 0.52734 0.39854 0.34125 0.0
H477 H 0.55996 0.42016 0.34041 0.0
H478 H 0.54977 0.41681 0.12644 0.0
C479 C 0.55006 0.38088 0.22002 0.0
Co480 Co 0.01598 0.04745 0.82667 0.0
C481 C 0.97281 0.01856 0.91592 0.0
Co482 Co 0.99753 1.01153 0.77227 0.0
C483 C 0.0179 0.10143 0.89597 0.0
C484 C 0.06163 0.08409 0.86859 0.0
N485 N 0.0322 0.07884 0.86617 0.0
N486 N 0.03729 0.12053 0.91706 0.0
C487 C 0.06483 0.10951 0.89976 0.0
H488 H 0.99373 0.10359 0.90269 0.0
H489 H 0.07965 0.07039 0.8484 0.0
C490 C 0.04085 0.04004 0.68307 0.0
N491 N 0.98127 0.98015 0.73283 0.0
C492 C 0.99534 0.95776 0.70181 0.0
C493 C 0.95183 0.97481 0.73163 0.0
N494 N 0.97579 0.93873 0.6811 0.0
C495 C 0.9484 0.94956 0.69996 0.0
C496 C 0.96549 0.06593 0.73408 0.0
O497 O 0.04165 0.0546 0.73857 0.0
O498 O 0.02212 0.01996 0.68478 0.0
O499 O 0.9665 0.03895 0.72315 0.0
O500 O 0.98552 0.07428 0.77571 0.0
O501 O 0.97307 1.0034 0.86158 0.0
H502 H 0.93396 0.98834 0.75299 0.0
H503 H 0.01945 0.9557 0.69388 0.0
O504 O 0.99023 0.03983 0.91298 0.0
O505 O 0.04629 0.01977 0.87816 0.0
O506 O 0.02873 0.98498 0.82084 0.0
C507 C 0.04805 0.99308 0.86485 0.0
H508 H 0.08589 0.11928 0.90796 0.0
H509 H 0.92729 0.93976 0.69245 0.0
Co510 Co 0.48814 0.04379 0.82561 0.0
C511 C 0.51212 0.98415 0.86945 0.0
Co512 Co 0.51926 0.02729 0.74123 0.0
C513 C 0.42956 0.06117 0.88859 0.0
C514 C 0.46509 0.05024 0.97258 0.0
N515 N 0.45979 0.05436 0.89654 0.0
N516 N 0.41605 0.06087 0.95677 0.0
C517 C 0.43838 0.05407 0.00948 0.0
H518 H 0.41741 0.06432 0.83453 0.0
H519 H 0.48675 0.04302 0.99992 0.0
C520 C 0.49535 0.087 0.69748 0.0
N521 N 0.54809 0.01653 0.67173 0.0
C522 C 0.57807 1.00894 0.68351 0.0
C523 C 0.54438 0.02139 0.59515 0.0
N524 N 0.59302 1.00951 0.6173 0.0
C525 C 0.57187 0.01728 0.56174 0.0
C526 C 0.46117 0.01625 0.7153 0.0
O527 O 0.48193 0.08253 0.76135 0.0
O528 O 0.51237 0.06584 0.67862 0.0
O529 O 0.48748 1.01282 0.6889 0.0
O530 O 0.45734 0.02923 0.7728 0.0
O531 O 0.52563 0.98865 0.80579 0.0
H532 H 0.52335 0.02936 0.56534 0.0
H533 H 0.58906 1.00515 0.73915 0.0
O534 O 0.49491 1.00522 0.88791 0.0
O535 O 0.52003 0.05784 0.87835 0.0
O536 O 0.54993 0.04187 0.79381 0.0
C537 C 0.54633 0.05416 0.85239 0.0
H538 H 0.4354 0.05112 0.07063 0.0
H539 H 0.57623 0.02084 0.50115 0.0
Co540 Co 0.52877 0.53847 0.80925 0.0
C541 C 0.49752 0.48916 0.88152 0.0
Co542 Co 0.48322 0.53375 0.75954 0.0
C543 C 0.57261 0.53812 0.93462 0.0
C544 C 0.59067 0.55205 0.82405 0.0
N545 N 0.5656 0.54196 0.8589 0.0
N546 N 0.6008 0.54596 0.94778 0.0
C547 C 0.61213 0.55472 0.87825 0.0
H548 H 0.55701 0.53075 0.97922 0.0
H549 H 0.59301 0.55776 0.76292 0.0
C550 C 0.51417 0.58308 0.68705 0.0
N551 N 0.44622 0.53229 0.70653 0.0
C552 C 0.43815 0.51499 0.65505 0.0
C553 C 0.42377 0.55416 0.70065 0.0
N554 N 0.41198 0.52566 0.61719 0.0
C555 C 0.40293 0.55012 0.64668 0.0
C556 C 0.48124 0.57144 0.86462 0.0
O557 O 0.53559 0.57321 0.73421 0.0
O558 O 0.49062 0.56865 0.68785 0.0
O559 O 0.46454 0.55899 0.82288 0.0
O560 O 0.50939 0.56425 0.86924 0.0
O561 O 0.47628 0.49877 0.83307 0.0
H562 H 0.42318 0.57307 0.73042 0.0
H563 H 0.45193 0.49594 0.64243 0.0
O564 O 0.52105 0.50378 0.8821 0.0
O565 O 0.54777 0.51256 0.74839 0.0
O566 O 0.50303 0.5085 0.69871 0.0
C567 C 0.53106 0.5006 0.70537 0.0
H568 H 0.63443 0.56252 0.86746 0.0
H569 H 0.38278 0.56445 0.62958 0.0
Co570 Co 1.00437 0.55016 0.82299 0.0
C571 C 0.0553 0.50851 0.85535 0.0
Co572 Co 1.00117 0.50714 0.77947 0.0
C573 C 0.99343 0.59709 0.919 0.0
C574 C 0.03571 0.59825 0.86193 0.0
N575 N 0.00979 0.58423 0.8673 0.0
N576 N 0.00859 0.61803 0.94659 0.0
C577 C 0.03506 0.61881 0.91047 0.0
H578 H 0.97163 0.5902 0.9389 0.0
H579 H 0.0546 0.59287 0.82747 0.0
C580 C 0.95054 0.54897 0.74561 0.0
N581 N 0.99592 0.47318 0.73478 0.0
C582 C 0.01233 0.46098 0.68207 0.0
C583 C 0.97024 0.45879 0.73992 0.0
N584 N 0.99744 0.44011 0.65353 0.0
C585 C 0.97108 0.43866 0.69018 0.0
C586 C 0.97823 0.5051 0.9218 0.0
O587 O 0.96525 0.56615 0.78005 0.0
O588 O 0.96245 0.52322 0.73997 0.0
O589 O 0.9831 0.48949 0.86967 0.0
O590 O 0.98583 0.53193 0.9128 0.0
O591 O 0.04063 0.4915 0.82037 0.0
H592 H 0.95136 0.46368 0.77496 0.0
H593 H 0.03396 0.46836 0.66201 0.0
O594 O 0.043 0.53384 0.86356 0.0
O595 O 0.02338 0.56751 0.73287 0.0
O596 O 0.01891 0.52528 0.69031 0.0
C597 C 0.02754 0.55165 0.68097 0.0
H598 H 0.05289 0.63302 0.91947 0.0
H599 H 0.95343 0.4243 0.68072 0.0
C600 C 0.08409 0.03219 0.50147 0.0
C601 C 0.10948 0.04814 0.51047 0.0
H602 H 0.04244 0.017 0.54898 0.0
C603 C 0.11089 0.0633 0.57309 0.0
H604 H 0.08263 0.02 0.45428 0.0
C605 C 0.08794 0.06182 0.62696 0.0
C606 C 0.06313 0.0447 0.62036 0.0
H607 H 0.13038 0.07554 0.5817 0.0
H608 H 0.09032 0.07311 0.67555 0.0
C609 C 0.0612 0.03037 0.55604 0.0
C610 C 0.47967 0.17061 0.62594 0.0
C611 C 0.49262 0.17421 0.55302 0.0
H612 H 0.47003 0.14056 0.72817 0.0
C613 C 0.50428 0.14848 0.526 0.0
H614 H 0.47028 0.1899 0.64844 0.0
C615 C 0.50439 0.12018 0.57211 0.0
C616 C 0.49254 0.11674 0.64626 0.0
H617 H 0.51466 0.15038 0.4706 0.0
H618 H 0.51449 0.10104 0.55018 0.0
C619 C 0.47949 0.14228 0.67174 0.0
C620 C 0.37371 0.47303 0.51169 0.0
C621 C 0.35465 0.49312 0.46034 0.0
H622 H 0.40713 0.46767 0.60197 0.0
C623 C 0.3589 0.52377 0.4526 0.0
H624 H 0.37076 0.44926 0.51948 0.0
C625 C 0.37935 0.53428 0.50069 0.0
C626 C 0.39626 0.51439 0.5573 0.0
H627 H 0.34438 0.53983 0.41456 0.0
H628 H 0.38069 0.55818 0.4965 0.0
C629 C 0.39442 0.48355 0.55935 0.0
C630 C 0.9913 0.39731 0.49209 0.0
C631 C 0.01771 0.37829 0.50316 0.0
H632 H 0.9641 0.43205 0.53248 0.0
C633 C 0.03966 0.38362 0.55597 0.0
H634 H 0.9738 0.39343 0.45289 0.0
C635 C 0.03422 0.40597 0.60104 0.0
C636 C 0.00646 0.42286 0.59525 0.0
H637 H 0.06005 0.36901 0.56635 0.0
H638 H 0.05054 0.4083 0.6448 0.0
C639 C 0.98562 0.41917 0.5382 0.0
C640 C 0.91329 0.98064 0.04131 0.0
C641 C 0.90033 1.00422 0.07529 0.0
H642 H 0.94602 0.96676 0.96418 0.0
C643 C 0.91457 0.03126 0.06593 0.0
H644 H 0.9028 0.95956 0.04724 0.0
C645 C 0.93966 0.03539 0.01823 0.0
C646 C 0.95065 1.01266 0.97835 0.0
H647 H 0.90486 0.04997 0.09029 0.0
H648 H 0.949 0.05707 0.00827 0.0
C649 C 0.93791 0.98487 0.99304 0.0
C650 C 0.50374 0.92302 0.04184 0.0
C651 C 0.51547 0.89726 0.01513 0.0
H652 H 0.49328 0.9704 0.01698 0.0
C653 C 0.52831 0.90073 0.9421 0.0
H654 H 0.49344 0.92121 0.09733 0.0
C655 C 0.5283 0.92897 0.89586 0.0
C656 C 0.51514 0.95452 0.92102 0.0
H657 H 0.53775 0.88139 0.91987 0.0
H658 H 0.53767 0.9306 0.83934 0.0
C659 C 0.50342 0.95123 0.99529 0.0
C660 C 0.6505 0.56917 0.09631 0.0
C661 C 0.6546 0.54266 0.14975 0.0
H662 H 0.63029 0.59075 0.98945 0.0
C663 C 0.63812 0.51817 0.13934 0.0
H664 H 0.66323 0.58821 0.10194 0.0
C665 C 0.61877 0.51986 0.07555 0.0
C666 C 0.61624 0.54576 0.01976 0.0
H667 H 0.64112 0.49733 0.17909 0.0
H668 H 0.60723 0.50037 0.06734 0.0
C669 C 0.63184 0.57056 0.03167 0.0
C670 C 0.01545 0.66136 0.10658 0.0
C671 C 0.99024 0.68188 0.09236 0.0
H672 H 0.04109 0.62473 0.0701 0.0
C673 C 0.96848 0.67753 0.03791 0.0
H674 H 0.03282 0.66444 0.14707 0.0
C675 C 0.97308 0.65453 0.99444 0.0
C676 C 0.99979 0.63596 1.00357 0.0
H677 H 0.94902 0.69328 0.02511 0.0
H678 H 0.95709 0.65292 0.94932 0.0
C679 C 0.02032 0.63883 0.06209 0.0
C680 C 0.92372 0.1136 0.56996 0.0
C681 C 0.91835 0.1403 0.59971 0.0
H682 H 0.94284 0.06843 0.59068 0.0
C683 C 0.92115 0.13926 0.679 0.0
H684 H 0.92179 0.11338 0.5093 0.0
C685 C 0.93424 0.11371 0.72498 0.0
C686 C 0.94354 0.08852 0.69278 0.0
H687 H 0.91623 0.15913 0.70418 0.0
H688 H 0.93918 0.11445 0.78441 0.0
C689 C 0.93608 0.08777 0.61647 0.0
C690 C 0.38008 1.00509 0.67727 0.0
C691 C 0.37982 1.00665 0.59786 0.0
H692 H 0.40649 1.00655 0.77705 0.0
C693 C 0.40733 1.00603 0.55931 0.0
H694 H 0.35923 1.00562 0.70836 0.0
C695 C 0.43451 1.00662 0.59867 0.0
C696 C 0.43438 1.00807 0.67684 0.0
H697 H 0.40766 1.00677 0.49808 0.0
H698 H 0.45524 1.00815 0.56701 0.0
C699 C 0.40714 1.00586 0.71642 0.0
C700 C 0.58225 0.43935 0.6428 0.0
C701 C 0.56189 0.41701 0.64254 0.0
H702 H 0.58848 0.48385 0.66389 0.0
C703 C 0.53175 0.42274 0.66121 0.0
H704 H 0.60548 0.43551 0.62692 0.0
C705 C 0.52186 0.45041 0.67848 0.0
C706 C 0.54201 0.47288 0.67901 0.0
H707 H 0.51546 0.40615 0.65947 0.0
H708 H 0.4984 0.45399 0.69281 0.0
C709 C 0.57247 0.467 0.66257 0.0
C710 C 0.10272 0.54629 0.60423 0.0
C711 C 0.0956 0.53757 0.53426 0.0
H712 H 0.08538 0.56031 0.70531 0.0
C713 C 0.06615 0.54424 0.50385 0.0
H714 H 0.1251 0.54174 0.62955 0.0
C715 C 0.04327 0.55428 0.54839 0.0
C716 C 0.04985 0.55878 0.62254 0.0
H717 H 0.06018 0.53911 0.44852 0.0
H718 H 0.02009 0.55518 0.52839 0.0
C719 C 0.07995 0.55734 0.64757 0.0
C720 C 0.08951 0.94501 0.02889 0.0
C721 C 0.09505 0.91845 0.99859 0.0
H722 H 0.0703 0.99014 0.00887 0.0
C723 C 0.09251 0.91975 0.91918 0.0
H724 H 0.09125 0.94503 0.08967 0.0
C725 C 0.0795 0.9454 0.87347 0.0
C726 C 0.06997 0.97042 0.90612 0.0
H727 H 0.09755 0.89999 0.89362 0.0
H728 H 0.07477 0.94485 0.81383 0.0
C729 C 0.0772 0.97093 0.98269 0.0
C730 C 0.62777 0.04861 0.9048 0.0
C731 C 0.62615 0.04008 0.98405 0.0
H732 H 0.60294 0.06112 0.7999 0.0
C733 C 0.59851 0.04404 0.02026 0.0
H734 H 0.64884 0.046 0.87559 0.0
C735 C 0.57219 0.05283 0.97699 0.0
C736 C 0.57334 0.0575 0.89713 0.0
H737 H 0.59694 0.0383 0.0817 0.0
H738 H 0.5508 0.05289 1.00578 0.0
C739 C 0.60149 0.05733 0.86158 0.0
C740 C 0.47904 0.64849 0.91464 0.0
C741 C 0.44857 0.65383 0.93089 0.0
H742 H 0.51325 0.61789 0.88389 0.0
C743 C 0.42858 0.63138 0.92801 0.0
H744 H 0.49502 0.66519 0.91854 0.0
C745 C 0.43902 0.60407 0.90741 0.0
C746 C 0.46974 0.59863 0.89271 0.0
H747 H 0.40511 0.63493 0.94211 0.0
H748 H 0.42326 0.58718 0.90372 0.0
C749 C 0.48956 0.62113 0.89652 0.0
C750 C 0.91043 0.47891 0.02856 0.0
C751 C 0.91497 0.48918 0.09794 0.0
H752 H 0.92783 0.47534 0.9182 0.0
C753 C 0.9435 0.49861 0.11415 0.0
H754 H 0.88882 0.47157 0.01382 0.0
C755 C 0.96534 0.50181 0.05814 0.0
C756 C 0.95952 0.49429 0.9865 0.0
H757 H 0.94824 0.50553 0.16819 0.0
H758 H 0.9861 0.51167 0.06933 0.0
C759 C 0.93274 0.48115 0.97351 0.0
C760 C 0.04529 0.18147 0.03504 0.0
C761 C 0.01625 0.19605 0.02895 0.0
H762 H 0.07453 0.14594 1.00605 0.0
C763 C 0.99477 0.18637 0.98143 0.0
H764 H 0.06227 0.18775 0.07219 0.0
C765 C 1.00173 0.16203 0.94383 0.0
C766 C 0.03043 0.14672 0.95237 0.0
H767 H 0.97223 0.1972 0.97475 0.0
H768 H 0.9845 0.15509 0.90857 0.0
C769 C 0.05227 0.15721 0.99732 0.0
C770 C 0.34254 0.04676 0.05317 0.0
C771 C 0.32697 0.07505 0.03582 0.0
H772 H 0.38362 0.02027 0.04181 0.0
C773 C 0.33936 0.09704 0.98169 0.0
H774 H 0.33403 0.02961 0.09592 0.0
C775 C 0.36766 0.09149 0.94999 0.0
C776 C 0.38436 0.06413 0.97314 0.0
H777 H 0.32818 0.11923 0.96831 0.0
H778 H 0.37759 0.10936 0.91241 0.0
C779 C 0.37106 0.04149 0.02288 0.0
C780 C 0.47897 0.42509 0.03769 0.0
C781 C 0.50521 0.40584 0.03849 0.0
H782 H 0.45556 0.46683 0.9864 0.0
C783 C 0.52616 0.41234 0.98021 0.0
H784 H 0.46285 0.4211 0.08305 0.0
C785 C 0.52254 0.43877 0.92714 0.0
C786 C 0.49759 0.45918 0.92986 0.0
H787 H 0.54684 0.3983 0.98015 0.0
H788 H 0.54012 0.44401 0.88607 0.0
C789 C 0.47502 0.45147 0.98316 0.0
C790 C 0.13253 0.51407 0.94292 0.0
C791 C 0.14098 0.48413 0.97325 0.0
H792 H 0.09876 0.54516 0.88256 0.0
C793 C 0.12289 0.46181 0.95537 0.0
H794 H 0.14556 0.5318 0.95689 0.0
C795 C 0.09595 0.46942 0.91252 0.0
C796 C 0.08619 0.49956 0.88813 0.0
H797 H 0.12855 0.43856 0.9791 0.0
H798 H 0.08179 0.45183 0.90318 0.0
C799 C 0.10539 0.5217 0.90137 0.0
C800 C 0.96685 0.87853 0.56141 0.0
C801 C 0.99576 0.86365 0.5669 0.0
H802 H 0.93807 0.91415 0.59164 0.0
C803 C 0.0175 0.87296 0.6144 0.0
H804 H 0.94968 0.87256 0.52429 0.0
C805 C 0.01092 0.89721 0.65261 0.0
C806 C 0.98233 0.91275 0.64481 0.0
H807 H 0.03993 0.86191 0.62067 0.0
H808 H 0.02831 0.90387 0.68786 0.0
C809 C 0.96024 0.90266 0.59981 0.0
C810 C 0.67075 0.97376 0.60177 0.0
C811 C 0.68464 0.99669 0.55398 0.0
H812 H 0.6305 0.9602 0.66094 0.0
C813 C 0.66926 0.02512 0.53768 0.0
H814 H 0.68168 0.95142 0.6135 0.0
C815 C 0.63971 0.02977 0.56261 0.0
C816 C 0.62513 1.00632 0.6059 0.0
H817 H 0.6789 0.04295 0.49927 0.0
H818 H 0.62754 0.05124 0.54444 0.0
C819 C 0.6414 0.97866 0.62827 0.0
C820 C 0.53152 0.6474 0.53065 0.0
C821 C 0.50529 0.66653 0.53149 0.0
H822 H 0.55531 0.60564 0.5803 0.0
C823 C 0.48491 0.65997 0.59104 0.0
H824 H 0.54719 0.65148 0.48429 0.0
C825 C 0.48899 0.6335 0.64378 0.0
C826 C 0.51386 0.61316 0.63936 0.0
H827 H 0.46427 0.67395 0.59237 0.0
H828 H 0.47179 0.62814 0.68585 0.0
C829 C 0.53594 0.62098 0.58481 0.0
C830 C 0.88638 0.59647 0.63233 0.0
C831 C 0.86858 0.57433 0.61198 0.0
H832 H 0.92606 0.60602 0.69146 0.0
C833 C 0.87569 0.54445 0.64563 0.0
H834 H 0.88155 0.61973 0.60735 0.0
C835 C 0.9014 0.53661 0.69262 0.0
C836 C 0.9205 0.55846 0.70827 0.0
H837 H 0.86284 0.52678 0.63065 0.0
H838 H 0.90713 0.51314 0.71377 0.0
C839 C 0.91194 0.58865 0.68043 0.0
loop_
_geom_bond_atom_site_label_1
_geom_bond_atom_site_label_2
_geom_bond_distance
_geom_bond_site_symmetry_2
_ccdc_geom_bond_type
C0 C1 1.391 . S
C0 C4 1.391 . S
C0 H42 0.948 . S
C1 C0 1.391 . S
C1 C2 1.391 . S
C2 C1 1.391 . S
C2 H58 0.947 . S
C2 C59 1.392 . S
C3 C4 1.391 . S
C3 C7 1.397 . S
C3 C59 1.419 . S
C4 C0 1.391 . S
C4 C3 1.391 . S
C4 C5 1.399 . S
C5 C4 1.399 . S
C5 C8 1.396 . S
C5 C17 1.453 . S
C5 C18 1.684 . S
H6 C30 0.948 1_556 S
C7 C3 1.397 . S
C7 C8 1.394 . S
C7 C26 1.723 . S
C8 C5 1.396 . S
C8 C7 1.394 . S
C8 C38 1.723 . S
H9 C32 0.947 . S
H10 C33 0.948 . S
H11 C39 0.982 . S
H12 C40 0.979 . S
H13 C40 0.980 . S
H14 C40 0.983 . S
H15 C39 0.979 . S
H16 C39 0.977 . S
C17 C5 1.453 . S
C17 H46 0.982 . S
C17 H47 0.979 . S
C17 H48 0.977 . S
C18 C5 1.684 . S
C18 H43 0.979 . S
C18 H44 0.980 . S
C18 H45 0.983 . S
C19 C20 1.391 . S
C19 C24 1.391 1_556 S
C19 H49 0.948 1_556 S
C20 C19 1.391 . S
C20 C21 1.391 . S
C21 C20 1.391 . S
C21 C22 1.392 . S
C21 H50 0.947 . S
C22 C21 1.392 . S
C22 C23 1.419 1_556 S
C22 H51 0.948 . S
C23 C22 1.419 1_554 S
C23 C24 1.391 . S
C23 C27 1.397 . S
C24 C19 1.391 1_554 S
C24 C23 1.391 . S
C24 C25 1.399 . S
C25 C24 1.399 . S
C25 C26 1.396 . S
C25 C28 1.453 . S
C25 C29 1.684 . S
C26 C7 1.723 . S
C26 C25 1.396 . S
C26 C27 1.394 . S
C27 C23 1.397 . S
C27 C26 1.394 . S
C27 C37 1.723 . S
C28 C25 1.453 . S
C28 H52 0.982 . S
C28 H53 0.979 . S
C28 H54 0.977 . S
C29 C25 1.684 . S
C29 H55 0.979 . S
C29 H56 0.980 . S
C29 H57 0.983 . S
C30 H6 0.948 1_554 S
C30 C31 1.391 . S
C30 C35 1.391 . S
C31 C30 1.391 . S
C31 C32 1.391 . S
C32 H9 0.947 . S
C32 C31 1.391 . S
C32 C33 1.392 . S
C33 H10 0.948 . S
C33 C32 1.392 . S
C33 C34 1.419 . S
C34 C33 1.419 . S
C34 C35 1.391 . S
C34 C38 1.397 . S
C35 C30 1.391 . S
C35 C34 1.391 . S
C35 C36 1.399 . S
C36 C35 1.399 . S
C36 C37 1.396 . S
C36 C39 1.453 1_554 S
C36 C40 1.684 1_554 S
C37 C27 1.723 . S
C37 C36 1.396 . S
C37 C38 1.394 . S
C38 C8 1.723 . S
C38 C34 1.397 . S
C38 C37 1.394 . S
C39 H11 0.982 . S
C39 H15 0.979 . S
C39 H16 0.977 . S
C39 C36 1.453 1_556 S
C40 H12 0.979 . S
C40 H13 0.980 . S
C40 H14 0.983 . S
C40 C36 1.684 1_556 S
H41 C59 0.948 . S
H42 C0 0.948 . S
H43 C18 0.979 . S
H44 C18 0.980 . S
H45 C18 0.983 . S
H46 C17 0.982 . S
H47 C17 0.979 . S
H48 C17 0.977 . S
H49 C19 0.948 1_554 S
H50 C21 0.947 . S
H51 C22 0.948 . S
H52 C28 0.982 . S
H53 C28 0.979 . S
H54 C28 0.977 . S
H55 C29 0.979 . S
H56 C29 0.980 . S
H57 C29 0.983 . S
H58 C2 0.947 . S
C59 C2 1.392 . S
C59 C3 1.419 . S
C59 H41 0.948 . S
C60 C61 1.391 . S
C60 C64 1.391 . S
C60 H102 0.948 . S
C61 C60 1.391 . S
C61 C62 1.391 . S
C62 C61 1.391 . S
C62 H118 0.947 . S
C62 C119 1.392 1_556 S
C63 C64 1.391 1_554 S
C63 C67 1.397 1_655 S
C63 C119 1.419 . S
C64 C60 1.391 . S
C64 C63 1.391 1_556 S
C64 C65 1.399 . S
C65 C64 1.399 . S
C65 C68 1.396 1_656 S
C65 C77 1.453 1_655 S
C65 C78 1.684 . S
H66 C90 0.948 . S
C67 C63 1.397 1_455 S
C67 C68 1.394 . S
C67 C86 1.723 . S
C68 C65 1.396 1_454 S
C68 C67 1.394 . S
C68 C98 1.723 . S
H69 C92 0.947 . S
H70 C93 0.948 1_556 S
H71 C99 0.982 . S
H72 C100 0.979 . S
H73 C100 0.980 . S
H74 C100 0.983 . S
H75 C99 0.979 . S
H76 C99 0.977 . S
C77 C65 1.453 1_455 S
C77 H106 0.982 . S
C77 H107 0.979 . S
C77 H108 0.977 . S
C78 C65 1.684 . S
C78 H103 0.979 . S
C78 H104 0.980 . S
C78 H105 0.983 . S
C79 C80 1.391 . S
C79 C84 1.391 . S
C79 H109 0.948 . S
C80 C79 1.391 . S
C80 C81 1.391 . S
C81 C80 1.391 . S
C81 C82 1.392 . S
C81 H110 0.947 . S
C82 C81 1.392 . S
C82 C83 1.419 . S
C82 H111 0.948 . S
C83 C82 1.419 . S
C83 C84 1.391 . S
C83 C87 1.397 1_655 S
C84 C79 1.391 . S
C84 C83 1.391 . S
C84 C85 1.399 . S
C85 C84 1.399 . S
C85 C86 1.396 1_655 S
C85 C88 1.453 1_655 S
C85 C89 1.684 . S
C86 C67 1.723 . S
C86 C85 1.396 1_455 S
C86 C87 1.394 . S
C87 C83 1.397 1_455 S
C87 C86 1.394 . S
C87 C97 1.723 . S
C88 C85 1.453 1_455 S
C88 H112 0.982 . S
C88 H113 0.979 . S
C88 H114 0.977 . S
C89 C85 1.684 . S
C89 H115 0.979 . S
C89 H116 0.980 . S
C89 H117 0.983 . S
C90 H66 0.948 . S
C90 C91 1.391 . S
C90 C95 1.391 . S
C91 C90 1.391 . S
C91 C92 1.391 1_554 S
C92 H69 0.947 . S
C92 C91 1.391 1_556 S
C92 C93 1.392 1_556 S
C93 H70 0.948 1_554 S
C93 C92 1.392 1_554 S
C93 C94 1.419 . S
C94 C93 1.419 . S
C94 C95 1.391 . S
C94 C98 1.397 1_655 S
C95 C90 1.391 . S
C95 C94 1.391 . S
C95 C96 1.399 . S
C96 C95 1.399 . S
C96 C97 1.396 1_655 S
C96 C99 1.453 1_655 S
C96 C100 1.684 . S
C97 C87 1.723 . S
C97 C96 1.396 1_455 S
C97 C98 1.394 . S
C98 C68 1.723 . S
C98 C94 1.397 1_455 S
C98 C97 1.394 . S
C99 H71 0.982 . S
C99 H75 0.979 . S
C99 H76 0.977 . S
C99 C96 1.453 1_455 S
C100 H72 0.979 . S
C100 H73 0.980 . S
C100 H74 0.983 . S
C100 C96 1.684 . S
H101 C119 0.948 . S
H102 C60 0.948 . S
H103 C78 0.979 . S
H104 C78 0.980 . S
H105 C78 0.983 . S
H106 C77 0.982 . S
H107 C77 0.979 . S
H108 C77 0.977 . S
H109 C79 0.948 . S
H110 C81 0.947 . S
H111 C82 0.948 . S
H112 C88 0.982 . S
H113 C88 0.979 . S
H114 C88 0.977 . S
H115 C89 0.979 . S
H116 C89 0.980 . S
H117 C89 0.983 . S
H118 C62 0.947 . S
C119 C62 1.392 1_554 S
C119 C63 1.419 . S
C119 H101 0.948 . S
C120 C121 1.391 . S
C120 C124 1.391 . S
C120 H162 0.948 . S
C121 C120 1.391 . S
C121 C122 1.391 1_554 S
C122 C121 1.391 1_556 S
C122 H178 0.947 . S
C122 C179 1.392 . S
C123 C124 1.391 . S
C123 C127 1.397 . S
C123 C179 1.419 1_554 S
C124 C120 1.391 . S
C124 C123 1.391 . S
C124 C125 1.399 . S
C125 C124 1.399 . S
C125 C128 1.396 . S
C125 C137 1.453 . S
C125 C138 1.684 . S
H126 C150 0.948 . S
C127 C123 1.397 . S
C127 C128 1.394 . S
C127 C146 1.723 . S
C128 C125 1.396 . S
C128 C127 1.394 . S
C128 C158 1.723 . S
H129 C152 0.947 . S
H130 C153 0.948 . S
H131 C159 0.982 . S
H132 C160 0.979 . S
H133 C160 0.980 . S
H134 C160 0.983 . S
H135 C159 0.979 . S
H136 C159 0.977 . S
C137 C125 1.453 . S
C137 H166 0.982 . S
C137 H167 0.979 . S
C137 H168 0.977 . S
C138 C125 1.684 . S
C138 H163 0.979 . S
C138 H164 0.980 . S
C138 H165 0.983 . S
C139 C140 1.391 . S
C139 C144 1.391 . S
C139 H169 0.948 . S
C140 C139 1.391 . S
C140 C141 1.391 . S
C141 C140 1.391 . S
C141 C142 1.392 1_556 S
C141 H170 0.947 . S
C142 C141 1.392 1_554 S
C142 C143 1.419 . S
C142 H171 0.948 . S
C143 C142 1.419 . S
C143 C144 1.391 1_554 S
C143 C147 1.397 . S
C144 C139 1.391 . S
C144 C143 1.391 1_556 S
C144 C145 1.399 . S
C145 C144 1.399 . S
C145 C146 1.396 1_556 S
C145 C148 1.453 . S
C145 C149 1.684 . S
C146 C127 1.723 . S
C146 C145 1.396 1_554 S
C146 C147 1.394 . S
C147 C143 1.397 . S
C147 C146 1.394 . S
C147 C157 1.723 . S
C148 C145 1.453 . S
C148 H172 0.982 . S
C148 H173 0.979 . S
C148 H174 0.977 . S
C149 C145 1.684 . S
C149 H175 0.979 . S
C149 H176 0.980 . S
C149 H177 0.983 . S
C150 H126 0.948 . S
C150 C151 1.391 . S
C150 C155 1.391 . S
C151 C150 1.391 . S
C151 C152 1.391 . S
C152 H129 0.947 . S
C152 C151 1.391 . S
C152 C153 1.392 . S
C153 H130 0.948 . S
C153 C152 1.392 . S
C153 C154 1.419 . S
C154 C153 1.419 . S
C154 C155 1.391 . S
C154 C158 1.397 . S
C155 C150 1.391 . S
C155 C154 1.391 . S
C155 C156 1.399 . S
C156 C155 1.399 . S
C156 C157 1.396 . S
C156 C159 1.453 . S
C156 C160 1.684 . S
C157 C147 1.723 . S
C157 C156 1.396 . S
C157 C158 1.394 . S
C158 C128 1.723 . S
C158 C154 1.397 . S
C158 C157 1.394 . S
C159 H131 0.982 . S
C159 H135 0.979 . S
C159 H136 0.977 . S
C159 C156 1.453 . S
C160 H132 0.979 . S
C160 H133 0.980 . S
C160 H134 0.983 . S
C160 C156 1.684 . S
H161 C179 0.948 . S
H162 C120 0.948 . S
H163 C138 0.979 . S
H164 C138 0.980 . S
H165 C138 0.983 . S
H166 C137 0.982 . S
H167 C137 0.979 . S
H168 C137 0.977 . S
H169 C139 0.948 . S
H170 C141 0.947 . S
H171 C142 0.948 . S
H172 C148 0.982 . S
H173 C148 0.979 . S
H174 C148 0.977 . S
H175 C149 0.979 . S
H176 C149 0.980 . S
H177 C149 0.983 . S
H178 C122 0.947 . S
C179 C122 1.392 . S
C179 C123 1.419 1_556 S
C179 H161 0.948 . S
C180 C181 1.391 . S
C180 C184 1.391 . S
C180 H222 0.948 . S
C181 C180 1.391 . S
C181 C182 1.391 . S
C182 C181 1.391 . S
C182 H238 0.947 . S
C182 C239 1.392 . S
C183 C184 1.391 . S
C183 C187 1.397 . S
C183 C239 1.419 . S
C184 C180 1.391 . S
C184 C183 1.391 . S
C184 C185 1.399 . S
C185 C184 1.399 . S
C185 C188 1.396 . S
C185 C197 1.453 . S
C185 C198 1.684 . S
H186 C210 0.948 1_556 S
C187 C183 1.397 . S
C187 C188 1.394 . S
C187 C206 1.723 . S
C188 C185 1.396 . S
C188 C187 1.394 . S
C188 C218 1.723 . S
H189 C212 0.947 . S
H190 C213 0.948 . S
H191 C219 0.982 . S
H192 C220 0.979 . S
H193 C220 0.980 . S
H194 C220 0.983 . S
H195 C219 0.979 . S
H196 C219 0.977 . S
C197 C185 1.453 . S
C197 H226 0.982 . S
C197 H227 0.979 . S
C197 H228 0.977 . S
C198 C185 1.684 . S
C198 H223 0.979 . S
C198 H224 0.980 . S
C198 H225 0.983 . S
C199 C200 1.391 . S
C199 C204 1.391 1_556 S
C199 H229 0.948 1_556 S
C200 C199 1.391 . S
C200 C201 1.391 . S
C201 C200 1.391 . S
C201 C202 1.392 . S
C201 H230 0.947 . S
C202 C201 1.392 . S
C202 C203 1.419 1_556 S
C202 H231 0.948 . S
C203 C202 1.419 1_554 S
C203 C204 1.391 . S
C203 C207 1.397 . S
C204 C199 1.391 1_554 S
C204 C203 1.391 . S
C204 C205 1.399 . S
C205 C204 1.399 . S
C205 C206 1.396 . S
C205 C208 1.453 . S
C205 C209 1.684 . S
C206 C187 1.723 . S
C206 C205 1.396 . S
C206 C207 1.394 . S
C207 C203 1.397 . S
C207 C206 1.394 . S
C207 C217 1.723 . S
C208 C205 1.453 . S
C208 H232 0.982 . S
C208 H233 0.979 . S
C208 H234 0.977 . S
C209 C205 1.684 . S
C209 H235 0.979 . S
C209 H236 0.980 . S
C209 H237 0.983 . S
C210 H186 0.948 1_554 S
C210 C211 1.391 . S
C210 C215 1.391 . S
C211 C210 1.391 . S
C211 C212 1.391 . S
C212 H189 0.947 . S
C212 C211 1.391 . S
C212 C213 1.392 . S
C213 H190 0.948 . S
C213 C212 1.392 . S
C213 C214 1.419 . S
C214 C213 1.419 . S
C214 C215 1.391 . S
C214 C218 1.397 . S
C215 C210 1.391 . S
C215 C214 1.391 . S
C215 C216 1.399 . S
C216 C215 1.399 . S
C216 C217 1.396 . S
C216 C219 1.454 1_554 S
C216 C220 1.685 1_554 S
C217 C207 1.723 . S
C217 C216 1.396 . S
C217 C218 1.394 . S
C218 C188 1.723 . S
C218 C214 1.397 . S
C218 C217 1.394 . S
C219 H191 0.982 . S
C219 H195 0.979 . S
C219 H196 0.977 . S
C219 C216 1.454 1_556 S
C220 H192 0.979 . S
C220 H193 0.980 . S
C220 H194 0.983 . S
C220 C216 1.685 1_556 S
H221 C239 0.948 . S
H222 C180 0.948 . S
H223 C198 0.979 . S
H224 C198 0.980 . S
H225 C198 0.983 . S
H226 C197 0.982 . S
H227 C197 0.979 . S
H228 C197 0.977 . S
H229 C199 0.948 1_554 S
H230 C201 0.947 . S
H231 C202 0.948 . S
H232 C208 0.982 . S
H233 C208 0.979 . S
H234 C208 0.977 . S
H235 C209 0.979 . S
H236 C209 0.980 . S
H237 C209 0.983 . S
H238 C182 0.947 . S
C239 C182 1.392 . S
C239 C183 1.419 . S
C239 H221 0.948 . S
C240 C241 1.391 . S
C240 C244 1.391 . S
C240 H282 0.948 . S
C241 C240 1.391 . S
C241 C242 1.391 . S
C242 C241 1.391 . S
C242 H298 0.947 . S
C242 C299 1.392 . S
C243 C244 1.391 . S
C243 C247 1.397 . S
C243 C299 1.419 . S
C244 C240 1.391 . S
C244 C243 1.391 . S
C244 C245 1.399 . S
C245 C244 1.399 . S
C245 C248 1.396 . S
C245 C257 1.453 . S
C245 C258 1.684 . S
H246 C270 0.948 . S
C247 C243 1.397 . S
C247 C248 1.394 . S
C247 C266 1.723 . S
C248 C245 1.396 . S
C248 C247 1.394 . S
C248 C278 1.723 . S
H249 C272 0.947 . S
H250 C273 0.948 . S
H251 C279 0.982 . S
H252 C280 0.979 . S
H253 C280 0.980 . S
H254 C280 0.983 . S
H255 C279 0.979 . S
H256 C279 0.977 . S
C257 C245 1.453 . S
C257 H286 0.982 . S
C257 H287 0.979 . S
C257 H288 0.977 . S
C258 C245 1.684 . S
C258 H283 0.979 . S
C258 H284 0.980 . S
C258 H285 0.983 . S
C259 C260 1.391 . S
C259 C264 1.391 . S
C259 H289 0.948 . S
C260 C259 1.391 . S
C260 C261 1.391 . S
C261 C260 1.391 . S
C261 C262 1.392 . S
C261 H290 0.947 . S
C262 C261 1.392 . S
C262 C263 1.419 . S
C262 H291 0.948 . S
C263 C262 1.419 . S
C263 C264 1.391 . S
C263 C267 1.397 . S
C264 C259 1.391 . S
C264 C263 1.391 . S
C264 C265 1.399 . S
C265 C264 1.399 . S
C265 C266 1.396 . S
C265 C268 1.453 . S
C265 C269 1.684 . S
C266 C247 1.723 . S
C266 C265 1.396 . S
C266 C267 1.394 . S
C267 C263 1.397 . S
C267 C266 1.394 . S
C267 C277 1.723 . S
C268 C265 1.453 . S
C268 H292 0.982 . S
C268 H293 0.979 . S
C268 H294 0.977 . S
C269 C265 1.684 . S
C269 H295 0.979 . S
C269 H296 0.980 . S
C269 H297 0.983 . S
C270 H246 0.948 . S
C270 C271 1.391 . S
C270 C275 1.391 . S
C271 C270 1.391 . S
C271 C272 1.391 . S
C272 H249 0.947 . S
C272 C271 1.391 . S
C272 C273 1.392 . S
C273 H250 0.948 . S
C273 C272 1.392 . S
C273 C274 1.419 . S
C274 C273 1.419 . S
C274 C275 1.391 . S
C274 C278 1.397 . S
C275 C270 1.391 . S
C275 C274 1.391 . S
C275 C276 1.399 . S
C276 C275 1.399 . S
C276 C277 1.396 . S
C276 C279 1.453 . S
C276 C280 1.684 . S
C277 C267 1.723 . S
C277 C276 1.396 . S
C277 C278 1.394 . S
C278 C248 1.723 . S
C278 C274 1.397 . S
C278 C277 1.394 . S
C279 H251 0.982 . S
C279 H255 0.979 . S
C279 H256 0.977 . S
C279 C276 1.453 . S
C280 H252 0.979 . S
C280 H253 0.980 . S
C280 H254 0.983 . S
C280 C276 1.684 . S
H281 C299 0.948 . S
H282 C240 0.948 . S
H283 C258 0.979 . S
H284 C258 0.980 . S
H285 C258 0.983 . S
H286 C257 0.982 . S
H287 C257 0.979 . S
H288 C257 0.977 . S
H289 C259 0.948 . S
H290 C261 0.947 . S
H291 C262 0.948 . S
H292 C268 0.982 . S
H293 C268 0.979 . S
H294 C268 0.977 . S
H295 C269 0.979 . S
H296 C269 0.980 . S
H297 C269 0.983 . S
H298 C242 0.947 . S
C299 C242 1.392 . S
C299 C243 1.419 . S
C299 H281 0.948 . S
C300 C301 1.391 . S
C300 C304 1.391 . S
C300 H342 0.948 . S
C301 C300 1.391 . S
C301 C302 1.391 . S
C302 C301 1.391 . S
C302 H358 0.947 . S
C302 C359 1.392 . S
C303 C304 1.391 . S
C303 C307 1.396 1_655 S
C303 C359 1.419 . S
C304 C300 1.391 . S
C304 C303 1.391 . S
C304 C305 1.399 . S
C305 C304 1.399 . S
C305 C308 1.396 1_655 S
C305 C317 1.453 1_655 S
C305 C318 1.684 . S
H306 C330 0.948 . S
C307 C303 1.396 1_455 S
C307 C308 1.395 . S
C307 C326 1.723 . S
C308 C305 1.396 1_455 S
C308 C307 1.395 . S
C308 C338 1.723 . S
H309 C332 0.947 . S
H310 C333 0.948 . S
H311 C339 0.982 . S
H312 C340 0.979 . S
H313 C340 0.980 . S
H314 C340 0.983 . S
H315 C339 0.979 . S
H316 C339 0.977 . S
C317 C305 1.453 1_455 S
C317 H346 0.982 . S
C317 H347 0.979 . S
C317 H348 0.977 . S
C318 C305 1.684 . S
C318 H343 0.979 . S
C318 H344 0.980 . S
C318 H345 0.983 . S
C319 C320 1.391 . S
C319 C324 1.391 . S
C319 H349 0.948 . S
C320 C319 1.391 . S
C320 C321 1.391 . S
C321 C320 1.391 . S
C321 C322 1.392 . S
C321 H350 0.947 . S
C322 C321 1.392 . S
C322 C323 1.419 . S
C322 H351 0.948 . S
C323 C322 1.419 . S
C323 C324 1.391 . S
C323 C327 1.396 1_655 S
C324 C319 1.391 . S
C324 C323 1.391 . S
C324 C325 1.399 . S
C325 C324 1.399 . S
C325 C326 1.396 1_655 S
C325 C328 1.453 1_655 S
C325 C329 1.684 . S
C326 C307 1.723 . S
C326 C325 1.396 1_455 S
C326 C327 1.394 . S
C327 C323 1.396 1_455 S
C327 C326 1.394 . S
C327 C337 1.724 . S
C328 C325 1.453 1_455 S
C328 H352 0.982 . S
C328 H353 0.979 . S
C328 H354 0.977 . S
C329 C325 1.684 . S
C329 H355 0.979 . S
C329 H356 0.980 . S
C329 H357 0.983 . S
C330 H306 0.948 . S
C330 C331 1.391 . S
C330 C335 1.391 . S
C331 C330 1.391 . S
C331 C332 1.391 . S
C332 H309 0.947 . S
C332 C331 1.391 . S
C332 C333 1.392 . S
C333 H310 0.948 . S
C333 C332 1.392 . S
C333 C334 1.419 . S
C334 C333 1.419 . S
C334 C335 1.391 . S
C334 C338 1.397 1_655 S
C335 C330 1.391 . S
C335 C334 1.391 . S
C335 C336 1.399 . S
C336 C335 1.399 . S
C336 C337 1.396 1_655 S
C336 C339 1.453 1_655 S
C336 C340 1.684 . S
C337 C327 1.724 . S
C337 C336 1.396 1_455 S
C337 C338 1.395 . S
C338 C308 1.723 . S
C338 C334 1.397 1_455 S
C338 C337 1.395 . S
C339 H311 0.982 . S
C339 H315 0.979 . S
C339 H316 0.977 . S
C339 C336 1.453 1_455 S
C340 H312 0.979 . S
C340 H313 0.980 . S
C340 H314 0.983 . S
C340 C336 1.684 . S
H341 C359 0.948 . S
H342 C300 0.948 . S
H343 C318 0.979 . S
H344 C318 0.980 . S
H345 C318 0.983 . S
H346 C317 0.982 . S
H347 C317 0.979 . S
H348 C317 0.977 . S
H349 C319 0.948 . S
H350 C321 0.947 . S
H351 C322 0.948 . S
H352 C328 0.982 . S
H353 C328 0.979 . S
H354 C328 0.977 . S
H355 C329 0.979 . S
H356 C329 0.980 . S
H357 C329 0.983 . S
H358 C302 0.947 . S
C359 C302 1.392 . S
C359 C303 1.419 . S
C359 H341 0.948 . S
C360 C361 1.391 . S
C360 C364 1.391 . S
C360 H402 0.948 . S
C361 C360 1.391 . S
C361 C362 1.391 . S
C362 C361 1.391 . S
C362 H418 0.947 . S
C362 C419 1.392 . S
C363 C364 1.391 . S
C363 C367 1.397 . S
C363 C419 1.419 . S
C364 C360 1.391 . S
C364 C363 1.391 . S
C364 C365 1.399 . S
C365 C364 1.399 . S
C365 C368 1.396 . S
C365 C377 1.453 . S
C365 C378 1.684 . S
H366 C390 0.948 . S
C367 C363 1.397 . S
C367 C368 1.394 . S
C367 C386 1.723 . S
C368 C365 1.396 . S
C368 C367 1.394 . S
C368 C398 1.723 . S
H369 C392 0.947 . S
H370 C393 0.948 . S
H371 C399 0.982 . S
H372 C400 0.979 . S
H373 C400 0.980 . S
H374 C400 0.983 . S
H375 C399 0.979 . S
H376 C399 0.977 . S
C377 C365 1.453 . S
C377 H406 0.982 . S
C377 H407 0.979 . S
C377 H408 0.977 . S
C378 C365 1.684 . S
C378 H403 0.979 . S
C378 H404 0.980 . S
C378 H405 0.983 . S
C379 C380 1.391 . S
C379 C384 1.391 . S
C379 H409 0.948 . S
C380 C379 1.391 . S
C380 C381 1.391 . S
C381 C380 1.391 . S
C381 C382 1.392 . S
C381 H410 0.947 . S
C382 C381 1.392 . S
C382 C383 1.419 . S
C382 H411 0.948 . S
C383 C382 1.419 . S
C383 C384 1.391 . S
C383 C387 1.397 . S
C384 C379 1.391 . S
C384 C383 1.391 . S
C384 C385 1.399 . S
C385 C384 1.399 . S
C385 C386 1.396 . S
C385 C388 1.453 . S
C385 C389 1.684 . S
C386 C367 1.723 . S
C386 C385 1.396 . S
C386 C387 1.394 . S
C387 C383 1.397 . S
C387 C386 1.394 . S
C387 C397 1.723 . S
C388 C385 1.453 . S
C388 H412 0.982 . S
C388 H413 0.979 . S
C388 H414 0.977 . S
C389 C385 1.684 . S
C389 H415 0.979 . S
C389 H416 0.980 . S
C389 H417 0.983 . S
C390 H366 0.948 . S
C390 C391 1.391 . S
C390 C395 1.391 . S
C391 C390 1.391 . S
C391 C392 1.391 . S
C392 H369 0.947 . S
C392 C391 1.391 . S
C392 C393 1.392 . S
C393 H370 0.948 . S
C393 C392 1.392 . S
C393 C394 1.419 . S
C394 C393 1.419 . S
C394 C395 1.391 . S
C394 C398 1.397 . S
C395 C390 1.391 . S
C395 C394 1.391 . S
C395 C396 1.399 . S
C396 C395 1.399 . S
C396 C397 1.396 . S
C396 C399 1.453 . S
C396 C400 1.684 . S
C397 C387 1.723 . S
C397 C396 1.396 . S
C397 C398 1.394 . S
C398 C368 1.723 . S
C398 C394 1.397 . S
C398 C397 1.394 . S
C399 H371 0.982 . S
C399 H375 0.979 . S
C399 H376 0.977 . S
C399 C396 1.453 . S
C400 H372 0.979 . S
C400 H373 0.980 . S
C400 H374 0.983 . S
C400 C396 1.684 . S
H401 C419 0.948 . S
H402 C360 0.948 . S
H403 C378 0.979 . S
H404 C378 0.980 . S
H405 C378 0.983 . S
H406 C377 0.982 . S
H407 C377 0.979 . S
H408 C377 0.977 . S
H409 C379 0.948 . S
H410 C381 0.947 . S
H411 C382 0.948 . S
H412 C388 0.982 . S
H413 C388 0.979 . S
H414 C388 0.977 . S
H415 C389 0.979 . S
H416 C389 0.980 . S
H417 C389 0.983 . S
H418 C362 0.947 . S
C419 C362 1.392 . S
C419 C363 1.419 . S
C419 H401 0.948 . S
C420 C421 1.391 . S
C420 C424 1.391 . S
C420 H462 0.948 . S
C421 C420 1.391 . S
C421 C422 1.391 . S
C422 C421 1.391 . S
C422 H478 0.947 . S
C422 C479 1.392 . S
C423 C424 1.391 . S
C423 C427 1.397 . S
C423 C479 1.419 . S
C424 C420 1.391 . S
C424 C423 1.391 . S
C424 C425 1.399 . S
C425 C424 1.399 . S
C425 C428 1.396 . S
C425 C437 1.453 . S
C425 C438 1.684 . S
H426 C450 0.948 . S
C427 C423 1.397 . S
C427 C428 1.394 . S
C427 C446 1.723 . S
C428 C425 1.396 . S
C428 C427 1.394 . S
C428 C458 1.723 . S
H429 C452 0.947 . S
H430 C453 0.948 . S
H431 C459 0.982 . S
H432 C460 0.979 . S
H433 C460 0.980 . S
H434 C460 0.983 . S
H435 C459 0.979 . S
H436 C459 0.977 . S
C437 C425 1.453 . S
C437 H466 0.982 . S
C437 H467 0.979 . S
C437 H468 0.977 . S
C438 C425 1.684 . S
C438 H463 0.979 . S
C438 H464 0.980 . S
C438 H465 0.983 . S
C439 C440 1.391 . S
C439 C444 1.391 . S
C439 H469 0.948 . S
C440 C439 1.391 . S
C440 C441 1.391 . S
C441 C440 1.391 . S
C441 C442 1.392 . S
C441 H470 0.947 . S
C442 C441 1.392 . S
C442 C443 1.419 . S
C442 H471 0.948 . S
C443 C442 1.419 . S
C443 C444 1.391 . S
C443 C447 1.397 . S
C444 C439 1.391 . S
C444 C443 1.391 . S
C444 C445 1.399 . S
C445 C444 1.399 . S
C445 C446 1.396 . S
C445 C448 1.453 . S
C445 C449 1.684 . S
C446 C427 1.723 . S
C446 C445 1.396 . S
C446 C447 1.394 . S
C447 C443 1.397 . S
C447 C446 1.394 . S
C447 C457 1.723 . S
C448 C445 1.453 . S
C448 H472 0.982 . S
C448 H473 0.979 . S
C448 H474 0.977 . S
C449 C445 1.684 . S
C449 H475 0.979 . S
C449 H476 0.980 . S
C449 H477 0.983 . S
C450 H426 0.948 . S
C450 C451 1.391 . S
C450 C455 1.391 . S
C451 C450 1.391 . S
C451 C452 1.391 . S
C452 H429 0.947 . S
C452 C451 1.391 . S
C452 C453 1.392 . S
C453 H430 0.948 . S
C453 C452 1.392 . S
C453 C454 1.419 . S
C454 C453 1.419 . S
C454 C455 1.391 . S
C454 C458 1.397 . S
C455 C450 1.391 . S
C455 C454 1.391 . S
C455 C456 1.399 . S
C456 C455 1.399 . S
C456 C457 1.396 . S
C456 C459 1.453 . S
C456 C460 1.684 . S
C457 C447 1.723 . S
C457 C456 1.396 . S
C457 C458 1.394 . S
C458 C428 1.723 . S
C458 C454 1.397 . S
C458 C457 1.394 . S
C459 H431 0.982 . S
C459 H435 0.979 . S
C459 H436 0.977 . S
C459 C456 1.453 . S
C460 H432 0.979 . S
C460 H433 0.980 . S
C460 H434 0.983 . S
C460 C456 1.684 . S
H461 C479 0.948 . S
H462 C420 0.948 . S
H463 C438 0.979 . S
H464 C438 0.980 . S
H465 C438 0.983 . S
H466 C437 0.982 . S
H467 C437 0.979 . S
H468 C437 0.977 . S
H469 C439 0.948 . S
H470 C441 0.947 . S
H471 C442 0.948 . S
H472 C448 0.982 . S
H473 C448 0.979 . S
H474 C448 0.977 . S
H475 C449 0.979 . S
H476 C449 0.980 . S
H477 C449 0.983 . S
H478 C422 0.947 . S
C479 C422 1.392 . S
C479 C423 1.419 . S
C479 H461 0.948 . S
Co480 N485 2.057 . S
Co480 O497 2.021 . S
Co480 O500 2.062 1_455 S
Co480 O504 2.117 1_455 S
Co480 O505 2.020 1_545 S
C481 O501 1.259 1_545 S
C481 O504 1.258 . S
Co482 N491 2.061 1_545 S
Co482 O498 2.117 1_655 S
Co482 O499 2.020 . S
Co482 O501 2.021 1_545 S
Co482 O506 2.062 1_645 S
C483 N485 1.316 . S
C483 N486 1.347 1_556 S
C483 H488 0.931 . S
C484 N485 1.375 1_655 S
C484 C487 1.350 1_556 S
C484 H489 0.930 . S
N485 Co480 2.057 . S
N485 C483 1.316 . S
N485 C484 1.375 1_455 S
N486 C483 1.347 1_554 S
N486 C487 1.373 1_455 S
C487 C484 1.350 1_554 S
C487 N486 1.373 1_655 S
C487 H508 0.931 . S
H488 C483 0.931 . S
H489 C484 0.930 . S
C490 O497 1.259 . S
C490 O498 1.258 . S
N491 Co482 2.061 1_565 S
N491 C492 1.343 . S
N491 C493 1.343 1_655 S
C492 N491 1.343 . S
C492 N494 1.347 . S
C492 H503 0.931 . S
C493 N491 1.343 1_455 S
C493 C495 1.350 . S
C493 H502 0.930 . S
N494 C492 1.347 . S
N494 C495 1.373 1_655 S
C495 C493 1.350 . S
C495 N494 1.373 1_455 S
C495 H509 0.931 . S
C496 O499 1.256 . S
C496 O500 1.255 . S
O497 Co480 2.021 . S
O497 C490 1.259 . S
O498 Co482 2.117 1_455 S
O498 C490 1.258 . S
O499 Co482 2.020 . S
O499 C496 1.256 . S
O500 Co480 2.062 1_655 S
O500 C496 1.255 . S
O501 C481 1.259 1_565 S
O501 Co482 2.021 1_565 S
H502 C493 0.930 . S
H503 C492 0.931 . S
O504 Co480 2.117 1_655 S
O504 C481 1.258 . S
O505 Co480 2.020 1_565 S
O505 C507 1.256 . S
O506 Co482 2.062 1_465 S
O506 C507 1.255 . S
C507 O505 1.256 . S
C507 O506 1.255 . S
H508 C487 0.931 . S
H509 C495 0.931 . S
Co510 N515 2.057 . S
Co510 O527 2.021 . S
Co510 O530 2.062 . S
Co510 O534 2.117 1_545 S
Co510 O535 2.020 . S
C511 O531 1.259 . S
C511 O534 1.258 . S
Co512 N521 2.057 . S
Co512 O528 2.117 . S
Co512 O529 2.020 . S
Co512 O531 2.021 1_545 S
Co512 O536 2.062 1_545 S
C513 N515 1.316 . S
C513 N516 1.347 1_556 S
C513 H518 0.931 . S
C514 N515 1.375 . S
C514 C517 1.350 1_556 S
C514 H519 0.930 1_545 S
N515 Co510 2.057 . S
N515 C513 1.316 . S
N515 C514 1.375 . S
N516 C513 1.347 1_554 S
N516 C517 1.373 . S
C517 C514 1.350 1_554 S
C517 N516 1.373 . S
C517 H538 0.931 . S
H518 C513 0.931 . S
H519 C514 0.930 1_565 S
C520 O527 1.259 . S
C520 O528 1.258 . S
N521 Co512 2.057 . S
N521 C522 1.316 1_545 S
N521 C523 1.375 . S
C522 N521 1.316 1_565 S
C522 N524 1.347 . S
C522 H533 0.931 . S
C523 N521 1.375 . S
C523 C525 1.350 . S
C523 H532 0.930 . S
N524 C522 1.347 . S
N524 C525 1.373 1_565 S
C525 C523 1.350 . S
C525 N524 1.373 1_545 S
C525 H539 0.931 . S
C526 O529 1.256 . S
C526 O530 1.255 . S
O527 Co510 2.021 . S
O527 C520 1.259 . S
O528 Co512 2.117 . S
O528 C520 1.258 . S
O529 Co512 2.020 . S
O529 C526 1.256 . S
O530 Co510 2.062 . S
O530 C526 1.255 . S
O531 C511 1.259 . S
O531 Co512 2.021 1_565 S
H532 C523 0.930 . S
H533 C522 0.931 . S
O534 Co510 2.117 1_565 S
O534 C511 1.258 . S
O535 Co510 2.020 . S
O535 C537 1.256 . S
O536 Co512 2.062 1_565 S
O536 C537 1.255 1_565 S
C537 O535 1.256 . S
C537 O536 1.255 1_545 S
H538 C517 0.931 . S
H539 C525 0.931 . S
Co540 N545 2.057 . S
Co540 O557 2.021 . S
Co540 O560 2.062 . S
Co540 O564 2.117 . S
Co540 O565 2.020 . S
C541 O561 1.259 . S
C541 O564 1.258 . S
Co542 N551 2.057 . S
Co542 O558 2.117 . S
Co542 O559 2.020 . S
Co542 O561 2.021 . S
Co542 O566 2.062 . S
C543 N545 1.316 . S
C543 N546 1.347 . S
C543 H548 0.931 . S
C544 N545 1.375 . S
C544 C547 1.350 . S
C544 H549 0.930 . S
N545 Co540 2.057 . S
N545 C543 1.316 . S
N545 C544 1.375 . S
N546 C543 1.347 . S
N546 C547 1.373 . S
C547 C544 1.350 . S
C547 N546 1.373 . S
C547 H568 0.931 . S
H548 C543 0.931 . S
H549 C544 0.930 . S
C550 O557 1.259 . S
C550 O558 1.258 . S
N551 Co542 2.057 . S
N551 C552 1.316 . S
N551 C553 1.375 . S
C552 N551 1.316 . S
C552 N554 1.347 . S
C552 H563 0.931 . S
C553 N551 1.375 . S
C553 C555 1.350 . S
C553 H562 0.930 . S
N554 C552 1.347 . S
N554 C555 1.373 . S
C555 C553 1.350 . S
C555 N554 1.373 . S
C555 H569 0.931 . S
C556 O559 1.256 . S
C556 O560 1.255 . S
O557 Co540 2.021 . S
O557 C550 1.259 . S
O558 Co542 2.117 . S
O558 C550 1.258 . S
O559 Co542 2.020 . S
O559 C556 1.256 . S
O560 Co540 2.062 . S
O560 C556 1.255 . S
O561 C541 1.259 . S
O561 Co542 2.021 . S
H562 C553 0.930 . S
H563 C552 0.931 . S
O564 Co540 2.117 . S
O564 C541 1.258 . S
O565 Co540 2.020 . S
O565 C567 1.256 . S
O566 Co542 2.062 . S
O566 C567 1.255 . S
C567 O565 1.256 . S
C567 O566 1.255 . S
H568 C547 0.931 . S
H569 C555 0.931 . S
Co570 N575 2.057 . S
Co570 O587 2.021 1_455 S
Co570 O590 2.062 1_455 S
Co570 O594 2.117 . S
Co570 O595 2.020 . S
C571 O591 1.259 . S
C571 O594 1.258 . S
Co572 N581 2.057 . S
Co572 O588 2.117 . S
Co572 O589 2.020 . S
Co572 O591 2.021 1_655 S
Co572 O596 2.062 1_655 S
C573 N575 1.316 . S
C573 N576 1.347 . S
C573 H578 0.931 1_455 S
C574 N575 1.375 . S
C574 C577 1.350 . S
C574 H579 0.930 . S
N575 Co570 2.057 . S
N575 C573 1.316 . S
N575 C574 1.375 . S
N576 C573 1.347 . S
N576 C577 1.373 . S
C577 C574 1.350 . S
C577 N576 1.373 . S
C577 H598 0.931 . S
H578 C573 0.931 1_655 S
H579 C574 0.930 . S
C580 O587 1.259 . S
C580 O588 1.258 . S
N581 Co572 2.057 . S
N581 C582 1.316 . S
N581 C583 1.375 . S
C582 N581 1.316 . S
C582 N584 1.347 . S
C582 H593 0.931 1_655 S
C583 N581 1.375 . S
C583 C585 1.350 . S
C583 H592 0.930 . S
N584 C582 1.347 . S
N584 C585 1.373 . S
C585 C583 1.350 . S
C585 N584 1.373 . S
C585 H599 0.931 . S
C586 O589 1.256 . S
C586 O590 1.255 . S
O587 Co570 2.021 1_655 S
O587 C580 1.259 . S
O588 Co572 2.117 . S
O588 C580 1.258 . S
O589 Co572 2.020 . S
O589 C586 1.256 . S
O590 Co570 2.062 1_655 S
O590 C586 1.255 . S
O591 C571 1.259 . S
O591 Co572 2.021 1_455 S
H592 C583 0.930 . S
H593 C582 0.931 1_455 S
O594 Co570 2.117 . S
O594 C571 1.258 . S
O595 Co570 2.020 . S
O595 C597 1.256 . S
O596 Co572 2.062 1_455 S
O596 C597 1.255 . S
C597 O595 1.256 . S
C597 O596 1.255 . S
H598 C577 0.931 . S
H599 C585 0.931 . S
C600 C601 1.387 . S
C600 H604 0.950 . S
C600 C609 1.390 . S
C601 C600 1.387 . S
C601 C603 1.387 . S
H602 C609 0.950 . S
C603 C601 1.387 . S
C603 C605 1.390 . S
C603 H607 0.950 . S
H604 C600 0.950 . S
C605 C603 1.390 . S
C605 C606 1.387 . S
C605 H608 0.950 . S
C606 C605 1.387 . S
C606 C609 1.387 . S
H607 C603 0.950 . S
H608 C605 0.950 . S
C609 C600 1.390 . S
C609 H602 0.950 . S
C609 C606 1.387 . S
C610 C611 1.387 . S
C610 H614 0.950 . S
C610 C619 1.390 . S
C611 C610 1.387 . S
C611 C613 1.387 . S
H612 C619 0.950 . S
C613 C611 1.387 . S
C613 C615 1.390 . S
C613 H617 0.950 . S
H614 C610 0.950 . S
C615 C613 1.390 . S
C615 C616 1.387 . S
C615 H618 0.950 . S
C616 C615 1.387 . S
C616 C619 1.387 . S
H617 C613 0.950 . S
H618 C615 0.950 . S
C619 C610 1.390 . S
C619 H612 0.950 . S
C619 C616 1.387 . S
C620 C621 1.387 . S
C620 H624 0.950 . S
C620 C629 1.390 . S
C621 C620 1.387 . S
C621 C623 1.387 . S
H622 C629 0.950 . S
C623 C621 1.387 . S
C623 C625 1.390 . S
C623 H627 0.950 . S
H624 C620 0.950 . S
C625 C623 1.390 . S
C625 C626 1.387 . S
C625 H628 0.950 . S
C626 C625 1.387 . S
C626 C629 1.387 . S
H627 C623 0.950 . S
H628 C625 0.950 . S
C629 C620 1.390 . S
C629 H622 0.950 . S
C629 C626 1.387 . S
C630 C631 1.387 . S
C630 H634 0.950 . S
C630 C639 1.390 . S
C631 C630 1.387 . S
C631 C633 1.387 1_655 S
H632 C639 0.950 . S
C633 C631 1.387 1_455 S
C633 C635 1.390 . S
C633 H637 0.950 . S
H634 C630 0.950 . S
C635 C633 1.390 . S
C635 C636 1.387 1_455 S
C635 H638 0.950 . S
C636 C635 1.387 1_655 S
C636 C639 1.387 . S
H637 C633 0.950 . S
H638 C635 0.950 . S
C639 C630 1.390 . S
C639 H632 0.950 . S
C639 C636 1.387 . S
C640 C641 1.387 . S
C640 H644 0.950 . S
C640 C649 1.390 . S
C641 C640 1.387 . S
C641 C643 1.387 . S
H642 C649 0.950 . S
C643 C641 1.387 . S
C643 C645 1.390 1_565 S
C643 H647 0.950 . S
H644 C640 0.950 . S
C645 C643 1.390 1_545 S
C645 C646 1.387 1_545 S
C645 H648 0.950 . S
C646 C645 1.387 1_565 S
C646 C649 1.387 . S
H647 C643 0.950 . S
H648 C645 0.950 . S
C649 C640 1.390 . S
C649 H642 0.950 . S
C649 C646 1.387 . S
C650 C651 1.387 1_554 S
C650 H654 0.950 . S
C650 C659 1.390 1_554 S
C651 C650 1.387 1_556 S
C651 C653 1.387 . S
H652 C659 0.950 . S
C653 C651 1.387 . S
C653 C655 1.390 . S
C653 H657 0.950 . S
H654 C650 0.950 . S
C655 C653 1.390 . S
C655 C656 1.387 . S
C655 H658 0.950 . S
C656 C655 1.387 . S
C656 C659 1.387 . S
H657 C653 0.950 . S
H658 C655 0.950 . S
C659 C650 1.390 1_556 S
C659 H652 0.950 . S
C659 C656 1.387 . S
C660 C661 1.387 1_556 S
C660 H664 0.950 . S
C660 C669 1.390 . S
C661 C660 1.387 1_554 S
C661 C663 1.387 . S
H662 C669 0.950 . S
C663 C661 1.387 . S
C663 C665 1.390 1_554 S
C663 H667 0.950 . S
H664 C660 0.950 . S
C665 C663 1.390 1_556 S
C665 C666 1.387 . S
C665 H668 0.950 1_556 S
C666 C665 1.387 . S
C666 C669 1.387 . S
H667 C663 0.950 . S
H668 C665 0.950 1_554 S
C669 C660 1.390 . S
C669 H662 0.950 . S
C669 C666 1.387 . S
C670 C671 1.387 . S
C670 H674 0.950 . S
C670 C679 1.390 1_554 S
C671 C670 1.387 . S
C671 C673 1.387 1_454 S
H672 C679 0.950 . S
C673 C671 1.387 1_656 S
C673 C675 1.390 . S
C673 H677 0.950 . S
H674 C670 0.950 . S
C675 C673 1.390 . S
C675 C676 1.387 1_655 S
C675 H678 0.950 . S
C676 C675 1.387 1_455 S
C676 C679 1.387 . S
H677 C673 0.950 . S
H678 C675 0.950 . S
C679 C670 1.390 1_556 S
C679 H672 0.950 . S
C679 C676 1.387 . S
C680 C681 1.387 . S
C680 H684 0.950 . S
C680 C689 1.390 1_455 S
C681 C680 1.387 . S
C681 C683 1.387 1_455 S
H682 C689 0.950 . S
C683 C681 1.387 1_655 S
C683 C685 1.390 . S
C683 H687 0.950 . S
H684 C680 0.950 . S
C685 C683 1.390 . S
C685 C686 1.387 . S
C685 H688 0.950 . S
C686 C685 1.387 . S
C686 C689 1.387 . S
H687 C683 0.950 . S
H688 C685 0.950 . S
C689 C680 1.390 1_655 S
C689 H682 0.950 . S
C689 C686 1.387 . S
C690 C691 1.387 . S
C690 H694 0.950 . S
C690 C699 1.390 . S
C691 C690 1.387 . S
C691 C693 1.387 . S
H692 C699 0.950 . S
C693 C691 1.387 . S
C693 C695 1.390 . S
C693 H697 0.950 . S
H694 C690 0.950 . S
C695 C693 1.390 . S
C695 C696 1.387 . S
C695 H698 0.950 . S
C696 C695 1.387 . S
C696 C699 1.387 . S
H697 C693 0.950 . S
H698 C695 0.950 . S
C699 C690 1.390 . S
C699 H692 0.950 . S
C699 C696 1.387 . S
C700 C701 1.387 . S
C700 H704 0.950 . S
C700 C709 1.390 . S
C701 C700 1.387 . S
C701 C703 1.387 . S
H702 C709 0.950 . S
C703 C701 1.387 . S
C703 C705 1.390 . S
C703 H707 0.950 . S
H704 C700 0.950 . S
C705 C703 1.390 . S
C705 C706 1.387 . S
C705 H708 0.950 . S
C706 C705 1.387 . S
C706 C709 1.387 . S
H707 C703 0.950 . S
H708 C705 0.950 . S
C709 C700 1.390 . S
C709 H702 0.950 . S
C709 C706 1.387 . S
C710 C711 1.387 . S
C710 H714 0.950 . S
C710 C719 1.390 . S
C711 C710 1.387 . S
C711 C713 1.387 . S
H712 C719 0.950 . S
C713 C711 1.387 . S
C713 C715 1.390 . S
C713 H717 0.950 . S
H714 C710 0.950 . S
C715 C713 1.390 . S
C715 C716 1.387 . S
C715 H718 0.950 . S
C716 C715 1.387 . S
C716 C719 1.387 . S
H717 C713 0.950 . S
H718 C715 0.950 . S
C719 C710 1.390 . S
C719 H712 0.950 . S
C719 C716 1.387 . S
C720 C721 1.387 . S
C720 H724 0.950 . S
C720 C729 1.390 1_655 S
C721 C720 1.387 . S
C721 C723 1.387 1_655 S
H722 C729 0.952 . S
C723 C721 1.387 1_455 S
C723 C725 1.390 . S
C723 H727 0.950 . S
H724 C720 0.950 . S
C725 C723 1.390 . S
C725 C726 1.387 . S
C725 H728 0.950 . S
C726 C725 1.387 . S
C726 C729 1.387 . S
H727 C723 0.950 . S
H728 C725 0.950 . S
C729 C720 1.390 1_455 S
C729 H722 0.952 . S
C729 C726 1.387 . S
C730 C731 1.387 . S
C730 H734 0.950 . S
C730 C739 1.390 . S
C731 C730 1.387 . S
C731 C733 1.387 . S
H732 C739 0.950 1_545 S
C733 C731 1.387 . S
C733 C735 1.390 . S
C733 H737 0.950 . S
H734 C730 0.950 . S
C735 C733 1.390 . S
C735 C736 1.387 . S
C735 H738 0.950 . S
C736 C735 1.387 . S
C736 C739 1.387 . S
H737 C733 0.950 . S
H738 C735 0.950 . S
C739 C730 1.390 . S
C739 H732 0.950 1_565 S
C739 C736 1.387 . S
C740 C741 1.387 . S
C740 H744 0.950 . S
C740 C749 1.390 . S
C741 C740 1.387 . S
C741 C743 1.387 . S
H742 C749 0.950 . S
C743 C741 1.387 . S
C743 C745 1.390 . S
C743 H747 0.950 . S
H744 C740 0.950 . S
C745 C743 1.390 . S
C745 C746 1.387 . S
C745 H748 0.950 . S
C746 C745 1.387 . S
C746 C749 1.387 . S
H747 C743 0.950 . S
H748 C745 0.950 . S
C749 C740 1.390 . S
C749 H742 0.950 . S
C749 C746 1.387 . S
C750 C751 1.387 . S
C750 H754 0.950 . S
C750 C759 1.390 . S
C751 C750 1.387 . S
C751 C753 1.387 . S
H752 C759 0.950 . S
C753 C751 1.387 . S
C753 C755 1.390 . S
C753 H757 0.950 1_556 S
H754 C750 0.950 . S
C755 C753 1.390 . S
C755 C756 1.387 . S
C755 H758 0.950 1_556 S
C756 C755 1.387 . S
C756 C759 1.387 . S
H757 C753 0.950 1_554 S
H758 C755 0.950 1_554 S
C759 C750 1.390 . S
C759 H752 0.950 . S
C759 C756 1.387 . S
C760 C761 1.387 . S
C760 H764 0.950 . S
C760 C769 1.390 . S
C761 C760 1.387 . S
C761 C763 1.387 1_455 S
H762 C769 0.950 . S
C763 C761 1.387 1_655 S
C763 C765 1.390 . S
C763 H767 0.948 1_554 S
H764 C760 0.950 . S
C765 C763 1.390 . S
C765 C766 1.387 1_655 S
C765 H768 0.950 1_554 S
C766 C765 1.387 1_455 S
C766 C769 1.387 . S
H767 C763 0.948 1_556 S
H768 C765 0.950 1_556 S
C769 C760 1.390 . S
C769 H762 0.950 . S
C769 C766 1.387 . S
C770 C771 1.387 . S
C770 H774 0.950 . S
C770 C779 1.390 . S
C771 C770 1.387 . S
C771 C773 1.387 . S
H772 C779 0.950 . S
C773 C771 1.387 . S
C773 C775 1.390 . S
C773 H777 0.950 . S
H774 C770 0.950 . S
C775 C773 1.390 . S
C775 C776 1.387 . S
C775 H778 0.950 1_554 S
C776 C775 1.387 . S
C776 C779 1.387 . S
H777 C773 0.950 . S
H778 C775 0.950 1_556 S
C779 C770 1.390 . S
C779 H772 0.950 . S
C779 C776 1.387 . S
C780 C781 1.387 1_556 S
C780 H784 0.950 . S
C780 C789 1.390 . S
C781 C780 1.387 1_554 S
C781 C783 1.387 . S
H782 C789 0.950 . S
C783 C781 1.387 . S
C783 C785 1.390 . S
C783 H787 0.950 . S
H784 C780 0.950 . S
C785 C783 1.390 . S
C785 C786 1.387 1_554 S
C785 H788 0.950 . S
C786 C785 1.387 1_556 S
C786 C789 1.387 . S
H787 C783 0.950 . S
H788 C785 0.950 . S
C789 C780 1.390 . S
C789 H782 0.950 . S
C789 C786 1.387 . S
C790 C791 1.387 . S
C790 H794 0.950 . S
C790 C799 1.390 . S
C791 C790 1.387 . S
C791 C793 1.387 1_554 S
H792 C799 0.950 . S
C793 C791 1.387 1_556 S
C793 C795 1.390 . S
C793 H797 0.950 . S
H794 C790 0.950 . S
C795 C793 1.390 . S
C795 C796 1.387 . S
C795 H798 0.950 . S
C796 C795 1.387 . S
C796 C799 1.387 1_556 S
H797 C793 0.950 . S
H798 C795 0.950 . S
C799 C790 1.390 . S
C799 H792 0.950 . S
C799 C796 1.387 1_554 S
C800 C801 1.387 . S
C800 H804 0.950 . S
C800 C809 1.390 . S
C801 C800 1.387 . S
C801 C803 1.387 1_655 S
H802 C809 0.950 . S
C803 C801 1.387 1_455 S
C803 C805 1.390 . S
C803 H807 0.950 . S
H804 C800 0.950 . S
C805 C803 1.390 . S
C805 C806 1.387 1_455 S
C805 H808 0.950 . S
C806 C805 1.387 1_655 S
C806 C809 1.387 . S
H807 C803 0.950 . S
H808 C805 0.950 . S
C809 C800 1.390 . S
C809 H802 0.950 . S
C809 C806 1.387 . S
C810 C811 1.387 . S
C810 H814 0.950 . S
C810 C819 1.390 . S
C811 C810 1.387 . S
C811 C813 1.387 . S
H812 C819 0.950 . S
C813 C811 1.387 . S
C813 C815 1.390 . S
C813 H817 0.950 . S
H814 C810 0.950 . S
C815 C813 1.390 . S
C815 C816 1.387 . S
C815 H818 0.950 . S
C816 C815 1.387 . S
C816 C819 1.387 . S
H817 C813 0.950 . S
H818 C815 0.950 . S
C819 C810 1.390 . S
C819 H812 0.950 . S
C819 C816 1.387 . S
C820 C821 1.387 . S
C820 H824 0.950 . S
C820 C829 1.390 . S
C821 C820 1.387 . S
C821 C823 1.387 . S
H822 C829 0.950 . S
C823 C821 1.387 . S
C823 C825 1.390 . S
C823 H827 0.950 . S
H824 C820 0.950 . S
C825 C823 1.390 . S
C825 C826 1.387 . S
C825 H828 0.950 . S
C826 C825 1.387 . S
C826 C829 1.387 . S
H827 C823 0.950 . S
H828 C825 0.950 . S
C829 C820 1.390 . S
C829 H822 0.950 . S
C829 C826 1.387 . S
C830 C831 1.387 . S
C830 H834 0.950 . S
C830 C839 1.390 . S
C831 C830 1.387 . S
C831 C833 1.387 . S
H832 C839 0.950 . S
C833 C831 1.387 . S
C833 C835 1.390 . S
C833 H837 0.950 . S
H834 C830 0.950 . S
C835 C833 1.390 . S
C835 C836 1.387 . S
C835 H838 0.950 . S
C836 C835 1.387 . S
C836 C839 1.387 . S
H837 C833 0.950 . S
H838 C835 0.950 . S
C839 C830 1.390 . S
C839 H832 0.950 . S
C839 C836 1.387 . S
C601 C391 2.016 . S
C606 C490 1.973 . S
C616 C520 1.818 . S
C611 C451 1.807 . S
C626 N554 1.890 . S
C621 C241 1.654 . S
C636 N584 1.498 . S
C631 C331 1.420 . S
C646 C481 1.976 1_565 S
C641 C121 1.900 1_556 S
C651 C211 1.830 1_556 S
C656 C511 1.818 . S
C661 C31 1.857 . S
C666 N546 1.892 . S
C671 C91 1.447 1_455 S
C676 N576 1.496 . S
C686 C496 0.661 . S
C681 C301 0.831 1_455 S
C696 C526 1.220 . S
C691 C380 1.224 . S
C706 C567 0.963 . S
C701 C440 0.965 . S
C711 C260 0.959 . S
C716 C597 1.101 . S
C721 C61 0.795 . S
C726 C507 0.666 . S
C736 C537 1.215 1_565 S
C731 C140 1.065 . S
C746 C556 0.962 . S
C741 C200 0.973 . S
C751 C20 0.979 . S
C756 C586 1.102 . S
C761 C320 1.802 1_455 S
C766 N486 1.818 . S
C771 C361 1.709 . S
C776 N516 1.973 . S
C786 C541 2.016 . S
C781 C421 1.735 . S
C796 C571 2.225 . S
C791 C271 2.096 . S
C801 C80 1.778 . S
C806 N494 1.821 . S
C816 N524 1.973 . S
C811 C151 1.948 . S
C826 C550 2.015 . S
C821 C181 1.782 . S
C831 C1 1.883 . S
C836 C580 2.228 . S
