# Generated by pormake.
# Topology anh, (6,3)-cn, num edge types: 1
# Building blocks:
#     Node 0, Type 0, BuildingBlock: BETFEN_clean_sbu_0, # of connection points: 6
#     Node 1, Type 0, BuildingBlock: BETFEN_clean_sbu_0, # of connection points: 6
#     Node 2, Type 0, BuildingBlock: BETFEN_clean_sbu_0, # of connection points: 6
#     Node 3, Type 1, BuildingBlock: BETDAH_clean_linker_0, # of connection points: 3
#     Node 4, Type 1, BuildingBlock: BETDAH_clean_linker_0, # of connection points: 3
#     Node 5, Type 1, BuildingBlock: BETDAH_clean_linker_0, # of connection points: 3
#     Node 6, Type 1, BuildingBlock: BETDAH_clean_linker_0, # of connection points: 3
#     Node 7, Type 1, BuildingBlock: BETDAH_clean_linker_0, # of connection points: 3
#     Node 8, Type 1, BuildingBlock: BETDAH_clean_linker_0, # of connection points: 3
#     Edge 9, Type (0, 1), BuildingBlock: ZUJKAS_clean_linker_0, # of connection points: 2
#     Edge 10, Type (0, 1), BuildingBlock: ZUJKAS_clean_linker_0, # of connection points: 2
#     Edge 11, Type (0, 1), BuildingBlock: ZUJKAS_clean_linker_0, # of connection points: 2
#     Edge 12, Type (0, 1), BuildingBlock: ZUJKAS_clean_linker_0, # of connection points: 2
#     Edge 13, Type (0, 1), BuildingBlock: ZUJKAS_clean_linker_0, # of connection points: 2
#     Edge 14, Type (0, 1), BuildingBlock: ZUJKAS_clean_linker_0, # of connection points: 2
#     Edge 15, Type (0, 1), BuildingBlock: ZUJKAS_clean_linker_0, # of connection points: 2
#     Edge 16, Type (0, 1), BuildingBlock: ZUJKAS_clean_linker_0, # of connection points: 2
#     Edge 17, Type (0, 1), BuildingBlock: ZUJKAS_clean_linker_0, # of connection points: 2
#     Edge 18, Type (0, 1), BuildingBlock: ZUJKAS_clean_linker_0, # of connection points: 2
#     Edge 19, Type (0, 1), BuildingBlock: ZUJKAS_clean_linker_0, # of connection points: 2
#     Edge 20, Type (0, 1), BuildingBlock: ZUJKAS_clean_linker_0, # of connection points: 2
#     Edge 21, Type (0, 1), BuildingBlock: ZUJKAS_clean_linker_0, # of connection points: 2
#     Edge 22, Type (0, 1), BuildingBlock: ZUJKAS_clean_linker_0, # of connection points: 2
#     Edge 23, Type (0, 1), BuildingBlock: ZUJKAS_clean_linker_0, # of connection points: 2
#     Edge 24, Type (0, 1), BuildingBlock: ZUJKAS_clean_linker_0, # of connection points: 2
#     Edge 25, Type (0, 1), BuildingBlock: ZUJKAS_clean_linker_0, # of connection points: 2
#     Edge 26, Type (0, 1), BuildingBlock: ZUJKAS_clean_linker_0, # of connection points: 2
# Relax obj value: 0.121
# Max RMSD: 0.168
# Mean RMSD: 0.107
data_MOF--net-anh--node1-BETFEN_clean_sbu_0--node2-BETDAH_clean_linker_0--edge1-ZUJKAS_clean_linker_0
_symmetry_space_group_name_H-M    P1
_symmetry_Int_Tables_number       1
_symmetry_cell_setting            triclinic
loop_
_symmetry_equiv_pos_as_xyz
'x, y, z'
_cell_length_a     39.39853
_cell_length_b     41.843749
_cell_length_c     64.065069
_cell_angle_alpha  92.718098
_cell_angle_beta   94.999533
_cell_angle_gamma 108.04655
loop_
_atom_site_label
_atom_site_type_symbol
_atom_site_fract_x
_atom_site_fract_y
_atom_site_fract_z
_atom_type_partial_charge
Pr0 Pr 0.02738 0.56334 0.16028 0.0
Pr1 Pr 0.05003 0.63665 0.15806 0.0
C2 C 0.99389 0.49922 0.16797 0.0
C3 C 0.95627 0.47757 0.16784 0.0
C4 C 0.94265 0.44929 0.15332 0.0
C5 C 0.90748 0.42794 0.15328 0.0
C6 C 0.8853 0.43433 0.16789 0.0
C7 C 0.89861 0.46316 0.18206 0.0
C8 C 0.93373 0.48464 0.18201 0.0
C9 C 0.04088 0.58233 0.12012 0.0
C10 C 0.96458 0.6024 0.15441 0.0
C11 C 0.08342 0.70121 0.1511 0.0
C12 C 0.12024 0.72497 0.15511 0.0
C13 C 0.1371 0.73478 0.1757 0.0
C14 C 0.17162 0.7579 0.17921 0.0
C15 C 0.19 0.77158 0.16224 0.0
C16 C 0.17351 0.76108 0.14165 0.0
C17 C 0.13887 0.73807 0.13813 0.0
C18 C 0.03978 0.61669 0.19871 0.0
C19 C 0.11303 0.59771 0.16181 0.0
O20 O 1.00631 0.52375 0.18283 0.0
O21 O 1.00458 0.50777 0.14971 0.0
O22 O 0.02303 0.5948 0.13178 0.0
O23 O 0.05176 0.55948 0.12898 0.0
O24 O 0.98948 0.62916 0.14942 0.0
O25 O 0.97274 0.57584 0.16074 0.0
O26 O 0.07831 0.67616 0.13696 0.0
O27 O 0.06589 0.69244 0.1674 0.0
O28 O 0.05641 0.60495 0.18596 0.0
O29 O 0.02811 0.63969 0.19073 0.0
O30 O 0.08874 0.57127 0.16785 0.0
O31 O 0.10402 0.62394 0.15565 0.0
H32 H 0.95943 0.44339 0.14218 0.0
H33 H 0.89813 0.40574 0.14231 0.0
H34 H 0.88197 0.4689 0.19335 0.0
H35 H 0.94325 0.50651 0.19324 0.0
H36 H 0.12363 0.72482 0.18914 0.0
H37 H 0.1839 0.76518 0.19524 0.0
H38 H 0.18693 0.77139 0.12827 0.0
H39 H 0.12647 0.73077 0.12213 0.0
Pr40 Pr 0.55907 0.08088 0.50419 0.0
Pr41 Pr 0.48166 0.05874 0.50567 0.0
C42 C 0.62537 0.11173 0.49392 0.0
C43 C 0.64824 0.1471 0.49355 0.0
C44 C 0.67747 0.16098 0.50899 0.0
C45 C 0.69942 0.1943 0.50866 0.0
C46 C 0.69275 0.21425 0.49276 0.0
C47 C 0.66319 0.20056 0.47753 0.0
C48 C 0.64114 0.16735 0.47792 0.0
C49 C 0.54093 0.07461 0.54467 0.0
C50 C 0.51803 0.14334 0.50846 0.0
C51 C 0.41344 0.02845 0.51314 0.0
C52 C 0.38843 0.99371 0.51041 0.0
C53 C 0.35718 0.98634 0.49635 0.0
C54 C 0.33391 0.95339 0.49274 0.0
C55 C 0.34131 0.92719 0.50325 0.0
C56 C 0.37244 0.93458 0.51747 0.0
C57 C 0.39589 0.96754 0.52097 0.0
C58 C 0.50065 0.06611 0.46488 0.0
C59 C 0.52376 0.99677 0.50678 0.0
O60 O 0.59704 0.10114 0.48007 0.0
O61 O 0.61935 0.10064 0.51243 0.0
O62 O 0.52613 0.08805 0.53091 0.0
O63 O 0.56655 0.0648 0.53795 0.0
O64 O 0.48828 0.1182 0.51055 0.0
O65 O 0.54766 0.13544 0.50517 0.0
O66 O 0.4407 0.03495 0.52765 0.0
O67 O 0.42192 0.0429 0.49586 0.0
O68 O 0.51467 0.05189 0.47859 0.0
O69 O 0.47562 0.0763 0.47194 0.0
O70 O 0.55285 1.02121 0.50264 0.0
O71 O 0.49427 1.00522 0.50956 0.0
H72 H 0.68356 0.14595 0.52121 0.0
H73 H 0.72226 0.20413 0.52047 0.0
H74 H 0.65722 0.21552 0.46523 0.0
H75 H 0.61871 0.15757 0.46585 0.0
H76 H 0.35089 1.00608 0.48801 0.0
H77 H 0.30988 0.94847 0.48188 0.0
H78 H 0.37894 0.91479 0.52562 0.0
H79 H 0.41997 0.97237 0.53177 0.0
Pr80 Pr 0.54299 0.51018 0.83112 0.0
Pr81 Pr 0.57365 0.58483 0.84021 0.0
C82 C 0.52863 0.4456 0.81816 0.0
C83 C 0.55214 0.42487 0.82129 0.0
C84 C 0.54147 0.39718 0.83332 0.0
C85 C 0.56558 0.38045 0.83957 0.0
C86 C 0.60067 0.39093 0.83367 0.0
C87 C 0.61129 0.41833 0.82136 0.0
C88 C 0.58727 0.43546 0.81537 0.0
C89 C 0.54677 0.53159 0.87328 0.0
C90 C 0.63299 0.54496 0.83763 0.0
C91 C 0.59229 0.64425 0.8623 0.0
C92 C 0.5746 0.67017 0.86169 0.0
C93 C 0.56873 0.684 0.84274 0.0
C94 C 0.54563 0.70315 0.8411 0.0
C95 C 0.52759 0.70848 0.85829 0.0
C96 C 0.53408 0.6952 0.87739 0.0
C97 C 0.55762 0.67636 0.87911 0.0
C98 C 0.55863 0.57468 0.79615 0.0
C99 C 0.48457 0.54999 0.83307 0.0
O100 O 0.53832 0.46967 0.80548 0.0
O101 O 0.51797 0.4551 0.83547 0.0
O102 O 0.57161 0.54197 0.86156 0.0
O103 O 0.51887 0.50927 0.86318 0.0
O104 O 0.62825 0.57454 0.84048 0.0
O105 O 0.60536 0.51695 0.83411 0.0
O106 O 0.57305 0.6163 0.86939 0.0
O107 O 0.60809 0.63941 0.84576 0.0
O108 O 0.55302 0.55158 0.80864 0.0
O109 O 0.5711 0.60418 0.80635 0.0
O110 O 0.4897 0.5229 0.82439 0.0
O111 O 0.51186 0.5756 0.84182 0.0
H112 H 0.51471 0.38895 0.83829 0.0
H113 H 0.55637 0.3586 0.84849 0.0
H114 H 0.63798 0.42624 0.8163 0.0
H115 H 0.59644 0.45724 0.8064 0.0
H116 H 0.58113 0.67934 0.82896 0.0
H117 H 0.54232 0.71414 0.82639 0.0
H118 H 0.52079 0.69918 0.89092 0.0
H119 H 0.56143 0.6654 0.89378 0.0
H120 H 0.49215 0.04663 0.24619 0.0
H121 H 0.59606 0.1182 0.24128 0.0
H122 H 0.53643 0.05526 0.18694 0.0
C123 C 0.51309 0.05915 0.23669 0.0
C124 C 0.51 0.0485 0.21531 0.0
C125 C 0.544 0.08412 0.2463 0.0
C126 C 0.57184 0.09921 0.23406 0.0
C127 C 0.56879 0.08868 0.21259 0.0
C128 C 0.53822 0.06325 0.20346 0.0
N129 N 0.59701 0.10144 0.20003 0.0
C130 C 0.61526 0.13549 0.19967 0.0
H131 H 0.52719 0.49718 0.56833 0.0
H132 H 0.52973 0.59989 0.56234 0.0
H133 H 0.52014 0.53317 0.50669 0.0
C134 C 0.52746 0.51725 0.5582 0.0
C135 C 0.52479 0.50996 0.53633 0.0
C136 C 0.52988 0.54915 0.56771 0.0
C137 C 0.52783 0.57547 0.55498 0.0
C138 C 0.52401 0.57074 0.53285 0.0
C139 C 0.52248 0.5374 0.52362 0.0
N140 N 0.52215 0.59839 0.5197 0.0
C141 C 0.52338 0.63315 0.52441 0.0
H142 H 0.99032 0.56146 0.89788 0.0
H143 H 0.09803 0.56013 0.89194 0.0
H144 H 0.02251 0.54771 0.83679 0.0
C145 C 1.01082 0.55918 0.88818 0.0
C146 C 1.00251 0.55439 0.8664 0.0
C147 C 0.04495 0.56093 0.89761 0.0
C148 C 0.07165 0.55883 0.88478 0.0
C149 C 0.06362 0.55399 0.8627 0.0
C150 C 0.02889 0.55162 0.8537 0.0
N151 N 0.08915 0.55082 0.84895 0.0
C152 C 0.12509 0.55369 0.85457 0.0
H153 H 0.07602 0.61928 0.41474 0.0
H154 H 0.99183 0.52984 0.42627 0.0
H155 H 0.05715 0.59596 0.47811 0.0
C156 C 0.06084 0.60305 0.42568 0.0
C157 C 0.06961 0.61136 0.44732 0.0
C158 C 0.03304 0.5737 0.41796 0.0
C159 C 1.01324 0.5526 0.43215 0.0
C160 C 0.02248 0.56073 0.45399 0.0
C161 C 0.05058 0.58983 0.4613 0.0
N162 N 1.00531 0.54026 0.4694 0.0
C163 C 0.97304 0.51429 0.46616 0.0
H164 H 0.51128 0.06421 0.76172 0.0
H165 H 0.59637 1.02058 0.75653 0.0
H166 H 0.59747 0.0833 0.81134 0.0
C167 C 0.53522 0.05929 0.76843 0.0
C168 C 0.55154 0.07501 0.78813 0.0
C169 C 0.55156 0.04026 0.75656 0.0
C170 C 0.58372 0.03584 0.76516 0.0
C171 C 0.60007 0.05153 0.78485 0.0
C172 C 0.58397 0.07083 0.79629 0.0
N173 N 0.63024 0.04446 0.79438 0.0
C174 C 0.62273 1.01482 0.80413 0.0
H175 H 0.60903 0.59309 0.09503 0.0
H176 H 0.50376 0.59958 0.10284 0.0
H177 H 0.57595 0.59663 0.15686 0.0
C178 C 0.58884 0.59465 0.10515 0.0
C179 C 0.59643 0.59439 0.12688 0.0
C180 C 0.55594 0.59709 0.09623 0.0
C181 C 0.52936 0.598 0.10951 0.0
C182 C 0.5366 0.5979 0.13152 0.0
C183 C 0.57035 0.59661 0.13999 0.0
N184 N 0.51137 0.5996 0.14587 0.0
C185 C 0.47537 0.59736 0.14112 0.0
H186 H 0.14875 0.55867 0.1818 0.0
H187 H 0.21053 0.55888 0.17877 0.0
H188 H 0.2227 0.63488 0.13432 0.0
H189 H 0.16203 0.6359 0.13805 0.0
H190 H 0.24207 0.54324 0.1475 0.0
H191 H 0.31228 0.67785 0.17156 0.0
H192 H 0.2654 0.65837 0.17442 0.0
H193 H 0.27934 0.67294 0.14953 0.0
C194 C 0.1648 0.57569 0.17158 0.0
C195 C 0.15056 0.59762 0.16043 0.0
C196 C 0.20015 0.57577 0.16981 0.0
C197 C 0.22194 0.59752 0.15669 0.0
C198 C 0.20728 0.61878 0.14518 0.0
H199 H 0.43597 0.62719 0.11634 0.0
H200 H 0.37367 0.626 0.11958 0.0
C201 C 0.1723 0.61916 0.14723 0.0
C202 C 0.25936 0.59709 0.15437 0.0
H203 H 0.34647 0.64779 0.15486 0.0
C204 C 0.26488 0.56612 0.1493 0.0
C205 C 0.28945 0.62687 0.15669 0.0
C206 C 0.2864 0.66079 0.16357 0.0
C207 C 0.29914 0.56419 0.14603 0.0
C208 C 0.32901 0.59401 0.14797 0.0
C209 C 0.3236 0.62495 0.15312 0.0
C210 C 0.36623 0.59359 0.1453 0.0
C211 C 0.30288 0.5302 0.14014 0.0
C212 C 0.38294 0.57593 0.15867 0.0
C213 C 0.41829 0.5765 0.15673 0.0
C214 C 0.43776 0.59482 0.14146 0.0
C215 C 0.42128 0.61251 0.12805 0.0
C216 C 0.3858 0.61195 0.12998 0.0
H217 H 0.27673 0.51162 0.13371 0.0
H218 H 0.32231 0.53211 0.12834 0.0
H219 H 0.31293 0.52036 0.15438 0.0
H220 H 0.36891 0.56228 0.17094 0.0
H221 H 0.4307 0.56316 0.16751 0.0
H222 H 0.72027 0.24114 0.45775 0.0
H223 H 0.76439 0.29614 0.45524 0.0
H224 H 0.76589 0.3199 0.52167 0.0
H225 H 0.72194 0.26439 0.52434 0.0
H226 H 0.76295 0.35993 0.46377 0.0
H227 H 0.8711 0.33533 0.51596 0.0
H228 H 0.83003 0.30252 0.50635 0.0
H229 H 0.83062 0.3321 0.52777 0.0
C230 C 0.72971 0.2582 0.47179 0.0
C231 C 0.71783 0.24847 0.49126 0.0
C232 C 0.75498 0.28957 0.47035 0.0
C233 C 0.76882 0.31185 0.48832 0.0
C234 C 0.75617 0.30272 0.5077 0.0
H235 H 0.93992 0.50422 0.50081 0.0
H236 H 0.88752 0.45672 0.50657 0.0
C237 C 0.73105 0.27112 0.5092 0.0
C238 C 0.79695 0.34427 0.48652 0.0
H239 H 0.88479 0.38843 0.50205 0.0
C240 C 0.78957 0.36625 0.47219 0.0
C241 C 0.83161 0.35241 0.49758 0.0
C242 C 0.84154 0.32927 0.51265 0.0
C243 C 0.81608 0.39597 0.4684 0.0
C244 C 0.85087 0.40365 0.47907 0.0
C245 C 0.85802 0.38225 0.49384 0.0
C246 C 0.88058 0.43349 0.47493 0.0
C247 C 0.8067 0.41895 0.45304 0.0
C248 C 0.89385 0.43607 0.45519 0.0
C249 C 0.92379 0.46318 0.4519 0.0
C250 C 0.94052 0.48776 0.46835 0.0
C251 C 0.92698 0.48548 0.48792 0.0
C252 C 0.89724 0.45845 0.49122 0.0
H253 H 0.77722 0.41382 0.45011 0.0
H254 H 0.81948 0.44581 0.45887 0.0
H255 H 0.81684 0.4149 0.43783 0.0
H256 H 0.88169 0.41667 0.44255 0.0
H257 H 0.9343 0.46452 0.43678 0.0
H258 H 0.52697 0.75737 0.88765 0.0
H259 H 0.51431 0.8087 0.87945 0.0
H260 H 0.4696 0.765 0.81694 0.0
H261 H 0.48039 0.71251 0.82534 0.0
H262 H 0.55162 0.81152 0.83027 0.0
H263 H 0.44233 0.86289 0.84941 0.0
H264 H 0.45575 0.83539 0.86697 0.0
H265 H 0.43377 0.81881 0.84131 0.0
C266 C 0.51207 0.75763 0.87266 0.0
C267 C 0.50604 0.7316 0.85678 0.0
C268 C 0.5046 0.78704 0.86805 0.0
C269 C 0.49171 0.7906 0.84752 0.0
C270 C 0.47955 0.7625 0.83289 0.0
H271 H 0.56992 0.96804 0.78118 0.0
H272 H 0.53244 0.91467 0.79253 0.0
C273 C 0.48637 0.7328 0.8376 0.0
C274 C 0.50563 0.82387 0.83965 0.0
H275 H 0.49509 0.9015 0.83849 0.0
C276 C 0.53907 0.83113 0.83177 0.0
C277 C 0.48918 0.84903 0.84202 0.0
C278 C 0.45317 0.84139 0.85033 0.0
C279 C 0.55714 0.8635 0.82664 0.0
C280 C 0.54116 0.88898 0.82943 0.0
C281 C 0.5072 0.88166 0.83672 0.0
C282 C 0.55966 0.92305 0.82406 0.0
C283 C 0.5935 0.87056 0.81862 0.0
C284 C 0.58719 0.94492 0.83819 0.0
C285 C 0.60883 0.97519 0.83168 0.0
C286 C 0.60307 0.98316 0.811 0.0
C287 C 0.57504 0.96167 0.7971 0.0
C288 C 0.55334 0.93167 0.80361 0.0
H289 H 0.60119 0.84735 0.81625 0.0
H290 H 0.59357 0.88242 0.80347 0.0
H291 H 0.61421 0.88861 0.83003 0.0
H292 H 0.59245 0.93812 0.85397 0.0
H293 H 0.62994 0.99213 0.84265 0.0
H294 H 0.90411 0.55219 0.13823 0.0
H295 H 0.84177 0.55228 0.13694 0.0
H296 H 0.87786 0.65122 0.16999 0.0
H297 H 0.94025 0.65217 0.1696 0.0
H298 H 0.7996 0.55256 0.16445 0.0
H299 H 0.81484 0.67111 0.12572 0.0
H300 H 0.85046 0.6526 0.12833 0.0
H301 H 0.84309 0.67791 0.15001 0.0
C302 C 0.89862 0.57412 0.14491 0.0
C303 C 0.92692 0.60241 0.15366 0.0
C304 C 0.86297 0.57415 0.14428 0.0
C305 C 0.85474 0.60212 0.1529 0.0
C306 C 0.88318 0.62991 0.16237 0.0
H307 H 0.6446 0.63485 0.1584 0.0
H308 H 0.70694 0.63618 0.16797 0.0
C309 C 0.91891 0.63035 0.16232 0.0
C310 C 0.81643 0.60161 0.15234 0.0
H311 H 0.75897 0.64584 0.13852 0.0
C312 C 0.79088 0.57302 0.15871 0.0
C313 C 0.80461 0.6283 0.145 0.0
C314 C 0.82963 0.65902 0.13669 0.0
C315 C 0.75422 0.57016 0.15769 0.0
C316 C 0.74252 0.59665 0.1502 0.0
C317 C 0.76801 0.62565 0.14443 0.0
C318 C 0.70375 0.59365 0.14643 0.0
C319 C 0.72824 0.53868 0.16456 0.0
C320 C 0.6811 0.56909 0.1314 0.0
C321 C 0.64571 0.56834 0.12594 0.0
C322 C 0.63207 0.59221 0.13532 0.0
C323 C 0.65425 0.61597 0.15103 0.0
C324 C 0.6899 0.61687 0.15641 0.0
H325 H 0.74203 0.52555 0.1754 0.0
H326 H 0.70666 0.54456 0.17248 0.0
H327 H 0.71555 0.52106 0.15053 0.0
H328 H 0.69122 0.55125 0.12323 0.0
H329 H 0.62925 0.54965 0.11383 0.0
H330 H 0.30979 0.89354 0.46553 0.0
H331 H 0.26545 0.83735 0.45936 0.0
H332 H 0.27277 0.82568 0.52597 0.0
H333 H 0.31662 0.88227 0.53234 0.0
H334 H 0.27099 0.77386 0.47069 0.0
H335 H 0.16456 0.80961 0.50858 0.0
H336 H 0.204 0.84056 0.50114 0.0
H337 H 0.20706 0.81847 0.52421 0.0
C338 C 0.30184 0.87905 0.47887 0.0
C339 C 0.31633 0.89236 0.49943 0.0
C340 C 0.27674 0.84695 0.47531 0.0
C341 C 0.26561 0.82771 0.49224 0.0
C342 C 0.28075 0.84044 0.51275 0.0
H343 H 0.12362 0.6187 0.47874 0.0
H344 H 0.17202 0.67058 0.49163 0.0
C345 C 0.30596 0.87257 0.51633 0.0
C346 C 0.23754 0.79462 0.48829 0.0
H347 H 0.15007 0.75329 0.4946 0.0
C348 C 0.24466 0.76919 0.47608 0.0
C349 C 0.20321 0.78891 0.49525 0.0
C350 C 0.19396 0.81584 0.5079 0.0
C351 C 0.21804 0.73818 0.47038 0.0
C352 C 0.18369 0.73267 0.47714 0.0
C353 C 0.17667 0.7578 0.48962 0.0
C354 C 0.15403 0.70174 0.47012 0.0
C355 C 0.22623 0.71182 0.45662 0.0
C356 C 0.12802 0.70254 0.45397 0.0
C357 C 0.10055 0.67311 0.44656 0.0
C358 C 0.09861 0.64254 0.45533 0.0
C359 C 0.12444 0.64199 0.47179 0.0
C360 C 0.15206 0.67144 0.47911 0.0
H361 H 0.25354 0.72102 0.45144 0.0
H362 H 0.22417 0.68917 0.4654 0.0
H363 H 0.20622 0.70395 0.44251 0.0
H364 H 0.12926 0.72588 0.44695 0.0
H365 H 0.08068 0.67428 0.43407 0.0
H366 H 0.62904 0.36229 0.80415 0.0
H367 H 0.63018 0.30478 0.80579 0.0
H368 H 0.62089 0.31062 0.87232 0.0
H369 H 0.6196 0.36843 0.87074 0.0
H370 H 0.65359 0.25548 0.83135 0.0
H371 H 0.5165 0.26416 0.83885 0.0
H372 H 0.55241 0.29887 0.83145 0.0
H373 H 0.55215 0.2882 0.85827 0.0
C374 C 0.62996 0.35226 0.81941 0.0
C375 C 0.62279 0.3689 0.83719 0.0
C376 C 0.63048 0.31929 0.82031 0.0
C377 C 0.62422 0.30346 0.83903 0.0
C378 C 0.62517 0.32259 0.85772 0.0
H379 H 0.54513 0.08586 0.8298 0.0
H380 H 0.55433 0.1419 0.84689 0.0
C381 C 0.62455 0.35557 0.85681 0.0
C382 C 0.60573 0.2671 0.83734 0.0
H383 H 0.52108 0.21054 0.83161 0.0
C384 C 0.62484 0.24537 0.83203 0.0
C385 C 0.5679 0.25461 0.83748 0.0
C386 C 0.54583 0.27756 0.84168 0.0
C387 C 0.6069 0.21124 0.82639 0.0
C388 C 0.56915 0.19892 0.82635 0.0
C389 C 0.55009 0.22035 0.83219 0.0
C390 C 0.54925 0.16467 0.8177 0.0
C391 C 0.62799 0.1889 0.81924 0.0
C392 C 0.54018 0.15901 0.79594 0.0
C393 C 0.53534 0.12734 0.78617 0.0
C394 C 0.53966 0.1014 0.79821 0.0
C395 C 0.54247 0.10581 0.82025 0.0
C396 C 0.54759 0.13763 0.83001 0.0
H397 H 0.65735 0.20226 0.82088 0.0
H398 H 0.62285 0.16646 0.82852 0.0
H399 H 0.61913 0.17977 0.80249 0.0
H400 H 0.54132 0.17989 0.78634 0.0
H401 H 0.53312 0.12467 0.76916 0.0
H402 H 0.47092 0.93925 0.51844 0.0
H403 H 0.47191 0.88129 0.52187 0.0
H404 H 0.57757 0.90872 0.50138 0.0
H405 H 0.57719 0.96683 0.499 0.0
H406 H 0.47026 0.82828 0.50232 0.0
H407 H 0.60609 0.85809 0.54364 0.0
H408 H 0.58571 0.89049 0.53916 0.0
H409 H 0.6075 0.87585 0.51876 0.0
C410 C 0.49476 0.93335 0.51483 0.0
C411 C 0.52412 0.95939 0.50857 0.0
C412 C 0.49531 0.89933 0.51677 0.0
C413 C 0.52527 0.88862 0.51263 0.0
C414 C 0.55425 0.91463 0.50584 0.0
H415 H 0.57547 0.6893 0.5121 0.0
H416 H 0.57501 0.74765 0.50929 0.0
C417 C 0.55385 0.94871 0.50411 0.0
C418 C 0.52549 0.85093 0.51485 0.0
H419 H 0.57816 0.80127 0.53066 0.0
C420 C 0.49412 0.82296 0.50874 0.0
C421 C 0.55592 0.84155 0.52311 0.0
C422 C 0.59058 0.86803 0.53174 0.0
C423 C 0.49247 0.78807 0.51004 0.0
C424 C 0.52291 0.77872 0.51823 0.0
C425 C 0.5543 0.80665 0.52431 0.0
C426 C 0.52308 0.74104 0.52042 0.0
C427 C 0.45774 0.76148 0.50167 0.0
C428 C 0.49478 0.71544 0.52812 0.0
C429 C 0.49508 0.68128 0.52974 0.0
C430 C 0.52395 0.67022 0.52413 0.0
C431 C 0.55255 0.69577 0.51684 0.0
C432 C 0.55223 0.72991 0.51517 0.0
H433 H 0.44187 0.77129 0.48989 0.0
H434 H 0.46256 0.73902 0.49421 0.0
H435 H 0.44122 0.75363 0.51482 0.0
H436 H 0.47206 0.72175 0.53324 0.0
H437 H 0.47221 0.6633 0.53541 0.0
H438 H 0.69517 0.59804 0.8409 0.0
H439 H 0.75679 0.59678 0.8434 0.0
H440 H 0.71846 0.48817 0.84048 0.0
H441 H 0.6563 0.48917 0.83764 0.0
H442 H 0.79314 0.57245 0.87329 0.0
H443 H 0.78784 0.50436 0.79595 0.0
H444 H 0.75309 0.52166 0.80249 0.0
H445 H 0.75473 0.48256 0.81231 0.0
C446 C 0.69964 0.57376 0.84065 0.0
C447 C 0.67053 0.54364 0.83888 0.0
C448 C 0.73506 0.57313 0.84211 0.0
C449 C 0.74247 0.54241 0.84179 0.0
C450 C 0.71354 0.51221 0.84023 0.0
H451 H 0.94552 0.49757 0.85648 0.0
H452 H 0.88208 0.49418 0.84939 0.0
C453 C 0.67794 0.51281 0.8387 0.0
C454 C 0.78054 0.54243 0.84373 0.0
H455 H 0.84161 0.51599 0.81876 0.0
C456 C 0.80371 0.56015 0.86132 0.0
C457 C 0.79445 0.5263 0.82819 0.0
C458 C 0.77138 0.50787 0.80857 0.0
C459 C 0.84011 0.56201 0.86388 0.0
C460 C 0.85416 0.54631 0.84819 0.0
C461 C 0.83095 0.5282 0.83072 0.0
C462 C 0.89276 0.54818 0.84987 0.0
C463 C 0.863 0.58022 0.88364 0.0
C464 C 0.92002 0.57952 0.85159 0.0
C465 C 0.95614 0.58142 0.8556 0.0
C466 C 0.96572 0.55199 0.85756 0.0
C467 C 0.93873 0.52055 0.85467 0.0
C468 C 0.90254 0.51864 0.85075 0.0
H469 H 0.84639 0.58258 0.89642 0.0
H470 H 0.88204 0.56698 0.88937 0.0
H471 H 0.87879 0.60604 0.88024 0.0
H472 H 0.91327 0.60263 0.85052 0.0
H473 H 0.97651 0.60594 0.85805 0.0
H474 H 0.21011 0.82573 0.19105 0.0
H475 H 0.26774 0.87052 0.19676 0.0
H476 H 0.30772 0.82229 0.14783 0.0
H477 H 0.24985 0.77716 0.14199 0.0
H478 H 0.33602 0.86532 0.20782 0.0
H479 H 0.32707 0.91933 0.1305 0.0
H480 H 0.28866 0.89033 0.14033 0.0
H481 H 0.32189 0.87504 0.12966 0.0
C482 C 0.23125 0.82445 0.18163 0.0
C483 C 0.22549 0.79798 0.16606 0.0
C484 C 0.26407 0.85013 0.18483 0.0
C485 C 0.29172 0.84989 0.17252 0.0
C486 C 0.28639 0.82323 0.15719 0.0
H487 H 0.50834 0.99534 0.18813 0.0
H488 H 0.45623 0.94663 0.17529 0.0
C489 C 0.25342 0.79751 0.15391 0.0
C490 C 0.3261 0.87761 0.17607 0.0
H491 H 0.3789 0.94578 0.15405 0.0
C492 C 0.34554 0.88276 0.19602 0.0
C493 C 0.33836 0.90023 0.16058 0.0
C494 C 0.31787 0.89626 0.13909 0.0
C495 C 0.37659 0.91041 0.20106 0.0
C496 C 0.38822 0.9335 0.18581 0.0
C497 C 0.36961 0.92788 0.16564 0.0
C498 C 0.41863 0.96455 0.19118 0.0
C499 C 0.39652 0.91521 0.22277 0.0
C500 C 0.41421 0.9909 0.20383 0.0
C501 C 0.44373 1.01879 0.21105 0.0
C502 C 0.47816 1.02066 0.2058 0.0
C503 C 0.48214 0.99477 0.19233 0.0
C504 C 0.4525 0.96691 0.18503 0.0
H505 H 0.38759 0.89232 0.23155 0.0
H506 H 0.42587 0.92175 0.22181 0.0
H507 H 0.39178 0.93644 0.23182 0.0
H508 H 0.38806 0.98941 0.20857 0.0
H509 H 0.43972 0.03861 0.22108 0.0
H510 H 0.47123 0.17475 0.48878 0.0
H511 H 0.47342 0.23417 0.49098 0.0
H512 H 0.56544 0.25747 0.53726 0.0
H513 H 0.56549 0.19922 0.53305 0.0
H514 H 0.46418 0.28007 0.50984 0.0
H515 H 0.61075 0.3388 0.51538 0.0
H516 H 0.59071 0.29415 0.50961 0.0
H517 H 0.59908 0.31256 0.5365 0.0
C518 C 0.49251 0.19262 0.49917 0.0
C519 C 0.5186 0.181 0.51035 0.0
C520 C 0.49374 0.22743 0.50059 0.0
C521 C 0.52057 0.25311 0.51377 0.0
C522 C 0.54551 0.24073 0.52572 0.0
H523 H 0.56722 0.47331 0.55333 0.0
H524 H 0.56365 0.4146 0.54737 0.0
C525 C 0.54516 0.20629 0.52362 0.0
C526 C 0.52158 0.29151 0.51527 0.0
H527 H 0.57756 0.37463 0.52376 0.0
C528 C 0.48939 0.30037 0.5127 0.0
C529 C 0.55369 0.32014 0.5189 0.0
C530 C 0.59046 0.316 0.52003 0.0
C531 C 0.48824 0.33464 0.51418 0.0
C532 C 0.5203 0.36306 0.51841 0.0
C533 C 0.55241 0.35425 0.52079 0.0
C534 C 0.52175 0.40136 0.52134 0.0
C535 C 0.45187 0.33961 0.51173 0.0
C536 C 0.50033 0.41683 0.50871 0.0
C537 C 0.502 0.4517 0.51245 0.0
C538 C 0.52555 0.47362 0.5289 0.0
C539 C 0.54799 0.4584 0.54068 0.0
C540 C 0.54609 0.42387 0.53713 0.0
H541 H 0.4302 0.31647 0.51464 0.0
H542 H 0.4509 0.36061 0.52266 0.0
H543 H 0.44612 0.34557 0.49536 0.0
H544 H 0.48203 0.40206 0.4957 0.0
H545 H 0.48397 0.46116 0.5027 0.0
H546 H 0.42319 0.49626 0.83195 0.0
H547 H 0.36256 0.49728 0.83715 0.0
H548 H 0.4011 0.60588 0.84381 0.0
H549 H 0.46193 0.60513 0.8388 0.0
H550 H 0.35386 0.56541 0.87721 0.0
H551 H 0.29734 0.53564 0.79317 0.0
H552 H 0.32643 0.51336 0.80403 0.0
H553 H 0.34446 0.55749 0.80075 0.0
C554 C 0.4187 0.52039 0.83423 0.0
C555 C 0.44737 0.55064 0.83475 0.0
C556 C 0.38407 0.52091 0.83733 0.0
C557 C 0.37731 0.55165 0.84083 0.0
C558 C 0.40577 0.58188 0.84123 0.0
H559 H 0.17527 0.59477 0.83383 0.0
H560 H 0.23724 0.59487 0.83201 0.0
C561 C 0.44047 0.5814 0.83829 0.0
C562 C 0.34052 0.55224 0.84398 0.0
H563 H 0.25809 0.54156 0.81761 0.0
C564 C 0.33283 0.56015 0.86422 0.0
C565 C 0.31326 0.54553 0.827 0.0
C566 C 0.3205 0.53762 0.80493 0.0
C567 C 0.29851 0.56146 0.86792 0.0
C568 C 0.27107 0.55452 0.85092 0.0
C569 C 0.27896 0.54675 0.83067 0.0
C570 C 0.23425 0.55601 0.85356 0.0
C571 C 0.29215 0.57099 0.8899 0.0
C572 C 0.21181 0.53434 0.86641 0.0
C573 C 0.17633 0.53439 0.8675 0.0
C574 C 0.16281 0.55612 0.85577 0.0
C575 C 0.18532 0.57812 0.84324 0.0
C576 C 0.22064 0.57804 0.84211 0.0
H577 H 0.31777 0.58347 0.89996 0.0
H578 H 0.27554 0.58813 0.88968 0.0
H579 H 0.27753 0.54786 0.89719 0.0
H580 H 0.22132 0.51664 0.87508 0.0
H581 H 0.15921 0.51682 0.87702 0.0
H582 H 0.83376 0.40126 0.13581 0.0
H583 H 0.77813 0.35537 0.13852 0.0
H584 H 0.80159 0.36474 0.206 0.0
H585 H 0.85672 0.41056 0.20341 0.0
H586 H 0.77543 0.29622 0.15371 0.0
H587 H 0.6965 0.35548 0.20048 0.0
H588 H 0.73445 0.37992 0.18798 0.0
H589 H 0.74114 0.3639 0.21311 0.0
C590 C 0.82669 0.39382 0.15122 0.0
C591 C 0.84955 0.40952 0.16941 0.0
C592 C 0.79488 0.36774 0.15275 0.0
C593 C 0.7854 0.35699 0.17248 0.0
C594 C 0.80774 0.37326 0.19066 0.0
H595 H 0.66394 0.18206 0.22687 0.0
H596 H 0.70184 0.23788 0.21861 0.0
C597 C 0.83936 0.39941 0.18915 0.0
C598 C 0.75463 0.32638 0.1741 0.0
H599 H 0.68205 0.29493 0.20116 0.0
C600 C 0.75457 0.29604 0.16374 0.0
C601 C 0.72744 0.32619 0.18719 0.0
C602 C 0.72465 0.35822 0.19763 0.0
C603 C 0.72926 0.26525 0.16704 0.0
C604 C 0.70322 0.26493 0.18094 0.0
C605 C 0.70232 0.29534 0.19066 0.0
C606 C 0.67798 0.23297 0.18639 0.0
C607 C 0.73157 0.23313 0.15639 0.0
C608 C 0.65158 0.21235 0.17115 0.0
C609 C 0.63008 0.18072 0.17587 0.0
C610 C 0.63468 0.16952 0.19587 0.0
C611 C 0.66006 0.19052 0.21138 0.0
C612 C 0.68157 0.22222 0.20667 0.0
H613 H 0.75693 0.23722 0.14902 0.0
H614 H 0.72964 0.21367 0.16782 0.0
H615 H 0.70879 0.22313 0.1439 0.0
H616 H 0.64824 0.2204 0.15549 0.0
H617 H 0.61055 0.16464 0.16373 0.0
H618 H 0.09683 0.57826 0.10018 0.0
H619 H 0.10402 0.58234 0.06288 0.0
H620 H 1.00475 0.60559 0.05299 0.0
H621 H 0.99822 0.60276 0.09078 0.0
H622 H 0.05922 0.54019 0.03338 0.0
H623 H 0.06688 0.67084 0.01647 0.0
H624 H 0.0725 0.65865 0.0429 0.0
H625 H 0.0283 0.64953 0.02925 0.0
C626 C 0.0769 0.58494 0.09012 0.0
C627 C 0.04685 0.58996 0.09825 0.0
C628 C 0.08105 0.58729 0.06881 0.0
C629 C 0.055 0.5943 0.05506 0.0
C630 C 0.02559 0.60078 0.06331 0.0
H631 H 1.00192 0.52481 0.9248 0.0
H632 H 1.00727 0.53435 0.96293 0.0
C633 C 0.02174 0.59899 0.08486 0.0
C634 C 0.05695 0.59087 0.03201 0.0
H635 H 0.05766 0.63109 0.98675 0.0
C636 C 0.05922 0.56025 0.02326 0.0
C637 C 0.05722 0.61706 0.01877 0.0
C638 C 0.05644 0.651 0.02732 0.0
C639 C 0.06113 0.55486 0.0017 0.0
C640 C 0.05998 0.5805 0.98833 0.0
C641 C 0.05848 0.61144 0.99704 0.0
C642 C 0.05785 0.57464 0.96516 0.0
C643 C 0.0644 0.52168 0.99343 0.0
C644 C 0.08449 0.59427 0.95366 0.0
C645 C 0.08139 0.58894 0.93168 0.0
C646 C 0.05136 0.56421 0.92094 0.0
C647 C 0.02525 0.54422 0.93262 0.0
C648 C 0.02835 0.54952 0.95443 0.0
H649 H 0.07555 0.50918 0.006 0.0
H650 H 0.03737 0.50452 0.98728 0.0
H651 H 0.08182 0.52516 0.98044 0.0
H652 H 0.10747 0.61383 0.96168 0.0
H653 H 0.10173 0.6049 0.92307 0.0
H654 H 0.55631 0.05236 0.44726 0.0
H655 H 0.57167 0.06044 0.41106 0.0
H656 H 0.47945 0.0935 0.3968 0.0
H657 H 0.46481 0.08662 0.43286 0.0
H658 H 0.53432 0.03191 0.37339 0.0
H659 H 0.55738 0.16944 0.37683 0.0
H660 H 0.55378 0.14639 0.40008 0.0
H661 H 0.51399 0.14681 0.3841 0.0
C662 C 0.53949 0.06152 0.43639 0.0
C663 C 0.50961 0.06923 0.44295 0.0
C664 C 0.54826 0.06611 0.41573 0.0
C665 C 0.52724 0.07843 0.40133 0.0
C666 C 0.49678 0.08506 0.40776 0.0
H667 H 0.49514 0.09789 0.2699 0.0
H668 H 0.49595 0.09918 0.3082 0.0
C669 C 0.48825 0.08083 0.42837 0.0
C670 C 0.53628 0.08355 0.3794 0.0
H671 H 0.54849 0.14113 0.34233 0.0
C672 C 0.53803 0.05593 0.36669 0.0
C673 C 0.5412 0.11494 0.37064 0.0
C674 C 0.54187 0.14616 0.3837 0.0
C675 C 0.54288 0.05847 0.34527 0.0
C676 C 0.54644 0.08951 0.33639 0.0
C677 C 0.54571 0.11736 0.34919 0.0
C678 C 0.54834 0.09277 0.31354 0.0
C679 C 0.54264 0.02756 0.33204 0.0
C680 C 0.57816 0.09008 0.30393 0.0
C681 C 0.57786 0.08958 0.28203 0.0
C682 C 0.54763 0.09157 0.26943 0.0
C683 C 0.5187 0.09613 0.27923 0.0
C684 C 0.51912 0.09686 0.30108 0.0
H685 H 0.5341 1.00431 0.34053 0.0
H686 H 0.52437 1.02414 0.31731 0.0
H687 H 0.57006 0.03083 0.32762 0.0
H688 H 0.60114 0.08729 0.31333 0.0
H689 H 0.60039 0.08577 0.2749 0.0
H690 H 0.56805 0.52395 0.77066 0.0
H691 H 0.56444 0.51935 0.73204 0.0
H692 H 0.5297 0.60745 0.7304 0.0
H693 H 0.53609 0.61348 0.7688 0.0
H694 H 0.51695 0.50923 0.70052 0.0
H695 H 0.60772 0.63802 0.69509 0.0
H696 H 0.60105 0.61982 0.71992 0.0
H697 H 0.57006 0.63968 0.70832 0.0
C698 C 0.55972 0.54233 0.76198 0.0
C699 C 0.55284 0.56937 0.77277 0.0
C700 C 0.55765 0.53972 0.73986 0.0
C701 C 0.548 0.56376 0.72801 0.0
C702 C 0.53894 0.58947 0.73892 0.0
H703 H 0.49805 0.58294 0.59412 0.0
H704 H 0.50286 0.58607 0.63276 0.0
C705 C 0.54214 0.59269 0.76096 0.0
C706 C 0.5473 0.56214 0.7044 0.0
H707 H 0.57243 0.61057 0.66317 0.0
C708 C 0.52937 0.53142 0.69246 0.0
C709 C 0.56395 0.59078 0.69352 0.0
C710 C 0.58711 0.62377 0.70491 0.0
C711 C 0.52664 0.52896 0.67026 0.0
C712 C 0.54174 0.558 0.65954 0.0
C713 C 0.56014 0.58848 0.67136 0.0
C714 C 0.53961 0.55704 0.63607 0.0
C715 C 0.50725 0.49536 0.65833 0.0
C716 C 0.55948 0.54062 0.62506 0.0
C717 C 0.55726 0.53929 0.60306 0.0
C718 C 0.53479 0.55405 0.59135 0.0
C719 C 0.51573 0.57142 0.60249 0.0
C720 C 0.51822 0.57298 0.6246 0.0
H721 H 0.49212 0.47657 0.66861 0.0
H722 H 0.48835 0.4983 0.64522 0.0
H723 H 0.52711 0.48532 0.65141 0.0
H724 H 0.57674 0.52873 0.6335 0.0
H725 H 0.57308 0.52636 0.59518 0.0
H726 H 0.48097 0.08165 0.56026 0.0
H727 H 0.46464 0.07276 0.59629 0.0
H728 H 0.5643 0.05333 0.61344 0.0
H729 H 0.5804 0.06141 0.5777 0.0
H730 H 0.48035 1.00229 0.6203 0.0
H731 H 0.53573 0.13514 0.65484 0.0
H732 H 0.51497 0.12442 0.62804 0.0
H733 H 0.55905 0.1217 0.6349 0.0
C734 C 0.49933 0.07558 0.57181 0.0
C735 C 0.53174 0.07184 0.56631 0.0
C736 C 0.48997 0.07051 0.59223 0.0
C737 C 0.51327 0.06222 0.60721 0.0
C738 C 0.54601 0.05949 0.60188 0.0
H739 H 0.592 0.04441 0.72393 0.0
H740 H 0.57185 0.0438 0.68701 0.0
C741 C 0.55513 0.06411 0.58153 0.0
C742 C 0.50407 0.05557 0.62858 0.0
H743 H 0.52879 0.09196 0.67844 0.0
C744 C 0.48965 1.02187 0.63311 0.0
C745 C 0.51657 0.08136 0.64497 0.0
C746 C 0.53234 0.1178 0.64058 0.0
C747 C 0.4903 1.01299 0.65392 0.0
C748 C 0.50562 0.03856 0.67022 0.0
C749 C 0.51711 0.0725 0.66572 0.0
C750 C 0.51556 0.03079 0.69152 0.0
C751 C 0.47759 0.97635 0.65833 0.0
C752 C 0.49015 1.02174 0.70592 0.0
C753 C 0.50154 1.02136 0.72715 0.0
C754 C 0.53846 0.03065 0.7341 0.0
C755 C 0.56339 0.0368 0.71919 0.0
C756 C 0.55198 0.03683 0.69807 0.0
H757 H 0.46597 0.9595 0.64383 0.0
H758 H 0.50042 0.96921 0.66582 0.0
H759 H 0.45698 0.97229 0.66954 0.0
H760 H 0.4619 1.01695 0.70098 0.0
H761 H 0.48168 1.01593 0.73826 0.0
H762 H 0.60436 0.57351 0.89955 0.0
H763 H 0.60576 0.58921 0.93729 0.0
H764 H 0.49396 0.53091 0.93527 0.0
H765 H 0.4925 0.51495 0.89802 0.0
H766 H 0.56313 0.62193 0.95919 0.0
H767 H 0.542 0.49189 0.98257 0.0
H768 H 0.55543 0.50457 0.95722 0.0
H769 H 0.50921 0.49488 0.96213 0.0
C770 C 0.58015 0.56408 0.90722 0.0
C771 C 0.54845 0.54262 0.89586 0.0
C772 C 0.58094 0.5731 0.92874 0.0
C773 C 0.55011 0.5607 0.93923 0.0
C774 C 0.51829 0.54017 0.92769 0.0
H775 H 0.49725 0.56173 0.0686 0.0
H776 H 0.49401 0.55645 0.03007 0.0
C777 C 0.5175 0.53113 0.90633 0.0
C778 C 0.55076 0.56866 0.96224 0.0
H779 H 0.53567 0.53151 0.00839 0.0
C780 C 0.55734 0.60222 0.97 0.0
C781 C 0.5431 0.54295 0.97635 0.0
C782 C 0.53736 0.50658 0.96923 0.0
C783 C 0.55544 0.61062 0.99134 0.0
C784 C 0.54742 0.5848 0.00544 0.0
C785 C 0.54128 0.55131 0.99765 0.0
C786 C 0.54702 0.59178 0.02849 0.0
C787 C 0.56112 0.647 -0.00161 0.0
C788 C 0.57737 0.614 0.04049 0.0
C789 C 0.57891 0.6175 0.06237 0.0
C790 C 0.55054 0.5982 0.07296 0.0
C791 C 0.51943 0.57709 0.06096 0.0
C792 C 0.51774 0.57385 0.03893 0.0
H793 H 0.55455 0.66105 0.98516 0.0
H794 H 0.54453 0.64921 0.0112 0.0
H795 H 0.58981 0.65932 0.00427 0.0
H796 H 0.60067 0.62758 0.03305 0.0
H797 H 0.60314 0.63431 0.07112 0.0
H798 H 0.07426 0.57939 0.22097 0.0
H799 H 0.06939 0.56584 0.25774 0.0
H800 H 0.99214 0.61892 0.26242 0.0
H801 H 0.99725 0.63301 0.22586 0.0
H802 H 0.07753 0.62439 0.29476 0.0
H803 H 0.95103 0.5158 0.28372 0.0
H804 H 0.98117 0.52569 0.26352 0.0
H805 H 0.95422 0.552 0.26887 0.0
C806 C 0.05615 0.58804 0.22983 0.0
C807 C 0.03624 0.60737 0.2206 0.0
C808 C 0.05338 0.58027 0.25078 0.0
C809 C 0.03024 0.59122 0.26269 0.0
C810 C 1.00997 0.61009 0.25342 0.0
H811 H 0.97604 0.57642 0.39144 0.0
H812 H 0.9738 0.57791 0.35298 0.0
C813 C 1.01303 0.6182 0.23258 0.0
C814 C 0.0284 0.58436 0.28511 0.0
H815 H 0.97662 0.53445 0.31862 0.0
C816 C 0.05564 0.60461 0.30001 0.0
C817 C 0.99949 0.55888 0.29183 0.0
C818 C 0.96972 0.53662 0.27625 0.0
C819 C 0.05461 0.60025 0.32158 0.0
C820 C 0.02602 0.57427 0.32836 0.0
C821 C 0.99862 0.55413 0.31341 0.0
C822 C 0.02428 0.56806 0.35097 0.0
C823 C 0.08366 0.62418 0.33693 0.0
C824 C 0.05237 0.56032 0.36241 0.0
C825 C 0.05362 0.5595 0.38422 0.0
C826 C 0.02647 0.56578 0.39495 0.0
C827 C 0.99696 0.57101 0.38341 0.0
C828 C 0.99584 0.57209 0.36152 0.0
H829 H 0.0975 0.64782 0.32983 0.0
H830 H 0.07249 0.63081 0.35125 0.0
H831 H 0.10406 0.61193 0.34175 0.0
H832 H 0.07419 0.55641 0.35457 0.0
H833 H 0.07677 0.5557 0.39287 0.0
loop_
_geom_bond_atom_site_label_1
_geom_bond_atom_site_label_2
_geom_bond_distance
_geom_bond_site_symmetry_2
_ccdc_geom_bond_type
Pr0 C2 2.880 1_455 S
Pr0 O20 2.562 1_455 S
Pr0 O21 2.490 1_455 S
Pr0 O22 2.695 . S
Pr0 O23 2.512 . S
Pr0 O25 2.437 1_455 S
Pr0 O28 2.436 . S
Pr0 O30 2.438 . S
Pr1 C11 2.880 . S
Pr1 O22 2.436 . S
Pr1 O24 2.438 1_455 S
Pr1 O26 2.562 . S
Pr1 O27 2.490 . S
Pr1 O28 2.695 . S
Pr1 O29 2.512 . S
Pr1 O31 2.437 . S
C2 Pr0 2.880 1_655 S
C2 C3 1.491 . S
C2 O20 1.254 . S
C2 O21 1.225 . S
C3 C2 1.491 . S
C3 C4 1.392 . S
C3 C8 1.356 . S
C4 C3 1.392 . S
C4 C5 1.368 . S
C4 H32 0.929 . S
C5 C4 1.368 . S
C5 C6 1.386 . S
C5 H33 0.929 . S
C6 C5 1.386 . S
C6 C7 1.373 . S
C7 C6 1.373 . S
C7 C8 1.409 . S
C7 H34 0.931 . S
C8 C3 1.356 . S
C8 C7 1.409 . S
C8 H35 0.930 . S
C9 O22 1.270 . S
C9 O23 1.252 . S
C10 O24 1.267 . S
C10 O25 1.278 . S
C11 Pr1 2.880 . S
C11 C12 1.491 . S
C11 O26 1.254 . S
C11 O27 1.225 . S
C12 C11 1.491 . S
C12 C13 1.392 . S
C12 C17 1.356 . S
C13 C12 1.392 . S
C13 C14 1.368 . S
C13 H36 0.929 . S
C14 C13 1.368 . S
C14 C15 1.386 . S
C14 H37 0.929 . S
C15 C14 1.386 . S
C15 C16 1.373 . S
C16 C15 1.373 . S
C16 C17 1.409 . S
C16 H38 0.931 . S
C17 C12 1.356 . S
C17 C16 1.409 . S
C17 H39 0.930 . S
C18 O28 1.270 . S
C18 O29 1.248 . S
C19 O30 1.267 . S
C19 O31 1.278 . S
O20 Pr0 2.562 1_655 S
O20 C2 1.254 . S
O21 Pr0 2.490 1_655 S
O21 C2 1.225 . S
O22 Pr0 2.695 . S
O22 Pr1 2.436 . S
O22 C9 1.270 . S
O23 Pr0 2.512 . S
O23 C9 1.252 . S
O24 Pr1 2.438 1_655 S
O24 C10 1.267 . S
O25 Pr0 2.437 1_655 S
O25 C10 1.278 . S
O26 Pr1 2.562 . S
O26 C11 1.254 . S
O27 Pr1 2.490 . S
O27 C11 1.225 . S
O28 Pr0 2.436 . S
O28 Pr1 2.695 . S
O28 C18 1.270 . S
O29 Pr1 2.512 . S
O29 C18 1.248 . S
O30 Pr0 2.438 . S
O30 C19 1.267 . S
O31 Pr1 2.437 . S
O31 C19 1.278 . S
H32 C4 0.929 . S
H33 C5 0.929 . S
H34 C7 0.931 . S
H35 C8 0.930 . S
H36 C13 0.929 . S
H37 C14 0.929 . S
H38 C16 0.931 . S
H39 C17 0.930 . S
Pr40 C42 2.880 . S
Pr40 O60 2.562 . S
Pr40 O61 2.490 . S
Pr40 O62 2.695 . S
Pr40 O63 2.512 . S
Pr40 O65 2.437 . S
Pr40 O68 2.436 . S
Pr40 O70 2.438 . S
Pr41 C51 2.880 1_545 S
Pr41 O62 2.436 . S
Pr41 O64 2.438 . S
Pr41 O66 2.562 1_545 S
Pr41 O67 2.490 1_545 S
Pr41 O68 2.695 . S
Pr41 O69 2.512 . S
Pr41 O71 2.437 1_545 S
C42 Pr40 2.880 . S
C42 C43 1.491 . S
C42 O60 1.254 . S
C42 O61 1.225 . S
C43 C42 1.491 . S
C43 C44 1.392 . S
C43 C48 1.356 . S
C44 C43 1.392 . S
C44 C45 1.368 . S
C44 H72 0.929 . S
C45 C44 1.368 . S
C45 C46 1.386 . S
C45 H73 0.929 . S
C46 C45 1.386 . S
C46 C47 1.373 . S
C47 C46 1.373 . S
C47 C48 1.409 . S
C47 H74 0.931 . S
C48 C43 1.356 . S
C48 C47 1.409 . S
C48 H75 0.930 . S
C49 O62 1.270 . S
C49 O63 1.248 . S
C50 O64 1.267 . S
C50 O65 1.278 . S
C51 Pr41 2.880 1_565 S
C51 C52 1.491 . S
C51 O66 1.254 . S
C51 O67 1.225 . S
C52 C51 1.491 . S
C52 C53 1.392 . S
C52 C57 1.356 . S
C53 C52 1.392 . S
C53 C54 1.368 . S
C53 H76 0.929 . S
C54 C53 1.368 . S
C54 C55 1.386 . S
C54 H77 0.929 . S
C55 C54 1.386 . S
C55 C56 1.373 . S
C56 C55 1.373 . S
C56 C57 1.409 . S
C56 H78 0.931 . S
C57 C52 1.356 . S
C57 C56 1.409 . S
C57 H79 0.930 . S
C58 O68 1.270 . S
C58 O69 1.248 . S
C59 O70 1.267 1_565 S
C59 O71 1.278 . S
O60 Pr40 2.562 . S
O60 C42 1.254 . S
O61 Pr40 2.490 . S
O61 C42 1.225 . S
O62 Pr40 2.695 . S
O62 Pr41 2.436 . S
O62 C49 1.270 . S
O63 Pr40 2.512 . S
O63 C49 1.248 . S
O64 Pr41 2.438 . S
O64 C50 1.267 . S
O65 Pr40 2.437 . S
O65 C50 1.278 . S
O66 Pr41 2.562 1_565 S
O66 C51 1.254 . S
O67 Pr41 2.490 1_565 S
O67 C51 1.225 . S
O68 Pr40 2.436 . S
O68 Pr41 2.695 . S
O68 C58 1.270 . S
O69 Pr41 2.512 . S
O69 C58 1.248 . S
O70 Pr40 2.438 . S
O70 C59 1.267 1_545 S
O71 Pr41 2.437 1_565 S
O71 C59 1.278 . S
H72 C44 0.929 . S
H73 C45 0.929 . S
H74 C47 0.931 . S
H75 C48 0.930 . S
H76 C53 0.929 . S
H77 C54 0.929 . S
H78 C56 0.931 . S
H79 C57 0.930 . S
Pr80 C82 2.880 . S
Pr80 O100 2.562 . S
Pr80 O101 2.490 . S
Pr80 O102 2.695 . S
Pr80 O103 2.512 . S
Pr80 O105 2.437 . S
Pr80 O108 2.436 . S
Pr80 O110 2.438 . S
Pr81 C91 2.880 . S
Pr81 O102 2.436 . S
Pr81 O104 2.438 . S
Pr81 O106 2.562 . S
Pr81 O107 2.490 . S
Pr81 O108 2.695 . S
Pr81 O109 2.512 . S
Pr81 O111 2.437 . S
C82 Pr80 2.880 . S
C82 C83 1.491 . S
C82 O100 1.254 . S
C82 O101 1.225 . S
C83 C82 1.491 . S
C83 C84 1.392 . S
C83 C88 1.356 . S
C84 C83 1.392 . S
C84 C85 1.368 . S
C84 H112 0.929 . S
C85 C84 1.368 . S
C85 C86 1.386 . S
C85 H113 0.929 . S
C86 C85 1.386 . S
C86 C87 1.373 . S
C87 C86 1.373 . S
C87 C88 1.409 . S
C87 H114 0.931 . S
C88 C83 1.356 . S
C88 C87 1.409 . S
C88 H115 0.930 . S
C89 O102 1.270 . S
C89 O103 1.248 . S
C90 O104 1.267 . S
C90 O105 1.278 . S
C91 Pr81 2.880 . S
C91 C92 1.491 . S
C91 O106 1.254 . S
C91 O107 1.225 . S
C92 C91 1.491 . S
C92 C93 1.392 . S
C92 C97 1.356 . S
C93 C92 1.392 . S
C93 C94 1.368 . S
C93 H116 0.929 . S
C94 C93 1.368 . S
C94 C95 1.386 . S
C94 H117 0.929 . S
C95 C94 1.386 . S
C95 C96 1.373 . S
C96 C95 1.373 . S
C96 C97 1.409 . S
C96 H118 0.931 . S
C97 C92 1.356 . S
C97 C96 1.409 . S
C97 H119 0.930 . S
C98 O108 1.270 . S
C98 O109 1.248 . S
C99 O110 1.267 . S
C99 O111 1.278 . S
O100 Pr80 2.562 . S
O100 C82 1.254 . S
O101 Pr80 2.490 . S
O101 C82 1.225 . S
O102 Pr80 2.695 . S
O102 Pr81 2.436 . S
O102 C89 1.270 . S
O103 Pr80 2.512 . S
O103 C89 1.248 . S
O104 Pr81 2.438 . S
O104 C90 1.267 . S
O105 Pr80 2.437 . S
O105 C90 1.278 . S
O106 Pr81 2.562 . S
O106 C91 1.254 . S
O107 Pr81 2.490 . S
O107 C91 1.225 . S
O108 Pr80 2.436 . S
O108 Pr81 2.695 . S
O108 C98 1.270 . S
O109 Pr81 2.512 . S
O109 C98 1.248 . S
O110 Pr80 2.438 . S
O110 C99 1.267 . S
O111 Pr81 2.437 . S
O111 C99 1.278 . S
H112 C84 0.929 . S
H113 C85 0.929 . S
H114 C87 0.931 . S
H115 C88 0.930 . S
H116 C93 0.929 . S
H117 C94 0.929 . S
H118 C96 0.931 . S
H119 C97 0.930 . S
H120 C123 0.929 . S
H121 C126 0.929 . S
H122 C128 0.930 . S
C123 H120 0.929 . S
C123 C124 1.398 . S
C123 C125 1.396 . S
C124 C123 1.398 . S
C124 C128 1.407 . S
C125 C123 1.396 . S
C125 C126 1.394 . S
C126 H121 0.929 . S
C126 C125 1.394 . S
C126 C127 1.382 . S
C127 C126 1.382 . S
C127 C128 1.392 . S
C127 N129 1.420 . S
C128 H122 0.930 . S
C128 C124 1.407 . S
C128 C127 1.392 . S
N129 C127 1.420 . S
N129 C130 1.244 . S
C130 N129 1.244 . S
H131 C134 0.929 . S
H132 C137 0.929 . S
H133 C139 0.930 . S
C134 H131 0.929 . S
C134 C135 1.398 . S
C134 C136 1.396 . S
C135 C134 1.398 . S
C135 C139 1.407 . S
C136 C134 1.396 . S
C136 C137 1.394 . S
C137 H132 0.929 . S
C137 C136 1.394 . S
C137 C138 1.382 . S
C138 C137 1.382 . S
C138 C139 1.392 . S
C138 N140 1.420 . S
C139 H133 0.930 . S
C139 C135 1.407 . S
C139 C138 1.392 . S
N140 C138 1.420 . S
N140 C141 1.244 . S
C141 N140 1.244 . S
H142 C145 0.929 1_655 S
H143 C148 0.929 . S
H144 C150 0.930 . S
C145 H142 0.929 1_455 S
C145 C146 1.398 1_455 S
C145 C147 1.396 . S
C146 C145 1.398 1_655 S
C146 C150 1.407 1_655 S
C147 C145 1.396 . S
C147 C148 1.394 . S
C148 H143 0.929 . S
C148 C147 1.394 . S
C148 C149 1.382 . S
C149 C148 1.382 . S
C149 C150 1.392 . S
C149 N151 1.420 . S
C150 H144 0.930 . S
C150 C146 1.407 1_455 S
C150 C149 1.392 . S
N151 C149 1.420 . S
N151 C152 1.244 . S
C152 N151 1.244 . S
H153 C156 0.929 . S
H154 C159 0.929 . S
H155 C161 0.930 . S
C156 H153 0.929 . S
C156 C157 1.398 . S
C156 C158 1.396 . S
C157 C156 1.398 . S
C157 C161 1.407 . S
C158 C156 1.396 . S
C158 C159 1.394 1_455 S
C159 H154 0.929 . S
C159 C158 1.394 1_655 S
C159 C160 1.382 1_655 S
C160 C159 1.382 1_455 S
C160 C161 1.392 . S
C160 N162 1.420 1_455 S
C161 H155 0.930 . S
C161 C157 1.407 . S
C161 C160 1.392 . S
N162 C160 1.420 1_655 S
N162 C163 1.244 . S
C163 N162 1.244 . S
H164 C167 0.929 . S
H165 C170 0.929 1_565 S
H166 C172 0.930 . S
C167 H164 0.929 . S
C167 C168 1.398 . S
C167 C169 1.396 . S
C168 C167 1.398 . S
C168 C172 1.407 . S
C169 C167 1.396 . S
C169 C170 1.394 . S
C170 H165 0.929 1_545 S
C170 C169 1.394 . S
C170 C171 1.382 . S
C171 C170 1.382 . S
C171 C172 1.392 . S
C171 N173 1.420 1_545 S
C172 H166 0.930 . S
C172 C168 1.407 . S
C172 C171 1.392 . S
N173 C171 1.420 1_565 S
N173 C174 1.244 . S
C174 N173 1.244 . S
H175 C178 0.929 . S
H176 C181 0.929 . S
H177 C183 0.930 . S
C178 H175 0.929 . S
C178 C179 1.398 . S
C178 C180 1.396 . S
C179 C178 1.398 . S
C179 C183 1.407 . S
C180 C178 1.396 . S
C180 C181 1.394 . S
C181 H176 0.929 . S
C181 C180 1.394 . S
C181 C182 1.382 . S
C182 C181 1.382 . S
C182 C183 1.392 . S
C182 N184 1.420 . S
C183 H177 0.930 . S
C183 C179 1.407 . S
C183 C182 1.392 . S
N184 C182 1.420 . S
N184 C185 1.244 . S
C185 N184 1.244 . S
H186 C194 0.929 . S
H187 C196 0.930 . S
H188 C198 0.930 . S
H189 C201 0.929 . S
H190 C204 0.930 . S
H191 C206 0.960 . S
H192 C206 0.960 . S
H193 C206 0.960 . S
C194 H186 0.929 . S
C194 C195 1.377 . S
C194 C196 1.384 . S
C195 C194 1.377 . S
C195 C201 1.390 . S
C196 H187 0.930 . S
C196 C194 1.384 . S
C196 C197 1.372 . S
C197 C196 1.372 . S
C197 C198 1.400 . S
C197 C202 1.490 . S
C198 H188 0.930 . S
C198 C197 1.400 . S
C198 C201 1.386 . S
H199 C215 0.930 . S
H200 C216 0.931 . S
C201 H189 0.929 . S
C201 C195 1.390 . S
C201 C198 1.386 . S
C202 C197 1.490 . S
C202 C204 1.395 . S
C202 C205 1.403 . S
H203 C209 0.930 . S
C204 H190 0.930 . S
C204 C202 1.395 . S
C204 C207 1.403 . S
C205 C202 1.403 . S
C205 C206 1.524 . S
C205 C209 1.400 . S
C206 H191 0.960 . S
C206 H192 0.960 . S
C206 H193 0.960 . S
C206 C205 1.524 . S
C207 C204 1.403 . S
C207 C208 1.392 . S
C207 C211 1.495 . S
C208 C207 1.392 . S
C208 C209 1.385 . S
C208 C210 1.478 . S
C209 H203 0.930 . S
C209 C205 1.400 . S
C209 C208 1.385 . S
C210 C208 1.478 . S
C210 C212 1.381 . S
C210 C216 1.383 . S
C211 C207 1.495 . S
C211 H217 0.959 . S
C211 H218 0.961 . S
C211 H219 0.960 . S
C212 C210 1.381 . S
C212 C213 1.394 . S
C212 H220 0.930 . S
C213 C212 1.394 . S
C213 C214 1.383 . S
C213 H221 0.929 . S
C214 C213 1.383 . S
C214 C215 1.377 . S
C215 H199 0.930 . S
C215 C214 1.377 . S
C215 C216 1.379 . S
C216 H200 0.931 . S
C216 C210 1.383 . S
C216 C215 1.379 . S
H217 C211 0.959 . S
H218 C211 0.961 . S
H219 C211 0.960 . S
H220 C212 0.930 . S
H221 C213 0.929 . S
H222 C230 0.929 . S
H223 C232 0.930 . S
H224 C234 0.930 . S
H225 C237 0.929 . S
H226 C240 0.930 . S
H227 C242 0.960 . S
H228 C242 0.960 . S
H229 C242 0.960 . S
C230 H222 0.929 . S
C230 C231 1.377 . S
C230 C232 1.384 . S
C231 C230 1.377 . S
C231 C237 1.390 . S
C232 H223 0.930 . S
C232 C230 1.384 . S
C232 C233 1.372 . S
C233 C232 1.372 . S
C233 C234 1.400 . S
C233 C238 1.490 . S
C234 H224 0.930 . S
C234 C233 1.400 . S
C234 C237 1.386 . S
H235 C251 0.930 . S
H236 C252 0.931 . S
C237 H225 0.929 . S
C237 C231 1.390 . S
C237 C234 1.386 . S
C238 C233 1.490 . S
C238 C240 1.395 . S
C238 C241 1.403 . S
H239 C245 0.930 . S
C240 H226 0.930 . S
C240 C238 1.395 . S
C240 C243 1.403 . S
C241 C238 1.403 . S
C241 C242 1.524 . S
C241 C245 1.400 . S
C242 H227 0.960 . S
C242 H228 0.960 . S
C242 H229 0.960 . S
C242 C241 1.524 . S
C243 C240 1.403 . S
C243 C244 1.392 . S
C243 C247 1.495 . S
C244 C243 1.392 . S
C244 C245 1.385 . S
C244 C246 1.478 . S
C245 H239 0.930 . S
C245 C241 1.400 . S
C245 C244 1.385 . S
C246 C244 1.478 . S
C246 C248 1.381 . S
C246 C252 1.383 . S
C247 C243 1.495 . S
C247 H253 0.959 . S
C247 H254 0.961 . S
C247 H255 0.960 . S
C248 C246 1.381 . S
C248 C249 1.394 . S
C248 H256 0.930 . S
C249 C248 1.394 . S
C249 C250 1.383 . S
C249 H257 0.929 . S
C250 C249 1.383 . S
C250 C251 1.377 . S
C251 H235 0.930 . S
C251 C250 1.377 . S
C251 C252 1.379 . S
C252 H236 0.931 . S
C252 C246 1.383 . S
C252 C251 1.379 . S
H253 C247 0.959 . S
H254 C247 0.961 . S
H255 C247 0.960 . S
H256 C248 0.930 . S
H257 C249 0.929 . S
H258 C266 0.929 . S
H259 C268 0.930 . S
H260 C270 0.930 . S
H261 C273 0.929 . S
H262 C276 0.930 . S
H263 C278 0.960 . S
H264 C278 0.960 . S
H265 C278 0.960 . S
C266 H258 0.929 . S
C266 C267 1.377 . S
C266 C268 1.384 . S
C267 C266 1.377 . S
C267 C273 1.390 . S
C268 H259 0.930 . S
C268 C266 1.384 . S
C268 C269 1.372 . S
C269 C268 1.372 . S
C269 C270 1.400 . S
C269 C274 1.490 . S
C270 H260 0.930 . S
C270 C269 1.400 . S
C270 C273 1.386 . S
H271 C287 0.930 . S
H272 C288 0.931 . S
C273 H261 0.929 . S
C273 C267 1.390 . S
C273 C270 1.386 . S
C274 C269 1.490 . S
C274 C276 1.395 . S
C274 C277 1.403 . S
H275 C281 0.930 . S
C276 H262 0.930 . S
C276 C274 1.395 . S
C276 C279 1.403 . S
C277 C274 1.403 . S
C277 C278 1.524 . S
C277 C281 1.400 . S
C278 H263 0.960 . S
C278 H264 0.960 . S
C278 H265 0.960 . S
C278 C277 1.524 . S
C279 C276 1.403 . S
C279 C280 1.392 . S
C279 C283 1.495 . S
C280 C279 1.392 . S
C280 C281 1.385 . S
C280 C282 1.478 . S
C281 H275 0.930 . S
C281 C277 1.400 . S
C281 C280 1.385 . S
C282 C280 1.478 . S
C282 C284 1.381 . S
C282 C288 1.383 . S
C283 C279 1.495 . S
C283 H289 0.959 . S
C283 H290 0.961 . S
C283 H291 0.960 . S
C284 C282 1.381 . S
C284 C285 1.394 . S
C284 H292 0.930 . S
C285 C284 1.394 . S
C285 C286 1.383 . S
C285 H293 0.929 . S
C286 C285 1.383 . S
C286 C287 1.377 . S
C287 H271 0.930 . S
C287 C286 1.377 . S
C287 C288 1.379 . S
C288 H272 0.931 . S
C288 C282 1.383 . S
C288 C287 1.379 . S
H289 C283 0.959 . S
H290 C283 0.961 . S
H291 C283 0.960 . S
H292 C284 0.930 . S
H293 C285 0.929 . S
H294 C302 0.929 . S
H295 C304 0.930 . S
H296 C306 0.930 . S
H297 C309 0.929 . S
H298 C312 0.930 . S
H299 C314 0.960 . S
H300 C314 0.960 . S
H301 C314 0.960 . S
C302 H294 0.929 . S
C302 C303 1.377 . S
C302 C304 1.384 . S
C303 C302 1.377 . S
C303 C309 1.390 . S
C304 H295 0.930 . S
C304 C302 1.384 . S
C304 C305 1.372 . S
C305 C304 1.372 . S
C305 C306 1.400 . S
C305 C310 1.490 . S
C306 H296 0.930 . S
C306 C305 1.400 . S
C306 C309 1.386 . S
H307 C323 0.930 . S
H308 C324 0.931 . S
C309 H297 0.929 . S
C309 C303 1.390 . S
C309 C306 1.386 . S
C310 C305 1.490 . S
C310 C312 1.395 . S
C310 C313 1.403 . S
H311 C317 0.930 . S
C312 H298 0.930 . S
C312 C310 1.395 . S
C312 C315 1.403 . S
C313 C310 1.403 . S
C313 C314 1.524 . S
C313 C317 1.400 . S
C314 H299 0.960 . S
C314 H300 0.960 . S
C314 H301 0.960 . S
C314 C313 1.524 . S
C315 C312 1.403 . S
C315 C316 1.392 . S
C315 C319 1.495 . S
C316 C315 1.392 . S
C316 C317 1.385 . S
C316 C318 1.478 . S
C317 H311 0.930 . S
C317 C313 1.400 . S
C317 C316 1.385 . S
C318 C316 1.478 . S
C318 C320 1.381 . S
C318 C324 1.383 . S
C319 C315 1.495 . S
C319 H325 0.959 . S
C319 H326 0.961 . S
C319 H327 0.960 . S
C320 C318 1.381 . S
C320 C321 1.394 . S
C320 H328 0.930 . S
C321 C320 1.394 . S
C321 C322 1.383 . S
C321 H329 0.929 . S
C322 C321 1.383 . S
C322 C323 1.377 . S
C323 H307 0.930 . S
C323 C322 1.377 . S
C323 C324 1.379 . S
C324 H308 0.931 . S
C324 C318 1.383 . S
C324 C323 1.379 . S
H325 C319 0.959 . S
H326 C319 0.961 . S
H327 C319 0.960 . S
H328 C320 0.930 . S
H329 C321 0.929 . S
H330 C338 0.929 . S
H331 C340 0.930 . S
H332 C342 0.930 . S
H333 C345 0.929 . S
H334 C348 0.930 . S
H335 C350 0.960 . S
H336 C350 0.960 . S
H337 C350 0.960 . S
C338 H330 0.929 . S
C338 C339 1.377 . S
C338 C340 1.384 . S
C339 C338 1.377 . S
C339 C345 1.390 . S
C340 H331 0.930 . S
C340 C338 1.384 . S
C340 C341 1.372 . S
C341 C340 1.372 . S
C341 C342 1.400 . S
C341 C346 1.490 . S
C342 H332 0.930 . S
C342 C341 1.400 . S
C342 C345 1.386 . S
H343 C359 0.930 . S
H344 C360 0.931 . S
C345 H333 0.929 . S
C345 C339 1.390 . S
C345 C342 1.386 . S
C346 C341 1.490 . S
C346 C348 1.395 . S
C346 C349 1.403 . S
H347 C353 0.930 . S
C348 H334 0.930 . S
C348 C346 1.395 . S
C348 C351 1.403 . S
C349 C346 1.403 . S
C349 C350 1.524 . S
C349 C353 1.400 . S
C350 H335 0.960 . S
C350 H336 0.960 . S
C350 H337 0.960 . S
C350 C349 1.524 . S
C351 C348 1.403 . S
C351 C352 1.392 . S
C351 C355 1.495 . S
C352 C351 1.392 . S
C352 C353 1.385 . S
C352 C354 1.478 . S
C353 H347 0.930 . S
C353 C349 1.400 . S
C353 C352 1.385 . S
C354 C352 1.478 . S
C354 C356 1.381 . S
C354 C360 1.383 . S
C355 C351 1.495 . S
C355 H361 0.959 . S
C355 H362 0.961 . S
C355 H363 0.960 . S
C356 C354 1.381 . S
C356 C357 1.394 . S
C356 H364 0.930 . S
C357 C356 1.394 . S
C357 C358 1.383 . S
C357 H365 0.929 . S
C358 C357 1.383 . S
C358 C359 1.377 . S
C359 H343 0.930 . S
C359 C358 1.377 . S
C359 C360 1.379 . S
C360 H344 0.931 . S
C360 C354 1.383 . S
C360 C359 1.379 . S
H361 C355 0.959 . S
H362 C355 0.961 . S
H363 C355 0.960 . S
H364 C356 0.930 . S
H365 C357 0.929 . S
H366 C374 0.929 . S
H367 C376 0.930 . S
H368 C378 0.930 . S
H369 C381 0.929 . S
H370 C384 0.930 . S
H371 C386 0.960 . S
H372 C386 0.960 . S
H373 C386 0.960 . S
C374 H366 0.929 . S
C374 C375 1.377 . S
C374 C376 1.384 . S
C375 C374 1.377 . S
C375 C381 1.390 . S
C376 H367 0.930 . S
C376 C374 1.384 . S
C376 C377 1.372 . S
C377 C376 1.372 . S
C377 C378 1.400 . S
C377 C382 1.490 . S
C378 H368 0.930 . S
C378 C377 1.400 . S
C378 C381 1.386 . S
H379 C395 0.930 . S
H380 C396 0.931 . S
C381 H369 0.929 . S
C381 C375 1.390 . S
C381 C378 1.386 . S
C382 C377 1.490 . S
C382 C384 1.395 . S
C382 C385 1.403 . S
H383 C389 0.930 . S
C384 H370 0.930 . S
C384 C382 1.395 . S
C384 C387 1.403 . S
C385 C382 1.403 . S
C385 C386 1.524 . S
C385 C389 1.400 . S
C386 H371 0.960 . S
C386 H372 0.960 . S
C386 H373 0.960 . S
C386 C385 1.524 . S
C387 C384 1.403 . S
C387 C388 1.392 . S
C387 C391 1.495 . S
C388 C387 1.392 . S
C388 C389 1.385 . S
C388 C390 1.478 . S
C389 H383 0.930 . S
C389 C385 1.400 . S
C389 C388 1.385 . S
C390 C388 1.478 . S
C390 C392 1.381 . S
C390 C396 1.383 . S
C391 C387 1.495 . S
C391 H397 0.959 . S
C391 H398 0.961 . S
C391 H399 0.960 . S
C392 C390 1.381 . S
C392 C393 1.394 . S
C392 H400 0.930 . S
C393 C392 1.394 . S
C393 C394 1.383 . S
C393 H401 0.929 . S
C394 C393 1.383 . S
C394 C395 1.377 . S
C395 H379 0.930 . S
C395 C394 1.377 . S
C395 C396 1.379 . S
C396 H380 0.931 . S
C396 C390 1.383 . S
C396 C395 1.379 . S
H397 C391 0.959 . S
H398 C391 0.961 . S
H399 C391 0.960 . S
H400 C392 0.930 . S
H401 C393 0.929 . S
H402 C410 0.929 . S
H403 C412 0.930 . S
H404 C414 0.930 . S
H405 C417 0.929 . S
H406 C420 0.930 . S
H407 C422 0.960 . S
H408 C422 0.960 . S
H409 C422 0.960 . S
C410 H402 0.929 . S
C410 C411 1.377 . S
C410 C412 1.384 . S
C411 C410 1.377 . S
C411 C417 1.390 . S
C412 H403 0.930 . S
C412 C410 1.384 . S
C412 C413 1.372 . S
C413 C412 1.372 . S
C413 C414 1.400 . S
C413 C418 1.490 . S
C414 H404 0.930 . S
C414 C413 1.400 . S
C414 C417 1.386 . S
H415 C431 0.930 . S
H416 C432 0.931 . S
C417 H405 0.929 . S
C417 C411 1.390 . S
C417 C414 1.386 . S
C418 C413 1.490 . S
C418 C420 1.395 . S
C418 C421 1.403 . S
H419 C425 0.930 . S
C420 H406 0.930 . S
C420 C418 1.395 . S
C420 C423 1.403 . S
C421 C418 1.403 . S
C421 C422 1.524 . S
C421 C425 1.400 . S
C422 H407 0.960 . S
C422 H408 0.960 . S
C422 H409 0.960 . S
C422 C421 1.524 . S
C423 C420 1.403 . S
C423 C424 1.392 . S
C423 C427 1.495 . S
C424 C423 1.392 . S
C424 C425 1.385 . S
C424 C426 1.478 . S
C425 H419 0.930 . S
C425 C421 1.400 . S
C425 C424 1.385 . S
C426 C424 1.478 . S
C426 C428 1.381 . S
C426 C432 1.383 . S
C427 C423 1.495 . S
C427 H433 0.959 . S
C427 H434 0.961 . S
C427 H435 0.960 . S
C428 C426 1.381 . S
C428 C429 1.394 . S
C428 H436 0.930 . S
C429 C428 1.394 . S
C429 C430 1.383 . S
C429 H437 0.929 . S
C430 C429 1.383 . S
C430 C431 1.377 . S
C431 H415 0.930 . S
C431 C430 1.377 . S
C431 C432 1.379 . S
C432 H416 0.931 . S
C432 C426 1.383 . S
C432 C431 1.379 . S
H433 C427 0.959 . S
H434 C427 0.961 . S
H435 C427 0.960 . S
H436 C428 0.930 . S
H437 C429 0.929 . S
H438 C446 0.929 . S
H439 C448 0.930 . S
H440 C450 0.930 . S
H441 C453 0.929 . S
H442 C456 0.930 . S
H443 C458 0.960 . S
H444 C458 0.960 . S
H445 C458 0.960 . S
C446 H438 0.929 . S
C446 C447 1.377 . S
C446 C448 1.384 . S
C447 C446 1.377 . S
C447 C453 1.390 . S
C448 H439 0.930 . S
C448 C446 1.384 . S
C448 C449 1.372 . S
C449 C448 1.372 . S
C449 C450 1.400 . S
C449 C454 1.490 . S
C450 H440 0.930 . S
C450 C449 1.400 . S
C450 C453 1.386 . S
H451 C467 0.930 . S
H452 C468 0.931 . S
C453 H441 0.929 . S
C453 C447 1.390 . S
C453 C450 1.386 . S
C454 C449 1.490 . S
C454 C456 1.395 . S
C454 C457 1.403 . S
H455 C461 0.930 . S
C456 H442 0.930 . S
C456 C454 1.395 . S
C456 C459 1.403 . S
C457 C454 1.403 . S
C457 C458 1.524 . S
C457 C461 1.400 . S
C458 H443 0.960 . S
C458 H444 0.960 . S
C458 H445 0.960 . S
C458 C457 1.524 . S
C459 C456 1.403 . S
C459 C460 1.392 . S
C459 C463 1.495 . S
C460 C459 1.392 . S
C460 C461 1.385 . S
C460 C462 1.478 . S
C461 H455 0.930 . S
C461 C457 1.400 . S
C461 C460 1.385 . S
C462 C460 1.478 . S
C462 C464 1.381 . S
C462 C468 1.383 . S
C463 C459 1.495 . S
C463 H469 0.959 . S
C463 H470 0.961 . S
C463 H471 0.960 . S
C464 C462 1.381 . S
C464 C465 1.394 . S
C464 H472 0.930 . S
C465 C464 1.394 . S
C465 C466 1.383 . S
C465 H473 0.929 . S
C466 C465 1.383 . S
C466 C467 1.377 . S
C467 H451 0.930 . S
C467 C466 1.377 . S
C467 C468 1.379 . S
C468 H452 0.931 . S
C468 C462 1.383 . S
C468 C467 1.379 . S
H469 C463 0.959 . S
H470 C463 0.961 . S
H471 C463 0.960 . S
H472 C464 0.930 . S
H473 C465 0.929 . S
H474 C482 0.929 . S
H475 C484 0.930 . S
H476 C486 0.930 . S
H477 C489 0.929 . S
H478 C492 0.930 . S
H479 C494 0.960 . S
H480 C494 0.960 . S
H481 C494 0.960 . S
C482 H474 0.929 . S
C482 C483 1.377 . S
C482 C484 1.384 . S
C483 C482 1.377 . S
C483 C489 1.390 . S
C484 H475 0.930 . S
C484 C482 1.384 . S
C484 C485 1.372 . S
C485 C484 1.372 . S
C485 C486 1.400 . S
C485 C490 1.490 . S
C486 H476 0.930 . S
C486 C485 1.400 . S
C486 C489 1.386 . S
H487 C503 0.930 . S
H488 C504 0.931 . S
C489 H477 0.929 . S
C489 C483 1.390 . S
C489 C486 1.386 . S
C490 C485 1.490 . S
C490 C492 1.395 . S
C490 C493 1.403 . S
H491 C497 0.930 . S
C492 H478 0.930 . S
C492 C490 1.395 . S
C492 C495 1.403 . S
C493 C490 1.403 . S
C493 C494 1.524 . S
C493 C497 1.400 . S
C494 H479 0.960 . S
C494 H480 0.960 . S
C494 H481 0.960 . S
C494 C493 1.524 . S
C495 C492 1.403 . S
C495 C496 1.392 . S
C495 C499 1.495 . S
C496 C495 1.392 . S
C496 C497 1.385 . S
C496 C498 1.478 . S
C497 H491 0.930 . S
C497 C493 1.400 . S
C497 C496 1.385 . S
C498 C496 1.478 . S
C498 C500 1.381 . S
C498 C504 1.383 . S
C499 C495 1.495 . S
C499 H505 0.959 . S
C499 H506 0.961 . S
C499 H507 0.960 . S
C500 C498 1.381 . S
C500 C501 1.395 1_565 S
C500 H508 0.930 . S
C501 C500 1.395 1_545 S
C501 C502 1.383 . S
C501 H509 0.928 . S
C502 C501 1.383 . S
C502 C503 1.377 1_545 S
C503 H487 0.930 . S
C503 C502 1.377 1_565 S
C503 C504 1.379 . S
C504 H488 0.931 . S
C504 C498 1.383 . S
C504 C503 1.379 . S
H505 C499 0.959 . S
H506 C499 0.961 . S
H507 C499 0.960 . S
H508 C500 0.930 . S
H509 C501 0.928 . S
H510 C518 0.929 . S
H511 C520 0.930 . S
H512 C522 0.930 . S
H513 C525 0.929 . S
H514 C528 0.930 . S
H515 C530 0.960 . S
H516 C530 0.960 . S
H517 C530 0.960 . S
C518 H510 0.929 . S
C518 C519 1.377 . S
C518 C520 1.384 . S
C519 C518 1.377 . S
C519 C525 1.390 . S
C520 H511 0.930 . S
C520 C518 1.384 . S
C520 C521 1.372 . S
C521 C520 1.372 . S
C521 C522 1.400 . S
C521 C526 1.490 . S
C522 H512 0.930 . S
C522 C521 1.400 . S
C522 C525 1.386 . S
H523 C539 0.930 . S
H524 C540 0.931 . S
C525 H513 0.929 . S
C525 C519 1.390 . S
C525 C522 1.386 . S
C526 C521 1.490 . S
C526 C528 1.395 . S
C526 C529 1.403 . S
H527 C533 0.930 . S
C528 H514 0.930 . S
C528 C526 1.395 . S
C528 C531 1.403 . S
C529 C526 1.403 . S
C529 C530 1.524 . S
C529 C533 1.400 . S
C530 H515 0.960 . S
C530 H516 0.960 . S
C530 H517 0.960 . S
C530 C529 1.524 . S
C531 C528 1.403 . S
C531 C532 1.392 . S
C531 C535 1.495 . S
C532 C531 1.392 . S
C532 C533 1.385 . S
C532 C534 1.478 . S
C533 H527 0.930 . S
C533 C529 1.400 . S
C533 C532 1.385 . S
C534 C532 1.478 . S
C534 C536 1.381 . S
C534 C540 1.383 . S
C535 C531 1.495 . S
C535 H541 0.959 . S
C535 H542 0.961 . S
C535 H543 0.960 . S
C536 C534 1.381 . S
C536 C537 1.394 . S
C536 H544 0.930 . S
C537 C536 1.394 . S
C537 C538 1.383 . S
C537 H545 0.929 . S
C538 C537 1.383 . S
C538 C539 1.377 . S
C539 H523 0.930 . S
C539 C538 1.377 . S
C539 C540 1.379 . S
C540 H524 0.931 . S
C540 C534 1.383 . S
C540 C539 1.379 . S
H541 C535 0.959 . S
H542 C535 0.961 . S
H543 C535 0.960 . S
H544 C536 0.930 . S
H545 C537 0.929 . S
H546 C554 0.929 . S
H547 C556 0.930 . S
H548 C558 0.930 . S
H549 C561 0.929 . S
H550 C564 0.930 . S
H551 C566 0.960 . S
H552 C566 0.960 . S
H553 C566 0.960 . S
C554 H546 0.929 . S
C554 C555 1.377 . S
C554 C556 1.384 . S
C555 C554 1.377 . S
C555 C561 1.390 . S
C556 H547 0.930 . S
C556 C554 1.384 . S
C556 C557 1.372 . S
C557 C556 1.372 . S
C557 C558 1.400 . S
C557 C562 1.490 . S
C558 H548 0.930 . S
C558 C557 1.400 . S
C558 C561 1.386 . S
H559 C575 0.930 . S
H560 C576 0.931 . S
C561 H549 0.929 . S
C561 C555 1.390 . S
C561 C558 1.386 . S
C562 C557 1.490 . S
C562 C564 1.395 . S
C562 C565 1.403 . S
H563 C569 0.930 . S
C564 H550 0.930 . S
C564 C562 1.395 . S
C564 C567 1.403 . S
C565 C562 1.403 . S
C565 C566 1.524 . S
C565 C569 1.400 . S
C566 H551 0.960 . S
C566 H552 0.960 . S
C566 H553 0.960 . S
C566 C565 1.524 . S
C567 C564 1.403 . S
C567 C568 1.392 . S
C567 C571 1.495 . S
C568 C567 1.392 . S
C568 C569 1.385 . S
C568 C570 1.478 . S
C569 H563 0.930 . S
C569 C565 1.400 . S
C569 C568 1.385 . S
C570 C568 1.478 . S
C570 C572 1.381 . S
C570 C576 1.383 . S
C571 C567 1.495 . S
C571 H577 0.959 . S
C571 H578 0.961 . S
C571 H579 0.960 . S
C572 C570 1.381 . S
C572 C573 1.394 . S
C572 H580 0.930 . S
C573 C572 1.394 . S
C573 C574 1.383 . S
C573 H581 0.929 . S
C574 C573 1.383 . S
C574 C575 1.377 . S
C575 H559 0.930 . S
C575 C574 1.377 . S
C575 C576 1.379 . S
C576 H560 0.931 . S
C576 C570 1.383 . S
C576 C575 1.379 . S
H577 C571 0.959 . S
H578 C571 0.961 . S
H579 C571 0.960 . S
H580 C572 0.930 . S
H581 C573 0.929 . S
H582 C590 0.929 . S
H583 C592 0.930 . S
H584 C594 0.930 . S
H585 C597 0.929 . S
H586 C600 0.930 . S
H587 C602 0.960 . S
H588 C602 0.960 . S
H589 C602 0.960 . S
C590 H582 0.929 . S
C590 C591 1.377 . S
C590 C592 1.384 . S
C591 C590 1.377 . S
C591 C597 1.390 . S
C592 H583 0.930 . S
C592 C590 1.384 . S
C592 C593 1.372 . S
C593 C592 1.372 . S
C593 C594 1.400 . S
C593 C598 1.490 . S
C594 H584 0.930 . S
C594 C593 1.400 . S
C594 C597 1.386 . S
H595 C611 0.930 . S
H596 C612 0.931 . S
C597 H585 0.929 . S
C597 C591 1.390 . S
C597 C594 1.386 . S
C598 C593 1.490 . S
C598 C600 1.395 . S
C598 C601 1.403 . S
H599 C605 0.930 . S
C600 H586 0.930 . S
C600 C598 1.395 . S
C600 C603 1.403 . S
C601 C598 1.403 . S
C601 C602 1.524 . S
C601 C605 1.400 . S
C602 H587 0.960 . S
C602 H588 0.960 . S
C602 H589 0.960 . S
C602 C601 1.524 . S
C603 C600 1.403 . S
C603 C604 1.392 . S
C603 C607 1.495 . S
C604 C603 1.392 . S
C604 C605 1.385 . S
C604 C606 1.478 . S
C605 H599 0.930 . S
C605 C601 1.400 . S
C605 C604 1.385 . S
C606 C604 1.478 . S
C606 C608 1.381 . S
C606 C612 1.383 . S
C607 C603 1.495 . S
C607 H613 0.959 . S
C607 H614 0.961 . S
C607 H615 0.960 . S
C608 C606 1.381 . S
C608 C609 1.394 . S
C608 H616 0.930 . S
C609 C608 1.394 . S
C609 C610 1.383 . S
C609 H617 0.929 . S
C610 C609 1.383 . S
C610 C611 1.377 . S
C611 H595 0.930 . S
C611 C610 1.377 . S
C611 C612 1.379 . S
C612 H596 0.931 . S
C612 C606 1.383 . S
C612 C611 1.379 . S
H613 C607 0.959 . S
H614 C607 0.961 . S
H615 C607 0.960 . S
H616 C608 0.930 . S
H617 C609 0.929 . S
H618 C626 0.929 . S
H619 C628 0.930 . S
H620 C630 0.930 . S
H621 C633 0.929 . S
H622 C636 0.930 . S
H623 C638 0.960 . S
H624 C638 0.960 . S
H625 C638 0.960 . S
C626 H618 0.929 . S
C626 C627 1.377 . S
C626 C628 1.384 . S
C627 C626 1.377 . S
C627 C633 1.390 1_455 S
C628 H619 0.930 . S
C628 C626 1.384 . S
C628 C629 1.372 . S
C629 C628 1.372 . S
C629 C630 1.400 1_455 S
C629 C634 1.490 . S
C630 H620 0.930 . S
C630 C629 1.400 1_655 S
C630 C633 1.386 . S
H631 C647 0.930 1_655 S
H632 C648 0.931 1_655 S
C633 H621 0.929 . S
C633 C627 1.390 1_655 S
C633 C630 1.386 . S
C634 C629 1.490 . S
C634 C636 1.395 . S
C634 C637 1.403 . S
H635 C641 0.930 . S
C636 H622 0.930 . S
C636 C634 1.395 . S
C636 C639 1.403 . S
C637 C634 1.403 . S
C637 C638 1.524 . S
C637 C641 1.400 1_554 S
C638 H623 0.960 . S
C638 H624 0.960 . S
C638 H625 0.960 . S
C638 C637 1.524 . S
C639 C636 1.403 . S
C639 C640 1.392 1_554 S
C639 C643 1.495 1_554 S
C640 C639 1.392 1_556 S
C640 C641 1.385 . S
C640 C642 1.478 . S
C641 H635 0.930 . S
C641 C637 1.400 1_556 S
C641 C640 1.385 . S
C642 C640 1.478 . S
C642 C644 1.381 . S
C642 C648 1.383 . S
C643 C639 1.495 1_556 S
C643 H649 0.959 1_556 S
C643 H650 0.961 . S
C643 H651 0.960 . S
C644 C642 1.381 . S
C644 C645 1.394 . S
C644 H652 0.930 . S
C645 C644 1.394 . S
C645 C646 1.383 . S
C645 H653 0.929 . S
C646 C645 1.383 . S
C646 C647 1.377 . S
C647 H631 0.930 1_455 S
C647 C646 1.377 . S
C647 C648 1.379 . S
C648 H632 0.931 1_455 S
C648 C642 1.383 . S
C648 C647 1.379 . S
H649 C643 0.959 1_554 S
H650 C643 0.961 . S
H651 C643 0.960 . S
H652 C644 0.930 . S
H653 C645 0.929 . S
H654 C662 0.929 . S
H655 C664 0.930 . S
H656 C666 0.930 . S
H657 C669 0.929 . S
H658 C672 0.930 . S
H659 C674 0.960 . S
H660 C674 0.960 . S
H661 C674 0.960 . S
C662 H654 0.929 . S
C662 C663 1.377 . S
C662 C664 1.384 . S
C663 C662 1.377 . S
C663 C669 1.390 . S
C664 H655 0.930 . S
C664 C662 1.384 . S
C664 C665 1.372 . S
C665 C664 1.372 . S
C665 C666 1.400 . S
C665 C670 1.490 . S
C666 H656 0.930 . S
C666 C665 1.400 . S
C666 C669 1.386 . S
H667 C683 0.930 . S
H668 C684 0.931 . S
C669 H657 0.929 . S
C669 C663 1.390 . S
C669 C666 1.386 . S
C670 C665 1.490 . S
C670 C672 1.395 . S
C670 C673 1.403 . S
H671 C677 0.930 . S
C672 H658 0.930 . S
C672 C670 1.395 . S
C672 C675 1.403 . S
C673 C670 1.403 . S
C673 C674 1.524 . S
C673 C677 1.400 . S
C674 H659 0.960 . S
C674 H660 0.960 . S
C674 H661 0.960 . S
C674 C673 1.524 . S
C675 C672 1.403 . S
C675 C676 1.392 . S
C675 C679 1.495 1_545 S
C676 C675 1.392 . S
C676 C677 1.385 . S
C676 C678 1.478 . S
C677 H671 0.930 . S
C677 C673 1.400 . S
C677 C676 1.385 . S
C678 C676 1.478 . S
C678 C680 1.381 . S
C678 C684 1.383 . S
C679 C675 1.495 1_565 S
C679 H685 0.959 . S
C679 H686 0.961 . S
C679 H687 0.960 . S
C680 C678 1.381 . S
C680 C681 1.394 . S
C680 H688 0.930 . S
C681 C680 1.394 . S
C681 C682 1.383 . S
C681 H689 0.929 . S
C682 C681 1.383 . S
C682 C683 1.377 . S
C683 H667 0.930 . S
C683 C682 1.377 . S
C683 C684 1.379 . S
C684 H668 0.931 . S
C684 C678 1.383 . S
C684 C683 1.379 . S
H685 C679 0.959 . S
H686 C679 0.961 . S
H687 C679 0.960 . S
H688 C680 0.930 . S
H689 C681 0.929 . S
H690 C698 0.929 . S
H691 C700 0.930 . S
H692 C702 0.930 . S
H693 C705 0.929 . S
H694 C708 0.930 . S
H695 C710 0.960 . S
H696 C710 0.960 . S
H697 C710 0.960 . S
C698 H690 0.929 . S
C698 C699 1.377 . S
C698 C700 1.384 . S
C699 C698 1.377 . S
C699 C705 1.390 . S
C700 H691 0.930 . S
C700 C698 1.384 . S
C700 C701 1.372 . S
C701 C700 1.372 . S
C701 C702 1.400 . S
C701 C706 1.490 . S
C702 H692 0.930 . S
C702 C701 1.400 . S
C702 C705 1.386 . S
H703 C719 0.930 . S
H704 C720 0.931 . S
C705 H693 0.929 . S
C705 C699 1.390 . S
C705 C702 1.386 . S
C706 C701 1.490 . S
C706 C708 1.395 . S
C706 C709 1.403 . S
H707 C713 0.930 . S
C708 H694 0.930 . S
C708 C706 1.395 . S
C708 C711 1.403 . S
C709 C706 1.403 . S
C709 C710 1.524 . S
C709 C713 1.400 . S
C710 H695 0.960 . S
C710 H696 0.960 . S
C710 H697 0.960 . S
C710 C709 1.524 . S
C711 C708 1.403 . S
C711 C712 1.392 . S
C711 C715 1.495 . S
C712 C711 1.392 . S
C712 C713 1.385 . S
C712 C714 1.478 . S
C713 H707 0.930 . S
C713 C709 1.400 . S
C713 C712 1.385 . S
C714 C712 1.478 . S
C714 C716 1.381 . S
C714 C720 1.383 . S
C715 C711 1.495 . S
C715 H721 0.959 . S
C715 H722 0.961 . S
C715 H723 0.960 . S
C716 C714 1.381 . S
C716 C717 1.394 . S
C716 H724 0.930 . S
C717 C716 1.394 . S
C717 C718 1.383 . S
C717 H725 0.929 . S
C718 C717 1.383 . S
C718 C719 1.377 . S
C719 H703 0.930 . S
C719 C718 1.377 . S
C719 C720 1.379 . S
C720 H704 0.931 . S
C720 C714 1.383 . S
C720 C719 1.379 . S
H721 C715 0.959 . S
H722 C715 0.961 . S
H723 C715 0.960 . S
H724 C716 0.930 . S
H725 C717 0.929 . S
H726 C734 0.929 . S
H727 C736 0.930 . S
H728 C738 0.930 . S
H729 C741 0.929 . S
H730 C744 0.930 1_565 S
H731 C746 0.960 . S
H732 C746 0.960 . S
H733 C746 0.960 . S
C734 H726 0.929 . S
C734 C735 1.377 . S
C734 C736 1.384 . S
C735 C734 1.377 . S
C735 C741 1.390 . S
C736 H727 0.930 . S
C736 C734 1.384 . S
C736 C737 1.372 . S
C737 C736 1.372 . S
C737 C738 1.400 . S
C737 C742 1.490 . S
C738 H728 0.930 . S
C738 C737 1.400 . S
C738 C741 1.386 . S
H739 C755 0.930 . S
H740 C756 0.931 . S
C741 H729 0.929 . S
C741 C735 1.390 . S
C741 C738 1.386 . S
C742 C737 1.490 . S
C742 C744 1.395 . S
C742 C745 1.403 . S
H743 C749 0.930 . S
C744 H730 0.930 1_545 S
C744 C742 1.395 . S
C744 C747 1.405 . S
C745 C742 1.403 . S
C745 C746 1.524 . S
C745 C749 1.400 . S
C746 H731 0.960 . S
C746 H732 0.960 . S
C746 H733 0.960 . S
C746 C745 1.524 . S
C747 C744 1.405 . S
C747 C748 1.397 . S
C747 C751 1.489 1_545 S
C748 C747 1.397 . S
C748 C749 1.385 . S
C748 C750 1.478 . S
C749 H743 0.930 . S
C749 C745 1.400 . S
C749 C748 1.385 . S
C750 C748 1.478 . S
C750 C752 1.381 . S
C750 C756 1.383 . S
C751 C747 1.489 1_565 S
C751 H757 0.959 . S
C751 H758 0.961 . S
C751 H759 0.960 . S
C752 C750 1.381 . S
C752 C753 1.394 . S
C752 H760 0.930 . S
C753 C752 1.394 . S
C753 C754 1.383 . S
C753 H761 0.929 . S
C754 C753 1.383 . S
C754 C755 1.377 . S
C755 H739 0.930 . S
C755 C754 1.377 . S
C755 C756 1.379 . S
C756 H740 0.931 . S
C756 C750 1.383 . S
C756 C755 1.379 . S
H757 C751 0.959 . S
H758 C751 0.961 . S
H759 C751 0.960 . S
H760 C752 0.930 . S
H761 C753 0.929 . S
H762 C770 0.929 . S
H763 C772 0.930 . S
H764 C774 0.930 . S
H765 C777 0.929 . S
H766 C780 0.930 . S
H767 C782 0.960 . S
H768 C782 0.960 . S
H769 C782 0.960 . S
C770 H762 0.929 . S
C770 C771 1.377 . S
C770 C772 1.384 . S
C771 C770 1.377 . S
C771 C777 1.390 . S
C772 H763 0.930 . S
C772 C770 1.384 . S
C772 C773 1.372 . S
C773 C772 1.372 . S
C773 C774 1.400 . S
C773 C778 1.490 . S
C774 H764 0.930 . S
C774 C773 1.400 . S
C774 C777 1.386 . S
H775 C791 0.930 . S
H776 C792 0.931 . S
C777 H765 0.929 . S
C777 C771 1.390 . S
C777 C774 1.386 . S
C778 C773 1.490 . S
C778 C780 1.395 . S
C778 C781 1.403 . S
H779 C785 0.930 . S
C780 H766 0.930 . S
C780 C778 1.395 . S
C780 C783 1.403 1_556 S
C781 C778 1.403 . S
C781 C782 1.524 . S
C781 C785 1.400 1_556 S
C782 H767 0.960 . S
C782 H768 0.960 . S
C782 H769 0.960 . S
C782 C781 1.524 . S
C783 C780 1.403 1_554 S
C783 C784 1.392 . S
C783 C787 1.495 . S
C784 C783 1.392 . S
C784 C785 1.385 . S
C784 C786 1.478 . S
C785 H779 0.930 . S
C785 C781 1.400 1_554 S
C785 C784 1.385 . S
C786 C784 1.478 . S
C786 C788 1.381 . S
C786 C792 1.383 . S
C787 C783 1.495 . S
C787 H793 0.917 1_554 S
C787 H794 0.961 . S
C787 H795 0.960 . S
C788 C786 1.381 . S
C788 C789 1.394 . S
C788 H796 0.930 . S
C789 C788 1.394 . S
C789 C790 1.383 . S
C789 H797 0.929 . S
C790 C789 1.383 . S
C790 C791 1.377 . S
C791 H775 0.930 . S
C791 C790 1.377 . S
C791 C792 1.379 . S
C792 H776 0.931 . S
C792 C786 1.383 . S
C792 C791 1.379 . S
H793 C787 0.917 1_556 S
H794 C787 0.961 . S
H795 C787 0.960 . S
H796 C788 0.930 . S
H797 C789 0.929 . S
H798 C806 0.929 . S
H799 C808 0.930 . S
H800 C810 0.930 . S
H801 C813 0.929 . S
H802 C816 0.930 . S
H803 C818 0.960 . S
H804 C818 0.960 . S
H805 C818 0.960 . S
C806 H798 0.929 . S
C806 C807 1.377 . S
C806 C808 1.384 . S
C807 C806 1.377 . S
C807 C813 1.390 1_455 S
C808 H799 0.930 . S
C808 C806 1.384 . S
C808 C809 1.372 . S
C809 C808 1.372 . S
C809 C810 1.400 1_455 S
C809 C814 1.490 . S
C810 H800 0.930 . S
C810 C809 1.400 1_655 S
C810 C813 1.386 . S
H811 C827 0.930 . S
H812 C828 0.931 . S
C813 H801 0.929 . S
C813 C807 1.390 1_655 S
C813 C810 1.386 . S
C814 C809 1.490 . S
C814 C816 1.395 . S
C814 C817 1.403 1_455 S
H815 C821 0.930 . S
C816 H802 0.930 . S
C816 C814 1.395 . S
C816 C819 1.403 . S
C817 C814 1.403 1_655 S
C817 C818 1.524 . S
C817 C821 1.400 . S
C818 H803 0.960 . S
C818 H804 0.960 . S
C818 H805 0.960 . S
C818 C817 1.524 . S
C819 C816 1.403 . S
C819 C820 1.392 . S
C819 C823 1.495 . S
C820 C819 1.392 . S
C820 C821 1.385 1_455 S
C820 C822 1.478 . S
C821 H815 0.930 . S
C821 C817 1.400 . S
C821 C820 1.385 1_655 S
C822 C820 1.478 . S
C822 C824 1.381 . S
C822 C828 1.383 1_455 S
C823 C819 1.495 . S
C823 H829 0.959 . S
C823 H830 0.961 . S
C823 H831 0.960 . S
C824 C822 1.381 . S
C824 C825 1.394 . S
C824 H832 0.930 . S
C825 C824 1.394 . S
C825 C826 1.383 . S
C825 H833 0.929 . S
C826 C825 1.383 . S
C826 C827 1.377 1_455 S
C827 H811 0.930 . S
C827 C826 1.377 1_655 S
C827 C828 1.379 . S
C828 H812 0.931 . S
C828 C822 1.383 1_655 S
C828 C827 1.379 . S
H829 C823 0.959 . S
H830 C823 0.961 . S
H831 C823 0.960 . S
H832 C824 0.930 . S
H833 C825 0.929 . S
C195 C19 1.932 . S
C214 C185 1.879 . S
C231 C46 1.239 . S
C250 C163 1.212 . S
C267 C95 0.386 . S
C286 C174 0.352 . S
C303 C10 1.827 . S
C322 C179 1.803 . S
C358 C157 1.088 . S
C339 C55 1.108 . S
C394 C168 0.296 . S
C375 C86 0.328 . S
C411 C59 3.159 . S
C430 C141 3.090 . S
C447 C90 1.856 . S
C466 C146 1.829 . S
C483 C15 1.105 . S
C502 C124 1.080 . S
C538 C135 2.848 . S
C519 C50 2.872 . S
C574 C152 1.859 . S
C555 C99 1.919 . S
C591 C6 1.255 . S
C610 C130 1.256 . S
C646 C147 1.482 . S
C627 C9 1.424 . S
C663 C58 1.520 . S
C682 C125 1.526 . S
C699 C98 1.660 . S
C718 C136 1.734 . S
C754 C169 1.280 . S
C735 C49 1.231 . S
C790 C180 1.469 . S
C771 C89 1.434 . S
C807 C18 1.517 . S
C826 C158 1.516 . S
