# Generated by pormake.
# Topology pyr, (3,6)-cn, num edge types: 1
# Building blocks:
#     Node 0, Type 0, BuildingBlock: PAMTOO_clean_linker_0, # of connection points: 3
#     Node 1, Type 0, BuildingBlock: PAMTOO_clean_linker_0, # of connection points: 3
#     Node 2, Type 0, BuildingBlock: PAMTOO_clean_linker_0, # of connection points: 3
#     Node 3, Type 0, BuildingBlock: PAMTOO_clean_linker_0, # of connection points: 3
#     Node 4, Type 0, BuildingBlock: PAMTOO_clean_linker_0, # of connection points: 3
#     Node 5, Type 0, BuildingBlock: PAMTOO_clean_linker_0, # of connection points: 3
#     Node 6, Type 0, BuildingBlock: PAMTOO_clean_linker_0, # of connection points: 3
#     Node 7, Type 0, BuildingBlock: PAMTOO_clean_linker_0, # of connection points: 3
#     Node 8, Type 1, BuildingBlock: BETFAJ_clean_sbu_0, # of connection points: 6
#     Node 9, Type 1, BuildingBlock: BETFAJ_clean_sbu_0, # of connection points: 6
#     Node 10, Type 1, BuildingBlock: BETFAJ_clean_sbu_0, # of connection points: 6
#     Node 11, Type 1, BuildingBlock: BETFAJ_clean_sbu_0, # of connection points: 6
#     Edge 12, Type (0, 1), BuildingBlock: AJUNOK_clean_linker_0, # of connection points: 2
#     Edge 13, Type (0, 1), BuildingBlock: AJUNOK_clean_linker_0, # of connection points: 2
#     Edge 14, Type (0, 1), BuildingBlock: AJUNOK_clean_linker_0, # of connection points: 2
#     Edge 15, Type (0, 1), BuildingBlock: AJUNOK_clean_linker_0, # of connection points: 2
#     Edge 16, Type (0, 1), BuildingBlock: AJUNOK_clean_linker_0, # of connection points: 2
#     Edge 17, Type (0, 1), BuildingBlock: AJUNOK_clean_linker_0, # of connection points: 2
#     Edge 18, Type (0, 1), BuildingBlock: AJUNOK_clean_linker_0, # of connection points: 2
#     Edge 19, Type (0, 1), BuildingBlock: AJUNOK_clean_linker_0, # of connection points: 2
#     Edge 20, Type (0, 1), BuildingBlock: AJUNOK_clean_linker_0, # of connection points: 2
#     Edge 21, Type (0, 1), BuildingBlock: AJUNOK_clean_linker_0, # of connection points: 2
#     Edge 22, Type (0, 1), BuildingBlock: AJUNOK_clean_linker_0, # of connection points: 2
#     Edge 23, Type (0, 1), BuildingBlock: AJUNOK_clean_linker_0, # of connection points: 2
#     Edge 24, Type (0, 1), BuildingBlock: AJUNOK_clean_linker_0, # of connection points: 2
#     Edge 25, Type (0, 1), BuildingBlock: AJUNOK_clean_linker_0, # of connection points: 2
#     Edge 26, Type (0, 1), BuildingBlock: AJUNOK_clean_linker_0, # of connection points: 2
#     Edge 27, Type (0, 1), BuildingBlock: AJUNOK_clean_linker_0, # of connection points: 2
#     Edge 28, Type (0, 1), BuildingBlock: AJUNOK_clean_linker_0, # of connection points: 2
#     Edge 29, Type (0, 1), BuildingBlock: AJUNOK_clean_linker_0, # of connection points: 2
#     Edge 30, Type (0, 1), BuildingBlock: AJUNOK_clean_linker_0, # of connection points: 2
#     Edge 31, Type (0, 1), BuildingBlock: AJUNOK_clean_linker_0, # of connection points: 2
#     Edge 32, Type (0, 1), BuildingBlock: AJUNOK_clean_linker_0, # of connection points: 2
#     Edge 33, Type (0, 1), BuildingBlock: AJUNOK_clean_linker_0, # of connection points: 2
#     Edge 34, Type (0, 1), BuildingBlock: AJUNOK_clean_linker_0, # of connection points: 2
#     Edge 35, Type (0, 1), BuildingBlock: AJUNOK_clean_linker_0, # of connection points: 2
# Relax obj value: 0.257
# Max RMSD: 0.242
# Mean RMSD: 0.154
data_MOF--net-pyr--node1-BETFAJ_clean_sbu_0--node2-PAMTOO_clean_linker_0--edge1-AJUNOK_clean_linker_0
_symmetry_space_group_name_H-M    P1
_symmetry_Int_Tables_number       1
_symmetry_cell_setting            triclinic
loop_
_symmetry_equiv_pos_as_xyz
'x, y, z'
_cell_length_a     27.364807
_cell_length_b     30.105664
_cell_length_c     27.09461
_cell_angle_alpha  92.418346
_cell_angle_beta   89.384941
_cell_angle_gamma 108.49105
loop_
_atom_site_label
_atom_site_type_symbol
_atom_site_fract_x
_atom_site_fract_y
_atom_site_fract_z
_atom_type_partial_charge
H0 H 0.3373 0.38277 0.30037 0.0
H1 H 0.39799 0.26802 0.30074 0.0
H2 H 0.46157 0.38042 0.2028 0.0
H3 H 0.49739 0.28469 0.29375 0.0
C4 C 0.50629 0.29265 0.25429 0.0
O5 O 0.46462 0.29885 0.23084 0.0
H6 H 0.53945 0.32552 0.25277 0.0
C7 C 0.36685 0.36764 0.2887 0.0
C8 C 0.40122 0.38835 0.2512 0.0
C9 C 0.36495 0.32428 0.30648 0.0
C10 C 0.39963 0.30213 0.28809 0.0
C11 C 0.43542 0.32303 0.25183 0.0
C12 C 0.43631 0.36613 0.23327 0.0
H13 H 0.29183 0.99433 0.67904 0.0
H14 H 0.30611 0.96518 0.52329 0.0
H15 H 0.37173 0.89879 0.62918 0.0
H16 H 0.42388 0.95119 0.52233 0.0
C17 C 0.40198 0.91319 0.51684 0.0
O18 O 0.35262 0.90368 0.53508 0.0
H19 H 0.3997 0.90494 0.47645 0.0
C20 C 0.30533 0.97633 0.64904 0.0
C21 C 0.33504 0.94753 0.65982 0.0
C22 C 0.29353 0.98243 0.59995 0.0
C23 C 0.31279 0.95986 0.56159 0.0
C24 C 0.33968 0.92902 0.5722 0.0
C25 C 0.35057 0.92258 0.62124 0.0
H26 H 0.77818 0.35607 0.97983 0.0
H27 H 0.66243 0.3409 0.86826 0.0
H28 H 0.78822 0.46969 0.8841 0.0
H29 H 0.6874 0.47879 0.86036 0.0
C30 C 0.67644 0.45265 0.82883 0.0
O31 O 0.70851 0.4245 0.82899 0.0
H32 H 0.63618 0.4303 0.83547 0.0
C33 C 0.76258 0.37083 0.9505 0.0
C34 C 0.78879 0.4172 0.93655 0.0
C35 C 0.71649 0.34273 0.92721 0.0
C36 C 0.69712 0.36193 0.8874 0.0
C37 C 0.72357 0.40767 0.87097 0.0
C38 C 0.76872 0.43471 0.89629 0.0
H39 H 0.90329 0.79063 0.49265 0.0
H40 H 0.89716 0.67999 0.38445 0.0
H41 H 1.02185 0.81085 0.38195 0.0
H42 H 0.99502 0.76265 0.27842 0.0
C43 C 0.97691 0.72588 0.28938 0.0
O44 O 0.98485 0.72397 0.34015 0.0
H45 H 0.93491 0.717 0.28202 0.0
C46 C 0.91969 0.77762 0.46075 0.0
C47 C 0.96534 0.80702 0.44004 0.0
C48 C 0.89441 0.73198 0.44125 0.0
C49 C 0.91548 0.71538 0.39908 0.0
C50 C 0.96165 0.74331 0.3771 0.0
C51 C 0.98605 0.78944 0.39775 0.0
H52 H 0.78465 0.92632 0.90623 0.0
H53 H 0.70074 0.8627 1.03451 0.0
H54 H 0.83751 0.83224 0.98948 0.0
H55 H 0.71622 0.75263 1.01932 0.0
C56 C 0.74624 0.76579 1.04859 0.0
O57 O 0.76183 0.81415 1.0531 0.0
H58 H 0.72819 0.75131 0.08381 0.0
C59 C 0.77909 0.90245 0.9362 0.0
C60 C 0.81475 0.87849 0.94298 0.0
C61 C 0.73792 0.89768 0.96917 0.0
C62 C 0.73106 0.86607 1.00753 0.0
C63 C 0.76627 0.84165 1.01404 0.0
C64 C 0.80861 0.84882 0.98249 0.0
H65 H 0.80301 0.10688 0.51619 0.0
H66 H 0.75658 0.23031 0.53341 0.0
H67 H 0.84378 0.19651 0.64771 0.0
H68 H 0.86965 0.29349 0.59319 0.0
C69 C 0.83694 0.2975 0.61583 0.0
O70 O 0.79864 0.25517 0.62108 0.0
H71 H 0.85317 0.3113 0.65287 0.0
C72 C 0.80045 0.13663 0.53879 0.0
C73 C 0.82509 0.1467 0.58516 0.0
C74 C 0.77664 0.16704 0.51934 0.0
C75 C 0.77447 0.20627 0.54805 0.0
C76 C 0.79777 0.21591 0.59473 0.0
C77 C 0.82309 0.18644 0.61304 0.0
H78 H 0.40186 0.80928 0.15609 0.0
H79 H 0.39383 0.69576 0.25195 0.0
H80 H 0.5167 0.82604 0.26915 0.0
H81 H 0.54977 0.74963 0.30373 0.0
C82 C 0.51215 0.72177 0.30802 0.0
O83 O 0.47308 0.74251 0.30764 0.0
H84 H 0.5076 0.69768 0.27494 0.0
C85 C 0.41708 0.795 0.18617 0.0
C86 C 0.46325 0.82318 0.20948 0.0
C87 C 0.39069 0.74877 0.20083 0.0
C88 C 0.412 0.73117 0.24041 0.0
C89 C 0.45683 0.75885 0.26596 0.0
C90 C 0.48225 0.80466 0.24987 0.0
H91 H 0.12789 0.36766 0.81764 0.0
H92 H 0.25917 0.49309 0.80051 0.0
H93 H 0.23701 0.3759 0.69939 0.0
H94 H 0.34133 0.4209 0.7224 0.0
C95 C 0.34299 0.45818 0.72784 0.0
O96 O 0.29417 0.4617 0.72079 0.0
H97 H 0.35481 0.46888 0.76679 0.0
C98 C 0.16296 0.387 0.79922 0.0
C99 C 0.17975 0.36501 0.75712 0.0
C100 C 0.19039 0.43455 0.81558 0.0
C101 C 0.23586 0.45794 0.7891 0.0
C102 C 0.2522 0.4371 0.74732 0.0
C103 C 0.22388 0.39134 0.73168 0.0
Sm104 Sm 0.06505 0.1062 0.55764 0.0
Sm105 Sm 0.07968 1.05969 0.65122 0.0
C106 C 0.0473 0.15766 0.48835 0.0
C107 C 0.08692 0.1957 0.46522 0.0
C108 C 0.08566 0.20061 0.41415 0.0
C109 C 0.13051 0.22525 0.38944 0.0
C110 C 0.1771 0.24455 0.41558 0.0
C111 C 0.17705 0.24304 0.46721 0.0
C112 C 0.13232 0.2187 0.49186 0.0
C113 C 0.16027 0.09434 0.56513 0.0
C114 C 0.1044 0.17357 0.66061 0.0
C115 C 0.10256 1.01081 0.72124 0.0
C116 C 0.07046 0.97413 0.75238 0.0
C117 C 0.08101 0.977 0.80312 0.0
C118 C 0.04339 0.95235 0.83581 0.0
C119 C 0.99507 0.92419 0.81797 0.0
C120 C 0.98635 0.91772 0.76686 0.0
C121 C 1.02376 0.94284 0.73417 0.0
C122 C 0.98243 1.06689 0.63912 0.0
C123 C 0.03883 0.99295 0.54753 0.0
O124 O 0.03804 0.16474 0.53504 0.0
O125 O 0.0527 0.11659 0.47891 0.0
O126 O 0.13599 0.10642 0.60007 0.0
O127 O 0.13711 0.09378 0.52369 0.0
O128 O 0.0797 0.16788 0.6177 0.0
O129 O 0.11637 0.13792 0.67839 0.0
O130 O 0.1049 1.00016 0.67415 0.0
O131 O 0.09633 1.05169 0.72946 0.0
O132 O 1.01015 1.05664 0.60668 0.0
O133 O 1.0038 1.07004 0.68212 0.0
O134 O 0.06373 0.99789 0.59046 0.0
O135 O 1.02651 1.02874 0.53061 0.0
H136 H 0.05117 0.18258 0.39299 0.0
H137 H 0.12941 0.22714 0.34965 0.0
H138 H 0.2124 0.25776 0.48819 0.0
H139 H 0.13446 0.21465 0.53125 0.0
H140 H 0.1166 1.00133 0.81781 0.0
H141 H 0.05057 0.95796 0.87519 0.0
H142 H 0.94901 0.89665 0.75251 0.0
H143 H 1.01451 0.94061 0.69516 0.0
Sm144 Sm 0.63923 0.09631 0.09658 0.0
Sm145 Sm 0.54608 1.07432 1.05301 0.0
C146 C 0.72419 0.13197 0.15022 0.0
C147 C 0.73046 0.13669 0.20406 0.0
C148 C 0.77947 0.15447 0.22552 0.0
C149 C 0.7847 0.15893 0.27697 0.0
C150 C 0.74094 0.14551 0.30754 0.0
C151 C 0.69189 0.12791 0.28571 0.0
C152 C 0.68672 0.1234 0.23439 0.0
C153 C 0.57589 1.00872 0.12744 0.0
C154 C 0.55692 0.14125 0.14641 0.0
C155 C 0.4567 1.03293 1.00732 0.0
C156 C 0.43747 1.01197 0.95848 0.0
C157 C 0.39805 1.02461 0.93639 0.0
C158 C 0.38041 1.00698 0.8892 0.0
C159 C 0.40175 0.97615 0.86327 0.0
C160 C 0.44028 0.96238 0.88604 0.0
C161 C 0.45825 0.98038 0.93322 0.0
C162 C 0.60913 0.16099 1.01955 0.0
C163 C 0.63422 1.03536 1.00257 0.0
O164 O 0.69886 0.15745 0.13166 0.0
O165 O 0.70925 0.0891 0.13179 0.0
O166 O 0.56191 1.04518 0.12525 0.0
O167 O 0.62282 1.01835 0.11232 0.0
O168 O 0.60557 0.14837 0.13638 0.0
O169 O 0.52208 0.10612 0.1239 0.0
O170 O 0.48028 1.01075 1.03372 0.0
O171 O 0.47889 0.07815 1.00982 0.0
O172 O 0.6233 0.1248 1.02361 0.0
O173 O 0.56188 0.15179 1.03402 0.0
O174 O 0.58482 1.02477 1.0126 0.0
O175 O 0.66595 1.07346 1.02335 0.0
H176 H 0.81356 0.16487 0.20257 0.0
H177 H 0.82296 0.1725 0.29292 0.0
H178 H 0.65751 0.11821 0.30828 0.0
H179 H 0.64851 0.10973 0.21828 0.0
H180 H 0.38151 1.04887 0.95533 0.0
H181 H 0.35103 1.01854 0.87241 0.0
H182 H 0.45678 0.93806 0.86725 0.0
H183 H 0.48868 0.96998 0.94961 0.0
Sm184 Sm 0.60021 0.55153 0.53625 0.0
Sm185 Sm 0.61332 0.63472 0.59783 0.0
C186 C 0.62138 0.48205 0.48742 0.0
C187 C 0.65827 0.45799 0.49985 0.0
C188 C 0.70017 0.48093 0.53103 0.0
C189 C 0.73283 0.45723 0.5471 0.0
C190 C 0.72461 0.41045 0.53166 0.0
C191 C 0.68364 0.38781 0.49929 0.0
C192 C 0.65041 0.41145 0.48364 0.0
C193 C 0.51158 0.54599 0.59015 0.0
C194 C 0.64537 0.55297 0.65139 0.0
C195 C 0.59679 0.70717 0.64585 0.0
C196 C 0.56765 0.73799 0.63134 0.0
C197 C 0.52916 0.72195 0.59512 0.0
C198 C 0.50275 0.75113 0.57891 0.0
C199 C 0.51255 0.7965 0.60007 0.0
C200 C 0.551 0.81264 0.63667 0.0
C201 C 0.5786 0.78357 0.65203 0.0
C202 C 0.70385 0.63829 0.54919 0.0
C203 C 0.56208 0.62889 0.48316 0.0
O204 O 0.64197 0.52597 0.47679 0.0
O205 O 0.58198 0.47534 0.51707 0.0
O206 O 0.55754 0.56202 0.60558 0.0
O207 O 0.5112 0.53177 0.54401 0.0
O208 O 0.64064 0.53403 0.60588 0.0
O209 O 0.63472 0.59257 0.65971 0.0
O210 O 0.56903 0.66367 0.65203 0.0
O211 O 0.6388 0.71063 0.62083 0.0
O212 O 0.65901 0.62431 0.53009 0.0
O213 O 0.70109 0.64987 0.59569 0.0
O214 O 0.57256 0.65112 0.52708 0.0
O215 O 0.57065 0.58843 0.47588 0.0
H216 H 0.70714 0.517 0.54375 0.0
H217 H 0.76421 0.47526 0.57204 0.0
H218 H 0.67638 0.35145 0.48747 0.0
H219 H 0.6181 0.3932 0.45984 0.0
H220 H 0.51934 0.68672 0.57915 0.0
H221 H 0.47483 0.7381 0.54942 0.0
H222 H 0.55948 0.84754 0.65351 0.0
H223 H 0.60829 0.79657 0.67999 0.0
Sm224 Sm 0.09061 0.54303 0.09258 0.0
Sm225 Sm 0.09546 0.61534 1.03088 0.0
C226 C 0.11536 0.47635 0.13698 0.0
C227 C 0.16503 0.47266 0.153 0.0
C228 C 0.20531 0.51264 0.16885 0.0
C229 C 0.25437 0.50983 0.17793 0.0
C230 C 0.2637 0.46664 0.17236 0.0
C231 C 0.22294 0.42653 0.15715 0.0
C232 C 0.17421 0.42961 0.14723 0.0
C233 C 0.04442 0.60311 0.14102 0.0
C234 C 0.1973 0.63608 0.09739 0.0
C235 C 0.072 0.68246 0.98571 0.0
C236 C 1.02439 0.69565 0.98535 0.0
C237 C 0.97601 0.66182 0.97629 0.0
C238 C 0.93072 0.67321 0.98396 0.0
C239 C 0.93296 0.71845 1.00119 0.0
C240 C 0.9813 0.75285 1.00783 0.0
C241 C 1.0266 0.74152 1.0 0.0
C242 C 0.13689 0.5515 0.98105 0.0
C243 C 0.98669 0.52614 1.03173 0.0
O244 O 0.11018 0.47693 0.0893 0.0
O245 O 0.0983 0.50702 0.16083 0.0
O246 O 0.0857 0.61592 0.11542 0.0
O247 O 1.02597 0.55756 0.13966 0.0
O248 O 0.17416 0.59248 0.10961 0.0
O249 O 0.17492 0.65541 0.06574 0.0
O250 O 0.09585 0.68916 1.0281 0.0
O251 O 0.07042 0.64262 0.96373 0.0
O252 O 0.09676 0.54107 1.00807 0.0
O253 O 0.15667 0.59692 0.98121 0.0
O254 O 1.00875 0.57072 1.02242 0.0
O255 O 1.01157 0.50412 1.05755 0.0
H256 H 0.19911 0.54618 0.17371 0.0
H257 H 0.28492 0.54147 0.18902 0.0
H258 H 0.22854 0.3925 0.15344 0.0
H259 H 0.1438 0.39844 0.13455 0.0
H260 H 0.97296 0.62611 0.965 0.0
H261 H 0.89391 0.64613 0.97843 0.0
H262 H 0.98401 0.78826 1.02016 0.0
H263 H 0.06339 0.76817 1.00722 0.0
C264 C 0.30825 0.32487 0.37894 0.0
C265 C 0.32121 0.30017 0.33832 0.0
C266 C 0.2617 0.30654 0.40401 0.0
C267 C 0.22647 0.26296 0.38918 0.0
H268 H 0.33356 0.35935 0.39035 0.0
H269 H 0.2526 0.32718 0.43433 0.0
S270 S 0.24413 0.18263 0.28787 0.0
N271 N 0.29624 0.22896 0.28587 0.0
N272 N 0.20948 0.1937 0.33421 0.0
C273 C 0.23998 0.23696 0.35007 0.0
C274 C 0.28728 0.25568 0.32444 0.0
C275 C 0.31628 0.93925 0.75001 0.0
C276 C 0.35211 0.94631 0.71123 0.0
C277 C 0.33258 0.94629 0.79934 0.0
C278 C 0.3853 0.96091 0.81163 0.0
H279 H 0.27545 0.92985 0.74208 0.0
H280 H 0.30376 0.94189 0.82805 0.0
S281 S 0.49428 0.98203 0.72348 0.0
N282 N 0.44233 0.96635 0.68815 0.0
N283 N 0.47314 0.98022 0.7809 0.0
C284 C 0.42138 0.96575 0.7732 0.0
C285 C 0.40472 0.9583 0.72296 0.0
C286 C 0.68224 0.52712 0.78243 0.0
C287 C 0.67701 0.47872 0.78028 0.0
C288 C 0.67358 0.55079 0.74081 0.0
C289 C 0.65919 0.52764 0.69421 0.0
H290 H 0.69143 0.54682 0.81733 0.0
H291 H 0.67717 0.58758 0.74566 0.0
S292 S 0.63869 0.40058 0.66803 0.0
N293 N 0.6554 0.4085 0.72697 0.0
N294 N 0.64014 0.45242 0.64911 0.0
C295 C 0.65484 0.47937 0.69119 0.0
C296 C 0.66329 0.45519 0.73385 0.0
C297 C 0.04047 0.71077 0.22398 0.0
C298 C 0.99805 0.69272 0.25596 0.0
C299 C 0.05533 0.68213 0.18744 0.0
C300 C 1.02848 0.63371 0.18047 0.0
H301 H 0.06172 0.74787 0.22627 0.0
H302 H 0.08787 0.69834 0.16399 0.0
S303 S 0.91495 0.56839 0.25463 0.0
N304 N 0.93011 0.62262 0.27804 0.0
N305 N 0.9572 0.56928 0.21038 0.0
C306 C 0.9865 0.61515 0.21281 0.0
C307 C 0.97164 0.6443 0.25007 0.0
C308 C 0.56905 0.25726 0.21329 0.0
C309 C 0.51872 0.25186 0.22939 0.0
C310 C 0.58097 0.22058 0.18804 0.0
C311 C 0.54295 0.17703 0.17755 0.0
H312 H 0.59934 0.29037 0.2195 0.0
H313 H 0.62026 0.22713 0.17548 0.0
S314 S 0.40613 0.14383 0.21635 0.0
N315 N 0.43132 0.19875 0.23698 0.0
N316 N 0.45346 0.12982 0.18833 0.0
C317 C 0.49276 0.17061 0.19503 0.0
C318 C 0.48077 0.20797 0.22135 0.0
C319 C 0.26608 1.05384 0.61662 0.0
C320 C 0.26039 1.01161 0.58915 0.0
C321 C 0.23365 0.08072 0.60858 0.0
C322 C 0.19564 1.06714 0.57173 0.0
H323 H 0.29573 1.06624 0.64467 0.0
H324 H 0.23858 0.11248 0.63106 0.0
S325 S 0.16238 0.95873 0.49152 0.0
N326 N 0.21057 0.95606 0.52608 0.0
N327 N 0.15297 1.00873 0.50814 0.0
C328 C 0.18986 1.02555 0.5435 0.0
C329 C 0.22146 0.99729 0.55286 0.0
C330 C 0.87906 0.47692 0.93599 0.0
C331 C 0.83815 0.44657 0.96273 0.0
C332 C 0.926 0.50337 0.9589 0.0
C333 C 0.93514 0.5 1.00944 0.0
H334 H 0.87549 0.47967 0.89659 0.0
H335 H 0.95612 0.52561 0.93636 0.0
S336 S 0.84047 0.43072 0.09831 0.0
N337 N 0.80941 0.41953 1.04497 0.0
N338 N 0.89865 0.46638 0.08638 0.0
C339 C 0.89486 0.47065 1.03697 0.0
C340 C 0.84634 0.44474 1.01411 0.0
C341 C 0.79916 0.68327 0.44266 0.0
C342 C 0.84701 0.70203 0.46721 0.0
C343 C 0.75323 0.66095 0.46871 0.0
C344 C 0.75322 0.65632 0.52043 0.0
H345 H 0.79681 0.68763 0.40337 0.0
H346 H 0.71723 0.64878 0.44841 0.0
S347 S 0.86945 0.69378 0.60094 0.0
N348 N 0.89185 0.7102 0.54553 0.0
N349 N 0.80671 0.66867 0.59397 0.0
C350 C 0.80134 0.6727 0.54471 0.0
C351 C 0.84776 0.69539 0.51834 0.0
C352 C 0.37133 0.41392 0.17504 0.0
C353 C 0.38917 0.42517 0.22386 0.0
C354 C 0.33438 0.43193 0.15617 0.0
C355 C 0.31422 0.46168 0.18555 0.0
H356 H 0.38061 0.38647 0.15361 0.0
H357 H 0.31795 0.41897 0.12012 0.0
S358 S 0.36002 0.51177 0.31052 0.0
N359 N 0.39379 0.47624 0.29656 0.0
N360 N 0.323 0.50906 0.26204 0.0
C361 C 0.33793 0.47889 0.23136 0.0
C362 C 0.37615 0.46107 0.25015 0.0
C363 C 0.63642 0.28084 0.95949 0.0
C364 C 0.68892 0.29403 0.9462 0.0
C365 C 0.61154 0.23805 0.98253 0.0
C366 C 0.63737 0.2055 0.99311 0.0
H367 H 0.61463 0.30455 0.95355 0.0
H368 H 0.57144 0.2307 0.99264 0.0
S369 S 0.77423 0.22089 0.96286 0.0
N370 N 0.76525 0.26907 0.94355 0.0
N371 N 0.71858 0.18934 0.98608 0.0
C372 C 0.68945 0.21754 0.97872 0.0
C373 C 0.71503 0.26138 0.95563 0.0
C374 C 1.00067 0.85968 0.51627 0.0
C375 C 0.9903 0.85518 0.46489 0.0
C376 C 1.01743 0.90387 0.54216 0.0
C377 C 1.0235 0.94617 0.51844 0.0
H378 H 0.99495 0.82844 0.537 0.0
H379 H 1.02421 0.90466 0.58154 0.0
S380 S 1.00352 0.95474 0.38397 0.0
N381 N 0.98954 0.89783 0.39115 0.0
N382 N 1.01968 0.98017 0.43928 0.0
C383 C 1.01421 0.94227 0.46686 0.0
C384 C 0.9981 0.89723 0.44035 0.0
C385 C 0.48232 0.90117 0.5506 0.0
C386 C 0.42912 0.88314 0.54094 0.0
C387 C 0.50888 0.87348 0.5712 0.0
C388 C 0.48312 0.82674 0.58285 0.0
H389 H 0.5037 0.93679 0.54153 0.0
H390 H 0.55011 0.88836 0.57667 0.0
S391 S 0.34335 0.76349 0.56692 0.0
N392 N 0.3516 0.81549 0.54456 0.0
N393 N 0.40072 0.76466 0.58625 0.0
C394 C 0.42964 0.8087 0.57452 0.0
C395 C 0.4029 0.83647 0.55257 0.0
C396 C 0.89238 0.93499 0.90683 0.0
C397 C 0.86125 0.88833 0.91181 0.0
C398 C 0.93662 0.94578 0.87764 0.0
C399 C 0.95102 0.91034 0.85204 0.0
H400 H 0.88249 0.9634 0.92576 0.0
H401 H 0.9591 0.98229 0.87407 0.0
S402 S 0.88326 0.78265 0.85356 0.0
N403 N 0.84832 0.80622 0.88976 0.0
N404 N 0.93157 0.82686 0.83384 0.0
C405 C 0.92061 0.8635 0.85688 0.0
C406 C 0.87575 0.85239 0.88722 0.0
C407 C 0.78556 0.19862 0.43513 0.0
C408 C 0.76209 0.16181 0.4664 0.0
C409 C 0.77795 0.19324 0.38394 0.0
C410 C 0.74662 0.1507 0.36207 0.0
H411 H 0.81171 0.23121 0.45019 0.0
H412 H 0.7972 0.22246 0.36126 0.0
S413 S 0.67631 1.04347 0.42787 0.0
N414 N 0.70578 0.08162 0.4722 0.0
N415 N 0.69186 1.071 0.37569 0.0
C416 C 0.72227 0.11373 0.39301 0.0
C417 C 0.73007 0.11933 0.44522 0.0
C418 C 0.5305 0.71993 0.40165 0.0
C419 C 0.51522 0.69557 0.35568 0.0
C420 C 0.54352 0.69804 0.44297 0.0
C421 C 0.5427 0.65066 0.44049 0.0
H422 H 0.53445 0.75686 0.40517 0.0
H423 H 0.55622 0.71911 0.47662 0.0
S424 S 0.50273 0.57012 0.32971 0.0
N425 N 0.49777 0.6202 0.31168 0.0
N426 N 0.52222 0.57978 0.38774 0.0
C427 C 0.5257 0.6256 0.39519 0.0
C428 C 0.5121 0.64773 0.35347 0.0
C429 C 0.18376 0.51127 0.85652 0.0
C430 C 0.17288 0.46195 0.85829 0.0
C431 C 0.17245 0.53901 0.89591 0.0
C432 C 0.14791 0.51959 0.9397 0.0
H433 H 0.20132 0.52934 0.82397 0.0
H434 H 0.18269 0.57644 0.89149 0.0
S435 S 0.10868 0.39271 0.96515 0.0
N436 N 0.13524 0.39535 0.90982 0.0
N437 N 0.11166 0.44693 0.98185 0.0
C438 C 0.13507 0.4703 0.94189 0.0
C439 C 0.14778 0.44185 0.90198 0.0
C440 C 0.73352 0.97889 0.96245 0.0
C441 C 0.70751 0.93081 0.96787 0.0
C442 C 0.70811 1.01233 0.96914 0.0
C443 C 0.65563 0.99919 0.98167 0.0
H444 H 0.7747 0.9913 0.95607 0.0
H445 H 0.73062 1.04903 0.96748 0.0
S446 S 0.5681 0.87725 0.99316 0.0
N447 N 0.6249 0.87125 0.98058 0.0
N448 N 0.57705 0.93415 0.99408 0.0
C449 C 0.62812 0.95096 0.98343 0.0
C450 C 0.65414 0.9168 0.97659 0.0
C451 C 0.89264 0.10974 0.56456 0.0
C452 C 0.86007 0.1207 0.60021 0.0
C453 C 0.93034 0.09038 0.57767 0.0
C454 C 0.93823 0.08238 0.62722 0.0
H455 H 0.89066 0.11793 0.52619 0.0
H456 H 0.95481 0.08339 0.54877 0.0
S457 S 0.86003 0.09966 0.73431 0.0
N458 N 0.83465 0.11726 0.6868 0.0
N459 N 0.90815 0.08307 0.7118 0.0
C460 C 0.90507 0.09143 0.66324 0.0
C461 C 0.86549 0.11021 0.6497 0.0
C462 C 0.33428 0.72154 0.12316 0.0
C463 C 0.341 0.71932 0.17475 0.0
C464 C 0.28814 0.69512 0.09832 0.0
C465 C 0.24658 0.66431 0.12351 0.0
H466 H 0.36519 0.74364 0.10139 0.0
H467 H 0.28534 0.69836 0.05888 0.0
S468 S 0.24057 0.64831 0.25886 0.0
N469 N 0.29851 0.68587 0.25022 0.0
N470 N 0.21384 0.63566 0.20358 0.0
C471 C 0.25232 0.66203 0.17492 0.0
C472 C 0.29878 0.68944 0.20039 0.0
C473 C 0.37831 0.47669 0.64048 0.0
C474 C 0.38312 0.48706 0.69182 0.0
C475 C 0.4189 0.4973 0.60749 0.0
C476 C 0.46639 0.52887 0.62443 0.0
H477 H 0.34355 0.45105 0.6259 0.0
H478 H 0.41364 0.48701 0.56863 0.0
S479 S 0.49798 0.56982 0.75505 0.0
N480 N 0.43872 0.53303 0.75743 0.0
N481 N 0.51437 0.57102 0.69621 0.0
C482 C 0.47088 0.54073 0.67548 0.0
C483 C 0.42959 0.52002 0.70888 0.0
C484 C 0.79884 0.72968 0.99182 0.0
C485 C 0.7926 0.74995 1.03824 0.0
C486 C 0.84414 0.71912 0.98018 0.0
C487 C 0.88497 0.7291 1.01431 0.0
H488 H 0.76896 0.72285 0.96398 0.0
H489 H 0.84774 0.70402 0.94386 0.0
S490 S 0.88662 0.78023 0.14152 0.0
N491 N 0.83013 0.77827 0.11888 0.0
N492 N 0.91526 0.75847 0.09714 0.0
C493 C 0.87879 0.74868 0.06108 0.0
C494 C 0.83261 0.75906 0.073 0.0
C495 C 0.46818 0.90599 0.18428 0.0
C496 C 0.49227 0.87123 0.19026 0.0
C497 C 0.49491 0.95044 0.16488 0.0
C498 C 0.54684 0.96204 0.14959 0.0
H499 H 0.42826 0.89886 0.19494 0.0
H500 H 0.47451 0.97565 0.16135 0.0
S501 S 0.62655 0.88221 0.15374 0.0
N502 N 0.57075 0.8515 0.17719 0.0
N503 N 0.62018 0.93306 0.14029 0.0
C504 C 0.57085 0.92708 0.1547 0.0
C505 C 0.54395 0.88243 0.17506 0.0
C506 C 0.13541 0.30731 0.68732 0.0
C507 C 0.15271 0.31518 0.73693 0.0
C508 C 0.11898 0.26193 0.66385 0.0
C509 C 0.11987 0.22148 0.68813 0.0
H510 H 0.13588 0.33695 0.66578 0.0
H511 H 0.1069 0.25888 0.62559 0.0
S512 S 0.16087 0.22196 0.8188 0.0
N513 N 0.16847 0.2777 0.8098 0.0
N514 N 0.13859 0.19315 0.76623 0.0
C515 C 0.13625 0.22872 0.73815 0.0
C516 C 0.1523 0.27506 0.76225 0.0
C517 C 0.78739 0.3546 0.62369 0.0
C518 C 0.8138 0.33094 0.59329 0.0
C519 C 0.75994 0.38149 0.60338 0.0
C520 C 0.75688 0.38456 0.55196 0.0
H521 H 0.78711 0.35147 0.66339 0.0
H522 H 0.73978 0.39892 0.62799 0.0
S523 S 0.82223 0.3322 0.45665 0.0
N524 N 0.83796 0.3147 0.50946 0.0
N525 N 0.78489 0.3644 0.47122 0.0
C526 C 0.78397 0.36199 0.52119 0.0
C527 C 0.81272 0.33526 0.54189 0.0
loop_
_geom_bond_atom_site_label_1
_geom_bond_atom_site_label_2
_geom_bond_distance
_geom_bond_site_symmetry_2
_ccdc_geom_bond_type
H0 C7 0.929 . S
H1 C10 0.930 . S
H2 C12 0.929 . S
H3 C4 0.969 . S
C4 H3 0.969 . S
C4 O5 1.550 . S
C4 H6 0.973 . S
O5 C4 1.550 . S
O5 C11 1.412 . S
H6 C4 0.973 . S
C7 H0 0.929 . S
C7 C8 1.400 . S
C7 C9 1.364 . S
C8 C7 1.400 . S
C8 C12 1.377 . S
C9 C7 1.364 . S
C9 C10 1.374 . S
C10 H1 0.930 . S
C10 C9 1.374 . S
C10 C11 1.383 . S
C11 O5 1.412 . S
C11 C10 1.383 . S
C11 C12 1.394 . S
C12 H2 0.929 . S
C12 C8 1.377 . S
C12 C11 1.394 . S
H13 C20 0.929 . S
H14 C23 0.930 . S
H15 C25 0.929 . S
H16 C17 0.969 . S
C17 H16 0.969 . S
C17 O18 1.550 . S
C17 H19 0.973 . S
O18 C17 1.550 . S
O18 C24 1.412 . S
H19 C17 0.973 . S
C20 H13 0.929 . S
C20 C21 1.400 . S
C20 C22 1.364 . S
C21 C20 1.400 . S
C21 C25 1.377 . S
C22 C20 1.364 . S
C22 C23 1.374 . S
C23 H14 0.930 . S
C23 C22 1.374 . S
C23 C24 1.383 . S
C24 O18 1.412 . S
C24 C23 1.383 . S
C24 C25 1.394 . S
C25 H15 0.929 . S
C25 C21 1.377 . S
C25 C24 1.394 . S
H26 C33 0.929 . S
H27 C36 0.930 . S
H28 C38 0.929 . S
H29 C30 0.969 . S
C30 H29 0.969 . S
C30 O31 1.550 . S
C30 H32 0.973 . S
O31 C30 1.550 . S
O31 C37 1.412 . S
H32 C30 0.973 . S
C33 H26 0.929 . S
C33 C34 1.400 . S
C33 C35 1.364 . S
C34 C33 1.400 . S
C34 C38 1.377 . S
C35 C33 1.364 . S
C35 C36 1.374 . S
C36 H27 0.930 . S
C36 C35 1.374 . S
C36 C37 1.383 . S
C37 O31 1.412 . S
C37 C36 1.383 . S
C37 C38 1.394 . S
C38 H28 0.929 . S
C38 C34 1.377 . S
C38 C37 1.394 . S
H39 C46 0.929 . S
H40 C49 0.930 . S
H41 C51 0.929 . S
H42 C43 0.969 . S
C43 H42 0.969 . S
C43 O44 1.550 . S
C43 H45 0.973 . S
O44 C43 1.550 . S
O44 C50 1.412 . S
H45 C43 0.973 . S
C46 H39 0.929 . S
C46 C47 1.400 . S
C46 C48 1.364 . S
C47 C46 1.400 . S
C47 C51 1.377 . S
C48 C46 1.364 . S
C48 C49 1.374 . S
C49 H40 0.930 . S
C49 C48 1.374 . S
C49 C50 1.383 . S
C50 O44 1.412 . S
C50 C49 1.383 . S
C50 C51 1.394 . S
C51 H41 0.929 . S
C51 C47 1.377 . S
C51 C50 1.394 . S
H52 C59 0.929 . S
H53 C62 0.930 . S
H54 C64 0.929 . S
H55 C56 0.969 . S
C56 H55 0.969 . S
C56 O57 1.550 . S
C56 H58 0.973 . S
O57 C56 1.550 . S
O57 C63 1.412 . S
H58 C56 0.973 . S
C59 H52 0.929 . S
C59 C60 1.400 . S
C59 C61 1.364 . S
C60 C59 1.400 . S
C60 C64 1.377 . S
C61 C59 1.364 . S
C61 C62 1.374 . S
C62 H53 0.930 . S
C62 C61 1.374 . S
C62 C63 1.383 . S
C63 O57 1.412 . S
C63 C62 1.383 . S
C63 C64 1.394 . S
C64 H54 0.929 . S
C64 C60 1.377 . S
C64 C63 1.394 . S
H65 C72 0.929 . S
H66 C75 0.930 . S
H67 C77 0.929 . S
H68 C69 0.969 . S
C69 H68 0.969 . S
C69 O70 1.550 . S
C69 H71 0.973 . S
O70 C69 1.550 . S
O70 C76 1.412 . S
H71 C69 0.973 . S
C72 H65 0.929 . S
C72 C73 1.400 . S
C72 C74 1.364 . S
C73 C72 1.400 . S
C73 C77 1.377 . S
C74 C72 1.364 . S
C74 C75 1.374 . S
C75 H66 0.930 . S
C75 C74 1.374 . S
C75 C76 1.383 . S
C76 O70 1.412 . S
C76 C75 1.383 . S
C76 C77 1.394 . S
C77 H67 0.929 . S
C77 C73 1.377 . S
C77 C76 1.394 . S
H78 C85 0.929 . S
H79 C88 0.930 . S
H80 C90 0.929 . S
H81 C82 0.969 . S
C82 H81 0.969 . S
C82 O83 1.550 . S
C82 H84 0.973 . S
O83 C82 1.550 . S
O83 C89 1.412 . S
H84 C82 0.973 . S
C85 H78 0.929 . S
C85 C86 1.400 . S
C85 C87 1.364 . S
C86 C85 1.400 . S
C86 C90 1.377 . S
C87 C85 1.364 . S
C87 C88 1.374 . S
C88 H79 0.930 . S
C88 C87 1.374 . S
C88 C89 1.383 . S
C89 O83 1.412 . S
C89 C88 1.383 . S
C89 C90 1.394 . S
C90 H80 0.929 . S
C90 C86 1.377 . S
C90 C89 1.394 . S
H91 C98 0.929 . S
H92 C101 0.930 . S
H93 C103 0.929 . S
H94 C95 0.969 . S
C95 H94 0.969 . S
C95 O96 1.550 . S
C95 H97 0.973 . S
O96 C95 1.550 . S
O96 C102 1.412 . S
H97 C95 0.973 . S
C98 H91 0.929 . S
C98 C99 1.400 . S
C98 C100 1.364 . S
C99 C98 1.400 . S
C99 C103 1.377 . S
C100 C98 1.364 . S
C100 C101 1.374 . S
C101 H92 0.930 . S
C101 C100 1.374 . S
C101 C102 1.383 . S
C102 O96 1.412 . S
C102 C101 1.383 . S
C102 C103 1.394 . S
C103 H93 0.929 . S
C103 C99 1.377 . S
C103 C102 1.394 . S
Sm104 C106 2.846 . S
Sm104 O124 2.543 . S
Sm104 O125 2.450 . S
Sm104 O126 2.681 1_545 S
Sm104 O127 2.480 . S
Sm104 O128 2.396 . S
Sm104 O132 2.386 . S
Sm104 O135 2.408 1_545 S
Sm105 C115 2.846 1_545 S
Sm105 O126 2.386 1_645 S
Sm105 O129 2.408 1_655 S
Sm105 O130 2.543 1_545 S
Sm105 O131 2.450 1_545 S
Sm105 O132 2.681 1_655 S
Sm105 O133 2.464 . S
Sm105 O134 2.396 1_545 S
C106 Sm104 2.846 . S
C106 C107 1.506 . S
C106 O124 1.261 . S
C106 O125 1.242 . S
C107 C106 1.506 . S
C107 C108 1.358 . S
C107 C112 1.382 . S
C108 C107 1.358 . S
C108 C109 1.385 . S
C108 H136 0.930 . S
C109 C108 1.385 . S
C109 C110 1.395 . S
C109 H137 0.929 . S
C110 C109 1.395 . S
C110 C111 1.335 . S
C111 C110 1.335 . S
C111 C112 1.398 . S
C111 H138 0.930 . S
C112 C107 1.382 . S
C112 C111 1.398 . S
C112 H139 0.929 . S
C113 O126 1.271 . S
C113 O127 1.247 1_565 S
C114 O128 1.252 . S
C114 O129 1.272 . S
C115 Sm105 2.846 1_565 S
C115 C116 1.506 . S
C115 O130 1.261 . S
C115 O131 1.242 . S
C116 C115 1.506 . S
C116 C117 1.358 . S
C116 C121 1.382 . S
C117 C116 1.358 . S
C117 C118 1.385 . S
C117 H140 0.930 . S
C118 C117 1.385 . S
C118 C119 1.395 . S
C118 H141 0.929 . S
C119 C118 1.395 . S
C119 C120 1.335 . S
C120 C119 1.335 . S
C120 C121 1.398 . S
C120 H142 0.930 . S
C121 C116 1.382 . S
C121 C120 1.398 . S
C121 H143 0.929 . S
C122 O132 1.271 1_655 S
C122 O133 1.251 . S
C123 O134 1.252 . S
C123 O135 1.272 1_655 S
O124 Sm104 2.543 . S
O124 C106 1.261 . S
O125 Sm104 2.450 . S
O125 C106 1.242 . S
O126 Sm104 2.681 1_565 S
O126 Sm105 2.386 1_465 S
O126 C113 1.271 . S
O127 Sm104 2.480 . S
O127 C113 1.247 1_545 S
O128 Sm104 2.396 . S
O128 C114 1.252 . S
O129 Sm105 2.408 1_455 S
O129 C114 1.272 . S
O130 Sm105 2.543 1_565 S
O130 C115 1.261 . S
O131 Sm105 2.450 1_565 S
O131 C115 1.242 . S
O132 Sm104 2.386 . S
O132 Sm105 2.681 1_455 S
O132 C122 1.271 1_455 S
O133 Sm105 2.464 . S
O133 C122 1.251 . S
O134 Sm105 2.396 1_565 S
O134 C123 1.252 . S
O135 Sm104 2.408 1_565 S
O135 C123 1.272 1_455 S
H136 C108 0.930 . S
H137 C109 0.929 . S
H138 C111 0.930 . S
H139 C112 0.929 . S
H140 C117 0.930 . S
H141 C118 0.929 . S
H142 C120 0.930 . S
H143 C121 0.929 . S
Sm144 C146 2.846 . S
Sm144 O164 2.543 . S
Sm144 O165 2.450 . S
Sm144 O166 2.681 1_545 S
Sm144 O167 2.464 1_545 S
Sm144 O168 2.396 . S
Sm144 O172 2.386 1_554 S
Sm144 O175 2.408 1_544 S
Sm145 C155 2.846 1_545 S
Sm145 O166 2.386 1_546 S
Sm145 O169 2.408 1_556 S
Sm145 O170 2.543 1_545 S
Sm145 O171 2.449 1_545 S
Sm145 O172 2.681 . S
Sm145 O173 2.464 . S
Sm145 O174 2.396 1_545 S
C146 Sm144 2.846 . S
C146 C147 1.506 . S
C146 O164 1.261 . S
C146 O165 1.242 . S
C147 C146 1.506 . S
C147 C148 1.358 . S
C147 C152 1.382 . S
C148 C147 1.358 . S
C148 C149 1.385 . S
C148 H176 0.930 . S
C149 C148 1.385 . S
C149 C150 1.395 . S
C149 H177 0.929 . S
C150 C149 1.395 . S
C150 C151 1.335 . S
C151 C150 1.335 . S
C151 C152 1.398 . S
C151 H178 0.930 . S
C152 C147 1.382 . S
C152 C151 1.398 . S
C152 H179 0.929 . S
C153 O166 1.271 . S
C153 O167 1.251 . S
C154 O168 1.252 . S
C154 O169 1.272 . S
C155 Sm145 2.846 1_565 S
C155 C156 1.506 . S
C155 O170 1.261 . S
C155 O171 1.265 . S
C156 C155 1.506 . S
C156 C157 1.358 . S
C156 C161 1.382 . S
C157 C156 1.358 . S
C157 C158 1.385 . S
C157 H180 0.930 . S
C158 C157 1.385 . S
C158 C159 1.395 . S
C158 H181 0.929 . S
C159 C158 1.395 . S
C159 C160 1.335 . S
C160 C159 1.335 . S
C160 C161 1.398 . S
C160 H182 0.930 . S
C161 C156 1.382 . S
C161 C160 1.398 . S
C161 H183 0.929 . S
C162 O172 1.271 . S
C162 O173 1.251 . S
C163 O174 1.252 . S
C163 O175 1.272 . S
O164 Sm144 2.543 . S
O164 C146 1.261 . S
O165 Sm144 2.450 . S
O165 C146 1.242 . S
O166 Sm144 2.681 1_565 S
O166 Sm145 2.386 1_564 S
O166 C153 1.271 . S
O167 Sm144 2.464 1_565 S
O167 C153 1.251 . S
O168 Sm144 2.396 . S
O168 C154 1.252 . S
O169 Sm145 2.408 1_554 S
O169 C154 1.272 . S
O170 Sm145 2.543 1_565 S
O170 C155 1.261 . S
O171 Sm145 2.449 1_565 S
O171 C155 1.265 . S
O172 Sm144 2.386 1_556 S
O172 Sm145 2.681 . S
O172 C162 1.271 . S
O173 Sm145 2.464 . S
O173 C162 1.251 . S
O174 Sm145 2.396 1_565 S
O174 C163 1.252 . S
O175 Sm144 2.408 1_566 S
O175 C163 1.272 . S
H176 C148 0.930 . S
H177 C149 0.929 . S
H178 C151 0.930 . S
H179 C152 0.929 . S
H180 C157 0.930 . S
H181 C158 0.929 . S
H182 C160 0.930 . S
H183 C161 0.929 . S
Sm184 C186 2.846 . S
Sm184 O204 2.543 . S
Sm184 O205 2.450 . S
Sm184 O206 2.681 . S
Sm184 O207 2.464 . S
Sm184 O208 2.396 . S
Sm184 O212 2.386 . S
Sm184 O215 2.408 . S
Sm185 C195 2.846 . S
Sm185 O206 2.386 . S
Sm185 O209 2.408 . S
Sm185 O210 2.543 . S
Sm185 O211 2.450 . S
Sm185 O212 2.681 . S
Sm185 O213 2.464 . S
Sm185 O214 2.396 . S
C186 Sm184 2.846 . S
C186 C187 1.506 . S
C186 O204 1.261 . S
C186 O205 1.242 . S
C187 C186 1.506 . S
C187 C188 1.358 . S
C187 C192 1.382 . S
C188 C187 1.358 . S
C188 C189 1.385 . S
C188 H216 0.930 . S
C189 C188 1.385 . S
C189 C190 1.395 . S
C189 H217 0.929 . S
C190 C189 1.395 . S
C190 C191 1.335 . S
C191 C190 1.335 . S
C191 C192 1.398 . S
C191 H218 0.930 . S
C192 C187 1.382 . S
C192 C191 1.398 . S
C192 H219 0.929 . S
C193 O206 1.271 . S
C193 O207 1.251 . S
C194 O208 1.252 . S
C194 O209 1.272 . S
C195 Sm185 2.846 . S
C195 C196 1.506 . S
C195 O210 1.261 . S
C195 O211 1.242 . S
C196 C195 1.506 . S
C196 C197 1.358 . S
C196 C201 1.382 . S
C197 C196 1.358 . S
C197 C198 1.385 . S
C197 H220 0.930 . S
C198 C197 1.385 . S
C198 C199 1.395 . S
C198 H221 0.929 . S
C199 C198 1.395 . S
C199 C200 1.335 . S
C200 C199 1.335 . S
C200 C201 1.398 . S
C200 H222 0.930 . S
C201 C196 1.382 . S
C201 C200 1.398 . S
C201 H223 0.929 . S
C202 O212 1.271 . S
C202 O213 1.251 . S
C203 O214 1.252 . S
C203 O215 1.272 . S
O204 Sm184 2.543 . S
O204 C186 1.261 . S
O205 Sm184 2.450 . S
O205 C186 1.242 . S
O206 Sm184 2.681 . S
O206 Sm185 2.386 . S
O206 C193 1.271 . S
O207 Sm184 2.464 . S
O207 C193 1.251 . S
O208 Sm184 2.396 . S
O208 C194 1.252 . S
O209 Sm185 2.408 . S
O209 C194 1.272 . S
O210 Sm185 2.543 . S
O210 C195 1.261 . S
O211 Sm185 2.450 . S
O211 C195 1.242 . S
O212 Sm184 2.386 . S
O212 Sm185 2.681 . S
O212 C202 1.271 . S
O213 Sm185 2.464 . S
O213 C202 1.251 . S
O214 Sm185 2.396 . S
O214 C203 1.252 . S
O215 Sm184 2.408 . S
O215 C203 1.272 . S
H216 C188 0.930 . S
H217 C189 0.929 . S
H218 C191 0.930 . S
H219 C192 0.929 . S
H220 C197 0.930 . S
H221 C198 0.929 . S
H222 C200 0.930 . S
H223 C201 0.929 . S
Sm224 C226 2.846 . S
Sm224 O244 2.543 . S
Sm224 O245 2.450 . S
Sm224 O246 2.681 . S
Sm224 O247 2.464 . S
Sm224 O248 2.396 . S
Sm224 O252 2.386 . S
Sm224 O255 2.408 1_455 S
Sm225 C235 2.846 1_454 S
Sm225 O246 2.386 . S
Sm225 O249 2.408 . S
Sm225 O250 2.543 1_455 S
Sm225 O251 2.450 1_454 S
Sm225 O252 2.681 . S
Sm225 O253 2.464 1_554 S
Sm225 O254 2.396 1_454 S
C226 Sm224 2.846 . S
C226 C227 1.506 . S
C226 O244 1.261 . S
C226 O245 1.242 . S
C227 C226 1.506 . S
C227 C228 1.358 . S
C227 C232 1.382 . S
C228 C227 1.358 . S
C228 C229 1.385 . S
C228 H256 0.930 . S
C229 C228 1.385 . S
C229 C230 1.395 . S
C229 H257 0.929 . S
C230 C229 1.395 . S
C230 C231 1.335 . S
C231 C230 1.335 . S
C231 C232 1.398 . S
C231 H258 0.930 . S
C232 C227 1.382 . S
C232 C231 1.398 . S
C232 H259 0.929 . S
C233 O246 1.271 . S
C233 O247 1.251 . S
C234 O248 1.252 . S
C234 O249 1.272 . S
C235 Sm225 2.846 1_656 S
C235 C236 1.506 . S
C235 O250 1.261 1_556 S
C235 O251 1.242 . S
C236 C235 1.506 . S
C236 C237 1.358 . S
C236 C241 1.382 . S
C237 C236 1.358 . S
C237 C238 1.385 . S
C237 H260 0.911 1_556 S
C238 C237 1.385 . S
C238 C239 1.395 . S
C238 H261 0.929 . S
C239 C238 1.395 . S
C239 C240 1.335 . S
C240 C239 1.335 . S
C240 C241 1.398 . S
C240 H262 0.930 . S
C241 C236 1.382 . S
C241 C240 1.398 . S
C241 H263 0.929 . S
C242 O252 1.271 1_556 S
C242 O253 1.251 . S
C243 O254 1.252 1_554 S
C243 O255 1.272 . S
O244 Sm224 2.543 . S
O244 C226 1.261 . S
O245 Sm224 2.450 . S
O245 C226 1.242 . S
O246 Sm224 2.681 . S
O246 Sm225 2.386 . S
O246 C233 1.271 . S
O247 Sm224 2.464 . S
O247 C233 1.251 . S
O248 Sm224 2.396 . S
O248 C234 1.252 . S
O249 Sm225 2.408 . S
O249 C234 1.272 . S
O250 Sm225 2.543 1_655 S
O250 C235 1.261 1_554 S
O251 Sm225 2.450 1_656 S
O251 C235 1.242 . S
O252 Sm224 2.386 . S
O252 Sm225 2.681 . S
O252 C242 1.271 1_554 S
O253 Sm225 2.464 1_556 S
O253 C242 1.251 . S
O254 Sm225 2.396 1_656 S
O254 C243 1.252 1_556 S
O255 Sm224 2.408 1_655 S
O255 C243 1.272 . S
H256 C228 0.930 . S
H257 C229 0.929 . S
H258 C231 0.930 . S
H259 C232 0.929 . S
H260 C237 0.911 1_554 S
H261 C238 0.929 . S
H262 C240 0.930 . S
H263 C241 0.929 . S
C264 C265 1.369 . S
C264 C266 1.419 . S
C264 H268 0.930 . S
C265 C264 1.369 . S
C265 C274 1.429 . S
C266 C264 1.419 . S
C266 C267 1.363 . S
C266 H269 0.929 . S
C267 C266 1.363 . S
C267 C273 1.428 . S
H268 C264 0.930 . S
H269 C266 0.929 . S
S270 N271 1.613 . S
S270 N272 1.610 . S
N271 S270 1.613 . S
N271 C274 1.350 . S
N272 S270 1.610 . S
N272 C273 1.351 . S
C273 C267 1.428 . S
C273 N272 1.351 . S
C273 C274 1.434 . S
C274 C265 1.429 . S
C274 N271 1.350 . S
C274 C273 1.434 . S
C275 C276 1.369 . S
C275 C277 1.419 . S
C275 H279 0.930 . S
C276 C275 1.369 . S
C276 C285 1.429 . S
C277 C275 1.419 . S
C277 C278 1.363 . S
C277 H280 0.929 . S
C278 C277 1.363 . S
C278 C284 1.428 . S
H279 C275 0.930 . S
H280 C277 0.929 . S
S281 N282 1.614 1_545 S
S281 N283 1.613 1_545 S
N282 S281 1.614 1_565 S
N282 C285 1.350 . S
N283 S281 1.613 1_565 S
N283 C284 1.351 . S
C284 C278 1.428 . S
C284 N283 1.351 . S
C284 C285 1.434 . S
C285 C276 1.429 . S
C285 N282 1.350 . S
C285 C284 1.434 . S
C286 C287 1.369 . S
C286 C288 1.419 . S
C286 H290 0.930 . S
C287 C286 1.369 . S
C287 C296 1.429 . S
C288 C286 1.419 . S
C288 C289 1.363 . S
C288 H291 0.929 . S
C289 C288 1.363 . S
C289 C295 1.428 . S
H290 C286 0.930 . S
H291 C288 0.929 . S
S292 N293 1.613 . S
S292 N294 1.610 . S
N293 S292 1.613 . S
N293 C296 1.350 . S
N294 S292 1.610 . S
N294 C295 1.351 . S
C295 C289 1.428 . S
C295 N294 1.351 . S
C295 C296 1.434 . S
C296 C287 1.429 . S
C296 N293 1.350 . S
C296 C295 1.434 . S
C297 C298 1.369 . S
C297 C299 1.419 . S
C297 H301 0.930 1_655 S
C298 C297 1.369 . S
C298 C307 1.429 . S
C299 C297 1.419 . S
C299 C300 1.363 . S
C299 H302 0.929 1_655 S
C300 C299 1.363 . S
C300 C306 1.428 . S
H301 C297 0.930 1_455 S
H302 C299 0.929 1_455 S
S303 N304 1.613 . S
S303 N305 1.610 . S
N304 S303 1.613 . S
N304 C307 1.350 . S
N305 S303 1.610 . S
N305 C306 1.351 . S
C306 C300 1.428 . S
C306 N305 1.351 . S
C306 C307 1.434 . S
C307 C298 1.429 . S
C307 N304 1.350 . S
C307 C306 1.434 . S
C308 C309 1.369 . S
C308 C310 1.419 . S
C308 H312 0.930 . S
C309 C308 1.369 . S
C309 C318 1.429 . S
C310 C308 1.419 . S
C310 C311 1.363 . S
C310 H313 0.929 . S
C311 C310 1.363 . S
C311 C317 1.428 . S
H312 C308 0.930 . S
H313 C310 0.929 . S
S314 N315 1.613 . S
S314 N316 1.610 . S
N315 S314 1.613 . S
N315 C318 1.350 . S
N316 S314 1.610 . S
N316 C317 1.351 . S
C317 C311 1.428 . S
C317 N316 1.351 . S
C317 C318 1.434 . S
C318 C309 1.429 . S
C318 N315 1.350 . S
C318 C317 1.434 . S
C319 C320 1.369 . S
C319 C321 1.419 . S
C319 H323 0.930 . S
C320 C319 1.369 . S
C320 C329 1.429 . S
C321 C319 1.419 . S
C321 C322 1.363 . S
C321 H324 0.934 . S
C322 C321 1.363 . S
C322 C328 1.428 . S
H323 C319 0.930 . S
H324 C321 0.934 . S
S325 N326 1.613 . S
S325 N327 1.610 . S
N326 S325 1.613 . S
N326 C329 1.350 . S
N327 S325 1.610 . S
N327 C328 1.351 . S
C328 C322 1.428 . S
C328 N327 1.351 . S
C328 C329 1.434 . S
C329 C320 1.429 . S
C329 N326 1.350 . S
C329 C328 1.434 . S
C330 C331 1.369 . S
C330 C332 1.419 . S
C330 H334 0.930 . S
C331 C330 1.369 . S
C331 C340 1.429 . S
C332 C330 1.419 . S
C332 C333 1.363 . S
C332 H335 0.929 . S
C333 C332 1.363 . S
C333 C339 1.428 . S
H334 C330 0.930 . S
H335 C332 0.929 . S
S336 N337 1.613 1_554 S
S336 N338 1.610 . S
N337 S336 1.613 1_556 S
N337 C340 1.350 . S
N338 S336 1.610 . S
N338 C339 1.351 1_554 S
C339 C333 1.428 . S
C339 N338 1.351 1_556 S
C339 C340 1.434 . S
C340 C331 1.429 . S
C340 N337 1.350 . S
C340 C339 1.434 . S
C341 C342 1.369 . S
C341 C343 1.419 . S
C341 H345 0.930 . S
C342 C341 1.369 . S
C342 C351 1.429 . S
C343 C341 1.419 . S
C343 C344 1.363 . S
C343 H346 0.929 . S
C344 C343 1.363 . S
C344 C350 1.428 . S
H345 C341 0.930 . S
H346 C343 0.929 . S
S347 N348 1.613 . S
S347 N349 1.610 . S
N348 S347 1.613 . S
N348 C351 1.350 . S
N349 S347 1.610 . S
N349 C350 1.351 . S
C350 C344 1.428 . S
C350 N349 1.351 . S
C350 C351 1.434 . S
C351 C342 1.429 . S
C351 N348 1.350 . S
C351 C350 1.434 . S
C352 C353 1.369 . S
C352 C354 1.419 . S
C352 H356 0.930 . S
C353 C352 1.369 . S
C353 C362 1.429 . S
C354 C352 1.419 . S
C354 C355 1.363 . S
C354 H357 0.929 . S
C355 C354 1.363 . S
C355 C361 1.428 . S
H356 C352 0.930 . S
H357 C354 0.929 . S
S358 N359 1.613 . S
S358 N360 1.610 . S
N359 S358 1.613 . S
N359 C362 1.350 . S
N360 S358 1.610 . S
N360 C361 1.351 . S
C361 C355 1.428 . S
C361 N360 1.351 . S
C361 C362 1.434 . S
C362 C353 1.429 . S
C362 N359 1.350 . S
C362 C361 1.434 . S
C363 C364 1.369 . S
C363 C365 1.419 . S
C363 H367 0.930 . S
C364 C363 1.369 . S
C364 C373 1.429 . S
C365 C363 1.419 . S
C365 C366 1.363 . S
C365 H368 0.929 . S
C366 C365 1.363 . S
C366 C372 1.428 . S
H367 C363 0.930 . S
H368 C365 0.929 . S
S369 N370 1.613 . S
S369 N371 1.610 . S
N370 S369 1.613 . S
N370 C373 1.350 . S
N371 S369 1.610 . S
N371 C372 1.351 . S
C372 C366 1.428 . S
C372 N371 1.351 . S
C372 C373 1.434 . S
C373 C364 1.429 . S
C373 N370 1.350 . S
C373 C372 1.434 . S
C374 C375 1.369 . S
C374 C376 1.419 . S
C374 H378 0.930 . S
C375 C374 1.369 . S
C375 C384 1.429 . S
C376 C374 1.419 . S
C376 C377 1.363 . S
C376 H379 0.929 . S
C377 C376 1.363 . S
C377 C383 1.428 . S
H378 C374 0.930 . S
H379 C376 0.929 . S
S380 N381 1.613 . S
S380 N382 1.610 . S
N381 S380 1.613 . S
N381 C384 1.350 . S
N382 S380 1.610 . S
N382 C383 1.351 . S
C383 C377 1.428 . S
C383 N382 1.351 . S
C383 C384 1.434 . S
C384 C375 1.429 . S
C384 N381 1.350 . S
C384 C383 1.434 . S
C385 C386 1.369 . S
C385 C387 1.419 . S
C385 H389 0.930 . S
C386 C385 1.369 . S
C386 C395 1.429 . S
C387 C385 1.419 . S
C387 C388 1.363 . S
C387 H390 0.929 . S
C388 C387 1.363 . S
C388 C394 1.428 . S
H389 C385 0.930 . S
H390 C387 0.929 . S
S391 N392 1.613 . S
S391 N393 1.610 . S
N392 S391 1.613 . S
N392 C395 1.350 . S
N393 S391 1.610 . S
N393 C394 1.351 . S
C394 C388 1.428 . S
C394 N393 1.351 . S
C394 C395 1.434 . S
C395 C386 1.429 . S
C395 N392 1.350 . S
C395 C394 1.434 . S
C396 C397 1.369 . S
C396 C398 1.419 . S
C396 H400 0.930 . S
C397 C396 1.369 . S
C397 C406 1.429 . S
C398 C396 1.419 . S
C398 C399 1.363 . S
C398 H401 0.929 . S
C399 C398 1.363 . S
C399 C405 1.428 . S
H400 C396 0.930 . S
H401 C398 0.929 . S
S402 N403 1.613 . S
S402 N404 1.610 . S
N403 S402 1.613 . S
N403 C406 1.350 . S
N404 S402 1.610 . S
N404 C405 1.351 . S
C405 C399 1.428 . S
C405 N404 1.351 . S
C405 C406 1.434 . S
C406 C397 1.429 . S
C406 N403 1.350 . S
C406 C405 1.434 . S
C407 C408 1.369 . S
C407 C409 1.419 . S
C407 H411 0.930 . S
C408 C407 1.369 . S
C408 C417 1.429 . S
C409 C407 1.419 . S
C409 C410 1.363 . S
C409 H412 0.929 . S
C410 C409 1.363 . S
C410 C416 1.428 . S
H411 C407 0.930 . S
H412 C409 0.929 . S
S413 N414 1.613 . S
S413 N415 1.610 . S
N414 S413 1.613 . S
N414 C417 1.350 . S
N415 S413 1.610 . S
N415 C416 1.351 . S
C416 C410 1.428 . S
C416 N415 1.351 . S
C416 C417 1.434 . S
C417 C408 1.429 . S
C417 N414 1.350 . S
C417 C416 1.434 . S
C418 C419 1.369 . S
C418 C420 1.419 . S
C418 H422 0.930 . S
C419 C418 1.369 . S
C419 C428 1.429 . S
C420 C418 1.419 . S
C420 C421 1.363 . S
C420 H423 0.929 . S
C421 C420 1.363 . S
C421 C427 1.428 . S
H422 C418 0.930 . S
H423 C420 0.929 . S
S424 N425 1.613 . S
S424 N426 1.610 . S
N425 S424 1.613 . S
N425 C428 1.350 . S
N426 S424 1.610 . S
N426 C427 1.351 . S
C427 C421 1.428 . S
C427 N426 1.351 . S
C427 C428 1.434 . S
C428 C419 1.429 . S
C428 N425 1.350 . S
C428 C427 1.434 . S
C429 C430 1.369 . S
C429 C431 1.419 . S
C429 H433 0.930 . S
C430 C429 1.369 . S
C430 C439 1.429 . S
C431 C429 1.419 . S
C431 C432 1.363 . S
C431 H434 0.929 . S
C432 C431 1.363 . S
C432 C438 1.428 . S
H433 C429 0.930 . S
H434 C431 0.929 . S
S435 N436 1.613 . S
S435 N437 1.610 . S
N436 S435 1.613 . S
N436 C439 1.350 . S
N437 S435 1.610 . S
N437 C438 1.351 . S
C438 C432 1.428 . S
C438 N437 1.351 . S
C438 C439 1.434 . S
C439 C430 1.429 . S
C439 N436 1.350 . S
C439 C438 1.434 . S
C440 C441 1.369 . S
C440 C442 1.419 . S
C440 H444 0.930 . S
C441 C440 1.369 . S
C441 C450 1.429 . S
C442 C440 1.419 . S
C442 C443 1.363 . S
C442 H445 0.929 . S
C443 C442 1.363 . S
C443 C449 1.428 . S
H444 C440 0.930 . S
H445 C442 0.929 . S
S446 N447 1.613 . S
S446 N448 1.610 . S
N447 S446 1.613 . S
N447 C450 1.350 . S
N448 S446 1.610 . S
N448 C449 1.351 . S
C449 C443 1.428 . S
C449 N448 1.351 . S
C449 C450 1.434 . S
C450 C441 1.429 . S
C450 N447 1.350 . S
C450 C449 1.434 . S
C451 C452 1.369 . S
C451 C453 1.419 . S
C451 H455 0.930 . S
C452 C451 1.369 . S
C452 C461 1.429 . S
C453 C451 1.419 . S
C453 C454 1.363 . S
C453 H456 0.929 . S
C454 C453 1.363 . S
C454 C460 1.428 . S
H455 C451 0.930 . S
H456 C453 0.929 . S
S457 N458 1.613 . S
S457 N459 1.610 . S
N458 S457 1.613 . S
N458 C461 1.350 . S
N459 S457 1.610 . S
N459 C460 1.351 . S
C460 C454 1.428 . S
C460 N459 1.351 . S
C460 C461 1.434 . S
C461 C452 1.429 . S
C461 N458 1.350 . S
C461 C460 1.434 . S
C462 C463 1.369 . S
C462 C464 1.419 . S
C462 H466 0.930 . S
C463 C462 1.369 . S
C463 C472 1.429 . S
C464 C462 1.419 . S
C464 C465 1.363 . S
C464 H467 0.929 . S
C465 C464 1.363 . S
C465 C471 1.428 . S
H466 C462 0.930 . S
H467 C464 0.929 . S
S468 N469 1.613 . S
S468 N470 1.610 . S
N469 S468 1.613 . S
N469 C472 1.350 . S
N470 S468 1.610 . S
N470 C471 1.351 . S
C471 C465 1.428 . S
C471 N470 1.351 . S
C471 C472 1.434 . S
C472 C463 1.429 . S
C472 N469 1.350 . S
C472 C471 1.434 . S
C473 C474 1.369 . S
C473 C475 1.419 . S
C473 H477 0.930 . S
C474 C473 1.369 . S
C474 C483 1.429 . S
C475 C473 1.419 . S
C475 C476 1.363 . S
C475 H478 0.929 . S
C476 C475 1.363 . S
C476 C482 1.428 . S
H477 C473 0.930 . S
H478 C475 0.929 . S
S479 N480 1.613 . S
S479 N481 1.610 . S
N480 S479 1.613 . S
N480 C483 1.350 . S
N481 S479 1.610 . S
N481 C482 1.351 . S
C482 C476 1.428 . S
C482 N481 1.351 . S
C482 C483 1.434 . S
C483 C474 1.429 . S
C483 N480 1.350 . S
C483 C482 1.434 . S
C484 C485 1.369 . S
C484 C486 1.419 . S
C484 H488 0.930 . S
C485 C484 1.369 . S
C485 C494 1.429 . S
C486 C484 1.419 . S
C486 C487 1.363 . S
C486 H489 0.929 . S
C487 C486 1.363 . S
C487 C493 1.428 . S
H488 C484 0.930 . S
H489 C486 0.929 . S
S490 N491 1.613 . S
S490 N492 1.610 . S
N491 S490 1.613 . S
N491 C494 1.350 . S
N492 S490 1.610 . S
N492 C493 1.351 . S
C493 C487 1.428 . S
C493 N492 1.351 . S
C493 C494 1.434 . S
C494 C485 1.429 . S
C494 N491 1.350 . S
C494 C493 1.434 . S
C495 C496 1.369 . S
C495 C497 1.419 . S
C495 H499 0.930 . S
C496 C495 1.369 . S
C496 C505 1.429 . S
C497 C495 1.419 . S
C497 C498 1.363 . S
C497 H500 0.929 . S
C498 C497 1.363 . S
C498 C504 1.428 . S
H499 C495 0.930 . S
H500 C497 0.929 . S
S501 N502 1.613 . S
S501 N503 1.610 . S
N502 S501 1.613 . S
N502 C505 1.350 . S
N503 S501 1.610 . S
N503 C504 1.351 . S
C504 C498 1.428 . S
C504 N503 1.351 . S
C504 C505 1.434 . S
C505 C496 1.429 . S
C505 N502 1.350 . S
C505 C504 1.434 . S
C506 C507 1.369 . S
C506 C508 1.419 . S
C506 H510 0.930 . S
C507 C506 1.369 . S
C507 C516 1.429 . S
C508 C506 1.419 . S
C508 C509 1.363 . S
C508 H511 0.929 . S
C509 C508 1.363 . S
C509 C515 1.428 . S
H510 C506 0.930 . S
H511 C508 0.929 . S
S512 N513 1.613 . S
S512 N514 1.610 . S
N513 S512 1.613 . S
N513 C516 1.350 . S
N514 S512 1.610 . S
N514 C515 1.351 . S
C515 C509 1.428 . S
C515 N514 1.351 . S
C515 C516 1.434 . S
C516 C507 1.429 . S
C516 N513 1.350 . S
C516 C515 1.434 . S
C517 C518 1.369 . S
C517 C519 1.419 . S
C517 H521 0.930 . S
C518 C517 1.369 . S
C518 C527 1.429 . S
C519 C517 1.419 . S
C519 C520 1.363 . S
C519 H522 0.929 . S
C520 C519 1.363 . S
C520 C526 1.428 . S
H521 C517 0.930 . S
H522 C519 0.929 . S
S523 N524 1.613 . S
S523 N525 1.610 . S
N524 S523 1.613 . S
N524 C527 1.350 . S
N525 S523 1.610 . S
N525 C526 1.351 . S
C526 C520 1.428 . S
C526 N525 1.351 . S
C526 C527 1.434 . S
C527 C518 1.429 . S
C527 N524 1.350 . S
C527 C526 1.434 . S
C265 C9 1.418 . S
C267 C110 1.468 . S
C276 C21 1.266 . S
C278 C159 1.272 . S
C289 C194 2.290 . S
C287 C30 2.346 . S
C298 C43 2.268 . S
C300 C233 2.373 1_655 S
C311 C154 2.149 . S
C309 C4 1.761 . S
C322 C113 1.393 . S
C320 C22 1.439 . S
C333 C243 1.696 1_556 S
C331 C34 1.765 . S
C344 C202 1.706 . S
C342 C48 1.728 . S
C353 C8 1.555 . S
C355 C230 1.626 . S
C366 C162 2.298 . S
C364 C35 2.396 . S
C375 C47 2.591 . S
C377 C123 2.590 . S
C386 C17 1.184 . S
C388 C199 1.193 . S
C399 C119 1.079 . S
C397 C60 1.055 . S
C408 C74 1.219 . S
C410 C150 1.187 . S
C419 C82 2.041 . S
C421 C203 2.090 . S
C430 C100 2.831 . S
C432 C242 2.762 . S
C441 C61 2.289 . S
C443 C163 2.456 . S
C454 C122 0.635 . S
C452 C73 0.631 . S
C465 C234 2.156 . S
C463 C87 2.234 . S
C476 C193 1.525 . S
C474 C95 1.514 . S
C485 C56 1.508 . S
C487 C239 1.492 . S
C498 C153 2.485 . S
C496 C86 2.557 . S
C509 C114 2.460 . S
C507 C99 2.459 . S
C518 C69 0.870 . S
C520 C190 0.973 . S
