# Generated by pormake.
# Topology tsx, (6,3)-cn, num edge types: 1
# Building blocks:
#     Node 0, Type 0, BuildingBlock: FUNLAD_clean_sbu_0, # of connection points: 6
#     Node 1, Type 0, BuildingBlock: FUNLAD_clean_sbu_0, # of connection points: 6
#     Node 2, Type 1, BuildingBlock: QEWDON_clean_linker_0, # of connection points: 3
#     Node 3, Type 1, BuildingBlock: QEWDON_clean_linker_0, # of connection points: 3
#     Node 4, Type 1, BuildingBlock: QEWDON_clean_linker_0, # of connection points: 3
#     Node 5, Type 1, BuildingBlock: QEWDON_clean_linker_0, # of connection points: 3
#     Edge 6, Type (0, 1), BuildingBlock: CIFDUS_clean_linker_0, # of connection points: 2
#     Edge 7, Type (0, 1), BuildingBlock: CIFDUS_clean_linker_0, # of connection points: 2
#     Edge 8, Type (0, 1), BuildingBlock: CIFDUS_clean_linker_0, # of connection points: 2
#     Edge 9, Type (0, 1), BuildingBlock: CIFDUS_clean_linker_0, # of connection points: 2
#     Edge 10, Type (0, 1), BuildingBlock: CIFDUS_clean_linker_0, # of connection points: 2
#     Edge 11, Type (0, 1), BuildingBlock: CIFDUS_clean_linker_0, # of connection points: 2
#     Edge 12, Type (0, 1), BuildingBlock: CIFDUS_clean_linker_0, # of connection points: 2
#     Edge 13, Type (0, 1), BuildingBlock: CIFDUS_clean_linker_0, # of connection points: 2
#     Edge 14, Type (0, 1), BuildingBlock: CIFDUS_clean_linker_0, # of connection points: 2
#     Edge 15, Type (0, 1), BuildingBlock: CIFDUS_clean_linker_0, # of connection points: 2
#     Edge 16, Type (0, 1), BuildingBlock: CIFDUS_clean_linker_0, # of connection points: 2
#     Edge 17, Type (0, 1), BuildingBlock: CIFDUS_clean_linker_0, # of connection points: 2
# Relax obj value: 0.123
# Max RMSD: 0.178
# Mean RMSD: 0.153
data_MOF--net-tsx--node1-FUNLAD_clean_sbu_0--node2-QEWDON_clean_linker_0--edge1-CIFDUS_clean_linker_0
_symmetry_space_group_name_H-M    P1
_symmetry_Int_Tables_number       1
_symmetry_cell_setting            triclinic
loop_
_symmetry_equiv_pos_as_xyz
'x, y, z'
_cell_length_a     16.046997
_cell_length_b     20.185869
_cell_length_c     31.662462
_cell_angle_alpha  91.396383
_cell_angle_beta   104.21002
_cell_angle_gamma 89.81671
loop_
_atom_site_label
_atom_site_type_symbol
_atom_site_fract_x
_atom_site_fract_y
_atom_site_fract_z
_atom_type_partial_charge
C0 C 0.96127 0.88304 1.02997 0.0
N1 N 0.12728 0.96359 0.14794 0.0
C2 C 1.05885 0.96332 0.16626 0.0
C3 C 1.07159 0.96514 0.21171 0.0
C4 C 0.15559 0.96801 0.23864 0.0
C5 C 0.22466 0.96866 0.21853 0.0
C6 C 0.2091 0.96569 0.17322 0.0
Zn7 Zn 0.11071 0.96761 0.08141 0.0
C8 C 0.22013 0.86969 0.04979 0.0
N9 N 1.07654 0.98255 0.94244 0.0
C10 C 0.99945 0.99327 0.91381 0.0
C11 C 0.15083 0.98388 0.929 0.0
C12 C 0.14984 -0.00271 0.88582 0.0
C13 C 1.07148 0.00846 0.85528 0.0
C14 C 0.9954 0.00602 0.86991 0.0
Zn15 Zn 0.08819 0.97277 1.00878 0.0
O16 O 1.00123 0.90059 0.06874 0.0
C17 C 0.99191 0.07696 0.04672 0.0
O18 O 0.98687 0.90433 0.99785 0.0
H19 H 0.21173 0.97602 0.9521 0.0
H20 H 0.9942 0.9622 0.14564 0.0
H21 H 0.94105 0.99269 0.92508 0.0
O22 O 1.03009 0.04731 0.08077 0.0
O23 O 0.99905 0.05504 1.00956 0.0
H24 H 0.26282 0.96603 0.15826 0.0
O25 O 0.18579 0.04088 1.01933 0.0
O26 O 0.21681 0.03575 0.0905 0.0
O27 O 0.18344 0.89288 1.01259 0.0
O28 O 0.19621 0.88967 0.08321 0.0
C29 C 0.23107 0.05953 0.05613 0.0
H30 H 1.01621 0.96362 0.22547 0.0
H31 H 0.29057 0.97224 0.23752 0.0
H32 H 0.21056 -0.00014 0.87679 0.0
H33 H 0.93322 0.01329 0.84769 0.0
C34 C 0.52578 0.38182 0.53251 0.0
N35 N 0.65831 0.49305 0.64517 0.0
C36 C 0.65971 0.4389 0.67013 0.0
C37 C 0.66344 0.44655 0.71467 0.0
C38 C 0.66731 0.51045 0.7338 0.0
C39 C 0.66696 0.56524 0.70751 0.0
C40 C 0.66129 0.55543 0.66307 0.0
Zn41 Zn 0.64889 0.48431 0.57892 0.0
C42 C 0.78668 0.39916 0.55763 0.0
N43 N 0.63183 0.48362 0.44057 0.0
C44 C 0.55127 0.48328 0.41373 0.0
C45 C 0.70219 0.49059 0.42417 0.0
C46 C 0.69278 0.49928 0.3794 0.0
C47 C 0.61012 0.50142 0.35117 0.0
C48 C 0.53897 0.49217 0.36894 0.0
Zn49 Zn 0.6438 0.48465 0.50735 0.0
O50 O 0.56063 0.40254 0.57119 0.0
C51 C 0.51311 0.57257 0.53143 0.0
O52 O 0.55085 0.40546 0.50069 0.0
H53 H 0.7657 0.49148 0.44598 0.0
H54 H 0.65715 0.38977 0.65543 0.0
H55 H 0.49598 0.47794 0.4272 0.0
O56 O 0.5445 0.5493 0.56876 0.0
O57 O 0.54239 0.55333 0.49939 0.0
H58 H 0.65811 0.59806 0.64278 0.0
O59 O 0.73023 0.56639 0.51415 0.0
O60 O 0.73218 0.56803 0.58356 0.0
O61 O 0.75061 0.41666 0.51889 0.0
O62 O 0.75597 0.41935 0.58909 0.0
C63 C 0.75373 0.59412 0.55159 0.0
H64 H 0.66367 0.40302 0.73404 0.0
H65 H 0.66868 0.61522 0.72097 0.0
H66 H 0.74952 0.50639 0.36727 0.0
H67 H 0.47411 0.4921 0.34844 0.0
H68 H 0.1852 0.08042 0.51668 0.0
C69 C 0.19742 0.02991 0.52636 0.0
C70 C 0.18021 0.9795 0.49416 0.0
C71 C 0.23587 0.01516 0.57039 0.0
H72 H 0.17701 0.87518 0.48179 0.0
C73 C 0.19449 0.91407 0.50665 0.0
C74 C 0.24414 0.89898 0.54818 0.0
C75 C 0.26216 0.94944 0.58067 0.0
C76 C 0.25156 0.06907 0.60468 0.0
H77 H 0.29853 0.93811 0.61326 0.0
C78 C 0.18708 0.11578 0.60512 0.0
C79 C 0.19916 0.16934 0.63518 0.0
C80 C 0.32927 0.07486 0.63679 0.0
H81 H 0.38087 0.03988 0.63754 0.0
C82 C 0.34139 0.12689 0.66794 0.0
H83 H 0.12643 0.10886 0.58246 0.0
C84 C 0.27675 0.17411 0.66715 0.0
H85 H 0.28765 0.21454 0.69099 0.0
H86 H 0.40152 0.13105 0.69248 0.0
H87 H 0.97786 0.15264 0.57539 0.0
C88 C 0.96398 0.10103 0.56678 0.0
C89 C 0.96684 0.05538 0.59991 0.0
C90 C 0.95013 0.07888 0.52288 0.0
H91 H 0.95297 0.95422 0.61479 0.0
C92 C 0.94839 0.9889 0.58871 0.0
C93 C 0.92308 0.96645 0.54522 0.0
C94 C 0.927 0.01147 0.51227 0.0
C95 C 0.96488 0.12443 0.48856 0.0
H96 H 0.91292 0.99413 0.47864 0.0
C97 C 1.03941 0.16474 0.49597 0.0
C98 C 1.06232 0.19964 0.4622 0.0
C99 C 0.90897 0.12326 0.44686 0.0
H100 H 0.85074 0.09375 0.43992 0.0
C101 C 0.92898 0.15858 0.41326 0.0
H102 H 1.08079 0.1674 0.52779 0.0
C103 C 1.00531 0.19511 0.42047 0.0
H104 H 1.01972 0.21838 0.3927 0.0
H105 H 0.8862 0.15603 0.38098 0.0
H106 H 0.76692 0.62877 1.02191 0.0
C107 C 0.774 0.57591 1.0263 0.0
C108 C 0.77379 0.53451 0.98989 0.0
C109 C 0.77645 0.5482 0.06735 0.0
H110 H 0.78781 0.43547 0.96712 0.0
C111 C 0.78462 0.46647 0.99517 0.0
C112 C 0.79004 0.43754 1.03526 0.0
C113 C 0.78597 0.47845 0.07135 0.0
C114 C 0.75898 0.58967 0.1045 0.0
H115 H 0.78661 0.45528 0.10186 0.0
C116 C 0.69891 0.64215 0.09688 0.0
C117 C 0.66381 0.66946 0.13021 0.0
C118 C 0.79414 0.57221 0.14795 0.0
H119 H 0.84265 0.53405 0.15578 0.0
C120 C 0.76533 0.60246 0.18188 0.0
H121 H 0.67558 0.65939 0.06464 0.0
C122 C 0.6991 0.64903 0.1731 0.0
H123 H 0.67418 0.66723 0.19998 0.0
H124 H 0.79171 0.58739 0.21506 0.0
H125 H 0.55823 0.57113 0.0719 0.0
C126 C 0.53753 0.52153 0.06239 0.0
C127 C 0.54643 0.47425 0.09491 0.0
C128 C 0.50081 0.50455 1.0181 0.0
H129 H 0.51603 0.37639 0.10951 0.0
C130 C 0.51485 0.41045 0.08347 0.0
C131 C 0.47722 0.39189 1.03999 0.0
C132 C 0.47284 0.4389 1.00734 0.0
C133 C 0.49074 0.55492 0.98313 0.0
H134 H 0.44694 0.42464 0.97349 0.0
C135 C 0.55511 0.60231 0.98459 0.0
C136 C 0.54792 0.65061 0.95259 0.0
C137 C 0.41776 0.55572 0.9478 0.0
H138 H 0.36589 0.52059 0.94551 0.0
C139 C 0.41057 0.60252 0.91512 0.0
H140 H 0.61206 0.60014 1.01025 0.0
C141 C 0.4754 0.64967 0.91734 0.0
H142 H 0.46842 0.68577 0.89197 0.0
H143 H 0.3542 0.60247 0.88807 0.0
H144 H 0.2137 0.15739 0.99986 0.0
H145 H 0.38644 0.08103 0.11483 0.0
H146 H 0.48785 0.17186 0.11406 0.0
H147 H 0.52193 0.275 0.08244 0.0
H148 H 0.33304 0.35979 0.97572 0.0
H149 H 0.24653 0.26026 0.96922 0.0
C150 C 0.27392 0.16033 1.02464 0.0
C151 C 0.29316 0.11304 0.05739 0.0
C152 C 0.32957 0.2132 1.02472 0.0
C153 C 0.37049 0.11753 0.0896 0.0
C154 C 0.42834 0.16899 0.0889 0.0
C155 C 0.46131 0.27253 0.05808 0.0
C156 C 0.43384 0.32622 1.0303 0.0
C157 C 0.4077 0.21762 0.05694 0.0
C158 C 0.35714 0.31974 0.99744 0.0
C159 C 0.30645 0.26312 0.99413 0.0
H160 H 0.35104 0.86674 0.12175 0.0
H161 H 0.26625 0.77919 0.99269 0.0
H162 H 0.39637 0.71023 1.00616 0.0
H163 H 0.53057 0.67411 0.05539 0.0
H164 H 0.62099 0.76993 0.18181 0.0
H165 H 0.49076 0.83622 0.16855 0.0
C166 C 0.36047 0.83221 0.09654 0.0
C167 C 0.29797 0.82715 0.05648 0.0
C168 C 0.43606 0.79428 0.10413 0.0
C169 C 0.31272 0.78358 1.02386 0.0
C170 C 0.38713 0.74427 1.03162 0.0
C171 C 0.52346 0.70951 0.08017 0.0
C172 C 0.58685 0.71497 0.12009 0.0
C173 C 0.44906 0.74913 0.07177 0.0
C174 C 0.57366 0.76235 0.15123 0.0
C175 C 0.49907 0.80097 0.14354 0.0
H176 H 0.88211 0.8164 0.95484 0.0
H177 H 0.85977 0.85995 0.08583 0.0
H178 H 0.72288 0.8003 0.07049 0.0
H179 H 0.60945 0.7369 1.0196 0.0
H180 H 0.63925 0.68024 0.8926 0.0
H181 H 0.76955 0.74889 0.90483 0.0
C182 C 0.84753 0.81261 0.98013 0.0
C183 C 0.88156 0.84246 1.02158 0.0
C184 C 0.76926 0.77746 0.97126 0.0
C185 C 0.83574 0.83698 0.05388 0.0
C186 C 0.75704 0.80342 0.045 0.0
C187 C 0.64615 0.73763 0.99536 0.0
C188 C 0.61754 0.70059 0.95643 0.0
C189 C 0.72347 0.77343 1.00389 0.0
C190 C 0.66099 0.70725 0.9233 0.0
C191 C 0.73592 0.7459 0.93051 0.0
H192 H 0.85118 0.13743 0.99398 0.0
H193 H 1.04771 0.16325 0.11364 0.0
H194 H 0.99618 0.2742 0.12419 0.0
H195 H 0.90431 0.36854 0.09611 0.0
H196 H 0.70158 0.34233 0.97917 0.0
H197 H 0.74479 0.22742 0.97155 0.0
C198 C 0.88199 0.16732 1.02242 0.0
C199 C 0.95356 0.14228 0.05265 0.0
C200 C 0.85084 0.23127 1.02898 0.0
C201 C 0.9923 0.18123 0.08978 0.0
C202 C 0.96302 0.2449 0.09594 0.0
C203 C 0.86807 0.33711 0.06972 0.0
C204 C 0.80129 0.3644 1.03779 0.0
C205 C 0.89329 0.27097 0.06543 0.0
C206 C 0.75471 0.32284 1.00374 0.0
C207 C 0.77953 0.25714 0.99921 0.0
H208 H 0.83561 0.66089 0.49771 0.0
H209 H 0.74891 0.68252 0.61623 0.0
H210 H 0.78401 0.79941 0.62077 0.0
H211 H 0.83206 0.89598 0.59046 0.0
H212 H 0.94318 0.87726 0.47964 0.0
H213 H 0.901 0.75974 0.47119 0.0
C214 C 0.82586 0.6911 0.52487 0.0
C215 C 0.7896 0.66246 0.55663 0.0
C216 C 0.84835 0.75912 0.52804 0.0
C217 C 0.77728 0.70249 0.59153 0.0
C218 C 0.79655 0.76979 0.59398 0.0
C219 C 0.84988 0.86639 0.56503 0.0
C220 C 0.89275 0.89598 0.53637 0.0
C221 C 0.83123 0.79859 0.56231 0.0
C222 C 0.91003 0.85652 0.50222 0.0
C223 C 0.88689 0.78895 0.49774 0.0
H224 H 0.86172 0.33302 0.6318 0.0
H225 H 0.89531 0.37849 0.50444 0.0
H226 H 1.03288 0.32057 0.52063 0.0
H227 H 0.14267 0.25534 0.57047 0.0
H228 H 0.10252 0.19759 0.69363 0.0
H229 H 0.97173 0.26561 0.68127 0.0
C230 C 0.89896 0.33005 0.6075 0.0
C231 C 0.86765 0.35994 0.56678 0.0
C232 C 0.97773 0.2956 0.61677 0.0
C233 C 0.91703 0.35549 0.53578 0.0
C234 C 0.99617 0.32279 0.54515 0.0
C235 C 0.10426 0.25672 0.59408 0.0
C236 C 0.13012 0.21962 0.63199 0.0
C237 C 1.02686 0.29243 0.58539 0.0
C238 C 0.08322 0.22521 0.66391 0.0
C239 C 1.00802 0.26347 0.65657 0.0
H240 H 0.38374 0.38768 0.46545 0.0
H241 H 0.49254 0.27969 0.58173 0.0
H242 H 0.36096 0.21269 0.5697 0.0
H243 H 0.21549 0.18672 0.52684 0.0
H244 H 0.09991 0.30624 0.41623 0.0
H245 H 0.23397 0.3658 0.42525 0.0
C246 C 0.37914 0.3488 0.48783 0.0
C247 C 0.44876 0.33776 0.52396 0.0
C248 C 0.30195 0.3124 0.4817 0.0
C249 C 0.44051 0.28865 0.5534 0.0
C250 C 0.36509 0.25052 0.54657 0.0
C251 C 0.21802 0.22541 0.50437 0.0
C252 C 0.14552 0.23909 0.46981 0.0
C253 C 0.29506 0.26225 0.5109 0.0
C254 C 0.15354 0.2913 0.44212 0.0
C255 C 0.23068 0.32653 0.44753 0.0
H256 H 0.43831 0.62622 0.59309 0.0
H257 H 0.45245 0.64445 0.45918 0.0
H258 H 0.37212 0.74727 0.45399 0.0
H259 H 0.31113 0.83538 0.48854 0.0
H260 H 0.28274 0.81783 0.61998 0.0
H261 H 0.36025 0.7118 0.62583 0.0
C262 C 0.42251 0.65218 0.56257 0.0
C263 C 0.45197 0.628 0.52664 0.0
C264 C 0.37605 0.71165 0.55972 0.0
C265 C 0.43081 0.66194 0.4873 0.0
C266 C 0.3854 0.72099 0.48437 0.0
C267 C 0.31851 0.80774 0.51816 0.0
C268 C 0.28892 0.83401 0.55343 0.0
C269 C 0.35948 0.7467 0.52057 0.0
C270 C 0.30447 0.79873 0.59228 0.0
C271 C 0.34815 0.73799 0.59547 0.0
H272 H 1.06074 0.02721 0.29118 0.0
H273 H 0.28766 0.90842 0.29625 0.0
H274 H 0.31924 0.90986 0.37511 0.0
H275 H 0.28097 0.93996 0.44262 0.0
H276 H 1.04704 0.04525 0.44 0.0
H277 H 1.01991 0.05536 0.36039 0.0
C278 C 0.11671 0.00117 0.30943 0.0
C279 C 0.1722 0.96851 0.28726 0.0
C280 C 0.13362 0.0004 0.35532 0.0
C281 C 0.24482 0.9356 0.31193 0.0
C282 C 0.2628 0.93586 0.35724 0.0
C283 C 0.22411 0.96542 0.4246 0.0
C284 C 0.16613 0.99282 0.447 0.0
C285 C 0.20761 0.96773 0.37917 0.0
C286 C 0.0932 0.02575 0.42343 0.0
C287 C 1.0774 0.03034 0.37794 0.0
H288 H 0.96317 0.08919 0.79683 0.0
H289 H 0.17626 0.95384 0.80743 0.0
H290 H 0.17401 0.96948 0.73148 0.0
H291 H 0.10242 0.01072 0.65988 0.0
H292 H 0.87941 0.1351 0.64543 0.0
H293 H 0.89555 0.13595 0.7247 0.0
C294 C 1.009 0.06291 0.78259 0.0
C295 C 1.06993 0.02037 0.80848 0.0
C296 C 1.00595 0.07058 0.73799 0.0
C297 C 0.12952 0.98781 0.78912 0.0
C298 C 0.12807 -0.00365 0.74536 0.0
C299 C 1.05885 0.0395 0.67437 0.0
C300 C 0.99031 0.07325 0.64709 0.0
C301 C 1.06575 0.03653 0.71934 0.0
C302 C 0.93337 0.10959 0.66592 0.0
C303 C 0.94194 0.10915 0.71114 0.0
H304 H 0.78227 0.58169 0.79624 0.0
H305 H 0.55418 0.46073 0.77585 0.0
H306 H 0.55769 0.47076 0.85337 0.0
H307 H 0.63417 0.50276 0.92754 0.0
H308 H 0.87129 0.61243 0.95057 0.0
H309 H 0.85484 0.62023 0.8715 0.0
C310 C 0.73306 0.55817 0.80888 0.0
C311 C 0.6685 0.51989 0.78059 0.0
C312 C 0.737 0.56261 0.85384 0.0
C313 C 0.6051 0.48951 0.79718 0.0
C314 C 0.60685 0.49555 0.84139 0.0
C315 C 0.68087 0.53005 0.91508 0.0
C316 C 0.75332 0.55764 0.94452 0.0
C317 C 0.67351 0.53059 0.87008 0.0
C318 C 0.81444 0.59178 0.92837 0.0
C319 C 0.80554 0.59527 0.88325 0.0
H320 H 0.70128 0.44978 0.29564 0.0
H321 H 0.49019 0.58071 0.29946 0.0
H322 H 0.46017 0.59295 0.22058 0.0
H323 H 0.484 0.55667 0.1492 0.0
H324 H 0.6895 0.4206 0.14578 0.0
H325 H 0.73339 0.42191 0.22534 0.0
C326 C 0.64965 0.48192 0.27937 0.0
C327 C 0.59738 0.51342 0.30357 0.0
C328 C 0.63195 0.48811 0.23379 0.0
C329 C 0.53035 0.55458 0.28166 0.0
C330 C 0.51339 0.56198 0.23649 0.0
C331 C 0.5399 0.52904 0.16605 0.0
C332 C 0.58441 0.48943 0.14179 0.0
C333 C 0.56236 0.52769 0.21201 0.0
C334 C 0.65541 0.45239 0.16387 0.0
C335 C 0.67978 0.45247 0.20936 0.0
loop_
_geom_bond_atom_site_label_1
_geom_bond_atom_site_label_2
_geom_bond_distance
_geom_bond_site_symmetry_2
_ccdc_geom_bond_type
C0 O16 1.251 1_556 S
C0 O18 1.254 . S
N1 C2 1.333 1_545 S
N1 C6 1.307 . S
N1 Zn7 2.020 . S
C2 N1 1.333 1_565 S
C2 C3 1.379 . S
C2 H20 0.952 1_455 S
C3 C2 1.379 . S
C3 C4 1.390 1_565 S
C3 H30 0.949 1_455 S
C4 C3 1.390 1_545 S
C4 C5 1.357 . S
C5 C4 1.357 . S
C5 C6 1.370 . S
C5 H31 0.950 . S
C6 N1 1.307 . S
C6 C5 1.370 . S
C6 H24 0.948 . S
Zn7 N1 2.020 . S
Zn7 O16 2.039 1_445 S
Zn7 O22 2.034 1_455 S
Zn7 O26 2.025 . S
Zn7 O28 2.024 1_545 S
C8 O27 1.246 1_554 S
C8 O28 1.249 . S
N9 C10 1.307 1_445 S
N9 C11 1.333 . S
N9 Zn15 2.020 . S
C10 N9 1.307 1_665 S
C10 C14 1.370 . S
C10 H21 0.948 . S
C11 N9 1.333 . S
C11 C12 1.379 . S
C11 H19 0.952 . S
C12 C11 1.379 . S
C12 C13 1.390 1_455 S
C12 H32 0.949 . S
C13 C12 1.390 1_655 S
C13 C14 1.357 1_545 S
C14 C10 1.370 . S
C14 C13 1.357 1_565 S
C14 H33 0.950 . S
Zn15 N9 2.020 . S
Zn15 O18 2.025 1_445 S
Zn15 O23 2.024 1_455 S
Zn15 O25 2.039 . S
Zn15 O27 2.034 1_545 S
O16 C0 1.251 1_554 S
O16 Zn7 2.039 1_665 S
C17 O22 1.246 1_556 S
C17 O23 1.249 . S
O18 C0 1.254 . S
O18 Zn15 2.025 1_665 S
H19 C11 0.952 . S
H20 C2 0.952 1_655 S
H21 C10 0.948 . S
O22 Zn7 2.034 1_655 S
O22 C17 1.246 1_554 S
O23 Zn15 2.024 1_655 S
O23 C17 1.249 . S
H24 C6 0.948 . S
O25 Zn15 2.039 . S
O25 C29 1.251 1_556 S
O26 Zn7 2.025 . S
O26 C29 1.254 . S
O27 C8 1.246 1_556 S
O27 Zn15 2.034 1_565 S
O28 Zn7 2.024 1_565 S
O28 C8 1.249 . S
C29 O25 1.251 1_554 S
C29 O26 1.254 . S
H30 C3 0.949 1_655 S
H31 C5 0.950 . S
H32 C12 0.949 . S
H33 C14 0.950 . S
C34 O50 1.251 . S
C34 O52 1.254 . S
N35 C36 1.333 . S
N35 C40 1.307 . S
N35 Zn41 2.020 . S
C36 N35 1.333 . S
C36 C37 1.379 . S
C36 H54 0.952 . S
C37 C36 1.379 . S
C37 C38 1.390 . S
C37 H64 0.949 . S
C38 C37 1.390 . S
C38 C39 1.357 . S
C39 C38 1.357 . S
C39 C40 1.370 . S
C39 H65 0.950 . S
C40 N35 1.307 . S
C40 C39 1.370 . S
C40 H58 0.948 . S
Zn41 N35 2.020 . S
Zn41 O50 2.039 . S
Zn41 O56 2.034 . S
Zn41 O60 2.025 . S
Zn41 O62 2.024 . S
C42 O61 1.246 . S
C42 O62 1.249 . S
N43 C44 1.307 . S
N43 C45 1.333 . S
N43 Zn49 2.020 . S
C44 N43 1.307 . S
C44 C48 1.370 . S
C44 H55 0.948 . S
C45 N43 1.333 . S
C45 C46 1.379 . S
C45 H53 0.952 . S
C46 C45 1.379 . S
C46 C47 1.390 . S
C46 H66 0.949 . S
C47 C46 1.390 . S
C47 C48 1.357 . S
C48 C44 1.370 . S
C48 C47 1.357 . S
C48 H67 0.950 . S
Zn49 N43 2.020 . S
Zn49 O52 2.025 . S
Zn49 O57 2.024 . S
Zn49 O59 2.039 . S
Zn49 O61 2.034 . S
O50 C34 1.251 . S
O50 Zn41 2.039 . S
C51 O56 1.246 . S
C51 O57 1.249 . S
O52 C34 1.254 . S
O52 Zn49 2.025 . S
H53 C45 0.952 . S
H54 C36 0.952 . S
H55 C44 0.948 . S
O56 Zn41 2.034 . S
O56 C51 1.246 . S
O57 Zn49 2.024 . S
O57 C51 1.249 . S
H58 C40 0.948 . S
O59 Zn49 2.039 . S
O59 C63 1.251 . S
O60 Zn41 2.025 . S
O60 C63 1.254 . S
O61 C42 1.246 . S
O61 Zn49 2.034 . S
O62 Zn41 2.024 . S
O62 C42 1.249 . S
C63 O59 1.251 . S
C63 O60 1.254 . S
H64 C37 0.949 . S
H65 C39 0.950 . S
H66 C46 0.949 . S
H67 C48 0.950 . S
H68 C69 0.949 . S
C69 H68 0.949 . S
C69 C70 1.395 1_545 S
C69 C71 1.391 . S
C70 C69 1.395 1_565 S
C70 C73 1.390 . S
C71 C69 1.391 . S
C71 C75 1.387 1_545 S
C71 C76 1.491 . S
H72 C73 0.950 . S
C73 C70 1.390 . S
C73 H72 0.950 . S
C73 C74 1.378 . S
C74 C73 1.378 . S
C74 C75 1.409 . S
C75 C71 1.387 1_565 S
C75 C74 1.409 . S
C75 H77 0.951 . S
C76 C71 1.491 . S
C76 C78 1.382 1_455 S
C76 C80 1.404 . S
H77 C75 0.951 . S
C78 C76 1.382 1_655 S
C78 C79 1.390 . S
C78 H83 0.949 . S
C79 C78 1.390 . S
C79 C84 1.399 1_655 S
C80 C76 1.404 . S
C80 H81 0.950 . S
C80 C82 1.375 . S
H81 C80 0.950 . S
C82 C80 1.375 . S
C82 C84 1.382 . S
C82 H86 0.950 . S
H83 C78 0.949 . S
C84 C79 1.399 1_455 S
C84 C82 1.382 . S
C84 H85 0.952 . S
H85 C84 0.952 . S
H86 C82 0.950 . S
H87 C88 0.944 1_455 S
C88 H87 0.944 1_655 S
C88 C89 1.401 1_545 S
C88 C90 1.391 . S
C89 C88 1.401 1_565 S
C89 C92 1.389 . S
C90 C88 1.391 . S
C90 C94 1.387 1_545 S
C90 C95 1.491 1_655 S
H91 C92 0.950 . S
C92 C89 1.389 . S
C92 H91 0.950 . S
C92 C93 1.378 . S
C93 C92 1.378 . S
C93 C94 1.409 . S
C94 C90 1.387 1_565 S
C94 C93 1.409 . S
C94 H96 0.951 . S
C95 C90 1.491 1_455 S
C95 C97 1.382 . S
C95 C99 1.404 1_455 S
H96 C94 0.951 . S
C97 C95 1.382 . S
C97 C98 1.390 . S
C97 H102 0.949 . S
C98 C97 1.390 . S
C98 C103 1.399 . S
C99 C95 1.404 1_655 S
C99 H100 0.950 . S
C99 C101 1.375 . S
H100 C99 0.950 . S
C101 C99 1.375 . S
C101 C103 1.382 1_655 S
C101 H105 0.950 . S
H102 C97 0.949 . S
C103 C98 1.399 . S
C103 C101 1.382 1_455 S
C103 H104 0.952 . S
H104 C103 0.952 . S
H105 C101 0.950 . S
H106 C107 0.949 . S
C107 H106 0.949 . S
C107 C108 1.395 . S
C107 C109 1.391 . S
C108 C107 1.395 . S
C108 C111 1.390 . S
C109 C107 1.391 . S
C109 C113 1.387 1_556 S
C109 C114 1.491 1_556 S
H110 C111 0.950 . S
C111 C108 1.390 . S
C111 H110 0.950 . S
C111 C112 1.378 . S
C112 C111 1.378 . S
C112 C113 1.409 1_556 S
C113 C109 1.387 1_554 S
C113 C112 1.409 1_554 S
C113 H115 0.951 . S
C114 C109 1.491 1_554 S
C114 C116 1.382 . S
C114 C118 1.404 . S
H115 C113 0.951 . S
C116 C114 1.382 . S
C116 C117 1.390 . S
C116 H121 0.949 1_554 S
C117 C116 1.390 . S
C117 C122 1.399 . S
C118 C114 1.404 . S
C118 H119 0.950 . S
C118 C120 1.375 . S
H119 C118 0.950 . S
C120 C118 1.375 . S
C120 C122 1.382 . S
C120 H124 0.950 . S
H121 C116 0.949 1_556 S
C122 C117 1.399 . S
C122 C120 1.382 . S
C122 H123 0.952 . S
H123 C122 0.952 . S
H124 C120 0.950 . S
H125 C126 0.949 . S
C126 H125 0.949 . S
C126 C127 1.395 . S
C126 C128 1.391 . S
C127 C126 1.395 . S
C127 C130 1.390 . S
C128 C126 1.391 . S
C128 C132 1.387 . S
C128 C133 1.491 1_554 S
H129 C130 0.950 . S
C130 C127 1.390 . S
C130 H129 0.950 . S
C130 C131 1.378 . S
C131 C130 1.378 . S
C131 C132 1.409 . S
C132 C128 1.387 . S
C132 C131 1.409 . S
C132 H134 0.951 1_554 S
C133 C128 1.491 1_556 S
C133 C135 1.382 1_556 S
C133 C137 1.404 . S
H134 C132 0.951 1_556 S
C135 C133 1.382 1_554 S
C135 C136 1.390 1_554 S
C135 H140 0.949 . S
C136 C135 1.390 1_556 S
C136 C141 1.399 . S
C137 C133 1.404 . S
C137 H138 0.950 . S
C137 C139 1.375 . S
H138 C137 0.950 . S
C139 C137 1.375 . S
C139 C141 1.382 . S
C139 H143 0.950 . S
H140 C135 0.949 . S
C141 C136 1.399 . S
C141 C139 1.382 . S
C141 H142 0.952 . S
H142 C141 0.952 . S
H143 C139 0.950 . S
H144 C150 0.930 . S
H145 C153 0.930 . S
H146 C154 0.930 . S
H147 C155 0.930 . S
H148 C158 0.930 . S
H149 C159 0.930 . S
C150 H144 0.930 . S
C150 C151 1.355 . S
C150 C152 1.415 . S
C151 C150 1.355 . S
C151 C153 1.419 . S
C152 C150 1.415 . S
C152 C157 1.425 . S
C152 C159 1.409 . S
C153 H145 0.930 . S
C153 C151 1.419 . S
C153 C154 1.362 . S
C154 H146 0.930 . S
C154 C153 1.362 . S
C154 C157 1.409 . S
C155 H147 0.930 . S
C155 C156 1.355 . S
C155 C157 1.415 . S
C156 C155 1.355 . S
C156 C158 1.419 . S
C157 C152 1.425 . S
C157 C154 1.409 . S
C157 C155 1.415 . S
C158 H148 0.930 . S
C158 C156 1.419 . S
C158 C159 1.362 . S
C159 H149 0.930 . S
C159 C152 1.409 . S
C159 C158 1.362 . S
H160 C166 0.930 . S
H161 C169 0.930 . S
H162 C170 0.930 . S
H163 C171 0.930 1_556 S
H164 C174 0.930 . S
H165 C175 0.930 . S
C166 H160 0.930 . S
C166 C167 1.355 . S
C166 C168 1.415 . S
C167 C166 1.355 . S
C167 C169 1.419 1_554 S
C168 C166 1.415 . S
C168 C173 1.425 . S
C168 C175 1.409 . S
C169 H161 0.930 . S
C169 C167 1.419 1_556 S
C169 C170 1.362 . S
C170 H162 0.930 . S
C170 C169 1.362 . S
C170 C173 1.409 1_556 S
C171 H163 0.930 1_554 S
C171 C172 1.355 . S
C171 C173 1.415 . S
C172 C171 1.355 . S
C172 C174 1.419 . S
C173 C168 1.425 . S
C173 C170 1.409 1_554 S
C173 C171 1.415 . S
C174 H164 0.930 . S
C174 C172 1.419 . S
C174 C175 1.362 . S
C175 H165 0.930 . S
C175 C168 1.409 . S
C175 C174 1.362 . S
H176 C182 0.930 . S
H177 C185 0.930 . S
H178 C186 0.930 . S
H179 C187 0.930 . S
H180 C190 0.930 . S
H181 C191 0.930 . S
C182 H176 0.930 . S
C182 C183 1.355 . S
C182 C184 1.415 . S
C183 C182 1.355 . S
C183 C185 1.419 1_556 S
C184 C182 1.415 . S
C184 C189 1.430 . S
C184 C191 1.409 . S
C185 H177 0.930 . S
C185 C183 1.419 1_554 S
C185 C186 1.362 . S
C186 H178 0.930 . S
C186 C185 1.362 . S
C186 C189 1.407 1_554 S
C187 H179 0.930 . S
C187 C188 1.355 1_554 S
C187 C189 1.412 1_554 S
C188 C187 1.355 1_556 S
C188 C190 1.419 . S
C189 C184 1.430 . S
C189 C186 1.407 1_556 S
C189 C187 1.412 1_556 S
C190 H180 0.930 . S
C190 C188 1.419 . S
C190 C191 1.362 . S
C191 H181 0.930 . S
C191 C184 1.409 . S
C191 C190 1.362 . S
H192 C198 0.930 . S
H193 C201 0.930 . S
H194 C202 0.930 . S
H195 C203 0.930 . S
H196 C206 0.930 . S
H197 C207 0.930 . S
C198 H192 0.930 . S
C198 C199 1.355 . S
C198 C200 1.415 . S
C199 C198 1.355 . S
C199 C201 1.419 1_556 S
C200 C198 1.415 . S
C200 C205 1.425 1_556 S
C200 C207 1.409 . S
C201 H193 0.930 . S
C201 C199 1.419 1_554 S
C201 C202 1.362 . S
C202 H194 0.930 . S
C202 C201 1.362 . S
C202 C205 1.409 . S
C203 H195 0.930 . S
C203 C204 1.355 1_554 S
C203 C205 1.415 . S
C204 C203 1.355 1_556 S
C204 C206 1.419 . S
C205 C200 1.425 1_554 S
C205 C202 1.409 . S
C205 C203 1.415 . S
C206 H196 0.930 . S
C206 C204 1.419 . S
C206 C207 1.362 . S
C207 H197 0.930 . S
C207 C200 1.409 . S
C207 C206 1.362 . S
H208 C214 0.930 . S
H209 C217 0.930 . S
H210 C218 0.930 . S
H211 C219 0.930 . S
H212 C222 0.930 . S
H213 C223 0.930 . S
C214 H208 0.930 . S
C214 C215 1.355 . S
C214 C216 1.415 . S
C215 C214 1.355 . S
C215 C217 1.419 . S
C216 C214 1.415 . S
C216 C221 1.425 . S
C216 C223 1.409 . S
C217 H209 0.930 . S
C217 C215 1.419 . S
C217 C218 1.362 . S
C218 H210 0.930 . S
C218 C217 1.362 . S
C218 C221 1.409 . S
C219 H211 0.930 . S
C219 C220 1.355 . S
C219 C221 1.415 . S
C220 C219 1.355 . S
C220 C222 1.419 . S
C221 C216 1.425 . S
C221 C218 1.409 . S
C221 C219 1.415 . S
C222 H212 0.930 . S
C222 C220 1.419 . S
C222 C223 1.362 . S
C223 H213 0.930 . S
C223 C216 1.409 . S
C223 C222 1.362 . S
H224 C230 0.930 . S
H225 C233 0.930 . S
H226 C234 0.930 . S
H227 C235 0.930 . S
H228 C238 0.930 . S
H229 C239 0.930 . S
C230 H224 0.930 . S
C230 C231 1.355 . S
C230 C232 1.415 . S
C231 C230 1.355 . S
C231 C233 1.419 . S
C232 C230 1.415 . S
C232 C237 1.425 . S
C232 C239 1.409 . S
C233 H225 0.930 . S
C233 C231 1.419 . S
C233 C234 1.362 . S
C234 H226 0.930 . S
C234 C233 1.362 . S
C234 C237 1.409 . S
C235 H227 0.930 . S
C235 C236 1.355 . S
C235 C237 1.415 . S
C236 C235 1.355 . S
C236 C238 1.419 . S
C237 C232 1.425 . S
C237 C234 1.409 . S
C237 C235 1.415 . S
C238 H228 0.930 . S
C238 C236 1.419 . S
C238 C239 1.362 . S
C239 H229 0.930 . S
C239 C232 1.409 . S
C239 C238 1.362 . S
H240 C246 0.930 . S
H241 C249 0.930 . S
H242 C250 0.930 . S
H243 C251 0.930 . S
H244 C254 0.930 . S
H245 C255 0.930 . S
C246 H240 0.930 . S
C246 C247 1.355 . S
C246 C248 1.415 . S
C247 C246 1.355 . S
C247 C249 1.419 . S
C248 C246 1.415 . S
C248 C253 1.425 . S
C248 C255 1.409 . S
C249 H241 0.930 . S
C249 C247 1.419 . S
C249 C250 1.362 . S
C250 H242 0.930 . S
C250 C249 1.362 . S
C250 C253 1.409 . S
C251 H243 0.930 . S
C251 C252 1.355 . S
C251 C253 1.415 . S
C252 C251 1.355 . S
C252 C254 1.419 . S
C253 C248 1.425 . S
C253 C250 1.409 . S
C253 C251 1.415 . S
C254 H244 0.930 . S
C254 C252 1.419 . S
C254 C255 1.362 . S
C255 H245 0.930 . S
C255 C248 1.409 . S
C255 C254 1.362 . S
H256 C262 0.930 . S
H257 C265 0.930 . S
H258 C266 0.930 . S
H259 C267 0.930 . S
H260 C270 0.930 . S
H261 C271 0.930 . S
C262 H256 0.930 . S
C262 C263 1.355 . S
C262 C264 1.415 . S
C263 C262 1.355 . S
C263 C265 1.419 . S
C264 C262 1.415 . S
C264 C269 1.425 . S
C264 C271 1.409 . S
C265 H257 0.930 . S
C265 C263 1.419 . S
C265 C266 1.362 . S
C266 H258 0.930 . S
C266 C265 1.362 . S
C266 C269 1.409 . S
C267 H259 0.930 . S
C267 C268 1.355 . S
C267 C269 1.415 . S
C268 C267 1.355 . S
C268 C270 1.419 . S
C269 C264 1.425 . S
C269 C266 1.409 . S
C269 C267 1.415 . S
C270 H260 0.930 . S
C270 C268 1.419 . S
C270 C271 1.362 . S
C271 H261 0.930 . S
C271 C264 1.409 . S
C271 C270 1.362 . S
H272 C278 0.930 . S
H273 C281 0.930 . S
H274 C282 0.930 . S
H275 C283 0.930 . S
H276 C286 0.930 . S
H277 C287 0.930 . S
C278 H272 0.930 . S
C278 C279 1.358 . S
C278 C280 1.415 . S
C279 C278 1.358 . S
C279 C281 1.415 1_545 S
C280 C278 1.415 . S
C280 C285 1.425 1_545 S
C280 C287 1.409 . S
C281 H273 0.930 . S
C281 C279 1.415 1_565 S
C281 C282 1.362 . S
C282 H274 0.930 . S
C282 C281 1.362 . S
C282 C285 1.409 . S
C283 H275 0.930 . S
C283 C284 1.355 1_565 S
C283 C285 1.415 . S
C284 C283 1.355 1_545 S
C284 C286 1.419 . S
C285 C280 1.425 1_565 S
C285 C282 1.409 . S
C285 C283 1.415 . S
C286 H276 0.930 . S
C286 C284 1.419 . S
C286 C287 1.362 . S
C287 H277 0.930 . S
C287 C280 1.409 . S
C287 C286 1.362 . S
H288 C294 0.930 . S
H289 C297 0.930 . S
H290 C298 0.930 . S
H291 C299 0.930 . S
H292 C302 0.930 . S
H293 C303 0.930 . S
C294 H288 0.930 . S
C294 C295 1.355 1_565 S
C294 C296 1.414 1_565 S
C295 C294 1.355 1_545 S
C295 C297 1.419 1_655 S
C296 C294 1.414 1_545 S
C296 C301 1.427 1_655 S
C296 C303 1.408 1_545 S
C297 H289 0.930 . S
C297 C295 1.419 1_455 S
C297 C298 1.362 . S
C298 H290 0.930 . S
C298 C297 1.362 . S
C298 C301 1.409 . S
C299 H291 0.930 . S
C299 C300 1.355 1_455 S
C299 C301 1.415 . S
C300 C299 1.355 1_655 S
C300 C302 1.419 1_545 S
C301 C296 1.427 1_455 S
C301 C298 1.409 . S
C301 C299 1.415 . S
C302 H292 0.930 . S
C302 C300 1.419 1_565 S
C302 C303 1.362 . S
C303 H293 0.930 . S
C303 C296 1.408 1_565 S
C303 C302 1.362 . S
H304 C310 0.930 . S
H305 C313 0.930 . S
H306 C314 0.930 . S
H307 C315 0.930 . S
H308 C318 0.930 . S
H309 C319 0.930 . S
C310 H304 0.930 . S
C310 C311 1.355 . S
C310 C312 1.415 . S
C311 C310 1.355 . S
C311 C313 1.419 . S
C312 C310 1.415 . S
C312 C317 1.425 . S
C312 C319 1.409 . S
C313 H305 0.930 . S
C313 C311 1.419 . S
C313 C314 1.362 . S
C314 H306 0.930 . S
C314 C313 1.362 . S
C314 C317 1.409 . S
C315 H307 0.930 . S
C315 C316 1.355 . S
C315 C317 1.415 . S
C316 C315 1.355 . S
C316 C318 1.419 . S
C317 C312 1.425 . S
C317 C314 1.409 . S
C317 C315 1.415 . S
C318 H308 0.930 . S
C318 C316 1.419 . S
C318 C319 1.362 . S
C319 H309 0.930 . S
C319 C312 1.409 . S
C319 C318 1.362 . S
H320 C326 0.930 . S
H321 C329 0.930 . S
H322 C330 0.930 . S
H323 C331 0.930 . S
H324 C334 0.930 . S
H325 C335 0.930 . S
C326 H320 0.930 . S
C326 C327 1.355 . S
C326 C328 1.415 . S
C327 C326 1.355 . S
C327 C329 1.419 . S
C328 C326 1.415 . S
C328 C333 1.425 . S
C328 C335 1.409 . S
C329 H321 0.930 . S
C329 C327 1.419 . S
C329 C330 1.362 . S
C330 H322 0.930 . S
C330 C329 1.362 . S
C330 C333 1.409 . S
C331 H323 0.930 . S
C331 C332 1.355 . S
C331 C333 1.415 . S
C332 C331 1.355 . S
C332 C334 1.419 . S
C333 C328 1.425 . S
C333 C330 1.409 . S
C333 C331 1.415 . S
C334 H324 0.930 . S
C334 C332 1.419 . S
C334 C335 1.362 . S
C335 H325 0.930 . S
C335 C328 1.409 . S
C335 C334 1.362 . S
C156 C131 1.518 . S
C151 C29 1.565 . S
C167 C8 1.449 . S
C172 C117 1.382 . S
C183 C0 1.439 . S
C188 C136 1.439 . S
C199 C17 1.562 . S
C204 C112 1.525 . S
C215 C63 1.556 . S
C220 C93 1.548 . S
C231 C42 1.436 . S
C236 C79 1.403 . S
C252 C98 1.386 . S
C247 C34 1.453 . S
C268 C74 1.540 . S
C263 C51 1.562 . S
C279 C4 1.557 . S
C284 C70 1.556 1_545 S
C295 C13 1.534 . S
C300 C89 1.517 1_545 S
C316 C108 1.523 . S
C311 C38 1.543 . S
C327 C47 1.542 . S
C332 C127 1.510 . S
