# Generated by pormake.
# Topology ctn, (3,4)-cn, num edge types: 1
# Building blocks:
#     Node 0, Type 0, BuildingBlock: BETDIP_clean_linker_0, # of connection points: 3
#     Node 1, Type 0, BuildingBlock: BETDIP_clean_linker_0, # of connection points: 3
#     Node 2, Type 0, BuildingBlock: BETDIP_clean_linker_0, # of connection points: 3
#     Node 3, Type 0, BuildingBlock: BETDIP_clean_linker_0, # of connection points: 3
#     Node 4, Type 0, BuildingBlock: BETDIP_clean_linker_0, # of connection points: 3
#     Node 5, Type 0, BuildingBlock: BETDIP_clean_linker_0, # of connection points: 3
#     Node 6, Type 0, BuildingBlock: BETDIP_clean_linker_0, # of connection points: 3
#     Node 7, Type 0, BuildingBlock: BETDIP_clean_linker_0, # of connection points: 3
#     Node 8, Type 0, BuildingBlock: BETDIP_clean_linker_0, # of connection points: 3
#     Node 9, Type 0, BuildingBlock: BETDIP_clean_linker_0, # of connection points: 3
#     Node 10, Type 0, BuildingBlock: BETDIP_clean_linker_0, # of connection points: 3
#     Node 11, Type 0, BuildingBlock: BETDIP_clean_linker_0, # of connection points: 3
#     Node 12, Type 0, BuildingBlock: BETDIP_clean_linker_0, # of connection points: 3
#     Node 13, Type 0, BuildingBlock: BETDIP_clean_linker_0, # of connection points: 3
#     Node 14, Type 0, BuildingBlock: BETDIP_clean_linker_0, # of connection points: 3
#     Node 15, Type 0, BuildingBlock: BETDIP_clean_linker_0, # of connection points: 3
#     Node 16, Type 1, BuildingBlock: KUFVIS_clean_sbu_0, # of connection points: 4
#     Node 17, Type 1, BuildingBlock: KUFVIS_clean_sbu_0, # of connection points: 4
#     Node 18, Type 1, BuildingBlock: KUFVIS_clean_sbu_0, # of connection points: 4
#     Node 19, Type 1, BuildingBlock: KUFVIS_clean_sbu_0, # of connection points: 4
#     Node 20, Type 1, BuildingBlock: KUFVIS_clean_sbu_0, # of connection points: 4
#     Node 21, Type 1, BuildingBlock: KUFVIS_clean_sbu_0, # of connection points: 4
#     Node 22, Type 1, BuildingBlock: KUFVIS_clean_sbu_0, # of connection points: 4
#     Node 23, Type 1, BuildingBlock: KUFVIS_clean_sbu_0, # of connection points: 4
#     Node 24, Type 1, BuildingBlock: KUFVIS_clean_sbu_0, # of connection points: 4
#     Node 25, Type 1, BuildingBlock: KUFVIS_clean_sbu_0, # of connection points: 4
#     Node 26, Type 1, BuildingBlock: KUFVIS_clean_sbu_0, # of connection points: 4
#     Node 27, Type 1, BuildingBlock: KUFVIS_clean_sbu_0, # of connection points: 4
#     Edge 28, Type (0, 1), BuildingBlock: XIVTED_clean_linker_0, # of connection points: 2
#     Edge 29, Type (0, 1), BuildingBlock: XIVTED_clean_linker_0, # of connection points: 2
#     Edge 30, Type (0, 1), BuildingBlock: XIVTED_clean_linker_0, # of connection points: 2
#     Edge 31, Type (0, 1), BuildingBlock: XIVTED_clean_linker_0, # of connection points: 2
#     Edge 32, Type (0, 1), BuildingBlock: XIVTED_clean_linker_0, # of connection points: 2
#     Edge 33, Type (0, 1), BuildingBlock: XIVTED_clean_linker_0, # of connection points: 2
#     Edge 34, Type (0, 1), BuildingBlock: XIVTED_clean_linker_0, # of connection points: 2
#     Edge 35, Type (0, 1), BuildingBlock: XIVTED_clean_linker_0, # of connection points: 2
#     Edge 36, Type (0, 1), BuildingBlock: XIVTED_clean_linker_0, # of connection points: 2
#     Edge 37, Type (0, 1), BuildingBlock: XIVTED_clean_linker_0, # of connection points: 2
#     Edge 38, Type (0, 1), BuildingBlock: XIVTED_clean_linker_0, # of connection points: 2
#     Edge 39, Type (0, 1), BuildingBlock: XIVTED_clean_linker_0, # of connection points: 2
#     Edge 40, Type (0, 1), BuildingBlock: XIVTED_clean_linker_0, # of connection points: 2
#     Edge 41, Type (0, 1), BuildingBlock: XIVTED_clean_linker_0, # of connection points: 2
#     Edge 42, Type (0, 1), BuildingBlock: XIVTED_clean_linker_0, # of connection points: 2
#     Edge 43, Type (0, 1), BuildingBlock: XIVTED_clean_linker_0, # of connection points: 2
#     Edge 44, Type (0, 1), BuildingBlock: XIVTED_clean_linker_0, # of connection points: 2
#     Edge 45, Type (0, 1), BuildingBlock: XIVTED_clean_linker_0, # of connection points: 2
#     Edge 46, Type (0, 1), BuildingBlock: XIVTED_clean_linker_0, # of connection points: 2
#     Edge 47, Type (0, 1), BuildingBlock: XIVTED_clean_linker_0, # of connection points: 2
#     Edge 48, Type (0, 1), BuildingBlock: XIVTED_clean_linker_0, # of connection points: 2
#     Edge 49, Type (0, 1), BuildingBlock: XIVTED_clean_linker_0, # of connection points: 2
#     Edge 50, Type (0, 1), BuildingBlock: XIVTED_clean_linker_0, # of connection points: 2
#     Edge 51, Type (0, 1), BuildingBlock: XIVTED_clean_linker_0, # of connection points: 2
#     Edge 52, Type (0, 1), BuildingBlock: XIVTED_clean_linker_0, # of connection points: 2
#     Edge 53, Type (0, 1), BuildingBlock: XIVTED_clean_linker_0, # of connection points: 2
#     Edge 54, Type (0, 1), BuildingBlock: XIVTED_clean_linker_0, # of connection points: 2
#     Edge 55, Type (0, 1), BuildingBlock: XIVTED_clean_linker_0, # of connection points: 2
#     Edge 56, Type (0, 1), BuildingBlock: XIVTED_clean_linker_0, # of connection points: 2
#     Edge 57, Type (0, 1), BuildingBlock: XIVTED_clean_linker_0, # of connection points: 2
#     Edge 58, Type (0, 1), BuildingBlock: XIVTED_clean_linker_0, # of connection points: 2
#     Edge 59, Type (0, 1), BuildingBlock: XIVTED_clean_linker_0, # of connection points: 2
#     Edge 60, Type (0, 1), BuildingBlock: XIVTED_clean_linker_0, # of connection points: 2
#     Edge 61, Type (0, 1), BuildingBlock: XIVTED_clean_linker_0, # of connection points: 2
#     Edge 62, Type (0, 1), BuildingBlock: XIVTED_clean_linker_0, # of connection points: 2
#     Edge 63, Type (0, 1), BuildingBlock: XIVTED_clean_linker_0, # of connection points: 2
#     Edge 64, Type (0, 1), BuildingBlock: XIVTED_clean_linker_0, # of connection points: 2
#     Edge 65, Type (0, 1), BuildingBlock: XIVTED_clean_linker_0, # of connection points: 2
#     Edge 66, Type (0, 1), BuildingBlock: XIVTED_clean_linker_0, # of connection points: 2
#     Edge 67, Type (0, 1), BuildingBlock: XIVTED_clean_linker_0, # of connection points: 2
#     Edge 68, Type (0, 1), BuildingBlock: XIVTED_clean_linker_0, # of connection points: 2
#     Edge 69, Type (0, 1), BuildingBlock: XIVTED_clean_linker_0, # of connection points: 2
#     Edge 70, Type (0, 1), BuildingBlock: XIVTED_clean_linker_0, # of connection points: 2
#     Edge 71, Type (0, 1), BuildingBlock: XIVTED_clean_linker_0, # of connection points: 2
#     Edge 72, Type (0, 1), BuildingBlock: XIVTED_clean_linker_0, # of connection points: 2
#     Edge 73, Type (0, 1), BuildingBlock: XIVTED_clean_linker_0, # of connection points: 2
#     Edge 74, Type (0, 1), BuildingBlock: XIVTED_clean_linker_0, # of connection points: 2
#     Edge 75, Type (0, 1), BuildingBlock: XIVTED_clean_linker_0, # of connection points: 2
# Relax obj value: 0.079
# Max RMSD: 0.188
# Mean RMSD: 0.122
data_MOF--net-ctn--node1-KUFVIS_clean_sbu_0--node2-BETDIP_clean_linker_0--edge1-XIVTED_clean_linker_0
_symmetry_space_group_name_H-M    P1
_symmetry_Int_Tables_number       1
_symmetry_cell_setting            triclinic
loop_
_symmetry_equiv_pos_as_xyz
'x, y, z'
_cell_length_a     51.870549
_cell_length_b     52.051673
_cell_length_c     57.521668
_cell_angle_alpha  94.663585
_cell_angle_beta   94.192439
_cell_angle_gamma 94.743469
loop_
_atom_site_label
_atom_site_type_symbol
_atom_site_fract_x
_atom_site_fract_y
_atom_site_fract_z
_atom_type_partial_charge
H0 H 0.03449 0.06057 0.07502 0.0
H1 H 0.08737 0.03625 0.02573 0.0
H2 H 0.08315 0.99965 0.08992 0.0
H3 H 0.09016 0.0792 0.02012 0.0
C4 C 0.06988 0.08307 0.01974 0.0
C5 C 0.04951 0.04827 0.07036 0.0
C6 C 0.0571 0.02945 0.08512 0.0
C7 C 0.06112 0.05152 0.04947 0.0
C8 C 0.07973 0.03492 0.04263 0.0
C9 C 0.08799 0.01609 0.05703 0.0
C10 C 0.07655 0.01357 0.07834 0.0
N11 N 0.05351 0.07137 0.03547 0.0
H12 H 0.29629 0.6768 0.17971 0.0
H13 H 0.3704 0.71679 0.20244 0.0
H14 H 0.34511 0.64672 0.23257 0.0
H15 H 0.3682 0.72526 0.16239 0.0
C16 C 0.3483 0.73042 0.1609 0.0
C17 C 0.31445 0.6778 0.19046 0.0
C18 C 0.31828 0.65968 0.20687 0.0
C19 C 0.33371 0.69767 0.18812 0.0
C20 C 0.35663 0.70016 0.2031 0.0
C21 C 0.36095 0.68217 0.21973 0.0
C22 C 0.34188 0.6615 0.22075 0.0
N23 N 0.32874 0.71585 0.17157 0.0
H24 H 0.95784 0.49873 0.00338 0.0
H25 H 0.01337 0.47271 0.05297 0.0
H26 H 0.96911 0.53588 0.07359 0.0
H27 H 0.03072 0.45735 0.01958 0.0
C28 C 0.01315 0.44987 0.0089 0.0
C29 C 0.96738 0.50052 0.02091 0.0
C30 C 0.96118 0.51974 0.03771 0.0
C31 C 0.9862 0.48369 0.0262 0.0
C32 C 0.99896 0.48583 0.04874 0.0
C33 C 0.99308 0.50471 0.066 0.0
C34 C 0.97421 0.52168 0.06027 0.0
N35 N 0.99079 0.46395 0.00881 0.0
H36 H 0.70575 0.78677 0.18827 0.0
H37 H 0.73571 0.85623 0.2299 0.0
H38 H 0.75952 0.84101 0.16019 0.0
H39 H 0.69223 0.85311 0.24003 0.0
C40 C 0.69065 0.83281 0.24339 0.0
C41 C 0.71792 0.8049 0.19016 0.0
C42 C 0.7329 0.81194 0.17195 0.0
C43 C 0.71786 0.82152 0.21052 0.0
C44 C 0.73434 0.84457 0.21335 0.0
C45 C 0.74982 0.85189 0.19542 0.0
C46 C 0.74829 0.83564 0.17447 0.0
N47 N 0.70145 0.81444 0.22812 0.0
H48 H 0.01899 0.96972 0.46096 0.0
H49 H 0.08746 0.98509 0.50866 0.0
H50 H 0.08393 0.01908 0.44308 0.0
H51 H 0.05827 0.97727 0.5355 0.0
C52 C 0.04682 0.96033 0.52676 0.0
C53 C 0.03823 0.97942 0.46539 0.0
C54 C 0.04999 0.99472 0.44935 0.0
C55 C 0.05137 0.97615 0.48703 0.0
C56 C 0.07663 0.98828 0.49251 0.0
C57 C 0.08858 0.00375 0.47674 0.0
C58 C 0.07509 0.00681 0.4552 0.0
N59 N 0.03941 0.95949 0.50237 0.0
H60 H 0.20168 0.71298 0.83343 0.0
H61 H 0.24759 0.67187 0.78714 0.0
H62 H 0.28008 0.69837 0.85642 0.0
H63 H 0.22496 0.69762 0.76069 0.0
C64 C 0.20556 0.69503 0.76658 0.0
C65 C 0.22015 0.70562 0.8305 0.0
C66 C 0.24073 0.70849 0.84823 0.0
C67 C 0.22304 0.69378 0.80828 0.0
C68 C 0.24593 0.68231 0.80397 0.0
C69 C 0.26607 0.68299 0.82177 0.0
C70 C 0.26367 0.69671 0.84353 0.0
N71 N 0.20228 0.6935 0.79075 0.0
H72 H 0.01654 0.57419 0.46958 0.0
H73 H 0.96614 0.50407 0.4537 0.0
H74 H 0.95037 0.55973 0.50901 0.0
H75 H 0.99511 0.49289 0.4281 0.0
C76 C 0.00687 0.51025 0.42486 0.0
C77 C 0.99987 0.56173 0.47339 0.0
C78 C 0.98435 0.56981 0.49106 0.0
C79 C 0.99362 0.53819 0.4598 0.0
C80 C 0.97162 0.5221 0.46426 0.0
C81 C 0.95586 0.52999 0.48196 0.0
C82 C 0.96237 0.5538 0.49522 0.0
N83 N 0.00918 0.53265 0.441 0.0
H84 H 0.81796 0.85139 0.78722 0.0
H85 H 0.84847 0.79533 0.83007 0.0
H86 H 0.77589 0.82564 0.84394 0.0
H87 H 0.88462 0.80391 0.81384 0.0
C88 C 0.87996 0.81068 0.79683 0.0
C89 C 0.81629 0.83954 0.80179 0.0
C90 C 0.79472 0.84054 0.81509 0.0
C91 C 0.83576 0.82335 0.80692 0.0
C92 C 0.8336 0.8079 0.82581 0.0
C93 C 0.8122 0.80868 0.83952 0.0
C94 C 0.79263 0.8249 0.83377 0.0
N95 N 0.8567 0.82269 0.79223 0.0
H96 H 0.31106 0.34689 0.28509 0.0
H97 H 0.34055 0.29153 0.32932 0.0
H98 H 0.27131 0.32734 0.34505 0.0
H99 H 0.37735 0.29995 0.31345 0.0
C100 C 0.37289 0.3064 0.29627 0.0
C101 C 0.30959 0.33612 0.30037 0.0
C102 C 0.28871 0.33883 0.3143 0.0
C103 C 0.32893 0.31994 0.30607 0.0
C104 C 0.32676 0.3054 0.3256 0.0
C105 C 0.30592 0.30773 0.33978 0.0
C106 C 0.28731 0.32501 0.3342 0.0
N107 N 0.34956 0.3181 0.29116 0.0
H108 H 0.46267 1.00174 0.50322 0.0
H109 H 0.51757 0.97532 0.55313 0.0
H110 H 0.47317 0.03846 0.57359 0.0
H111 H 0.53524 0.96011 0.5198 0.0
C112 C 0.51771 0.95264 0.50906 0.0
C113 C 0.47199 0.00341 0.52082 0.0
C114 C 0.46566 0.02259 0.53762 0.0
C115 C 0.49069 0.98648 0.52622 0.0
C116 C 0.50322 0.98849 0.54886 0.0
C117 C 0.4972 0.0073 0.56612 0.0
C118 C 0.47841 0.02433 0.56028 0.0
N119 N 0.49538 0.96676 0.50884 0.0
H120 H 0.20171 0.28663 0.68401 0.0
H121 H 0.23127 0.35574 0.72647 0.0
H122 H 0.25433 0.34214 0.65628 0.0
H123 H 0.22228 0.32914 0.75589 0.0
C124 C 0.20312 0.32072 0.74894 0.0
C125 C 0.21368 0.30488 0.6861 0.0
C126 C 0.22844 0.31241 0.66792 0.0
C127 C 0.21444 0.32054 0.70711 0.0
C128 C 0.23034 0.34399 0.71001 0.0
C129 C 0.24499 0.35222 0.69181 0.0
C130 C 0.24345 0.33633 0.67063 0.0
N131 N 0.19839 0.31259 0.72469 0.0
H132 H 0.80128 0.17263 0.67228 0.0
H133 H 0.87532 0.21314 0.69539 0.0
H134 H 0.84564 0.15013 0.73241 0.0
H135 H 0.85216 0.24709 0.68366 0.0
C136 C 0.8436 0.23847 0.66671 0.0
C137 C 0.81868 0.17476 0.68415 0.0
C138 C 0.82116 0.15865 0.70253 0.0
C139 C 0.83778 0.19485 0.68187 0.0
C140 C 0.86014 0.19815 0.69752 0.0
C141 C 0.86313 0.18211 0.71585 0.0
C142 C 0.84363 0.16232 0.71811 0.0
N143 N 0.83374 0.21197 0.66418 0.0
H144 H 0.5314 0.56061 0.57555 0.0
H145 H 0.58566 0.53753 0.52708 0.0
H146 H 0.58034 0.5 0.59069 0.0
H147 H 0.58798 0.58043 0.52161 0.0
C148 C 0.56764 0.58415 0.52104 0.0
C149 C 0.54664 0.54853 0.57103 0.0
C150 C 0.5541 0.52959 0.58571 0.0
C151 C 0.55866 0.55218 0.55041 0.0
C152 C 0.57763 0.53589 0.54378 0.0
C153 C 0.58577 0.51697 0.55813 0.0
C154 C 0.57386 0.51402 0.57915 0.0
N155 N 0.55111 0.57212 0.53646 0.0
H156 H 0.51999 0.46499 0.95965 0.0
H157 H 0.58667 0.49162 0.0071 0.0
H158 H 0.57383 0.52715 0.94321 0.0
H159 H 0.58048 0.45537 0.02168 0.0
C160 C 0.56033 0.44778 0.01847 0.0
C161 C 0.53742 0.47792 0.96415 0.0
C162 C 0.54486 0.49667 0.94899 0.0
C163 C 0.55242 0.47557 0.98508 0.0
C164 C 0.57492 0.49263 0.99099 0.0
C165 C 0.58294 0.51101 0.97583 0.0
C166 C 0.56768 0.51303 0.955 0.0
N167 N 0.54447 0.45582 0.99959 0.0
H168 H 0.71428 0.23107 0.32799 0.0
H169 H 0.75116 0.17838 0.28274 0.0
H170 H 0.78245 0.19704 0.35402 0.0
H171 H 0.70945 0.17086 0.26519 0.0
C172 C 0.70224 0.18989 0.26637 0.0
C173 C 0.72938 0.21814 0.32551 0.0
C174 C 0.74803 0.21555 0.34393 0.0
C175 C 0.73001 0.20447 0.30367 0.0
C176 C 0.75013 0.18852 0.29979 0.0
C177 C 0.76921 0.1858 0.31789 0.0
C178 C 0.76785 0.19915 0.34 0.0
N179 N 0.71047 0.20795 0.28587 0.0
H180 H 0.51708 0.07413 0.97186 0.0
H181 H 0.46903 0.00303 0.9535 0.0
H182 H 0.45485 0.05259 0.01387 0.0
H183 H 0.50009 0.99349 0.92929 0.0
C184 C 0.50964 0.01177 0.92532 0.0
C185 C 0.50147 0.06037 0.97576 0.0
C186 C 0.4869 0.06601 0.99483 0.0
C187 C 0.49548 0.03769 0.96091 0.0
C188 C 0.47446 0.02027 0.9652 0.0
C189 C 0.45986 0.02548 0.98449 0.0
C190 C 0.46635 0.04827 0.99927 0.0
N191 N 0.5101 0.03431 0.9411 0.0
Mn192 Mn 0.26615 0.86855 0.01561 0.0
Mn193 Mn 0.25536 0.88691 0.9611 0.0
C194 C 0.24649 0.83937 0.9855 0.0
C195 C 0.29082 0.85107 0.04493 0.0
C196 C 0.22372 0.90308 1.00123 0.0
O197 O 0.29149 0.90112 0.01599 0.0
O198 O 0.28381 0.90993 0.97843 0.0
C199 C 0.30509 0.8746 0.94253 0.0
N200 N 0.27868 0.87134 0.94111 0.0
C201 C 0.27754 0.84229 0.90624 0.0
C202 C 0.30472 0.84542 0.90727 0.0
C203 C 0.31855 0.86157 0.92555 0.0
C204 C 0.2652 0.85564 0.92374 0.0
H205 H 0.31581 0.88702 0.95653 0.0
C206 C 0.29615 0.91435 0.99868 0.0
O207 O 0.2729 0.86618 0.04971 0.0
O208 O 0.29537 0.84708 0.02307 0.0
N209 N 0.22849 0.86554 0.94242 0.0
C210 C 0.20242 0.86379 0.94449 0.0
C211 C 0.1858 0.8481 0.92773 0.0
C212 C 0.19613 0.8346 0.90893 0.0
C213 C 0.22301 0.83685 0.90709 0.0
C214 C 0.2386 0.85275 0.92432 0.0
H215 H 0.19436 0.87428 0.95881 0.0
O216 O 0.24275 0.83575 0.0071 0.0
O217 O 0.2609 0.86012 0.98238 0.0
O218 O 0.23508 0.8902 0.01615 0.0
O219 O 0.23001 0.90371 0.98021 0.0
C220 C 0.23497 0.82384 0.88891 0.0
C221 C 0.26222 0.82635 0.88861 0.0
H222 H 0.31517 0.83543 0.89418 0.0
H223 H 0.33953 0.86402 0.92651 0.0
H224 H 0.16507 0.84647 0.92927 0.0
H225 H 0.18326 0.82248 0.89606 0.0
H226 H 0.2234 0.81168 0.87516 0.0
H227 H 0.2712 0.81589 0.87476 0.0
Mn228 Mn 0.1449 0.49938 0.2499 0.0
Mn229 Mn 0.13334 0.56242 0.25391 0.0
C230 C 0.1731 0.52968 0.23522 0.0
C231 C 0.16397 0.4653 0.26651 0.0
C232 C 0.10445 0.52213 0.21792 0.0
O233 O 0.11819 0.50105 0.27424 0.0
O234 O 0.11446 0.54399 0.27738 0.0
C235 C 0.15982 0.57799 0.3009 0.0
N236 N 0.15697 0.58116 0.27761 0.0
C237 C 0.19072 0.61622 0.28174 0.0
C238 C 0.19389 0.61345 0.3058 0.0
C239 C 0.1784 0.59422 0.31541 0.0
C240 C 0.1718 0.59956 0.26818 0.0
H241 H 0.14805 0.56315 0.30834 0.0
C242 C 0.10921 0.52118 0.28364 0.0
O243 O 0.14505 0.46091 0.25018 0.0
O244 O 0.1711 0.48927 0.27354 0.0
N245 N 0.15069 0.58268 0.23243 0.0
C246 C 0.14599 0.58209 0.20876 0.0
C247 C 0.16021 0.59981 0.19638 0.0
C248 C 0.17899 0.61804 0.20847 0.0
C249 C 0.18328 0.61847 0.23285 0.0
C250 C 0.16832 0.60052 0.24428 0.0
H251 H 0.13161 0.56812 0.19936 0.0
O252 O 0.1727 0.50538 0.22806 0.0
O253 O 0.15726 0.53544 0.25092 0.0
O254 O 0.11664 0.50287 0.22354 0.0
O255 O 0.10877 0.54475 0.22865 0.0
C256 C 0.20216 0.63569 0.24621 0.0
C257 C 0.20593 0.63452 0.27063 0.0
H258 H 0.2083 0.62583 0.31703 0.0
H259 H 0.18083 0.59188 0.33394 0.0
H260 H 0.15679 0.59934 0.17756 0.0
H261 H 0.19013 0.63147 0.19883 0.0
H262 H 0.21414 0.64966 0.23783 0.0
H263 H 0.22075 0.64761 0.28066 0.0
Mn264 Mn 0.78276 0.65709 0.00338 0.0
Mn265 Mn 0.72543 0.67356 0.97941 0.0
C266 C 0.74513 0.63011 0.00421 0.0
C267 C 0.82155 0.6372 1.00267 0.0
C268 C 0.74968 0.69684 0.02649 0.0
O269 O 0.79435 0.68472 0.98193 0.0
O270 O 0.75482 0.69412 0.96767 0.0
C271 C 0.73116 0.65328 0.93063 0.0
N272 N 0.71735 0.65388 0.94988 0.0
C273 C 0.68341 0.62388 0.93013 0.0
C274 C 0.6972 0.62305 0.91004 0.0
C275 C 0.72122 0.63775 0.91032 0.0
C276 C 0.69433 0.63965 0.94986 0.0
H277 H 0.74962 0.66455 0.93078 0.0
C278 C 0.77963 0.69739 0.96917 0.0
O279 O 0.81862 0.65625 0.01794 0.0
O280 O 0.80241 0.63056 0.9869 0.0
N281 N 0.69499 0.6553 0.98898 0.0
C282 C 0.68444 0.6578 0.00997 0.0
C283 C 0.66046 0.6442 0.01268 0.0
C284 C 0.64742 0.62846 0.99371 0.0
C285 C 0.65844 0.62657 0.97216 0.0
C286 C 0.68232 0.64068 0.97047 0.0
H287 H 0.69427 0.67001 0.02456 0.0
O288 O 0.76463 0.62889 0.01942 0.0
O289 O 0.74807 0.64708 0.98904 0.0
O290 O 0.76988 0.68449 0.02621 0.0
O291 O 0.73171 0.69436 0.00988 0.0
C292 C 0.64687 0.61091 0.9524 0.0
C293 C 0.65941 0.60947 0.93143 0.0
H294 H 0.68961 0.6111 0.89435 0.0
H295 H 0.73202 0.63713 0.89492 0.0
H296 H 0.65205 0.64582 0.02935 0.0
H297 H 0.62905 0.61782 0.99593 0.0
H298 H 0.6285 0.59963 0.95323 0.0
H299 H 0.65048 0.59711 0.91645 0.0
Mn300 Mn 0.91774 0.02577 0.25874 0.0
Mn301 Mn 0.93211 0.96352 0.25466 0.0
C302 C 0.88992 0.9941 0.2372 0.0
C303 C 0.89791 0.05965 0.27737 0.0
C304 C 0.95733 0.00426 0.22664 0.0
O305 O 0.94512 0.02531 0.28608 0.0
O306 O 0.95263 0.98314 0.28191 0.0
C307 C 0.90994 0.94841 0.29809 0.0
N308 N 0.91082 0.94474 0.27445 0.0
C309 C 0.87765 0.90921 0.27173 0.0
C310 C 0.87652 0.9125 0.29606 0.0
C311 C 0.89269 0.93222 0.30928 0.0
C312 C 0.89521 0.92593 0.26155 0.0
H313 H 0.92224 0.96361 0.30833 0.0
C314 C 0.95643 0.00588 0.29259 0.0
O315 O 0.91648 0.0641 0.26385 0.0
O316 O 0.89168 0.03569 0.28076 0.0
N317 N 0.91338 0.94207 0.22928 0.0
C318 C 0.91664 0.94163 0.20596 0.0
C319 C 0.90191 0.92297 0.1903 0.0
C320 C 0.88414 0.90486 0.19877 0.0
C321 C 0.88139 0.90546 0.22287 0.0
C322 C 0.89679 0.92432 0.23767 0.0
H323 H 0.9303 0.95546 0.19933 0.0
O324 O 0.88925 0.01816 0.23305 0.0
O325 O 0.90682 0.98936 0.25372 0.0
O326 O 0.94534 0.02308 0.23483 0.0
O327 O 0.95409 0.98139 0.23318 0.0
C328 C 0.86381 0.88821 0.23277 0.0
C329 C 0.86185 0.89016 0.25717 0.0
H330 H 0.86321 0.90009 0.30476 0.0
H331 H 0.89184 0.93496 0.32806 0.0
H332 H 0.90419 0.92261 0.17172 0.0
H333 H 0.87264 0.89065 0.18662 0.0
H334 H 0.85155 0.87351 0.22176 0.0
H335 H 0.84808 0.87696 0.26455 0.0
Mn336 Mn 0.28311 0.15331 0.50332 0.0
Mn337 Mn 0.22281 0.16431 0.48189 0.0
C338 C 0.24786 0.12369 0.50659 0.0
C339 C 0.32308 0.1359 0.50085 0.0
C340 C 0.24871 0.19109 0.52722 0.0
O341 O 0.29085 0.18116 0.48069 0.0
O342 O 0.24956 0.18577 0.46767 0.0
C343 C 0.22606 0.1424 0.43316 0.0
N344 N 0.21387 0.14296 0.45335 0.0
C345 C 0.18056 0.11049 0.43645 0.0
C346 C 0.19269 0.10963 0.41543 0.0
C347 C 0.21559 0.1256 0.41382 0.0
C348 C 0.19196 0.12753 0.45516 0.0
H349 H 0.24362 0.15467 0.43184 0.0
C350 C 0.27406 0.19156 0.46788 0.0
O351 O 0.32005 0.15504 0.516 0.0
O352 O 0.30337 0.12802 0.48603 0.0
N353 N 0.19475 0.1447 0.49399 0.0
C354 C 0.18583 0.14739 0.51568 0.0
C355 C 0.16313 0.13267 0.52027 0.0
C356 C 0.14964 0.11561 0.50244 0.0
C357 C 0.15898 0.11346 0.48016 0.0
C358 C 0.18165 0.1287 0.4766 0.0
H359 H 0.19598 0.16065 0.52939 0.0
O360 O 0.26848 0.12437 0.52086 0.0
O361 O 0.24831 0.14036 0.49101 0.0
O362 O 0.26972 0.18006 0.52646 0.0
O363 O 0.22991 0.18681 0.51142 0.0
C364 C 0.14687 0.09655 0.46143 0.0
C365 C 0.15775 0.09493 0.43964 0.0
H366 H 0.18467 0.09672 0.40047 0.0
H367 H 0.22511 0.12499 0.39768 0.0
H368 H 0.15602 0.13447 0.5375 0.0
H369 H 0.13225 0.10415 0.50609 0.0
H370 H 0.12939 0.08442 0.4637 0.0
H371 H 0.14848 0.08157 0.42548 0.0
Mn372 Mn 0.41268 0.52488 0.7576 0.0
Mn373 Mn 0.42379 0.46172 0.75154 0.0
C374 C 0.38339 0.49495 0.73526 0.0
C375 C 0.39469 0.5594 0.77722 0.0
C376 C 0.45139 0.50263 0.72513 0.0
O377 O 0.44004 0.5222 0.78467 0.0
O378 O 0.44417 0.47939 0.77967 0.0
C379 C 0.39978 0.44551 0.7938 0.0
N380 N 0.40121 0.44281 0.77018 0.0
C381 C 0.36734 0.40786 0.76571 0.0
C382 C 0.36561 0.41018 0.78999 0.0
C383 C 0.38185 0.42914 0.80408 0.0
C384 C 0.3855 0.42479 0.75645 0.0
H385 H 0.4122 0.46007 0.80471 0.0
C386 C 0.44947 0.50166 0.79099 0.0
O387 O 0.41341 0.56331 0.76375 0.0
O388 O 0.38726 0.53554 0.78004 0.0
N389 N 0.40489 0.44202 0.72523 0.0
C390 C 0.40873 0.44252 0.70207 0.0
C391 C 0.394 0.42472 0.68561 0.0
C392 C 0.37569 0.40643 0.69313 0.0
C393 C 0.37233 0.40605 0.71707 0.0
C394 C 0.38767 0.42417 0.73267 0.0
H395 H 0.42288 0.45641 0.69618 0.0
O396 O 0.38386 0.51932 0.73192 0.0
O397 O 0.39998 0.48892 0.75144 0.0
O398 O 0.43995 0.5217 0.73354 0.0
O399 O 0.44723 0.47963 0.73115 0.0
C400 C 0.35425 0.38851 0.72604 0.0
C401 C 0.35162 0.38954 0.75033 0.0
H402 H 0.35182 0.39758 0.79799 0.0
H403 H 0.38057 0.43112 0.82283 0.0
H404 H 0.39675 0.42511 0.66717 0.0
H405 H 0.36425 0.39284 0.68037 0.0
H406 H 0.34211 0.37429 0.71441 0.0
H407 H 0.33743 0.37616 0.75698 0.0
Mn408 Mn 0.76494 0.37016 0.51484 0.0
Mn409 Mn 0.75474 0.39182 0.46153 0.0
C410 C 0.74599 0.34256 0.48346 0.0
C411 C 0.78967 0.35108 0.54298 0.0
C412 C 0.72301 0.40594 0.50219 0.0
O413 O 0.79044 0.40257 0.51658 0.0
O414 O 0.78337 0.41414 0.47968 0.0
C415 C 0.80428 0.38071 0.44195 0.0
N416 N 0.77788 0.37723 0.44077 0.0
C417 C 0.77658 0.34863 0.40556 0.0
C418 C 0.80374 0.35201 0.40635 0.0
C419 C 0.81764 0.3681 0.42464 0.0
C420 C 0.76431 0.3618 0.42323 0.0
H421 H 0.81507 0.39293 0.45604 0.0
C422 C 0.79543 0.41697 0.50013 0.0
O423 O 0.77186 0.36597 0.54865 0.0
O424 O 0.7939 0.34807 0.521 0.0
N425 N 0.72776 0.37102 0.44244 0.0
C426 C 0.70182 0.36843 0.44511 0.0
C427 C 0.68521 0.35235 0.42865 0.0
C428 C 0.69542 0.33912 0.40964 0.0
C429 C 0.72219 0.3421 0.40725 0.0
C430 C 0.73777 0.35856 0.42409 0.0
H431 H 0.69388 0.37847 0.45974 0.0
O432 O 0.74159 0.33769 0.50469 0.0
O433 O 0.76012 0.36384 0.48156 0.0
O434 O 0.73399 0.39199 0.51643 0.0
O435 O 0.72957 0.40772 0.48136 0.0
C436 C 0.73408 0.32895 0.38911 0.0
C437 C 0.76125 0.3322 0.38827 0.0
H438 H 0.81413 0.34216 0.39313 0.0
H439 H 0.83861 0.3707 0.42543 0.0
H440 H 0.66458 0.35007 0.43066 0.0
H441 H 0.68257 0.32654 0.3971 0.0
H442 H 0.72254 0.31597 0.37591 0.0
H443 H 0.77021 0.32165 0.37446 0.0
Mn444 Mn 0.64873 1.00005 0.75077 0.0
Mn445 Mn 0.63559 0.06262 0.75406 0.0
C446 C 0.676 0.03069 0.73545 0.0
C447 C 0.6693 0.96702 0.76784 0.0
C448 C 0.60735 0.02133 0.71863 0.0
O449 O 0.62235 1.00147 0.77536 0.0
O450 O 0.61718 0.04412 0.7778 0.0
C451 C 0.66187 0.07937 0.80091 0.0
N452 N 0.65888 0.08214 0.77755 0.0
C453 C 0.69178 0.11798 0.78128 0.0
C454 C 0.69507 0.11562 0.80541 0.0
C455 C 0.68009 0.0962 0.81525 0.0
C456 C 0.67324 0.10073 0.76789 0.0
H457 H 0.65048 0.0644 0.80854 0.0
C458 C 0.6127 0.02136 0.78443 0.0
O459 O 0.65003 0.96166 0.75194 0.0
O460 O 0.67573 0.99125 0.77421 0.0
N461 N 0.65244 0.08291 0.73231 0.0
C462 C 0.64784 0.08175 0.7086 0.0
C463 C 0.66176 0.09945 0.69597 0.0
C464 C 0.68011 0.11825 0.70785 0.0
C465 C 0.68429 0.11926 0.73228 0.0
C466 C 0.66969 0.10125 0.74395 0.0
H467 H 0.6338 0.06732 0.69935 0.0
O468 O 0.67606 0.00637 0.72852 0.0
O469 O 0.66017 0.03626 0.75122 0.0
O470 O 0.6199 0.00239 0.72454 0.0
O471 O 0.61135 0.04413 0.72902 0.0
C472 C 0.70275 0.1371 0.74546 0.0
C473 C 0.70652 0.13643 0.76994 0.0
H474 H 0.70921 0.12847 0.81651 0.0
H475 H 0.68262 0.09418 0.83383 0.0
H476 H 0.65842 0.09853 0.67712 0.0
H477 H 0.69101 0.13168 0.69803 0.0
H478 H 0.71442 0.15116 0.7369 0.0
H479 H 0.72103 0.15 0.77983 0.0
Mn480 Mn 0.03326 0.24801 0.87188 0.0
Mn481 Mn 0.97159 0.23817 0.88646 0.0
C482 C 1.00214 0.22359 0.84652 0.0
C483 C 0.0656 0.27138 0.85424 0.0
C484 C 0.01602 0.21097 0.90764 0.0
O485 O 0.03127 0.2767 0.89797 0.0
O486 O 0.98898 0.26977 0.90463 0.0
C487 C 0.95034 0.28412 0.86778 0.0
N488 N 0.94965 0.25794 0.86816 0.0
C489 C 0.91312 0.2515 0.83936 0.0
C490 C 0.91334 0.2784 0.83878 0.0
C491 C 0.93206 0.29476 0.85303 0.0
C492 C 0.93173 0.24201 0.85451 0.0
H493 H 0.96477 0.29678 0.87859 0.0
C494 C 0.01125 0.28275 0.90823 0.0
O495 O 0.07127 0.25637 0.87047 0.0
O496 O 0.04119 0.27373 0.84907 0.0
N497 N 0.95277 0.20841 0.8695 0.0
C498 C 0.9562 0.18292 0.87106 0.0
C499 C 0.93953 0.16398 0.85737 0.0
C500 C 0.91949 0.17144 0.84228 0.0
C501 C 0.91626 0.19779 0.84106 0.0
C502 C 0.93333 0.21578 0.85527 0.0
H503 H 0.97161 0.17707 0.88257 0.0
O504 O 0.02654 0.22042 0.84507 0.0
O505 O 0.99692 0.24037 0.86302 0.0
O506 O 0.03335 0.22091 0.89564 0.0
O507 O 0.99242 0.21642 0.90592 0.0
C508 C 0.89711 0.2069 0.82596 0.0
C509 C 0.89555 0.23374 0.82509 0.0
H510 H 0.89939 0.28668 0.8273 0.0
H511 H 0.93244 0.31554 0.85259 0.0
H512 H 0.94219 0.14369 0.85837 0.0
H513 H 0.90684 0.15678 0.83158 0.0
H514 H 0.88373 0.19344 0.81468 0.0
H515 H 0.881 0.24051 0.81315 0.0
Mn516 Mn 0.53263 0.74912 0.37298 0.0
Mn517 Mn 0.47087 0.74012 0.38744 0.0
C518 C 0.50155 0.72435 0.34785 0.0
C519 C 0.56515 0.77221 0.35539 0.0
C520 C 0.51491 0.71267 0.40903 0.0
O521 O 0.53092 0.77804 0.39895 0.0
O522 O 0.48849 0.77183 0.40517 0.0
C523 C 0.45056 0.78593 0.36765 0.0
N524 N 0.4494 0.7598 0.36859 0.0
C525 C 0.41282 0.75328 0.33986 0.0
C526 C 0.41352 0.78013 0.33869 0.0
C527 C 0.43253 0.79651 0.3526 0.0
C528 C 0.43133 0.74385 0.35515 0.0
H529 H 0.46517 0.7986 0.37826 0.0
C530 C 0.51087 0.78455 0.4089 0.0
O531 O 0.57067 0.75696 0.37148 0.0
O532 O 0.5408 0.77484 0.35024 0.0
N533 N 0.45158 0.71029 0.37106 0.0
C534 C 0.45401 0.6848 0.37374 0.0
C535 C 0.43659 0.66585 0.36089 0.0
C536 C 0.41675 0.67328 0.34557 0.0
C537 C 0.41449 0.69963 0.34327 0.0
C538 C 0.43233 0.71765 0.35662 0.0
H539 H 0.46914 0.67897 0.38556 0.0
O540 O 0.52597 0.72133 0.3464 0.0
O541 O 0.49622 0.74152 0.36398 0.0
O542 O 0.53234 0.72216 0.39687 0.0
O543 O 0.49142 0.7185 0.40733 0.0
C544 C 0.39536 0.7087 0.32813 0.0
C545 C 0.39463 0.7355 0.3263 0.0
H546 H 0.39966 0.78837 0.32709 0.0
H547 H 0.43327 0.81724 0.35172 0.0
H548 H 0.43846 0.64555 0.36277 0.0
H549 H 0.40345 0.6586 0.33558 0.0
H550 H 0.38124 0.69523 0.31765 0.0
H551 H 0.38005 0.74221 0.31435 0.0
Mn552 Mn 0.02416 0.76257 0.62947 0.0
Mn553 Mn 0.99659 0.70443 0.64164 0.0
C554 C 0.02295 0.72703 0.60246 0.0
C555 C 0.02182 0.80285 0.6146 0.0
C556 C 0.05019 0.7263 0.6617 0.0
O557 O 1.00282 0.77228 0.65684 0.0
O558 O 0.98507 0.73254 0.66273 0.0
C559 C 0.94234 0.71214 0.62606 0.0
N560 N 0.96322 0.69802 0.62483 0.0
C561 C 0.9396 0.66618 0.59678 0.0
C562 C 0.91777 0.68031 0.59785 0.0
C563 C 0.91918 0.70343 0.61249 0.0
C564 C 0.96215 0.67587 0.61066 0.0
H565 H 0.94337 0.72991 0.63731 0.0
C566 C 0.98838 0.75707 0.66773 0.0
O567 O 0.04025 0.79873 0.62999 0.0
O568 O 0.00418 0.78385 0.6085 0.0
N569 N 0.00583 0.67508 0.62282 0.0
C570 C 0.02881 0.66411 0.6234 0.0
C571 C 0.03074 0.64092 0.6096 0.0
C572 C 0.00897 0.62907 0.59563 0.0
C573 C 0.98542 0.64048 0.59564 0.0
C574 C 0.98462 0.66352 0.60984 0.0
H575 H 0.04554 0.67302 0.63425 0.0
O576 O 0.03985 0.74668 0.60163 0.0
O577 O 0.00713 0.72875 0.61894 0.0
O578 O 0.05059 0.74728 0.65162 0.0
O579 O 0.03095 0.70908 0.65925 0.0
C580 C 0.9628 0.63011 0.58187 0.0
C581 C 0.93995 0.64303 0.58233 0.0
H582 H 0.89988 0.67367 0.5874 0.0
H583 H 0.90245 0.71449 0.61333 0.0
H584 H 0.04898 0.6322 0.60973 0.0
H585 H 0.0106 0.6113 0.58485 0.0
H586 H 0.96286 0.61238 0.57062 0.0
H587 H 0.9228 0.63506 0.57141 0.0
Mn588 Mn 0.52066 0.26131 0.13109 0.0
Mn589 Mn 0.49348 0.20314 0.14358 0.0
C590 C 0.51983 0.2255 0.10444 0.0
C591 C 0.51972 0.30154 0.11588 0.0
C592 C 0.54713 0.2247 0.16293 0.0
O593 O 0.49881 0.27152 0.15788 0.0
O594 O 0.48351 0.2315 0.16541 0.0
C595 C 0.43908 0.21251 0.13008 0.0
N596 N 0.4594 0.19773 0.128 0.0
C597 C 0.43376 0.16643 0.10081 0.0
C598 C 0.41252 0.18125 0.10276 0.0
C599 C 0.41523 0.20444 0.11739 0.0
C600 C 0.45708 0.17554 0.11377 0.0
H601 H 0.44107 0.23031 0.14134 0.0
C602 C 0.48579 0.25614 0.16975 0.0
O603 O 0.53739 0.29709 0.13182 0.0
O604 O 0.50175 0.2829 0.10943 0.0
N605 N 0.50099 0.17342 0.12426 0.0
C606 C 0.52344 0.16154 0.12411 0.0
C607 C 0.52401 0.13805 0.11038 0.0
C608 C 0.50142 0.1268 0.09723 0.0
C609 C 0.47843 0.13913 0.098 0.0
C610 C 0.47899 0.16243 0.11211 0.0
H611 H 0.54082 0.16999 0.13431 0.0
O612 O 0.53694 0.24502 0.10384 0.0
O613 O 0.50357 0.22737 0.12055 0.0
O614 O 0.54644 0.24629 0.15396 0.0
O615 O 0.52859 0.20675 0.15977 0.0
C616 C 0.45504 0.12935 0.08511 0.0
C617 C 0.43277 0.14309 0.08639 0.0
H618 H 0.39407 0.17507 0.09303 0.0
H619 H 0.39894 0.21602 0.11892 0.0
H620 H 0.54183 0.12864 0.10992 0.0
H621 H 0.50199 0.10879 0.0865 0.0
H622 H 0.45404 0.11144 0.07396 0.0
H623 H 0.41499 0.13554 0.07618 0.0
H624 H 0.20734 0.74677 0.85793 0.0
H625 H 0.28519 0.81793 0.96469 0.0
H626 H 0.2689 0.70794 0.89153 0.0
H627 H 0.202 0.81044 0.96634 0.0
H628 H 0.28169 0.78216 0.93386 0.0
H629 H 0.20536 0.77339 0.89406 0.0
C630 C 0.22031 0.74325 0.87265 0.0
C631 C 0.23849 0.72453 0.87093 0.0
C632 C 0.26424 0.78816 0.94116 0.0
C633 C 0.23735 0.75719 0.91217 0.0
C634 C 0.26618 0.80861 0.95854 0.0
C635 C 0.24378 0.81724 0.96765 0.0
C636 C 0.2397 0.77666 0.9325 0.0
C637 C 0.21963 0.80441 0.95945 0.0
C638 C 0.21924 0.75895 0.89332 0.0
C639 C 0.25512 0.72238 0.8911 0.0
N640 N 0.21811 0.78502 0.94184 0.0
N641 N 0.25458 0.73892 0.9106 0.0
H642 H 0.01325 0.4697 0.39291 0.0
H643 H 0.09126 0.56012 0.31095 0.0
H644 H 0.03349 0.55171 0.40839 0.0
H645 H 0.0896 0.47675 0.30206 0.0
H646 H 0.0659 0.55662 0.34449 0.0
H647 H 0.03745 0.47112 0.35765 0.0
C648 C 0.02278 0.48793 0.3889 0.0
C649 C 0.02144 0.51055 0.40364 0.0
C650 C 0.07102 0.53903 0.33525 0.0
C651 C 0.04878 0.5124 0.36348 0.0
C652 C 0.08548 0.54099 0.31593 0.0
C653 C 0.09272 0.51868 0.30355 0.0
C654 C 0.06348 0.51458 0.3424 0.0
C655 C 0.08455 0.49449 0.31107 0.0
C656 C 0.03657 0.48873 0.36886 0.0
C657 C 0.03406 0.53372 0.39767 0.0
N658 N 0.07034 0.49306 0.33004 0.0
N659 N 0.04708 0.53402 0.37808 0.0
H660 H 0.82622 0.75916 0.84382 0.0
H661 H 0.7663 0.74606 0.96575 0.0
H662 H 0.79486 0.82244 0.88242 0.0
H663 H 0.81698 0.69166 0.93816 0.0
H664 H 0.77743 0.77463 0.93568 0.0
H665 H 0.82346 0.73413 0.87788 0.0
C666 C 0.81895 0.76793 0.85947 0.0
C667 C 0.81062 0.79301 0.86009 0.0
C668 C 0.78653 0.75669 0.93637 0.0
C669 C 0.80714 0.76418 0.89911 0.0
C670 C 0.78027 0.74045 0.9536 0.0
C671 C 0.7909 0.71662 0.95446 0.0
C672 C 0.80308 0.74879 0.91943 0.0
C673 C 0.80866 0.71006 0.93821 0.0
C674 C 0.81737 0.75356 0.87892 0.0
C675 C 0.801 0.80305 0.88083 0.0
N676 N 0.8139 0.7259 0.92106 0.0
N677 N 0.79939 0.78857 0.89939 0.0
H678 H 1.00076 0.0089 0.43988 0.0
H679 H 1.00009 0.98186 0.3023 0.0
H680 H 0.06868 0.98805 0.40636 0.0
H681 H 0.95017 0.03495 0.33338 0.0
H682 H 0.0238 0.98093 0.34054 0.0
H683 H 0.97948 0.01497 0.40131 0.0
C684 C 0.01111 0.0055 0.42439 0.0
C685 C 0.03647 0.99793 0.42625 0.0
C686 C 0.00789 0.99305 0.33895 0.0
C687 C 0.01235 0.00475 0.38229 0.0
C688 C 0.99439 0.99363 0.31715 0.0
C689 C 0.97325 0.00862 0.31469 0.0
C690 C 0.99979 0.00702 0.35861 0.0
C691 C 0.96656 0.02338 0.33451 0.0
C692 C 0.99909 0.00919 0.40247 0.0
C693 C 0.04915 0.99401 0.40568 0.0
N694 N 0.97954 0.02191 0.35577 0.0
N695 N 0.03689 0.99724 0.38455 0.0
H696 H 0.21974 0.32218 0.62202 0.0
H697 H 0.27299 0.19226 0.57113 0.0
H698 H 0.24031 0.26239 0.66577 0.0
H699 H 0.21747 0.23106 0.5303 0.0
H700 H 0.26701 0.22169 0.60532 0.0
H701 H 0.2241 0.29256 0.58723 0.0
C702 C 0.22507 0.30278 0.62424 0.0
C703 C 0.22956 0.29457 0.64669 0.0
C704 C 0.25614 0.22372 0.58886 0.0
C705 C 0.23505 0.26101 0.60727 0.0
C706 C 0.25966 0.20707 0.56932 0.0
C707 C 0.2457 0.20922 0.54783 0.0
C708 C 0.23895 0.24301 0.58682 0.0
C709 C 0.22853 0.22866 0.54656 0.0
C710 C 0.22749 0.28594 0.60447 0.0
C711 C 0.23645 0.26931 0.64872 0.0
N712 N 0.22577 0.24497 0.56576 0.0
N713 N 0.23924 0.25349 0.62926 0.0
H714 H 0.53877 0.56715 0.61698 0.0
H715 H 0.47659 0.46653 0.70011 0.0
H716 H 0.53989 0.48431 0.605 0.0
H717 H 0.46687 0.54834 0.70698 0.0
H718 H 0.5032 0.47323 0.66751 0.0
H719 H 0.51559 0.56104 0.65186 0.0
C720 C 0.5341 0.54764 0.6216 0.0
C721 C 0.54118 0.5262 0.60779 0.0
C722 C 0.49535 0.48974 0.67621 0.0
C723 C 0.51484 0.51911 0.64811 0.0
C724 C 0.48017 0.48597 0.69494 0.0
C725 C 0.46928 0.50689 0.7064 0.0
C726 C 0.49986 0.51464 0.66878 0.0
C727 C 0.47472 0.53158 0.69873 0.0
C728 C 0.52096 0.5442 0.64164 0.0
C729 C 0.53507 0.50145 0.61511 0.0
N730 N 0.48953 0.53475 0.6804 0.0
N731 N 0.5222 0.4986 0.63467 0.0
H732 H 0.84669 0.29083 0.6711 0.0
H733 H 0.81305 0.30627 0.53554 0.0
H734 H 0.82962 0.22523 0.6199 0.0
H735 H 0.79484 0.3618 0.59041 0.0
H736 H 0.82895 0.279 0.56539 0.0
H737 H 0.83705 0.31969 0.64058 0.0
C738 C 0.84103 0.28255 0.65338 0.0
C739 C 0.83866 0.25568 0.648 0.0
C740 C 0.82169 0.29728 0.57083 0.0
C741 C 0.82806 0.28846 0.61307 0.0
C742 C 0.81283 0.31293 0.55385 0.0
C743 C 0.80255 0.33625 0.56057 0.0
C744 C 0.82067 0.3053 0.59461 0.0
C745 C 0.8025 0.34388 0.58452 0.0
C746 C 0.83552 0.29899 0.63604 0.0
C747 C 0.8314 0.24586 0.6248 0.0
N748 N 0.81143 0.32844 0.6007 0.0
N749 N 0.82638 0.26228 0.60812 0.0
H750 H 0.51419 0.05107 0.59499 0.0
H751 H 0.59164 0.97658 0.6901 0.0
H752 H 0.51138 0.96771 0.59206 0.0
H753 H 0.5796 0.05782 0.69919 0.0
H754 H 0.56272 0.97255 0.65406 0.0
H755 H 0.53845 0.05367 0.63321 0.0
C756 C 0.5184 0.03328 0.60243 0.0
C757 C 0.51079 0.00914 0.59008 0.0
C758 C 0.56631 0.99119 0.66409 0.0
C759 C 0.53913 0.01202 0.63384 0.0
C760 C 0.58282 0.99351 0.68469 0.0
C761 C 0.58826 0.01759 0.69777 0.0
C762 C 0.55533 0.01314 0.6564 0.0
C763 C 0.57617 0.03883 0.68978 0.0
C764 C 0.53242 0.03479 0.62425 0.0
C765 C 0.51727 0.98679 0.60062 0.0
N766 N 0.5605 0.03613 0.66961 0.0
N767 N 0.53118 0.98878 0.62178 0.0
H768 H 0.89221 0.14692 0.73658 0.0
H769 H 0.97599 0.25646 0.82239 0.0
H770 H 0.88518 0.22892 0.73587 0.0
H771 H 0.98754 0.17555 0.82347 0.0
H772 H 0.94404 0.24615 0.78912 0.0
H773 H 0.92788 0.15624 0.76731 0.0
C774 C 0.8982 0.16686 0.74282 0.0
C775 C 0.88571 0.18718 0.73355 0.0
C776 C 0.95349 0.23053 0.79648 0.0
C777 C 0.92656 0.19793 0.7685 0.0
C778 C 0.97163 0.23643 0.81555 0.0
C779 C 0.98365 0.21669 0.82598 0.0
C780 C 0.9473 0.20462 0.78769 0.0
C781 C 0.97814 0.19117 0.81608 0.0
C782 C 0.91863 0.17215 0.76025 0.0
C783 C 0.89445 0.21264 0.74215 0.0
N784 N 0.96 0.18576 0.79758 0.0
N785 N 0.91422 0.21724 0.75914 0.0
H786 H 0.55882 0.92477 0.50072 0.0
H787 H 0.47109 0.80824 0.4275 0.0
H788 H 0.47643 0.92467 0.48363 0.0
H789 H 0.55454 0.8165 0.42613 0.0
H790 H 0.47339 0.84886 0.45173 0.0
H791 H 0.55829 0.88344 0.47662 0.0
C792 C 0.54067 0.91607 0.49183 0.0
C793 C 0.51768 0.92815 0.49408 0.0
C794 C 0.49124 0.84184 0.44617 0.0
C795 C 0.51685 0.88098 0.46686 0.0
C796 C 0.49 0.81848 0.43238 0.0
C797 C 0.5127 0.80879 0.42466 0.0
C798 C 0.51535 0.85577 0.45257 0.0
C799 C 0.53654 0.8232 0.43161 0.0
C800 C 0.54039 0.89257 0.47811 0.0
C801 C 0.49465 0.91612 0.48231 0.0
N802 N 0.53726 0.84598 0.44522 0.0
N803 N 0.49483 0.89317 0.46932 0.0
H804 H 0.20974 0.32158 0.79635 0.0
H805 H 0.05872 0.2933 0.81295 0.0
H806 H 0.15083 0.30835 0.73872 0.0
H807 H 0.11845 0.27526 0.86376 0.0
H808 H 0.09228 0.30739 0.78787 0.0
H809 H 0.17635 0.3124 0.82347 0.0
C810 C 0.18977 0.31678 0.78946 0.0
C811 C 0.18303 0.31546 0.76531 0.0
C812 C 0.09803 0.30053 0.80459 0.0
C813 C 0.14485 0.30543 0.79609 0.0
C814 C 0.07891 0.29266 0.819 0.0
C815 C 0.08581 0.28298 0.84044 0.0
C816 C 0.12426 0.29903 0.81178 0.0
C817 C 0.11229 0.28249 0.84732 0.0
C818 C 0.1708 0.31154 0.80489 0.0
C819 C 0.1569 0.30931 0.7572 0.0
N820 N 0.13058 0.29037 0.833 0.0
N821 N 0.13874 0.3046 0.77258 0.0
H822 H 0.51853 0.60067 0.51382 0.0
H823 H 0.56294 0.69584 0.41844 0.0
H824 H 0.59624 0.61052 0.49194 0.0
H825 H 0.4841 0.68626 0.43799 0.0
H826 H 0.57512 0.66483 0.44576 0.0
H827 H 0.50517 0.6321 0.4867 0.0
C828 C 0.53277 0.60947 0.50334 0.0
C829 C 0.55855 0.60306 0.5051 0.0
C830 C 0.55514 0.66947 0.44413 0.0
C831 C 0.54346 0.6389 0.47412 0.0
C832 C 0.54813 0.68726 0.42847 0.0
C833 C 0.52241 0.6938 0.42583 0.0
C834 C 0.53637 0.65799 0.45738 0.0
C835 C 0.50417 0.6819 0.43942 0.0
C836 C 0.52514 0.62738 0.48786 0.0
C837 C 0.57618 0.61497 0.49111 0.0
N838 N 0.5115 0.66458 0.4546 0.0
N839 N 0.56833 0.63228 0.47625 0.0
H840 H 0.88028 0.83014 0.75357 0.0
H841 H 0.97873 0.73372 0.70693 0.0
H842 H 0.9201 0.78068 0.79801 0.0
H843 H 0.96753 0.80399 0.67404 0.0
H844 H 0.95429 0.7491 0.73907 0.0
H845 H 0.90912 0.81963 0.72279 0.0
C846 C 0.89515 0.81716 0.75688 0.0
C847 C 0.89777 0.80606 0.77829 0.0
C848 C 0.95731 0.76129 0.72494 0.0
C849 C 0.93049 0.79391 0.74322 0.0
C850 C 0.97115 0.75248 0.70653 0.0
C851 C 0.97506 0.76758 0.68777 0.0
C852 C 0.94676 0.78521 0.72447 0.0
C853 C 0.96499 0.79182 0.68825 0.0
C854 C 0.91164 0.8113 0.73937 0.0
C855 C 0.91742 0.78954 0.78171 0.0
N856 N 0.95095 0.79979 0.70621 0.0
N857 N 0.93284 0.78373 0.76428 0.0
H858 H 0.06295 0.95561 0.57187 0.0
H859 H 0.99173 0.81364 0.57604 0.0
H860 H 0.01633 0.91475 0.51307 0.0
H861 H 0.05297 0.84767 0.62678 0.0
H862 H 0.99559 0.85285 0.55521 0.0
H863 H 0.05465 0.91846 0.59458 0.0
C864 C 0.05083 0.93883 0.56381 0.0
C865 C 0.04043 0.93819 0.54056 0.0
C866 C 0.00806 0.85177 0.57098 0.0
C867 C 0.03078 0.89559 0.56642 0.0
C868 C 0.00578 0.82947 0.58296 0.0
C869 C 0.02212 0.82734 0.60315 0.0
C870 C 0.02666 0.8722 0.57937 0.0
C871 C 0.04004 0.84842 0.61124 0.0
C872 C 0.04615 0.91762 0.57675 0.0
C873 C 0.02483 0.91601 0.53092 0.0
N874 N 0.04186 0.86992 0.59932 0.0
N875 N 0.0205 0.89555 0.5439 0.0
H876 H 0.20597 0.71432 0.72401 0.0
H877 H 0.05253 0.69236 0.69547 0.0
H878 H 0.15394 0.68357 0.77212 0.0
H879 H 0.10022 0.74875 0.66278 0.0
H880 H 0.09049 0.68395 0.7204 0.0
H881 H 0.16828 0.72199 0.69787 0.0
C882 C 0.18661 0.70906 0.72897 0.0
C883 C 0.183 0.69845 0.75024 0.0
C884 C 0.09263 0.69819 0.7078 0.0
C885 C 0.14002 0.70694 0.72053 0.0
C886 C 0.07099 0.70296 0.69349 0.0
C887 C 0.07315 0.72137 0.67702 0.0
C888 C 0.11676 0.71159 0.70545 0.0
C889 C 0.09761 0.73453 0.67533 0.0
C890 C 0.16517 0.71356 0.71415 0.0
C891 C 0.15757 0.69197 0.75593 0.0
N892 N 0.11852 0.72929 0.68929 0.0
N893 N 0.13705 0.69624 0.74112 0.0
H894 H 0.95118 0.60595 0.50322 0.0
H895 H 0.05896 0.69748 0.58436 0.0
H896 H 0.03201 0.59154 0.51008 0.0
H897 H 0.97845 0.71198 0.57557 0.0
H898 H 0.05076 0.66131 0.55379 0.0
H899 H 0.96169 0.64695 0.52703 0.0
C900 C 0.97116 0.61142 0.50977 0.0
C901 C 0.99072 0.5952 0.50483 0.0
C902 C 0.03491 0.67251 0.55841 0.0
C903 C 1.00297 0.64231 0.53194 0.0
C904 C 0.03961 0.69305 0.57582 0.0
C905 C 0.01904 0.70669 0.58303 0.0
C906 C 0.00956 0.66605 0.54802 0.0
C907 C 0.99451 0.70103 0.57105 0.0
C908 C 0.97719 0.63495 0.5232 0.0
C909 C 0.01635 0.60351 0.5134 0.0
N910 N 0.99034 0.68088 0.55432 0.0
N911 N 0.02171 0.6264 0.5267 0.0
H912 H 0.74509 0.89768 0.22211 0.0
H913 H 0.87267 0.97708 0.19204 0.0
H914 H 0.79729 0.86102 0.17715 0.0
H915 H 0.85642 0.97006 0.26377 0.0
H916 H 0.83613 0.94416 0.17946 0.0
H917 H 0.77781 0.93435 0.231 0.0
C918 C 0.76324 0.89718 0.21402 0.0
C919 C 0.76834 0.87573 0.19906 0.0
C920 C 0.84057 0.95011 0.1979 0.0
C921 C 0.80513 0.91847 0.2083 0.0
C922 C 0.86126 0.9687 0.20503 0.0
C923 C 0.86782 0.9754 0.22892 0.0
C924 C 0.82588 0.93932 0.21481 0.0
C925 C 0.85224 0.96469 0.2452 0.0
C926 C 0.78173 0.9183 0.21895 0.0
C927 C 0.79205 0.87702 0.1885 0.0
N928 N 0.83191 0.94711 0.23786 0.0
N929 N 0.80954 0.89804 0.1933 0.0
H930 H 0.80008 0.18519 0.2813 0.0
H931 H 0.86473 0.05768 0.31208 0.0
H932 H 0.78707 0.14868 0.34459 0.0
H933 H 0.89572 0.1086 0.2634 0.0
H934 H 0.83549 0.09007 0.3238 0.0
H935 H 0.83415 0.15647 0.27354 0.0
C936 C 0.80442 0.17111 0.29356 0.0
C937 C 0.79064 0.1692 0.31355 0.0
C938 C 0.84889 0.0943 0.31076 0.0
C939 C 0.82956 0.13625 0.30478 0.0
C940 C 0.86559 0.07582 0.30405 0.0
C941 C 0.88265 0.08043 0.28669 0.0
C942 C 0.84888 0.1174 0.29973 0.0
C943 C 0.88293 0.10427 0.27689 0.0
C944 C 0.82398 0.15486 0.28921 0.0
C945 C 0.79729 0.15084 0.32902 0.0
N946 N 0.86606 0.12173 0.28333 0.0
N947 N 0.81608 0.1349 0.32419 0.0
H948 H 0.44614 0.00589 0.02523 0.0
H949 H 0.30479 0.95249 0.96984 0.0
H950 H 0.42001 0.00703 0.95244 0.0
H951 H 0.33879 0.92158 0.03124 0.0
H952 H 0.34471 0.9797 0.96772 0.0
H953 H 0.40535 0.98055 0.03135 0.0
C954 C 0.43187 1.00067 0.01055 0.0
C955 C 0.43645 0.00841 0.98825 0.0
C956 C 0.34344 0.9671 0.98176 0.0
C957 C 0.38983 0.98011 0.99524 0.0
C958 C 0.32056 0.95161 0.98311 0.0
C959 C 0.31848 0.93436 1.00059 0.0
C960 C 0.36457 0.96563 0.99806 0.0
C961 C 0.33954 0.93452 0.01745 0.0
C962 C 0.40869 0.98627 0.01406 0.0
C963 C 0.4174 1.0012 0.96982 0.0
N964 N 0.36187 0.94979 0.01567 0.0
N965 N 0.39488 0.98765 0.97377 0.0
H966 H 0.26241 0.34039 0.27149 0.0
H967 H 0.19435 0.46719 0.30739 0.0
H968 H 0.26817 0.3757 0.34235 0.0
H969 H 0.16725 0.4163 0.24598 0.0
H970 H 0.22268 0.43484 0.31999 0.0
H971 H 0.22913 0.36914 0.26091 0.0
C972 C 0.25667 0.35424 0.2848 0.0
C973 C 0.26814 0.35578 0.3078 0.0
C974 C 0.21033 0.43059 0.3039 0.0
C975 C 0.23014 0.3887 0.29584 0.0
C976 C 0.19416 0.44905 0.29668 0.0
C977 C 0.17846 0.44442 0.27558 0.0
C978 C 0.21125 0.4075 0.28969 0.0
C979 C 0.17897 0.42059 0.26241 0.0
C980 C 0.23755 0.37047 0.2788 0.0
C981 C 0.25976 0.37383 0.32444 0.0
N982 N 0.19539 0.40313 0.26952 0.0
N983 N 0.24146 0.38975 0.31808 0.0
H984 H 0.12857 0.00841 0.44834 0.0
H985 H 0.21951 0.10516 0.54095 0.0
H986 H 0.10902 0.02888 0.51871 0.0
H987 H 0.23287 0.0911 0.46819 0.0
H988 H 0.18344 0.07084 0.53556 0.0
H989 H 0.17079 0.03281 0.45749 0.0
C990 C 0.13319 0.01799 0.46576 0.0
C991 C 0.11508 0.01684 0.4827 0.0
C992 C 0.19447 0.07506 0.52085 0.0
C993 C 0.16362 0.04464 0.49341 0.0
C994 C 0.21496 0.09458 0.52394 0.0
C995 C 0.22821 0.10148 0.50472 0.0
C996 C 0.18772 0.06222 0.49847 0.0
C997 C 0.22231 0.08688 0.48319 0.0
C998 C 0.1574 0.03176 0.47103 0.0
C999 C 0.12239 0.02918 0.50513 0.0
N1000 N 0.20227 0.06815 0.48055 0.0
N1001 N 0.146 0.04279 0.50977 0.0
H1002 H 0.79057 0.12551 0.66995 0.0
H1003 H 0.70996 0.05985 0.76665 0.0
H1004 H 0.80246 0.14764 0.74418 0.0
H1005 H 0.69155 0.04151 0.69264 0.0
H1006 H 0.74572 0.09046 0.75839 0.0
H1007 H 0.75527 0.09366 0.67739 0.0
C1008 C 0.78576 0.12371 0.68779 0.0
C1009 C 0.79971 0.13912 0.70648 0.0
C1010 C 0.73386 0.0799 0.74388 0.0
C1011 C 0.75955 0.10262 0.71512 0.0
C1012 C 0.71339 0.06258 0.74862 0.0
C1013 C 0.69734 0.0491 0.73025 0.0
C1014 C 0.7385 0.08351 0.72055 0.0
C1015 C 0.7032 0.05222 0.70721 0.0
C1016 C 0.76569 0.10546 0.69202 0.0
C1017 C 0.79269 0.13583 0.72925 0.0
N1018 N 0.72319 0.06938 0.70295 0.0
N1019 N 0.77318 0.11797 0.7329 0.0
H1020 H 0.46528 0.07453 0.55156 0.0
H1021 H 0.33155 0.09005 0.4769 0.0
H1022 H 0.42026 0.01176 0.50934 0.0
H1023 H 0.36763 0.14823 0.52966 0.0
H1024 H 0.36726 0.06326 0.48467 0.0
H1025 H 0.43237 0.10344 0.54074 0.0
C1026 C 0.44847 0.06673 0.54012 0.0
C1027 C 0.44568 0.04054 0.53139 0.0
C1028 C 0.36749 0.08199 0.49442 0.0
C1029 C 0.40809 0.07381 0.51853 0.0
C1030 C 0.34718 0.0974 0.48985 0.0
C1031 C 0.34651 0.12141 0.5027 0.0
C1032 C 0.38737 0.09064 0.51191 0.0
C1033 C 0.36729 0.12983 0.51937 0.0
C1034 C 0.42976 0.08334 0.53381 0.0
C1035 C 0.4236 0.03181 0.51625 0.0
N1036 N 0.38678 0.11442 0.52357 0.0
N1037 N 0.40574 0.04836 0.51033 0.0
H1038 H 0.62873 0.53093 0.53504 0.0
H1039 H 0.6927 0.39755 0.5385 0.0
H1040 H 0.59115 0.46553 0.56487 0.0
H1041 H 0.70565 0.44952 0.48491 0.0
H1042 H 0.65927 0.4242 0.55268 0.0
H1043 H 0.66114 0.50344 0.52106 0.0
C1044 C 0.62708 0.51077 0.53857 0.0
C1045 C 0.60672 0.50057 0.55092 0.0
C1046 C 0.66939 0.42966 0.53778 0.0
C1047 C 0.64457 0.46908 0.5354 0.0
C1048 C 0.68852 0.41454 0.5297 0.0
C1049 C 0.70204 0.42129 0.51045 0.0
C1050 C 0.66409 0.452 0.52686 0.0
C1051 C 0.69569 0.44347 0.4997 0.0
C1052 C 0.64576 0.49511 0.53063 0.0
C1053 C 0.60646 0.47442 0.55559 0.0
N1054 N 0.67736 0.45814 0.50818 0.0
N1055 N 0.6251 0.4596 0.54786 0.0
H1056 H 0.70542 0.22528 0.36797 0.0
H1057 H 0.78717 0.32639 0.46291 0.0
H1058 H 0.78869 0.24122 0.37189 0.0
H1059 H 0.70448 0.30954 0.46325 0.0
H1060 H 0.78784 0.29276 0.43109 0.0
H1061 H 0.70431 0.25388 0.40379 0.0
C1062 C 0.72349 0.23469 0.37641 0.0
C1063 C 0.7472 0.23091 0.3668 0.0
C1064 C 0.76949 0.29618 0.43808 0.0
C1065 C 0.74603 0.26344 0.40793 0.0
C1066 C 0.76909 0.31546 0.45618 0.0
C1067 C 0.74562 0.32108 0.46516 0.0
C1068 C 0.74618 0.28233 0.42874 0.0
C1069 C 0.72287 0.30597 0.45641 0.0
C1070 C 0.72282 0.25089 0.39692 0.0
C1071 C 0.77 0.24329 0.37872 0.0
N1072 N 0.72362 0.28744 0.43835 0.0
N1073 N 0.76881 0.25909 0.39852 0.0
H1074 H 0.53208 0.05466 0.9075 0.0
H1075 H 0.59483 0.97673 0.80337 0.0
H1076 H 0.51998 0.97153 0.89475 0.0
H1077 H 0.59301 0.0598 0.81111 0.0
H1078 H 0.5689 0.97363 0.83723 0.0
H1079 H 0.55614 0.05615 0.87287 0.0
C1080 C 0.53451 0.03665 0.89742 0.0
C1081 C 0.52408 0.01287 0.90408 0.0
C1082 C 0.57413 0.99248 0.83138 0.0
C1083 C 0.55176 0.01447 0.86415 0.0
C1084 C 0.58895 0.99429 0.81207 0.0
C1085 C 0.59619 0.01857 0.80429 0.0
C1086 C 0.5667 0.01513 0.84309 0.0
C1087 C 0.58795 0.04063 0.81632 0.0
C1088 C 0.54823 0.03753 0.87753 0.0
C1089 C 0.52776 0.99024 0.89018 0.0
N1090 N 0.5738 0.03836 0.83508 0.0
N1091 N 0.54142 0.99155 0.87089 0.0
H1092 H 0.26076 0.28523 0.35389 0.0
H1093 H 0.32235 0.20262 0.45085 0.0
H1094 H 0.3437 0.2918 0.37079 0.0
H1095 H 0.24395 0.22515 0.44782 0.0
H1096 H 0.33197 0.23197 0.42029 0.0
H1097 H 0.25522 0.25898 0.38638 0.0
C1098 C 0.27786 0.28148 0.36458 0.0
C1099 C 0.30272 0.29125 0.35967 0.0
C1100 C 0.31278 0.2305 0.42658 0.0
C1101 C 0.29646 0.26027 0.39692 0.0
C1102 C 0.30731 0.21385 0.44403 0.0
C1103 C 0.28219 0.21104 0.45172 0.0
C1104 C 0.29292 0.24413 0.4168 0.0
C1105 C 0.26347 0.22614 0.44224 0.0
C1106 C 0.27467 0.26626 0.38313 0.0
C1107 C 0.32415 0.28466 0.3738 0.0
N1108 N 0.26915 0.24172 0.42525 0.0
N1109 N 0.32055 0.26953 0.39179 0.0
H1110 H 0.53078 0.54034 0.92931 0.0
H1111 H 0.47391 0.46217 0.80872 0.0
H1112 H 0.52501 0.45715 0.9167 0.0
H1113 H 0.46196 0.54262 0.82497 0.0
H1114 H 0.49655 0.46159 0.84702 0.0
H1115 H 0.50867 0.54284 0.89047 0.0
C1116 C 0.52479 0.5226 0.91839 0.0
C1117 C 0.52975 0.49847 0.92627 0.0
C1118 C 0.48906 0.47942 0.84227 0.0
C1119 C 0.50464 0.50124 0.88181 0.0
C1120 C 0.47617 0.47986 0.82024 0.0
C1121 C 0.46578 0.50249 0.81347 0.0
C1122 C 0.49185 0.50178 0.85787 0.0
C1123 C 0.4696 0.52473 0.82935 0.0
C1124 C 0.51214 0.52406 0.89627 0.0
C1125 C 0.52137 0.47613 0.91149 0.0
N1126 N 0.48228 0.52381 0.85086 0.0
N1127 N 0.5094 0.47807 0.88996 0.0
H1128 H 0.74258 0.76114 0.16902 0.0
H1129 H 0.72014 0.73812 0.03015 0.0
H1130 H 0.72455 0.82268 0.12638 0.0
H1131 H 0.77164 0.69485 0.07089 0.0
H1132 H 0.7147 0.76601 0.06563 0.0
H1133 H 0.746 0.73278 0.13336 0.0
C1134 C 0.73908 0.76854 0.15212 0.0
C1135 C 0.73332 0.79421 0.15054 0.0
C1136 C 0.72721 0.75041 0.06671 0.0
C1137 C 0.7371 0.76203 0.10987 0.0
C1138 C 0.73028 0.73448 0.04654 0.0
C1139 C 0.74649 0.71422 0.04755 0.0
C1140 C 0.73997 0.74568 0.0881 0.0
C1141 C 0.75916 0.71038 0.06925 0.0
C1142 C 0.74121 0.75247 0.13184 0.0
C1143 C 0.72917 0.80301 0.12826 0.0
N1144 N 0.75549 0.72585 0.0887 0.0
N1145 N 0.73104 0.7869 0.10874 0.0
H1146 H 0.04222 0.0675 0.11622 0.0
H1147 H 0.98329 0.9684 0.20222 0.0
H1148 H 0.04334 0.98457 0.10524 0.0
H1149 H 0.97099 0.04966 0.20709 0.0
H1150 H 0.00912 0.9748 0.1691 0.0
H1151 H 0.01966 0.06198 0.15154 0.0
C1152 C 0.03768 0.0481 0.12114 0.0
C1153 C 0.04459 0.02645 0.10747 0.0
C1154 C 1.00087 0.99127 0.17746 0.0
C1155 C 0.019 0.02006 0.14832 0.0
C1156 C 0.98613 0.98767 0.1965 0.0
C1157 C 0.97475 0.00851 0.20756 0.0
C1158 C 0.00447 0.01591 0.16932 0.0
C1159 C 0.97926 0.03298 0.19917 0.0
C1160 C 0.0249 0.045 0.14143 0.0
C1161 C 0.03868 1.00187 0.11521 0.0
N1162 N 0.99368 0.03598 0.18055 0.0
N1163 N 0.02619 0.99937 0.13502 0.0
H1164 H 0.30378 0.75529 0.15838 0.0
H1165 H 0.33145 0.82055 0.0418 0.0
H1166 H 0.37682 0.7505 0.12767 0.0
H1167 H 0.27772 0.84848 0.08976 0.0
H1168 H 0.34744 0.79285 0.07128 0.0
H1169 H 0.29226 0.78719 0.13135 0.0
C1170 C 0.31739 0.76096 0.14591 0.0
C1171 C 0.34123 0.75019 0.1451 0.0
C1172 C 0.33237 0.80531 0.07539 0.0
C1173 C 0.32813 0.78654 0.11407 0.0
C1174 C 0.32325 0.8211 0.0586 0.0
C1175 C 0.30317 0.83678 0.0633 0.0
C1176 C 0.32096 0.80488 0.09678 0.0
C1177 C 0.29322 0.83671 0.08535 0.0
C1178 C 0.31088 0.77927 0.13059 0.0
C1179 C 0.35823 0.75839 0.12876 0.0
N1180 N 0.30198 0.82077 0.10114 0.0
N1181 N 0.35125 0.77591 0.11368 0.0
H1182 H 0.00677 0.46512 0.09203 0.0
H1183 H 0.07761 0.55938 0.19859 0.0
H1184 H 0.01081 0.54849 0.0946 0.0
H1185 H 0.08759 0.47769 0.18949 0.0
H1186 H 0.04863 0.5548 0.16301 0.0
H1187 H 0.03207 0.46865 0.12986 0.0
C1188 C 0.013 0.48419 0.10048 0.0
C1189 C 0.00683 0.50657 0.08987 0.0
C1190 C 0.05706 0.53784 0.16882 0.0
C1191 C 0.0355 0.51067 0.13352 0.0
C1192 C 0.07361 0.54038 0.18924 0.0
C1193 C 0.08529 0.51888 0.19713 0.0
C1194 C 0.0519 0.5136 0.15606 0.0
C1195 C 0.07918 0.49483 0.18412 0.0
C1196 C 0.02735 0.48616 0.12217 0.0
C1197 C 0.01489 0.5307 0.10208 0.0
N1198 N 0.06297 0.49286 0.1642 0.0
N1199 N 0.02886 0.5321 0.12317 0.0
H1200 H 0.40991 0.70604 0.2147 0.0
H1201 H 0.48553 0.67473 0.32991 0.0
H1202 H 0.36606 0.66676 0.2647 0.0
H1203 H 0.47643 0.75471 0.3198 0.0
H1204 H 0.45287 0.66181 0.29659 0.0
H1205 H 0.44619 0.71494 0.24469 0.0
C1206 C 0.40771 0.69911 0.23173 0.0
C1207 C 0.38439 0.68571 0.23691 0.0
C1208 C 0.45838 0.68214 0.30165 0.0
C1209 C 0.42663 0.6946 0.27064 0.0
C1210 C 0.47677 0.68945 0.32054 0.0
C1211 C 0.48288 0.71572 0.32779 0.0
C1212 C 0.44724 0.70132 0.28952 0.0
C1213 C 0.47161 0.73424 0.31494 0.0
C1214 C 0.42863 0.70398 0.24868 0.0
C1215 C 0.38351 0.67661 0.25932 0.0
N1216 N 0.45428 0.7267 0.29632 0.0
N1217 N 0.40434 0.68112 0.27528 0.0
H1218 H 0.97181 0.42198 0.98351 0.0
H1219 H 0.05481 0.31481 0.92538 0.0
H1220 H 0.0543 0.42222 1.00014 0.0
H1221 H 0.97143 0.30602 0.92723 0.0
H1222 H 0.05596 0.35573 0.95008 0.0
H1223 H 0.97221 0.3812 0.95955 0.0
C1224 C 0.99006 0.4135 0.98203 0.0
C1225 C 0.0131 0.42548 0.99379 0.0
C1226 C 0.03749 0.34468 0.94511 0.0
C1227 C 0.01369 0.37868 0.96636 0.0
C1228 C 0.0368 0.32135 0.93102 0.0
C1229 C 0.013 0.30684 0.92417 0.0
C1230 C 0.0142 0.35369 0.95212 0.0
C1231 C 0.99029 0.31636 0.93204 0.0
C1232 C 0.99026 0.39012 0.96842 0.0
C1233 C 0.03614 0.41352 0.99132 0.0
N1234 N 0.99146 0.33916 0.94542 0.0
N1235 N 0.0359 0.39077 0.9778 0.0
H1236 H 0.68723 0.78621 0.26284 0.0
H1237 H 0.56194 0.81296 0.32852 0.0
H1238 H 0.6561 0.8606 0.26525 0.0
H1239 H 0.61415 0.75778 0.3509 0.0
H1240 H 0.59405 0.829 0.30273 0.0
H1241 H 0.65823 0.77317 0.29246 0.0
C1242 C 0.67427 0.79977 0.2696 0.0
C1243 C 0.67387 0.82446 0.26156 0.0
C1244 C 0.59856 0.81357 0.31349 0.0
C1245 C 0.64067 0.80965 0.29518 0.0
C1246 C 0.58027 0.80441 0.32818 0.0
C1247 C 0.58543 0.78404 0.34186 0.0
C1248 C 0.6219 0.80186 0.31208 0.0
C1249 C 0.60946 0.77362 0.34072 0.0
C1250 C 0.65787 0.79238 0.28658 0.0
C1251 C 0.6569 0.84137 0.27102 0.0
N1252 N 0.62669 0.78241 0.32583 0.0
N1253 N 0.64074 0.83357 0.28716 0.0
H1254 H 0.02079 0.09966 0.01282 0.0
H1255 H 0.0642 0.19431 0.91673 0.0
H1256 H 0.09819 0.10904 0.99017 0.0
H1257 H 0.98553 0.18435 0.93664 0.0
H1258 H 0.07671 0.16337 0.94404 0.0
H1259 H 0.0072 0.13085 0.98559 0.0
C1260 C 0.03491 0.1083 1.00215 0.0
C1261 C 0.06068 0.10184 0.00373 0.0
C1262 C 0.05669 0.16792 0.94247 0.0
C1263 C 0.04531 0.13741 0.97261 0.0
C1264 C 0.0495 0.18565 0.92683 0.0
C1265 C 0.02373 0.19207 0.92431 0.0
C1266 C 0.03805 0.15638 0.95583 0.0
C1267 C 0.00563 0.18008 0.93797 0.0
C1268 C 0.02715 0.12608 0.9866 0.0
C1269 C 0.07815 0.11355 0.98948 0.0
N1270 N 0.01314 0.16283 0.95314 0.0
N1271 N 0.07017 0.13074 0.97455 0.0
H1272 H 0.37347 0.32533 0.25282 0.0
H1273 H 0.47858 0.23407 0.21009 0.0
H1274 H 0.41431 0.27805 0.29869 0.0
H1275 H 0.46223 0.30161 0.17478 0.0
H1276 H 0.45313 0.24876 0.24176 0.0
H1277 H 0.40363 0.31593 0.22294 0.0
C1278 C 0.38883 0.31305 0.25663 0.0
C1279 C 0.39135 0.30224 0.27819 0.0
C1280 C 0.45526 0.26054 0.22723 0.0
C1281 C 0.42567 0.29138 0.24413 0.0
C1282 C 0.46972 0.25213 0.2091 0.0
C1283 C 0.47243 0.26663 0.18977 0.0
C1284 C 0.44289 0.2834 0.22588 0.0
C1285 C 0.46068 0.28995 0.18945 0.0
C1286 C 0.40609 0.30783 0.23963 0.0
C1287 C 0.41167 0.28665 0.28226 0.0
N1288 N 0.44607 0.29748 0.20713 0.0
N1289 N 0.42788 0.28146 0.26531 0.0
H1290 H 0.5141 0.41621 0.01378 0.0
H1291 H 0.55438 0.34377 0.12704 0.0
H1292 H 0.58534 0.43432 0.05772 0.0
H1293 H 0.49019 0.31437 0.07746 0.0
H1294 H 0.56167 0.38104 0.10462 0.0
H1295 H 0.50121 0.38236 0.03923 0.0
C1296 C 0.52692 0.41319 0.02885 0.0
C1297 C 0.55088 0.42797 0.03366 0.0
C1298 C 0.54585 0.36657 0.09867 0.0
C1299 C 0.53626 0.38959 0.06277 0.0
C1300 C 0.5416 0.34528 0.11155 0.0
C1301 C 0.52177 0.32578 0.10403 0.0
C1302 C 0.53021 0.36848 0.07799 0.0
C1303 C 0.50576 0.32892 0.08386 0.0
C1304 C 0.51958 0.39387 0.04332 0.0
C1305 C 0.56675 0.42326 0.05335 0.0
N1306 N 0.51046 0.34977 0.0714 0.0
N1307 N 0.55919 0.40452 0.06713 0.0
H1308 H 0.6729 0.15536 0.23517 0.0
H1309 H 0.58633 0.26028 0.1825 0.0
H1310 H 0.6824 0.23632 0.25992 0.0
H1311 H 0.56189 0.17849 0.17666 0.0
H1312 H 0.62504 0.25201 0.20669 0.0
H1313 H 0.63552 0.16373 0.20906 0.0
C1314 C 0.66716 0.1749 0.23499 0.0
C1315 C 0.68055 0.19512 0.2498 0.0
C1316 C 0.61118 0.23591 0.20009 0.0
C1317 C 0.63812 0.20488 0.22002 0.0
C1318 C 0.58911 0.24058 0.18622 0.0
C1319 C 0.57074 0.22006 0.17755 0.0
C1320 C 0.61513 0.2105 0.20507 0.0
C1321 C 0.57541 0.19494 0.18303 0.0
C1322 C 0.64583 0.17965 0.22021 0.0
C1323 C 0.67245 0.22011 0.24892 0.0
N1324 N 0.59717 0.19087 0.19636 0.0
N1325 N 0.65176 0.2243 0.23425 0.0
H1326 H 0.45187 0.09913 0.0092 0.0
H1327 H 0.55692 0.19687 0.08705 0.0
H1328 H 0.53399 0.09025 0.01275 0.0
H1329 H 0.47575 0.20861 0.07749 0.0
H1330 H 0.5499 0.1598 0.05732 0.0
H1331 H 0.46078 0.14059 0.03258 0.0
C1332 C 0.47179 0.10586 0.01503 0.0
C1333 C 0.49221 0.09113 0.0092 0.0
C1334 C 0.53365 0.1706 0.06157 0.0
C1335 C 0.50263 0.13876 0.03579 0.0
C1336 C 0.53767 0.19166 0.0785 0.0
C1337 C 0.51659 0.20479 0.08531 0.0
C1338 C 0.50844 0.16306 0.05128 0.0
C1339 C 0.49221 0.19809 0.07332 0.0
C1340 C 0.4769 0.12967 0.02818 0.0
C1341 C 0.51769 0.10104 0.01682 0.0
N1342 N 0.48869 0.17742 0.05708 0.0
N1343 N 0.52218 0.12417 0.02988 0.0
H1344 H 0.23918 0.39728 0.71927 0.0
H1345 H 0.36603 0.47955 0.68974 0.0
H1346 H 0.29148 0.36374 0.67248 0.0
H1347 H 0.34881 0.47129 0.76104 0.0
H1348 H 0.32925 0.44718 0.67638 0.0
H1349 H 0.2708 0.43483 0.7282 0.0
C1350 C 0.25712 0.39763 0.71077 0.0
C1351 C 0.26263 0.37672 0.69536 0.0
C1352 C 0.33346 0.45282 0.6949 0.0
C1353 C 0.29807 0.42059 0.7046 0.0
C1354 C 0.3543 0.4711 0.70247 0.0
C1355 C 0.3607 0.47722 0.72645 0.0
C1356 C 0.31851 0.4417 0.71149 0.0
C1357 C 0.34475 0.46639 0.7424 0.0
C1358 C 0.27495 0.41929 0.71571 0.0
C1359 C 0.28594 0.37922 0.68424 0.0
N1360 N 0.32434 0.44906 0.73464 0.0
N1361 N 0.30278 0.40075 0.68907 0.0
H1362 H 0.28788 0.6499 0.85037 0.0
H1363 H 0.39385 0.60849 0.76334 0.0
H1364 H 0.29604 0.68211 0.78427 0.0
H1365 H 0.3627 0.55881 0.81292 0.0
H1366 H 0.36545 0.64143 0.7762 0.0
H1367 H 0.32272 0.62226 0.84206 0.0
C1368 C 0.2973 0.65145 0.83428 0.0
C1369 C 0.28899 0.66823 0.81793 0.0
C1370 C 0.36508 0.62342 0.78441 0.0
C1371 C 0.32881 0.63667 0.80833 0.0
C1372 C 0.38139 0.60469 0.77721 0.0
C1373 C 0.38052 0.58082 0.787 0.0
C1374 C 0.34811 0.61838 0.80177 0.0
C1375 C 0.36387 0.57688 0.8048 0.0
C1376 C 0.31704 0.63555 0.82949 0.0
C1377 C 0.3017 0.66925 0.79724 0.0
N1378 N 0.34831 0.59543 0.81159 0.0
N1379 N 0.32097 0.65366 0.79301 0.0
H1380 H 0.9071 0.54538 0.48337 0.0
H1381 H 0.84299 0.41244 0.52251 0.0
H1382 H 0.9504 0.4789 0.49081 0.0
H1383 H 0.79978 0.4646 0.48386 0.0
H1384 H 0.88283 0.44087 0.51999 0.0
H1385 H 0.86772 0.51962 0.49174 0.0
C1386 C 0.90826 0.52533 0.48681 0.0
C1387 C 0.93192 0.51414 0.48629 0.0
C1388 C 0.86452 0.44621 0.5124 0.0
C1389 C 0.88714 0.48476 0.49624 0.0
C1390 C 0.84179 0.43024 0.5141 0.0
C1391 C 0.81813 0.43629 0.50342 0.0
C1392 C 0.86336 0.46853 0.50032 0.0
C1393 C 0.81767 0.45929 0.49232 0.0
C1394 C 0.88584 0.51069 0.49158 0.0
C1395 C 0.93243 0.4881 0.49083 0.0
N1396 N 0.83995 0.47456 0.49103 0.0
N1397 N 0.91035 0.47427 0.49574 0.0
H1398 H 0.803 0.89224 0.81172 0.0
H1399 H 0.66083 0.9137 0.76039 0.0
H1400 H 0.74185 0.83021 0.8064 0.0
H1401 H 0.71406 0.97489 0.79607 0.0
H1402 H 0.6902 0.88193 0.77352 0.0
H1403 H 0.77094 0.9223 0.80185 0.0
C1404 C 0.78276 0.885 0.80846 0.0
C1405 C 0.77501 0.85878 0.80985 0.0
C1406 C 0.6952 0.90233 0.7786 0.0
C1407 C 0.73818 0.89299 0.79834 0.0
C1408 C 0.6785 0.92043 0.77112 0.0
C1409 C 0.68503 0.947 0.77706 0.0
C1410 C 0.7187 0.91099 0.79171 0.0
C1411 C 0.70819 0.95465 0.79099 0.0
C1412 C 0.76445 0.90214 0.80294 0.0
C1413 C 0.74851 0.85037 0.8056 0.0
N1414 N 0.72425 0.93681 0.79759 0.0
N1415 N 0.731 0.8674 0.79979 0.0
H1416 H 0.60264 0.53668 0.01787 0.0
H1417 H 0.72922 0.59915 0.96496 0.0
H1418 H 0.6204 0.52194 0.94613 0.0
H1419 H 0.71367 0.61356 0.03715 0.0
H1420 H 0.69148 0.5673 0.95892 0.0
H1421 H 0.64442 0.56251 0.02624 0.0
C1422 C 0.61538 0.53877 0.00392 0.0
C1423 C 0.60795 0.52722 0.98124 0.0
C1424 C 0.69629 0.57727 0.97615 0.0
C1425 C 0.65579 0.55666 0.99071 0.0
C1426 C 0.71773 0.5955 0.97953 0.0
C1427 C 0.7237 0.60957 1.0013 0.0
C1428 C 0.68067 0.57321 0.9947 0.0
C1429 C 0.70907 0.6035 0.01994 0.0
C1430 C 0.63921 0.55352 0.0087 0.0
C1431 C 0.62512 0.53081 0.96378 0.0
N1432 N 0.68783 0.58607 0.01612 0.0
N1433 N 0.64817 0.54521 0.96887 0.0
H1434 H 0.30267 0.64533 0.24854 0.0
H1435 H 0.18816 0.54102 0.19241 0.0
H1436 H 0.28554 0.62904 0.17399 0.0
H1437 H 0.2079 0.55782 0.26641 0.0
H1438 H 0.22431 0.57206 0.18474 0.0
H1439 H 0.26817 0.61272 0.25502 0.0
C1440 C 0.29179 0.63468 0.2335 0.0
C1441 C 0.29719 0.63974 0.21068 0.0
C1442 C 0.22071 0.56898 0.20265 0.0
C1443 C 0.25736 0.60236 0.21798 0.0
C1444 C 0.20014 0.55135 0.20698 0.0
C1445 C 0.19463 0.54785 0.23004 0.0
C1446 C 0.23605 0.58263 0.22159 0.0
C1447 C 0.21104 0.56087 0.2484 0.0
C1448 C 0.27199 0.6161 0.23721 0.0
C1449 C 0.28198 0.62579 0.19187 0.0
N1450 N 0.23089 0.57785 0.24379 0.0
N1451 N 0.26276 0.60766 0.19594 0.0
H1452 H 0.91536 0.5084 0.01014 0.0
H1453 H 0.86607 0.64914 0.0314 0.0
H1454 H 0.96075 0.57176 0.05125 0.0
H1455 H 0.82872 0.59018 0.98001 0.0
H1456 H 0.90088 0.62127 0.03901 0.0
H1457 H 0.88322 0.53791 0.99942 0.0
C1458 C 0.91874 0.52855 0.01681 0.0
C1459 C 0.94101 0.53752 0.03159 0.0
C1460 C 0.88522 0.61451 0.02591 0.0
C1461 C 0.9038 0.57149 0.01958 0.0
C1462 C 0.86534 0.63045 0.02149 0.0
C1463 C 0.84439 0.62198 0.00505 0.0
C1464 C 0.88405 0.58974 0.01399 0.0
C1465 C 0.8445 0.59755 0.99279 0.0
C1466 C 0.90025 0.5454 0.01072 0.0
C1467 C 0.94382 0.5638 0.04007 0.0
N1468 N 0.86387 0.5822 0.99767 0.0
N1469 N 0.92544 0.5798 0.03398 0.0
H1470 H 0.13036 0.02912 0.0328 0.0
H1471 H 0.1936 0.89568 0.03775 0.0
H1472 H 0.09304 0.96471 0.06421 0.0
H1473 H 0.20591 0.9459 0.98272 0.0
H1474 H 0.16037 0.92271 0.05161 0.0
H1475 H 0.16209 1.00101 0.01846 0.0
C1476 C 0.12861 0.00905 0.0366 0.0
C1477 C 0.10854 0.99932 0.04954 0.0
C1478 C 0.17028 0.92771 0.03644 0.0
C1479 C 0.14562 0.96713 0.03359 0.0
C1480 C 0.1893 0.91236 0.02855 0.0
C1481 C 0.20262 0.91854 0.00903 0.0
C1482 C 0.16488 0.94972 0.02507 0.0
C1483 C 0.1961 0.94033 0.99775 0.0
C1484 C 0.1469 0.99304 0.02844 0.0
C1485 C 0.10815 0.97326 0.05451 0.0
N1486 N 0.17789 0.95527 0.00607 0.0
N1487 N 0.12642 0.95811 0.04657 0.0
loop_
_geom_bond_atom_site_label_1
_geom_bond_atom_site_label_2
_geom_bond_distance
_geom_bond_site_symmetry_2
_ccdc_geom_bond_type
H0 C5 0.930 . S
H1 C8 0.930 . S
H2 C10 0.930 . S
H3 C4 1.016 . S
C4 H3 1.016 . S
C4 N11 1.286 1_556 S
C5 H0 0.930 . S
C5 C6 1.397 . S
C5 C7 1.361 . S
C6 C5 1.397 . S
C6 C10 1.390 . S
C7 C5 1.361 . S
C7 C8 1.393 . S
C7 N11 1.413 . S
C8 H1 0.930 . S
C8 C7 1.393 . S
C8 C9 1.399 . S
C9 C8 1.399 . S
C9 C10 1.381 . S
C10 H2 0.930 . S
C10 C6 1.390 . S
C10 C9 1.381 . S
N11 C4 1.286 1_554 S
N11 C7 1.413 . S
H12 C17 0.930 . S
H13 C20 0.930 . S
H14 C22 0.930 . S
H15 C16 1.016 . S
C16 H15 1.016 . S
C16 N23 1.286 . S
C17 H12 0.930 . S
C17 C18 1.397 . S
C17 C19 1.361 . S
C18 C17 1.397 . S
C18 C22 1.390 . S
C19 C17 1.361 . S
C19 C20 1.393 . S
C19 N23 1.413 . S
C20 H13 0.930 . S
C20 C19 1.393 . S
C20 C21 1.399 . S
C21 C20 1.399 . S
C21 C22 1.381 . S
C22 H14 0.930 . S
C22 C18 1.390 . S
C22 C21 1.381 . S
N23 C16 1.286 . S
N23 C19 1.413 . S
H24 C29 0.930 . S
H25 C32 0.931 1_455 S
H26 C34 0.930 . S
H27 C28 1.023 1_455 S
C28 H27 1.023 1_655 S
C28 N35 1.291 . S
C29 H24 0.930 . S
C29 C30 1.397 . S
C29 C31 1.361 . S
C30 C29 1.397 . S
C30 C34 1.390 . S
C31 C29 1.361 . S
C31 C32 1.393 . S
C31 N35 1.413 . S
C32 H25 0.931 1_655 S
C32 C31 1.393 . S
C32 C33 1.399 . S
C33 C32 1.399 . S
C33 C34 1.381 . S
C34 H26 0.930 . S
C34 C30 1.390 . S
C34 C33 1.381 . S
N35 C28 1.291 . S
N35 C31 1.413 . S
H36 C41 0.930 . S
H37 C44 0.930 . S
H38 C46 0.930 . S
H39 C40 1.016 . S
C40 H39 1.016 . S
C40 N47 1.286 . S
C41 H36 0.930 . S
C41 C42 1.397 . S
C41 C43 1.361 . S
C42 C41 1.397 . S
C42 C46 1.390 . S
C43 C41 1.361 . S
C43 C44 1.393 . S
C43 N47 1.413 . S
C44 H37 0.930 . S
C44 C43 1.393 . S
C44 C45 1.399 . S
C45 C44 1.399 . S
C45 C46 1.381 . S
C46 H38 0.930 . S
C46 C42 1.390 . S
C46 C45 1.381 . S
N47 C40 1.286 . S
N47 C43 1.413 . S
H48 C53 0.930 . S
H49 C56 0.930 . S
H50 C58 0.930 . S
H51 C52 1.016 . S
C52 H51 1.016 . S
C52 N59 1.286 . S
C53 H48 0.930 . S
C53 C54 1.397 . S
C53 C55 1.361 . S
C54 C53 1.397 . S
C54 C58 1.390 1_565 S
C55 C53 1.361 . S
C55 C56 1.393 . S
C55 N59 1.413 . S
C56 H49 0.930 . S
C56 C55 1.393 . S
C56 C57 1.399 1_565 S
C57 C56 1.399 1_545 S
C57 C58 1.381 . S
C58 H50 0.930 . S
C58 C54 1.390 1_545 S
C58 C57 1.381 . S
N59 C52 1.286 . S
N59 C55 1.413 . S
H60 C65 0.930 . S
H61 C68 0.930 . S
H62 C70 0.930 . S
H63 C64 1.016 . S
C64 H63 1.016 . S
C64 N71 1.286 . S
C65 H60 0.930 . S
C65 C66 1.397 . S
C65 C67 1.361 . S
C66 C65 1.397 . S
C66 C70 1.390 . S
C67 C65 1.361 . S
C67 C68 1.393 . S
C67 N71 1.413 . S
C68 H61 0.930 . S
C68 C67 1.393 . S
C68 C69 1.399 . S
C69 C68 1.399 . S
C69 C70 1.381 . S
C70 H62 0.930 . S
C70 C66 1.390 . S
C70 C69 1.381 . S
N71 C64 1.286 . S
N71 C67 1.413 . S
H72 C77 0.930 . S
H73 C80 0.930 . S
H74 C82 0.930 . S
H75 C76 1.016 . S
C76 H75 1.016 . S
C76 N83 1.286 . S
C77 H72 0.930 . S
C77 C78 1.397 1_455 S
C77 C79 1.363 . S
C78 C77 1.397 1_655 S
C78 C82 1.390 . S
C79 C77 1.363 . S
C79 C80 1.373 1_455 S
C79 N83 1.432 . S
C80 H73 0.930 . S
C80 C79 1.373 1_655 S
C80 C81 1.399 . S
C81 C80 1.399 . S
C81 C82 1.381 . S
C82 H74 0.930 . S
C82 C78 1.390 . S
C82 C81 1.381 . S
N83 C76 1.286 . S
N83 C79 1.432 . S
H84 C89 0.930 . S
H85 C92 0.930 . S
H86 C94 0.930 . S
H87 C88 1.016 . S
C88 H87 1.016 . S
C88 N95 1.286 . S
C89 H84 0.930 . S
C89 C90 1.397 . S
C89 C91 1.361 . S
C90 C89 1.397 . S
C90 C94 1.390 . S
C91 C89 1.361 . S
C91 C92 1.393 . S
C91 N95 1.413 . S
C92 H85 0.930 . S
C92 C91 1.393 . S
C92 C93 1.399 . S
C93 C92 1.399 . S
C93 C94 1.381 . S
C94 H86 0.930 . S
C94 C90 1.390 . S
C94 C93 1.381 . S
N95 C88 1.286 . S
N95 C91 1.413 . S
H96 C101 0.930 . S
H97 C104 0.930 . S
H98 C106 0.930 . S
H99 C100 1.016 . S
C100 H99 1.016 . S
C100 N107 1.286 . S
C101 H96 0.930 . S
C101 C102 1.397 . S
C101 C103 1.361 . S
C102 C101 1.397 . S
C102 C106 1.390 . S
C103 C101 1.361 . S
C103 C104 1.393 . S
C103 N107 1.413 . S
C104 H97 0.930 . S
C104 C103 1.393 . S
C104 C105 1.399 . S
C105 C104 1.399 . S
C105 C106 1.381 . S
C106 H98 0.930 . S
C106 C102 1.390 . S
C106 C105 1.381 . S
N107 C100 1.286 . S
N107 C103 1.413 . S
H108 C113 0.930 . S
H109 C116 0.930 . S
H110 C118 0.930 . S
H111 C112 1.016 . S
C112 H111 1.016 . S
C112 N119 1.286 . S
C113 H108 0.930 . S
C113 C114 1.397 1_565 S
C113 C115 1.361 . S
C114 C113 1.397 1_545 S
C114 C118 1.390 . S
C115 C113 1.361 . S
C115 C116 1.393 . S
C115 N119 1.413 . S
C116 H109 0.930 . S
C116 C115 1.393 . S
C116 C117 1.399 . S
C117 C116 1.399 . S
C117 C118 1.381 1_565 S
C118 H110 0.930 . S
C118 C114 1.390 . S
C118 C117 1.381 1_545 S
N119 C112 1.286 . S
N119 C115 1.413 . S
H120 C125 0.930 . S
H121 C128 0.930 . S
H122 C130 0.930 . S
H123 C124 1.016 . S
C124 H123 1.016 . S
C124 N131 1.286 . S
C125 H120 0.930 . S
C125 C126 1.397 . S
C125 C127 1.361 . S
C126 C125 1.397 . S
C126 C130 1.390 . S
C127 C125 1.361 . S
C127 C128 1.393 . S
C127 N131 1.413 . S
C128 H121 0.930 . S
C128 C127 1.393 . S
C128 C129 1.399 . S
C129 C128 1.399 . S
C129 C130 1.381 . S
C130 H122 0.930 . S
C130 C126 1.390 . S
C130 C129 1.381 . S
N131 C124 1.286 . S
N131 C127 1.413 . S
H132 C137 0.930 . S
H133 C140 0.930 . S
H134 C142 0.930 . S
H135 C136 1.016 . S
C136 H135 1.016 . S
C136 N143 1.286 . S
C137 H132 0.930 . S
C137 C138 1.397 . S
C137 C139 1.361 . S
C138 C137 1.397 . S
C138 C142 1.390 . S
C139 C137 1.361 . S
C139 C140 1.393 . S
C139 N143 1.413 . S
C140 H133 0.930 . S
C140 C139 1.393 . S
C140 C141 1.399 . S
C141 C140 1.399 . S
C141 C142 1.381 . S
C142 H134 0.930 . S
C142 C138 1.390 . S
C142 C141 1.381 . S
N143 C136 1.286 . S
N143 C139 1.413 . S
H144 C149 0.930 . S
H145 C152 0.930 . S
H146 C154 0.930 . S
H147 C148 1.016 . S
C148 H147 1.016 . S
C148 N155 1.286 . S
C149 H144 0.930 . S
C149 C150 1.397 . S
C149 C151 1.361 . S
C150 C149 1.397 . S
C150 C154 1.390 . S
C151 C149 1.361 . S
C151 C152 1.393 . S
C151 N155 1.413 . S
C152 H145 0.930 . S
C152 C151 1.393 . S
C152 C153 1.399 . S
C153 C152 1.399 . S
C153 C154 1.381 . S
C154 H146 0.930 . S
C154 C150 1.390 . S
C154 C153 1.381 . S
N155 C148 1.286 . S
N155 C151 1.413 . S
H156 C161 0.930 . S
H157 C164 0.922 1_554 S
H158 C166 0.930 . S
H159 C160 1.016 . S
C160 H159 1.016 . S
C160 N167 1.286 1_554 S
C161 H156 0.930 . S
C161 C162 1.397 . S
C161 C163 1.361 . S
C162 C161 1.397 . S
C162 C166 1.390 . S
C163 C161 1.361 . S
C163 C164 1.393 . S
C163 N167 1.413 . S
C164 H157 0.922 1_556 S
C164 C163 1.393 . S
C164 C165 1.399 . S
C165 C164 1.399 . S
C165 C166 1.381 . S
C166 H158 0.930 . S
C166 C162 1.390 . S
C166 C165 1.381 . S
N167 C160 1.286 1_556 S
N167 C163 1.413 . S
H168 C173 0.930 . S
H169 C176 0.930 . S
H170 C178 0.930 . S
H171 C172 1.016 . S
C172 H171 1.016 . S
C172 N179 1.286 . S
C173 H168 0.930 . S
C173 C174 1.397 . S
C173 C175 1.361 . S
C174 C173 1.397 . S
C174 C178 1.390 . S
C175 C173 1.361 . S
C175 C176 1.393 . S
C175 N179 1.413 . S
C176 H169 0.930 . S
C176 C175 1.393 . S
C176 C177 1.399 . S
C177 C176 1.399 . S
C177 C178 1.381 . S
C178 H170 0.930 . S
C178 C174 1.390 . S
C178 C177 1.381 . S
N179 C172 1.286 . S
N179 C175 1.413 . S
H180 C185 0.930 . S
H181 C188 0.930 . S
H182 C190 0.930 1_554 S
H183 C184 1.016 . S
C184 H183 1.016 . S
C184 N191 1.286 . S
C185 H180 0.930 . S
C185 C186 1.397 . S
C185 C187 1.361 . S
C186 C185 1.397 . S
C186 C190 1.390 . S
C187 C185 1.361 . S
C187 C188 1.393 . S
C187 N191 1.413 . S
C188 H181 0.930 . S
C188 C187 1.393 . S
C188 C189 1.399 . S
C189 C188 1.399 . S
C189 C190 1.381 . S
C190 H182 0.930 1_556 S
C190 C186 1.390 . S
C190 C189 1.381 . S
N191 C184 1.286 . S
N191 C187 1.413 . S
Mn192 O197 2.095 . S
Mn192 O207 2.162 . S
Mn192 O208 2.297 . S
Mn192 O216 2.385 . S
Mn192 O217 2.209 1_554 S
Mn192 O218 2.094 . S
Mn193 O198 2.121 . S
Mn193 N200 2.257 . S
Mn193 N209 2.282 . S
Mn193 O217 2.215 . S
Mn193 O219 2.117 . S
C194 O216 1.234 1_556 S
C194 O217 1.283 . S
C195 O207 1.281 . S
C195 O208 1.236 . S
C196 O218 1.240 . S
C196 O219 1.264 1_554 S
O197 Mn192 2.095 . S
O197 C206 1.250 . S
O198 Mn193 2.121 . S
O198 C206 1.258 1_556 S
C199 N200 1.326 . S
C199 C203 1.460 . S
C199 H205 0.929 . S
N200 Mn193 2.257 . S
N200 C199 1.326 . S
N200 C204 1.362 . S
C201 C202 1.258 . S
C201 C204 1.431 . S
C201 C221 1.449 . S
C202 C201 1.258 . S
C202 C203 1.477 . S
C202 H222 0.931 . S
C203 C199 1.460 . S
C203 C202 1.477 . S
C203 H223 0.930 . S
C204 N200 1.362 . S
C204 C201 1.431 . S
C204 C214 1.476 . S
H205 C199 0.929 . S
C206 O197 1.250 . S
C206 O198 1.258 1_554 S
O207 Mn192 2.162 . S
O207 C195 1.281 . S
O208 Mn192 2.297 . S
O208 C195 1.236 . S
N209 Mn193 2.282 . S
N209 C210 1.328 . S
N209 C214 1.318 . S
C210 N209 1.328 . S
C210 C211 1.457 . S
C210 H215 0.929 . S
C211 C210 1.457 . S
C211 C212 1.291 . S
C211 H224 0.931 . S
C212 C211 1.291 . S
C212 C213 1.373 . S
C212 H225 0.929 . S
C213 C212 1.373 . S
C213 C214 1.396 . S
C213 C220 1.403 . S
C214 C204 1.476 . S
C214 N209 1.318 . S
C214 C213 1.396 . S
H215 C210 0.929 . S
O216 Mn192 2.385 . S
O216 C194 1.234 1_554 S
O217 Mn192 2.209 1_556 S
O217 Mn193 2.215 . S
O217 C194 1.283 . S
O218 Mn192 2.094 . S
O218 C196 1.240 . S
O219 Mn193 2.117 . S
O219 C196 1.264 1_556 S
C220 C213 1.403 . S
C220 C221 1.399 . S
C220 H226 0.929 . S
C221 C201 1.449 . S
C221 C220 1.399 . S
C221 H227 0.930 . S
H222 C202 0.931 . S
H223 C203 0.930 . S
H224 C211 0.931 . S
H225 C212 0.929 . S
H226 C220 0.929 . S
H227 C221 0.930 . S
Mn228 O233 2.095 . S
Mn228 O243 2.162 . S
Mn228 O244 2.297 . S
Mn228 O252 2.385 . S
Mn228 O253 2.209 . S
Mn228 O254 2.094 . S
Mn229 O234 2.121 . S
Mn229 N236 2.257 . S
Mn229 N245 2.282 . S
Mn229 O253 2.215 . S
Mn229 O255 2.117 . S
C230 O252 1.234 . S
C230 O253 1.283 . S
C231 O243 1.281 . S
C231 O244 1.236 . S
C232 O254 1.240 . S
C232 O255 1.264 . S
O233 Mn228 2.095 . S
O233 C242 1.250 . S
O234 Mn229 2.121 . S
O234 C242 1.258 . S
C235 N236 1.326 . S
C235 C239 1.460 . S
C235 H241 0.929 . S
N236 Mn229 2.257 . S
N236 C235 1.326 . S
N236 C240 1.362 . S
C237 C238 1.258 . S
C237 C240 1.431 . S
C237 C257 1.449 . S
C238 C237 1.258 . S
C238 C239 1.477 . S
C238 H258 0.931 . S
C239 C235 1.460 . S
C239 C238 1.477 . S
C239 H259 0.930 . S
C240 N236 1.362 . S
C240 C237 1.431 . S
C240 C250 1.476 . S
H241 C235 0.929 . S
C242 O233 1.250 . S
C242 O234 1.258 . S
O243 Mn228 2.162 . S
O243 C231 1.281 . S
O244 Mn228 2.297 . S
O244 C231 1.236 . S
N245 Mn229 2.282 . S
N245 C246 1.328 . S
N245 C250 1.318 . S
C246 N245 1.328 . S
C246 C247 1.457 . S
C246 H251 0.929 . S
C247 C246 1.457 . S
C247 C248 1.291 . S
C247 H260 0.931 . S
C248 C247 1.291 . S
C248 C249 1.373 . S
C248 H261 0.929 . S
C249 C248 1.373 . S
C249 C250 1.396 . S
C249 C256 1.403 . S
C250 C240 1.476 . S
C250 N245 1.318 . S
C250 C249 1.396 . S
H251 C246 0.929 . S
O252 Mn228 2.385 . S
O252 C230 1.234 . S
O253 Mn228 2.209 . S
O253 Mn229 2.215 . S
O253 C230 1.283 . S
O254 Mn228 2.094 . S
O254 C232 1.240 . S
O255 Mn229 2.117 . S
O255 C232 1.264 . S
C256 C249 1.403 . S
C256 C257 1.399 . S
C256 H262 0.929 . S
C257 C237 1.449 . S
C257 C256 1.399 . S
C257 H263 0.930 . S
H258 C238 0.931 . S
H259 C239 0.930 . S
H260 C247 0.931 . S
H261 C248 0.929 . S
H262 C256 0.929 . S
H263 C257 0.930 . S
Mn264 O269 2.095 1_554 S
Mn264 O279 2.162 . S
Mn264 O280 2.297 1_554 S
Mn264 O288 2.385 . S
Mn264 O289 2.209 1_554 S
Mn264 O290 2.094 . S
Mn265 O270 2.121 . S
Mn265 N272 2.257 . S
Mn265 N281 2.272 1_556 S
Mn265 O289 2.215 . S
Mn265 O291 2.117 1_556 S
C266 O288 1.234 . S
C266 O289 1.283 1_554 S
C267 O279 1.281 . S
C267 O280 1.236 1_554 S
C268 O290 1.240 . S
C268 O291 1.264 . S
O269 Mn264 2.095 1_556 S
O269 C278 1.250 . S
O270 Mn265 2.121 . S
O270 C278 1.258 . S
C271 N272 1.326 . S
C271 C275 1.460 . S
C271 H277 0.929 . S
N272 Mn265 2.257 . S
N272 C271 1.326 . S
N272 C276 1.362 . S
C273 C274 1.258 . S
C273 C276 1.431 . S
C273 C293 1.449 . S
C274 C273 1.258 . S
C274 C275 1.477 . S
C274 H294 0.931 . S
C275 C271 1.460 . S
C275 C274 1.477 . S
C275 H295 0.930 . S
C276 N272 1.362 . S
C276 C273 1.431 . S
C276 C286 1.476 . S
H277 C271 0.929 . S
C278 O269 1.250 . S
C278 O270 1.258 . S
O279 Mn264 2.162 . S
O279 C267 1.281 . S
O280 Mn264 2.297 1_556 S
O280 C267 1.236 1_556 S
N281 Mn265 2.272 1_554 S
N281 C282 1.350 . S
N281 C286 1.304 1_554 S
C282 N281 1.350 . S
C282 C283 1.457 . S
C282 H287 0.929 . S
C283 C282 1.457 . S
C283 C284 1.291 . S
C283 H296 0.931 . S
C284 C283 1.291 . S
C284 C285 1.373 1_554 S
C284 H297 0.929 . S
C285 C284 1.373 1_556 S
C285 C286 1.396 . S
C285 C292 1.403 . S
C286 C276 1.476 . S
C286 N281 1.304 1_556 S
C286 C285 1.396 . S
H287 C282 0.929 . S
O288 Mn264 2.385 . S
O288 C266 1.234 . S
O289 Mn264 2.209 1_556 S
O289 Mn265 2.215 . S
O289 C266 1.283 1_556 S
O290 Mn264 2.094 . S
O290 C268 1.240 . S
O291 Mn265 2.117 1_554 S
O291 C268 1.264 . S
C292 C285 1.403 . S
C292 C293 1.399 . S
C292 H298 0.929 . S
C293 C273 1.449 . S
C293 C292 1.399 . S
C293 H299 0.930 . S
H294 C274 0.931 . S
H295 C275 0.930 . S
H296 C283 0.931 . S
H297 C284 0.929 . S
H298 C292 0.929 . S
H299 C293 0.930 . S
Mn300 O305 2.095 . S
Mn300 O315 2.162 . S
Mn300 O316 2.297 . S
Mn300 O324 2.385 . S
Mn300 O325 2.209 1_545 S
Mn300 O326 2.094 . S
Mn301 O306 2.121 . S
Mn301 N308 2.257 . S
Mn301 N317 2.282 . S
Mn301 O325 2.215 . S
Mn301 O327 2.117 1_565 S
C302 O324 1.234 1_565 S
C302 O325 1.283 . S
C303 O315 1.281 . S
C303 O316 1.236 . S
C304 O326 1.240 . S
C304 O327 1.264 . S
O305 Mn300 2.095 . S
O305 C314 1.250 . S
O306 Mn301 2.121 . S
O306 C314 1.258 1_565 S
C307 N308 1.326 . S
C307 C311 1.460 . S
C307 H313 0.929 . S
N308 Mn301 2.257 . S
N308 C307 1.326 . S
N308 C312 1.362 . S
C309 C310 1.258 . S
C309 C312 1.431 . S
C309 C329 1.449 . S
C310 C309 1.258 . S
C310 C311 1.477 . S
C310 H330 0.931 . S
C311 C307 1.460 . S
C311 C310 1.477 . S
C311 H331 0.930 . S
C312 N308 1.362 . S
C312 C309 1.431 . S
C312 C322 1.476 . S
H313 C307 0.929 . S
C314 O305 1.250 . S
C314 O306 1.258 1_545 S
O315 Mn300 2.162 . S
O315 C303 1.281 . S
O316 Mn300 2.297 . S
O316 C303 1.236 . S
N317 Mn301 2.282 . S
N317 C318 1.328 . S
N317 C322 1.318 . S
C318 N317 1.328 . S
C318 C319 1.457 . S
C318 H323 0.929 . S
C319 C318 1.457 . S
C319 C320 1.291 . S
C319 H332 0.931 . S
C320 C319 1.291 . S
C320 C321 1.373 . S
C320 H333 0.929 . S
C321 C320 1.373 . S
C321 C322 1.396 . S
C321 C328 1.403 . S
C322 C312 1.476 . S
C322 N317 1.318 . S
C322 C321 1.396 . S
H323 C318 0.929 . S
O324 Mn300 2.385 . S
O324 C302 1.234 1_545 S
O325 Mn300 2.209 1_565 S
O325 Mn301 2.215 . S
O325 C302 1.283 . S
O326 Mn300 2.094 . S
O326 C304 1.240 . S
O327 Mn301 2.117 1_545 S
O327 C304 1.264 . S
C328 C321 1.403 . S
C328 C329 1.399 . S
C328 H334 0.929 . S
C329 C309 1.449 . S
C329 C328 1.399 . S
C329 H335 0.930 . S
H330 C310 0.931 . S
H331 C311 0.930 . S
H332 C319 0.931 . S
H333 C320 0.929 . S
H334 C328 0.929 . S
H335 C329 0.930 . S
Mn336 O341 2.095 . S
Mn336 O351 2.162 . S
Mn336 O352 2.297 . S
Mn336 O360 2.385 . S
Mn336 O361 2.209 . S
Mn336 O362 2.094 . S
Mn337 O342 2.121 . S
Mn337 N344 2.257 . S
Mn337 N353 2.282 . S
Mn337 O361 2.215 . S
Mn337 O363 2.117 . S
C338 O360 1.234 . S
C338 O361 1.283 . S
C339 O351 1.281 . S
C339 O352 1.236 . S
C340 O362 1.240 . S
C340 O363 1.264 . S
O341 Mn336 2.095 . S
O341 C350 1.250 . S
O342 Mn337 2.121 . S
O342 C350 1.258 . S
C343 N344 1.326 . S
C343 C347 1.460 . S
C343 H349 0.929 . S
N344 Mn337 2.257 . S
N344 C343 1.326 . S
N344 C348 1.362 . S
C345 C346 1.258 . S
C345 C348 1.431 . S
C345 C365 1.449 . S
C346 C345 1.258 . S
C346 C347 1.477 . S
C346 H366 0.931 . S
C347 C343 1.460 . S
C347 C346 1.477 . S
C347 H367 0.930 . S
C348 N344 1.362 . S
C348 C345 1.431 . S
C348 C358 1.476 . S
H349 C343 0.929 . S
C350 O341 1.250 . S
C350 O342 1.258 . S
O351 Mn336 2.162 . S
O351 C339 1.281 . S
O352 Mn336 2.297 . S
O352 C339 1.236 . S
N353 Mn337 2.282 . S
N353 C354 1.328 . S
N353 C358 1.318 . S
C354 N353 1.328 . S
C354 C355 1.457 . S
C354 H359 0.929 . S
C355 C354 1.457 . S
C355 C356 1.291 . S
C355 H368 0.931 . S
C356 C355 1.291 . S
C356 C357 1.373 . S
C356 H369 0.929 . S
C357 C356 1.373 . S
C357 C358 1.396 . S
C357 C364 1.403 . S
C358 C348 1.476 . S
C358 N353 1.318 . S
C358 C357 1.396 . S
H359 C354 0.929 . S
O360 Mn336 2.385 . S
O360 C338 1.234 . S
O361 Mn336 2.209 . S
O361 Mn337 2.215 . S
O361 C338 1.283 . S
O362 Mn336 2.094 . S
O362 C340 1.240 . S
O363 Mn337 2.117 . S
O363 C340 1.264 . S
C364 C357 1.403 . S
C364 C365 1.399 . S
C364 H370 0.929 . S
C365 C345 1.449 . S
C365 C364 1.399 . S
C365 H371 0.930 . S
H366 C346 0.931 . S
H367 C347 0.930 . S
H368 C355 0.931 . S
H369 C356 0.929 . S
H370 C364 0.929 . S
H371 C365 0.930 . S
Mn372 O377 2.095 . S
Mn372 O387 2.162 . S
Mn372 O388 2.297 . S
Mn372 O396 2.385 . S
Mn372 O397 2.209 . S
Mn372 O398 2.094 . S
Mn373 O378 2.121 . S
Mn373 N380 2.257 . S
Mn373 N389 2.282 . S
Mn373 O397 2.215 . S
Mn373 O399 2.117 . S
C374 O396 1.234 . S
C374 O397 1.283 . S
C375 O387 1.281 . S
C375 O388 1.236 . S
C376 O398 1.240 . S
C376 O399 1.264 . S
O377 Mn372 2.095 . S
O377 C386 1.250 . S
O378 Mn373 2.121 . S
O378 C386 1.258 . S
C379 N380 1.326 . S
C379 C383 1.460 . S
C379 H385 0.929 . S
N380 Mn373 2.257 . S
N380 C379 1.326 . S
N380 C384 1.362 . S
C381 C382 1.258 . S
C381 C384 1.431 . S
C381 C401 1.449 . S
C382 C381 1.258 . S
C382 C383 1.477 . S
C382 H402 0.931 . S
C383 C379 1.460 . S
C383 C382 1.477 . S
C383 H403 0.930 . S
C384 N380 1.362 . S
C384 C381 1.431 . S
C384 C394 1.476 . S
H385 C379 0.929 . S
C386 O377 1.250 . S
C386 O378 1.258 . S
O387 Mn372 2.162 . S
O387 C375 1.281 . S
O388 Mn372 2.297 . S
O388 C375 1.236 . S
N389 Mn373 2.282 . S
N389 C390 1.328 . S
N389 C394 1.318 . S
C390 N389 1.328 . S
C390 C391 1.457 . S
C390 H395 0.929 . S
C391 C390 1.457 . S
C391 C392 1.291 . S
C391 H404 0.931 . S
C392 C391 1.291 . S
C392 C393 1.373 . S
C392 H405 0.929 . S
C393 C392 1.373 . S
C393 C394 1.396 . S
C393 C400 1.403 . S
C394 C384 1.476 . S
C394 N389 1.318 . S
C394 C393 1.396 . S
H395 C390 0.929 . S
O396 Mn372 2.385 . S
O396 C374 1.234 . S
O397 Mn372 2.209 . S
O397 Mn373 2.215 . S
O397 C374 1.283 . S
O398 Mn372 2.094 . S
O398 C376 1.240 . S
O399 Mn373 2.117 . S
O399 C376 1.264 . S
C400 C393 1.403 . S
C400 C401 1.399 . S
C400 H406 0.929 . S
C401 C381 1.449 . S
C401 C400 1.399 . S
C401 H407 0.930 . S
H402 C382 0.931 . S
H403 C383 0.930 . S
H404 C391 0.931 . S
H405 C392 0.929 . S
H406 C400 0.929 . S
H407 C401 0.930 . S
Mn408 O413 2.095 . S
Mn408 O423 2.162 . S
Mn408 O424 2.297 . S
Mn408 O432 2.385 . S
Mn408 O433 2.209 . S
Mn408 O434 2.094 . S
Mn409 O414 2.121 . S
Mn409 N416 2.257 . S
Mn409 N425 2.282 . S
Mn409 O433 2.215 . S
Mn409 O435 2.117 . S
C410 O432 1.234 . S
C410 O433 1.283 . S
C411 O423 1.281 . S
C411 O424 1.236 . S
C412 O434 1.240 . S
C412 O435 1.264 . S
O413 Mn408 2.095 . S
O413 C422 1.250 . S
O414 Mn409 2.121 . S
O414 C422 1.258 . S
C415 N416 1.326 . S
C415 C419 1.460 . S
C415 H421 0.929 . S
N416 Mn409 2.257 . S
N416 C415 1.326 . S
N416 C420 1.362 . S
C417 C418 1.258 . S
C417 C420 1.431 . S
C417 C437 1.449 . S
C418 C417 1.258 . S
C418 C419 1.477 . S
C418 H438 0.931 . S
C419 C415 1.460 . S
C419 C418 1.477 . S
C419 H439 0.930 . S
C420 N416 1.362 . S
C420 C417 1.431 . S
C420 C430 1.476 . S
H421 C415 0.929 . S
C422 O413 1.250 . S
C422 O414 1.258 . S
O423 Mn408 2.162 . S
O423 C411 1.281 . S
O424 Mn408 2.297 . S
O424 C411 1.236 . S
N425 Mn409 2.282 . S
N425 C426 1.328 . S
N425 C430 1.318 . S
C426 N425 1.328 . S
C426 C427 1.457 . S
C426 H431 0.929 . S
C427 C426 1.457 . S
C427 C428 1.291 . S
C427 H440 0.931 . S
C428 C427 1.291 . S
C428 C429 1.373 . S
C428 H441 0.929 . S
C429 C428 1.373 . S
C429 C430 1.396 . S
C429 C436 1.403 . S
C430 C420 1.476 . S
C430 N425 1.318 . S
C430 C429 1.396 . S
H431 C426 0.929 . S
O432 Mn408 2.385 . S
O432 C410 1.234 . S
O433 Mn408 2.209 . S
O433 Mn409 2.215 . S
O433 C410 1.283 . S
O434 Mn408 2.094 . S
O434 C412 1.240 . S
O435 Mn409 2.117 . S
O435 C412 1.264 . S
C436 C429 1.403 . S
C436 C437 1.399 . S
C436 H442 0.929 . S
C437 C417 1.449 . S
C437 C436 1.399 . S
C437 H443 0.930 . S
H438 C418 0.931 . S
H439 C419 0.930 . S
H440 C427 0.931 . S
H441 C428 0.929 . S
H442 C436 0.929 . S
H443 C437 0.930 . S
Mn444 O449 2.095 . S
Mn444 O459 2.162 . S
Mn444 O460 2.297 . S
Mn444 O468 2.385 1_565 S
Mn444 O469 2.209 1_565 S
Mn444 O470 2.094 . S
Mn445 O450 2.121 . S
Mn445 N452 2.257 . S
Mn445 N461 2.282 . S
Mn445 O469 2.215 . S
Mn445 O471 2.117 . S
C446 O468 1.234 . S
C446 O469 1.283 . S
C447 O459 1.281 . S
C447 O460 1.236 . S
C448 O470 1.240 . S
C448 O471 1.264 1_565 S
O449 Mn444 2.095 . S
O449 C458 1.250 1_565 S
O450 Mn445 2.121 . S
O450 C458 1.258 . S
C451 N452 1.326 . S
C451 C455 1.460 . S
C451 H457 0.929 . S
N452 Mn445 2.257 . S
N452 C451 1.326 . S
N452 C456 1.362 . S
C453 C454 1.258 . S
C453 C456 1.431 . S
C453 C473 1.449 . S
C454 C453 1.258 . S
C454 C455 1.477 . S
C454 H474 0.931 . S
C455 C451 1.460 . S
C455 C454 1.477 . S
C455 H475 0.930 . S
C456 N452 1.362 . S
C456 C453 1.431 . S
C456 C466 1.476 . S
H457 C451 0.929 . S
C458 O449 1.250 1_545 S
C458 O450 1.258 . S
O459 Mn444 2.162 . S
O459 C447 1.281 . S
O460 Mn444 2.297 . S
O460 C447 1.236 . S
N461 Mn445 2.282 . S
N461 C462 1.328 . S
N461 C466 1.318 . S
C462 N461 1.328 . S
C462 C463 1.457 . S
C462 H467 0.929 . S
C463 C462 1.457 . S
C463 C464 1.291 . S
C463 H476 0.931 . S
C464 C463 1.291 . S
C464 C465 1.373 . S
C464 H477 0.929 . S
C465 C464 1.373 . S
C465 C466 1.396 . S
C465 C472 1.403 . S
C466 C456 1.476 . S
C466 N461 1.318 . S
C466 C465 1.396 . S
H467 C462 0.929 . S
O468 Mn444 2.385 1_545 S
O468 C446 1.234 . S
O469 Mn444 2.209 1_545 S
O469 Mn445 2.215 . S
O469 C446 1.283 . S
O470 Mn444 2.094 . S
O470 C448 1.240 . S
O471 Mn445 2.117 . S
O471 C448 1.264 1_545 S
C472 C465 1.403 . S
C472 C473 1.399 . S
C472 H478 0.929 . S
C473 C453 1.449 . S
C473 C472 1.399 . S
C473 H479 0.930 . S
H474 C454 0.931 . S
H475 C455 0.930 . S
H476 C463 0.931 . S
H477 C464 0.929 . S
H478 C472 0.929 . S
H479 C473 0.930 . S
Mn480 O485 2.095 . S
Mn480 O495 2.162 . S
Mn480 O496 2.297 . S
Mn480 O504 2.385 1_455 S
Mn480 O505 2.209 1_455 S
Mn480 O506 2.094 . S
Mn481 O486 2.121 . S
Mn481 N488 2.257 . S
Mn481 N497 2.282 . S
Mn481 O505 2.215 . S
Mn481 O507 2.117 . S
C482 O504 1.234 . S
C482 O505 1.283 . S
C483 O495 1.281 . S
C483 O496 1.236 . S
C484 O506 1.240 . S
C484 O507 1.264 1_455 S
O485 Mn480 2.095 . S
O485 C494 1.279 . S
O486 Mn481 2.121 . S
O486 C494 1.224 1_655 S
C487 N488 1.326 . S
C487 C491 1.460 . S
C487 H493 0.929 . S
N488 Mn481 2.257 . S
N488 C487 1.326 . S
N488 C492 1.362 . S
C489 C490 1.258 . S
C489 C492 1.431 . S
C489 C509 1.449 . S
C490 C489 1.258 . S
C490 C491 1.477 . S
C490 H510 0.931 . S
C491 C487 1.460 . S
C491 C490 1.477 . S
C491 H511 0.930 . S
C492 N488 1.362 . S
C492 C489 1.431 . S
C492 C502 1.476 . S
H493 C487 0.929 . S
C494 O485 1.279 . S
C494 O486 1.224 1_455 S
O495 Mn480 2.162 . S
O495 C483 1.281 . S
O496 Mn480 2.297 . S
O496 C483 1.236 . S
N497 Mn481 2.282 . S
N497 C498 1.328 . S
N497 C502 1.318 . S
C498 N497 1.328 . S
C498 C499 1.457 . S
C498 H503 0.929 . S
C499 C498 1.457 . S
C499 C500 1.291 . S
C499 H512 0.931 . S
C500 C499 1.291 . S
C500 C501 1.373 . S
C500 H513 0.929 . S
C501 C500 1.373 . S
C501 C502 1.396 . S
C501 C508 1.403 . S
C502 C492 1.476 . S
C502 N497 1.318 . S
C502 C501 1.396 . S
H503 C498 0.929 . S
O504 Mn480 2.385 1_655 S
O504 C482 1.234 . S
O505 Mn480 2.209 1_655 S
O505 Mn481 2.215 . S
O505 C482 1.283 . S
O506 Mn480 2.094 . S
O506 C484 1.240 . S
O507 Mn481 2.117 . S
O507 C484 1.264 1_655 S
C508 C501 1.403 . S
C508 C509 1.399 . S
C508 H514 0.929 . S
C509 C489 1.449 . S
C509 C508 1.399 . S
C509 H515 0.930 . S
H510 C490 0.931 . S
H511 C491 0.930 . S
H512 C499 0.931 . S
H513 C500 0.929 . S
H514 C508 0.929 . S
H515 C509 0.930 . S
Mn516 O521 2.095 . S
Mn516 O531 2.162 . S
Mn516 O532 2.297 . S
Mn516 O540 2.385 . S
Mn516 O541 2.209 . S
Mn516 O542 2.094 . S
Mn517 O522 2.121 . S
Mn517 N524 2.257 . S
Mn517 N533 2.282 . S
Mn517 O541 2.215 . S
Mn517 O543 2.117 . S
C518 O540 1.234 . S
C518 O541 1.283 . S
C519 O531 1.281 . S
C519 O532 1.236 . S
C520 O542 1.240 . S
C520 O543 1.264 . S
O521 Mn516 2.095 . S
O521 C530 1.250 . S
O522 Mn517 2.121 . S
O522 C530 1.258 . S
C523 N524 1.326 . S
C523 C527 1.460 . S
C523 H529 0.929 . S
N524 Mn517 2.257 . S
N524 C523 1.326 . S
N524 C528 1.362 . S
C525 C526 1.258 . S
C525 C528 1.431 . S
C525 C545 1.449 . S
C526 C525 1.258 . S
C526 C527 1.477 . S
C526 H546 0.931 . S
C527 C523 1.460 . S
C527 C526 1.477 . S
C527 H547 0.930 . S
C528 N524 1.362 . S
C528 C525 1.431 . S
C528 C538 1.476 . S
H529 C523 0.929 . S
C530 O521 1.250 . S
C530 O522 1.258 . S
O531 Mn516 2.162 . S
O531 C519 1.281 . S
O532 Mn516 2.297 . S
O532 C519 1.236 . S
N533 Mn517 2.282 . S
N533 C534 1.328 . S
N533 C538 1.318 . S
C534 N533 1.328 . S
C534 C535 1.457 . S
C534 H539 0.929 . S
C535 C534 1.457 . S
C535 C536 1.291 . S
C535 H548 0.931 . S
C536 C535 1.291 . S
C536 C537 1.373 . S
C536 H549 0.929 . S
C537 C536 1.373 . S
C537 C538 1.396 . S
C537 C544 1.403 . S
C538 C528 1.476 . S
C538 N533 1.318 . S
C538 C537 1.396 . S
H539 C534 0.929 . S
O540 Mn516 2.385 . S
O540 C518 1.234 . S
O541 Mn516 2.209 . S
O541 Mn517 2.215 . S
O541 C518 1.283 . S
O542 Mn516 2.094 . S
O542 C520 1.240 . S
O543 Mn517 2.117 . S
O543 C520 1.264 . S
C544 C537 1.403 . S
C544 C545 1.399 . S
C544 H550 0.929 . S
C545 C525 1.449 . S
C545 C544 1.399 . S
C545 H551 0.930 . S
H546 C526 0.931 . S
H547 C527 0.930 . S
H548 C535 0.931 . S
H549 C536 0.929 . S
H550 C544 0.929 . S
H551 C545 0.930 . S
Mn552 O557 2.095 . S
Mn552 O567 2.162 . S
Mn552 O568 2.297 . S
Mn552 O576 2.385 . S
Mn552 O577 2.210 1_455 S
Mn552 O578 2.094 . S
Mn553 O558 2.121 . S
Mn553 N560 2.257 . S
Mn553 N569 2.282 1_655 S
Mn553 O577 2.214 . S
Mn553 O579 2.117 1_655 S
C554 O576 1.234 . S
C554 O577 1.285 1_455 S
C555 O567 1.281 . S
C555 O568 1.236 . S
C556 O578 1.240 . S
C556 O579 1.264 . S
O557 Mn552 2.095 . S
O557 C566 1.250 1_455 S
O558 Mn553 2.121 . S
O558 C566 1.258 . S
C559 N560 1.326 . S
C559 C563 1.460 . S
C559 H565 0.929 . S
N560 Mn553 2.257 . S
N560 C559 1.326 . S
N560 C564 1.362 . S
C561 C562 1.258 . S
C561 C564 1.431 . S
C561 C581 1.449 . S
C562 C561 1.258 . S
C562 C563 1.477 . S
C562 H582 0.931 . S
C563 C559 1.460 . S
C563 C562 1.477 . S
C563 H583 0.930 . S
C564 N560 1.362 . S
C564 C561 1.431 . S
C564 C574 1.476 . S
H565 C559 0.929 . S
C566 O557 1.250 1_655 S
C566 O558 1.258 . S
O567 Mn552 2.162 . S
O567 C555 1.281 . S
O568 Mn552 2.297 . S
O568 C555 1.236 . S
N569 Mn553 2.282 1_455 S
N569 C570 1.328 . S
N569 C574 1.318 1_455 S
C570 N569 1.328 . S
C570 C571 1.457 . S
C570 H575 0.929 . S
C571 C570 1.457 . S
C571 C572 1.291 . S
C571 H584 0.931 . S
C572 C571 1.291 . S
C572 C573 1.373 1_455 S
C572 H585 0.929 . S
C573 C572 1.373 1_655 S
C573 C574 1.396 . S
C573 C580 1.403 . S
C574 C564 1.476 . S
C574 N569 1.318 1_655 S
C574 C573 1.396 . S
H575 C570 0.929 . S
O576 Mn552 2.385 . S
O576 C554 1.234 . S
O577 Mn552 2.210 1_655 S
O577 Mn553 2.214 . S
O577 C554 1.285 1_655 S
O578 Mn552 2.094 . S
O578 C556 1.240 . S
O579 Mn553 2.117 1_455 S
O579 C556 1.264 . S
C580 C573 1.403 . S
C580 C581 1.399 . S
C580 H586 0.929 . S
C581 C561 1.449 . S
C581 C580 1.399 . S
C581 H587 0.930 . S
H582 C562 0.931 . S
H583 C563 0.930 . S
H584 C571 0.931 . S
H585 C572 0.929 . S
H586 C580 0.929 . S
H587 C581 0.930 . S
Mn588 O593 2.095 . S
Mn588 O603 2.162 . S
Mn588 O604 2.297 . S
Mn588 O612 2.385 . S
Mn588 O613 2.209 . S
Mn588 O614 2.094 . S
Mn589 O594 2.121 . S
Mn589 N596 2.257 . S
Mn589 N605 2.282 . S
Mn589 O613 2.215 . S
Mn589 O615 2.117 . S
C590 O612 1.234 . S
C590 O613 1.283 . S
C591 O603 1.281 . S
C591 O604 1.236 . S
C592 O614 1.240 . S
C592 O615 1.264 . S
O593 Mn588 2.095 . S
O593 C602 1.250 . S
O594 Mn589 2.121 . S
O594 C602 1.258 . S
C595 N596 1.326 . S
C595 C599 1.460 . S
C595 H601 0.929 . S
N596 Mn589 2.257 . S
N596 C595 1.326 . S
N596 C600 1.362 . S
C597 C598 1.258 . S
C597 C600 1.431 . S
C597 C617 1.449 . S
C598 C597 1.258 . S
C598 C599 1.477 . S
C598 H618 0.931 . S
C599 C595 1.460 . S
C599 C598 1.477 . S
C599 H619 0.930 . S
C600 N596 1.362 . S
C600 C597 1.431 . S
C600 C610 1.476 . S
H601 C595 0.929 . S
C602 O593 1.250 . S
C602 O594 1.258 . S
O603 Mn588 2.162 . S
O603 C591 1.281 . S
O604 Mn588 2.297 . S
O604 C591 1.236 . S
N605 Mn589 2.282 . S
N605 C606 1.328 . S
N605 C610 1.318 . S
C606 N605 1.328 . S
C606 C607 1.457 . S
C606 H611 0.929 . S
C607 C606 1.457 . S
C607 C608 1.291 . S
C607 H620 0.931 . S
C608 C607 1.291 . S
C608 C609 1.373 . S
C608 H621 0.929 . S
C609 C608 1.373 . S
C609 C610 1.396 . S
C609 C616 1.403 . S
C610 C600 1.476 . S
C610 N605 1.318 . S
C610 C609 1.396 . S
H611 C606 0.929 . S
O612 Mn588 2.385 . S
O612 C590 1.234 . S
O613 Mn588 2.209 . S
O613 Mn589 2.215 . S
O613 C590 1.283 . S
O614 Mn588 2.094 . S
O614 C592 1.240 . S
O615 Mn589 2.117 . S
O615 C592 1.264 . S
C616 C609 1.403 . S
C616 C617 1.399 . S
C616 H622 0.929 . S
C617 C597 1.449 . S
C617 C616 1.399 . S
C617 H623 0.930 . S
H618 C598 0.931 . S
H619 C599 0.930 . S
H620 C607 0.931 . S
H621 C608 0.929 . S
H622 C616 0.929 . S
H623 C617 0.930 . S
H624 C630 0.930 . S
H625 C634 0.930 . S
H626 C639 0.929 . S
H627 C637 0.929 . S
H628 C632 0.929 . S
H629 C638 0.929 . S
C630 H624 0.930 . S
C630 C631 1.367 . S
C630 C638 1.378 . S
C631 C630 1.367 . S
C631 C639 1.433 . S
C632 H628 0.929 . S
C632 C634 1.378 . S
C632 C636 1.350 . S
C633 C636 1.463 . S
C633 C638 1.350 . S
C633 N641 1.427 . S
C634 H625 0.930 . S
C634 C632 1.378 . S
C634 C635 1.367 . S
C635 C634 1.367 . S
C635 C637 1.433 . S
C636 C632 1.350 . S
C636 C633 1.463 . S
C636 N640 1.427 . S
C637 H627 0.929 . S
C637 C635 1.433 . S
C637 N640 1.384 . S
C638 H629 0.929 . S
C638 C630 1.378 . S
C638 C633 1.350 . S
C639 H626 0.929 . S
C639 C631 1.433 . S
C639 N641 1.384 . S
N640 C636 1.427 . S
N640 C637 1.384 . S
N641 C633 1.427 . S
N641 C639 1.384 . S
H642 C648 0.930 . S
H643 C652 0.930 . S
H644 C657 0.929 . S
H645 C655 0.929 . S
H646 C650 0.929 . S
H647 C656 0.929 . S
C648 H642 0.930 . S
C648 C649 1.367 . S
C648 C656 1.378 . S
C649 C648 1.367 . S
C649 C657 1.433 . S
C650 H646 0.929 . S
C650 C652 1.378 . S
C650 C654 1.350 . S
C651 C654 1.463 . S
C651 C656 1.350 . S
C651 N659 1.427 . S
C652 H643 0.930 . S
C652 C650 1.378 . S
C652 C653 1.367 . S
C653 C652 1.367 . S
C653 C655 1.433 . S
C654 C650 1.350 . S
C654 C651 1.463 . S
C654 N658 1.427 . S
C655 H645 0.929 . S
C655 C653 1.433 . S
C655 N658 1.384 . S
C656 H647 0.929 . S
C656 C648 1.378 . S
C656 C651 1.350 . S
C657 H644 0.929 . S
C657 C649 1.433 . S
C657 N659 1.384 . S
N658 C654 1.427 . S
N658 C655 1.384 . S
N659 C651 1.427 . S
N659 C657 1.384 . S
H660 C666 0.930 . S
H661 C670 0.930 . S
H662 C675 0.929 . S
H663 C673 0.929 . S
H664 C668 0.929 . S
H665 C674 0.929 . S
C666 H660 0.930 . S
C666 C667 1.367 . S
C666 C674 1.378 . S
C667 C666 1.367 . S
C667 C675 1.433 . S
C668 H664 0.929 . S
C668 C670 1.378 . S
C668 C672 1.350 . S
C669 C672 1.463 . S
C669 C674 1.350 . S
C669 N677 1.427 . S
C670 H661 0.930 . S
C670 C668 1.378 . S
C670 C671 1.367 . S
C671 C670 1.367 . S
C671 C673 1.433 . S
C672 C668 1.350 . S
C672 C669 1.463 . S
C672 N676 1.427 . S
C673 H663 0.929 . S
C673 C671 1.433 . S
C673 N676 1.384 . S
C674 H665 0.929 . S
C674 C666 1.378 . S
C674 C669 1.350 . S
C675 H662 0.929 . S
C675 C667 1.433 . S
C675 N677 1.384 . S
N676 C672 1.427 . S
N676 C673 1.384 . S
N677 C669 1.427 . S
N677 C675 1.384 . S
H678 C684 0.930 . S
H679 C688 0.930 1_455 S
H680 C693 0.929 . S
H681 C691 0.929 1_565 S
H682 C686 0.929 . S
H683 C692 0.929 . S
C684 H678 0.930 . S
C684 C685 1.367 . S
C684 C692 1.378 1_455 S
C685 C684 1.367 . S
C685 C693 1.433 1_565 S
C686 H682 0.929 . S
C686 C688 1.378 1_455 S
C686 C690 1.350 1_455 S
C687 C690 1.463 1_455 S
C687 C692 1.350 1_445 S
C687 N695 1.427 . S
C688 H679 0.930 1_655 S
C688 C686 1.378 1_655 S
C688 C689 1.367 . S
C689 C688 1.367 . S
C689 C691 1.433 . S
C690 C686 1.350 1_655 S
C690 C687 1.463 1_655 S
C690 N694 1.435 . S
C691 H681 0.929 1_545 S
C691 C689 1.433 . S
C691 N694 1.392 . S
C692 H683 0.929 . S
C692 C684 1.378 1_655 S
C692 C687 1.350 1_665 S
C693 H680 0.929 . S
C693 C685 1.433 1_545 S
C693 N695 1.384 . S
N694 C690 1.435 . S
N694 C691 1.392 . S
N695 C687 1.427 . S
N695 C693 1.384 . S
H696 C702 0.930 . S
H697 C706 0.930 . S
H698 C711 0.929 . S
H699 C709 0.929 . S
H700 C704 0.929 . S
H701 C710 0.929 . S
C702 H696 0.930 . S
C702 C703 1.367 . S
C702 C710 1.378 . S
C703 C702 1.367 . S
C703 C711 1.433 . S
C704 H700 0.929 . S
C704 C706 1.378 . S
C704 C708 1.350 . S
C705 C708 1.463 . S
C705 C710 1.350 . S
C705 N713 1.427 . S
C706 H697 0.930 . S
C706 C704 1.378 . S
C706 C707 1.367 . S
C707 C706 1.367 . S
C707 C709 1.433 . S
C708 C704 1.350 . S
C708 C705 1.463 . S
C708 N712 1.427 . S
C709 H699 0.929 . S
C709 C707 1.433 . S
C709 N712 1.384 . S
C710 H701 0.929 . S
C710 C702 1.378 . S
C710 C705 1.350 . S
C711 H698 0.929 . S
C711 C703 1.433 . S
C711 N713 1.384 . S
N712 C708 1.427 . S
N712 C709 1.384 . S
N713 C705 1.427 . S
N713 C711 1.384 . S
H714 C720 0.930 . S
H715 C724 0.930 . S
H716 C729 0.929 . S
H717 C727 0.929 . S
H718 C722 0.929 . S
H719 C728 0.929 . S
C720 H714 0.930 . S
C720 C721 1.367 . S
C720 C728 1.378 . S
C721 C720 1.367 . S
C721 C729 1.433 . S
C722 H718 0.929 . S
C722 C724 1.378 . S
C722 C726 1.350 . S
C723 C726 1.463 . S
C723 C728 1.350 . S
C723 N731 1.427 . S
C724 H715 0.930 . S
C724 C722 1.378 . S
C724 C725 1.367 . S
C725 C724 1.367 . S
C725 C727 1.433 . S
C726 C722 1.350 . S
C726 C723 1.463 . S
C726 N730 1.427 . S
C727 H717 0.929 . S
C727 C725 1.433 . S
C727 N730 1.384 . S
C728 H719 0.929 . S
C728 C720 1.378 . S
C728 C723 1.350 . S
C729 H716 0.929 . S
C729 C721 1.433 . S
C729 N731 1.384 . S
N730 C726 1.427 . S
N730 C727 1.384 . S
N731 C723 1.427 . S
N731 C729 1.384 . S
H732 C738 0.930 . S
H733 C742 0.930 . S
H734 C747 0.929 . S
H735 C745 0.929 . S
H736 C740 0.929 . S
H737 C746 0.929 . S
C738 H732 0.930 . S
C738 C739 1.367 . S
C738 C746 1.378 . S
C739 C738 1.367 . S
C739 C747 1.433 . S
C740 H736 0.929 . S
C740 C742 1.378 . S
C740 C744 1.350 . S
C741 C744 1.463 . S
C741 C746 1.350 . S
C741 N749 1.427 . S
C742 H733 0.930 . S
C742 C740 1.378 . S
C742 C743 1.367 . S
C743 C742 1.367 . S
C743 C745 1.433 . S
C744 C740 1.350 . S
C744 C741 1.463 . S
C744 N748 1.427 . S
C745 H735 0.929 . S
C745 C743 1.433 . S
C745 N748 1.384 . S
C746 H737 0.929 . S
C746 C738 1.378 . S
C746 C741 1.350 . S
C747 H734 0.929 . S
C747 C739 1.433 . S
C747 N749 1.384 . S
N748 C744 1.427 . S
N748 C745 1.384 . S
N749 C741 1.427 . S
N749 C747 1.384 . S
H750 C756 0.930 . S
H751 C760 0.930 . S
H752 C765 0.929 . S
H753 C763 0.929 . S
H754 C758 0.929 . S
H755 C764 0.929 . S
C756 H750 0.930 . S
C756 C757 1.367 1_545 S
C756 C764 1.378 . S
C757 C756 1.367 1_565 S
C757 C765 1.433 . S
C758 H754 0.929 . S
C758 C760 1.378 . S
C758 C762 1.350 . S
C759 C762 1.463 . S
C759 C764 1.350 1_565 S
C759 N767 1.427 . S
C760 H751 0.930 . S
C760 C758 1.378 . S
C760 C761 1.367 . S
C761 C760 1.367 . S
C761 C763 1.433 1_565 S
C762 C758 1.350 . S
C762 C759 1.463 . S
C762 N766 1.427 1_565 S
C763 H753 0.929 . S
C763 C761 1.433 1_545 S
C763 N766 1.384 . S
C764 H755 0.929 . S
C764 C756 1.378 . S
C764 C759 1.350 1_545 S
C765 H752 0.929 . S
C765 C757 1.433 . S
C765 N767 1.384 . S
N766 C762 1.427 1_545 S
N766 C763 1.384 . S
N767 C759 1.427 . S
N767 C765 1.384 . S
H768 C774 0.930 . S
H769 C778 0.930 . S
H770 C783 0.929 . S
H771 C781 0.929 . S
H772 C776 0.929 . S
H773 C782 0.929 . S
C774 H768 0.930 . S
C774 C775 1.367 . S
C774 C782 1.378 . S
C775 C774 1.367 . S
C775 C783 1.433 . S
C776 H772 0.929 . S
C776 C778 1.378 . S
C776 C780 1.350 . S
C777 C780 1.463 . S
C777 C782 1.350 . S
C777 N785 1.427 . S
C778 H769 0.930 . S
C778 C776 1.378 . S
C778 C779 1.367 . S
C779 C778 1.367 . S
C779 C781 1.433 . S
C780 C776 1.350 . S
C780 C777 1.463 . S
C780 N784 1.427 . S
C781 H771 0.929 . S
C781 C779 1.433 . S
C781 N784 1.384 . S
C782 H773 0.929 . S
C782 C774 1.378 . S
C782 C777 1.350 . S
C783 H770 0.929 . S
C783 C775 1.433 . S
C783 N785 1.384 . S
N784 C780 1.427 . S
N784 C781 1.384 . S
N785 C777 1.427 . S
N785 C783 1.384 . S
H786 C792 0.930 . S
H787 C796 0.930 . S
H788 C801 0.929 . S
H789 C799 0.929 . S
H790 C794 0.929 . S
H791 C800 0.929 . S
C792 H786 0.930 . S
C792 C793 1.367 . S
C792 C800 1.378 . S
C793 C792 1.367 . S
C793 C801 1.433 . S
C794 H790 0.929 . S
C794 C796 1.378 . S
C794 C798 1.350 . S
C795 C798 1.463 . S
C795 C800 1.350 . S
C795 N803 1.427 . S
C796 H787 0.930 . S
C796 C794 1.378 . S
C796 C797 1.367 . S
C797 C796 1.367 . S
C797 C799 1.433 . S
C798 C794 1.350 . S
C798 C795 1.463 . S
C798 N802 1.427 . S
C799 H789 0.929 . S
C799 C797 1.433 . S
C799 N802 1.384 . S
C800 H791 0.929 . S
C800 C792 1.378 . S
C800 C795 1.350 . S
C801 H788 0.929 . S
C801 C793 1.433 . S
C801 N803 1.384 . S
N802 C798 1.427 . S
N802 C799 1.384 . S
N803 C795 1.427 . S
N803 C801 1.384 . S
H804 C810 0.930 . S
H805 C814 0.930 . S
H806 C819 0.929 . S
H807 C817 0.929 . S
H808 C812 0.929 . S
H809 C818 0.929 . S
C810 H804 0.930 . S
C810 C811 1.367 . S
C810 C818 1.378 . S
C811 C810 1.367 . S
C811 C819 1.433 . S
C812 H808 0.929 . S
C812 C814 1.378 . S
C812 C816 1.350 . S
C813 C816 1.463 . S
C813 C818 1.350 . S
C813 N821 1.427 . S
C814 H805 0.930 . S
C814 C812 1.378 . S
C814 C815 1.367 . S
C815 C814 1.367 . S
C815 C817 1.433 . S
C816 C812 1.350 . S
C816 C813 1.463 . S
C816 N820 1.427 . S
C817 H807 0.929 . S
C817 C815 1.433 . S
C817 N820 1.384 . S
C818 H809 0.929 . S
C818 C810 1.378 . S
C818 C813 1.350 . S
C819 H806 0.929 . S
C819 C811 1.433 . S
C819 N821 1.384 . S
N820 C816 1.427 . S
N820 C817 1.384 . S
N821 C813 1.427 . S
N821 C819 1.384 . S
H822 C828 0.930 . S
H823 C832 0.930 . S
H824 C837 0.929 . S
H825 C835 0.929 . S
H826 C830 0.929 . S
H827 C836 0.929 . S
C828 H822 0.930 . S
C828 C829 1.367 . S
C828 C836 1.378 . S
C829 C828 1.367 . S
C829 C837 1.433 . S
C830 H826 0.929 . S
C830 C832 1.378 . S
C830 C834 1.350 . S
C831 C834 1.463 . S
C831 C836 1.350 . S
C831 N839 1.427 . S
C832 H823 0.930 . S
C832 C830 1.378 . S
C832 C833 1.367 . S
C833 C832 1.367 . S
C833 C835 1.433 . S
C834 C830 1.350 . S
C834 C831 1.463 . S
C834 N838 1.427 . S
C835 H825 0.929 . S
C835 C833 1.433 . S
C835 N838 1.384 . S
C836 H827 0.929 . S
C836 C828 1.378 . S
C836 C831 1.350 . S
C837 H824 0.929 . S
C837 C829 1.433 . S
C837 N839 1.384 . S
N838 C834 1.427 . S
N838 C835 1.384 . S
N839 C831 1.427 . S
N839 C837 1.384 . S
H840 C846 0.930 . S
H841 C850 0.930 . S
H842 C855 0.929 . S
H843 C853 0.929 . S
H844 C848 0.929 . S
H845 C854 0.929 . S
C846 H840 0.930 . S
C846 C847 1.367 . S
C846 C854 1.378 . S
C847 C846 1.367 . S
C847 C855 1.433 . S
C848 H844 0.929 . S
C848 C850 1.378 . S
C848 C852 1.350 . S
C849 C852 1.463 . S
C849 C854 1.350 . S
C849 N857 1.427 . S
C850 H841 0.930 . S
C850 C848 1.378 . S
C850 C851 1.367 . S
C851 C850 1.367 . S
C851 C853 1.433 . S
C852 C848 1.350 . S
C852 C849 1.463 . S
C852 N856 1.427 . S
C853 H843 0.929 . S
C853 C851 1.433 . S
C853 N856 1.384 . S
C854 H845 0.929 . S
C854 C846 1.378 . S
C854 C849 1.350 . S
C855 H842 0.929 . S
C855 C847 1.433 . S
C855 N857 1.384 . S
N856 C852 1.427 . S
N856 C853 1.384 . S
N857 C849 1.427 . S
N857 C855 1.384 . S
H858 C864 0.930 . S
H859 C868 0.930 . S
H860 C873 0.929 . S
H861 C871 0.929 . S
H862 C866 0.929 . S
H863 C872 0.929 . S
C864 H858 0.930 . S
C864 C865 1.367 . S
C864 C872 1.378 . S
C865 C864 1.367 . S
C865 C873 1.433 . S
C866 H862 0.929 . S
C866 C868 1.378 . S
C866 C870 1.350 . S
C867 C870 1.463 . S
C867 C872 1.350 . S
C867 N875 1.427 . S
C868 H859 0.930 . S
C868 C866 1.378 . S
C868 C869 1.367 . S
C869 C868 1.367 . S
C869 C871 1.433 . S
C870 C866 1.350 . S
C870 C867 1.463 . S
C870 N874 1.427 . S
C871 H861 0.929 . S
C871 C869 1.433 . S
C871 N874 1.384 . S
C872 H863 0.929 . S
C872 C864 1.378 . S
C872 C867 1.350 . S
C873 H860 0.929 . S
C873 C865 1.433 . S
C873 N875 1.384 . S
N874 C870 1.427 . S
N874 C871 1.384 . S
N875 C867 1.427 . S
N875 C873 1.384 . S
H876 C882 0.930 . S
H877 C886 0.930 . S
H878 C891 0.929 . S
H879 C889 0.929 . S
H880 C884 0.929 . S
H881 C890 0.929 . S
C882 H876 0.930 . S
C882 C883 1.367 . S
C882 C890 1.378 . S
C883 C882 1.367 . S
C883 C891 1.433 . S
C884 H880 0.929 . S
C884 C886 1.378 . S
C884 C888 1.350 . S
C885 C888 1.463 . S
C885 C890 1.350 . S
C885 N893 1.427 . S
C886 H877 0.930 . S
C886 C884 1.378 . S
C886 C887 1.367 . S
C887 C886 1.367 . S
C887 C889 1.433 . S
C888 C884 1.350 . S
C888 C885 1.463 . S
C888 N892 1.427 . S
C889 H879 0.929 . S
C889 C887 1.433 . S
C889 N892 1.384 . S
C890 H881 0.929 . S
C890 C882 1.378 . S
C890 C885 1.350 . S
C891 H878 0.929 . S
C891 C883 1.433 . S
C891 N893 1.384 . S
N892 C888 1.427 . S
N892 C889 1.384 . S
N893 C885 1.427 . S
N893 C891 1.384 . S
H894 C900 0.930 . S
H895 C904 0.930 . S
H896 C909 0.929 . S
H897 C907 0.929 . S
H898 C902 0.929 . S
H899 C908 0.929 . S
C900 H894 0.930 . S
C900 C901 1.367 . S
C900 C908 1.378 . S
C901 C900 1.367 . S
C901 C909 1.433 1_655 S
C902 H898 0.929 . S
C902 C904 1.378 . S
C902 C906 1.350 . S
C903 C906 1.463 . S
C903 C908 1.341 1_455 S
C903 N911 1.437 . S
C904 H895 0.930 . S
C904 C902 1.378 . S
C904 C905 1.367 . S
C905 C904 1.367 . S
C905 C907 1.433 1_455 S
C906 C902 1.350 . S
C906 C903 1.463 . S
C906 N910 1.427 1_455 S
C907 H897 0.929 . S
C907 C905 1.433 1_655 S
C907 N910 1.384 . S
C908 H899 0.929 . S
C908 C900 1.378 . S
C908 C903 1.341 1_655 S
C909 H896 0.929 . S
C909 C901 1.433 1_455 S
C909 N911 1.384 . S
N910 C906 1.427 1_655 S
N910 C907 1.384 . S
N911 C903 1.437 . S
N911 C909 1.384 . S
H912 C918 0.930 . S
H913 C922 0.930 . S
H914 C927 0.929 . S
H915 C925 0.929 . S
H916 C920 0.929 . S
H917 C926 0.929 . S
C918 H912 0.930 . S
C918 C919 1.367 . S
C918 C926 1.378 . S
C919 C918 1.367 . S
C919 C927 1.433 . S
C920 H916 0.929 . S
C920 C922 1.378 . S
C920 C924 1.350 . S
C921 C924 1.463 . S
C921 C926 1.350 . S
C921 N929 1.427 . S
C922 H913 0.930 . S
C922 C920 1.378 . S
C922 C923 1.367 . S
C923 C922 1.367 . S
C923 C925 1.433 . S
C924 C920 1.350 . S
C924 C921 1.463 . S
C924 N928 1.427 . S
C925 H915 0.929 . S
C925 C923 1.433 . S
C925 N928 1.384 . S
C926 H917 0.929 . S
C926 C918 1.378 . S
C926 C921 1.350 . S
C927 H914 0.929 . S
C927 C919 1.433 . S
C927 N929 1.384 . S
N928 C924 1.427 . S
N928 C925 1.384 . S
N929 C921 1.427 . S
N929 C927 1.384 . S
H930 C936 0.930 . S
H931 C940 0.930 . S
H932 C945 0.929 . S
H933 C943 0.929 . S
H934 C938 0.929 . S
H935 C944 0.929 . S
C936 H930 0.930 . S
C936 C937 1.367 . S
C936 C944 1.378 . S
C937 C936 1.367 . S
C937 C945 1.433 . S
C938 H934 0.929 . S
C938 C940 1.378 . S
C938 C942 1.350 . S
C939 C942 1.463 . S
C939 C944 1.350 . S
C939 N947 1.427 . S
C940 H931 0.930 . S
C940 C938 1.378 . S
C940 C941 1.367 . S
C941 C940 1.367 . S
C941 C943 1.433 . S
C942 C938 1.350 . S
C942 C939 1.463 . S
C942 N946 1.427 . S
C943 H933 0.929 . S
C943 C941 1.433 . S
C943 N946 1.384 . S
C944 H935 0.929 . S
C944 C936 1.378 . S
C944 C939 1.350 . S
C945 H932 0.929 . S
C945 C937 1.433 . S
C945 N947 1.384 . S
N946 C942 1.427 . S
N946 C943 1.384 . S
N947 C939 1.427 . S
N947 C945 1.384 . S
H948 C954 0.930 . S
H949 C958 0.930 . S
H950 C963 0.926 1_545 S
H951 C961 0.929 . S
H952 C956 0.929 . S
H953 C962 0.929 . S
C954 H948 0.930 . S
C954 C955 1.381 1_554 S
C954 C962 1.378 . S
C955 C954 1.381 1_556 S
C955 C963 1.436 . S
C956 H952 0.929 . S
C956 C958 1.378 . S
C956 C960 1.350 1_556 S
C957 C960 1.463 1_556 S
C957 C962 1.350 1_556 S
C957 N965 1.427 . S
C958 H949 0.930 . S
C958 C956 1.378 . S
C958 C959 1.367 1_556 S
C959 C958 1.367 1_554 S
C959 C961 1.433 . S
C960 C956 1.350 1_554 S
C960 C957 1.463 1_554 S
C960 N964 1.427 . S
C961 H951 0.929 . S
C961 C959 1.433 . S
C961 N964 1.384 . S
C962 H953 0.929 . S
C962 C954 1.378 . S
C962 C957 1.350 1_554 S
C963 H950 0.926 1_565 S
C963 C955 1.436 . S
C963 N965 1.384 . S
N964 C960 1.427 . S
N964 C961 1.384 . S
N965 C957 1.427 . S
N965 C963 1.384 . S
H966 C972 0.930 . S
H967 C976 0.930 . S
H968 C981 0.929 . S
H969 C979 0.929 . S
H970 C974 0.929 . S
H971 C980 0.929 . S
C972 H966 0.930 . S
C972 C973 1.367 . S
C972 C980 1.378 . S
C973 C972 1.367 . S
C973 C981 1.433 . S
C974 H970 0.929 . S
C974 C976 1.378 . S
C974 C978 1.350 . S
C975 C978 1.463 . S
C975 C980 1.350 . S
C975 N983 1.427 . S
C976 H967 0.930 . S
C976 C974 1.378 . S
C976 C977 1.367 . S
C977 C976 1.367 . S
C977 C979 1.433 . S
C978 C974 1.350 . S
C978 C975 1.463 . S
C978 N982 1.427 . S
C979 H969 0.929 . S
C979 C977 1.433 . S
C979 N982 1.384 . S
C980 H971 0.929 . S
C980 C972 1.378 . S
C980 C975 1.350 . S
C981 H968 0.929 . S
C981 C973 1.433 . S
C981 N983 1.384 . S
N982 C978 1.427 . S
N982 C979 1.384 . S
N983 C975 1.427 . S
N983 C981 1.384 . S
H984 C990 0.930 . S
H985 C994 0.930 . S
H986 C999 0.929 . S
H987 C997 0.929 . S
H988 C992 0.929 . S
H989 C998 0.929 . S
C990 H984 0.930 . S
C990 C991 1.367 . S
C990 C998 1.378 . S
C991 C990 1.367 . S
C991 C999 1.433 . S
C992 H988 0.929 . S
C992 C994 1.378 . S
C992 C996 1.350 . S
C993 C996 1.463 . S
C993 C998 1.350 . S
C993 N1001 1.427 . S
C994 H985 0.930 . S
C994 C992 1.378 . S
C994 C995 1.367 . S
C995 C994 1.367 . S
C995 C997 1.433 . S
C996 C992 1.350 . S
C996 C993 1.463 . S
C996 N1000 1.427 . S
C997 H987 0.929 . S
C997 C995 1.433 . S
C997 N1000 1.384 . S
C998 H989 0.929 . S
C998 C990 1.378 . S
C998 C993 1.350 . S
C999 H986 0.929 . S
C999 C991 1.433 . S
C999 N1001 1.384 . S
N1000 C996 1.427 . S
N1000 C997 1.384 . S
N1001 C993 1.427 . S
N1001 C999 1.384 . S
H1002 C1008 0.930 . S
H1003 C1012 0.930 . S
H1004 C1017 0.929 . S
H1005 C1015 0.929 . S
H1006 C1010 0.929 . S
H1007 C1016 0.929 . S
C1008 H1002 0.930 . S
C1008 C1009 1.367 . S
C1008 C1016 1.378 . S
C1009 C1008 1.367 . S
C1009 C1017 1.433 . S
C1010 H1006 0.929 . S
C1010 C1012 1.378 . S
C1010 C1014 1.350 . S
C1011 C1014 1.463 . S
C1011 C1016 1.350 . S
C1011 N1019 1.427 . S
C1012 H1003 0.930 . S
C1012 C1010 1.378 . S
C1012 C1013 1.367 . S
C1013 C1012 1.367 . S
C1013 C1015 1.433 . S
C1014 C1010 1.350 . S
C1014 C1011 1.463 . S
C1014 N1018 1.427 . S
C1015 H1005 0.929 . S
C1015 C1013 1.433 . S
C1015 N1018 1.384 . S
C1016 H1007 0.929 . S
C1016 C1008 1.378 . S
C1016 C1011 1.350 . S
C1017 H1004 0.929 . S
C1017 C1009 1.433 . S
C1017 N1019 1.384 . S
N1018 C1014 1.427 . S
N1018 C1015 1.384 . S
N1019 C1011 1.427 . S
N1019 C1017 1.384 . S
H1020 C1026 0.930 . S
H1021 C1030 0.930 . S
H1022 C1035 0.929 . S
H1023 C1033 0.929 . S
H1024 C1028 0.929 . S
H1025 C1034 0.929 . S
C1026 H1020 0.930 . S
C1026 C1027 1.367 . S
C1026 C1034 1.378 . S
C1027 C1026 1.367 . S
C1027 C1035 1.433 . S
C1028 H1024 0.929 . S
C1028 C1030 1.378 . S
C1028 C1032 1.350 . S
C1029 C1032 1.463 . S
C1029 C1034 1.350 . S
C1029 N1037 1.427 . S
C1030 H1021 0.930 . S
C1030 C1028 1.378 . S
C1030 C1031 1.367 . S
C1031 C1030 1.367 . S
C1031 C1033 1.433 . S
C1032 C1028 1.350 . S
C1032 C1029 1.463 . S
C1032 N1036 1.427 . S
C1033 H1023 0.929 . S
C1033 C1031 1.433 . S
C1033 N1036 1.384 . S
C1034 H1025 0.929 . S
C1034 C1026 1.378 . S
C1034 C1029 1.350 . S
C1035 H1022 0.929 . S
C1035 C1027 1.433 . S
C1035 N1037 1.384 . S
N1036 C1032 1.427 . S
N1036 C1033 1.384 . S
N1037 C1029 1.427 . S
N1037 C1035 1.384 . S
H1038 C1044 0.930 . S
H1039 C1048 0.930 . S
H1040 C1053 0.929 . S
H1041 C1051 0.929 . S
H1042 C1046 0.929 . S
H1043 C1052 0.929 . S
C1044 H1038 0.930 . S
C1044 C1045 1.367 . S
C1044 C1052 1.378 . S
C1045 C1044 1.367 . S
C1045 C1053 1.433 . S
C1046 H1042 0.929 . S
C1046 C1048 1.378 . S
C1046 C1050 1.350 . S
C1047 C1050 1.463 . S
C1047 C1052 1.350 . S
C1047 N1055 1.427 . S
C1048 H1039 0.930 . S
C1048 C1046 1.378 . S
C1048 C1049 1.367 . S
C1049 C1048 1.367 . S
C1049 C1051 1.433 . S
C1050 C1046 1.350 . S
C1050 C1047 1.463 . S
C1050 N1054 1.427 . S
C1051 H1041 0.929 . S
C1051 C1049 1.433 . S
C1051 N1054 1.384 . S
C1052 H1043 0.929 . S
C1052 C1044 1.378 . S
C1052 C1047 1.350 . S
C1053 H1040 0.929 . S
C1053 C1045 1.433 . S
C1053 N1055 1.384 . S
N1054 C1050 1.427 . S
N1054 C1051 1.384 . S
N1055 C1047 1.427 . S
N1055 C1053 1.384 . S
H1056 C1062 0.930 . S
H1057 C1066 0.930 . S
H1058 C1071 0.929 . S
H1059 C1069 0.929 . S
H1060 C1064 0.929 . S
H1061 C1070 0.929 . S
C1062 H1056 0.930 . S
C1062 C1063 1.367 . S
C1062 C1070 1.378 . S
C1063 C1062 1.367 . S
C1063 C1071 1.433 . S
C1064 H1060 0.929 . S
C1064 C1066 1.378 . S
C1064 C1068 1.350 . S
C1065 C1068 1.463 . S
C1065 C1070 1.350 . S
C1065 N1073 1.427 . S
C1066 H1057 0.930 . S
C1066 C1064 1.378 . S
C1066 C1067 1.367 . S
C1067 C1066 1.367 . S
C1067 C1069 1.433 . S
C1068 C1064 1.350 . S
C1068 C1065 1.463 . S
C1068 N1072 1.427 . S
C1069 H1059 0.929 . S
C1069 C1067 1.433 . S
C1069 N1072 1.384 . S
C1070 H1061 0.929 . S
C1070 C1062 1.378 . S
C1070 C1065 1.350 . S
C1071 H1058 0.929 . S
C1071 C1063 1.433 . S
C1071 N1073 1.384 . S
N1072 C1068 1.427 . S
N1072 C1069 1.384 . S
N1073 C1065 1.427 . S
N1073 C1071 1.384 . S
H1074 C1080 0.930 . S
H1075 C1084 0.930 . S
H1076 C1089 0.929 1_565 S
H1077 C1087 0.929 . S
H1078 C1082 0.942 . S
H1079 C1088 0.929 . S
C1080 H1074 0.930 . S
C1080 C1081 1.367 . S
C1080 C1088 1.378 . S
C1081 C1080 1.367 . S
C1081 C1089 1.433 . S
C1082 H1078 0.942 . S
C1082 C1084 1.381 . S
C1082 C1086 1.335 1_565 S
C1083 C1086 1.463 . S
C1083 C1088 1.350 . S
C1083 N1091 1.427 . S
C1084 H1075 0.930 . S
C1084 C1082 1.381 . S
C1084 C1085 1.367 1_565 S
C1085 C1084 1.367 1_545 S
C1085 C1087 1.433 . S
C1086 C1082 1.335 1_545 S
C1086 C1083 1.463 . S
C1086 N1090 1.427 . S
C1087 H1077 0.929 . S
C1087 C1085 1.433 . S
C1087 N1090 1.384 . S
C1088 H1079 0.929 . S
C1088 C1080 1.378 . S
C1088 C1083 1.350 . S
C1089 H1076 0.929 1_545 S
C1089 C1081 1.433 . S
C1089 N1091 1.384 . S
N1090 C1086 1.427 . S
N1090 C1087 1.384 . S
N1091 C1083 1.427 . S
N1091 C1089 1.384 . S
H1092 C1098 0.930 . S
H1093 C1102 0.930 . S
H1094 C1107 0.929 . S
H1095 C1105 0.929 . S
H1096 C1100 0.929 . S
H1097 C1106 0.929 . S
C1098 H1092 0.930 . S
C1098 C1099 1.367 . S
C1098 C1106 1.378 . S
C1099 C1098 1.367 . S
C1099 C1107 1.433 . S
C1100 H1096 0.929 . S
C1100 C1102 1.378 . S
C1100 C1104 1.350 . S
C1101 C1104 1.463 . S
C1101 C1106 1.350 . S
C1101 N1109 1.427 . S
C1102 H1093 0.930 . S
C1102 C1100 1.378 . S
C1102 C1103 1.367 . S
C1103 C1102 1.367 . S
C1103 C1105 1.433 . S
C1104 C1100 1.350 . S
C1104 C1101 1.463 . S
C1104 N1108 1.427 . S
C1105 H1095 0.929 . S
C1105 C1103 1.433 . S
C1105 N1108 1.384 . S
C1106 H1097 0.929 . S
C1106 C1098 1.378 . S
C1106 C1101 1.350 . S
C1107 H1094 0.929 . S
C1107 C1099 1.433 . S
C1107 N1109 1.384 . S
N1108 C1104 1.427 . S
N1108 C1105 1.384 . S
N1109 C1101 1.427 . S
N1109 C1107 1.384 . S
H1110 C1116 0.930 . S
H1111 C1120 0.930 . S
H1112 C1125 0.929 . S
H1113 C1123 0.929 . S
H1114 C1118 0.929 . S
H1115 C1124 0.929 . S
C1116 H1110 0.930 . S
C1116 C1117 1.367 . S
C1116 C1124 1.378 . S
C1117 C1116 1.367 . S
C1117 C1125 1.433 . S
C1118 H1114 0.929 . S
C1118 C1120 1.378 . S
C1118 C1122 1.350 . S
C1119 C1122 1.463 . S
C1119 C1124 1.350 . S
C1119 N1127 1.427 . S
C1120 H1111 0.930 . S
C1120 C1118 1.378 . S
C1120 C1121 1.367 . S
C1121 C1120 1.367 . S
C1121 C1123 1.433 . S
C1122 C1118 1.350 . S
C1122 C1119 1.463 . S
C1122 N1126 1.427 . S
C1123 H1113 0.929 . S
C1123 C1121 1.433 . S
C1123 N1126 1.384 . S
C1124 H1115 0.929 . S
C1124 C1116 1.378 . S
C1124 C1119 1.350 . S
C1125 H1112 0.929 . S
C1125 C1117 1.433 . S
C1125 N1127 1.384 . S
N1126 C1122 1.427 . S
N1126 C1123 1.384 . S
N1127 C1119 1.427 . S
N1127 C1125 1.384 . S
H1128 C1134 0.930 . S
H1129 C1138 0.930 . S
H1130 C1143 0.929 . S
H1131 C1141 0.929 . S
H1132 C1136 0.929 . S
H1133 C1142 0.929 . S
C1134 H1128 0.930 . S
C1134 C1135 1.367 . S
C1134 C1142 1.378 . S
C1135 C1134 1.367 . S
C1135 C1143 1.433 . S
C1136 H1132 0.929 . S
C1136 C1138 1.378 . S
C1136 C1140 1.350 . S
C1137 C1140 1.463 . S
C1137 C1142 1.350 . S
C1137 N1145 1.427 . S
C1138 H1129 0.930 . S
C1138 C1136 1.378 . S
C1138 C1139 1.367 . S
C1139 C1138 1.367 . S
C1139 C1141 1.433 . S
C1140 C1136 1.350 . S
C1140 C1137 1.463 . S
C1140 N1144 1.427 . S
C1141 H1131 0.929 . S
C1141 C1139 1.433 . S
C1141 N1144 1.384 . S
C1142 H1133 0.929 . S
C1142 C1134 1.378 . S
C1142 C1137 1.350 . S
C1143 H1130 0.929 . S
C1143 C1135 1.433 . S
C1143 N1145 1.384 . S
N1144 C1140 1.427 . S
N1144 C1141 1.384 . S
N1145 C1137 1.427 . S
N1145 C1143 1.384 . S
H1146 C1152 0.930 . S
H1147 C1156 0.930 1_565 S
H1148 C1161 0.929 1_565 S
H1149 C1159 0.929 . S
H1150 C1154 0.929 1_565 S
H1151 C1160 0.929 . S
C1152 H1146 0.930 . S
C1152 C1153 1.367 . S
C1152 C1160 1.378 . S
C1153 C1152 1.367 . S
C1153 C1161 1.433 . S
C1154 H1150 0.929 1_545 S
C1154 C1156 1.378 . S
C1154 C1158 1.350 . S
C1155 C1158 1.463 1_455 S
C1155 C1160 1.350 . S
C1155 N1163 1.427 . S
C1156 H1147 0.930 1_545 S
C1156 C1154 1.378 . S
C1156 C1157 1.367 . S
C1157 C1156 1.367 . S
C1157 C1159 1.433 . S
C1158 C1154 1.350 . S
C1158 C1155 1.463 1_655 S
C1158 N1162 1.427 . S
C1159 H1149 0.929 . S
C1159 C1157 1.433 . S
C1159 N1162 1.384 . S
C1160 H1151 0.929 . S
C1160 C1152 1.378 . S
C1160 C1155 1.350 . S
C1161 H1148 0.929 1_545 S
C1161 C1153 1.433 . S
C1161 N1163 1.384 . S
N1162 C1158 1.427 . S
N1162 C1159 1.384 . S
N1163 C1155 1.427 . S
N1163 C1161 1.384 . S
H1164 C1170 0.930 . S
H1165 C1174 0.930 . S
H1166 C1179 0.929 . S
H1167 C1177 0.929 . S
H1168 C1172 0.929 . S
H1169 C1178 0.929 . S
C1170 H1164 0.930 . S
C1170 C1171 1.367 . S
C1170 C1178 1.378 . S
C1171 C1170 1.367 . S
C1171 C1179 1.433 . S
C1172 H1168 0.929 . S
C1172 C1174 1.378 . S
C1172 C1176 1.350 . S
C1173 C1176 1.463 . S
C1173 C1178 1.350 . S
C1173 N1181 1.427 . S
C1174 H1165 0.930 . S
C1174 C1172 1.378 . S
C1174 C1175 1.367 . S
C1175 C1174 1.367 . S
C1175 C1177 1.433 . S
C1176 C1172 1.350 . S
C1176 C1173 1.463 . S
C1176 N1180 1.427 . S
C1177 H1167 0.929 . S
C1177 C1175 1.433 . S
C1177 N1180 1.384 . S
C1178 H1169 0.929 . S
C1178 C1170 1.378 . S
C1178 C1173 1.350 . S
C1179 H1166 0.929 . S
C1179 C1171 1.433 . S
C1179 N1181 1.384 . S
N1180 C1176 1.427 . S
N1180 C1177 1.384 . S
N1181 C1173 1.427 . S
N1181 C1179 1.384 . S
H1182 C1188 0.930 . S
H1183 C1192 0.930 . S
H1184 C1197 0.929 . S
H1185 C1195 0.929 . S
H1186 C1190 0.929 . S
H1187 C1196 0.929 . S
C1188 H1182 0.930 . S
C1188 C1189 1.367 . S
C1188 C1196 1.378 . S
C1189 C1188 1.367 . S
C1189 C1197 1.433 . S
C1190 H1186 0.929 . S
C1190 C1192 1.378 . S
C1190 C1194 1.350 . S
C1191 C1194 1.463 . S
C1191 C1196 1.350 . S
C1191 N1199 1.427 . S
C1192 H1183 0.930 . S
C1192 C1190 1.378 . S
C1192 C1193 1.367 . S
C1193 C1192 1.367 . S
C1193 C1195 1.433 . S
C1194 C1190 1.350 . S
C1194 C1191 1.463 . S
C1194 N1198 1.427 . S
C1195 H1185 0.929 . S
C1195 C1193 1.433 . S
C1195 N1198 1.384 . S
C1196 H1187 0.929 . S
C1196 C1188 1.378 . S
C1196 C1191 1.350 . S
C1197 H1184 0.929 . S
C1197 C1189 1.433 . S
C1197 N1199 1.384 . S
N1198 C1194 1.427 . S
N1198 C1195 1.384 . S
N1199 C1191 1.427 . S
N1199 C1197 1.384 . S
H1200 C1206 0.930 . S
H1201 C1210 0.930 . S
H1202 C1215 0.929 . S
H1203 C1213 0.929 . S
H1204 C1208 0.929 . S
H1205 C1214 0.929 . S
C1206 H1200 0.930 . S
C1206 C1207 1.367 . S
C1206 C1214 1.378 . S
C1207 C1206 1.367 . S
C1207 C1215 1.433 . S
C1208 H1204 0.929 . S
C1208 C1210 1.378 . S
C1208 C1212 1.350 . S
C1209 C1212 1.463 . S
C1209 C1214 1.350 . S
C1209 N1217 1.427 . S
C1210 H1201 0.930 . S
C1210 C1208 1.378 . S
C1210 C1211 1.367 . S
C1211 C1210 1.367 . S
C1211 C1213 1.433 . S
C1212 C1208 1.350 . S
C1212 C1209 1.463 . S
C1212 N1216 1.427 . S
C1213 H1203 0.929 . S
C1213 C1211 1.433 . S
C1213 N1216 1.384 . S
C1214 H1205 0.929 . S
C1214 C1206 1.378 . S
C1214 C1209 1.350 . S
C1215 H1202 0.929 . S
C1215 C1207 1.433 . S
C1215 N1217 1.384 . S
N1216 C1212 1.427 . S
N1216 C1213 1.384 . S
N1217 C1209 1.427 . S
N1217 C1215 1.384 . S
H1218 C1224 0.930 1_554 S
H1219 C1228 0.930 . S
H1220 C1233 0.929 . S
H1221 C1231 0.929 . S
H1222 C1226 0.929 . S
H1223 C1232 0.929 . S
C1224 H1218 0.930 1_556 S
C1224 C1225 1.367 . S
C1224 C1232 1.378 . S
C1225 C1224 1.367 . S
C1225 C1233 1.434 1_655 S
C1226 H1222 0.929 . S
C1226 C1228 1.378 . S
C1226 C1230 1.350 1_455 S
C1227 C1230 1.463 . S
C1227 C1232 1.350 . S
C1227 N1235 1.427 1_655 S
C1228 H1219 0.930 . S
C1228 C1226 1.378 . S
C1228 C1229 1.367 . S
C1229 C1228 1.367 . S
C1229 C1231 1.433 1_455 S
C1230 C1226 1.350 1_655 S
C1230 C1227 1.463 . S
C1230 N1234 1.427 . S
C1231 H1221 0.929 . S
C1231 C1229 1.433 1_655 S
C1231 N1234 1.384 . S
C1232 H1223 0.929 . S
C1232 C1224 1.378 . S
C1232 C1227 1.350 . S
C1233 H1220 0.929 . S
C1233 C1225 1.434 1_455 S
C1233 N1235 1.383 . S
N1234 C1230 1.427 . S
N1234 C1231 1.384 . S
N1235 C1227 1.427 1_455 S
N1235 C1233 1.383 . S
H1236 C1242 0.930 . S
H1237 C1246 0.930 . S
H1238 C1251 0.929 . S
H1239 C1249 0.929 . S
H1240 C1244 0.929 . S
H1241 C1250 0.929 . S
C1242 H1236 0.930 . S
C1242 C1243 1.367 . S
C1242 C1250 1.378 . S
C1243 C1242 1.367 . S
C1243 C1251 1.433 . S
C1244 H1240 0.929 . S
C1244 C1246 1.378 . S
C1244 C1248 1.350 . S
C1245 C1248 1.463 . S
C1245 C1250 1.350 . S
C1245 N1253 1.427 . S
C1246 H1237 0.930 . S
C1246 C1244 1.378 . S
C1246 C1247 1.367 . S
C1247 C1246 1.367 . S
C1247 C1249 1.433 . S
C1248 C1244 1.350 . S
C1248 C1245 1.463 . S
C1248 N1252 1.427 . S
C1249 H1239 0.929 . S
C1249 C1247 1.433 . S
C1249 N1252 1.384 . S
C1250 H1241 0.929 . S
C1250 C1242 1.378 . S
C1250 C1245 1.350 . S
C1251 H1238 0.929 . S
C1251 C1243 1.433 . S
C1251 N1253 1.384 . S
N1252 C1248 1.427 . S
N1252 C1249 1.384 . S
N1253 C1245 1.427 . S
N1253 C1251 1.384 . S
H1254 C1260 0.930 . S
H1255 C1264 0.930 . S
H1256 C1269 0.921 1_554 S
H1257 C1267 0.929 1_655 S
H1258 C1262 0.929 . S
H1259 C1268 0.929 . S
C1260 H1254 0.930 . S
C1260 C1261 1.367 . S
C1260 C1268 1.378 . S
C1261 C1260 1.367 . S
C1261 C1269 1.433 . S
C1262 H1258 0.929 . S
C1262 C1264 1.378 . S
C1262 C1266 1.350 . S
C1263 C1266 1.463 . S
C1263 C1268 1.350 . S
C1263 N1271 1.427 . S
C1264 H1255 0.930 . S
C1264 C1262 1.378 . S
C1264 C1265 1.367 . S
C1265 C1264 1.367 . S
C1265 C1267 1.433 . S
C1266 C1262 1.350 . S
C1266 C1263 1.463 . S
C1266 N1270 1.427 . S
C1267 H1257 0.929 1_455 S
C1267 C1265 1.433 . S
C1267 N1270 1.384 . S
C1268 H1259 0.929 . S
C1268 C1260 1.378 . S
C1268 C1263 1.350 . S
C1269 H1256 0.921 1_556 S
C1269 C1261 1.433 . S
C1269 N1271 1.384 . S
N1270 C1266 1.427 . S
N1270 C1267 1.384 . S
N1271 C1263 1.427 . S
N1271 C1269 1.384 . S
H1272 C1278 0.930 . S
H1273 C1282 0.930 . S
H1274 C1287 0.929 . S
H1275 C1285 0.929 . S
H1276 C1280 0.929 . S
H1277 C1286 0.929 . S
C1278 H1272 0.930 . S
C1278 C1279 1.367 . S
C1278 C1286 1.378 . S
C1279 C1278 1.367 . S
C1279 C1287 1.433 . S
C1280 H1276 0.929 . S
C1280 C1282 1.378 . S
C1280 C1284 1.350 . S
C1281 C1284 1.463 . S
C1281 C1286 1.350 . S
C1281 N1289 1.427 . S
C1282 H1273 0.930 . S
C1282 C1280 1.378 . S
C1282 C1283 1.367 . S
C1283 C1282 1.367 . S
C1283 C1285 1.433 . S
C1284 C1280 1.350 . S
C1284 C1281 1.463 . S
C1284 N1288 1.427 . S
C1285 H1275 0.929 . S
C1285 C1283 1.433 . S
C1285 N1288 1.384 . S
C1286 H1277 0.929 . S
C1286 C1278 1.378 . S
C1286 C1281 1.350 . S
C1287 H1274 0.929 . S
C1287 C1279 1.433 . S
C1287 N1289 1.384 . S
N1288 C1284 1.427 . S
N1288 C1285 1.384 . S
N1289 C1281 1.427 . S
N1289 C1287 1.384 . S
H1290 C1296 0.930 . S
H1291 C1300 0.930 . S
H1292 C1305 0.929 . S
H1293 C1303 0.929 . S
H1294 C1298 0.929 . S
H1295 C1304 0.929 . S
C1296 H1290 0.930 . S
C1296 C1297 1.367 . S
C1296 C1304 1.378 . S
C1297 C1296 1.367 . S
C1297 C1305 1.433 . S
C1298 H1294 0.929 . S
C1298 C1300 1.378 . S
C1298 C1302 1.350 . S
C1299 C1302 1.463 . S
C1299 C1304 1.350 . S
C1299 N1307 1.427 . S
C1300 H1291 0.930 . S
C1300 C1298 1.378 . S
C1300 C1301 1.367 . S
C1301 C1300 1.367 . S
C1301 C1303 1.433 . S
C1302 C1298 1.350 . S
C1302 C1299 1.463 . S
C1302 N1306 1.427 . S
C1303 H1293 0.929 . S
C1303 C1301 1.433 . S
C1303 N1306 1.384 . S
C1304 H1295 0.929 . S
C1304 C1296 1.378 . S
C1304 C1299 1.350 . S
C1305 H1292 0.929 . S
C1305 C1297 1.433 . S
C1305 N1307 1.384 . S
N1306 C1302 1.427 . S
N1306 C1303 1.384 . S
N1307 C1299 1.427 . S
N1307 C1305 1.384 . S
H1308 C1314 0.930 . S
H1309 C1318 0.930 . S
H1310 C1323 0.929 . S
H1311 C1321 0.929 . S
H1312 C1316 0.929 . S
H1313 C1322 0.929 . S
C1314 H1308 0.930 . S
C1314 C1315 1.367 . S
C1314 C1322 1.378 . S
C1315 C1314 1.367 . S
C1315 C1323 1.433 . S
C1316 H1312 0.929 . S
C1316 C1318 1.378 . S
C1316 C1320 1.350 . S
C1317 C1320 1.463 . S
C1317 C1322 1.350 . S
C1317 N1325 1.427 . S
C1318 H1309 0.930 . S
C1318 C1316 1.378 . S
C1318 C1319 1.367 . S
C1319 C1318 1.367 . S
C1319 C1321 1.433 . S
C1320 C1316 1.350 . S
C1320 C1317 1.463 . S
C1320 N1324 1.427 . S
C1321 H1311 0.929 . S
C1321 C1319 1.433 . S
C1321 N1324 1.384 . S
C1322 H1313 0.929 . S
C1322 C1314 1.378 . S
C1322 C1317 1.350 . S
C1323 H1310 0.929 . S
C1323 C1315 1.433 . S
C1323 N1325 1.384 . S
N1324 C1320 1.427 . S
N1324 C1321 1.384 . S
N1325 C1317 1.427 . S
N1325 C1323 1.384 . S
H1326 C1332 0.930 1_556 S
H1327 C1336 0.930 . S
H1328 C1341 0.929 . S
H1329 C1339 0.929 . S
H1330 C1334 0.929 . S
H1331 C1340 0.929 . S
C1332 H1326 0.930 1_554 S
C1332 C1333 1.367 . S
C1332 C1340 1.378 . S
C1333 C1332 1.367 . S
C1333 C1341 1.433 . S
C1334 H1330 0.929 . S
C1334 C1336 1.378 . S
C1334 C1338 1.350 . S
C1335 C1338 1.463 . S
C1335 C1340 1.350 . S
C1335 N1343 1.427 . S
C1336 H1327 0.930 . S
C1336 C1334 1.378 . S
C1336 C1337 1.367 . S
C1337 C1336 1.367 . S
C1337 C1339 1.433 . S
C1338 C1334 1.350 . S
C1338 C1335 1.463 . S
C1338 N1342 1.427 . S
C1339 H1329 0.929 . S
C1339 C1337 1.433 . S
C1339 N1342 1.384 . S
C1340 H1331 0.929 . S
C1340 C1332 1.378 . S
C1340 C1335 1.350 . S
C1341 H1328 0.929 . S
C1341 C1333 1.433 . S
C1341 N1343 1.384 . S
N1342 C1338 1.427 . S
N1342 C1339 1.384 . S
N1343 C1335 1.427 . S
N1343 C1341 1.384 . S
H1344 C1350 0.930 . S
H1345 C1354 0.930 . S
H1346 C1359 0.929 . S
H1347 C1357 0.929 . S
H1348 C1352 0.929 . S
H1349 C1358 0.929 . S
C1350 H1344 0.930 . S
C1350 C1351 1.367 . S
C1350 C1358 1.378 . S
C1351 C1350 1.367 . S
C1351 C1359 1.433 . S
C1352 H1348 0.929 . S
C1352 C1354 1.378 . S
C1352 C1356 1.350 . S
C1353 C1356 1.463 . S
C1353 C1358 1.350 . S
C1353 N1361 1.427 . S
C1354 H1345 0.930 . S
C1354 C1352 1.378 . S
C1354 C1355 1.367 . S
C1355 C1354 1.367 . S
C1355 C1357 1.433 . S
C1356 C1352 1.350 . S
C1356 C1353 1.463 . S
C1356 N1360 1.427 . S
C1357 H1347 0.929 . S
C1357 C1355 1.433 . S
C1357 N1360 1.384 . S
C1358 H1349 0.929 . S
C1358 C1350 1.378 . S
C1358 C1353 1.350 . S
C1359 H1346 0.929 . S
C1359 C1351 1.433 . S
C1359 N1361 1.384 . S
N1360 C1356 1.427 . S
N1360 C1357 1.384 . S
N1361 C1353 1.427 . S
N1361 C1359 1.384 . S
H1362 C1368 0.930 . S
H1363 C1372 0.930 . S
H1364 C1377 0.929 . S
H1365 C1375 0.929 . S
H1366 C1370 0.929 . S
H1367 C1376 0.929 . S
C1368 H1362 0.930 . S
C1368 C1369 1.367 . S
C1368 C1376 1.378 . S
C1369 C1368 1.367 . S
C1369 C1377 1.433 . S
C1370 H1366 0.929 . S
C1370 C1372 1.378 . S
C1370 C1374 1.350 . S
C1371 C1374 1.463 . S
C1371 C1376 1.350 . S
C1371 N1379 1.427 . S
C1372 H1363 0.930 . S
C1372 C1370 1.378 . S
C1372 C1373 1.367 . S
C1373 C1372 1.367 . S
C1373 C1375 1.433 . S
C1374 C1370 1.350 . S
C1374 C1371 1.463 . S
C1374 N1378 1.427 . S
C1375 H1365 0.929 . S
C1375 C1373 1.433 . S
C1375 N1378 1.384 . S
C1376 H1367 0.929 . S
C1376 C1368 1.378 . S
C1376 C1371 1.350 . S
C1377 H1364 0.929 . S
C1377 C1369 1.433 . S
C1377 N1379 1.384 . S
N1378 C1374 1.427 . S
N1378 C1375 1.384 . S
N1379 C1371 1.427 . S
N1379 C1377 1.384 . S
H1380 C1386 0.930 . S
H1381 C1390 0.930 . S
H1382 C1395 0.929 . S
H1383 C1393 0.929 . S
H1384 C1388 0.929 . S
H1385 C1394 0.929 . S
C1386 H1380 0.930 . S
C1386 C1387 1.367 . S
C1386 C1394 1.378 . S
C1387 C1386 1.367 . S
C1387 C1395 1.433 . S
C1388 H1384 0.929 . S
C1388 C1390 1.378 . S
C1388 C1392 1.350 . S
C1389 C1392 1.463 . S
C1389 C1394 1.350 . S
C1389 N1397 1.427 . S
C1390 H1381 0.930 . S
C1390 C1388 1.378 . S
C1390 C1391 1.367 . S
C1391 C1390 1.367 . S
C1391 C1393 1.433 . S
C1392 C1388 1.350 . S
C1392 C1389 1.463 . S
C1392 N1396 1.427 . S
C1393 H1383 0.929 . S
C1393 C1391 1.433 . S
C1393 N1396 1.384 . S
C1394 H1385 0.929 . S
C1394 C1386 1.378 . S
C1394 C1389 1.350 . S
C1395 H1382 0.929 . S
C1395 C1387 1.433 . S
C1395 N1397 1.384 . S
N1396 C1392 1.427 . S
N1396 C1393 1.384 . S
N1397 C1389 1.427 . S
N1397 C1395 1.384 . S
H1398 C1404 0.930 . S
H1399 C1408 0.930 . S
H1400 C1413 0.929 . S
H1401 C1411 0.929 . S
H1402 C1406 0.929 . S
H1403 C1412 0.929 . S
C1404 H1398 0.930 . S
C1404 C1405 1.367 . S
C1404 C1412 1.378 . S
C1405 C1404 1.367 . S
C1405 C1413 1.433 . S
C1406 H1402 0.929 . S
C1406 C1408 1.378 . S
C1406 C1410 1.350 . S
C1407 C1410 1.463 . S
C1407 C1412 1.350 . S
C1407 N1415 1.427 . S
C1408 H1399 0.930 . S
C1408 C1406 1.378 . S
C1408 C1409 1.367 . S
C1409 C1408 1.367 . S
C1409 C1411 1.433 . S
C1410 C1406 1.350 . S
C1410 C1407 1.463 . S
C1410 N1414 1.427 . S
C1411 H1401 0.929 . S
C1411 C1409 1.433 . S
C1411 N1414 1.384 . S
C1412 H1403 0.929 . S
C1412 C1404 1.378 . S
C1412 C1407 1.350 . S
C1413 H1400 0.929 . S
C1413 C1405 1.433 . S
C1413 N1415 1.384 . S
N1414 C1410 1.427 . S
N1414 C1411 1.384 . S
N1415 C1407 1.427 . S
N1415 C1413 1.384 . S
H1416 C1422 0.930 . S
H1417 C1426 0.930 . S
H1418 C1431 0.929 . S
H1419 C1429 0.932 . S
H1420 C1424 0.929 . S
H1421 C1430 0.929 . S
C1422 H1416 0.930 . S
C1422 C1423 1.367 . S
C1422 C1430 1.378 . S
C1423 C1422 1.367 . S
C1423 C1431 1.433 . S
C1424 H1420 0.929 . S
C1424 C1426 1.378 . S
C1424 C1428 1.350 . S
C1425 C1428 1.463 . S
C1425 C1430 1.350 . S
C1425 N1433 1.427 . S
C1426 H1417 0.930 . S
C1426 C1424 1.378 . S
C1426 C1427 1.367 . S
C1427 C1426 1.367 . S
C1427 C1429 1.433 . S
C1428 C1424 1.350 . S
C1428 C1425 1.463 . S
C1428 N1432 1.427 . S
C1429 H1419 0.932 . S
C1429 C1427 1.433 . S
C1429 N1432 1.384 . S
C1430 H1421 0.929 . S
C1430 C1422 1.378 . S
C1430 C1425 1.350 . S
C1431 H1418 0.929 . S
C1431 C1423 1.433 . S
C1431 N1433 1.384 . S
N1432 C1428 1.427 . S
N1432 C1429 1.384 . S
N1433 C1425 1.427 . S
N1433 C1431 1.384 . S
H1434 C1440 0.930 . S
H1435 C1444 0.930 . S
H1436 C1449 0.929 . S
H1437 C1447 0.929 . S
H1438 C1442 0.929 . S
H1439 C1448 0.929 . S
C1440 H1434 0.930 . S
C1440 C1441 1.367 . S
C1440 C1448 1.378 . S
C1441 C1440 1.367 . S
C1441 C1449 1.433 . S
C1442 H1438 0.929 . S
C1442 C1444 1.378 . S
C1442 C1446 1.350 . S
C1443 C1446 1.463 . S
C1443 C1448 1.350 . S
C1443 N1451 1.427 . S
C1444 H1435 0.930 . S
C1444 C1442 1.378 . S
C1444 C1445 1.367 . S
C1445 C1444 1.367 . S
C1445 C1447 1.433 . S
C1446 C1442 1.350 . S
C1446 C1443 1.463 . S
C1446 N1450 1.427 . S
C1447 H1437 0.929 . S
C1447 C1445 1.433 . S
C1447 N1450 1.384 . S
C1448 H1439 0.929 . S
C1448 C1440 1.378 . S
C1448 C1443 1.350 . S
C1449 H1436 0.929 . S
C1449 C1441 1.433 . S
C1449 N1451 1.384 . S
N1450 C1446 1.427 . S
N1450 C1447 1.384 . S
N1451 C1443 1.427 . S
N1451 C1449 1.384 . S
H1452 C1458 0.930 . S
H1453 C1462 0.930 . S
H1454 C1467 0.929 . S
H1455 C1465 0.929 1_556 S
H1456 C1460 0.929 . S
H1457 C1466 0.929 . S
C1458 H1452 0.930 . S
C1458 C1459 1.367 . S
C1458 C1466 1.378 . S
C1459 C1458 1.367 . S
C1459 C1467 1.433 . S
C1460 H1456 0.929 . S
C1460 C1462 1.378 . S
C1460 C1464 1.350 . S
C1461 C1464 1.463 . S
C1461 C1466 1.350 . S
C1461 N1469 1.427 . S
C1462 H1453 0.930 . S
C1462 C1460 1.378 . S
C1462 C1463 1.367 . S
C1463 C1462 1.367 . S
C1463 C1465 1.433 . S
C1464 C1460 1.350 . S
C1464 C1461 1.463 . S
C1464 N1468 1.427 . S
C1465 H1455 0.929 1_554 S
C1465 C1463 1.433 . S
C1465 N1468 1.384 . S
C1466 H1457 0.929 . S
C1466 C1458 1.378 . S
C1466 C1461 1.350 . S
C1467 H1454 0.929 . S
C1467 C1459 1.433 . S
C1467 N1469 1.384 . S
N1468 C1464 1.427 . S
N1468 C1465 1.384 . S
N1469 C1461 1.427 . S
N1469 C1467 1.384 . S
H1470 C1476 0.930 . S
H1471 C1480 0.930 . S
H1472 C1485 0.929 . S
H1473 C1483 0.929 . S
H1474 C1478 0.929 . S
H1475 C1484 0.929 1_545 S
C1476 H1470 0.930 . S
C1476 C1477 1.367 1_545 S
C1476 C1484 1.378 1_545 S
C1477 C1476 1.367 1_565 S
C1477 C1485 1.433 . S
C1478 H1474 0.929 . S
C1478 C1480 1.378 . S
C1478 C1482 1.350 . S
C1479 C1482 1.463 . S
C1479 C1484 1.350 . S
C1479 N1487 1.427 . S
C1480 H1471 0.930 . S
C1480 C1478 1.378 . S
C1480 C1481 1.367 . S
C1481 C1480 1.367 . S
C1481 C1483 1.433 . S
C1482 C1478 1.350 . S
C1482 C1479 1.463 . S
C1482 N1486 1.427 . S
C1483 H1473 0.929 . S
C1483 C1481 1.433 . S
C1483 N1486 1.384 . S
C1484 H1475 0.929 1_565 S
C1484 C1476 1.378 1_565 S
C1484 C1479 1.350 . S
C1485 H1472 0.929 . S
C1485 C1477 1.433 . S
C1485 N1487 1.384 . S
N1486 C1482 1.427 . S
N1486 C1483 1.384 . S
N1487 C1479 1.427 . S
N1487 C1485 1.384 . S
C635 C194 1.684 . S
C631 C66 1.682 . S
C653 C242 1.262 . S
C649 C76 1.283 . S
C667 C93 1.735 . S
C671 C278 1.664 . S
C689 C314 1.548 . S
C685 C54 1.597 . S
C707 C340 1.447 . S
C703 C126 1.455 . S
C725 C376 1.859 . S
C721 C150 1.880 . S
C739 C136 1.198 . S
C743 C411 1.222 . S
C761 C448 1.816 . S
C757 C117 1.828 . S
C775 C141 1.242 . S
C779 C482 1.240 . S
C797 C530 1.352 . S
C793 C112 1.389 . S
C811 C124 1.477 . S
C815 C483 1.501 . S
C833 C520 1.420 . S
C829 C148 1.417 . S
C847 C88 1.275 . S
C851 C566 1.203 . S
C865 C52 1.681 . S
C869 C555 1.681 . S
C883 C64 1.248 . S
C887 C556 1.258 . S
C901 C78 1.326 . S
C905 C554 1.320 . S
C919 C45 1.623 . S
C923 C302 1.615 . S
C937 C177 1.789 . S
C941 C303 1.793 . S
C959 C206 1.485 . S
C955 C189 1.544 1_565 S
C977 C231 1.559 . S
C973 C102 1.548 . S
C991 C57 1.812 . S
C995 C338 1.811 . S
C1013 C446 1.426 . S
C1009 C138 1.446 . S
C1031 C339 1.791 . S
C1027 C114 1.794 . S
C1049 C412 1.815 . S
C1045 C153 1.819 . S
C1067 C410 1.689 . S
C1063 C174 1.687 . S
C1081 C184 1.288 . S
C1085 C458 1.259 . S
C1099 C105 1.734 . S
C1103 C350 1.672 . S
C1121 C386 1.541 . S
C1117 C162 1.595 . S
C1135 C42 1.454 . S
C1139 C268 1.451 . S
C1157 C304 1.857 . S
C1153 C6 1.879 . S
C1175 C195 1.223 . S
C1171 C16 1.204 . S
C1193 C232 1.811 . S
C1189 C33 1.829 1_455 S
C1207 C21 1.241 . S
C1211 C518 1.238 . S
C1225 C28 1.381 1_556 S
C1229 C494 1.364 . S
C1243 C40 1.479 . S
C1247 C519 1.500 . S
C1261 C4 1.417 . S
C1265 C484 1.420 . S
C1283 C602 1.204 . S
C1279 C100 1.275 . S
C1301 C591 1.678 . S
C1297 C160 1.683 . S
C1319 C592 1.264 . S
C1315 C172 1.254 . S
C1333 C186 1.326 1_554 S
C1337 C590 1.319 . S
C1351 C129 1.624 . S
C1355 C374 1.617 . S
C1373 C375 1.790 . S
C1369 C69 1.787 . S
C1391 C422 1.492 . S
C1387 C81 1.561 . S
C1409 C447 1.559 . S
C1405 C90 1.550 . S
C1423 C165 1.810 . S
C1427 C266 1.809 1_556 S
C1445 C230 1.415 . S
C1441 C18 1.441 . S
C1459 C30 1.791 . S
C1463 C267 1.790 . S
C1481 C196 1.814 . S
C1477 C9 1.818 1_565 S
