# Generated by pormake.
# Topology pth, (4,4)-cn, num edge types: 1
# Building blocks:
#     Node 0, Type 0, BuildingBlock: NAHDIM_clean_sbu_0, # of connection points: 4
#     Node 1, Type 0, BuildingBlock: NAHDIM_clean_sbu_0, # of connection points: 4
#     Node 2, Type 0, BuildingBlock: NAHDIM_clean_sbu_0, # of connection points: 4
#     Node 3, Type 1, BuildingBlock: AZAVOO_clean_linker_0, # of connection points: 4
#     Node 4, Type 1, BuildingBlock: AZAVOO_clean_linker_0, # of connection points: 4
#     Node 5, Type 1, BuildingBlock: AZAVOO_clean_linker_0, # of connection points: 4
#     Edge 6, Type (0, 1), BuildingBlock: EZIPEK_clean_linker_0, # of connection points: 2
#     Edge 7, Type (0, 1), BuildingBlock: EZIPEK_clean_linker_0, # of connection points: 2
#     Edge 8, Type (0, 1), BuildingBlock: EZIPEK_clean_linker_0, # of connection points: 2
#     Edge 9, Type (0, 1), BuildingBlock: EZIPEK_clean_linker_0, # of connection points: 2
#     Edge 10, Type (0, 1), BuildingBlock: EZIPEK_clean_linker_0, # of connection points: 2
#     Edge 11, Type (0, 1), BuildingBlock: EZIPEK_clean_linker_0, # of connection points: 2
#     Edge 12, Type (0, 1), BuildingBlock: EZIPEK_clean_linker_0, # of connection points: 2
#     Edge 13, Type (0, 1), BuildingBlock: EZIPEK_clean_linker_0, # of connection points: 2
#     Edge 14, Type (0, 1), BuildingBlock: EZIPEK_clean_linker_0, # of connection points: 2
#     Edge 15, Type (0, 1), BuildingBlock: EZIPEK_clean_linker_0, # of connection points: 2
#     Edge 16, Type (0, 1), BuildingBlock: EZIPEK_clean_linker_0, # of connection points: 2
#     Edge 17, Type (0, 1), BuildingBlock: EZIPEK_clean_linker_0, # of connection points: 2
# Relax obj value: 0.171
# Max RMSD: 0.229
# Mean RMSD: 0.208
data_MOF--net-pth--node1-NAHDIM_clean_sbu_0--node2-AZAVOO_clean_linker_0--edge1-EZIPEK_clean_linker_0
_symmetry_space_group_name_H-M    P1
_symmetry_Int_Tables_number       1
_symmetry_cell_setting            triclinic
loop_
_symmetry_equiv_pos_as_xyz
'x, y, z'
_cell_length_a     20.324387
_cell_length_b     20.621542
_cell_length_c     54.122244
_cell_angle_alpha  94.317636
_cell_angle_beta   88.327137
_cell_angle_gamma 120.7028
loop_
_atom_site_label
_atom_site_type_symbol
_atom_site_fract_x
_atom_site_fract_y
_atom_site_fract_z
_atom_type_partial_charge
C0 C 0.14409 0.96088 0.10063 0.0
O1 O 0.07506 0.93599 0.09193 0.0
O2 O 0.12249 0.13266 0.11009 0.0
Zn3 Zn 0.16626 0.09506 0.08267 0.0
O4 O 0.09125 0.0412 0.05442 0.0
C5 C 0.2408 0.22672 0.0581 0.0
O6 O 0.17033 0.2134 0.05855 0.0
O7 O 0.19698 0.02777 0.09711 0.0
C8 C 0.11088 0.01206 0.03632 0.0
O9 O 0.17568 0.01276 0.03735 0.0
C10 C 0.06254 0.09153 0.12223 0.0
O11 O 0.02035 0.01885 0.11614 0.0
O12 O 0.25681 0.18373 0.0688 0.0
C13 C 0.03186 0.12635 0.37167 0.0
O14 O 0.98356 0.05312 0.36964 0.0
O15 O 0.09775 -0.00177 0.38911 0.0
Zn16 Zn 0.10963 0.09129 0.40831 0.0
O17 O 0.04166 0.06426 0.43822 0.0
C18 C 0.25223 0.12139 0.42675 0.0
O19 O 0.21998 0.04814 0.42173 0.0
O20 O 0.08805 0.15401 0.38673 0.0
C21 C 0.04498 0.02734 0.45548 0.0
O22 O 0.08961 -0.00147 0.45337 0.0
C23 C 0.03741 0.93347 0.38894 0.0
O24 O 0.97653 0.92514 0.40072 0.0
O25 O 0.21755 0.15489 0.42113 0.0
C26 C 0.23684 0.04933 0.72105 0.0
O27 O 0.21294 0.00777 0.74021 0.0
O28 O 0.06202 0.11001 0.71444 0.0
Zn29 Zn 0.13489 0.10572 0.73762 0.0
O30 O 0.19605 0.206 0.75706 0.0
C31 C 0.04725 0.02967 0.77976 0.0
O32 O 0.06412 0.0984 0.78739 0.0
O33 O 0.20998 0.09108 0.71672 0.0
C34 C 0.25165 0.21588 0.77018 0.0
O35 O 0.26459 0.16004 0.77154 0.0
C36 C -0.00013 0.10572 0.72155 0.0
O37 O 0.98214 0.10063 0.74511 0.0
O38 O 0.07418 0.01879 0.75942 0.0
H39 H 0.04702 0.44199 0.078 0.0
H40 H 0.17093 0.02334 0.25283 0.0
H41 H 0.91211 0.34367 0.22132 0.0
H42 H 0.90117 0.23213 0.19761 0.0
H43 H 0.14298 0.32225 0.20796 0.0
H44 H 0.15355 0.43306 0.232 0.0
H45 H 0.95247 0.46799 0.1796 0.0
H46 H 0.96972 0.44938 0.13521 0.0
H47 H 0.20313 0.50938 0.14947 0.0
H48 H 0.1852 0.5286 0.19379 0.0
H49 H 0.97153 0.61595 0.19648 0.0
H50 H 0.00385 0.70767 0.16507 0.0
H51 H 0.24241 0.7776 0.17195 0.0
H52 H 0.20991 0.68532 0.20328 0.0
H53 H 0.94817 0.64796 0.25077 0.0
H54 H 0.96117 0.77294 0.25274 0.0
H55 H 0.20751 0.87677 0.25263 0.0
H56 H 0.19354 0.75139 0.25128 0.0
H57 H 0.91846 0.55365 0.28645 0.0
H58 H 0.91518 0.63501 0.32134 0.0
H59 H 0.1541 0.72141 0.3363 0.0
H60 H 0.15803 0.64196 0.30074 0.0
H61 H 0.90809 0.37453 0.27561 0.0
H62 H 0.89807 0.28238 0.30423 0.0
H63 H 0.1425 0.4121 0.31598 0.0
H64 H 0.15237 0.50419 0.28758 0.0
O65 O 0.04108 0.44852 0.09566 0.0
O66 O 0.16058 0.47947 0.10397 0.0
O67 O 0.03727 0.91728 0.25342 0.0
O68 O 0.16415 0.97332 0.25269 0.0
C69 C 0.04443 0.47171 0.23506 0.0
C70 C 0.06007 0.52076 0.21608 0.0
C71 C 0.06967 0.59254 0.22185 0.0
C72 C 0.06174 0.61524 0.24636 0.0
C73 C 0.04665 0.56659 0.26553 0.0
C74 C 0.03924 0.49508 0.25991 0.0
C75 C 0.03363 0.39614 0.22826 0.0
C76 C 0.9619 0.33751 0.21948 0.0
C77 C 0.95569 0.27417 0.20597 0.0
C78 C 0.02147 0.26977 0.20092 0.0
C79 C 0.09175 0.3249 0.21177 0.0
C80 C 0.09777 0.38784 0.22547 0.0
C81 C 0.06721 0.49843 0.18987 0.0
C82 C 0.00682 0.47581 0.17311 0.0
C83 C 0.0171 0.46596 0.14775 0.0
C84 C 0.08799 0.47839 0.13877 0.0
C85 C 0.1479 0.49954 0.15576 0.0
C86 C 0.13759 0.5097 0.1811 0.0
C87 C 0.08856 0.64466 0.20205 0.0
C88 C 0.03056 0.65056 0.19099 0.0
C89 C 0.04887 0.70231 0.17314 0.0
C90 C 0.12528 0.74857 0.16631 0.0
C91 C 0.18319 0.74168 0.17701 0.0
C92 C 0.16478 0.68958 0.19479 0.0
C93 C 0.06989 0.69079 0.25143 0.0
C94 C 0.00483 0.69785 0.25185 0.0
C95 C 0.01246 0.76927 0.25263 0.0
C96 C 0.08543 0.83488 0.25269 0.0
C97 C 0.15052 0.82747 0.25255 0.0
C98 C 0.14275 0.75602 0.25204 0.0
C99 C 0.0385 0.5922 0.29109 0.0
C100 C 0.96921 0.58754 0.29793 0.0
C101 C 0.96737 0.63399 0.31775 0.0
C102 C 0.03453 0.68438 0.33117 0.0
C103 C 0.10173 0.68245 0.32618 0.0
C104 C 0.10391 0.63707 0.30599 0.0
C105 C 0.03085 0.44618 0.2798 0.0
C106 C 0.9591 0.38387 0.28484 0.0
C107 C 0.95345 0.33144 0.30101 0.0
C108 C 0.01963 0.34077 0.31207 0.0
C109 C 0.09097 0.40437 0.30761 0.0
C110 C 0.09652 0.45685 0.29157 0.0
C111 C 0.09906 0.46894 0.11179 0.0
C112 C 0.09383 0.91079 0.25296 0.0
H113 H 0.81318 0.10381 0.41334 0.0
H114 H 0.26081 0.21772 0.58941 0.0
H115 H 0.70594 0.99198 0.56593 0.0
H116 H 0.79244 0.95332 0.54652 0.0
H117 H 0.94113 0.18038 0.52487 0.0
H118 H 0.85724 0.22011 0.54555 0.0
H119 H 0.65977 0.02656 0.50893 0.0
H120 H 0.71078 0.03586 0.46694 0.0
H121 H 0.82105 0.2794 0.47636 0.0
H122 H 0.76856 0.26916 0.51814 0.0
H123 H 0.51804 0.04398 0.51207 0.0
H124 H 0.44457 0.06078 0.48058 0.0
H125 H 0.55859 0.29947 0.50232 0.0
H126 H 0.63143 0.28221 0.53424 0.0
H127 H 0.43678 0.02452 0.55919 0.0
H128 H 0.31874 0.02897 0.56279 0.0
H129 H 0.44969 0.26258 0.59135 0.0
H130 H 0.56732 0.25738 0.58741 0.0
H131 H 0.5053 0.98648 0.60365 0.0
H132 H 0.41753 0.96141 0.63854 0.0
H133 H 0.54034 0.19873 0.66235 0.0
H134 H 0.62944 0.22345 0.62771 0.0
H135 H 0.63594 -0.00061 0.6145 0.0
H136 H 0.70742 0.99281 0.64919 0.0
H137 H 0.89187 0.21897 0.63802 0.0
H138 H 0.81943 0.22661 0.60403 0.0
O139 O 0.79207 0.10129 0.42974 0.0
O140 O 0.8409 0.22567 0.43452 0.0
O141 O 0.24199 0.09424 0.57303 0.0
O142 O 0.3065 0.21422 0.588 0.0
C143 C 0.71265 0.12564 0.56179 0.0
C144 C 0.68015 0.14146 0.542 0.0
C145 C 0.61589 0.14926 0.54616 0.0
C146 C 0.58189 0.13848 0.56967 0.0
C147 C 0.61424 0.123 0.58947 0.0
C148 C 0.68114 0.11899 0.58575 0.0
C149 C 0.77447 0.10846 0.55658 0.0
C150 C 0.7589 0.03418 0.55798 0.0
C151 C 0.8079 0.01203 0.54686 0.0
C152 C 0.87161 0.06361 0.53371 0.0
C153 C 0.89147 0.13966 0.53465 0.0
C154 C 0.8436 0.16221 0.54633 0.0
C155 C 0.71121 0.14721 0.51658 0.0
C156 C 0.69507 0.0818 0.50187 0.0
C157 C 0.7244 0.08732 0.47794 0.0
C158 C 0.77075 0.15839 0.4684 0.0
C159 C 0.78588 0.2238 0.48317 0.0
C160 C 0.75606 0.21816 0.50702 0.0
C161 C 0.57941 0.16186 0.52534 0.0
C162 C 0.52798 0.10002 0.50975 0.0
C163 C 0.48637 0.10961 0.49188 0.0
C164 C 0.49615 0.18119 0.48938 0.0
C165 C 0.55056 0.24393 0.50413 0.0
C166 C 0.59173 0.23412 0.52222 0.0
C167 C 0.51026 0.14053 0.57314 0.0
C168 C 0.43965 0.07643 0.56632 0.0
C169 C 0.37244 0.07922 0.56834 0.0
C170 C 0.3748 0.14623 0.57732 0.0
C171 C 0.44583 0.21014 0.58436 0.0
C172 C 0.51304 0.20731 0.58222 0.0
C173 C 0.57406 0.10659 0.61341 0.0
C174 C 0.51509 0.03254 0.61697 0.0
C175 C 0.46499 0.01833 0.63673 0.0
C176 C 0.47253 0.07833 0.65284 0.0
C177 C 0.5341 0.15183 0.65011 0.0
C178 C 0.58486 0.16588 0.63049 0.0
C179 C 0.72207 0.11392 0.60702 0.0
C180 C 0.69098 0.04801 0.61987 0.0
C181 C 0.73185 0.04404 0.63945 0.0
C182 C 0.80468 0.10548 0.64605 0.0
C183 C 0.83566 0.1712 0.63317 0.0
C184 C 0.79451 0.17546 0.61384 0.0
C185 C 0.80337 0.16411 0.44321 0.0
C186 C 0.30363 0.14967 0.5793 0.0
H187 H 0.72062 0.82018 0.07522 0.0
H188 H 0.20097 0.18123 0.90103 0.0
H189 H 0.71977 0.8423 0.94724 0.0
H190 H 0.83725 0.92297 0.9714 0.0
H191 H 0.94629 0.81484 0.93148 0.0
H192 H 0.82532 0.72664 0.90991 0.0
H193 H 0.5872 0.73703 0.9753 0.0
H194 H 0.62831 0.77973 0.01852 0.0
H195 H 0.78721 0.69908 0.01015 0.0
H196 H 0.74658 0.658 0.96677 0.0
H197 H 0.4351 0.58119 0.95668 0.0
H198 H 0.35844 0.49392 0.98844 0.0
H199 H 0.53191 0.43462 0.99539 0.0
H200 H 0.6068 0.51931 0.96308 0.0
H201 H 0.40487 0.55841 0.90515 0.0
H202 H 0.2807 0.44064 0.90172 0.0
H203 H 0.39441 0.31299 0.90683 0.0
H204 H 0.51784 0.43127 0.91089 0.0
H205 H 0.51704 0.64796 0.85908 0.0
H206 H 0.43971 0.5647 0.82341 0.0
H207 H 0.52314 0.41422 0.83475 0.0
H208 H 0.60209 0.49849 0.86965 0.0
H209 H 0.6928 0.81674 0.88234 0.0
H210 H 0.78745 0.89276 0.85166 0.0
H211 H 0.83843 0.71512 0.83557 0.0
H212 H 0.74278 0.63844 0.86604 0.0
O213 O 0.70484 0.8025 0.05815 0.0
O214 O 0.78771 0.7627 0.05254 0.0
O215 O 0.19362 0.29683 0.89954 0.0
O216 O 0.24923 0.22861 0.90238 0.0
C217 C 0.68581 0.70947 0.92178 0.0
C218 C 0.63939 0.66957 0.9417 0.0
C219 C 0.56927 0.60232 0.9369 0.0
C220 C 0.54426 0.57465 0.91237 0.0
C221 C 0.5906 0.61329 0.89237 0.0
C222 C 0.66136 0.68101 0.89702 0.0
C223 C 0.76284 0.77656 0.92753 0.0
C224 C 0.76934 0.8368 0.94332 0.0
C225 C 0.83631 0.88284 0.95708 0.0
C226 C 0.89909 0.87232 0.95394 0.0
C227 C 0.89747 0.82208 0.93461 0.0
C228 C 0.82869 0.77245 0.92205 0.0
C229 C 0.66496 0.69572 0.96787 0.0
C230 C 0.63127 0.72917 0.98282 0.0
C231 C 0.6548 0.75338 0.00748 0.0
C232 C 0.71178 0.74364 0.01768 0.0
C233 C 0.74414 0.70853 0.00273 0.0
C234 C 0.72111 0.68504 0.978 0.0
C235 C 0.52603 0.55594 0.95761 0.0
C236 C 0.45658 0.54966 0.96521 0.0
C237 C 0.41336 0.50055 0.98332 0.0
C238 C 0.44001 0.4584 0.99415 0.0
C239 C 0.51097 0.46717 0.98725 0.0
C240 C 0.55343 0.51522 0.96891 0.0
C241 C 0.47013 0.50308 0.90793 0.0
C242 C 0.40274 0.50486 0.9053 0.0
C243 C 0.33196 0.43759 0.90353 0.0
C244 C 0.32766 0.36734 0.90391 0.0
C245 C 0.39566 0.366 0.90633 0.0
C246 C 0.46624 0.43337 0.90849 0.0
C247 C 0.56486 0.57896 0.86691 0.0
C248 C 0.52136 0.59895 0.85309 0.0
C249 C 0.47704 0.55137 0.83291 0.0
C250 C 0.47472 0.48272 0.82688 0.0
C251 C 0.52383 0.46666 0.83927 0.0
C252 C 0.56905 0.5148 0.85907 0.0
C253 C 0.7107 0.72201 0.87626 0.0
C254 C 0.72322 0.79359 0.87183 0.0
C255 C 0.77714 0.83685 0.85446 0.0
C256 C 0.81963 0.80931 0.84149 0.0
C257 C 0.8058 0.73691 0.84541 0.0
C258 C 0.75113 0.69322 0.8626 0.0
C259 C 0.73722 0.77001 0.04382 0.0
C260 C 0.2527 0.29569 0.90181 0.0
C261 C 0.0383 0.1104 0.16733 0.0
C262 C 0.03872 0.1274 0.14233 0.0
C263 C 0.02122 0.23323 0.15579 0.0
C264 C 0.02026 0.21631 0.18081 0.0
N265 N 0.01231 0.13135 0.21043 0.0
N266 N 0.00984 0.19019 0.11238 0.0
C267 C 0.02369 0.15225 0.18659 0.0
C268 C 0.02356 0.18423 0.13646 0.0
N269 N 0.05542 0.05693 0.17272 0.0
N270 N 0.02375 0.29821 0.15047 0.0
H271 H 0.01012 0.15428 0.09778 0.0
H272 H 0.99065 0.22535 0.10713 0.0
H273 H 0.02165 0.33578 0.16399 0.0
H274 H 0.0338 0.31786 0.13281 0.0
H275 H 0.06523 0.04824 0.19061 0.0
H276 H 0.06402 0.02357 0.15912 0.0
H277 H 0.00678 0.0812 0.21559 0.0
H278 H 0.00216 0.16155 0.22487 0.0
C279 C 0.0346 0.05558 0.50106 0.0
C280 C -0.00124 0.01849 0.47796 0.0
C281 C 0.87587 -0.00223 0.49331 0.0
C282 C 0.9119 0.03736 0.51614 0.0
N283 N 0.01871 0.08585 0.5443 0.0
N284 N 0.88314 0.93181 0.45534 0.0
C285 C 0.98922 0.06015 0.52087 0.0
C286 C 0.91851 0.98218 0.47519 0.0
N287 N 0.11217 0.08962 0.50367 0.0
N288 N 0.8025 0.97901 0.48822 0.0
H289 H 0.91336 0.91752 0.44236 0.0
H290 H 0.82394 0.89805 0.45334 0.0
H291 H 0.76823 0.98842 0.50088 0.0
H292 H 0.77717 0.95885 0.47073 0.0
H293 H 0.14289 0.12567 0.51887 0.0
H294 H 0.14666 0.08429 0.49004 0.0
H295 H 0.07262 0.09725 0.54961 0.0
H296 H 0.98617 0.08934 0.55907 0.0
C297 C 0.9203 0.91029 0.78407 0.0
C298 C 0.99317 0.96546 0.79424 0.0
C299 C 0.95414 0.91393 0.835 0.0
C300 C 0.88157 0.85868 0.8248 0.0
N301 N 0.79992 0.79369 0.78914 0.0
N302 N 0.08581 0.00989 0.82742 0.0
C303 C 0.86625 0.85331 0.79912 0.0
C304 C 0.01197 0.96424 0.81916 0.0
N305 N 0.90088 0.91497 0.76056 0.0
N306 N 0.96701 0.9194 0.85995 0.0
H307 H 0.12969 0.04647 0.81612 0.0
H308 H 0.10528 0.00691 0.84463 0.0
H309 H 0.92753 0.88111 0.87195 0.0
H310 H 0.01492 0.96407 0.86906 0.0
H311 H 0.84563 0.88271 0.75325 0.0
H312 H 0.9387 0.9547 0.74867 0.0
H313 H 0.78903 0.78164 0.77017 0.0
H314 H 0.75783 0.75244 0.79977 0.0
C315 C 0.14544 0.84297 0.10698 0.0
C316 C 0.15648 0.91363 0.11683 0.0
C317 C 0.15779 0.87956 0.15911 0.0
C318 C 0.14455 0.80818 0.14926 0.0
N319 N 0.14015 0.72568 0.11462 0.0
N320 N 0.18944 0.00643 0.15152 0.0
C321 C 0.14323 0.79118 0.12337 0.0
C322 C 0.16857 0.93452 0.14265 0.0
N323 N 0.13556 0.82519 0.08199 0.0
N324 N 0.15594 0.89316 0.1842 0.0
H325 H 0.19351 0.04756 0.14051 0.0
H326 H 0.20776 0.02746 0.16966 0.0
H327 H 0.15127 0.85548 0.19693 0.0
H328 H 0.1545 0.93957 0.19253 0.0
H329 H 0.11805 0.77163 0.07368 0.0
H330 H 0.14293 0.86422 0.06939 0.0
H331 H 0.14556 0.71234 0.09604 0.0
H332 H 0.13734 0.68626 0.12626 0.0
C333 C 0.38961 0.15981 0.43071 0.0
C334 C 0.32534 0.16172 0.44073 0.0
C335 C 0.38172 0.19306 0.48227 0.0
C336 C 0.44449 0.18785 0.47246 0.0
N337 N 0.51935 0.18706 0.43732 0.0
N338 N 0.27286 0.20593 0.47399 0.0
C339 C 0.45223 0.17842 0.44656 0.0
C340 C 0.32596 0.18767 0.46579 0.0
N341 N 0.38939 0.13803 0.40622 0.0
N342 N 0.37205 0.19725 0.50735 0.0
H343 H 0.22995 0.2015 0.46272 0.0
H344 H 0.27573 0.2323 0.49145 0.0
H345 H 0.41124 0.20112 0.52024 0.0
H346 H 0.32218 0.19101 0.51545 0.0
H347 H 0.42991 0.12649 0.39828 0.0
H348 H 0.34656 0.12918 0.39389 0.0
H349 H 0.53127 0.18681 0.41849 0.0
H350 H 0.56602 0.20104 0.44869 0.0
C351 C 0.28172 0.31958 0.8031 0.0
C352 C 0.30556 0.29112 0.78229 0.0
C353 C 0.43587 0.40079 0.78714 0.0
C354 C 0.41458 0.42262 0.81003 0.0
N355 N 0.3189 0.39888 0.84128 0.0
N356 N 0.40451 0.30332 0.75393 0.0
C357 C 0.33767 0.38166 0.81825 0.0
C358 C 0.38245 0.33161 0.77406 0.0
N359 N 0.20572 0.28697 0.80856 0.0
N360 N 0.50676 0.44715 0.7778 0.0
H361 H 0.36598 0.25592 0.7428 0.0
H362 H 0.46129 0.32467 0.74882 0.0
H363 H 0.54657 0.49844 0.78696 0.0
H364 H 0.52392 0.43844 0.76018 0.0
H365 H 0.18416 0.31044 0.82178 0.0
H366 H 0.16312 0.23988 0.79842 0.0
H367 H 0.26649 0.36512 0.84959 0.0
H368 H 0.35762 0.44397 0.85303 0.0
C369 C 0.92227 0.04844 0.68247 0.0
C370 C 0.94598 0.10263 0.70305 0.0
C371 C 0.86444 0.1477 0.68844 0.0
C372 C 0.84985 0.10122 0.66621 0.0
N373 N 0.87509 0.01609 0.64017 0.0
N374 N 0.94932 0.21241 0.72367 0.0
C375 C 0.88142 0.05379 0.66268 0.0
C376 C 0.91936 0.15441 0.70564 0.0
N377 N 0.93605 0.99006 0.68223 0.0
N378 N 0.82477 0.1843 0.69331 0.0
H379 H 0.99144 0.22094 0.73621 0.0
H380 H 0.93782 0.25631 0.72469 0.0
H381 H 0.78352 0.18007 0.6812 0.0
H382 H 0.82744 0.2128 0.71033 0.0
H383 H 0.91336 0.94495 0.66881 0.0
H384 H 0.96316 0.98229 0.69683 0.0
H385 H 0.9043 0.98744 0.63585 0.0
H386 H 0.84626 0.01899 0.62505 0.0
C387 C 0.01331 0.89674 0.0118 0.0
C388 C 0.06057 0.97639 0.0143 0.0
C389 C 0.00922 0.98757 0.97535 0.0
C390 C 0.96152 0.90766 0.97289 0.0
N391 N 0.92675 0.78478 0.98643 0.0
N392 N 0.11099 0.09841 -0.00193 0.0
C393 C 0.9665 0.86183 0.99032 0.0
C394 C 0.06073 0.02211 0.99592 0.0
N395 N 0.01021 0.85465 0.03066 0.0
N396 N 0.00415 0.03011 0.95811 0.0
H397 H 0.14647 0.12568 0.0135 0.0
H398 H 0.12043 0.1348 0.98434 0.0
H399 H 0.97168 0.00625 0.94185 0.0
H400 H 0.03021 0.08868 0.95993 0.0
H401 H 0.96927 0.79778 0.03181 0.0
H402 H 0.04549 0.8778 0.04631 0.0
H403 H 0.9366 0.74923 0.99638 0.0
H404 H 0.88661 0.75534 0.97232 0.0
C405 C 0.05249 0.87417 0.34891 0.0
C406 C 0.0352 0.86857 0.37447 0.0
C407 C 0.01349 0.73958 0.37171 0.0
C408 C 0.03767 0.74832 0.34674 0.0
N409 N 0.09373 0.82899 0.31284 0.0
N410 N 0.01121 0.80134 0.41143 0.0
C411 C 0.06146 0.81724 0.33577 0.0
C412 C 0.01857 0.80255 0.38625 0.0
N413 N 0.05626 0.93182 0.33678 0.0
N414 N 0.98519 0.67106 0.38141 0.0
H415 H 0.01582 0.84672 0.42275 0.0
H416 H 0.00699 0.75805 0.42135 0.0
H417 H 0.98375 0.62489 0.37153 0.0
H418 H 0.95868 0.65852 0.39856 0.0
H419 H 0.06024 0.93407 0.3176 0.0
H420 H 0.04738 0.97344 0.34554 0.0
H421 H 0.12169 0.88182 0.30554 0.0
H422 H 0.09865 0.78783 0.302 0.0
C423 C 0.36866 0.06939 0.71328 0.0
C424 C 0.29504 0.04847 0.70416 0.0
C425 C 0.33929 0.05069 0.66154 0.0
C426 C 0.41089 0.06569 0.67062 0.0
N427 N 0.48925 0.07496 0.70481 0.0
N428 N 0.20505 0.00123 0.66998 0.0
C429 C 0.42416 0.07046 0.69643 0.0
C430 C 0.27878 0.03362 0.67837 0.0
N431 N 0.38723 0.09248 0.73771 0.0
N432 N 0.32996 0.05603 0.63699 0.0
H433 H 0.15874 0.98583 0.68183 0.0
H434 H 0.18896 0.98242 0.65153 0.0
H435 H 0.37323 0.06971 0.62401 0.0
H436 H 0.28173 0.05392 0.62991 0.0
H437 H 0.44261 0.11642 0.74475 0.0
H438 H 0.34898 0.09397 0.75065 0.0
H439 H 0.4984 0.07069 0.7233 0.0
H440 H 0.53123 0.07627 0.69293 0.0
C441 C 0.32567 0.36373 0.05084 0.0
C442 C 0.29832 0.28679 0.04314 0.0
C443 C 0.35842 0.32272 0.00282 0.0
C444 C 0.39083 0.39989 0.01114 0.0
N445 N 0.4168 0.49521 0.04421 0.0
N446 N 0.30279 0.19414 0.01408 0.0
C447 C 0.37772 0.42094 0.03551 0.0
C448 C 0.31943 0.26663 0.01989 0.0
N449 N 0.30149 0.38199 0.07269 0.0
N450 N 0.36167 0.30276 0.97832 0.0
H451 H 0.27354 0.15085 0.0259 0.0
H452 H 0.32401 0.17842 -0.00153 0.0
H453 H 0.38822 0.3421 0.96499 0.0
H454 H 0.33151 0.24714 0.97074 0.0
H455 H 0.31206 0.43615 0.07791 0.0
H456 H 0.26705 0.3419 0.08509 0.0
H457 H 0.41569 0.51338 0.06261 0.0
H458 H 0.45545 0.5385 0.03345 0.0
C459 C 0.03421 0.17411 0.33018 0.0
C460 C 0.02219 0.17702 0.35611 0.0
C461 C 0.00654 0.28657 0.35318 0.0
C462 C 0.01555 0.28171 0.32715 0.0
N463 N 0.02471 0.21424 0.29008 0.0
N464 N 0.98297 0.22571 0.39179 0.0
C465 C 0.02501 0.22315 0.3154 0.0
C466 C 0.00432 0.23037 0.36749 0.0
N467 N 0.05837 0.12729 0.31988 0.0
N468 N 0.00206 0.34601 0.36425 0.0
H469 H 0.98017 0.18486 0.40275 0.0
H470 H 0.96191 0.25797 0.40057 0.0
H471 H 0.00069 0.38663 0.35425 0.0
H472 H 0.00448 0.35792 0.38335 0.0
H473 H 0.07659 0.12867 0.30165 0.0
H474 H 0.0661 0.09075 0.33008 0.0
H475 H 0.0228 0.16779 0.28035 0.0
H476 H 0.02035 0.2504 0.27863 0.0
loop_
_geom_bond_atom_site_label_1
_geom_bond_atom_site_label_2
_geom_bond_distance
_geom_bond_site_symmetry_2
_ccdc_geom_bond_type
C0 O1 1.160 . S
C0 O7 1.185 1_565 S
O1 C0 1.160 . S
O2 Zn3 1.899 . S
O2 C10 1.284 . S
Zn3 O2 1.899 . S
Zn3 O4 2.032 . S
Zn3 O7 2.086 . S
Zn3 O12 1.977 . S
O4 Zn3 2.032 . S
O4 C8 1.278 . S
C5 O6 1.203 . S
C5 O12 1.267 . S
O6 C5 1.203 . S
O7 C0 1.185 1_545 S
O7 Zn3 2.086 . S
C8 O4 1.278 . S
C8 O9 1.211 . S
O9 C8 1.211 . S
C10 O2 1.284 . S
C10 O11 1.273 . S
O11 C10 1.273 . S
O12 Zn3 1.977 . S
O12 C5 1.267 . S
C13 O14 1.160 . S
C13 O20 1.185 . S
O14 C13 1.160 . S
O15 Zn16 1.899 . S
O15 C23 1.284 1_545 S
Zn16 O15 1.899 . S
Zn16 O17 2.032 . S
Zn16 O20 2.086 . S
Zn16 O25 1.977 . S
O17 Zn16 2.032 . S
O17 C21 1.278 . S
C18 O19 1.203 . S
C18 O25 1.267 . S
O19 C18 1.203 . S
O20 C13 1.185 . S
O20 Zn16 2.086 . S
C21 O17 1.278 . S
C21 O22 1.211 . S
O22 C21 1.211 . S
C23 O15 1.284 1_565 S
C23 O24 1.273 . S
O24 C23 1.273 . S
O25 Zn16 1.977 . S
O25 C18 1.267 . S
C26 O27 1.160 . S
C26 O33 1.185 . S
O27 C26 1.160 . S
O28 Zn29 1.899 . S
O28 C36 1.284 . S
Zn29 O28 1.899 . S
Zn29 O30 2.032 . S
Zn29 O33 2.086 . S
Zn29 O38 1.977 . S
O30 Zn29 2.032 . S
O30 C34 1.278 . S
C31 O32 1.203 1_565 S
C31 O38 1.267 1_565 S
O32 C31 1.203 1_545 S
O33 C26 1.185 . S
O33 Zn29 2.086 . S
C34 O30 1.278 . S
C34 O35 1.211 . S
O35 C34 1.211 . S
C36 O28 1.284 . S
C36 O37 1.273 . S
O37 C36 1.273 . S
O38 Zn29 1.977 . S
O38 C31 1.267 1_545 S
H39 O65 0.856 . S
H40 O68 0.854 . S
H41 C76 0.930 1_655 S
H42 C77 0.941 . S
H43 C79 0.930 . S
H44 C80 0.930 . S
H45 C82 0.931 1_655 S
H46 C83 0.930 . S
H47 C85 0.930 . S
H48 C86 0.929 . S
H49 C88 0.930 1_655 S
H50 C89 0.931 . S
H51 C91 0.930 . S
H52 C92 0.929 . S
H53 C94 0.931 1_655 S
H54 C95 0.937 . S
H55 C97 0.930 . S
H56 C98 0.932 . S
H57 C100 0.930 1_655 S
H58 C101 0.929 1_655 S
H59 C103 0.931 . S
H60 C104 0.930 . S
H61 C106 0.929 1_655 S
H62 C107 0.931 1_655 S
H63 C109 0.930 . S
H64 C110 0.929 . S
O65 H39 0.856 . S
O65 C111 1.300 . S
O66 C111 1.209 . S
O67 C112 1.199 . S
O68 H40 0.854 . S
O68 C112 1.297 1_545 S
C69 C70 1.404 . S
C69 C74 1.397 . S
C69 C75 1.492 . S
C70 C69 1.404 . S
C70 C71 1.396 . S
C70 C81 1.492 . S
C71 C70 1.396 . S
C71 C72 1.397 . S
C71 C87 1.509 . S
C72 C71 1.397 . S
C72 C73 1.412 . S
C72 C93 1.485 . S
C73 C72 1.412 . S
C73 C74 1.388 . S
C73 C99 1.490 . S
C74 C69 1.397 . S
C74 C73 1.388 . S
C74 C105 1.519 . S
C75 C69 1.492 . S
C75 C76 1.363 . S
C75 C80 1.390 . S
C76 H41 0.930 1_455 S
C76 C75 1.363 . S
C76 C77 1.379 1_455 S
C77 H42 0.941 . S
C77 C76 1.379 1_655 S
C77 C78 1.366 1_655 S
C78 C77 1.366 1_455 S
C78 C79 1.395 . S
C79 H43 0.930 . S
C79 C78 1.395 . S
C79 C80 1.362 . S
C80 H44 0.930 . S
C80 C75 1.390 . S
C80 C79 1.362 . S
C81 C70 1.492 . S
C81 C82 1.377 . S
C81 C86 1.397 . S
C82 H45 0.931 1_455 S
C82 C81 1.377 . S
C82 C83 1.376 . S
C83 H46 0.930 . S
C83 C82 1.376 . S
C83 C84 1.376 . S
C84 C83 1.376 . S
C84 C85 1.378 . S
C84 C111 1.486 . S
C85 H47 0.930 . S
C85 C84 1.378 . S
C85 C86 1.376 . S
C86 H48 0.929 . S
C86 C81 1.397 . S
C86 C85 1.376 . S
C87 C71 1.509 . S
C87 C88 1.391 . S
C87 C92 1.386 . S
C88 H49 0.930 1_455 S
C88 C87 1.391 . S
C88 C89 1.375 . S
C89 H50 0.931 . S
C89 C88 1.375 . S
C89 C90 1.375 . S
C90 C89 1.375 . S
C90 C91 1.361 . S
C91 H51 0.930 . S
C91 C90 1.361 . S
C91 C92 1.399 . S
C92 H52 0.929 . S
C92 C87 1.386 . S
C92 C91 1.399 . S
C93 C72 1.485 . S
C93 C94 1.394 . S
C93 C98 1.360 . S
C94 H53 0.931 1_455 S
C94 C93 1.394 . S
C94 C95 1.372 . S
C95 H54 0.937 . S
C95 C94 1.372 . S
C95 C96 1.397 . S
C96 C95 1.397 . S
C96 C97 1.390 . S
C96 C112 1.476 . S
C97 H55 0.930 . S
C97 C96 1.390 . S
C97 C98 1.366 . S
C98 H56 0.932 . S
C98 C93 1.360 . S
C98 C97 1.366 . S
C99 C73 1.490 . S
C99 C100 1.380 . S
C99 C104 1.386 . S
C100 H57 0.930 1_455 S
C100 C99 1.380 . S
C100 C101 1.381 . S
C101 H58 0.929 1_455 S
C101 C100 1.381 . S
C101 C102 1.371 . S
C102 C101 1.371 . S
C102 C103 1.380 . S
C103 H59 0.931 . S
C103 C102 1.380 . S
C103 C104 1.387 . S
C104 H60 0.930 . S
C104 C99 1.386 . S
C104 C103 1.387 . S
C105 C74 1.519 . S
C105 C106 1.377 . S
C105 C110 1.361 . S
C106 H61 0.929 1_455 S
C106 C105 1.377 . S
C106 C107 1.386 . S
C107 H62 0.931 1_455 S
C107 C106 1.386 . S
C107 C108 1.363 . S
C108 C107 1.363 . S
C108 C109 1.385 . S
C109 H63 0.930 . S
C109 C108 1.385 . S
C109 C110 1.396 . S
C110 H64 0.929 . S
C110 C105 1.361 . S
C110 C109 1.396 . S
C111 O65 1.300 . S
C111 O66 1.209 . S
C111 C84 1.486 . S
C112 O67 1.199 . S
C112 O68 1.297 1_565 S
C112 C96 1.476 . S
H113 O139 0.856 . S
H114 O142 0.854 . S
H115 C150 0.930 1_565 S
H116 C151 0.930 1_565 S
H117 C153 0.930 . S
H118 C154 0.930 . S
H119 C156 0.931 . S
H120 C157 0.930 . S
H121 C159 0.930 . S
H122 C160 0.929 . S
H123 C162 0.930 . S
H124 C163 0.931 . S
H125 C165 0.930 . S
H126 C166 0.929 . S
H127 C168 0.931 . S
H128 C169 0.930 . S
H129 C171 0.930 . S
H130 C172 0.932 . S
H131 C174 0.930 1_565 S
H132 C175 0.929 1_565 S
H133 C177 0.931 . S
H134 C178 0.930 . S
H135 C180 0.929 1_565 S
H136 C181 0.931 . S
H137 C183 0.930 . S
H138 C184 0.929 . S
O139 H113 0.856 . S
O139 C185 1.300 . S
O140 C185 1.209 . S
O141 C186 1.199 . S
O142 H114 0.854 . S
O142 C186 1.297 . S
C143 C144 1.404 . S
C143 C148 1.397 . S
C143 C149 1.492 . S
C144 C143 1.404 . S
C144 C145 1.396 . S
C144 C155 1.492 . S
C145 C144 1.396 . S
C145 C146 1.397 . S
C145 C161 1.509 . S
C146 C145 1.397 . S
C146 C147 1.412 . S
C146 C167 1.485 . S
C147 C146 1.412 . S
C147 C148 1.388 . S
C147 C173 1.490 . S
C148 C143 1.397 . S
C148 C147 1.388 . S
C148 C179 1.519 . S
C149 C143 1.492 . S
C149 C150 1.363 . S
C149 C154 1.390 . S
C150 H115 0.930 1_545 S
C150 C149 1.363 . S
C150 C151 1.372 . S
C151 H116 0.930 1_545 S
C151 C150 1.372 . S
C151 C152 1.383 . S
C152 C151 1.383 . S
C152 C153 1.395 . S
C153 H117 0.930 . S
C153 C152 1.395 . S
C153 C154 1.362 . S
C154 H118 0.930 . S
C154 C149 1.390 . S
C154 C153 1.362 . S
C155 C144 1.492 . S
C155 C156 1.377 . S
C155 C160 1.397 . S
C156 H119 0.931 . S
C156 C155 1.377 . S
C156 C157 1.376 . S
C157 H120 0.930 . S
C157 C156 1.376 . S
C157 C158 1.376 . S
C158 C157 1.376 . S
C158 C159 1.378 . S
C158 C185 1.486 . S
C159 H121 0.930 . S
C159 C158 1.378 . S
C159 C160 1.376 . S
C160 H122 0.929 . S
C160 C155 1.397 . S
C160 C159 1.376 . S
C161 C145 1.509 . S
C161 C162 1.391 . S
C161 C166 1.386 . S
C162 H123 0.930 . S
C162 C161 1.391 . S
C162 C163 1.375 . S
C163 H124 0.931 . S
C163 C162 1.375 . S
C163 C164 1.375 . S
C164 C163 1.375 . S
C164 C165 1.361 . S
C165 H125 0.930 . S
C165 C164 1.361 . S
C165 C166 1.399 . S
C166 H126 0.929 . S
C166 C161 1.386 . S
C166 C165 1.399 . S
C167 C146 1.485 . S
C167 C168 1.394 . S
C167 C172 1.360 . S
C168 H127 0.931 . S
C168 C167 1.394 . S
C168 C169 1.372 . S
C169 H128 0.930 . S
C169 C168 1.372 . S
C169 C170 1.397 . S
C170 C169 1.397 . S
C170 C171 1.390 . S
C170 C186 1.476 . S
C171 H129 0.930 . S
C171 C170 1.390 . S
C171 C172 1.366 . S
C172 H130 0.932 . S
C172 C167 1.360 . S
C172 C171 1.366 . S
C173 C147 1.490 . S
C173 C174 1.380 . S
C173 C178 1.386 . S
C174 H131 0.930 1_545 S
C174 C173 1.380 . S
C174 C175 1.381 . S
C175 H132 0.929 1_545 S
C175 C174 1.381 . S
C175 C176 1.371 . S
C176 C175 1.371 . S
C176 C177 1.380 . S
C177 H133 0.931 . S
C177 C176 1.380 . S
C177 C178 1.387 . S
C178 H134 0.930 . S
C178 C173 1.386 . S
C178 C177 1.387 . S
C179 C148 1.519 . S
C179 C180 1.377 . S
C179 C184 1.361 . S
C180 H135 0.929 1_545 S
C180 C179 1.377 . S
C180 C181 1.386 . S
C181 H136 0.931 . S
C181 C180 1.386 . S
C181 C182 1.363 . S
C182 C181 1.363 . S
C182 C183 1.385 . S
C183 H137 0.930 . S
C183 C182 1.385 . S
C183 C184 1.396 . S
C184 H138 0.929 . S
C184 C179 1.361 . S
C184 C183 1.396 . S
C185 O139 1.300 . S
C185 O140 1.209 . S
C185 C158 1.486 . S
C186 O141 1.199 . S
C186 O142 1.297 . S
C186 C170 1.476 . S
H187 O213 0.856 . S
H188 O216 0.854 . S
H189 C224 0.930 . S
H190 C225 0.930 . S
H191 C227 0.930 . S
H192 C228 0.930 . S
H193 C230 0.931 . S
H194 C231 0.930 . S
H195 C233 0.930 . S
H196 C234 0.929 . S
H197 C236 0.930 . S
H198 C237 0.931 . S
H199 C239 0.930 1_554 S
H200 C240 0.929 . S
H201 C242 0.931 . S
H202 C243 0.930 . S
H203 C245 0.930 . S
H204 C246 0.932 . S
H205 C248 0.930 . S
H206 C249 0.929 . S
H207 C251 0.931 . S
H208 C252 0.930 . S
H209 C254 0.929 . S
H210 C255 0.931 . S
H211 C257 0.930 . S
H212 C258 0.929 . S
O213 H187 0.856 . S
O213 C259 1.300 . S
O214 C259 1.209 . S
O215 C260 1.199 . S
O216 H188 0.854 . S
O216 C260 1.297 . S
C217 C218 1.404 . S
C217 C222 1.397 . S
C217 C223 1.492 . S
C218 C217 1.404 . S
C218 C219 1.396 . S
C218 C229 1.492 . S
C219 C218 1.396 . S
C219 C220 1.397 . S
C219 C235 1.509 . S
C220 C219 1.397 . S
C220 C221 1.412 . S
C220 C241 1.485 . S
C221 C220 1.412 . S
C221 C222 1.388 . S
C221 C247 1.490 . S
C222 C217 1.397 . S
C222 C221 1.388 . S
C222 C253 1.519 . S
C223 C217 1.492 . S
C223 C224 1.363 . S
C223 C228 1.390 . S
C224 H189 0.930 . S
C224 C223 1.363 . S
C224 C225 1.372 . S
C225 H190 0.930 . S
C225 C224 1.372 . S
C225 C226 1.383 . S
C226 C225 1.383 . S
C226 C227 1.395 . S
C227 H191 0.930 . S
C227 C226 1.395 . S
C227 C228 1.362 . S
C228 H192 0.930 . S
C228 C223 1.390 . S
C228 C227 1.362 . S
C229 C218 1.492 . S
C229 C230 1.377 . S
C229 C234 1.397 . S
C230 H193 0.931 . S
C230 C229 1.377 . S
C230 C231 1.376 1_556 S
C231 H194 0.930 . S
C231 C230 1.376 1_554 S
C231 C232 1.376 . S
C232 C231 1.376 . S
C232 C233 1.378 . S
C232 C259 1.486 . S
C233 H195 0.930 . S
C233 C232 1.378 . S
C233 C234 1.376 1_554 S
C234 H196 0.929 . S
C234 C229 1.397 . S
C234 C233 1.376 1_556 S
C235 C219 1.509 . S
C235 C236 1.391 . S
C235 C240 1.386 . S
C236 H197 0.930 . S
C236 C235 1.391 . S
C236 C237 1.375 . S
C237 H198 0.931 . S
C237 C236 1.375 . S
C237 C238 1.375 1_556 S
C238 C237 1.375 1_554 S
C238 C239 1.361 1_554 S
C239 H199 0.930 1_556 S
C239 C238 1.361 1_556 S
C239 C240 1.399 . S
C240 H200 0.929 . S
C240 C235 1.386 . S
C240 C239 1.399 . S
C241 C220 1.485 . S
C241 C242 1.394 . S
C241 C246 1.360 . S
C242 H201 0.931 . S
C242 C241 1.394 . S
C242 C243 1.372 . S
C243 H202 0.930 . S
C243 C242 1.372 . S
C243 C244 1.397 . S
C244 C243 1.397 . S
C244 C245 1.390 . S
C244 C260 1.476 . S
C245 H203 0.930 . S
C245 C244 1.390 . S
C245 C246 1.366 . S
C246 H204 0.932 . S
C246 C241 1.360 . S
C246 C245 1.366 . S
C247 C221 1.490 . S
C247 C248 1.380 . S
C247 C252 1.386 . S
C248 H205 0.930 . S
C248 C247 1.380 . S
C248 C249 1.381 . S
C249 H206 0.929 . S
C249 C248 1.381 . S
C249 C250 1.371 . S
C250 C249 1.371 . S
C250 C251 1.380 . S
C251 H207 0.931 . S
C251 C250 1.380 . S
C251 C252 1.387 . S
C252 H208 0.930 . S
C252 C247 1.386 . S
C252 C251 1.387 . S
C253 C222 1.519 . S
C253 C254 1.377 . S
C253 C258 1.361 . S
C254 H209 0.929 . S
C254 C253 1.377 . S
C254 C255 1.386 . S
C255 H210 0.931 . S
C255 C254 1.386 . S
C255 C256 1.363 . S
C256 C255 1.363 . S
C256 C257 1.385 . S
C257 H211 0.930 . S
C257 C256 1.385 . S
C257 C258 1.396 . S
C258 H212 0.929 . S
C258 C253 1.361 . S
C258 C257 1.396 . S
C259 O213 1.300 . S
C259 O214 1.209 . S
C259 C232 1.486 . S
C260 O215 1.199 . S
C260 O216 1.297 . S
C260 C244 1.476 . S
C261 C262 1.363 . S
C261 C267 1.379 . S
C261 N269 1.356 1_455 S
C262 C261 1.363 . S
C262 C268 1.363 . S
C263 C264 1.363 . S
C263 C268 1.379 . S
C263 N270 1.356 . S
C264 C263 1.363 . S
C264 C267 1.363 . S
N265 C267 1.356 1_655 S
N265 H277 0.984 . S
N265 H278 0.985 . S
N266 C268 1.356 . S
N266 H271 0.984 . S
N266 H272 0.985 . S
C267 C261 1.379 . S
C267 C264 1.363 . S
C267 N265 1.356 1_455 S
C268 C262 1.363 . S
C268 C263 1.379 . S
C268 N266 1.356 . S
N269 C261 1.356 1_655 S
N269 H275 0.984 . S
N269 H276 0.984 . S
N270 C263 1.356 . S
N270 H273 0.984 . S
N270 H274 0.985 . S
H271 N266 0.984 . S
H272 N266 0.985 . S
H273 N270 0.984 . S
H274 N270 0.985 . S
H275 N269 0.984 . S
H276 N269 0.984 . S
H277 N265 0.984 . S
H278 N265 0.985 . S
C279 C280 1.363 1_455 S
C279 C285 1.379 1_455 S
C279 N287 1.356 . S
C280 C279 1.363 1_655 S
C280 C286 1.363 1_545 S
C281 C282 1.363 1_565 S
C281 C286 1.379 . S
C281 N288 1.356 . S
C282 C281 1.363 1_545 S
C282 C285 1.363 . S
N283 C285 1.356 1_455 S
N283 H295 0.984 . S
N283 H296 0.985 1_455 S
N284 C286 1.356 . S
N284 H289 0.984 . S
N284 H290 0.985 . S
C285 C279 1.379 1_655 S
C285 C282 1.363 . S
C285 N283 1.356 1_655 S
C286 C280 1.363 1_565 S
C286 C281 1.379 . S
C286 N284 1.356 . S
N287 C279 1.356 . S
N287 H293 0.984 . S
N287 H294 0.984 . S
N288 C281 1.356 . S
N288 H291 0.984 . S
N288 H292 0.985 . S
H289 N284 0.984 . S
H290 N284 0.985 . S
H291 N288 0.984 . S
H292 N288 0.985 . S
H293 N287 0.984 . S
H294 N287 0.984 . S
H295 N283 0.984 . S
H296 N283 0.985 1_655 S
C297 C298 1.363 . S
C297 C303 1.379 . S
C297 N305 1.356 . S
C298 C297 1.363 . S
C298 C304 1.363 1_655 S
C299 C300 1.363 . S
C299 C304 1.379 1_655 S
C299 N306 1.356 . S
C300 C299 1.363 . S
C300 C303 1.363 . S
N301 C303 1.356 . S
N301 H313 0.984 . S
N301 H314 0.985 . S
N302 C304 1.356 . S
N302 H307 0.984 1_565 S
N302 H308 0.985 . S
C303 C297 1.379 . S
C303 C300 1.363 . S
C303 N301 1.356 . S
C304 C298 1.363 1_455 S
C304 C299 1.379 1_455 S
C304 N302 1.356 . S
N305 C297 1.356 . S
N305 H311 0.984 . S
N305 H312 0.984 . S
N306 C299 1.356 . S
N306 H309 0.984 . S
N306 H310 0.985 . S
H307 N302 0.984 1_545 S
H308 N302 0.985 . S
H309 N306 0.984 . S
H310 N306 0.985 . S
H311 N305 0.984 . S
H312 N305 0.984 . S
H313 N301 0.984 . S
H314 N301 0.985 . S
C315 C316 1.363 . S
C315 C321 1.379 . S
C315 N323 1.356 . S
C316 C315 1.363 . S
C316 C322 1.363 . S
C317 C318 1.363 . S
C317 C322 1.379 . S
C317 N324 1.356 . S
C318 C317 1.363 . S
C318 C321 1.363 . S
N319 C321 1.356 . S
N319 H331 0.984 1_455 S
N319 H332 0.985 . S
N320 C322 1.356 1_545 S
N320 H325 0.984 . S
N320 H326 0.985 . S
C321 C315 1.379 . S
C321 C318 1.363 . S
C321 N319 1.356 . S
C322 C316 1.363 . S
C322 C317 1.379 . S
C322 N320 1.356 1_565 S
N323 C315 1.356 . S
N323 H329 0.984 1_455 S
N323 H330 0.984 . S
N324 C317 1.356 . S
N324 H327 0.984 . S
N324 H328 0.985 . S
H325 N320 0.984 . S
H326 N320 0.985 . S
H327 N324 0.984 . S
H328 N324 0.985 . S
H329 N323 0.984 1_655 S
H330 N323 0.984 . S
H331 N319 0.984 1_655 S
H332 N319 0.985 . S
C333 C334 1.363 . S
C333 C339 1.379 . S
C333 N341 1.356 1_545 S
C334 C333 1.363 . S
C334 C340 1.363 . S
C335 C336 1.363 . S
C335 C340 1.379 . S
C335 N342 1.356 . S
C336 C335 1.363 . S
C336 C339 1.363 . S
N337 C339 1.356 . S
N337 H349 0.984 1_545 S
N337 H350 0.985 . S
N338 C340 1.356 . S
N338 H343 0.984 . S
N338 H344 0.985 . S
C339 C333 1.379 . S
C339 C336 1.363 . S
C339 N337 1.356 . S
C340 C334 1.363 . S
C340 C335 1.379 . S
C340 N338 1.356 . S
N341 C333 1.356 1_565 S
N341 H347 0.984 . S
N341 H348 0.984 1_565 S
N342 C335 1.356 . S
N342 H345 0.984 . S
N342 H346 0.985 . S
H343 N338 0.984 . S
H344 N338 0.985 . S
H345 N342 0.984 . S
H346 N342 0.985 . S
H347 N341 0.984 . S
H348 N341 0.984 1_545 S
H349 N337 0.984 1_565 S
H350 N337 0.985 . S
C351 C352 1.363 . S
C351 C357 1.379 . S
C351 N359 1.356 . S
C352 C351 1.363 . S
C352 C358 1.363 . S
C353 C354 1.363 . S
C353 C358 1.379 . S
C353 N360 1.356 . S
C354 C353 1.363 . S
C354 C357 1.363 . S
N355 C357 1.356 . S
N355 H367 0.984 . S
N355 H368 0.985 . S
N356 C358 1.356 . S
N356 H361 0.984 . S
N356 H362 0.985 . S
C357 C351 1.379 . S
C357 C354 1.363 . S
C357 N355 1.356 . S
C358 C352 1.363 . S
C358 C353 1.379 . S
C358 N356 1.356 . S
N359 C351 1.356 . S
N359 H365 0.984 . S
N359 H366 0.984 . S
N360 C353 1.356 . S
N360 H363 0.984 . S
N360 H364 0.985 . S
H361 N356 0.984 . S
H362 N356 0.985 . S
H363 N360 0.984 . S
H364 N360 0.985 . S
H365 N359 0.984 . S
H366 N359 0.984 . S
H367 N355 0.984 . S
H368 N355 0.985 . S
C369 C370 1.363 1_655 S
C369 C375 1.379 . S
C369 N377 1.356 1_655 S
C370 C369 1.363 1_455 S
C370 C376 1.363 1_455 S
C371 C372 1.363 . S
C371 C376 1.379 . S
C371 N378 1.356 . S
C372 C371 1.363 . S
C372 C375 1.363 . S
N373 C375 1.356 . S
N373 H385 0.984 1_545 S
N373 H386 0.985 . S
N374 C376 1.356 1_455 S
N374 H379 0.984 . S
N374 H380 0.985 . S
C375 C369 1.379 . S
C375 C372 1.363 . S
C375 N373 1.356 . S
C376 C370 1.363 1_655 S
C376 C371 1.379 . S
C376 N374 1.356 1_655 S
N377 C369 1.356 1_455 S
N377 H383 0.984 1_545 S
N377 H384 0.984 . S
N378 C371 1.356 . S
N378 H381 0.984 . S
N378 H382 0.985 . S
H379 N374 0.984 . S
H380 N374 0.985 . S
H381 N378 0.984 . S
H382 N378 0.985 . S
H383 N377 0.984 1_565 S
H384 N377 0.984 . S
H385 N373 0.984 1_565 S
H386 N373 0.985 . S
C387 C388 1.363 . S
C387 C393 1.379 1_554 S
C387 N395 1.356 . S
C388 C387 1.363 . S
C388 C394 1.363 1_565 S
C389 C390 1.363 . S
C389 C394 1.379 1_566 S
C389 N396 1.356 1_565 S
C390 C389 1.363 . S
C390 C393 1.363 . S
N391 C393 1.356 . S
N391 H403 0.984 . S
N391 H404 0.985 . S
N392 C394 1.356 . S
N392 H397 0.984 . S
N392 H398 0.985 . S
C393 C387 1.379 1_556 S
C393 C390 1.363 . S
C393 N391 1.356 . S
C394 C388 1.363 1_545 S
C394 C389 1.379 1_544 S
C394 N392 1.356 . S
N395 C387 1.356 . S
N395 H401 0.984 . S
N395 H402 0.985 . S
N396 C389 1.356 1_545 S
N396 H399 0.984 1_545 S
N396 H400 0.985 . S
H397 N392 0.984 . S
H398 N392 0.985 . S
H399 N396 0.984 1_565 S
H400 N396 0.985 . S
H401 N395 0.984 . S
H402 N395 0.985 . S
H403 N391 0.984 . S
H404 N391 0.985 . S
C405 C406 1.363 . S
C405 C411 1.379 . S
C405 N413 1.356 . S
C406 C405 1.363 . S
C406 C412 1.363 . S
C407 C408 1.363 . S
C407 C412 1.379 . S
C407 N414 1.356 . S
C408 C407 1.363 . S
C408 C411 1.363 . S
N409 C411 1.356 . S
N409 H421 0.984 . S
N409 H422 0.985 . S
N410 C412 1.356 . S
N410 H415 0.984 . S
N410 H416 0.985 . S
C411 C405 1.379 . S
C411 C408 1.363 . S
C411 N409 1.356 . S
C412 C406 1.363 . S
C412 C407 1.379 . S
C412 N410 1.356 . S
N413 C405 1.356 . S
N413 H419 0.984 . S
N413 H420 0.984 . S
N414 C407 1.356 . S
N414 H417 0.984 . S
N414 H418 0.985 . S
H415 N410 0.984 . S
H416 N410 0.985 . S
H417 N414 0.984 . S
H418 N414 0.985 . S
H419 N413 0.984 . S
H420 N413 0.984 . S
H421 N409 0.984 . S
H422 N409 0.985 . S
C423 C424 1.363 . S
C423 C429 1.379 . S
C423 N431 1.356 1_545 S
C424 C423 1.363 . S
C424 C430 1.363 . S
C425 C426 1.363 . S
C425 C430 1.379 . S
C425 N432 1.356 . S
C426 C425 1.363 . S
C426 C429 1.363 . S
N427 C429 1.356 1_565 S
N427 H439 0.984 . S
N427 H440 0.985 . S
N428 C430 1.356 . S
N428 H433 0.984 . S
N428 H434 0.985 . S
C429 C423 1.379 . S
C429 C426 1.363 . S
C429 N427 1.356 1_545 S
C430 C424 1.363 . S
C430 C425 1.379 . S
C430 N428 1.356 . S
N431 C423 1.356 1_565 S
N431 H437 0.984 . S
N431 H438 0.984 . S
N432 C425 1.356 . S
N432 H435 0.984 . S
N432 H436 0.985 . S
H433 N428 0.984 . S
H434 N428 0.985 . S
H435 N432 0.984 . S
H436 N432 0.985 . S
H437 N431 0.984 . S
H438 N431 0.984 . S
H439 N427 0.984 . S
H440 N427 0.985 . S
C441 C442 1.363 . S
C441 C447 1.379 . S
C441 N449 1.356 . S
C442 C441 1.363 . S
C442 C448 1.363 . S
C443 C444 1.363 . S
C443 C448 1.379 . S
C443 N450 1.356 1_554 S
C444 C443 1.363 . S
C444 C447 1.363 . S
N445 C447 1.356 . S
N445 H457 0.984 . S
N445 H458 0.985 . S
N446 C448 1.356 . S
N446 H451 0.984 . S
N446 H452 0.985 . S
C447 C441 1.379 . S
C447 C444 1.363 . S
C447 N445 1.356 . S
C448 C442 1.363 . S
C448 C443 1.379 . S
C448 N446 1.356 . S
N449 C441 1.356 . S
N449 H455 0.984 . S
N449 H456 0.984 . S
N450 C443 1.356 1_556 S
N450 H453 0.984 . S
N450 H454 0.985 . S
H451 N446 0.984 . S
H452 N446 0.985 . S
H453 N450 0.984 . S
H454 N450 0.985 . S
H455 N449 0.984 . S
H456 N449 0.984 . S
H457 N445 0.984 . S
H458 N445 0.985 . S
C459 C460 1.363 . S
C459 C465 1.379 . S
C459 N467 1.356 . S
C460 C459 1.363 . S
C460 C466 1.363 . S
C461 C462 1.363 . S
C461 C466 1.379 . S
C461 N468 1.356 . S
C462 C461 1.363 . S
C462 C465 1.363 . S
N463 C465 1.356 . S
N463 H475 0.984 . S
N463 H476 0.985 . S
N464 C466 1.356 . S
N464 H469 0.984 . S
N464 H470 0.985 . S
C465 C459 1.379 . S
C465 C462 1.363 . S
C465 N463 1.356 . S
C466 C460 1.363 . S
C466 C461 1.379 . S
C466 N464 1.356 . S
N467 C459 1.356 . S
N467 H473 0.984 . S
N467 H474 0.984 . S
N468 C461 1.356 . S
N468 H471 0.984 . S
N468 H472 0.985 . S
H469 N464 0.984 . S
H470 N464 0.985 . S
H471 N468 0.984 . S
H472 N468 0.985 . S
H473 N467 0.984 . S
H474 N467 0.984 . S
H475 N463 0.984 . S
H476 N463 0.985 . S
C264 C78 1.430 . S
C262 C10 1.567 . S
C280 C21 1.458 1_655 S
C282 C152 1.458 . S
C298 C31 1.930 1_655 S
C300 C256 2.021 . S
C316 C0 0.871 . S
C318 C90 0.886 . S
C336 C164 0.882 . S
C334 C18 0.877 . S
C352 C34 1.755 . S
C354 C250 1.531 . S
C372 C182 2.016 . S
C370 C36 2.019 . S
C388 C8 1.467 1_665 S
C390 C226 1.445 . S
C408 C102 1.523 . S
C406 C23 1.695 . S
C426 C176 1.439 . S
C424 C26 1.616 . S
C444 C238 0.899 . S
C442 C5 0.876 . S
C460 C13 1.954 . S
C462 C108 2.022 . S
