# Generated by pormake.
# Topology anh, (6,3)-cn, num edge types: 1
# Building blocks:
#     Node 0, Type 0, BuildingBlock: NUHQIS_clean_sbu_0, # of connection points: 6
#     Node 1, Type 0, BuildingBlock: NUHQIS_clean_sbu_0, # of connection points: 6
#     Node 2, Type 0, BuildingBlock: NUHQIS_clean_sbu_0, # of connection points: 6
#     Node 3, Type 1, BuildingBlock: BETDAH_clean_linker_0, # of connection points: 3
#     Node 4, Type 1, BuildingBlock: BETDAH_clean_linker_0, # of connection points: 3
#     Node 5, Type 1, BuildingBlock: BETDAH_clean_linker_0, # of connection points: 3
#     Node 6, Type 1, BuildingBlock: BETDAH_clean_linker_0, # of connection points: 3
#     Node 7, Type 1, BuildingBlock: BETDAH_clean_linker_0, # of connection points: 3
#     Node 8, Type 1, BuildingBlock: BETDAH_clean_linker_0, # of connection points: 3
#     Edge 9, Type (0, 1), BuildingBlock: TEMPAE_clean_linker_10, # of connection points: 2
#     Edge 10, Type (0, 1), BuildingBlock: TEMPAE_clean_linker_10, # of connection points: 2
#     Edge 11, Type (0, 1), BuildingBlock: TEMPAE_clean_linker_10, # of connection points: 2
#     Edge 12, Type (0, 1), BuildingBlock: TEMPAE_clean_linker_10, # of connection points: 2
#     Edge 13, Type (0, 1), BuildingBlock: TEMPAE_clean_linker_10, # of connection points: 2
#     Edge 14, Type (0, 1), BuildingBlock: TEMPAE_clean_linker_10, # of connection points: 2
#     Edge 15, Type (0, 1), BuildingBlock: TEMPAE_clean_linker_10, # of connection points: 2
#     Edge 16, Type (0, 1), BuildingBlock: TEMPAE_clean_linker_10, # of connection points: 2
#     Edge 17, Type (0, 1), BuildingBlock: TEMPAE_clean_linker_10, # of connection points: 2
#     Edge 18, Type (0, 1), BuildingBlock: TEMPAE_clean_linker_10, # of connection points: 2
#     Edge 19, Type (0, 1), BuildingBlock: TEMPAE_clean_linker_10, # of connection points: 2
#     Edge 20, Type (0, 1), BuildingBlock: TEMPAE_clean_linker_10, # of connection points: 2
#     Edge 21, Type (0, 1), BuildingBlock: TEMPAE_clean_linker_10, # of connection points: 2
#     Edge 22, Type (0, 1), BuildingBlock: TEMPAE_clean_linker_10, # of connection points: 2
#     Edge 23, Type (0, 1), BuildingBlock: TEMPAE_clean_linker_10, # of connection points: 2
#     Edge 24, Type (0, 1), BuildingBlock: TEMPAE_clean_linker_10, # of connection points: 2
#     Edge 25, Type (0, 1), BuildingBlock: TEMPAE_clean_linker_10, # of connection points: 2
#     Edge 26, Type (0, 1), BuildingBlock: TEMPAE_clean_linker_10, # of connection points: 2
# Relax obj value: 0.236
# Max RMSD: 0.145
# Mean RMSD: 0.106
data_MOF--net-anh--node1-NUHQIS_clean_sbu_0--node2-BETDAH_clean_linker_0--edge1-TEMPAE_clean_linker_10
_symmetry_space_group_name_H-M    P1
_symmetry_Int_Tables_number       1
_symmetry_cell_setting            triclinic
loop_
_symmetry_equiv_pos_as_xyz
'x, y, z'
_cell_length_a     32.205732
_cell_length_b     32.177074
_cell_length_c     50.2364
_cell_angle_alpha  91.606097
_cell_angle_beta   95.450402
_cell_angle_gamma 120.03409
loop_
_atom_site_label
_atom_site_type_symbol
_atom_site_fract_x
_atom_site_fract_y
_atom_site_fract_z
_atom_type_partial_charge
Tb0 Tb 0.13709 0.59129 0.15555 0.0
Eu1 Eu 1.08548 0.65313 0.16189 0.0
C2 C 0.12607 0.62182 0.21135 0.0
C3 C 1.02031 0.53227 0.16024 0.0
C4 C 0.21785 0.54147 0.14157 0.0
C5 C 0.27608 0.51463 0.14397 0.0
C6 C 0.24667 0.52713 0.15657 0.0
C7 C 0.22134 0.54659 0.11406 0.0
C8 C 0.25067 0.53386 0.10138 0.0
C9 C 0.27695 0.51611 0.11607 0.0
C10 C 0.17994 0.54401 0.15428 0.0
O11 O 0.12868 0.60692 0.11437 0.0
O12 O 1.07588 0.63484 0.11665 0.0
O13 O 0.16357 0.71415 0.15997 0.0
O14 O 0.20048 0.66872 0.16041 0.0
C15 C 0.0995 0.62013 0.10264 0.0
O16 O 1.05544 0.69781 0.14835 0.0
O17 O 1.05324 0.67878 0.18933 0.0
O18 O 0.12925 0.66015 0.20139 0.0
O19 O 0.11509 0.58458 0.19518 0.0
O20 O 1.05934 0.53169 0.154 0.0
O21 O 1.0233 0.57455 0.16511 0.0
C22 C 0.20366 0.71192 0.16095 0.0
O23 O 0.19325 0.58035 0.17189 0.0
O24 O 0.14067 0.53344 0.13861 0.0
C25 C 0.98472 0.67857 0.16867 0.0
C26 C 0.88308 0.62709 0.16519 0.0
C27 C 0.90605 0.64021 0.14186 0.0
C28 C 0.95634 0.66568 0.14356 0.0
C29 C 0.96179 0.66875 0.19208 0.0
C30 C 0.91139 0.6429 0.19036 0.0
C31 C 1.0371 0.6963 0.17067 0.0
H32 H 0.29549 0.50063 0.1558 0.0
H33 H 0.24427 0.52285 0.1778 0.0
H34 H 0.19956 0.55794 0.10213 0.0
H35 H 0.25116 0.53588 0.07991 0.0
H36 H 0.88523 0.62814 0.12214 0.0
H37 H 0.97278 0.67289 0.12514 0.0
H38 H 0.98284 0.67875 0.21173 0.0
H39 H 0.89461 0.63375 0.20865 0.0
Tb40 Tb 0.66964 0.18551 0.48904 0.0
Eu41 Eu 0.55659 0.13309 0.49007 0.0
C42 C 0.62991 0.16522 0.54339 0.0
C43 C 0.61074 0.06761 0.49292 0.0
C44 C 0.8055 0.27093 0.49854 0.0
C45 C 0.87362 0.31392 0.53364 0.0
C46 C 0.82563 0.27797 0.52555 0.0
C47 C 0.83297 0.30248 0.48029 0.0
C48 C 0.88073 0.33835 0.48834 0.0
C49 C 0.9022 0.34332 0.51486 0.0
C50 C 0.75966 0.22703 0.4881 0.0
O51 O 0.63701 0.14793 0.44935 0.0
O52 O 0.57205 0.15727 0.44818 0.0
O53 O 0.5797 0.21298 0.49958 0.0
O54 O 0.65548 0.24809 0.48675 0.0
C55 C 0.60246 0.15104 0.4355 0.0
O56 O 0.48361 0.08577 0.46999 0.0
O57 O 0.49437 0.12226 0.50921 0.0
O58 O 0.58914 0.12971 0.53113 0.0
O59 O 0.66023 0.19889 0.52975 0.0
O60 O 0.65227 0.10964 0.49608 0.0
O61 O 0.56955 0.06788 0.48778 0.0
C62 C 0.61889 0.25234 0.49426 0.0
O63 O 0.73685 0.19626 0.50521 0.0
O64 O 0.73021 0.2314 0.47021 0.0
C65 C 0.42466 1.04587 0.49847 0.0
C66 C 0.35246 0.95274 0.50701 0.0
C67 C 0.34107 0.98153 0.49091 0.0
C68 C 0.37701 1.02788 0.4867 0.0
C69 C 0.43559 1.01851 0.51597 0.0
C70 C 0.39956 0.97222 0.52035 0.0
C71 C 0.46313 0.09073 0.49011 0.0
H72 H 0.88904 0.31718 0.55424 0.0
H73 H 0.80529 0.2542 0.54015 0.0
H74 H 0.81851 0.29753 0.45932 0.0
H75 H 0.9018 0.35977 0.4732 0.0
H76 H 0.30502 0.96708 0.48035 0.0
H77 H 0.36812 1.04868 0.47313 0.0
H78 H 0.4724 1.0319 0.52508 0.0
H79 H 0.40934 0.95038 0.53248 0.0
Tb80 Tb 0.60444 0.64762 0.82685 0.0
Eu81 Eu 0.54264 0.53414 0.81079 0.0
C82 C 0.58253 0.57573 0.87013 0.0
C83 C 0.66362 0.58864 0.82067 0.0
C84 C 0.66249 0.77747 0.85793 0.0
C85 C 0.71955 0.85546 0.88135 0.0
C86 C 0.70874 0.81014 0.87089 0.0
C87 C 0.62559 0.78863 0.85799 0.0
C88 C 0.6363 0.83405 0.8687 0.0
C89 C 0.68413 0.86899 0.87906 0.0
C90 C 0.65674 0.73625 0.84131 0.0
O91 O 0.60827 0.64105 0.78357 0.0
O92 O 0.5433 0.5658 0.77147 0.0
O93 O 0.48508 0.55394 0.82118 0.0
O94 O 0.52901 0.6364 0.82416 0.0
C95 C 0.57718 0.60729 0.76497 0.0
O96 O 0.51916 0.46885 0.78484 0.0
O97 O 0.48623 0.46488 0.82119 0.0
O98 O 0.58142 0.54582 0.85178 0.0
O99 O 0.5782 0.61245 0.86326 0.0
O100 O 0.66343 0.6291 0.82681 0.0
O101 O 0.62166 0.54828 0.81302 0.0
C102 C 0.48657 0.59591 0.82393 0.0
O103 O 0.66031 0.70288 0.85362 0.0
O104 O 0.62379 0.7188 0.82038 0.0
C105 C 0.49645 0.40014 0.80824 0.0
C106 C 0.51702 0.32623 0.81712 0.0
C107 C 0.48209 0.3203 0.79598 0.0
C108 C 0.47186 0.35705 0.7916 0.0
C109 C 0.52952 0.40525 0.83022 0.0
C110 C 0.53954 0.36836 0.83472 0.0
C111 C 0.49033 0.44077 0.80127 0.0
H112 H 0.75685 0.88121 0.88888 0.0
H113 H 0.73765 0.80205 0.87108 0.0
H114 H 0.5894 0.76358 0.84834 0.0
H115 H 0.60792 0.84294 0.86715 0.0
H116 H 0.46431 0.28808 0.78217 0.0
H117 H 0.44624 0.35264 0.77457 0.0
H118 H 0.54905 0.4385 0.84319 0.0
H119 H 0.5671 0.37406 0.8509 0.0
H120 H 0.51771 1.04155 0.23389 0.0
H121 H 0.64658 0.1748 0.22402 0.0
H122 H 0.56734 0.06875 0.15618 0.0
C123 C 0.5432 0.06437 0.22087 0.0
C124 C 0.53567 1.0473 0.19365 0.0
C125 C 0.58227 0.10962 0.23213 0.0
C126 C 0.61674 0.1401 0.21559 0.0
C127 C 0.61272 0.12664 0.1881 0.0
C128 C 0.57124 0.0799 0.17723 0.0
N129 N 0.64896 0.15847 0.17115 0.0
C130 C 0.69284 0.20526 0.17647 0.0
H131 H 0.61086 0.56031 0.56724 0.0
H132 H 0.61111 0.69288 0.5575 0.0
H133 H 0.62007 0.61408 0.48904 0.0
C134 C 0.61364 0.58759 0.5542 0.0
C135 C 0.61762 0.58105 0.52684 0.0
C136 C 0.61187 0.62742 0.56547 0.0
C137 C 0.61224 0.66235 0.54879 0.0
C138 C 0.61487 0.65874 0.52106 0.0
C139 C 0.61744 0.61738 0.51022 0.0
N140 N 0.61552 0.69554 0.50395 0.0
C141 C 0.61389 0.7393 0.50932 0.0
H142 H 0.98632 0.5924 0.89977 0.0
H143 H 0.12104 0.60061 0.88991 0.0
H144 H 1.02846 0.59704 0.82027 0.0
C145 C 1.01155 0.59509 0.88623 0.0
C146 C 1.00036 0.59639 0.85844 0.0
C147 C 1.05461 0.59746 0.89764 0.0
C148 C 0.08832 0.59913 0.88095 0.0
C149 C 1.07975 0.59792 0.85285 0.0
C150 C 1.03531 0.59687 0.84176 0.0
N151 N 0.11451 0.59818 0.83558 0.0
C152 C 0.15984 0.59846 0.84104 0.0
H153 H 0.20496 0.65132 0.42049 0.0
H154 H 0.22468 0.53351 0.39618 0.0
H155 H 0.25118 0.58427 0.47961 0.0
C156 C 0.21336 0.62356 0.42554 0.0
C157 C 0.22775 0.62104 0.45235 0.0
C158 C 0.21267 0.59264 0.40504 0.0
C159 C 0.22608 0.55842 0.41171 0.0
C160 C 0.23862 0.55442 0.43862 0.0
C161 C 0.24014 0.58634 0.45886 0.0
N162 N 0.24588 0.51593 0.44547 0.0
C163 C 0.22052 0.48756 0.46502 0.0
H164 H 0.66386 0.17457 0.75129 0.0
H165 H 0.80166 0.19087 0.73881 0.0
H166 H 0.76833 0.20127 0.81879 0.0
C167 C 0.69883 0.17978 0.75921 0.0
C168 C 0.71231 0.18706 0.787 0.0
C169 C 0.73095 0.18198 0.74153 0.0
C170 C 0.7764 0.18927 0.75212 0.0
C171 C 0.78944 0.19461 0.78 0.0
C172 C 0.75757 0.19449 0.79733 0.0
N173 N 0.83429 0.19945 0.79044 0.0
C174 C 0.83727 0.1778 0.8135 0.0
H175 H 0.61653 0.43952 0.05203 0.0
H176 H 0.46676 0.34734 0.02077 0.0
H177 H 0.5218 0.32523 0.09694 0.0
C178 C 0.58121 0.40861 0.05345 0.0
C179 C 0.57391 0.38311 0.0764 0.0
C180 C 0.54277 0.3966 0.03331 0.0
C181 C 0.49728 0.35668 0.03574 0.0
C182 C 0.4898 0.33048 0.05846 0.0
C183 C 0.52822 0.34369 0.07874 0.0
N184 N 0.44234 0.29624 0.06302 0.0
C185 C 0.40869 0.31108 0.0629 0.0
C186 C 0.34446 0.49946 0.1134 0.0
C187 C 0.29988 0.49309 0.10226 0.0
C188 C 0.36199 0.47077 0.10359 0.0
C189 C 0.3342 0.43498 0.08213 0.0
C190 C 0.2908 0.43061 0.06963 0.0
C191 C 0.27409 0.45974 0.07988 0.0
C192 C 0.40882 0.47689 0.11723 0.0
C193 C 0.26046 0.39311 0.04657 0.0
C194 C 0.39742 0.37776 0.05009 0.0
C195 C 0.38356 0.33722 0.06448 0.0
C196 C 0.38014 0.40918 0.05483 0.0
C197 C 0.3485 0.39952 0.07448 0.0
C198 C 0.33285 0.35726 0.08822 0.0
C199 C 0.35088 0.32658 0.0831 0.0
C200 C 0.39769 0.45385 0.03985 0.0
C201 C 0.29896 0.34573 0.10925 0.0
H202 H 0.36474 0.52566 0.13049 0.0
H203 H 0.23934 0.45429 0.07136 0.0
H204 H 0.40123 0.4446 0.12795 0.0
H205 H 0.43306 0.48007 0.10215 0.0
H206 H 0.42815 0.50915 0.13195 0.0
H207 H 0.23099 0.39827 0.03701 0.0
H208 H 0.28323 0.39407 0.03108 0.0
H209 H 0.24401 0.35672 0.05398 0.0
H210 H 0.42333 0.38608 0.03592 0.0
H211 H 0.34094 0.29539 0.09439 0.0
H212 H 0.42144 0.48621 0.05397 0.0
H213 H 0.36675 0.45744 0.03121 0.0
H214 H 0.41835 0.45357 0.02341 0.0
H215 H 0.31696 0.37355 0.12651 0.0
H216 H 0.28775 0.30989 0.11672 0.0
H217 H 0.26612 0.34636 0.10096 0.0
C218 C 0.98044 0.41738 0.50972 0.0
C219 C 0.95551 0.37361 0.52121 0.0
C220 C 1.03001 0.43862 0.50797 0.0
C221 C 1.05521 0.41587 0.51844 0.0
C222 C 1.03176 0.37575 0.53352 0.0
C223 C 0.98189 0.35468 0.53453 0.0
C224 C 1.0539 0.48214 0.49219 0.0
C225 C 1.05805 0.35201 0.54614 0.0
C226 C 0.14144 0.4211 0.47116 0.0
C227 C 0.18425 0.46207 0.48224 0.0
C228 C 0.09978 0.40347 0.48396 0.0
C229 C 0.10148 0.42752 0.5085 0.0
C230 C 0.14606 0.4664 0.52094 0.0
C231 C 0.18707 0.48376 0.50738 0.0
C232 C 1.05301 0.36188 0.46992 0.0
C233 C 0.14986 0.49216 0.54741 0.0
H234 H 0.96042 0.43295 0.50015 0.0
H235 H 0.9631 0.32106 0.54371 0.0
H236 H 0.08932 0.50971 0.50307 0.0
H237 H 1.06065 0.47123 0.47264 0.0
H238 H 1.03116 0.49879 0.48821 0.0
H239 H 1.03892 0.32957 0.56221 0.0
H240 H 1.06032 0.32832 0.53057 0.0
H241 H 0.0955 0.37933 0.55472 0.0
H242 H 0.13953 0.40503 0.45147 0.0
H243 H 0.22036 0.516 0.51566 0.0
H244 H 1.02769 0.37471 0.46355 0.0
H245 H 1.03543 0.33359 0.48379 0.0
H246 H 1.05859 0.34536 0.4519 0.0
H247 H 0.14075 0.52067 0.54371 0.0
H248 H 0.18723 0.50976 0.55808 0.0
H249 H 0.12447 0.46716 0.56062 0.0
C250 C 0.73938 0.95332 0.9005 0.0
C251 C 0.69977 0.92112 0.88183 0.0
C252 C 0.76505 1.00282 0.89715 0.0
C253 C 0.75033 1.02021 0.8748 0.0
C254 C 0.70647 0.98901 0.85826 0.0
C255 C 0.6818 0.9398 0.86192 0.0
C256 C 0.81059 1.0353 0.91584 0.0
C257 C 0.68863 1.00635 0.83459 0.0
C258 C 0.80296 0.14767 0.85514 0.0
C259 C 0.82851 0.14606 0.8345 0.0
C260 C 0.78089 0.10848 0.87072 0.0
C261 C 0.78447 0.06712 0.86513 0.0
C262 C 0.81462 0.06783 0.8461 0.0
C263 C 0.83614 0.10741 0.83086 0.0
C264 C 0.75003 0.10971 0.89117 0.0
C265 C 0.82007 1.02475 0.83977 0.0
H266 H 0.75263 0.93941 0.9165 0.0
H267 H 0.65124 0.9156 0.84737 0.0
H268 H 0.84223 1.03923 0.90664 0.0
H269 H 0.8155 0.07178 0.91934 0.0
H270 H 0.8103 1.02014 0.93547 0.0
H271 H 0.65091 0.97948 0.82611 0.0
H272 H 0.69023 1.04064 0.84046 0.0
H273 H 0.71224 1.01323 0.81857 0.0
H274 H 0.79733 0.17794 0.85792 0.0
H275 H 0.85581 0.10642 0.8147 0.0
H276 H 0.75065 0.08916 0.90842 0.0
H277 H 0.71205 0.09306 0.88164 0.0
H278 H 0.76217 0.14733 0.89874 0.0
H279 H 0.82836 1.01146 0.85851 0.0
H280 H 0.84909 1.03324 0.82691 0.0
H281 H 0.78553 0.99506 0.82907 0.0
C282 C 0.7991 0.59632 0.1431 0.0
C283 C 0.83047 0.59229 0.16273 0.0
C284 C 0.75207 0.55783 0.13561 0.0
C285 C 0.73617 0.51441 0.14818 0.0
C286 C 0.76562 0.51218 0.17015 0.0
C287 C 0.81272 0.55126 0.17717 0.0
C288 C 0.72111 0.56217 0.11258 0.0
C289 C 0.7486 0.46726 0.18482 0.0
C290 C 0.60615 0.4244 0.12227 0.0
C291 C 0.61254 0.40367 0.09926 0.0
C292 C 0.64614 0.45761 0.14031 0.0
C293 C 0.69313 0.46985 0.13501 0.0
C294 C 0.69901 0.44457 0.11349 0.0
C295 C 0.65851 0.412 0.09567 0.0
C296 C 0.63805 0.48305 0.16318 0.0
C297 C 0.74848 0.45562 0.10755 0.0
H298 H 0.81235 0.62855 0.13244 0.0
H299 H 0.8367 0.54815 0.19259 0.0
H300 H 0.71793 0.5392 0.09471 0.0
H301 H 0.68412 0.54932 0.11776 0.0
H302 H 0.73651 0.59984 0.1071 0.0
H303 H 0.77468 0.47227 0.20249 0.0
H304 H 0.71314 0.45662 0.19169 0.0
H305 H 0.74321 0.43697 0.17102 0.0
H306 H 0.57044 0.41807 0.12487 0.0
H307 H 0.66314 0.39575 0.07783 0.0
H308 H 0.63861 0.51573 0.15622 0.0
H309 H 0.6666 0.49452 0.18051 0.0
H310 H 0.60225 0.45959 0.16999 0.0
H311 H 0.76734 0.49159 0.09968 0.0
H312 H 0.74641 0.42854 0.09245 0.0
H313 H 0.77076 0.45682 0.12613 0.0
C314 C 0.30236 0.8746 0.4801 0.0
C315 C 0.3189 0.90026 0.50542 0.0
C316 C 0.27954 0.82439 0.47749 0.0
C317 C 0.27194 0.79915 0.50088 0.0
C318 C 0.28447 0.82463 0.52651 0.0
C319 C 0.3089 0.87524 0.52854 0.0
C320 C 0.26739 0.79888 0.44968 0.0
C321 C 0.27483 0.79904 0.55187 0.0
C322 C 0.19848 0.6684 0.47633 0.0
C323 C 0.23565 0.65899 0.47265 0.0
C324 C 0.20895 0.7122 0.4895 0.0
C325 C 0.25776 0.74761 0.4979 0.0
C326 C 0.29453 0.73583 0.49691 0.0
C327 C 0.28282 0.69119 0.48448 0.0
C328 C 0.1685 0.72239 0.49186 0.0
C329 C 0.34708 0.77248 0.50571 0.0
H330 H 0.31058 0.89404 0.46225 0.0
H331 H 0.3215 0.89524 0.54814 0.0
H332 H 0.28886 0.78089 0.44782 0.0
H333 H 0.22865 0.77062 0.4461 0.0
H334 H 0.27495 0.82394 0.43365 0.0
H335 H 0.26944 0.81983 0.56784 0.0
H336 H 0.24256 0.76232 0.54838 0.0
H337 H 0.30649 0.79574 0.55935 0.0
H338 H 0.16182 0.6429 0.46745 0.0
H339 H 0.31139 0.68358 0.48161 0.0
H340 H 0.16579 0.7424 0.47478 0.0
H341 H 0.17552 0.745 0.5107 0.0
H342 H 0.1332 0.6885 0.49138 0.0
H343 H 0.35997 0.80106 0.49158 0.0
H344 H 0.37036 0.75608 0.50621 0.0
H345 H 0.35162 0.78998 0.52593 0.0
C346 C 0.54302 0.27513 0.84233 0.0
C347 C 0.53568 0.29264 0.81814 0.0
C348 C 0.5669 0.24861 0.84372 0.0
C349 C 0.58516 0.2412 0.82061 0.0
C350 C 0.57604 0.25728 0.79594 0.0
C351 C 0.551 0.28235 0.795 0.0
C352 C 0.5743 0.23064 0.87015 0.0
C353 C 0.59527 0.25068 0.77079 0.0
C354 C 0.69997 0.23967 0.81808 0.0
C355 C 0.68171 0.19433 0.80438 0.0
C356 C 0.66857 0.25385 0.82684 0.0
C357 C 0.61805 0.22139 0.82208 0.0
C358 C 0.60022 0.17316 0.81205 0.0
C359 C 0.63233 0.16032 0.8028 0.0
C360 C 0.68915 0.30552 0.8377 0.0
C361 C 0.54681 0.13682 0.80818 0.0
H362 H 0.53093 0.28299 0.86022 0.0
H363 H 0.54589 0.29645 0.77639 0.0
H364 H 0.57501 0.1967 0.86723 0.0
H365 H 0.60935 0.25817 0.88145 0.0
H366 H 0.54539 0.22445 0.88267 0.0
H367 H 0.58462 0.26515 0.75327 0.0
H368 H 0.63534 0.2693 0.77424 0.0
H369 H 0.58168 0.21191 0.76561 0.0
H370 H 0.73826 0.26584 0.81934 0.0
H371 H 0.61845 0.12494 0.79252 0.0
H372 H 0.67175 0.30744 0.85533 0.0
H373 H 0.68179 0.32547 0.82204 0.0
H374 H 0.72886 0.32395 0.84366 0.0
H375 H 0.529 0.14154 0.82493 0.0
H376 H 0.53995 0.09933 0.80677 0.0
H377 H 0.52987 0.14213 0.78929 0.0
C378 C 0.65386 1.01712 0.50084 0.0
C379 C 0.61066 1.01889 0.49567 0.0
C380 C 0.65452 0.97286 0.50352 0.0
C381 C 0.61097 0.92687 0.50119 0.0
C382 C 0.56721 0.92839 0.49605 0.0
C383 C 0.56757 0.9732 0.49341 0.0
C384 C 0.70265 0.97551 0.50888 0.0
C385 C 0.51923 0.88207 0.49326 0.0
C386 C 0.61358 0.80706 0.48319 0.0
C387 C 0.61285 0.78654 0.50788 0.0
C388 C 0.61285 0.85128 0.48081 0.0
C389 C 0.6113 0.87799 0.50361 0.0
C390 C 0.61046 0.85733 0.52865 0.0
C391 C 0.61123 0.81289 0.53046 0.0
C392 C 0.61381 0.86961 0.45347 0.0
C393 C 0.60877 0.88247 0.55392 0.0
H394 H 0.68793 1.05086 0.50281 0.0
H395 H 0.53341 0.97223 0.48954 0.0
H396 H 0.70445 0.95914 0.5278 0.0
H397 H 0.70664 0.95441 0.49249 0.0
H398 H 0.73349 1.01312 0.51052 0.0
H399 H 0.48819 0.8882 0.48981 0.0
H400 H 0.51706 0.85804 0.47624 0.0
H401 H 0.51592 0.86288 0.51165 0.0
H402 H 0.61481 0.78828 0.4653 0.0
H403 H 0.6106 0.79877 0.54984 0.0
H404 H 0.64598 0.90609 0.45368 0.0
H405 H 0.5814 0.87296 0.4483 0.0
H406 H 0.61479 0.84558 0.43755 0.0
H407 H 0.6408 0.91934 0.55732 0.0
H408 H 0.60797 0.86276 0.57184 0.0
H409 H 0.57624 0.88626 0.55171 0.0
C410 C 0.7578 0.63133 0.82197 0.0
C411 C 0.71281 0.58888 0.82337 0.0
C412 C 0.80348 0.63269 0.82477 0.0
C413 C 0.80702 0.59103 0.83049 0.0
C414 C 0.76165 0.54809 0.83217 0.0
C415 C 0.71619 0.54734 0.82813 0.0
C416 C 0.84804 0.67989 0.82146 0.0
C417 C 0.76087 0.50239 0.83885 0.0
C418 C 0.92282 0.57696 0.82416 0.0
C419 C 0.95235 0.59744 0.84918 0.0
C420 C 0.87706 0.57529 0.81758 0.0
C421 C 0.85741 0.59318 0.83643 0.0
C422 C 0.88734 0.61421 0.86145 0.0
C423 C 0.93341 0.61723 0.86696 0.0
C424 C 0.84999 0.55369 0.79005 0.0
C425 C 0.87074 0.63371 0.88316 0.0
H426 H 0.75752 0.6642 0.81825 0.0
H427 H 0.68298 0.5139 0.82957 0.0
H428 H 0.85978 0.70362 0.84037 0.0
H429 H 0.87842 0.67531 0.81647 0.0
H430 H 0.83986 0.69873 0.8054 0.0
H431 H 0.72503 0.47451 0.84393 0.0
H432 H 0.76936 0.48756 0.82134 0.0
H433 H 0.78877 0.50985 0.85601 0.0
H434 H 0.93498 0.5614 0.80955 0.0
H435 H 0.95479 0.63573 0.88593 0.0
H436 H 0.82449 0.56633 0.78378 0.0
H437 H 0.82922 0.51387 0.79005 0.0
H438 H 0.87557 0.56251 0.77491 0.0
H439 H 0.87777 0.6701 0.87881 0.0
H440 H 0.89034 0.63694 0.90324 0.0
H441 H 0.83138 0.61033 0.88403 0.0
C442 C 0.25865 0.80488 0.1725 0.0
C443 C 0.25367 0.76019 0.16353 0.0
C444 C 0.30396 0.84981 0.17561 0.0
C445 C 0.34754 0.85278 0.16898 0.0
C446 C 0.34264 0.80795 0.15935 0.0
C447 C 0.29702 0.76313 0.15719 0.0
C448 C 0.30525 0.89452 0.18668 0.0
C449 C 0.38602 0.80715 0.15111 0.0
C450 C 0.45938 0.98277 0.16017 0.0
C451 C 0.49034 0.99556 0.18474 0.0
C452 C 0.41454 0.93701 0.15445 0.0
C453 C 0.39781 0.90156 0.17365 0.0
C454 C 0.42951 0.91388 0.19806 0.0
C455 C 0.47438 0.95885 0.20288 0.0
C456 C 0.38447 0.92691 0.12767 0.0
C457 C 0.41539 0.87972 0.21985 0.0
H458 H 0.22675 0.80479 0.17775 0.0
H459 H 0.29532 0.73015 0.15009 0.0
H460 H 0.33147 0.91017 0.20521 0.0
H461 H 0.3178 0.92206 0.17197 0.0
H462 H 0.26932 0.88716 0.19144 0.0
H463 H 0.37598 0.77206 0.14045 0.0
H464 H 0.40499 0.83627 0.13787 0.0
H465 H 0.41192 0.81382 0.16915 0.0
H466 H 0.4694 1.00911 0.14548 0.0
H467 H 0.49706 0.96541 0.22166 0.0
H468 H 0.35114 0.92774 0.13048 0.0
H469 H 0.3732 0.89036 0.11864 0.0
H470 H 0.40428 0.95376 0.11344 0.0
H471 H 0.37967 0.87163 0.22537 0.0
H472 H 0.44218 0.89454 0.2382 0.0
H473 H 0.41175 0.84513 0.21245 0.0
C474 C 0.58415 0.30666 0.50826 0.0
C475 C 0.62061 0.30206 0.49695 0.0
C476 C 0.58429 0.35142 0.51125 0.0
C477 C 0.62146 0.39503 0.50255 0.0
C478 C 0.65817 0.39066 0.49081 0.0
C479 C 0.65751 0.3454 0.48837 0.0
C480 C 0.54428 0.35199 0.52427 0.0
C481 C 0.69873 0.4343 0.48067 0.0
C482 C 0.59869 0.50559 0.49394 0.0
C483 C 0.62228 0.5361 0.51802 0.0
C484 C 0.59892 0.46119 0.48839 0.0
C485 C 0.62304 0.44476 0.5071 0.0
C486 C 0.64787 0.47609 0.53095 0.0
C487 C 0.64757 0.52016 0.53581 0.0
C488 C 0.57221 0.43112 0.46238 0.0
C489 C 0.67434 0.46245 0.55208 0.0
H490 H 0.55502 0.2748 0.51521 0.0
H491 H 0.68622 0.34408 0.47947 0.0
H492 H 0.55979 0.37742 0.54264 0.0
H493 H 0.52516 0.36503 0.51045 0.0
H494 H 0.51753 0.31584 0.52982 0.0
H495 H 0.72291 0.4255 0.47054 0.0
H496 H 0.68375 0.45057 0.46636 0.0
H497 H 0.72057 0.46191 0.49766 0.0
H498 H 0.57858 0.51554 0.4796 0.0
H499 H 0.66735 0.54233 0.5543 0.0
H500 H 0.54093 0.39649 0.46658 0.0
H501 H 0.59614 0.4224 0.45195 0.0
H502 H 0.55877 0.4496 0.44875 0.0
H503 H 0.64861 0.42756 0.55939 0.0
H504 H 0.69235 0.48999 0.56951 0.0
H505 H 0.70208 0.45751 0.54332 0.0
C506 C 0.43763 0.64043 0.83027 0.0
C507 C 0.43885 0.59708 0.82696 0.0
C508 C 0.39386 0.64151 0.83307 0.0
C509 C 0.34793 0.59828 0.83271 0.0
C510 C 0.34901 0.55447 0.82943 0.0
C511 C 0.39323 0.55441 0.82669 0.0
C512 C 0.39696 0.68968 0.83641 0.0
C513 C 0.30278 0.50684 0.82874 0.0
C514 C 0.23749 0.59914 0.86235 0.0
C515 C 0.20755 0.59862 0.83958 0.0
C516 C 0.28214 0.5992 0.86051 0.0
C517 C 0.29937 0.59873 0.83523 0.0
C518 C 0.26913 0.59825 0.81226 0.0
C519 C 0.22479 0.59821 0.81467 0.0
C520 C 0.31116 0.59972 0.88599 0.0
C521 C 0.28367 0.59771 0.78468 0.0
H522 H 0.47134 0.6742 0.83067 0.0
H523 H 0.39181 0.52015 0.82425 0.0
H524 H 0.37365 0.69262 0.81973 0.0
H525 H 0.38325 0.69285 0.85536 0.0
H526 H 0.4345 0.72024 0.83675 0.0
H527 H 0.30855 0.47573 0.82641 0.0
H528 H 0.28652 0.50484 0.84751 0.0
H529 H 0.27627 0.5037 0.81184 0.0
H530 H 0.22603 0.59948 0.88191 0.0
H531 H 0.20324 0.5978 0.79663 0.0
H532 H 0.34808 0.63175 0.88785 0.0
H533 H 0.31509 0.56738 0.88526 0.0
H534 H 0.2942 0.6004 0.90412 0.0
H535 H 0.31975 0.6297 0.78357 0.0
H536 H 0.25738 0.59765 0.76865 0.0
H537 H 0.28675 0.56532 0.78072 0.0
C538 C 0.96798 0.43808 0.16076 0.0
C539 C 0.97181 0.48403 0.16245 0.0
C540 C 0.92386 0.39374 0.16339 0.0
C541 C 0.88016 0.39299 0.16774 0.0
C542 C 0.88374 0.43922 0.16918 0.0
C543 C 0.92842 0.48305 0.16681 0.0
C544 C 0.92416 0.34709 0.1615 0.0
C545 C 0.83993 0.44272 0.17346 0.0
C546 C 0.75263 0.27289 0.15006 0.0
C547 C 0.7398 0.25329 0.17494 0.0
C548 C 0.79681 0.31709 0.14754 0.0
C549 C 0.83137 0.34459 0.17035 0.0
C550 C 0.81844 0.32506 0.1956 0.0
C551 C 0.77389 0.28062 0.19755 0.0
C552 C 0.80649 0.33451 0.12004 0.0
C553 C 0.85209 0.35139 0.2209 0.0
H554 H 0.99999 0.43656 0.15754 0.0
H555 H 0.92912 0.51706 0.16832 0.0
H556 H 0.91346 0.32885 0.18015 0.0
H557 H 0.8972 0.32252 0.14464 0.0
H558 H 0.96019 0.35259 0.15834 0.0
H559 H 0.84594 0.47939 0.17086 0.0
H560 H 0.80827 0.41648 0.1592 0.0
H561 H 0.83083 0.43357 0.19405 0.0
H562 H 0.72779 0.2533 0.13214 0.0
H563 H 0.76587 0.26717 0.21705 0.0
H564 H 0.84112 0.33821 0.11537 0.0
H565 H 0.81026 0.3707 0.11962 0.0
H566 H 0.77722 0.30973 0.1041 0.0
H567 H 0.88797 0.35525 0.21934 0.0
H568 H 0.83806 0.33255 0.23901 0.0
H569 H 0.8576 0.38826 0.22349 0.0
C570 C 1.07169 0.64012 0.05829 0.0
C571 C 0.09343 0.61752 0.07253 0.0
C572 C 1.06682 0.63788 0.02991 0.0
C573 C 1.08335 0.61182 0.01521 0.0
C574 C 0.10507 0.58879 0.0295 0.0
C575 C 0.11008 0.59216 0.05777 0.0
C576 C 1.04398 0.6635 0.01562 0.0
C577 C 0.1226 0.55998 0.01489 0.0
C578 C 1.0278 0.56598 0.94207 0.0
C579 C 1.0639 0.59911 0.92765 0.0
C580 C 1.03383 0.56949 0.97037 0.0
C581 C 1.07687 0.60746 0.98493 0.0
C582 C 0.1138 0.64065 0.97048 0.0
C583 C 0.10702 0.63589 0.9421 0.0
C584 C 0.99384 0.53263 0.9847 0.0
C585 C 0.16013 0.68186 0.98503 0.0
H586 H 1.05888 0.66 0.06932 0.0
H587 H 0.12672 0.57423 0.06834 0.0
H588 H 1.06913 0.68925 0.00258 0.0
H589 H 1.01075 0.63706 0.00243 0.0
H590 H 1.03438 0.68351 0.02982 0.0
H591 H 0.13895 0.54442 0.02887 0.0
H592 H 0.09201 0.53016 0.00158 0.0
H593 H 0.14988 0.58313 0.00195 0.0
H594 H 0.99448 0.53725 0.93111 0.0
H595 H 0.13489 0.66196 0.93119 0.0
H596 H 0.98014 0.5507 -0.00258 0.0
H597 H 1.00799 0.51462 -0.0018 0.0
H598 H 0.9631 0.50468 0.97054 0.0
H599 H 0.15189 0.70491 -0.00226 0.0
H600 H 0.18538 0.70453 0.971 0.0
H601 H 0.17859 0.6678 -0.00143 0.0
C602 C 0.60248 0.11136 0.3919 0.0
C603 C 0.59848 0.14747 0.40566 0.0
C604 C 0.60025 0.10796 0.36371 0.0
C605 C 0.59618 0.14287 0.34882 0.0
C606 C 0.59328 0.18017 0.36278 0.0
C607 C 0.59339 0.18139 0.39093 0.0
C608 C 0.60154 0.06647 0.34981 0.0
C609 C 0.59102 0.21934 0.34803 0.0
C610 C 0.63192 0.14918 0.27764 0.0
C611 C 0.58668 0.12353 0.26173 0.0
C612 C 0.63564 0.15785 0.30576 0.0
C613 C 0.59322 0.1391 0.31867 0.0
C614 C 0.54759 0.11444 0.30272 0.0
C615 C 0.54496 0.10822 0.27463 0.0
C616 C 0.68513 0.1861 0.32174 0.0
C617 C 0.50126 0.09268 0.31539 0.0
H618 H 0.60645 0.0851 0.40323 0.0
H619 H 0.59114 0.20985 0.40154 0.0
H620 H 0.56915 1.04614 0.33468 0.0
H621 H 0.63373 0.08029 0.33896 0.0
H622 H 0.60266 1.04121 0.3641 0.0
H623 H 0.59178 0.24731 0.36188 0.0
H624 H 0.62199 0.23689 0.33623 0.0
H625 H 0.55753 0.20364 0.33361 0.0
H626 H 0.66461 0.16135 0.26831 0.0
H627 H 0.50968 0.09022 0.26282 0.0
H628 H 0.69265 0.16161 0.33368 0.0
H629 H 0.68669 0.2139 0.33606 0.0
H630 H 0.71406 0.20404 0.30864 0.0
H631 H 0.50049 0.06624 0.32935 0.0
H632 H 0.46861 0.0741 0.30026 0.0
H633 H 0.49935 0.121 0.32737 0.0
C634 C 0.55215 0.57684 0.71598 0.0
C635 C 0.58169 0.61484 0.73579 0.0
C636 C 0.55732 0.58207 0.68852 0.0
C637 C 0.59274 0.62656 0.6803 0.0
C638 C 0.622 0.66546 0.70008 0.0
C639 C 0.61629 0.65913 0.7275 0.0
C640 C 0.52551 0.5394 0.66832 0.0
C641 C 0.65998 0.71362 0.69232 0.0
C642 C 0.63759 0.61997 0.61337 0.0
C643 C 0.60977 0.63169 0.5952 0.0
C644 C 0.63323 0.61932 0.64101 0.0
C645 C 0.60057 0.63123 0.65117 0.0
C646 C 0.57375 0.64499 0.63318 0.0
C647 C 0.57858 0.64499 0.60549 0.0
C648 C 0.66268 0.60447 0.65924 0.0
C649 C 0.5388 0.65834 0.64306 0.0
H650 H 0.52531 0.54237 0.72192 0.0
H651 H 0.63932 0.68886 0.74247 0.0
H652 H 0.50598 0.54926 0.65273 0.0
H653 H 0.54817 0.52872 0.65801 0.0
H654 H 0.49858 0.50778 0.67776 0.0
H655 H 0.67781 0.74112 0.70978 0.0
H656 H 0.68804 0.70961 0.68328 0.0
H657 H 0.64354 0.72696 0.67692 0.0
H658 H 0.66264 0.61065 0.60589 0.0
H659 H 0.55671 0.65392 0.59179 0.0
H660 H 0.63818 0.57086 0.66814 0.0
H661 H 0.68399 0.63263 0.67606 0.0
H662 H 0.68786 0.59813 0.64847 0.0
H663 H 0.50857 0.62634 0.65042 0.0
H664 H 0.52355 0.67188 0.62708 0.0
H665 H 0.55702 0.6864 0.66019 0.0
C666 C 0.69019 0.20128 0.58444 0.0
C667 C 0.64369 0.16648 0.57247 0.0
C668 C 0.70499 0.20235 0.6117 0.0
C669 C 0.67242 0.16798 0.6275 0.0
C670 C 0.62545 0.13263 0.6156 0.0
C671 C 0.61165 0.13221 0.58816 0.0
C672 C 0.75542 0.24054 0.62363 0.0
C673 C 0.58968 0.09559 0.63192 0.0
C674 C 0.72501 0.14995 0.69426 0.0
C675 C 0.71712 0.17874 0.71218 0.0
C676 C 0.71016 0.14559 0.6666 0.0
C677 C 0.68698 0.17066 0.65674 0.0
C678 C 0.67917 0.19991 0.67474 0.0
C679 C 0.69456 0.20379 0.70217 0.0
C680 C 0.71923 0.11423 0.64792 0.0
C681 C 0.65478 0.22738 0.66502 0.0
H682 H 0.71542 0.22769 0.57245 0.0
H683 H 0.57576 0.10509 0.57904 0.0
H684 H 0.75348 0.26405 0.63945 0.0
H685 H 0.77484 0.22345 0.6333 0.0
H686 H 0.77695 0.26346 0.60835 0.0
H687 H 0.55507 0.06973 0.6195 0.0
H688 H 0.60531 0.07513 0.64169 0.0
H689 H 0.5819 0.11387 0.64813 0.0
H690 H 0.74207 0.13024 0.70193 0.0
H691 H 0.68915 0.22682 0.71586 0.0
H692 H 0.74235 0.13618 0.63291 0.0
H693 H 0.68456 0.08583 0.63668 0.0
H694 H 0.73717 0.0967 0.65879 0.0
H695 H 0.67653 0.2536 0.65103 0.0
H696 H 0.65 0.24727 0.68176 0.0
H697 H 0.61877 0.20224 0.65374 0.0
C698 C 0.61499 0.54693 0.90693 0.0
C699 C 0.5841 0.56388 0.89805 0.0
C700 C 0.61045 0.52509 0.931 0.0
C701 C 0.57321 0.51896 0.94615 0.0
C702 C 0.5436 0.53849 0.93802 0.0
C703 C 0.54975 0.56128 0.91404 0.0
C704 C 0.64355 0.50586 0.93927 0.0
C705 C 0.50316 0.53212 0.9535 0.0
C706 C 0.52639 0.4081 0.985 0.0
C707 C 0.54927 0.42809 0.01106 0.0
C708 C 0.53244 0.43754 0.96391 0.0
C709 C 0.5627 0.48816 0.96891 0.0
C710 C 0.58533 0.50867 -0.0048 0.0
C711 C 0.57796 0.47845 0.01599 0.0
C712 C 0.50734 0.41434 0.93613 0.0
C713 C 0.61829 0.56241 0.00122 0.0
H714 H 0.64153 0.54903 0.8944 0.0
H715 H 0.52546 0.57382 0.90685 0.0
H716 H 0.65845 0.51689 0.96075 0.0
H717 H 0.62276 0.46589 0.93679 0.0
H718 H 0.67409 0.51865 0.92709 0.0
H719 H 0.48744 0.55434 0.94648 0.0
H720 H 0.47408 0.49369 0.951 0.0
H721 H 0.51611 0.54175 0.97526 0.0
H722 H 0.50442 0.36931 0.98094 0.0
H723 H 0.59472 0.49442 0.03619 0.0
H724 H 0.53461 0.42008 0.92252 0.0
H725 H 0.4868 0.43128 0.92779 0.0
H726 H 0.48205 0.37497 0.93602 0.0
H727 H 0.65003 0.5749 0.99005 0.0
H728 H 0.63144 0.57284 0.02296 0.0
H729 H 0.59923 0.58163 -0.00565 0.0
C730 C 0.16286 0.66158 0.25785 0.0
C731 C 0.13515 0.61958 0.24049 0.0
C732 C 0.17507 0.65891 0.28513 0.0
C733 C 0.1585 0.61319 0.29516 0.0
C734 C 0.12898 0.57078 0.27787 0.0
C735 C 0.11793 0.57451 0.25074 0.0
C736 C 0.20682 0.70488 0.30301 0.0
C737 C 0.10988 0.52137 0.28788 0.0
C738 C 0.22674 0.59907 0.35681 0.0
C739 C 0.1984 0.59698 0.37679 0.0
C740 C 0.21474 0.60546 0.33024 0.0
C741 C 0.17313 0.6093 0.32352 0.0
C742 C 0.14426 0.60697 0.34361 0.0
C743 C 0.15735 0.601 0.37003 0.0
C744 C 0.24652 0.60802 0.30936 0.0
C745 C 0.09923 0.61017 0.33712 0.0
H746 H 0.17634 0.69645 0.24995 0.0
H747 H 0.09601 0.54188 0.23745 0.0
H748 H 0.18903 0.70527 0.3208 0.0
H749 H 0.24133 0.7068 0.31051 0.0
H750 H 0.21513 0.73748 0.29239 0.0
H751 H 1.08529 0.49204 0.27213 0.0
H752 H 0.14046 0.51599 0.29484 0.0
H753 H 0.09004 0.51818 0.3053 0.0
H754 H 0.25882 0.5966 0.36208 0.0
H755 H 0.13517 0.59901 0.38544 0.0
H756 H 0.25909 0.64196 0.29944 0.0
H757 H 0.22549 0.57775 0.29357 0.0
H758 H 0.27862 0.60633 0.31807 0.0
H759 H 0.10823 0.64402 0.32776 0.0
H760 H 1.08147 0.60905 0.35521 0.0
H761 H 1.07298 0.57984 0.32236 0.0
loop_
_geom_bond_atom_site_label_1
_geom_bond_atom_site_label_2
_geom_bond_distance
_geom_bond_site_symmetry_2
_ccdc_geom_bond_type
Tb0 C10 2.825 . S
Tb0 O11 2.347 . S
Tb0 O14 2.366 . S
Tb0 O19 2.418 . S
Tb0 O20 2.384 1_455 S
Tb0 O23 2.479 . S
Tb0 O24 2.471 . S
Eu1 O12 2.418 . S
Eu1 O13 2.384 . S
Eu1 O16 2.479 1_455 S
Eu1 O17 2.471 1_455 S
Eu1 O18 2.347 . S
Eu1 O21 2.366 1_455 S
Eu1 C31 2.825 1_455 S
C2 O18 1.259 . S
C2 O19 1.265 . S
C3 O20 1.255 . S
C3 O21 1.265 . S
C4 C6 1.380 . S
C4 C7 1.374 . S
C4 C10 1.507 . S
C5 C6 1.384 . S
C5 C9 1.387 . S
C5 H32 0.930 . S
C6 C4 1.380 . S
C6 C5 1.384 . S
C6 H33 0.931 . S
C7 C4 1.374 . S
C7 C8 1.390 . S
C7 H34 0.930 . S
C8 C7 1.390 . S
C8 C9 1.391 . S
C8 H35 0.930 . S
C9 C5 1.387 . S
C9 C8 1.391 . S
C10 Tb0 2.825 . S
C10 C4 1.507 . S
C10 O23 1.238 . S
C10 O24 1.247 . S
O11 Tb0 2.347 . S
O11 C15 1.259 . S
O12 Eu1 2.418 . S
O12 C15 1.265 . S
O13 Eu1 2.384 . S
O13 C22 1.255 . S
O14 Tb0 2.366 . S
O14 C22 1.265 . S
C15 O11 1.259 . S
C15 O12 1.265 . S
O16 Eu1 2.479 1_655 S
O16 C31 1.238 . S
O17 Eu1 2.471 1_655 S
O17 C31 1.247 . S
O18 Eu1 2.347 . S
O18 C2 1.259 . S
O19 Tb0 2.418 . S
O19 C2 1.265 . S
O20 Tb0 2.384 1_655 S
O20 C3 1.255 . S
O21 Eu1 2.366 1_655 S
O21 C3 1.265 . S
C22 O13 1.255 . S
C22 O14 1.265 . S
O23 Tb0 2.479 . S
O23 C10 1.238 . S
O24 Tb0 2.471 . S
O24 C10 1.247 . S
C25 C28 1.380 . S
C25 C29 1.374 . S
C25 C31 1.507 . S
C26 C27 1.387 . S
C26 C30 1.391 . S
C27 C26 1.387 . S
C27 C28 1.384 . S
C27 H36 0.930 . S
C28 C25 1.380 . S
C28 C27 1.384 . S
C28 H37 0.931 . S
C29 C25 1.374 . S
C29 C30 1.390 . S
C29 H38 0.930 . S
C30 C26 1.391 . S
C30 C29 1.390 . S
C30 H39 0.930 . S
C31 Eu1 2.825 1_655 S
C31 O16 1.238 . S
C31 O17 1.247 . S
C31 C25 1.507 . S
H32 C5 0.930 . S
H33 C6 0.931 . S
H34 C7 0.930 . S
H35 C8 0.930 . S
H36 C27 0.930 . S
H37 C28 0.931 . S
H38 C29 0.930 . S
H39 C30 0.930 . S
Tb40 C50 2.825 . S
Tb40 O51 2.347 . S
Tb40 O54 2.366 . S
Tb40 O59 2.418 . S
Tb40 O60 2.384 . S
Tb40 O63 2.479 . S
Tb40 O64 2.471 . S
Eu41 O52 2.418 . S
Eu41 O53 2.384 . S
Eu41 O56 2.479 1_545 S
Eu41 O57 2.471 1_545 S
Eu41 O58 2.347 . S
Eu41 O61 2.366 1_545 S
Eu41 C71 2.825 1_545 S
C42 O58 1.259 . S
C42 O59 1.265 . S
C43 O60 1.255 1_565 S
C43 O61 1.265 . S
C44 C46 1.380 . S
C44 C47 1.374 . S
C44 C50 1.507 . S
C45 C46 1.384 . S
C45 C49 1.387 . S
C45 H72 0.930 . S
C46 C44 1.380 . S
C46 C45 1.384 . S
C46 H73 0.931 . S
C47 C44 1.374 . S
C47 C48 1.390 . S
C47 H74 0.930 . S
C48 C47 1.390 . S
C48 C49 1.391 . S
C48 H75 0.930 . S
C49 C45 1.387 . S
C49 C48 1.391 . S
C50 Tb40 2.825 . S
C50 C44 1.507 . S
C50 O63 1.238 . S
C50 O64 1.247 . S
O51 Tb40 2.347 . S
O51 C55 1.259 . S
O52 Eu41 2.418 . S
O52 C55 1.265 . S
O53 Eu41 2.384 . S
O53 C62 1.255 . S
O54 Tb40 2.366 . S
O54 C62 1.265 . S
C55 O51 1.259 . S
C55 O52 1.265 . S
O56 Eu41 2.479 1_565 S
O56 C71 1.238 . S
O57 Eu41 2.471 1_565 S
O57 C71 1.247 . S
O58 Eu41 2.347 . S
O58 C42 1.259 . S
O59 Tb40 2.418 . S
O59 C42 1.265 . S
O60 Tb40 2.384 . S
O60 C43 1.255 1_545 S
O61 Eu41 2.366 1_565 S
O61 C43 1.265 . S
C62 O53 1.255 . S
C62 O54 1.265 . S
O63 Tb40 2.479 . S
O63 C50 1.238 . S
O64 Tb40 2.471 . S
O64 C50 1.247 . S
C65 C68 1.380 . S
C65 C69 1.374 . S
C65 C71 1.507 . S
C66 C67 1.387 . S
C66 C70 1.391 . S
C67 C66 1.387 . S
C67 C68 1.384 . S
C67 H76 0.930 . S
C68 C65 1.380 . S
C68 C67 1.384 . S
C68 H77 0.931 . S
C69 C65 1.374 . S
C69 C70 1.390 . S
C69 H78 0.930 . S
C70 C66 1.391 . S
C70 C69 1.390 . S
C70 H79 0.930 . S
C71 Eu41 2.825 1_565 S
C71 O56 1.238 . S
C71 O57 1.247 . S
C71 C65 1.507 . S
H72 C45 0.930 . S
H73 C46 0.931 . S
H74 C47 0.930 . S
H75 C48 0.930 . S
H76 C67 0.930 . S
H77 C68 0.931 . S
H78 C69 0.930 . S
H79 C70 0.930 . S
Tb80 C90 2.825 . S
Tb80 O91 2.347 . S
Tb80 O94 2.366 . S
Tb80 O99 2.418 . S
Tb80 O100 2.384 . S
Tb80 O103 2.479 . S
Tb80 O104 2.471 . S
Eu81 O92 2.418 . S
Eu81 O93 2.384 . S
Eu81 O96 2.479 . S
Eu81 O97 2.471 . S
Eu81 O98 2.347 . S
Eu81 O101 2.366 . S
Eu81 C111 2.825 . S
C82 O98 1.259 . S
C82 O99 1.265 . S
C83 O100 1.255 . S
C83 O101 1.265 . S
C84 C86 1.380 . S
C84 C87 1.374 . S
C84 C90 1.507 . S
C85 C86 1.384 . S
C85 C89 1.387 . S
C85 H112 0.930 . S
C86 C84 1.380 . S
C86 C85 1.384 . S
C86 H113 0.931 . S
C87 C84 1.374 . S
C87 C88 1.390 . S
C87 H114 0.930 . S
C88 C87 1.390 . S
C88 C89 1.391 . S
C88 H115 0.930 . S
C89 C85 1.387 . S
C89 C88 1.391 . S
C90 Tb80 2.825 . S
C90 C84 1.507 . S
C90 O103 1.238 . S
C90 O104 1.247 . S
O91 Tb80 2.347 . S
O91 C95 1.259 . S
O92 Eu81 2.418 . S
O92 C95 1.265 . S
O93 Eu81 2.384 . S
O93 C102 1.255 . S
O94 Tb80 2.366 . S
O94 C102 1.265 . S
C95 O91 1.259 . S
C95 O92 1.265 . S
O96 Eu81 2.479 . S
O96 C111 1.238 . S
O97 Eu81 2.471 . S
O97 C111 1.247 . S
O98 Eu81 2.347 . S
O98 C82 1.259 . S
O99 Tb80 2.418 . S
O99 C82 1.265 . S
O100 Tb80 2.384 . S
O100 C83 1.255 . S
O101 Eu81 2.366 . S
O101 C83 1.265 . S
C102 O93 1.255 . S
C102 O94 1.265 . S
O103 Tb80 2.479 . S
O103 C90 1.238 . S
O104 Tb80 2.471 . S
O104 C90 1.247 . S
C105 C108 1.380 . S
C105 C109 1.374 . S
C105 C111 1.507 . S
C106 C107 1.387 . S
C106 C110 1.391 . S
C107 C106 1.387 . S
C107 C108 1.384 . S
C107 H116 0.930 . S
C108 C105 1.380 . S
C108 C107 1.384 . S
C108 H117 0.931 . S
C109 C105 1.374 . S
C109 C110 1.390 . S
C109 H118 0.930 . S
C110 C106 1.391 . S
C110 C109 1.390 . S
C110 H119 0.930 . S
C111 Eu81 2.825 . S
C111 O96 1.238 . S
C111 O97 1.247 . S
C111 C105 1.507 . S
H112 C85 0.930 . S
H113 C86 0.931 . S
H114 C87 0.930 . S
H115 C88 0.930 . S
H116 C107 0.930 . S
H117 C108 0.931 . S
H118 C109 0.930 . S
H119 C110 0.930 . S
H120 C123 0.929 1_565 S
H121 C126 0.929 . S
H122 C128 0.930 . S
C123 H120 0.929 1_545 S
C123 C124 1.398 . S
C123 C125 1.396 . S
C124 C123 1.398 . S
C124 C128 1.407 . S
C125 C123 1.396 . S
C125 C126 1.394 . S
C126 H121 0.929 . S
C126 C125 1.394 . S
C126 C127 1.382 . S
C127 C126 1.382 . S
C127 C128 1.392 . S
C127 N129 1.420 . S
C128 H122 0.930 . S
C128 C124 1.407 . S
C128 C127 1.392 . S
N129 C127 1.420 . S
N129 C130 1.244 . S
C130 N129 1.244 . S
H131 C134 0.929 . S
H132 C137 0.929 . S
H133 C139 0.930 . S
C134 H131 0.929 . S
C134 C135 1.398 . S
C134 C136 1.396 . S
C135 C134 1.398 . S
C135 C139 1.407 . S
C136 C134 1.396 . S
C136 C137 1.394 . S
C137 H132 0.929 . S
C137 C136 1.394 . S
C137 C138 1.382 . S
C138 C137 1.382 . S
C138 C139 1.392 . S
C138 N140 1.420 . S
C139 H133 0.930 . S
C139 C135 1.407 . S
C139 C138 1.392 . S
N140 C138 1.420 . S
N140 C141 1.244 . S
C141 N140 1.244 . S
H142 C145 0.929 . S
H143 C148 0.929 . S
H144 C150 0.930 1_655 S
C145 H142 0.929 . S
C145 C146 1.398 . S
C145 C147 1.396 1_655 S
C146 C145 1.398 . S
C146 C150 1.407 1_655 S
C147 C145 1.396 1_455 S
C147 C148 1.394 . S
C148 H143 0.929 . S
C148 C147 1.394 . S
C148 C149 1.382 . S
C149 C148 1.382 . S
C149 C150 1.392 . S
C149 N151 1.420 . S
C150 H144 0.930 1_455 S
C150 C146 1.407 1_455 S
C150 C149 1.392 . S
N151 C149 1.420 . S
N151 C152 1.244 . S
C152 N151 1.244 . S
H153 C156 0.929 . S
H154 C159 0.925 1_655 S
H155 C161 0.930 . S
C156 H153 0.929 . S
C156 C157 1.398 . S
C156 C158 1.396 . S
C157 C156 1.398 . S
C157 C161 1.407 . S
C158 C156 1.396 . S
C158 C159 1.398 . S
C159 H154 0.925 1_455 S
C159 C158 1.398 . S
C159 C160 1.381 . S
C160 C159 1.381 . S
C160 C161 1.392 . S
C160 N162 1.420 1_455 S
C161 H155 0.930 . S
C161 C157 1.407 . S
C161 C160 1.392 . S
N162 C160 1.420 1_655 S
N162 C163 1.244 . S
C163 N162 1.244 . S
H164 C167 0.929 . S
H165 C170 0.929 1_565 S
H166 C172 0.930 . S
C167 H164 0.929 . S
C167 C168 1.398 . S
C167 C169 1.396 . S
C168 C167 1.398 . S
C168 C172 1.407 . S
C169 C167 1.396 . S
C169 C170 1.394 . S
C170 H165 0.929 1_545 S
C170 C169 1.394 . S
C170 C171 1.382 . S
C171 C170 1.382 . S
C171 C172 1.392 . S
C171 N173 1.420 1_545 S
C172 H166 0.930 . S
C172 C168 1.407 . S
C172 C171 1.392 . S
N173 C171 1.420 1_565 S
N173 C174 1.244 . S
C174 N173 1.244 . S
H175 C178 0.929 . S
H176 C181 0.929 . S
H177 C183 0.930 . S
C178 H175 0.929 . S
C178 C179 1.398 . S
C178 C180 1.396 . S
C179 C178 1.398 . S
C179 C183 1.407 . S
C180 C178 1.396 . S
C180 C181 1.394 . S
C181 H176 0.929 . S
C181 C180 1.394 . S
C181 C182 1.382 . S
C182 C181 1.382 . S
C182 C183 1.392 . S
C182 N184 1.420 . S
C183 H177 0.930 . S
C183 C179 1.407 . S
C183 C182 1.392 . S
N184 C182 1.420 . S
N184 C185 1.244 . S
C185 N184 1.244 . S
C186 C187 1.391 . S
C186 C188 1.394 . S
C186 H202 0.931 . S
C187 C186 1.391 . S
C187 C191 1.376 . S
C188 C186 1.394 . S
C188 C189 1.369 . S
C188 C192 1.531 . S
C189 C188 1.369 . S
C189 C190 1.410 . S
C189 C197 1.503 . S
C190 C189 1.410 . S
C190 C191 1.392 . S
C190 C193 1.511 . S
C191 C187 1.376 . S
C191 C190 1.392 . S
C191 H203 0.929 . S
C192 C188 1.531 . S
C192 H204 0.960 . S
C192 H205 0.962 . S
C192 H206 0.960 . S
C193 C190 1.511 . S
C193 H207 0.961 . S
C193 H208 0.961 . S
C193 H209 0.961 . S
C194 C195 1.370 . S
C194 C196 1.363 . S
C194 H210 0.931 . S
C195 C194 1.370 . S
C195 C199 1.408 . S
C196 C194 1.363 . S
C196 C197 1.370 . S
C196 C200 1.524 . S
C197 C189 1.503 . S
C197 C196 1.370 . S
C197 C198 1.403 . S
C198 C197 1.403 . S
C198 C199 1.404 . S
C198 C201 1.539 . S
C199 C195 1.408 . S
C199 C198 1.404 . S
C199 H211 0.930 . S
C200 C196 1.524 . S
C200 H212 0.956 . S
C200 H213 0.961 . S
C200 H214 0.961 . S
C201 C198 1.539 . S
C201 H215 0.958 . S
C201 H216 0.961 . S
C201 H217 0.960 . S
H202 C186 0.931 . S
H203 C191 0.929 . S
H204 C192 0.960 . S
H205 C192 0.962 . S
H206 C192 0.960 . S
H207 C193 0.961 . S
H208 C193 0.961 . S
H209 C193 0.961 . S
H210 C194 0.931 . S
H211 C199 0.930 . S
H212 C200 0.956 . S
H213 C200 0.961 . S
H214 C200 0.961 . S
H215 C201 0.958 . S
H216 C201 0.961 . S
H217 C201 0.960 . S
C218 C219 1.391 . S
C218 C220 1.394 . S
C218 H234 0.931 . S
C219 C218 1.391 . S
C219 C223 1.376 . S
C220 C218 1.394 . S
C220 C221 1.369 . S
C220 C224 1.531 . S
C221 C220 1.369 . S
C221 C222 1.410 . S
C221 C229 1.503 . S
C222 C221 1.410 . S
C222 C223 1.392 . S
C222 C225 1.511 . S
C223 C219 1.376 . S
C223 C222 1.392 . S
C223 H235 0.929 . S
C224 C220 1.531 . S
C224 H236 0.960 . S
C224 H237 0.962 . S
C224 H238 0.960 . S
C225 C222 1.511 . S
C225 H239 0.961 . S
C225 H240 0.961 . S
C225 H241 0.961 . S
C226 C227 1.370 . S
C226 C228 1.363 . S
C226 H242 0.931 . S
C227 C226 1.370 . S
C227 C231 1.408 . S
C228 C226 1.363 . S
C228 C229 1.370 . S
C228 C232 1.524 . S
C229 C221 1.503 . S
C229 C228 1.370 . S
C229 C230 1.403 . S
C230 C229 1.403 . S
C230 C231 1.404 . S
C230 C233 1.539 . S
C231 C227 1.408 . S
C231 C230 1.404 . S
C231 H243 0.930 . S
C232 C228 1.524 . S
C232 H244 0.956 . S
C232 H245 0.961 . S
C232 H246 0.961 . S
C233 C230 1.539 . S
C233 H247 0.958 . S
C233 H248 0.961 . S
C233 H249 0.960 . S
H234 C218 0.931 . S
H235 C223 0.929 . S
H236 C224 0.960 . S
H237 C224 0.962 . S
H238 C224 0.960 . S
H239 C225 0.961 . S
H240 C225 0.961 . S
H241 C225 0.961 . S
H242 C226 0.931 . S
H243 C231 0.930 . S
H244 C232 0.956 . S
H245 C232 0.961 . S
H246 C232 0.961 . S
H247 C233 0.958 . S
H248 C233 0.961 . S
H249 C233 0.960 . S
C250 C251 1.391 . S
C250 C252 1.394 . S
C250 H266 0.931 . S
C251 C250 1.391 . S
C251 C255 1.376 . S
C252 C250 1.394 . S
C252 C253 1.369 . S
C252 C256 1.531 . S
C253 C252 1.369 . S
C253 C254 1.410 . S
C253 C261 1.503 . S
C254 C253 1.410 . S
C254 C255 1.392 . S
C254 C257 1.511 . S
C255 C251 1.376 . S
C255 C254 1.392 . S
C255 H267 0.929 . S
C256 C252 1.531 . S
C256 H268 0.960 . S
C256 H269 0.962 . S
C256 H270 0.960 . S
C257 C254 1.511 . S
C257 H271 0.961 . S
C257 H272 0.961 . S
C257 H273 0.961 . S
C258 C259 1.370 . S
C258 C260 1.363 . S
C258 H274 0.931 . S
C259 C258 1.370 . S
C259 C263 1.408 . S
C260 C258 1.363 . S
C260 C261 1.370 . S
C260 C264 1.524 . S
C261 C253 1.503 . S
C261 C260 1.370 . S
C261 C262 1.403 . S
C262 C261 1.403 . S
C262 C263 1.404 . S
C262 C265 1.539 . S
C263 C259 1.408 . S
C263 C262 1.404 . S
C263 H275 0.930 . S
C264 C260 1.524 . S
C264 H276 0.956 . S
C264 H277 0.961 . S
C264 H278 0.961 . S
C265 C262 1.539 . S
C265 H279 0.958 . S
C265 H280 0.961 . S
C265 H281 0.960 . S
H266 C250 0.931 . S
H267 C255 0.929 . S
H268 C256 0.960 . S
H269 C256 0.962 . S
H270 C256 0.960 . S
H271 C257 0.961 . S
H272 C257 0.961 . S
H273 C257 0.961 . S
H274 C258 0.931 . S
H275 C263 0.930 . S
H276 C264 0.956 . S
H277 C264 0.961 . S
H278 C264 0.961 . S
H279 C265 0.958 . S
H280 C265 0.961 . S
H281 C265 0.960 . S
C282 C283 1.391 . S
C282 C284 1.394 . S
C282 H298 0.931 . S
C283 C282 1.391 . S
C283 C287 1.376 . S
C284 C282 1.394 . S
C284 C285 1.369 . S
C284 C288 1.531 . S
C285 C284 1.369 . S
C285 C286 1.410 . S
C285 C293 1.503 . S
C286 C285 1.410 . S
C286 C287 1.392 . S
C286 C289 1.511 . S
C287 C283 1.376 . S
C287 C286 1.392 . S
C287 H299 0.929 . S
C288 C284 1.531 . S
C288 H300 0.960 . S
C288 H301 0.962 . S
C288 H302 0.960 . S
C289 C286 1.511 . S
C289 H303 0.961 . S
C289 H304 0.961 . S
C289 H305 0.961 . S
C290 C291 1.370 . S
C290 C292 1.363 . S
C290 H306 0.931 . S
C291 C290 1.370 . S
C291 C295 1.408 . S
C292 C290 1.363 . S
C292 C293 1.370 . S
C292 C296 1.524 . S
C293 C285 1.503 . S
C293 C292 1.370 . S
C293 C294 1.403 . S
C294 C293 1.403 . S
C294 C295 1.404 . S
C294 C297 1.539 . S
C295 C291 1.408 . S
C295 C294 1.404 . S
C295 H307 0.930 . S
C296 C292 1.524 . S
C296 H308 0.956 . S
C296 H309 0.961 . S
C296 H310 0.961 . S
C297 C294 1.539 . S
C297 H311 0.958 . S
C297 H312 0.961 . S
C297 H313 0.960 . S
H298 C282 0.931 . S
H299 C287 0.929 . S
H300 C288 0.960 . S
H301 C288 0.962 . S
H302 C288 0.960 . S
H303 C289 0.961 . S
H304 C289 0.961 . S
H305 C289 0.961 . S
H306 C290 0.931 . S
H307 C295 0.930 . S
H308 C296 0.956 . S
H309 C296 0.961 . S
H310 C296 0.961 . S
H311 C297 0.958 . S
H312 C297 0.961 . S
H313 C297 0.960 . S
C314 C315 1.391 . S
C314 C316 1.394 . S
C314 H330 0.931 . S
C315 C314 1.391 . S
C315 C319 1.376 . S
C316 C314 1.394 . S
C316 C317 1.369 . S
C316 C320 1.531 . S
C317 C316 1.369 . S
C317 C318 1.410 . S
C317 C325 1.503 . S
C318 C317 1.410 . S
C318 C319 1.392 . S
C318 C321 1.511 . S
C319 C315 1.376 . S
C319 C318 1.392 . S
C319 H331 0.929 . S
C320 C316 1.531 . S
C320 H332 0.960 . S
C320 H333 0.962 . S
C320 H334 0.960 . S
C321 C318 1.511 . S
C321 H335 0.961 . S
C321 H336 0.961 . S
C321 H337 0.961 . S
C322 C323 1.370 . S
C322 C324 1.363 . S
C322 H338 0.931 . S
C323 C322 1.370 . S
C323 C327 1.408 . S
C324 C322 1.363 . S
C324 C325 1.370 . S
C324 C328 1.524 . S
C325 C317 1.503 . S
C325 C324 1.370 . S
C325 C326 1.403 . S
C326 C325 1.403 . S
C326 C327 1.404 . S
C326 C329 1.539 . S
C327 C323 1.408 . S
C327 C326 1.404 . S
C327 H339 0.930 . S
C328 C324 1.524 . S
C328 H340 0.956 . S
C328 H341 0.961 . S
C328 H342 0.961 . S
C329 C326 1.539 . S
C329 H343 0.958 . S
C329 H344 0.961 . S
C329 H345 0.960 . S
H330 C314 0.931 . S
H331 C319 0.929 . S
H332 C320 0.960 . S
H333 C320 0.962 . S
H334 C320 0.960 . S
H335 C321 0.961 . S
H336 C321 0.961 . S
H337 C321 0.961 . S
H338 C322 0.931 . S
H339 C327 0.930 . S
H340 C328 0.956 . S
H341 C328 0.961 . S
H342 C328 0.961 . S
H343 C329 0.958 . S
H344 C329 0.961 . S
H345 C329 0.960 . S
C346 C347 1.391 . S
C346 C348 1.394 . S
C346 H362 0.931 . S
C347 C346 1.391 . S
C347 C351 1.376 . S
C348 C346 1.394 . S
C348 C349 1.369 . S
C348 C352 1.531 . S
C349 C348 1.369 . S
C349 C350 1.410 . S
C349 C357 1.503 . S
C350 C349 1.410 . S
C350 C351 1.392 . S
C350 C353 1.511 . S
C351 C347 1.376 . S
C351 C350 1.392 . S
C351 H363 0.929 . S
C352 C348 1.531 . S
C352 H364 0.960 . S
C352 H365 0.962 . S
C352 H366 0.960 . S
C353 C350 1.511 . S
C353 H367 0.961 . S
C353 H368 0.961 . S
C353 H369 0.961 . S
C354 C355 1.370 . S
C354 C356 1.363 . S
C354 H370 0.931 . S
C355 C354 1.370 . S
C355 C359 1.408 . S
C356 C354 1.363 . S
C356 C357 1.370 . S
C356 C360 1.524 . S
C357 C349 1.503 . S
C357 C356 1.370 . S
C357 C358 1.403 . S
C358 C357 1.403 . S
C358 C359 1.404 . S
C358 C361 1.539 . S
C359 C355 1.408 . S
C359 C358 1.404 . S
C359 H371 0.930 . S
C360 C356 1.524 . S
C360 H372 0.956 . S
C360 H373 0.961 . S
C360 H374 0.961 . S
C361 C358 1.539 . S
C361 H375 0.958 . S
C361 H376 0.961 . S
C361 H377 0.960 . S
H362 C346 0.931 . S
H363 C351 0.929 . S
H364 C352 0.960 . S
H365 C352 0.962 . S
H366 C352 0.960 . S
H367 C353 0.961 . S
H368 C353 0.961 . S
H369 C353 0.961 . S
H370 C354 0.931 . S
H371 C359 0.930 . S
H372 C360 0.956 . S
H373 C360 0.961 . S
H374 C360 0.961 . S
H375 C361 0.958 . S
H376 C361 0.961 . S
H377 C361 0.960 . S
C378 C379 1.391 . S
C378 C380 1.394 . S
C378 H394 0.931 . S
C379 C378 1.391 . S
C379 C383 1.376 . S
C380 C378 1.394 . S
C380 C381 1.369 . S
C380 C384 1.531 . S
C381 C380 1.369 . S
C381 C382 1.410 . S
C381 C389 1.503 . S
C382 C381 1.410 . S
C382 C383 1.392 . S
C382 C385 1.511 . S
C383 C379 1.376 . S
C383 C382 1.392 . S
C383 H395 0.929 . S
C384 C380 1.531 . S
C384 H396 0.960 . S
C384 H397 0.962 . S
C384 H398 0.960 . S
C385 C382 1.511 . S
C385 H399 0.961 . S
C385 H400 0.961 . S
C385 H401 0.961 . S
C386 C387 1.370 . S
C386 C388 1.363 . S
C386 H402 0.931 . S
C387 C386 1.370 . S
C387 C391 1.408 . S
C388 C386 1.363 . S
C388 C389 1.370 . S
C388 C392 1.524 . S
C389 C381 1.503 . S
C389 C388 1.370 . S
C389 C390 1.403 . S
C390 C389 1.403 . S
C390 C391 1.404 . S
C390 C393 1.539 . S
C391 C387 1.408 . S
C391 C390 1.404 . S
C391 H403 0.930 . S
C392 C388 1.524 . S
C392 H404 0.956 . S
C392 H405 0.961 . S
C392 H406 0.961 . S
C393 C390 1.539 . S
C393 H407 0.958 . S
C393 H408 0.961 . S
C393 H409 0.960 . S
H394 C378 0.931 . S
H395 C383 0.929 . S
H396 C384 0.960 . S
H397 C384 0.962 . S
H398 C384 0.960 . S
H399 C385 0.961 . S
H400 C385 0.961 . S
H401 C385 0.961 . S
H402 C386 0.931 . S
H403 C391 0.930 . S
H404 C392 0.956 . S
H405 C392 0.961 . S
H406 C392 0.961 . S
H407 C393 0.958 . S
H408 C393 0.961 . S
H409 C393 0.960 . S
C410 C411 1.391 . S
C410 C412 1.394 . S
C410 H426 0.931 . S
C411 C410 1.391 . S
C411 C415 1.376 . S
C412 C410 1.394 . S
C412 C413 1.369 . S
C412 C416 1.531 . S
C413 C412 1.369 . S
C413 C414 1.410 . S
C413 C421 1.503 . S
C414 C413 1.410 . S
C414 C415 1.392 . S
C414 C417 1.511 . S
C415 C411 1.376 . S
C415 C414 1.392 . S
C415 H427 0.929 . S
C416 C412 1.531 . S
C416 H428 0.960 . S
C416 H429 0.962 . S
C416 H430 0.960 . S
C417 C414 1.511 . S
C417 H431 0.961 . S
C417 H432 0.961 . S
C417 H433 0.961 . S
C418 C419 1.370 . S
C418 C420 1.363 . S
C418 H434 0.931 . S
C419 C418 1.370 . S
C419 C423 1.408 . S
C420 C418 1.363 . S
C420 C421 1.370 . S
C420 C424 1.524 . S
C421 C413 1.503 . S
C421 C420 1.370 . S
C421 C422 1.403 . S
C422 C421 1.403 . S
C422 C423 1.404 . S
C422 C425 1.539 . S
C423 C419 1.408 . S
C423 C422 1.404 . S
C423 H435 0.930 . S
C424 C420 1.524 . S
C424 H436 0.956 . S
C424 H437 0.961 . S
C424 H438 0.961 . S
C425 C422 1.539 . S
C425 H439 0.958 . S
C425 H440 0.961 . S
C425 H441 0.960 . S
H426 C410 0.931 . S
H427 C415 0.929 . S
H428 C416 0.960 . S
H429 C416 0.962 . S
H430 C416 0.960 . S
H431 C417 0.961 . S
H432 C417 0.961 . S
H433 C417 0.961 . S
H434 C418 0.931 . S
H435 C423 0.930 . S
H436 C424 0.956 . S
H437 C424 0.961 . S
H438 C424 0.961 . S
H439 C425 0.958 . S
H440 C425 0.961 . S
H441 C425 0.960 . S
C442 C443 1.391 . S
C442 C444 1.394 . S
C442 H458 0.931 . S
C443 C442 1.391 . S
C443 C447 1.376 . S
C444 C442 1.394 . S
C444 C445 1.369 . S
C444 C448 1.531 . S
C445 C444 1.369 . S
C445 C446 1.410 . S
C445 C453 1.503 . S
C446 C445 1.410 . S
C446 C447 1.392 . S
C446 C449 1.511 . S
C447 C443 1.376 . S
C447 C446 1.392 . S
C447 H459 0.929 . S
C448 C444 1.531 . S
C448 H460 0.960 . S
C448 H461 0.962 . S
C448 H462 0.960 . S
C449 C446 1.511 . S
C449 H463 0.961 . S
C449 H464 0.961 . S
C449 H465 0.961 . S
C450 C451 1.370 . S
C450 C452 1.363 . S
C450 H466 0.931 . S
C451 C450 1.370 . S
C451 C455 1.408 . S
C452 C450 1.363 . S
C452 C453 1.370 . S
C452 C456 1.524 . S
C453 C445 1.503 . S
C453 C452 1.370 . S
C453 C454 1.403 . S
C454 C453 1.403 . S
C454 C455 1.404 . S
C454 C457 1.539 . S
C455 C451 1.408 . S
C455 C454 1.404 . S
C455 H467 0.930 . S
C456 C452 1.524 . S
C456 H468 0.956 . S
C456 H469 0.961 . S
C456 H470 0.961 . S
C457 C454 1.539 . S
C457 H471 0.958 . S
C457 H472 0.961 . S
C457 H473 0.960 . S
H458 C442 0.931 . S
H459 C447 0.929 . S
H460 C448 0.960 . S
H461 C448 0.962 . S
H462 C448 0.960 . S
H463 C449 0.961 . S
H464 C449 0.961 . S
H465 C449 0.961 . S
H466 C450 0.931 . S
H467 C455 0.930 . S
H468 C456 0.956 . S
H469 C456 0.961 . S
H470 C456 0.961 . S
H471 C457 0.958 . S
H472 C457 0.961 . S
H473 C457 0.960 . S
C474 C475 1.391 . S
C474 C476 1.394 . S
C474 H490 0.931 . S
C475 C474 1.391 . S
C475 C479 1.376 . S
C476 C474 1.394 . S
C476 C477 1.369 . S
C476 C480 1.531 . S
C477 C476 1.369 . S
C477 C478 1.410 . S
C477 C485 1.503 . S
C478 C477 1.410 . S
C478 C479 1.392 . S
C478 C481 1.511 . S
C479 C475 1.376 . S
C479 C478 1.392 . S
C479 H491 0.929 . S
C480 C476 1.531 . S
C480 H492 0.960 . S
C480 H493 0.962 . S
C480 H494 0.960 . S
C481 C478 1.511 . S
C481 H495 0.961 . S
C481 H496 0.961 . S
C481 H497 0.961 . S
C482 C483 1.370 . S
C482 C484 1.363 . S
C482 H498 0.931 . S
C483 C482 1.370 . S
C483 C487 1.408 . S
C484 C482 1.363 . S
C484 C485 1.370 . S
C484 C488 1.524 . S
C485 C477 1.503 . S
C485 C484 1.370 . S
C485 C486 1.403 . S
C486 C485 1.403 . S
C486 C487 1.404 . S
C486 C489 1.539 . S
C487 C483 1.408 . S
C487 C486 1.404 . S
C487 H499 0.930 . S
C488 C484 1.524 . S
C488 H500 0.956 . S
C488 H501 0.961 . S
C488 H502 0.961 . S
C489 C486 1.539 . S
C489 H503 0.958 . S
C489 H504 0.961 . S
C489 H505 0.960 . S
H490 C474 0.931 . S
H491 C479 0.929 . S
H492 C480 0.960 . S
H493 C480 0.962 . S
H494 C480 0.960 . S
H495 C481 0.961 . S
H496 C481 0.961 . S
H497 C481 0.961 . S
H498 C482 0.931 . S
H499 C487 0.930 . S
H500 C488 0.956 . S
H501 C488 0.961 . S
H502 C488 0.961 . S
H503 C489 0.958 . S
H504 C489 0.961 . S
H505 C489 0.960 . S
C506 C507 1.391 . S
C506 C508 1.394 . S
C506 H522 0.931 . S
C507 C506 1.391 . S
C507 C511 1.376 . S
C508 C506 1.394 . S
C508 C509 1.369 . S
C508 C512 1.531 . S
C509 C508 1.369 . S
C509 C510 1.410 . S
C509 C517 1.503 . S
C510 C509 1.410 . S
C510 C511 1.392 . S
C510 C513 1.511 . S
C511 C507 1.376 . S
C511 C510 1.392 . S
C511 H523 0.929 . S
C512 C508 1.531 . S
C512 H524 0.960 . S
C512 H525 0.962 . S
C512 H526 0.960 . S
C513 C510 1.511 . S
C513 H527 0.961 . S
C513 H528 0.961 . S
C513 H529 0.961 . S
C514 C515 1.370 . S
C514 C516 1.363 . S
C514 H530 0.931 . S
C515 C514 1.370 . S
C515 C519 1.408 . S
C516 C514 1.363 . S
C516 C517 1.370 . S
C516 C520 1.524 . S
C517 C509 1.503 . S
C517 C516 1.370 . S
C517 C518 1.403 . S
C518 C517 1.403 . S
C518 C519 1.404 . S
C518 C521 1.539 . S
C519 C515 1.408 . S
C519 C518 1.404 . S
C519 H531 0.930 . S
C520 C516 1.524 . S
C520 H532 0.956 . S
C520 H533 0.961 . S
C520 H534 0.961 . S
C521 C518 1.539 . S
C521 H535 0.958 . S
C521 H536 0.961 . S
C521 H537 0.960 . S
H522 C506 0.931 . S
H523 C511 0.929 . S
H524 C512 0.960 . S
H525 C512 0.962 . S
H526 C512 0.960 . S
H527 C513 0.961 . S
H528 C513 0.961 . S
H529 C513 0.961 . S
H530 C514 0.931 . S
H531 C519 0.930 . S
H532 C520 0.956 . S
H533 C520 0.961 . S
H534 C520 0.961 . S
H535 C521 0.958 . S
H536 C521 0.961 . S
H537 C521 0.960 . S
C538 C539 1.391 . S
C538 C540 1.394 . S
C538 H554 0.931 . S
C539 C538 1.391 . S
C539 C543 1.376 . S
C540 C538 1.394 . S
C540 C541 1.369 . S
C540 C544 1.531 . S
C541 C540 1.369 . S
C541 C542 1.410 . S
C541 C549 1.503 . S
C542 C541 1.410 . S
C542 C543 1.392 . S
C542 C545 1.511 . S
C543 C539 1.376 . S
C543 C542 1.392 . S
C543 H555 0.929 . S
C544 C540 1.531 . S
C544 H556 0.960 . S
C544 H557 0.962 . S
C544 H558 0.960 . S
C545 C542 1.511 . S
C545 H559 0.961 . S
C545 H560 0.961 . S
C545 H561 0.961 . S
C546 C547 1.370 . S
C546 C548 1.363 . S
C546 H562 0.931 . S
C547 C546 1.370 . S
C547 C551 1.408 . S
C548 C546 1.363 . S
C548 C549 1.370 . S
C548 C552 1.524 . S
C549 C541 1.503 . S
C549 C548 1.370 . S
C549 C550 1.403 . S
C550 C549 1.403 . S
C550 C551 1.404 . S
C550 C553 1.539 . S
C551 C547 1.408 . S
C551 C550 1.404 . S
C551 H563 0.930 . S
C552 C548 1.524 . S
C552 H564 0.956 . S
C552 H565 0.961 . S
C552 H566 0.961 . S
C553 C550 1.539 . S
C553 H567 0.958 . S
C553 H568 0.961 . S
C553 H569 0.960 . S
H554 C538 0.931 . S
H555 C543 0.929 . S
H556 C544 0.960 . S
H557 C544 0.962 . S
H558 C544 0.960 . S
H559 C545 0.961 . S
H560 C545 0.961 . S
H561 C545 0.961 . S
H562 C546 0.931 . S
H563 C551 0.930 . S
H564 C552 0.956 . S
H565 C552 0.961 . S
H566 C552 0.961 . S
H567 C553 0.958 . S
H568 C553 0.961 . S
H569 C553 0.960 . S
C570 C571 1.391 . S
C570 C572 1.394 . S
C570 H586 0.931 . S
C571 C570 1.391 . S
C571 C575 1.376 . S
C572 C570 1.394 . S
C572 C573 1.369 . S
C572 C576 1.531 . S
C573 C572 1.369 . S
C573 C574 1.410 . S
C573 C581 1.503 1_554 S
C574 C573 1.410 . S
C574 C575 1.392 . S
C574 C577 1.511 . S
C575 C571 1.376 . S
C575 C574 1.392 . S
C575 H587 0.929 . S
C576 C572 1.531 . S
C576 H588 0.960 . S
C576 H589 0.962 1_455 S
C576 H590 0.960 . S
C577 C574 1.511 . S
C577 H591 0.961 . S
C577 H592 0.961 . S
C577 H593 0.961 . S
C578 C579 1.372 1_655 S
C578 C580 1.363 1_655 S
C578 H594 0.930 . S
C579 C578 1.372 1_455 S
C579 C583 1.408 . S
C580 C578 1.363 1_455 S
C580 C581 1.370 . S
C580 C584 1.524 1_455 S
C581 C573 1.503 1_556 S
C581 C580 1.370 . S
C581 C582 1.403 . S
C582 C581 1.403 . S
C582 C583 1.404 . S
C582 C585 1.538 1_556 S
C583 C579 1.408 . S
C583 C582 1.404 . S
C583 H595 0.930 . S
C584 C580 1.524 1_655 S
C584 H596 0.956 1_556 S
C584 H597 0.961 1_556 S
C584 H598 0.961 . S
C585 C582 1.538 1_554 S
C585 H599 0.958 . S
C585 H600 0.959 1_554 S
C585 H601 0.963 . S
H586 C570 0.931 . S
H587 C575 0.929 . S
H588 C576 0.960 . S
H589 C576 0.962 1_655 S
H590 C576 0.960 . S
H591 C577 0.961 . S
H592 C577 0.961 . S
H593 C577 0.961 . S
H594 C578 0.930 . S
H595 C583 0.930 . S
H596 C584 0.956 1_554 S
H597 C584 0.961 1_554 S
H598 C584 0.961 . S
H599 C585 0.958 . S
H600 C585 0.959 1_556 S
H601 C585 0.963 . S
C602 C603 1.391 . S
C602 C604 1.394 . S
C602 H618 0.931 . S
C603 C602 1.391 . S
C603 C607 1.376 . S
C604 C602 1.394 . S
C604 C605 1.369 . S
C604 C608 1.531 1_545 S
C605 C604 1.369 . S
C605 C606 1.410 . S
C605 C613 1.503 . S
C606 C605 1.410 . S
C606 C607 1.392 . S
C606 C609 1.511 . S
C607 C603 1.376 . S
C607 C606 1.392 . S
C607 H619 0.929 . S
C608 C604 1.531 1_565 S
C608 H620 0.960 . S
C608 H621 0.962 . S
C608 H622 0.960 . S
C609 C606 1.511 . S
C609 H623 0.961 . S
C609 H624 0.961 . S
C609 H625 0.961 . S
C610 C611 1.370 . S
C610 C612 1.363 . S
C610 H626 0.931 . S
C611 C610 1.370 . S
C611 C615 1.408 . S
C612 C610 1.363 . S
C612 C613 1.370 . S
C612 C616 1.524 . S
C613 C605 1.503 . S
C613 C612 1.370 . S
C613 C614 1.403 . S
C614 C613 1.403 . S
C614 C615 1.404 . S
C614 C617 1.539 . S
C615 C611 1.408 . S
C615 C614 1.404 . S
C615 H627 0.930 . S
C616 C612 1.524 . S
C616 H628 0.956 . S
C616 H629 0.961 . S
C616 H630 0.961 . S
C617 C614 1.539 . S
C617 H631 0.958 1_545 S
C617 H632 0.961 . S
C617 H633 0.960 . S
H618 C602 0.931 . S
H619 C607 0.929 . S
H620 C608 0.960 . S
H621 C608 0.962 . S
H622 C608 0.960 . S
H623 C609 0.961 . S
H624 C609 0.961 . S
H625 C609 0.961 . S
H626 C610 0.931 . S
H627 C615 0.930 . S
H628 C616 0.956 . S
H629 C616 0.961 . S
H630 C616 0.961 . S
H631 C617 0.958 1_565 S
H632 C617 0.961 . S
H633 C617 0.960 . S
C634 C635 1.391 . S
C634 C636 1.394 . S
C634 H650 0.931 . S
C635 C634 1.391 . S
C635 C639 1.376 . S
C636 C634 1.394 . S
C636 C637 1.369 . S
C636 C640 1.531 . S
C637 C636 1.369 . S
C637 C638 1.410 . S
C637 C645 1.503 . S
C638 C637 1.410 . S
C638 C639 1.392 . S
C638 C641 1.511 . S
C639 C635 1.376 . S
C639 C638 1.392 . S
C639 H651 0.929 . S
C640 C636 1.531 . S
C640 H652 0.960 . S
C640 H653 0.962 . S
C640 H654 0.960 . S
C641 C638 1.511 . S
C641 H655 0.961 . S
C641 H656 0.961 . S
C641 H657 0.961 . S
C642 C643 1.370 . S
C642 C644 1.363 . S
C642 H658 0.931 . S
C643 C642 1.370 . S
C643 C647 1.408 . S
C644 C642 1.363 . S
C644 C645 1.370 . S
C644 C648 1.524 . S
C645 C637 1.503 . S
C645 C644 1.370 . S
C645 C646 1.403 . S
C646 C645 1.403 . S
C646 C647 1.404 . S
C646 C649 1.539 . S
C647 C643 1.408 . S
C647 C646 1.404 . S
C647 H659 0.930 . S
C648 C644 1.524 . S
C648 H660 0.956 . S
C648 H661 0.961 . S
C648 H662 0.961 . S
C649 C646 1.539 . S
C649 H663 0.958 . S
C649 H664 0.961 . S
C649 H665 0.960 . S
H650 C634 0.931 . S
H651 C639 0.929 . S
H652 C640 0.960 . S
H653 C640 0.962 . S
H654 C640 0.960 . S
H655 C641 0.961 . S
H656 C641 0.961 . S
H657 C641 0.961 . S
H658 C642 0.931 . S
H659 C647 0.930 . S
H660 C648 0.956 . S
H661 C648 0.961 . S
H662 C648 0.961 . S
H663 C649 0.958 . S
H664 C649 0.961 . S
H665 C649 0.960 . S
C666 C667 1.391 . S
C666 C668 1.394 . S
C666 H682 0.931 . S
C667 C666 1.391 . S
C667 C671 1.376 . S
C668 C666 1.394 . S
C668 C669 1.369 . S
C668 C672 1.531 . S
C669 C668 1.369 . S
C669 C670 1.410 . S
C669 C677 1.503 . S
C670 C669 1.410 . S
C670 C671 1.392 . S
C670 C673 1.511 . S
C671 C667 1.376 . S
C671 C670 1.392 . S
C671 H683 0.929 . S
C672 C668 1.531 . S
C672 H684 0.960 . S
C672 H685 0.962 . S
C672 H686 0.960 . S
C673 C670 1.511 . S
C673 H687 0.961 1_545 S
C673 H688 0.961 . S
C673 H689 0.961 . S
C674 C675 1.370 . S
C674 C676 1.363 . S
C674 H690 0.931 1_545 S
C675 C674 1.370 . S
C675 C679 1.408 . S
C676 C674 1.363 . S
C676 C677 1.370 . S
C676 C680 1.524 1_545 S
C677 C669 1.503 . S
C677 C676 1.370 . S
C677 C678 1.403 . S
C678 C677 1.403 . S
C678 C679 1.404 . S
C678 C681 1.539 . S
C679 C675 1.408 . S
C679 C678 1.404 . S
C679 H691 0.930 . S
C680 C676 1.524 1_565 S
C680 H692 0.956 . S
C680 H693 0.961 . S
C680 H694 0.961 . S
C681 C678 1.539 . S
C681 H695 0.958 . S
C681 H696 0.961 . S
C681 H697 0.960 . S
H682 C666 0.931 . S
H683 C671 0.929 . S
H684 C672 0.960 . S
H685 C672 0.962 . S
H686 C672 0.960 . S
H687 C673 0.961 1_565 S
H688 C673 0.961 . S
H689 C673 0.961 . S
H690 C674 0.931 1_565 S
H691 C679 0.930 . S
H692 C680 0.956 . S
H693 C680 0.961 . S
H694 C680 0.961 . S
H695 C681 0.958 . S
H696 C681 0.961 . S
H697 C681 0.960 . S
C698 C699 1.391 . S
C698 C700 1.394 . S
C698 H714 0.931 . S
C699 C698 1.391 . S
C699 C703 1.376 . S
C700 C698 1.394 . S
C700 C701 1.369 . S
C700 C704 1.531 . S
C701 C700 1.369 . S
C701 C702 1.410 . S
C701 C709 1.503 . S
C702 C701 1.410 . S
C702 C703 1.392 . S
C702 C705 1.511 . S
C703 C699 1.376 . S
C703 C702 1.392 . S
C703 H715 0.929 . S
C704 C700 1.531 . S
C704 H716 0.960 . S
C704 H717 0.962 . S
C704 H718 0.960 . S
C705 C702 1.511 . S
C705 H719 0.961 . S
C705 H720 0.961 . S
C705 H721 0.961 . S
C706 C707 1.370 . S
C706 C708 1.363 . S
C706 H722 0.931 . S
C707 C706 1.370 . S
C707 C711 1.408 . S
C708 C706 1.363 . S
C708 C709 1.370 1_554 S
C708 C712 1.524 1_554 S
C709 C701 1.503 . S
C709 C708 1.370 1_556 S
C709 C710 1.403 1_556 S
C710 C709 1.403 1_554 S
C710 C711 1.404 . S
C710 C713 1.539 1_554 S
C711 C707 1.408 . S
C711 C710 1.404 . S
C711 H723 0.930 . S
C712 C708 1.524 1_556 S
C712 H724 0.956 . S
C712 H725 0.961 . S
C712 H726 0.961 . S
C713 C710 1.539 1_556 S
C713 H727 0.958 1_556 S
C713 H728 0.961 1_556 S
C713 H729 0.960 . S
H714 C698 0.931 . S
H715 C703 0.929 . S
H716 C704 0.960 . S
H717 C704 0.962 . S
H718 C704 0.960 . S
H719 C705 0.961 . S
H720 C705 0.961 . S
H721 C705 0.961 . S
H722 C706 0.931 . S
H723 C711 0.930 . S
H724 C712 0.956 . S
H725 C712 0.961 . S
H726 C712 0.961 . S
H727 C713 0.958 1_554 S
H728 C713 0.961 1_554 S
H729 C713 0.960 . S
C730 C731 1.391 . S
C730 C732 1.394 . S
C730 H746 0.931 . S
C731 C730 1.391 . S
C731 C735 1.398 . S
C732 C730 1.394 . S
C732 C733 1.369 . S
C732 C736 1.531 . S
C733 C732 1.369 . S
C733 C734 1.410 1_455 S
C733 C741 1.503 . S
C734 C733 1.410 1_655 S
C734 C735 1.387 1_655 S
C734 C737 1.511 . S
C735 C731 1.398 . S
C735 C734 1.387 1_455 S
C735 H747 0.912 1_455 S
C736 C732 1.531 . S
C736 H748 0.960 . S
C736 H749 0.962 . S
C736 H750 0.960 . S
C737 C734 1.511 . S
C737 H751 0.961 . S
C737 H752 0.961 . S
C737 H753 0.961 . S
C738 C739 1.370 . S
C738 C740 1.363 . S
C738 H754 0.931 . S
C739 C738 1.370 . S
C739 C743 1.408 . S
C740 C738 1.363 . S
C740 C741 1.370 . S
C740 C744 1.524 . S
C741 C733 1.503 . S
C741 C740 1.370 . S
C741 C742 1.403 . S
C742 C741 1.403 . S
C742 C743 1.404 . S
C742 C745 1.539 . S
C743 C739 1.408 . S
C743 C742 1.404 . S
C743 H755 0.930 . S
C744 C740 1.524 . S
C744 H756 0.956 . S
C744 H757 0.961 . S
C744 H758 0.961 . S
C745 C742 1.539 . S
C745 H759 0.958 . S
C745 H760 0.961 . S
C745 H761 0.960 . S
H746 C730 0.931 . S
H747 C735 0.912 1_655 S
H748 C736 0.960 . S
H749 C736 0.962 . S
H750 C736 0.960 . S
H751 C737 0.961 . S
H752 C737 0.961 . S
H753 C737 0.961 . S
H754 C738 0.931 . S
H755 C743 0.930 . S
H756 C744 0.956 . S
H757 C744 0.961 . S
H758 C744 0.961 . S
H759 C745 0.958 . S
H760 C745 0.961 . S
H761 C745 0.960 . S
C187 C9 0.584 . S
C195 C185 0.632 . S
C219 C49 0.506 . S
C227 C163 0.394 . S
C251 C89 0.314 . S
C259 C174 0.343 . S
C283 C26 0.255 . S
C291 C179 0.251 . S
C323 C157 0.215 . S
C315 C66 0.454 . S
C355 C168 0.301 . S
C347 C106 0.352 . S
C379 C43 3.030 . S
C387 C141 2.975 . S
C411 C83 2.992 . S
C419 C146 2.947 . S
C443 C22 3.033 . S
C451 C124 2.978 1_565 S
C483 C135 2.978 . S
C475 C62 3.028 . S
C515 C152 3.000 . S
C507 C102 3.059 . S
C539 C3 3.031 . S
C547 C130 2.978 . S
C579 C147 1.734 . S
C571 C15 1.702 . S
C603 C55 1.717 . S
C611 C125 1.751 . S
C635 C95 1.713 . S
C643 C136 1.753 . S
C675 C169 1.212 . S
C667 C42 1.203 . S
C707 C180 1.235 . S
C699 C82 1.184 . S
C731 C2 1.210 . S
C739 C158 1.200 . S
