# Generated by pormake.
# Topology pts, (4,4)-cn, num edge types: 1
# Building blocks:
#     Node 0, Type 0, BuildingBlock: MUDLON_clean_linker_0, # of connection points: 4
#     Node 1, Type 0, BuildingBlock: MUDLON_clean_linker_0, # of connection points: 4
#     Node 2, Type 1, BuildingBlock: QUQFOY_clean_sbu_1, # of connection points: 4
#     Node 3, Type 1, BuildingBlock: QUQFOY_clean_sbu_1, # of connection points: 4
#     Edge 4, Type (0, 1), BuildingBlock: XUDNAN_clean_linker_2, # of connection points: 2
#     Edge 5, Type (0, 1), BuildingBlock: XUDNAN_clean_linker_2, # of connection points: 2
#     Edge 6, Type (0, 1), BuildingBlock: XUDNAN_clean_linker_2, # of connection points: 2
#     Edge 7, Type (0, 1), BuildingBlock: XUDNAN_clean_linker_2, # of connection points: 2
#     Edge 8, Type (0, 1), BuildingBlock: XUDNAN_clean_linker_2, # of connection points: 2
#     Edge 9, Type (0, 1), BuildingBlock: XUDNAN_clean_linker_2, # of connection points: 2
#     Edge 10, Type (0, 1), BuildingBlock: XUDNAN_clean_linker_2, # of connection points: 2
#     Edge 11, Type (0, 1), BuildingBlock: XUDNAN_clean_linker_2, # of connection points: 2
# Relax obj value: 0.109
# Max RMSD: 0.273
# Mean RMSD: 0.180
data_MOF--net-pts--node1-QUQFOY_clean_sbu_1--node2-MUDLON_clean_linker_0--edge1-XUDNAN_clean_linker_2
_symmetry_space_group_name_H-M    P1
_symmetry_Int_Tables_number       1
_symmetry_cell_setting            triclinic
loop_
_symmetry_equiv_pos_as_xyz
'x, y, z'
_cell_length_a     32.289133
_cell_length_b     35.281437
_cell_length_c     47.107954
_cell_angle_alpha  90.039504
_cell_angle_beta   89.960808
_cell_angle_gamma 89.931752
loop_
_atom_site_label
_atom_site_type_symbol
_atom_site_fract_x
_atom_site_fract_y
_atom_site_fract_z
_atom_type_partial_charge
H0 H 0.70364 0.11262 0.0286 0.0
N1 N 0.655 0.06654 -0.00076 0.0
H2 H 0.74037 0.09919 0.07272 0.0
H3 H 0.65284 0.99987 0.02874 0.0
H4 H 0.69215 0.98473 0.07144 0.0
H5 H 0.6827 0.99574 0.98382 0.0
H6 H 0.72052 0.97941 0.94095 0.0
H7 H 0.67441 0.11201 0.9563 0.0
H8 H 0.71131 0.09555 0.91247 0.0
H9 H 0.60309 0.10861 0.02947 0.0
H10 H 0.60605 0.01353 0.97183 0.0
H11 H 0.52812 0.10328 0.03275 0.0
H12 H 0.53124 0.01017 0.9729 0.0
H13 H 0.28117 0.08856 0.02762 0.0
H14 H 0.2413 0.07021 0.06949 0.0
H15 H 0.32305 0.97448 0.08195 0.0
H16 H 0.36098 0.99179 0.03947 0.0
H17 H 0.31795 0.98109 0.99112 0.0
H18 H 0.28049 0.96254 0.94834 0.0
H19 H 0.29384 0.07638 0.91554 0.0
H20 H 0.3292 0.09501 0.9592 0.0
H21 H 0.39272 0.1128 0.01076 0.0
H22 H 0.46808 0.11566 0.00899 0.0
H23 H 0.47247 0.99396 0.9972 0.0
N24 N 0.34482 0.0526 0.00434 0.0
H25 H 0.39707 0.99235 0.99639 0.0
C26 C 0.67629 0.05715 0.02517 0.0
C27 C 0.70103 0.08474 0.03804 0.0
C28 C 0.72228 0.07679 0.06314 0.0
C29 C 0.71988 0.04061 0.07568 0.0
C30 C 0.69456 0.01303 0.06276 0.0
C31 C 0.67255 0.02137 0.03799 0.0
C32 C 0.67609 0.05542 0.9735 0.0
C33 C 0.68896 0.01786 0.96859 0.0
C34 C 0.7102 0.00839 0.94375 0.0
C35 C 0.71896 0.03615 0.92322 0.0
C36 C 0.70552 0.07357 0.928 0.0
C37 C 0.6843 0.08302 0.95291 0.0
C38 C 0.61054 0.06199 0.00025 0.0
C39 C 0.58749 0.08688 0.01724 0.0
C40 C 0.54447 0.08399 0.01881 0.0
C41 C 0.52309 0.05661 0.00277 0.0
C42 C 0.54632 0.03134 0.9859 0.0
C43 C 0.58954 0.03359 0.98497 0.0
C44 C 0.32428 0.04201 0.03038 0.0
C45 C 0.29055 0.06378 0.03957 0.0
C46 C 0.26801 0.05334 0.06364 0.0
C47 C 0.27898 0.02086 0.07927 0.0
C48 C 0.31331 0.99937 0.07028 0.0
C49 C 0.33549 0.00958 0.04599 0.0
C50 C 0.32556 0.03976 0.97852 0.0
C51 C 0.31271 1.00203 0.97475 0.0
C52 C 0.29164 0.99137 0.95006 0.0
C53 C 0.28365 0.01805 0.92851 0.0
C54 C 0.29842 0.05529 0.93193 0.0
C55 C 0.31891 0.06599 0.95673 0.0
C56 C 0.3894 0.05245 0.00428 0.0
C57 C 0.41017 0.08685 0.00782 0.0
C58 C 0.45334 0.08825 0.00706 0.0
C59 C 0.47688 0.05495 0.00332 0.0
C60 C 0.45574 0.02033 -0.00022 0.0
C61 C 0.41245 0.01919 -0.00021 0.0
H62 H 0.91344 0.65704 0.54821 0.0
N63 N 0.95733 0.63694 0.50283 0.0
H64 H 0.93023 0.70706 0.58246 0.0
H65 H 0.03287 0.67141 0.50876 0.0
H66 H 0.04985 0.72116 0.5428 0.0
H67 H 0.01926 0.63064 0.46308 0.0
H68 H 0.02659 0.66889 0.42011 0.0
H69 H 0.90336 0.68619 0.48171 0.0
H70 H 0.91087 0.72502 0.43887 0.0
H71 H 0.9068 0.5801 0.49048 0.0
H72 H 0.0321 0.60373 0.51646 0.0
H73 H 0.92232 0.51227 0.48975 0.0
H74 H 0.04742 0.53621 0.51706 0.0
H75 H 0.9517 0.32604 0.51741 0.0
H76 H 0.94314 0.27673 0.55286 0.0
H77 H 0.07101 0.28937 0.57761 0.0
H78 H 0.07981 0.3389 0.54144 0.0
H79 H 0.08213 0.31995 0.47302 0.0
H80 H 0.06965 0.27397 0.43488 0.0
H81 H 0.94037 0.30497 0.43419 0.0
H82 H 0.95334 0.35211 0.47137 0.0
H83 H 0.95131 0.39166 0.51753 0.0
H84 H 0.9357 0.45909 0.51886 0.0
H85 H 0.05832 0.48362 0.48687 0.0
N86 N 0.02547 0.35892 0.50167 0.0
H87 H 0.07421 0.41587 0.48684 0.0
C88 C 0.97165 0.66048 0.52591 0.0
C89 C 0.9437 0.67021 0.54749 0.0
C90 C 0.95335 0.69879 0.56697 0.0
C91 C 0.99117 0.71836 0.56506 0.0
C92 C 0.02022 0.70697 0.54452 0.0
C93 C 0.01066 0.67825 0.52518 0.0
C94 C 0.9603 0.65522 0.47549 0.0
C95 C 0.99495 0.65047 0.45767 0.0
C96 C 0.99922 0.67248 0.43315 0.0
C97 C 0.9694 0.70004 0.42629 0.0
C98 C 0.9345 0.70423 0.44381 0.0
C99 C 0.92996 0.68187 0.46806 0.0
C100 C 0.9679 0.59713 0.50375 0.0
C101 C 0.93752 0.57058 0.49636 0.0
C102 C 0.94643 0.53179 0.49615 0.0
C103 C 0.98614 0.51852 0.50348 0.0
C104 C 0.01665 0.54526 0.51094 0.0
C105 C 0.00776 0.58411 0.5109 0.0
C106 C 0.01673 0.33627 0.52652 0.0
C107 C 0.97781 0.31917 0.53074 0.0
C108 C 0.9729 0.29068 0.551 0.0
C109 C 0.00654 0.27894 0.56768 0.0
C110 C 0.04454 0.29798 0.56504 0.0
C111 C 0.04958 0.32628 0.54449 0.0
C112 C 0.01874 0.33909 0.47529 0.0
C113 C 0.05144 0.31777 0.4639 0.0
C114 C 0.04426 0.29152 0.44224 0.0
C115 C 0.00398 0.28574 0.43194 0.0
C116 C 0.97164 0.30878 0.44201 0.0
C117 C 0.97905 0.33569 0.46323 0.0
C118 C 0.01434 0.39855 0.50236 0.0
C119 C 0.97502 0.41135 0.51099 0.0
C120 C 0.96596 0.45018 0.51149 0.0
C121 C 0.99576 0.47708 0.50307 0.0
C122 C 0.03482 0.46399 0.49408 0.0
C123 C 0.04391 0.42524 0.49382 0.0
O124 O 0.93831 0.97254 0.23574 0.0
Cd125 Cd 0.99317 0.95778 0.25557 0.0
Cd126 Cd 0.00181 0.03735 0.25429 0.0
O127 O 0.95013 0.03357 0.22884 0.0
O128 O 0.98914 0.90147 0.25734 0.0
O129 O 0.99297 0.93706 0.29574 0.0
C130 C 0.9906 0.90372 0.28456 0.0
C131 C 0.9986 0.07785 0.29328 0.0
C132 C 0.9278 1.00432 0.22526 0.0
C133 C 0.06979 0.99267 0.22773 0.0
O134 O 0.05784 0.02532 0.23562 0.0
O135 O 0.04808 0.96354 0.23323 0.0
O136 O 0.00567 0.09065 0.2681 0.0
O137 O 0.99388 0.04171 0.29645 0.0
O138 O 0.95142 0.03237 0.77342 0.0
Cd139 Cd 0.00587 0.03797 0.75112 0.0
Cd140 Cd 0.00166 0.96124 0.74726 0.0
O141 O 0.94566 0.97053 0.76758 0.0
O142 O 0.00913 0.09079 0.73612 0.0
O143 O 0.00367 0.03998 0.70871 0.0
C144 C 0.00623 0.07641 0.711 0.0
C145 C 0.00276 0.92228 0.70718 0.0
C146 C 0.9316 1.0017 0.7772 0.0
C147 C 0.07408 0.99415 0.77906 0.0
O148 O 0.05543 0.96429 0.77102 0.0
O149 O 0.05987 0.02668 0.77273 0.0
O150 O 0.99884 0.90833 0.73233 0.0
O151 O 0.00576 0.95864 0.70473 0.0
H152 H 0.24053 0.06584 0.11932 0.0
H153 H 0.25889 0.94819 0.09504 0.0
H154 H 0.21382 0.92805 0.13439 0.0
H155 H 0.23284 0.05089 0.1964 0.0
H156 H 0.19249 0.08585 0.2004 0.0
H157 H 0.23061 0.09094 0.1727 0.0
H158 H 0.17217 0.09474 0.13511 0.0
H159 H 0.13396 0.08979 0.16265 0.0
H160 H 0.1344 0.05723 0.13315 0.0
H161 H 0.16193 0.92075 0.17345 0.0
H162 H 0.10514 0.92702 0.20815 0.0
H163 H 0.11848 0.04948 0.20594 0.0
C164 C 0.23535 0.0358 0.12231 0.0
C165 C 0.25371 0.00865 0.1041 0.0
C166 C 0.2461 0.96961 0.109 0.0
C167 C 0.22034 0.95783 0.13126 0.0
C168 C 0.20233 0.98538 0.1485 0.0
C169 C 0.20945 0.02356 0.14428 0.0
C170 C 0.18374 0.04754 0.16434 0.0
C171 C 0.2116 0.07013 0.18467 0.0
C172 C 0.15433 0.07386 0.14782 0.0
C173 C 0.16018 0.01688 0.17996 0.0
C174 C 0.17182 0.98121 0.1708 0.0
C175 C 0.15286 0.94851 0.18103 0.0
C176 C 0.12058 0.95239 0.20073 0.0
C177 C 0.10733 0.98874 0.20986 0.0
C178 C 0.1281 0.02127 0.19967 0.0
H179 H 0.02843 0.26995 0.62377 0.0
H180 H 0.97712 0.21017 0.55143 0.0
H181 H 0.97277 0.15157 0.57991 0.0
H182 H 0.0898 0.19304 0.65124 0.0
H183 H 0.07922 0.2039 0.68793 0.0
H184 H 0.07888 0.24115 0.6618 0.0
H185 H 0.00425 0.2596 0.67669 0.0
H186 H 0.00443 0.22251 0.70293 0.0
H187 H 0.9642 0.22405 0.67645 0.0
H188 H 0.97599 0.09907 0.61559 0.0
H189 H 0.98143 0.05718 0.65743 0.0
H190 H 0.02758 0.15152 0.70741 0.0
C191 C 0.01632 0.24446 0.61402 0.0
C192 C 0.003 0.24449 0.58547 0.0
C193 C 0.98706 0.21075 0.57339 0.0
C194 C 0.98471 0.17732 0.58932 0.0
C195 C 0.9981 0.17815 0.6174 0.0
C196 C 0.01318 0.21089 0.62978 0.0
C197 C 0.02437 0.20425 0.66062 0.0
C198 C 0.07083 0.21098 0.66568 0.0
C199 C 0.99771 0.22907 0.68033 0.0
C200 C 0.01341 0.16267 0.66354 0.0
C201 C 0.99868 0.14809 0.63828 0.0
C202 C 0.98727 0.11018 0.63555 0.0
C203 C 0.99059 0.08659 0.65939 0.0
C204 C 0.00475 0.10111 0.68567 0.0
C205 C 0.0164 0.13965 0.68764 0.0
H206 H 0.79665 0.06795 0.09102 0.0
H207 H 0.6986 0.99285 0.11981 0.0
H208 H 0.74049 0.97617 0.16169 0.0
H209 H 0.88177 0.01331 0.11307 0.0
H210 H 0.91222 0.05321 0.12465 0.0
H211 H 0.87455 0.05912 0.09686 0.0
H212 H 0.83904 0.11281 0.12555 0.0
H213 H 0.87671 0.10716 0.15343 0.0
H214 H 0.82223 0.10381 0.16142 0.0
H215 H 0.79535 0.96461 0.19895 0.0
H216 H 0.85685 0.96268 0.2303 0.0
H217 H 0.91502 0.05029 0.17958 0.0
C218 C 0.78334 0.04857 0.10629 0.0
C219 C 0.74418 0.03162 0.10176 0.0
C220 C 0.72881 1.00569 0.12225 0.0
C221 C 0.75222 0.99626 0.14632 0.0
C222 C 0.79066 0.01346 0.14994 0.0
C223 C 0.80583 0.03945 0.13067 0.0
C224 C 0.8479 0.05415 0.13953 0.0
C225 C 0.88105 0.04434 0.1172 0.0
C226 C 0.84636 0.09703 0.14533 0.0
C227 C 0.85433 0.03195 0.16662 0.0
C228 C 0.82112 0.00839 0.17218 0.0
C229 C 0.82123 0.98337 0.19507 0.0
C230 C 0.85625 0.9824 0.21269 0.0
C231 C 0.89027 1.00672 0.20753 0.0
C232 C 0.88901 0.032 0.18435 0.0
H233 H 0.97684 0.72773 0.62225 0.0
H234 H 0.02149 0.7866 0.54743 0.0
H235 H 0.03002 0.84507 0.57563 0.0
H236 H 0.91853 0.8045 0.651 0.0
H237 H 0.93142 0.79421 0.68741 0.0
H238 H 0.93016 0.75656 0.6616 0.0
H239 H 0.00572 0.7384 0.67425 0.0
H240 H 0.00714 0.77587 0.70023 0.0
H241 H 0.04567 0.77399 0.67255 0.0
H242 H 0.03 0.89813 0.61136 0.0
H243 H 0.02592 0.94076 0.65297 0.0
H244 H 0.98291 0.84691 0.70468 0.0
C245 C 0.98857 0.7529 0.61186 0.0
C246 C 0.99871 0.75257 0.58268 0.0
C247 C 0.01415 0.78604 0.56986 0.0
C248 C 0.01882 0.81946 0.58564 0.0
C249 C 0.00818 0.81893 0.61429 0.0
C250 C 0.99376 0.78644 0.62736 0.0
C251 C 0.98452 0.79349 0.65845 0.0
C252 C 0.93842 0.7868 0.66498 0.0
C253 C 0.01244 0.76898 0.67749 0.0
C254 C 0.9956 0.83508 0.66072 0.0
C255 C 0.00899 0.84929 0.63499 0.0
C256 C 0.01987 0.88726 0.63169 0.0
C257 C 0.01733 0.91128 0.65539 0.0
C258 C 0.0043 0.89713 0.68207 0.0
C259 C 0.99329 0.85852 0.68462 0.0
H260 H 0.22615 0.06206 0.90106 0.0
H261 H 0.2831 0.9505 0.89889 0.0
H262 H 0.2378 0.93283 0.85876 0.0
H263 H 0.12478 0.03383 0.88601 0.0
H264 H 0.11287 0.07414 0.86399 0.0
H265 H 0.15093 0.07832 0.89167 0.0
H266 H 0.20525 0.10121 0.85495 0.0
H267 H 0.16726 0.09723 0.82712 0.0
H268 H 0.21599 0.07256 0.82411 0.0
H269 H 0.18262 0.92622 0.82082 0.0
H270 H 0.12385 0.93201 0.78741 0.0
H271 H 0.10692 0.04919 0.81303 0.0
C272 C 0.22996 0.03417 0.89182 0.0
C273 C 0.25837 0.00773 0.90323 0.0
C274 C 0.26126 0.97116 0.89084 0.0
C275 C 0.23589 0.96094 0.86788 0.0
C276 C 0.20809 0.98771 0.85734 0.0
C277 C 0.20531 0.02368 0.86879 0.0
C278 C 0.17228 0.04699 0.85417 0.0
C279 C 0.13821 0.059 0.87522 0.0
C280 C 0.19134 0.08154 0.83919 0.0
C281 C 0.15636 0.01832 0.83297 0.0
C282 C 0.17734 0.98427 0.83509 0.0
C283 C 0.16637 0.95292 0.81872 0.0
C284 C 0.13292 0.95644 0.79986 0.0
C285 C 0.11107 0.99114 0.79742 0.0
C286 C 0.12343 0.02249 0.81402 0.0
H287 H 0.03921 0.26868 0.38042 0.0
H288 H 0.94983 0.22855 0.44212 0.0
H289 H 0.93939 0.17025 0.41379 0.0
H290 H 0.98367 0.23321 0.31828 0.0
H291 H 0.03047 0.22112 0.29944 0.0
H292 H 0.03057 0.25958 0.3246 0.0
H293 H 0.09117 0.22769 0.35162 0.0
H294 H 0.09098 0.18894 0.32672 0.0
H295 H 0.08546 0.17971 0.36416 0.0
H296 H 0.94284 0.11429 0.38061 0.0
H297 H 0.9528 0.06824 0.34151 0.0
H298 H 0.03575 0.14695 0.29953 0.0
C299 C 0.01718 0.2477 0.38772 0.0
C300 C 0.99519 0.25295 0.41332 0.0
C301 C 0.96659 0.22507 0.42236 0.0
C302 C 0.96069 0.19183 0.40653 0.0
C303 C 0.98321 0.18722 0.38153 0.0
C304 C 0.01029 0.21469 0.37186 0.0
C305 C 0.02987 0.20312 0.34393 0.0
C306 C 0.01791 0.23091 0.32016 0.0
C307 C 0.07717 0.19966 0.3468 0.0
C308 C 0.00993 0.16471 0.33958 0.0
C309 C 0.98357 0.15582 0.3617 0.0
C310 C 0.96301 0.12112 0.36299 0.0
C311 C 0.96902 0.09508 0.34082 0.0
C312 C 0.99476 0.10421 0.31749 0.0
C313 C 0.01552 0.13943 0.31699 0.0
H314 H 0.78065 0.07758 0.89792 0.0
H315 H 0.71272 0.97193 0.89047 0.0
H316 H 0.75696 0.95328 0.85002 0.0
H317 H 0.79647 0.09218 0.82117 0.0
H318 H 0.84755 0.11157 0.82629 0.0
H319 H 0.80855 0.11765 0.8533 0.0
H320 H 0.85762 0.08721 0.8904 0.0
H321 H 0.89664 0.08091 0.86353 0.0
H322 H 0.87878 0.04073 0.88372 0.0
H323 H 0.8123 0.94393 0.81304 0.0
H324 H 0.8736 0.94529 0.78162 0.0
H325 H 0.90336 0.05813 0.81218 0.0
C326 C 0.77436 0.05092 0.88738 0.0
C327 C 0.7432 0.02622 0.89742 0.0
C328 C 0.73672 0.99115 0.8834 0.0
C329 C 0.76148 0.98042 0.86027 0.0
C330 C 0.79234 1.00521 0.85123 0.0
C331 C 0.79862 0.03986 0.86421 0.0
C332 C 0.83508 0.06054 0.85128 0.0
C333 C 0.82106 0.09768 0.83717 0.0
C334 C 0.86902 0.06775 0.87356 0.0
C335 C 0.84888 0.03176 0.82939 0.0
C336 C 0.82374 1.00009 0.8296 0.0
C337 C 0.83187 0.9688 0.8124 0.0
C338 C 0.86681 0.96979 0.79469 0.0
C339 C 0.89311 1.00191 0.79428 0.0
C340 C 0.88354 0.0334 0.81165 0.0
H341 H 0.96169 0.77735 0.42423 0.0
H342 H 0.99041 0.67922 0.37226 0.0
H343 H 0.99961 0.72094 0.33054 0.0
H344 H 0.90442 0.82918 0.37177 0.0
H345 H 0.92449 0.87474 0.38225 0.0
H346 H 0.92024 0.83719 0.40797 0.0
H347 H 0.99831 0.8438 0.41964 0.0
H348 H 0.00281 0.88136 0.39394 0.0
H349 H 0.03587 0.84029 0.39143 0.0
H350 H 0.00316 0.77275 0.2944 0.0
H351 H 0.00423 0.83159 0.26628 0.0
H352 H 0.97569 0.89683 0.342 0.0
C353 C 0.96969 0.76468 0.404 0.0
C354 C 0.97514 0.72507 0.40133 0.0
C355 C 0.98628 0.70952 0.3747 0.0
C356 C 0.99143 0.73296 0.35093 0.0
C357 C 0.98573 0.77188 0.35426 0.0
C358 C 0.97542 0.78771 0.38014 0.0
C359 C 0.97172 0.83047 0.37804 0.0
C360 C 0.92759 0.84366 0.38544 0.0
C361 C 0.00412 0.85013 0.39688 0.0
C362 C 0.98112 0.8362 0.34682 0.0
C363 C 0.98894 0.80197 0.33352 0.0
C364 C 0.99733 0.79973 0.3046 0.0
C365 C 0.99775 0.83334 0.2888 0.0
C366 C 0.99016 0.86882 0.30196 0.0
C367 C 0.98192 0.87018 0.33141 0.0
loop_
_geom_bond_atom_site_label_1
_geom_bond_atom_site_label_2
_geom_bond_distance
_geom_bond_site_symmetry_2
_ccdc_geom_bond_type
H0 C27 0.929 . S
N1 C26 1.433 1_556 S
N1 C32 1.435 . S
N1 C38 1.423 . S
H2 C28 0.930 . S
H3 C31 0.931 . S
H4 C30 0.929 . S
H5 C33 0.930 . S
H6 C34 0.932 . S
H7 C37 0.929 . S
H8 C36 0.931 . S
H9 C39 0.929 . S
H10 C43 0.932 1_565 S
H11 C40 0.931 . S
H12 C42 0.929 1_565 S
H13 C45 0.929 . S
H14 C46 0.930 . S
H15 C48 0.929 . S
H16 C49 0.931 . S
H17 C51 0.930 . S
H18 C52 0.932 . S
H19 C54 0.931 . S
H20 C55 0.929 . S
H21 C57 0.929 . S
H22 C58 0.931 . S
H23 C60 0.929 1_565 S
N24 C44 1.433 1_556 S
N24 C50 1.435 . S
N24 C56 1.423 . S
H25 C61 0.932 1_565 S
C26 N1 1.433 1_554 S
C26 C27 1.363 . S
C26 C31 1.370 1_545 S
C27 H0 0.929 . S
C27 C26 1.363 . S
C27 C28 1.385 . S
C28 H2 0.930 . S
C28 C27 1.385 . S
C28 C29 1.357 . S
C29 C28 1.357 . S
C29 C30 1.406 1_545 S
C30 H4 0.929 . S
C30 C29 1.406 1_565 S
C30 C31 1.391 . S
C31 H3 0.931 . S
C31 C26 1.370 1_565 S
C31 C30 1.391 . S
C32 N1 1.435 . S
C32 C33 1.358 1_545 S
C32 C37 1.371 . S
C33 H5 0.930 . S
C33 C32 1.358 1_565 S
C33 C34 1.405 . S
C34 H6 0.932 . S
C34 C33 1.405 . S
C34 C35 1.383 1_565 S
C35 C34 1.383 1_545 S
C35 C36 1.393 . S
C36 H8 0.931 . S
C36 C35 1.393 . S
C36 C37 1.382 . S
C37 H7 0.929 . S
C37 C32 1.371 . S
C37 C36 1.382 . S
C38 N1 1.423 . S
C38 C39 1.362 1_556 S
C38 C43 1.388 . S
C39 H9 0.929 . S
C39 C38 1.362 1_554 S
C39 C40 1.376 . S
C40 H11 0.931 . S
C40 C39 1.376 . S
C40 C41 1.396 1_554 S
C41 C40 1.396 1_556 S
C41 C42 1.348 . S
C41 C59 1.472 . S
C42 H12 0.929 1_545 S
C42 C41 1.348 . S
C42 C43 1.443 . S
C43 H10 0.932 1_545 S
C43 C38 1.388 . S
C43 C42 1.443 . S
C44 N24 1.433 1_554 S
C44 C45 1.363 . S
C44 C49 1.370 1_545 S
C45 H13 0.929 . S
C45 C44 1.363 . S
C45 C46 1.385 . S
C46 H14 0.930 . S
C46 C45 1.385 . S
C46 C47 1.357 . S
C47 C46 1.357 . S
C47 C48 1.406 1_545 S
C48 H15 0.929 . S
C48 C47 1.406 1_565 S
C48 C49 1.391 . S
C49 H16 0.931 . S
C49 C44 1.370 1_565 S
C49 C48 1.391 . S
C50 N24 1.435 . S
C50 C51 1.358 1_545 S
C50 C55 1.371 . S
C51 H17 0.930 . S
C51 C50 1.358 1_565 S
C51 C52 1.405 . S
C52 H18 0.932 . S
C52 C51 1.405 . S
C52 C53 1.383 1_565 S
C53 C52 1.383 1_545 S
C53 C54 1.393 . S
C54 H19 0.931 . S
C54 C53 1.393 . S
C54 C55 1.382 . S
C55 H20 0.929 . S
C55 C50 1.371 . S
C55 C54 1.382 . S
C56 N24 1.423 . S
C56 C57 1.362 1_556 S
C56 C61 1.388 . S
C57 H21 0.929 . S
C57 C56 1.362 1_554 S
C57 C58 1.376 . S
C58 H22 0.931 . S
C58 C57 1.376 . S
C58 C59 1.396 1_554 S
C59 C41 1.472 . S
C59 C58 1.396 1_556 S
C59 C60 1.348 . S
C60 H23 0.929 1_545 S
C60 C59 1.348 . S
C60 C61 1.443 . S
C61 H25 0.932 1_545 S
C61 C56 1.388 . S
C61 C60 1.443 . S
H62 C89 0.929 . S
N63 C88 1.433 . S
N63 C94 1.435 . S
N63 C100 1.423 . S
H64 C90 0.930 . S
H65 C93 0.931 . S
H66 C92 0.929 . S
H67 C95 0.930 . S
H68 C96 0.932 . S
H69 C99 0.929 . S
H70 C98 0.931 . S
H71 C101 0.929 . S
H72 C105 0.932 1_455 S
H73 C102 0.931 . S
H74 C104 0.929 1_455 S
H75 C107 0.929 . S
H76 C108 0.930 . S
H77 C110 0.929 . S
H78 C111 0.931 . S
H79 C113 0.930 . S
H80 C114 0.932 . S
H81 C116 0.931 . S
H82 C117 0.929 . S
H83 C119 0.929 . S
H84 C120 0.931 . S
H85 C122 0.929 1_455 S
N86 C106 1.433 . S
N86 C112 1.435 . S
N86 C118 1.423 . S
H87 C123 0.932 1_455 S
C88 N63 1.433 . S
C88 C89 1.363 . S
C88 C93 1.370 1_655 S
C89 H62 0.929 . S
C89 C88 1.363 . S
C89 C90 1.385 . S
C90 H64 0.930 . S
C90 C89 1.385 . S
C90 C91 1.357 . S
C91 C90 1.357 . S
C91 C92 1.406 1_655 S
C92 H66 0.929 . S
C92 C91 1.406 1_455 S
C92 C93 1.391 . S
C93 H65 0.931 . S
C93 C88 1.370 1_455 S
C93 C92 1.391 . S
C94 N63 1.435 . S
C94 C95 1.358 1_655 S
C94 C99 1.371 . S
C95 H67 0.930 . S
C95 C94 1.358 1_455 S
C95 C96 1.405 . S
C96 H68 0.932 . S
C96 C95 1.405 . S
C96 C97 1.383 1_455 S
C97 C96 1.383 1_655 S
C97 C98 1.393 . S
C98 H70 0.931 . S
C98 C97 1.393 . S
C98 C99 1.382 . S
C99 H69 0.929 . S
C99 C94 1.371 . S
C99 C98 1.382 . S
C100 N63 1.423 . S
C100 C101 1.362 . S
C100 C105 1.388 . S
C101 H71 0.929 . S
C101 C100 1.362 . S
C101 C102 1.376 . S
C102 H73 0.931 . S
C102 C101 1.376 . S
C102 C103 1.396 . S
C103 C102 1.396 . S
C103 C104 1.348 . S
C103 C121 1.472 . S
C104 H74 0.929 1_655 S
C104 C103 1.348 . S
C104 C105 1.443 . S
C105 H72 0.932 1_655 S
C105 C100 1.388 . S
C105 C104 1.443 . S
C106 N86 1.433 . S
C106 C107 1.363 . S
C106 C111 1.370 1_655 S
C107 H75 0.929 . S
C107 C106 1.363 . S
C107 C108 1.385 . S
C108 H76 0.930 . S
C108 C107 1.385 . S
C108 C109 1.357 . S
C109 C108 1.357 . S
C109 C110 1.406 1_655 S
C110 H77 0.929 . S
C110 C109 1.406 1_455 S
C110 C111 1.391 . S
C111 H78 0.931 . S
C111 C106 1.370 1_455 S
C111 C110 1.391 . S
C112 N86 1.435 . S
C112 C113 1.358 1_655 S
C112 C117 1.371 . S
C113 H79 0.930 . S
C113 C112 1.358 1_455 S
C113 C114 1.405 . S
C114 H80 0.932 . S
C114 C113 1.405 . S
C114 C115 1.383 1_455 S
C115 C114 1.383 1_655 S
C115 C116 1.393 . S
C116 H81 0.931 . S
C116 C115 1.393 . S
C116 C117 1.382 . S
C117 H82 0.929 . S
C117 C112 1.371 . S
C117 C116 1.382 . S
C118 N86 1.423 . S
C118 C119 1.362 . S
C118 C123 1.388 . S
C119 H83 0.929 . S
C119 C118 1.362 . S
C119 C120 1.376 . S
C120 H84 0.931 . S
C120 C119 1.376 . S
C120 C121 1.396 . S
C121 C103 1.472 . S
C121 C120 1.396 . S
C121 C122 1.348 . S
C122 H85 0.929 1_655 S
C122 C121 1.348 . S
C122 C123 1.443 . S
C123 H87 0.932 1_655 S
C123 C118 1.388 . S
C123 C122 1.443 . S
O124 Cd125 2.223 1_655 S
O124 C132 1.315 . S
Cd125 O124 2.223 1_455 S
Cd125 O128 2.297 1_455 S
Cd125 O129 2.439 1_455 S
Cd125 O135 2.240 1_565 S
Cd126 O127 2.240 1_545 S
Cd126 O134 2.223 1_655 S
Cd126 O136 2.297 1_655 S
Cd126 O137 2.439 1_655 S
O127 Cd126 2.240 1_565 S
O127 C132 1.279 . S
O128 Cd125 2.297 1_655 S
O128 C130 1.247 . S
O129 Cd125 2.439 1_655 S
O129 C130 1.208 . S
C130 O128 1.247 . S
C130 O129 1.208 . S
C131 O136 1.247 . S
C131 O137 1.208 . S
C132 O124 1.315 . S
C132 O127 1.279 . S
C133 O134 1.315 . S
C133 O135 1.279 . S
O134 Cd126 2.223 1_455 S
O134 C133 1.315 . S
O135 Cd125 2.240 1_545 S
O135 C133 1.279 . S
O136 Cd126 2.297 1_455 S
O136 C131 1.247 . S
O137 Cd126 2.439 1_455 S
O137 C131 1.208 . S
O138 Cd139 2.223 1_655 S
O138 C146 1.315 . S
Cd139 O138 2.223 1_455 S
Cd139 O142 2.297 1_455 S
Cd139 O143 2.439 1_455 S
Cd139 O149 2.240 1_545 S
Cd140 O141 2.240 1_565 S
Cd140 O148 2.223 1_655 S
Cd140 O150 2.297 1_655 S
Cd140 O151 2.439 1_655 S
O141 Cd140 2.240 1_545 S
O141 C146 1.279 . S
O142 Cd139 2.297 1_655 S
O142 C144 1.247 . S
O143 Cd139 2.439 1_655 S
O143 C144 1.208 . S
C144 O142 1.247 . S
C144 O143 1.208 . S
C145 O150 1.247 . S
C145 O151 1.208 . S
C146 O138 1.315 . S
C146 O141 1.279 . S
C147 O148 1.315 . S
C147 O149 1.279 . S
O148 Cd140 2.223 1_455 S
O148 C147 1.315 . S
O149 Cd139 2.240 1_565 S
O149 C147 1.279 . S
O150 Cd140 2.297 1_455 S
O150 C145 1.247 . S
O151 Cd140 2.439 1_455 S
O151 C145 1.208 . S
H152 C164 0.930 . S
H153 C166 0.930 . S
H154 C167 0.930 . S
H155 C171 0.959 . S
H156 C171 0.959 . S
H157 C171 0.961 . S
H158 C172 0.960 . S
H159 C172 0.961 . S
H160 C172 0.959 . S
H161 C175 0.929 . S
H162 C176 0.931 . S
H163 C178 0.930 . S
C164 H152 0.930 . S
C164 C165 1.392 1_545 S
C164 C169 1.399 . S
C165 C164 1.392 1_565 S
C165 C166 1.384 . S
C166 H153 0.930 . S
C166 C165 1.384 . S
C166 C167 1.388 . S
C167 H154 0.930 . S
C167 C166 1.388 . S
C167 C168 1.390 . S
C168 C167 1.390 . S
C168 C169 1.394 1_565 S
C168 C174 1.465 . S
C169 C164 1.399 . S
C169 C168 1.394 1_545 S
C169 C170 1.516 . S
C170 C169 1.516 . S
C170 C171 1.502 . S
C170 C172 1.561 . S
C170 C173 1.526 . S
C171 H155 0.959 . S
C171 H156 0.959 . S
C171 H157 0.961 . S
C171 C170 1.502 . S
C172 H158 0.960 . S
C172 H159 0.961 . S
C172 H160 0.959 . S
C172 C170 1.561 . S
C173 C170 1.526 . S
C173 C174 1.396 1_545 S
C173 C178 1.390 . S
C174 C168 1.465 . S
C174 C173 1.396 1_565 S
C174 C175 1.399 . S
C175 H161 0.929 . S
C175 C174 1.399 . S
C175 C176 1.385 . S
C176 H162 0.931 . S
C176 C175 1.385 . S
C176 C177 1.389 1_565 S
C177 C176 1.389 1_545 S
C177 C178 1.387 . S
C178 H163 0.930 . S
C178 C173 1.390 . S
C178 C177 1.387 . S
H179 C191 0.930 . S
H180 C193 0.930 . S
H181 C194 0.930 . S
H182 C198 0.959 . S
H183 C198 0.959 . S
H184 C198 0.961 . S
H185 C199 0.960 . S
H186 C199 0.961 . S
H187 C199 0.959 . S
H188 C202 0.929 . S
H189 C203 0.931 . S
H190 C205 0.930 . S
C191 H179 0.930 . S
C191 C192 1.399 1_455 S
C191 C196 1.399 1_455 S
C192 C191 1.399 1_655 S
C192 C193 1.376 . S
C193 H180 0.930 . S
C193 C192 1.376 . S
C193 C194 1.388 . S
C194 H181 0.930 . S
C194 C193 1.388 . S
C194 C195 1.390 . S
C195 C194 1.390 . S
C195 C196 1.394 . S
C195 C201 1.465 . S
C196 C191 1.399 1_655 S
C196 C195 1.394 . S
C196 C197 1.516 . S
C197 C196 1.516 . S
C197 C198 1.502 1_655 S
C197 C199 1.561 . S
C197 C200 1.526 . S
C198 H182 0.959 . S
C198 H183 0.959 . S
C198 H184 0.961 . S
C198 C197 1.502 1_455 S
C199 H185 0.960 . S
C199 H186 0.961 . S
C199 H187 0.959 . S
C199 C197 1.561 . S
C200 C197 1.526 . S
C200 C201 1.396 . S
C200 C205 1.390 . S
C201 C195 1.465 . S
C201 C200 1.396 . S
C201 C202 1.399 . S
C202 H188 0.929 . S
C202 C201 1.399 . S
C202 C203 1.385 . S
C203 H189 0.931 . S
C203 C202 1.385 . S
C203 C204 1.389 . S
C204 C203 1.389 . S
C204 C205 1.387 . S
C205 H190 0.930 . S
C205 C200 1.390 . S
C205 C204 1.387 . S
H206 C218 0.930 . S
H207 C220 0.930 . S
H208 C221 0.930 . S
H209 C225 0.959 . S
H210 C225 0.959 . S
H211 C225 0.961 . S
H212 C226 0.960 . S
H213 C226 0.961 . S
H214 C226 0.959 . S
H215 C229 0.929 . S
H216 C230 0.931 . S
H217 C232 0.930 . S
C218 H206 0.930 . S
C218 C219 1.399 1_545 S
C218 C223 1.397 1_545 S
C219 C218 1.399 1_565 S
C219 C220 1.376 . S
C220 H207 0.930 . S
C220 C219 1.376 . S
C220 C221 1.388 . S
C221 H208 0.930 . S
C221 C220 1.388 . S
C221 C222 1.390 . S
C222 C221 1.390 . S
C222 C223 1.399 . S
C222 C228 1.465 . S
C223 C218 1.397 1_565 S
C223 C222 1.399 . S
C223 C224 1.514 1_565 S
C224 C223 1.514 1_545 S
C224 C225 1.502 1_545 S
C224 C226 1.561 . S
C224 C227 1.526 1_545 S
C225 H209 0.959 . S
C225 H210 0.959 . S
C225 H211 0.961 . S
C225 C224 1.502 1_565 S
C226 H212 0.960 . S
C226 H213 0.961 . S
C226 H214 0.959 . S
C226 C224 1.561 . S
C227 C224 1.526 1_565 S
C227 C228 1.396 . S
C227 C232 1.390 . S
C228 C222 1.465 . S
C228 C227 1.396 . S
C228 C229 1.399 . S
C229 H215 0.929 . S
C229 C228 1.399 . S
C229 C230 1.385 . S
C230 H216 0.931 . S
C230 C229 1.385 . S
C230 C231 1.389 . S
C231 C230 1.389 . S
C231 C232 1.387 . S
C232 H217 0.930 . S
C232 C227 1.390 . S
C232 C231 1.387 . S
H233 C245 0.930 . S
H234 C247 0.930 . S
H235 C248 0.930 . S
H236 C252 0.959 . S
H237 C252 0.959 . S
H238 C252 0.961 . S
H239 C253 0.960 . S
H240 C253 0.961 . S
H241 C253 0.959 . S
H242 C256 0.929 . S
H243 C257 0.931 . S
H244 C259 0.930 1_655 S
C245 H233 0.930 . S
C245 C246 1.399 1_655 S
C245 C250 1.399 1_655 S
C246 C245 1.399 1_455 S
C246 C247 1.376 . S
C247 H234 0.930 . S
C247 C246 1.376 . S
C247 C248 1.388 . S
C248 H235 0.930 . S
C248 C247 1.388 . S
C248 C249 1.390 . S
C249 C248 1.390 . S
C249 C250 1.394 . S
C249 C255 1.465 . S
C250 C245 1.399 1_455 S
C250 C249 1.394 . S
C250 C251 1.516 1_455 S
C251 C250 1.516 1_655 S
C251 C252 1.502 . S
C251 C253 1.561 1_655 S
C251 C254 1.526 1_655 S
C252 H236 0.959 . S
C252 H237 0.959 . S
C252 H238 0.961 . S
C252 C251 1.502 . S
C253 H239 0.960 . S
C253 H240 0.961 . S
C253 H241 0.959 . S
C253 C251 1.561 1_455 S
C254 C251 1.526 1_455 S
C254 C255 1.396 . S
C254 C259 1.390 . S
C255 C249 1.465 . S
C255 C254 1.396 . S
C255 C256 1.399 . S
C256 H242 0.929 . S
C256 C255 1.399 . S
C256 C257 1.385 . S
C257 H243 0.931 . S
C257 C256 1.385 . S
C257 C258 1.389 . S
C258 C257 1.389 . S
C258 C259 1.387 . S
C259 H244 0.930 1_455 S
C259 C254 1.390 . S
C259 C258 1.387 . S
H260 C272 0.930 . S
H261 C274 0.930 . S
H262 C275 0.930 . S
H263 C279 0.959 . S
H264 C279 0.959 . S
H265 C279 0.961 . S
H266 C280 0.960 . S
H267 C280 0.961 . S
H268 C280 0.959 . S
H269 C283 0.929 . S
H270 C284 0.931 . S
H271 C286 0.930 . S
C272 H260 0.930 . S
C272 C273 1.399 1_545 S
C272 C277 1.399 . S
C273 C272 1.399 1_565 S
C273 C274 1.376 . S
C274 H261 0.930 . S
C274 C273 1.376 . S
C274 C275 1.388 . S
C275 H262 0.930 . S
C275 C274 1.388 . S
C275 C276 1.390 . S
C276 C275 1.390 . S
C276 C277 1.394 1_565 S
C276 C282 1.465 . S
C277 C272 1.399 . S
C277 C276 1.394 1_545 S
C277 C278 1.516 . S
C278 C277 1.516 . S
C278 C279 1.502 . S
C278 C280 1.561 . S
C278 C281 1.526 . S
C279 H263 0.959 . S
C279 H264 0.959 . S
C279 H265 0.961 . S
C279 C278 1.502 . S
C280 H266 0.960 . S
C280 H267 0.961 . S
C280 H268 0.959 . S
C280 C278 1.561 . S
C281 C278 1.526 . S
C281 C282 1.396 1_545 S
C281 C286 1.390 . S
C282 C276 1.465 . S
C282 C281 1.396 1_565 S
C282 C283 1.399 . S
C283 H269 0.929 . S
C283 C282 1.399 . S
C283 C284 1.385 . S
C284 H270 0.931 . S
C284 C283 1.385 . S
C284 C285 1.389 . S
C285 C284 1.389 . S
C285 C286 1.387 1_565 S
C286 H271 0.930 . S
C286 C281 1.390 . S
C286 C285 1.387 1_545 S
H287 C299 0.930 . S
H288 C301 0.930 . S
H289 C302 0.930 . S
H290 C306 0.959 . S
H291 C306 0.959 . S
H292 C306 0.961 . S
H293 C307 0.960 . S
H294 C307 0.961 . S
H295 C307 0.959 . S
H296 C310 0.929 . S
H297 C311 0.931 . S
H298 C313 0.930 . S
C299 H287 0.930 . S
C299 C300 1.399 1_455 S
C299 C304 1.399 . S
C300 C299 1.399 1_655 S
C300 C301 1.376 . S
C301 H288 0.930 . S
C301 C300 1.376 . S
C301 C302 1.388 . S
C302 H289 0.930 . S
C302 C301 1.388 . S
C302 C303 1.390 . S
C303 C302 1.390 . S
C303 C304 1.394 1_655 S
C303 C309 1.465 . S
C304 C299 1.399 . S
C304 C303 1.394 1_455 S
C304 C305 1.516 . S
C305 C304 1.516 . S
C305 C306 1.502 . S
C305 C307 1.561 . S
C305 C308 1.526 . S
C306 H290 0.959 . S
C306 H291 0.959 . S
C306 H292 0.961 . S
C306 C305 1.502 . S
C307 H293 0.960 . S
C307 H294 0.961 . S
C307 H295 0.959 . S
C307 C305 1.561 . S
C308 C305 1.526 . S
C308 C309 1.396 1_455 S
C308 C313 1.390 . S
C309 C303 1.465 . S
C309 C308 1.396 1_655 S
C309 C310 1.399 . S
C310 H296 0.929 . S
C310 C309 1.399 . S
C310 C311 1.385 . S
C311 H297 0.931 . S
C311 C310 1.385 . S
C311 C312 1.389 1_655 S
C312 C311 1.389 1_455 S
C312 C313 1.387 . S
C313 H298 0.930 . S
C313 C308 1.390 . S
C313 C312 1.387 . S
H314 C326 0.930 . S
H315 C328 0.930 . S
H316 C329 0.930 . S
H317 C333 0.959 . S
H318 C333 0.959 . S
H319 C333 0.961 . S
H320 C334 0.960 . S
H321 C334 0.961 . S
H322 C334 0.959 . S
H323 C337 0.929 . S
H324 C338 0.931 . S
H325 C340 0.930 . S
C326 H314 0.930 . S
C326 C327 1.399 1_545 S
C326 C331 1.399 . S
C327 C326 1.399 1_565 S
C327 C328 1.376 . S
C328 H315 0.930 . S
C328 C327 1.376 . S
C328 C329 1.388 . S
C329 H316 0.930 . S
C329 C328 1.388 . S
C329 C330 1.390 . S
C330 C329 1.390 . S
C330 C331 1.394 1_565 S
C330 C336 1.465 . S
C331 C326 1.399 . S
C331 C330 1.394 1_545 S
C331 C332 1.516 . S
C332 C331 1.516 . S
C332 C333 1.502 . S
C332 C334 1.561 . S
C332 C335 1.526 . S
C333 H317 0.959 . S
C333 H318 0.959 . S
C333 H319 0.961 . S
C333 C332 1.502 . S
C334 H320 0.960 . S
C334 H321 0.961 . S
C334 H322 0.959 . S
C334 C332 1.561 . S
C335 C332 1.526 . S
C335 C336 1.396 1_545 S
C335 C340 1.390 . S
C336 C330 1.465 . S
C336 C335 1.396 1_565 S
C336 C337 1.399 . S
C337 H323 0.929 . S
C337 C336 1.399 . S
C337 C338 1.385 . S
C338 H324 0.931 . S
C338 C337 1.385 . S
C338 C339 1.389 1_565 S
C339 C338 1.389 1_545 S
C339 C340 1.387 . S
C340 H325 0.930 . S
C340 C335 1.390 . S
C340 C339 1.387 . S
H341 C353 0.930 . S
H342 C355 0.930 . S
H343 C356 0.930 . S
H344 C360 0.959 . S
H345 C360 0.959 . S
H346 C360 0.961 . S
H347 C361 0.960 . S
H348 C361 0.954 1_655 S
H349 C361 0.959 . S
H350 C364 0.929 . S
H351 C365 0.931 . S
H352 C367 0.930 . S
C353 H341 0.930 . S
C353 C354 1.392 1_655 S
C353 C358 1.399 . S
C354 C353 1.392 1_455 S
C354 C355 1.384 . S
C355 H342 0.930 . S
C355 C354 1.384 . S
C355 C356 1.388 . S
C356 H343 0.930 . S
C356 C355 1.388 . S
C356 C357 1.388 1_455 S
C357 C356 1.388 1_655 S
C357 C358 1.395 . S
C357 C363 1.466 . S
C358 C353 1.399 . S
C358 C357 1.395 . S
C358 C359 1.516 . S
C359 C358 1.516 . S
C359 C360 1.502 . S
C359 C361 1.561 1_655 S
C359 C362 1.526 . S
C360 H344 0.959 . S
C360 H345 0.959 . S
C360 H346 0.961 . S
C360 C359 1.502 . S
C361 H347 0.960 . S
C361 H348 0.954 1_455 S
C361 H349 0.959 . S
C361 C359 1.561 1_455 S
C362 C359 1.526 . S
C362 C363 1.396 . S
C362 C367 1.390 . S
C363 C357 1.466 . S
C363 C362 1.396 . S
C363 C364 1.399 1_655 S
C364 H350 0.929 . S
C364 C363 1.399 1_455 S
C364 C365 1.385 1_455 S
C365 H351 0.931 . S
C365 C364 1.385 1_655 S
C365 C366 1.389 . S
C366 C365 1.389 . S
C366 C367 1.387 . S
C367 H352 0.930 . S
C367 C362 1.390 . S
C367 C366 1.387 . S
C177 C133 1.839 . S
C165 C47 1.710 1_565 S
C204 C144 1.792 . S
C192 C109 1.670 . S
C231 C132 1.823 . S
C219 C29 1.780 1_565 S
C258 C145 1.794 . S
C246 C91 1.717 1_455 S
C285 C147 1.573 . S
C273 C53 1.575 1_565 S
C312 C131 1.387 . S
C300 C115 1.468 . S
C339 C146 1.578 . S
C327 C35 1.574 1_565 S
C354 C97 1.489 1_455 S
C366 C130 1.393 . S
