# Generated by pormake.
# Topology rtl, (3,6)-cn, num edge types: 1
# Building blocks:
#     Node 0, Type 0, BuildingBlock: PAMTOO_clean_linker_0, # of connection points: 3
#     Node 1, Type 0, BuildingBlock: PAMTOO_clean_linker_0, # of connection points: 3
#     Node 2, Type 0, BuildingBlock: PAMTOO_clean_linker_0, # of connection points: 3
#     Node 3, Type 0, BuildingBlock: PAMTOO_clean_linker_0, # of connection points: 3
#     Node 4, Type 1, BuildingBlock: KUMBOL_clean_sbu_1, # of connection points: 6
#     Node 5, Type 1, BuildingBlock: KUMBOL_clean_sbu_1, # of connection points: 6
#     Edge 6, Type (0, 1), BuildingBlock: CIFDUS_clean_linker_0, # of connection points: 2
#     Edge 7, Type (0, 1), BuildingBlock: CIFDUS_clean_linker_0, # of connection points: 2
#     Edge 8, Type (0, 1), BuildingBlock: CIFDUS_clean_linker_0, # of connection points: 2
#     Edge 9, Type (0, 1), BuildingBlock: CIFDUS_clean_linker_0, # of connection points: 2
#     Edge 10, Type (0, 1), BuildingBlock: CIFDUS_clean_linker_0, # of connection points: 2
#     Edge 11, Type (0, 1), BuildingBlock: CIFDUS_clean_linker_0, # of connection points: 2
#     Edge 12, Type (0, 1), BuildingBlock: CIFDUS_clean_linker_0, # of connection points: 2
#     Edge 13, Type (0, 1), BuildingBlock: CIFDUS_clean_linker_0, # of connection points: 2
#     Edge 14, Type (0, 1), BuildingBlock: CIFDUS_clean_linker_0, # of connection points: 2
#     Edge 15, Type (0, 1), BuildingBlock: CIFDUS_clean_linker_0, # of connection points: 2
#     Edge 16, Type (0, 1), BuildingBlock: CIFDUS_clean_linker_0, # of connection points: 2
#     Edge 17, Type (0, 1), BuildingBlock: CIFDUS_clean_linker_0, # of connection points: 2
# Relax obj value: 0.052
# Max RMSD: 0.226
# Mean RMSD: 0.168
data_MOF--net-rtl--node1-KUMBOL_clean_sbu_1--node2-PAMTOO_clean_linker_0--edge1-CIFDUS_clean_linker_0
_symmetry_space_group_name_H-M    P1
_symmetry_Int_Tables_number       1
_symmetry_cell_setting            triclinic
loop_
_symmetry_equiv_pos_as_xyz
'x, y, z'
_cell_length_a     30.609134
_cell_length_b     31.098417
_cell_length_c     24.07197
_cell_angle_alpha  77.736445
_cell_angle_beta   99.088281
_cell_angle_gamma 91.94731
loop_
_atom_site_label
_atom_site_type_symbol
_atom_site_fract_x
_atom_site_fract_y
_atom_site_fract_z
_atom_type_partial_charge
H0 H 0.1251 0.87934 0.00911 0.0
H1 H 0.22321 0.79731 0.12971 0.0
H2 H 0.22836 0.8194 0.94882 0.0
H3 H 0.23485 0.72714 0.01856 0.0
C4 C 0.25923 0.73359 0.05543 0.0
O5 O 0.26507 0.77833 0.05107 0.0
H6 H 0.24553 0.71929 0.09553 0.0
C7 C 0.15476 0.85938 0.01792 0.0
C8 C 0.17507 0.85261 0.972 0.0
C9 C 0.17178 0.8395 0.07506 0.0
C10 C 0.21005 0.81343 0.08604 0.0
C11 C 0.23005 0.80589 0.04048 0.0
C12 C 0.21265 0.82552 0.98371 0.0
H13 H 0.65215 0.63141 0.67335 0.0
H14 H 0.75057 0.70498 0.58259 0.0
H15 H 0.72977 0.72954 0.74554 0.0
H16 H 0.74544 0.81189 0.6588 0.0
C17 C 0.76373 0.79674 0.63137 0.0
O18 O 0.77396 0.75367 0.6583 0.0
H19 H 0.74165 0.79785 0.58961 0.0
C20 C 0.6784 0.65571 0.67076 0.0
C21 C 0.68932 0.67798 0.71594 0.0
C22 C 0.70037 0.66437 0.62258 0.0
C23 C 0.73269 0.69773 0.61888 0.0
C24 C 0.74269 0.72174 0.66259 0.0
C25 C 0.72111 0.71173 0.71125 0.0
H26 H 0.89414 0.1504 0.11438 0.0
H27 H 0.7866 0.23871 0.03006 0.0
H28 H 0.82649 0.21978 0.21241 0.0
H29 H 0.73074 0.22609 0.17614 0.0
C30 C 0.7295 0.24798 0.13285 0.0
O31 O 0.77176 0.26122 0.12392 0.0
H32 H 0.71472 0.22889 0.10027 0.0
C33 C 0.86915 0.17384 0.11589 0.0
C34 C 0.86398 0.18307 0.16911 0.0
C35 C 0.84099 0.19312 0.06528 0.0
C36 C 0.80818 0.22276 0.06854 0.0
C37 C 0.80305 0.23232 0.12143 0.0
C38 C 0.83074 0.2123 0.17162 0.0
H39 H 0.41705 0.384 0.43235 0.0
H40 H 0.3277 0.29876 0.5264 0.0
H41 H 0.3311 0.29658 0.34901 0.0
H42 H 0.24053 0.2911 0.38124 0.0
C43 C 0.24878 0.27489 0.42749 0.0
O44 O 0.29303 0.26354 0.43976 0.0
H45 H 0.24188 0.29895 0.4533 0.0
C46 C 0.39165 0.35876 0.43411 0.0
C47 C 0.37623 0.34232 0.38471 0.0
C48 C 0.37483 0.34308 0.48564 0.0
C49 C 0.34126 0.31109 0.48708 0.0
C50 C 0.3254 0.29439 0.43785 0.0
C51 C 0.34333 0.30961 0.38688 0.0
C52 C 0.95863 0.14971 0.50708 0.0
C53 C 0.87983 0.13726 0.48288 0.0
C54 C 0.92153 0.12372 0.51478 0.0
C55 C 0.87641 0.17644 0.44083 0.0
C56 C 0.95496 0.19005 0.46667 0.0
C57 C 0.91394 0.20268 0.43254 0.0
N58 N 0.99764 0.13678 0.54144 0.0
C59 C 0.03252 0.1653 0.54228 0.0
C60 C 0.99221 0.21725 0.4633 0.0
C61 C 0.0309 0.20522 0.50216 0.0
Gd62 Gd 0.05468 0.98244 0.52915 0.0
Gd63 Gd 0.99757 0.06726 0.60445 0.0
N64 N 0.92618 0.08533 0.55456 0.0
C65 C 0.84288 0.11105 0.49451 0.0
C66 C 0.89013 0.06053 0.56787 0.0
C67 C 0.84799 0.07279 0.53766 0.0
H68 H 0.89415 0.03109 0.60141 0.0
H69 H 0.81953 0.05272 0.54759 0.0
H70 H 0.1455 0.03872 0.48895 0.0
H71 H 0.06132 0.15802 0.57472 0.0
H72 H 0.22605 0.03591 0.51931 0.0
H73 H 0.81024 0.12033 0.47095 0.0
H74 H 0.84479 0.18708 0.41515 0.0
H75 H 0.01603 0.88414 0.58391 0.0
H76 H 0.99082 0.24846 0.43277 0.0
H77 H 0.05918 0.22709 0.50207 0.0
H78 H 0.25012 0.89882 0.65565 0.0
H79 H 0.91063 0.2333 0.4008 0.0
H80 H 0.12441 0.80501 0.68375 0.0
H81 H 0.04441 0.81364 0.64604 0.0
N82 N 0.0791 0.91495 0.58776 0.0
C83 C 0.12328 0.91037 0.60595 0.0
C84 C 0.0509 0.88059 0.60046 0.0
C85 C 0.1121 0.83591 0.65653 0.0
C86 C 0.06691 0.84067 0.6354 0.0
C87 C 0.14098 0.87089 0.64157 0.0
H88 H 0.20097 0.83754 0.68837 0.0
N89 N 0.13264 0.98143 0.55038 0.0
C90 C 0.1508 0.94499 0.58758 0.0
C91 C 0.22418 0.97486 0.58106 0.0
C92 C 0.19703 0.94087 0.60433 0.0
C93 C 0.15929 0.01263 0.52372 0.0
C94 C 0.20524 0.0105 0.53973 0.0
O95 O 0.96534 0.04682 0.52255 0.0
O96 O 0.02452 0.04606 0.47719 0.0
O97 O 0.08352 0.9633 0.46108 0.0
O98 O 1.0141 0.95133 0.46625 0.0
O99 O 0.977 0.99609 0.62906 0.0
O100 O 0.98614 0.96312 0.55292 0.0
O101 O 0.05923 0.96619 0.62644 0.0
O102 O 0.06229 0.03454 0.64852 0.0
O103 O 0.96782 0.05519 0.68309 0.0
O104 O 0.99952 0.11715 0.65548 0.0
O105 O 0.07523 0.05453 0.51173 0.0
O106 O 0.06999 0.07871 0.59462 0.0
C107 C 0.98267 0.05405 0.4751 0.0
C108 C 0.96707 0.96576 0.59797 0.0
C109 C 0.05093 0.90354 0.42323 0.0
C110 C 0.07684 0.86275 0.35839 0.0
C111 C 0.03147 0.82654 0.42899 0.0
C112 C 0.02938 0.86551 0.44856 0.0
C113 C 0.05471 0.82517 0.38384 0.0
C114 C 0.07506 0.90176 0.37864 0.0
C115 C 0.04706 0.946 0.44005 0.0
C116 C 0.21474 0.90237 0.64192 0.0
C117 C 0.18677 0.86741 0.66041 0.0
H118 H 0.25983 0.97297 0.59281 0.0
C119 C 0.06958 0.99198 0.66335 0.0
C120 C 0.089 0.07953 0.54891 0.0
C121 C 0.93884 0.11875 0.70385 0.0
C122 C 0.90072 0.14511 0.77226 0.0
C123 C 0.87474 0.16638 0.66938 0.0
C124 C 0.90885 0.14241 0.65844 0.0
C125 C 0.87068 0.1679 0.72577 0.0
C126 C 0.93469 0.12016 0.7608 0.0
C127 C 0.97589 0.09474 0.69195 0.0
H128 H 1.01465 0.79738 0.4485 0.0
H129 H 1.01052 0.86601 0.48287 0.0
H130 H 0.05567 0.79472 0.36903 0.0
H131 H 0.09141 0.93113 0.35854 0.0
H132 H 0.8519 0.18463 0.63392 0.0
H133 H 0.91225 0.14329 0.61444 0.0
H134 H 0.84475 0.18807 0.73275 0.0
H135 H 0.9581 0.10224 0.79594 0.0
C136 C 0.65016 0.57749 0.04205 0.0
C137 C 0.645 0.65497 0.99558 0.0
C138 C 0.62645 0.61666 0.02583 0.0
C139 C 0.68679 0.65283 0.97924 0.0
C140 C 0.69306 0.57586 0.02811 0.0
C141 C 0.71068 0.61333 0.99524 0.0
N142 N 0.63257 0.54198 0.07474 0.0
C143 C 0.65831 0.50605 0.1006 0.0
C144 C 0.71773 0.5372 0.04964 0.0
C145 C 0.70063 0.50251 0.08708 0.0
Gd146 Gd 0.46934 0.49206 0.98874 0.0
Gd147 Gd 0.55975 0.55113 0.09062 0.0
N148 N 0.58555 0.61754 0.04074 0.0
C149 C 0.621 0.69433 0.98288 0.0
C150 C 0.56283 0.65612 0.03098 0.0
C151 C 0.57997 0.69499 1.00125 0.0
H152 H 0.53125 0.65665 0.0455 0.0
H153 H 0.56155 0.72541 0.99251 0.0
H154 H 0.5176 0.3961 0.98665 0.0
H155 H 0.64676 0.48028 0.13253 0.0
H156 H 0.51546 0.3182 0.03572 0.0
H157 H 0.63409 0.72444 0.95961 0.0
H158 H 0.70124 0.68172 0.95505 0.0
H159 H 0.37594 0.53725 1.00383 0.0
H160 H 0.75079 0.53461 0.03987 0.0
H161 H 0.72035 0.47337 0.10645 0.0
H162 H 0.39285 0.31014 0.13968 0.0
H163 H 0.74335 0.61248 0.98353 0.0
H164 H 0.3063 0.44084 0.11263 0.0
H165 H 0.31214 0.51663 0.0559 0.0
N166 N 0.40594 0.47425 0.03243 0.0
C167 C 0.40206 0.43188 0.06043 0.0
C168 C 0.37339 0.50418 0.02848 0.0
C169 C 0.33417 0.44973 0.08979 0.0
C170 C 0.33736 0.49256 0.05784 0.0
C171 C 0.36641 0.41857 0.09071 0.0
H172 H 0.33705 0.36389 0.14438 0.0
N173 N 0.46689 0.41579 0.02712 0.0
C174 C 0.4338 0.40185 0.05824 0.0
C175 C 0.46101 0.32724 0.07891 0.0
C176 C 0.43028 0.35731 0.08565 0.0
C177 C 0.4945 0.38594 0.01645 0.0
C178 C 0.49272 0.3415 0.04322 0.0
O179 O 0.54316 0.57759 0.99429 0.0
O180 O 0.53285 0.51607 0.95657 0.0
O181 O 0.44115 0.45663 0.92264 0.0
O182 O 0.43133 0.52668 0.90892 0.0
O183 O 0.49094 0.58143 0.0703 0.0
O184 O 0.45786 0.56456 0.98327 0.0
O185 O 0.46112 0.50096 0.07711 0.0
O186 O 0.52859 0.48784 0.13198 0.0
O187 O 0.54064 0.57162 0.16465 0.0
O188 O 0.60937 0.57049 0.15513 0.0
O189 O 0.54031 0.46796 1.00373 0.0
O190 O 0.56991 0.47825 0.09464 0.0
C191 C 0.55007 0.55534 0.95597 0.0
C192 C 0.46029 0.58766 0.02389 0.0
C193 C 0.44205 0.49778 0.82896 0.0
C194 C 0.43821 0.47485 0.73734 0.0
C195 C 0.49104 0.53083 0.76152 0.0
C196 C 0.47618 0.52731 0.81415 0.0
C197 C 0.47227 0.50483 0.72332 0.0
C198 C 0.42307 0.47173 0.79035 0.0
C199 C 0.42772 0.49231 0.88567 0.0
C200 C 0.39571 0.34409 0.11765 0.0
C201 C 0.36387 0.37467 0.12023 0.0
H202 H 0.45952 0.29274 0.09932 0.0
C203 C 0.48577 0.48116 0.12436 0.0
C204 C 0.56827 0.45724 0.05215 0.0
C205 C 0.59378 0.55282 0.24862 0.0
C206 C 0.62632 0.55658 0.34707 0.0
C207 C 0.61489 0.48573 0.31847 0.0
C208 C 0.59706 0.50684 0.26287 0.0
C209 C 0.63005 0.51025 0.36001 0.0
C210 C 0.60746 0.57744 0.29081 0.0
C211 C 0.58142 0.57553 0.18847 0.0
H212 H 0.5173 0.5537 0.75039 0.0
H213 H 0.49154 0.54752 0.8433 0.0
H214 H 0.48421 0.50844 0.68254 0.0
H215 H 0.3973 0.44836 0.80221 0.0
H216 H 0.6181 0.45025 0.32904 0.0
H217 H 0.58715 0.48745 0.23056 0.0
H218 H 0.64555 0.49265 0.40179 0.0
H219 H 0.6039 0.61287 0.27907 0.0
H220 H 0.23273 0.23109 0.53305 0.0
H221 H 0.20127 0.22877 0.35286 0.0
H222 H 0.15051 0.16705 0.37451 0.0
H223 H 0.11192 0.11651 0.44425 0.0
H224 H 0.1437 0.1184 0.62478 0.0
H225 H 0.19719 0.17748 0.6036 0.0
C226 C 0.21489 0.21674 0.49874 0.0
C227 C 0.22019 0.23469 0.44145 0.0
C228 C 0.18562 0.18141 0.51155 0.0
C229 C 0.19735 0.21571 0.39724 0.0
C230 C 0.16831 0.18049 0.4096 0.0
C231 C 0.131 0.12943 0.47904 0.0
C232 C 0.12373 0.1131 0.53603 0.0
C233 C 0.16171 0.16346 0.46652 0.0
C234 C 0.14847 0.13053 0.58052 0.0
C235 C 0.17909 0.16431 0.56844 0.0
H236 H 0.28956 0.70685 0.96757 0.0
H237 H 0.32593 0.71177 0.1464 0.0
H238 H 0.3936 0.67009 0.15163 0.0
H239 H 0.43913 0.62736 0.10701 0.0
H240 H 0.40115 0.62123 0.92827 0.0
H241 H 0.33761 0.66827 0.9213 0.0
C242 C 0.31254 0.699 0.0075 0.0
C243 C 0.30264 0.7116 0.05682 0.0
C244 C 0.35093 0.6746 0.01025 0.0
C245 C 0.33283 0.70187 0.10815 0.0
C246 C 0.37138 0.67803 0.11111 0.0
C247 C 0.41736 0.63681 0.06629 0.0
C248 C 0.42489 0.62044 0.01837 0.0
C249 C 0.38035 0.66347 0.0627 0.0
C250 C 0.3961 0.633 0.96602 0.0
C251 C 0.35964 0.65991 0.96194 0.0
H252 H 0.80853 0.85293 0.6934 0.0
H253 H 0.81202 0.79773 0.54458 0.0
H254 H 0.87639 0.84349 0.52187 0.0
H255 H 0.92917 0.90226 0.5418 0.0
H256 H 0.92435 0.95735 0.69111 0.0
H257 H 0.86327 0.90884 0.71587 0.0
C258 C 0.82359 0.85085 0.65619 0.0
C259 C 0.8053 0.82257 0.62018 0.0
C260 C 0.86023 0.87749 0.64323 0.0
C261 C 0.82539 0.81967 0.5725 0.0
C262 C 0.86208 0.84586 0.55952 0.0
C263 C 0.915 0.9035 0.57996 0.0
C264 C 0.93144 0.93388 0.61413 0.0
C265 C 0.87943 0.87543 0.59412 0.0
C266 C 0.91248 0.93471 0.66355 0.0
C267 C 0.8774 0.90687 0.67793 0.0
H268 H 0.69214 0.30347 0.03511 0.0
H269 H 0.70448 0.28156 0.21969 0.0
H270 H 0.65645 0.3448 0.21137 0.0
H271 H 0.60885 0.40485 0.15118 0.0
H272 H 0.59746 0.42705 0.96635 0.0
H273 H 0.64676 0.36515 0.97502 0.0
C274 C 0.6842 0.31271 0.07335 0.0
C275 C 0.70108 0.28767 0.12783 0.0
C276 C 0.65659 0.349 0.06816 0.0
C277 C 0.6913 0.30013 0.17729 0.0
C278 C 0.6639 0.33623 0.17252 0.0
C279 C 0.61751 0.39635 0.11286 0.0
C280 C 0.59942 0.42049 0.05821 0.0
C281 C 0.64603 0.3607 0.11815 0.0
C282 C 0.61067 0.40885 0.00893 0.0
C283 C 0.63895 0.37349 0.01382 0.0
H284 H 0.20469 0.86479 0.17519 0.0
H285 H 0.08502 0.82219 0.0816 0.0
H286 H 0.0452 0.82487 0.16124 0.0
H287 H 0.0446 0.83837 0.25824 0.0
H288 H 0.16282 0.88498 0.35006 0.0
H289 H 0.20311 0.8818 0.2707 0.0
C290 C 0.16989 0.8562 0.17242 0.0
C291 C 0.14777 0.84327 0.12276 0.0
C292 C 0.14704 0.85845 0.21809 0.0
C293 C 0.10259 0.83256 0.11927 0.0
C294 C 0.07989 0.83389 0.16486 0.0
C295 C 0.07922 0.84769 0.26076 0.0
C296 C 0.10092 0.8615 0.30992 0.0
C297 C 0.1018 0.8466 0.21457 0.0
C298 C 0.14555 0.87423 0.31252 0.0
C299 C 0.16854 0.87234 0.26725 0.0
H300 H 0.68274 0.59538 0.77664 0.0
H301 H 0.64616 0.72907 0.77044 0.0
H302 H 0.59976 0.70304 0.84547 0.0
H303 H 0.56463 0.6411 0.90646 0.0
H304 H 0.60262 0.50795 0.91118 0.0
H305 H 0.65229 0.53473 0.84154 0.0
C306 C 0.66488 0.61886 0.79212 0.0
C307 C 0.66742 0.664 0.76774 0.0
C308 C 0.63784 0.60362 0.83401 0.0
C309 C 0.64476 0.69417 0.78871 0.0
C310 C 0.6179 0.67923 0.83107 0.0
C311 C 0.58432 0.61814 0.89273 0.0
C312 C 0.58018 0.57266 0.91411 0.0
C313 C 0.61336 0.6339 0.85302 0.0
C314 C 0.60508 0.54309 0.89515 0.0
C315 C 0.63371 0.55839 0.85564 0.0
H316 H 0.83806 0.1317 0.26358 0.0
H317 H 0.95385 0.18526 0.19263 0.0
H318 H 1.00144 0.14929 0.28096 0.0
H319 H 1.00967 0.10353 0.37919 0.0
H320 H 0.89382 0.04584 0.44677 0.0
H321 H 0.84658 0.08234 0.35912 0.0
C322 C 0.87373 0.13548 0.26775 0.0
C323 C 0.89261 0.16124 0.22229 0.0
C324 C 0.90074 0.11395 0.31793 0.0
C325 C 0.9388 0.16553 0.2274 0.0
C326 C 0.96591 0.14501 0.27776 0.0
C327 C 0.97413 0.09861 0.37434 0.0
C328 C 0.95507 0.07283 0.41973 0.0
C329 C 0.94723 0.11915 0.32335 0.0
C330 C 0.90907 0.06642 0.41285 0.0
C331 C 0.88207 0.08714 0.3627 0.0
H332 H 0.32927 0.37482 0.55711 0.0
H333 H 0.46132 0.35115 0.52918 0.0
H334 H 0.49254 0.38779 0.60664 0.0
H335 H 0.48243 0.43039 0.67812 0.0
H336 H 0.3508 0.45633 0.7054 0.0
H337 H 0.3193 0.41432 0.63334 0.0
C338 C 0.36484 0.37712 0.56875 0.0
C339 C 0.39297 0.36067 0.53724 0.0
C340 C 0.38263 0.39881 0.61298 0.0
C341 C 0.43903 0.36407 0.5524 0.0
C342 C 0.4569 0.38497 0.59667 0.0
C343 C 0.44683 0.42694 0.66821 0.0
C344 C 0.41901 0.44686 0.69661 0.0
C345 C 0.42902 0.40326 0.6264 0.0
C346 C 0.37297 0.4412 0.68427 0.0
C347 C 0.35494 0.41737 0.64286 0.0
H348 H 0.69753 0.69118 0.5055 0.0
H349 H 0.67867 0.57697 0.63748 0.0
H350 H 0.65166 0.53533 0.56452 0.0
H351 H 0.63052 0.53175 0.46408 0.0
H352 H 0.66046 0.6412 0.3315 0.0
H353 H 0.68509 0.68416 0.40403 0.0
C354 C 0.6883 0.65699 0.51849 0.0
C355 C 0.68906 0.63792 0.57723 0.0
C356 C 0.67408 0.63235 0.47616 0.0
C357 C 0.6769 0.59336 0.59275 0.0
C358 C 0.66173 0.56921 0.551 0.0
C359 C 0.64335 0.56455 0.45051 0.0
C360 C 0.64288 0.58285 0.39162 0.0
C361 C 0.65966 0.58852 0.4926 0.0
C362 C 0.65883 0.62616 0.37597 0.0
C363 C 0.67361 0.65079 0.41764 0.0
H364 H 0.9167 0.18346 0.0224 0.0
H365 H 0.77444 0.17621 0.98289 0.0
H366 H 0.78055 0.15821 0.89058 0.0
H367 H 0.826 0.14588 0.82034 0.0
H368 H 0.96821 0.1549 0.85824 0.0
H369 H 0.96241 0.16901 0.95284 0.0
C370 C 0.88705 0.17751 0.99384 0.0
C371 C 0.84516 0.18154 0.00945 0.0
C372 C 0.89078 0.16702 0.94077 0.0
C373 C 0.80707 0.17415 0.97158 0.0
C374 C 0.81053 0.16351 0.91894 0.0
C375 C 0.85578 0.15108 0.84916 0.0
C376 C 0.89746 0.14954 0.83189 0.0
C377 C 0.85218 0.16021 0.90291 0.0
C378 C 0.93569 0.15539 0.87047 0.0
C379 C 0.9324 0.16391 0.92442 0.0
H380 H 0.37341 0.42641 0.32571 0.0
H381 H 0.42258 0.29819 0.32637 0.0
H382 H 0.46353 0.33023 0.24742 0.0
H383 H 0.48792 0.3959 0.18108 0.0
H384 H 0.43311 0.52271 0.17569 0.0
H385 H 0.39239 0.49053 0.25438 0.0
C386 C 0.39271 0.40553 0.30795 0.0
C387 C 0.39523 0.36016 0.33159 0.0
C388 C 0.41581 0.42414 0.26269 0.0
C389 C 0.42006 0.33319 0.30837 0.0
C390 C 0.44377 0.35157 0.26376 0.0
C391 C 0.46732 0.41629 0.19777 0.0
C392 C 0.46406 0.46161 0.17404 0.0
C393 C 0.44254 0.39715 0.2413 0.0
C394 C 0.43646 0.48783 0.19436 0.0
C395 C 0.41302 0.46941 0.23891 0.0
H396 H 0.15424 0.93844 0.92616 0.0
H397 H 0.15311 0.81072 0.88305 0.0
H398 H 0.11967 0.84233 0.78414 0.0
H399 H 0.089 0.90586 0.71111 0.0
H400 H 0.09477 0.03467 0.75178 0.0
H401 H 0.12716 1.00298 0.8508 0.0
C402 C 0.14659 0.91765 0.89498 0.0
C403 C 0.15592 0.87235 0.91176 0.0
C404 C 0.12801 0.93618 0.83797 0.0
C405 C 0.14639 0.84573 0.87095 0.0
C406 C 0.12715 0.86375 0.81452 0.0
C407 C 0.09814 0.92721 0.74105 0.0
C408 C 0.08994 0.97268 0.72337 0.0
C409 C 0.11772 0.90891 0.7976 0.0
C410 C 0.10084 0.99956 0.7638 0.0
C411 C 0.11942 0.98147 0.82057 0.0
loop_
_geom_bond_atom_site_label_1
_geom_bond_atom_site_label_2
_geom_bond_distance
_geom_bond_site_symmetry_2
_ccdc_geom_bond_type
H0 C7 0.929 . S
H1 C10 0.930 . S
H2 C12 0.929 . S
H3 C4 0.969 . S
C4 H3 0.969 . S
C4 O5 1.550 . S
C4 H6 0.973 . S
O5 C4 1.550 . S
O5 C11 1.412 . S
H6 C4 0.973 . S
C7 H0 0.929 . S
C7 C8 1.400 1_554 S
C7 C9 1.364 . S
C8 C7 1.400 1_556 S
C8 C12 1.377 . S
C9 C7 1.364 . S
C9 C10 1.374 . S
C10 H1 0.930 . S
C10 C9 1.374 . S
C10 C11 1.383 . S
C11 O5 1.412 . S
C11 C10 1.383 . S
C11 C12 1.394 1_554 S
C12 H2 0.929 . S
C12 C8 1.377 . S
C12 C11 1.394 1_556 S
H13 C20 0.929 . S
H14 C23 0.930 . S
H15 C25 0.929 . S
H16 C17 0.969 . S
C17 H16 0.969 . S
C17 O18 1.550 . S
C17 H19 0.973 . S
O18 C17 1.550 . S
O18 C24 1.412 . S
H19 C17 0.973 . S
C20 H13 0.929 . S
C20 C21 1.400 . S
C20 C22 1.364 . S
C21 C20 1.400 . S
C21 C25 1.377 . S
C22 C20 1.364 . S
C22 C23 1.374 . S
C23 H14 0.930 . S
C23 C22 1.374 . S
C23 C24 1.383 . S
C24 O18 1.412 . S
C24 C23 1.383 . S
C24 C25 1.394 . S
C25 H15 0.929 . S
C25 C21 1.377 . S
C25 C24 1.394 . S
H26 C33 0.929 . S
H27 C36 0.930 1_556 S
H28 C38 0.929 . S
H29 C30 0.969 . S
C30 H29 0.969 . S
C30 O31 1.550 . S
C30 H32 0.970 1_554 S
O31 C30 1.550 . S
O31 C37 1.412 . S
H32 C30 0.970 1_556 S
C33 H26 0.929 . S
C33 C34 1.400 . S
C33 C35 1.364 . S
C34 C33 1.400 . S
C34 C38 1.377 . S
C35 C33 1.364 . S
C35 C36 1.374 . S
C36 H27 0.930 1_554 S
C36 C35 1.374 . S
C36 C37 1.383 . S
C37 O31 1.412 . S
C37 C36 1.383 . S
C37 C38 1.394 . S
C38 H28 0.929 . S
C38 C34 1.377 . S
C38 C37 1.394 . S
H39 C46 0.929 . S
H40 C49 0.930 . S
H41 C51 0.929 . S
H42 C43 0.969 . S
C43 H42 0.969 . S
C43 O44 1.550 . S
C43 H45 0.973 . S
O44 C43 1.550 . S
O44 C50 1.412 . S
H45 C43 0.973 . S
C46 H39 0.929 . S
C46 C47 1.400 . S
C46 C48 1.364 . S
C47 C46 1.400 . S
C47 C51 1.377 . S
C48 C46 1.364 . S
C48 C49 1.374 . S
C49 H40 0.930 . S
C49 C48 1.374 . S
C49 C50 1.383 . S
C50 O44 1.412 . S
C50 C49 1.383 . S
C50 C51 1.394 . S
C51 H41 0.929 . S
C51 C47 1.377 . S
C51 C50 1.394 . S
C52 C54 1.422 . S
C52 C56 1.415 . S
C52 N58 1.369 . S
C53 C54 1.421 . S
C53 C55 1.417 . S
C53 C65 1.422 . S
C54 C52 1.422 . S
C54 C53 1.421 . S
C54 N64 1.359 . S
C55 C53 1.417 . S
C55 C57 1.329 . S
C55 H74 0.930 . S
C56 C52 1.415 . S
C56 C57 1.437 . S
C56 C60 1.413 . S
C57 C55 1.329 . S
C57 C56 1.437 . S
C57 H79 0.929 . S
N58 C52 1.369 . S
N58 C59 1.338 1_655 S
N58 Gd63 2.622 . S
C59 N58 1.338 1_455 S
C59 C61 1.378 . S
C59 H71 0.929 . S
C60 C56 1.413 . S
C60 C61 1.348 1_655 S
C60 H76 0.931 . S
C61 C59 1.378 . S
C61 C60 1.348 1_455 S
C61 H77 0.930 . S
Gd62 N82 2.622 . S
Gd62 N89 2.570 . S
Gd62 O96 2.353 1_465 S
Gd62 O97 2.468 . S
Gd62 O98 2.427 . S
Gd62 O100 2.388 1_455 S
Gd62 O101 2.386 . S
Gd62 O105 2.307 1_565 S
Gd62 C115 2.805 . S
Gd63 N58 2.622 . S
Gd63 N64 2.570 . S
Gd63 O95 2.386 . S
Gd63 O99 2.307 1_545 S
Gd63 O102 2.353 1_655 S
Gd63 O103 2.468 . S
Gd63 O104 2.427 . S
Gd63 O106 2.388 1_655 S
Gd63 C127 2.805 . S
N64 C54 1.359 . S
N64 Gd63 2.570 . S
N64 C66 1.343 . S
C65 C53 1.422 . S
C65 C67 1.321 . S
C65 H73 0.931 . S
C66 N64 1.343 . S
C66 C67 1.390 . S
C66 H68 0.931 . S
C67 C65 1.321 . S
C67 C66 1.390 . S
C67 H69 0.930 . S
H68 C66 0.931 . S
H69 C67 0.930 . S
H70 C93 0.931 . S
H71 C59 0.929 . S
H72 C94 0.930 . S
H73 C65 0.931 . S
H74 C55 0.930 . S
H75 C84 0.929 1_655 S
H76 C60 0.931 . S
H77 C61 0.930 . S
H78 C116 0.930 . S
H79 C57 0.929 . S
H80 C85 0.931 . S
H81 C86 0.930 1_655 S
N82 Gd62 2.622 . S
N82 C83 1.369 . S
N82 C84 1.338 . S
C83 N82 1.369 . S
C83 C87 1.415 . S
C83 C90 1.422 . S
C84 H75 0.929 1_455 S
C84 N82 1.338 . S
C84 C86 1.378 . S
C85 H80 0.931 . S
C85 C86 1.348 . S
C85 C87 1.413 . S
C86 H81 0.930 1_455 S
C86 C84 1.378 . S
C86 C85 1.348 . S
C87 C83 1.415 . S
C87 C85 1.413 . S
C87 C117 1.437 . S
H88 C117 0.929 . S
N89 Gd62 2.570 . S
N89 C90 1.359 . S
N89 C93 1.343 . S
C90 C83 1.422 . S
C90 N89 1.359 . S
C90 C92 1.421 . S
C91 C92 1.422 . S
C91 C94 1.321 . S
C91 H118 0.931 . S
C92 C90 1.421 . S
C92 C91 1.422 . S
C92 C116 1.417 . S
C93 H70 0.931 . S
C93 N89 1.343 . S
C93 C94 1.390 . S
C94 H72 0.930 . S
C94 C91 1.321 . S
C94 C93 1.390 . S
O95 Gd63 2.386 . S
O95 C107 1.265 . S
O96 Gd62 2.353 1_645 S
O96 C107 1.242 . S
O97 Gd62 2.468 . S
O97 C115 1.263 . S
O98 Gd62 2.427 . S
O98 C115 1.252 . S
O99 Gd63 2.307 1_565 S
O99 C108 1.261 . S
O100 Gd62 2.388 1_655 S
O100 C108 1.252 . S
O101 Gd62 2.386 . S
O101 C119 1.265 . S
O102 Gd63 2.353 1_455 S
O102 C119 1.242 1_545 S
O103 Gd63 2.468 . S
O103 C127 1.263 . S
O104 Gd63 2.427 . S
O104 C127 1.252 . S
O105 Gd62 2.307 1_545 S
O105 C120 1.261 . S
O106 Gd63 2.388 1_455 S
O106 C120 1.252 . S
C107 O95 1.265 . S
C107 O96 1.242 . S
C108 O99 1.261 . S
C108 O100 1.252 . S
C109 C112 1.394 . S
C109 C114 1.370 . S
C109 C115 1.500 . S
C110 C113 1.383 . S
C110 C114 1.395 . S
C111 C112 1.396 . S
C111 C113 1.365 . S
C111 H128 0.929 . S
C112 C109 1.394 . S
C112 C111 1.396 . S
C112 H129 0.930 . S
C113 C110 1.383 . S
C113 C111 1.365 . S
C113 H130 0.931 . S
C114 C109 1.370 . S
C114 C110 1.395 . S
C114 H131 0.930 . S
C115 Gd62 2.805 . S
C115 O97 1.263 . S
C115 O98 1.252 . S
C115 C109 1.500 . S
C116 H78 0.930 . S
C116 C92 1.417 . S
C116 C117 1.329 . S
C117 C87 1.437 . S
C117 H88 0.929 . S
C117 C116 1.329 . S
H118 C91 0.931 . S
C119 O101 1.265 . S
C119 O102 1.242 1_565 S
C120 O105 1.261 . S
C120 O106 1.252 . S
C121 C124 1.394 . S
C121 C126 1.370 . S
C121 C127 1.500 . S
C122 C125 1.383 . S
C122 C126 1.395 . S
C123 C124 1.396 . S
C123 C125 1.365 . S
C123 H132 0.929 . S
C124 C121 1.394 . S
C124 C123 1.396 . S
C124 H133 0.930 . S
C125 C122 1.383 . S
C125 C123 1.365 . S
C125 H134 0.931 . S
C126 C121 1.370 . S
C126 C122 1.395 . S
C126 H135 0.930 . S
C127 Gd63 2.805 . S
C127 O103 1.263 . S
C127 O104 1.252 . S
C127 C121 1.500 . S
H128 C111 0.929 . S
H129 C112 0.930 . S
H130 C113 0.931 . S
H131 C114 0.930 . S
H132 C123 0.929 . S
H133 C124 0.930 . S
H134 C125 0.931 . S
H135 C126 0.930 . S
C136 C138 1.422 . S
C136 C140 1.415 . S
C136 N142 1.369 . S
C137 C138 1.421 . S
C137 C139 1.417 . S
C137 C149 1.422 . S
C138 C136 1.422 . S
C138 C137 1.421 . S
C138 N148 1.359 . S
C139 C137 1.417 . S
C139 C141 1.329 . S
C139 H158 0.930 . S
C140 C136 1.415 . S
C140 C141 1.437 . S
C140 C144 1.413 . S
C141 C139 1.329 . S
C141 C140 1.437 . S
C141 H163 0.929 . S
N142 C136 1.369 . S
N142 C143 1.338 . S
N142 Gd147 2.622 . S
C143 N142 1.338 . S
C143 C145 1.378 . S
C143 H155 0.929 . S
C144 C140 1.413 . S
C144 C145 1.348 . S
C144 H160 0.931 . S
C145 C143 1.378 . S
C145 C144 1.348 . S
C145 H161 0.930 . S
Gd146 N166 2.622 . S
Gd146 N173 2.570 1_556 S
Gd146 O180 2.353 . S
Gd146 O181 2.468 . S
Gd146 O182 2.427 . S
Gd146 O184 2.388 1_556 S
Gd146 O185 2.386 1_556 S
Gd146 O189 2.307 1_556 S
Gd146 C199 2.805 . S
Gd147 N142 2.622 . S
Gd147 N148 2.570 . S
Gd147 O179 2.386 . S
Gd147 O183 2.307 . S
Gd147 O186 2.353 . S
Gd147 O187 2.468 . S
Gd147 O188 2.427 . S
Gd147 O190 2.388 . S
Gd147 C211 2.805 . S
N148 C138 1.359 . S
N148 Gd147 2.570 . S
N148 C150 1.343 . S
C149 C137 1.422 . S
C149 C151 1.321 . S
C149 H157 0.931 . S
C150 N148 1.343 . S
C150 C151 1.390 . S
C150 H152 0.931 . S
C151 C149 1.321 . S
C151 C150 1.390 . S
C151 H153 0.930 . S
H152 C150 0.931 . S
H153 C151 0.930 . S
H154 C177 0.931 . S
H155 C143 0.929 . S
H156 C178 0.930 . S
H157 C149 0.931 . S
H158 C139 0.930 . S
H159 C168 0.929 . S
H160 C144 0.931 . S
H161 C145 0.930 . S
H162 C200 0.930 . S
H163 C141 0.929 . S
H164 C169 0.931 . S
H165 C170 0.930 . S
N166 Gd146 2.622 . S
N166 C167 1.369 1_556 S
N166 C168 1.338 . S
C167 N166 1.369 1_554 S
C167 C171 1.415 . S
C167 C174 1.422 . S
C168 H159 0.929 . S
C168 N166 1.338 . S
C168 C170 1.378 . S
C169 H164 0.931 . S
C169 C170 1.348 1_554 S
C169 C171 1.413 . S
C170 H165 0.930 . S
C170 C168 1.378 . S
C170 C169 1.348 1_556 S
C171 C167 1.415 . S
C171 C169 1.413 . S
C171 C201 1.437 . S
H172 C201 0.929 . S
N173 Gd146 2.570 1_554 S
N173 C174 1.359 . S
N173 C177 1.343 . S
C174 C167 1.422 . S
C174 N173 1.359 . S
C174 C176 1.421 . S
C175 C176 1.422 . S
C175 C178 1.321 . S
C175 H202 0.931 . S
C176 C174 1.421 . S
C176 C175 1.422 . S
C176 C200 1.417 . S
C177 H154 0.931 . S
C177 N173 1.343 . S
C177 C178 1.390 . S
C178 H156 0.930 . S
C178 C175 1.321 . S
C178 C177 1.390 . S
O179 Gd147 2.386 . S
O179 C191 1.265 1_554 S
O180 Gd146 2.353 . S
O180 C191 1.242 . S
O181 Gd146 2.468 . S
O181 C199 1.263 . S
O182 Gd146 2.427 . S
O182 C199 1.252 . S
O183 Gd147 2.307 . S
O183 C192 1.261 . S
O184 Gd146 2.388 1_554 S
O184 C192 1.252 . S
O185 Gd146 2.386 1_554 S
O185 C203 1.265 . S
O186 Gd147 2.353 . S
O186 C203 1.242 . S
O187 Gd147 2.468 . S
O187 C211 1.263 . S
O188 Gd147 2.427 . S
O188 C211 1.252 . S
O189 Gd146 2.307 1_554 S
O189 C204 1.261 . S
O190 Gd147 2.388 . S
O190 C204 1.252 . S
C191 O179 1.265 1_556 S
C191 O180 1.242 . S
C192 O183 1.261 . S
C192 O184 1.252 . S
C193 C196 1.394 . S
C193 C198 1.370 . S
C193 C199 1.500 . S
C194 C197 1.383 . S
C194 C198 1.395 . S
C195 C196 1.396 . S
C195 C197 1.365 . S
C195 H212 0.929 . S
C196 C193 1.394 . S
C196 C195 1.396 . S
C196 H213 0.930 . S
C197 C194 1.383 . S
C197 C195 1.365 . S
C197 H214 0.931 . S
C198 C193 1.370 . S
C198 C194 1.395 . S
C198 H215 0.930 . S
C199 Gd146 2.805 . S
C199 O181 1.263 . S
C199 O182 1.252 . S
C199 C193 1.500 . S
C200 H162 0.930 . S
C200 C176 1.417 . S
C200 C201 1.329 . S
C201 C171 1.437 . S
C201 H172 0.929 . S
C201 C200 1.329 . S
H202 C175 0.931 . S
C203 O185 1.265 . S
C203 O186 1.242 . S
C204 O189 1.261 . S
C204 O190 1.252 . S
C205 C208 1.394 . S
C205 C210 1.370 . S
C205 C211 1.500 . S
C206 C209 1.383 . S
C206 C210 1.395 . S
C207 C208 1.396 . S
C207 C209 1.365 . S
C207 H216 0.929 . S
C208 C205 1.394 . S
C208 C207 1.396 . S
C208 H217 0.930 . S
C209 C206 1.383 . S
C209 C207 1.365 . S
C209 H218 0.931 . S
C210 C205 1.370 . S
C210 C206 1.395 . S
C210 H219 0.930 . S
C211 Gd147 2.805 . S
C211 O187 1.263 . S
C211 O188 1.252 . S
C211 C205 1.500 . S
H212 C195 0.929 . S
H213 C196 0.930 . S
H214 C197 0.931 . S
H215 C198 0.930 . S
H216 C207 0.929 . S
H217 C208 0.930 . S
H218 C209 0.931 . S
H219 C210 0.930 . S
H220 C226 0.930 . S
H221 C229 0.930 . S
H222 C230 0.930 . S
H223 C231 0.930 . S
H224 C234 0.930 . S
H225 C235 0.930 . S
C226 H220 0.930 . S
C226 C227 1.355 . S
C226 C228 1.415 . S
C227 C226 1.355 . S
C227 C229 1.419 . S
C228 C226 1.415 . S
C228 C233 1.425 . S
C228 C235 1.409 . S
C229 H221 0.930 . S
C229 C227 1.419 . S
C229 C230 1.362 . S
C230 H222 0.930 . S
C230 C229 1.362 . S
C230 C233 1.409 . S
C231 H223 0.930 . S
C231 C232 1.355 . S
C231 C233 1.415 . S
C232 C231 1.355 . S
C232 C234 1.419 . S
C233 C228 1.425 . S
C233 C230 1.409 . S
C233 C231 1.415 . S
C234 H224 0.930 . S
C234 C232 1.419 . S
C234 C235 1.362 . S
C235 H225 0.930 . S
C235 C228 1.409 . S
C235 C234 1.362 . S
H236 C242 0.930 1_556 S
H237 C245 0.930 . S
H238 C246 0.930 . S
H239 C247 0.930 . S
H240 C250 0.930 . S
H241 C251 0.930 . S
C242 H236 0.930 1_554 S
C242 C243 1.355 . S
C242 C244 1.415 . S
C243 C242 1.355 . S
C243 C245 1.419 . S
C244 C242 1.415 . S
C244 C249 1.425 . S
C244 C251 1.409 1_554 S
C245 H237 0.930 . S
C245 C243 1.419 . S
C245 C246 1.362 . S
C246 H238 0.930 . S
C246 C245 1.362 . S
C246 C249 1.409 . S
C247 H239 0.930 . S
C247 C248 1.355 . S
C247 C249 1.415 . S
C248 C247 1.355 . S
C248 C250 1.419 1_554 S
C249 C244 1.425 . S
C249 C246 1.409 . S
C249 C247 1.415 . S
C250 H240 0.930 . S
C250 C248 1.419 1_556 S
C250 C251 1.362 . S
C251 H241 0.930 . S
C251 C244 1.409 1_556 S
C251 C250 1.362 . S
H252 C258 0.930 . S
H253 C261 0.930 . S
H254 C262 0.930 . S
H255 C263 0.930 . S
H256 C266 0.930 . S
H257 C267 0.930 . S
C258 H252 0.930 . S
C258 C259 1.355 . S
C258 C260 1.415 . S
C259 C258 1.355 . S
C259 C261 1.419 . S
C260 C258 1.415 . S
C260 C265 1.425 . S
C260 C267 1.409 . S
C261 H253 0.930 . S
C261 C259 1.419 . S
C261 C262 1.362 . S
C262 H254 0.930 . S
C262 C261 1.362 . S
C262 C265 1.409 . S
C263 H255 0.930 . S
C263 C264 1.355 . S
C263 C265 1.415 . S
C264 C263 1.355 . S
C264 C266 1.419 . S
C265 C260 1.425 . S
C265 C262 1.409 . S
C265 C263 1.415 . S
C266 H256 0.930 . S
C266 C264 1.419 . S
C266 C267 1.362 . S
C267 H257 0.930 . S
C267 C260 1.409 . S
C267 C266 1.362 . S
H268 C274 0.930 1_556 S
H269 C277 0.930 . S
H270 C278 0.930 . S
H271 C279 0.930 . S
H272 C282 0.930 . S
H273 C283 0.930 . S
C274 H268 0.930 1_554 S
C274 C275 1.355 . S
C274 C276 1.415 . S
C275 C274 1.355 . S
C275 C277 1.419 . S
C276 C274 1.415 . S
C276 C281 1.425 . S
C276 C283 1.409 1_554 S
C277 H269 0.930 . S
C277 C275 1.419 . S
C277 C278 1.362 . S
C278 H270 0.930 . S
C278 C277 1.362 . S
C278 C281 1.409 . S
C279 H271 0.930 . S
C279 C280 1.355 . S
C279 C281 1.415 . S
C280 C279 1.355 . S
C280 C282 1.419 1_554 S
C281 C276 1.425 . S
C281 C278 1.409 . S
C281 C279 1.415 . S
C282 H272 0.930 . S
C282 C280 1.419 1_556 S
C282 C283 1.362 . S
C283 H273 0.930 . S
C283 C276 1.409 1_556 S
C283 C282 1.362 . S
H284 C290 0.930 . S
H285 C293 0.930 . S
H286 C294 0.930 . S
H287 C295 0.930 . S
H288 C298 0.930 . S
H289 C299 0.930 . S
C290 H284 0.930 . S
C290 C291 1.355 . S
C290 C292 1.415 . S
C291 C290 1.355 . S
C291 C293 1.419 . S
C292 C290 1.415 . S
C292 C297 1.425 . S
C292 C299 1.409 . S
C293 H285 0.930 . S
C293 C291 1.419 . S
C293 C294 1.362 . S
C294 H286 0.930 . S
C294 C293 1.362 . S
C294 C297 1.409 . S
C295 H287 0.930 . S
C295 C296 1.355 . S
C295 C297 1.415 . S
C296 C295 1.355 . S
C296 C298 1.419 . S
C297 C292 1.425 . S
C297 C294 1.409 . S
C297 C295 1.415 . S
C298 H288 0.930 . S
C298 C296 1.419 . S
C298 C299 1.362 . S
C299 H289 0.930 . S
C299 C292 1.409 . S
C299 C298 1.362 . S
H300 C306 0.930 . S
H301 C309 0.930 . S
H302 C310 0.930 . S
H303 C311 0.930 . S
H304 C314 0.930 . S
H305 C315 0.930 . S
C306 H300 0.930 . S
C306 C307 1.355 . S
C306 C308 1.415 . S
C307 C306 1.355 . S
C307 C309 1.419 . S
C308 C306 1.415 . S
C308 C313 1.425 . S
C308 C315 1.409 . S
C309 H301 0.930 . S
C309 C307 1.419 . S
C309 C310 1.362 . S
C310 H302 0.930 . S
C310 C309 1.362 . S
C310 C313 1.409 . S
C311 H303 0.930 . S
C311 C312 1.355 . S
C311 C313 1.415 . S
C312 C311 1.355 . S
C312 C314 1.419 . S
C313 C308 1.425 . S
C313 C310 1.409 . S
C313 C311 1.415 . S
C314 H304 0.930 . S
C314 C312 1.419 . S
C314 C315 1.362 . S
C315 H305 0.930 . S
C315 C308 1.409 . S
C315 C314 1.362 . S
H316 C322 0.930 . S
H317 C325 0.930 . S
H318 C326 0.930 . S
H319 C327 0.930 . S
H320 C330 0.930 . S
H321 C331 0.930 . S
C322 H316 0.930 . S
C322 C323 1.355 . S
C322 C324 1.415 . S
C323 C322 1.355 . S
C323 C325 1.419 . S
C324 C322 1.415 . S
C324 C329 1.425 . S
C324 C331 1.409 . S
C325 H317 0.930 . S
C325 C323 1.419 . S
C325 C326 1.362 . S
C326 H318 0.930 . S
C326 C325 1.362 . S
C326 C329 1.409 . S
C327 H319 0.930 . S
C327 C328 1.355 . S
C327 C329 1.415 . S
C328 C327 1.355 . S
C328 C330 1.419 . S
C329 C324 1.425 . S
C329 C326 1.409 . S
C329 C327 1.415 . S
C330 H320 0.930 . S
C330 C328 1.419 . S
C330 C331 1.362 . S
C331 H321 0.930 . S
C331 C324 1.409 . S
C331 C330 1.362 . S
H332 C338 0.930 . S
H333 C341 0.930 . S
H334 C342 0.930 . S
H335 C343 0.930 . S
H336 C346 0.930 . S
H337 C347 0.930 . S
C338 H332 0.930 . S
C338 C339 1.355 . S
C338 C340 1.415 . S
C339 C338 1.355 . S
C339 C341 1.419 . S
C340 C338 1.415 . S
C340 C345 1.425 . S
C340 C347 1.409 . S
C341 H333 0.930 . S
C341 C339 1.419 . S
C341 C342 1.362 . S
C342 H334 0.930 . S
C342 C341 1.362 . S
C342 C345 1.409 . S
C343 H335 0.930 . S
C343 C344 1.355 . S
C343 C345 1.415 . S
C344 C343 1.355 . S
C344 C346 1.419 . S
C345 C340 1.425 . S
C345 C342 1.409 . S
C345 C343 1.415 . S
C346 H336 0.930 . S
C346 C344 1.419 . S
C346 C347 1.362 . S
C347 H337 0.930 . S
C347 C340 1.409 . S
C347 C346 1.362 . S
H348 C354 0.930 . S
H349 C357 0.930 . S
H350 C358 0.930 . S
H351 C359 0.930 . S
H352 C362 0.930 . S
H353 C363 0.930 . S
C354 H348 0.930 . S
C354 C355 1.355 . S
C354 C356 1.415 . S
C355 C354 1.355 . S
C355 C357 1.419 . S
C356 C354 1.415 . S
C356 C361 1.425 . S
C356 C363 1.409 . S
C357 H349 0.930 . S
C357 C355 1.419 . S
C357 C358 1.362 . S
C358 H350 0.930 . S
C358 C357 1.362 . S
C358 C361 1.409 . S
C359 H351 0.930 . S
C359 C360 1.355 . S
C359 C361 1.415 . S
C360 C359 1.355 . S
C360 C362 1.419 . S
C361 C356 1.425 . S
C361 C358 1.409 . S
C361 C359 1.415 . S
C362 H352 0.930 . S
C362 C360 1.419 . S
C362 C363 1.362 . S
C363 H353 0.930 . S
C363 C356 1.409 . S
C363 C362 1.362 . S
H364 C370 0.930 . S
H365 C373 0.930 . S
H366 C374 0.930 . S
H367 C375 0.930 . S
H368 C378 0.930 . S
H369 C379 0.930 . S
C370 H364 0.930 . S
C370 C371 1.355 . S
C370 C372 1.415 . S
C371 C370 1.355 . S
C371 C373 1.419 . S
C372 C370 1.415 . S
C372 C377 1.425 . S
C372 C379 1.409 . S
C373 H365 0.930 . S
C373 C371 1.419 . S
C373 C374 1.362 . S
C374 H366 0.930 . S
C374 C373 1.362 . S
C374 C377 1.409 . S
C375 H367 0.930 . S
C375 C376 1.355 . S
C375 C377 1.415 . S
C376 C375 1.355 . S
C376 C378 1.419 . S
C377 C372 1.425 . S
C377 C374 1.409 . S
C377 C375 1.415 . S
C378 H368 0.930 . S
C378 C376 1.419 . S
C378 C379 1.362 . S
C379 H369 0.930 . S
C379 C372 1.409 . S
C379 C378 1.362 . S
H380 C386 0.930 . S
H381 C389 0.930 . S
H382 C390 0.930 . S
H383 C391 0.930 . S
H384 C394 0.930 . S
H385 C395 0.930 . S
C386 H380 0.930 . S
C386 C387 1.355 . S
C386 C388 1.415 . S
C387 C386 1.355 . S
C387 C389 1.419 . S
C388 C386 1.415 . S
C388 C393 1.425 . S
C388 C395 1.409 . S
C389 H381 0.930 . S
C389 C387 1.419 . S
C389 C390 1.362 . S
C390 H382 0.930 . S
C390 C389 1.362 . S
C390 C393 1.409 . S
C391 H383 0.930 . S
C391 C392 1.355 . S
C391 C393 1.415 . S
C392 C391 1.355 . S
C392 C394 1.419 . S
C393 C388 1.425 . S
C393 C390 1.409 . S
C393 C391 1.415 . S
C394 H384 0.930 . S
C394 C392 1.419 . S
C394 C395 1.362 . S
C395 H385 0.930 . S
C395 C388 1.409 . S
C395 C394 1.362 . S
H396 C402 0.930 . S
H397 C405 0.930 . S
H398 C406 0.930 . S
H399 C407 0.930 . S
H400 C410 0.930 . S
H401 C411 0.930 . S
C402 H396 0.930 . S
C402 C403 1.355 . S
C402 C404 1.415 . S
C403 C402 1.355 . S
C403 C405 1.419 . S
C404 C402 1.415 . S
C404 C409 1.425 . S
C404 C411 1.409 . S
C405 H397 0.930 . S
C405 C403 1.419 . S
C405 C406 1.362 . S
C406 H398 0.930 . S
C406 C405 1.362 . S
C406 C409 1.409 . S
C407 H399 0.930 . S
C407 C408 1.355 . S
C407 C409 1.415 . S
C408 C407 1.355 . S
C408 C410 1.419 . S
C409 C404 1.425 . S
C409 C406 1.409 . S
C409 C407 1.415 . S
C410 H400 0.930 . S
C410 C408 1.419 . S
C410 C411 1.362 . S
C411 H401 0.930 . S
C411 C404 1.409 . S
C411 C410 1.362 . S
C232 C120 1.629 . S
C227 C43 1.584 . S
C243 C4 1.559 . S
C248 C192 1.607 . S
C259 C17 1.576 . S
C264 C108 1.633 . S
C275 C30 1.645 . S
C280 C204 1.641 . S
C296 C110 1.423 . S
C291 C9 1.543 . S
C312 C191 1.655 . S
C307 C21 1.662 . S
C323 C34 1.606 . S
C328 C107 1.619 . S
C339 C48 1.570 . S
C344 C194 1.336 . S
C360 C206 1.442 . S
C355 C22 1.563 . S
C376 C122 1.340 . S
C371 C35 1.573 1_556 S
C392 C203 1.655 . S
C387 C47 1.660 . S
C403 C8 1.601 . S
C408 C119 1.619 . S
