# Generated by pormake.
# Topology nom, (4,4)-cn, num edge types: 1
# Building blocks:
#     Node 0, Type 0, BuildingBlock: MIFKUJ_clean_linker_1, # of connection points: 4
#     Node 1, Type 0, BuildingBlock: MIFKUJ_clean_linker_1, # of connection points: 4
#     Node 2, Type 0, BuildingBlock: MIFKUJ_clean_linker_1, # of connection points: 4
#     Node 3, Type 0, BuildingBlock: MIFKUJ_clean_linker_1, # of connection points: 4
#     Node 4, Type 0, BuildingBlock: MIFKUJ_clean_linker_1, # of connection points: 4
#     Node 5, Type 0, BuildingBlock: MIFKUJ_clean_linker_1, # of connection points: 4
#     Node 6, Type 1, BuildingBlock: GALJAG_clean_sbu_0, # of connection points: 4
#     Node 7, Type 1, BuildingBlock: GALJAG_clean_sbu_0, # of connection points: 4
#     Node 8, Type 1, BuildingBlock: GALJAG_clean_sbu_0, # of connection points: 4
#     Node 9, Type 1, BuildingBlock: GALJAG_clean_sbu_0, # of connection points: 4
#     Node 10, Type 1, BuildingBlock: GALJAG_clean_sbu_0, # of connection points: 4
#     Node 11, Type 1, BuildingBlock: GALJAG_clean_sbu_0, # of connection points: 4
#     Edge 12, Type (0, 1), BuildingBlock: TEMPAE_clean_linker_10, # of connection points: 2
#     Edge 13, Type (0, 1), BuildingBlock: TEMPAE_clean_linker_10, # of connection points: 2
#     Edge 14, Type (0, 1), BuildingBlock: TEMPAE_clean_linker_10, # of connection points: 2
#     Edge 15, Type (0, 1), BuildingBlock: TEMPAE_clean_linker_10, # of connection points: 2
#     Edge 16, Type (0, 1), BuildingBlock: TEMPAE_clean_linker_10, # of connection points: 2
#     Edge 17, Type (0, 1), BuildingBlock: TEMPAE_clean_linker_10, # of connection points: 2
#     Edge 18, Type (0, 1), BuildingBlock: TEMPAE_clean_linker_10, # of connection points: 2
#     Edge 19, Type (0, 1), BuildingBlock: TEMPAE_clean_linker_10, # of connection points: 2
#     Edge 20, Type (0, 1), BuildingBlock: TEMPAE_clean_linker_10, # of connection points: 2
#     Edge 21, Type (0, 1), BuildingBlock: TEMPAE_clean_linker_10, # of connection points: 2
#     Edge 22, Type (0, 1), BuildingBlock: TEMPAE_clean_linker_10, # of connection points: 2
#     Edge 23, Type (0, 1), BuildingBlock: TEMPAE_clean_linker_10, # of connection points: 2
#     Edge 24, Type (0, 1), BuildingBlock: TEMPAE_clean_linker_10, # of connection points: 2
#     Edge 25, Type (0, 1), BuildingBlock: TEMPAE_clean_linker_10, # of connection points: 2
#     Edge 26, Type (0, 1), BuildingBlock: TEMPAE_clean_linker_10, # of connection points: 2
#     Edge 27, Type (0, 1), BuildingBlock: TEMPAE_clean_linker_10, # of connection points: 2
#     Edge 28, Type (0, 1), BuildingBlock: TEMPAE_clean_linker_10, # of connection points: 2
#     Edge 29, Type (0, 1), BuildingBlock: TEMPAE_clean_linker_10, # of connection points: 2
#     Edge 30, Type (0, 1), BuildingBlock: TEMPAE_clean_linker_10, # of connection points: 2
#     Edge 31, Type (0, 1), BuildingBlock: TEMPAE_clean_linker_10, # of connection points: 2
#     Edge 32, Type (0, 1), BuildingBlock: TEMPAE_clean_linker_10, # of connection points: 2
#     Edge 33, Type (0, 1), BuildingBlock: TEMPAE_clean_linker_10, # of connection points: 2
#     Edge 34, Type (0, 1), BuildingBlock: TEMPAE_clean_linker_10, # of connection points: 2
#     Edge 35, Type (0, 1), BuildingBlock: TEMPAE_clean_linker_10, # of connection points: 2
# Relax obj value: 0.004
# Max RMSD: 0.109
# Mean RMSD: 0.081
data_MOF--net-nom--node1-GALJAG_clean_sbu_0--node2-MIFKUJ_clean_linker_1--edge1-TEMPAE_clean_linker_10
_symmetry_space_group_name_H-M    P1
_symmetry_Int_Tables_number       1
_symmetry_cell_setting            triclinic
loop_
_symmetry_equiv_pos_as_xyz
'x, y, z'
_cell_length_a     53.653961
_cell_length_b     53.562228
_cell_length_c     58.840487
_cell_angle_alpha  90.029972
_cell_angle_beta   89.988909
_cell_angle_gamma 120.05243
loop_
_atom_site_label
_atom_site_type_symbol
_atom_site_fract_x
_atom_site_fract_y
_atom_site_fract_z
_atom_type_partial_charge
H0 H 0.99183 0.49816 0.28275 0.0
H1 H 0.95971 0.47659 0.25031 0.0
H2 H 0.92381 0.53187 0.26239 0.0
H3 H 0.95581 0.55304 0.29521 0.0
H4 H 0.03302 0.55697 0.2878 0.0
H5 H 0.94391 0.48386 0.32852 0.0
H6 H 0.89342 0.46414 0.33987 0.0
H7 H 0.91302 0.54851 0.36327 0.0
H8 H 0.9633 0.56804 0.3519 0.0
H9 H 0.04135 0.59277 0.3844 0.0
H10 H 0.07279 0.60198 0.41723 0.0
H11 H 0.1122 0.55895 0.38336 0.0
H12 H 0.08012 0.54884 0.35087 0.0
H13 H 0.00126 0.54782 0.36797 0.0
H14 H 0.08724 0.61985 0.33846 0.0
H15 H 0.13721 0.64918 0.32685 0.0
H16 H 0.1256 0.58369 0.27811 0.0
H17 H 0.07641 0.5533 0.29136 0.0
C18 C 0.97613 0.52711 0.29141 0.0
C19 C 0.97695 0.50554 0.27846 0.0
C20 C 0.95868 0.49335 0.25985 0.0
C21 C 0.93934 0.50265 0.25364 0.0
C22 C 0.93825 0.52401 0.26686 0.0
C23 C 0.95654 0.53617 0.28559 0.0
C24 C 0.99678 0.54065 0.31037 0.0
C25 C 0.02629 0.55468 0.30543 0.0
C26 C 0.98781 0.53955 0.33308 0.0
C27 C 0.9572 0.5274 0.3393 0.0
C28 C 0.93722 0.49807 0.33599 0.0
C29 C 0.90852 0.48684 0.34258 0.0
C30 C 0.89937 0.50484 0.35242 0.0
C31 C 0.91943 0.53423 0.35554 0.0
C32 C 0.94813 0.54535 0.34917 0.0
C33 C 0.05843 0.57029 0.365 0.0
C34 C 0.05669 0.58525 0.38401 0.0
C35 C 0.07465 0.59051 0.40276 0.0
C36 C 0.09487 0.58116 0.40278 0.0
C37 C 0.09698 0.56664 0.38365 0.0
C38 C 0.07873 0.56099 0.36505 0.0
C39 C 0.038 0.56293 0.34568 0.0
C40 C 0.00846 0.55027 0.35047 0.0
C41 C 0.04713 0.56658 0.3227 0.0
C42 C 0.07798 0.58408 0.31606 0.0
C43 C 0.09562 0.61142 0.3257 0.0
C44 C 0.12416 0.62849 0.31868 0.0
C45 C 0.13558 0.61902 0.30136 0.0
C46 C 0.11784 0.59162 0.29172 0.0
C47 C 0.08948 0.57429 0.29911 0.0
H48 H 0.40637 0.96027 0.52127 0.0
H49 H 0.37886 0.90976 0.53303 0.0
H50 H 0.44572 0.89541 0.50644 0.0
H51 H 0.47339 0.94623 0.49491 0.0
H52 H 0.4624 0.0012 0.53552 0.0
H53 H 0.41404 0.94912 0.46619 0.0
H54 H 0.40451 0.91582 0.43481 0.0
H55 H 0.4929 0.96799 0.41262 0.0
H56 H 0.5029 0.99918 0.44528 0.0
H57 H 0.53789 0.07786 0.46486 0.0
H58 H 0.55984 0.12827 0.45304 0.0
H59 H 0.49392 0.13579 0.48952 0.0
H60 H 0.47263 0.08566 0.50173 0.0
H61 H 0.48578 0.03382 0.45555 0.0
H62 H 0.54021 0.07397 0.52134 0.0
H63 H 0.56227 0.10501 0.55446 0.0
H64 H 0.47786 0.07819 0.58175 0.0
H65 H 0.45577 0.04692 0.54854 0.0
C66 C 0.44176 0.95687 0.50708 0.0
C67 C 0.41507 0.94622 0.51795 0.0
C68 C 0.39932 0.91736 0.52454 0.0
C69 C 0.41011 0.89865 0.52058 0.0
C70 C 0.43699 0.90941 0.50982 0.0
C71 C 0.45269 0.93831 0.5031 0.0
C72 C 0.4583 0.98766 0.50057 0.0
C73 C 0.46714 0.0083 0.51798 0.0
C74 C 0.46598 0.99685 0.47777 0.0
C75 C 0.45938 0.97644 0.45851 0.0
C76 C 0.43156 0.95293 0.45494 0.0
C77 C 0.42601 0.93415 0.43663 0.0
C78 C 0.44793 0.93897 0.42104 0.0
C79 C 0.47557 0.96293 0.42447 0.0
C80 C 0.48126 0.98117 0.44305 0.0
C81 C 0.50374 0.07808 0.48426 0.0
C82 C 0.52831 0.09047 0.4704 0.0
C83 C 0.54072 0.11923 0.46356 0.0
C84 C 0.52858 0.13608 0.47024 0.0
C85 C 0.5041 0.12362 0.48434 0.0
C86 C 0.49185 0.09493 0.4913 0.0
C87 C 0.48955 0.04714 0.49045 0.0
C88 C 0.48098 0.02657 0.47305 0.0
C89 C 0.48344 0.03787 0.51325 0.0
C90 C 0.49636 0.05831 0.53244 0.0
C91 C 0.52643 0.07505 0.5343 0.0
C92 C 0.53901 0.09257 0.55327 0.0
C93 C 0.52173 0.09385 0.57064 0.0
C94 C 0.49161 0.07766 0.56851 0.0
C95 C 0.47902 0.05979 0.54964 0.0
H96 H 0.506 0.53079 0.70486 0.0
H97 H 0.49505 0.55193 0.73737 0.0
H98 H 0.40405 0.49673 0.7247 0.0
H99 H 0.41524 0.47574 0.69189 0.0
H100 H 0.49015 0.47361 0.69963 0.0
H101 H 0.4682 0.54275 0.66255 0.0
H102 H 0.43688 0.56145 0.65065 0.0
H103 H 0.37981 0.4801 0.61813 0.0
H104 H 0.41081 0.46133 0.63038 0.0
H105 H 0.46207 0.42998 0.60629 0.0
H106 H 0.48509 0.42046 0.57399 0.0
H107 H 0.56872 0.47867 0.60245 0.0
H108 H 0.54569 0.48806 0.63467 0.0
H109 H 0.46592 0.47997 0.61934 0.0
H110 H 0.48166 0.41013 0.65061 0.0
H111 H 0.50348 0.38194 0.66261 0.0
H112 H 0.55987 0.45077 0.70799 0.0
H113 H 0.53922 0.47972 0.69473 0.0
C114 C 0.46145 0.50176 0.69593 0.0
C115 C 0.48367 0.52327 0.70905 0.0
C116 C 0.47739 0.53525 0.72768 0.0
C117 C 0.44869 0.52585 0.73373 0.0
C118 C 0.42638 0.50459 0.72035 0.0
C119 C 0.43272 0.49255 0.70164 0.0
C120 C 0.46889 0.48847 0.67695 0.0
C121 C 0.48524 0.47535 0.68202 0.0
C122 C 0.46063 0.48891 0.65418 0.0
C123 C 0.44168 0.5005 0.6476 0.0
C124 C 0.44872 0.52879 0.65318 0.0
C125 C 0.43086 0.53947 0.64633 0.0
C126 C 0.40594 0.52221 0.63346 0.0
C127 C 0.39902 0.49397 0.62784 0.0
C128 C 0.41668 0.48323 0.63488 0.0
C129 C 0.50217 0.4596 0.62292 0.0
C130 C 0.48535 0.44055 0.6056 0.0
C131 C 0.49848 0.43503 0.58727 0.0
C132 C 0.52866 0.44888 0.58576 0.0
C133 C 0.54543 0.46785 0.60315 0.0
C134 C 0.5323 0.47307 0.6216 0.0
C135 C 0.48853 0.46653 0.64195 0.0
C136 C 0.47089 0.47822 0.63694 0.0
C137 C 0.49462 0.46375 0.66488 0.0
C138 C 0.50901 0.44728 0.6715 0.0
C139 C 0.49921 0.4195 0.66273 0.0
C140 C 0.51138 0.40315 0.66993 0.0
C141 C 0.5333 0.41395 0.68643 0.0
C142 C 0.54326 0.44187 0.69508 0.0
C143 C 0.53129 0.45837 0.68766 0.0
H144 H 0.0411 0.54186 0.78132 0.0
H145 H 0.07496 0.56426 0.75003 0.0
H146 H 0.11723 0.51656 0.76875 0.0
H147 H 0.08224 0.49305 0.79929 0.0
H148 H 0.00212 0.48623 0.78836 0.0
H149 H 0.0893 0.55884 0.8297 0.0
H150 H 0.13985 0.57988 0.84126 0.0
H151 H 0.12188 0.49681 0.86666 0.0
H152 H 0.07167 0.47591 0.85484 0.0
H153 H 0.99306 0.4436 0.88245 0.0
H154 H 0.96119 0.43075 0.91547 0.0
H155 H 0.91881 0.47293 0.88507 0.0
H156 H 0.95129 0.48672 0.85248 0.0
H157 H 0.03183 0.49174 0.86884 0.0
H158 H 0.95098 0.41749 0.83183 0.0
H159 H 0.90151 0.3873 0.81874 0.0
H160 H 0.90592 0.46086 0.78454 0.0
H161 H 0.95575 0.49074 0.79724 0.0
C162 C 0.05929 0.51601 0.79284 0.0
C163 C 0.05762 0.53617 0.77865 0.0
C164 C 0.07722 0.54921 0.7609 0.0
C165 C 0.09902 0.54242 0.75695 0.0
C166 C 0.10062 0.52215 0.77118 0.0
C167 C 0.08082 0.50892 0.78884 0.0
C168 C 0.03801 0.50214 0.81146 0.0
C169 C 0.00858 0.48777 0.80601 0.0
C170 C 0.04637 0.50263 0.83433 0.0
C171 C 0.07688 0.5158 0.84127 0.0
C172 C 0.09635 0.54521 0.83767 0.0
C173 C 0.1251 0.5572 0.84441 0.0
C174 C 0.13476 0.53992 0.85478 0.0
C175 C 0.11511 0.51054 0.85846 0.0
C176 C 0.08642 0.49864 0.85186 0.0
C177 C 0.97453 0.46598 0.86481 0.0
C178 C 0.97686 0.45004 0.88282 0.0
C179 C 0.95868 0.4427 0.90167 0.0
C180 C 0.93761 0.45089 0.90277 0.0
C181 C 0.93468 0.46609 0.88451 0.0
C182 C 0.95315 0.47382 0.86581 0.0
C183 C 0.99577 0.47633 0.84587 0.0
C184 C 0.02519 0.49009 0.85122 0.0
C185 C 0.9874 0.47424 0.82282 0.0
C186 C 0.95696 0.4564 0.81564 0.0
C187 C 0.94119 0.42715 0.82167 0.0
C188 C 0.91287 0.40994 0.81421 0.0
C189 C 0.89968 0.42165 0.8006 0.0
C190 C 0.91553 0.45104 0.79471 0.0
C191 C 0.94395 0.4682 0.80205 0.0
H192 H 0.62144 0.07288 0.01847 0.0
H193 H 0.64998 0.12355 0.02976 0.0
H194 H 0.58337 0.13892 0.00417 0.0
H195 H 0.55477 0.08803 0.99305 0.0
H196 H 0.56516 0.03275 0.03367 0.0
H197 H 0.61394 0.07902 0.96211 0.0
H198 H 0.62527 0.11176 0.92977 0.0
H199 H 0.53453 0.07253 0.91453 0.0
H200 H 0.5234 0.0399 0.94674 0.0
H201 H 0.4912 0.95688 0.95946 0.0
H202 H 0.47047 0.90705 0.94679 0.0
H203 H 0.52712 0.89561 0.99248 0.0
H204 H 0.54933 0.94599 0.00358 0.0
H205 H 0.53961 -0.00013 0.95389 0.0
H206 H 0.48632 0.96056 0.02125 0.0
H207 H 0.46548 0.92969 0.0547 0.0
H208 H 0.55085 0.95553 0.07924 0.0
H209 H 0.5717 0.98677 0.04588 0.0
C210 C 0.58614 0.07682 0.00481 0.0
C211 C 0.61305 0.0872 0.01524 0.0
C212 C 0.62937 0.11614 0.02156 0.0
C213 C 0.61889 0.13514 0.01779 0.0
C214 C 0.59186 0.12468 0.00739 0.0
C215 C 0.57563 0.09573 0.00091 0.0
C216 C 0.56884 0.04595 0.9987 0.0
C217 C 0.55986 0.02548 0.01619 0.0
C218 C 0.56053 0.03663 0.97607 0.0
C219 C 0.5678 0.05712 0.95691 0.0
C220 C 0.5965 0.0777 0.95193 0.0
C221 C 0.60294 0.0964 0.93347 0.0
C222 C 0.58079 0.09467 0.91956 0.0
C223 C 0.5521 0.07413 0.9247 0.0
C224 C 0.5457 0.05553 0.94315 0.0
C225 C 0.5217 0.95528 0.98268 0.0
C226 C 0.49922 0.94366 0.96671 0.0
C227 C 0.48715 0.915 0.95964 0.0
C228 C 0.49709 0.89718 0.96856 0.0
C229 C 0.51919 0.90873 0.98492 0.0
C230 C 0.53158 0.93751 0.99166 0.0
C231 C 0.53616 0.98638 0.98885 0.0
C232 C 0.54472 0.00696 0.97141 0.0
C233 C 0.54292 0.99591 0.01163 0.0
C234 C 0.53053 0.97582 0.03107 0.0
C235 C 0.50054 0.95937 0.03373 0.0
C236 C 0.48868 0.94192 0.05285 0.0
C237 C 0.50661 0.94035 0.06948 0.0
C238 C 0.53662 0.95631 0.06657 0.0
C239 C 0.5485 0.97417 0.04761 0.0
H240 H 0.52758 0.51059 0.21052 0.0
H241 H 0.53861 0.48976 0.24288 0.0
H242 H 0.62568 0.52425 0.21805 0.0
H243 H 0.61518 0.54754 0.18689 0.0
H244 H 0.54615 0.56308 0.19889 0.0
H245 H 0.55426 0.4835 0.16108 0.0
H246 H 0.58229 0.4605 0.15028 0.0
H247 H 0.64712 0.54065 0.1204 0.0
H248 H 0.61928 0.56347 0.1314 0.0
H249 H 0.57027 0.59274 0.10183 0.0
H250 H 0.54864 0.60188 0.06857 0.0
H251 H 0.46663 0.56332 0.10299 0.0
H252 H 0.48796 0.55318 0.13595 0.0
H253 H 0.56191 0.54623 0.11872 0.0
H254 H 0.55229 0.62297 0.14703 0.0
H255 H 0.53135 0.65233 0.15804 0.0
H256 H 0.47918 0.58853 0.20841 0.0
H257 H 0.49818 0.55811 0.1958 0.0
C258 C 0.57036 0.53031 0.19596 0.0
C259 C 0.54916 0.51392 0.21213 0.0
C260 C 0.55542 0.50159 0.23052 0.0
C261 C 0.58297 0.50482 0.23305 0.0
C262 C 0.60428 0.5214 0.21687 0.0
C263 C 0.59816 0.53437 0.19873 0.0
C264 C 0.56296 0.54325 0.17658 0.0
C265 C 0.54911 0.55903 0.18131 0.0
C266 C 0.56855 0.53964 0.15368 0.0
C267 C 0.58487 0.52521 0.14718 0.0
C268 C 0.57455 0.49605 0.15226 0.0
C269 C 0.59047 0.48294 0.14599 0.0
C270 C 0.61694 0.49886 0.13462 0.0
C271 C 0.627 0.52797 0.12942 0.0
C272 C 0.61105 0.54096 0.13555 0.0
C273 C 0.53085 0.57244 0.12154 0.0
C274 C 0.54763 0.58622 0.10227 0.0
C275 C 0.53529 0.59144 0.08328 0.0
C276 C 0.50601 0.58326 0.08327 0.0
C277 C 0.48933 0.57007 0.10269 0.0
C278 C 0.50156 0.56441 0.12156 0.0
C279 C 0.54351 0.56479 0.14094 0.0
C280 C 0.55861 0.55024 0.13624 0.0
C281 C 0.53958 0.57017 0.16388 0.0
C282 C 0.52657 0.58803 0.17031 0.0
C283 C 0.53581 0.61495 0.16006 0.0
C284 C 0.52416 0.63203 0.1667 0.0
C285 C 0.50356 0.62298 0.18423 0.0
C286 C 0.49454 0.59609 0.19458 0.0
C287 C 0.50572 0.57876 0.18757 0.0
In288 In 0.63558 0.39916 0.40922 0.0
O289 O 0.68332 0.43202 0.41518 0.0
O290 O 0.67227 0.40136 0.3886 0.0
C291 C 0.61655 0.41414 0.44636 0.0
C292 C 0.62153 0.41882 0.37204 0.0
C293 C 0.61301 0.34247 0.41859 0.0
O294 O 0.64118 0.4165 0.44554 0.0
O295 O 0.6019 0.40471 0.42841 0.0
O296 O 0.5994 0.35196 0.40748 0.0
O297 O 0.63792 0.36145 0.42465 0.0
C298 C 0.69196 0.42251 0.39917 0.0
O299 O 0.62 0.39453 0.37256 0.0
O300 O 0.62962 0.43294 0.39036 0.0
In301 In 0.25405 0.63477 0.57837 0.0
O302 O 0.2575 0.59405 0.58287 0.0
O303 O 0.29616 0.63444 0.58149 0.0
C304 C 0.21944 0.62034 0.54159 0.0
C305 C 0.22339 0.62301 0.61741 0.0
C306 C 0.29036 0.69084 0.56895 0.0
O307 O 0.23156 0.60627 0.54735 0.0
O308 O 0.22448 0.64112 0.55451 0.0
O309 O 0.27481 0.6829 0.58659 0.0
O310 O 0.28775 0.67053 0.55643 0.0
C311 C 0.28464 0.60754 0.58385 0.0
O312 O 0.25053 0.63695 0.61708 0.0
O313 O 0.21182 0.6157 0.59809 0.0
In314 In 0.63766 0.2547 0.74371 0.0
O315 O 0.6855 0.26951 0.73951 0.0
O316 O 0.67431 0.29642 0.75814 0.0
C317 C 0.61566 0.2173 0.70867 0.0
C318 C 0.62482 0.22124 0.78106 0.0
C319 C 0.61517 0.28851 0.73377 0.0
O320 O 0.64048 0.23933 0.70813 0.0
O321 O 0.60221 0.21377 0.72707 0.0
O322 O 0.6129 0.27774 0.75329 0.0
O323 O 0.62875 0.28226 0.71953 0.0
C324 C 0.6941 0.29244 0.75078 0.0
O325 O 0.61175 0.23465 0.77616 0.0
O326 O 0.64401 0.22452 0.76703 0.0
In327 In 0.39731 0.63455 0.90888 0.0
O328 O 0.34928 0.60916 0.91752 0.0
O329 O 0.36218 0.63482 0.88762 0.0
C330 C 0.41981 0.61958 0.94369 0.0
C331 C 0.41064 0.612 0.87299 0.0
C332 C 0.41677 0.69024 0.91947 0.0
O333 O 0.39307 0.6068 0.93975 0.0
O334 O 0.43508 0.63935 0.92979 0.0
O335 O 0.42255 0.68276 0.90072 0.0
O336 O 0.4011 0.66969 0.93262 0.0
C337 C 0.34174 0.61773 0.90024 0.0
O338 O 0.42293 0.63883 0.87657 0.0
O339 O 0.39222 0.59672 0.88773 0.0
In340 In 0.77861 0.39732 0.07844 0.0
O341 O 0.79861 0.39208 0.11113 0.0
O342 O 0.81341 0.43453 0.0989 0.0
C343 C 0.74129 0.34183 0.06806 0.0
C344 C 0.74128 0.4156 0.08837 0.0
C345 C 0.81496 0.41142 0.04285 0.0
O346 O 0.75775 0.34895 0.08512 0.0
O347 O 0.74346 0.36269 0.05653 0.0
O348 O 0.80241 0.42536 0.0477 0.0
O349 O 0.8096 0.39091 0.05618 0.0
C350 C 0.81499 0.41882 0.11413 0.0
O351 O 0.75633 0.42321 0.07049 0.0
O352 O 0.74496 0.3987 0.10099 0.0
In353 In 0.39907 0.78147 0.2446 0.0
O354 O 0.4301 0.76435 0.25062 0.0
O355 O 0.40123 0.74755 0.22277 0.0
C356 C 0.41267 0.816 0.28129 0.0
C357 C 0.42035 0.81806 0.20922 0.0
C358 C 0.34261 0.74645 0.25389 0.0
O359 O 0.41498 0.79369 0.28101 0.0
O360 O 0.40411 0.82132 0.26291 0.0
O361 O 0.35102 0.76304 0.2369 0.0
O362 O 0.36251 0.74733 0.2658 0.0
C363 C 0.4213 0.74751 0.23379 0.0
O364 O 0.39431 0.79824 0.2103 0.0
O365 O 0.43551 0.81982 0.22625 0.0
C366 C 0.18252 0.62572 0.28645 0.0
C367 C 0.1657 0.63778 0.29322 0.0
C368 C 0.21088 0.64316 0.27877 0.0
C369 C 0.22306 0.67348 0.27841 0.0
C370 C 0.20632 0.68585 0.28518 0.0
C371 C 0.17776 0.66786 0.2922 0.0
C372 C 0.22795 0.62915 0.27133 0.0
C373 C 0.21873 0.71815 0.28541 0.0
C374 C 0.30441 0.71833 0.28233 0.0
C375 C 0.31201 0.72792 0.2599 0.0
C376 C 0.2755 0.70094 0.28862 0.0
C377 C 0.25373 0.69232 0.27192 0.0
C378 C 0.2613 0.7017 0.24916 0.0
C379 C 0.29041 0.71977 0.24347 0.0
C380 C 0.26826 0.69198 0.31317 0.0
C381 C 0.2387 0.69239 0.23081 0.0
H382 H 0.17372 0.60261 0.28747 0.0
H383 H 0.16488 0.67747 0.29684 0.0
H384 H 0.23705 0.63682 0.25413 0.0
H385 H 0.24631 0.63537 0.28308 0.0
H386 H 0.21467 0.60524 0.27099 0.0
H387 H 0.20284 0.72435 0.29115 0.0
H388 H 0.23767 0.72834 0.29689 0.0
H389 H 0.22633 0.72711 0.26817 0.0
H390 H 0.3211 0.72484 0.2951 0.0
H391 H 0.29632 0.72707 0.22609 0.0
H392 H 0.25704 0.66814 0.31457 0.0
H393 H 0.25338 0.69902 0.31977 0.0
H394 H 0.2877 0.70125 0.32417 0.0
H395 H 0.22628 0.6685 0.22977 0.0
H396 H 0.2482 0.70112 0.21386 0.0
H397 H 0.22323 0.6997 0.23504 0.0
C398 C 0.54264 0.18782 0.47676 0.0
C399 C 0.54101 0.16632 0.46217 0.0
C400 C 0.55389 0.21632 0.46924 0.0
C401 C 0.56407 0.2236 0.44665 0.0
C402 C 0.56262 0.20208 0.43185 0.0
C403 C 0.55097 0.17368 0.43975 0.0
C404 C 0.55501 0.23869 0.4855 0.0
C405 C 0.57343 0.20907 0.40769 0.0
C406 C 0.57127 0.29221 0.42142 0.0
C407 C 0.60061 0.31179 0.4248 0.0
C408 C 0.55907 0.26334 0.42835 0.0
C409 C 0.57673 0.25387 0.43866 0.0
C410 C 0.60648 0.27346 0.4417 0.0
C411 C 0.61803 0.30222 0.43484 0.0
C412 C 0.52721 0.24311 0.42501 0.0
C413 C 0.62607 0.26409 0.4524 0.0
H414 H 0.53538 0.18244 0.49419 0.0
H415 H 0.54935 0.15714 0.42823 0.0
H416 H 0.57767 0.25594 0.48812 0.0
H417 H 0.5433 0.24899 0.47821 0.0
H418 H 0.54544 0.22934 0.5023 0.0
H419 H 0.57089 0.18988 0.39838 0.0
H420 H 0.56159 0.2179 0.39835 0.0
H421 H 0.59654 0.22592 0.4076 0.0
H422 H 0.55772 0.29956 0.41374 0.0
H423 H 0.64076 0.31728 0.43741 0.0
H424 H 0.51668 0.23485 0.44172 0.0
H425 H 0.52359 0.2242 0.41476 0.0
H426 H 0.51655 0.25373 0.41639 0.0
H427 H 0.61892 0.25654 0.47002 0.0
H428 H 0.64887 0.28177 0.4529 0.0
H429 H 0.62487 0.24568 0.44279 0.0
C430 C 0.37797 0.52984 0.60292 0.0
C431 C 0.38739 0.53371 0.62556 0.0
C432 C 0.36066 0.54083 0.5951 0.0
C433 C 0.3524 0.55583 0.61034 0.0
C434 C 0.36159 0.55953 0.63328 0.0
C435 C 0.37912 0.54855 0.64059 0.0
C436 C 0.35158 0.53676 0.57046 0.0
C437 C 0.35298 0.57517 0.65009 0.0
C438 C 0.33181 0.60938 0.58772 0.0
C439 C 0.30167 0.59346 0.58893 0.0
C440 C 0.34854 0.59715 0.59415 0.0
C441 C 0.33479 0.56839 0.60219 0.0
C442 C 0.30434 0.552 0.603 0.0
C443 C 0.28811 0.56471 0.59625 0.0
C444 C 0.38095 0.61522 0.59278 0.0
C445 C 0.28894 0.52132 0.61158 0.0
H446 H 0.3846 0.51863 0.5912 0.0
H447 H 0.38612 0.55129 0.65815 0.0
H448 H 0.32776 0.52554 0.5692 0.0
H449 H 0.36008 0.55809 0.56215 0.0
H450 H 0.35939 0.52411 0.56091 0.0
H451 H 0.36121 0.57545 0.66747 0.0
H452 H 0.36138 0.59776 0.64448 0.0
H453 H 0.32917 0.56475 0.65084 0.0
H454 H 0.34239 0.6316 0.582 0.0
H455 H 0.26482 0.55236 0.59728 0.0
H456 H 0.38966 0.60393 0.58252 0.0
H457 H 0.39035 0.61836 0.61005 0.0
H458 H 0.38822 0.63674 0.58512 0.0
H459 H 0.29571 0.50808 0.6017 0.0
H460 H 0.26515 0.5112 0.61045 0.0
H461 H 0.29488 0.52086 0.62958 0.0
C462 C 0.8619 0.40615 0.77023 0.0
C463 C 0.86963 0.40316 0.79243 0.0
C464 C 0.83365 0.38873 0.76229 0.0
C465 C 0.81269 0.36759 0.77681 0.0
C466 C 0.82034 0.36434 0.79918 0.0
C467 C 0.84865 0.38227 0.80676 0.0
C468 C 0.82622 0.39293 0.73837 0.0
C469 C 0.79858 0.34197 0.81515 0.0
C470 C 0.73317 0.33907 0.76628 0.0
C471 C 0.72476 0.31239 0.75599 0.0
C472 C 0.7619 0.35759 0.7726 0.0
C473 C 0.78261 0.34905 0.76878 0.0
C474 C 0.77433 0.32235 0.75803 0.0
C475 C 0.74548 0.30438 0.75164 0.0
C476 C 0.76998 0.38605 0.78377 0.0
C477 C 0.79577 0.31242 0.75384 0.0
H478 H 0.87805 0.42192 0.75891 0.0
H479 H 0.85428 0.38009 0.82404 0.0
H480 H 0.81832 0.37268 0.72852 0.0
H481 H 0.80859 0.39806 0.73873 0.0
H482 H 0.84495 0.41053 0.72931 0.0
H483 H 0.80818 0.34172 0.83182 0.0
H484 H 0.78063 0.34623 0.81813 0.0
H485 H 0.7892 0.32021 0.8074 0.0
H486 H 0.71723 0.3454 0.76958 0.0
H487 H 0.73903 0.28372 0.74375 0.0
H488 H 0.78798 0.404 0.77441 0.0
H489 H 0.77757 0.38637 0.80136 0.0
H490 H 0.75163 0.39013 0.78447 0.0
H491 H 0.8143 0.32885 0.74388 0.0
H492 H 0.7861 0.29155 0.74457 0.0
H493 H 0.80436 0.3099 0.7703 0.0
C494 C 0.50286 0.85492 0.9579 0.0
C495 C 0.48496 0.86689 0.96052 0.0
C496 C 0.49174 0.82629 0.95078 0.0
C497 C 0.46208 0.80932 0.94564 0.0
C498 C 0.44396 0.82134 0.94775 0.0
C499 C 0.45554 0.84987 0.95538 0.0
C500 C 0.51168 0.8141 0.94901 0.0
C501 C 0.41227 0.80398 0.94215 0.0
C502 C 0.43911 0.74246 0.90945 0.0
C503 C 0.42794 0.72065 0.92592 0.0
C504 C 0.44983 0.77143 0.91555 0.0
C505 C 0.44989 0.77869 0.93872 0.0
C506 C 0.43875 0.75671 0.9554 0.0
C507 C 0.42764 0.72792 0.94876 0.0
C508 C 0.46107 0.79425 0.89726 0.0
C509 C 0.43895 0.76364 0.98031 0.0
H510 H 0.52572 0.86799 0.96129 0.0
H511 H 0.44141 0.85868 0.95762 0.0
H512 H 0.50399 0.79503 0.96028 0.0
H513 H 0.51163 0.8067 0.9314 0.0
H514 H 0.53418 0.8301 0.95378 0.0
H515 H 0.40145 0.817 0.94345 0.0
H516 H 0.40927 0.79518 0.92466 0.0
H517 H 0.40143 0.78536 0.95389 0.0
H518 H 0.43922 0.73686 0.89176 0.0
H519 H 0.41916 0.7111 0.96155 0.0
H520 H 0.48421 0.80984 0.9002 0.0
H521 H 0.44948 0.80654 0.8979 0.0
H522 H 0.45858 0.78492 0.87997 0.0
H523 H 0.46137 0.77848 0.98598 0.0
H524 H 0.4296 0.74403 0.99115 0.0
H525 H 0.42657 0.77487 0.98308 0.0
C526 C 0.62116 0.45836 0.11738 0.0
C527 C 0.63419 0.48535 0.12811 0.0
C528 C 0.63755 0.44593 0.1104 0.0
C529 C 0.66761 0.46079 0.11445 0.0
C530 C 0.6808 0.48788 0.12555 0.0
C531 C 0.66393 0.49987 0.13218 0.0
C532 C 0.6228 0.41708 0.0985 0.0
C533 C 0.71273 0.50424 0.13039 0.0
C534 C 0.7077 0.41921 0.11571 0.0
C535 C 0.72149 0.42618 0.09451 0.0
C536 C 0.68976 0.43 0.12229 0.0
C537 C 0.68537 0.44802 0.10723 0.0
C538 C 0.69878 0.45468 0.08561 0.0
C539 C 0.71679 0.44374 0.07953 0.0
C540 C 0.67598 0.42257 0.14553 0.0
C541 C 0.69444 0.4737 0.06905 0.0
H542 H 0.59821 0.44723 0.11401 0.0
H543 H 0.67399 0.52058 0.14073 0.0
H544 H 0.63223 0.41917 0.08134 0.0
H545 H 0.62637 0.4013 0.10808 0.0
H546 H 0.59925 0.4083 0.09669 0.0
H547 H 0.71959 0.52496 0.13933 0.0
H548 H 0.71867 0.49089 0.141 0.0
H549 H 0.72498 0.50886 0.11426 0.0
H550 H 0.71128 0.40566 0.12737 0.0
H551 H 0.72734 0.44911 0.06309 0.0
H552 H 0.65227 0.4125 0.14397 0.0
H553 H 0.68369 0.44255 0.15572 0.0
H554 H 0.68091 0.40759 0.15496 0.0
H555 H 0.67113 0.46488 0.06587 0.0
H556 H 0.70536 0.47576 0.05254 0.0
H557 H 0.70297 0.49556 0.07643 0.0
C558 C 0.40676 0.8552 0.53952 0.0
C559 C 0.39334 0.86807 0.52783 0.0
C560 C 0.3909 0.82649 0.54699 0.0
C561 C 0.36099 0.81027 0.54247 0.0
C562 C 0.34737 0.82312 0.53054 0.0
C563 C 0.36371 0.85189 0.52342 0.0
C564 C 0.40611 0.81355 0.55978 0.0
C565 C 0.31558 0.80642 0.52517 0.0
C566 C 0.32382 0.72857 0.54186 0.0
C567 C 0.3094 0.72144 0.5628 0.0
C568 C 0.34097 0.75742 0.53517 0.0
C569 C 0.34392 0.77968 0.54984 0.0
C570 C 0.32987 0.77264 0.57121 0.0
C571 C 0.31267 0.74355 0.57742 0.0
C572 C 0.35548 0.76405 0.5122 0.0
C573 C 0.33268 0.79583 0.58735 0.0
H574 H 0.4296 0.86776 0.54318 0.0
H575 H 0.35333 0.86169 0.51416 0.0
H576 H 0.39607 0.80603 0.57675 0.0
H577 H 0.40377 0.79445 0.55053 0.0
H578 H 0.42941 0.82916 0.56213 0.0
H579 H 0.30828 0.81962 0.51582 0.0
H580 H 0.31061 0.78721 0.51475 0.0
H581 H 0.30296 0.79854 0.54112 0.0
H582 H 0.32135 0.71156 0.53048 0.0
H583 H 0.3016 0.73813 0.59364 0.0
H584 H 0.37905 0.77847 0.51417 0.0
H585 H 0.34744 0.77561 0.50154 0.0
H586 H 0.35158 0.74426 0.50305 0.0
H587 H 0.35573 0.81115 0.59095 0.0
H588 H 0.32136 0.78682 0.60371 0.0
H589 H 0.32363 0.80835 0.5794 0.0
C590 C 0.57484 0.40826 0.69933 0.0
C591 C 0.5453 0.3959 0.6948 0.0
C592 C 0.5864 0.39131 0.70687 0.0
C593 C 0.56807 0.36122 0.70963 0.0
C594 C 0.53823 0.34864 0.70532 0.0
C595 C 0.52719 0.36615 0.69814 0.0
C596 C 0.61832 0.40551 0.71147 0.0
C597 C 0.51802 0.31659 0.70792 0.0
C598 C 0.60153 0.31363 0.70501 0.0
C599 C 0.60301 0.30703 0.72784 0.0
C600 C 0.5901 0.33115 0.69888 0.0
C601 C 0.58027 0.34267 0.71603 0.0
C602 C 0.58187 0.33624 0.73915 0.0
C603 C 0.59305 0.31827 0.74478 0.0
C604 C 0.58836 0.33717 0.67402 0.0
C605 C 0.57191 0.34844 0.7579 0.0
H606 H 0.58908 0.43114 0.69658 0.0
H607 H 0.50425 0.35647 0.69517 0.0
H608 H 0.62212 0.40002 0.72883 0.0
H609 H 0.62836 0.3973 0.69933 0.0
H610 H 0.62932 0.42937 0.70989 0.0
H611 H 0.49529 0.31027 0.70428 0.0
H612 H 0.52452 0.30465 0.69617 0.0
H613 H 0.51931 0.30969 0.72544 0.0
H614 H 0.60909 0.30487 0.69184 0.0
H615 H 0.59428 0.3133 0.76245 0.0
H616 H 0.6009 0.36072 0.67079 0.0
H617 H 0.56569 0.32973 0.66928 0.0
H618 H 0.5967 0.32633 0.66278 0.0
H619 H 0.58388 0.37235 0.75704 0.0
H620 H 0.57504 0.34174 0.77503 0.0
H621 H 0.54875 0.34125 0.75568 0.0
C622 C 0.18014 0.53773 0.85671 0.0
C623 C 0.16524 0.55233 0.86176 0.0
C624 C 0.20883 0.54885 0.86349 0.0
C625 C 0.22288 0.57513 0.87571 0.0
C626 C 0.20795 0.58998 0.88087 0.0
C627 C 0.1793 0.57844 0.87374 0.0
C628 C 0.22414 0.53255 0.85745 0.0
C629 C 0.22222 0.61797 0.894 0.0
C630 C 0.28918 0.58958 0.9094 0.0
C631 C 0.31137 0.60787 0.89464 0.0
C632 C 0.26022 0.57924 0.90369 0.0
C633 C 0.25341 0.58727 0.88268 0.0
C634 C 0.27576 0.60608 0.86788 0.0
C635 C 0.30448 0.61622 0.87408 0.0
C636 C 0.23692 0.55934 0.91994 0.0
C637 C 0.26933 0.615 0.84528 0.0
H638 H 0.16941 0.51771 0.84721 0.0
H639 H 0.1677 0.5896 0.87787 0.0
H640 H 0.24335 0.54633 0.8469 0.0
H641 H 0.23183 0.52702 0.87311 0.0
H642 H 0.21007 0.51234 0.84796 0.0
H643 H 0.20752 0.62666 0.89686 0.0
H644 H 0.2297 0.61471 0.91073 0.0
H645 H 0.24148 0.63436 0.88468 0.0
H646 H 0.29442 0.58314 0.92534 0.0
H647 H 0.32156 0.63036 0.8626 0.0
H648 H 0.22348 0.53795 0.91186 0.0
H649 H 0.22253 0.56805 0.92399 0.0
H650 H 0.24584 0.55628 0.93606 0.0
H651 H 0.2569 0.59569 0.83442 0.0
H652 H 0.28921 0.63047 0.83605 0.0
H653 H 0.25583 0.62508 0.84781 0.0
C654 C 0.62309 0.17864 0.03726 0.0
C655 C 0.63604 0.16569 0.02501 0.0
C656 C 0.63932 0.20727 0.04483 0.0
C657 C 0.6691 0.22334 0.03981 0.0
C658 C 0.68221 0.21044 0.02724 0.0
C659 C 0.66553 0.18172 0.02007 0.0
C660 C 0.62466 0.22024 0.05835 0.0
C661 C 0.71385 0.227 0.02134 0.0
C662 C 0.70695 0.30509 0.04072 0.0
C663 C 0.72182 0.3115 0.06143 0.0
C664 C 0.68947 0.27646 0.03358 0.0
C665 C 0.68662 0.25371 0.0476 0.0
C666 C 0.70112 0.26003 0.06875 0.0
C667 C 0.71868 0.2889 0.07539 0.0
C668 C 0.67449 0.27057 0.01084 0.0
C669 C 0.6984 0.23631 0.08423 0.0
H670 H 0.60036 0.16617 0.04132 0.0
H671 H 0.67551 0.17182 0.0104 0.0
H672 H 0.63502 0.22724 0.07526 0.0
H673 H 0.62713 0.23968 0.04958 0.0
H674 H 0.60134 0.20483 0.06084 0.0
H675 H 0.72067 0.21389 0.01128 0.0
H676 H 0.71875 0.24656 0.01143 0.0
H677 H 0.72692 0.23433 0.0371 0.0
H678 H 0.70936 0.3225 0.02984 0.0
H679 H 0.73008 0.29377 0.09144 0.0
H680 H 0.65094 0.25631 0.01304 0.0
H681 H 0.68211 0.25911 0.9996 0.0
H682 H 0.67844 0.29067 0.0022 0.0
H683 H 0.67538 0.2211 0.08803 0.0
H684 H 0.71012 0.2448 0.10052 0.0
H685 H 0.70704 0.22382 0.07562 0.0
C686 C 0.46304 0.62921 0.19911 0.0
C687 C 0.49178 0.64157 0.19189 0.0
C688 C 0.45182 0.6464 0.20678 0.0
C689 C 0.46948 0.67677 0.20663 0.0
C690 C 0.49837 0.68949 0.19917 0.0
C691 C 0.50927 0.67175 0.1922 0.0
C692 C 0.42101 0.63203 0.21494 0.0
C693 C 0.51769 0.72185 0.19836 0.0
C694 C 0.43106 0.71994 0.20455 0.0
C695 C 0.43384 0.72962 0.22703 0.0
C696 C 0.44303 0.70317 0.1976 0.0
C697 C 0.45744 0.69525 0.2137 0.0
C698 C 0.46009 0.70477 0.2365 0.0
C699 C 0.44857 0.72222 0.24284 0.0
C700 C 0.4404 0.69406 0.17301 0.0
C701 C 0.47471 0.69618 0.25424 0.0
H702 H 0.44908 0.60601 0.19857 0.0
H703 H 0.53164 0.68163 0.18714 0.0
H704 H 0.42012 0.63968 0.23229 0.0
H705 H 0.40823 0.63797 0.20367 0.0
H706 H 0.41068 0.60814 0.21527 0.0
H707 H 0.53949 0.72834 0.19172 0.0
H708 H 0.5079 0.73149 0.18739 0.0
H709 H 0.51997 0.73111 0.21561 0.0
H710 H 0.41988 0.72589 0.19226 0.0
H711 H 0.45059 0.72961 0.26025 0.0
H712 H 0.4281 0.67019 0.17174 0.0
H713 H 0.46209 0.70142 0.16577 0.0
H714 H 0.42944 0.70291 0.16248 0.0
H715 H 0.46374 0.67232 0.25546 0.0
H716 H 0.4746 0.70505 0.27129 0.0
H717 H 0.49735 0.70388 0.24925 0.0
C718 C 0.85404 0.50726 0.35379 0.0
C719 C 0.86907 0.49304 0.35967 0.0
C720 C 0.82539 0.49644 0.36061 0.0
C721 C 0.81158 0.47096 0.37384 0.0
C722 C 0.82676 0.45669 0.38003 0.0
C723 C 0.8553 0.46782 0.37274 0.0
C724 C 0.80976 0.51202 0.3534 0.0
C725 C 0.81284 0.42964 0.39431 0.0
C726 C 0.74443 0.45557 0.4069 0.0
C727 C 0.7226 0.43512 0.39291 0.0
C728 C 0.77356 0.46734 0.401 0.0
C729 C 0.7809 0.45867 0.3805 0.0
C730 C 0.7589 0.43819 0.36626 0.0
C731 C 0.73004 0.42655 0.3727 0.0
C732 C 0.79649 0.48892 0.41671 0.0
C733 C 0.76584 0.42865 0.34414 0.0
H734 H 0.8646 0.52665 0.34353 0.0
H735 H 0.86702 0.45701 0.37753 0.0
H736 H 0.79076 0.49749 0.34291 0.0
H737 H 0.8017 0.51813 0.36855 0.0
H738 H 0.82373 0.53181 0.34343 0.0
H739 H 0.82793 0.42173 0.39832 0.0
H740 H 0.80486 0.43374 0.41048 0.0
H741 H 0.79396 0.41233 0.38523 0.0
H742 H 0.73875 0.46218 0.42256 0.0
H743 H 0.71323 0.41083 0.36177 0.0
H744 H 0.8098 0.50962 0.40765 0.0
H745 H 0.81108 0.48094 0.42206 0.0
H746 H 0.78722 0.49313 0.43214 0.0
H747 H 0.77849 0.44761 0.333 0.0
H748 H 0.74618 0.41284 0.33485 0.0
H749 H 0.77931 0.4187 0.34745 0.0
C750 C 0.14311 0.59795 0.42051 0.0
C751 C 0.11329 0.58597 0.42294 0.0
C752 C 0.1608 0.60302 0.43955 0.0
C753 C 0.14825 0.59545 0.46146 0.0
C754 C 0.11806 0.58284 0.46393 0.0
C755 C 0.10096 0.57846 0.44465 0.0
C756 C 0.19294 0.61696 0.43627 0.0
C757 C 0.10383 0.57412 0.48697 0.0
C758 C 0.19143 0.58761 0.5094 0.0
C759 C 0.20128 0.6137 0.52108 0.0
C760 C 0.17403 0.58128 0.48998 0.0
C761 C 0.16677 0.60175 0.48191 0.0
C762 C 0.17697 0.62825 0.49352 0.0
C763 C 0.1939 0.6338 0.51306 0.0
C764 C 0.1632 0.55262 0.47821 0.0
C765 C 0.17004 0.6508 0.48528 0.0
H766 H 0.15265 0.60392 0.40373 0.0
H767 H 0.07785 0.56886 0.4465 0.0
H768 H 0.204 0.63777 0.44558 0.0
H769 H 0.20081 0.60302 0.44344 0.0
H770 H 0.19924 0.62108 0.41808 0.0
H771 H 0.07999 0.56338 0.48585 0.0
H772 H 0.10968 0.55923 0.49539 0.0
H773 H 0.11167 0.59342 0.498 0.0
H774 H 0.19706 0.57201 0.51559 0.0
H775 H 0.20163 0.65409 0.52195 0.0
H776 H 0.17066 0.55609 0.46031 0.0
H777 H 0.13931 0.54068 0.47789 0.0
H778 H 0.17063 0.53899 0.48671 0.0
H779 H 0.17741 0.65682 0.46747 0.0
H780 H 0.18031 0.67062 0.4959 0.0
H781 H 0.14641 0.64193 0.48544 0.0
C782 C 0.52714 0.13097 0.59911 0.0
C783 C 0.53523 0.11137 0.59124 0.0
C784 C 0.54027 0.14806 0.61837 0.0
C785 C 0.5616 0.14503 0.63021 0.0
C786 C 0.56949 0.12489 0.62251 0.0
C787 C 0.55636 0.10846 0.603 0.0
C788 C 0.53161 0.1696 0.62588 0.0
C789 C 0.59176 0.12068 0.6349 0.0
C790 C 0.61492 0.20698 0.66722 0.0
C791 C 0.60261 0.19816 0.68884 0.0
C792 C 0.60175 0.18991 0.64798 0.0
C793 C 0.57593 0.16317 0.6505 0.0
C794 C 0.56375 0.15388 0.67237 0.0
C795 C 0.57712 0.17162 0.69127 0.0
C796 C 0.61519 0.20072 0.62491 0.0
C797 C 0.53652 0.12528 0.67577 0.0
H798 H 0.51092 0.13332 0.58992 0.0
H799 H 0.56236 0.09303 0.59705 0.0
H800 H 0.52335 0.16493 0.64356 0.0
H801 H 0.55068 0.19165 0.62579 0.0
H802 H 0.51477 0.16938 0.61476 0.0
H803 H 0.59487 0.10356 0.62706 0.0
H804 H 0.61272 0.14112 0.63496 0.0
H805 H 0.58523 0.11485 0.65289 0.0
H806 H 0.63452 0.22759 0.66526 0.0
H807 H 0.56759 0.16471 0.70797 0.0
H808 H 0.5997 0.20267 0.6136 0.0
H809 H 0.62028 0.18505 0.6169 0.0
H810 H 0.63526 0.22202 0.62585 0.0
H811 H 0.51851 0.12504 0.66633 0.0
H812 H 0.53038 0.12077 0.69398 0.0
H813 H 0.53931 0.10757 0.66884 0.0
C814 C 0.42091 0.54562 0.75375 0.0
C815 C 0.44231 0.5379 0.75423 0.0
C816 C 0.41534 0.5577 0.77293 0.0
C817 C 0.43154 0.5621 0.79304 0.0
C818 C 0.45297 0.55409 0.79368 0.0
C819 C 0.45806 0.54206 0.7743 0.0
C820 C 0.39229 0.56596 0.77163 0.0
C821 C 0.47058 0.55826 0.81484 0.0
C822 C 0.43655 0.61709 0.83639 0.0
C823 C 0.41644 0.59935 0.85272 0.0
C824 C 0.44158 0.60526 0.8168 0.0
C825 C 0.42609 0.575 0.81349 0.0
C826 C 0.40578 0.557 0.82995 0.0
C827 C 0.40122 0.56939 0.84937 0.0
C828 C 0.46347 0.62513 0.79964 0.0
C829 C 0.38887 0.52464 0.82705 0.0
H830 H 0.40885 0.5427 0.73823 0.0
H831 H 0.47429 0.53568 0.77491 0.0
H832 H 0.37583 0.55444 0.78496 0.0
H833 H 0.40187 0.5894 0.77489 0.0
H834 H 0.38143 0.56088 0.75481 0.0
H835 H 0.48647 0.55093 0.81253 0.0
H836 H 0.48231 0.58138 0.81971 0.0
H837 H 0.45618 0.54614 0.82921 0.0
H838 H 0.44832 0.64025 0.83887 0.0
H839 H 0.38557 0.55556 0.86192 0.0
H840 H 0.45311 0.62224 0.78278 0.0
H841 H 0.48072 0.61962 0.79768 0.0
H842 H 0.47349 0.64819 0.80462 0.0
H843 H 0.37644 0.51902 0.81096 0.0
H844 H 0.37369 0.5137 0.84132 0.0
H845 H 0.40381 0.51602 0.82588 0.0
C846 C 0.93244 0.45206 0.94488 0.0
C847 C 0.91955 0.44472 0.92336 0.0
C848 C 0.91582 0.44722 0.96453 0.0
C849 C 0.88554 0.43431 0.96261 0.0
C850 C 0.87239 0.42658 0.94091 0.0
C851 C 0.88961 0.43213 0.9215 0.0
C852 C 0.93067 0.45616 0.98733 0.0
C853 C 0.84013 0.4123 0.93822 0.0
C854 C 0.84083 0.39741 0.01499 0.0
C855 C 0.83352 0.41771 0.02264 0.0
C856 C 0.85755 0.40244 0.99537 0.0
C857 C 0.86762 0.42864 0.98335 0.0
C858 C 0.86062 0.4494 0.99116 0.0
C859 C 0.84341 0.44357 0.01063 0.0
C860 C 0.8642 0.3796 0.98739 0.0
C861 C 0.87136 0.47778 0.97899 0.0
H862 H 0.95565 0.46214 0.94629 0.0
H863 H 0.87965 0.4263 0.90485 0.0
H864 H 0.92548 0.47157 0.9957 0.0
H865 H 0.92274 0.43708 0.99861 0.0
H866 H 0.95444 0.46643 0.98585 0.0
H867 H 0.83326 0.40728 0.92019 0.0
H868 H 0.82944 0.39197 0.94815 0.0
H869 H 0.83242 0.42654 0.94505 0.0
H870 H 0.83305 0.37729 0.02414 0.0
H871 H 0.83784 0.45933 0.01653 0.0
H872 H 0.88783 0.38847 0.98702 0.0
H873 H 0.85615 0.3729 0.9698 0.0
H874 H 0.85435 0.36021 0.99847 0.0
H875 H 0.89523 0.48944 0.97808 0.0
H876 H 0.86452 0.49187 0.98753 0.0
H877 H 0.8632 0.47388 0.96127 0.0
C878 C 0.47442 0.9265 0.10337 0.0
C879 C 0.494 0.92272 0.09014 0.0
C880 C 0.46245 0.9102 0.12315 0.0
C881 C 0.46984 0.88925 0.12955 0.0
C882 C 0.48949 0.88523 0.11613 0.0
C883 C 0.50159 0.90227 0.09669 0.0
C884 C 0.44204 0.91551 0.13725 0.0
C885 C 0.49746 0.86273 0.12218 0.0
C886 C 0.4589 0.86262 0.19058 0.0
C887 C 0.43247 0.83684 0.18913 0.0
C888 C 0.4711 0.88017 0.17139 0.0
C889 C 0.4568 0.87134 0.15018 0.0
C890 C 0.43011 0.84529 0.14864 0.0
C891 C 0.4181 0.8285 0.16821 0.0
C892 C 0.49929 0.90811 0.17379 0.0
C893 C 0.41447 0.8349 0.12625 0.0
H894 H 0.46882 0.94256 0.09839 0.0
H895 H 0.51662 0.89928 0.08634 0.0
H896 H 0.42068 0.89559 0.13811 0.0
H897 H 0.45022 0.92115 0.15492 0.0
H898 H 0.43916 0.93316 0.13026 0.0
H899 H 0.51273 0.86205 0.10978 0.0
H900 H 0.50742 0.86717 0.1393 0.0
H901 H 0.4778 0.84111 0.12282 0.0
H902 H 0.47 0.86916 0.20677 0.0
H903 H 0.39776 0.80845 0.16701 0.0
H904 H 0.49683 0.92638 0.16775 0.0
H905 H 0.51597 0.90751 0.16304 0.0
H906 H 0.5071 0.91239 0.19164 0.0
H907 H 0.40951 0.85113 0.11924 0.0
H908 H 0.39404 0.81401 0.12791 0.0
H909 H 0.42847 0.83226 0.11374 0.0
C910 C 0.6165 0.50494 0.26312 0.0
C911 C 0.5893 0.49118 0.25267 0.0
C912 C 0.62232 0.49264 0.282 0.0
C913 C 0.6002 0.46636 0.2911 0.0
C914 C 0.57279 0.45227 0.28064 0.0
C915 C 0.56783 0.46457 0.26136 0.0
C916 C 0.65205 0.50798 0.2924 0.0
C917 C 0.54849 0.42445 0.29006 0.0
C918 C 0.6188 0.42131 0.32987 0.0
C919 C 0.61538 0.43038 0.35139 0.0
C920 C 0.61439 0.43318 0.31006 0.0
C921 C 0.6055 0.45393 0.3119 0.0
C922 C 0.60146 0.46271 0.33364 0.0
C923 C 0.6069 0.45114 0.35315 0.0
C924 C 0.61969 0.42388 0.28719 0.0
C925 C 0.59123 0.48418 0.3363 0.0
H926 H 0.63318 0.52565 0.25687 0.0
H927 H 0.54697 0.45326 0.25317 0.0
H928 H 0.65097 0.51523 0.30984 0.0
H929 H 0.66061 0.49299 0.2938 0.0
H930 H 0.66742 0.52707 0.28231 0.0
H931 H 0.5283 0.41643 0.28012 0.0
H932 H 0.55467 0.40755 0.29013 0.0
H933 H 0.54414 0.4277 0.30794 0.0
H934 H 0.62566 0.40546 0.32853 0.0
H935 H 0.60414 0.45806 0.36982 0.0
H936 H 0.6361 0.44296 0.27769 0.0
H937 H 0.59965 0.41406 0.27693 0.0
H938 H 0.62721 0.40804 0.28872 0.0
H939 H 0.60699 0.50508 0.32852 0.0
H940 H 0.58823 0.48799 0.3544 0.0
H941 H 0.57048 0.47634 0.32724 0.0
C942 C 0.41531 0.90662 0.39001 0.0
C943 C 0.44211 0.91954 0.40108 0.0
C944 C 0.40994 0.88894 0.37087 0.0
C945 C 0.43217 0.88478 0.36212 0.0
C946 C 0.45923 0.8977 0.37312 0.0
C947 C 0.46369 0.91444 0.39266 0.0
C948 C 0.38054 0.87489 0.35993 0.0
C949 C 0.48366 0.89421 0.36406 0.0
C950 C 0.41425 0.82118 0.32341 0.0
C951 C 0.41826 0.83375 0.30186 0.0
C952 C 0.41816 0.83741 0.34318 0.0
C953 C 0.42724 0.86712 0.34131 0.0
C954 C 0.43186 0.88002 0.31955 0.0
C955 C 0.42682 0.86303 0.30005 0.0
C956 C 0.41217 0.82269 0.36603 0.0
C957 C 0.44237 0.91181 0.31688 0.0
H958 H 0.39856 0.91065 0.396 0.0
H959 H 0.48423 0.92356 0.40131 0.0
H960 H 0.38224 0.88341 0.34247 0.0
H961 H 0.37174 0.85128 0.35845 0.0
H962 H 0.36504 0.87872 0.36969 0.0
H963 H 0.50369 0.90645 0.37419 0.0
H964 H 0.47746 0.87111 0.3641 0.0
H965 H 0.48831 0.90177 0.34618 0.0
H966 H 0.40729 0.79842 0.32478 0.0
H967 H 0.43002 0.87274 0.28335 0.0
H968 H 0.39574 0.82557 0.37527 0.0
H969 H 0.43198 0.83267 0.37655 0.0
H970 H 0.40435 0.79923 0.3645 0.0
H971 H 0.42656 0.91703 0.32437 0.0
H972 H 0.44581 0.91867 0.29879 0.0
H973 H 0.46294 0.92462 0.32621 0.0
C974 C 0.56447 0.46781 0.55406 0.0
C975 C 0.54266 0.44418 0.56579 0.0
C976 C 0.57743 0.46381 0.53475 0.0
C977 C 0.56863 0.43548 0.52721 0.0
C978 C 0.54692 0.41152 0.53923 0.0
C979 C 0.53401 0.41617 0.55829 0.0
C980 C 0.60015 0.48989 0.52218 0.0
C981 C 0.53726 0.38098 0.53191 0.0
C982 C 0.58023 0.423 0.46554 0.0
C983 C 0.60516 0.42084 0.46692 0.0
C984 C 0.5684 0.42823 0.48498 0.0
C985 C 0.58156 0.43089 0.50638 0.0
C986 C 0.60684 0.42886 0.50787 0.0
C987 C 0.61849 0.42409 0.48806 0.0
C988 C 0.54169 0.43072 0.48264 0.0
C989 C 0.62127 0.43122 0.53043 0.0
H990 H 0.57096 0.48949 0.55973 0.0
H991 H 0.51732 0.3979 0.56748 0.0
H992 H 0.62042 0.48916 0.52122 0.0
H993 H 0.59297 0.48979 0.50447 0.0
H994 H 0.6048 0.51045 0.53041 0.0
H995 H 0.52095 0.36475 0.54361 0.0
H996 H 0.52787 0.37715 0.51459 0.0
H997 H 0.55601 0.37758 0.53113 0.0
H998 H 0.56992 0.42061 0.4492 0.0
H999 H 0.63768 0.42227 0.4892 0.0
H1000 H 0.54569 0.45162 0.48972 0.0
H1001 H 0.52379 0.41338 0.49253 0.0
H1002 H 0.5347 0.42917 0.46468 0.0
H1003 H 0.6274 0.45221 0.53856 0.0
H1004 H 0.64086 0.4293 0.52867 0.0
H1005 H 0.60601 0.41403 0.54206 0.0
C1006 C 0.13014 0.58508 0.73217 0.0
C1007 C 0.11946 0.55596 0.73768 0.0
C1008 C 0.1481 0.59768 0.71327 0.0
C1009 C 0.15585 0.58085 0.69964 0.0
C1010 C 0.14583 0.55169 0.70544 0.0
C1011 C 0.12765 0.53956 0.7243 0.0
C1012 C 0.1583 0.62883 0.70759 0.0
C1013 C 0.15376 0.53308 0.6914 0.0
C1014 C 0.17633 0.60095 0.63784 0.0
C1015 C 0.20642 0.61421 0.63867 0.0
C1016 C 0.15968 0.5906 0.65764 0.0
C1017 C 0.17345 0.59333 0.67877 0.0
C1018 C 0.20388 0.60719 0.67979 0.0
C1019 C 0.22003 0.6176 0.65971 0.0
C1020 C 0.12731 0.57624 0.65589 0.0
C1021 C 0.21931 0.61031 0.70198 0.0
H1022 H 0.12437 0.59808 0.74263 0.0
H1023 H 0.11925 0.51697 0.7282 0.0
H1024 H 0.18215 0.64125 0.70667 0.0
H1025 H 0.15001 0.63022 0.69065 0.0
H1026 H 0.15107 0.63921 0.7203 0.0
H1027 H 0.14557 0.51133 0.69892 0.0
H1028 H 0.14478 0.5305 0.67402 0.0
H1029 H 0.17751 0.54362 0.68971 0.0
H1030 H 0.16572 0.59834 0.62161 0.0
H1031 H 0.24329 0.62774 0.66042 0.0
H1032 H 0.11919 0.58686 0.66754 0.0
H1033 H 0.11734 0.55334 0.66119 0.0
H1034 H 0.12004 0.57699 0.63836 0.0
H1035 H 0.213 0.62143 0.7147 0.0
H1036 H 0.2431 0.6226 0.70002 0.0
H1037 H 0.21292 0.58865 0.70889 0.0
C1038 C 0.60807 0.14323 0.90089 0.0
C1039 C 0.58748 0.1138 0.89947 0.0
C1040 C 0.61439 0.16145 0.882 0.0
C1041 C 0.59982 0.14993 0.8612 0.0
C1042 C 0.57905 0.12025 0.85967 0.0
C1043 C 0.57315 0.10256 0.8788 0.0
C1044 C 0.63665 0.19301 0.88427 0.0
C1045 C 0.56318 0.10712 0.83776 0.0
C1046 C 0.59697 0.20008 0.81689 0.0
C1047 C 0.61845 0.20322 0.80166 0.0
C1048 C 0.59084 0.183 0.83648 0.0
C1049 C 0.60657 0.16876 0.84089 0.0
C1050 C 0.62839 0.17201 0.82562 0.0
C1051 C 0.63405 0.18919 0.80619 0.0
C1052 C 0.56741 0.18001 0.85237 0.0
C1053 C 0.64562 0.15717 0.82973 0.0
H1054 H 0.61898 0.1521 0.91688 0.0
H1055 H 0.55754 0.07975 0.8775 0.0
H1056 H 0.6544 0.19875 0.87198 0.0
H1057 H 0.62687 0.20644 0.88014 0.0
H1058 H 0.64592 0.19861 0.90166 0.0
H1059 H 0.54736 0.08374 0.83949 0.0
H1060 H 0.55161 0.11834 0.8321 0.0
H1061 H 0.57875 0.10997 0.82419 0.0
H1062 H 0.58489 0.21092 0.81348 0.0
H1063 H 0.65074 0.1916 0.79449 0.0
H1064 H 0.57626 0.18704 0.86973 0.0
H1065 H 0.55025 0.15705 0.85352 0.0
H1066 H 0.55755 0.19292 0.84674 0.0
H1067 H 0.65654 0.1637 0.84647 0.0
H1068 H 0.66215 0.16228 0.81639 0.0
H1069 H 0.63103 0.13346 0.8302 0.0
C1070 C 0.49645 0.5783 0.04151 0.0
C1071 C 0.49275 0.58778 0.06278 0.0
C1072 C 0.48401 0.58233 0.02191 0.0
C1073 C 0.46791 0.59663 0.02359 0.0
C1074 C 0.46414 0.60627 0.04506 0.0
C1075 C 0.4764 0.60148 0.06446 0.0
C1076 C 0.4881 0.57131 0.99939 0.0
C1077 C 0.44754 0.62204 0.04748 0.0
C1078 C 0.46057 0.63248 0.97039 0.0
C1079 C 0.43225 0.61305 0.96366 0.0
C1080 C 0.47238 0.62745 0.98993 0.0
C1081 C 0.45562 0.60211 0.00281 0.0
C1082 C 0.42716 0.58214 0.99586 0.0
C1083 C 0.41571 0.58799 0.97646 0.0
C1084 C 0.50266 0.64946 0.99696 0.0
C1085 C 0.40882 0.55465 0.00896 0.0
H1086 H 0.50883 0.5674 0.04028 0.0
H1087 H 0.4737 0.60895 0.08091 0.0
H1088 H 0.46686 0.55649 0.99164 0.0
H1089 H 0.49984 0.58957 0.98746 0.0
H1090 H 0.50031 0.5597 0.00113 0.0
H1091 H 0.44653 0.62807 0.06538 0.0
H1092 H 0.45778 0.64195 0.03702 0.0
H1093 H 0.42526 0.6084 0.04108 0.0
H1094 H 0.47337 0.65199 0.96063 0.0
H1095 H 0.39382 0.57289 0.97126 0.0
H1096 H 0.51632 0.63933 0.99751 0.0
H1097 H 0.50249 0.65745 0.01433 0.0
H1098 H 0.51272 0.66819 0.98521 0.0
H1099 H 0.41999 0.542 0.01016 0.0
H1100 H 0.38743 0.54098 0.00094 0.0
H1101 H 0.4055 0.55984 0.02656 0.0
C1102 C 0.89203 0.4836 0.23334 0.0
C1103 C 0.92093 0.49048 0.23312 0.0
C1104 C 0.8745 0.47184 0.21407 0.0
C1105 C 0.88612 0.46677 0.19415 0.0
C1106 C 0.91527 0.47373 0.1938 0.0
C1107 C 0.93233 0.48559 0.21324 0.0
C1108 C 0.84351 0.46476 0.21505 0.0
C1109 C 0.92848 0.46872 0.17287 0.0
C1110 C 0.83498 0.41275 0.1508 0.0
C1111 C 0.83367 0.43097 0.13433 0.0
C1112 C 0.85196 0.42411 0.17038 0.0
C1113 C 0.8679 0.45438 0.17357 0.0
C1114 C 0.8667 0.47286 0.15696 0.0
C1115 C 0.84965 0.46093 0.13752 0.0
C1116 C 0.85284 0.40374 0.18766 0.0
C1117 C 0.88335 0.50524 0.15977 0.0
H1118 H 0.88299 0.48703 0.2487 0.0
H1119 H 0.95477 0.49132 0.21278 0.0
H1120 H 0.83939 0.47675 0.20159 0.0
H1121 H 0.82898 0.44143 0.21175 0.0
H1122 H 0.83782 0.4702 0.23176 0.0
H1123 H 0.95139 0.47496 0.17548 0.0
H1124 H 0.91624 0.44562 0.16797 0.0
H1125 H 0.92721 0.4813 0.1584 0.0
H1126 H 0.82265 0.38959 0.14842 0.0
H1127 H 0.84865 0.47512 0.12487 0.0
H1128 H 0.84537 0.40698 0.20441 0.0
H1129 H 0.87531 0.40842 0.1899 0.0
H1130 H 0.83921 0.38077 0.18265 0.0
H1131 H 0.87674 0.5114 0.17571 0.0
H1132 H 0.87998 0.51659 0.14534 0.0
H1133 H 0.9067 0.51289 0.1612 0.0
loop_
_geom_bond_atom_site_label_1
_geom_bond_atom_site_label_2
_geom_bond_distance
_geom_bond_site_symmetry_2
_ccdc_geom_bond_type
H0 C19 0.949 . S
H1 C20 0.950 . S
H2 C22 0.950 . S
H3 C23 0.950 . S
H4 C25 0.950 . S
H5 C28 0.950 . S
H6 C29 0.950 . S
H7 C31 0.951 . S
H8 C32 0.949 . S
H9 C34 0.949 . S
H10 C35 0.950 . S
H11 C37 0.950 . S
H12 C38 0.950 . S
H13 C40 0.950 . S
H14 C43 0.950 . S
H15 C44 0.950 . S
H16 C46 0.951 . S
H17 C47 0.949 . S
C18 C19 1.376 . S
C18 C23 1.386 . S
C18 C24 1.483 . S
C19 H0 0.949 . S
C19 C18 1.376 . S
C19 C20 1.397 . S
C20 H1 0.950 . S
C20 C19 1.397 . S
C20 C21 1.391 . S
C21 C20 1.391 . S
C21 C22 1.405 . S
C22 H2 0.950 . S
C22 C21 1.405 . S
C22 C23 1.367 . S
C23 H3 0.950 . S
C23 C18 1.386 . S
C23 C22 1.367 . S
C24 C18 1.483 . S
C24 C25 1.382 1_655 S
C24 C26 1.403 . S
C25 H4 0.950 . S
C25 C24 1.382 1_455 S
C25 C41 1.411 . S
C26 C24 1.403 . S
C26 C27 1.489 . S
C26 C40 1.411 1_655 S
C27 C26 1.489 . S
C27 C28 1.383 . S
C27 C32 1.382 . S
C28 H5 0.950 . S
C28 C27 1.383 . S
C28 C29 1.395 . S
C29 H6 0.950 . S
C29 C28 1.395 . S
C29 C30 1.288 . S
C30 C29 1.288 . S
C30 C31 1.392 . S
C31 H7 0.951 . S
C31 C30 1.392 . S
C31 C32 1.392 . S
C32 H8 0.949 . S
C32 C27 1.382 . S
C32 C31 1.392 . S
C33 C34 1.376 . S
C33 C38 1.386 . S
C33 C39 1.483 . S
C34 H9 0.949 . S
C34 C33 1.376 . S
C34 C35 1.397 . S
C35 H10 0.950 . S
C35 C34 1.397 . S
C35 C36 1.391 . S
C36 C35 1.391 . S
C36 C37 1.405 . S
C37 H11 0.950 . S
C37 C36 1.405 . S
C37 C38 1.367 . S
C38 H12 0.950 . S
C38 C33 1.386 . S
C38 C37 1.367 . S
C39 C33 1.483 . S
C39 C40 1.382 . S
C39 C41 1.403 . S
C40 H13 0.950 . S
C40 C26 1.411 1_455 S
C40 C39 1.382 . S
C41 C25 1.411 . S
C41 C39 1.403 . S
C41 C42 1.489 . S
C42 C41 1.489 . S
C42 C43 1.383 . S
C42 C47 1.382 . S
C43 H14 0.950 . S
C43 C42 1.383 . S
C43 C44 1.395 . S
C44 H15 0.950 . S
C44 C43 1.395 . S
C44 C45 1.288 . S
C45 C44 1.288 . S
C45 C46 1.392 . S
C46 H16 0.951 . S
C46 C45 1.392 . S
C46 C47 1.392 . S
C47 H17 0.949 . S
C47 C42 1.382 . S
C47 C46 1.392 . S
H48 C67 0.949 . S
H49 C68 0.950 . S
H50 C70 0.950 . S
H51 C71 0.950 . S
H52 C73 0.954 . S
H53 C76 0.950 . S
H54 C77 0.950 . S
H55 C79 0.951 . S
H56 C80 0.949 . S
H57 C82 0.949 . S
H58 C83 0.950 . S
H59 C85 0.950 . S
H60 C86 0.950 . S
H61 C88 0.950 . S
H62 C91 0.950 . S
H63 C92 0.950 . S
H64 C94 0.951 . S
H65 C95 0.949 . S
C66 C67 1.376 . S
C66 C71 1.386 . S
C66 C72 1.483 . S
C67 H48 0.949 . S
C67 C66 1.376 . S
C67 C68 1.397 . S
C68 H49 0.950 . S
C68 C67 1.397 . S
C68 C69 1.391 . S
C69 C68 1.391 . S
C69 C70 1.405 . S
C70 H50 0.950 . S
C70 C69 1.405 . S
C70 C71 1.367 . S
C71 H51 0.950 . S
C71 C66 1.386 . S
C71 C70 1.367 . S
C72 C66 1.483 . S
C72 C73 1.382 1_565 S
C72 C74 1.403 . S
C73 H52 0.954 . S
C73 C72 1.382 1_545 S
C73 C89 1.411 . S
C74 C72 1.403 . S
C74 C75 1.489 . S
C74 C88 1.411 1_565 S
C75 C74 1.489 . S
C75 C76 1.383 . S
C75 C80 1.382 . S
C76 H53 0.950 . S
C76 C75 1.383 . S
C76 C77 1.395 . S
C77 H54 0.950 . S
C77 C76 1.395 . S
C77 C78 1.288 . S
C78 C77 1.288 . S
C78 C79 1.392 . S
C79 H55 0.951 . S
C79 C78 1.392 . S
C79 C80 1.392 . S
C80 H56 0.949 . S
C80 C75 1.382 . S
C80 C79 1.392 . S
C81 C82 1.376 . S
C81 C86 1.386 . S
C81 C87 1.483 . S
C82 H57 0.949 . S
C82 C81 1.376 . S
C82 C83 1.397 . S
C83 H58 0.950 . S
C83 C82 1.397 . S
C83 C84 1.391 . S
C84 C83 1.391 . S
C84 C85 1.405 . S
C85 H59 0.950 . S
C85 C84 1.405 . S
C85 C86 1.367 . S
C86 H60 0.950 . S
C86 C81 1.386 . S
C86 C85 1.367 . S
C87 C81 1.483 . S
C87 C88 1.382 . S
C87 C89 1.403 . S
C88 H61 0.950 . S
C88 C74 1.411 1_545 S
C88 C87 1.382 . S
C89 C73 1.411 . S
C89 C87 1.403 . S
C89 C90 1.489 . S
C90 C89 1.489 . S
C90 C91 1.383 . S
C90 C95 1.382 . S
C91 H62 0.950 . S
C91 C90 1.383 . S
C91 C92 1.395 . S
C92 H63 0.950 . S
C92 C91 1.395 . S
C92 C93 1.288 . S
C93 C92 1.288 . S
C93 C94 1.392 . S
C94 H64 0.951 . S
C94 C93 1.392 . S
C94 C95 1.392 . S
C95 H65 0.949 . S
C95 C90 1.382 . S
C95 C94 1.392 . S
H96 C115 0.949 . S
H97 C116 0.950 . S
H98 C118 0.950 . S
H99 C119 0.950 . S
H100 C121 0.950 . S
H101 C124 0.950 . S
H102 C125 0.950 . S
H103 C127 0.951 . S
H104 C128 0.949 . S
H105 C130 0.949 . S
H106 C131 0.950 . S
H107 C133 0.950 . S
H108 C134 0.950 . S
H109 C136 0.950 . S
H110 C139 0.950 . S
H111 C140 0.950 . S
H112 C142 0.951 . S
H113 C143 0.949 . S
C114 C115 1.376 . S
C114 C119 1.386 . S
C114 C120 1.483 . S
C115 H96 0.949 . S
C115 C114 1.376 . S
C115 C116 1.397 . S
C116 H97 0.950 . S
C116 C115 1.397 . S
C116 C117 1.391 . S
C117 C116 1.391 . S
C117 C118 1.405 . S
C118 H98 0.950 . S
C118 C117 1.405 . S
C118 C119 1.367 . S
C119 H99 0.950 . S
C119 C114 1.386 . S
C119 C118 1.367 . S
C120 C114 1.483 . S
C120 C121 1.382 . S
C120 C122 1.403 . S
C121 H100 0.950 . S
C121 C120 1.382 . S
C121 C137 1.411 . S
C122 C120 1.403 . S
C122 C123 1.489 . S
C122 C136 1.411 . S
C123 C122 1.489 . S
C123 C124 1.383 . S
C123 C128 1.382 . S
C124 H101 0.950 . S
C124 C123 1.383 . S
C124 C125 1.395 . S
C125 H102 0.950 . S
C125 C124 1.395 . S
C125 C126 1.288 . S
C126 C125 1.288 . S
C126 C127 1.392 . S
C127 H103 0.951 . S
C127 C126 1.392 . S
C127 C128 1.392 . S
C128 H104 0.949 . S
C128 C123 1.382 . S
C128 C127 1.392 . S
C129 C130 1.376 . S
C129 C134 1.386 . S
C129 C135 1.483 . S
C130 H105 0.949 . S
C130 C129 1.376 . S
C130 C131 1.397 . S
C131 H106 0.950 . S
C131 C130 1.397 . S
C131 C132 1.391 . S
C132 C131 1.391 . S
C132 C133 1.405 . S
C133 H107 0.950 . S
C133 C132 1.405 . S
C133 C134 1.367 . S
C134 H108 0.950 . S
C134 C129 1.386 . S
C134 C133 1.367 . S
C135 C129 1.483 . S
C135 C136 1.382 . S
C135 C137 1.403 . S
C136 H109 0.950 . S
C136 C122 1.411 . S
C136 C135 1.382 . S
C137 C121 1.411 . S
C137 C135 1.403 . S
C137 C138 1.489 . S
C138 C137 1.489 . S
C138 C139 1.383 . S
C138 C143 1.382 . S
C139 H110 0.950 . S
C139 C138 1.383 . S
C139 C140 1.395 . S
C140 H111 0.950 . S
C140 C139 1.395 . S
C140 C141 1.288 . S
C141 C140 1.288 . S
C141 C142 1.392 . S
C142 H112 0.951 . S
C142 C141 1.392 . S
C142 C143 1.392 . S
C143 H113 0.949 . S
C143 C138 1.382 . S
C143 C142 1.392 . S
H144 C163 0.949 . S
H145 C164 0.950 . S
H146 C166 0.950 . S
H147 C167 0.950 . S
H148 C169 0.950 . S
H149 C172 0.950 . S
H150 C173 0.950 . S
H151 C175 0.951 . S
H152 C176 0.949 . S
H153 C178 0.949 . S
H154 C179 0.950 . S
H155 C181 0.950 . S
H156 C182 0.950 . S
H157 C184 0.950 . S
H158 C187 0.950 . S
H159 C188 0.950 . S
H160 C190 0.951 . S
H161 C191 0.949 . S
C162 C163 1.376 . S
C162 C167 1.386 . S
C162 C168 1.483 . S
C163 H144 0.949 . S
C163 C162 1.376 . S
C163 C164 1.397 . S
C164 H145 0.950 . S
C164 C163 1.397 . S
C164 C165 1.391 . S
C165 C164 1.391 . S
C165 C166 1.405 . S
C166 H146 0.950 . S
C166 C165 1.405 . S
C166 C167 1.367 . S
C167 H147 0.950 . S
C167 C162 1.386 . S
C167 C166 1.367 . S
C168 C162 1.483 . S
C168 C169 1.382 . S
C168 C170 1.403 . S
C169 H148 0.950 . S
C169 C168 1.382 . S
C169 C185 1.411 1_455 S
C170 C168 1.403 . S
C170 C171 1.489 . S
C170 C184 1.411 . S
C171 C170 1.489 . S
C171 C172 1.383 . S
C171 C176 1.382 . S
C172 H149 0.950 . S
C172 C171 1.383 . S
C172 C173 1.395 . S
C173 H150 0.950 . S
C173 C172 1.395 . S
C173 C174 1.288 . S
C174 C173 1.288 . S
C174 C175 1.392 . S
C175 H151 0.951 . S
C175 C174 1.392 . S
C175 C176 1.392 . S
C176 H152 0.949 . S
C176 C171 1.382 . S
C176 C175 1.392 . S
C177 C178 1.376 . S
C177 C182 1.386 . S
C177 C183 1.483 . S
C178 H153 0.949 . S
C178 C177 1.376 . S
C178 C179 1.397 . S
C179 H154 0.950 . S
C179 C178 1.397 . S
C179 C180 1.391 . S
C180 C179 1.391 . S
C180 C181 1.405 . S
C181 H155 0.950 . S
C181 C180 1.405 . S
C181 C182 1.367 . S
C182 H156 0.950 . S
C182 C177 1.386 . S
C182 C181 1.367 . S
C183 C177 1.483 . S
C183 C184 1.382 1_655 S
C183 C185 1.403 . S
C184 H157 0.950 . S
C184 C170 1.411 . S
C184 C183 1.382 1_455 S
C185 C169 1.411 1_655 S
C185 C183 1.403 . S
C185 C186 1.489 . S
C186 C185 1.489 . S
C186 C187 1.383 . S
C186 C191 1.382 . S
C187 H158 0.950 . S
C187 C186 1.383 . S
C187 C188 1.395 . S
C188 H159 0.950 . S
C188 C187 1.395 . S
C188 C189 1.288 . S
C189 C188 1.288 . S
C189 C190 1.392 . S
C190 H160 0.951 . S
C190 C189 1.392 . S
C190 C191 1.392 . S
C191 H161 0.949 . S
C191 C186 1.382 . S
C191 C190 1.392 . S
H192 C211 0.949 . S
H193 C212 0.950 . S
H194 C214 0.950 . S
H195 C215 0.950 . S
H196 C217 0.950 . S
H197 C220 0.950 . S
H198 C221 0.950 . S
H199 C223 0.951 . S
H200 C224 0.949 . S
H201 C226 0.949 . S
H202 C227 0.950 . S
H203 C229 0.950 . S
H204 C230 0.950 . S
H205 C232 0.954 . S
H206 C235 0.950 . S
H207 C236 0.950 . S
H208 C238 0.951 . S
H209 C239 0.949 . S
C210 C211 1.376 . S
C210 C215 1.386 1_554 S
C210 C216 1.483 1_554 S
C211 H192 0.949 . S
C211 C210 1.376 . S
C211 C212 1.397 . S
C212 H193 0.950 . S
C212 C211 1.397 . S
C212 C213 1.391 . S
C213 C212 1.391 . S
C213 C214 1.405 . S
C214 H194 0.950 . S
C214 C213 1.405 . S
C214 C215 1.367 1_554 S
C215 H195 0.950 . S
C215 C210 1.386 1_556 S
C215 C214 1.367 1_556 S
C216 C210 1.483 1_556 S
C216 C217 1.382 1_556 S
C216 C218 1.403 . S
C217 H196 0.950 . S
C217 C216 1.382 1_554 S
C217 C233 1.411 1_545 S
C218 C216 1.403 . S
C218 C219 1.489 . S
C218 C232 1.411 . S
C219 C218 1.489 . S
C219 C220 1.383 . S
C219 C224 1.382 . S
C220 H197 0.950 . S
C220 C219 1.383 . S
C220 C221 1.395 . S
C221 H198 0.950 . S
C221 C220 1.395 . S
C221 C222 1.288 . S
C222 C221 1.288 . S
C222 C223 1.392 . S
C223 H199 0.951 . S
C223 C222 1.392 . S
C223 C224 1.392 . S
C224 H200 0.949 . S
C224 C219 1.382 . S
C224 C223 1.392 . S
C225 C226 1.376 . S
C225 C230 1.386 . S
C225 C231 1.483 . S
C226 H201 0.949 . S
C226 C225 1.376 . S
C226 C227 1.397 . S
C227 H202 0.950 . S
C227 C226 1.397 . S
C227 C228 1.391 . S
C228 C227 1.391 . S
C228 C229 1.405 . S
C229 H203 0.950 . S
C229 C228 1.405 . S
C229 C230 1.367 . S
C230 H204 0.950 . S
C230 C225 1.386 . S
C230 C229 1.367 . S
C231 C225 1.483 . S
C231 C232 1.382 1_565 S
C231 C233 1.403 1_556 S
C232 H205 0.954 . S
C232 C218 1.411 . S
C232 C231 1.382 1_545 S
C233 C217 1.411 1_565 S
C233 C231 1.403 1_554 S
C233 C234 1.489 . S
C234 C233 1.489 . S
C234 C235 1.383 . S
C234 C239 1.382 . S
C235 H206 0.950 . S
C235 C234 1.383 . S
C235 C236 1.395 . S
C236 H207 0.950 . S
C236 C235 1.395 . S
C236 C237 1.288 . S
C237 C236 1.288 . S
C237 C238 1.392 . S
C238 H208 0.951 . S
C238 C237 1.392 . S
C238 C239 1.392 . S
C239 H209 0.949 . S
C239 C234 1.382 . S
C239 C238 1.392 . S
H240 C259 0.949 . S
H241 C260 0.950 . S
H242 C262 0.950 . S
H243 C263 0.950 . S
H244 C265 0.950 . S
H245 C268 0.950 . S
H246 C269 0.950 . S
H247 C271 0.951 . S
H248 C272 0.949 . S
H249 C274 0.949 . S
H250 C275 0.950 . S
H251 C277 0.950 . S
H252 C278 0.950 . S
H253 C280 0.950 . S
H254 C283 0.950 . S
H255 C284 0.950 . S
H256 C286 0.951 . S
H257 C287 0.949 . S
C258 C259 1.376 . S
C258 C263 1.386 . S
C258 C264 1.483 . S
C259 H240 0.949 . S
C259 C258 1.376 . S
C259 C260 1.397 . S
C260 H241 0.950 . S
C260 C259 1.397 . S
C260 C261 1.391 . S
C261 C260 1.391 . S
C261 C262 1.405 . S
C262 H242 0.950 . S
C262 C261 1.405 . S
C262 C263 1.367 . S
C263 H243 0.950 . S
C263 C258 1.386 . S
C263 C262 1.367 . S
C264 C258 1.483 . S
C264 C265 1.382 . S
C264 C266 1.403 . S
C265 H244 0.950 . S
C265 C264 1.382 . S
C265 C281 1.411 . S
C266 C264 1.403 . S
C266 C267 1.489 . S
C266 C280 1.411 . S
C267 C266 1.489 . S
C267 C268 1.383 . S
C267 C272 1.382 . S
C268 H245 0.950 . S
C268 C267 1.383 . S
C268 C269 1.395 . S
C269 H246 0.950 . S
C269 C268 1.395 . S
C269 C270 1.288 . S
C270 C269 1.288 . S
C270 C271 1.392 . S
C271 H247 0.951 . S
C271 C270 1.392 . S
C271 C272 1.392 . S
C272 H248 0.949 . S
C272 C267 1.382 . S
C272 C271 1.392 . S
C273 C274 1.376 . S
C273 C278 1.386 . S
C273 C279 1.483 . S
C274 H249 0.949 . S
C274 C273 1.376 . S
C274 C275 1.397 . S
C275 H250 0.950 . S
C275 C274 1.397 . S
C275 C276 1.391 . S
C276 C275 1.391 . S
C276 C277 1.405 . S
C277 H251 0.950 . S
C277 C276 1.405 . S
C277 C278 1.367 . S
C278 H252 0.950 . S
C278 C273 1.386 . S
C278 C277 1.367 . S
C279 C273 1.483 . S
C279 C280 1.382 . S
C279 C281 1.403 . S
C280 H253 0.950 . S
C280 C266 1.411 . S
C280 C279 1.382 . S
C281 C265 1.411 . S
C281 C279 1.403 . S
C281 C282 1.489 . S
C282 C281 1.489 . S
C282 C283 1.383 . S
C282 C287 1.382 . S
C283 H254 0.950 . S
C283 C282 1.383 . S
C283 C284 1.395 . S
C284 H255 0.950 . S
C284 C283 1.395 . S
C284 C285 1.288 . S
C285 C284 1.288 . S
C285 C286 1.392 . S
C286 H256 0.951 . S
C286 C285 1.392 . S
C286 C287 1.392 . S
C287 H257 0.949 . S
C287 C282 1.382 . S
C287 C286 1.392 . S
In288 O289 2.294 . S
In288 O290 2.326 . S
In288 O294 2.266 . S
In288 O295 2.326 . S
In288 O296 2.266 . S
In288 O297 2.326 . S
In288 O299 2.294 . S
In288 O300 2.326 . S
O289 In288 2.294 . S
O289 C298 1.240 . S
O290 In288 2.326 . S
O290 C298 1.252 . S
C291 O294 1.252 . S
C291 O295 1.260 . S
C292 O299 1.240 . S
C292 O300 1.252 . S
C293 O296 1.252 . S
C293 O297 1.260 . S
O294 In288 2.266 . S
O294 C291 1.252 . S
O295 In288 2.326 . S
O295 C291 1.260 . S
O296 In288 2.266 . S
O296 C293 1.252 . S
O297 In288 2.326 . S
O297 C293 1.260 . S
C298 O289 1.240 . S
C298 O290 1.252 . S
O299 In288 2.294 . S
O299 C292 1.240 . S
O300 In288 2.326 . S
O300 C292 1.252 . S
In301 O302 2.294 . S
In301 O303 2.326 . S
In301 O307 2.266 . S
In301 O308 2.326 . S
In301 O309 2.266 . S
In301 O310 2.326 . S
In301 O312 2.294 . S
In301 O313 2.326 . S
O302 In301 2.294 . S
O302 C311 1.240 . S
O303 In301 2.326 . S
O303 C311 1.252 . S
C304 O307 1.252 . S
C304 O308 1.260 . S
C305 O312 1.240 . S
C305 O313 1.252 . S
C306 O309 1.252 . S
C306 O310 1.260 . S
O307 In301 2.266 . S
O307 C304 1.252 . S
O308 In301 2.326 . S
O308 C304 1.260 . S
O309 In301 2.266 . S
O309 C306 1.252 . S
O310 In301 2.326 . S
O310 C306 1.260 . S
C311 O302 1.240 . S
C311 O303 1.252 . S
O312 In301 2.294 . S
O312 C305 1.240 . S
O313 In301 2.326 . S
O313 C305 1.252 . S
In314 O315 2.294 . S
In314 O316 2.326 . S
In314 O320 2.266 . S
In314 O321 2.326 . S
In314 O322 2.266 . S
In314 O323 2.326 . S
In314 O325 2.294 . S
In314 O326 2.326 . S
O315 In314 2.294 . S
O315 C324 1.240 . S
O316 In314 2.326 . S
O316 C324 1.252 . S
C317 O320 1.252 . S
C317 O321 1.260 . S
C318 O325 1.240 . S
C318 O326 1.252 . S
C319 O322 1.252 . S
C319 O323 1.260 . S
O320 In314 2.266 . S
O320 C317 1.252 . S
O321 In314 2.326 . S
O321 C317 1.260 . S
O322 In314 2.266 . S
O322 C319 1.252 . S
O323 In314 2.326 . S
O323 C319 1.260 . S
C324 O315 1.240 . S
C324 O316 1.252 . S
O325 In314 2.294 . S
O325 C318 1.240 . S
O326 In314 2.326 . S
O326 C318 1.252 . S
In327 O328 2.294 . S
In327 O329 2.326 . S
In327 O333 2.266 . S
In327 O334 2.326 . S
In327 O335 2.266 . S
In327 O336 2.326 . S
In327 O338 2.294 . S
In327 O339 2.326 . S
O328 In327 2.294 . S
O328 C337 1.240 . S
O329 In327 2.326 . S
O329 C337 1.252 . S
C330 O333 1.252 . S
C330 O334 1.260 . S
C331 O338 1.240 . S
C331 O339 1.252 . S
C332 O335 1.252 . S
C332 O336 1.260 . S
O333 In327 2.266 . S
O333 C330 1.252 . S
O334 In327 2.326 . S
O334 C330 1.260 . S
O335 In327 2.266 . S
O335 C332 1.252 . S
O336 In327 2.326 . S
O336 C332 1.260 . S
C337 O328 1.240 . S
C337 O329 1.252 . S
O338 In327 2.294 . S
O338 C331 1.240 . S
O339 In327 2.326 . S
O339 C331 1.252 . S
In340 O341 2.294 . S
In340 O342 2.326 . S
In340 O346 2.266 . S
In340 O347 2.326 . S
In340 O348 2.266 . S
In340 O349 2.326 . S
In340 O351 2.294 . S
In340 O352 2.326 . S
O341 In340 2.294 . S
O341 C350 1.240 . S
O342 In340 2.326 . S
O342 C350 1.252 . S
C343 O346 1.252 . S
C343 O347 1.260 . S
C344 O351 1.240 . S
C344 O352 1.252 . S
C345 O348 1.252 . S
C345 O349 1.260 . S
O346 In340 2.266 . S
O346 C343 1.252 . S
O347 In340 2.326 . S
O347 C343 1.260 . S
O348 In340 2.266 . S
O348 C345 1.252 . S
O349 In340 2.326 . S
O349 C345 1.260 . S
C350 O341 1.240 . S
C350 O342 1.252 . S
O351 In340 2.294 . S
O351 C344 1.240 . S
O352 In340 2.326 . S
O352 C344 1.252 . S
In353 O354 2.294 . S
In353 O355 2.326 . S
In353 O359 2.266 . S
In353 O360 2.326 . S
In353 O361 2.266 . S
In353 O362 2.326 . S
In353 O364 2.294 . S
In353 O365 2.326 . S
O354 In353 2.294 . S
O354 C363 1.240 . S
O355 In353 2.326 . S
O355 C363 1.252 . S
C356 O359 1.252 . S
C356 O360 1.260 . S
C357 O364 1.240 . S
C357 O365 1.252 . S
C358 O361 1.252 . S
C358 O362 1.260 . S
O359 In353 2.266 . S
O359 C356 1.252 . S
O360 In353 2.326 . S
O360 C356 1.260 . S
O361 In353 2.266 . S
O361 C358 1.252 . S
O362 In353 2.326 . S
O362 C358 1.260 . S
C363 O354 1.240 . S
C363 O355 1.252 . S
O364 In353 2.294 . S
O364 C357 1.240 . S
O365 In353 2.326 . S
O365 C357 1.252 . S
C366 C367 1.391 . S
C366 C368 1.394 . S
C366 H382 0.931 . S
C367 C366 1.391 . S
C367 C371 1.376 . S
C368 C366 1.394 . S
C368 C369 1.369 . S
C368 C372 1.531 . S
C369 C368 1.369 . S
C369 C370 1.410 . S
C369 C377 1.503 . S
C370 C369 1.410 . S
C370 C371 1.392 . S
C370 C373 1.511 . S
C371 C367 1.376 . S
C371 C370 1.392 . S
C371 H383 0.929 . S
C372 C368 1.531 . S
C372 H384 0.960 . S
C372 H385 0.962 . S
C372 H386 0.960 . S
C373 C370 1.511 . S
C373 H387 0.961 . S
C373 H388 0.961 . S
C373 H389 0.961 . S
C374 C375 1.370 . S
C374 C376 1.363 . S
C374 H390 0.931 . S
C375 C374 1.370 . S
C375 C379 1.408 . S
C376 C374 1.363 . S
C376 C377 1.370 . S
C376 C380 1.524 . S
C377 C369 1.503 . S
C377 C376 1.370 . S
C377 C378 1.403 . S
C378 C377 1.403 . S
C378 C379 1.404 . S
C378 C381 1.539 . S
C379 C375 1.408 . S
C379 C378 1.404 . S
C379 H391 0.930 . S
C380 C376 1.524 . S
C380 H392 0.956 . S
C380 H393 0.961 . S
C380 H394 0.961 . S
C381 C378 1.539 . S
C381 H395 0.958 . S
C381 H396 0.961 . S
C381 H397 0.960 . S
H382 C366 0.931 . S
H383 C371 0.929 . S
H384 C372 0.960 . S
H385 C372 0.962 . S
H386 C372 0.960 . S
H387 C373 0.961 . S
H388 C373 0.961 . S
H389 C373 0.961 . S
H390 C374 0.931 . S
H391 C379 0.930 . S
H392 C380 0.956 . S
H393 C380 0.961 . S
H394 C380 0.961 . S
H395 C381 0.958 . S
H396 C381 0.961 . S
H397 C381 0.960 . S
C398 C399 1.391 . S
C398 C400 1.394 . S
C398 H414 0.931 . S
C399 C398 1.391 . S
C399 C403 1.376 . S
C400 C398 1.394 . S
C400 C401 1.369 . S
C400 C404 1.531 . S
C401 C400 1.369 . S
C401 C402 1.410 . S
C401 C409 1.503 . S
C402 C401 1.410 . S
C402 C403 1.392 . S
C402 C405 1.511 . S
C403 C399 1.376 . S
C403 C402 1.392 . S
C403 H415 0.929 . S
C404 C400 1.531 . S
C404 H416 0.960 . S
C404 H417 0.962 . S
C404 H418 0.960 . S
C405 C402 1.511 . S
C405 H419 0.961 . S
C405 H420 0.961 . S
C405 H421 0.961 . S
C406 C407 1.370 . S
C406 C408 1.363 . S
C406 H422 0.931 . S
C407 C406 1.370 . S
C407 C411 1.408 . S
C408 C406 1.363 . S
C408 C409 1.370 . S
C408 C412 1.524 . S
C409 C401 1.503 . S
C409 C408 1.370 . S
C409 C410 1.403 . S
C410 C409 1.403 . S
C410 C411 1.404 . S
C410 C413 1.539 . S
C411 C407 1.408 . S
C411 C410 1.404 . S
C411 H423 0.930 . S
C412 C408 1.524 . S
C412 H424 0.956 . S
C412 H425 0.961 . S
C412 H426 0.961 . S
C413 C410 1.539 . S
C413 H427 0.958 . S
C413 H428 0.961 . S
C413 H429 0.960 . S
H414 C398 0.931 . S
H415 C403 0.929 . S
H416 C404 0.960 . S
H417 C404 0.962 . S
H418 C404 0.960 . S
H419 C405 0.961 . S
H420 C405 0.961 . S
H421 C405 0.961 . S
H422 C406 0.931 . S
H423 C411 0.930 . S
H424 C412 0.956 . S
H425 C412 0.961 . S
H426 C412 0.961 . S
H427 C413 0.958 . S
H428 C413 0.961 . S
H429 C413 0.960 . S
C430 C431 1.391 . S
C430 C432 1.394 . S
C430 H446 0.931 . S
C431 C430 1.391 . S
C431 C435 1.376 . S
C432 C430 1.394 . S
C432 C433 1.369 . S
C432 C436 1.531 . S
C433 C432 1.369 . S
C433 C434 1.410 . S
C433 C441 1.503 . S
C434 C433 1.410 . S
C434 C435 1.392 . S
C434 C437 1.511 . S
C435 C431 1.376 . S
C435 C434 1.392 . S
C435 H447 0.929 . S
C436 C432 1.531 . S
C436 H448 0.960 . S
C436 H449 0.962 . S
C436 H450 0.960 . S
C437 C434 1.511 . S
C437 H451 0.961 . S
C437 H452 0.961 . S
C437 H453 0.961 . S
C438 C439 1.370 . S
C438 C440 1.363 . S
C438 H454 0.931 . S
C439 C438 1.370 . S
C439 C443 1.408 . S
C440 C438 1.363 . S
C440 C441 1.370 . S
C440 C444 1.524 . S
C441 C433 1.503 . S
C441 C440 1.370 . S
C441 C442 1.403 . S
C442 C441 1.403 . S
C442 C443 1.404 . S
C442 C445 1.539 . S
C443 C439 1.408 . S
C443 C442 1.404 . S
C443 H455 0.930 . S
C444 C440 1.524 . S
C444 H456 0.956 . S
C444 H457 0.961 . S
C444 H458 0.961 . S
C445 C442 1.539 . S
C445 H459 0.958 . S
C445 H460 0.961 . S
C445 H461 0.960 . S
H446 C430 0.931 . S
H447 C435 0.929 . S
H448 C436 0.960 . S
H449 C436 0.962 . S
H450 C436 0.960 . S
H451 C437 0.961 . S
H452 C437 0.961 . S
H453 C437 0.961 . S
H454 C438 0.931 . S
H455 C443 0.930 . S
H456 C444 0.956 . S
H457 C444 0.961 . S
H458 C444 0.961 . S
H459 C445 0.958 . S
H460 C445 0.961 . S
H461 C445 0.960 . S
C462 C463 1.391 . S
C462 C464 1.394 . S
C462 H478 0.931 . S
C463 C462 1.391 . S
C463 C467 1.376 . S
C464 C462 1.394 . S
C464 C465 1.369 . S
C464 C468 1.531 . S
C465 C464 1.369 . S
C465 C466 1.410 . S
C465 C473 1.503 . S
C466 C465 1.410 . S
C466 C467 1.392 . S
C466 C469 1.511 . S
C467 C463 1.376 . S
C467 C466 1.392 . S
C467 H479 0.929 . S
C468 C464 1.531 . S
C468 H480 0.960 . S
C468 H481 0.962 . S
C468 H482 0.960 . S
C469 C466 1.511 . S
C469 H483 0.961 . S
C469 H484 0.961 . S
C469 H485 0.961 . S
C470 C471 1.370 . S
C470 C472 1.363 . S
C470 H486 0.931 . S
C471 C470 1.370 . S
C471 C475 1.408 . S
C472 C470 1.363 . S
C472 C473 1.370 . S
C472 C476 1.524 . S
C473 C465 1.503 . S
C473 C472 1.370 . S
C473 C474 1.403 . S
C474 C473 1.403 . S
C474 C475 1.404 . S
C474 C477 1.539 . S
C475 C471 1.408 . S
C475 C474 1.404 . S
C475 H487 0.930 . S
C476 C472 1.524 . S
C476 H488 0.956 . S
C476 H489 0.961 . S
C476 H490 0.961 . S
C477 C474 1.539 . S
C477 H491 0.958 . S
C477 H492 0.961 . S
C477 H493 0.960 . S
H478 C462 0.931 . S
H479 C467 0.929 . S
H480 C468 0.960 . S
H481 C468 0.962 . S
H482 C468 0.960 . S
H483 C469 0.961 . S
H484 C469 0.961 . S
H485 C469 0.961 . S
H486 C470 0.931 . S
H487 C475 0.930 . S
H488 C476 0.956 . S
H489 C476 0.961 . S
H490 C476 0.961 . S
H491 C477 0.958 . S
H492 C477 0.961 . S
H493 C477 0.960 . S
C494 C495 1.391 . S
C494 C496 1.394 . S
C494 H510 0.931 . S
C495 C494 1.391 . S
C495 C499 1.376 . S
C496 C494 1.394 . S
C496 C497 1.369 . S
C496 C500 1.531 . S
C497 C496 1.369 . S
C497 C498 1.410 . S
C497 C505 1.503 . S
C498 C497 1.410 . S
C498 C499 1.392 . S
C498 C501 1.511 . S
C499 C495 1.376 . S
C499 C498 1.392 . S
C499 H511 0.929 . S
C500 C496 1.531 . S
C500 H512 0.960 . S
C500 H513 0.962 . S
C500 H514 0.960 . S
C501 C498 1.511 . S
C501 H515 0.961 . S
C501 H516 0.961 . S
C501 H517 0.961 . S
C502 C503 1.370 . S
C502 C504 1.363 . S
C502 H518 0.931 . S
C503 C502 1.370 . S
C503 C507 1.408 . S
C504 C502 1.363 . S
C504 C505 1.370 . S
C504 C508 1.524 . S
C505 C497 1.503 . S
C505 C504 1.370 . S
C505 C506 1.403 . S
C506 C505 1.403 . S
C506 C507 1.404 . S
C506 C509 1.539 . S
C507 C503 1.408 . S
C507 C506 1.404 . S
C507 H519 0.930 . S
C508 C504 1.524 . S
C508 H520 0.956 . S
C508 H521 0.961 . S
C508 H522 0.961 . S
C509 C506 1.539 . S
C509 H523 0.958 . S
C509 H524 0.961 . S
C509 H525 0.960 . S
H510 C494 0.931 . S
H511 C499 0.929 . S
H512 C500 0.960 . S
H513 C500 0.962 . S
H514 C500 0.960 . S
H515 C501 0.961 . S
H516 C501 0.961 . S
H517 C501 0.961 . S
H518 C502 0.931 . S
H519 C507 0.930 . S
H520 C508 0.956 . S
H521 C508 0.961 . S
H522 C508 0.961 . S
H523 C509 0.958 . S
H524 C509 0.961 . S
H525 C509 0.960 . S
C526 C527 1.391 . S
C526 C528 1.394 . S
C526 H542 0.931 . S
C527 C526 1.391 . S
C527 C531 1.376 . S
C528 C526 1.394 . S
C528 C529 1.369 . S
C528 C532 1.531 . S
C529 C528 1.369 . S
C529 C530 1.410 . S
C529 C537 1.503 . S
C530 C529 1.410 . S
C530 C531 1.392 . S
C530 C533 1.511 . S
C531 C527 1.376 . S
C531 C530 1.392 . S
C531 H543 0.929 . S
C532 C528 1.531 . S
C532 H544 0.960 . S
C532 H545 0.962 . S
C532 H546 0.960 . S
C533 C530 1.511 . S
C533 H547 0.961 . S
C533 H548 0.961 . S
C533 H549 0.961 . S
C534 C535 1.370 . S
C534 C536 1.363 . S
C534 H550 0.931 . S
C535 C534 1.370 . S
C535 C539 1.408 . S
C536 C534 1.363 . S
C536 C537 1.370 . S
C536 C540 1.524 . S
C537 C529 1.503 . S
C537 C536 1.370 . S
C537 C538 1.403 . S
C538 C537 1.403 . S
C538 C539 1.404 . S
C538 C541 1.539 . S
C539 C535 1.408 . S
C539 C538 1.404 . S
C539 H551 0.930 . S
C540 C536 1.524 . S
C540 H552 0.956 . S
C540 H553 0.961 . S
C540 H554 0.961 . S
C541 C538 1.539 . S
C541 H555 0.958 . S
C541 H556 0.961 . S
C541 H557 0.960 . S
H542 C526 0.931 . S
H543 C531 0.929 . S
H544 C532 0.960 . S
H545 C532 0.962 . S
H546 C532 0.960 . S
H547 C533 0.961 . S
H548 C533 0.961 . S
H549 C533 0.961 . S
H550 C534 0.931 . S
H551 C539 0.930 . S
H552 C540 0.956 . S
H553 C540 0.961 . S
H554 C540 0.961 . S
H555 C541 0.958 . S
H556 C541 0.961 . S
H557 C541 0.960 . S
C558 C559 1.391 . S
C558 C560 1.394 . S
C558 H574 0.931 . S
C559 C558 1.391 . S
C559 C563 1.376 . S
C560 C558 1.394 . S
C560 C561 1.369 . S
C560 C564 1.531 . S
C561 C560 1.369 . S
C561 C562 1.410 . S
C561 C569 1.503 . S
C562 C561 1.410 . S
C562 C563 1.392 . S
C562 C565 1.511 . S
C563 C559 1.376 . S
C563 C562 1.392 . S
C563 H575 0.929 . S
C564 C560 1.531 . S
C564 H576 0.960 . S
C564 H577 0.962 . S
C564 H578 0.960 . S
C565 C562 1.511 . S
C565 H579 0.961 . S
C565 H580 0.961 . S
C565 H581 0.961 . S
C566 C567 1.370 . S
C566 C568 1.363 . S
C566 H582 0.931 . S
C567 C566 1.370 . S
C567 C571 1.408 . S
C568 C566 1.363 . S
C568 C569 1.370 . S
C568 C572 1.524 . S
C569 C561 1.503 . S
C569 C568 1.370 . S
C569 C570 1.403 . S
C570 C569 1.403 . S
C570 C571 1.404 . S
C570 C573 1.539 . S
C571 C567 1.408 . S
C571 C570 1.404 . S
C571 H583 0.930 . S
C572 C568 1.524 . S
C572 H584 0.956 . S
C572 H585 0.961 . S
C572 H586 0.961 . S
C573 C570 1.539 . S
C573 H587 0.958 . S
C573 H588 0.961 . S
C573 H589 0.960 . S
H574 C558 0.931 . S
H575 C563 0.929 . S
H576 C564 0.960 . S
H577 C564 0.962 . S
H578 C564 0.960 . S
H579 C565 0.961 . S
H580 C565 0.961 . S
H581 C565 0.961 . S
H582 C566 0.931 . S
H583 C571 0.930 . S
H584 C572 0.956 . S
H585 C572 0.961 . S
H586 C572 0.961 . S
H587 C573 0.958 . S
H588 C573 0.961 . S
H589 C573 0.960 . S
C590 C591 1.391 . S
C590 C592 1.394 . S
C590 H606 0.931 . S
C591 C590 1.391 . S
C591 C595 1.376 . S
C592 C590 1.394 . S
C592 C593 1.369 . S
C592 C596 1.531 . S
C593 C592 1.369 . S
C593 C594 1.410 . S
C593 C601 1.503 . S
C594 C593 1.410 . S
C594 C595 1.392 . S
C594 C597 1.511 . S
C595 C591 1.376 . S
C595 C594 1.392 . S
C595 H607 0.929 . S
C596 C592 1.531 . S
C596 H608 0.960 . S
C596 H609 0.962 . S
C596 H610 0.960 . S
C597 C594 1.511 . S
C597 H611 0.961 . S
C597 H612 0.961 . S
C597 H613 0.961 . S
C598 C599 1.370 . S
C598 C600 1.363 . S
C598 H614 0.931 . S
C599 C598 1.370 . S
C599 C603 1.408 . S
C600 C598 1.363 . S
C600 C601 1.370 . S
C600 C604 1.524 . S
C601 C593 1.503 . S
C601 C600 1.370 . S
C601 C602 1.403 . S
C602 C601 1.403 . S
C602 C603 1.404 . S
C602 C605 1.539 . S
C603 C599 1.408 . S
C603 C602 1.404 . S
C603 H615 0.930 . S
C604 C600 1.524 . S
C604 H616 0.956 . S
C604 H617 0.961 . S
C604 H618 0.961 . S
C605 C602 1.539 . S
C605 H619 0.958 . S
C605 H620 0.961 . S
C605 H621 0.960 . S
H606 C590 0.931 . S
H607 C595 0.929 . S
H608 C596 0.960 . S
H609 C596 0.962 . S
H610 C596 0.960 . S
H611 C597 0.961 . S
H612 C597 0.961 . S
H613 C597 0.961 . S
H614 C598 0.931 . S
H615 C603 0.930 . S
H616 C604 0.956 . S
H617 C604 0.961 . S
H618 C604 0.961 . S
H619 C605 0.958 . S
H620 C605 0.961 . S
H621 C605 0.960 . S
C622 C623 1.391 . S
C622 C624 1.394 . S
C622 H638 0.931 . S
C623 C622 1.391 . S
C623 C627 1.376 . S
C624 C622 1.394 . S
C624 C625 1.369 . S
C624 C628 1.531 . S
C625 C624 1.369 . S
C625 C626 1.410 . S
C625 C633 1.503 . S
C626 C625 1.410 . S
C626 C627 1.392 . S
C626 C629 1.511 . S
C627 C623 1.376 . S
C627 C626 1.392 . S
C627 H639 0.929 . S
C628 C624 1.531 . S
C628 H640 0.960 . S
C628 H641 0.962 . S
C628 H642 0.960 . S
C629 C626 1.511 . S
C629 H643 0.961 . S
C629 H644 0.961 . S
C629 H645 0.961 . S
C630 C631 1.370 . S
C630 C632 1.363 . S
C630 H646 0.931 . S
C631 C630 1.370 . S
C631 C635 1.408 . S
C632 C630 1.363 . S
C632 C633 1.370 . S
C632 C636 1.524 . S
C633 C625 1.503 . S
C633 C632 1.370 . S
C633 C634 1.403 . S
C634 C633 1.403 . S
C634 C635 1.404 . S
C634 C637 1.539 . S
C635 C631 1.408 . S
C635 C634 1.404 . S
C635 H647 0.930 . S
C636 C632 1.524 . S
C636 H648 0.956 . S
C636 H649 0.961 . S
C636 H650 0.961 . S
C637 C634 1.539 . S
C637 H651 0.958 . S
C637 H652 0.961 . S
C637 H653 0.960 . S
H638 C622 0.931 . S
H639 C627 0.929 . S
H640 C628 0.960 . S
H641 C628 0.962 . S
H642 C628 0.960 . S
H643 C629 0.961 . S
H644 C629 0.961 . S
H645 C629 0.961 . S
H646 C630 0.931 . S
H647 C635 0.930 . S
H648 C636 0.956 . S
H649 C636 0.961 . S
H650 C636 0.961 . S
H651 C637 0.958 . S
H652 C637 0.961 . S
H653 C637 0.960 . S
C654 C655 1.391 . S
C654 C656 1.394 . S
C654 H670 0.931 . S
C655 C654 1.391 . S
C655 C659 1.376 . S
C656 C654 1.394 . S
C656 C657 1.369 . S
C656 C660 1.531 . S
C657 C656 1.369 . S
C657 C658 1.410 . S
C657 C665 1.503 . S
C658 C657 1.410 . S
C658 C659 1.392 . S
C658 C661 1.511 . S
C659 C655 1.376 . S
C659 C658 1.392 . S
C659 H671 0.929 . S
C660 C656 1.531 . S
C660 H672 0.960 . S
C660 H673 0.962 . S
C660 H674 0.960 . S
C661 C658 1.511 . S
C661 H675 0.924 1_554 S
C661 H676 0.961 . S
C661 H677 0.961 . S
C662 C663 1.370 . S
C662 C664 1.363 . S
C662 H678 0.931 . S
C663 C662 1.370 . S
C663 C667 1.408 . S
C664 C662 1.363 . S
C664 C665 1.370 . S
C664 C668 1.524 . S
C665 C657 1.503 . S
C665 C664 1.370 . S
C665 C666 1.403 . S
C666 C665 1.403 . S
C666 C667 1.404 . S
C666 C669 1.539 . S
C667 C663 1.408 . S
C667 C666 1.404 . S
C667 H679 0.930 . S
C668 C664 1.524 . S
C668 H680 0.956 . S
C668 H681 0.961 . S
C668 H682 0.961 . S
C669 C666 1.539 . S
C669 H683 0.958 . S
C669 H684 0.961 . S
C669 H685 0.960 . S
H670 C654 0.931 . S
H671 C659 0.929 . S
H672 C660 0.960 . S
H673 C660 0.962 . S
H674 C660 0.960 . S
H675 C661 0.924 1_556 S
H676 C661 0.961 . S
H677 C661 0.961 . S
H678 C662 0.931 . S
H679 C667 0.930 . S
H680 C668 0.956 . S
H681 C668 0.961 . S
H682 C668 0.961 . S
H683 C669 0.958 . S
H684 C669 0.961 . S
H685 C669 0.960 . S
C686 C687 1.391 . S
C686 C688 1.394 . S
C686 H702 0.931 . S
C687 C686 1.391 . S
C687 C691 1.376 . S
C688 C686 1.394 . S
C688 C689 1.369 . S
C688 C692 1.531 . S
C689 C688 1.369 . S
C689 C690 1.410 . S
C689 C697 1.503 . S
C690 C689 1.410 . S
C690 C691 1.392 . S
C690 C693 1.511 . S
C691 C687 1.376 . S
C691 C690 1.392 . S
C691 H703 0.929 . S
C692 C688 1.531 . S
C692 H704 0.960 . S
C692 H705 0.962 . S
C692 H706 0.960 . S
C693 C690 1.511 . S
C693 H707 0.961 . S
C693 H708 0.961 . S
C693 H709 0.961 . S
C694 C695 1.370 . S
C694 C696 1.363 . S
C694 H710 0.931 . S
C695 C694 1.370 . S
C695 C699 1.408 . S
C696 C694 1.363 . S
C696 C697 1.370 . S
C696 C700 1.524 . S
C697 C689 1.503 . S
C697 C696 1.370 . S
C697 C698 1.403 . S
C698 C697 1.403 . S
C698 C699 1.404 . S
C698 C701 1.539 . S
C699 C695 1.408 . S
C699 C698 1.404 . S
C699 H711 0.930 . S
C700 C696 1.524 . S
C700 H712 0.956 . S
C700 H713 0.961 . S
C700 H714 0.961 . S
C701 C698 1.539 . S
C701 H715 0.958 . S
C701 H716 0.961 . S
C701 H717 0.960 . S
H702 C686 0.931 . S
H703 C691 0.929 . S
H704 C692 0.960 . S
H705 C692 0.962 . S
H706 C692 0.960 . S
H707 C693 0.961 . S
H708 C693 0.961 . S
H709 C693 0.961 . S
H710 C694 0.931 . S
H711 C699 0.930 . S
H712 C700 0.956 . S
H713 C700 0.961 . S
H714 C700 0.961 . S
H715 C701 0.958 . S
H716 C701 0.961 . S
H717 C701 0.960 . S
C718 C719 1.391 . S
C718 C720 1.394 . S
C718 H734 0.931 . S
C719 C718 1.391 . S
C719 C723 1.376 . S
C720 C718 1.394 . S
C720 C721 1.369 . S
C720 C724 1.531 . S
C721 C720 1.369 . S
C721 C722 1.410 . S
C721 C729 1.503 . S
C722 C721 1.410 . S
C722 C723 1.392 . S
C722 C725 1.511 . S
C723 C719 1.376 . S
C723 C722 1.392 . S
C723 H735 0.929 . S
C724 C720 1.531 . S
C724 H736 0.960 . S
C724 H737 0.962 . S
C724 H738 0.960 . S
C725 C722 1.511 . S
C725 H739 0.961 . S
C725 H740 0.961 . S
C725 H741 0.961 . S
C726 C727 1.370 . S
C726 C728 1.363 . S
C726 H742 0.931 . S
C727 C726 1.370 . S
C727 C731 1.408 . S
C728 C726 1.363 . S
C728 C729 1.370 . S
C728 C732 1.524 . S
C729 C721 1.503 . S
C729 C728 1.370 . S
C729 C730 1.403 . S
C730 C729 1.403 . S
C730 C731 1.404 . S
C730 C733 1.539 . S
C731 C727 1.408 . S
C731 C730 1.404 . S
C731 H743 0.930 . S
C732 C728 1.524 . S
C732 H744 0.956 . S
C732 H745 0.961 . S
C732 H746 0.961 . S
C733 C730 1.539 . S
C733 H747 0.958 . S
C733 H748 0.961 . S
C733 H749 0.960 . S
H734 C718 0.931 . S
H735 C723 0.929 . S
H736 C724 0.960 . S
H737 C724 0.962 . S
H738 C724 0.960 . S
H739 C725 0.961 . S
H740 C725 0.961 . S
H741 C725 0.961 . S
H742 C726 0.931 . S
H743 C731 0.930 . S
H744 C732 0.956 . S
H745 C732 0.961 . S
H746 C732 0.961 . S
H747 C733 0.958 . S
H748 C733 0.961 . S
H749 C733 0.960 . S
C750 C751 1.391 . S
C750 C752 1.394 . S
C750 H766 0.931 . S
C751 C750 1.391 . S
C751 C755 1.376 . S
C752 C750 1.394 . S
C752 C753 1.369 . S
C752 C756 1.531 . S
C753 C752 1.369 . S
C753 C754 1.410 . S
C753 C761 1.503 . S
C754 C753 1.410 . S
C754 C755 1.392 . S
C754 C757 1.511 . S
C755 C751 1.376 . S
C755 C754 1.392 . S
C755 H767 0.929 . S
C756 C752 1.531 . S
C756 H768 0.960 . S
C756 H769 0.962 . S
C756 H770 0.960 . S
C757 C754 1.511 . S
C757 H771 0.961 . S
C757 H772 0.961 . S
C757 H773 0.961 . S
C758 C759 1.370 . S
C758 C760 1.363 . S
C758 H774 0.931 . S
C759 C758 1.370 . S
C759 C763 1.408 . S
C760 C758 1.363 . S
C760 C761 1.370 . S
C760 C764 1.524 . S
C761 C753 1.503 . S
C761 C760 1.370 . S
C761 C762 1.403 . S
C762 C761 1.403 . S
C762 C763 1.404 . S
C762 C765 1.539 . S
C763 C759 1.408 . S
C763 C762 1.404 . S
C763 H775 0.930 . S
C764 C760 1.524 . S
C764 H776 0.956 . S
C764 H777 0.961 . S
C764 H778 0.961 . S
C765 C762 1.539 . S
C765 H779 0.958 . S
C765 H780 0.961 . S
C765 H781 0.960 . S
H766 C750 0.931 . S
H767 C755 0.929 . S
H768 C756 0.960 . S
H769 C756 0.962 . S
H770 C756 0.960 . S
H771 C757 0.961 . S
H772 C757 0.961 . S
H773 C757 0.961 . S
H774 C758 0.931 . S
H775 C763 0.930 . S
H776 C764 0.956 . S
H777 C764 0.961 . S
H778 C764 0.961 . S
H779 C765 0.958 . S
H780 C765 0.961 . S
H781 C765 0.960 . S
C782 C783 1.391 . S
C782 C784 1.394 . S
C782 H798 0.931 . S
C783 C782 1.391 . S
C783 C787 1.376 . S
C784 C782 1.394 . S
C784 C785 1.369 . S
C784 C788 1.531 . S
C785 C784 1.369 . S
C785 C786 1.410 . S
C785 C793 1.503 . S
C786 C785 1.410 . S
C786 C787 1.392 . S
C786 C789 1.511 . S
C787 C783 1.376 . S
C787 C786 1.392 . S
C787 H799 0.929 . S
C788 C784 1.531 . S
C788 H800 0.960 . S
C788 H801 0.962 . S
C788 H802 0.960 . S
C789 C786 1.511 . S
C789 H803 0.961 . S
C789 H804 0.961 . S
C789 H805 0.961 . S
C790 C791 1.370 . S
C790 C792 1.363 . S
C790 H806 0.931 . S
C791 C790 1.370 . S
C791 C795 1.408 . S
C792 C790 1.363 . S
C792 C793 1.370 . S
C792 C796 1.524 . S
C793 C785 1.503 . S
C793 C792 1.370 . S
C793 C794 1.403 . S
C794 C793 1.403 . S
C794 C795 1.404 . S
C794 C797 1.539 . S
C795 C791 1.408 . S
C795 C794 1.404 . S
C795 H807 0.930 . S
C796 C792 1.524 . S
C796 H808 0.956 . S
C796 H809 0.961 . S
C796 H810 0.961 . S
C797 C794 1.539 . S
C797 H811 0.958 . S
C797 H812 0.961 . S
C797 H813 0.960 . S
H798 C782 0.931 . S
H799 C787 0.929 . S
H800 C788 0.960 . S
H801 C788 0.962 . S
H802 C788 0.960 . S
H803 C789 0.961 . S
H804 C789 0.961 . S
H805 C789 0.961 . S
H806 C790 0.931 . S
H807 C795 0.930 . S
H808 C796 0.956 . S
H809 C796 0.961 . S
H810 C796 0.961 . S
H811 C797 0.958 . S
H812 C797 0.961 . S
H813 C797 0.960 . S
C814 C815 1.391 . S
C814 C816 1.394 . S
C814 H830 0.931 . S
C815 C814 1.391 . S
C815 C819 1.376 . S
C816 C814 1.394 . S
C816 C817 1.369 . S
C816 C820 1.531 . S
C817 C816 1.369 . S
C817 C818 1.410 . S
C817 C825 1.503 . S
C818 C817 1.410 . S
C818 C819 1.392 . S
C818 C821 1.511 . S
C819 C815 1.376 . S
C819 C818 1.392 . S
C819 H831 0.929 . S
C820 C816 1.531 . S
C820 H832 0.960 . S
C820 H833 0.962 . S
C820 H834 0.960 . S
C821 C818 1.511 . S
C821 H835 0.961 . S
C821 H836 0.961 . S
C821 H837 0.961 . S
C822 C823 1.370 . S
C822 C824 1.363 . S
C822 H838 0.931 . S
C823 C822 1.370 . S
C823 C827 1.408 . S
C824 C822 1.363 . S
C824 C825 1.370 . S
C824 C828 1.524 . S
C825 C817 1.503 . S
C825 C824 1.370 . S
C825 C826 1.403 . S
C826 C825 1.403 . S
C826 C827 1.404 . S
C826 C829 1.539 . S
C827 C823 1.408 . S
C827 C826 1.404 . S
C827 H839 0.930 . S
C828 C824 1.524 . S
C828 H840 0.956 . S
C828 H841 0.961 . S
C828 H842 0.961 . S
C829 C826 1.539 . S
C829 H843 0.958 . S
C829 H844 0.961 . S
C829 H845 0.960 . S
H830 C814 0.931 . S
H831 C819 0.929 . S
H832 C820 0.960 . S
H833 C820 0.962 . S
H834 C820 0.960 . S
H835 C821 0.961 . S
H836 C821 0.961 . S
H837 C821 0.961 . S
H838 C822 0.931 . S
H839 C827 0.930 . S
H840 C828 0.956 . S
H841 C828 0.961 . S
H842 C828 0.961 . S
H843 C829 0.958 . S
H844 C829 0.961 . S
H845 C829 0.960 . S
C846 C847 1.391 . S
C846 C848 1.394 . S
C846 H862 0.931 . S
C847 C846 1.391 . S
C847 C851 1.376 . S
C848 C846 1.394 . S
C848 C849 1.369 . S
C848 C852 1.531 . S
C849 C848 1.369 . S
C849 C850 1.410 . S
C849 C857 1.503 . S
C850 C849 1.410 . S
C850 C851 1.392 . S
C850 C853 1.511 . S
C851 C847 1.376 . S
C851 C850 1.392 . S
C851 H863 0.929 . S
C852 C848 1.531 . S
C852 H864 0.959 . S
C852 H865 0.962 . S
C852 H866 0.960 . S
C853 C850 1.511 . S
C853 H867 0.961 . S
C853 H868 0.961 . S
C853 H869 0.961 . S
C854 C855 1.370 . S
C854 C856 1.363 1_554 S
C854 H870 0.931 . S
C855 C854 1.370 . S
C855 C859 1.408 . S
C856 C854 1.363 1_556 S
C856 C857 1.370 . S
C856 C860 1.524 . S
C857 C849 1.503 . S
C857 C856 1.370 . S
C857 C858 1.422 . S
C858 C857 1.422 . S
C858 C859 1.382 1_556 S
C858 C861 1.543 . S
C859 C855 1.408 . S
C859 C858 1.382 1_554 S
C859 H871 0.930 . S
C860 C856 1.524 . S
C860 H872 0.956 . S
C860 H873 0.961 . S
C860 H874 0.961 . S
C861 C858 1.543 . S
C861 H875 0.958 1_556 S
C861 H876 0.961 1_556 S
C861 H877 0.960 . S
H862 C846 0.931 . S
H863 C851 0.929 . S
H864 C852 0.959 . S
H865 C852 0.962 . S
H866 C852 0.960 . S
H867 C853 0.961 . S
H868 C853 0.961 . S
H869 C853 0.961 . S
H870 C854 0.931 . S
H871 C859 0.930 . S
H872 C860 0.956 . S
H873 C860 0.961 . S
H874 C860 0.961 . S
H875 C861 0.958 1_554 S
H876 C861 0.961 1_554 S
H877 C861 0.960 . S
C878 C879 1.391 . S
C878 C880 1.394 . S
C878 H894 0.931 . S
C879 C878 1.391 . S
C879 C883 1.376 . S
C880 C878 1.394 . S
C880 C881 1.369 . S
C880 C884 1.531 . S
C881 C880 1.369 . S
C881 C882 1.410 . S
C881 C889 1.503 . S
C882 C881 1.410 . S
C882 C883 1.392 . S
C882 C885 1.511 . S
C883 C879 1.376 . S
C883 C882 1.392 . S
C883 H895 0.929 . S
C884 C880 1.531 . S
C884 H896 0.960 . S
C884 H897 0.962 . S
C884 H898 0.960 . S
C885 C882 1.511 . S
C885 H899 0.961 . S
C885 H900 0.961 . S
C885 H901 0.961 . S
C886 C887 1.370 . S
C886 C888 1.363 . S
C886 H902 0.931 . S
C887 C886 1.370 . S
C887 C891 1.408 . S
C888 C886 1.363 . S
C888 C889 1.370 . S
C888 C892 1.524 . S
C889 C881 1.503 . S
C889 C888 1.370 . S
C889 C890 1.403 . S
C890 C889 1.403 . S
C890 C891 1.404 . S
C890 C893 1.539 . S
C891 C887 1.408 . S
C891 C890 1.404 . S
C891 H903 0.930 . S
C892 C888 1.524 . S
C892 H904 0.956 . S
C892 H905 0.961 . S
C892 H906 0.961 . S
C893 C890 1.539 . S
C893 H907 0.958 . S
C893 H908 0.961 . S
C893 H909 0.960 . S
H894 C878 0.931 . S
H895 C883 0.929 . S
H896 C884 0.960 . S
H897 C884 0.962 . S
H898 C884 0.960 . S
H899 C885 0.961 . S
H900 C885 0.961 . S
H901 C885 0.961 . S
H902 C886 0.931 . S
H903 C891 0.930 . S
H904 C892 0.956 . S
H905 C892 0.961 . S
H906 C892 0.961 . S
H907 C893 0.958 . S
H908 C893 0.961 . S
H909 C893 0.960 . S
C910 C911 1.391 . S
C910 C912 1.394 . S
C910 H926 0.931 . S
C911 C910 1.391 . S
C911 C915 1.376 . S
C912 C910 1.394 . S
C912 C913 1.369 . S
C912 C916 1.531 . S
C913 C912 1.369 . S
C913 C914 1.410 . S
C913 C921 1.503 . S
C914 C913 1.410 . S
C914 C915 1.392 . S
C914 C917 1.511 . S
C915 C911 1.376 . S
C915 C914 1.392 . S
C915 H927 0.929 . S
C916 C912 1.531 . S
C916 H928 0.960 . S
C916 H929 0.962 . S
C916 H930 0.960 . S
C917 C914 1.511 . S
C917 H931 0.961 . S
C917 H932 0.961 . S
C917 H933 0.961 . S
C918 C919 1.370 . S
C918 C920 1.363 . S
C918 H934 0.931 . S
C919 C918 1.370 . S
C919 C923 1.408 . S
C920 C918 1.363 . S
C920 C921 1.370 . S
C920 C924 1.524 . S
C921 C913 1.503 . S
C921 C920 1.370 . S
C921 C922 1.403 . S
C922 C921 1.403 . S
C922 C923 1.404 . S
C922 C925 1.539 . S
C923 C919 1.408 . S
C923 C922 1.404 . S
C923 H935 0.930 . S
C924 C920 1.524 . S
C924 H936 0.956 . S
C924 H937 0.961 . S
C924 H938 0.961 . S
C925 C922 1.539 . S
C925 H939 0.958 . S
C925 H940 0.961 . S
C925 H941 0.960 . S
H926 C910 0.931 . S
H927 C915 0.929 . S
H928 C916 0.960 . S
H929 C916 0.962 . S
H930 C916 0.960 . S
H931 C917 0.961 . S
H932 C917 0.961 . S
H933 C917 0.961 . S
H934 C918 0.931 . S
H935 C923 0.930 . S
H936 C924 0.956 . S
H937 C924 0.961 . S
H938 C924 0.961 . S
H939 C925 0.958 . S
H940 C925 0.961 . S
H941 C925 0.960 . S
C942 C943 1.391 . S
C942 C944 1.394 . S
C942 H958 0.931 . S
C943 C942 1.391 . S
C943 C947 1.376 . S
C944 C942 1.394 . S
C944 C945 1.369 . S
C944 C948 1.531 . S
C945 C944 1.369 . S
C945 C946 1.410 . S
C945 C953 1.503 . S
C946 C945 1.410 . S
C946 C947 1.392 . S
C946 C949 1.511 . S
C947 C943 1.376 . S
C947 C946 1.392 . S
C947 H959 0.929 . S
C948 C944 1.531 . S
C948 H960 0.960 . S
C948 H961 0.962 . S
C948 H962 0.960 . S
C949 C946 1.511 . S
C949 H963 0.961 . S
C949 H964 0.961 . S
C949 H965 0.961 . S
C950 C951 1.370 . S
C950 C952 1.363 . S
C950 H966 0.931 . S
C951 C950 1.370 . S
C951 C955 1.408 . S
C952 C950 1.363 . S
C952 C953 1.370 . S
C952 C956 1.524 . S
C953 C945 1.503 . S
C953 C952 1.370 . S
C953 C954 1.403 . S
C954 C953 1.403 . S
C954 C955 1.404 . S
C954 C957 1.539 . S
C955 C951 1.408 . S
C955 C954 1.404 . S
C955 H967 0.930 . S
C956 C952 1.524 . S
C956 H968 0.956 . S
C956 H969 0.961 . S
C956 H970 0.961 . S
C957 C954 1.539 . S
C957 H971 0.958 . S
C957 H972 0.961 . S
C957 H973 0.960 . S
H958 C942 0.931 . S
H959 C947 0.929 . S
H960 C948 0.960 . S
H961 C948 0.962 . S
H962 C948 0.960 . S
H963 C949 0.961 . S
H964 C949 0.961 . S
H965 C949 0.961 . S
H966 C950 0.931 . S
H967 C955 0.930 . S
H968 C956 0.956 . S
H969 C956 0.961 . S
H970 C956 0.961 . S
H971 C957 0.958 . S
H972 C957 0.961 . S
H973 C957 0.960 . S
C974 C975 1.391 . S
C974 C976 1.394 . S
C974 H990 0.931 . S
C975 C974 1.391 . S
C975 C979 1.376 . S
C976 C974 1.394 . S
C976 C977 1.369 . S
C976 C980 1.531 . S
C977 C976 1.369 . S
C977 C978 1.410 . S
C977 C985 1.503 . S
C978 C977 1.410 . S
C978 C979 1.392 . S
C978 C981 1.511 . S
C979 C975 1.376 . S
C979 C978 1.392 . S
C979 H991 0.929 . S
C980 C976 1.531 . S
C980 H992 0.960 . S
C980 H993 0.962 . S
C980 H994 0.960 . S
C981 C978 1.511 . S
C981 H995 0.961 . S
C981 H996 0.961 . S
C981 H997 0.961 . S
C982 C983 1.370 . S
C982 C984 1.363 . S
C982 H998 0.931 . S
C983 C982 1.370 . S
C983 C987 1.408 . S
C984 C982 1.363 . S
C984 C985 1.370 . S
C984 C988 1.524 . S
C985 C977 1.503 . S
C985 C984 1.370 . S
C985 C986 1.403 . S
C986 C985 1.403 . S
C986 C987 1.404 . S
C986 C989 1.539 . S
C987 C983 1.408 . S
C987 C986 1.404 . S
C987 H999 0.930 . S
C988 C984 1.524 . S
C988 H1000 0.956 . S
C988 H1001 0.961 . S
C988 H1002 0.961 . S
C989 C986 1.539 . S
C989 H1003 0.958 . S
C989 H1004 0.961 . S
C989 H1005 0.960 . S
H990 C974 0.931 . S
H991 C979 0.929 . S
H992 C980 0.960 . S
H993 C980 0.962 . S
H994 C980 0.960 . S
H995 C981 0.961 . S
H996 C981 0.961 . S
H997 C981 0.961 . S
H998 C982 0.931 . S
H999 C987 0.930 . S
H1000 C988 0.956 . S
H1001 C988 0.961 . S
H1002 C988 0.961 . S
H1003 C989 0.958 . S
H1004 C989 0.961 . S
H1005 C989 0.960 . S
C1006 C1007 1.391 . S
C1006 C1008 1.394 . S
C1006 H1022 0.931 . S
C1007 C1006 1.391 . S
C1007 C1011 1.376 . S
C1008 C1006 1.394 . S
C1008 C1009 1.369 . S
C1008 C1012 1.531 . S
C1009 C1008 1.369 . S
C1009 C1010 1.410 . S
C1009 C1017 1.503 . S
C1010 C1009 1.410 . S
C1010 C1011 1.392 . S
C1010 C1013 1.511 . S
C1011 C1007 1.376 . S
C1011 C1010 1.392 . S
C1011 H1023 0.929 . S
C1012 C1008 1.531 . S
C1012 H1024 0.960 . S
C1012 H1025 0.962 . S
C1012 H1026 0.960 . S
C1013 C1010 1.511 . S
C1013 H1027 0.961 . S
C1013 H1028 0.961 . S
C1013 H1029 0.961 . S
C1014 C1015 1.370 . S
C1014 C1016 1.363 . S
C1014 H1030 0.931 . S
C1015 C1014 1.370 . S
C1015 C1019 1.408 . S
C1016 C1014 1.363 . S
C1016 C1017 1.370 . S
C1016 C1020 1.524 . S
C1017 C1009 1.503 . S
C1017 C1016 1.370 . S
C1017 C1018 1.403 . S
C1018 C1017 1.403 . S
C1018 C1019 1.404 . S
C1018 C1021 1.539 . S
C1019 C1015 1.408 . S
C1019 C1018 1.404 . S
C1019 H1031 0.930 . S
C1020 C1016 1.524 . S
C1020 H1032 0.956 . S
C1020 H1033 0.961 . S
C1020 H1034 0.961 . S
C1021 C1018 1.539 . S
C1021 H1035 0.958 . S
C1021 H1036 0.961 . S
C1021 H1037 0.960 . S
H1022 C1006 0.931 . S
H1023 C1011 0.929 . S
H1024 C1012 0.960 . S
H1025 C1012 0.962 . S
H1026 C1012 0.960 . S
H1027 C1013 0.961 . S
H1028 C1013 0.961 . S
H1029 C1013 0.961 . S
H1030 C1014 0.931 . S
H1031 C1019 0.930 . S
H1032 C1020 0.956 . S
H1033 C1020 0.961 . S
H1034 C1020 0.961 . S
H1035 C1021 0.958 . S
H1036 C1021 0.961 . S
H1037 C1021 0.960 . S
C1038 C1039 1.391 . S
C1038 C1040 1.394 . S
C1038 H1054 0.931 . S
C1039 C1038 1.391 . S
C1039 C1043 1.376 . S
C1040 C1038 1.394 . S
C1040 C1041 1.369 . S
C1040 C1044 1.531 . S
C1041 C1040 1.369 . S
C1041 C1042 1.410 . S
C1041 C1049 1.503 . S
C1042 C1041 1.410 . S
C1042 C1043 1.392 . S
C1042 C1045 1.511 . S
C1043 C1039 1.376 . S
C1043 C1042 1.392 . S
C1043 H1055 0.929 . S
C1044 C1040 1.531 . S
C1044 H1056 0.960 . S
C1044 H1057 0.962 . S
C1044 H1058 0.960 . S
C1045 C1042 1.511 . S
C1045 H1059 0.961 . S
C1045 H1060 0.961 . S
C1045 H1061 0.961 . S
C1046 C1047 1.370 . S
C1046 C1048 1.363 . S
C1046 H1062 0.931 . S
C1047 C1046 1.370 . S
C1047 C1051 1.408 . S
C1048 C1046 1.363 . S
C1048 C1049 1.370 . S
C1048 C1052 1.524 . S
C1049 C1041 1.503 . S
C1049 C1048 1.370 . S
C1049 C1050 1.403 . S
C1050 C1049 1.403 . S
C1050 C1051 1.404 . S
C1050 C1053 1.539 . S
C1051 C1047 1.408 . S
C1051 C1050 1.404 . S
C1051 H1063 0.930 . S
C1052 C1048 1.524 . S
C1052 H1064 0.956 . S
C1052 H1065 0.961 . S
C1052 H1066 0.961 . S
C1053 C1050 1.539 . S
C1053 H1067 0.958 . S
C1053 H1068 0.961 . S
C1053 H1069 0.960 . S
H1054 C1038 0.931 . S
H1055 C1043 0.929 . S
H1056 C1044 0.960 . S
H1057 C1044 0.962 . S
H1058 C1044 0.960 . S
H1059 C1045 0.961 . S
H1060 C1045 0.961 . S
H1061 C1045 0.961 . S
H1062 C1046 0.931 . S
H1063 C1051 0.930 . S
H1064 C1052 0.956 . S
H1065 C1052 0.961 . S
H1066 C1052 0.961 . S
H1067 C1053 0.958 . S
H1068 C1053 0.961 . S
H1069 C1053 0.960 . S
C1070 C1071 1.391 . S
C1070 C1072 1.394 . S
C1070 H1086 0.931 . S
C1071 C1070 1.391 . S
C1071 C1075 1.376 . S
C1072 C1070 1.394 . S
C1072 C1073 1.369 . S
C1072 C1076 1.531 . S
C1073 C1072 1.369 . S
C1073 C1074 1.410 . S
C1073 C1081 1.503 . S
C1074 C1073 1.410 . S
C1074 C1075 1.392 . S
C1074 C1077 1.511 . S
C1075 C1071 1.376 . S
C1075 C1074 1.392 . S
C1075 H1087 0.929 . S
C1076 C1072 1.531 . S
C1076 H1088 0.960 1_554 S
C1076 H1089 0.962 1_554 S
C1076 H1090 0.960 . S
C1077 C1074 1.511 . S
C1077 H1091 0.961 . S
C1077 H1092 0.961 . S
C1077 H1093 0.961 . S
C1078 C1079 1.370 . S
C1078 C1080 1.363 . S
C1078 H1094 0.931 . S
C1079 C1078 1.370 . S
C1079 C1083 1.408 . S
C1080 C1078 1.363 . S
C1080 C1081 1.370 1_556 S
C1080 C1084 1.524 . S
C1081 C1073 1.503 . S
C1081 C1080 1.370 1_554 S
C1081 C1082 1.403 . S
C1082 C1081 1.403 . S
C1082 C1083 1.404 1_554 S
C1082 C1085 1.539 . S
C1083 C1079 1.408 . S
C1083 C1082 1.404 1_556 S
C1083 H1095 0.930 . S
C1084 C1080 1.524 . S
C1084 H1096 0.956 . S
C1084 H1097 0.961 1_556 S
C1084 H1098 0.961 . S
C1085 C1082 1.539 . S
C1085 H1099 0.958 . S
C1085 H1100 0.961 . S
C1085 H1101 0.960 . S
H1086 C1070 0.931 . S
H1087 C1075 0.929 . S
H1088 C1076 0.960 1_556 S
H1089 C1076 0.962 1_556 S
H1090 C1076 0.960 . S
H1091 C1077 0.961 . S
H1092 C1077 0.961 . S
H1093 C1077 0.961 . S
H1094 C1078 0.931 . S
H1095 C1083 0.930 . S
H1096 C1084 0.956 . S
H1097 C1084 0.961 1_554 S
H1098 C1084 0.961 . S
H1099 C1085 0.958 . S
H1100 C1085 0.961 . S
H1101 C1085 0.960 . S
C1102 C1103 1.391 . S
C1102 C1104 1.394 . S
C1102 H1118 0.931 . S
C1103 C1102 1.391 . S
C1103 C1107 1.376 . S
C1104 C1102 1.394 . S
C1104 C1105 1.369 . S
C1104 C1108 1.531 . S
C1105 C1104 1.369 . S
C1105 C1106 1.410 . S
C1105 C1113 1.503 . S
C1106 C1105 1.410 . S
C1106 C1107 1.392 . S
C1106 C1109 1.511 . S
C1107 C1103 1.376 . S
C1107 C1106 1.392 . S
C1107 H1119 0.929 . S
C1108 C1104 1.531 . S
C1108 H1120 0.960 . S
C1108 H1121 0.962 . S
C1108 H1122 0.960 . S
C1109 C1106 1.511 . S
C1109 H1123 0.961 . S
C1109 H1124 0.961 . S
C1109 H1125 0.961 . S
C1110 C1111 1.370 . S
C1110 C1112 1.363 . S
C1110 H1126 0.931 . S
C1111 C1110 1.370 . S
C1111 C1115 1.408 . S
C1112 C1110 1.363 . S
C1112 C1113 1.370 . S
C1112 C1116 1.524 . S
C1113 C1105 1.503 . S
C1113 C1112 1.370 . S
C1113 C1114 1.403 . S
C1114 C1113 1.403 . S
C1114 C1115 1.404 . S
C1114 C1117 1.539 . S
C1115 C1111 1.408 . S
C1115 C1114 1.404 . S
C1115 H1127 0.930 . S
C1116 C1112 1.524 . S
C1116 H1128 0.956 . S
C1116 H1129 0.961 . S
C1116 H1130 0.961 . S
C1117 C1114 1.539 . S
C1117 H1131 0.958 . S
C1117 H1132 0.961 . S
C1117 H1133 0.960 . S
H1118 C1102 0.931 . S
H1119 C1107 0.929 . S
H1120 C1108 0.960 . S
H1121 C1108 0.962 . S
H1122 C1108 0.960 . S
H1123 C1109 0.961 . S
H1124 C1109 0.961 . S
H1125 C1109 0.961 . S
H1126 C1110 0.931 . S
H1127 C1115 0.930 . S
H1128 C1116 0.956 . S
H1129 C1116 0.961 . S
H1130 C1116 0.961 . S
H1131 C1117 0.958 . S
H1132 C1117 0.961 . S
H1133 C1117 0.960 . S
C375 C358 1.582 . S
C367 C45 1.576 . S
C399 C84 1.579 . S
C407 C293 1.586 . S
C431 C126 1.547 . S
C439 C311 1.581 . S
C463 C189 1.570 . S
C471 C324 1.571 . S
C503 C332 1.588 . S
C495 C228 1.579 . S
C527 C270 1.562 . S
C535 C344 1.582 . S
C559 C69 1.582 . S
C567 C306 1.586 . S
C591 C141 1.577 . S
C599 C319 1.583 . S
C623 C174 1.565 . S
C631 C337 1.582 . S
C663 C343 1.588 . S
C655 C213 1.573 . S
C695 C363 1.572 . S
C687 C285 1.567 . S
C727 C298 1.583 . S
C719 C30 1.565 . S
C751 C36 1.604 . S
C759 C304 1.603 . S
C783 C93 1.602 . S
C791 C317 1.607 . S
C823 C331 1.602 . S
C815 C117 1.600 . S
C847 C180 1.598 . S
C855 C345 1.612 . S
C887 C357 1.595 . S
C879 C237 1.598 . S
C919 C292 1.603 . S
C911 C261 1.589 . S
C951 C356 1.606 . S
C943 C78 1.582 . S
C975 C132 1.591 . S
C983 C291 1.606 . S
C1015 C305 1.600 . S
C1007 C165 1.578 . S
C1039 C222 1.584 . S
C1047 C318 1.594 . S
C1071 C276 1.592 . S
C1079 C330 1.611 . S
C1103 C21 1.595 . S
C1111 C350 1.603 . S
