# Generated by pormake.
# Topology anh, (6,3)-cn, num edge types: 1
# Building blocks:
#     Node 0, Type 0, BuildingBlock: BETFEN_clean_sbu_0, # of connection points: 6
#     Node 1, Type 0, BuildingBlock: BETFEN_clean_sbu_0, # of connection points: 6
#     Node 2, Type 0, BuildingBlock: BETFEN_clean_sbu_0, # of connection points: 6
#     Node 3, Type 1, BuildingBlock: BETDIP_clean_linker_0, # of connection points: 3
#     Node 4, Type 1, BuildingBlock: BETDIP_clean_linker_0, # of connection points: 3
#     Node 5, Type 1, BuildingBlock: BETDIP_clean_linker_0, # of connection points: 3
#     Node 6, Type 1, BuildingBlock: BETDIP_clean_linker_0, # of connection points: 3
#     Node 7, Type 1, BuildingBlock: BETDIP_clean_linker_0, # of connection points: 3
#     Node 8, Type 1, BuildingBlock: BETDIP_clean_linker_0, # of connection points: 3
#     Edge 9, Type (0, 1), BuildingBlock: OJICUG_clean_linker_0, # of connection points: 2
#     Edge 10, Type (0, 1), BuildingBlock: OJICUG_clean_linker_0, # of connection points: 2
#     Edge 11, Type (0, 1), BuildingBlock: OJICUG_clean_linker_0, # of connection points: 2
#     Edge 12, Type (0, 1), BuildingBlock: OJICUG_clean_linker_0, # of connection points: 2
#     Edge 13, Type (0, 1), BuildingBlock: OJICUG_clean_linker_0, # of connection points: 2
#     Edge 14, Type (0, 1), BuildingBlock: OJICUG_clean_linker_0, # of connection points: 2
#     Edge 15, Type (0, 1), BuildingBlock: OJICUG_clean_linker_0, # of connection points: 2
#     Edge 16, Type (0, 1), BuildingBlock: OJICUG_clean_linker_0, # of connection points: 2
#     Edge 17, Type (0, 1), BuildingBlock: OJICUG_clean_linker_0, # of connection points: 2
#     Edge 18, Type (0, 1), BuildingBlock: OJICUG_clean_linker_0, # of connection points: 2
#     Edge 19, Type (0, 1), BuildingBlock: OJICUG_clean_linker_0, # of connection points: 2
#     Edge 20, Type (0, 1), BuildingBlock: OJICUG_clean_linker_0, # of connection points: 2
#     Edge 21, Type (0, 1), BuildingBlock: OJICUG_clean_linker_0, # of connection points: 2
#     Edge 22, Type (0, 1), BuildingBlock: OJICUG_clean_linker_0, # of connection points: 2
#     Edge 23, Type (0, 1), BuildingBlock: OJICUG_clean_linker_0, # of connection points: 2
#     Edge 24, Type (0, 1), BuildingBlock: OJICUG_clean_linker_0, # of connection points: 2
#     Edge 25, Type (0, 1), BuildingBlock: OJICUG_clean_linker_0, # of connection points: 2
#     Edge 26, Type (0, 1), BuildingBlock: OJICUG_clean_linker_0, # of connection points: 2
# Relax obj value: 0.225
# Max RMSD: 0.208
# Mean RMSD: 0.141
data_MOF--net-anh--node1-BETFEN_clean_sbu_0--node2-BETDIP_clean_linker_0--edge1-OJICUG_clean_linker_0
_symmetry_space_group_name_H-M    P1
_symmetry_Int_Tables_number       1
_symmetry_cell_setting            triclinic
loop_
_symmetry_equiv_pos_as_xyz
'x, y, z'
_cell_length_a     21.851997
_cell_length_b     22.603731
_cell_length_c     36.531182
_cell_angle_alpha  92.955952
_cell_angle_beta   92.938655
_cell_angle_gamma 97.388667
loop_
_atom_site_label
_atom_site_type_symbol
_atom_site_fract_x
_atom_site_fract_y
_atom_site_fract_z
_atom_type_partial_charge
Pr0 Pr 0.11452 0.60185 0.14961 0.0
Pr1 Pr 0.12002 0.73201 0.13395 0.0
C2 C 0.08718 0.49256 0.17584 0.0
C3 C 1.03131 0.44896 0.17769 0.0
C4 C 1.03645 0.38802 0.17976 0.0
C5 C 0.98343 0.34631 0.18106 0.0
C6 C 0.92435 0.36489 0.17987 0.0
C7 C 0.9195 0.42605 0.1777 0.0
C8 C 0.9725 0.46767 0.17687 0.0
C9 C 0.11546 0.62235 0.07502 0.0
C10 C 0.9819 0.66203 0.13701 0.0
C11 C 0.15256 0.84329 0.11241 0.0
C12 C 0.20464 0.89062 0.12394 0.0
C13 C 0.20541 0.92341 0.15777 0.0
C14 C 0.25696 0.96381 0.17023 0.0
C15 C 0.30915 0.97295 0.14917 0.0
C16 C 0.30769 0.94152 0.1148 0.0
C17 C 0.25595 0.90094 0.10229 0.0
C18 C 0.1188 0.71145 0.20839 0.0
C19 C 0.25215 0.66977 0.14067 0.0
O20 O 0.08935 0.54244 0.19597 0.0
O21 O 0.10723 0.50073 0.14315 0.0
O22 O 0.08406 0.64778 0.09764 0.0
O23 O 0.14612 0.58379 0.09042 0.0
O24 O 1.01318 0.70797 0.12239 0.0
O25 O 1.01068 0.62057 0.15219 0.0
O26 O 0.16664 0.79559 0.09463 0.0
O27 O 0.11092 0.83065 0.1363 0.0
O28 O 0.1503 0.68591 0.1859 0.0
O29 O 0.08988 0.75113 0.19314 0.0
O30 O 0.22235 0.62404 0.15626 0.0
O31 O 0.22214 0.71171 0.12725 0.0
H32 H 0.08145 0.37269 0.18037 0.0
H33 H 0.98858 0.29946 0.18256 0.0
H34 H 0.87475 0.44188 0.17732 0.0
H35 H 0.96761 0.51453 0.17582 0.0
H36 H 0.16686 0.91679 0.17526 0.0
H37 H 0.25661 0.98634 0.1971 0.0
H38 H 0.34671 0.94793 0.09766 0.0
H39 H 0.25664 0.87665 0.076 0.0
Pr40 Pr 0.59886 0.16136 0.51364 0.0
Pr41 Pr 0.45872 0.15052 0.50979 0.0
C42 C 0.72056 0.19018 0.50457 0.0
C43 C 0.76352 0.24462 0.49998 0.0
C44 C 0.819 0.24026 0.48309 0.0
C45 C 0.85928 0.29177 0.47729 0.0
C46 C 0.84468 0.34867 0.48824 0.0
C47 C 0.78904 0.35272 0.50545 0.0
C48 C 0.74881 0.30114 0.51122 0.0
C49 C 0.54284 0.14791 0.58 0.0
C50 C 0.52906 0.28946 0.5171 0.0
C51 C 0.33782 0.11691 0.51865 0.0
C52 C 0.29913 1.0582 0.51658 0.0
C53 C 0.24327 1.04966 0.49515 0.0
C54 C 0.21144 0.99219 0.48775 0.0
C55 C 0.23535 0.94226 0.5014 0.0
C56 C 0.28941 0.9513 0.5246 0.0
C57 C 0.32079 1.00882 0.53234 0.0
C58 C 0.50928 0.16268 0.44199 0.0
C59 C 0.52953 1.02259 0.51185 0.0
O60 O 0.67984 0.17362 0.47726 0.0
O61 O 0.69751 0.18475 0.53677 0.0
O62 O 0.53029 0.18239 0.55565 0.0
O63 O 0.58825 0.11906 0.5711 0.0
O64 O 0.47651 0.25534 0.52238 0.0
O65 O 0.5793 0.26409 0.50982 0.0
O66 O 0.37925 0.12771 0.54611 0.0
O67 O 0.35884 0.13443 0.48758 0.0
O68 O 0.52723 0.12958 0.46618 0.0
O69 O 0.46312 0.18921 0.4522 0.0
O70 O 0.58279 1.05524 0.5063 0.0
O71 O 0.47921 1.04919 0.51636 0.0
H72 H 0.83104 0.19698 0.4742 0.0
H73 H 0.90205 0.28698 0.4644 0.0
H74 H 0.77596 0.3958 0.51379 0.0
H75 H 0.70599 0.3054 0.52417 0.0
H76 H 0.22579 1.08711 0.4827 0.0
H77 H 0.17014 0.9865 0.46954 0.0
H78 H 0.30852 0.91365 0.53575 0.0
H79 H 0.36338 1.01433 0.54938 0.0
Pr80 Pr 0.59976 0.57004 0.82131 0.0
Pr81 Pr 0.6202 0.70224 0.83485 0.0
C82 C 0.59082 0.45259 0.80332 0.0
C83 C 0.5471 0.40037 0.81037 0.0
C84 C 0.48892 0.40724 0.82336 0.0
C85 C 0.44561 0.35709 0.82713 0.0
C86 C 0.46012 0.2995 0.81811 0.0
C87 C 0.51995 0.29305 0.80721 0.0
C88 C 0.56302 0.34314 0.80335 0.0
C89 C 0.58311 0.60714 0.89365 0.0
C90 C 0.746 0.63686 0.83053 0.0
C91 C 0.63025 0.81803 0.85652 0.0
C92 C 0.58075 0.8566 0.85268 0.0
C93 C 0.58505 0.90119 0.82726 0.0
C94 C 0.53194 0.92406 0.81444 0.0
C95 C 0.47352 0.90219 0.82653 0.0
C96 C 0.47078 0.86312 0.85526 0.0
C97 C 0.52377 0.84068 0.86824 0.0
C98 C 0.5884 0.66426 0.76127 0.0
C99 C 0.47696 0.63783 0.82657 0.0
O100 O 0.62394 0.4781 0.83202 0.0
O101 O 0.5698 0.49066 0.78155 0.0
O102 O 0.62686 0.6284 0.87499 0.0
O103 O 0.54681 0.56492 0.87526 0.0
O104 O 0.72407 0.68765 0.83763 0.0
O105 O 0.70871 0.58669 0.82202 0.0
O106 O 0.6209 0.77548 0.87942 0.0
O107 O 0.65164 0.79967 0.82564 0.0
O108 O 0.6272 0.6428 0.78172 0.0
O109 O 0.56484 0.70662 0.77855 0.0
O110 O 0.49821 0.59287 0.8089 0.0
O111 O 0.5155 0.67983 0.84504 0.0
H112 H 0.47636 0.45141 0.82939 0.0
H113 H 0.40001 0.36342 0.83563 0.0
H114 H 0.53236 0.2495 0.79932 0.0
H115 H 0.60798 0.33724 0.79359 0.0
H116 H 0.62848 0.91484 0.81514 0.0
H117 H 0.53619 0.95598 0.79331 0.0
H118 H 0.42701 0.84541 0.86558 0.0
H119 H 0.51862 0.8068 0.88818 0.0
H120 H 0.58824 0.12328 0.1847 0.0
H121 H 0.65927 0.17651 0.29529 0.0
H122 H 0.46966 1.09966 0.27475 0.0
H123 H 0.65995 0.20635 0.17362 0.0
C124 C 0.69881 0.20448 0.19311 0.0
C125 C 0.58135 0.12789 0.21379 0.0
C126 C 0.52304 0.10829 0.22676 0.0
C127 C 0.63042 0.15338 0.23861 0.0
C128 C 0.62145 0.15689 0.27631 0.0
C129 C 0.56326 0.13886 0.2894 0.0
C130 C 0.51439 0.11476 0.26451 0.0
N131 N 0.68904 0.17722 0.22688 0.0
H132 H 0.53686 0.59641 0.49642 0.0
H133 H 0.55439 0.71131 0.59547 0.0
H134 H 0.5506 0.52187 0.60262 0.0
H135 H 0.47463 0.75219 0.55656 0.0
C136 C 0.50917 0.76312 0.53673 0.0
C137 C 0.54162 0.60229 0.52607 0.0
C138 C 0.5437 0.55093 0.54752 0.0
C139 C 0.54372 0.66113 0.54344 0.0
C140 C 0.55006 0.66705 0.58197 0.0
C141 C 0.55299 0.61752 0.60341 0.0
C142 C 0.54956 0.56015 0.58599 0.0
N143 N 0.54061 0.71446 0.52316 0.0
H144 H 0.04615 0.61827 0.81087 0.0
H145 H 0.17311 0.62464 0.90539 0.0
H146 H 0.97991 0.6316 0.91962 0.0
H147 H 0.21092 0.70792 0.8527 0.0
C148 C 0.21826 0.66579 0.83892 0.0
C149 C 0.05473 0.6202 0.84041 0.0
C150 C 1.00586 0.62576 0.86364 0.0
C151 C 0.11547 0.62085 0.8556 0.0
C152 C 0.12631 0.6242 0.89391 0.0
C153 C 0.07777 0.62747 0.91733 0.0
C154 C 1.01787 0.62895 0.90188 0.0
N155 N 0.16646 0.62058 0.83282 0.0
H156 H 0.08892 0.66828 0.46834 0.0
H157 H 0.05716 0.5908 0.35743 0.0
H158 H 0.16292 0.76414 0.37878 0.0
H159 H 1.01193 0.6005 0.48087 0.0
C160 C 1.00599 0.56389 0.46008 0.0
C161 C 0.0945 0.6703 0.43919 0.0
C162 C 0.12941 0.72082 0.42638 0.0
C163 C 0.06846 0.62285 0.41424 0.0
C164 C 0.07804 0.62672 0.37669 0.0
C165 C 0.11125 0.67788 0.36368 0.0
C166 C 0.13732 0.72438 0.38872 0.0
N167 N 1.03183 0.57089 0.42536 0.0
H168 H 0.26214 1.04197 0.76725 0.0
H169 H 0.31635 0.99416 0.6588 0.0
H170 H 0.40005 0.15747 0.71672 0.0
H171 H 0.20292 0.8942 0.7498 0.0
C172 C 0.24545 0.9204 0.74283 0.0
C173 C 0.28927 1.05218 0.74383 0.0
C174 C 0.33059 0.10476 0.74489 0.0
C175 C 0.28369 1.01228 0.71256 0.0
C176 C 0.31984 1.02547 0.68253 0.0
C177 C 0.3621 1.07805 0.68397 0.0
C178 C 0.36659 0.11737 0.71507 0.0
N179 N 0.24474 0.95697 0.71233 0.0
H180 H 0.55976 0.67782 0.15553 0.0
H181 H 0.663 0.65338 0.06 0.0
H182 H 0.46798 0.66303 0.04751 0.0
H183 H 0.69342 0.57906 0.11473 0.0
C184 C 0.71365 0.6231 0.12607 0.0
C185 C 0.56131 0.67235 0.12597 0.0
C186 C 0.5067 0.67084 0.10332 0.0
C187 C 0.61788 0.66601 0.11022 0.0
C188 C 0.61952 0.65873 0.07194 0.0
C189 C 0.56586 0.65773 0.04909 0.0
C190 C 0.50974 0.66394 0.06501 0.0
N191 N 0.67352 0.66701 0.13245 0.0
C192 C 0.35537 0.63041 0.14889 0.0
C193 C 0.31989 0.67346 0.13564 0.0
H194 H 0.4432 0.59658 0.14968 0.0
C195 C 0.34913 0.71912 0.11527 0.0
H196 H 0.33455 0.59475 0.16473 0.0
C197 C 0.41081 0.71987 0.10663 0.0
C198 C 0.44545 0.67558 0.11851 0.0
H199 H 0.32379 0.75335 0.10471 0.0
H200 H 0.43098 0.75411 0.08953 0.0
C201 C 0.41769 0.63166 0.14053 0.0
C202 C 0.91577 0.40834 0.44775 0.0
C203 C 0.88684 0.40356 0.4812 0.0
H204 H 0.97593 0.46236 0.41471 0.0
C205 C 0.89815 0.45176 0.50765 0.0
H206 H 0.90745 0.37244 0.42658 0.0
C207 C 0.93727 0.50352 0.50075 0.0
C208 C 0.96577 0.50827 0.46727 0.0
H209 H 0.87722 0.44929 0.53386 0.0
H210 H 0.94509 0.53998 0.52159 0.0
C211 C 0.95479 0.4601 0.44086 0.0
C212 C 0.35978 0.91371 0.82346 0.0
C213 C 0.41561 0.9125 0.80588 0.0
H214 H 0.26174 0.91588 0.81699 0.0
C215 C 0.4144 0.91439 0.7674 0.0
H216 H 0.35881 0.91285 0.85302 0.0
C217 C 0.35917 0.91692 0.74711 0.0
C218 C 0.30365 0.91717 0.76469 0.0
H219 H 0.45567 0.91155 0.75258 0.0
H220 H 0.3597 0.91718 0.71749 0.0
C221 C 0.30417 0.91532 0.80295 0.0
C222 C 0.87928 0.70288 0.13494 0.0
C223 C 0.91317 0.65394 0.13494 0.0
H224 H 0.78914 0.73205 0.13313 0.0
C225 C 0.88068 0.59594 0.13312 0.0
H226 H 0.90304 0.74812 0.13635 0.0
C227 C 0.81613 0.58684 0.13103 0.0
C228 C 0.7821 0.63542 0.13122 0.0
H229 H 0.90514 0.55726 0.13229 0.0
H230 H 0.79267 0.54143 0.12889 0.0
C231 C 0.81419 0.69372 0.13344 0.0
C232 C 0.14378 0.86402 0.48576 0.0
C233 C 0.20812 0.88108 0.48783 0.0
H234 H 0.06831 0.79825 0.46525 0.0
C235 C 0.2464 0.84143 0.47322 0.0
H236 H 0.11332 0.89373 0.49687 0.0
C237 C 0.22069 0.78751 0.45492 0.0
C238 C 0.15638 0.77172 0.45154 0.0
H239 H 0.29607 0.85367 0.47403 0.0
H240 H 0.25088 0.75918 0.44209 0.0
C241 C 0.11811 0.80944 0.46797 0.0
C242 C 0.42457 0.18999 0.82065 0.0
C243 C 0.41107 0.2475 0.81315 0.0
H244 H 0.40605 1.09656 0.80479 0.0
C245 C 0.35618 0.25319 0.79258 0.0
H246 H 0.46592 0.18431 0.83705 0.0
C247 C 0.32158 0.20291 0.77464 0.0
C248 C 0.34141 0.14667 0.77726 0.0
H249 H 0.34432 0.29677 0.78631 0.0
H250 H 0.28464 0.2091 0.75482 0.0
C251 C 0.38986 0.13969 0.80266 0.0
C252 C 0.47092 0.92247 0.52632 0.0
C253 C 0.5254 0.95491 0.51492 0.0
H254 H 0.42381 0.83894 0.54151 0.0
C255 C 0.57491 0.9217 0.50788 0.0
H256 H 0.4316 0.94508 0.53219 0.0
C257 C 0.57001 0.85896 0.51276 0.0
C258 C 0.51563 0.82752 0.52527 0.0
H259 H 0.61791 0.94431 0.49908 0.0
H260 H 0.6095 0.83574 0.50808 0.0
C261 C 0.46638 0.86076 0.53161 0.0
C262 C 0.84061 0.58389 0.82455 0.0
C263 C 0.81415 0.63575 0.83437 0.0
H264 H 0.92282 0.54046 0.82538 0.0
C265 C 0.85323 0.68592 0.85015 0.0
H266 H 0.81203 0.54447 0.81226 0.0
C267 C 0.91621 0.68333 0.85772 0.0
C268 C 0.94207 0.63093 0.8492 0.0
H269 H 0.83483 0.72665 0.85809 0.0
H270 H 0.94449 0.72178 0.87147 0.0
C271 C 0.90408 0.58162 0.83177 0.0
C272 C 0.42499 0.99633 0.16006 0.0
C273 C 0.36557 1.01278 0.16424 0.0
H274 H 0.52176 1.0142 0.1764 0.0
C275 C 0.36013 1.0653 0.18553 0.0
H276 H 0.43097 0.95596 0.14411 0.0
C277 C 0.41196 1.09811 0.2042 0.0
C278 C 0.47066 1.07966 0.20176 0.0
H279 H 0.31544 1.08022 0.18866 0.0
H280 H 0.40587 0.13699 0.22157 0.0
C281 C 0.47707 1.02961 0.17855 0.0
C282 C 0.58668 0.39653 0.5159 0.0
C283 C 0.53186 0.35755 0.52063 0.0
H284 H 0.63334 0.48728 0.51964 0.0
C285 C 0.47962 0.38474 0.53012 0.0
H286 H 0.62817 0.37827 0.50868 0.0
C287 C 0.48257 0.44752 0.53596 0.0
C288 C 0.53757 0.48633 0.53211 0.0
H289 H 0.43641 0.3573 0.53421 0.0
H290 H 0.44205 0.46573 0.54504 0.0
C291 C 0.58953 0.45958 0.52171 0.0
C292 C 0.3915 0.69863 0.83721 0.0
C293 C 0.40966 0.64323 0.82635 0.0
H294 H 0.31761 0.74859 0.84903 0.0
C295 C 0.3633 0.59469 0.81702 0.0
H296 H 0.42557 0.73717 0.84415 0.0
C297 C 0.30032 0.60133 0.81993 0.0
C298 C 0.28301 0.65673 0.83193 0.0
H299 H 0.37571 0.5514 0.80852 0.0
H300 H 0.26556 0.56301 0.81365 0.0
C301 C 0.32935 0.70528 0.83989 0.0
C302 C 0.86529 0.27741 0.20785 0.0
C303 C 0.86791 0.32102 0.1817 0.0
H304 H 0.80988 0.20634 0.2321 0.0
C305 C 0.8155 0.3237 0.15813 0.0
H306 H 0.90478 0.2745 0.22652 0.0
C307 C 0.76129 0.28435 0.16113 0.0
C308 C 0.75811 0.24216 0.18806 0.0
H309 H 0.81636 0.35642 0.13745 0.0
H310 H 0.7213 0.28797 0.14299 0.0
C311 C 0.81084 0.23858 0.21114 0.0
C312 C 0.13869 0.59023 0.01141 0.0
C313 C 0.10811 0.62626 0.03486 0.0
H314 H 0.15241 0.5617 0.95605 0.0
C315 C 0.06908 0.66437 0.01956 0.0
H316 H 0.16905 0.5604 0.02246 0.0
C317 C 0.05984 0.66549 0.98143 0.0
C318 C 0.08947 0.62849 0.95787 0.0
H319 H 1.04518 0.69287 0.03704 0.0
H320 H 1.02953 0.69537 0.97041 0.0
C321 C 0.12941 0.59125 0.97335 0.0
C322 C 0.57648 0.13047 0.39296 0.0
C323 C 0.52631 0.15931 0.40345 0.0
H324 H 0.62808 1.1019 0.34828 0.0
C325 C 0.49032 0.18329 0.37642 0.0
H326 H 0.60498 0.11168 0.4133 0.0
C327 C 0.50287 0.17692 0.3395 0.0
C328 C 0.55228 0.1473 0.32885 0.0
H329 H 0.45144 0.20589 0.38366 0.0
H330 H 0.47378 0.19508 0.31916 0.0
C331 C 0.58972 0.12497 0.3559 0.0
C332 C 0.53518 0.67826 0.70078 0.0
C333 C 0.57732 0.64938 0.72132 0.0
H334 H 0.49364 0.69008 0.6478 0.0
C335 C 0.60944 0.60765 0.70318 0.0
H336 H 0.5093 0.71024 0.71403 0.0
C337 C 0.60072 0.59626 0.66503 0.0
C338 C 0.5597 0.62641 0.64428 0.0
H339 H 0.6421 0.58458 0.71836 0.0
H340 H 0.62737 0.56509 0.65168 0.0
C341 C 0.52644 0.6669 0.66277 0.0
C342 C 0.45658 0.16815 0.61799 0.0
C343 C 0.49799 0.129 0.60715 0.0
H344 H 0.3797 0.18168 0.64984 0.0
C345 C 0.49187 1.07092 0.61971 0.0
H346 H 0.45985 0.21288 0.60826 0.0
C347 C 0.44517 1.05268 0.6432 0.0
C348 C 0.40453 1.09251 0.65453 0.0
H349 H 0.52261 1.03957 0.6111 0.0
H350 H 0.44206 1.00833 0.65345 0.0
C351 C 0.41036 0.15012 0.6414 0.0
C352 C 0.62188 0.66459 0.95248 0.0
C353 C 0.57738 0.62296 0.93285 0.0
H354 H 0.65269 0.70889 0.00468 0.0
C355 C 0.52755 0.59514 0.9512 0.0
H356 H 0.66051 0.68698 0.9389 0.0
C357 C 0.52308 0.6075 -0.01127 0.0
C358 C 0.5684 0.64794 0.00871 0.0
H359 H 0.49242 0.563 0.93667 0.0
H360 H 0.48507 0.58403 0.0023 0.0
C361 C 0.61749 0.6769 -0.0099 0.0
C362 C 0.14165 0.65289 0.26299 0.0
C363 C 0.11891 0.70244 0.2481 0.0
H364 H 0.15591 0.60546 0.31165 0.0
C365 C 0.09429 0.74348 0.27144 0.0
H366 H 0.16102 0.62072 0.24557 0.0
C367 C 0.09253 0.73543 0.30894 0.0
C368 C 0.11432 0.68559 0.32385 0.0
H369 H 0.07643 0.78209 0.26074 0.0
H370 H 0.07326 0.76781 0.32631 0.0
C371 C 0.13864 0.64411 0.30062 0.0
loop_
_geom_bond_atom_site_label_1
_geom_bond_atom_site_label_2
_geom_bond_distance
_geom_bond_site_symmetry_2
_ccdc_geom_bond_type
Pr0 C2 2.880 1_455 S
Pr0 O20 2.562 1_455 S
Pr0 O21 2.490 1_455 S
Pr0 O22 2.695 . S
Pr0 O23 2.512 . S
Pr0 O25 2.437 1_455 S
Pr0 O28 2.436 . S
Pr0 O30 2.438 . S
Pr1 C11 2.880 . S
Pr1 O22 2.436 . S
Pr1 O24 2.438 1_455 S
Pr1 O26 2.562 . S
Pr1 O27 2.490 . S
Pr1 O28 2.695 . S
Pr1 O29 2.512 . S
Pr1 O31 2.437 . S
C2 Pr0 2.880 1_655 S
C2 C3 1.491 . S
C2 O20 1.254 . S
C2 O21 1.225 . S
C3 C2 1.491 . S
C3 C4 1.392 . S
C3 C8 1.356 . S
C4 C3 1.392 . S
C4 C5 1.368 . S
C4 H32 0.929 . S
C5 C4 1.368 . S
C5 C6 1.386 . S
C5 H33 0.929 . S
C6 C5 1.386 . S
C6 C7 1.373 . S
C7 C6 1.373 . S
C7 C8 1.409 . S
C7 H34 0.931 . S
C8 C3 1.356 . S
C8 C7 1.409 . S
C8 H35 0.930 . S
C9 O22 1.270 . S
C9 O23 1.248 . S
C10 O24 1.267 . S
C10 O25 1.278 . S
C11 Pr1 2.880 . S
C11 C12 1.491 . S
C11 O26 1.254 . S
C11 O27 1.225 . S
C12 C11 1.491 . S
C12 C13 1.392 . S
C12 C17 1.356 . S
C13 C12 1.392 . S
C13 C14 1.368 . S
C13 H36 0.929 . S
C14 C13 1.368 . S
C14 C15 1.386 . S
C14 H37 0.929 . S
C15 C14 1.386 . S
C15 C16 1.373 . S
C16 C15 1.373 . S
C16 C17 1.409 . S
C16 H38 0.931 . S
C17 C12 1.356 . S
C17 C16 1.409 . S
C17 H39 0.930 . S
C18 O28 1.270 . S
C18 O29 1.248 . S
C19 O30 1.267 . S
C19 O31 1.278 . S
O20 Pr0 2.562 1_655 S
O20 C2 1.254 . S
O21 Pr0 2.490 1_655 S
O21 C2 1.225 . S
O22 Pr0 2.695 . S
O22 Pr1 2.436 . S
O22 C9 1.270 . S
O23 Pr0 2.512 . S
O23 C9 1.248 . S
O24 Pr1 2.438 1_655 S
O24 C10 1.267 . S
O25 Pr0 2.437 1_655 S
O25 C10 1.278 . S
O26 Pr1 2.562 . S
O26 C11 1.254 . S
O27 Pr1 2.490 . S
O27 C11 1.225 . S
O28 Pr0 2.436 . S
O28 Pr1 2.695 . S
O28 C18 1.270 . S
O29 Pr1 2.512 . S
O29 C18 1.248 . S
O30 Pr0 2.438 . S
O30 C19 1.267 . S
O31 Pr1 2.437 . S
O31 C19 1.278 . S
H32 C4 0.929 . S
H33 C5 0.929 . S
H34 C7 0.931 . S
H35 C8 0.930 . S
H36 C13 0.929 . S
H37 C14 0.929 . S
H38 C16 0.931 . S
H39 C17 0.930 . S
Pr40 C42 2.880 . S
Pr40 O60 2.562 . S
Pr40 O61 2.490 . S
Pr40 O62 2.695 . S
Pr40 O63 2.512 . S
Pr40 O65 2.437 . S
Pr40 O68 2.436 . S
Pr40 O70 2.438 1_545 S
Pr41 C51 2.880 1_545 S
Pr41 O62 2.436 . S
Pr41 O64 2.438 . S
Pr41 O66 2.562 1_545 S
Pr41 O67 2.490 1_545 S
Pr41 O68 2.695 . S
Pr41 O69 2.512 . S
Pr41 O71 2.437 1_545 S
C42 Pr40 2.880 . S
C42 C43 1.491 . S
C42 O60 1.254 . S
C42 O61 1.225 . S
C43 C42 1.491 . S
C43 C44 1.392 . S
C43 C48 1.356 . S
C44 C43 1.392 . S
C44 C45 1.368 . S
C44 H72 0.929 . S
C45 C44 1.368 . S
C45 C46 1.386 . S
C45 H73 0.929 . S
C46 C45 1.386 . S
C46 C47 1.373 . S
C47 C46 1.373 . S
C47 C48 1.409 . S
C47 H74 0.931 . S
C48 C43 1.356 . S
C48 C47 1.409 . S
C48 H75 0.930 . S
C49 O62 1.270 . S
C49 O63 1.248 . S
C50 O64 1.267 . S
C50 O65 1.278 . S
C51 Pr41 2.880 1_565 S
C51 C52 1.491 . S
C51 O66 1.254 . S
C51 O67 1.225 . S
C52 C51 1.491 . S
C52 C53 1.392 . S
C52 C57 1.356 . S
C53 C52 1.392 . S
C53 C54 1.368 . S
C53 H76 0.929 . S
C54 C53 1.368 . S
C54 C55 1.386 . S
C54 H77 0.929 . S
C55 C54 1.386 . S
C55 C56 1.373 . S
C56 C55 1.373 . S
C56 C57 1.409 . S
C56 H78 0.931 . S
C57 C52 1.356 . S
C57 C56 1.409 . S
C57 H79 0.930 . S
C58 O68 1.270 . S
C58 O69 1.248 . S
C59 O70 1.267 . S
C59 O71 1.278 . S
O60 Pr40 2.562 . S
O60 C42 1.254 . S
O61 Pr40 2.490 . S
O61 C42 1.225 . S
O62 Pr40 2.695 . S
O62 Pr41 2.436 . S
O62 C49 1.270 . S
O63 Pr40 2.512 . S
O63 C49 1.248 . S
O64 Pr41 2.438 . S
O64 C50 1.267 . S
O65 Pr40 2.437 . S
O65 C50 1.278 . S
O66 Pr41 2.562 1_565 S
O66 C51 1.254 . S
O67 Pr41 2.490 1_565 S
O67 C51 1.225 . S
O68 Pr40 2.436 . S
O68 Pr41 2.695 . S
O68 C58 1.270 . S
O69 Pr41 2.512 . S
O69 C58 1.248 . S
O70 Pr40 2.438 1_565 S
O70 C59 1.267 . S
O71 Pr41 2.437 1_565 S
O71 C59 1.278 . S
H72 C44 0.929 . S
H73 C45 0.929 . S
H74 C47 0.931 . S
H75 C48 0.930 . S
H76 C53 0.929 . S
H77 C54 0.929 . S
H78 C56 0.931 . S
H79 C57 0.930 . S
Pr80 C82 2.880 . S
Pr80 O100 2.562 . S
Pr80 O101 2.490 . S
Pr80 O102 2.695 . S
Pr80 O103 2.512 . S
Pr80 O105 2.437 . S
Pr80 O108 2.436 . S
Pr80 O110 2.438 . S
Pr81 C91 2.880 . S
Pr81 O102 2.436 . S
Pr81 O104 2.438 . S
Pr81 O106 2.562 . S
Pr81 O107 2.490 . S
Pr81 O108 2.695 . S
Pr81 O109 2.512 . S
Pr81 O111 2.437 . S
C82 Pr80 2.880 . S
C82 C83 1.491 . S
C82 O100 1.254 . S
C82 O101 1.225 . S
C83 C82 1.491 . S
C83 C84 1.392 . S
C83 C88 1.356 . S
C84 C83 1.392 . S
C84 C85 1.368 . S
C84 H112 0.929 . S
C85 C84 1.368 . S
C85 C86 1.386 . S
C85 H113 0.929 . S
C86 C85 1.386 . S
C86 C87 1.373 . S
C87 C86 1.373 . S
C87 C88 1.409 . S
C87 H114 0.931 . S
C88 C83 1.356 . S
C88 C87 1.409 . S
C88 H115 0.930 . S
C89 O102 1.270 . S
C89 O103 1.248 . S
C90 O104 1.267 . S
C90 O105 1.278 . S
C91 Pr81 2.880 . S
C91 C92 1.491 . S
C91 O106 1.254 . S
C91 O107 1.225 . S
C92 C91 1.491 . S
C92 C93 1.392 . S
C92 C97 1.356 . S
C93 C92 1.392 . S
C93 C94 1.368 . S
C93 H116 0.929 . S
C94 C93 1.368 . S
C94 C95 1.386 . S
C94 H117 0.929 . S
C95 C94 1.386 . S
C95 C96 1.373 . S
C96 C95 1.373 . S
C96 C97 1.409 . S
C96 H118 0.931 . S
C97 C92 1.356 . S
C97 C96 1.409 . S
C97 H119 0.930 . S
C98 O108 1.270 . S
C98 O109 1.248 . S
C99 O110 1.267 . S
C99 O111 1.278 . S
O100 Pr80 2.562 . S
O100 C82 1.254 . S
O101 Pr80 2.490 . S
O101 C82 1.225 . S
O102 Pr80 2.695 . S
O102 Pr81 2.436 . S
O102 C89 1.270 . S
O103 Pr80 2.512 . S
O103 C89 1.248 . S
O104 Pr81 2.438 . S
O104 C90 1.267 . S
O105 Pr80 2.437 . S
O105 C90 1.278 . S
O106 Pr81 2.562 . S
O106 C91 1.254 . S
O107 Pr81 2.490 . S
O107 C91 1.225 . S
O108 Pr80 2.436 . S
O108 Pr81 2.695 . S
O108 C98 1.270 . S
O109 Pr81 2.512 . S
O109 C98 1.248 . S
O110 Pr80 2.438 . S
O110 C99 1.267 . S
O111 Pr81 2.437 . S
O111 C99 1.278 . S
H112 C84 0.929 . S
H113 C85 0.929 . S
H114 C87 0.931 . S
H115 C88 0.930 . S
H116 C93 0.929 . S
H117 C94 0.929 . S
H118 C96 0.931 . S
H119 C97 0.930 . S
H120 C125 0.930 . S
H121 C128 0.930 . S
H122 C130 0.930 1_565 S
H123 C124 1.016 . S
C124 H123 1.016 . S
C124 N131 1.286 . S
C125 H120 0.930 . S
C125 C126 1.397 1_545 S
C125 C127 1.361 . S
C126 C125 1.397 1_565 S
C126 C130 1.390 1_565 S
C127 C125 1.361 . S
C127 C128 1.393 . S
C127 N131 1.413 . S
C128 H121 0.930 . S
C128 C127 1.393 . S
C128 C129 1.399 . S
C129 C128 1.399 . S
C129 C130 1.381 . S
C130 H122 0.930 1_545 S
C130 C126 1.390 1_545 S
C130 C129 1.381 . S
N131 C124 1.286 . S
N131 C127 1.413 . S
H132 C137 0.930 . S
H133 C140 0.930 . S
H134 C142 0.930 . S
H135 C136 1.016 . S
C136 H135 1.016 . S
C136 N143 1.286 . S
C137 H132 0.930 . S
C137 C138 1.397 . S
C137 C139 1.361 . S
C138 C137 1.397 . S
C138 C142 1.390 . S
C139 C137 1.361 . S
C139 C140 1.393 . S
C139 N143 1.413 . S
C140 H133 0.930 . S
C140 C139 1.393 . S
C140 C141 1.399 . S
C141 C140 1.399 . S
C141 C142 1.381 . S
C142 H134 0.930 . S
C142 C138 1.390 . S
C142 C141 1.381 . S
N143 C136 1.286 . S
N143 C139 1.413 . S
H144 C149 0.930 . S
H145 C152 0.930 . S
H146 C154 0.930 . S
H147 C148 1.016 . S
C148 H147 1.016 . S
C148 N155 1.286 . S
C149 H144 0.930 . S
C149 C150 1.397 . S
C149 C151 1.361 1_655 S
C150 C149 1.397 . S
C150 C154 1.390 . S
C151 C149 1.361 1_455 S
C151 C152 1.393 . S
C151 N155 1.413 . S
C152 H145 0.930 . S
C152 C151 1.393 . S
C152 C153 1.401 . S
C153 C152 1.401 . S
C153 C154 1.378 1_455 S
C154 H146 0.930 . S
C154 C150 1.390 . S
C154 C153 1.378 1_655 S
N155 C148 1.286 . S
N155 C151 1.413 . S
H156 C161 0.930 . S
H157 C164 0.930 . S
H158 C166 0.930 . S
H159 C160 1.016 . S
C160 H159 1.016 . S
C160 N167 1.286 . S
C161 H156 0.930 . S
C161 C162 1.397 . S
C161 C163 1.361 . S
C162 C161 1.397 . S
C162 C166 1.390 . S
C163 C161 1.361 . S
C163 C164 1.393 1_455 S
C163 N167 1.413 1_455 S
C164 H157 0.930 . S
C164 C163 1.393 1_655 S
C164 C165 1.399 1_655 S
C165 C164 1.399 1_455 S
C165 C166 1.381 . S
C166 H158 0.930 . S
C166 C162 1.390 . S
C166 C165 1.381 . S
N167 C160 1.286 . S
N167 C163 1.413 1_655 S
H168 C173 0.930 . S
H169 C176 0.930 . S
H170 C178 0.930 . S
H171 C172 1.016 . S
C172 H171 1.016 . S
C172 N179 1.286 . S
C173 H168 0.930 . S
C173 C174 1.397 . S
C173 C175 1.361 . S
C174 C173 1.397 . S
C174 C178 1.390 . S
C175 C173 1.361 . S
C175 C176 1.393 1_545 S
C175 N179 1.413 1_545 S
C176 H169 0.930 . S
C176 C175 1.393 1_565 S
C176 C177 1.399 1_565 S
C177 C176 1.399 1_545 S
C177 C178 1.381 . S
C178 H170 0.930 . S
C178 C174 1.390 . S
C178 C177 1.381 . S
N179 C172 1.286 . S
N179 C175 1.413 1_565 S
H180 C185 0.930 . S
H181 C188 0.930 . S
H182 C190 0.930 . S
H183 C184 1.016 . S
C184 H183 1.016 . S
C184 N191 1.286 . S
C185 H180 0.930 . S
C185 C186 1.397 . S
C185 C187 1.361 . S
C186 C185 1.397 . S
C186 C190 1.390 . S
C187 C185 1.361 . S
C187 C188 1.393 . S
C187 N191 1.413 . S
C188 H181 0.930 . S
C188 C187 1.393 . S
C188 C189 1.399 . S
C189 C188 1.399 . S
C189 C190 1.381 . S
C190 H182 0.930 . S
C190 C186 1.390 . S
C190 C189 1.381 . S
N191 C184 1.286 . S
N191 C187 1.413 . S
C192 C193 1.387 . S
C192 H196 0.950 . S
C192 C201 1.390 . S
C193 C192 1.387 . S
C193 C195 1.387 . S
H194 C201 0.950 . S
C195 C193 1.387 . S
C195 C197 1.390 . S
C195 H199 0.950 . S
H196 C192 0.950 . S
C197 C195 1.390 . S
C197 C198 1.387 . S
C197 H200 0.950 . S
C198 C197 1.387 . S
C198 C201 1.387 . S
H199 C195 0.950 . S
H200 C197 0.950 . S
C201 C192 1.390 . S
C201 H194 0.950 . S
C201 C198 1.387 . S
C202 C203 1.387 . S
C202 H206 0.950 . S
C202 C211 1.390 . S
C203 C202 1.387 . S
C203 C205 1.387 . S
H204 C211 0.950 . S
C205 C203 1.387 . S
C205 C207 1.390 . S
C205 H209 0.950 . S
H206 C202 0.950 . S
C207 C205 1.390 . S
C207 C208 1.387 . S
C207 H210 0.950 . S
C208 C207 1.387 . S
C208 C211 1.387 . S
H209 C205 0.950 . S
H210 C207 0.950 . S
C211 C202 1.390 . S
C211 H204 0.950 . S
C211 C208 1.387 . S
C212 C213 1.387 . S
C212 H216 0.950 . S
C212 C221 1.390 . S
C213 C212 1.387 . S
C213 C215 1.387 . S
H214 C221 0.950 . S
C215 C213 1.387 . S
C215 C217 1.390 . S
C215 H219 0.950 . S
H216 C212 0.950 . S
C217 C215 1.390 . S
C217 C218 1.387 . S
C217 H220 0.950 . S
C218 C217 1.387 . S
C218 C221 1.387 . S
H219 C215 0.950 . S
H220 C217 0.950 . S
C221 C212 1.390 . S
C221 H214 0.950 . S
C221 C218 1.387 . S
C222 C223 1.387 . S
C222 H226 0.950 . S
C222 C231 1.390 . S
C223 C222 1.387 . S
C223 C225 1.387 . S
H224 C231 0.950 . S
C225 C223 1.387 . S
C225 C227 1.390 . S
C225 H229 0.950 . S
H226 C222 0.950 . S
C227 C225 1.390 . S
C227 C228 1.387 . S
C227 H230 0.950 . S
C228 C227 1.387 . S
C228 C231 1.387 . S
H229 C225 0.950 . S
H230 C227 0.950 . S
C231 C222 1.390 . S
C231 H224 0.950 . S
C231 C228 1.387 . S
C232 C233 1.387 . S
C232 H236 0.950 . S
C232 C241 1.390 . S
C233 C232 1.387 . S
C233 C235 1.387 . S
H234 C241 0.950 . S
C235 C233 1.387 . S
C235 C237 1.390 . S
C235 H239 0.950 . S
H236 C232 0.950 . S
C237 C235 1.390 . S
C237 C238 1.387 . S
C237 H240 0.950 . S
C238 C237 1.387 . S
C238 C241 1.387 . S
H239 C235 0.950 . S
H240 C237 0.950 . S
C241 C232 1.390 . S
C241 H234 0.950 . S
C241 C238 1.387 . S
C242 C243 1.387 . S
C242 H246 0.950 . S
C242 C251 1.390 . S
C243 C242 1.387 . S
C243 C245 1.387 . S
H244 C251 0.950 . S
C245 C243 1.387 . S
C245 C247 1.390 . S
C245 H249 0.950 . S
H246 C242 0.950 . S
C247 C245 1.390 . S
C247 C248 1.387 . S
C247 H250 0.950 . S
C248 C247 1.387 . S
C248 C251 1.387 . S
H249 C245 0.950 . S
H250 C247 0.950 . S
C251 C242 1.390 . S
C251 H244 0.950 . S
C251 C248 1.387 . S
C252 C253 1.387 . S
C252 H256 0.950 . S
C252 C261 1.390 . S
C253 C252 1.387 . S
C253 C255 1.387 . S
H254 C261 0.950 . S
C255 C253 1.387 . S
C255 C257 1.390 . S
C255 H259 0.950 . S
H256 C252 0.950 . S
C257 C255 1.390 . S
C257 C258 1.387 . S
C257 H260 0.950 . S
C258 C257 1.387 . S
C258 C261 1.387 . S
H259 C255 0.950 . S
H260 C257 0.950 . S
C261 C252 1.390 . S
C261 H254 0.950 . S
C261 C258 1.387 . S
C262 C263 1.387 . S
C262 H266 0.950 . S
C262 C271 1.390 . S
C263 C262 1.387 . S
C263 C265 1.387 . S
H264 C271 0.950 . S
C265 C263 1.387 . S
C265 C267 1.390 . S
C265 H269 0.950 . S
H266 C262 0.950 . S
C267 C265 1.390 . S
C267 C268 1.387 . S
C267 H270 0.950 . S
C268 C267 1.387 . S
C268 C271 1.387 . S
H269 C265 0.950 . S
H270 C267 0.950 . S
C271 C262 1.390 . S
C271 H264 0.950 . S
C271 C268 1.387 . S
C272 C273 1.387 . S
C272 H276 0.950 . S
C272 C281 1.390 . S
C273 C272 1.387 . S
C273 C275 1.387 . S
H274 C281 0.950 . S
C275 C273 1.387 . S
C275 C277 1.390 . S
C275 H279 0.950 . S
H276 C272 0.950 . S
C277 C275 1.390 . S
C277 C278 1.387 . S
C277 H280 0.950 . S
C278 C277 1.387 . S
C278 C281 1.387 . S
H279 C275 0.950 . S
H280 C277 0.950 . S
C281 C272 1.390 . S
C281 H274 0.950 . S
C281 C278 1.387 . S
C282 C283 1.387 . S
C282 H286 0.950 . S
C282 C291 1.390 . S
C283 C282 1.387 . S
C283 C285 1.387 . S
H284 C291 0.950 . S
C285 C283 1.387 . S
C285 C287 1.390 . S
C285 H289 0.950 . S
H286 C282 0.950 . S
C287 C285 1.390 . S
C287 C288 1.387 . S
C287 H290 0.950 . S
C288 C287 1.387 . S
C288 C291 1.387 . S
H289 C285 0.950 . S
H290 C287 0.950 . S
C291 C282 1.390 . S
C291 H284 0.950 . S
C291 C288 1.387 . S
C292 C293 1.387 . S
C292 H296 0.950 . S
C292 C301 1.390 . S
C293 C292 1.387 . S
C293 C295 1.387 . S
H294 C301 0.950 . S
C295 C293 1.387 . S
C295 C297 1.390 . S
C295 H299 0.950 . S
H296 C292 0.950 . S
C297 C295 1.390 . S
C297 C298 1.387 . S
C297 H300 0.950 . S
C298 C297 1.387 . S
C298 C301 1.387 . S
H299 C295 0.950 . S
H300 C297 0.950 . S
C301 C292 1.390 . S
C301 H294 0.950 . S
C301 C298 1.387 . S
C302 C303 1.387 . S
C302 H306 0.950 . S
C302 C311 1.390 . S
C303 C302 1.387 . S
C303 C305 1.387 . S
H304 C311 0.950 . S
C305 C303 1.387 . S
C305 C307 1.390 . S
C305 H309 0.950 . S
H306 C302 0.950 . S
C307 C305 1.390 . S
C307 C308 1.387 . S
C307 H310 0.950 . S
C308 C307 1.387 . S
C308 C311 1.387 . S
H309 C305 0.950 . S
H310 C307 0.950 . S
C311 C302 1.390 . S
C311 H304 0.950 . S
C311 C308 1.387 . S
C312 C313 1.387 . S
C312 H316 0.950 . S
C312 C321 1.390 1_554 S
C313 C312 1.387 . S
C313 C315 1.387 . S
H314 C321 0.950 . S
C315 C313 1.387 . S
C315 C317 1.390 1_554 S
C315 H319 0.950 . S
H316 C312 0.950 . S
C317 C315 1.390 1_556 S
C317 C318 1.387 . S
C317 H320 0.950 . S
C318 C317 1.387 . S
C318 C321 1.387 . S
H319 C315 0.950 . S
H320 C317 0.950 . S
C321 C312 1.390 1_556 S
C321 H314 0.950 . S
C321 C318 1.387 . S
C322 C323 1.387 1_565 S
C322 H326 0.950 . S
C322 C331 1.390 . S
C323 C322 1.387 1_545 S
C323 C325 1.387 . S
H324 C331 0.950 . S
C325 C323 1.387 . S
C325 C327 1.390 . S
C325 H329 0.950 . S
H326 C322 0.950 . S
C327 C325 1.390 . S
C327 C328 1.387 . S
C327 H330 0.950 . S
C328 C327 1.387 . S
C328 C331 1.387 1_545 S
H329 C325 0.950 . S
H330 C327 0.950 . S
C331 C322 1.390 . S
C331 H324 0.950 . S
C331 C328 1.387 1_565 S
C332 C333 1.387 . S
C332 H336 0.950 . S
C332 C341 1.390 . S
C333 C332 1.387 . S
C333 C335 1.387 . S
H334 C341 0.950 . S
C335 C333 1.387 . S
C335 C337 1.390 . S
C335 H339 0.950 . S
H336 C332 0.950 . S
C337 C335 1.390 . S
C337 C338 1.387 . S
C337 H340 0.950 . S
C338 C337 1.387 . S
C338 C341 1.387 . S
H339 C335 0.950 . S
H340 C337 0.950 . S
C341 C332 1.390 . S
C341 H334 0.950 . S
C341 C338 1.387 . S
C342 C343 1.387 1_565 S
C342 H346 0.950 . S
C342 C351 1.390 . S
C343 C342 1.387 1_545 S
C343 C345 1.387 . S
H344 C351 0.950 . S
C345 C343 1.387 . S
C345 C347 1.390 . S
C345 H349 0.950 . S
H346 C342 0.950 . S
C347 C345 1.390 . S
C347 C348 1.387 . S
C347 H350 0.950 . S
C348 C347 1.387 . S
C348 C351 1.387 1_545 S
H349 C345 0.950 . S
H350 C347 0.950 . S
C351 C342 1.390 . S
C351 H344 0.950 . S
C351 C348 1.387 1_565 S
C352 C353 1.387 . S
C352 H356 0.950 . S
C352 C361 1.390 1_556 S
C353 C352 1.387 . S
C353 C355 1.387 . S
H354 C361 0.950 . S
C355 C353 1.387 . S
C355 C357 1.390 1_556 S
C355 H359 0.950 . S
H356 C352 0.950 . S
C357 C355 1.390 1_554 S
C357 C358 1.387 . S
C357 H360 0.950 . S
C358 C357 1.387 . S
C358 C361 1.387 . S
H359 C355 0.950 . S
H360 C357 0.950 . S
C361 C352 1.390 1_554 S
C361 H354 0.950 . S
C361 C358 1.387 . S
C362 C363 1.387 . S
C362 H366 0.950 . S
C362 C371 1.390 . S
C363 C362 1.387 . S
C363 C365 1.387 . S
H364 C371 0.950 . S
C365 C363 1.387 . S
C365 C367 1.390 . S
C365 H369 0.950 . S
H366 C362 0.950 . S
C367 C365 1.390 . S
C367 C368 1.387 . S
C367 H370 0.950 . S
C368 C367 1.387 . S
C368 C371 1.387 . S
H369 C365 0.950 . S
H370 C367 0.950 . S
C371 C362 1.390 . S
C371 H364 0.950 . S
C371 C368 1.387 . S
C193 C19 2.087 . S
C198 C186 2.072 . S
C203 C46 1.369 . S
C208 C160 1.401 . S
C213 C95 0.838 . S
C218 C172 0.907 . S
C223 C10 1.879 . S
C228 C184 1.738 . S
C238 C162 1.346 . S
C233 C55 1.306 . S
C248 C174 0.795 . S
C243 C86 0.778 . S
C253 C59 3.180 . S
C258 C136 3.081 . S
C263 C90 2.148 . S
C268 C150 2.181 . S
C273 C15 1.231 . S
C278 C126 1.272 . S
C288 C138 3.006 . S
C283 C50 3.030 . S
C298 C148 1.724 . S
C293 C99 1.812 . S
C303 C6 1.330 . S
C308 C124 1.348 . S
C318 C153 1.477 . S
C313 C9 1.407 . S
C323 C58 1.527 . S
C328 C129 1.539 . S
C333 C98 1.690 . S
C338 C141 1.783 . S
C348 C177 1.156 . S
C343 C49 1.108 . S
C358 C189 1.483 . S
C353 C89 1.439 . S
C363 C18 1.491 . S
C368 C165 1.505 . S
