# Generated by pormake.
# Topology cml, (3,6)-cn, num edge types: 1
# Building blocks:
#     Node 0, Type 0, BuildingBlock: BELTOD_clean_linker_0, # of connection points: 3
#     Node 1, Type 0, BuildingBlock: BELTOD_clean_linker_0, # of connection points: 3
#     Node 2, Type 0, BuildingBlock: BELTOD_clean_linker_0, # of connection points: 3
#     Node 3, Type 0, BuildingBlock: BELTOD_clean_linker_0, # of connection points: 3
#     Node 4, Type 0, BuildingBlock: BELTOD_clean_linker_0, # of connection points: 3
#     Node 5, Type 0, BuildingBlock: BELTOD_clean_linker_0, # of connection points: 3
#     Node 6, Type 0, BuildingBlock: BELTOD_clean_linker_0, # of connection points: 3
#     Node 7, Type 0, BuildingBlock: BELTOD_clean_linker_0, # of connection points: 3
#     Node 8, Type 1, BuildingBlock: OJICUG_clean_sbu_0, # of connection points: 6
#     Node 9, Type 1, BuildingBlock: OJICUG_clean_sbu_0, # of connection points: 6
#     Node 10, Type 1, BuildingBlock: OJICUG_clean_sbu_0, # of connection points: 6
#     Node 11, Type 1, BuildingBlock: OJICUG_clean_sbu_0, # of connection points: 6
#     Edge 12, Type (0, 1), BuildingBlock: ZUJKAS_clean_linker_0, # of connection points: 2
#     Edge 13, Type (0, 1), BuildingBlock: ZUJKAS_clean_linker_0, # of connection points: 2
#     Edge 14, Type (0, 1), BuildingBlock: ZUJKAS_clean_linker_0, # of connection points: 2
#     Edge 15, Type (0, 1), BuildingBlock: ZUJKAS_clean_linker_0, # of connection points: 2
#     Edge 16, Type (0, 1), BuildingBlock: ZUJKAS_clean_linker_0, # of connection points: 2
#     Edge 17, Type (0, 1), BuildingBlock: ZUJKAS_clean_linker_0, # of connection points: 2
#     Edge 18, Type (0, 1), BuildingBlock: ZUJKAS_clean_linker_0, # of connection points: 2
#     Edge 19, Type (0, 1), BuildingBlock: ZUJKAS_clean_linker_0, # of connection points: 2
#     Edge 20, Type (0, 1), BuildingBlock: ZUJKAS_clean_linker_0, # of connection points: 2
#     Edge 21, Type (0, 1), BuildingBlock: ZUJKAS_clean_linker_0, # of connection points: 2
#     Edge 22, Type (0, 1), BuildingBlock: ZUJKAS_clean_linker_0, # of connection points: 2
#     Edge 23, Type (0, 1), BuildingBlock: ZUJKAS_clean_linker_0, # of connection points: 2
#     Edge 24, Type (0, 1), BuildingBlock: ZUJKAS_clean_linker_0, # of connection points: 2
#     Edge 25, Type (0, 1), BuildingBlock: ZUJKAS_clean_linker_0, # of connection points: 2
#     Edge 26, Type (0, 1), BuildingBlock: ZUJKAS_clean_linker_0, # of connection points: 2
#     Edge 27, Type (0, 1), BuildingBlock: ZUJKAS_clean_linker_0, # of connection points: 2
#     Edge 28, Type (0, 1), BuildingBlock: ZUJKAS_clean_linker_0, # of connection points: 2
#     Edge 29, Type (0, 1), BuildingBlock: ZUJKAS_clean_linker_0, # of connection points: 2
#     Edge 30, Type (0, 1), BuildingBlock: ZUJKAS_clean_linker_0, # of connection points: 2
#     Edge 31, Type (0, 1), BuildingBlock: ZUJKAS_clean_linker_0, # of connection points: 2
#     Edge 32, Type (0, 1), BuildingBlock: ZUJKAS_clean_linker_0, # of connection points: 2
#     Edge 33, Type (0, 1), BuildingBlock: ZUJKAS_clean_linker_0, # of connection points: 2
#     Edge 34, Type (0, 1), BuildingBlock: ZUJKAS_clean_linker_0, # of connection points: 2
#     Edge 35, Type (0, 1), BuildingBlock: ZUJKAS_clean_linker_0, # of connection points: 2
# Relax obj value: 0.065
# Max RMSD: 0.077
# Mean RMSD: 0.073
data_MOF--net-cml--node1-OJICUG_clean_sbu_0--node2-BELTOD_clean_linker_0--edge1-ZUJKAS_clean_linker_0
_symmetry_space_group_name_H-M    P1
_symmetry_Int_Tables_number       1
_symmetry_cell_setting            triclinic
loop_
_symmetry_equiv_pos_as_xyz
'x, y, z'
_cell_length_a     55.512747
_cell_length_b     55.870421
_cell_length_c     52.450731
_cell_angle_alpha  89.580982
_cell_angle_beta   89.732688
_cell_angle_gamma 90.015905
loop_
_atom_site_label
_atom_site_type_symbol
_atom_site_fract_x
_atom_site_fract_y
_atom_site_fract_z
_atom_type_partial_charge
P0 P 0.29548 0.37341 0.97786 0.0
H1 H 0.31189 0.32991 0.00353 0.0
H2 H 0.31691 0.31965 0.04844 0.0
H3 H 0.28318 0.38646 0.06953 0.0
H4 H 0.279 0.39691 0.02443 0.0
H5 H 0.28214 0.35684 0.92741 0.0
H6 H 0.24345 0.34735 0.90807 0.0
H7 H 0.20698 0.36843 0.97736 0.0
H8 H 0.24586 0.37753 0.99673 0.0
H9 H 0.33516 0.4006 0.99832 0.0
H10 H 0.27242 0.41469 0.95234 0.0
O11 O 0.31681 0.35821 0.96236 0.0
H12 H 0.34773 0.44222 0.99338 0.0
H13 H 0.28466 0.45651 0.94769 0.0
C14 C 0.29563 0.36438 0.01077 0.0
C15 C 0.30538 0.34223 0.01783 0.0
C16 C 0.30798 0.33628 0.04356 0.0
C17 C 0.30064 0.35235 0.06261 0.0
C18 C 0.28941 0.37389 0.05533 0.0
C19 C 0.28695 0.37986 0.02958 0.0
C20 C 0.26685 0.36718 0.96372 0.0
C21 C 0.26582 0.35935 0.93846 0.0
C22 C 0.24367 0.35423 0.92732 0.0
C23 C 0.22218 0.35706 0.94125 0.0
C24 C 0.22327 0.36575 0.96631 0.0
C25 C 0.24547 0.37089 0.97741 0.0
C26 C 0.30292 0.4046 0.97572 0.0
C27 C 0.32391 0.41279 0.98749 0.0
C28 C 0.33094 0.43663 0.98484 0.0
C29 C 0.31712 0.45269 0.97022 0.0
C30 C 0.29573 0.44451 0.95894 0.0
C31 C 0.2887 0.42061 0.96164 0.0
P32 P 0.75162 0.56518 0.52648 0.0
H33 H 0.73468 0.51587 0.53012 0.0
H34 H 0.70604 0.49273 0.50507 0.0
H35 H 0.69507 0.5539 0.45552 0.0
H36 H 0.72334 0.57706 0.48107 0.0
H37 H 0.76539 0.61548 0.53387 0.0
H38 H 0.78984 0.64312 0.50844 0.0
H39 H 0.79993 0.58839 0.45157 0.0
H40 H 0.77573 0.56069 0.47736 0.0
H41 H 0.75283 0.5638 0.58231 0.0
H42 H 0.71164 0.59906 0.52353 0.0
O43 O 0.77136 0.54671 0.54027 0.0
H44 H 0.72796 0.58274 0.61492 0.0
H45 H 0.68625 0.61771 0.55607 0.0
C46 C 0.73149 0.54797 0.5071 0.0
C47 C 0.72628 0.5242 0.51371 0.0
C48 C 0.70996 0.51097 0.49931 0.0
C49 C 0.6984 0.5214 0.47815 0.0
C50 C 0.70354 0.54537 0.47178 0.0
C51 C 0.71985 0.55857 0.48623 0.0
C52 C 0.76833 0.58619 0.50721 0.0
C53 C 0.77258 0.6095 0.51579 0.0
C54 C 0.78653 0.62533 0.50119 0.0
C55 C 0.79671 0.618 0.4779 0.0
C56 C 0.79248 0.59454 0.46948 0.0
C57 C 0.77851 0.57875 0.48409 0.0
C58 C 0.73395 0.57993 0.55052 0.0
C59 C 0.73841 0.57562 0.57641 0.0
C60 C 0.72408 0.58637 0.59505 0.0
C61 C 0.70501 0.60163 0.58811 0.0
C62 C 0.70092 0.60624 0.56208 0.0
C63 C 0.71529 0.59545 0.54345 0.0
P64 P 0.75742 0.42305 0.02957 0.0
H65 H 0.76256 0.40895 0.08313 0.0
H66 H 0.73489 0.39029 0.11373 0.0
H67 H 0.68111 0.38448 0.05477 0.0
H68 H 0.70878 0.40347 0.0244 0.0
H69 H 0.7912 0.43044 0.98791 0.0
H70 H 0.81273 0.40308 0.95966 0.0
H71 H 0.77725 0.34303 0.99626 0.0
H72 H 0.75623 0.37044 0.02473 0.0
H73 H 0.74462 0.47278 0.03921 0.0
H74 H 0.73167 0.42029 0.981 0.0
O75 O 0.77867 0.4375 0.04577 0.0
H76 H 0.71955 0.50162 0.01617 0.0
H77 H 0.70686 0.44911 0.95763 0.0
C78 C 0.7375 0.40809 0.05168 0.0
C79 C 0.74482 0.40366 0.0768 0.0
C80 C 0.72904 0.3928 0.09422 0.0
C81 C 0.70571 0.38606 0.08674 0.0
C82 C 0.69879 0.38985 0.06126 0.0
C83 C 0.71459 0.40068 0.04387 0.0
C84 C 0.77216 0.4025 0.00838 0.0
C85 C 0.78803 0.41138 0.98975 0.0
C86 C 0.80018 0.39572 0.97351 0.0
C87 C 0.79669 0.37085 0.97569 0.0
C88 C 0.78054 0.36206 0.99428 0.0
C89 C 0.76839 0.37776 0.01051 0.0
C90 C 0.74035 0.44461 0.01155 0.0
C91 C 0.73667 0.4676 0.02126 0.0
C92 C 0.7224 0.48408 0.00803 0.0
C93 C 0.71132 0.47769 0.985 0.0
C94 C 0.71503 0.45453 0.97539 0.0
C95 C 0.72937 0.43811 0.98861 0.0
P96 P 0.28481 0.61374 0.50276 0.0
H97 H 0.26782 0.59827 0.45323 0.0
H98 H 0.27263 0.56111 0.42973 0.0
H99 H 0.30849 0.52947 0.4948 0.0
H100 H 0.30218 0.56601 0.5186 0.0
H101 H 0.27424 0.6642 0.49462 0.0
H102 H 0.23781 0.68525 0.48133 0.0
H103 H 0.19815 0.61871 0.48429 0.0
H104 H 0.23479 0.59771 0.49765 0.0
H105 H 0.32811 0.60332 0.53122 0.0
H106 H 0.25407 0.62076 0.54825 0.0
O107 O 0.30733 0.62923 0.48942 0.0
H108 H 0.33761 0.60424 0.57657 0.0
H109 H 0.26365 0.62217 0.59381 0.0
C110 C 0.28449 0.58493 0.48774 0.0
C111 C 0.27602 0.58305 0.46271 0.0
C112 C 0.27901 0.56185 0.44918 0.0
C113 C 0.29119 0.54231 0.46022 0.0
C114 C 0.29872 0.54395 0.48574 0.0
C115 C 0.29535 0.56507 0.49938 0.0
C116 C 0.25727 0.62936 0.49629 0.0
C117 C 0.25766 0.65419 0.49261 0.0
C118 C 0.2368 0.66621 0.48523 0.0
C119 C 0.21524 0.65353 0.48151 0.0
C120 C 0.21464 0.62881 0.48662 0.0
C121 C 0.2355 0.61684 0.49422 0.0
C122 C 0.29048 0.61208 0.5364 0.0
C123 C 0.31384 0.60705 0.54478 0.0
C124 C 0.3192 0.60743 0.57069 0.0
C125 C 0.30131 0.61319 0.58865 0.0
C126 C 0.27773 0.6177 0.58029 0.0
C127 C 0.27229 0.61692 0.55429 0.0
P128 P 0.80121 0.8628 0.99099 0.0
H129 H 0.77687 0.82518 0.02024 0.0
H130 H 0.77643 0.8156 0.06587 0.0
H131 H 0.81573 0.88088 0.08061 0.0
H132 H 0.81532 0.89057 0.03563 0.0
H133 H 0.79601 0.84384 0.93997 0.0
H134 H 0.76091 0.83492 0.91375 0.0
H135 H 0.71407 0.85933 0.97425 0.0
H136 H 0.74938 0.8684 0.00034 0.0
H137 H 0.84867 0.88454 0.98736 0.0
H138 H 0.77469 0.90742 0.9813 0.0
O139 O 0.82322 0.84407 0.98259 0.0
H140 H 0.86218 0.92536 0.97878 0.0
H141 H 0.78813 0.94848 0.97273 0.0
C142 C 0.79595 0.85865 0.02455 0.0
C143 C 0.78467 0.83775 0.03349 0.0
C144 C 0.78458 0.83223 0.05954 0.0
C145 C 0.79612 0.8474 0.07698 0.0
C146 C 0.80625 0.86896 0.06794 0.0
C147 C 0.80621 0.87448 0.04199 0.0
C148 C 0.77517 0.85611 0.97228 0.0
C149 C 0.77818 0.84712 0.94764 0.0
C150 C 0.75815 0.84209 0.93267 0.0
C151 C 0.73479 0.84629 0.94205 0.0
C152 C 0.73188 0.85604 0.96651 0.0
C153 C 0.75198 0.86096 0.98152 0.0
C154 C 0.81074 0.89289 0.98428 0.0
C155 C 0.83534 0.89835 0.98407 0.0
C156 C 0.84302 0.92174 0.97949 0.0
C157 C 0.82618 0.94009 0.97514 0.0
C158 C 0.80147 0.93463 0.97581 0.0
C159 C 0.7938 0.91119 0.9806 0.0
P160 P 0.25383 0.06493 0.52726 0.0
H161 H 0.25912 0.02234 0.49595 0.0
H162 H 0.23092 5e-05 0.46937 0.0
H163 H 0.17484 0.05082 0.48775 0.0
H164 H 0.20299 0.07273 0.51451 0.0
H165 H 0.30298 0.0828 0.53134 0.0
H166 H 0.32673 0.11069 0.50534 0.0
H167 H 0.26617 0.12019 0.45476 0.0
H168 H 0.24244 0.09255 0.48109 0.0
H169 H 0.23413 0.04887 0.5758 0.0
H170 H 0.23689 0.11464 0.53237 0.0
O171 O 0.27252 0.04531 0.5409 0.0
H172 H 0.20912 0.06831 0.60798 0.0
H173 H 0.21223 0.13439 0.56471 0.0
C174 C 0.23297 0.04879 0.50769 0.0
C175 C 0.24071 0.02856 0.49434 0.0
C176 C 0.22464 0.01598 0.47898 0.0
C177 C 0.20058 0.02357 0.4766 0.0
C178 C 0.19311 0.04425 0.48957 0.0
C179 C 0.20921 0.0568 0.50489 0.0
C180 C 0.27116 0.08528 0.50784 0.0
C181 C 0.29489 0.09078 0.51456 0.0
C182 C 0.30846 0.10664 0.49963 0.0
C183 C 0.29839 0.11747 0.47785 0.0
C184 C 0.2744 0.11221 0.47146 0.0
C185 C 0.26088 0.09627 0.48639 0.0
C186 C 0.23773 0.08041 0.55198 0.0
C187 C 0.22975 0.06765 0.57347 0.0
C188 C 0.2155 0.07882 0.59188 0.0
C189 C 0.20879 0.10297 0.589 0.0
C190 C 0.21697 0.11575 0.56743 0.0
C191 C 0.23126 0.10453 0.54902 0.0
P192 P 0.25716 0.92637 0.03146 0.0
H193 H 0.26024 0.91776 0.08653 0.0
H194 H 0.23309 0.89834 0.11709 0.0
H195 H 0.1842 0.88148 0.0559 0.0
H196 H 0.21133 0.90122 0.0255 0.0
H197 H 0.28667 0.9335 0.98616 0.0
H198 H 0.3092 0.90609 0.95885 0.0
H199 H 0.28345 0.84624 0.00403 0.0
H200 H 0.26156 0.87377 0.03159 0.0
H201 H 0.24599 0.97701 0.03809 0.0
H202 H 0.22876 0.92112 0.98495 0.0
O203 O 0.27819 0.94152 0.04727 0.0
H204 H 0.2209 0.00504 0.01408 0.0
H205 H 0.20296 0.94875 0.96129 0.0
C206 C 0.23758 0.91129 0.05383 0.0
C207 C 0.24368 0.9099 0.07968 0.0
C208 C 0.22822 0.89861 0.09712 0.0
C209 C 0.20642 0.88845 0.08894 0.0
C210 C 0.20066 0.88946 0.06287 0.0
C211 C 0.21616 0.90072 0.04546 0.0
C212 C 0.27227 0.90567 0.01071 0.0
C213 C 0.28577 0.91445 0.99003 0.0
C214 C 0.29852 0.89874 0.97436 0.0
C215 C 0.29809 0.87395 0.97921 0.0
C216 C 0.28437 0.86525 -8e-05 0.0
C217 C 0.27166 0.88099 0.0156 0.0
C218 C 0.23952 0.94714 0.01303 0.0
C219 C 0.23688 0.97082 0.02116 0.0
C220 C 0.22233 0.98676 0.00753 0.0
C221 C 0.20991 0.97919 0.98569 0.0
C222 C 0.2126 0.95533 0.97771 0.0
C223 C 0.22725 0.93946 0.9913 0.0
P224 P 0.79232 0.1331 0.47831 0.0
H225 H 0.80952 0.11557 0.42946 0.0
H226 H 0.81891 0.07561 0.41389 0.0
H227 H 0.79803 0.04544 0.48685 0.0
H228 H 0.78898 0.08562 0.50241 0.0
H229 H 0.76385 0.1743 0.49242 0.0
H230 H 0.72246 0.1861 0.48322 0.0
H231 H 0.71046 0.11822 0.44629 0.0
H232 H 0.75201 0.10676 0.45508 0.0
H233 H 0.83641 0.14923 0.50243 0.0
H234 H 0.76695 0.12234 0.52618 0.0
O235 O 0.80798 0.15299 0.46108 0.0
H236 H 0.84864 0.15223 0.54694 0.0
H237 H 0.77909 0.12533 0.57094 0.0
C238 C 0.79925 0.10357 0.46728 0.0
C239 C 0.80709 0.10037 0.44214 0.0
C240 C 0.81214 0.07748 0.43317 0.0
C241 C 0.80921 0.05737 0.44917 0.0
C242 C 0.80074 0.06062 0.4742 0.0
C243 C 0.79565 0.08358 0.48313 0.0
C244 C 0.76098 0.13977 0.47439 0.0
C245 C 0.75217 0.16185 0.48268 0.0
C246 C 0.72846 0.16846 0.47758 0.0
C247 C 0.7132 0.15306 0.46401 0.0
C248 C 0.72188 0.13053 0.45657 0.0
C249 C 0.74564 0.12395 0.46167 0.0
C250 C 0.80067 0.13598 0.51113 0.0
C251 C 0.8237 0.14424 0.51727 0.0
C252 C 0.83062 0.14602 0.54269 0.0
C253 C 0.8147 0.13925 0.56238 0.0
C254 C 0.79169 0.13067 0.55613 0.0
C255 C 0.78472 0.12908 0.53064 0.0
Sc256 Sc 0.99492 0.79762 0.31127 0.0
Sc257 Sc 0.9901 0.86065 0.31008 0.0
Sc258 Sc 0.99136 0.82992 0.36876 0.0
O259 O 0.99218 0.82937 0.33003 0.0
C260 C 0.95904 0.78411 0.35709 0.0
C261 C 0.95622 0.82603 0.27794 0.0
C262 C 0.95264 0.86998 0.35522 0.0
C263 C 0.02872 0.8316 0.2772 0.0
C264 C 0.03071 0.78955 0.3578 0.0
C265 C 0.02486 0.87495 0.35584 0.0
O266 O 0.96811 0.78041 0.33515 0.0
O267 O 0.96305 0.84666 0.28499 0.0
O268 O 0.9617 0.85463 0.37034 0.0
O269 O 0.02215 0.81101 0.28511 0.0
O270 O 0.02082 0.80525 0.37178 0.0
O271 O 0.01687 0.87801 0.33335 0.0
O272 O 0.02353 0.78485 0.3354 0.0
O273 O 0.01871 0.8508 0.28458 0.0
O274 O 0.0172 0.85849 0.37064 0.0
O275 O 0.96626 0.80681 0.28549 0.0
O276 O 0.96555 0.80136 0.37113 0.0
O277 O 0.9611 0.87412 0.33309 0.0
Sc278 Sc 0.99516 0.19632 0.80667 0.0
Sc279 Sc -0.00213 0.13387 0.81649 0.0
Sc280 Sc -0.00197 0.17242 0.86917 0.0
O281 O 0.99707 0.16757 0.83077 0.0
C282 C 0.03147 0.21509 0.84897 0.0
C283 C 0.03172 0.16204 0.77701 0.0
C284 C 0.03565 0.12969 0.86207 0.0
C285 C 0.95945 0.15929 0.78031 0.0
C286 C 0.95973 0.21193 0.85182 0.0
C287 C 0.96348 0.12712 0.8649 0.0
O288 O 0.02262 0.21566 0.82667 0.0
O289 O 0.02426 0.14311 0.78805 0.0
O290 O 0.02701 0.1472 0.87449 0.0
O291 O 0.96729 0.18034 0.78406 0.0
O292 O 0.96919 0.198 0.86821 0.0
O293 O 0.97146 0.12089 0.84321 0.0
O294 O 0.96711 0.21335 0.82884 0.0
O295 O 0.96868 0.14086 0.79071 0.0
O296 O 0.97139 0.14524 0.87672 0.0
O297 O 0.02307 0.18264 0.78173 0.0
O298 O 0.02453 0.20035 0.86607 0.0
O299 O 0.02711 0.12297 0.84083 0.0
Sc300 Sc 0.49006 0.30034 0.30736 0.0
Sc301 Sc 0.48756 0.36355 0.3071 0.0
Sc302 Sc 0.48483 0.33183 0.36514 0.0
O303 O 0.48755 0.33188 0.32652 0.0
C304 C 0.45173 0.28739 0.35119 0.0
C305 C 0.45399 0.3305 0.27265 0.0
C306 C 0.4483 0.3736 0.3502 0.0
C307 C 0.52636 0.33375 0.27543 0.0
C308 C 0.52315 0.29009 0.35546 0.0
C309 C 0.52056 0.37571 0.35507 0.0
O310 O 0.46221 0.28324 0.33005 0.0
O311 O 0.46168 0.35077 0.27993 0.0
O312 O 0.45635 0.35787 0.36553 0.0
O313 O 0.51834 0.31331 0.2822 0.0
O314 O 0.51267 0.30547 0.36939 0.0
O315 O 0.51341 0.37972 0.33242 0.0
O316 O 0.51757 0.28665 0.33228 0.0
O317 O 0.51721 0.3532 0.28326 0.0
O318 O 0.51198 0.359 0.36896 0.0
O319 O 0.46245 0.31078 0.2809 0.0
O320 O 0.45754 0.3047 0.36546 0.0
O321 O 0.45774 0.37764 0.32849 0.0
Sc322 Sc 0.49757 0.7002 0.80996 0.0
Sc323 Sc 0.50153 0.63791 0.82105 0.0
Sc324 Sc 0.50335 0.67758 0.87269 0.0
O325 O 0.50087 0.67193 0.83455 0.0
C326 C 0.5359 0.71976 0.8498 0.0
C327 C 0.53342 0.66559 0.77952 0.0
C328 C 0.54073 0.63469 0.86529 0.0
C329 C 0.46123 0.66228 0.78625 0.0
C330 C 0.46423 0.7167 0.85643 0.0
C331 C 0.46879 0.63211 0.87088 0.0
O332 O 0.52599 0.72006 0.82799 0.0
O333 O 0.52702 0.64685 0.79163 0.0
O334 O 0.53255 0.65253 0.87748 0.0
O335 O 0.46848 0.6836 0.78962 0.0
O336 O 0.47447 0.70313 0.87261 0.0
O337 O 0.47605 0.62536 0.84907 0.0
O338 O 0.47057 0.71766 0.83311 0.0
O339 O 0.47161 0.64416 0.79599 0.0
O340 O 0.477 0.65057 0.88188 0.0
O341 O 0.52427 0.68608 0.78378 0.0
O342 O 0.52971 0.70533 0.86751 0.0
O343 O 0.53148 0.62748 0.8446 0.0
H344 H 0.20572 0.36479 0.89273 0.0
H345 H 0.16972 0.34749 0.87326 0.0
H346 H 0.15076 0.31436 0.94514 0.0
H347 H 0.18657 0.33142 0.96463 0.0
H348 H 0.16222 0.2992 0.86976 0.0
H349 H 0.08644 0.34101 0.92176 0.0
H350 H 0.11654 0.35332 0.92189 0.0
H351 H 0.10864 0.329 0.94305 0.0
C352 C 0.19368 0.35407 0.90443 0.0
C353 C 0.19897 0.34941 0.93019 0.0
C354 C 0.1731 0.34434 0.89333 0.0
C355 C 0.15744 0.32995 0.90786 0.0
C356 C 0.16227 0.32594 0.93377 0.0
H357 H 0.05338 0.22111 0.89506 0.0
H358 H 0.08325 0.25117 0.90639 0.0
C359 C 0.18278 0.33567 0.94487 0.0
C360 C 0.13768 0.31675 0.8955 0.0
H361 H 0.07805 0.30313 0.90167 0.0
C362 C 0.14369 0.30039 0.87631 0.0
C363 C 0.11359 0.3184 0.90413 0.0
C364 C 0.10587 0.33657 0.92366 0.0
C365 C 0.12649 0.28457 0.8666 0.0
C366 C 0.1027 0.28541 0.87621 0.0
C367 C 0.09641 0.3025 0.89452 0.0
C368 C 0.08455 0.26751 0.86891 0.0
C369 C 0.13412 0.26624 0.84718 0.0
C370 C 0.07547 0.26685 0.84404 0.0
C371 C 0.05841 0.24963 0.83742 0.0
C372 C 0.05013 0.23286 0.85562 0.0
C373 C 0.05936 0.23367 0.88053 0.0
C374 C 0.07636 0.25089 0.8871 0.0
H375 H 0.154 0.26564 0.84465 0.0
H376 H 0.1277 0.24815 0.85291 0.0
H377 H 0.12592 0.27072 0.8285 0.0
H378 H 0.08148 0.27973 0.82984 0.0
H379 H 0.05162 0.24959 0.81809 0.0
H380 H 0.83918 0.60774 0.45368 0.0
H381 H 0.86559 0.63537 0.43034 0.0
H382 H 0.81635 0.69331 0.44536 0.0
H383 H 0.78947 0.66567 0.46817 0.0
H384 H 0.83454 0.69165 0.39399 0.0
H385 H 0.90687 0.68637 0.46679 0.0
H386 H 0.89693 0.65809 0.45456 0.0
H387 H 0.87655 0.6761 0.47294 0.0
C388 C 0.83379 0.62629 0.45173 0.0
C389 C 0.81228 0.63455 0.46289 0.0
C390 C 0.849 0.64208 0.43859 0.0
C391 C 0.84303 0.66639 0.43645 0.0
C392 C 0.8213 0.6746 0.44694 0.0
H393 H 0.93561 0.78607 0.40301 0.0
H394 H 0.90666 0.75756 0.42063 0.0
C395 C 0.80608 0.65884 0.46012 0.0
C396 C 0.85975 0.68342 0.42386 0.0
H397 H 0.91547 0.70859 0.42935 0.0
C398 C 0.85226 0.69537 0.40164 0.0
C399 C 0.88271 0.68835 0.43412 0.0
C400 C 0.89126 0.67674 0.45853 0.0
C401 C 0.86727 0.71209 0.38928 0.0
C402 C 0.89037 0.71673 0.39935 0.0
C403 C 0.89779 0.70483 0.42161 0.0
C404 C 0.90691 0.7345 0.38769 0.0
C405 C 0.85814 0.72505 0.36593 0.0
C406 C 0.91662 0.73097 0.36326 0.0
C407 C 0.93326 0.74727 0.35305 0.0
C408 C 0.94056 0.76732 0.36718 0.0
C409 C 0.93049 0.77086 0.39155 0.0
C410 C 0.91392 0.75458 0.4017 0.0
H411 H 0.83831 0.72325 0.36385 0.0
H412 H 0.86278 0.74437 0.36665 0.0
H413 H 0.86681 0.7174 0.34871 0.0
H414 H 0.9117 0.71537 0.35232 0.0
H415 H 0.94066 0.74394 0.33427 0.0
H416 H 0.81801 0.32864 0.98952 0.0
H417 H 0.8421 0.30199 0.96289 0.0
H418 H 0.83099 0.34859 0.89812 0.0
H419 H 0.80663 0.37533 0.9246 0.0
H420 H 0.82976 0.27795 0.91698 0.0
H421 H 0.90497 0.34277 0.90302 0.0
H422 H 0.88216 0.34661 0.92728 0.0
H423 H 0.87543 0.3532 0.89453 0.0
C424 C 0.82041 0.33309 0.96954 0.0
C425 C 0.81047 0.35417 0.9592 0.0
C426 C 0.83427 0.3179 0.95438 0.0
C427 C 0.83856 0.3235 0.92865 0.0
C428 C 0.82825 0.3442 0.91807 0.0
H429 H 0.93795 0.2487 0.82546 0.0
H430 H 0.90616 0.27547 0.84088 0.0
C431 C 0.81437 0.35945 0.93323 0.0
C432 C 0.85418 0.30772 0.91318 0.0
H433 H 0.90915 0.30507 0.88386 0.0
C434 C 0.84704 0.28391 0.90955 0.0
C435 C 0.87663 0.31563 0.9034 0.0
C436 C 0.88545 0.34088 0.90734 0.0
C437 C 0.86199 0.2676 0.89684 0.0
C438 C 0.88484 0.27525 0.88794 0.0
C439 C 0.8916 0.29929 0.8907 0.0
C440 C 0.90282 0.25819 0.87777 0.0
C441 C 0.8533 0.24227 0.89323 0.0
C442 C 0.9115 0.23974 0.89346 0.0
C443 C 0.92963 0.22451 0.88481 0.0
C444 C 0.9396 0.22747 0.86026 0.0
C445 C 0.93065 0.24585 0.84442 0.0
C446 C 0.9125 0.26117 0.85319 0.0
H447 H 0.83331 0.24123 0.89373 0.0
H448 H 0.85983 0.23485 0.87487 0.0
H449 H 0.8603 0.23085 0.90894 0.0
H450 H 0.90464 0.23745 0.9127 0.0
H451 H 0.93603 0.2106 0.89757 0.0
H452 H 0.18688 0.63816 0.4427 0.0
H453 H 0.15509 0.66054 0.4209 0.0
H454 H 0.16434 0.719 0.47323 0.0
H455 H 0.19631 0.69678 0.49503 0.0
H456 H 0.11183 0.67999 0.43753 0.0
H457 H 0.17477 0.75069 0.40363 0.0
H458 H 0.18504 0.72273 0.41715 0.0
H459 H 0.17489 0.74644 0.43758 0.0
C460 C 0.18185 0.65562 0.44982 0.0
C461 C 0.19414 0.66584 0.47043 0.0
C462 C 0.16381 0.66841 0.43727 0.0
C463 C 0.15782 0.69159 0.44514 0.0
C464 C 0.1692 0.70136 0.46649 0.0
H465 H 0.05593 0.79893 0.40115 0.0
H466 H 0.08715 0.77434 0.42085 0.0
C467 C 0.18734 0.68865 0.47896 0.0
C468 C 0.14002 0.70575 0.43064 0.0
H469 H 0.13298 0.75794 0.3973 0.0
C470 C 0.11645 0.69695 0.42857 0.0
C471 C 0.14627 0.72775 0.41881 0.0
C472 C 0.17167 0.73738 0.41915 0.0
C473 C 0.09869 0.71 0.4156 0.0
C474 C 0.10483 0.73222 0.40434 0.0
C475 C 0.12845 0.74087 0.40607 0.0
C476 C 0.08669 0.74729 0.3916 0.0
C477 C 0.07334 0.7003 0.41458 0.0
C478 C 0.07658 0.74034 0.36836 0.0
C479 C 0.05878 0.75439 0.35693 0.0
C480 C 0.0508 0.77554 0.36868 0.0
C481 C 0.0615 0.78267 0.39168 0.0
C482 C 0.07936 0.76869 0.40297 0.0
H483 H 0.07074 0.68472 0.42758 0.0
H484 H 0.06016 0.71443 0.41972 0.0
H485 H 0.06935 0.69452 0.39484 0.0
H486 H 0.08231 0.72396 0.35923 0.0
H487 H 0.05092 0.74841 0.33922 0.0
H488 H 0.72801 0.80466 0.91667 0.0
H489 H 0.69211 0.79167 0.89413 0.0
H490 H 0.65759 0.85906 0.91056 0.0
H491 H 0.69359 0.87207 0.93363 0.0
H492 H 0.62939 0.82284 0.92295 0.0
H493 H 0.6638 0.80697 0.82588 0.0
H494 H 0.68239 0.7917 0.84858 0.0
H495 H 0.68056 0.82393 0.84901 0.0
C496 C 0.71298 0.81693 0.915 0.0
C497 C 0.71358 0.83939 0.92681 0.0
C498 C 0.69252 0.80955 0.90196 0.0
C499 C 0.67237 0.82462 0.90012 0.0
C500 C 0.67305 0.84727 0.91153 0.0
H501 H 0.55003 0.75837 0.82064 0.0
H502 H 0.58083 0.78814 0.83097 0.0
C503 C 0.69351 0.8546 0.9248 0.0
C504 C 0.64985 0.81539 0.88887 0.0
H505 H 0.62912 0.78267 0.83891 0.0
C506 C 0.62916 0.81457 0.90431 0.0
C507 C 0.6493 0.80506 0.86433 0.0
C508 C 0.67017 0.80722 0.84593 0.0
C509 C 0.60863 0.80196 0.89673 0.0
C510 C 0.60913 0.78937 0.87344 0.0
C511 C 0.629 0.7919 0.85703 0.0
C512 C 0.5903 0.77174 0.86705 0.0
C513 C 0.5869 0.80165 0.91412 0.0
C514 C 0.58593 0.75241 0.88362 0.0
C515 C 0.56842 0.73547 0.87787 0.0
C516 C 0.55509 0.73734 0.85522 0.0
C517 C 0.55994 0.75643 0.83828 0.0
C518 C 0.57746 0.77348 0.84415 0.0
H519 H 0.58599 0.81816 0.92577 0.0
H520 H 0.56992 0.79997 0.90315 0.0
H521 H 0.58825 0.78618 0.92743 0.0
H522 H 0.59619 0.75033 0.90101 0.0
H523 H 0.56539 0.72088 0.89122 0.0
H524 H 0.3453 0.11271 0.46266 0.0
H525 H 0.36967 0.14136 0.43825 0.0
H526 H 0.30866 0.18884 0.43273 0.0
H527 H 0.28414 0.1603 0.45722 0.0
H528 H 0.33494 0.18382 0.3865 0.0
H529 H 0.3942 0.2045 0.4685 0.0
H530 H 0.39227 0.17325 0.46099 0.0
H531 H 0.36597 0.1888 0.47219 0.0
C532 C 0.3371 0.1293 0.45636 0.0
C533 C 0.31286 0.13435 0.46207 0.0
C534 C 0.35102 0.14561 0.44238 0.0
C535 C 0.34103 0.16733 0.43404 0.0
C536 C 0.31668 0.17216 0.43906 0.0
H537 H 0.42093 0.29375 0.39132 0.0
H538 H 0.39248 0.26496 0.40934 0.0
C539 C 0.3027 0.15583 0.45298 0.0
C540 C 0.35617 0.18531 0.42071 0.0
H541 H 0.40538 0.22102 0.42851 0.0
C542 C 0.35033 0.19202 0.39564 0.0
C543 C 0.37602 0.19615 0.43286 0.0
C544 C 0.38242 0.19052 0.46019 0.0
C545 C 0.36408 0.20913 0.38224 0.0
C546 C 0.38429 0.2195 0.3942 0.0
C547 C 0.38995 0.21292 0.41934 0.0
C548 C 0.39969 0.2376 0.38136 0.0
C549 C 0.35661 0.21628 0.35564 0.0
C550 C 0.41296 0.23186 0.35939 0.0
C551 C 0.42926 0.24836 0.34892 0.0
C552 C 0.43275 0.27076 0.36044 0.0
C553 C 0.41887 0.27663 0.38203 0.0
C554 C 0.40255 0.2602 0.39237 0.0
H555 H 0.33762 0.21128 0.35173 0.0
H556 H 0.35873 0.23586 0.35262 0.0
H557 H 0.36828 0.20698 0.34163 0.0
H558 H 0.41134 0.21435 0.35087 0.0
H559 H 0.43973 0.24323 0.33236 0.0
H560 H 0.32465 0.83546 0.99509 0.0
H561 H 0.34938 0.80883 0.96914 0.0
H562 H 0.32954 0.84826 0.90148 0.0
H563 H 0.30439 0.87488 0.92727 0.0
H564 H 0.33541 0.77997 0.92634 0.0
H565 H 0.40437 0.8487 0.90105 0.0
H566 H 0.38325 0.85264 0.92696 0.0
H567 H 0.37349 0.85624 0.89458 0.0
C568 C 0.32526 0.83832 0.97466 0.0
C569 C 0.31256 0.85735 0.96327 0.0
C570 C 0.33951 0.82315 0.95988 0.0
C571 C 0.34147 0.82677 0.93347 0.0
C572 C 0.32855 0.84545 0.92191 0.0
H573 H 0.43917 0.7509 0.82942 0.0
H574 H 0.40712 0.77711 0.84528 0.0
C575 C 0.31424 0.86064 0.93668 0.0
C576 C 0.35728 0.81097 0.91826 0.0
H577 H 0.41042 0.80985 0.88529 0.0
C578 C 0.35172 0.78651 0.91718 0.0
C579 C 0.37842 0.81963 0.90621 0.0
C580 C 0.38545 0.84569 0.9073 0.0
C581 C 0.36705 0.77033 0.90477 0.0
C582 C 0.3887 0.77882 0.89363 0.0
C583 C 0.39381 0.80342 0.89388 0.0
C584 C 0.40719 0.76228 0.8835 0.0
C585 C 0.36 0.74427 0.90386 0.0
C586 C 0.41795 0.74546 0.8998 0.0
C587 C 0.43621 0.73053 0.89088 0.0
C588 C 0.44427 0.7322 0.86544 0.0
C589 C 0.43339 0.74907 0.84909 0.0
C590 C 0.41508 0.76407 0.8581 0.0
H591 H 0.34019 0.74195 0.90584 0.0
H592 H 0.36597 0.73592 0.88576 0.0
H593 H 0.36866 0.73458 0.91992 0.0
H594 H 0.41251 0.74415 0.91962 0.0
H595 H 0.44416 0.71783 0.90408 0.0
H596 H 0.67992 0.17846 0.4914 0.0
H597 H 0.64388 0.19835 0.47484 0.0
H598 H 0.65669 0.16719 0.40103 0.0
H599 H 0.6928 0.14755 0.41724 0.0
H600 H 0.64839 0.23136 0.43396 0.0
H601 H 0.58339 0.15903 0.41145 0.0
H602 H 0.60804 0.15487 0.43343 0.0
H603 H 0.61343 0.15424 0.39964 0.0
C604 C 0.67482 0.17555 0.47175 0.0
C605 C 0.68926 0.16158 0.45557 0.0
C606 C 0.6542 0.18679 0.46239 0.0
C607 C 0.64761 0.18405 0.43681 0.0
C608 C 0.66124 0.16911 0.42097 0.0
H609 H 0.551 0.25578 0.33254 0.0
H610 H 0.58121 0.23008 0.35268 0.0
C611 C 0.68187 0.1579 0.43029 0.0
C612 C 0.62853 0.19922 0.42579 0.0
H613 H 0.5751 0.19767 0.39402 0.0
C614 C 0.63222 0.22405 0.42547 0.0
C615 C 0.60771 0.1895 0.41446 0.0
C616 C 0.60272 0.16296 0.41489 0.0
C617 C 0.6158 0.2395 0.41364 0.0
C618 C 0.59494 0.22981 0.40233 0.0
C619 C 0.59117 0.20497 0.40272 0.0
C620 C 0.57671 0.24529 0.39021 0.0
C621 C 0.62126 0.26597 0.41277 0.0
C622 C 0.5642 0.26219 0.40475 0.0
C623 C 0.5471 0.27698 0.39334 0.0
C624 C 0.54201 0.27498 0.36718 0.0
C625 C 0.55452 0.25787 0.35269 0.0
C626 C 0.57171 0.24311 0.36415 0.0
H627 H 0.64064 0.26964 0.4162 0.0
H628 H 0.6162 0.27388 0.39406 0.0
H629 H 0.61069 0.27511 0.42783 0.0
H630 H 0.56754 0.26382 0.42499 0.0
H631 H 0.53769 0.2898 0.40515 0.0
H632 H 0.3173 0.47655 0.92469 0.0
H633 H 0.33879 0.51344 0.91415 0.0
H634 H 0.35998 0.5207 0.99269 0.0
H635 H 0.33823 0.4838 0.00355 0.0
H636 H 0.33925 0.56254 0.93386 0.0
H637 H 0.42352 0.51067 0.95098 0.0
H638 H 0.39455 0.49636 0.94795 0.0
H639 H 0.40206 0.5118 0.97673 0.0
C640 C 0.32588 0.48635 0.9399 0.0
C641 C 0.32634 0.47712 0.9649 0.0
C642 C 0.33819 0.5074 0.93382 0.0
C643 C 0.35118 0.51951 0.9526 0.0
C644 C 0.35026 0.51136 0.97792 0.0
H645 H 0.44537 0.64203 0.91582 0.0
H646 H 0.41554 0.61705 0.93806 0.0
C647 C 0.33794 0.49028 0.98404 0.0
C648 C 0.36794 0.53876 0.94487 0.0
H649 H 0.42768 0.54949 0.93439 0.0
C650 C 0.35861 0.55995 0.93435 0.0
C651 C 0.39314 0.53503 0.94532 0.0
C652 C 0.40404 0.51221 0.95568 0.0
C653 C 0.37393 0.57736 0.92365 0.0
C654 C 0.39901 0.57327 0.92352 0.0
C655 C 0.40837 0.55246 0.93472 0.0
C656 C 0.41579 0.58918 0.90969 0.0
C657 C 0.3633 0.59947 0.9115 0.0
C658 C 0.42566 0.58162 0.88649 0.0
C659 C 0.44262 0.59573 0.87375 0.0
C660 C 0.45018 0.61761 0.88412 0.0
C661 C 0.44001 0.62524 0.90734 0.0
C662 C 0.42291 0.6111 0.92003 0.0
H663 H 0.3433 0.59945 0.91216 0.0
H664 H 0.36995 0.6156 0.92151 0.0
H665 H 0.36927 0.60088 0.8913 0.0
H666 H 0.42035 0.56465 0.87836 0.0
H667 H 0.45003 0.58927 0.85594 0.0
H668 H 0.65518 0.53659 0.4589 0.0
H669 H 0.62554 0.51312 0.43544 0.0
H670 H 0.67144 0.45105 0.44074 0.0
H671 H 0.70158 0.47458 0.46342 0.0
H672 H 0.65107 0.45761 0.39236 0.0
H673 H 0.58213 0.46259 0.46927 0.0
H674 H 0.59313 0.49109 0.45824 0.0
H675 H 0.61321 0.47075 0.47419 0.0
C676 C 0.65913 0.51803 0.45479 0.0
C677 C 0.68069 0.50742 0.46318 0.0
C678 C 0.64206 0.50459 0.44162 0.0
C679 C 0.64615 0.48027 0.43674 0.0
C680 C 0.66789 0.46976 0.44448 0.0
H681 H 0.54287 0.37076 0.4012 0.0
H682 H 0.57374 0.39638 0.4195 0.0
C683 C 0.68499 0.48319 0.45762 0.0
C684 C 0.62761 0.4656 0.42398 0.0
H685 H 0.57028 0.44435 0.43078 0.0
C686 C 0.63338 0.45471 0.4007 0.0
C687 C 0.60468 0.46165 0.4351 0.0
C688 C 0.5979 0.47193 0.46069 0.0
C689 C 0.61675 0.44 0.38817 0.0
C690 C 0.59366 0.43643 0.39908 0.0
C691 C 0.58794 0.44729 0.42237 0.0
C692 C 0.57543 0.42069 0.38725 0.0
C693 C 0.62424 0.42793 0.36374 0.0
C694 C 0.56607 0.42592 0.36304 0.0
C695 C 0.5484 0.41123 0.35241 0.0
C696 C 0.53963 0.39116 0.36593 0.0
C697 C 0.54911 0.38606 0.39022 0.0
C698 C 0.56678 0.40069 0.40075 0.0
H699 H 0.64412 0.42789 0.36123 0.0
H700 H 0.61766 0.40917 0.36329 0.0
H701 H 0.61627 0.4377 0.34733 0.0
H702 H 0.57218 0.44154 0.35251 0.0
H703 H 0.54144 0.41577 0.33373 0.0
H704 H 0.71885 0.52555 0.97651 0.0
H705 H 0.69162 0.55414 0.9558 0.0
H706 H 0.64093 0.4973 0.94182 0.0
H707 H 0.66774 0.46873 0.96295 0.0
H708 H 0.67202 0.55334 0.90505 0.0
H709 H 0.60149 0.5488 0.98041 0.0
H710 H 0.63183 0.53814 0.98536 0.0
H711 H 0.61064 0.52028 0.96803 0.0
C712 C 0.70184 0.51918 0.96915 0.0
C713 C 0.69538 0.4949 0.97149 0.0
C714 C 0.6864 0.53549 0.9572 0.0
C715 C 0.66418 0.52785 0.94759 0.0
C716 C 0.65788 0.50358 0.94943 0.0
H717 H 0.56385 0.59581 0.845 0.0
H718 H 0.59537 0.57154 0.86465 0.0
C719 C 0.67332 0.48725 0.96129 0.0
C720 C 0.64744 0.54526 0.9358 0.0
H721 H 0.59137 0.56952 0.94228 0.0
C722 C 0.65442 0.557 0.91321 0.0
C723 C 0.62467 0.55019 0.94673 0.0
C724 C 0.61671 0.53888 0.97159 0.0
C725 C 0.6389 0.57314 0.90085 0.0
C726 C 0.61577 0.5774 0.9113 0.0
C727 C 0.60906 0.5661 0.93424 0.0
C728 C 0.59798 0.59316 0.89858 0.0
C729 C 0.64741 0.58562 0.87685 0.0
C730 C 0.58887 0.61327 0.91124 0.0
C731 C 0.57074 0.62715 0.90014 0.0
C732 C 0.56122 0.62105 0.87622 0.0
C733 C 0.57074 0.60109 0.86341 0.0
C734 C 0.58889 0.58725 0.87453 0.0
H735 H 0.66736 0.58536 0.87513 0.0
H736 H 0.63987 0.5763 0.86006 0.0
H737 H 0.64116 0.60449 0.87629 0.0
H738 H 0.59559 0.61804 0.92988 0.0
H739 H 0.56387 0.64237 0.91058 0.0
H740 H 0.30632 0.54318 0.41057 0.0
H741 H 0.3255 0.51107 0.387 0.0
H742 H 0.31473 0.46307 0.4508 0.0
H743 H 0.29413 0.49481 0.47413 0.0
H744 H 0.36702 0.49285 0.40472 0.0
H745 H 0.3014 0.41927 0.39115 0.0
H746 H 0.29228 0.44933 0.39923 0.0
H747 H 0.3032 0.42926 0.42353 0.0
C748 C 0.30703 0.52557 0.41929 0.0
C749 C 0.29878 0.52166 0.44439 0.0
C750 C 0.3182 0.50725 0.40579 0.0
C751 C 0.32149 0.48469 0.4171 0.0
C752 C 0.31205 0.48024 0.44154 0.0
H753 H 0.4227 0.37043 0.39489 0.0
H754 H 0.39003 0.39648 0.40915 0.0
C755 C 0.3006 0.49853 0.455 0.0
C756 C 0.33794 0.46729 0.405 0.0
H757 H 0.34312 0.40945 0.38511 0.0
C758 C 0.36168 0.47472 0.40009 0.0
C759 C 0.33098 0.44359 0.39928 0.0
C760 C 0.30551 0.43492 0.40334 0.0
C761 C 0.37881 0.45899 0.3901 0.0
C762 C 0.37194 0.43525 0.3846 0.0
C763 C 0.3482 0.42774 0.38932 0.0
C764 C 0.38961 0.41794 0.37468 0.0
C765 C 0.40434 0.46766 0.38619 0.0
C766 C 0.39973 0.42118 0.35038 0.0
C767 C 0.41847 0.40644 0.34218 0.0
C768 C 0.42738 0.38819 0.35818 0.0
C769 C 0.41645 0.38443 0.38215 0.0
C770 C 0.39769 0.39918 0.3903 0.0
H771 H 0.40772 0.48492 0.39595 0.0
H772 H 0.41743 0.4542 0.39335 0.0
H773 H 0.40776 0.47034 0.3655 0.0
H774 H 0.39352 0.4355 0.33802 0.0
H775 H 0.42629 0.40972 0.32352 0.0
H776 H 0.8101 0.96937 0.93695 0.0
H777 H 0.82896 0.00643 0.92158 0.0
H778 H 0.88045 0.00263 0.98276 0.0
H779 H 0.86164 0.96566 0.99836 0.0
H780 H 0.8438 0.05318 0.94617 0.0
H781 H 0.91831 0.99418 0.91312 0.0
H782 H 0.88903 0.98269 0.92195 0.0
H783 H 0.90998 0.99134 0.94618 0.0
C784 C 0.825 0.97681 0.94755 0.0
C785 C 0.83468 0.96448 0.9686 0.0
C786 C 0.83573 0.99794 0.93875 0.0
C787 C 0.85619 0.00698 0.95092 0.0
C788 C 0.86476 0.99572 0.97305 0.0
H789 H 0.94579 0.13 0.91373 0.0
H790 H 0.91733 0.10269 0.93465 0.0
C791 C 0.85411 0.97459 0.98182 0.0
C792 C 0.87044 0.02613 0.93863 0.0
H793 H 0.92323 0.0356 0.90672 0.0
C794 C 0.86119 0.04947 0.93756 0.0
C795 C 0.8929 0.02096 0.92715 0.0
C796 C 0.90316 0.99592 0.9269 0.0
C797 C 0.87412 0.06798 0.92543 0.0
C798 C 0.89677 0.06283 0.91433 0.0
C799 C 0.90586 0.03944 0.91533 0.0
C800 C 0.91146 0.08116 0.90112 0.0
C801 C 0.86332 0.09272 0.92412 0.0
C802 C 0.91752 0.07805 0.87539 0.0
C803 C 0.93391 0.09339 0.86347 0.0
C804 C 0.94465 0.11214 0.8771 0.0
C805 C 0.93787 0.11574 0.90268 0.0
C806 C 0.92147 0.10028 0.91463 0.0
H807 H 0.84372 0.09253 0.92851 0.0
H808 H 0.87236 0.10433 0.93824 0.0
H809 H 0.86612 0.1008 0.90493 0.0
H810 H 0.91 0.06331 0.8647 0.0
H811 H 0.93853 0.0902 0.84369 0.0
H812 H 0.15397 0.0124 0.48859 0.0
H813 H 0.12564 0.98858 0.46386 0.0
H814 H 0.17938 0.97937 0.40511 0.0
H815 H 0.20788 0.00333 0.42972 0.0
H816 H 0.10807 0.99559 0.4141 0.0
H817 H 0.15933 0.91048 0.4236 0.0
H818 H 0.1655 0.93628 0.44301 0.0
H819 H 0.17589 0.93538 0.41055 0.0
C820 C 0.1597 0.00553 0.47028 0.0
C821 C 0.18321 0.00968 0.46116 0.0
C822 C 0.14352 0.99186 0.45622 0.0
C823 C 0.15052 0.982 0.43282 0.0
C824 C 0.17379 0.98647 0.42336 0.0
H825 H 0.04672 0.91265 0.33084 0.0
H826 H 0.07804 0.93923 0.34726 0.0
C827 C 0.19003 0.00012 0.43745 0.0
C828 C 0.13343 0.96677 0.41866 0.0
H829 H 0.12374 0.90938 0.39931 0.0
C830 C 0.11152 0.97678 0.41067 0.0
C831 C 0.13798 0.9422 0.41446 0.0
C832 C 0.16084 0.93031 0.4235 0.0
C833 C 0.09382 0.96277 0.3989 0.0
C834 C 0.09836 0.9382 0.39475 0.0
C835 C 0.12043 0.92828 0.40237 0.0
C836 C 0.07977 0.92205 0.38431 0.0
C837 C 0.07008 0.97414 0.39189 0.0
C838 C 0.07078 0.90332 0.39952 0.0
C839 C 0.05302 0.88808 0.39022 0.0
C840 C 0.0439 0.89117 0.36542 0.0
C841 C 0.0532 0.90982 0.35007 0.0
C842 C 0.07102 0.9251 0.35944 0.0
H843 H 0.0677 0.99193 0.4009 0.0
H844 H 0.0693 0.97663 0.37091 0.0
H845 H 0.05481 0.96244 0.39771 0.0
H846 H 0.07735 0.90065 0.41875 0.0
H847 H 0.04641 0.8739 0.40259 0.0
H848 H 0.1794 0.0129 0.00555 0.0
H849 H 0.15225 0.03972 0.98243 0.0
H850 H 0.17611 0.00988 0.9111 0.0
H851 H 0.20384 0.98338 0.93395 0.0
H852 H 0.16476 0.07406 0.94014 0.0
H853 H 0.10032 0.00213 0.91356 0.0
H854 H 0.12138 -0.00126 0.93949 0.0
H855 H 0.13173 0.99679 0.90712 0.0
C856 C 0.17918 0.01224 0.98493 0.0
C857 C 0.19379 0.99591 0.97163 0.0
C858 C 0.16355 0.0275 0.97178 0.0
C859 C 0.16208 0.02657 0.94514 0.0
C860 C 0.17682 0.01061 0.93172 0.0
H861 H 0.06309 0.09508 0.83924 0.0
H862 H 0.09538 0.07136 0.8583 0.0
C863 C 0.19256 0.99542 0.94483 0.0
C864 C 0.14483 0.04213 0.93146 0.0
H865 H 0.09207 0.04101 0.89843 0.0
C866 C 0.14887 0.0669 0.93095 0.0
C867 C 0.12425 0.03262 0.91945 0.0
C868 C 0.11893 0.00614 0.91996 0.0
C869 C 0.13284 0.08251 0.91857 0.0
C870 C 0.11193 0.07307 0.907 0.0
C871 C 0.10809 0.04822 0.9073 0.0
C872 C 0.09342 0.0886 0.89505 0.0
C873 C 0.13866 0.10889 0.91767 0.0
C874 C 0.08156 0.10618 0.90939 0.0
C875 C 0.06319 0.1199 0.89852 0.0
C876 C 0.05605 0.11607 0.87316 0.0
C877 C 0.06806 0.0985 0.85882 0.0
C878 C 0.08655 0.08491 0.86967 0.0
H879 H 0.15826 0.11214 0.92013 0.0
H880 H 0.13289 0.11712 0.89936 0.0
H881 H 0.12905 0.11801 0.93344 0.0
H882 H 0.08612 0.10893 0.92921 0.0
H883 H 0.05422 0.13312 0.91021 0.0
H884 H 0.83453 0.02309 0.47497 0.0
H885 H 0.85147 0.98616 0.45769 0.0
H886 H 0.81755 0.0007 0.38544 0.0
H887 H 0.80021 0.03754 0.40265 0.0
H888 H 0.82984 0.94403 0.4289 0.0
H889 H 0.89332 0.00249 0.37422 0.0
H890 H 0.87634 0.01322 0.40125 0.0
H891 H 0.86169 0.00884 0.37122 0.0
C892 C 0.83011 0.01811 0.45563 0.0
C893 C 0.81632 0.03336 0.44003 0.0
C894 C 0.83982 0.99704 0.44581 0.0
C895 C 0.83589 0.99096 0.42029 0.0
C896 C 0.82088 0.00529 0.40515 0.0
H897 H 0.92185 0.89657 0.3261 0.0
H898 H 0.88984 0.92309 0.34087 0.0
C899 C 0.81115 0.02635 0.41494 0.0
C900 C 0.8498 0.97133 0.40878 0.0
H901 H 0.89798 0.96107 0.36994 0.0
C902 C 0.84464 0.94762 0.41584 0.0
C903 C 0.86904 0.97626 0.39182 0.0
C904 C 0.87565 0.00155 0.38422 0.0
C905 C 0.85838 0.92855 0.4063 0.0
C906 C 0.87804 0.93355 0.38982 0.0
C907 C 0.88284 0.95728 0.38248 0.0
C908 C 0.89481 0.91481 0.38087 0.0
C909 C 0.85166 0.90331 0.41383 0.0
C910 C 0.90801 0.90113 0.39846 0.0
C911 C 0.92624 0.88583 0.39008 0.0
C912 C 0.93186 0.8843 0.36397 0.0
C913 C 0.91812 0.89751 0.34635 0.0
C914 C 0.89975 0.91259 0.35474 0.0
H915 H 0.83233 0.902 0.41925 0.0
H916 H 0.85532 0.89059 0.39812 0.0
H917 H 0.86246 0.89779 0.43062 0.0
H918 H 0.90494 0.90302 0.41875 0.0
H919 H 0.93655 0.87597 0.40414 0.0
H920 H 0.29928 0.3098 0.08922 0.0
H921 H 0.31739 0.30154 0.13087 0.0
H922 H 0.33538 0.37625 0.13827 0.0
H923 H 0.31781 0.38459 0.09679 0.0
H924 H 0.36581 0.31006 0.13841 0.0
H925 H 0.31208 0.35922 0.20994 0.0
H926 H 0.30053 0.35187 0.1788 0.0
H927 H 0.31967 0.37756 0.18286 0.0
C928 C 0.30672 0.32452 0.09995 0.0
C929 C 0.30722 0.34783 0.08961 0.0
C930 C 0.3169 0.3198 0.12378 0.0
C931 C 0.32746 0.33833 0.13775 0.0
C932 C 0.32678 0.36179 0.12811 0.0
H933 H 0.43418 0.36814 0.24651 0.0
H934 H 0.40139 0.36697 0.21572 0.0
C935 C 0.31671 0.36652 0.10432 0.0
C936 C 0.34245 0.33292 0.16027 0.0
H937 H 0.35348 0.35086 0.22112 0.0
C938 C 0.36286 0.31849 0.15673 0.0
C939 C 0.33856 0.34408 0.18402 0.0
C940 C 0.31637 0.35886 0.18924 0.0
C941 C 0.38035 0.31618 0.17576 0.0
C942 C 0.37701 0.32826 0.1991 0.0
C943 C 0.35601 0.34172 0.20313 0.0
C944 C 0.39602 0.3287 0.21872 0.0
C945 C 0.4029 0.30203 0.17013 0.0
C946 C 0.40366 0.30756 0.23075 0.0
C947 C 0.42257 0.30809 0.2482 0.0
C948 C 0.43401 0.32985 0.2541 0.0
C949 C 0.42588 0.35106 0.24237 0.0
C950 C 0.40707 0.35046 0.22484 0.0
H951 H 0.40479 0.29794 0.14952 0.0
H952 H 0.41917 0.31194 0.17634 0.0
H953 H 0.40225 0.28481 0.18078 0.0
H954 H 0.39505 0.29064 0.22657 0.0
H955 H 0.42816 0.29146 0.25711 0.0
H956 H 0.68652 0.64718 0.59023 0.0
H957 H 0.65949 0.66373 0.62275 0.0
H958 H 0.66017 0.59616 0.66299 0.0
H959 H 0.68691 0.57948 0.63064 0.0
H960 H 0.61373 0.64767 0.6372 0.0
H961 H 0.67631 0.64391 0.71898 0.0
H962 H 0.68645 0.64137 0.68634 0.0
H963 H 0.67399 0.61582 0.70281 0.0
C964 C 0.68088 0.63586 0.60601 0.0
C965 C 0.68902 0.61206 0.60795 0.0
C966 C 0.66555 0.64538 0.62461 0.0
C967 C 0.65822 0.63132 0.64552 0.0
C968 C 0.66614 0.60753 0.64737 0.0
H969 H 0.55947 0.62562 0.76799 0.0
H970 H 0.59012 0.62097 0.73508 0.0
C971 C 0.68143 0.59802 0.62885 0.0
C972 C 0.64143 0.64097 0.66494 0.0
H973 H 0.63426 0.64759 0.72916 0.0
C974 C 0.6183 0.64809 0.65728 0.0
C975 C 0.64753 0.6416 0.69107 0.0
C976 C 0.67251 0.6355 0.70029 0.0
C977 C 0.60064 0.65447 0.67526 0.0
C978 C 0.60643 0.65395 0.70148 0.0
C979 C 0.62987 0.64786 0.70903 0.0
C980 C 0.58793 0.65753 0.7215 0.0
C981 C 0.57559 0.66051 0.66623 0.0
C982 C 0.57665 0.67976 0.72491 0.0
C983 C 0.559 0.68256 0.74384 0.0
C984 C 0.55235 0.66313 0.75962 0.0
C985 C 0.56397 0.64098 0.75618 0.0
C986 C 0.58158 0.63826 0.73739 0.0
H987 H 0.57312 0.6566 0.64566 0.0
H988 H 0.56194 0.6503 0.6774 0.0
H989 H 0.57214 0.67985 0.66921 0.0
H990 H 0.58156 0.69494 0.71301 0.0
H991 H 0.55051 0.69988 0.746 0.0
H992 H 0.65799 0.39693 0.09203 0.0
H993 H 0.62988 0.3824 0.12458 0.0
H994 H 0.68582 0.33836 0.15708 0.0
H995 H 0.71415 0.3528 0.12444 0.0
H996 H 0.61445 0.33602 0.13746 0.0
H997 H 0.66321 0.37928 0.21732 0.0
H998 H 0.6694 0.38645 0.18434 0.0
H999 H 0.68075 0.3592 0.19812 0.0
C1000 C 0.66427 0.38391 0.10587 0.0
C1001 C 0.68835 0.37611 0.1057 0.0
C1002 C 0.64819 0.37568 0.12452 0.0
C1003 C 0.65585 0.35955 0.14343 0.0
C1004 C 0.67968 0.35116 0.14294 0.0
H1005 H 0.5501 0.29698 0.25123 0.0
H1006 H 0.58294 0.30033 0.21996 0.0
C1007 C 0.69582 0.35944 0.1243 0.0
C1008 C 0.63892 0.35221 0.16397 0.0
H1009 H 0.62808 0.35772 0.22779 0.0
C1010 C 0.6175 0.34053 0.15727 0.0
C1011 C 0.64292 0.35831 0.18974 0.0
C1012 C 0.6652 0.37167 0.19791 0.0
C1013 C 0.59967 0.33527 0.17557 0.0
C1014 C 0.60358 0.3416 0.20128 0.0
C1015 C 0.62526 0.35274 0.20808 0.0
C1016 C 0.58448 0.33901 0.22095 0.0
C1017 C 0.57637 0.32401 0.16706 0.0
C1018 C 0.57494 0.35958 0.23232 0.0
C1019 C 0.55635 0.35776 0.2502 0.0
C1020 C 0.54687 0.33526 0.25721 0.0
C1021 C 0.55685 0.31458 0.24619 0.0
C1022 C 0.57554 0.31645 0.22823 0.0
H1023 H 0.57449 0.32429 0.14598 0.0
H1024 H 0.57582 0.30508 0.17359 0.0
H1025 H 0.5607 0.33341 0.17559 0.0
H1026 H 0.58163 0.37715 0.22701 0.0
H1027 H 0.54927 0.37409 0.25831 0.0
H1028 H 0.32787 0.58326 0.61865 0.0
H1029 H 0.34645 0.59297 0.65948 0.0
H1030 H 0.30951 0.66087 0.65982 0.0
H1031 H 0.29095 0.65129 0.61884 0.0
H1032 H 0.36067 0.66305 0.66074 0.0
H1033 H 0.3255 0.60093 0.73493 0.0
H1034 H 0.33353 0.58666 0.7055 0.0
H1035 H 0.30918 0.60785 0.70604 0.0
C1036 C 0.32321 0.59996 0.62781 0.0
C1037 C 0.30813 0.6166 0.61559 0.0
C1038 C 0.33365 0.6054 0.65121 0.0
C1039 C 0.32917 0.62756 0.6627 0.0
C1040 C 0.31295 0.64359 0.65132 0.0
H1041 H 0.42701 0.69499 0.77209 0.0
H1042 H 0.39201 0.68835 0.74489 0.0
C1043 C 0.30233 0.63807 0.62799 0.0
C1044 C 0.34455 0.63541 0.68396 0.0
H1045 H 0.36353 0.6196 0.74347 0.0
C1046 C 0.36102 0.65392 0.67907 0.0
C1047 C 0.34502 0.62324 0.70763 0.0
C1048 C 0.32722 0.60368 0.714 0.0
C1049 C 0.37894 0.65974 0.69669 0.0
C1050 C 0.37991 0.64711 0.72015 0.0
C1051 C 0.36275 0.62924 0.72547 0.0
C1052 C 0.39973 0.6509 0.73845 0.0
C1053 C 0.39751 0.67834 0.68931 0.0
C1054 C 0.41509 0.63182 0.74465 0.0
C1055 C 0.43488 0.63546 0.76045 0.0
C1056 C 0.43977 0.65831 0.77022 0.0
C1057 C 0.42397 0.67727 0.76452 0.0
C1058 C 0.40399 0.67353 0.74895 0.0
H1059 H 0.39754 0.6821 0.66847 0.0
H1060 H 0.39341 0.69532 0.69926 0.0
H1061 H 0.41587 0.6725 0.69491 0.0
H1062 H 0.4121 0.61421 0.73676 0.0
H1063 H 0.44664 0.62046 0.76453 0.0
H1064 H 0.80774 0.80235 0.09357 0.0
H1065 H 0.82596 0.79162 0.13417 0.0
H1066 H 0.81616 0.86398 0.16041 0.0
H1067 H 0.79649 0.87449 0.12046 0.0
H1068 H 0.86743 0.81175 0.14465 0.0
H1069 H 0.80622 0.82817 0.22589 0.0
H1070 H 0.7954 0.82551 0.1936 0.0
H1071 H 0.80717 0.85356 0.20484 0.0
C1072 C 0.80831 0.81572 0.10839 0.0
C1073 C 0.80099 0.83943 0.10356 0.0
C1074 C 0.81893 0.80956 0.13159 0.0
C1075 C 0.82253 0.82698 0.15033 0.0
C1076 C 0.81329 0.85009 0.14646 0.0
H1077 H 0.92806 0.86253 0.25974 0.0
H1078 H 0.89398 0.85964 0.23066 0.0
C1079 C 0.80236 0.85619 0.12339 0.0
C1080 C 0.83981 0.82245 0.17126 0.0
H1081 H 0.84912 0.83068 0.2349 0.0
C1082 C 0.86323 0.81532 0.16447 0.0
C1083 C 0.83441 0.82734 0.19709 0.0
C1084 C 0.80934 0.83383 0.20579 0.0
C1085 C 0.88168 0.8141 0.18253 0.0
C1086 C 0.87651 0.81996 0.20811 0.0
C1087 C 0.85296 0.82628 0.21519 0.0
C1088 C 0.89583 0.82114 0.22728 0.0
C1089 C 0.90684 0.80774 0.17388 0.0
C1090 C 0.90794 0.80037 0.23511 0.0
C1091 C 0.92754 0.80191 0.25162 0.0
C1092 C 0.93533 0.8243 0.26058 0.0
C1093 C 0.92273 0.84502 0.25307 0.0
C1094 C 0.90312 0.84342 0.2366 0.0
H1095 H 0.90855 0.80749 0.15277 0.0
H1096 H 0.92012 0.82067 0.18155 0.0
H1097 H 0.91158 0.78969 0.18129 0.0
H1098 H 0.90241 0.783 0.22818 0.0
H1099 H 0.93667 0.78557 0.25716 0.0
H1100 H 0.20973 0.09864 0.64103 0.0
H1101 H 0.1802 0.11387 0.67164 0.0
H1102 H 0.14164 0.14859 0.61054 0.0
H1103 H 0.17065 0.13282 0.57967 0.0
H1104 H 0.16392 0.16107 0.68322 0.0
H1105 H 0.09149 0.1035 0.64378 0.0
H1106 H 0.12288 0.09918 0.63603 0.0
H1107 H 0.10622 0.12304 0.62123 0.0
C1108 C 0.19496 0.10951 0.63409 0.0
C1109 C 0.19239 0.11428 0.60787 0.0
C1110 C 0.17823 0.11836 0.65163 0.0
C1111 C 0.15859 0.13207 0.64329 0.0
C1112 C 0.15653 0.13778 0.6173 0.0
H1113 H 0.05248 0.1973 0.74717 0.0
H1114 H 0.08352 0.19234 0.7142 0.0
C1115 C 0.17324 0.12892 0.59973 0.0
C1116 C 0.13961 0.13914 0.66168 0.0
H1117 H 0.08094 0.12854 0.67791 0.0
C1118 C 0.14571 0.15416 0.682 0.0
C1119 C 0.11597 0.12983 0.66011 0.0
C1120 C 0.10868 0.11284 0.63926 0.0
C1121 C 0.12879 0.15991 0.70102 0.0
C1122 C 0.10519 0.15052 0.69945 0.0
C1123 C 0.09903 0.13582 0.67892 0.0
C1124 C 0.08708 0.15411 0.71987 0.0
C1125 C 0.13648 0.17521 0.72311 0.0
C1126 C 0.0787 0.13425 0.73376 0.0
C1127 C 0.06099 0.13696 0.75244 0.0
C1128 C 0.05111 0.15963 0.75761 0.0
C1129 C 0.05969 0.1796 0.74375 0.0
C1130 C 0.07751 0.17683 0.72499 0.0
H1131 H 0.15635 0.17754 0.72378 0.0
H1132 H 0.12812 0.19317 0.72125 0.0
H1133 H 0.1303 0.16721 0.74144 0.0
H1134 H 0.08586 0.11656 0.73007 0.0
H1135 H 0.05493 0.12115 0.7627 0.0
H1136 H 0.2169 0.85929 0.1297 0.0
H1137 H 0.18888 0.84337 0.16182 0.0
H1138 H 0.12967 0.87743 0.1229 0.0
H1139 H 0.15748 0.89339 0.09083 0.0
H1140 H 0.16048 0.86898 0.19398 0.0
H1141 H 0.10355 0.81038 0.13472 0.0
H1142 H 0.13228 0.82179 0.12384 0.0
H1143 H 0.1057 0.84016 0.12189 0.0
C1144 C 0.19789 0.86329 0.12794 0.0
C1145 C 0.1894 0.87756 0.10767 0.0
C1146 C 0.1819 0.85408 0.14622 0.0
C1147 C 0.15714 0.85886 0.14451 0.0
C1148 C 0.14861 0.87294 0.12421 0.0
H1149 H 0.04875 0.87253 0.25771 0.0
H1150 H 0.08138 0.87625 0.22682 0.0
C1151 C 0.16455 0.8821 0.10591 0.0
C1152 C 0.14039 0.85074 0.16493 0.0
H1153 H 0.08682 0.82211 0.17521 0.0
C1154 C 0.14456 0.85842 0.18994 0.0
C1155 C 0.11983 0.83664 0.15975 0.0
C1156 C 0.11518 0.82654 0.13363 0.0
C1157 C 0.12808 0.85348 0.20963 0.0
C1158 C 0.10667 0.84085 0.20405 0.0
C1159 C 0.10311 0.83204 0.17937 0.0
C1160 C 0.08706 0.83813 0.22311 0.0
C1161 C 0.13358 0.8621 0.23617 0.0
C1162 C 0.07898 0.81539 0.23084 0.0
C1163 C 0.06011 0.81313 0.24853 0.0
C1164 C 0.04887 0.83361 0.25858 0.0
C1165 C 0.05698 0.85633 0.25053 0.0
C1166 C 0.07578 0.85854 0.23296 0.0
H1167 H 0.15325 0.86461 0.23894 0.0
H1168 H 0.12468 0.87963 0.2392 0.0
H1169 H 0.12677 0.84933 0.25084 0.0
H1170 H 0.08735 0.79942 0.22327 0.0
H1171 H 0.0543 0.79536 0.25422 0.0
H1172 H 0.83792 0.17613 0.5854 0.0
H1173 H 0.85521 0.17653 0.6282 0.0
H1174 H 0.82644 0.10604 0.64288 0.0
H1175 H 0.80934 0.10534 0.59983 0.0
H1176 H 0.83325 0.1681 0.67934 0.0
H1177 H 0.90171 0.10061 0.64976 0.0
H1178 H 0.88435 0.11744 0.62681 0.0
H1179 H 0.87047 0.0936 0.64465 0.0
C1180 C 0.83515 0.16079 0.59782 0.0
C1181 C 0.82256 0.14059 0.58924 0.0
C1182 C 0.84485 0.16112 0.62227 0.0
C1183 C 0.84224 0.14123 0.63848 0.0
C1184 C 0.82872 0.12147 0.63049 0.0
H1185 H 0.93369 0.11834 0.77162 0.0
H1186 H 0.90141 0.11259 0.74076 0.0
C1187 C 0.8189 0.12116 0.60601 0.0
C1188 C 0.85544 0.14065 0.6628 0.0
H1189 H 0.90604 0.11758 0.69011 0.0
C1190 C 0.84897 0.15684 0.68194 0.0
C1191 C 0.87584 0.12583 0.66604 0.0
C1192 C 0.88372 0.10844 0.64575 0.0
C1193 C 0.86287 0.15909 0.70407 0.0
C1194 C 0.88402 0.1452 0.70668 0.0
C1195 C 0.88982 0.12823 0.68803 0.0
C1196 C 0.90157 0.14929 0.72733 0.0
C1197 C 0.85488 0.1765 0.72427 0.0
C1198 C 0.91235 0.17185 0.72999 0.0
C1199 C 0.93075 0.17524 0.74763 0.0
C1200 C 0.93899 0.15602 0.7627 0.0
C1201 C 0.92789 0.1335 0.76024 0.0
C1202 C 0.90937 0.13018 0.74269 0.0
H1203 H 0.83505 0.17916 0.72387 0.0
H1204 H 0.86012 0.17028 0.74362 0.0
H1205 H 0.86348 0.19413 0.72057 0.0
H1206 H 0.9071 0.18668 0.71783 0.0
H1207 H 0.93895 0.19278 0.74891 0.0
loop_
_geom_bond_atom_site_label_1
_geom_bond_atom_site_label_2
_geom_bond_distance
_geom_bond_site_symmetry_2
_ccdc_geom_bond_type
P0 O11 1.490 . S
P0 C14 1.812 1_556 S
P0 C20 1.803 . S
P0 C26 1.819 . S
H1 C15 0.941 . S
H2 C16 0.939 . S
H3 C18 0.940 . S
H4 C19 0.940 . S
H5 C21 0.939 . S
H6 C22 0.942 . S
H7 C24 0.940 1_554 S
H8 C25 0.939 . S
H9 C27 0.941 . S
H10 C31 0.939 . S
O11 P0 1.490 . S
H12 C28 0.939 . S
H13 C30 0.940 . S
C14 P0 1.812 1_554 S
C14 C15 1.389 . S
C14 C19 1.391 . S
C15 H1 0.941 . S
C15 C14 1.389 . S
C15 C16 1.397 . S
C16 H2 0.939 . S
C16 C15 1.397 . S
C16 C17 1.378 . S
C17 C16 1.378 . S
C17 C18 1.378 . S
C18 H3 0.940 . S
C18 C17 1.378 . S
C18 C19 1.396 . S
C19 H4 0.940 . S
C19 C14 1.391 . S
C19 C18 1.396 . S
C20 P0 1.803 . S
C20 C21 1.378 . S
C20 C25 1.400 1_556 S
C21 H5 0.939 . S
C21 C20 1.378 . S
C21 C22 1.361 . S
C22 H6 0.942 . S
C22 C21 1.361 . S
C22 C23 1.369 . S
C23 C22 1.369 . S
C23 C24 1.404 . S
C24 H7 0.940 1_556 S
C24 C23 1.404 . S
C24 C25 1.389 1_556 S
C25 H8 0.939 . S
C25 C20 1.400 1_554 S
C25 C24 1.389 1_554 S
C26 P0 1.819 . S
C26 C27 1.391 . S
C26 C31 1.391 . S
C27 H9 0.941 . S
C27 C26 1.391 . S
C27 C28 1.396 . S
C28 H12 0.939 . S
C28 C27 1.396 . S
C28 C29 1.397 . S
C29 C28 1.397 . S
C29 C30 1.385 . S
C30 H13 0.940 . S
C30 C29 1.385 . S
C30 C31 1.388 . S
C31 H10 0.939 . S
C31 C26 1.391 . S
C31 C30 1.388 . S
P32 O43 1.490 . S
P32 C46 1.812 . S
P32 C52 1.803 . S
P32 C58 1.819 . S
H33 C47 0.941 . S
H34 C48 0.939 . S
H35 C50 0.940 . S
H36 C51 0.940 . S
H37 C53 0.939 . S
H38 C54 0.942 . S
H39 C56 0.940 . S
H40 C57 0.939 . S
H41 C59 0.941 . S
H42 C63 0.939 . S
O43 P32 1.490 . S
H44 C60 0.939 . S
H45 C62 0.940 . S
C46 P32 1.812 . S
C46 C47 1.389 . S
C46 C51 1.391 . S
C47 H33 0.941 . S
C47 C46 1.389 . S
C47 C48 1.397 . S
C48 H34 0.939 . S
C48 C47 1.397 . S
C48 C49 1.378 . S
C49 C48 1.378 . S
C49 C50 1.378 . S
C50 H35 0.940 . S
C50 C49 1.378 . S
C50 C51 1.396 . S
C51 H36 0.940 . S
C51 C46 1.391 . S
C51 C50 1.396 . S
C52 P32 1.803 . S
C52 C53 1.378 . S
C52 C57 1.400 . S
C53 H37 0.939 . S
C53 C52 1.378 . S
C53 C54 1.361 . S
C54 H38 0.942 . S
C54 C53 1.361 . S
C54 C55 1.369 . S
C55 C54 1.369 . S
C55 C56 1.404 . S
C56 H39 0.940 . S
C56 C55 1.404 . S
C56 C57 1.389 . S
C57 H40 0.939 . S
C57 C52 1.400 . S
C57 C56 1.389 . S
C58 P32 1.819 . S
C58 C59 1.391 . S
C58 C63 1.391 . S
C59 H41 0.941 . S
C59 C58 1.391 . S
C59 C60 1.396 . S
C60 H44 0.939 . S
C60 C59 1.396 . S
C60 C61 1.397 . S
C61 C60 1.397 . S
C61 C62 1.385 . S
C62 H45 0.940 . S
C62 C61 1.385 . S
C62 C63 1.388 . S
C63 H42 0.939 . S
C63 C58 1.391 . S
C63 C62 1.388 . S
P64 O75 1.490 . S
P64 C78 1.812 . S
P64 C84 1.803 . S
P64 C90 1.819 . S
H65 C79 0.941 . S
H66 C80 0.939 . S
H67 C82 0.940 . S
H68 C83 0.940 . S
H69 C85 0.935 1_554 S
H70 C86 0.942 . S
H71 C88 0.940 . S
H72 C89 0.939 . S
H73 C91 0.941 . S
H74 C95 0.939 . S
O75 P64 1.490 . S
H76 C92 0.931 1_554 S
H77 C94 0.940 . S
C78 P64 1.812 . S
C78 C79 1.389 . S
C78 C83 1.391 . S
C79 H65 0.941 . S
C79 C78 1.389 . S
C79 C80 1.397 . S
C80 H66 0.939 . S
C80 C79 1.397 . S
C80 C81 1.378 . S
C81 C80 1.378 . S
C81 C82 1.378 . S
C82 H67 0.940 . S
C82 C81 1.378 . S
C82 C83 1.396 . S
C83 H68 0.940 . S
C83 C78 1.391 . S
C83 C82 1.396 . S
C84 P64 1.803 . S
C84 C85 1.369 1_554 S
C84 C89 1.400 . S
C85 H69 0.935 1_556 S
C85 C84 1.369 1_556 S
C85 C86 1.374 . S
C86 H70 0.942 . S
C86 C85 1.374 . S
C86 C87 1.369 . S
C87 C86 1.369 . S
C87 C88 1.404 . S
C88 H71 0.940 . S
C88 C87 1.404 . S
C88 C89 1.389 1_556 S
C89 H72 0.939 . S
C89 C84 1.400 . S
C89 C88 1.389 1_554 S
C90 P64 1.819 . S
C90 C91 1.391 . S
C90 C95 1.391 1_554 S
C91 H73 0.941 . S
C91 C90 1.391 . S
C91 C92 1.396 1_554 S
C92 H76 0.931 1_556 S
C92 C91 1.396 1_556 S
C92 C93 1.397 . S
C93 C92 1.397 . S
C93 C94 1.385 . S
C94 H77 0.940 . S
C94 C93 1.385 . S
C94 C95 1.388 . S
C95 H74 0.939 . S
C95 C90 1.391 1_556 S
C95 C94 1.388 . S
P96 O107 1.490 . S
P96 C110 1.812 . S
P96 C116 1.803 . S
P96 C122 1.819 . S
H97 C111 0.941 . S
H98 C112 0.939 . S
H99 C114 0.940 . S
H100 C115 0.940 . S
H101 C117 0.939 . S
H102 C118 0.942 . S
H103 C120 0.940 . S
H104 C121 0.939 . S
H105 C123 0.941 . S
H106 C127 0.939 . S
O107 P96 1.490 . S
H108 C124 0.939 . S
H109 C126 0.940 . S
C110 P96 1.812 . S
C110 C111 1.389 . S
C110 C115 1.391 . S
C111 H97 0.941 . S
C111 C110 1.389 . S
C111 C112 1.397 . S
C112 H98 0.939 . S
C112 C111 1.397 . S
C112 C113 1.378 . S
C113 C112 1.378 . S
C113 C114 1.378 . S
C114 H99 0.940 . S
C114 C113 1.378 . S
C114 C115 1.396 . S
C115 H100 0.940 . S
C115 C110 1.391 . S
C115 C114 1.396 . S
C116 P96 1.803 . S
C116 C117 1.378 . S
C116 C121 1.400 . S
C117 H101 0.939 . S
C117 C116 1.378 . S
C117 C118 1.361 . S
C118 H102 0.942 . S
C118 C117 1.361 . S
C118 C119 1.369 . S
C119 C118 1.369 . S
C119 C120 1.404 . S
C120 H103 0.940 . S
C120 C119 1.404 . S
C120 C121 1.389 . S
C121 H104 0.939 . S
C121 C116 1.400 . S
C121 C120 1.389 . S
C122 P96 1.819 . S
C122 C123 1.391 . S
C122 C127 1.391 . S
C123 H105 0.941 . S
C123 C122 1.391 . S
C123 C124 1.396 . S
C124 H108 0.939 . S
C124 C123 1.396 . S
C124 C125 1.397 . S
C125 C124 1.397 . S
C125 C126 1.385 . S
C126 H109 0.940 . S
C126 C125 1.385 . S
C126 C127 1.388 . S
C127 H106 0.939 . S
C127 C122 1.391 . S
C127 C126 1.388 . S
P128 O139 1.490 . S
P128 C142 1.812 1_556 S
P128 C148 1.803 . S
P128 C154 1.819 . S
H129 C143 0.941 . S
H130 C144 0.939 . S
H131 C146 0.940 . S
H132 C147 0.940 . S
H133 C149 0.939 . S
H134 C150 0.942 . S
H135 C152 0.940 1_554 S
H136 C153 0.939 . S
H137 C155 0.941 . S
H138 C159 0.939 . S
O139 P128 1.490 . S
H140 C156 0.939 . S
H141 C158 0.940 . S
C142 P128 1.812 1_554 S
C142 C143 1.389 . S
C142 C147 1.391 . S
C143 H129 0.941 . S
C143 C142 1.389 . S
C143 C144 1.397 . S
C144 H130 0.939 . S
C144 C143 1.397 . S
C144 C145 1.378 . S
C145 C144 1.378 . S
C145 C146 1.378 . S
C146 H131 0.940 . S
C146 C145 1.378 . S
C146 C147 1.396 . S
C147 H132 0.940 . S
C147 C142 1.391 . S
C147 C146 1.396 . S
C148 P128 1.803 . S
C148 C149 1.378 . S
C148 C153 1.400 1_556 S
C149 H133 0.939 . S
C149 C148 1.378 . S
C149 C150 1.361 . S
C150 H134 0.942 . S
C150 C149 1.361 . S
C150 C151 1.369 . S
C151 C150 1.369 . S
C151 C152 1.404 . S
C152 H135 0.940 1_556 S
C152 C151 1.404 . S
C152 C153 1.389 1_556 S
C153 H136 0.939 . S
C153 C148 1.400 1_554 S
C153 C152 1.389 1_554 S
C154 P128 1.819 . S
C154 C155 1.391 . S
C154 C159 1.391 . S
C155 H137 0.941 . S
C155 C154 1.391 . S
C155 C156 1.396 . S
C156 H140 0.939 . S
C156 C155 1.396 . S
C156 C157 1.397 . S
C157 C156 1.397 . S
C157 C158 1.385 . S
C158 H141 0.940 . S
C158 C157 1.385 . S
C158 C159 1.388 . S
C159 H138 0.939 . S
C159 C154 1.391 . S
C159 C158 1.388 . S
P160 O171 1.490 . S
P160 C174 1.812 . S
P160 C180 1.803 . S
P160 C186 1.819 . S
H161 C175 0.941 . S
H162 C176 0.939 . S
H163 C178 0.940 . S
H164 C179 0.940 . S
H165 C181 0.939 . S
H166 C182 0.942 . S
H167 C184 0.940 . S
H168 C185 0.939 . S
H169 C187 0.941 . S
H170 C191 0.939 . S
O171 P160 1.490 . S
H172 C188 0.939 . S
H173 C190 0.940 . S
C174 P160 1.812 . S
C174 C175 1.389 . S
C174 C179 1.391 . S
C175 H161 0.941 . S
C175 C174 1.389 . S
C175 C176 1.397 . S
C176 H162 0.939 . S
C176 C175 1.397 . S
C176 C177 1.378 . S
C177 C176 1.378 . S
C177 C178 1.378 . S
C178 H163 0.940 . S
C178 C177 1.378 . S
C178 C179 1.396 . S
C179 H164 0.940 . S
C179 C174 1.391 . S
C179 C178 1.396 . S
C180 P160 1.803 . S
C180 C181 1.378 . S
C180 C185 1.400 . S
C181 H165 0.939 . S
C181 C180 1.378 . S
C181 C182 1.361 . S
C182 H166 0.942 . S
C182 C181 1.361 . S
C182 C183 1.369 . S
C183 C182 1.369 . S
C183 C184 1.404 . S
C184 H167 0.940 . S
C184 C183 1.404 . S
C184 C185 1.389 . S
C185 H168 0.939 . S
C185 C180 1.400 . S
C185 C184 1.389 . S
C186 P160 1.819 . S
C186 C187 1.391 . S
C186 C191 1.391 . S
C187 H169 0.941 . S
C187 C186 1.391 . S
C187 C188 1.396 . S
C188 H172 0.939 . S
C188 C187 1.396 . S
C188 C189 1.397 . S
C189 C188 1.397 . S
C189 C190 1.385 . S
C190 H173 0.940 . S
C190 C189 1.385 . S
C190 C191 1.388 . S
C191 H170 0.939 . S
C191 C186 1.391 . S
C191 C190 1.388 . S
P192 O203 1.490 . S
P192 C206 1.812 . S
P192 C212 1.803 . S
P192 C218 1.819 . S
H193 C207 0.941 . S
H194 C208 0.939 . S
H195 C210 0.940 . S
H196 C211 0.940 . S
H197 C213 0.935 1_554 S
H198 C214 0.942 . S
H199 C216 0.940 . S
H200 C217 0.939 . S
H201 C219 0.941 . S
H202 C223 0.939 . S
O203 P192 1.490 . S
H204 C220 0.931 1_554 S
H205 C222 0.940 . S
C206 P192 1.812 . S
C206 C207 1.389 . S
C206 C211 1.391 . S
C207 H193 0.941 . S
C207 C206 1.389 . S
C207 C208 1.397 . S
C208 H194 0.939 . S
C208 C207 1.397 . S
C208 C209 1.378 . S
C209 C208 1.378 . S
C209 C210 1.378 . S
C210 H195 0.940 . S
C210 C209 1.378 . S
C210 C211 1.396 . S
C211 H196 0.940 . S
C211 C206 1.391 . S
C211 C210 1.396 . S
C212 P192 1.803 . S
C212 C213 1.369 1_554 S
C212 C217 1.400 . S
C213 H197 0.935 1_556 S
C213 C212 1.369 1_556 S
C213 C214 1.374 . S
C214 H198 0.942 . S
C214 C213 1.374 . S
C214 C215 1.369 . S
C215 C214 1.369 . S
C215 C216 1.404 . S
C216 H199 0.940 . S
C216 C215 1.404 . S
C216 C217 1.389 1_556 S
C217 H200 0.939 . S
C217 C212 1.400 . S
C217 C216 1.389 1_554 S
C218 P192 1.819 . S
C218 C219 1.391 . S
C218 C223 1.391 1_554 S
C219 H201 0.941 . S
C219 C218 1.391 . S
C219 C220 1.396 1_554 S
C220 H204 0.931 1_556 S
C220 C219 1.396 1_556 S
C220 C221 1.397 . S
C221 C220 1.397 . S
C221 C222 1.385 . S
C222 H205 0.940 . S
C222 C221 1.385 . S
C222 C223 1.388 . S
C223 H202 0.939 . S
C223 C218 1.391 1_556 S
C223 C222 1.388 . S
P224 O235 1.490 . S
P224 C238 1.812 . S
P224 C244 1.803 . S
P224 C250 1.819 . S
H225 C239 0.941 . S
H226 C240 0.939 . S
H227 C242 0.940 . S
H228 C243 0.940 . S
H229 C245 0.939 . S
H230 C246 0.942 . S
H231 C248 0.940 . S
H232 C249 0.939 . S
H233 C251 0.941 . S
H234 C255 0.939 . S
O235 P224 1.490 . S
H236 C252 0.939 . S
H237 C254 0.940 . S
C238 P224 1.812 . S
C238 C239 1.389 . S
C238 C243 1.391 . S
C239 H225 0.941 . S
C239 C238 1.389 . S
C239 C240 1.397 . S
C240 H226 0.939 . S
C240 C239 1.397 . S
C240 C241 1.378 . S
C241 C240 1.378 . S
C241 C242 1.378 . S
C242 H227 0.940 . S
C242 C241 1.378 . S
C242 C243 1.396 . S
C243 H228 0.940 . S
C243 C238 1.391 . S
C243 C242 1.396 . S
C244 P224 1.803 . S
C244 C245 1.378 . S
C244 C249 1.400 . S
C245 H229 0.939 . S
C245 C244 1.378 . S
C245 C246 1.361 . S
C246 H230 0.942 . S
C246 C245 1.361 . S
C246 C247 1.369 . S
C247 C246 1.369 . S
C247 C248 1.404 . S
C248 H231 0.940 . S
C248 C247 1.404 . S
C248 C249 1.389 . S
C249 H232 0.939 . S
C249 C244 1.400 . S
C249 C248 1.389 . S
C250 P224 1.819 . S
C250 C251 1.391 . S
C250 C255 1.391 . S
C251 H233 0.941 . S
C251 C250 1.391 . S
C251 C252 1.396 . S
C252 H236 0.939 . S
C252 C251 1.396 . S
C252 C253 1.397 . S
C253 C252 1.397 . S
C253 C254 1.385 . S
C254 H237 0.940 . S
C254 C253 1.385 . S
C254 C255 1.388 . S
C255 H234 0.939 . S
C255 C250 1.391 . S
C255 C254 1.388 . S
Sc256 O259 2.025 . S
Sc256 O266 2.105 1_455 S
Sc256 O269 2.105 . S
Sc256 O272 2.105 . S
Sc256 O275 2.105 1_455 S
Sc257 O259 2.025 . S
Sc257 O267 2.105 1_455 S
Sc257 O271 2.105 . S
Sc257 O273 2.105 . S
Sc257 O277 2.105 1_455 S
Sc258 O259 2.025 . S
Sc258 O268 2.105 1_455 S
Sc258 O270 2.105 . S
Sc258 O274 2.105 . S
Sc258 O276 2.105 1_455 S
O259 Sc256 2.025 . S
O259 Sc257 2.025 . S
O259 Sc258 2.025 . S
C260 O266 1.268 . S
C260 O276 1.268 . S
C261 O267 1.268 . S
C261 O275 1.268 . S
C262 O268 1.268 . S
C262 O277 1.268 . S
C263 O269 1.268 . S
C263 O273 1.268 . S
C264 O270 1.268 . S
C264 O272 1.268 . S
C265 O271 1.268 . S
C265 O274 1.268 . S
O266 Sc256 2.105 1_655 S
O266 C260 1.268 . S
O267 Sc257 2.105 1_655 S
O267 C261 1.268 . S
O268 Sc258 2.105 1_655 S
O268 C262 1.268 . S
O269 Sc256 2.105 . S
O269 C263 1.268 . S
O270 Sc258 2.105 . S
O270 C264 1.268 . S
O271 Sc257 2.105 . S
O271 C265 1.268 . S
O272 Sc256 2.105 . S
O272 C264 1.268 . S
O273 Sc257 2.105 . S
O273 C263 1.268 . S
O274 Sc258 2.105 . S
O274 C265 1.268 . S
O275 Sc256 2.105 1_655 S
O275 C261 1.268 . S
O276 Sc258 2.105 1_655 S
O276 C260 1.268 . S
O277 Sc257 2.105 1_655 S
O277 C262 1.268 . S
Sc278 O281 2.025 . S
Sc278 O288 2.105 . S
Sc278 O291 2.105 1_455 S
Sc278 O294 2.105 1_455 S
Sc278 O297 2.105 . S
Sc279 O281 2.025 . S
Sc279 O289 2.105 . S
Sc279 O293 2.105 1_455 S
Sc279 O295 2.105 1_455 S
Sc279 O299 2.105 . S
Sc280 O281 2.025 . S
Sc280 O290 2.105 . S
Sc280 O292 2.105 1_455 S
Sc280 O296 2.105 1_455 S
Sc280 O298 2.105 . S
O281 Sc278 2.025 . S
O281 Sc279 2.025 . S
O281 Sc280 2.025 . S
C282 O288 1.268 . S
C282 O298 1.268 . S
C283 O289 1.268 . S
C283 O297 1.268 . S
C284 O290 1.268 . S
C284 O299 1.268 . S
C285 O291 1.268 . S
C285 O295 1.268 . S
C286 O292 1.268 . S
C286 O294 1.268 . S
C287 O293 1.268 . S
C287 O296 1.268 . S
O288 Sc278 2.105 . S
O288 C282 1.268 . S
O289 Sc279 2.105 . S
O289 C283 1.268 . S
O290 Sc280 2.105 . S
O290 C284 1.268 . S
O291 Sc278 2.105 1_655 S
O291 C285 1.268 . S
O292 Sc280 2.105 1_655 S
O292 C286 1.268 . S
O293 Sc279 2.105 1_655 S
O293 C287 1.268 . S
O294 Sc278 2.105 1_655 S
O294 C286 1.268 . S
O295 Sc279 2.105 1_655 S
O295 C285 1.268 . S
O296 Sc280 2.105 1_655 S
O296 C287 1.268 . S
O297 Sc278 2.105 . S
O297 C283 1.268 . S
O298 Sc280 2.105 . S
O298 C282 1.268 . S
O299 Sc279 2.105 . S
O299 C284 1.268 . S
Sc300 O303 2.025 . S
Sc300 O310 2.105 . S
Sc300 O313 2.105 . S
Sc300 O316 2.105 . S
Sc300 O319 2.105 . S
Sc301 O303 2.025 . S
Sc301 O311 2.105 . S
Sc301 O315 2.105 . S
Sc301 O317 2.105 . S
Sc301 O321 2.105 . S
Sc302 O303 2.025 . S
Sc302 O312 2.105 . S
Sc302 O314 2.105 . S
Sc302 O318 2.105 . S
Sc302 O320 2.105 . S
O303 Sc300 2.025 . S
O303 Sc301 2.025 . S
O303 Sc302 2.025 . S
C304 O310 1.268 . S
C304 O320 1.268 . S
C305 O311 1.268 . S
C305 O319 1.268 . S
C306 O312 1.268 . S
C306 O321 1.268 . S
C307 O313 1.268 . S
C307 O317 1.268 . S
C308 O314 1.268 . S
C308 O316 1.268 . S
C309 O315 1.268 . S
C309 O318 1.268 . S
O310 Sc300 2.105 . S
O310 C304 1.268 . S
O311 Sc301 2.105 . S
O311 C305 1.268 . S
O312 Sc302 2.105 . S
O312 C306 1.268 . S
O313 Sc300 2.105 . S
O313 C307 1.268 . S
O314 Sc302 2.105 . S
O314 C308 1.268 . S
O315 Sc301 2.105 . S
O315 C309 1.268 . S
O316 Sc300 2.105 . S
O316 C308 1.268 . S
O317 Sc301 2.105 . S
O317 C307 1.268 . S
O318 Sc302 2.105 . S
O318 C309 1.268 . S
O319 Sc300 2.105 . S
O319 C305 1.268 . S
O320 Sc302 2.105 . S
O320 C304 1.268 . S
O321 Sc301 2.105 . S
O321 C306 1.268 . S
Sc322 O325 2.025 . S
Sc322 O332 2.105 . S
Sc322 O335 2.105 . S
Sc322 O338 2.105 . S
Sc322 O341 2.105 . S
Sc323 O325 2.025 . S
Sc323 O333 2.105 . S
Sc323 O337 2.105 . S
Sc323 O339 2.105 . S
Sc323 O343 2.105 . S
Sc324 O325 2.025 . S
Sc324 O334 2.105 . S
Sc324 O336 2.105 . S
Sc324 O340 2.105 . S
Sc324 O342 2.105 . S
O325 Sc322 2.025 . S
O325 Sc323 2.025 . S
O325 Sc324 2.025 . S
C326 O332 1.268 . S
C326 O342 1.268 . S
C327 O333 1.268 . S
C327 O341 1.268 . S
C328 O334 1.268 . S
C328 O343 1.268 . S
C329 O335 1.268 . S
C329 O339 1.268 . S
C330 O336 1.268 . S
C330 O338 1.268 . S
C331 O337 1.268 . S
C331 O340 1.268 . S
O332 Sc322 2.105 . S
O332 C326 1.268 . S
O333 Sc323 2.105 . S
O333 C327 1.268 . S
O334 Sc324 2.105 . S
O334 C328 1.268 . S
O335 Sc322 2.105 . S
O335 C329 1.268 . S
O336 Sc324 2.105 . S
O336 C330 1.268 . S
O337 Sc323 2.105 . S
O337 C331 1.268 . S
O338 Sc322 2.105 . S
O338 C330 1.268 . S
O339 Sc323 2.105 . S
O339 C329 1.268 . S
O340 Sc324 2.105 . S
O340 C331 1.268 . S
O341 Sc322 2.105 . S
O341 C327 1.268 . S
O342 Sc324 2.105 . S
O342 C326 1.268 . S
O343 Sc323 2.105 . S
O343 C328 1.268 . S
H344 C352 0.929 . S
H345 C354 0.930 . S
H346 C356 0.930 . S
H347 C359 0.929 . S
H348 C362 0.930 . S
H349 C364 0.960 . S
H350 C364 0.960 . S
H351 C364 0.960 . S
C352 H344 0.929 . S
C352 C353 1.377 . S
C352 C354 1.384 . S
C353 C352 1.377 . S
C353 C359 1.390 . S
C354 H345 0.930 . S
C354 C352 1.384 . S
C354 C355 1.372 . S
C355 C354 1.372 . S
C355 C356 1.400 . S
C355 C360 1.490 . S
C356 H346 0.930 . S
C356 C355 1.400 . S
C356 C359 1.386 . S
H357 C373 0.930 . S
H358 C374 0.931 . S
C359 H347 0.929 . S
C359 C353 1.390 . S
C359 C356 1.386 . S
C360 C355 1.490 . S
C360 C362 1.395 . S
C360 C363 1.403 . S
H361 C367 0.930 . S
C362 H348 0.930 . S
C362 C360 1.395 . S
C362 C365 1.403 . S
C363 C360 1.403 . S
C363 C364 1.524 . S
C363 C367 1.400 . S
C364 H349 0.960 . S
C364 H350 0.960 . S
C364 H351 0.960 . S
C364 C363 1.524 . S
C365 C362 1.403 . S
C365 C366 1.392 . S
C365 C369 1.495 . S
C366 C365 1.392 . S
C366 C367 1.385 . S
C366 C368 1.478 . S
C367 H361 0.930 . S
C367 C363 1.400 . S
C367 C366 1.385 . S
C368 C366 1.478 . S
C368 C370 1.381 . S
C368 C374 1.383 . S
C369 C365 1.495 . S
C369 H375 0.959 . S
C369 H376 0.961 . S
C369 H377 0.960 . S
C370 C368 1.381 . S
C370 C371 1.394 . S
C370 H378 0.930 . S
C371 C370 1.394 . S
C371 C372 1.383 . S
C371 H379 0.929 . S
C372 C371 1.383 . S
C372 C373 1.377 . S
C373 H357 0.930 . S
C373 C372 1.377 . S
C373 C374 1.379 . S
C374 H358 0.931 . S
C374 C368 1.383 . S
C374 C373 1.379 . S
H375 C369 0.959 . S
H376 C369 0.961 . S
H377 C369 0.960 . S
H378 C370 0.930 . S
H379 C371 0.929 . S
H380 C388 0.929 . S
H381 C390 0.930 . S
H382 C392 0.930 . S
H383 C395 0.929 . S
H384 C398 0.930 . S
H385 C400 0.960 . S
H386 C400 0.960 . S
H387 C400 0.960 . S
C388 H380 0.929 . S
C388 C389 1.377 . S
C388 C390 1.384 . S
C389 C388 1.377 . S
C389 C395 1.390 . S
C390 H381 0.930 . S
C390 C388 1.384 . S
C390 C391 1.372 . S
C391 C390 1.372 . S
C391 C392 1.400 . S
C391 C396 1.490 . S
C392 H382 0.930 . S
C392 C391 1.400 . S
C392 C395 1.386 . S
H393 C409 0.930 . S
H394 C410 0.931 . S
C395 H383 0.929 . S
C395 C389 1.390 . S
C395 C392 1.386 . S
C396 C391 1.490 . S
C396 C398 1.395 . S
C396 C399 1.403 . S
H397 C403 0.930 . S
C398 H384 0.930 . S
C398 C396 1.395 . S
C398 C401 1.403 . S
C399 C396 1.403 . S
C399 C400 1.524 . S
C399 C403 1.400 . S
C400 H385 0.960 . S
C400 H386 0.960 . S
C400 H387 0.960 . S
C400 C399 1.524 . S
C401 C398 1.403 . S
C401 C402 1.392 . S
C401 C405 1.495 . S
C402 C401 1.392 . S
C402 C403 1.385 . S
C402 C404 1.478 . S
C403 H397 0.930 . S
C403 C399 1.400 . S
C403 C402 1.385 . S
C404 C402 1.478 . S
C404 C406 1.381 . S
C404 C410 1.383 . S
C405 C401 1.495 . S
C405 H411 0.959 . S
C405 H412 0.961 . S
C405 H413 0.960 . S
C406 C404 1.381 . S
C406 C407 1.394 . S
C406 H414 0.930 . S
C407 C406 1.394 . S
C407 C408 1.383 . S
C407 H415 0.929 . S
C408 C407 1.383 . S
C408 C409 1.377 . S
C409 H393 0.930 . S
C409 C408 1.377 . S
C409 C410 1.379 . S
C410 H394 0.931 . S
C410 C404 1.383 . S
C410 C409 1.379 . S
H411 C405 0.959 . S
H412 C405 0.961 . S
H413 C405 0.960 . S
H414 C406 0.930 . S
H415 C407 0.929 . S
H416 C424 0.929 . S
H417 C426 0.930 . S
H418 C428 0.930 . S
H419 C431 0.929 . S
H420 C434 0.930 . S
H421 C436 0.960 . S
H422 C436 0.960 . S
H423 C436 0.960 . S
C424 H416 0.929 . S
C424 C425 1.377 . S
C424 C426 1.384 . S
C425 C424 1.377 . S
C425 C431 1.390 . S
C426 H417 0.930 . S
C426 C424 1.384 . S
C426 C427 1.372 . S
C427 C426 1.372 . S
C427 C428 1.400 . S
C427 C432 1.490 . S
C428 H418 0.930 . S
C428 C427 1.400 . S
C428 C431 1.386 . S
H429 C445 0.930 . S
H430 C446 0.931 . S
C431 H419 0.929 . S
C431 C425 1.390 . S
C431 C428 1.386 . S
C432 C427 1.490 . S
C432 C434 1.395 . S
C432 C435 1.403 . S
H433 C439 0.930 . S
C434 H420 0.930 . S
C434 C432 1.395 . S
C434 C437 1.403 . S
C435 C432 1.403 . S
C435 C436 1.524 . S
C435 C439 1.400 . S
C436 H421 0.960 . S
C436 H422 0.960 . S
C436 H423 0.960 . S
C436 C435 1.524 . S
C437 C434 1.403 . S
C437 C438 1.392 . S
C437 C441 1.495 . S
C438 C437 1.392 . S
C438 C439 1.385 . S
C438 C440 1.478 . S
C439 H433 0.930 . S
C439 C435 1.400 . S
C439 C438 1.385 . S
C440 C438 1.478 . S
C440 C442 1.381 . S
C440 C446 1.383 . S
C441 C437 1.495 . S
C441 H447 0.959 . S
C441 H448 0.961 . S
C441 H449 0.960 . S
C442 C440 1.381 . S
C442 C443 1.394 . S
C442 H450 0.930 . S
C443 C442 1.394 . S
C443 C444 1.383 . S
C443 H451 0.929 . S
C444 C443 1.383 . S
C444 C445 1.377 . S
C445 H429 0.930 . S
C445 C444 1.377 . S
C445 C446 1.379 . S
C446 H430 0.931 . S
C446 C440 1.383 . S
C446 C445 1.379 . S
H447 C441 0.959 . S
H448 C441 0.961 . S
H449 C441 0.960 . S
H450 C442 0.930 . S
H451 C443 0.929 . S
H452 C460 0.929 . S
H453 C462 0.930 . S
H454 C464 0.930 . S
H455 C467 0.929 . S
H456 C470 0.930 . S
H457 C472 0.960 . S
H458 C472 0.960 . S
H459 C472 0.960 . S
C460 H452 0.929 . S
C460 C461 1.377 . S
C460 C462 1.384 . S
C461 C460 1.377 . S
C461 C467 1.390 . S
C462 H453 0.930 . S
C462 C460 1.384 . S
C462 C463 1.372 . S
C463 C462 1.372 . S
C463 C464 1.400 . S
C463 C468 1.490 . S
C464 H454 0.930 . S
C464 C463 1.400 . S
C464 C467 1.386 . S
H465 C481 0.930 . S
H466 C482 0.931 . S
C467 H455 0.929 . S
C467 C461 1.390 . S
C467 C464 1.386 . S
C468 C463 1.490 . S
C468 C470 1.395 . S
C468 C471 1.403 . S
H469 C475 0.930 . S
C470 H456 0.930 . S
C470 C468 1.395 . S
C470 C473 1.403 . S
C471 C468 1.403 . S
C471 C472 1.524 . S
C471 C475 1.400 . S
C472 H457 0.960 . S
C472 H458 0.960 . S
C472 H459 0.960 . S
C472 C471 1.524 . S
C473 C470 1.403 . S
C473 C474 1.392 . S
C473 C477 1.495 . S
C474 C473 1.392 . S
C474 C475 1.385 . S
C474 C476 1.478 . S
C475 H469 0.930 . S
C475 C471 1.400 . S
C475 C474 1.385 . S
C476 C474 1.478 . S
C476 C478 1.381 . S
C476 C482 1.383 . S
C477 C473 1.495 . S
C477 H483 0.959 . S
C477 H484 0.961 . S
C477 H485 0.960 . S
C478 C476 1.381 . S
C478 C479 1.394 . S
C478 H486 0.930 . S
C479 C478 1.394 . S
C479 C480 1.383 . S
C479 H487 0.929 . S
C480 C479 1.383 . S
C480 C481 1.377 . S
C481 H465 0.930 . S
C481 C480 1.377 . S
C481 C482 1.379 . S
C482 H466 0.931 . S
C482 C476 1.383 . S
C482 C481 1.379 . S
H483 C477 0.959 . S
H484 C477 0.961 . S
H485 C477 0.960 . S
H486 C478 0.930 . S
H487 C479 0.929 . S
H488 C496 0.929 . S
H489 C498 0.930 . S
H490 C500 0.930 . S
H491 C503 0.929 . S
H492 C506 0.930 . S
H493 C508 0.960 . S
H494 C508 0.960 . S
H495 C508 0.960 . S
C496 H488 0.929 . S
C496 C497 1.377 . S
C496 C498 1.384 . S
C497 C496 1.377 . S
C497 C503 1.390 . S
C498 H489 0.930 . S
C498 C496 1.384 . S
C498 C499 1.372 . S
C499 C498 1.372 . S
C499 C500 1.400 . S
C499 C504 1.490 . S
C500 H490 0.930 . S
C500 C499 1.400 . S
C500 C503 1.386 . S
H501 C517 0.930 . S
H502 C518 0.931 . S
C503 H491 0.929 . S
C503 C497 1.390 . S
C503 C500 1.386 . S
C504 C499 1.490 . S
C504 C506 1.395 . S
C504 C507 1.403 . S
H505 C511 0.930 . S
C506 H492 0.930 . S
C506 C504 1.395 . S
C506 C509 1.403 . S
C507 C504 1.403 . S
C507 C508 1.524 . S
C507 C511 1.400 . S
C508 H493 0.960 . S
C508 H494 0.960 . S
C508 H495 0.960 . S
C508 C507 1.524 . S
C509 C506 1.403 . S
C509 C510 1.392 . S
C509 C513 1.495 . S
C510 C509 1.392 . S
C510 C511 1.385 . S
C510 C512 1.478 . S
C511 H505 0.930 . S
C511 C507 1.400 . S
C511 C510 1.385 . S
C512 C510 1.478 . S
C512 C514 1.381 . S
C512 C518 1.383 . S
C513 C509 1.495 . S
C513 H519 0.959 . S
C513 H520 0.961 . S
C513 H521 0.960 . S
C514 C512 1.381 . S
C514 C515 1.394 . S
C514 H522 0.930 . S
C515 C514 1.394 . S
C515 C516 1.383 . S
C515 H523 0.929 . S
C516 C515 1.383 . S
C516 C517 1.377 . S
C517 H501 0.930 . S
C517 C516 1.377 . S
C517 C518 1.379 . S
C518 H502 0.931 . S
C518 C512 1.383 . S
C518 C517 1.379 . S
H519 C513 0.959 . S
H520 C513 0.961 . S
H521 C513 0.960 . S
H522 C514 0.930 . S
H523 C515 0.929 . S
H524 C532 0.929 . S
H525 C534 0.930 . S
H526 C536 0.930 . S
H527 C539 0.929 . S
H528 C542 0.930 . S
H529 C544 0.960 . S
H530 C544 0.960 . S
H531 C544 0.960 . S
C532 H524 0.929 . S
C532 C533 1.377 . S
C532 C534 1.384 . S
C533 C532 1.377 . S
C533 C539 1.390 . S
C534 H525 0.930 . S
C534 C532 1.384 . S
C534 C535 1.372 . S
C535 C534 1.372 . S
C535 C536 1.400 . S
C535 C540 1.490 . S
C536 H526 0.930 . S
C536 C535 1.400 . S
C536 C539 1.386 . S
H537 C553 0.930 . S
H538 C554 0.931 . S
C539 H527 0.929 . S
C539 C533 1.390 . S
C539 C536 1.386 . S
C540 C535 1.490 . S
C540 C542 1.395 . S
C540 C543 1.403 . S
H541 C547 0.930 . S
C542 H528 0.930 . S
C542 C540 1.395 . S
C542 C545 1.403 . S
C543 C540 1.403 . S
C543 C544 1.524 . S
C543 C547 1.400 . S
C544 H529 0.960 . S
C544 H530 0.960 . S
C544 H531 0.960 . S
C544 C543 1.524 . S
C545 C542 1.403 . S
C545 C546 1.392 . S
C545 C549 1.495 . S
C546 C545 1.392 . S
C546 C547 1.385 . S
C546 C548 1.478 . S
C547 H541 0.930 . S
C547 C543 1.400 . S
C547 C546 1.385 . S
C548 C546 1.478 . S
C548 C550 1.381 . S
C548 C554 1.383 . S
C549 C545 1.495 . S
C549 H555 0.959 . S
C549 H556 0.961 . S
C549 H557 0.960 . S
C550 C548 1.381 . S
C550 C551 1.394 . S
C550 H558 0.930 . S
C551 C550 1.394 . S
C551 C552 1.383 . S
C551 H559 0.929 . S
C552 C551 1.383 . S
C552 C553 1.377 . S
C553 H537 0.930 . S
C553 C552 1.377 . S
C553 C554 1.379 . S
C554 H538 0.931 . S
C554 C548 1.383 . S
C554 C553 1.379 . S
H555 C549 0.959 . S
H556 C549 0.961 . S
H557 C549 0.960 . S
H558 C550 0.930 . S
H559 C551 0.929 . S
H560 C568 0.929 . S
H561 C570 0.930 . S
H562 C572 0.930 . S
H563 C575 0.929 . S
H564 C578 0.930 . S
H565 C580 0.960 . S
H566 C580 0.960 . S
H567 C580 0.960 . S
C568 H560 0.929 . S
C568 C569 1.377 . S
C568 C570 1.384 . S
C569 C568 1.377 . S
C569 C575 1.390 . S
C570 H561 0.930 . S
C570 C568 1.384 . S
C570 C571 1.372 . S
C571 C570 1.372 . S
C571 C572 1.400 . S
C571 C576 1.490 . S
C572 H562 0.930 . S
C572 C571 1.400 . S
C572 C575 1.386 . S
H573 C589 0.930 . S
H574 C590 0.931 . S
C575 H563 0.929 . S
C575 C569 1.390 . S
C575 C572 1.386 . S
C576 C571 1.490 . S
C576 C578 1.395 . S
C576 C579 1.403 . S
H577 C583 0.930 . S
C578 H564 0.930 . S
C578 C576 1.395 . S
C578 C581 1.403 . S
C579 C576 1.403 . S
C579 C580 1.524 . S
C579 C583 1.400 . S
C580 H565 0.960 . S
C580 H566 0.960 . S
C580 H567 0.960 . S
C580 C579 1.524 . S
C581 C578 1.403 . S
C581 C582 1.392 . S
C581 C585 1.495 . S
C582 C581 1.392 . S
C582 C583 1.385 . S
C582 C584 1.478 . S
C583 H577 0.930 . S
C583 C579 1.400 . S
C583 C582 1.385 . S
C584 C582 1.478 . S
C584 C586 1.381 . S
C584 C590 1.383 . S
C585 C581 1.495 . S
C585 H591 0.959 . S
C585 H592 0.961 . S
C585 H593 0.960 . S
C586 C584 1.381 . S
C586 C587 1.394 . S
C586 H594 0.930 . S
C587 C586 1.394 . S
C587 C588 1.383 . S
C587 H595 0.929 . S
C588 C587 1.383 . S
C588 C589 1.377 . S
C589 H573 0.930 . S
C589 C588 1.377 . S
C589 C590 1.379 . S
C590 H574 0.931 . S
C590 C584 1.383 . S
C590 C589 1.379 . S
H591 C585 0.959 . S
H592 C585 0.961 . S
H593 C585 0.960 . S
H594 C586 0.930 . S
H595 C587 0.929 . S
H596 C604 0.929 . S
H597 C606 0.930 . S
H598 C608 0.930 . S
H599 C611 0.929 . S
H600 C614 0.930 . S
H601 C616 0.960 . S
H602 C616 0.960 . S
H603 C616 0.960 . S
C604 H596 0.929 . S
C604 C605 1.377 . S
C604 C606 1.384 . S
C605 C604 1.377 . S
C605 C611 1.390 . S
C606 H597 0.930 . S
C606 C604 1.384 . S
C606 C607 1.372 . S
C607 C606 1.372 . S
C607 C608 1.400 . S
C607 C612 1.490 . S
C608 H598 0.930 . S
C608 C607 1.400 . S
C608 C611 1.386 . S
H609 C625 0.930 . S
H610 C626 0.931 . S
C611 H599 0.929 . S
C611 C605 1.390 . S
C611 C608 1.386 . S
C612 C607 1.490 . S
C612 C614 1.395 . S
C612 C615 1.403 . S
H613 C619 0.930 . S
C614 H600 0.930 . S
C614 C612 1.395 . S
C614 C617 1.403 . S
C615 C612 1.403 . S
C615 C616 1.524 . S
C615 C619 1.400 . S
C616 H601 0.960 . S
C616 H602 0.960 . S
C616 H603 0.960 . S
C616 C615 1.524 . S
C617 C614 1.403 . S
C617 C618 1.392 . S
C617 C621 1.495 . S
C618 C617 1.392 . S
C618 C619 1.385 . S
C618 C620 1.478 . S
C619 H613 0.930 . S
C619 C615 1.400 . S
C619 C618 1.385 . S
C620 C618 1.478 . S
C620 C622 1.381 . S
C620 C626 1.383 . S
C621 C617 1.495 . S
C621 H627 0.959 . S
C621 H628 0.961 . S
C621 H629 0.960 . S
C622 C620 1.381 . S
C622 C623 1.394 . S
C622 H630 0.930 . S
C623 C622 1.394 . S
C623 C624 1.383 . S
C623 H631 0.929 . S
C624 C623 1.383 . S
C624 C625 1.377 . S
C625 H609 0.930 . S
C625 C624 1.377 . S
C625 C626 1.379 . S
C626 H610 0.931 . S
C626 C620 1.383 . S
C626 C625 1.379 . S
H627 C621 0.959 . S
H628 C621 0.961 . S
H629 C621 0.960 . S
H630 C622 0.930 . S
H631 C623 0.929 . S
H632 C640 0.929 . S
H633 C642 0.930 . S
H634 C644 0.930 . S
H635 C647 0.929 . S
H636 C650 0.930 . S
H637 C652 0.960 . S
H638 C652 0.960 . S
H639 C652 0.960 . S
C640 H632 0.929 . S
C640 C641 1.377 . S
C640 C642 1.384 . S
C641 C640 1.377 . S
C641 C647 1.390 . S
C642 H633 0.930 . S
C642 C640 1.384 . S
C642 C643 1.372 . S
C643 C642 1.372 . S
C643 C644 1.400 . S
C643 C648 1.490 . S
C644 H634 0.930 . S
C644 C643 1.400 . S
C644 C647 1.386 . S
H645 C661 0.930 . S
H646 C662 0.931 . S
C647 H635 0.929 . S
C647 C641 1.390 . S
C647 C644 1.386 . S
C648 C643 1.490 . S
C648 C650 1.395 . S
C648 C651 1.403 . S
H649 C655 0.930 . S
C650 H636 0.930 . S
C650 C648 1.395 . S
C650 C653 1.403 . S
C651 C648 1.403 . S
C651 C652 1.524 . S
C651 C655 1.400 . S
C652 H637 0.960 . S
C652 H638 0.960 . S
C652 H639 0.960 . S
C652 C651 1.524 . S
C653 C650 1.403 . S
C653 C654 1.392 . S
C653 C657 1.495 . S
C654 C653 1.392 . S
C654 C655 1.385 . S
C654 C656 1.478 . S
C655 H649 0.930 . S
C655 C651 1.400 . S
C655 C654 1.385 . S
C656 C654 1.478 . S
C656 C658 1.381 . S
C656 C662 1.383 . S
C657 C653 1.495 . S
C657 H663 0.959 . S
C657 H664 0.961 . S
C657 H665 0.960 . S
C658 C656 1.381 . S
C658 C659 1.394 . S
C658 H666 0.930 . S
C659 C658 1.394 . S
C659 C660 1.383 . S
C659 H667 0.929 . S
C660 C659 1.383 . S
C660 C661 1.377 . S
C661 H645 0.930 . S
C661 C660 1.377 . S
C661 C662 1.379 . S
C662 H646 0.931 . S
C662 C656 1.383 . S
C662 C661 1.379 . S
H663 C657 0.959 . S
H664 C657 0.961 . S
H665 C657 0.960 . S
H666 C658 0.930 . S
H667 C659 0.929 . S
H668 C676 0.929 . S
H669 C678 0.930 . S
H670 C680 0.930 . S
H671 C683 0.929 . S
H672 C686 0.930 . S
H673 C688 0.960 . S
H674 C688 0.960 . S
H675 C688 0.960 . S
C676 H668 0.929 . S
C676 C677 1.377 . S
C676 C678 1.384 . S
C677 C676 1.377 . S
C677 C683 1.390 . S
C678 H669 0.930 . S
C678 C676 1.384 . S
C678 C679 1.372 . S
C679 C678 1.372 . S
C679 C680 1.400 . S
C679 C684 1.490 . S
C680 H670 0.930 . S
C680 C679 1.400 . S
C680 C683 1.386 . S
H681 C697 0.930 . S
H682 C698 0.931 . S
C683 H671 0.929 . S
C683 C677 1.390 . S
C683 C680 1.386 . S
C684 C679 1.490 . S
C684 C686 1.395 . S
C684 C687 1.403 . S
H685 C691 0.930 . S
C686 H672 0.930 . S
C686 C684 1.395 . S
C686 C689 1.403 . S
C687 C684 1.403 . S
C687 C688 1.524 . S
C687 C691 1.400 . S
C688 H673 0.960 . S
C688 H674 0.960 . S
C688 H675 0.960 . S
C688 C687 1.524 . S
C689 C686 1.403 . S
C689 C690 1.392 . S
C689 C693 1.495 . S
C690 C689 1.392 . S
C690 C691 1.385 . S
C690 C692 1.478 . S
C691 H685 0.930 . S
C691 C687 1.400 . S
C691 C690 1.385 . S
C692 C690 1.478 . S
C692 C694 1.381 . S
C692 C698 1.383 . S
C693 C689 1.495 . S
C693 H699 0.959 . S
C693 H700 0.961 . S
C693 H701 0.960 . S
C694 C692 1.381 . S
C694 C695 1.394 . S
C694 H702 0.930 . S
C695 C694 1.394 . S
C695 C696 1.383 . S
C695 H703 0.929 . S
C696 C695 1.383 . S
C696 C697 1.377 . S
C697 H681 0.930 . S
C697 C696 1.377 . S
C697 C698 1.379 . S
C698 H682 0.931 . S
C698 C692 1.383 . S
C698 C697 1.379 . S
H699 C693 0.959 . S
H700 C693 0.961 . S
H701 C693 0.960 . S
H702 C694 0.930 . S
H703 C695 0.929 . S
H704 C712 0.929 . S
H705 C714 0.930 . S
H706 C716 0.930 . S
H707 C719 0.929 . S
H708 C722 0.930 . S
H709 C724 0.960 . S
H710 C724 0.960 . S
H711 C724 0.960 . S
C712 H704 0.929 . S
C712 C713 1.377 . S
C712 C714 1.384 . S
C713 C712 1.377 . S
C713 C719 1.390 . S
C714 H705 0.930 . S
C714 C712 1.384 . S
C714 C715 1.372 . S
C715 C714 1.372 . S
C715 C716 1.400 . S
C715 C720 1.490 . S
C716 H706 0.930 . S
C716 C715 1.400 . S
C716 C719 1.386 . S
H717 C733 0.930 . S
H718 C734 0.931 . S
C719 H707 0.929 . S
C719 C713 1.390 . S
C719 C716 1.386 . S
C720 C715 1.490 . S
C720 C722 1.395 . S
C720 C723 1.403 . S
H721 C727 0.930 . S
C722 H708 0.930 . S
C722 C720 1.395 . S
C722 C725 1.403 . S
C723 C720 1.403 . S
C723 C724 1.524 . S
C723 C727 1.400 . S
C724 H709 0.960 . S
C724 H710 0.960 . S
C724 H711 0.960 . S
C724 C723 1.524 . S
C725 C722 1.403 . S
C725 C726 1.392 . S
C725 C729 1.495 . S
C726 C725 1.392 . S
C726 C727 1.385 . S
C726 C728 1.478 . S
C727 H721 0.930 . S
C727 C723 1.400 . S
C727 C726 1.385 . S
C728 C726 1.478 . S
C728 C730 1.381 . S
C728 C734 1.383 . S
C729 C725 1.495 . S
C729 H735 0.959 . S
C729 H736 0.961 . S
C729 H737 0.960 . S
C730 C728 1.381 . S
C730 C731 1.394 . S
C730 H738 0.930 . S
C731 C730 1.394 . S
C731 C732 1.383 . S
C731 H739 0.929 . S
C732 C731 1.383 . S
C732 C733 1.377 . S
C733 H717 0.930 . S
C733 C732 1.377 . S
C733 C734 1.379 . S
C734 H718 0.931 . S
C734 C728 1.383 . S
C734 C733 1.379 . S
H735 C729 0.959 . S
H736 C729 0.961 . S
H737 C729 0.960 . S
H738 C730 0.930 . S
H739 C731 0.929 . S
H740 C748 0.929 . S
H741 C750 0.930 . S
H742 C752 0.930 . S
H743 C755 0.929 . S
H744 C758 0.930 . S
H745 C760 0.960 . S
H746 C760 0.960 . S
H747 C760 0.960 . S
C748 H740 0.929 . S
C748 C749 1.377 . S
C748 C750 1.384 . S
C749 C748 1.377 . S
C749 C755 1.390 . S
C750 H741 0.930 . S
C750 C748 1.384 . S
C750 C751 1.372 . S
C751 C750 1.372 . S
C751 C752 1.400 . S
C751 C756 1.490 . S
C752 H742 0.930 . S
C752 C751 1.400 . S
C752 C755 1.386 . S
H753 C769 0.930 . S
H754 C770 0.931 . S
C755 H743 0.929 . S
C755 C749 1.390 . S
C755 C752 1.386 . S
C756 C751 1.490 . S
C756 C758 1.395 . S
C756 C759 1.403 . S
H757 C763 0.930 . S
C758 H744 0.930 . S
C758 C756 1.395 . S
C758 C761 1.403 . S
C759 C756 1.403 . S
C759 C760 1.524 . S
C759 C763 1.400 . S
C760 H745 0.960 . S
C760 H746 0.960 . S
C760 H747 0.960 . S
C760 C759 1.524 . S
C761 C758 1.403 . S
C761 C762 1.392 . S
C761 C765 1.495 . S
C762 C761 1.392 . S
C762 C763 1.385 . S
C762 C764 1.478 . S
C763 H757 0.930 . S
C763 C759 1.400 . S
C763 C762 1.385 . S
C764 C762 1.478 . S
C764 C766 1.381 . S
C764 C770 1.383 . S
C765 C761 1.495 . S
C765 H771 0.959 . S
C765 H772 0.961 . S
C765 H773 0.960 . S
C766 C764 1.381 . S
C766 C767 1.394 . S
C766 H774 0.930 . S
C767 C766 1.394 . S
C767 C768 1.383 . S
C767 H775 0.929 . S
C768 C767 1.383 . S
C768 C769 1.377 . S
C769 H753 0.930 . S
C769 C768 1.377 . S
C769 C770 1.379 . S
C770 H754 0.931 . S
C770 C764 1.383 . S
C770 C769 1.379 . S
H771 C765 0.959 . S
H772 C765 0.961 . S
H773 C765 0.960 . S
H774 C766 0.930 . S
H775 C767 0.929 . S
H776 C784 0.929 . S
H777 C786 0.930 . S
H778 C788 0.930 . S
H779 C791 0.929 . S
H780 C794 0.930 . S
H781 C796 0.960 . S
H782 C796 0.960 . S
H783 C796 0.960 . S
C784 H776 0.929 . S
C784 C785 1.377 . S
C784 C786 1.384 1_565 S
C785 C784 1.377 . S
C785 C791 1.390 . S
C786 H777 0.930 . S
C786 C784 1.384 1_545 S
C786 C787 1.372 . S
C787 C786 1.372 . S
C787 C788 1.400 . S
C787 C792 1.490 . S
C788 H778 0.930 . S
C788 C787 1.400 . S
C788 C791 1.386 1_545 S
H789 C805 0.930 . S
H790 C806 0.931 . S
C791 H779 0.929 . S
C791 C785 1.390 . S
C791 C788 1.386 1_565 S
C792 C787 1.490 . S
C792 C794 1.395 . S
C792 C795 1.403 . S
H793 C799 0.930 . S
C794 H780 0.930 . S
C794 C792 1.395 . S
C794 C797 1.403 . S
C795 C792 1.403 . S
C795 C796 1.524 1_545 S
C795 C799 1.400 . S
C796 H781 0.960 . S
C796 H782 0.960 . S
C796 H783 0.960 . S
C796 C795 1.524 1_565 S
C797 C794 1.403 . S
C797 C798 1.392 . S
C797 C801 1.495 . S
C798 C797 1.392 . S
C798 C799 1.385 . S
C798 C800 1.478 . S
C799 H793 0.930 . S
C799 C795 1.400 . S
C799 C798 1.385 . S
C800 C798 1.478 . S
C800 C802 1.381 . S
C800 C806 1.383 . S
C801 C797 1.495 . S
C801 H807 0.959 . S
C801 H808 0.961 . S
C801 H809 0.960 . S
C802 C800 1.381 . S
C802 C803 1.394 . S
C802 H810 0.930 . S
C803 C802 1.394 . S
C803 C804 1.383 . S
C803 H811 0.929 . S
C804 C803 1.383 . S
C804 C805 1.377 . S
C805 H789 0.930 . S
C805 C804 1.377 . S
C805 C806 1.379 . S
C806 H790 0.931 . S
C806 C800 1.383 . S
C806 C805 1.379 . S
H807 C801 0.959 . S
H808 C801 0.961 . S
H809 C801 0.960 . S
H810 C802 0.930 . S
H811 C803 0.929 . S
H812 C820 0.929 . S
H813 C822 0.930 . S
H814 C824 0.930 . S
H815 C827 0.929 . S
H816 C830 0.930 . S
H817 C832 0.960 . S
H818 C832 0.960 . S
H819 C832 0.960 . S
C820 H812 0.929 . S
C820 C821 1.377 . S
C820 C822 1.384 1_545 S
C821 C820 1.377 . S
C821 C827 1.390 . S
C822 H813 0.930 . S
C822 C820 1.384 1_565 S
C822 C823 1.372 . S
C823 C822 1.372 . S
C823 C824 1.400 . S
C823 C828 1.490 . S
C824 H814 0.930 . S
C824 C823 1.400 . S
C824 C827 1.386 1_565 S
H825 C841 0.930 . S
H826 C842 0.931 . S
C827 H815 0.929 . S
C827 C821 1.390 . S
C827 C824 1.386 1_545 S
C828 C823 1.490 . S
C828 C830 1.395 . S
C828 C831 1.403 . S
H829 C835 0.930 . S
C830 H816 0.930 . S
C830 C828 1.395 . S
C830 C833 1.403 . S
C831 C828 1.403 . S
C831 C832 1.524 . S
C831 C835 1.400 . S
C832 H817 0.960 . S
C832 H818 0.960 . S
C832 H819 0.960 . S
C832 C831 1.524 . S
C833 C830 1.403 . S
C833 C834 1.392 . S
C833 C837 1.495 . S
C834 C833 1.392 . S
C834 C835 1.385 . S
C834 C836 1.478 . S
C835 H829 0.930 . S
C835 C831 1.400 . S
C835 C834 1.385 . S
C836 C834 1.478 . S
C836 C838 1.381 . S
C836 C842 1.383 . S
C837 C833 1.495 . S
C837 H843 0.959 . S
C837 H844 0.961 . S
C837 H845 0.960 . S
C838 C836 1.381 . S
C838 C839 1.394 . S
C838 H846 0.930 . S
C839 C838 1.394 . S
C839 C840 1.383 . S
C839 H847 0.929 . S
C840 C839 1.383 . S
C840 C841 1.377 . S
C841 H825 0.930 . S
C841 C840 1.377 . S
C841 C842 1.379 . S
C842 H826 0.931 . S
C842 C836 1.383 . S
C842 C841 1.379 . S
H843 C837 0.959 . S
H844 C837 0.961 . S
H845 C837 0.960 . S
H846 C838 0.930 . S
H847 C839 0.929 . S
H848 C856 0.929 . S
H849 C858 0.930 . S
H850 C860 0.930 . S
H851 C863 0.929 . S
H852 C866 0.930 . S
H853 C868 0.960 . S
H854 C868 0.960 1_565 S
H855 C868 0.960 . S
C856 H848 0.929 . S
C856 C857 1.377 . S
C856 C858 1.384 1_565 S
C857 C856 1.377 . S
C857 C863 1.390 . S
C858 H849 0.930 . S
C858 C856 1.384 1_545 S
C858 C859 1.372 . S
C859 C858 1.372 . S
C859 C860 1.400 . S
C859 C864 1.490 . S
C860 H850 0.930 . S
C860 C859 1.400 . S
C860 C863 1.386 1_545 S
H861 C877 0.930 . S
H862 C878 0.931 . S
C863 H851 0.929 . S
C863 C857 1.390 . S
C863 C860 1.386 1_565 S
C864 C859 1.490 . S
C864 C866 1.395 . S
C864 C867 1.403 . S
H865 C871 0.930 . S
C866 H852 0.930 . S
C866 C864 1.395 . S
C866 C869 1.403 . S
C867 C864 1.403 . S
C867 C868 1.524 . S
C867 C871 1.400 . S
C868 H853 0.960 . S
C868 H854 0.960 1_545 S
C868 H855 0.960 . S
C868 C867 1.524 . S
C869 C866 1.403 . S
C869 C870 1.392 . S
C869 C873 1.495 . S
C870 C869 1.392 . S
C870 C871 1.385 . S
C870 C872 1.478 . S
C871 H865 0.930 . S
C871 C867 1.400 . S
C871 C870 1.385 . S
C872 C870 1.478 . S
C872 C874 1.381 . S
C872 C878 1.383 . S
C873 C869 1.495 . S
C873 H879 0.959 . S
C873 H880 0.961 . S
C873 H881 0.960 . S
C874 C872 1.381 . S
C874 C875 1.394 . S
C874 H882 0.930 . S
C875 C874 1.394 . S
C875 C876 1.383 . S
C875 H883 0.929 . S
C876 C875 1.383 . S
C876 C877 1.377 . S
C877 H861 0.930 . S
C877 C876 1.377 . S
C877 C878 1.379 . S
C878 H862 0.931 . S
C878 C872 1.383 . S
C878 C877 1.379 . S
H879 C873 0.959 . S
H880 C873 0.961 . S
H881 C873 0.960 . S
H882 C874 0.930 . S
H883 C875 0.929 . S
H884 C892 0.929 . S
H885 C894 0.930 . S
H886 C896 0.930 . S
H887 C899 0.929 . S
H888 C902 0.930 . S
H889 C904 0.960 . S
H890 C904 0.960 1_545 S
H891 C904 0.960 . S
C892 H884 0.929 . S
C892 C893 1.377 . S
C892 C894 1.384 . S
C893 C892 1.377 . S
C893 C899 1.390 . S
C894 H885 0.930 . S
C894 C892 1.384 . S
C894 C895 1.372 1_545 S
C895 C894 1.372 1_565 S
C895 C896 1.400 . S
C895 C900 1.490 . S
C896 H886 0.930 . S
C896 C895 1.400 . S
C896 C899 1.386 1_565 S
H897 C913 0.930 . S
H898 C914 0.931 . S
C899 H887 0.929 . S
C899 C893 1.390 . S
C899 C896 1.386 1_545 S
C900 C895 1.490 . S
C900 C902 1.395 . S
C900 C903 1.403 . S
H901 C907 0.930 . S
C902 H888 0.930 . S
C902 C900 1.395 . S
C902 C905 1.403 . S
C903 C900 1.403 . S
C903 C904 1.524 . S
C903 C907 1.400 . S
C904 H889 0.960 . S
C904 H890 0.960 1_565 S
C904 H891 0.960 . S
C904 C903 1.524 . S
C905 C902 1.403 . S
C905 C906 1.392 . S
C905 C909 1.495 . S
C906 C905 1.392 . S
C906 C907 1.385 . S
C906 C908 1.478 . S
C907 H901 0.930 . S
C907 C903 1.400 . S
C907 C906 1.385 . S
C908 C906 1.478 . S
C908 C910 1.381 . S
C908 C914 1.383 . S
C909 C905 1.495 . S
C909 H915 0.959 . S
C909 H916 0.961 . S
C909 H917 0.960 . S
C910 C908 1.381 . S
C910 C911 1.394 . S
C910 H918 0.930 . S
C911 C910 1.394 . S
C911 C912 1.383 . S
C911 H919 0.929 . S
C912 C911 1.383 . S
C912 C913 1.377 . S
C913 H897 0.930 . S
C913 C912 1.377 . S
C913 C914 1.379 . S
C914 H898 0.931 . S
C914 C908 1.383 . S
C914 C913 1.379 . S
H915 C909 0.959 . S
H916 C909 0.961 . S
H917 C909 0.960 . S
H918 C910 0.930 . S
H919 C911 0.929 . S
H920 C928 0.929 . S
H921 C930 0.930 . S
H922 C932 0.930 . S
H923 C935 0.929 . S
H924 C938 0.930 . S
H925 C940 0.960 . S
H926 C940 0.960 . S
H927 C940 0.960 . S
C928 H920 0.929 . S
C928 C929 1.377 . S
C928 C930 1.384 . S
C929 C928 1.377 . S
C929 C935 1.390 . S
C930 H921 0.930 . S
C930 C928 1.384 . S
C930 C931 1.372 . S
C931 C930 1.372 . S
C931 C932 1.400 . S
C931 C936 1.490 . S
C932 H922 0.930 . S
C932 C931 1.400 . S
C932 C935 1.386 . S
H933 C949 0.930 . S
H934 C950 0.931 . S
C935 H923 0.929 . S
C935 C929 1.390 . S
C935 C932 1.386 . S
C936 C931 1.490 . S
C936 C938 1.395 . S
C936 C939 1.403 . S
H937 C943 0.930 . S
C938 H924 0.930 . S
C938 C936 1.395 . S
C938 C941 1.403 . S
C939 C936 1.403 . S
C939 C940 1.524 . S
C939 C943 1.400 . S
C940 H925 0.960 . S
C940 H926 0.960 . S
C940 H927 0.960 . S
C940 C939 1.524 . S
C941 C938 1.403 . S
C941 C942 1.392 . S
C941 C945 1.495 . S
C942 C941 1.392 . S
C942 C943 1.385 . S
C942 C944 1.478 . S
C943 H937 0.930 . S
C943 C939 1.400 . S
C943 C942 1.385 . S
C944 C942 1.478 . S
C944 C946 1.381 . S
C944 C950 1.383 . S
C945 C941 1.495 . S
C945 H951 0.959 . S
C945 H952 0.961 . S
C945 H953 0.960 . S
C946 C944 1.381 . S
C946 C947 1.394 . S
C946 H954 0.930 . S
C947 C946 1.394 . S
C947 C948 1.383 . S
C947 H955 0.929 . S
C948 C947 1.383 . S
C948 C949 1.377 . S
C949 H933 0.930 . S
C949 C948 1.377 . S
C949 C950 1.379 . S
C950 H934 0.931 . S
C950 C944 1.383 . S
C950 C949 1.379 . S
H951 C945 0.959 . S
H952 C945 0.961 . S
H953 C945 0.960 . S
H954 C946 0.930 . S
H955 C947 0.929 . S
H956 C964 0.929 . S
H957 C966 0.930 . S
H958 C968 0.930 . S
H959 C971 0.929 . S
H960 C974 0.930 . S
H961 C976 0.960 . S
H962 C976 0.960 . S
H963 C976 0.960 . S
C964 H956 0.929 . S
C964 C965 1.377 . S
C964 C966 1.384 . S
C965 C964 1.377 . S
C965 C971 1.390 . S
C966 H957 0.930 . S
C966 C964 1.384 . S
C966 C967 1.372 . S
C967 C966 1.372 . S
C967 C968 1.400 . S
C967 C972 1.490 . S
C968 H958 0.930 . S
C968 C967 1.400 . S
C968 C971 1.386 . S
H969 C985 0.930 . S
H970 C986 0.931 . S
C971 H959 0.929 . S
C971 C965 1.390 . S
C971 C968 1.386 . S
C972 C967 1.490 . S
C972 C974 1.395 . S
C972 C975 1.403 . S
H973 C979 0.930 . S
C974 H960 0.930 . S
C974 C972 1.395 . S
C974 C977 1.403 . S
C975 C972 1.403 . S
C975 C976 1.524 . S
C975 C979 1.400 . S
C976 H961 0.960 . S
C976 H962 0.960 . S
C976 H963 0.960 . S
C976 C975 1.524 . S
C977 C974 1.403 . S
C977 C978 1.392 . S
C977 C981 1.495 . S
C978 C977 1.392 . S
C978 C979 1.385 . S
C978 C980 1.478 . S
C979 H973 0.930 . S
C979 C975 1.400 . S
C979 C978 1.385 . S
C980 C978 1.478 . S
C980 C982 1.381 . S
C980 C986 1.383 . S
C981 C977 1.495 . S
C981 H987 0.959 . S
C981 H988 0.961 . S
C981 H989 0.960 . S
C982 C980 1.381 . S
C982 C983 1.394 . S
C982 H990 0.930 . S
C983 C982 1.394 . S
C983 C984 1.383 . S
C983 H991 0.929 . S
C984 C983 1.383 . S
C984 C985 1.377 . S
C985 H969 0.930 . S
C985 C984 1.377 . S
C985 C986 1.379 . S
C986 H970 0.931 . S
C986 C980 1.383 . S
C986 C985 1.379 . S
H987 C981 0.959 . S
H988 C981 0.961 . S
H989 C981 0.960 . S
H990 C982 0.930 . S
H991 C983 0.929 . S
H992 C1000 0.929 . S
H993 C1002 0.930 . S
H994 C1004 0.930 . S
H995 C1007 0.929 . S
H996 C1010 0.930 . S
H997 C1012 0.960 . S
H998 C1012 0.960 . S
H999 C1012 0.960 . S
C1000 H992 0.929 . S
C1000 C1001 1.377 . S
C1000 C1002 1.384 . S
C1001 C1000 1.377 . S
C1001 C1007 1.390 . S
C1002 H993 0.930 . S
C1002 C1000 1.384 . S
C1002 C1003 1.372 . S
C1003 C1002 1.372 . S
C1003 C1004 1.400 . S
C1003 C1008 1.490 . S
C1004 H994 0.930 . S
C1004 C1003 1.400 . S
C1004 C1007 1.386 . S
H1005 C1021 0.930 . S
H1006 C1022 0.931 . S
C1007 H995 0.929 . S
C1007 C1001 1.390 . S
C1007 C1004 1.386 . S
C1008 C1003 1.490 . S
C1008 C1010 1.395 . S
C1008 C1011 1.403 . S
H1009 C1015 0.930 . S
C1010 H996 0.930 . S
C1010 C1008 1.395 . S
C1010 C1013 1.403 . S
C1011 C1008 1.403 . S
C1011 C1012 1.524 . S
C1011 C1015 1.400 . S
C1012 H997 0.960 . S
C1012 H998 0.960 . S
C1012 H999 0.960 . S
C1012 C1011 1.524 . S
C1013 C1010 1.403 . S
C1013 C1014 1.392 . S
C1013 C1017 1.495 . S
C1014 C1013 1.392 . S
C1014 C1015 1.385 . S
C1014 C1016 1.478 . S
C1015 H1009 0.930 . S
C1015 C1011 1.400 . S
C1015 C1014 1.385 . S
C1016 C1014 1.478 . S
C1016 C1018 1.381 . S
C1016 C1022 1.383 . S
C1017 C1013 1.495 . S
C1017 H1023 0.959 . S
C1017 H1024 0.961 . S
C1017 H1025 0.960 . S
C1018 C1016 1.381 . S
C1018 C1019 1.394 . S
C1018 H1026 0.930 . S
C1019 C1018 1.394 . S
C1019 C1020 1.383 . S
C1019 H1027 0.929 . S
C1020 C1019 1.383 . S
C1020 C1021 1.377 . S
C1021 H1005 0.930 . S
C1021 C1020 1.377 . S
C1021 C1022 1.379 . S
C1022 H1006 0.931 . S
C1022 C1016 1.383 . S
C1022 C1021 1.379 . S
H1023 C1017 0.959 . S
H1024 C1017 0.961 . S
H1025 C1017 0.960 . S
H1026 C1018 0.930 . S
H1027 C1019 0.929 . S
H1028 C1036 0.929 . S
H1029 C1038 0.930 . S
H1030 C1040 0.930 . S
H1031 C1043 0.929 . S
H1032 C1046 0.930 . S
H1033 C1048 0.960 . S
H1034 C1048 0.960 . S
H1035 C1048 0.960 . S
C1036 H1028 0.929 . S
C1036 C1037 1.377 . S
C1036 C1038 1.384 . S
C1037 C1036 1.377 . S
C1037 C1043 1.390 . S
C1038 H1029 0.930 . S
C1038 C1036 1.384 . S
C1038 C1039 1.372 . S
C1039 C1038 1.372 . S
C1039 C1040 1.400 . S
C1039 C1044 1.490 . S
C1040 H1030 0.930 . S
C1040 C1039 1.400 . S
C1040 C1043 1.386 . S
H1041 C1057 0.930 . S
H1042 C1058 0.931 . S
C1043 H1031 0.929 . S
C1043 C1037 1.390 . S
C1043 C1040 1.386 . S
C1044 C1039 1.490 . S
C1044 C1046 1.395 . S
C1044 C1047 1.403 . S
H1045 C1051 0.930 . S
C1046 H1032 0.930 . S
C1046 C1044 1.395 . S
C1046 C1049 1.403 . S
C1047 C1044 1.403 . S
C1047 C1048 1.524 . S
C1047 C1051 1.400 . S
C1048 H1033 0.960 . S
C1048 H1034 0.960 . S
C1048 H1035 0.960 . S
C1048 C1047 1.524 . S
C1049 C1046 1.403 . S
C1049 C1050 1.392 . S
C1049 C1053 1.495 . S
C1050 C1049 1.392 . S
C1050 C1051 1.385 . S
C1050 C1052 1.478 . S
C1051 H1045 0.930 . S
C1051 C1047 1.400 . S
C1051 C1050 1.385 . S
C1052 C1050 1.478 . S
C1052 C1054 1.381 . S
C1052 C1058 1.383 . S
C1053 C1049 1.495 . S
C1053 H1059 0.959 . S
C1053 H1060 0.961 . S
C1053 H1061 0.960 . S
C1054 C1052 1.381 . S
C1054 C1055 1.394 . S
C1054 H1062 0.930 . S
C1055 C1054 1.394 . S
C1055 C1056 1.383 . S
C1055 H1063 0.929 . S
C1056 C1055 1.383 . S
C1056 C1057 1.377 . S
C1057 H1041 0.930 . S
C1057 C1056 1.377 . S
C1057 C1058 1.379 . S
C1058 H1042 0.931 . S
C1058 C1052 1.383 . S
C1058 C1057 1.379 . S
H1059 C1053 0.959 . S
H1060 C1053 0.961 . S
H1061 C1053 0.960 . S
H1062 C1054 0.930 . S
H1063 C1055 0.929 . S
H1064 C1072 0.929 . S
H1065 C1074 0.930 . S
H1066 C1076 0.930 . S
H1067 C1079 0.929 . S
H1068 C1082 0.930 . S
H1069 C1084 0.960 . S
H1070 C1084 0.960 . S
H1071 C1084 0.960 . S
C1072 H1064 0.929 . S
C1072 C1073 1.377 . S
C1072 C1074 1.384 . S
C1073 C1072 1.377 . S
C1073 C1079 1.390 . S
C1074 H1065 0.930 . S
C1074 C1072 1.384 . S
C1074 C1075 1.372 . S
C1075 C1074 1.372 . S
C1075 C1076 1.400 . S
C1075 C1080 1.490 . S
C1076 H1066 0.930 . S
C1076 C1075 1.400 . S
C1076 C1079 1.386 . S
H1077 C1093 0.930 . S
H1078 C1094 0.931 . S
C1079 H1067 0.929 . S
C1079 C1073 1.390 . S
C1079 C1076 1.386 . S
C1080 C1075 1.490 . S
C1080 C1082 1.395 . S
C1080 C1083 1.403 . S
H1081 C1087 0.930 . S
C1082 H1068 0.930 . S
C1082 C1080 1.395 . S
C1082 C1085 1.403 . S
C1083 C1080 1.403 . S
C1083 C1084 1.524 . S
C1083 C1087 1.400 . S
C1084 H1069 0.960 . S
C1084 H1070 0.960 . S
C1084 H1071 0.960 . S
C1084 C1083 1.524 . S
C1085 C1082 1.403 . S
C1085 C1086 1.392 . S
C1085 C1089 1.495 . S
C1086 C1085 1.392 . S
C1086 C1087 1.385 . S
C1086 C1088 1.478 . S
C1087 H1081 0.930 . S
C1087 C1083 1.400 . S
C1087 C1086 1.385 . S
C1088 C1086 1.478 . S
C1088 C1090 1.381 . S
C1088 C1094 1.383 . S
C1089 C1085 1.495 . S
C1089 H1095 0.959 . S
C1089 H1096 0.961 . S
C1089 H1097 0.960 . S
C1090 C1088 1.381 . S
C1090 C1091 1.394 . S
C1090 H1098 0.930 . S
C1091 C1090 1.394 . S
C1091 C1092 1.383 . S
C1091 H1099 0.929 . S
C1092 C1091 1.383 . S
C1092 C1093 1.377 . S
C1093 H1077 0.930 . S
C1093 C1092 1.377 . S
C1093 C1094 1.379 . S
C1094 H1078 0.931 . S
C1094 C1088 1.383 . S
C1094 C1093 1.379 . S
H1095 C1089 0.959 . S
H1096 C1089 0.961 . S
H1097 C1089 0.960 . S
H1098 C1090 0.930 . S
H1099 C1091 0.929 . S
H1100 C1108 0.929 . S
H1101 C1110 0.930 . S
H1102 C1112 0.930 . S
H1103 C1115 0.929 . S
H1104 C1118 0.930 . S
H1105 C1120 0.960 . S
H1106 C1120 0.960 . S
H1107 C1120 0.960 . S
C1108 H1100 0.929 . S
C1108 C1109 1.377 . S
C1108 C1110 1.384 . S
C1109 C1108 1.377 . S
C1109 C1115 1.390 . S
C1110 H1101 0.930 . S
C1110 C1108 1.384 . S
C1110 C1111 1.372 . S
C1111 C1110 1.372 . S
C1111 C1112 1.400 . S
C1111 C1116 1.490 . S
C1112 H1102 0.930 . S
C1112 C1111 1.400 . S
C1112 C1115 1.386 . S
H1113 C1129 0.930 . S
H1114 C1130 0.931 . S
C1115 H1103 0.929 . S
C1115 C1109 1.390 . S
C1115 C1112 1.386 . S
C1116 C1111 1.490 . S
C1116 C1118 1.395 . S
C1116 C1119 1.403 . S
H1117 C1123 0.930 . S
C1118 H1104 0.930 . S
C1118 C1116 1.395 . S
C1118 C1121 1.403 . S
C1119 C1116 1.403 . S
C1119 C1120 1.524 . S
C1119 C1123 1.400 . S
C1120 H1105 0.960 . S
C1120 H1106 0.960 . S
C1120 H1107 0.960 . S
C1120 C1119 1.524 . S
C1121 C1118 1.403 . S
C1121 C1122 1.392 . S
C1121 C1125 1.495 . S
C1122 C1121 1.392 . S
C1122 C1123 1.385 . S
C1122 C1124 1.478 . S
C1123 H1117 0.930 . S
C1123 C1119 1.400 . S
C1123 C1122 1.385 . S
C1124 C1122 1.478 . S
C1124 C1126 1.381 . S
C1124 C1130 1.383 . S
C1125 C1121 1.495 . S
C1125 H1131 0.959 . S
C1125 H1132 0.961 . S
C1125 H1133 0.960 . S
C1126 C1124 1.381 . S
C1126 C1127 1.394 . S
C1126 H1134 0.930 . S
C1127 C1126 1.394 . S
C1127 C1128 1.383 . S
C1127 H1135 0.929 . S
C1128 C1127 1.383 . S
C1128 C1129 1.377 . S
C1129 H1113 0.930 . S
C1129 C1128 1.377 . S
C1129 C1130 1.379 . S
C1130 H1114 0.931 . S
C1130 C1124 1.383 . S
C1130 C1129 1.379 . S
H1131 C1125 0.959 . S
H1132 C1125 0.961 . S
H1133 C1125 0.960 . S
H1134 C1126 0.930 . S
H1135 C1127 0.929 . S
H1136 C1144 0.929 . S
H1137 C1146 0.930 . S
H1138 C1148 0.930 . S
H1139 C1151 0.929 . S
H1140 C1154 0.930 . S
H1141 C1156 0.960 . S
H1142 C1156 0.960 . S
H1143 C1156 0.960 . S
C1144 H1136 0.929 . S
C1144 C1145 1.377 . S
C1144 C1146 1.384 . S
C1145 C1144 1.377 . S
C1145 C1151 1.390 . S
C1146 H1137 0.930 . S
C1146 C1144 1.384 . S
C1146 C1147 1.372 . S
C1147 C1146 1.372 . S
C1147 C1148 1.400 . S
C1147 C1152 1.490 . S
C1148 H1138 0.930 . S
C1148 C1147 1.400 . S
C1148 C1151 1.386 . S
H1149 C1165 0.930 . S
H1150 C1166 0.931 . S
C1151 H1139 0.929 . S
C1151 C1145 1.390 . S
C1151 C1148 1.386 . S
C1152 C1147 1.490 . S
C1152 C1154 1.395 . S
C1152 C1155 1.403 . S
H1153 C1159 0.930 . S
C1154 H1140 0.930 . S
C1154 C1152 1.395 . S
C1154 C1157 1.403 . S
C1155 C1152 1.403 . S
C1155 C1156 1.524 . S
C1155 C1159 1.400 . S
C1156 H1141 0.960 . S
C1156 H1142 0.960 . S
C1156 H1143 0.960 . S
C1156 C1155 1.524 . S
C1157 C1154 1.403 . S
C1157 C1158 1.392 . S
C1157 C1161 1.495 . S
C1158 C1157 1.392 . S
C1158 C1159 1.385 . S
C1158 C1160 1.478 . S
C1159 H1153 0.930 . S
C1159 C1155 1.400 . S
C1159 C1158 1.385 . S
C1160 C1158 1.478 . S
C1160 C1162 1.381 . S
C1160 C1166 1.383 . S
C1161 C1157 1.495 . S
C1161 H1167 0.959 . S
C1161 H1168 0.961 . S
C1161 H1169 0.960 . S
C1162 C1160 1.381 . S
C1162 C1163 1.394 . S
C1162 H1170 0.930 . S
C1163 C1162 1.394 . S
C1163 C1164 1.383 . S
C1163 H1171 0.929 . S
C1164 C1163 1.383 . S
C1164 C1165 1.377 . S
C1165 H1149 0.930 . S
C1165 C1164 1.377 . S
C1165 C1166 1.379 . S
C1166 H1150 0.931 . S
C1166 C1160 1.383 . S
C1166 C1165 1.379 . S
H1167 C1161 0.959 . S
H1168 C1161 0.961 . S
H1169 C1161 0.960 . S
H1170 C1162 0.930 . S
H1171 C1163 0.929 . S
H1172 C1180 0.929 . S
H1173 C1182 0.930 . S
H1174 C1184 0.930 . S
H1175 C1187 0.929 . S
H1176 C1190 0.930 . S
H1177 C1192 0.960 . S
H1178 C1192 0.960 . S
H1179 C1192 0.960 . S
C1180 H1172 0.929 . S
C1180 C1181 1.377 . S
C1180 C1182 1.384 . S
C1181 C1180 1.377 . S
C1181 C1187 1.390 . S
C1182 H1173 0.930 . S
C1182 C1180 1.384 . S
C1182 C1183 1.372 . S
C1183 C1182 1.372 . S
C1183 C1184 1.400 . S
C1183 C1188 1.490 . S
C1184 H1174 0.930 . S
C1184 C1183 1.400 . S
C1184 C1187 1.386 . S
H1185 C1201 0.930 . S
H1186 C1202 0.931 . S
C1187 H1175 0.929 . S
C1187 C1181 1.390 . S
C1187 C1184 1.386 . S
C1188 C1183 1.490 . S
C1188 C1190 1.395 . S
C1188 C1191 1.403 . S
H1189 C1195 0.930 . S
C1190 H1176 0.930 . S
C1190 C1188 1.395 . S
C1190 C1193 1.403 . S
C1191 C1188 1.403 . S
C1191 C1192 1.524 . S
C1191 C1195 1.400 . S
C1192 H1177 0.960 . S
C1192 H1178 0.960 . S
C1192 H1179 0.960 . S
C1192 C1191 1.524 . S
C1193 C1190 1.403 . S
C1193 C1194 1.392 . S
C1193 C1197 1.495 . S
C1194 C1193 1.392 . S
C1194 C1195 1.385 . S
C1194 C1196 1.478 . S
C1195 H1189 0.930 . S
C1195 C1191 1.400 . S
C1195 C1194 1.385 . S
C1196 C1194 1.478 . S
C1196 C1198 1.381 . S
C1196 C1202 1.383 . S
C1197 C1193 1.495 . S
C1197 H1203 0.959 . S
C1197 H1204 0.961 . S
C1197 H1205 0.960 . S
C1198 C1196 1.381 . S
C1198 C1199 1.394 . S
C1198 H1206 0.930 . S
C1199 C1198 1.394 . S
C1199 C1200 1.383 . S
C1199 H1207 0.929 . S
C1200 C1199 1.383 . S
C1200 C1201 1.377 . S
C1201 H1185 0.930 . S
C1201 C1200 1.377 . S
C1201 C1202 1.379 . S
C1202 H1186 0.931 . S
C1202 C1196 1.383 . S
C1202 C1201 1.379 . S
H1203 C1197 0.959 . S
H1204 C1197 0.961 . S
H1205 C1197 0.960 . S
H1206 C1198 0.930 . S
H1207 C1199 0.929 . S
C353 C23 1.496 . S
C372 C282 1.537 . S
C408 C260 1.491 . S
C389 C55 1.500 . S
C444 C286 1.536 . S
C425 C87 1.558 . S
C480 C264 1.454 . S
C461 C119 1.428 . S
C516 C326 1.513 . S
C497 C151 1.489 . S
C552 C304 1.487 . S
C533 C183 1.497 . S
C569 C215 1.556 . S
C588 C330 1.545 . S
C624 C308 1.490 . S
C605 C247 1.443 . S
C641 C29 1.479 . S
C660 C331 1.548 . S
C696 C309 1.448 . S
C677 C49 1.469 . S
C713 C93 1.543 . S
C732 C328 1.548 . S
C749 C113 1.419 . S
C768 C306 1.435 . S
C804 C287 1.546 . S
C785 C157 1.483 . S
C821 C177 1.468 . S
C840 C265 1.432 . S
C876 C284 1.536 . S
C857 C221 1.543 . S
C912 C262 1.451 . S
C893 C241 1.416 . S
C948 C305 1.449 . S
C929 C17 1.427 . S
C984 C327 1.447 . S
C965 C61 1.473 . S
C1001 C81 1.481 . S
C1020 C307 1.458 . S
C1056 C329 1.444 . S
C1037 C125 1.407 . S
C1092 C261 1.442 . S
C1073 C145 1.426 . S
C1109 C189 1.471 . S
C1128 C283 1.466 . S
C1145 C209 1.484 . S
C1164 C263 1.466 . S
C1181 C253 1.397 . S
C1200 C285 1.475 . S
