# Generated by pormake.
# Topology pyr, (3,6)-cn, num edge types: 1
# Building blocks:
#     Node 0, Type 0, BuildingBlock: KAKCAD_clean_linker_0, # of connection points: 3
#     Node 1, Type 0, BuildingBlock: KAKCAD_clean_linker_0, # of connection points: 3
#     Node 2, Type 0, BuildingBlock: KAKCAD_clean_linker_0, # of connection points: 3
#     Node 3, Type 0, BuildingBlock: KAKCAD_clean_linker_0, # of connection points: 3
#     Node 4, Type 0, BuildingBlock: KAKCAD_clean_linker_0, # of connection points: 3
#     Node 5, Type 0, BuildingBlock: KAKCAD_clean_linker_0, # of connection points: 3
#     Node 6, Type 0, BuildingBlock: KAKCAD_clean_linker_0, # of connection points: 3
#     Node 7, Type 0, BuildingBlock: KAKCAD_clean_linker_0, # of connection points: 3
#     Node 8, Type 1, BuildingBlock: GEDQOX_clean_sbu_0, # of connection points: 6
#     Node 9, Type 1, BuildingBlock: GEDQOX_clean_sbu_0, # of connection points: 6
#     Node 10, Type 1, BuildingBlock: GEDQOX_clean_sbu_0, # of connection points: 6
#     Node 11, Type 1, BuildingBlock: GEDQOX_clean_sbu_0, # of connection points: 6
#     Edge 12, Type (0, 1), BuildingBlock: UVAHIK_clean_linker_0, # of connection points: 2
#     Edge 13, Type (0, 1), BuildingBlock: UVAHIK_clean_linker_0, # of connection points: 2
#     Edge 14, Type (0, 1), BuildingBlock: UVAHIK_clean_linker_0, # of connection points: 2
#     Edge 15, Type (0, 1), BuildingBlock: UVAHIK_clean_linker_0, # of connection points: 2
#     Edge 16, Type (0, 1), BuildingBlock: UVAHIK_clean_linker_0, # of connection points: 2
#     Edge 17, Type (0, 1), BuildingBlock: UVAHIK_clean_linker_0, # of connection points: 2
#     Edge 18, Type (0, 1), BuildingBlock: UVAHIK_clean_linker_0, # of connection points: 2
#     Edge 19, Type (0, 1), BuildingBlock: UVAHIK_clean_linker_0, # of connection points: 2
#     Edge 20, Type (0, 1), BuildingBlock: UVAHIK_clean_linker_0, # of connection points: 2
#     Edge 21, Type (0, 1), BuildingBlock: UVAHIK_clean_linker_0, # of connection points: 2
#     Edge 22, Type (0, 1), BuildingBlock: UVAHIK_clean_linker_0, # of connection points: 2
#     Edge 23, Type (0, 1), BuildingBlock: UVAHIK_clean_linker_0, # of connection points: 2
#     Edge 24, Type (0, 1), BuildingBlock: UVAHIK_clean_linker_0, # of connection points: 2
#     Edge 25, Type (0, 1), BuildingBlock: UVAHIK_clean_linker_0, # of connection points: 2
#     Edge 26, Type (0, 1), BuildingBlock: UVAHIK_clean_linker_0, # of connection points: 2
#     Edge 27, Type (0, 1), BuildingBlock: UVAHIK_clean_linker_0, # of connection points: 2
#     Edge 28, Type (0, 1), BuildingBlock: UVAHIK_clean_linker_0, # of connection points: 2
#     Edge 29, Type (0, 1), BuildingBlock: UVAHIK_clean_linker_0, # of connection points: 2
#     Edge 30, Type (0, 1), BuildingBlock: UVAHIK_clean_linker_0, # of connection points: 2
#     Edge 31, Type (0, 1), BuildingBlock: UVAHIK_clean_linker_0, # of connection points: 2
#     Edge 32, Type (0, 1), BuildingBlock: UVAHIK_clean_linker_0, # of connection points: 2
#     Edge 33, Type (0, 1), BuildingBlock: UVAHIK_clean_linker_0, # of connection points: 2
#     Edge 34, Type (0, 1), BuildingBlock: UVAHIK_clean_linker_0, # of connection points: 2
#     Edge 35, Type (0, 1), BuildingBlock: UVAHIK_clean_linker_0, # of connection points: 2
# Relax obj value: 0.083
# Max RMSD: 0.144
# Mean RMSD: 0.058
data_MOF--net-pyr--node1-GEDQOX_clean_sbu_0--node2-KAKCAD_clean_linker_0--edge1-UVAHIK_clean_linker_0
_symmetry_space_group_name_H-M    P1
_symmetry_Int_Tables_number       1
_symmetry_cell_setting            triclinic
loop_
_symmetry_equiv_pos_as_xyz
'x, y, z'
_cell_length_a     60.258621
_cell_length_b     59.902709
_cell_length_c     53.171208
_cell_angle_alpha  88.385061
_cell_angle_beta   91.349331
_cell_angle_gamma 88.890494
loop_
_atom_site_label
_atom_site_type_symbol
_atom_site_fract_x
_atom_site_fract_y
_atom_site_fract_z
_atom_type_partial_charge
C0 C 0.13747 0.15111 0.22985 0.0
C1 C 0.14963 0.13879 0.24874 0.0
C2 C 0.14799 0.16101 0.20897 0.0
C3 C 0.17123 0.15926 0.20606 0.0
C4 C 0.18338 0.14682 0.22493 0.0
C5 C 0.17281 0.13675 0.24573 0.0
C6 C 0.18263 0.17062 0.18383 0.0
C7 C 0.17399 0.19093 0.17296 0.0
C8 C 0.18406 0.20199 0.15241 0.0
C9 C 0.20396 0.19244 0.14307 0.0
C10 C 0.2134 0.17194 0.15322 0.0
C11 C 0.20212 0.16131 0.17343 0.0
C12 C 0.23479 0.16143 0.14288 0.0
C13 C 0.24172 0.16563 0.11795 0.0
C14 C 0.24866 0.14674 0.15784 0.0
C15 C 0.268 0.13654 0.14836 0.0
C16 C 0.27504 0.14076 0.12348 0.0
C17 C 0.17339 0.22346 0.14098 0.0
C18 C 0.15005 0.22603 0.13865 0.0
C19 C 0.18605 0.24181 0.13289 0.0
C20 C 0.17579 0.26193 0.12335 0.0
C21 C 0.1524 0.2645 0.12118 0.0
C22 C 0.13983 0.24599 0.12895 0.0
C23 C 0.26135 0.15572 0.10858 0.0
H24 H 0.11961 0.15286 0.23093 0.0
H25 H 0.13767 0.16985 0.19489 0.0
H26 H 0.20125 0.14517 0.22401 0.0
H27 H 0.183 0.12772 0.25981 0.0
H28 H 0.1595 0.19862 0.18102 0.0
H29 H 0.20815 0.14528 0.18081 0.0
H30 H 0.212 0.20104 0.12775 0.0
H31 H 0.23188 0.17645 0.10525 0.0
H32 H 0.24483 0.14306 0.17726 0.0
H33 H 0.27723 0.12504 0.16087 0.0
H34 H 0.13947 0.21244 0.14425 0.0
H35 H 0.20399 0.24084 0.13438 0.0
H36 H 0.26574 0.16012 0.08951 0.0
H37 H 0.12187 0.24699 0.128 0.0
H38 H 0.1863 0.27546 0.11744 0.0
C39 C 0.36574 0.81497 0.82604 0.0
C40 C 0.38738 0.82243 0.82212 0.0
C41 C 0.35528 0.80151 0.80845 0.0
C42 C 0.36641 0.79501 0.78683 0.0
C43 C 0.38834 0.80182 0.78339 0.0
C44 C 0.39867 0.81552 0.80078 0.0
C45 C 0.3548 0.78243 0.76702 0.0
C46 C 0.33376 0.78978 0.7579 0.0
C47 C 0.32356 0.77946 0.73744 0.0
C48 C 0.3343 0.76132 0.72647 0.0
C49 C 0.35504 0.75323 0.73577 0.0
C50 C 0.36524 0.76403 0.75605 0.0
C51 C 0.36615 0.734 0.72365 0.0
C52 C 0.3535 0.71649 0.71406 0.0
C53 C 0.3893 0.73338 0.7206 0.0
C54 C 0.39942 0.71598 0.7078 0.0
C55 C 0.38657 0.69907 0.69747 0.0
C56 C 0.30211 0.78816 0.72669 0.0
C57 C 0.28401 0.79213 0.74221 0.0
C58 C 0.29962 0.79236 0.70067 0.0
C59 C 0.27939 0.80024 0.6903 0.0
C60 C 0.26105 0.80387 0.70567 0.0
C61 C 0.26363 0.79979 0.73179 0.0
C62 C 0.36357 0.69936 0.70088 0.0
H63 H 0.35664 0.82017 0.84228 0.0
H64 H 0.3384 0.79641 0.81158 0.0
H65 H 0.39723 0.79721 0.76678 0.0
H66 H 0.41542 0.82092 0.79741 0.0
H67 H 0.32581 0.80424 0.7659 0.0
H68 H 0.38124 0.75808 0.7635 0.0
H69 H 0.32648 0.7537 0.71037 0.0
H70 H 0.33574 0.71604 0.71657 0.0
H71 H 0.39957 0.74668 0.72737 0.0
H72 H 0.4172 0.71615 0.70523 0.0
H73 H 0.2855 0.78889 0.76233 0.0
H74 H 0.31345 0.78978 0.68835 0.0
H75 H 0.35338 0.68632 0.69333 0.0
H76 H 0.24982 0.80216 0.74417 0.0
H77 H 0.27824 0.80373 0.67021 0.0
C78 C 0.77017 0.44868 0.88408 0.0
C79 C 0.78677 0.43356 0.89327 0.0
C80 C 0.74926 0.44107 0.87676 0.0
C81 C 0.74456 0.41821 0.87858 0.0
C82 C 0.76116 0.40313 0.88778 0.0
C83 C 0.78202 0.4107 0.89501 0.0
C84 C 0.72266 0.40981 0.87035 0.0
C85 C 0.71268 0.41744 0.84746 0.0
C86 C 0.6931 0.40783 0.83852 0.0
C87 C 0.68322 0.39088 0.85281 0.0
C88 C 0.69264 0.38344 0.87601 0.0
C89 C 0.71234 0.39306 0.88467 0.0
C90 C 0.68242 0.36487 0.89042 0.0
C91 C 0.65922 0.36357 0.8918 0.0
C92 C 0.69573 0.34767 0.90171 0.0
C93 C 0.68603 0.3292 0.91331 0.0
C94 C 0.6628 0.32745 0.91375 0.0
C95 C 0.68327 0.41468 0.81373 0.0
C96 C 0.67757 0.43711 0.80818 0.0
C97 C 0.6787 0.39851 0.79586 0.0
C98 C 0.6681 0.40456 0.77302 0.0
C99 C 0.66149 0.42688 0.76772 0.0
C100 C 0.66662 0.44316 0.78545 0.0
C101 C 0.64952 0.34505 0.90325 0.0
H102 H 0.77325 0.46642 0.88277 0.0
H103 H 0.73671 0.45308 0.8699 0.0
H104 H 0.75819 0.38535 0.8889 0.0
H105 H 0.79457 0.39856 0.9015 0.0
H106 H 0.72067 0.43005 0.83601 0.0
H107 H 0.7197 0.38751 0.90262 0.0
H108 H 0.66832 0.38321 0.84555 0.0
H109 H 0.64851 0.37671 0.88362 0.0
H110 H 0.71366 0.34806 0.90083 0.0
H111 H 0.69674 0.31608 0.92154 0.0
H112 H 0.68087 0.44983 0.8218 0.0
H113 H 0.68327 0.38113 0.79964 0.0
H114 H 0.63159 0.34419 0.90302 0.0
H115 H 0.66159 0.46046 0.78216 0.0
H116 H 0.66498 0.39166 0.75959 0.0
C117 C 0.84413 0.72983 0.20764 0.0
C118 C 0.86531 0.72998 0.1971 0.0
C119 C 0.84126 0.73589 0.23253 0.0
C120 C 0.85952 0.74202 0.24759 0.0
C121 C 0.8805 0.74329 0.23669 0.0
C122 C 0.88334 0.73743 0.2117 0.0
C123 C 0.85684 0.74568 0.2749 0.0
C124 C 0.84312 0.73163 0.289 0.0
C125 C 0.84057 0.73447 0.31486 0.0
C126 C 0.85201 0.75159 0.32672 0.0
C127 C 0.86616 0.76561 0.31313 0.0
C128 C 0.86841 0.76256 0.28716 0.0
C129 C 0.87846 0.78342 0.32618 0.0
C130 C 0.88152 0.8044 0.31432 0.0
C131 C 0.8869 0.77967 0.35089 0.0
C132 C 0.89751 0.79665 0.36365 0.0
C133 C 0.90028 0.81762 0.35186 0.0
C134 C 0.82604 0.71946 0.32947 0.0
C135 C 0.80525 0.71345 0.31954 0.0
C136 C 0.83288 0.71096 0.35338 0.0
C137 C 0.8192 0.69678 0.36708 0.0
C138 C 0.79836 0.69086 0.35719 0.0
C139 C 0.79156 0.69932 0.33325 0.0
C140 C 0.89246 0.82127 0.32698 0.0
H141 H 0.82988 0.72403 0.19712 0.0
H142 H 0.82478 0.7352 0.24017 0.0
H143 H 0.89494 0.74787 0.24774 0.0
H144 H 0.89982 0.73813 0.20405 0.0
H145 H 0.83487 0.71796 0.27997 0.0
H146 H 0.87926 0.77324 0.27648 0.0
H147 H 0.84948 0.75425 0.34653 0.0
H148 H 0.87499 0.80802 0.29547 0.0
H149 H 0.88534 0.76359 0.36042 0.0
H150 H 0.90365 0.79336 0.38273 0.0
H151 H 0.79944 0.71988 0.30126 0.0
H152 H 0.84891 0.7151 0.36142 0.0
H153 H 0.89425 0.8374 0.31759 0.0
H154 H 0.7757 0.69488 0.325 0.0
H155 H 0.82481 0.69071 0.38558 0.0
C156 C 0.87951 0.87092 0.77311 0.0
C157 C 0.88471 0.8938 0.7729 0.0
C158 C 0.8689 0.86067 0.79373 0.0
C159 C 0.8626 0.87296 0.81477 0.0
C160 C 0.86751 0.89591 0.81444 0.0
C161 C 0.87857 0.90607 0.79404 0.0
C162 C 0.85128 0.86176 0.83694 0.0
C163 C 0.85942 0.84103 0.84706 0.0
C164 C 0.84945 0.83011 0.86776 0.0
C165 C 0.83022 0.84031 0.87797 0.0
C166 C 0.82105 0.86105 0.86813 0.0
C167 C 0.83238 0.87163 0.84792 0.0
C168 C 0.79966 0.87158 0.87846 0.0
C169 C 0.79242 0.86698 0.90319 0.0
C170 C 0.78596 0.8865 0.86358 0.0
C171 C 0.76645 0.89647 0.87292 0.0
C172 C 0.75905 0.89178 0.89756 0.0
C173 C 0.85941 0.80807 0.87841 0.0
C174 C 0.8678 0.79165 0.86241 0.0
C175 C 0.8616 0.80346 0.90456 0.0
C176 C 0.87222 0.78359 0.91423 0.0
C177 C 0.88093 0.76723 0.8982 0.0
C178 C 0.87815 0.77171 0.87202 0.0
C179 C 0.77262 0.87667 0.9124 0.0
H180 H 0.884 0.86075 0.75743 0.0
H181 H 0.86538 0.84303 0.79304 0.0
H182 H 0.86313 0.90602 0.83022 0.0
H183 H 0.88207 0.92371 0.79469 0.0
H184 H 0.87417 0.83366 0.83916 0.0
H185 H 0.8265 0.88767 0.84036 0.0
H186 H 0.82207 0.83158 0.89313 0.0
H187 H 0.80211 0.85596 0.91581 0.0
H188 H 0.79 0.8905 0.8443 0.0
H189 H 0.75735 0.90813 0.86049 0.0
H190 H 0.86622 0.79411 0.84219 0.0
H191 H 0.85566 0.81559 0.91768 0.0
H192 H 0.76797 0.87194 0.9313 0.0
H193 H 0.88379 0.75971 0.85864 0.0
H194 H 0.87402 0.78141 0.93444 0.0
C195 C 0.66981 0.18966 0.21463 0.0
C196 C 0.65351 0.19908 0.19798 0.0
C197 C 0.68072 0.20279 0.23208 0.0
C198 C 0.67585 0.22579 0.23321 0.0
C199 C 0.65988 0.23536 0.21622 0.0
C200 C 0.64882 0.22214 0.1988 0.0
C201 C 0.68689 0.23935 0.25275 0.0
C202 C 0.70929 0.23507 0.25973 0.0
C203 C 0.71927 0.24582 0.28013 0.0
C204 C 0.70665 0.26144 0.29321 0.0
C205 C 0.68459 0.26651 0.28595 0.0
C206 C 0.67478 0.25553 0.2657 0.0
C207 C 0.67169 0.28275 0.30037 0.0
C208 C 0.66921 0.27925 0.32635 0.0
C209 C 0.66284 0.30231 0.28858 0.0
C210 C 0.65226 0.3185 0.30278 0.0
C211 C 0.64997 0.31509 0.32884 0.0
C212 C 0.74241 0.23997 0.28867 0.0
C213 C 0.75026 0.21769 0.28856 0.0
C214 C 0.75648 0.25639 0.29818 0.0
C215 C 0.77751 0.25054 0.30817 0.0
C216 C 0.78507 0.22822 0.30853 0.0
C217 C 0.7714 0.21192 0.29824 0.0
C218 C 0.65825 0.29519 0.34043 0.0
H219 H 0.67413 0.17204 0.21428 0.0
H220 H 0.69266 0.19474 0.24509 0.0
H221 H 0.65586 0.25305 0.21641 0.0
H222 H 0.63625 0.22992 0.18637 0.0
H223 H 0.71897 0.22324 0.24927 0.0
H224 H 0.65743 0.25889 0.2609 0.0
H225 H 0.71384 0.26951 0.30938 0.0
H226 H 0.67593 0.26423 0.33577 0.0
H227 H 0.6647 0.30533 0.26857 0.0
H228 H 0.6459 0.3337 0.29345 0.0
H229 H 0.73979 0.20453 0.28182 0.0
H230 H 0.75118 0.27376 0.29811 0.0
H231 H 0.65679 0.29226 0.36052 0.0
H232 H 0.77673 0.19453 0.29858 0.0
H233 H 0.78784 0.26346 0.31577 0.0
C234 C 0.25068 0.60349 0.16313 0.0
C235 C 0.24512 0.60234 0.13739 0.0
C236 C 0.27216 0.60878 0.17093 0.0
C237 C 0.28857 0.61308 0.15319 0.0
C238 C 0.28298 0.61221 0.12744 0.0
C239 C 0.26148 0.60686 0.11961 0.0
C240 C 0.31147 0.61829 0.16159 0.0
C241 C 0.32167 0.60613 0.18186 0.0
C242 C 0.34315 0.61119 0.19023 0.0
C243 C 0.35444 0.62859 0.17836 0.0
C244 C 0.34432 0.64136 0.15858 0.0
C245 C 0.32295 0.63587 0.14997 0.0
C246 C 0.35562 0.6613 0.14834 0.0
C247 C 0.36627 0.67575 0.16489 0.0
C248 C 0.35598 0.66607 0.12232 0.0
C249 C 0.36728 0.68467 0.11305 0.0
C250 C 0.37838 0.69877 0.12967 0.0
C251 C 0.35339 0.59956 0.21257 0.0
C252 C 0.3423 0.59916 0.2355 0.0
C253 C 0.37509 0.59072 0.2117 0.0
C254 C 0.38583 0.58229 0.23361 0.0
C255 C 0.37516 0.58293 0.25678 0.0
C256 C 0.35318 0.59108 0.2575 0.0
C257 C 0.37752 0.69422 0.15568 0.0
H258 H 0.23836 0.60051 0.17728 0.0
H259 H 0.27587 0.60974 0.1909 0.0
H260 H 0.29535 0.61523 0.11335 0.0
H261 H 0.25779 0.60584 0.09965 0.0
H262 H 0.313 0.59259 0.19104 0.0
H263 H 0.31485 0.64591 0.13503 0.0
H264 H 0.37095 0.63266 0.18512 0.0
H265 H 0.3658 0.67287 0.18507 0.0
H266 H 0.34794 0.65519 0.10914 0.0
H267 H 0.36771 0.68776 0.0929 0.0
H268 H 0.32561 0.60607 0.23662 0.0
H269 H 0.38392 0.59086 0.19419 0.0
H270 H 0.38541 0.70508 0.169 0.0
H271 H 0.34461 0.59164 0.27516 0.0
H272 H 0.40283 0.57622 0.23263 0.0
C273 C 0.16417 0.22449 0.66013 0.0
C274 C 0.14162 0.22041 0.66445 0.0
C275 C 0.17484 0.24209 0.67166 0.0
C276 C 0.16337 0.25578 0.68814 0.0
C277 C 0.14102 0.25156 0.69299 0.0
C278 C 0.13019 0.23415 0.68111 0.0
C279 C 0.17474 0.27462 0.69989 0.0
C280 C 0.1859 0.29019 0.68478 0.0
C281 C 0.19713 0.30799 0.69563 0.0
C282 C 0.19734 0.30978 0.72189 0.0
C283 C 0.18666 0.29412 0.73728 0.0
C284 C 0.17497 0.27678 0.72614 0.0
C285 C 0.18781 0.29641 0.76493 0.0
C286 C 0.20818 0.30103 0.77689 0.0
C287 C 0.16847 0.29609 0.77913 0.0
C288 C 0.16926 0.30197 0.80442 0.0
C289 C 0.18943 0.30818 0.81587 0.0
C290 C 0.20869 0.32477 0.67979 0.0
C291 C 0.22904 0.3334 0.68809 0.0
C292 C 0.19931 0.33272 0.65667 0.0
C293 C 0.20994 0.3491 0.64237 0.0
C294 C 0.23 0.35801 0.65106 0.0
C295 C 0.23948 0.34992 0.67397 0.0
C296 C 0.20899 0.30682 0.8021 0.0
H297 H 0.17373 0.21396 0.648 0.0
H298 H 0.19218 0.24487 0.66791 0.0
H299 H 0.13182 0.26204 0.70553 0.0
H300 H 0.11277 0.23175 0.68466 0.0
H301 H 0.18587 0.28834 0.66456 0.0
H302 H 0.16668 0.2646 0.73789 0.0
H303 H 0.20548 0.32373 0.73048 0.0
H304 H 0.22341 0.30095 0.76645 0.0
H305 H 0.15256 0.29263 0.77033 0.0
H306 H 0.15388 0.30301 0.81449 0.0
H307 H 0.23702 0.32731 0.70548 0.0
H308 H 0.18353 0.32663 0.64986 0.0
H309 H 0.22481 0.31111 0.81055 0.0
H310 H 0.25518 0.35618 0.68084 0.0
H311 H 0.20228 0.35512 0.62476 0.0
Nd312 Nd 0.03417 0.99788 0.51123 0.0
Nd313 Nd 1.00282 0.03689 0.51453 0.0
C314 C 0.05331 0.9579 0.50987 0.0
C315 C 0.06307 0.94208 0.52881 0.0
C316 C 0.06513 0.91938 0.52356 0.0
C317 C 0.0758 0.90454 0.54091 0.0
C318 C 0.08473 0.91226 0.56372 0.0
C319 C 0.08196 0.935 0.56914 0.0
C320 C 0.07112 0.94973 0.55192 0.0
C321 C 0.05069 0.0322 0.53854 0.0
C322 C 0.9978 0.9984 0.55816 0.0
C323 C 0.98386 0.07698 0.51583 0.0
C324 C 0.97517 0.09326 0.49677 0.0
C325 C 0.97204 0.11567 0.50288 0.0
C326 C 0.96234 0.13089 0.48525 0.0
C327 C 0.95548 0.12386 0.46127 0.0
C328 C 0.95935 0.10145 0.45508 0.0
C329 C 0.96921 0.08634 0.47261 0.0
C330 C 0.98659 1.00251 0.48698 0.0
C331 C 0.03887 0.03621 0.46735 0.0
O332 O 0.03176 0.96093 0.51027 0.0
O333 O 0.06398 0.97653 0.50672 0.0
O334 O 0.06265 0.02019 0.52395 0.0
O335 O 0.03121 0.02512 0.53965 0.0
O336 O 1.01118 0.98633 0.54412 0.0
O337 O 0.99412 0.01984 0.55253 0.0
O338 O 1.0054 0.07374 0.5167 0.0
O339 O 0.97291 0.0584 0.51771 0.0
O340 O 0.97445 1.01431 0.50161 0.0
O341 O 1.00594 1.00984 0.48605 0.0
O342 O 0.02594 0.04844 0.48174 0.0
O343 O 0.04215 0.01467 0.47282 0.0
H344 H 0.05882 0.91319 0.50588 0.0
H345 H 0.07727 0.88709 0.5363 0.0
H346 H 0.08886 0.94167 0.58628 0.0
H347 H 0.06955 0.96722 0.55637 0.0
H348 H 0.97674 0.1213 0.5214 0.0
H349 H 0.95998 0.14809 0.49052 0.0
H350 H 0.95403 0.0953 0.437 0.0
H351 H 0.97164 0.06908 0.46753 0.0
Nd352 Nd 0.51703 1.00068 0.03003 0.0
Nd353 Nd 0.51422 0.02822 0.98839 0.0
C354 C 0.52073 0.96664 0.06296 0.0
C355 C 0.51043 0.94478 0.06636 0.0
C356 C 0.50372 0.93244 0.04554 0.0
C357 C 0.49338 0.91197 0.04904 0.0
C358 C 0.48972 0.90342 0.07344 0.0
C359 C 0.4966 0.91577 0.09425 0.0
C360 C 0.50682 0.93631 0.0907 0.0
C361 C 0.48233 0.03191 0.03492 0.0
C362 C 0.48767 0.98449 0.98154 0.0
C363 C 0.51129 0.06271 0.95612 0.0
C364 C 0.52416 0.08309 0.95322 0.0
C365 C 0.51423 0.10234 0.94203 0.0
C366 C 0.52584 0.1223 0.94102 0.0
C367 C 0.54756 0.12323 0.95117 0.0
C368 C 0.55752 0.10379 0.96214 0.0
C369 C 0.54587 0.0839 0.96326 0.0
C370 C 0.54926 0.99731 0.98381 0.0
C371 C 0.54342 0.04473 0.03681 0.0
O372 O 0.53346 0.96908 0.0436 0.0
O373 O 0.50788 0.98404 0.06611 0.0
O374 O 0.49785 0.02751 0.05173 0.0
O375 O 0.48606 0.02079 0.01532 0.0
O376 O 0.49994 0.97795 1.00127 0.0
O377 O 0.48753 1.00545 0.97392 0.0
O378 O 0.49982 0.06132 0.97657 0.0
O379 O 0.52161 0.04401 0.95137 0.0
O380 O 0.53389 1.00163 0.96682 0.0
O381 O 0.54526 1.00843 1.00332 0.0
O382 O 0.53141 0.05112 0.01684 0.0
O383 O 0.54335 0.02384 0.04469 0.0
H384 H 0.50651 0.9386 0.02657 0.0
H385 H 0.48848 0.90272 0.03267 0.0
H386 H 0.49377 0.90971 0.11326 0.0
H387 H 0.51181 0.94566 0.10698 0.0
H388 H 0.49741 0.10201 0.93441 0.0
H389 H 0.51785 0.13701 0.93228 0.0
H390 H 0.57411 0.1041 0.9704 0.0
H391 H 0.55366 0.06924 0.97235 0.0
Nd392 Nd 0.50015 0.4959 0.50676 0.0
Nd393 Nd 0.54207 0.52415 0.51539 0.0
C394 C 0.46046 0.48208 0.49303 0.0
C395 C 0.43817 0.48091 0.50336 0.0
C396 C 0.41985 0.47833 0.48709 0.0
C397 C 0.39871 0.47549 0.49677 0.0
C398 C 0.39559 0.47509 0.52293 0.0
C399 C 0.41398 0.47853 0.53911 0.0
C400 C 0.43508 0.48149 0.52938 0.0
C401 C 0.52537 0.48354 0.5485 0.0
C402 C 0.497 0.54091 0.54116 0.0
C403 C 0.58151 0.53965 0.52762 0.0
C404 C 0.6024 0.54486 0.51542 0.0
C405 C 0.62131 0.54892 0.53026 0.0
C406 C 0.64067 0.55632 0.51906 0.0
C407 C 0.64136 0.55988 0.49281 0.0
C408 C 0.62259 0.55481 0.47794 0.0
C409 C 0.60326 0.54732 0.48917 0.0
C410 C 0.51682 0.53573 0.4733 0.0
C411 C 0.54555 0.47792 0.48285 0.0
O412 O 0.46755 0.50208 0.48732 0.0
O413 O 0.47569 0.46908 0.50409 0.0
O414 O 0.51397 0.4694 0.53568 0.0
O415 O 0.52136 0.50323 0.54072 0.0
O416 O 0.48617 0.52672 0.52697 0.0
O417 O 0.51889 0.5407 0.54293 0.0
O418 O 0.57662 0.51851 0.52998 0.0
O419 O 0.56444 0.55241 0.52073 0.0
O420 O 0.52733 0.55031 0.48639 0.0
O421 O 0.52135 0.5163 0.48141 0.0
O422 O 0.55622 0.49279 0.49631 0.0
O423 O 0.52367 0.47778 0.48098 0.0
H424 H 0.42197 0.47805 0.46692 0.0
H425 H 0.38486 0.47328 0.48379 0.0
H426 H 0.41226 0.47805 0.55934 0.0
H427 H 0.44908 0.48361 0.5422 0.0
H428 H 0.6209 0.54698 0.55056 0.0
H429 H 0.65495 0.55971 0.53099 0.0
H430 H 0.62245 0.55759 0.45772 0.0
H431 H 0.58876 0.54421 0.47745 0.0
Nd432 Nd 0.99741 0.51069 0.02657 0.0
Nd433 Nd 0.03745 0.52259 0.9953 0.0
C434 C 0.95647 0.50526 0.0417 0.0
C435 C 0.93736 0.521 0.04207 0.0
C436 C 0.93045 0.53331 0.02025 0.0
C437 C 0.91573 0.5515 0.02187 0.0
C438 C 0.90772 0.55775 0.0453 0.0
C439 C 0.91333 0.54432 0.06676 0.0
C440 C 0.92798 0.52611 0.06513 0.0
C441 C 0.03027 0.53254 0.05159 0.0
C442 C 0.99722 0.55942 0.99271 0.0
C443 C 0.07841 0.52654 0.98003 0.0
C444 C 0.0941 0.50818 0.97527 0.0
C445 C 0.11712 0.51112 0.97652 0.0
C446 C 0.13162 0.49278 0.97384 0.0
C447 C 0.12318 0.4713 0.97027 0.0
C448 C 0.10009 0.46861 0.96895 0.0
C449 C 0.08574 0.48682 0.97144 0.0
C450 C 1.00477 0.50073 0.97005 0.0
C451 C 0.0377 0.47379 0.02957 0.0
O452 O 0.96312 0.49935 0.01955 0.0
O453 O 0.97298 0.50969 0.05708 0.0
O454 O 0.01921 0.51643 0.0619 0.0
O455 O 0.02316 0.53709 0.02958 0.0
O456 O 0.98562 0.54321 1.00353 0.0
O457 O 0.01899 0.55685 0.9902 0.0
O458 O 0.07309 0.52826 1.00363 0.0
O459 O 0.06113 0.52809 0.96461 0.0
O460 O 1.01616 0.51657 0.95972 0.0
O461 O 1.01173 0.49624 0.99215 0.0
O462 O 0.04894 0.48934 0.01715 0.0
O463 O 1.01626 0.47692 0.03373 0.0
H464 H 0.93729 0.52971 1.00212 0.0
H465 H 0.91143 0.56128 1.00495 0.0
H466 H 0.90766 0.54875 0.08518 0.0
H467 H 0.93306 0.51686 0.08218 0.0
H468 H 0.12382 0.52745 0.97981 0.0
H469 H 0.14936 0.4953 0.9749 0.0
H470 H 0.09304 0.45242 0.96568 0.0
H471 H 0.068 0.48415 0.97063 0.0
C472 C 0.14522 0.1073 0.28188 0.0
C473 C 0.13822 0.12825 0.27134 0.0
C474 C 0.13446 0.09747 0.30268 0.0
C475 C 0.09671 0.11071 0.35619 0.0
H476 H 0.08843 0.04677 0.3595 0.0
C477 C 0.04461 0.06886 0.43629 0.0
C478 C 0.04978 0.04676 0.44462 0.0
C479 C 0.05506 0.0787 0.41527 0.0
C480 C 0.0908 0.06463 0.35934 0.0
H481 H 0.11415 0.1552 0.27554 0.0
H482 H 0.09557 0.13821 0.31142 0.0
H483 H 0.10715 0.06368 0.32386 0.0
H484 H 0.07055 0.01797 0.43684 0.0
H485 H 0.08899 0.03503 0.40108 0.0
H486 H 0.08072 0.11173 0.3918 0.0
C487 C 0.10948 0.12928 0.30361 0.0
C488 C 0.10162 0.07443 0.33859 0.0
C489 C 0.12008 0.139 0.28267 0.0
C490 C 0.06585 0.03493 0.43111 0.0
C491 C 0.07643 0.0448 0.41025 0.0
C492 C 0.08605 0.1009 0.37706 0.0
C493 C 0.11637 0.10826 0.31405 0.0
C494 C 0.1048 0.0977 0.33651 0.0
C495 C 0.0713 0.06694 0.40176 0.0
C496 C 0.08279 0.0776 0.37916 0.0
H497 H 0.15891 0.09822 0.27383 0.0
H498 H 0.14059 0.08143 0.31005 0.0
H499 H 0.09898 0.1286 0.35577 0.0
H500 H 0.03232 0.07863 0.44594 0.0
H501 H 0.05008 0.09556 0.4095 0.0
C502 C 0.39765 0.83439 0.86568 0.0
C503 C 0.39777 0.83828 0.83952 0.0
C504 C 0.40733 0.84958 0.88196 0.0
C505 C 0.44618 0.89732 0.88244 0.0
H506 H 0.41945 0.90917 0.94649 0.0
C507 C 0.46955 0.97273 0.94146 0.0
C508 C 0.47545 0.96795 0.96679 0.0
C509 C 0.45967 0.95653 0.92677 0.0
C510 C 0.42713 0.90589 0.92871 0.0
H511 H 0.40752 0.86132 0.80986 0.0
H512 H 0.42374 0.88813 0.83807 0.0
H513 H 0.40311 0.88154 0.91904 0.0
H514 H 0.47472 0.94283 0.9969 0.0
H515 H 0.45705 0.91456 0.97122 0.0
H516 H 0.46975 0.92222 0.89187 0.0
C517 C 0.41692 0.87304 0.84617 0.0
C518 C 0.41788 0.88999 0.91302 0.0
C519 C 0.40754 0.85772 0.82994 0.0
C520 C 0.47055 0.9469 0.97738 0.0
C521 C 0.46033 0.93079 0.96276 0.0
C522 C 0.45519 0.91341 0.89794 0.0
C523 C 0.41706 0.86916 0.87241 0.0
C524 C 0.42722 0.88557 0.88959 0.0
C525 C 0.45517 0.93535 0.9372 0.0
C526 C 0.4457 0.91793 0.92115 0.0
H527 H 0.39033 0.81944 0.87353 0.0
H528 H 0.40741 0.84582 0.90199 0.0
H529 H 0.4542 0.89403 0.86488 0.0
H530 H 0.47315 0.98877 0.93275 0.0
H531 H 0.45564 0.96052 0.90717 0.0
C532 C 0.65176 0.45342 0.73133 0.0
C533 C 0.64862 0.43292 0.7442 0.0
C534 C 0.63922 0.45914 0.70957 0.0
C535 C 0.60746 0.43512 0.65791 0.0
H536 H 0.57658 0.49252 0.65321 0.0
C537 C 0.54127 0.45576 0.58022 0.0
C538 C 0.54 0.47771 0.57034 0.0
C539 C 0.55509 0.45041 0.60107 0.0
C540 C 0.58537 0.47657 0.65397 0.0
H541 H 0.62945 0.40255 0.74433 0.0
H542 H 0.60818 0.41229 0.70601 0.0
H543 H 0.60038 0.48319 0.68985 0.0
H544 H 0.55225 0.51126 0.57415 0.0
H545 H 0.57697 0.50184 0.60988 0.0
H546 H 0.59286 0.42853 0.62192 0.0
C547 C 0.62045 0.42383 0.71275 0.0
C548 C 0.59894 0.47124 0.67502 0.0
C549 C 0.63274 0.41824 0.73465 0.0
C550 C 0.55289 0.49419 0.58147 0.0
C551 C 0.56692 0.48881 0.60208 0.0
C552 C 0.59411 0.44054 0.6367 0.0
C553 C 0.6235 0.44436 0.70008 0.0
C554 C 0.60995 0.4504 0.67726 0.0
C555 C 0.56812 0.46688 0.61226 0.0
C556 C 0.58275 0.46127 0.63455 0.0
H557 H 0.66405 0.46499 0.73791 0.0
H558 H 0.64198 0.475 0.69999 0.0
H559 H 0.61598 0.41901 0.6591 0.0
H560 H 0.53141 0.44278 0.572 0.0
H561 H 0.5553 0.43344 0.60864 0.0
C562 C 0.85267 0.72258 0.15259 0.0
C563 C 0.86886 0.72019 0.17207 0.0
C564 C 0.85467 0.71059 0.13052 0.0
C565 C 0.89406 0.67611 0.09453 0.0
H566 H 0.84266 0.64035 0.07974 0.0
C567 C 0.90407 0.5989 0.03581 0.0
C568 C 0.89618 0.57964 0.04816 0.0
C569 C 0.89672 0.6201 0.04259 0.0
C570 C 0.85709 0.65035 0.08344 0.0
H571 H 0.90025 0.70389 0.18303 0.0
H572 H 0.90384 0.68344 0.14468 0.0
H573 H 0.83928 0.6715 0.10806 0.0
H574 H 0.87266 0.56749 0.07529 0.0
H575 H 0.86035 0.60436 0.08769 0.0
H576 H 0.91232 0.65406 0.07156 0.0
C577 C 0.88971 0.69472 0.14627 0.0
C578 C 0.85511 0.66835 0.09946 0.0
C579 C 0.88765 0.70652 0.16834 0.0
C580 C 0.87936 0.58201 0.06578 0.0
C581 C 0.87209 0.6032 0.07265 0.0
C582 C 0.89606 0.65814 0.07856 0.0
C583 C 0.87299 0.69617 0.12739 0.0
C584 C 0.87382 0.68078 0.10604 0.0
C585 C 0.88143 0.6225 0.06194 0.0
C586 C 0.87783 0.64445 0.0737 0.0
H587 H 0.83817 0.73327 0.15466 0.0
H588 H 0.84163 0.71218 0.11617 0.0
H589 H 0.90868 0.68562 0.09897 0.0
H590 H 0.91709 0.59772 0.02219 0.0
H591 H 0.90395 0.63463 0.03367 0.0
C592 C 0.31344 0.12098 0.12972 0.0
C593 C 0.29631 0.12974 0.11339 0.0
C594 C 0.33282 0.11053 0.12061 0.0
C595 C 0.35921 0.08885 0.0603 0.0
H596 H 0.41117 0.08351 0.10423 0.0
C597 C 0.44035 0.0402 0.02909 0.0
C598 C 0.46092 0.0441 0.04123 0.0
C599 C 0.42037 0.05055 0.03706 0.0
C600 C 0.39716 0.085 0.09118 0.0
H601 H 0.28754 0.1336 0.07358 0.0
H602 H 0.32127 0.11704 0.05801 0.0
H603 H 0.37824 0.10192 0.11858 0.0
H604 H 0.4762 0.0629 0.07088 0.0
H605 H 0.44248 0.08166 0.08362 0.0
H606 H 0.37873 0.07298 0.03237 0.0
C607 C 0.31956 0.11754 0.07817 0.0
C608 C 0.3776 0.09539 0.09985 0.0
C609 C 0.29994 0.12764 0.08731 0.0
C610 C 0.46079 0.05921 0.06108 0.0
C611 C 0.44104 0.06987 0.06869 0.0
C612 C 0.37897 0.07879 0.05143 0.0
C613 C 0.33658 0.1086 0.09456 0.0
C614 C 0.35795 0.09754 0.08478 0.0
C615 C 0.42013 0.06559 0.05727 0.0
C616 C 0.39855 0.07653 0.06664 0.0
H617 H 0.31224 0.12225 0.14987 0.0
H618 H 0.34474 0.10377 0.13444 0.0
H619 H 0.34483 0.08952 0.04774 0.0
H620 H 0.43956 0.02858 0.01386 0.0
H621 H 0.40506 0.04621 0.02757 0.0
C622 C 0.23226 0.80476 0.67067 0.0
C623 C 0.23946 0.81205 0.69437 0.0
C624 C 0.21271 0.8134 0.65927 0.0
C625 C 0.17474 0.86258 0.66069 0.0
H626 H 0.13887 0.82742 0.6157 0.0
C627 C 0.09763 0.89967 0.60732 0.0
C628 C 0.09812 0.89712 0.5811 0.0
C629 C 0.11214 0.88724 0.62339 0.0
C630 C 0.14873 0.83739 0.62827 0.0
H631 H 0.23122 0.83375 0.72493 0.0
H632 H 0.19665 0.84809 0.70554 0.0
H633 H 0.16918 0.80939 0.64043 0.0
H634 H 0.11383 0.87879 0.55143 0.0
H635 H 0.13863 0.85674 0.57956 0.0
H636 H 0.15421 0.89056 0.64846 0.0
C637 C 0.20645 0.83609 0.69546 0.0
C638 C 0.16617 0.82713 0.64234 0.0
C639 C 0.22616 0.82762 0.70676 0.0
C640 C 0.1127 0.88101 0.5715 0.0
C641 C 0.127 0.8684 0.5876 0.0
C642 C 0.15714 0.87275 0.64688 0.0
C643 C 0.19965 0.82935 0.67139 0.0
C644 C 0.1797 0.83969 0.65834 0.0
C645 C 0.12721 0.87176 0.61363 0.0
C646 C 0.14424 0.86035 0.63019 0.0
H647 H 0.24182 0.79246 0.66076 0.0
H648 H 0.20822 0.80797 0.64061 0.0
H649 H 0.18497 0.87291 0.67245 0.0
H650 H 0.0863 0.91155 0.61545 0.0
H651 H 0.1118 0.88994 0.64344 0.0
C652 C 0.81978 0.4577 0.88607 0.0
C653 C 0.80915 0.44136 0.90068 0.0
C654 C 0.84131 0.46415 0.89242 0.0
C655 C 0.89169 0.44394 0.92682 0.0
H656 H 0.90773 0.50632 0.92591 0.0
C657 C 0.97332 0.47439 0.97131 0.0
C658 C 0.98403 0.49215 0.95926 0.0
C659 C 0.95255 0.46766 0.96257 0.0
C660 C 0.90361 0.4888 0.92587 0.0
H661 H 0.81245 0.41964 0.93397 0.0
H662 H 0.85004 0.43078 0.94491 0.0
H663 H 0.86997 0.49614 0.91408 0.0
H664 H 0.98207 0.51622 0.92805 0.0
H665 H 0.94593 0.50417 0.9124 0.0
H666 H 0.92528 0.43655 0.9386 0.0
C667 C 0.84187 0.43832 0.92831 0.0
C668 C 0.88197 0.483 0.91917 0.0
C669 C 0.82034 0.43195 0.92204 0.0
C670 C 0.97409 0.50251 0.93772 0.0
C671 C 0.95333 0.49575 0.92892 0.0
C672 C 0.91334 0.44972 0.93342 0.0
C673 C 0.85265 0.45432 0.91345 0.0
C674 C 0.87575 0.46052 0.91979 0.0
C675 C 0.94218 0.47848 0.94149 0.0
C676 C 0.9195 0.47223 0.93323 0.0
H677 H 0.8117 0.46508 0.86934 0.0
H678 H 0.8493 0.4764 0.88051 0.0
H679 H 0.88746 0.42644 0.92705 0.0
H680 H 0.98072 0.46607 0.9879 0.0
H681 H 0.94433 0.45445 0.97283 0.0
C682 C 0.76073 0.68114 0.37273 0.0
C683 C 0.78359 0.67621 0.37193 0.0
C684 C 0.74679 0.66756 0.38676 0.0
C685 C 0.74231 0.61113 0.4153 0.0
H686 H 0.69661 0.63951 0.45419 0.0
C687 C 0.6683 0.56393 0.45761 0.0
C688 C 0.66082 0.57053 0.48118 0.0
C689 C 0.68513 0.57558 0.44562 0.0
C690 C 0.70944 0.6313 0.44367 0.0
H691 H 0.80969 0.65295 0.38495 0.0
H692 H 0.78532 0.62936 0.40982 0.0
H693 H 0.72231 0.66248 0.43081 0.0
H694 H 0.66564 0.59419 0.51091 0.0
H695 H 0.6953 0.61406 0.49032 0.0
H696 H 0.72944 0.57991 0.4284 0.0
C697 C 0.7782 0.64367 0.39942 0.0
C698 C 0.72399 0.64448 0.43001 0.0
C699 C 0.79218 0.65731 0.3854 0.0
C700 C 0.67113 0.5885 0.49289 0.0
C701 C 0.68795 0.60009 0.48094 0.0
C702 C 0.7277 0.59792 0.42897 0.0
C703 C 0.75537 0.64872 0.40033 0.0
C704 C 0.74047 0.63456 0.4155 0.0
C705 C 0.69482 0.59407 0.45695 0.0
C706 C 0.71103 0.60788 0.44322 0.0
H707 H 0.75363 0.6957 0.36277 0.0
H708 H 0.72922 0.67174 0.38684 0.0
H709 H 0.75476 0.60301 0.40416 0.0
H710 H 0.66088 0.55 0.44823 0.0
H711 H 0.68998 0.57059 0.42708 0.0
C712 C 0.12112 0.28597 0.09667 0.0
C713 C 0.14112 0.28616 0.11108 0.0
C714 C 0.11036 0.30595 0.08771 0.0
C715 C 0.11873 0.36862 0.07806 0.0
H716 H 0.05487 0.36966 0.06807 0.0
C717 C 0.07175 0.44749 0.03239 0.0
C718 C 0.04956 0.45229 0.03871 0.0
C719 C 0.08283 0.42752 0.04087 0.0
C720 C 0.07269 0.37002 0.07092 0.0
H721 H 0.16504 0.30857 0.1272 0.0
H722 H 0.14639 0.34305 0.1121 0.0
H723 H 0.07372 0.33571 0.08373 0.0
H724 H 0.02201 0.43917 0.05953 0.0
H725 H 0.0412 0.40502 0.07475 0.0
H726 H 0.1176 0.40317 0.06607 0.0
C727 C 0.13908 0.32737 0.10714 0.0
C728 C 0.08373 0.35011 0.07965 0.0
C729 C 0.14992 0.30734 0.11597 0.0
C730 C 0.03898 0.43627 0.05398 0.0
C731 C 0.0501 0.41637 0.06264 0.0
C732 C 0.10767 0.38858 0.06943 0.0
C733 C 0.11897 0.3272 0.09283 0.0
C734 C 0.10705 0.34885 0.08343 0.0
C735 C 0.07232 0.41143 0.05629 0.0
C736 C 0.08435 0.38982 0.06562 0.0
H737 H 0.11378 0.27024 0.09188 0.0
H738 H 0.09533 0.30456 0.07638 0.0
H739 H 0.13662 0.36876 0.08022 0.0
H740 H 0.08067 0.45917 0.02068 0.0
H741 H 0.09967 0.42466 0.03493 0.0
C742 C 0.66168 0.28572 0.9183 0.0
C743 C 0.65241 0.30677 0.92351 0.0
C744 C 0.65087 0.2662 0.9253 0.0
C745 C 0.59528 0.24591 0.93608 0.0
H746 H 0.62619 0.19269 0.96279 0.0
C747 C 0.54911 0.16444 0.9574 0.0
C748 C 0.5597 0.14447 0.95065 0.0
C749 C 0.56057 0.18448 0.95694 0.0
C750 C 0.61736 0.20736 0.95513 0.0
H751 H 0.62505 0.32372 0.94133 0.0
H752 H 0.60598 0.28953 0.95317 0.0
H753 H 0.64633 0.22743 0.95762 0.0
H754 H 0.59047 0.12977 0.938 0.0
H755 H 0.61038 0.16481 0.93668 0.0
H756 H 0.56651 0.22582 0.93277 0.0
C757 C 0.62154 0.28825 0.94347 0.0
C758 C 0.62887 0.22725 0.95228 0.0
C759 C 0.63244 0.30779 0.93663 0.0
C760 C 0.58198 0.1449 0.94354 0.0
C761 C 0.5934 0.16495 0.94291 0.0
C762 C 0.5838 0.22601 0.93876 0.0
C763 C 0.63049 0.26728 0.93751 0.0
C764 C 0.61799 0.24665 0.94249 0.0
C765 C 0.58281 0.185 0.94955 0.0
C766 C 0.59476 0.20643 0.94807 0.0
H767 H 0.67684 0.28429 0.90786 0.0
H768 H 0.65801 0.25027 0.92017 0.0
H769 H 0.58655 0.26053 0.92813 0.0
H770 H 0.53204 0.16452 0.96334 0.0
H771 H 0.55203 0.19954 0.96257 0.0
C772 C 0.90311 0.8412 0.38971 0.0
C773 C 0.91065 0.83585 0.36582 0.0
C774 C 0.91241 0.85876 0.40274 0.0
C775 C 0.94614 0.90949 0.39315 0.0
H776 H 0.95072 0.90623 0.46606 0.0
C777 C 0.99144 0.97451 0.45358 0.0
C778 C 0.97872 0.9833 0.47289 0.0
C779 C 0.98398 0.95619 0.44031 0.0
C780 C 0.94946 0.90734 0.4457 0.0
H781 H 0.93409 0.84419 0.33696 0.0
H782 H 0.95102 0.8744 0.36007 0.0
H783 H 0.93691 0.87436 0.44333 0.0
H784 H 0.94851 0.97981 0.49384 0.0
H785 H 0.93567 0.94741 0.47095 0.0
H786 H 0.9593 0.94237 0.39576 0.0
C787 C 0.93745 0.86553 0.3685 0.0
C788 C 0.94144 0.88916 0.43264 0.0
C789 C 0.92787 0.84817 0.35529 0.0
C790 C 0.95855 0.97338 0.47893 0.0
C791 C 0.95129 0.95482 0.46598 0.0
C792 C 0.95452 0.92752 0.40623 0.0
C793 C 0.92974 0.87116 0.39235 0.0
C794 C 0.93939 0.89009 0.40619 0.0
C795 C 0.9639 0.94613 0.4465 0.0
C796 C 0.95599 0.92669 0.43261 0.0
H797 H 0.88964 0.8321 0.39807 0.0
H798 H 0.90566 0.86286 0.42077 0.0
H799 H 0.94448 0.91103 0.37286 0.0
H800 H 1.00709 0.98187 0.44864 0.0
H801 H 0.99402 0.94968 0.42545 0.0
C802 C 0.41517 0.66885 0.69198 0.0
C803 C 0.39699 0.68159 0.68232 0.0
C804 C 0.42509 0.65251 0.67744 0.0
C805 C 0.41633 0.62015 0.61892 0.0
H806 H 0.47999 0.6108 0.62582 0.0
C807 C 0.46284 0.55209 0.56412 0.0
C808 C 0.4845 0.55666 0.55661 0.0
C809 C 0.45164 0.56665 0.57984 0.0
C810 C 0.46223 0.61337 0.62334 0.0
H811 H 0.37503 0.68763 0.64995 0.0
H812 H 0.39286 0.65993 0.62407 0.0
H813 H 0.46169 0.63765 0.6519 0.0
H814 H 0.51112 0.5804 0.55873 0.0
H815 H 0.49136 0.60623 0.585 0.0
H816 H 0.41712 0.59681 0.58927 0.0
C817 C 0.39907 0.6618 0.64315 0.0
C818 C 0.45161 0.62853 0.63873 0.0
C819 C 0.38891 0.6778 0.65788 0.0
C820 C 0.49453 0.5763 0.56452 0.0
C821 C 0.48323 0.59103 0.57978 0.0
C822 C 0.42701 0.60526 0.6032 0.0
C823 C 0.41732 0.6489 0.6527 0.0
C824 C 0.42851 0.63221 0.63672 0.0
C825 C 0.46175 0.58628 0.58801 0.0
C826 C 0.45015 0.60173 0.6051 0.0
H827 H 0.42154 0.67137 0.71089 0.0
H828 H 0.43877 0.64265 0.68571 0.0
H829 H 0.39847 0.62218 0.61706 0.0
H830 H 0.45476 0.53698 0.5584 0.0
H831 H 0.43527 0.56222 0.586 0.0
C832 C 0.89035 0.90019 0.72571 0.0
C833 C 0.89645 0.90469 0.75084 0.0
C834 C 0.90119 0.91035 0.70519 0.0
C835 C 0.95408 0.93726 0.68664 0.0
H836 H 0.91975 0.96161 0.62934 0.0
C837 C 0.99452 0.96726 0.59169 0.0
C838 C 0.98666 0.98769 0.58061 0.0
C839 C 0.98393 0.95729 0.61254 0.0
C840 C 0.92968 0.95495 0.64515 0.0
H841 H 0.9194 0.92349 0.77351 0.0
H842 H 0.93857 0.94069 0.73791 0.0
H843 H 0.9008 0.94416 0.6649 0.0
H844 H 0.96096 1.01327 0.58317 0.0
H845 H 0.94228 0.99569 0.6188 0.0
H846 H 0.98298 0.94771 0.66666 0.0
C847 C 0.92517 0.9294 0.73406 0.0
C848 C 0.91876 0.94474 0.66559 0.0
C849 C 0.914 0.91961 0.75459 0.0
C850 C 0.96769 0.99763 0.59106 0.0
C851 C 0.95683 0.98743 0.61153 0.0
C852 C 0.96503 0.94703 0.66594 0.0
C853 C 0.91891 0.92507 0.70893 0.0
C854 C 0.93071 0.93581 0.68683 0.0
C855 C 0.96476 0.96709 0.62276 0.0
C856 C 0.95305 0.95621 0.64484 0.0
H857 H 0.8769 0.88896 0.72184 0.0
H858 H 0.89586 0.90638 0.68627 0.0
H859 H 0.964 0.93052 0.70242 0.0
H860 H 1.00903 0.95897 0.58435 0.0
H861 H 0.99057 0.94161 0.6204 0.0
C862 C 0.63487 0.16316 0.18821 0.0
C863 C 0.64119 0.18466 0.18034 0.0
C864 C 0.62376 0.14928 0.1717 0.0
C865 C 0.61266 0.14053 0.10396 0.0
H866 H 0.56769 0.10119 0.12992 0.0
C867 C 0.55799 0.08335 0.04199 0.0
C868 C 0.5558 0.06132 0.05135 0.0
C869 C 0.56844 0.09933 0.05662 0.0
C870 C 0.58031 0.11199 0.12244 0.0
H871 H 0.64056 0.20847 0.14881 0.0
H872 H 0.62052 0.18444 0.12012 0.0
H873 H 0.58489 0.12792 0.15756 0.0
H874 H 0.56328 0.03869 0.08315 0.0
H875 H 0.58131 0.06656 0.10861 0.0
H876 H 0.60773 0.12457 0.06868 0.0
C877 C 0.62455 0.17818 0.13902 0.0
C878 C 0.59022 0.12728 0.13828 0.0
C879 C 0.6358 0.19207 0.15556 0.0
C880 C 0.56465 0.0555 0.07538 0.0
C881 C 0.57485 0.07149 0.09005 0.0
C882 C 0.60255 0.12532 0.08801 0.0
C883 C 0.61844 0.15658 0.14689 0.0
C884 C 0.6068 0.14149 0.12939 0.0
C885 C 0.57663 0.09361 0.08096 0.0
C886 C 0.58654 0.11066 0.09724 0.0
H887 H 0.63841 0.157 0.20726 0.0
H888 H 0.61963 0.13266 0.17835 0.0
H889 H 0.62551 0.15104 0.09653 0.0
H890 H 0.55138 0.08834 0.02351 0.0
H891 H 0.56955 0.11628 0.04918 0.0
C892 C 0.38835 0.59172 0.30012 0.0
C893 C 0.38758 0.57675 0.28031 0.0
C894 C 0.40164 0.58695 0.32151 0.0
C895 C 0.44987 0.55135 0.34319 0.0
H896 H 0.43289 0.57102 0.40904 0.0
C897 C 0.49575 0.52358 0.43552 0.0
C898 C 0.50211 0.54081 0.45136 0.0
C899 C 0.48163 0.52809 0.41478 0.0
C900 C 0.43785 0.56559 0.3907 0.0
H901 H 0.39933 0.54474 0.26754 0.0
H902 H 0.42188 0.53584 0.30536 0.0
H903 H 0.40754 0.57755 0.37299 0.0
H904 H 0.49858 0.57614 0.45834 0.0
H905 H 0.47333 0.584 0.42211 0.0
H906 H 0.4799 0.53879 0.36126 0.0
C907 C 0.41284 0.55164 0.30412 0.0
C908 C 0.4234 0.56936 0.37001 0.0
C909 C 0.39981 0.5566 0.28254 0.0
C910 C 0.49397 0.56262 0.44629 0.0
C911 C 0.47949 0.56707 0.42573 0.0
C912 C 0.46412 0.54727 0.36394 0.0
C913 C 0.41423 0.56692 0.32371 0.0
C914 C 0.42926 0.56236 0.34595 0.0
C915 C 0.47332 0.54984 0.40976 0.0
C916 C 0.45826 0.55442 0.38783 0.0
H917 H 0.3793 0.60753 0.29865 0.0
H918 H 0.40256 0.59931 0.33595 0.0
H919 H 0.45522 0.54616 0.32492 0.0
H920 H 0.50177 0.5066 0.43908 0.0
H921 H 0.47695 0.51451 0.40283 0.0
C922 C 0.17677 0.31041 0.86052 0.0
C923 C 0.18963 0.31871 0.84078 0.0
C924 C 0.17478 0.32231 0.88265 0.0
C925 C 0.19616 0.37218 0.9162 0.0
H926 H 0.13476 0.37853 0.93533 0.0
C927 C 0.15554 0.4531 0.94966 0.0
C928 C 0.138 0.4517 0.96652 0.0
C929 C 0.16648 0.43371 0.94211 0.0
C930 C 0.1521 0.37664 0.93073 0.0
H931 H 0.21102 0.34561 0.82908 0.0
H932 H 0.20722 0.36645 0.8671 0.0
H933 H 0.1453 0.34915 0.90734 0.0
H934 H 0.11983 0.42926 0.99086 0.0
H935 H 0.13881 0.39541 0.97748 0.0
H936 H 0.20243 0.40088 0.93834 0.0
C937 C 0.19913 0.35051 0.86603 0.0
C938 C 0.15819 0.35969 0.91466 0.0
C939 C 0.20126 0.33856 0.84408 0.0
C940 C 0.13296 0.43078 0.97739 0.0
C941 C 0.14384 0.41142 0.96979 0.0
C942 C 0.18999 0.38932 0.93209 0.0
C943 C 0.1854 0.34288 0.88534 0.0
C944 C 0.18013 0.35774 0.90644 0.0
C945 C 0.16006 0.41262 0.9513 0.0
C946 C 0.16774 0.39214 0.93883 0.0
H947 H 0.16783 0.29501 0.85859 0.0
H948 H 0.16436 0.31574 0.89732 0.0
H949 H 0.21332 0.37084 0.91072 0.0
H950 H 0.15973 0.46897 0.94092 0.0
H951 H 0.17881 0.43515 0.92769 0.0
C952 C 0.72056 0.91128 0.89091 0.0
C953 C 0.73753 0.90247 0.90743 0.0
C954 C 0.70094 0.92141 0.8998 0.0
C955 C 0.67343 0.94211 0.95989 0.0
H956 H 0.62202 0.94726 0.91512 0.0
C957 C 0.59129 0.98956 0.99018 0.0
C958 C 0.57092 0.98546 0.97769 0.0
C959 C 0.6115 0.97953 0.98243 0.0
C960 C 0.63586 0.94581 0.92839 0.0
H961 H 0.74574 0.89816 0.94732 0.0
H962 H 0.7116 0.9142 0.96251 0.0
H963 H 0.65537 0.92938 0.90113 0.0
H964 H 0.55626 0.96666 0.94765 0.0
H965 H 0.5904 0.94845 0.93527 0.0
H966 H 0.65333 0.95749 0.98765 0.0
C967 C 0.71363 0.91398 0.94238 0.0
C968 C 0.65567 0.93574 0.91994 0.0
C969 C 0.73349 0.90418 0.93346 0.0
C970 C 0.57149 0.97049 0.95772 0.0
C971 C 0.59148 0.96015 0.95033 0.0
C972 C 0.65343 0.95186 0.96852 0.0
C973 C 0.69676 0.92296 0.92581 0.0
C974 C 0.67513 0.93367 0.93534 0.0
C975 C 0.6122 0.96463 0.9621 0.0
C976 C 0.63403 0.95403 0.953 0.0
H977 H 0.72208 0.91028 0.87076 0.0
H978 H 0.68916 0.92823 0.88586 0.0
H979 H 0.68764 0.94148 0.9727 0.0
H980 H 0.59174 1.00109 1.00551 0.0
H981 H 0.62664 0.984 0.99219 0.0
C982 C 0.82149 0.20728 0.30915 0.0
C983 C 0.80656 0.22166 0.32091 0.0
C984 C 0.84094 0.19974 0.32175 0.0
C985 C 0.87682 0.20885 0.37879 0.0
H986 H 0.89233 0.14633 0.37114 0.0
C987 C 0.92717 0.15456 0.45218 0.0
C988 C 0.94304 0.13931 0.44336 0.0
C989 C 0.91371 0.16732 0.43529 0.0
C990 C 0.88843 0.16391 0.37318 0.0
H991 H 0.80029 0.23966 0.35487 0.0
H992 H 0.83379 0.22602 0.37719 0.0
H993 H 0.86262 0.16341 0.34506 0.0
H994 H 0.95809 0.12665 0.40975 0.0
H995 H 0.93407 0.1485 0.38033 0.0
H996 H 0.90203 0.2088 0.40795 0.0
C997 C 0.83095 0.22101 0.358 0.0
C998 C 0.87143 0.17377 0.35817 0.0
C999 C 0.81167 0.22878 0.34526 0.0
C1000 C 0.94572 0.13784 0.41723 0.0
C1001 C 0.93206 0.15041 0.40036 0.0
C1002 C 0.89365 0.19888 0.39404 0.0
C1003 C 0.84571 0.20613 0.34654 0.0
C1004 C 0.86517 0.1963 0.36099 0.0
C1005 C 0.91566 0.16496 0.40924 0.0
C1006 C 0.89942 0.17624 0.39158 0.0
H1007 H 0.81802 0.20175 0.29026 0.0
H1008 H 0.85212 0.18868 0.31212 0.0
H1009 H 0.87278 0.22634 0.38117 0.0
H1010 H 0.92438 0.15594 0.47212 0.0
H1011 H 0.90103 0.17823 0.44265 0.0
C1012 C 0.21113 0.57921 0.14203 0.0
C1013 C 0.22238 0.59623 0.12917 0.0
C1014 C 0.18976 0.57338 0.13432 0.0
C1015 C 0.15156 0.57581 0.07937 0.0
H1016 H 0.10657 0.56397 0.12874 0.0
C1017 C 0.0611 0.55956 0.04983 0.0
C1018 C 0.05069 0.54185 0.06238 0.0
C1019 C 0.08141 0.5673 0.05877 0.0
C1020 C 0.11901 0.56703 0.11475 0.0
H1021 H 0.21986 0.62071 0.09834 0.0
H1022 H 0.18256 0.61043 0.08478 0.0
H1023 H 0.14346 0.57529 0.14265 0.0
H1024 H 0.0529 0.5187 0.09442 0.0
H1025 H 0.08857 0.5321 0.11003 0.0
H1026 H 0.12727 0.56733 0.05148 0.0
C1027 C 0.1904 0.60144 0.10067 0.0
C1028 C 0.14013 0.57351 0.12271 0.0
C1029 C 0.21177 0.6073 0.10841 0.0
C1030 C 0.06058 0.53243 0.08445 0.0
C1031 C 0.08095 0.54015 0.09341 0.0
C1032 C 0.13048 0.56929 0.07142 0.0
C1033 C 0.17918 0.5844 0.11353 0.0
C1034 C 0.15664 0.57792 0.1051 0.0
C1035 C 0.09173 0.55747 0.08045 0.0
C1036 C 0.11397 0.5648 0.08901 0.0
H1037 H 0.21898 0.5701 0.15784 0.0
H1038 H 0.18168 0.55994 0.14436 0.0
H1039 H 0.16404 0.57874 0.06538 0.0
H1040 H 0.05373 0.5672 0.03283 0.0
H1041 H 0.08909 0.58092 0.04862 0.0
C1042 C 0.24972 0.39429 0.64813 0.0
C1043 C 0.2414 0.37545 0.63625 0.0
C1044 C 0.26238 0.40968 0.63485 0.0
C1045 C 0.2803 0.42669 0.57055 0.0
H1046 H 0.33343 0.44454 0.60666 0.0
C1047 C 0.36094 0.45257 0.52272 0.0
C1048 C 0.3737 0.46944 0.53344 0.0
C1049 C 0.34162 0.44538 0.53413 0.0
C1050 C 0.31848 0.4401 0.59641 0.0
H1051 H 0.23907 0.35827 0.60102 0.0
H1052 H 0.26167 0.38482 0.57787 0.0
H1053 H 0.30528 0.4239 0.62885 0.0
H1054 H 0.37532 0.49295 0.5637 0.0
H1055 H 0.34168 0.48011 0.58384 0.0
H1056 H 0.29421 0.44212 0.5378 0.0
C1057 C 0.25807 0.38802 0.59731 0.0
C1058 C 0.30228 0.42827 0.60915 0.0
C1059 C 0.2452 0.37274 0.61057 0.0
C1060 C 0.36612 0.47963 0.55523 0.0
C1061 C 0.34683 0.47235 0.56672 0.0
C1062 C 0.29662 0.43842 0.55775 0.0
C1063 C 0.26722 0.40642 0.60945 0.0
C1064 C 0.28317 0.42106 0.5963 0.0
C1065 C 0.33466 0.45482 0.55658 0.0
C1066 C 0.31605 0.4449 0.57048 0.0
H1067 H 0.24669 0.39694 0.66784 0.0
H1068 H 0.26874 0.42391 0.64463 0.0
H1069 H 0.26561 0.42172 0.56017 0.0
H1070 H 0.36643 0.44411 0.50618 0.0
H1071 H 0.33276 0.43164 0.52605 0.0
C1072 C 0.88841 0.73631 0.93241 0.0
C1073 C 0.89291 0.74587 0.90847 0.0
C1074 C 0.89956 0.71663 0.94179 0.0
C1075 C 0.94925 0.67789 0.92968 0.0
H1076 H 0.92099 0.63912 0.97822 0.0
C1077 C 0.99724 0.59976 0.97532 0.0
C1078 C 0.98541 0.58091 0.98351 0.0
C1079 C 0.98615 0.61973 0.9668 0.0
C1080 C 0.92925 0.64944 0.96444 0.0
H1081 H 0.91375 0.74119 0.87617 0.0
H1082 H 0.93199 0.70701 0.89166 0.0
H1083 H 0.90161 0.67261 0.96205 0.0
H1084 H 0.95213 0.56888 0.98861 0.0
H1085 H 0.93295 0.60297 0.97343 0.0
H1086 H 0.9765 0.65428 0.93124 0.0
C1087 C 0.92012 0.71489 0.9037 0.0
C1088 C 0.91809 0.66919 0.95533 0.0
C1089 C 0.90915 0.73465 0.89444 0.0
C1090 C 0.96202 0.58289 0.98275 0.0
C1091 C 0.95091 0.60277 0.97406 0.0
C1092 C 0.96032 0.65807 0.93861 0.0
C1093 C 0.9157 0.70535 0.92766 0.0
C1094 C 0.92778 0.68397 0.93768 0.0
C1095 C 0.96268 0.62176 0.96584 0.0
C1096 C 0.95065 0.64329 0.95624 0.0
H1097 H 0.876 0.74383 0.94406 0.0
H1098 H 0.89555 0.71047 0.96042 0.0
H1099 H 0.95786 0.68857 0.91656 0.0
H1100 H 1.01521 0.5992 0.97565 0.0
H1101 H 0.99622 0.63372 0.96128 0.0
C1102 C 0.41159 0.72309 0.13136 0.0
C1103 C 0.39089 0.71826 0.1203 0.0
C1104 C 0.4226 0.74246 0.1244 0.0
C1105 C 0.42618 0.78696 0.07566 0.0
H1106 H 0.44933 0.82101 0.13109 0.0
C1107 C 0.45986 0.87641 0.06274 0.0
C1108 C 0.47875 0.88169 0.07723 0.0
C1109 C 0.44922 0.85615 0.06681 0.0
C1110 C 0.44324 0.81158 0.11536 0.0
H1111 H 0.36591 0.7295 0.09253 0.0
H1112 H 0.38531 0.7635 0.08022 0.0
H1113 H 0.4309 0.78597 0.13974 0.0
H1114 H 0.50174 0.86962 0.10673 0.0
H1115 H 0.48335 0.83421 0.11371 0.0
H1116 H 0.43866 0.81263 0.05127 0.0
C1117 C 0.39297 0.75219 0.09427 0.0
C1118 C 0.43265 0.79151 0.12033 0.0
C1119 C 0.38189 0.73275 0.10128 0.0
C1120 C 0.48699 0.86617 0.09558 0.0
C1121 C 0.47643 0.8459 0.09958 0.0
C1122 C 0.43689 0.80706 0.07066 0.0
C1123 C 0.41321 0.75745 0.10617 0.0
C1124 C 0.42414 0.77891 0.10055 0.0
C1125 C 0.45731 0.84073 0.08542 0.0
C1126 C 0.44565 0.81953 0.09048 0.0
H1127 H 0.41919 0.71198 0.14565 0.0
H1128 H 0.43841 0.74583 0.1335 0.0
H1129 H 0.41989 0.77751 0.06005 0.0
H1130 H 0.453 0.88816 0.04863 0.0
H1131 H 0.43438 0.85279 0.0558 0.0
C1132 C 0.11404 0.18925 0.66391 0.0
C1133 C 0.13025 0.20187 0.6516 0.0
C1134 C 0.1041 0.1713 0.65206 0.0
C1135 C 0.11554 0.12904 0.60696 0.0
H1136 H 0.05185 0.1237 0.59796 0.0
C1137 C 0.079 0.06119 0.54527 0.0
C1138 C 0.05895 0.05153 0.55213 0.0
C1139 C 0.08691 0.07968 0.5578 0.0
C1140 C 0.06966 0.12469 0.60069 0.0
H1141 H 0.14783 0.20596 0.61659 0.0
H1142 H 0.13119 0.17407 0.59655 0.0
H1143 H 0.06682 0.15579 0.61962 0.0
H1144 H 0.03135 0.05343 0.57739 0.0
H1145 H 0.04561 0.08518 0.60017 0.0
H1146 H 0.11866 0.09781 0.58899 0.0
C1147 C 0.12628 0.17815 0.61537 0.0
C1148 C 0.07818 0.14314 0.61297 0.0
C1149 C 0.13591 0.19631 0.62698 0.0
C1150 C 0.04689 0.06064 0.57177 0.0
C1151 C 0.055 0.07894 0.58465 0.0
C1152 C 0.10706 0.11044 0.59515 0.0
C1153 C 0.11044 0.16541 0.62787 0.0
C1154 C 0.10119 0.14557 0.61589 0.0
C1155 C 0.07515 0.0887 0.57785 0.0
C1156 C 0.08401 0.10813 0.5915 0.0
H1157 H 0.10942 0.19281 0.68296 0.0
H1158 H 0.09197 0.16158 0.66208 0.0
H1159 H 0.13336 0.13044 0.60934 0.0
H1160 H 0.08846 0.05464 0.52995 0.0
H1161 H 0.10216 0.08703 0.55152 0.0
C1162 C 0.64736 0.35441 0.34324 0.0
C1163 C 0.63962 0.33247 0.34418 0.0
C1164 C 0.63852 0.37051 0.3589 0.0
C1165 C 0.60505 0.37585 0.4167 0.0
H1166 H 0.59874 0.43771 0.39365 0.0
C1167 C 0.54852 0.44112 0.46241 0.0
C1168 C 0.55825 0.46142 0.46861 0.0
C1169 C 0.56006 0.42558 0.44838 0.0
C1170 C 0.60065 0.42052 0.40037 0.0
H1171 H 0.61619 0.3102 0.36146 0.0
H1172 H 0.59994 0.33844 0.38795 0.0
H1173 H 0.61489 0.4102 0.36604 0.0
H1174 H 0.58766 0.48146 0.46502 0.0
H1175 H 0.60767 0.45435 0.43967 0.0
H1176 H 0.58975 0.38619 0.45057 0.0
C1177 C 0.61341 0.34317 0.37591 0.0
C1178 C 0.60996 0.40473 0.38463 0.0
C1179 C 0.62255 0.327 0.36059 0.0
C1180 C 0.57981 0.46589 0.46057 0.0
C1181 C 0.5912 0.45049 0.44602 0.0
C1182 C 0.59538 0.39156 0.43221 0.0
C1183 C 0.62146 0.3651 0.37554 0.0
C1184 C 0.61214 0.38213 0.39251 0.0
C1185 C 0.58138 0.43021 0.43986 0.0
C1186 C 0.59299 0.41397 0.42411 0.0
H1187 H 0.66071 0.35893 0.33091 0.0
H1188 H 0.64542 0.38706 0.35831 0.0
H1189 H 0.60695 0.35878 0.42377 0.0
H1190 H 0.53197 0.43719 0.46846 0.0
H1191 H 0.55212 0.4101 0.44372 0.0
loop_
_geom_bond_atom_site_label_1
_geom_bond_atom_site_label_2
_geom_bond_distance
_geom_bond_site_symmetry_2
_ccdc_geom_bond_type
C0 C1 1.386 . S
C0 C2 1.397 . S
C0 H24 0.931 . S
C1 C0 1.386 . S
C1 C5 1.397 . S
C2 C0 1.397 . S
C2 C3 1.384 . S
C2 H25 0.930 . S
C3 C2 1.384 . S
C3 C4 1.377 . S
C3 C6 1.481 . S
C4 C3 1.377 . S
C4 C5 1.389 . S
C4 H26 0.929 . S
C5 C1 1.397 . S
C5 C4 1.389 . S
C5 H27 0.931 . S
C6 C3 1.481 . S
C6 C7 1.387 . S
C6 C11 1.390 . S
C7 C6 1.387 . S
C7 C8 1.401 . S
C7 H28 0.930 . S
C8 C7 1.401 . S
C8 C9 1.376 . S
C8 C17 1.511 . S
C9 C8 1.376 . S
C9 C10 1.392 . S
C9 H30 0.931 . S
C10 C9 1.392 . S
C10 C11 1.361 . S
C10 C12 1.500 . S
C11 C6 1.390 . S
C11 C10 1.361 . S
C11 H29 0.931 . S
C12 C10 1.500 . S
C12 C13 1.371 . S
C12 C14 1.365 . S
C13 C12 1.371 . S
C13 C23 1.386 . S
C13 H31 0.931 . S
C14 C12 1.365 . S
C14 C15 1.409 . S
C14 H32 0.929 . S
C15 C14 1.409 . S
C15 C16 1.380 . S
C15 H33 0.930 . S
C16 C15 1.380 . S
C16 C23 1.357 . S
C17 C8 1.511 . S
C17 C18 1.341 . S
C17 C19 1.371 . S
C18 C17 1.341 . S
C18 C22 1.394 . S
C18 H34 0.930 . S
C19 C17 1.371 . S
C19 C20 1.392 . S
C19 H35 0.931 . S
C20 C19 1.392 . S
C20 C21 1.331 . S
C20 H38 0.932 . S
C21 C20 1.331 . S
C21 C22 1.336 . S
C22 C18 1.394 . S
C22 C21 1.336 . S
C22 H37 0.929 . S
C23 C13 1.386 . S
C23 C16 1.357 . S
C23 H36 0.928 . S
H24 C0 0.931 . S
H25 C2 0.930 . S
H26 C4 0.929 . S
H27 C5 0.931 . S
H28 C7 0.930 . S
H29 C11 0.931 . S
H30 C9 0.931 . S
H31 C13 0.931 . S
H32 C14 0.929 . S
H33 C15 0.930 . S
H34 C18 0.930 . S
H35 C19 0.931 . S
H36 C23 0.928 . S
H37 C22 0.929 . S
H38 C20 0.932 . S
C39 C40 1.386 . S
C39 C41 1.397 . S
C39 H63 0.931 . S
C40 C39 1.386 . S
C40 C44 1.397 . S
C41 C39 1.397 . S
C41 C42 1.384 . S
C41 H64 0.930 . S
C42 C41 1.384 . S
C42 C43 1.377 . S
C42 C45 1.481 . S
C43 C42 1.377 . S
C43 C44 1.389 . S
C43 H65 0.929 . S
C44 C40 1.397 . S
C44 C43 1.389 . S
C44 H66 0.931 . S
C45 C42 1.481 . S
C45 C46 1.387 . S
C45 C50 1.390 . S
C46 C45 1.387 . S
C46 C47 1.401 . S
C46 H67 0.930 . S
C47 C46 1.401 . S
C47 C48 1.376 . S
C47 C56 1.511 . S
C48 C47 1.376 . S
C48 C49 1.392 . S
C48 H69 0.931 . S
C49 C48 1.392 . S
C49 C50 1.361 . S
C49 C51 1.500 . S
C50 C45 1.390 . S
C50 C49 1.361 . S
C50 H68 0.931 . S
C51 C49 1.500 . S
C51 C52 1.371 . S
C51 C53 1.365 . S
C52 C51 1.371 . S
C52 C62 1.386 . S
C52 H70 0.931 . S
C53 C51 1.365 . S
C53 C54 1.409 . S
C53 H71 0.929 . S
C54 C53 1.409 . S
C54 C55 1.380 . S
C54 H72 0.930 . S
C55 C54 1.380 . S
C55 C62 1.357 . S
C56 C47 1.511 . S
C56 C57 1.341 . S
C56 C58 1.371 . S
C57 C56 1.341 . S
C57 C61 1.394 . S
C57 H73 0.930 . S
C58 C56 1.371 . S
C58 C59 1.392 . S
C58 H74 0.931 . S
C59 C58 1.392 . S
C59 C60 1.331 . S
C59 H77 0.932 . S
C60 C59 1.331 . S
C60 C61 1.336 . S
C61 C57 1.394 . S
C61 C60 1.336 . S
C61 H76 0.929 . S
C62 C52 1.386 . S
C62 C55 1.357 . S
C62 H75 0.928 . S
H63 C39 0.931 . S
H64 C41 0.930 . S
H65 C43 0.929 . S
H66 C44 0.931 . S
H67 C46 0.930 . S
H68 C50 0.931 . S
H69 C48 0.931 . S
H70 C52 0.931 . S
H71 C53 0.929 . S
H72 C54 0.930 . S
H73 C57 0.930 . S
H74 C58 0.931 . S
H75 C62 0.928 . S
H76 C61 0.929 . S
H77 C59 0.932 . S
C78 C79 1.386 . S
C78 C80 1.397 . S
C78 H102 0.931 . S
C79 C78 1.386 . S
C79 C83 1.397 . S
C80 C78 1.397 . S
C80 C81 1.384 . S
C80 H103 0.930 . S
C81 C80 1.384 . S
C81 C82 1.377 . S
C81 C84 1.481 . S
C82 C81 1.377 . S
C82 C83 1.389 . S
C82 H104 0.929 . S
C83 C79 1.397 . S
C83 C82 1.389 . S
C83 H105 0.931 . S
C84 C81 1.481 . S
C84 C85 1.387 . S
C84 C89 1.390 . S
C85 C84 1.387 . S
C85 C86 1.401 . S
C85 H106 0.930 . S
C86 C85 1.401 . S
C86 C87 1.376 . S
C86 C95 1.511 . S
C87 C86 1.376 . S
C87 C88 1.392 . S
C87 H108 0.931 . S
C88 C87 1.392 . S
C88 C89 1.361 . S
C88 C90 1.500 . S
C89 C84 1.390 . S
C89 C88 1.361 . S
C89 H107 0.931 . S
C90 C88 1.500 . S
C90 C91 1.371 . S
C90 C92 1.365 . S
C91 C90 1.371 . S
C91 C101 1.386 . S
C91 H109 0.931 . S
C92 C90 1.365 . S
C92 C93 1.409 . S
C92 H110 0.929 . S
C93 C92 1.409 . S
C93 C94 1.380 . S
C93 H111 0.930 . S
C94 C93 1.380 . S
C94 C101 1.357 . S
C95 C86 1.511 . S
C95 C96 1.341 . S
C95 C97 1.371 . S
C96 C95 1.341 . S
C96 C100 1.394 . S
C96 H112 0.930 . S
C97 C95 1.371 . S
C97 C98 1.392 . S
C97 H113 0.931 . S
C98 C97 1.392 . S
C98 C99 1.331 . S
C98 H116 0.932 . S
C99 C98 1.331 . S
C99 C100 1.336 . S
C100 C96 1.394 . S
C100 C99 1.336 . S
C100 H115 0.929 . S
C101 C91 1.386 . S
C101 C94 1.357 . S
C101 H114 0.928 . S
H102 C78 0.931 . S
H103 C80 0.930 . S
H104 C82 0.929 . S
H105 C83 0.931 . S
H106 C85 0.930 . S
H107 C89 0.931 . S
H108 C87 0.931 . S
H109 C91 0.931 . S
H110 C92 0.929 . S
H111 C93 0.930 . S
H112 C96 0.930 . S
H113 C97 0.931 . S
H114 C101 0.928 . S
H115 C100 0.929 . S
H116 C98 0.932 . S
C117 C118 1.386 . S
C117 C119 1.397 . S
C117 H141 0.931 . S
C118 C117 1.386 . S
C118 C122 1.397 . S
C119 C117 1.397 . S
C119 C120 1.384 . S
C119 H142 0.930 . S
C120 C119 1.384 . S
C120 C121 1.377 . S
C120 C123 1.481 . S
C121 C120 1.377 . S
C121 C122 1.389 . S
C121 H143 0.929 . S
C122 C118 1.397 . S
C122 C121 1.389 . S
C122 H144 0.931 . S
C123 C120 1.481 . S
C123 C124 1.387 . S
C123 C128 1.390 . S
C124 C123 1.387 . S
C124 C125 1.401 . S
C124 H145 0.930 . S
C125 C124 1.401 . S
C125 C126 1.376 . S
C125 C134 1.511 . S
C126 C125 1.376 . S
C126 C127 1.392 . S
C126 H147 0.931 . S
C127 C126 1.392 . S
C127 C128 1.361 . S
C127 C129 1.500 . S
C128 C123 1.390 . S
C128 C127 1.361 . S
C128 H146 0.931 . S
C129 C127 1.500 . S
C129 C130 1.371 . S
C129 C131 1.365 . S
C130 C129 1.371 . S
C130 C140 1.386 . S
C130 H148 0.931 . S
C131 C129 1.365 . S
C131 C132 1.409 . S
C131 H149 0.929 . S
C132 C131 1.409 . S
C132 C133 1.380 . S
C132 H150 0.930 . S
C133 C132 1.380 . S
C133 C140 1.357 . S
C134 C125 1.511 . S
C134 C135 1.341 . S
C134 C136 1.371 . S
C135 C134 1.341 . S
C135 C139 1.394 . S
C135 H151 0.930 . S
C136 C134 1.371 . S
C136 C137 1.392 . S
C136 H152 0.931 . S
C137 C136 1.392 . S
C137 C138 1.331 . S
C137 H155 0.932 . S
C138 C137 1.331 . S
C138 C139 1.336 . S
C139 C135 1.394 . S
C139 C138 1.336 . S
C139 H154 0.929 . S
C140 C130 1.386 . S
C140 C133 1.357 . S
C140 H153 0.928 . S
H141 C117 0.931 . S
H142 C119 0.930 . S
H143 C121 0.929 . S
H144 C122 0.931 . S
H145 C124 0.930 . S
H146 C128 0.931 . S
H147 C126 0.931 . S
H148 C130 0.931 . S
H149 C131 0.929 . S
H150 C132 0.930 . S
H151 C135 0.930 . S
H152 C136 0.931 . S
H153 C140 0.928 . S
H154 C139 0.929 . S
H155 C137 0.932 . S
C156 C157 1.386 . S
C156 C158 1.397 . S
C156 H180 0.931 . S
C157 C156 1.386 . S
C157 C161 1.397 . S
C158 C156 1.397 . S
C158 C159 1.384 . S
C158 H181 0.930 . S
C159 C158 1.384 . S
C159 C160 1.377 . S
C159 C162 1.481 . S
C160 C159 1.377 . S
C160 C161 1.389 . S
C160 H182 0.929 . S
C161 C157 1.397 . S
C161 C160 1.389 . S
C161 H183 0.931 . S
C162 C159 1.481 . S
C162 C163 1.387 . S
C162 C167 1.390 . S
C163 C162 1.387 . S
C163 C164 1.401 . S
C163 H184 0.930 . S
C164 C163 1.401 . S
C164 C165 1.376 . S
C164 C173 1.511 . S
C165 C164 1.376 . S
C165 C166 1.392 . S
C165 H186 0.931 . S
C166 C165 1.392 . S
C166 C167 1.361 . S
C166 C168 1.500 . S
C167 C162 1.390 . S
C167 C166 1.361 . S
C167 H185 0.931 . S
C168 C166 1.500 . S
C168 C169 1.371 . S
C168 C170 1.365 . S
C169 C168 1.371 . S
C169 C179 1.386 . S
C169 H187 0.931 . S
C170 C168 1.365 . S
C170 C171 1.409 . S
C170 H188 0.929 . S
C171 C170 1.409 . S
C171 C172 1.380 . S
C171 H189 0.930 . S
C172 C171 1.380 . S
C172 C179 1.357 . S
C173 C164 1.511 . S
C173 C174 1.341 . S
C173 C175 1.371 . S
C174 C173 1.341 . S
C174 C178 1.394 . S
C174 H190 0.930 . S
C175 C173 1.371 . S
C175 C176 1.392 . S
C175 H191 0.931 . S
C176 C175 1.392 . S
C176 C177 1.331 . S
C176 H194 0.932 . S
C177 C176 1.331 . S
C177 C178 1.336 . S
C178 C174 1.394 . S
C178 C177 1.336 . S
C178 H193 0.929 . S
C179 C169 1.386 . S
C179 C172 1.357 . S
C179 H192 0.928 . S
H180 C156 0.931 . S
H181 C158 0.930 . S
H182 C160 0.929 . S
H183 C161 0.931 . S
H184 C163 0.930 . S
H185 C167 0.931 . S
H186 C165 0.931 . S
H187 C169 0.931 . S
H188 C170 0.929 . S
H189 C171 0.930 . S
H190 C174 0.930 . S
H191 C175 0.931 . S
H192 C179 0.928 . S
H193 C178 0.929 . S
H194 C176 0.932 . S
C195 C196 1.386 . S
C195 C197 1.397 . S
C195 H219 0.931 . S
C196 C195 1.386 . S
C196 C200 1.397 . S
C197 C195 1.397 . S
C197 C198 1.384 . S
C197 H220 0.930 . S
C198 C197 1.384 . S
C198 C199 1.377 . S
C198 C201 1.481 . S
C199 C198 1.377 . S
C199 C200 1.389 . S
C199 H221 0.929 . S
C200 C196 1.397 . S
C200 C199 1.389 . S
C200 H222 0.931 . S
C201 C198 1.481 . S
C201 C202 1.387 . S
C201 C206 1.390 . S
C202 C201 1.387 . S
C202 C203 1.401 . S
C202 H223 0.930 . S
C203 C202 1.401 . S
C203 C204 1.376 . S
C203 C212 1.511 . S
C204 C203 1.376 . S
C204 C205 1.392 . S
C204 H225 0.931 . S
C205 C204 1.392 . S
C205 C206 1.361 . S
C205 C207 1.500 . S
C206 C201 1.390 . S
C206 C205 1.361 . S
C206 H224 0.931 . S
C207 C205 1.500 . S
C207 C208 1.371 . S
C207 C209 1.365 . S
C208 C207 1.371 . S
C208 C218 1.386 . S
C208 H226 0.931 . S
C209 C207 1.365 . S
C209 C210 1.409 . S
C209 H227 0.929 . S
C210 C209 1.409 . S
C210 C211 1.380 . S
C210 H228 0.930 . S
C211 C210 1.380 . S
C211 C218 1.357 . S
C212 C203 1.511 . S
C212 C213 1.341 . S
C212 C214 1.371 . S
C213 C212 1.341 . S
C213 C217 1.394 . S
C213 H229 0.930 . S
C214 C212 1.371 . S
C214 C215 1.392 . S
C214 H230 0.931 . S
C215 C214 1.392 . S
C215 C216 1.331 . S
C215 H233 0.932 . S
C216 C215 1.331 . S
C216 C217 1.336 . S
C217 C213 1.394 . S
C217 C216 1.336 . S
C217 H232 0.929 . S
C218 C208 1.386 . S
C218 C211 1.357 . S
C218 H231 0.928 . S
H219 C195 0.931 . S
H220 C197 0.930 . S
H221 C199 0.929 . S
H222 C200 0.931 . S
H223 C202 0.930 . S
H224 C206 0.931 . S
H225 C204 0.931 . S
H226 C208 0.931 . S
H227 C209 0.929 . S
H228 C210 0.930 . S
H229 C213 0.930 . S
H230 C214 0.931 . S
H231 C218 0.928 . S
H232 C217 0.929 . S
H233 C215 0.932 . S
C234 C235 1.386 . S
C234 C236 1.397 . S
C234 H258 0.931 . S
C235 C234 1.386 . S
C235 C239 1.397 . S
C236 C234 1.397 . S
C236 C237 1.384 . S
C236 H259 0.930 . S
C237 C236 1.384 . S
C237 C238 1.377 . S
C237 C240 1.481 . S
C238 C237 1.377 . S
C238 C239 1.389 . S
C238 H260 0.929 . S
C239 C235 1.397 . S
C239 C238 1.389 . S
C239 H261 0.931 . S
C240 C237 1.481 . S
C240 C241 1.387 . S
C240 C245 1.390 . S
C241 C240 1.387 . S
C241 C242 1.401 . S
C241 H262 0.930 . S
C242 C241 1.401 . S
C242 C243 1.376 . S
C242 C251 1.511 . S
C243 C242 1.376 . S
C243 C244 1.392 . S
C243 H264 0.931 . S
C244 C243 1.392 . S
C244 C245 1.361 . S
C244 C246 1.500 . S
C245 C240 1.390 . S
C245 C244 1.361 . S
C245 H263 0.931 . S
C246 C244 1.500 . S
C246 C247 1.371 . S
C246 C248 1.365 . S
C247 C246 1.371 . S
C247 C257 1.386 . S
C247 H265 0.931 . S
C248 C246 1.365 . S
C248 C249 1.409 . S
C248 H266 0.929 . S
C249 C248 1.409 . S
C249 C250 1.380 . S
C249 H267 0.930 . S
C250 C249 1.380 . S
C250 C257 1.357 . S
C251 C242 1.511 . S
C251 C252 1.341 . S
C251 C253 1.371 . S
C252 C251 1.341 . S
C252 C256 1.394 . S
C252 H268 0.930 . S
C253 C251 1.371 . S
C253 C254 1.392 . S
C253 H269 0.931 . S
C254 C253 1.392 . S
C254 C255 1.331 . S
C254 H272 0.932 . S
C255 C254 1.331 . S
C255 C256 1.336 . S
C256 C252 1.394 . S
C256 C255 1.336 . S
C256 H271 0.929 . S
C257 C247 1.386 . S
C257 C250 1.357 . S
C257 H270 0.928 . S
H258 C234 0.931 . S
H259 C236 0.930 . S
H260 C238 0.929 . S
H261 C239 0.931 . S
H262 C241 0.930 . S
H263 C245 0.931 . S
H264 C243 0.931 . S
H265 C247 0.931 . S
H266 C248 0.929 . S
H267 C249 0.930 . S
H268 C252 0.930 . S
H269 C253 0.931 . S
H270 C257 0.928 . S
H271 C256 0.929 . S
H272 C254 0.932 . S
C273 C274 1.386 . S
C273 C275 1.397 . S
C273 H297 0.931 . S
C274 C273 1.386 . S
C274 C278 1.397 . S
C275 C273 1.397 . S
C275 C276 1.384 . S
C275 H298 0.930 . S
C276 C275 1.384 . S
C276 C277 1.377 . S
C276 C279 1.481 . S
C277 C276 1.377 . S
C277 C278 1.389 . S
C277 H299 0.929 . S
C278 C274 1.397 . S
C278 C277 1.389 . S
C278 H300 0.931 . S
C279 C276 1.481 . S
C279 C280 1.387 . S
C279 C284 1.390 . S
C280 C279 1.387 . S
C280 C281 1.401 . S
C280 H301 0.930 . S
C281 C280 1.401 . S
C281 C282 1.376 . S
C281 C290 1.511 . S
C282 C281 1.376 . S
C282 C283 1.392 . S
C282 H303 0.931 . S
C283 C282 1.392 . S
C283 C284 1.361 . S
C283 C285 1.500 . S
C284 C279 1.390 . S
C284 C283 1.361 . S
C284 H302 0.931 . S
C285 C283 1.500 . S
C285 C286 1.371 . S
C285 C287 1.365 . S
C286 C285 1.371 . S
C286 C296 1.386 . S
C286 H304 0.931 . S
C287 C285 1.365 . S
C287 C288 1.409 . S
C287 H305 0.929 . S
C288 C287 1.409 . S
C288 C289 1.380 . S
C288 H306 0.930 . S
C289 C288 1.380 . S
C289 C296 1.357 . S
C290 C281 1.511 . S
C290 C291 1.341 . S
C290 C292 1.371 . S
C291 C290 1.341 . S
C291 C295 1.394 . S
C291 H307 0.930 . S
C292 C290 1.371 . S
C292 C293 1.392 . S
C292 H308 0.931 . S
C293 C292 1.392 . S
C293 C294 1.331 . S
C293 H311 0.932 . S
C294 C293 1.331 . S
C294 C295 1.336 . S
C295 C291 1.394 . S
C295 C294 1.336 . S
C295 H310 0.929 . S
C296 C286 1.386 . S
C296 C289 1.357 . S
C296 H309 0.928 . S
H297 C273 0.931 . S
H298 C275 0.930 . S
H299 C277 0.929 . S
H300 C278 0.931 . S
H301 C280 0.930 . S
H302 C284 0.931 . S
H303 C282 0.931 . S
H304 C286 0.931 . S
H305 C287 0.929 . S
H306 C288 0.930 . S
H307 C291 0.930 . S
H308 C292 0.931 . S
H309 C296 0.928 . S
H310 C295 0.929 . S
H311 C293 0.932 . S
Nd312 C314 2.836 . S
Nd312 O332 2.500 . S
Nd312 O333 2.492 . S
Nd312 O334 2.487 1_565 S
Nd312 O335 2.682 1_565 S
Nd312 O336 2.410 . S
Nd312 O341 2.414 1_455 S
Nd312 O343 2.424 1_565 S
Nd313 C323 2.836 . S
Nd313 O335 2.414 1_655 S
Nd313 O337 2.424 1_545 S
Nd313 O338 2.500 . S
Nd313 O339 2.492 . S
Nd313 O340 2.487 1_545 S
Nd313 O341 2.682 1_545 S
Nd313 O342 2.410 . S
C314 Nd312 2.836 . S
C314 C315 1.498 . S
C314 O332 1.258 . S
C314 O333 1.239 . S
C315 C314 1.498 . S
C315 C316 1.366 . S
C315 C320 1.407 . S
C316 C315 1.366 . S
C316 C317 1.392 . S
C316 H344 0.930 . S
C317 C316 1.392 . S
C317 C318 1.398 . S
C317 H345 0.929 . S
C318 C317 1.398 . S
C318 C319 1.352 . S
C319 C318 1.352 . S
C319 C320 1.384 . S
C319 H346 0.930 . S
C320 C315 1.407 . S
C320 C319 1.384 . S
C320 H347 0.929 . S
C321 O334 1.241 . S
C321 O335 1.273 . S
C322 O336 1.251 1_655 S
C322 O337 1.268 . S
C323 Nd313 2.836 . S
C323 C324 1.498 . S
C323 O338 1.258 . S
C323 O339 1.239 . S
C324 C323 1.498 . S
C324 C325 1.366 . S
C324 C329 1.407 . S
C325 C324 1.366 . S
C325 C326 1.392 . S
C325 H348 0.930 . S
C326 C325 1.392 . S
C326 C327 1.398 . S
C326 H349 0.929 . S
C327 C326 1.398 . S
C327 C328 1.352 . S
C328 C327 1.352 . S
C328 C329 1.384 . S
C328 H350 0.930 . S
C329 C324 1.407 . S
C329 C328 1.384 . S
C329 H351 0.929 . S
C330 O340 1.241 . S
C330 O341 1.273 . S
C331 O342 1.251 1_455 S
C331 O343 1.268 . S
O332 Nd312 2.500 . S
O332 C314 1.258 . S
O333 Nd312 2.492 . S
O333 C314 1.239 . S
O334 Nd312 2.487 1_545 S
O334 C321 1.241 . S
O335 Nd312 2.682 1_545 S
O335 Nd313 2.414 1_455 S
O335 C321 1.273 . S
O336 Nd312 2.410 . S
O336 C322 1.251 1_455 S
O337 Nd313 2.424 1_565 S
O337 C322 1.268 . S
O338 Nd313 2.500 . S
O338 C323 1.258 . S
O339 Nd313 2.492 . S
O339 C323 1.239 . S
O340 Nd313 2.487 1_565 S
O340 C330 1.241 . S
O341 Nd312 2.414 1_655 S
O341 Nd313 2.682 1_565 S
O341 C330 1.273 . S
O342 Nd313 2.410 . S
O342 C331 1.251 1_655 S
O343 Nd312 2.424 1_545 S
O343 C331 1.268 . S
H344 C316 0.930 . S
H345 C317 0.929 . S
H346 C319 0.930 . S
H347 C320 0.929 . S
H348 C325 0.930 . S
H349 C326 0.929 . S
H350 C328 0.930 . S
H351 C329 0.929 . S
Nd352 C354 2.836 . S
Nd352 O372 2.500 . S
Nd352 O373 2.492 . S
Nd352 O374 2.487 1_565 S
Nd352 O375 2.682 1_565 S
Nd352 O376 2.410 1_554 S
Nd352 O381 2.414 1_554 S
Nd352 O383 2.424 1_565 S
Nd353 C363 2.836 . S
Nd353 O375 2.414 1_556 S
Nd353 O377 2.424 1_545 S
Nd353 O378 2.500 . S
Nd353 O379 2.492 . S
Nd353 O380 2.487 1_545 S
Nd353 O381 2.682 1_545 S
Nd353 O382 2.410 1_556 S
C354 Nd352 2.836 . S
C354 C355 1.498 . S
C354 O372 1.258 . S
C354 O373 1.239 . S
C355 C354 1.498 . S
C355 C356 1.366 . S
C355 C360 1.407 . S
C356 C355 1.366 . S
C356 C357 1.392 . S
C356 H384 0.930 . S
C357 C356 1.392 . S
C357 C358 1.398 . S
C357 H385 0.929 . S
C358 C357 1.398 . S
C358 C359 1.352 . S
C359 C358 1.352 . S
C359 C360 1.384 . S
C359 H386 0.930 . S
C360 C355 1.407 . S
C360 C359 1.384 . S
C360 H387 0.929 . S
C361 O374 1.241 . S
C361 O375 1.273 . S
C362 O376 1.251 . S
C362 O377 1.268 . S
C363 Nd353 2.836 . S
C363 C364 1.498 . S
C363 O378 1.258 . S
C363 O379 1.239 . S
C364 C363 1.498 . S
C364 C365 1.366 . S
C364 C369 1.407 . S
C365 C364 1.366 . S
C365 C366 1.392 . S
C365 H388 0.930 . S
C366 C365 1.392 . S
C366 C367 1.398 . S
C366 H389 0.929 . S
C367 C366 1.398 . S
C367 C368 1.352 . S
C368 C367 1.352 . S
C368 C369 1.384 . S
C368 H390 0.930 . S
C369 C364 1.407 . S
C369 C368 1.384 . S
C369 H391 0.929 . S
C370 O380 1.241 . S
C370 O381 1.273 . S
C371 O382 1.251 . S
C371 O383 1.268 . S
O372 Nd352 2.500 . S
O372 C354 1.258 . S
O373 Nd352 2.492 . S
O373 C354 1.239 . S
O374 Nd352 2.487 1_545 S
O374 C361 1.241 . S
O375 Nd352 2.682 1_545 S
O375 Nd353 2.414 1_554 S
O375 C361 1.273 . S
O376 Nd352 2.410 1_556 S
O376 C362 1.251 . S
O377 Nd353 2.424 1_565 S
O377 C362 1.268 . S
O378 Nd353 2.500 . S
O378 C363 1.258 . S
O379 Nd353 2.492 . S
O379 C363 1.239 . S
O380 Nd353 2.487 1_565 S
O380 C370 1.241 . S
O381 Nd352 2.414 1_556 S
O381 Nd353 2.682 1_565 S
O381 C370 1.273 . S
O382 Nd353 2.410 1_554 S
O382 C371 1.251 . S
O383 Nd352 2.424 1_545 S
O383 C371 1.268 . S
H384 C356 0.930 . S
H385 C357 0.929 . S
H386 C359 0.930 . S
H387 C360 0.929 . S
H388 C365 0.930 . S
H389 C366 0.929 . S
H390 C368 0.930 . S
H391 C369 0.929 . S
Nd392 C394 2.836 . S
Nd392 O412 2.500 . S
Nd392 O413 2.492 . S
Nd392 O414 2.487 . S
Nd392 O415 2.682 . S
Nd392 O416 2.410 . S
Nd392 O421 2.414 . S
Nd392 O423 2.424 . S
Nd393 C403 2.836 . S
Nd393 O415 2.414 . S
Nd393 O417 2.424 . S
Nd393 O418 2.500 . S
Nd393 O419 2.492 . S
Nd393 O420 2.487 . S
Nd393 O421 2.682 . S
Nd393 O422 2.410 . S
C394 Nd392 2.836 . S
C394 C395 1.498 . S
C394 O412 1.258 . S
C394 O413 1.239 . S
C395 C394 1.498 . S
C395 C396 1.366 . S
C395 C400 1.407 . S
C396 C395 1.366 . S
C396 C397 1.392 . S
C396 H424 0.930 . S
C397 C396 1.392 . S
C397 C398 1.398 . S
C397 H425 0.929 . S
C398 C397 1.398 . S
C398 C399 1.352 . S
C399 C398 1.352 . S
C399 C400 1.384 . S
C399 H426 0.930 . S
C400 C395 1.407 . S
C400 C399 1.384 . S
C400 H427 0.929 . S
C401 O414 1.241 . S
C401 O415 1.273 . S
C402 O416 1.251 . S
C402 O417 1.268 . S
C403 Nd393 2.836 . S
C403 C404 1.498 . S
C403 O418 1.258 . S
C403 O419 1.239 . S
C404 C403 1.498 . S
C404 C405 1.366 . S
C404 C409 1.407 . S
C405 C404 1.366 . S
C405 C406 1.392 . S
C405 H428 0.930 . S
C406 C405 1.392 . S
C406 C407 1.398 . S
C406 H429 0.929 . S
C407 C406 1.398 . S
C407 C408 1.352 . S
C408 C407 1.352 . S
C408 C409 1.384 . S
C408 H430 0.930 . S
C409 C404 1.407 . S
C409 C408 1.384 . S
C409 H431 0.929 . S
C410 O420 1.241 . S
C410 O421 1.273 . S
C411 O422 1.251 . S
C411 O423 1.268 . S
O412 Nd392 2.500 . S
O412 C394 1.258 . S
O413 Nd392 2.492 . S
O413 C394 1.239 . S
O414 Nd392 2.487 . S
O414 C401 1.241 . S
O415 Nd392 2.682 . S
O415 Nd393 2.414 . S
O415 C401 1.273 . S
O416 Nd392 2.410 . S
O416 C402 1.251 . S
O417 Nd393 2.424 . S
O417 C402 1.268 . S
O418 Nd393 2.500 . S
O418 C403 1.258 . S
O419 Nd393 2.492 . S
O419 C403 1.239 . S
O420 Nd393 2.487 . S
O420 C410 1.241 . S
O421 Nd392 2.414 . S
O421 Nd393 2.682 . S
O421 C410 1.273 . S
O422 Nd393 2.410 . S
O422 C411 1.251 . S
O423 Nd392 2.424 . S
O423 C411 1.268 . S
H424 C396 0.930 . S
H425 C397 0.929 . S
H426 C399 0.930 . S
H427 C400 0.929 . S
H428 C405 0.930 . S
H429 C406 0.929 . S
H430 C408 0.930 . S
H431 C409 0.929 . S
Nd432 C434 2.836 . S
Nd432 O452 2.500 . S
Nd432 O453 2.492 . S
Nd432 O454 2.487 1_655 S
Nd432 O455 2.682 1_655 S
Nd432 O456 2.410 . S
Nd432 O461 2.414 1_554 S
Nd432 O463 2.424 1_655 S
Nd433 C443 2.836 . S
Nd433 O455 2.414 1_556 S
Nd433 O457 2.424 1_455 S
Nd433 O458 2.500 . S
Nd433 O459 2.492 . S
Nd433 O460 2.487 1_455 S
Nd433 O461 2.682 1_455 S
Nd433 O462 2.410 . S
C434 Nd432 2.836 . S
C434 C435 1.498 . S
C434 O452 1.258 . S
C434 O453 1.239 . S
C435 C434 1.498 . S
C435 C436 1.366 . S
C435 C440 1.407 . S
C436 C435 1.366 . S
C436 C437 1.392 . S
C436 H464 0.930 . S
C437 C436 1.392 . S
C437 C438 1.398 . S
C437 H465 0.929 . S
C438 C437 1.398 . S
C438 C439 1.352 . S
C439 C438 1.352 . S
C439 C440 1.384 . S
C439 H466 0.930 . S
C440 C435 1.407 . S
C440 C439 1.384 . S
C440 H467 0.929 . S
C441 O454 1.241 . S
C441 O455 1.273 . S
C442 O456 1.251 1_556 S
C442 O457 1.268 . S
C443 Nd433 2.836 . S
C443 C444 1.498 . S
C443 O458 1.258 . S
C443 O459 1.239 . S
C444 C443 1.498 . S
C444 C445 1.366 . S
C444 C449 1.407 . S
C445 C444 1.366 . S
C445 C446 1.392 . S
C445 H468 0.930 . S
C446 C445 1.392 . S
C446 C447 1.398 . S
C446 H469 0.929 . S
C447 C446 1.398 . S
C447 C448 1.352 . S
C448 C447 1.352 . S
C448 C449 1.384 . S
C448 H470 0.930 . S
C449 C444 1.407 . S
C449 C448 1.384 . S
C449 H471 0.929 . S
C450 O460 1.241 . S
C450 O461 1.273 . S
C451 O462 1.251 1_554 S
C451 O463 1.268 . S
O452 Nd432 2.500 . S
O452 C434 1.258 . S
O453 Nd432 2.492 . S
O453 C434 1.239 . S
O454 Nd432 2.487 1_455 S
O454 C441 1.241 . S
O455 Nd432 2.682 1_455 S
O455 Nd433 2.414 1_554 S
O455 C441 1.273 . S
O456 Nd432 2.410 . S
O456 C442 1.251 1_554 S
O457 Nd433 2.424 1_655 S
O457 C442 1.268 . S
O458 Nd433 2.500 . S
O458 C443 1.258 . S
O459 Nd433 2.492 . S
O459 C443 1.239 . S
O460 Nd433 2.487 1_655 S
O460 C450 1.241 . S
O461 Nd432 2.414 1_556 S
O461 Nd433 2.682 1_655 S
O461 C450 1.273 . S
O462 Nd433 2.410 . S
O462 C451 1.251 1_556 S
O463 Nd432 2.424 1_455 S
O463 C451 1.268 . S
H464 C436 0.930 . S
H465 C437 0.929 . S
H466 C439 0.930 . S
H467 C440 0.929 . S
H468 C445 0.930 . S
H469 C446 0.929 . S
H470 C448 0.930 . S
H471 C449 0.929 . S
C472 C473 1.349 . S
C472 C474 1.327 . S
C472 H497 0.950 . S
C473 C472 1.349 . S
C473 C489 1.349 . S
C474 C472 1.327 . S
C474 C493 1.429 . S
C474 H498 0.950 . S
C475 C492 1.574 . S
C475 C494 1.368 . S
C475 H499 0.949 . S
H476 C480 0.949 . S
C477 C478 1.349 . S
C477 C479 1.327 . S
C477 H500 0.950 . S
C478 C477 1.349 . S
C478 C490 1.349 . S
C479 C477 1.327 . S
C479 C495 1.429 . S
C479 H501 0.950 . S
C480 H476 0.949 . S
C480 C488 1.574 . S
C480 C496 1.368 . S
H481 C489 0.950 . S
H482 C487 0.950 . S
H483 C488 0.949 . S
H484 C490 0.950 . S
H485 C491 0.950 . S
H486 C492 0.949 . S
C487 H482 0.950 . S
C487 C489 1.327 . S
C487 C493 1.429 . S
C488 C480 1.574 . S
C488 H483 0.949 . S
C488 C494 1.368 . S
C489 C473 1.349 . S
C489 H481 0.950 . S
C489 C487 1.327 . S
C490 C478 1.349 . S
C490 H484 0.950 . S
C490 C491 1.327 . S
C491 H485 0.950 . S
C491 C490 1.327 . S
C491 C495 1.429 . S
C492 C475 1.574 . S
C492 H486 0.949 . S
C492 C496 1.368 . S
C493 C474 1.429 . S
C493 C487 1.429 . S
C493 C494 1.523 . S
C494 C475 1.368 . S
C494 C488 1.368 . S
C494 C493 1.523 . S
C495 C479 1.429 . S
C495 C491 1.429 . S
C495 C496 1.523 . S
C496 C480 1.368 . S
C496 C492 1.368 . S
C496 C495 1.523 . S
H497 C472 0.950 . S
H498 C474 0.950 . S
H499 C475 0.949 . S
H500 C477 0.950 . S
H501 C479 0.950 . S
C502 C503 1.349 . S
C502 C504 1.327 . S
C502 H527 0.950 . S
C503 C502 1.349 . S
C503 C519 1.349 . S
C504 C502 1.327 . S
C504 C523 1.429 . S
C504 H528 0.950 . S
C505 C522 1.574 . S
C505 C524 1.368 . S
C505 H529 0.949 . S
H506 C510 0.949 . S
C507 C508 1.349 . S
C507 C509 1.327 . S
C507 H530 0.950 . S
C508 C507 1.349 . S
C508 C520 1.349 . S
C509 C507 1.327 . S
C509 C525 1.429 . S
C509 H531 0.950 . S
C510 H506 0.949 . S
C510 C518 1.574 . S
C510 C526 1.368 . S
H511 C519 0.950 . S
H512 C517 0.950 . S
H513 C518 0.949 . S
H514 C520 0.950 . S
H515 C521 0.950 . S
H516 C522 0.949 . S
C517 H512 0.950 . S
C517 C519 1.327 . S
C517 C523 1.429 . S
C518 C510 1.574 . S
C518 H513 0.949 . S
C518 C524 1.368 . S
C519 C503 1.349 . S
C519 H511 0.950 . S
C519 C517 1.327 . S
C520 C508 1.349 . S
C520 H514 0.950 . S
C520 C521 1.327 . S
C521 H515 0.950 . S
C521 C520 1.327 . S
C521 C525 1.429 . S
C522 C505 1.574 . S
C522 H516 0.949 . S
C522 C526 1.368 . S
C523 C504 1.429 . S
C523 C517 1.429 . S
C523 C524 1.523 . S
C524 C505 1.368 . S
C524 C518 1.368 . S
C524 C523 1.523 . S
C525 C509 1.429 . S
C525 C521 1.429 . S
C525 C526 1.523 . S
C526 C510 1.368 . S
C526 C522 1.368 . S
C526 C525 1.523 . S
H527 C502 0.950 . S
H528 C504 0.950 . S
H529 C505 0.949 . S
H530 C507 0.950 . S
H531 C509 0.950 . S
C532 C533 1.349 . S
C532 C534 1.327 . S
C532 H557 0.950 . S
C533 C532 1.349 . S
C533 C549 1.349 . S
C534 C532 1.327 . S
C534 C553 1.429 . S
C534 H558 0.950 . S
C535 C552 1.574 . S
C535 C554 1.368 . S
C535 H559 0.949 . S
H536 C540 0.949 . S
C537 C538 1.349 . S
C537 C539 1.327 . S
C537 H560 0.950 . S
C538 C537 1.349 . S
C538 C550 1.349 . S
C539 C537 1.327 . S
C539 C555 1.429 . S
C539 H561 0.950 . S
C540 H536 0.949 . S
C540 C548 1.574 . S
C540 C556 1.368 . S
H541 C549 0.950 . S
H542 C547 0.950 . S
H543 C548 0.949 . S
H544 C550 0.950 . S
H545 C551 0.950 . S
H546 C552 0.949 . S
C547 H542 0.950 . S
C547 C549 1.327 . S
C547 C553 1.429 . S
C548 C540 1.574 . S
C548 H543 0.949 . S
C548 C554 1.368 . S
C549 C533 1.349 . S
C549 H541 0.950 . S
C549 C547 1.327 . S
C550 C538 1.349 . S
C550 H544 0.950 . S
C550 C551 1.327 . S
C551 H545 0.950 . S
C551 C550 1.327 . S
C551 C555 1.429 . S
C552 C535 1.574 . S
C552 H546 0.949 . S
C552 C556 1.368 . S
C553 C534 1.429 . S
C553 C547 1.429 . S
C553 C554 1.523 . S
C554 C535 1.368 . S
C554 C548 1.368 . S
C554 C553 1.523 . S
C555 C539 1.429 . S
C555 C551 1.429 . S
C555 C556 1.523 . S
C556 C540 1.368 . S
C556 C552 1.368 . S
C556 C555 1.523 . S
H557 C532 0.950 . S
H558 C534 0.950 . S
H559 C535 0.949 . S
H560 C537 0.950 . S
H561 C539 0.950 . S
C562 C563 1.349 . S
C562 C564 1.327 . S
C562 H587 0.950 . S
C563 C562 1.349 . S
C563 C579 1.349 . S
C564 C562 1.327 . S
C564 C583 1.429 . S
C564 H588 0.950 . S
C565 C582 1.574 . S
C565 C584 1.368 . S
C565 H589 0.949 . S
H566 C570 0.949 . S
C567 C568 1.349 . S
C567 C569 1.327 . S
C567 H590 0.950 . S
C568 C567 1.349 . S
C568 C580 1.349 . S
C569 C567 1.327 . S
C569 C585 1.429 . S
C569 H591 0.950 . S
C570 H566 0.949 . S
C570 C578 1.574 . S
C570 C586 1.368 . S
H571 C579 0.950 . S
H572 C577 0.950 . S
H573 C578 0.949 . S
H574 C580 0.950 . S
H575 C581 0.950 . S
H576 C582 0.949 . S
C577 H572 0.950 . S
C577 C579 1.327 . S
C577 C583 1.429 . S
C578 C570 1.574 . S
C578 H573 0.949 . S
C578 C584 1.368 . S
C579 C563 1.349 . S
C579 H571 0.950 . S
C579 C577 1.327 . S
C580 C568 1.349 . S
C580 H574 0.950 . S
C580 C581 1.327 . S
C581 H575 0.950 . S
C581 C580 1.327 . S
C581 C585 1.429 . S
C582 C565 1.574 . S
C582 H576 0.949 . S
C582 C586 1.368 . S
C583 C564 1.429 . S
C583 C577 1.429 . S
C583 C584 1.523 . S
C584 C565 1.368 . S
C584 C578 1.368 . S
C584 C583 1.523 . S
C585 C569 1.429 . S
C585 C581 1.429 . S
C585 C586 1.523 . S
C586 C570 1.368 . S
C586 C582 1.368 . S
C586 C585 1.523 . S
H587 C562 0.950 . S
H588 C564 0.950 . S
H589 C565 0.949 . S
H590 C567 0.950 . S
H591 C569 0.950 . S
C592 C593 1.349 . S
C592 C594 1.327 . S
C592 H617 0.950 . S
C593 C592 1.349 . S
C593 C609 1.349 . S
C594 C592 1.327 . S
C594 C613 1.429 . S
C594 H618 0.950 . S
C595 C612 1.574 . S
C595 C614 1.368 . S
C595 H619 0.949 . S
H596 C600 0.949 . S
C597 C598 1.349 . S
C597 C599 1.327 . S
C597 H620 0.950 . S
C598 C597 1.349 . S
C598 C610 1.349 . S
C599 C597 1.327 . S
C599 C615 1.429 . S
C599 H621 0.950 . S
C600 H596 0.949 . S
C600 C608 1.574 . S
C600 C616 1.368 . S
H601 C609 0.950 . S
H602 C607 0.950 . S
H603 C608 0.949 . S
H604 C610 0.950 . S
H605 C611 0.950 . S
H606 C612 0.949 . S
C607 H602 0.950 . S
C607 C609 1.327 . S
C607 C613 1.429 . S
C608 C600 1.574 . S
C608 H603 0.949 . S
C608 C614 1.368 . S
C609 C593 1.349 . S
C609 H601 0.950 . S
C609 C607 1.327 . S
C610 C598 1.349 . S
C610 H604 0.950 . S
C610 C611 1.327 . S
C611 H605 0.950 . S
C611 C610 1.327 . S
C611 C615 1.429 . S
C612 C595 1.574 . S
C612 H606 0.949 . S
C612 C616 1.368 . S
C613 C594 1.429 . S
C613 C607 1.429 . S
C613 C614 1.523 . S
C614 C595 1.368 . S
C614 C608 1.368 . S
C614 C613 1.523 . S
C615 C599 1.429 . S
C615 C611 1.429 . S
C615 C616 1.523 . S
C616 C600 1.368 . S
C616 C612 1.368 . S
C616 C615 1.523 . S
H617 C592 0.950 . S
H618 C594 0.950 . S
H619 C595 0.949 . S
H620 C597 0.950 . S
H621 C599 0.950 . S
C622 C623 1.349 . S
C622 C624 1.327 . S
C622 H647 0.950 . S
C623 C622 1.349 . S
C623 C639 1.349 . S
C624 C622 1.327 . S
C624 C643 1.429 . S
C624 H648 0.950 . S
C625 C642 1.574 . S
C625 C644 1.368 . S
C625 H649 0.949 . S
H626 C630 0.949 . S
C627 C628 1.349 . S
C627 C629 1.327 . S
C627 H650 0.950 . S
C628 C627 1.349 . S
C628 C640 1.349 . S
C629 C627 1.327 . S
C629 C645 1.429 . S
C629 H651 0.950 . S
C630 H626 0.949 . S
C630 C638 1.574 . S
C630 C646 1.368 . S
H631 C639 0.950 . S
H632 C637 0.950 . S
H633 C638 0.949 . S
H634 C640 0.950 . S
H635 C641 0.950 . S
H636 C642 0.949 . S
C637 H632 0.950 . S
C637 C639 1.327 . S
C637 C643 1.429 . S
C638 C630 1.574 . S
C638 H633 0.949 . S
C638 C644 1.368 . S
C639 C623 1.349 . S
C639 H631 0.950 . S
C639 C637 1.327 . S
C640 C628 1.349 . S
C640 H634 0.950 . S
C640 C641 1.327 . S
C641 H635 0.950 . S
C641 C640 1.327 . S
C641 C645 1.429 . S
C642 C625 1.574 . S
C642 H636 0.949 . S
C642 C646 1.368 . S
C643 C624 1.429 . S
C643 C637 1.429 . S
C643 C644 1.523 . S
C644 C625 1.368 . S
C644 C638 1.368 . S
C644 C643 1.523 . S
C645 C629 1.429 . S
C645 C641 1.429 . S
C645 C646 1.523 . S
C646 C630 1.368 . S
C646 C642 1.368 . S
C646 C645 1.523 . S
H647 C622 0.950 . S
H648 C624 0.950 . S
H649 C625 0.949 . S
H650 C627 0.950 . S
H651 C629 0.950 . S
C652 C653 1.349 . S
C652 C654 1.327 . S
C652 H677 0.950 . S
C653 C652 1.349 . S
C653 C669 1.349 . S
C654 C652 1.327 . S
C654 C673 1.429 . S
C654 H678 0.950 . S
C655 C672 1.574 . S
C655 C674 1.368 . S
C655 H679 0.949 . S
H656 C660 0.949 . S
C657 C658 1.349 . S
C657 C659 1.327 . S
C657 H680 0.950 . S
C658 C657 1.349 . S
C658 C670 1.349 . S
C659 C657 1.327 . S
C659 C675 1.429 . S
C659 H681 0.950 . S
C660 H656 0.949 . S
C660 C668 1.574 . S
C660 C676 1.368 . S
H661 C669 0.950 . S
H662 C667 0.950 . S
H663 C668 0.949 . S
H664 C670 0.950 . S
H665 C671 0.950 . S
H666 C672 0.949 . S
C667 H662 0.950 . S
C667 C669 1.327 . S
C667 C673 1.429 . S
C668 C660 1.574 . S
C668 H663 0.949 . S
C668 C674 1.368 . S
C669 C653 1.349 . S
C669 H661 0.950 . S
C669 C667 1.327 . S
C670 C658 1.349 . S
C670 H664 0.950 . S
C670 C671 1.327 . S
C671 H665 0.950 . S
C671 C670 1.327 . S
C671 C675 1.429 . S
C672 C655 1.574 . S
C672 H666 0.949 . S
C672 C676 1.368 . S
C673 C654 1.429 . S
C673 C667 1.429 . S
C673 C674 1.523 . S
C674 C655 1.368 . S
C674 C668 1.368 . S
C674 C673 1.523 . S
C675 C659 1.429 . S
C675 C671 1.429 . S
C675 C676 1.523 . S
C676 C660 1.368 . S
C676 C672 1.368 . S
C676 C675 1.523 . S
H677 C652 0.950 . S
H678 C654 0.950 . S
H679 C655 0.949 . S
H680 C657 0.950 . S
H681 C659 0.950 . S
C682 C683 1.349 . S
C682 C684 1.327 . S
C682 H707 0.950 . S
C683 C682 1.349 . S
C683 C699 1.349 . S
C684 C682 1.327 . S
C684 C703 1.429 . S
C684 H708 0.950 . S
C685 C702 1.574 . S
C685 C704 1.368 . S
C685 H709 0.949 . S
H686 C690 0.949 . S
C687 C688 1.349 . S
C687 C689 1.327 . S
C687 H710 0.950 . S
C688 C687 1.349 . S
C688 C700 1.349 . S
C689 C687 1.327 . S
C689 C705 1.429 . S
C689 H711 0.950 . S
C690 H686 0.949 . S
C690 C698 1.574 . S
C690 C706 1.368 . S
H691 C699 0.950 . S
H692 C697 0.950 . S
H693 C698 0.949 . S
H694 C700 0.950 . S
H695 C701 0.950 . S
H696 C702 0.949 . S
C697 H692 0.950 . S
C697 C699 1.327 . S
C697 C703 1.429 . S
C698 C690 1.574 . S
C698 H693 0.949 . S
C698 C704 1.368 . S
C699 C683 1.349 . S
C699 H691 0.950 . S
C699 C697 1.327 . S
C700 C688 1.349 . S
C700 H694 0.950 . S
C700 C701 1.327 . S
C701 H695 0.950 . S
C701 C700 1.327 . S
C701 C705 1.429 . S
C702 C685 1.574 . S
C702 H696 0.949 . S
C702 C706 1.368 . S
C703 C684 1.429 . S
C703 C697 1.429 . S
C703 C704 1.523 . S
C704 C685 1.368 . S
C704 C698 1.368 . S
C704 C703 1.523 . S
C705 C689 1.429 . S
C705 C701 1.429 . S
C705 C706 1.523 . S
C706 C690 1.368 . S
C706 C702 1.368 . S
C706 C705 1.523 . S
H707 C682 0.950 . S
H708 C684 0.950 . S
H709 C685 0.949 . S
H710 C687 0.950 . S
H711 C689 0.950 . S
C712 C713 1.349 . S
C712 C714 1.327 . S
C712 H737 0.950 . S
C713 C712 1.349 . S
C713 C729 1.349 . S
C714 C712 1.327 . S
C714 C733 1.429 . S
C714 H738 0.950 . S
C715 C732 1.574 . S
C715 C734 1.368 . S
C715 H739 0.949 . S
H716 C720 0.949 . S
C717 C718 1.349 . S
C717 C719 1.327 . S
C717 H740 0.950 . S
C718 C717 1.349 . S
C718 C730 1.349 . S
C719 C717 1.327 . S
C719 C735 1.429 . S
C719 H741 0.950 . S
C720 H716 0.949 . S
C720 C728 1.574 . S
C720 C736 1.368 . S
H721 C729 0.950 . S
H722 C727 0.950 . S
H723 C728 0.949 . S
H724 C730 0.950 . S
H725 C731 0.950 . S
H726 C732 0.949 . S
C727 H722 0.950 . S
C727 C729 1.327 . S
C727 C733 1.429 . S
C728 C720 1.574 . S
C728 H723 0.949 . S
C728 C734 1.368 . S
C729 C713 1.349 . S
C729 H721 0.950 . S
C729 C727 1.327 . S
C730 C718 1.349 . S
C730 H724 0.950 . S
C730 C731 1.327 . S
C731 H725 0.950 . S
C731 C730 1.327 . S
C731 C735 1.429 . S
C732 C715 1.574 . S
C732 H726 0.949 . S
C732 C736 1.368 . S
C733 C714 1.429 . S
C733 C727 1.429 . S
C733 C734 1.523 . S
C734 C715 1.368 . S
C734 C728 1.368 . S
C734 C733 1.523 . S
C735 C719 1.429 . S
C735 C731 1.429 . S
C735 C736 1.523 . S
C736 C720 1.368 . S
C736 C732 1.368 . S
C736 C735 1.523 . S
H737 C712 0.950 . S
H738 C714 0.950 . S
H739 C715 0.949 . S
H740 C717 0.950 . S
H741 C719 0.950 . S
C742 C743 1.349 . S
C742 C744 1.327 . S
C742 H767 0.950 . S
C743 C742 1.349 . S
C743 C759 1.349 . S
C744 C742 1.327 . S
C744 C763 1.429 . S
C744 H768 0.950 . S
C745 C762 1.574 . S
C745 C764 1.368 . S
C745 H769 0.949 . S
H746 C750 0.949 . S
C747 C748 1.349 . S
C747 C749 1.327 . S
C747 H770 0.950 . S
C748 C747 1.349 . S
C748 C760 1.349 . S
C749 C747 1.327 . S
C749 C765 1.429 . S
C749 H771 0.950 . S
C750 H746 0.949 . S
C750 C758 1.574 . S
C750 C766 1.368 . S
H751 C759 0.950 . S
H752 C757 0.950 . S
H753 C758 0.949 . S
H754 C760 0.950 . S
H755 C761 0.950 . S
H756 C762 0.949 . S
C757 H752 0.950 . S
C757 C759 1.327 . S
C757 C763 1.429 . S
C758 C750 1.574 . S
C758 H753 0.949 . S
C758 C764 1.368 . S
C759 C743 1.349 . S
C759 H751 0.950 . S
C759 C757 1.327 . S
C760 C748 1.349 . S
C760 H754 0.950 . S
C760 C761 1.327 . S
C761 H755 0.950 . S
C761 C760 1.327 . S
C761 C765 1.429 . S
C762 C745 1.574 . S
C762 H756 0.949 . S
C762 C766 1.368 . S
C763 C744 1.429 . S
C763 C757 1.429 . S
C763 C764 1.523 . S
C764 C745 1.368 . S
C764 C758 1.368 . S
C764 C763 1.523 . S
C765 C749 1.429 . S
C765 C761 1.429 . S
C765 C766 1.523 . S
C766 C750 1.368 . S
C766 C762 1.368 . S
C766 C765 1.523 . S
H767 C742 0.950 . S
H768 C744 0.950 . S
H769 C745 0.949 . S
H770 C747 0.950 . S
H771 C749 0.950 . S
C772 C773 1.349 . S
C772 C774 1.327 . S
C772 H797 0.950 . S
C773 C772 1.349 . S
C773 C789 1.349 . S
C774 C772 1.327 . S
C774 C793 1.429 . S
C774 H798 0.950 . S
C775 C792 1.574 . S
C775 C794 1.368 . S
C775 H799 0.949 . S
H776 C780 0.949 . S
C777 C778 1.349 . S
C777 C779 1.327 . S
C777 H800 0.950 . S
C778 C777 1.349 . S
C778 C790 1.349 . S
C779 C777 1.327 . S
C779 C795 1.429 . S
C779 H801 0.950 . S
C780 H776 0.949 . S
C780 C788 1.574 . S
C780 C796 1.368 . S
H781 C789 0.950 . S
H782 C787 0.950 . S
H783 C788 0.949 . S
H784 C790 0.950 . S
H785 C791 0.950 . S
H786 C792 0.949 . S
C787 H782 0.950 . S
C787 C789 1.327 . S
C787 C793 1.429 . S
C788 C780 1.574 . S
C788 H783 0.949 . S
C788 C794 1.368 . S
C789 C773 1.349 . S
C789 H781 0.950 . S
C789 C787 1.327 . S
C790 C778 1.349 . S
C790 H784 0.950 . S
C790 C791 1.327 . S
C791 H785 0.950 . S
C791 C790 1.327 . S
C791 C795 1.429 . S
C792 C775 1.574 . S
C792 H786 0.949 . S
C792 C796 1.368 . S
C793 C774 1.429 . S
C793 C787 1.429 . S
C793 C794 1.523 . S
C794 C775 1.368 . S
C794 C788 1.368 . S
C794 C793 1.523 . S
C795 C779 1.429 . S
C795 C791 1.429 . S
C795 C796 1.523 . S
C796 C780 1.368 . S
C796 C792 1.368 . S
C796 C795 1.523 . S
H797 C772 0.950 . S
H798 C774 0.950 . S
H799 C775 0.949 . S
H800 C777 0.950 . S
H801 C779 0.950 . S
C802 C803 1.349 . S
C802 C804 1.327 . S
C802 H827 0.950 . S
C803 C802 1.349 . S
C803 C819 1.349 . S
C804 C802 1.327 . S
C804 C823 1.429 . S
C804 H828 0.950 . S
C805 C822 1.574 . S
C805 C824 1.368 . S
C805 H829 0.949 . S
H806 C810 0.949 . S
C807 C808 1.349 . S
C807 C809 1.327 . S
C807 H830 0.950 . S
C808 C807 1.349 . S
C808 C820 1.349 . S
C809 C807 1.327 . S
C809 C825 1.429 . S
C809 H831 0.950 . S
C810 H806 0.949 . S
C810 C818 1.574 . S
C810 C826 1.368 . S
H811 C819 0.950 . S
H812 C817 0.950 . S
H813 C818 0.949 . S
H814 C820 0.950 . S
H815 C821 0.950 . S
H816 C822 0.949 . S
C817 H812 0.950 . S
C817 C819 1.327 . S
C817 C823 1.429 . S
C818 C810 1.574 . S
C818 H813 0.949 . S
C818 C824 1.368 . S
C819 C803 1.349 . S
C819 H811 0.950 . S
C819 C817 1.327 . S
C820 C808 1.349 . S
C820 H814 0.950 . S
C820 C821 1.327 . S
C821 H815 0.950 . S
C821 C820 1.327 . S
C821 C825 1.429 . S
C822 C805 1.574 . S
C822 H816 0.949 . S
C822 C826 1.368 . S
C823 C804 1.429 . S
C823 C817 1.429 . S
C823 C824 1.523 . S
C824 C805 1.368 . S
C824 C818 1.368 . S
C824 C823 1.523 . S
C825 C809 1.429 . S
C825 C821 1.429 . S
C825 C826 1.523 . S
C826 C810 1.368 . S
C826 C822 1.368 . S
C826 C825 1.523 . S
H827 C802 0.950 . S
H828 C804 0.950 . S
H829 C805 0.949 . S
H830 C807 0.950 . S
H831 C809 0.950 . S
C832 C833 1.349 . S
C832 C834 1.327 . S
C832 H857 0.950 . S
C833 C832 1.349 . S
C833 C849 1.349 . S
C834 C832 1.327 . S
C834 C853 1.429 . S
C834 H858 0.950 . S
C835 C852 1.574 . S
C835 C854 1.368 . S
C835 H859 0.949 . S
H836 C840 0.949 . S
C837 C838 1.349 . S
C837 C839 1.327 . S
C837 H860 0.950 . S
C838 C837 1.349 . S
C838 C850 1.349 . S
C839 C837 1.327 . S
C839 C855 1.429 . S
C839 H861 0.950 . S
C840 H836 0.949 . S
C840 C848 1.574 . S
C840 C856 1.368 . S
H841 C849 0.950 . S
H842 C847 0.950 . S
H843 C848 0.949 . S
H844 C850 0.950 . S
H845 C851 0.950 . S
H846 C852 0.949 . S
C847 H842 0.950 . S
C847 C849 1.327 . S
C847 C853 1.429 . S
C848 C840 1.574 . S
C848 H843 0.949 . S
C848 C854 1.368 . S
C849 C833 1.349 . S
C849 H841 0.950 . S
C849 C847 1.327 . S
C850 C838 1.349 . S
C850 H844 0.950 . S
C850 C851 1.327 . S
C851 H845 0.950 . S
C851 C850 1.327 . S
C851 C855 1.429 . S
C852 C835 1.574 . S
C852 H846 0.949 . S
C852 C856 1.368 . S
C853 C834 1.429 . S
C853 C847 1.429 . S
C853 C854 1.523 . S
C854 C835 1.368 . S
C854 C848 1.368 . S
C854 C853 1.523 . S
C855 C839 1.429 . S
C855 C851 1.429 . S
C855 C856 1.523 . S
C856 C840 1.368 . S
C856 C852 1.368 . S
C856 C855 1.523 . S
H857 C832 0.950 . S
H858 C834 0.950 . S
H859 C835 0.949 . S
H860 C837 0.950 . S
H861 C839 0.950 . S
C862 C863 1.349 . S
C862 C864 1.327 . S
C862 H887 0.950 . S
C863 C862 1.349 . S
C863 C879 1.349 . S
C864 C862 1.327 . S
C864 C883 1.429 . S
C864 H888 0.950 . S
C865 C882 1.574 . S
C865 C884 1.368 . S
C865 H889 0.949 . S
H866 C870 0.949 . S
C867 C868 1.349 . S
C867 C869 1.327 . S
C867 H890 0.950 . S
C868 C867 1.349 . S
C868 C880 1.349 . S
C869 C867 1.327 . S
C869 C885 1.429 . S
C869 H891 0.950 . S
C870 H866 0.949 . S
C870 C878 1.574 . S
C870 C886 1.368 . S
H871 C879 0.950 . S
H872 C877 0.950 . S
H873 C878 0.949 . S
H874 C880 0.950 . S
H875 C881 0.950 . S
H876 C882 0.949 . S
C877 H872 0.950 . S
C877 C879 1.327 . S
C877 C883 1.429 . S
C878 C870 1.574 . S
C878 H873 0.949 . S
C878 C884 1.368 . S
C879 C863 1.349 . S
C879 H871 0.950 . S
C879 C877 1.327 . S
C880 C868 1.349 . S
C880 H874 0.950 . S
C880 C881 1.327 . S
C881 H875 0.950 . S
C881 C880 1.327 . S
C881 C885 1.429 . S
C882 C865 1.574 . S
C882 H876 0.949 . S
C882 C886 1.368 . S
C883 C864 1.429 . S
C883 C877 1.429 . S
C883 C884 1.523 . S
C884 C865 1.368 . S
C884 C878 1.368 . S
C884 C883 1.523 . S
C885 C869 1.429 . S
C885 C881 1.429 . S
C885 C886 1.523 . S
C886 C870 1.368 . S
C886 C882 1.368 . S
C886 C885 1.523 . S
H887 C862 0.950 . S
H888 C864 0.950 . S
H889 C865 0.949 . S
H890 C867 0.950 . S
H891 C869 0.950 . S
C892 C893 1.349 . S
C892 C894 1.327 . S
C892 H917 0.950 . S
C893 C892 1.349 . S
C893 C909 1.349 . S
C894 C892 1.327 . S
C894 C913 1.429 . S
C894 H918 0.950 . S
C895 C912 1.574 . S
C895 C914 1.368 . S
C895 H919 0.949 . S
H896 C900 0.949 . S
C897 C898 1.349 . S
C897 C899 1.327 . S
C897 H920 0.950 . S
C898 C897 1.349 . S
C898 C910 1.349 . S
C899 C897 1.327 . S
C899 C915 1.429 . S
C899 H921 0.950 . S
C900 H896 0.949 . S
C900 C908 1.574 . S
C900 C916 1.368 . S
H901 C909 0.950 . S
H902 C907 0.950 . S
H903 C908 0.949 . S
H904 C910 0.950 . S
H905 C911 0.950 . S
H906 C912 0.949 . S
C907 H902 0.950 . S
C907 C909 1.327 . S
C907 C913 1.429 . S
C908 C900 1.574 . S
C908 H903 0.949 . S
C908 C914 1.368 . S
C909 C893 1.349 . S
C909 H901 0.950 . S
C909 C907 1.327 . S
C910 C898 1.349 . S
C910 H904 0.950 . S
C910 C911 1.327 . S
C911 H905 0.950 . S
C911 C910 1.327 . S
C911 C915 1.429 . S
C912 C895 1.574 . S
C912 H906 0.949 . S
C912 C916 1.368 . S
C913 C894 1.429 . S
C913 C907 1.429 . S
C913 C914 1.523 . S
C914 C895 1.368 . S
C914 C908 1.368 . S
C914 C913 1.523 . S
C915 C899 1.429 . S
C915 C911 1.429 . S
C915 C916 1.523 . S
C916 C900 1.368 . S
C916 C912 1.368 . S
C916 C915 1.523 . S
H917 C892 0.950 . S
H918 C894 0.950 . S
H919 C895 0.949 . S
H920 C897 0.950 . S
H921 C899 0.950 . S
C922 C923 1.349 . S
C922 C924 1.327 . S
C922 H947 0.950 . S
C923 C922 1.349 . S
C923 C939 1.349 . S
C924 C922 1.327 . S
C924 C943 1.429 . S
C924 H948 0.950 . S
C925 C942 1.574 . S
C925 C944 1.368 . S
C925 H949 0.949 . S
H926 C930 0.949 . S
C927 C928 1.349 . S
C927 C929 1.327 . S
C927 H950 0.950 . S
C928 C927 1.349 . S
C928 C940 1.349 . S
C929 C927 1.327 . S
C929 C945 1.429 . S
C929 H951 0.950 . S
C930 H926 0.949 . S
C930 C938 1.574 . S
C930 C946 1.368 . S
H931 C939 0.950 . S
H932 C937 0.950 . S
H933 C938 0.949 . S
H934 C940 0.950 . S
H935 C941 0.950 . S
H936 C942 0.949 . S
C937 H932 0.950 . S
C937 C939 1.327 . S
C937 C943 1.429 . S
C938 C930 1.574 . S
C938 H933 0.949 . S
C938 C944 1.368 . S
C939 C923 1.349 . S
C939 H931 0.950 . S
C939 C937 1.327 . S
C940 C928 1.349 . S
C940 H934 0.950 . S
C940 C941 1.327 . S
C941 H935 0.950 . S
C941 C940 1.327 . S
C941 C945 1.429 . S
C942 C925 1.574 . S
C942 H936 0.949 . S
C942 C946 1.368 . S
C943 C924 1.429 . S
C943 C937 1.429 . S
C943 C944 1.523 . S
C944 C925 1.368 . S
C944 C938 1.368 . S
C944 C943 1.523 . S
C945 C929 1.429 . S
C945 C941 1.429 . S
C945 C946 1.523 . S
C946 C930 1.368 . S
C946 C942 1.368 . S
C946 C945 1.523 . S
H947 C922 0.950 . S
H948 C924 0.950 . S
H949 C925 0.949 . S
H950 C927 0.950 . S
H951 C929 0.950 . S
C952 C953 1.349 . S
C952 C954 1.327 . S
C952 H977 0.950 . S
C953 C952 1.349 . S
C953 C969 1.349 . S
C954 C952 1.327 . S
C954 C973 1.429 . S
C954 H978 0.950 . S
C955 C972 1.574 . S
C955 C974 1.368 . S
C955 H979 0.949 . S
H956 C960 0.949 . S
C957 C958 1.349 . S
C957 C959 1.327 . S
C957 H980 0.950 1_556 S
C958 C957 1.349 . S
C958 C970 1.349 . S
C959 C957 1.327 . S
C959 C975 1.429 . S
C959 H981 0.950 . S
C960 H956 0.949 . S
C960 C968 1.574 . S
C960 C976 1.368 . S
H961 C969 0.950 . S
H962 C967 0.950 . S
H963 C968 0.949 . S
H964 C970 0.950 . S
H965 C971 0.950 . S
H966 C972 0.949 . S
C967 H962 0.950 . S
C967 C969 1.327 . S
C967 C973 1.429 . S
C968 C960 1.574 . S
C968 H963 0.949 . S
C968 C974 1.368 . S
C969 C953 1.349 . S
C969 H961 0.950 . S
C969 C967 1.327 . S
C970 C958 1.349 . S
C970 H964 0.950 . S
C970 C971 1.327 . S
C971 H965 0.950 . S
C971 C970 1.327 . S
C971 C975 1.429 . S
C972 C955 1.574 . S
C972 H966 0.949 . S
C972 C976 1.368 . S
C973 C954 1.429 . S
C973 C967 1.429 . S
C973 C974 1.523 . S
C974 C955 1.368 . S
C974 C968 1.368 . S
C974 C973 1.523 . S
C975 C959 1.429 . S
C975 C971 1.429 . S
C975 C976 1.523 . S
C976 C960 1.368 . S
C976 C972 1.368 . S
C976 C975 1.523 . S
H977 C952 0.950 . S
H978 C954 0.950 . S
H979 C955 0.949 . S
H980 C957 0.950 1_554 S
H981 C959 0.950 . S
C982 C983 1.349 . S
C982 C984 1.327 . S
C982 H1007 0.950 . S
C983 C982 1.349 . S
C983 C999 1.349 . S
C984 C982 1.327 . S
C984 C1003 1.429 . S
C984 H1008 0.950 . S
C985 C1002 1.574 . S
C985 C1004 1.368 . S
C985 H1009 0.949 . S
H986 C990 0.949 . S
C987 C988 1.349 . S
C987 C989 1.327 . S
C987 H1010 0.950 . S
C988 C987 1.349 . S
C988 C1000 1.349 . S
C989 C987 1.327 . S
C989 C1005 1.429 . S
C989 H1011 0.950 . S
C990 H986 0.949 . S
C990 C998 1.574 . S
C990 C1006 1.368 . S
H991 C999 0.950 . S
H992 C997 0.950 . S
H993 C998 0.949 . S
H994 C1000 0.950 . S
H995 C1001 0.950 . S
H996 C1002 0.949 . S
C997 H992 0.950 . S
C997 C999 1.327 . S
C997 C1003 1.429 . S
C998 C990 1.574 . S
C998 H993 0.949 . S
C998 C1004 1.368 . S
C999 C983 1.349 . S
C999 H991 0.950 . S
C999 C997 1.327 . S
C1000 C988 1.349 . S
C1000 H994 0.950 . S
C1000 C1001 1.327 . S
C1001 H995 0.950 . S
C1001 C1000 1.327 . S
C1001 C1005 1.429 . S
C1002 C985 1.574 . S
C1002 H996 0.949 . S
C1002 C1006 1.368 . S
C1003 C984 1.429 . S
C1003 C997 1.429 . S
C1003 C1004 1.523 . S
C1004 C985 1.368 . S
C1004 C998 1.368 . S
C1004 C1003 1.523 . S
C1005 C989 1.429 . S
C1005 C1001 1.429 . S
C1005 C1006 1.523 . S
C1006 C990 1.368 . S
C1006 C1002 1.368 . S
C1006 C1005 1.523 . S
H1007 C982 0.950 . S
H1008 C984 0.950 . S
H1009 C985 0.949 . S
H1010 C987 0.950 . S
H1011 C989 0.950 . S
C1012 C1013 1.349 . S
C1012 C1014 1.327 . S
C1012 H1037 0.950 . S
C1013 C1012 1.349 . S
C1013 C1029 1.349 . S
C1014 C1012 1.327 . S
C1014 C1033 1.429 . S
C1014 H1038 0.950 . S
C1015 C1032 1.574 . S
C1015 C1034 1.368 . S
C1015 H1039 0.949 . S
H1016 C1020 0.949 . S
C1017 C1018 1.349 . S
C1017 C1019 1.327 . S
C1017 H1040 0.950 1_554 S
C1018 C1017 1.349 . S
C1018 C1030 1.349 . S
C1019 C1017 1.327 . S
C1019 C1035 1.429 . S
C1019 H1041 0.950 . S
C1020 H1016 0.949 . S
C1020 C1028 1.574 . S
C1020 C1036 1.368 . S
H1021 C1029 0.950 . S
H1022 C1027 0.950 . S
H1023 C1028 0.949 . S
H1024 C1030 0.950 . S
H1025 C1031 0.950 . S
H1026 C1032 0.949 . S
C1027 H1022 0.950 . S
C1027 C1029 1.327 . S
C1027 C1033 1.429 . S
C1028 C1020 1.574 . S
C1028 H1023 0.949 . S
C1028 C1034 1.368 . S
C1029 C1013 1.349 . S
C1029 H1021 0.950 . S
C1029 C1027 1.327 . S
C1030 C1018 1.349 . S
C1030 H1024 0.950 . S
C1030 C1031 1.327 . S
C1031 H1025 0.950 . S
C1031 C1030 1.327 . S
C1031 C1035 1.429 . S
C1032 C1015 1.574 . S
C1032 H1026 0.949 . S
C1032 C1036 1.368 . S
C1033 C1014 1.429 . S
C1033 C1027 1.429 . S
C1033 C1034 1.523 . S
C1034 C1015 1.368 . S
C1034 C1028 1.368 . S
C1034 C1033 1.523 . S
C1035 C1019 1.429 . S
C1035 C1031 1.429 . S
C1035 C1036 1.523 . S
C1036 C1020 1.368 . S
C1036 C1032 1.368 . S
C1036 C1035 1.523 . S
H1037 C1012 0.950 . S
H1038 C1014 0.950 . S
H1039 C1015 0.949 . S
H1040 C1017 0.950 1_556 S
H1041 C1019 0.950 . S
C1042 C1043 1.349 . S
C1042 C1044 1.327 . S
C1042 H1067 0.950 . S
C1043 C1042 1.349 . S
C1043 C1059 1.349 . S
C1044 C1042 1.327 . S
C1044 C1063 1.429 . S
C1044 H1068 0.950 . S
C1045 C1062 1.574 . S
C1045 C1064 1.368 . S
C1045 H1069 0.949 . S
H1046 C1050 0.949 . S
C1047 C1048 1.349 . S
C1047 C1049 1.327 . S
C1047 H1070 0.950 . S
C1048 C1047 1.349 . S
C1048 C1060 1.349 . S
C1049 C1047 1.327 . S
C1049 C1065 1.429 . S
C1049 H1071 0.950 . S
C1050 H1046 0.949 . S
C1050 C1058 1.574 . S
C1050 C1066 1.368 . S
H1051 C1059 0.950 . S
H1052 C1057 0.950 . S
H1053 C1058 0.949 . S
H1054 C1060 0.950 . S
H1055 C1061 0.950 . S
H1056 C1062 0.949 . S
C1057 H1052 0.950 . S
C1057 C1059 1.327 . S
C1057 C1063 1.429 . S
C1058 C1050 1.574 . S
C1058 H1053 0.949 . S
C1058 C1064 1.368 . S
C1059 C1043 1.349 . S
C1059 H1051 0.950 . S
C1059 C1057 1.327 . S
C1060 C1048 1.349 . S
C1060 H1054 0.950 . S
C1060 C1061 1.327 . S
C1061 H1055 0.950 . S
C1061 C1060 1.327 . S
C1061 C1065 1.429 . S
C1062 C1045 1.574 . S
C1062 H1056 0.949 . S
C1062 C1066 1.368 . S
C1063 C1044 1.429 . S
C1063 C1057 1.429 . S
C1063 C1064 1.523 . S
C1064 C1045 1.368 . S
C1064 C1058 1.368 . S
C1064 C1063 1.523 . S
C1065 C1049 1.429 . S
C1065 C1061 1.429 . S
C1065 C1066 1.523 . S
C1066 C1050 1.368 . S
C1066 C1062 1.368 . S
C1066 C1065 1.523 . S
H1067 C1042 0.950 . S
H1068 C1044 0.950 . S
H1069 C1045 0.949 . S
H1070 C1047 0.950 . S
H1071 C1049 0.950 . S
C1072 C1073 1.349 . S
C1072 C1074 1.327 . S
C1072 H1097 0.950 . S
C1073 C1072 1.349 . S
C1073 C1089 1.349 . S
C1074 C1072 1.327 . S
C1074 C1093 1.429 . S
C1074 H1098 0.950 . S
C1075 C1092 1.574 . S
C1075 C1094 1.368 . S
C1075 H1099 0.949 . S
H1076 C1080 0.949 1_554 S
C1077 C1078 1.349 . S
C1077 C1079 1.327 . S
C1077 H1100 0.950 . S
C1078 C1077 1.349 . S
C1078 C1090 1.349 1_556 S
C1079 C1077 1.327 . S
C1079 C1095 1.429 . S
C1079 H1101 0.950 . S
C1080 H1076 0.949 1_556 S
C1080 C1088 1.574 . S
C1080 C1096 1.368 . S
H1081 C1089 0.950 . S
H1082 C1087 0.950 . S
H1083 C1088 0.949 . S
H1084 C1090 0.950 . S
H1085 C1091 0.950 1_554 S
H1086 C1092 0.949 . S
C1087 H1082 0.950 . S
C1087 C1089 1.327 . S
C1087 C1093 1.429 . S
C1088 C1080 1.574 . S
C1088 H1083 0.949 . S
C1088 C1094 1.368 . S
C1089 C1073 1.349 . S
C1089 H1081 0.950 . S
C1089 C1087 1.327 . S
C1090 C1078 1.349 1_554 S
C1090 H1084 0.950 . S
C1090 C1091 1.327 1_554 S
C1091 H1085 0.950 1_556 S
C1091 C1090 1.327 1_556 S
C1091 C1095 1.429 . S
C1092 C1075 1.574 . S
C1092 H1086 0.949 . S
C1092 C1096 1.368 . S
C1093 C1074 1.429 . S
C1093 C1087 1.429 . S
C1093 C1094 1.523 . S
C1094 C1075 1.368 . S
C1094 C1088 1.368 . S
C1094 C1093 1.523 . S
C1095 C1079 1.429 . S
C1095 C1091 1.429 . S
C1095 C1096 1.523 . S
C1096 C1080 1.368 . S
C1096 C1092 1.368 . S
C1096 C1095 1.523 . S
H1097 C1072 0.950 . S
H1098 C1074 0.950 . S
H1099 C1075 0.949 . S
H1100 C1077 0.950 . S
H1101 C1079 0.950 . S
C1102 C1103 1.349 . S
C1102 C1104 1.327 . S
C1102 H1127 0.950 . S
C1103 C1102 1.349 . S
C1103 C1119 1.349 . S
C1104 C1102 1.327 . S
C1104 C1123 1.429 . S
C1104 H1128 0.950 . S
C1105 C1122 1.574 . S
C1105 C1124 1.368 . S
C1105 H1129 0.949 . S
H1106 C1110 0.949 . S
C1107 C1108 1.349 . S
C1107 C1109 1.327 . S
C1107 H1130 0.950 . S
C1108 C1107 1.349 . S
C1108 C1120 1.349 . S
C1109 C1107 1.327 . S
C1109 C1125 1.429 . S
C1109 H1131 0.950 . S
C1110 H1106 0.949 . S
C1110 C1118 1.574 . S
C1110 C1126 1.368 . S
H1111 C1119 0.950 . S
H1112 C1117 0.950 . S
H1113 C1118 0.949 . S
H1114 C1120 0.950 . S
H1115 C1121 0.950 . S
H1116 C1122 0.949 . S
C1117 H1112 0.950 . S
C1117 C1119 1.327 . S
C1117 C1123 1.429 . S
C1118 C1110 1.574 . S
C1118 H1113 0.949 . S
C1118 C1124 1.368 . S
C1119 C1103 1.349 . S
C1119 H1111 0.950 . S
C1119 C1117 1.327 . S
C1120 C1108 1.349 . S
C1120 H1114 0.950 . S
C1120 C1121 1.327 . S
C1121 H1115 0.950 . S
C1121 C1120 1.327 . S
C1121 C1125 1.429 . S
C1122 C1105 1.574 . S
C1122 H1116 0.949 . S
C1122 C1126 1.368 . S
C1123 C1104 1.429 . S
C1123 C1117 1.429 . S
C1123 C1124 1.523 . S
C1124 C1105 1.368 . S
C1124 C1118 1.368 . S
C1124 C1123 1.523 . S
C1125 C1109 1.429 . S
C1125 C1121 1.429 . S
C1125 C1126 1.523 . S
C1126 C1110 1.368 . S
C1126 C1122 1.368 . S
C1126 C1125 1.523 . S
H1127 C1102 0.950 . S
H1128 C1104 0.950 . S
H1129 C1105 0.949 . S
H1130 C1107 0.950 . S
H1131 C1109 0.950 . S
C1132 C1133 1.349 . S
C1132 C1134 1.327 . S
C1132 H1157 0.950 . S
C1133 C1132 1.349 . S
C1133 C1149 1.349 . S
C1134 C1132 1.327 . S
C1134 C1153 1.429 . S
C1134 H1158 0.950 . S
C1135 C1152 1.574 . S
C1135 C1154 1.368 . S
C1135 H1159 0.949 . S
H1136 C1140 0.949 . S
C1137 C1138 1.349 . S
C1137 C1139 1.327 . S
C1137 H1160 0.950 . S
C1138 C1137 1.349 . S
C1138 C1150 1.349 . S
C1139 C1137 1.327 . S
C1139 C1155 1.429 . S
C1139 H1161 0.950 . S
C1140 H1136 0.949 . S
C1140 C1148 1.574 . S
C1140 C1156 1.368 . S
H1141 C1149 0.950 . S
H1142 C1147 0.950 . S
H1143 C1148 0.949 . S
H1144 C1150 0.950 . S
H1145 C1151 0.950 . S
H1146 C1152 0.949 . S
C1147 H1142 0.950 . S
C1147 C1149 1.327 . S
C1147 C1153 1.429 . S
C1148 C1140 1.574 . S
C1148 H1143 0.949 . S
C1148 C1154 1.368 . S
C1149 C1133 1.349 . S
C1149 H1141 0.950 . S
C1149 C1147 1.327 . S
C1150 C1138 1.349 . S
C1150 H1144 0.950 . S
C1150 C1151 1.327 . S
C1151 H1145 0.950 . S
C1151 C1150 1.327 . S
C1151 C1155 1.429 . S
C1152 C1135 1.574 . S
C1152 H1146 0.949 . S
C1152 C1156 1.368 . S
C1153 C1134 1.429 . S
C1153 C1147 1.429 . S
C1153 C1154 1.523 . S
C1154 C1135 1.368 . S
C1154 C1148 1.368 . S
C1154 C1153 1.523 . S
C1155 C1139 1.429 . S
C1155 C1151 1.429 . S
C1155 C1156 1.523 . S
C1156 C1140 1.368 . S
C1156 C1152 1.368 . S
C1156 C1155 1.523 . S
H1157 C1132 0.950 . S
H1158 C1134 0.950 . S
H1159 C1135 0.949 . S
H1160 C1137 0.950 . S
H1161 C1139 0.950 . S
C1162 C1163 1.349 . S
C1162 C1164 1.327 . S
C1162 H1187 0.950 . S
C1163 C1162 1.349 . S
C1163 C1179 1.349 . S
C1164 C1162 1.327 . S
C1164 C1183 1.429 . S
C1164 H1188 0.950 . S
C1165 C1182 1.574 . S
C1165 C1184 1.368 . S
C1165 H1189 0.949 . S
H1166 C1170 0.949 . S
C1167 C1168 1.349 . S
C1167 C1169 1.327 . S
C1167 H1190 0.950 . S
C1168 C1167 1.349 . S
C1168 C1180 1.349 . S
C1169 C1167 1.327 . S
C1169 C1185 1.429 . S
C1169 H1191 0.950 . S
C1170 H1166 0.949 . S
C1170 C1178 1.574 . S
C1170 C1186 1.368 . S
H1171 C1179 0.950 . S
H1172 C1177 0.950 . S
H1173 C1178 0.949 . S
H1174 C1180 0.950 . S
H1175 C1181 0.950 . S
H1176 C1182 0.949 . S
C1177 H1172 0.950 . S
C1177 C1179 1.327 . S
C1177 C1183 1.429 . S
C1178 C1170 1.574 . S
C1178 H1173 0.949 . S
C1178 C1184 1.368 . S
C1179 C1163 1.349 . S
C1179 H1171 0.950 . S
C1179 C1177 1.327 . S
C1180 C1168 1.349 . S
C1180 H1174 0.950 . S
C1180 C1181 1.327 . S
C1181 H1175 0.950 . S
C1181 C1180 1.327 . S
C1181 C1185 1.429 . S
C1182 C1165 1.574 . S
C1182 H1176 0.949 . S
C1182 C1186 1.368 . S
C1183 C1164 1.429 . S
C1183 C1177 1.429 . S
C1183 C1184 1.523 . S
C1184 C1165 1.368 . S
C1184 C1178 1.368 . S
C1184 C1183 1.523 . S
C1185 C1169 1.429 . S
C1185 C1181 1.429 . S
C1185 C1186 1.523 . S
C1186 C1170 1.368 . S
C1186 C1182 1.368 . S
C1186 C1185 1.523 . S
H1187 C1162 0.950 . S
H1188 C1164 0.950 . S
H1189 C1165 0.949 . S
H1190 C1167 0.950 . S
H1191 C1169 0.950 . S
C473 C1 2.955 . S
C478 C331 2.931 . S
C503 C40 2.423 . S
C508 C362 2.482 . S
C538 C401 1.290 . S
C533 C99 1.330 . S
C563 C118 0.371 . S
C568 C438 0.389 . S
C598 C361 2.859 . S
C593 C16 2.939 . S
C628 C318 1.623 . S
C623 C60 1.610 . S
C658 C450 1.336 . S
C653 C79 1.384 . S
C688 C407 0.890 . S
C683 C138 0.897 . S
C713 C21 2.288 . S
C718 C451 2.285 . S
C748 C367 1.286 . S
C743 C94 1.285 . S
C773 C133 0.541 . S
C778 C330 0.584 . S
C803 C55 2.595 . S
C808 C402 2.619 . S
C838 C322 2.937 . S
C833 C157 2.960 . S
C863 C196 2.413 . S
C868 C371 2.482 . S
C893 C255 1.323 . S
C898 C410 1.288 . S
C923 C289 0.366 . S
C928 C447 0.387 . S
C953 C172 2.939 . S
C958 C370 2.856 . S
C988 C327 1.625 . S
C983 C216 1.601 . S
C1018 C441 1.339 . S
C1013 C235 1.384 . S
C1048 C398 0.889 . S
C1043 C294 0.895 . S
C1073 C177 2.284 . S
C1078 C442 2.284 . S
C1108 C358 1.288 . S
C1103 C250 1.287 . S
C1138 C321 0.587 . S
C1133 C274 0.545 . S
C1163 C211 2.594 . S
C1168 C411 2.613 . S
