# Generated by pormake.
# Topology pts, (4,4)-cn, num edge types: 1
# Building blocks:
#     Node 0, Type 0, BuildingBlock: MUDLON_clean_linker_0, # of connection points: 4
#     Node 1, Type 0, BuildingBlock: MUDLON_clean_linker_0, # of connection points: 4
#     Node 2, Type 1, BuildingBlock: UXUYUI_clean_sbu_0, # of connection points: 4
#     Node 3, Type 1, BuildingBlock: UXUYUI_clean_sbu_0, # of connection points: 4
#     Edge 4, Type (0, 1), None
#     Edge 5, Type (0, 1), None
#     Edge 6, Type (0, 1), None
#     Edge 7, Type (0, 1), None
#     Edge 8, Type (0, 1), None
#     Edge 9, Type (0, 1), None
#     Edge 10, Type (0, 1), None
#     Edge 11, Type (0, 1), None
# Relax obj value: 0.016
# Max RMSD: 0.055
# Mean RMSD: 0.052
data_MOF--net-pts--node1-UXUYUI_clean_sbu_0--node2-MUDLON_clean_linker_0--edge1-none
_symmetry_space_group_name_H-M    P1
_symmetry_Int_Tables_number       1
_symmetry_cell_setting            triclinic
loop_
_symmetry_equiv_pos_as_xyz
'x, y, z'
_cell_length_a     26.252848
_cell_length_b     26.27611
_cell_length_c     33.439444
_cell_angle_alpha  89.990601
_cell_angle_beta   89.953281
_cell_angle_gamma 90.061231
loop_
_atom_site_label
_atom_site_type_symbol
_atom_site_fract_x
_atom_site_fract_y
_atom_site_fract_z
_atom_type_partial_charge
H0 H 0.69613 0.11581 0.06993 0.0
N1 N 0.68532 0.05696 1.00574 0.0
H2 H 0.75448 0.10309 0.12631 0.0
H3 H 0.7414 0.97112 0.02077 0.0
H4 H 0.79989 0.95834 0.07668 0.0
H5 H 0.68753 0.97687 0.95268 0.0
H6 H 0.74665 0.96725 0.8964 0.0
H7 H 0.74915 0.12591 0.97681 0.0
H8 H 0.80912 0.11587 0.92118 0.0
H9 H 0.60547 0.11286 0.98505 0.0
H10 H 0.64707 0.96258 0.02482 0.0
H11 H 0.51567 0.08793 0.98446 0.0
H12 H 0.55759 0.93791 0.02613 0.0
H13 H 0.26117 0.03665 0.02311 0.0
H14 H 0.20131 0.05061 0.07803 0.0
H15 H 0.24876 0.90942 0.13235 0.0
H16 H 0.30799 0.89489 0.07654 0.0
H17 H 0.25248 0.88209 0.9826 0.0
H18 H 0.19339 0.89148 0.92637 0.0
H19 H 0.25907 0.03803 0.89905 0.0
H20 H 0.31728 0.02909 0.95581 0.0
H21 H 0.35708 0.04465 0.02889 0.0
H22 H 0.44664 0.06921 0.02764 0.0
H23 H 0.48652 0.91891 0.98534 0.0
N24 N 0.31779 0.95053 0.01033 0.0
H25 H 0.39679 0.89413 0.98848 0.0
C26 C 0.71457 0.04481 0.04105 0.0
C27 C 0.71797 0.08095 0.07173 0.0
C28 C 0.75126 0.07358 0.10385 0.0
C29 C 0.78214 0.02994 0.10566 0.0
C30 C 0.77712 0.99267 0.07576 0.0
C31 C 0.74345 0.99984 0.04388 0.0
C32 C 0.71365 0.05253 0.96887 0.0
C33 C 0.71282 0.00803 0.94537 0.0
C34 C 0.74667 1.00247 0.91324 0.0
C35 C 0.78245 0.04075 0.90468 0.0
C36 C 0.78198 0.08576 0.92729 0.0
C37 C 0.74768 0.09164 0.95885 0.0
C38 C 0.63298 0.04001 1.00527 0.0
C39 C 0.59509 0.07456 0.99387 0.0
C40 C 0.54376 0.0603 0.9939 0.0
C41 C 0.52906 0.01094 1.00557 0.0
C42 C 0.56732 0.97606 0.01654 0.0
C43 C 0.61872 0.99029 0.01618 0.0
C44 C 0.28869 0.96416 0.04545 0.0
C45 C 0.25928 0.00892 0.04698 0.0
C46 C 0.22496 0.01684 0.07833 0.0
C47 C 0.22008 0.98081 0.10915 0.0
C48 C 0.25187 0.93783 0.109 0.0
C49 C 0.28565 0.9295 0.07724 0.0
C50 C 0.28953 0.95446 0.97339 0.0
C51 C 0.25478 0.91575 0.96399 0.0
C52 C 0.22098 0.92129 0.93209 0.0
C53 C 0.22171 0.96552 0.90854 0.0
C54 C 0.2581 1.00338 0.91659 0.0
C55 C 0.29145 0.9982 0.94902 0.0
C56 C 0.37025 0.96709 0.00927 0.0
C57 C 0.38504 0.01682 0.01967 0.0
C58 C 0.43644 0.031 0.01852 0.0
C59 C 0.47415 0.99604 0.00649 0.0
C60 C 0.45891 0.94661 0.99552 0.0
C61 C 0.4076 0.93241 0.99701 0.0
H62 H 0.89274 0.70233 0.56824 0.0
N63 N 0.95325 0.68963 0.5051 0.0
H64 H 0.90569 0.76034 0.62492 0.0
H65 H 0.04039 0.74339 0.52171 0.0
H66 H 0.05337 0.80113 0.57778 0.0
H67 H 0.03619 0.70133 0.45585 0.0
H68 H 0.04331 0.76132 0.40023 0.0
H69 H 0.87887 0.74311 0.47197 0.0
H70 H 0.88508 0.80218 0.41563 0.0
H71 H 0.89675 0.60975 0.48561 0.0
H72 H 0.04849 0.65171 0.52199 0.0
H73 H 0.92161 0.5201 0.48473 0.0
H74 H 0.07315 0.5624 0.52303 0.0
H75 H 0.96962 0.27216 0.52785 0.0
H76 H 0.95748 0.21377 0.58334 0.0
H77 H 0.1095 0.24645 0.62526 0.0
H78 H 0.12183 0.30525 0.56888 0.0
H79 H 0.13039 0.27146 0.46916 0.0
H80 H 0.11927 0.2143 0.41158 0.0
H81 H 0.95944 0.2518 0.40793 0.0
H82 H 0.97102 0.31044 0.46413 0.0
H83 H 0.96515 0.36255 0.52916 0.0
H84 H 0.94139 0.45192 0.52807 0.0
H85 H 0.0907 0.49064 0.48257 0.0
N86 N 0.05836 0.32231 0.50822 0.0
H87 H 0.11488 0.40085 0.48552 0.0
C88 C 0.96515 0.7187 0.54054 0.0
C89 C 0.92824 0.72313 0.57065 0.0
C90 C 0.93575 0.75614 0.60297 0.0
C91 C 0.98033 0.78565 0.60551 0.0
C92 C 0.01832 0.77941 0.57628 0.0
C93 C 0.01096 0.74616 0.54422 0.0
C94 C 0.95686 0.71799 0.46824 0.0
C95 C 1.00283 0.72255 0.44686 0.0
C96 C 0.00679 0.75682 0.4149 0.0
C97 C 0.96492 0.78709 0.40375 0.0
C98 C 0.91835 0.78025 0.4239 0.0
C99 C 0.91452 0.74619 0.45582 0.0
C100 C 0.97032 0.63745 0.50418 0.0
C101 C 0.93537 0.5995 0.49359 0.0
C102 C 0.94961 0.54825 0.49347 0.0
C103 C 0.99934 0.53369 0.50419 0.0
C104 C 0.03468 0.57203 0.51421 0.0
C105 C 0.02046 0.62336 0.51398 0.0
C106 C 0.04714 0.29301 0.54378 0.0
C107 C 1.00035 0.26757 0.54896 0.0
C108 C 0.99338 0.2339 0.58079 0.0
C109 C 0.03273 0.22513 0.60837 0.0
C110 C 0.07843 0.25262 0.60453 0.0
C111 C 0.08556 0.28609 0.57238 0.0
C112 C 0.05165 0.29476 0.47125 0.0
C113 C 0.09327 0.26824 0.45528 0.0
C114 C 0.08691 0.23575 0.42253 0.0
C115 C 0.03848 0.22868 0.4057 0.0
C116 C 0.99709 0.25662 0.42064 0.0
C117 C 1.00371 0.28999 0.45279 0.0
C118 C 0.04233 0.37486 0.50787 0.0
C119 C 0.99304 0.39005 0.51926 0.0
C120 C 0.97924 0.44146 0.51821 0.0
C121 C 0.01407 0.47883 0.50525 0.0
C122 C 0.06311 0.46327 0.49343 0.0
C123 C 0.07696 0.41193 0.49483 0.0
Li124 Li 0.00866 0.05484 0.28374 0.0
Li125 Li 0.99319 0.9645 0.28475 0.0
Li126 Li 0.04595 0.00483 0.23178 0.0
Li127 Li 0.95379 0.01605 0.23184 0.0
C128 C 0.08708 0.01836 0.32113 0.0
N129 N 0.13889 0.06048 0.38498 0.0
C130 C 0.07165 0.00787 0.36029 0.0
C131 C 0.12919 0.04984 0.31445 0.0
C132 C 0.09826 0.02963 0.39216 0.0
C133 C 0.15479 0.07088 0.34713 0.0
C134 C 0.90311 0.05217 0.29934 0.0
C135 C 0.8237 0.07177 0.33222 0.0
N136 N 0.82534 0.11953 0.31659 0.0
C137 C 0.90397 0.1015 0.28355 0.0
C138 C 0.86266 0.03719 0.32388 0.0
C139 C 0.86432 0.13497 0.29267 0.0
C140 C 0.0486 0.15143 0.31057 0.0
N141 N 0.01753 0.11153 0.31956 0.0
C142 C 0.99806 0.14786 0.38332 0.0
C143 C 0.9927 0.10901 0.35524 0.0
C144 C 0.03036 0.18902 0.37506 0.0
C145 C 0.05611 0.19059 0.33832 0.0
H146 H 0.06823 0.15251 0.28223 0.0
H147 H 0.96923 0.07636 0.36217 0.0
C148 C 0.00613 0.86161 0.31165 0.0
N149 N 0.98394 0.90739 0.3191 0.0
C150 C 0.99993 0.82123 0.33859 0.0
C151 C 0.94789 0.87596 0.37988 0.0
C152 C 0.9551 0.91508 0.35227 0.0
C153 C 0.97057 0.82821 0.37338 0.0
H154 H 0.02895 0.85661 0.28499 0.0
H155 H 0.93858 0.9521 0.35771 0.0
C156 C 0.03153 0.0963 0.19685 0.0
N157 N 0.08251 0.14869 0.13733 0.0
C158 C 0.00671 0.10841 0.16114 0.0
C159 C 0.08207 0.11147 0.20249 0.0
C160 C 0.03318 0.1348 0.13137 0.0
C161 C 0.10726 0.1377 0.17197 0.0
C162 C 0.95967 0.91243 0.21747 0.0
C163 C 0.97234 0.87662 0.18824 0.0
C164 C 0.91336 0.90821 0.2379 0.0
C165 C 0.93844 0.83698 0.17998 0.0
C166 C 0.88051 0.86802 0.22877 0.0
N167 N 0.89363 0.83353 0.20024 0.0
C168 C 0.14983 0.98634 0.20827 0.0
C169 C 0.0904 0.99907 0.15588 0.0
C170 C 0.18954 0.98113 0.18055 0.0
N171 N 0.10153 0.99556 0.19548 0.0
C172 C 0.12893 0.99518 0.12731 0.0
C173 C 0.17925 0.9862 0.13953 0.0
H174 H 0.15754 0.98305 0.23992 0.0
H175 H 0.05151 0.00548 0.14652 0.0
C176 C 0.84881 0.03344 0.20618 0.0
N177 N 0.89712 0.02035 0.19551 0.0
C178 C 0.81038 0.03643 0.17733 0.0
C179 C 0.87129 0.00989 0.12738 0.0
C180 C 0.90861 0.00798 0.15706 0.0
C181 C 0.82151 0.02481 0.13729 0.0
H182 H 0.83963 0.04156 0.2369 0.0
H183 H 0.94714 0.99711 0.14941 0.0
O184 O 0.0604 0.9988 0.28953 0.0
O185 O 0.94179 0.01874 0.29145 0.0
O186 O 0.00635 0.06984 0.22609 0.0
O187 O 0.99243 0.95158 0.22563 0.0
H188 H 0.03903 0.9838 0.366 0.0
H189 H 0.1417 0.05837 0.28437 0.0
H190 H 0.08648 0.02217 0.42261 0.0
H191 H 0.18721 0.0956 0.34239 0.0
H192 H 0.79215 0.06063 0.35113 0.0
H193 H 0.9348 0.11399 0.26451 0.0
H194 H 0.86129 0.99916 0.33627 0.0
H195 H 0.86453 0.17321 0.2807 0.0
H196 H 0.97829 0.14511 0.4117 0.0
H197 H 0.08157 0.22177 0.33119 0.0
H198 H 0.01785 0.78502 0.33226 0.0
H199 H 0.92588 0.88355 0.40662 0.0
H200 H 0.96739 0.09773 0.15649 0.0
H201 H 0.102 0.10207 0.22975 0.0
H202 H 0.01447 0.14425 0.10353 0.0
H203 H 0.14656 0.14912 0.17578 0.0
H204 H 0.00799 0.87951 0.1721 0.0
H205 H 0.90276 0.93565 0.2605 0.0
H206 H 0.94775 0.80896 0.15743 0.0
H207 H 0.84457 0.86427 0.24434 0.0
H208 H 0.22788 0.97392 0.19104 0.0
H209 H 0.11935 0.99838 0.0959 0.0
H210 H 0.77229 0.04739 0.18629 0.0
H211 H 0.88162 1.00099 0.09681 0.0
Li212 Li 0.95766 0.01101 0.78412 0.0
Li213 Li 0.05026 0.99613 0.78499 0.0
Li214 Li 0.00965 0.05068 0.73063 0.0
Li215 Li 1.0004 0.95764 0.73012 0.0
C216 C 1.00154 0.10265 0.81315 0.0
N217 N 0.97644 0.18397 0.86168 0.0
C218 C 0.02256 0.10675 0.85141 0.0
C219 C 0.96857 0.14043 0.79929 0.0
C220 C 0.00914 0.14798 0.87559 0.0
C221 C 0.95614 0.18112 0.82434 0.0
C222 C 0.00582 0.90461 0.81262 0.0
C223 C 0.05253 0.82727 0.8252 0.0
N224 N 0.03011 0.82365 0.86177 0.0
C225 C 0.98272 0.89977 0.85011 0.0
C226 C 0.04057 0.8678 0.79986 0.0
C227 C 0.99572 0.85872 0.87461 0.0
C228 C 0.85189 0.01185 0.80781 0.0
N229 N 0.90108 0.01845 0.81962 0.0
C230 C 0.87429 0.03789 0.88617 0.0
C231 C 0.91275 0.03005 0.85813 0.0
C232 C 0.8232 0.03235 0.87478 0.0
C233 C 0.812 0.01838 0.83522 0.0
H234 H 0.84362 1.00151 0.7772 0.0
H235 H 0.9521 0.03274 0.8672 0.0
C236 C 0.15507 0.99434 0.8105 0.0
N237 N 0.10554 0.98802 0.82152 0.0
C238 C 0.19413 0.98757 0.83854 0.0
C239 C 0.13035 0.96825 0.88846 0.0
C240 C 0.09272 0.97631 0.85981 0.0
C241 C 0.18178 0.97366 0.87793 0.0
H242 H 0.16425 1.0047 0.78004 0.0
H243 H 0.0531 0.97371 0.86823 0.0
C244 C 0.90979 0.03282 0.70208 0.0
N245 N 0.83733 0.07957 0.65478 0.0
C246 C 0.89984 0.01456 0.6636 0.0
C247 C 0.8822 0.07426 0.71675 0.0
C248 C 0.86328 0.0389 0.64007 0.0
C249 C 0.8459 0.09752 0.69233 0.0
C250 C 0.09984 0.97584 0.70253 0.0
C251 C 0.10882 0.99457 0.66403 0.0
C252 C 0.1278 0.93424 0.71644 0.0
C253 C 0.14475 0.9705 0.63971 0.0
C254 C 0.16345 0.91125 0.69124 0.0
N255 N 0.17106 0.92965 0.65368 0.0
C256 C 0.03595 0.15291 0.70676 0.0
C257 C 1.00452 0.09804 0.65624 0.0
C258 C 0.0414 0.19251 0.679 0.0
N259 N 0.01733 0.10694 0.69496 0.0
C260 C 0.00868 0.13651 0.62775 0.0
C261 C 0.02721 0.18455 0.63896 0.0
H262 H 0.04689 0.15874 0.73759 0.0
H263 H 0.99185 0.06063 0.6473 0.0
C264 C 0.97771 0.85512 0.70508 0.0
N265 N 0.99403 0.9021 0.69367 0.0
C266 C 0.97313 0.81602 0.67683 0.0
C267 C 1.00197 0.87458 0.62586 0.0
C268 C 0.00538 0.91248 0.65487 0.0
C269 C 0.98572 0.82556 0.63665 0.0
H270 H 0.96784 0.84808 0.73598 0.0
H271 H 0.01628 0.9506 0.64631 0.0
O272 O 0.01395 0.06224 0.78924 0.0
O273 O 0.99383 0.94484 0.78841 0.0
O274 O 0.94567 0.00956 0.72543 0.0
O275 O 0.0646 0.99882 0.72668 0.0
H276 H 0.04858 0.07814 0.86247 0.0
H277 H 0.95316 0.13869 0.76939 0.0
H278 H 0.02476 0.15138 0.9054 0.0
H279 H 0.93051 0.21052 0.81403 0.0
H280 H 0.07951 0.7986 0.81572 0.0
H281 H 0.95535 0.92763 0.86032 0.0
H282 H 0.05775 0.87018 0.77057 0.0
H283 H 0.97844 0.85472 0.90383 0.0
H284 H 0.88439 0.04746 0.91667 0.0
H285 H 0.77296 0.01339 0.82554 0.0
H286 H 0.23345 0.99245 0.82948 0.0
H287 H 0.11932 0.95874 0.91879 0.0
H288 H 0.92038 0.98215 0.65192 0.0
H289 H 0.88832 0.08797 0.7468 0.0
H290 H 0.85551 0.02541 0.61012 0.0
H291 H 0.82438 0.12973 0.70329 0.0
H292 H 0.088 0.02712 0.65294 0.0
H293 H 0.12243 0.92016 0.74649 0.0
H294 H 0.15176 0.98434 0.60973 0.0
H295 H 0.18523 0.87891 0.7016 0.0
H296 H 0.05612 0.22898 0.68873 0.0
H297 H 0.99855 0.12838 0.59701 0.0
H298 H 0.96018 0.77877 0.68629 0.0
H299 H 0.01075 0.88393 0.59506 0.0
loop_
_geom_bond_atom_site_label_1
_geom_bond_atom_site_label_2
_geom_bond_distance
_geom_bond_site_symmetry_2
_ccdc_geom_bond_type
H0 C27 0.929 . S
N1 C26 1.461 . S
N1 C32 1.411 1_554 S
N1 C38 1.420 1_554 S
H2 C28 0.930 . S
H3 C31 0.931 . S
H4 C30 0.929 . S
H5 C33 0.930 . S
H6 C34 0.932 . S
H7 C37 0.929 . S
H8 C36 0.931 . S
H9 C39 0.929 . S
H10 C43 0.932 1_565 S
H11 C40 0.931 . S
H12 C42 0.929 1_565 S
H13 C45 0.929 . S
H14 C46 0.930 . S
H15 C48 0.929 . S
H16 C49 0.931 . S
H17 C51 0.930 . S
H18 C52 0.932 . S
H19 C54 0.931 . S
H20 C55 0.929 . S
H21 C57 0.929 . S
H22 C58 0.931 . S
H23 C60 0.929 1_565 S
N24 C44 1.461 . S
N24 C50 1.411 1_554 S
N24 C56 1.420 1_554 S
H25 C61 0.932 1_565 S
C26 N1 1.461 . S
C26 C27 1.363 . S
C26 C31 1.370 1_545 S
C27 H0 0.929 . S
C27 C26 1.363 . S
C27 C28 1.385 . S
C28 H2 0.930 . S
C28 C27 1.385 . S
C28 C29 1.357 . S
C29 C28 1.357 . S
C29 C30 1.406 1_545 S
C30 H4 0.929 . S
C30 C29 1.406 1_565 S
C30 C31 1.391 . S
C31 H3 0.931 . S
C31 C26 1.370 1_565 S
C31 C30 1.391 . S
C32 N1 1.411 1_556 S
C32 C33 1.358 1_545 S
C32 C37 1.371 . S
C33 H5 0.930 . S
C33 C32 1.358 1_565 S
C33 C34 1.405 . S
C34 H6 0.932 . S
C34 C33 1.405 . S
C34 C35 1.383 1_565 S
C35 C34 1.383 1_545 S
C35 C36 1.393 . S
C36 H8 0.931 . S
C36 C35 1.393 . S
C36 C37 1.382 . S
C37 H7 0.929 . S
C37 C32 1.371 . S
C37 C36 1.382 . S
C38 N1 1.420 1_556 S
C38 C39 1.362 1_556 S
C38 C43 1.388 . S
C39 H9 0.929 . S
C39 C38 1.362 1_554 S
C39 C40 1.376 . S
C40 H11 0.931 . S
C40 C39 1.376 . S
C40 C41 1.396 1_554 S
C41 C40 1.396 1_556 S
C41 C42 1.348 . S
C41 C59 1.472 . S
C42 H12 0.929 1_545 S
C42 C41 1.348 . S
C42 C43 1.443 . S
C43 H10 0.932 1_545 S
C43 C38 1.388 . S
C43 C42 1.443 . S
C44 N24 1.461 . S
C44 C45 1.363 . S
C44 C49 1.370 1_545 S
C45 H13 0.929 . S
C45 C44 1.363 . S
C45 C46 1.385 . S
C46 H14 0.930 . S
C46 C45 1.385 . S
C46 C47 1.357 . S
C47 C46 1.357 . S
C47 C48 1.406 1_545 S
C48 H15 0.929 . S
C48 C47 1.406 1_565 S
C48 C49 1.391 . S
C49 H16 0.931 . S
C49 C44 1.370 1_565 S
C49 C48 1.391 . S
C50 N24 1.411 1_556 S
C50 C51 1.358 1_545 S
C50 C55 1.371 . S
C51 H17 0.930 . S
C51 C50 1.358 1_565 S
C51 C52 1.405 . S
C52 H18 0.932 . S
C52 C51 1.405 . S
C52 C53 1.383 1_565 S
C53 C52 1.383 1_545 S
C53 C54 1.393 . S
C54 H19 0.931 . S
C54 C53 1.393 . S
C54 C55 1.382 . S
C55 H20 0.929 . S
C55 C50 1.371 . S
C55 C54 1.382 . S
C56 N24 1.420 1_556 S
C56 C57 1.362 1_556 S
C56 C61 1.388 . S
C57 H21 0.929 . S
C57 C56 1.362 1_554 S
C57 C58 1.376 . S
C58 H22 0.931 . S
C58 C57 1.376 . S
C58 C59 1.396 1_554 S
C59 C41 1.472 . S
C59 C58 1.396 1_556 S
C59 C60 1.348 . S
C60 H23 0.929 1_545 S
C60 C59 1.348 . S
C60 C61 1.443 . S
C61 H25 0.932 1_545 S
C61 C56 1.388 . S
C61 C60 1.443 . S
H62 C89 0.929 . S
N63 C88 1.433 . S
N63 C94 1.435 . S
N63 C100 1.423 . S
H64 C90 0.930 . S
H65 C93 0.931 . S
H66 C92 0.929 . S
H67 C95 0.930 . S
H68 C96 0.932 . S
H69 C99 0.929 . S
H70 C98 0.931 . S
H71 C101 0.929 . S
H72 C105 0.932 1_455 S
H73 C102 0.931 . S
H74 C104 0.929 1_455 S
H75 C107 0.929 . S
H76 C108 0.930 . S
H77 C110 0.929 . S
H78 C111 0.931 . S
H79 C113 0.930 . S
H80 C114 0.932 . S
H81 C116 0.931 . S
H82 C117 0.929 . S
H83 C119 0.929 . S
H84 C120 0.931 . S
H85 C122 0.929 1_455 S
N86 C106 1.433 . S
N86 C112 1.435 . S
N86 C118 1.423 . S
H87 C123 0.932 1_455 S
C88 N63 1.433 . S
C88 C89 1.363 . S
C88 C93 1.370 1_655 S
C89 H62 0.929 . S
C89 C88 1.363 . S
C89 C90 1.385 . S
C90 H64 0.930 . S
C90 C89 1.385 . S
C90 C91 1.357 . S
C91 C90 1.357 . S
C91 C92 1.406 1_655 S
C92 H66 0.929 . S
C92 C91 1.406 1_455 S
C92 C93 1.391 . S
C93 H65 0.931 . S
C93 C88 1.370 1_455 S
C93 C92 1.391 . S
C94 N63 1.435 . S
C94 C95 1.358 1_655 S
C94 C99 1.371 . S
C95 H67 0.930 . S
C95 C94 1.358 1_455 S
C95 C96 1.405 . S
C96 H68 0.932 . S
C96 C95 1.405 . S
C96 C97 1.383 1_455 S
C97 C96 1.383 1_655 S
C97 C98 1.393 . S
C98 H70 0.931 . S
C98 C97 1.393 . S
C98 C99 1.382 . S
C99 H69 0.929 . S
C99 C94 1.371 . S
C99 C98 1.382 . S
C100 N63 1.423 . S
C100 C101 1.362 . S
C100 C105 1.388 . S
C101 H71 0.929 . S
C101 C100 1.362 . S
C101 C102 1.376 . S
C102 H73 0.931 . S
C102 C101 1.376 . S
C102 C103 1.396 . S
C103 C102 1.396 . S
C103 C104 1.348 . S
C103 C121 1.472 . S
C104 H74 0.929 1_655 S
C104 C103 1.348 . S
C104 C105 1.443 . S
C105 H72 0.932 1_655 S
C105 C100 1.388 . S
C105 C104 1.443 . S
C106 N86 1.433 . S
C106 C107 1.363 . S
C106 C111 1.370 1_655 S
C107 H75 0.929 . S
C107 C106 1.363 . S
C107 C108 1.385 . S
C108 H76 0.930 . S
C108 C107 1.385 . S
C108 C109 1.357 . S
C109 C108 1.357 . S
C109 C110 1.406 1_655 S
C110 H77 0.929 . S
C110 C109 1.406 1_455 S
C110 C111 1.391 . S
C111 H78 0.931 . S
C111 C106 1.370 1_455 S
C111 C110 1.391 . S
C112 N86 1.435 . S
C112 C113 1.358 1_655 S
C112 C117 1.371 . S
C113 H79 0.930 . S
C113 C112 1.358 1_455 S
C113 C114 1.405 . S
C114 H80 0.932 . S
C114 C113 1.405 . S
C114 C115 1.383 1_455 S
C115 C114 1.383 1_655 S
C115 C116 1.393 . S
C116 H81 0.931 . S
C116 C115 1.393 . S
C116 C117 1.382 . S
C117 H82 0.929 . S
C117 C112 1.371 . S
C117 C116 1.382 . S
C118 N86 1.423 . S
C118 C119 1.362 . S
C118 C123 1.388 . S
C119 H83 0.929 . S
C119 C118 1.362 . S
C119 C120 1.376 . S
C120 H84 0.931 . S
C120 C119 1.376 . S
C120 C121 1.396 . S
C121 C103 1.472 . S
C121 C120 1.396 . S
C121 C122 1.348 . S
C122 H85 0.929 1_655 S
C122 C121 1.348 . S
C122 C123 1.443 . S
C123 H87 0.932 1_655 S
C123 C118 1.388 . S
C123 C122 1.443 . S
Li124 N141 1.990 . S
Li124 O184 1.956 1_545 S
Li124 O185 1.970 1_455 S
Li124 O186 1.961 1_455 S
Li125 N149 1.990 . S
Li125 O184 1.970 1_655 S
Li125 O185 1.956 1_565 S
Li125 O187 1.961 1_655 S
Li126 N171 1.990 . S
Li126 O184 1.961 1_545 S
Li126 O186 1.956 1_455 S
Li126 O187 1.970 1_545 S
Li127 N177 1.990 . S
Li127 O185 1.961 1_565 S
Li127 O186 1.970 1_565 S
Li127 O187 1.956 1_655 S
C128 C130 1.348 1_545 S
C128 C131 1.356 . S
C128 O184 1.325 1_545 S
N129 C132 1.314 1_545 S
N129 C133 1.279 . S
C130 C128 1.348 1_565 S
C130 C132 1.353 . S
C130 H188 0.929 . S
C131 C128 1.356 . S
C131 C133 1.358 . S
C131 H189 0.930 . S
C132 N129 1.314 1_565 S
C132 C130 1.353 . S
C132 H190 0.930 . S
C133 N129 1.279 . S
C133 C131 1.358 . S
C133 H191 0.930 . S
C134 C137 1.348 . S
C134 C138 1.356 1_545 S
C134 O185 1.325 . S
C135 N136 1.279 . S
C135 C138 1.358 . S
C135 H192 0.930 . S
N136 C135 1.279 . S
N136 C139 1.314 1_565 S
C137 C134 1.348 . S
C137 C139 1.353 . S
C137 H193 0.929 . S
C138 C134 1.356 1_565 S
C138 C135 1.358 . S
C138 H194 0.930 . S
C139 N136 1.314 1_545 S
C139 C137 1.353 . S
C139 H195 0.930 . S
C140 N141 1.314 1_655 S
C140 C145 1.353 . S
C140 H146 0.930 . S
N141 Li124 1.990 . S
N141 C140 1.314 1_455 S
N141 C143 1.279 . S
C142 C143 1.358 . S
C142 C144 1.356 . S
C142 H196 0.930 . S
C143 N141 1.279 . S
C143 C142 1.358 . S
C143 H147 0.930 . S
C144 C142 1.356 . S
C144 C145 1.348 1_455 S
C145 C140 1.353 . S
C145 C144 1.348 1_655 S
C145 H197 0.929 . S
H146 C140 0.930 . S
H147 C143 0.930 . S
C148 N149 1.314 1_455 S
C148 C150 1.353 . S
C148 H154 0.930 . S
N149 Li125 1.990 . S
N149 C148 1.314 1_655 S
N149 C152 1.279 . S
C150 C148 1.353 . S
C150 C153 1.348 . S
C150 H198 0.929 . S
C151 C152 1.358 . S
C151 C153 1.356 1_655 S
C151 H199 0.930 . S
C152 N149 1.279 . S
C152 C151 1.358 . S
C152 H155 0.930 . S
C153 C150 1.348 . S
C153 C151 1.356 1_455 S
H154 C148 0.930 . S
H155 C152 0.930 . S
C156 C158 1.348 1_455 S
C156 C159 1.356 . S
C156 O186 1.325 1_455 S
N157 C160 1.314 1_455 S
N157 C161 1.279 . S
C158 C156 1.348 1_655 S
C158 C160 1.353 . S
C158 H200 0.929 . S
C159 C156 1.356 . S
C159 C161 1.358 . S
C159 H201 0.930 . S
C160 N157 1.314 1_655 S
C160 C158 1.353 . S
C160 H202 0.930 . S
C161 N157 1.279 . S
C161 C159 1.358 . S
C161 H203 0.930 . S
C162 C163 1.348 . S
C162 C164 1.356 1_455 S
C162 O187 1.325 . S
C163 C162 1.348 . S
C163 C165 1.353 . S
C163 H204 0.929 . S
C164 C162 1.356 1_655 S
C164 C166 1.358 . S
C164 H205 0.930 . S
C165 C163 1.353 . S
C165 N167 1.314 1_455 S
C165 H206 0.930 . S
C166 C164 1.358 . S
C166 N167 1.279 . S
C166 H207 0.930 . S
N167 C165 1.314 1_655 S
N167 C166 1.279 . S
C168 C170 1.353 . S
C168 N171 1.314 1_565 S
C168 H174 0.930 . S
C169 N171 1.279 . S
C169 C172 1.358 . S
C169 H175 0.930 . S
C170 C168 1.353 . S
C170 C173 1.348 1_565 S
C170 H208 0.929 . S
N171 Li126 1.990 . S
N171 C168 1.314 1_545 S
N171 C169 1.279 . S
C172 C169 1.358 . S
C172 C173 1.356 . S
C172 H209 0.930 . S
C173 C170 1.348 1_545 S
C173 C172 1.356 . S
H174 C168 0.930 . S
H175 C169 0.930 . S
C176 N177 1.314 1_545 S
C176 C178 1.353 . S
C176 H182 0.930 . S
N177 Li127 1.990 . S
N177 C176 1.314 1_565 S
N177 C180 1.279 . S
C178 C176 1.353 . S
C178 C181 1.348 . S
C178 H210 0.929 . S
C179 C180 1.358 . S
C179 C181 1.356 1_565 S
C179 H211 0.930 . S
C180 N177 1.279 . S
C180 C179 1.358 . S
C180 H183 0.930 . S
C181 C178 1.348 . S
C181 C179 1.356 1_545 S
H182 C176 0.930 . S
H183 C180 0.930 . S
O184 Li124 1.956 1_565 S
O184 Li125 1.970 1_455 S
O184 Li126 1.961 1_565 S
O184 C128 1.325 1_565 S
O185 Li124 1.970 1_655 S
O185 Li125 1.956 1_545 S
O185 Li127 1.961 1_545 S
O185 C134 1.325 . S
O186 Li124 1.961 1_655 S
O186 Li126 1.956 1_655 S
O186 Li127 1.970 1_545 S
O186 C156 1.325 1_655 S
O187 Li125 1.961 1_455 S
O187 Li126 1.970 1_565 S
O187 Li127 1.956 1_455 S
O187 C162 1.325 . S
H188 C130 0.929 . S
H189 C131 0.930 . S
H190 C132 0.930 . S
H191 C133 0.930 . S
H192 C135 0.930 . S
H193 C137 0.929 . S
H194 C138 0.930 . S
H195 C139 0.930 . S
H196 C142 0.930 . S
H197 C145 0.929 . S
H198 C150 0.929 . S
H199 C151 0.930 . S
H200 C158 0.929 . S
H201 C159 0.930 . S
H202 C160 0.930 . S
H203 C161 0.930 . S
H204 C163 0.929 . S
H205 C164 0.930 . S
H206 C165 0.930 . S
H207 C166 0.930 . S
H208 C170 0.929 . S
H209 C172 0.930 . S
H210 C178 0.929 . S
H211 C179 0.930 . S
Li212 N229 1.990 . S
Li212 O272 1.956 1_655 S
Li212 O273 1.970 1_545 S
Li212 O274 1.961 1_545 S
Li213 N237 1.990 . S
Li213 O272 1.970 1_565 S
Li213 O273 1.956 1_455 S
Li213 O275 1.961 1_565 S
Li214 N259 1.990 . S
Li214 O272 1.961 1_655 S
Li214 O274 1.956 1_545 S
Li214 O275 1.970 1_655 S
Li215 N265 1.990 . S
Li215 O273 1.961 1_455 S
Li215 O274 1.970 1_455 S
Li215 O275 1.956 1_565 S
C216 C218 1.348 . S
C216 C219 1.356 1_455 S
C216 O272 1.325 . S
N217 C220 1.314 1_655 S
N217 C221 1.279 . S
C218 C216 1.348 . S
C218 C220 1.353 . S
C218 H276 0.929 . S
C219 C216 1.356 1_655 S
C219 C221 1.358 . S
C219 H277 0.930 . S
C220 N217 1.314 1_455 S
C220 C218 1.353 . S
C220 H278 0.930 . S
C221 N217 1.279 . S
C221 C219 1.358 . S
C221 H279 0.930 . S
C222 C225 1.348 1_455 S
C222 C226 1.356 . S
C222 O273 1.325 1_455 S
C223 N224 1.279 . S
C223 C226 1.358 . S
C223 H280 0.930 . S
N224 C223 1.279 . S
N224 C227 1.314 1_455 S
C225 C222 1.348 1_655 S
C225 C227 1.353 . S
C225 H281 0.929 . S
C226 C222 1.356 . S
C226 C223 1.358 . S
C226 H282 0.930 . S
C227 N224 1.314 1_655 S
C227 C225 1.353 . S
C227 H283 0.930 . S
C228 N229 1.314 1_565 S
C228 C233 1.353 . S
C228 H234 0.930 . S
N229 Li212 1.990 . S
N229 C228 1.314 1_545 S
N229 C231 1.279 . S
C230 C231 1.358 . S
C230 C232 1.356 . S
C230 H284 0.930 . S
C231 N229 1.279 . S
C231 C230 1.358 . S
C231 H235 0.930 . S
C232 C230 1.356 . S
C232 C233 1.348 1_545 S
C233 C228 1.353 . S
C233 C232 1.348 1_565 S
C233 H285 0.929 . S
H234 C228 0.930 . S
H235 C231 0.930 . S
C236 N237 1.314 1_545 S
C236 C238 1.353 . S
C236 H242 0.930 . S
N237 Li213 1.990 . S
N237 C236 1.314 1_565 S
N237 C240 1.279 . S
C238 C236 1.353 . S
C238 C241 1.348 . S
C238 H286 0.929 . S
C239 C240 1.358 . S
C239 C241 1.356 1_565 S
C239 H287 0.930 . S
C240 N237 1.279 . S
C240 C239 1.358 . S
C240 H243 0.930 . S
C241 C238 1.348 . S
C241 C239 1.356 1_545 S
H242 C236 0.930 . S
H243 C240 0.930 . S
C244 C246 1.348 1_545 S
C244 C247 1.356 . S
C244 O274 1.325 1_545 S
N245 C248 1.314 1_545 S
N245 C249 1.279 . S
C246 C244 1.348 1_565 S
C246 C248 1.353 . S
C246 H288 0.929 . S
C247 C244 1.356 . S
C247 C249 1.358 . S
C247 H289 0.930 . S
C248 N245 1.314 1_565 S
C248 C246 1.353 . S
C248 H290 0.930 . S
C249 N245 1.279 . S
C249 C247 1.358 . S
C249 H291 0.930 . S
C250 C251 1.348 . S
C250 C252 1.356 1_545 S
C250 O275 1.325 . S
C251 C250 1.348 . S
C251 C253 1.353 . S
C251 H292 0.929 . S
C252 C250 1.356 1_565 S
C252 C254 1.358 . S
C252 H293 0.930 . S
C253 C251 1.353 . S
C253 N255 1.314 1_545 S
C253 H294 0.930 . S
C254 C252 1.358 . S
C254 N255 1.279 . S
C254 H295 0.930 . S
N255 C253 1.314 1_565 S
N255 C254 1.279 . S
C256 C258 1.353 . S
C256 N259 1.314 1_455 S
C256 H262 0.930 . S
C257 N259 1.279 . S
C257 C260 1.358 . S
C257 H263 0.930 . S
C258 C256 1.353 . S
C258 C261 1.348 . S
C258 H296 0.929 . S
N259 Li214 1.990 . S
N259 C256 1.314 1_655 S
N259 C257 1.279 . S
C260 C257 1.358 . S
C260 C261 1.356 1_655 S
C260 H297 0.930 . S
C261 C258 1.348 . S
C261 C260 1.356 1_455 S
H262 C256 0.930 . S
H263 C257 0.930 . S
C264 N265 1.314 1_655 S
C264 C266 1.353 . S
C264 H270 0.930 . S
N265 Li215 1.990 . S
N265 C264 1.314 1_455 S
N265 C268 1.279 . S
C266 C264 1.353 . S
C266 C269 1.348 1_655 S
C266 H298 0.929 . S
C267 C268 1.358 . S
C267 C269 1.356 . S
C267 H299 0.930 . S
C268 N265 1.279 . S
C268 C267 1.358 . S
C268 H271 0.930 . S
C269 C266 1.348 1_455 S
C269 C267 1.356 . S
H270 C264 0.930 . S
H271 C268 0.930 . S
O272 Li212 1.956 1_455 S
O272 Li213 1.970 1_545 S
O272 Li214 1.961 1_455 S
O272 C216 1.325 . S
O273 Li212 1.970 1_565 S
O273 Li213 1.956 1_655 S
O273 Li215 1.961 1_655 S
O273 C222 1.325 1_655 S
O274 Li212 1.961 1_565 S
O274 Li214 1.956 1_565 S
O274 Li215 1.970 1_655 S
O274 C244 1.325 1_565 S
O275 Li213 1.961 1_545 S
O275 Li214 1.970 1_455 S
O275 Li215 1.956 1_545 S
O275 C250 1.325 . S
H276 C218 0.929 . S
H277 C219 0.930 . S
H278 C220 0.930 . S
H279 C221 0.930 . S
H280 C223 0.930 . S
H281 C225 0.929 . S
H282 C226 0.930 . S
H283 C227 0.930 . S
H284 C230 0.930 . S
H285 C233 0.929 . S
H286 C238 0.929 . S
H287 C239 0.930 . S
H288 C246 0.929 . S
H289 C247 0.930 . S
H290 C248 0.930 . S
H291 C249 0.930 . S
H292 C251 0.929 . S
H293 C252 0.930 . S
H294 C253 0.930 . S
H295 C254 0.930 . S
H296 C258 0.929 . S
H297 C260 0.930 . S
H298 C266 0.929 . S
H299 C267 0.930 . S
C173 C47 1.754 . S
C261 C109 1.754 1_455 S
C181 C29 1.759 . S
C269 C91 1.759 1_455 S
C241 C53 1.554 . S
C144 C115 1.554 1_455 S
C232 C35 1.555 . S
C97 C153 1.555 1_655 S
