# Generated by pormake.
# Topology ptr, (4,4)-cn, num edge types: 1
# Building blocks:
#     Node 0, Type 0, BuildingBlock: NAHDIM_clean_sbu_0, # of connection points: 4
#     Node 1, Type 0, BuildingBlock: NAHDIM_clean_sbu_0, # of connection points: 4
#     Node 2, Type 0, BuildingBlock: NAHDIM_clean_sbu_0, # of connection points: 4
#     Node 3, Type 0, BuildingBlock: NAHDIM_clean_sbu_0, # of connection points: 4
#     Node 4, Type 0, BuildingBlock: NAHDIM_clean_sbu_0, # of connection points: 4
#     Node 5, Type 0, BuildingBlock: NAHDIM_clean_sbu_0, # of connection points: 4
#     Node 6, Type 0, BuildingBlock: NAHDIM_clean_sbu_0, # of connection points: 4
#     Node 7, Type 0, BuildingBlock: NAHDIM_clean_sbu_0, # of connection points: 4
#     Node 8, Type 0, BuildingBlock: NAHDIM_clean_sbu_0, # of connection points: 4
#     Node 9, Type 0, BuildingBlock: NAHDIM_clean_sbu_0, # of connection points: 4
#     Node 10, Type 0, BuildingBlock: NAHDIM_clean_sbu_0, # of connection points: 4
#     Node 11, Type 0, BuildingBlock: NAHDIM_clean_sbu_0, # of connection points: 4
#     Node 12, Type 0, BuildingBlock: NAHDIM_clean_sbu_0, # of connection points: 4
#     Node 13, Type 0, BuildingBlock: NAHDIM_clean_sbu_0, # of connection points: 4
#     Node 14, Type 0, BuildingBlock: NAHDIM_clean_sbu_0, # of connection points: 4
#     Node 15, Type 0, BuildingBlock: NAHDIM_clean_sbu_0, # of connection points: 4
#     Node 16, Type 0, BuildingBlock: NAHDIM_clean_sbu_0, # of connection points: 4
#     Node 17, Type 0, BuildingBlock: NAHDIM_clean_sbu_0, # of connection points: 4
#     Node 18, Type 1, BuildingBlock: GIZVER_clean_linker_0, # of connection points: 4
#     Node 19, Type 1, BuildingBlock: GIZVER_clean_linker_0, # of connection points: 4
#     Node 20, Type 1, BuildingBlock: GIZVER_clean_linker_0, # of connection points: 4
#     Node 21, Type 1, BuildingBlock: GIZVER_clean_linker_0, # of connection points: 4
#     Node 22, Type 1, BuildingBlock: GIZVER_clean_linker_0, # of connection points: 4
#     Node 23, Type 1, BuildingBlock: GIZVER_clean_linker_0, # of connection points: 4
#     Node 24, Type 1, BuildingBlock: GIZVER_clean_linker_0, # of connection points: 4
#     Node 25, Type 1, BuildingBlock: GIZVER_clean_linker_0, # of connection points: 4
#     Node 26, Type 1, BuildingBlock: GIZVER_clean_linker_0, # of connection points: 4
#     Node 27, Type 1, BuildingBlock: GIZVER_clean_linker_0, # of connection points: 4
#     Node 28, Type 1, BuildingBlock: GIZVER_clean_linker_0, # of connection points: 4
#     Node 29, Type 1, BuildingBlock: GIZVER_clean_linker_0, # of connection points: 4
#     Node 30, Type 1, BuildingBlock: GIZVER_clean_linker_0, # of connection points: 4
#     Node 31, Type 1, BuildingBlock: GIZVER_clean_linker_0, # of connection points: 4
#     Node 32, Type 1, BuildingBlock: GIZVER_clean_linker_0, # of connection points: 4
#     Node 33, Type 1, BuildingBlock: GIZVER_clean_linker_0, # of connection points: 4
#     Node 34, Type 1, BuildingBlock: GIZVER_clean_linker_0, # of connection points: 4
#     Node 35, Type 1, BuildingBlock: GIZVER_clean_linker_0, # of connection points: 4
#     Edge 36, Type (0, 1), BuildingBlock: UVAHIK_clean_linker_0, # of connection points: 2
#     Edge 37, Type (0, 1), BuildingBlock: UVAHIK_clean_linker_0, # of connection points: 2
#     Edge 38, Type (0, 1), BuildingBlock: UVAHIK_clean_linker_0, # of connection points: 2
#     Edge 39, Type (0, 1), BuildingBlock: UVAHIK_clean_linker_0, # of connection points: 2
#     Edge 40, Type (0, 1), BuildingBlock: UVAHIK_clean_linker_0, # of connection points: 2
#     Edge 41, Type (0, 1), BuildingBlock: UVAHIK_clean_linker_0, # of connection points: 2
#     Edge 42, Type (0, 1), BuildingBlock: UVAHIK_clean_linker_0, # of connection points: 2
#     Edge 43, Type (0, 1), BuildingBlock: UVAHIK_clean_linker_0, # of connection points: 2
#     Edge 44, Type (0, 1), BuildingBlock: UVAHIK_clean_linker_0, # of connection points: 2
#     Edge 45, Type (0, 1), BuildingBlock: UVAHIK_clean_linker_0, # of connection points: 2
#     Edge 46, Type (0, 1), BuildingBlock: UVAHIK_clean_linker_0, # of connection points: 2
#     Edge 47, Type (0, 1), BuildingBlock: UVAHIK_clean_linker_0, # of connection points: 2
#     Edge 48, Type (0, 1), BuildingBlock: UVAHIK_clean_linker_0, # of connection points: 2
#     Edge 49, Type (0, 1), BuildingBlock: UVAHIK_clean_linker_0, # of connection points: 2
#     Edge 50, Type (0, 1), BuildingBlock: UVAHIK_clean_linker_0, # of connection points: 2
#     Edge 51, Type (0, 1), BuildingBlock: UVAHIK_clean_linker_0, # of connection points: 2
#     Edge 52, Type (0, 1), BuildingBlock: UVAHIK_clean_linker_0, # of connection points: 2
#     Edge 53, Type (0, 1), BuildingBlock: UVAHIK_clean_linker_0, # of connection points: 2
#     Edge 54, Type (0, 1), BuildingBlock: UVAHIK_clean_linker_0, # of connection points: 2
#     Edge 55, Type (0, 1), BuildingBlock: UVAHIK_clean_linker_0, # of connection points: 2
#     Edge 56, Type (0, 1), BuildingBlock: UVAHIK_clean_linker_0, # of connection points: 2
#     Edge 57, Type (0, 1), BuildingBlock: UVAHIK_clean_linker_0, # of connection points: 2
#     Edge 58, Type (0, 1), BuildingBlock: UVAHIK_clean_linker_0, # of connection points: 2
#     Edge 59, Type (0, 1), BuildingBlock: UVAHIK_clean_linker_0, # of connection points: 2
#     Edge 60, Type (0, 1), BuildingBlock: UVAHIK_clean_linker_0, # of connection points: 2
#     Edge 61, Type (0, 1), BuildingBlock: UVAHIK_clean_linker_0, # of connection points: 2
#     Edge 62, Type (0, 1), BuildingBlock: UVAHIK_clean_linker_0, # of connection points: 2
#     Edge 63, Type (0, 1), BuildingBlock: UVAHIK_clean_linker_0, # of connection points: 2
#     Edge 64, Type (0, 1), BuildingBlock: UVAHIK_clean_linker_0, # of connection points: 2
#     Edge 65, Type (0, 1), BuildingBlock: UVAHIK_clean_linker_0, # of connection points: 2
#     Edge 66, Type (0, 1), BuildingBlock: UVAHIK_clean_linker_0, # of connection points: 2
#     Edge 67, Type (0, 1), BuildingBlock: UVAHIK_clean_linker_0, # of connection points: 2
#     Edge 68, Type (0, 1), BuildingBlock: UVAHIK_clean_linker_0, # of connection points: 2
#     Edge 69, Type (0, 1), BuildingBlock: UVAHIK_clean_linker_0, # of connection points: 2
#     Edge 70, Type (0, 1), BuildingBlock: UVAHIK_clean_linker_0, # of connection points: 2
#     Edge 71, Type (0, 1), BuildingBlock: UVAHIK_clean_linker_0, # of connection points: 2
#     Edge 72, Type (0, 1), BuildingBlock: UVAHIK_clean_linker_0, # of connection points: 2
#     Edge 73, Type (0, 1), BuildingBlock: UVAHIK_clean_linker_0, # of connection points: 2
#     Edge 74, Type (0, 1), BuildingBlock: UVAHIK_clean_linker_0, # of connection points: 2
#     Edge 75, Type (0, 1), BuildingBlock: UVAHIK_clean_linker_0, # of connection points: 2
#     Edge 76, Type (0, 1), BuildingBlock: UVAHIK_clean_linker_0, # of connection points: 2
#     Edge 77, Type (0, 1), BuildingBlock: UVAHIK_clean_linker_0, # of connection points: 2
#     Edge 78, Type (0, 1), BuildingBlock: UVAHIK_clean_linker_0, # of connection points: 2
#     Edge 79, Type (0, 1), BuildingBlock: UVAHIK_clean_linker_0, # of connection points: 2
#     Edge 80, Type (0, 1), BuildingBlock: UVAHIK_clean_linker_0, # of connection points: 2
#     Edge 81, Type (0, 1), BuildingBlock: UVAHIK_clean_linker_0, # of connection points: 2
#     Edge 82, Type (0, 1), BuildingBlock: UVAHIK_clean_linker_0, # of connection points: 2
#     Edge 83, Type (0, 1), BuildingBlock: UVAHIK_clean_linker_0, # of connection points: 2
#     Edge 84, Type (0, 1), BuildingBlock: UVAHIK_clean_linker_0, # of connection points: 2
#     Edge 85, Type (0, 1), BuildingBlock: UVAHIK_clean_linker_0, # of connection points: 2
#     Edge 86, Type (0, 1), BuildingBlock: UVAHIK_clean_linker_0, # of connection points: 2
#     Edge 87, Type (0, 1), BuildingBlock: UVAHIK_clean_linker_0, # of connection points: 2
#     Edge 88, Type (0, 1), BuildingBlock: UVAHIK_clean_linker_0, # of connection points: 2
#     Edge 89, Type (0, 1), BuildingBlock: UVAHIK_clean_linker_0, # of connection points: 2
#     Edge 90, Type (0, 1), BuildingBlock: UVAHIK_clean_linker_0, # of connection points: 2
#     Edge 91, Type (0, 1), BuildingBlock: UVAHIK_clean_linker_0, # of connection points: 2
#     Edge 92, Type (0, 1), BuildingBlock: UVAHIK_clean_linker_0, # of connection points: 2
#     Edge 93, Type (0, 1), BuildingBlock: UVAHIK_clean_linker_0, # of connection points: 2
#     Edge 94, Type (0, 1), BuildingBlock: UVAHIK_clean_linker_0, # of connection points: 2
#     Edge 95, Type (0, 1), BuildingBlock: UVAHIK_clean_linker_0, # of connection points: 2
#     Edge 96, Type (0, 1), BuildingBlock: UVAHIK_clean_linker_0, # of connection points: 2
#     Edge 97, Type (0, 1), BuildingBlock: UVAHIK_clean_linker_0, # of connection points: 2
#     Edge 98, Type (0, 1), BuildingBlock: UVAHIK_clean_linker_0, # of connection points: 2
#     Edge 99, Type (0, 1), BuildingBlock: UVAHIK_clean_linker_0, # of connection points: 2
#     Edge 100, Type (0, 1), BuildingBlock: UVAHIK_clean_linker_0, # of connection points: 2
#     Edge 101, Type (0, 1), BuildingBlock: UVAHIK_clean_linker_0, # of connection points: 2
#     Edge 102, Type (0, 1), BuildingBlock: UVAHIK_clean_linker_0, # of connection points: 2
#     Edge 103, Type (0, 1), BuildingBlock: UVAHIK_clean_linker_0, # of connection points: 2
#     Edge 104, Type (0, 1), BuildingBlock: UVAHIK_clean_linker_0, # of connection points: 2
#     Edge 105, Type (0, 1), BuildingBlock: UVAHIK_clean_linker_0, # of connection points: 2
#     Edge 106, Type (0, 1), BuildingBlock: UVAHIK_clean_linker_0, # of connection points: 2
#     Edge 107, Type (0, 1), BuildingBlock: UVAHIK_clean_linker_0, # of connection points: 2
# Relax obj value: 0.076
# Max RMSD: 0.208
# Mean RMSD: 0.115
data_MOF--net-ptr--node1-NAHDIM_clean_sbu_0--node2-GIZVER_clean_linker_0--edge1-UVAHIK_clean_linker_0
_symmetry_space_group_name_H-M    P1
_symmetry_Int_Tables_number       1
_symmetry_cell_setting            triclinic
loop_
_symmetry_equiv_pos_as_xyz
'x, y, z'
_cell_length_a     104.03603
_cell_length_b     102.29004
_cell_length_c     60.239951
_cell_angle_alpha  91.860453
_cell_angle_beta   89.437091
_cell_angle_gamma 121.61397
loop_
_atom_site_label
_atom_site_type_symbol
_atom_site_fract_x
_atom_site_fract_y
_atom_site_fract_z
_atom_type_partial_charge
C0 C 0.04051 0.38735 0.0124 0.0
O1 O 0.04305 0.40136 0.01398 0.0
O2 O 0.99019 0.35929 0.00366 0.0
Zn3 Zn 0.00967 0.37964 0.0087 0.0
O4 O 0.00877 0.38988 0.03733 0.0
C5 C 0.01895 0.39438 0.96565 0.0
O6 O 0.02359 0.38483 0.96149 0.0
O7 O 0.02701 0.37612 0.00995 0.0
C8 C 0.00208 0.39732 0.03754 0.0
O9 O 0.99555 0.39773 0.01924 0.0
C10 C 0.98229 0.35119 0.01971 0.0
O11 O 0.98682 0.35625 0.04018 0.0
O12 O 0.01278 0.39392 0.98414 0.0
C13 C 0.65847 0.63627 -0.00051 0.0
O14 O 0.65055 0.63389 0.98131 0.0
O15 O 0.63078 0.65069 0.01794 0.0
Zn16 Zn 0.63097 0.63101 0.01858 0.0
O17 O 0.61946 0.61705 0.99244 0.0
C18 C 0.60807 0.61899 0.05135 0.0
O19 O 0.60357 0.62654 0.03973 0.0
O20 O 0.65244 0.63562 0.01821 0.0
C21 C 0.6096 0.61796 0.9815 0.0
O22 O 0.60681 0.62879 0.98684 0.0
C23 C 0.64047 0.66259 0.00785 0.0
O24 O 0.65142 0.66245 0.99705 0.0
O25 O 0.62015 0.61949 0.04585 0.0
C26 C 0.35718 0.02648 0.00866 0.0
O27 O 0.34593 0.01385 0.01681 0.0
O28 O 0.34724 0.98866 0.99749 0.0
Zn29 Zn 0.36884 0.00672 8e-05 0.0
O30 O 0.38165 0.00698 0.97431 0.0
C31 C 0.37488 0.99329 0.03732 0.0
O32 O 0.3635 0.98043 0.0289 0.0
O33 O 0.36847 0.02632 0.00071 0.0
C34 C 0.38722 0.99849 0.97423 0.0
O35 O 0.38409 0.98911 0.99058 0.0
C36 C 0.34269 0.97575 0.98768 0.0
O37 O 0.35248 0.97317 0.97775 0.0
O38 O 0.37873 0.00589 0.0283 0.0
C39 C 0.97448 0.63599 0.99201 0.0
O40 O 0.98392 0.63927 0.97547 0.0
O41 O 0.01377 0.6519 0.0105 0.0
Zn42 Zn 0.99564 0.63019 0.01127 0.0
O43 O 0.99552 0.61694 0.98548 0.0
C44 C 0.00831 0.62385 0.04886 0.0
O45 O 0.02098 0.6352 0.04106 0.0
O46 O 0.97694 0.6314 0.00993 0.0
C47 C 0.00557 0.61343 0.9842 0.0
O48 O 0.01634 0.61902 -0.00071 0.0
C49 C 0.02335 0.65724 0.99491 0.0
O50 O 0.02184 0.64835 0.97766 0.0
O51 O 0.99591 0.62008 0.03938 0.0
C52 C 0.33711 0.37064 0.98832 0.0
O53 O 0.33825 0.36141 0.97387 0.0
O54 O 0.36468 0.35965 0.9936 0.0
Zn55 Zn 0.36843 0.38107 0.99749 0.0
O56 O 0.38093 0.39177 0.02506 0.0
C57 C 0.39158 0.39345 0.96468 0.0
O58 O 0.39501 0.3843 0.97426 0.0
O59 O 0.34857 0.38005 6e-05 0.0
C60 C 0.39146 0.38998 0.03173 0.0
O61 O 0.39407 0.38027 0.02091 0.0
C62 C 0.36085 0.3505 0.00955 0.0
O63 O 0.35924 0.35503 0.02948 0.0
O64 O 0.38011 0.39376 0.97136 0.0
C65 C 0.62329 0.96656 0.00925 0.0
O66 O 0.60985 0.96461 0.0119 0.0
O67 O 0.65381 0.01739 0.00746 0.0
Zn68 Zn 0.63266 0.99864 0.0055 0.0
O69 O 0.6204 0.99872 0.03173 0.0
C70 C 0.6269 0.0082 0.96311 0.0
O71 O 0.64075 0.02 0.9655 0.0
O72 O 0.63452 0.97999 0.00617 0.0
C73 C 0.61198 0.00422 0.02987 0.0
O74 O 0.61168 0.01012 0.01098 0.0
C75 C 0.65694 0.03113 0.0104 0.0
O76 O 0.64593 0.03383 0.01208 0.0
O77 O 0.62163 0.99778 0.9774 0.0
C78 C 0.70261 0.71634 0.33843 0.0
O79 O 0.70532 0.7303 0.33632 0.0
O80 O 0.65212 0.68646 0.33726 0.0
Zn81 Zn 0.67102 0.70768 0.33758 0.0
O82 O 0.67083 0.72015 0.3642 0.0
C83 C 0.66109 0.72061 0.3055 0.0
O84 O 0.64918 0.71439 0.31833 0.0
O85 O 0.68902 0.70516 0.33922 0.0
C86 C 0.67764 0.73471 0.36359 0.0
O87 O 0.68511 0.74159 0.34566 0.0
C88 C 0.63982 0.6835 0.34632 0.0
O89 O 0.63901 0.69466 0.35629 0.0
O90 O 0.67202 0.71889 0.30995 0.0
C91 C 0.33038 0.97802 0.34046 0.0
O92 O 0.32971 0.99022 0.33665 0.0
O93 O 0.29984 0.98382 0.3514 0.0
Zn94 Zn 0.29779 0.96314 0.34658 0.0
O95 O 0.28637 0.95275 0.31815 0.0
C96 C 0.27755 0.95127 0.38423 0.0
O97 O 0.2759 0.96294 0.38091 0.0
O98 O 0.31832 0.96551 0.34497 0.0
C99 C 0.27202 0.94482 0.31759 0.0
O100 O 0.26448 0.94371 0.33577 0.0
C101 C 0.29839 0.99106 0.33581 0.0
O102 O 0.29549 0.98503 0.31555 0.0
O103 O 0.28642 0.94932 0.37187 0.0
C104 C 0.02922 0.36465 0.35371 0.0
O105 O 0.01801 0.35221 0.36234 0.0
O106 O 0.01844 0.3264 0.34202 0.0
Zn107 Zn 0.04015 0.34435 0.34342 0.0
O108 O 0.05217 0.34461 0.31657 0.0
C109 C 0.04739 0.33082 0.37915 0.0
O110 O 0.03613 0.31792 0.3706 0.0
O111 O 0.04008 0.3641 0.34485 0.0
C112 C 0.0576 0.33599 0.31504 0.0
O113 O 0.05481 0.32624 0.33072 0.0
C114 C 0.01346 0.31376 0.33114 0.0
O115 O 0.0228 0.31151 0.31922 0.0
O116 O 0.05077 0.34346 0.37073 0.0
C117 C 0.63758 0.97541 0.3496 0.0
O118 O 0.64982 0.98723 0.35846 0.0
O119 O 0.67524 0.98404 0.34861 0.0
Zn120 Zn 0.65678 0.96274 0.3447 0.0
O121 O 0.65866 0.95237 0.31709 0.0
C122 C 0.65889 0.955 0.38991 0.0
O123 O 0.66298 0.96933 0.39447 0.0
O124 O 0.63789 0.96367 0.34282 0.0
C125 C 0.67035 0.95153 0.31458 0.0
O126 O 0.6812 0.95816 0.32957 0.0
C127 C 0.68133 0.99301 0.33254 0.0
O128 O 0.67552 0.98833 0.31249 0.0
O129 O 0.65547 0.94979 0.37004 0.0
C130 C 0.00404 0.70252 0.32861 0.0
O131 O 0.0053 0.69276 0.31543 0.0
O132 O 0.03029 0.69062 0.34132 0.0
Zn133 Zn 0.03491 0.71251 0.34003 0.0
O134 O 0.04781 0.7257 0.36622 0.0
C135 C 0.05485 0.71812 0.30303 0.0
O136 O 0.05552 0.70685 0.3116 0.0
O137 O 0.01531 0.71215 0.3405 0.0
C138 C 0.06197 0.73114 0.36668 0.0
O139 O 0.0682 0.72777 0.35021 0.0
C140 C 0.03664 0.68629 0.35466 0.0
O141 O 0.04663 0.69627 0.36907 0.0
O142 O 0.04633 0.72224 0.31193 0.0
C143 C 0.28593 0.29547 0.34067 0.0
O144 O 0.27243 0.29334 0.34356 0.0
O145 O 0.31474 0.3468 0.33937 0.0
Zn146 Zn 0.29426 0.32712 0.33972 0.0
O147 O 0.28267 0.3259 0.36741 0.0
C148 C 0.28432 0.32591 0.2938 0.0
O149 O 0.29658 0.326 0.28804 0.0
O150 O 0.29708 0.30903 0.33816 0.0
C151 C 0.28495 0.3374 0.37937 0.0
O152 O 0.29617 0.35117 0.37466 0.0
C153 C 0.31644 0.35917 0.33222 0.0
O154 O 0.30455 0.35923 0.32523 0.0
O155 O 0.2814 0.3262 0.31427 0.0
C156 C 0.37502 0.05014 0.67552 0.0
O157 O 0.37749 0.06413 0.6767 0.0
O158 O 0.32459 0.02224 0.66877 0.0
Zn159 Zn 0.34436 0.04258 0.67181 0.0
O160 O 0.34477 0.05461 0.69924 0.0
C161 C 0.33621 0.05612 0.63779 0.0
O162 O 0.32264 0.047 0.6457 0.0
O163 O 0.36154 0.03884 0.67326 0.0
C164 C 0.33319 0.05449 0.70649 0.0
O165 O 0.32009 0.04557 0.69653 0.0
C166 C 0.31834 0.01354 0.68509 0.0
O167 O 0.32485 0.01789 0.70476 0.0
O168 O 0.3473 0.05584 0.64589 0.0
C169 C 0.99255 0.30662 0.66277 0.0
O170 O 0.98666 0.3091 0.6454 0.0
O171 O 0.96517 0.31837 0.67612 0.0
Zn172 Zn 0.96367 0.29802 0.67902 0.0
O173 O 0.95275 0.2842 0.65248 0.0
C174 C 0.94996 0.27446 0.71102 0.0
O175 O 0.95572 0.26826 0.69805 0.0
O176 O 0.98467 0.30166 0.6802 0.0
C177 C 0.93843 0.2758 0.65168 0.0
O178 O 0.93051 0.27643 0.66833 0.0
C179 C 0.95534 0.32092 0.68422 0.0
O180 O 0.94369 0.30993 0.6946 0.0
O181 O 0.95223 0.28755 0.7065 0.0
C182 C 0.69696 0.70162 0.68239 0.0
O183 O 0.68572 0.68939 0.69142 0.0
O184 O 0.68569 0.6632 0.6719 0.0
Zn185 Zn 0.70751 0.68091 0.67338 0.0
O186 O 0.71948 0.68045 0.64692 0.0
C187 C 0.71405 0.66763 0.71026 0.0
O188 O 0.70262 0.65474 0.702 0.0
O189 O 0.70775 0.70081 0.67378 0.0
C190 C 0.72483 0.67176 0.64634 0.0
O191 O 0.72209 0.66258 0.66282 0.0
C192 C 0.68069 0.65039 0.66149 0.0
O193 O 0.69008 0.6478 0.65032 0.0
O194 O 0.71781 0.6802 0.70121 0.0
C195 C 0.30885 0.31159 0.68259 0.0
O196 O 0.32114 0.32326 0.6916 0.0
O197 O 0.34634 0.32027 0.68095 0.0
Zn198 Zn 0.32795 0.29893 0.67752 0.0
O199 O 0.33003 0.28819 0.65043 0.0
C200 C 0.33698 0.2835 0.70549 0.0
O201 O 0.34796 0.28894 0.69095 0.0
O202 O 0.30906 0.29987 0.67542 0.0
C203 C 0.31913 0.27491 0.64465 0.0
O204 O 0.30644 0.26892 0.65576 0.0
C205 C 0.35283 0.32871 0.66448 0.0
O206 O 0.34753 0.32337 0.64435 0.0
O207 O 0.32668 0.28657 0.70362 0.0
C208 C 0.67385 0.03448 0.66108 0.0
O209 O 0.67533 0.02478 0.64809 0.0
O210 O 0.70056 0.02324 0.67162 0.0
Zn211 Zn 0.70473 0.04491 0.67277 0.0
O212 O 0.71685 0.0566 0.70017 0.0
C213 C 0.72663 0.05347 0.63803 0.0
O214 O 0.72812 0.04272 0.64673 0.0
O215 O 0.685 0.04424 0.67305 0.0
C216 C 0.72878 0.05684 0.70549 0.0
O217 O 0.73295 0.04882 0.69336 0.0
C218 C 0.69886 0.01545 0.68863 0.0
O219 O 0.69978 0.02156 0.70852 0.0
O220 O 0.7169 0.05622 0.64603 0.0
C221 C 0.96365 0.64041 0.68968 0.0
O222 O 0.96302 0.64783 0.70748 0.0
O223 O 0.98085 0.68326 0.6696 0.0
Zn224 Zn 0.96045 0.66338 0.66918 0.0
O225 O 0.94757 0.66307 0.6946 0.0
C226 C 0.94882 0.67396 0.63683 0.0
O227 O 0.95636 0.68639 0.6496 0.0
O228 O 0.96281 0.64498 0.67066 0.0
C229 C 0.95028 0.67475 0.7065 0.0
O230 O 0.96259 0.68808 0.70301 0.0
C231 C 0.99292 0.68477 0.6773 0.0
O232 O 0.99248 0.67289 0.68583 0.0
O233 O 0.94915 0.66209 0.64142 0.0
H234 H 0.15402 0.32976 0.13207 0.0
H235 H 0.15221 0.33847 0.06297 0.0
H236 H 0.13587 0.35703 0.11271 0.0
H237 H 0.15463 0.31276 0.10049 0.0
H238 H 0.15811 0.31957 0.07286 0.0
H239 H 0.1747 0.32554 0.12979 0.0
H240 H 0.22026 0.35028 0.10628 0.0
H241 H 0.18361 0.33829 0.06128 0.0
C242 C 0.15151 0.33535 0.11932 0.0
C243 C 0.14499 0.344 0.12526 0.0
C244 C 0.15444 0.33353 0.09691 0.0
C245 C 0.15053 0.34025 0.08033 0.0
C246 C 0.14407 0.34895 0.08613 0.0
C247 C 0.14154 0.35092 0.10851 0.0
C248 C 0.16051 0.32335 0.09066 0.0
C249 C 0.17727 0.3314 0.09517 0.0
C250 C 0.18262 0.33132 0.11653 0.0
C251 C 0.19816 0.33841 0.1207 0.0
C252 C 0.20832 0.34552 0.10333 0.0
C253 C 0.20323 0.34543 0.08183 0.0
C254 C 0.18766 0.33849 0.07787 0.0
H255 H 0.68354 0.83324 0.12936 0.0
H256 H 0.67169 0.82156 0.06003 0.0
H257 H 0.65447 0.78618 0.10811 0.0
H258 H 0.69824 0.8518 0.09857 0.0
H259 H 0.69057 0.84765 0.071 0.0
H260 H 0.6848 0.85681 0.12971 0.0
H261 H 0.65775 0.87502 0.11033 0.0
H262 H 0.6721 0.85418 0.06102 0.0
C263 C 0.67728 0.8248 0.11622 0.0
C264 C 0.66846 0.80924 0.12133 0.0
C265 C 0.6781 0.82943 0.09421 0.0
C266 C 0.67062 0.81819 0.07714 0.0
C267 C 0.66202 0.80256 0.08212 0.0
C268 C 0.66072 0.79827 0.10427 0.0
C269 C 0.6875 0.84623 0.08888 0.0
C270 C 0.67915 0.85428 0.09478 0.0
C271 C 0.67884 0.85885 0.11698 0.0
C272 C 0.67093 0.86611 0.12282 0.0
C273 C 0.6634 0.86887 0.10617 0.0
C274 C 0.66387 0.86473 0.08394 0.0
C275 C 0.67169 0.85736 0.07824 0.0
H276 H 0.17278 0.81013 0.13114 0.0
H277 H 0.16638 0.80354 0.06024 0.0
H278 H 0.12807 0.78398 0.10372 0.0
H279 H 0.19319 0.8127 0.10567 0.0
H280 H 0.19086 0.81218 0.07629 0.0
H281 H 0.19539 0.83501 0.12892 0.0
H282 H 0.21863 0.87798 0.09602 0.0
H283 H 0.19956 0.83565 0.05767 0.0
C284 C 0.16534 0.80584 0.11676 0.0
C285 C 0.14967 0.79746 0.11978 0.0
C286 C 0.17145 0.80827 0.09528 0.0
C287 C 0.16169 0.80202 0.07676 0.0
C288 C 0.14595 0.79322 0.07958 0.0
C289 C 0.14011 0.79131 0.10116 0.0
C290 C 0.1883 0.81608 0.09228 0.0
C291 C 0.19591 0.83335 0.09312 0.0
C292 C 0.19882 0.84133 0.11373 0.0
C293 C 0.20712 0.85745 0.11489 0.0
C294 C 0.21201 0.86552 0.09516 0.0
C295 C 0.20947 0.85781 0.0745 0.0
C296 C 0.20129 0.84168 0.07353 0.0
H297 H 0.35958 0.19696 0.88072 0.0
H298 H 0.36295 0.2071 0.95116 0.0
H299 H 0.33921 0.22071 0.909 0.0
H300 H 0.38029 0.19836 0.90567 0.0
H301 H 0.37772 0.19757 0.93503 0.0
H302 H 0.3614 0.17588 0.88076 0.0
H303 H 0.34197 0.13193 0.91026 0.0
H304 H 0.36361 0.17298 0.9517 0.0
C305 C 0.35659 0.20129 0.89522 0.0
C306 C 0.34819 0.20828 0.89248 0.0
C307 C 0.36161 0.20038 0.91641 0.0
C308 C 0.35854 0.20707 0.93492 0.0
C309 C 0.35032 0.21429 0.93232 0.0
C310 C 0.34493 0.21451 0.91118 0.0
C311 C 0.37156 0.19379 0.91884 0.0
C312 C 0.36266 0.17644 0.91663 0.0
C313 C 0.35833 0.16911 0.89548 0.0
C314 C 0.35057 0.15304 0.89313 0.0
C315 C 0.34723 0.14429 0.9121 0.0
C316 C 0.35211 0.1514 0.93317 0.0
C317 C 0.35964 0.16747 0.93545 0.0
H318 H 0.85435 0.17472 0.89625 0.0
H319 H 0.85496 0.18706 0.96553 0.0
H320 H 0.87508 0.22207 0.91708 0.0
H321 H 0.85025 0.15654 0.92745 0.0
H322 H 0.84651 0.16083 0.95487 0.0
H323 H 0.83195 0.15205 0.89588 0.0
H324 H 0.78569 0.13071 0.91566 0.0
H325 H 0.82093 0.15222 0.965 0.0
C326 C 0.85698 0.18331 0.90926 0.0
C327 C 0.86464 0.19886 0.90389 0.0
C328 C 0.85296 0.17886 0.93137 0.0
C329 C 0.85736 0.19026 0.94833 0.0
C330 C 0.86523 0.20585 0.94311 0.0
C331 C 0.86852 0.20999 0.92091 0.0
C332 C 0.84503 0.16208 0.93695 0.0
C333 C 0.82842 0.15369 0.93102 0.0
C334 C 0.82369 0.1494 0.90875 0.0
C335 C 0.80831 0.14141 0.90301 0.0
C336 C 0.79762 0.13755 0.91983 0.0
C337 C 0.80204 0.14124 0.94218 0.0
C338 C 0.81748 0.14946 0.94772 0.0
H339 H 0.8295 0.64467 0.87398 0.0
H340 H 0.83323 0.6383 0.94345 0.0
H341 H 0.87307 0.66245 0.90385 0.0
H342 H 0.80787 0.62325 0.8965 0.0
H343 H 0.80886 0.62498 0.92608 0.0
H344 H 0.80641 0.64283 0.87413 0.0
H345 H 0.78529 0.66441 0.90713 0.0
H346 H 0.80138 0.64097 0.94525 0.0
C347 C 0.83636 0.64689 0.88864 0.0
C348 C 0.85213 0.65479 0.88664 0.0
C349 C 0.82942 0.64127 0.90922 0.0
C350 C 0.83846 0.64327 0.9278 0.0
C351 C 0.85423 0.65107 0.92593 0.0
C352 C 0.86095 0.6571 0.9055 0.0
C353 C 0.81241 0.63173 0.91071 0.0
C354 C 0.8055 0.64153 0.90992 0.0
C355 C 0.8032 0.64622 0.88939 0.0
C356 C 0.79621 0.65476 0.88835 0.0
C357 C 0.79147 0.65858 0.90803 0.0
C358 C 0.79306 0.65346 0.92855 0.0
C359 C 0.80031 0.64514 0.92948 0.0
H360 H 0.81838 0.66223 0.46101 0.0
H361 H 0.81653 0.67054 0.39176 0.0
H362 H 0.79821 0.68746 0.44085 0.0
H363 H 0.82014 0.64573 0.42953 0.0
H364 H 0.82379 0.65273 0.40201 0.0
H365 H 0.83954 0.65997 0.46 0.0
H366 H 0.88542 0.68582 0.43835 0.0
H367 H 0.84931 0.67114 0.39104 0.0
C368 C 0.81556 0.66747 0.44813 0.0
C369 C 0.8083 0.67543 0.45383 0.0
C370 C 0.81887 0.66588 0.42583 0.0
C371 C 0.81455 0.67215 0.40906 0.0
C372 C 0.80732 0.68014 0.4146 0.0
C373 C 0.80442 0.68187 0.43689 0.0
C374 C 0.82577 0.6564 0.41987 0.0
C375 C 0.84249 0.66508 0.42506 0.0
C376 C 0.84758 0.66573 0.44688 0.0
C377 C 0.86307 0.67355 0.45176 0.0
C378 C 0.87348 0.6805 0.43466 0.0
C379 C 0.86868 0.6795 0.41265 0.0
C380 C 0.85313 0.67198 0.40799 0.0
H381 H 0.35525 0.16734 0.46142 0.0
H382 H 0.3375 0.1547 0.39451 0.0
H383 H 0.33043 0.1199 0.43952 0.0
H384 H 0.36427 0.18675 0.43227 0.0
H385 H 0.35639 0.18153 0.40484 0.0
H386 H 0.34736 0.18617 0.46433 0.0
H387 H 0.31716 0.20072 0.44566 0.0
H388 H 0.33707 0.18639 0.39522 0.0
C389 C 0.34876 0.1586 0.44872 0.0
C390 C 0.34308 0.1431 0.45302 0.0
C391 C 0.34665 0.16289 0.42769 0.0
C392 C 0.33882 0.1515 0.41093 0.0
C393 C 0.33292 0.136 0.41532 0.0
C394 C 0.33491 0.13191 0.43636 0.0
C395 C 0.35353 0.17965 0.42277 0.0
C396 C 0.34296 0.18506 0.42911 0.0
C397 C 0.34116 0.1879 0.4516 0.0
C398 C 0.3317 0.19335 0.45768 0.0
C399 C 0.32395 0.19586 0.44111 0.0
C400 C 0.32594 0.19355 0.41859 0.0
C401 C 0.33538 0.18803 0.41263 0.0
H402 H 0.83911 0.14264 0.45974 0.0
H403 H 0.83042 0.13635 0.38924 0.0
H404 H 0.79371 0.12051 0.43515 0.0
H405 H 0.85756 0.1423 0.43095 0.0
H406 H 0.85525 0.14497 0.4025 0.0
H407 H 0.86267 0.16333 0.45994 0.0
H408 H 0.88955 0.20889 0.4359 0.0
H409 H 0.86668 0.17061 0.38945 0.0
C410 C 0.83137 0.13921 0.44586 0.0
C411 C 0.81586 0.13206 0.45 0.0
C412 C 0.83683 0.1413 0.42397 0.0
C413 C 0.82644 0.13558 0.40612 0.0
C414 C 0.81086 0.12815 0.41009 0.0
C415 C 0.80575 0.12686 0.43201 0.0
C416 C 0.85345 0.14782 0.41979 0.0
C417 C 0.86283 0.165 0.4242 0.0
C418 C 0.86654 0.17099 0.44616 0.0
C419 C 0.87611 0.1868 0.45043 0.0
C420 C 0.88188 0.19669 0.4326 0.0
C421 C 0.87864 0.19098 0.41059 0.0
C422 C 0.869 0.17511 0.40643 0.0
H423 H 0.03297 0.53371 0.21823 0.0
H424 H 0.03517 0.54248 0.28892 0.0
H425 H 0.01356 0.55841 0.24631 0.0
H426 H 0.05244 0.53353 0.24249 0.0
H427 H 0.05125 0.53459 0.27197 0.0
H428 H 0.03221 0.50996 0.22086 0.0
H429 H 0.01438 0.46806 0.25599 0.0
H430 H 0.03763 0.51136 0.29193 0.0
C431 C 0.02996 0.53805 0.23274 0.0
C432 C 0.022 0.5455 0.23006 0.0
C433 C 0.03453 0.53668 0.254 0.0
C434 C 0.03127 0.54312 0.27261 0.0
C435 C 0.02365 0.551 0.27007 0.0
C436 C 0.0188 0.55178 0.24874 0.0
C437 C 0.04434 0.52996 0.25649 0.0
C438 C 0.03512 0.51262 0.25654 0.0
C439 C 0.02981 0.50406 0.23636 0.0
C440 C 0.02247 0.48797 0.236 0.0
C441 C 0.01989 0.48048 0.25612 0.0
C442 C 0.02542 0.48881 0.27623 0.0
C443 C 0.03297 0.50489 0.27645 0.0
H444 H 0.514 0.50739 0.22739 0.0
H445 H 0.51563 0.51695 0.29793 0.0
H446 H 0.53419 0.55383 0.25232 0.0
H447 H 0.51124 0.48829 0.25766 0.0
H448 H 0.50605 0.49103 0.28499 0.0
H449 H 0.49393 0.48264 0.22521 0.0
H450 H 0.447 0.4626 0.24021 0.0
H451 H 0.48005 0.48344 0.2927 0.0
C452 C 0.51662 0.5154 0.24127 0.0
C453 C 0.52396 0.53114 0.23728 0.0
C454 C 0.51298 0.51005 0.26306 0.0
C455 C 0.51758 0.5208 0.28101 0.0
C456 C 0.52516 0.53658 0.27708 0.0
C457 C 0.5279 0.5416 0.25525 0.0
C458 C 0.50529 0.49306 0.26714 0.0
C459 C 0.48894 0.48453 0.25969 0.0
C460 C 0.48517 0.4802 0.23714 0.0
C461 C 0.47009 0.47262 0.22992 0.0
C462 C 0.45873 0.46907 0.24552 0.0
C463 C 0.46219 0.47271 0.26815 0.0
C464 C 0.47734 0.4806 0.2752 0.0
H465 H 0.49386 0.97223 0.20018 0.0
H466 H 0.49534 0.96526 0.27003 0.0
H467 H 0.53651 0.9909 0.23374 0.0
H468 H 0.4718 0.95017 0.22085 0.0
H469 H 0.47172 0.95113 0.25047 0.0
H470 H 0.4695 0.96906 0.19872 0.0
H471 H 0.44709 0.98949 0.23116 0.0
H472 H 0.4645 0.96744 0.26985 0.0
C473 C 0.50028 0.97437 0.21534 0.0
C474 C 0.51612 0.98274 0.21464 0.0
C475 C 0.49266 0.96829 0.23535 0.0
C476 C 0.50108 0.97043 0.25473 0.0
C477 C 0.51691 0.97878 0.25421 0.0
C478 C 0.5243 0.98511 0.23428 0.0
C479 C 0.47565 0.95828 0.23549 0.0
C480 C 0.46837 0.96773 0.23451 0.0
C481 C 0.46599 0.97225 0.2139 0.0
C482 C 0.45862 0.98041 0.21272 0.0
C483 C 0.45358 0.984 0.23229 0.0
C484 C 0.45542 0.9792 0.25295 0.0
C485 C 0.4631 0.97129 0.25401 0.0
H486 H 0.48944 0.99473 0.79782 0.0
H487 H 0.48883 0.00419 0.72876 0.0
H488 H 0.46974 0.02042 0.7776 0.0
H489 H 0.49226 0.9791 0.76715 0.0
H490 H 0.49483 0.98526 0.7392 0.0
H491 H 0.51257 0.99506 0.79614 0.0
H492 H 0.55757 0.01942 0.77044 0.0
H493 H 0.51977 0.00316 0.72604 0.0
C494 C 0.48685 1.0002 0.78499 0.0
C495 C 0.47951 0.00809 0.79062 0.0
C496 C 0.4905 0.99893 0.76276 0.0
C497 C 0.48656 0.00553 0.74601 0.0
C498 C 0.47932 0.01351 0.7515 0.0
C499 C 0.47601 0.01488 0.77372 0.0
C500 C 0.49739 0.98946 0.75682 0.0
C501 C 0.51426 0.99849 0.76074 0.0
C502 C 0.52015 1.00013 0.7823 0.0
C503 C 0.53581 0.00798 0.78596 0.0
C504 C 0.54552 0.01412 0.76785 0.0
C505 C 0.5399 0.01238 0.7462 0.0
C506 C 0.52422 0.00468 0.74274 0.0
H507 H 0.02678 0.5023 0.79177 0.0
H508 H 0.00367 0.48724 0.72843 0.0
H509 H 1.00053 0.45423 0.77398 0.0
H510 H 0.03341 0.52055 0.76176 0.0
H511 H 0.024 0.51424 0.7354 0.0
H512 H 0.01599 0.51839 0.79591 0.0
H513 H 0.98897 0.53731 0.77979 0.0
H514 H 0.00699 0.52229 0.72753 0.0
C515 C 0.0193 0.49313 0.7802 0.0
C516 C 0.01396 0.47784 0.78532 0.0
C517 C 0.01554 0.49663 0.75973 0.0
C518 C 0.00633 0.48464 0.74442 0.0
C519 C 1.00077 0.46931 0.74964 0.0
C520 C 0.00456 0.46605 0.77011 0.0
C521 C 0.02217 0.51316 0.75365 0.0
C522 C 0.01212 0.51905 0.76093 0.0
C523 C 0.01041 0.5213 0.78369 0.0
C524 C 0.00193 0.52773 0.79073 0.0
C525 C 0.99497 0.53168 0.77468 0.0
C526 C 0.99675 0.52977 0.75197 0.0
C527 C 0.00533 0.52345 0.7451 0.0
H528 H 0.50605 0.48457 0.7922 0.0
H529 H 0.49931 0.47427 0.72185 0.0
H530 H 0.46133 0.4608 0.76453 0.0
H531 H 0.5251 0.48226 0.76635 0.0
H532 H 0.52378 0.48401 0.73725 0.0
H533 H 0.53108 0.50411 0.79285 0.0
H534 H 0.55643 0.54894 0.76565 0.0
H535 H 0.53376 0.50911 0.7219 0.0
C536 C 0.49867 0.48024 0.7778 0.0
C537 C 0.48304 0.47323 0.78074 0.0
C538 C 0.50471 0.48107 0.75651 0.0
C539 C 0.49485 0.47438 0.73814 0.0
C540 C 0.47917 0.46716 0.74094 0.0
C541 C 0.47345 0.46702 0.76216 0.0
C542 C 0.52141 0.4874 0.75381 0.0
C543 C 0.53065 0.50467 0.75704 0.0
C544 C 0.5346 0.51136 0.7786 0.0
C545 C 0.54392 0.52733 0.78182 0.0
C546 C 0.54903 0.53661 0.76326 0.0
C547 C 0.5456 0.53017 0.74163 0.0
C548 C 0.53627 0.51417 0.73857 0.0
H549 H 0.6961 0.87167 0.54855 0.0
H550 H 0.70217 0.87541 0.61962 0.0
H551 H 0.67453 0.88974 0.58948 0.0
H552 H 0.71705 0.87091 0.56613 0.0
H553 H 0.71869 0.87121 0.59561 0.0
H554 H 0.69963 0.84701 0.54525 0.0
H555 H 0.68457 0.80497 0.57885 0.0
H556 H 0.70439 0.8476 0.61639 0.0
C557 C 0.69327 0.87421 0.56485 0.0
C558 C 0.68448 0.88093 0.56672 0.0
C559 C 0.69946 0.87189 0.58394 0.0
C560 C 0.69676 0.87634 0.60498 0.0
C561 C 0.68767 0.8827 0.60703 0.0
C562 C 0.68121 0.88444 0.58793 0.0
C563 C 0.71041 0.86648 0.58161 0.0
C564 C 0.70231 0.84919 0.58099 0.0
C565 C 0.69762 0.84091 0.56052 0.0
C566 C 0.69146 0.82497 0.55962 0.0
C567 C 0.68918 0.81726 0.57944 0.0
C568 C 0.6938 0.82531 0.59988 0.0
C569 C 0.70037 0.84129 0.60066 0.0
H570 H 0.18875 0.83969 0.56379 0.0
H571 H 0.18588 0.8504 0.63286 0.0
H572 H 0.21258 0.88655 0.58801 0.0
H573 H 0.18009 0.81984 0.59315 0.0
H574 H 0.17651 0.82407 0.62069 0.0
H575 H 0.16384 0.82097 0.56099 0.0
H576 H 0.11714 0.79887 0.57877 0.0
H577 H 0.15104 0.8152 0.62988 0.0
C578 C 0.19126 0.84804 0.57716 0.0
C579 C 0.20106 0.86369 0.57325 0.0
C580 C 0.18539 0.8431 0.59852 0.0
C581 C 0.18976 0.85406 0.61615 0.0
C582 C 0.19957 0.86972 0.61227 0.0
C583 C 0.2049 0.87443 0.59083 0.0
C584 C 0.17573 0.82613 0.60286 0.0
C585 C 0.15941 0.81949 0.59621 0.0
C586 C 0.15526 0.81739 0.57359 0.0
C587 C 0.14004 0.8102 0.5671 0.0
C588 C 0.12896 0.80517 0.58356 0.0
C589 C 0.1328 0.80688 0.60616 0.0
C590 C 0.14806 0.81413 0.61244 0.0
H591 H 0.16175 0.30487 0.54336 0.0
H592 H 0.1641 0.30103 0.61403 0.0
H593 H 0.20478 0.32474 0.57606 0.0
H594 H 0.13963 0.28466 0.56544 0.0
H595 H 0.14015 0.28624 0.59507 0.0
H596 H 0.13922 0.30491 0.54293 0.0
H597 H 0.11765 0.32645 0.5748 0.0
H598 H 0.13202 0.30184 0.61364 0.0
C599 C 0.16833 0.30769 0.5585 0.0
C600 C 0.18415 0.3159 0.55736 0.0
C601 C 0.16098 0.30265 0.57897 0.0
C602 C 0.16964 0.30551 0.59834 0.0
C603 C 0.18546 0.31363 0.59732 0.0
C604 C 0.19259 0.31909 0.57694 0.0
C605 C 0.14395 0.29305 0.57976 0.0
C606 C 0.13715 0.30294 0.57859 0.0
C607 C 0.13558 0.30807 0.55797 0.0
C608 C 0.12879 0.31679 0.55656 0.0
C609 C 0.12363 0.32043 0.57597 0.0
C610 C 0.12456 0.31491 0.59651 0.0
C611 C 0.1315 0.30632 0.59783 0.0
C612 C 0.00843 0.40491 0.07774 0.0
C613 C 0.00221 0.40598 0.05779 0.0
C614 C 0.00899 0.41348 0.09665 0.0
C615 C 0.00935 0.44837 0.11437 0.0
H616 H 1.00063 0.42999 0.1721 0.0
C617 C 0.01221 0.48144 0.19674 0.0
C618 C 0.01908 0.47895 0.21475 0.0
C619 C 0.00883 0.47247 0.17708 0.0
C620 C 0.00319 0.43533 0.15611 0.0
H621 H 0.99158 0.4168 0.04211 0.0
H622 H 0.99258 0.43176 0.07519 0.0
H623 H 0.99707 0.41421 0.13885 0.0
H624 H 0.02858 0.46575 0.22577 0.0
H625 H 0.02274 0.45026 0.19179 0.0
H626 H 0.01578 0.46959 0.13177 0.0
C627 C 0.9971 0.42435 0.07612 0.0
C628 C 1.00115 0.42628 0.13707 0.0
C629 C 0.99645 0.41571 0.05722 0.0
C630 C 0.02287 0.46765 0.21247 0.0
C631 C 0.01951 0.45875 0.19296 0.0
C632 C 0.01144 0.45746 0.13348 0.0
C633 C 0.00341 0.42335 0.09603 0.0
C634 C 0.00446 0.43275 0.11603 0.0
C635 C 0.0123 0.4609 0.17511 0.0
C636 C 0.00867 0.45109 0.1546 0.0
H637 H 0.01298 0.39755 0.07874 0.0
H638 H 0.0141 0.4126 0.11167 0.0
H639 H 0.01209 0.45371 0.09838 0.0
H640 H 0.00921 0.4901 0.19803 0.0
H641 H 0.00327 0.47439 0.16359 0.0
C642 C 0.58665 0.61063 0.07779 0.0
C643 C 0.59875 0.60944 0.06981 0.0
C644 C 0.57752 0.6013 0.09476 0.0
C645 C 0.56482 0.56477 0.12129 0.0
H646 H 0.55571 0.58339 0.17119 0.0
C647 C 0.53817 0.53314 0.20258 0.0
C648 C 0.52904 0.53706 0.21477 0.0
C649 C 0.54525 0.54082 0.18322 0.0
C650 C 0.55786 0.5779 0.1572 0.0
H651 H 0.61073 0.59749 0.07331 0.0
H652 H 0.59466 0.58112 0.10291 0.0
H653 H 0.57117 0.59929 0.14108 0.0
H654 H 0.51926 0.55124 0.21565 0.0
H655 H 0.53109 0.56425 0.1814 0.0
H656 H 0.5514 0.54334 0.13727 0.0
C657 C 0.59227 0.58926 0.09597 0.0
C658 C 0.56681 0.58706 0.14 0.0
C659 C 0.60152 0.59872 0.07915 0.0
C660 C 0.52635 0.54811 0.20658 0.0
C661 C 0.53326 0.55565 0.1871 0.0
C662 C 0.55572 0.55554 0.13841 0.0
C663 C 0.58018 0.59048 0.10393 0.0
C664 C 0.57046 0.58062 0.12195 0.0
C665 C 0.5432 0.55248 0.17557 0.0
C666 C 0.55218 0.56201 0.15665 0.0
H667 H 0.58421 0.61876 0.07093 0.0
H668 H 0.56822 0.60241 0.10048 0.0
H669 H 0.56732 0.55947 0.10742 0.0
H670 H 0.54054 0.52477 0.20871 0.0
H671 H 0.55292 0.53815 0.17495 0.0
C672 C 0.3956 0.00658 0.06581 0.0
C673 C 0.38427 0.99291 0.05527 0.0
C674 C 0.4051 0.00625 0.08176 0.0
C675 C 0.42042 0.98309 0.09952 0.0
H676 H 0.42746 0.00508 0.15606 0.0
C677 C 0.44611 0.97165 0.17545 0.0
C678 C 0.45436 0.98364 0.19111 0.0
C679 C 0.43947 0.97392 0.15708 0.0
C680 C 0.42591 0.99912 0.14019 0.0
H681 H 0.37396 0.96816 0.05335 0.0
H682 H 0.39059 0.96762 0.08108 0.0
H683 H 0.41177 0.00679 0.12801 0.0
H684 H 0.4631 0.00765 0.19916 0.0
H685 H 0.45204 0.01185 0.16665 0.0
H686 H 0.43461 0.97547 0.11155 0.0
C687 C 0.39215 0.97859 0.07692 0.0
C688 C 0.41683 1.00005 0.12418 0.0
C689 C 0.38254 0.97889 0.06119 0.0
C690 C 0.45669 0.9982 0.18735 0.0
C691 C 0.45023 1.00053 0.16886 0.0
C692 C 0.42965 0.98229 0.11544 0.0
C693 C 0.40357 0.99226 0.08727 0.0
C694 C 0.41382 0.99188 0.10381 0.0
C695 C 0.44109 0.98829 0.15389 0.0
C696 C 0.43236 0.99014 0.13612 0.0
H697 H 0.39723 0.01757 0.06161 0.0
H698 H 0.41384 0.01697 0.08943 0.0
H699 H 0.41846 0.97686 0.0838 0.0
H700 H 0.44398 0.96026 0.17813 0.0
H701 H 0.4324 0.96416 0.1461 0.0
C702 C 0.40104 0.98792 0.95388 0.0
C703 C 0.39752 0.9994 0.95642 0.0
C704 C 0.41112 0.98892 0.93755 0.0
C705 C 0.44275 0.01628 0.90389 0.0
H706 H 0.43126 0.98128 0.86404 0.0
C707 C 0.474 0.02098 0.82225 0.0
C708 C 0.47399 0.00806 0.81352 0.0
C709 C 0.46634 0.02012 0.84183 0.0
C710 C 0.43485 0.99107 0.87529 0.0
H711 H 0.40184 0.02097 0.94389 0.0
H712 H 0.41963 0.0228 0.91546 0.0
H713 H 0.41425 0.97929 0.89357 0.0
H714 H 0.46681 0.98439 0.81952 0.0
H715 H 0.4541 0.9831 0.85425 0.0
H716 H 0.46341 0.02806 0.88588 0.0
C717 C 0.41455 0.01303 0.92614 0.0
C718 C 0.42502 0.98994 0.89212 0.0
C719 C 0.40429 0.01192 0.94228 0.0
C720 C 0.4671 0.99459 0.82576 0.0
C721 C 0.45958 0.99377 0.84552 0.0
C722 C 0.45269 0.01737 0.88724 0.0
C723 C 0.41805 0.00153 0.92363 0.0
C724 C 0.42878 0.00259 0.90638 0.0
C725 C 0.45865 0.00636 0.8534 0.0
C726 C 0.44878 0.00484 0.8725 0.0
H727 H 0.39601 0.97812 0.96451 0.0
H728 H 0.41367 0.97993 0.93603 0.0
H729 H 0.446 0.02614 0.91489 0.0
H730 H 0.47943 0.03163 0.81345 0.0
H731 H 0.46586 0.03005 0.84723 0.0
C732 C 0.01658 0.41635 0.9541 0.0
C733 C 0.02078 0.40558 0.94901 0.0
C734 C 0.01801 0.42675 0.93833 0.0
C735 C 0.03662 0.44388 0.88506 0.0
H736 H 0.0033 0.4503 0.87837 0.0
C737 C 0.02435 0.46416 0.80471 0.0
C738 C 0.01859 0.47387 0.80596 0.0
C739 C 0.02695 0.45865 0.82395 0.0
C740 C 0.01284 0.44889 0.88029 0.0
H741 H 0.02994 0.39742 0.92343 0.0
H742 H 0.03218 0.41536 0.89577 0.0
H743 H 0.00306 0.43484 0.90846 0.0
H744 H 0.01165 0.48603 0.82823 0.0
H745 H 0.01615 0.4763 0.86219 0.0
H746 H 0.04613 0.45753 0.85639 0.0
C747 C 0.02801 0.41595 0.91209 0.0
C748 C 0.0127 0.44 0.89753 0.0
C749 C 0.02662 0.40557 0.92789 0.0
C750 C 0.01612 0.47857 0.82689 0.0
C751 C 0.01859 0.47291 0.84624 0.0
C752 C 0.03673 0.45273 0.86778 0.0
C753 C 0.02364 0.42661 0.91707 0.0
C754 C 0.02445 0.43713 0.89988 0.0
C755 C 0.02376 0.46265 0.84491 0.0
C756 C 0.0247 0.45509 0.86494 0.0
H757 H 0.01214 0.41675 0.97027 0.0
H758 H 0.01473 0.43493 0.94283 0.0
H759 H 0.04599 0.44217 0.88666 0.0
H760 H 0.02645 0.46047 0.78874 0.0
H761 H 0.0308 0.45067 0.82231 0.0
C762 C 0.5919 0.60886 0.94881 0.0
C763 C 0.60131 0.60683 0.96301 0.0
C764 C 0.5844 0.5985 0.93103 0.0
C765 C 0.56433 0.57113 0.90024 0.0
H766 H 0.58703 0.55702 0.86671 0.0
C767 C 0.53965 0.53017 0.82248 0.0
C768 C 0.54946 0.53438 0.8043 0.0
C769 C 0.54505 0.53742 0.84337 0.0
C770 C 0.58053 0.56087 0.87586 0.0
H771 H 0.60984 0.59205 0.97012 0.0
H772 H 0.59656 0.57387 0.93944 0.0
H773 H 0.59807 0.57304 0.90005 0.0
H774 H 0.5727 0.54895 0.79394 0.0
H775 H 0.58197 0.56174 0.82996 0.0
H776 H 0.54706 0.55947 0.87533 0.0
C777 C 0.59522 0.58364 0.94169 0.0
C778 C 0.5868 0.56992 0.89516 0.0
C779 C 0.6028 0.59405 0.95934 0.0
C780 C 0.56479 0.54564 0.80753 0.0
C781 C 0.57016 0.55283 0.82828 0.0
C782 C 0.55807 0.5621 0.88084 0.0
C783 C 0.58607 0.58583 0.92714 0.0
C784 C 0.57887 0.57534 0.90744 0.0
C785 C 0.56037 0.54888 0.84644 0.0
C786 C 0.56623 0.5571 0.86822 0.0
H787 H 0.59053 0.6186 0.95118 0.0
H788 H 0.57761 0.60066 0.91998 0.0
H789 H 0.55783 0.57492 0.90948 0.0
H790 H 0.52778 0.52152 0.82045 0.0
H791 H 0.53725 0.53404 0.85709 0.0
C792 C 0.99245 0.59494 0.95208 0.0
C793 C 0.00515 0.60309 0.96609 0.0
C794 C 0.99203 0.58499 0.93524 0.0
C795 C 0.01662 0.5781 0.89954 0.0
H796 H 0.98089 0.53776 0.8891 0.0
C797 C 0.0148 0.53908 0.82751 0.0
C798 C 1.00157 0.53199 0.81447 0.0
C799 C 0.01515 0.54561 0.84842 0.0
C800 C 0.99093 0.54903 0.89168 0.0
H801 H 0.02739 0.60721 0.97337 0.0
H802 H 0.02671 0.58999 0.94379 0.0
H803 H 0.98164 0.55394 0.9204 0.0
H804 H 0.97798 0.52507 0.814 0.0
H805 H 0.97869 0.53689 0.84997 0.0
H806 H 0.02575 0.57359 0.87047 0.0
C807 C 0.01708 0.59129 0.94588 0.0
C808 C 0.99134 0.55827 0.90962 0.0
C809 C 0.01744 0.60111 0.96286 0.0
C810 C 0.98843 0.53069 0.82346 0.0
C811 C 0.98881 0.53733 0.84425 0.0
C812 C 0.01616 0.56894 0.88149 0.0
C813 C 0.00437 0.58311 0.93193 0.0
C814 C 0.00414 0.57296 0.91359 0.0
C815 C 0.0023 0.54531 0.8567 0.0
C816 C 0.00325 0.55435 0.87717 0.0
H817 H 0.98279 0.59619 0.95417 0.0
H818 H 0.98215 0.57896 0.92455 0.0
H819 H 0.02658 0.58945 0.90205 0.0
H820 H 0.02515 0.54036 0.8211 0.0
H821 H 0.02564 0.55136 0.85776 0.0
C822 C 0.39755 0.41308 0.93593 0.0
C823 C 0.4014 0.40374 0.94713 0.0
C824 C 0.40706 0.42297 0.91966 0.0
C825 C 0.44642 0.44259 0.89979 0.0
H826 H 0.42893 0.44309 0.84355 0.0
C827 C 0.4808 0.46387 0.8193 0.0
C828 C 0.47634 0.47039 0.80324 0.0
C829 C 0.47261 0.45842 0.83888 0.0
C830 C 0.43402 0.44337 0.8593 0.0
H831 H 0.4183 0.39752 0.95005 0.0
H832 H 0.43478 0.41468 0.92168 0.0
H833 H 0.41248 0.42811 0.8736 0.0
H834 H 0.46053 0.47741 0.79581 0.0
H835 H 0.44639 0.46819 0.83022 0.0
H836 H 0.46798 0.45769 0.88541 0.0
C837 C 0.4245 0.41448 0.92561 0.0
C838 C 0.42456 0.43472 0.87651 0.0
C839 C 0.41497 0.40454 0.94175 0.0
C840 C 0.46412 0.47227 0.80781 0.0
C841 C 0.45598 0.4669 0.82745 0.0
C842 C 0.45589 0.45131 0.88262 0.0
C843 C 0.42066 0.4238 0.91438 0.0
C844 C 0.43066 0.43402 0.8968 0.0
C845 C 0.45981 0.45945 0.84288 0.0
C846 C 0.44982 0.45159 0.86201 0.0
H847 H 0.3872 0.41276 0.93973 0.0
H848 H 0.40384 0.43008 0.91137 0.0
H849 H 0.45145 0.44247 0.91539 0.0
H850 H 0.49005 0.46208 0.81612 0.0
H851 H 0.47582 0.45261 0.85025 0.0
C852 C 0.60248 0.9948 0.94164 0.0
C853 C 0.61704 0.00774 0.94513 0.0
C854 C 0.59292 0.99473 0.9254 0.0
C855 C 0.59336 0.01486 0.87494 0.0
H856 H 0.55053 0.99591 0.88636 0.0
C857 C 0.55539 0.02237 0.81559 0.0
C858 C 0.54235 0.00874 0.80811 0.0
C859 C 0.56343 0.02244 0.83402 0.0
C860 C 0.56245 0.00118 0.88294 0.0
H861 H 0.63295 0.03077 0.93432 0.0
H862 H 0.61625 0.03078 0.9064 0.0
H863 H 0.56701 0.99542 0.91458 0.0
H864 H 0.52696 0.98473 0.81501 0.0
H865 H 0.54098 0.9849 0.84753 0.0
H866 H 0.58885 0.02074 0.84345 0.0
C867 C 0.61228 0.02053 0.91584 0.0
C868 C 0.5719 1.00085 0.89903 0.0
C869 C 0.62186 0.02056 0.93194 0.0
C870 C 0.53691 0.99543 0.82047 0.0
C871 C 0.54496 0.99552 0.83903 0.0
C872 C 0.58396 0.0153 0.859 0.0
C873 C 0.59767 0.00764 0.91237 0.0
C874 C 0.58749 0.00773 0.89524 0.0
C875 C 0.5586 0.0089 0.84548 0.0
C876 C 0.56843 0.00852 0.86283 0.0
H877 H 0.59843 0.98472 0.9515 0.0
H878 H 0.58185 0.98451 0.92296 0.0
H879 H 0.60522 0.01997 0.8712 0.0
H880 H 0.55971 0.03286 0.80658 0.0
H881 H 0.57373 0.03301 0.83891 0.0
C882 C 0.59212 0.0086 0.04559 0.0
C883 C 0.60225 0.00359 0.04843 0.0
C884 C 0.58261 0.00766 0.06283 0.0
C885 C 0.57815 0.00455 0.12355 0.0
H886 H 0.53598 0.98894 0.1106 0.0
C887 C 0.51943 0.97724 0.17479 0.0
C888 C 0.52431 0.98754 0.19324 0.0
C889 C 0.52846 0.98067 0.15593 0.0
C890 C 0.54772 0.99332 0.11446 0.0
H891 H 0.61042 0.99378 0.0717 0.0
H892 H 0.59381 0.99212 0.1018 0.0
H893 H 0.55302 0.99172 0.08041 0.0
H894 H 0.54194 0.00998 0.20572 0.0
H895 H 0.55769 0.01598 0.17279 0.0
H896 H 0.57283 0.0058 0.15763 0.0
C897 C 0.59331 0.99688 0.08627 0.0
C898 C 0.55751 0.99503 0.09717 0.0
C899 C 0.60277 0.99776 0.06898 0.0
C900 C 0.53799 0.00171 0.1919 0.0
C901 C 0.54702 0.00513 0.17308 0.0
C902 C 0.5684 0.00292 0.14081 0.0
C903 C 0.58307 0.00176 0.08335 0.0
C904 C 0.5728 1.00052 0.10156 0.0
C905 C 0.54257 0.99446 0.15515 0.0
C906 C 0.55305 0.99717 0.1365 0.0
H907 H 0.59144 0.01318 0.02998 0.0
H908 H 0.57498 0.01166 0.06015 0.0
H909 H 0.5899 0.00896 0.12745 0.0
H910 H 0.50905 0.96615 0.17538 0.0
H911 H 0.52475 0.97216 0.14247 0.0
C912 C 0.02237 0.61638 0.07373 0.0
C913 C 0.00863 0.61458 0.06696 0.0
C914 C 0.02266 0.60701 0.08982 0.0
C915 C 1.00169 0.58353 0.13672 0.0
H916 H 0.02591 0.5652 0.12723 0.0
C917 C 0.0042 0.54591 0.20292 0.0
C918 C 0.0186 0.54863 0.20775 0.0
C919 C 1.0017 0.55155 0.18369 0.0
C920 C 0.01918 0.57032 0.13023 0.0
H921 H 0.98442 0.60169 0.07206 0.0
H922 H 0.98498 0.58547 0.10051 0.0
H923 H 0.02433 0.58049 0.0983 0.0
H924 H 0.04149 0.55878 0.19589 0.0
H925 H 0.03729 0.56894 0.16254 0.0
H926 H 0.99697 0.57396 0.16889 0.0
C927 C 0.99551 0.59411 0.09323 0.0
C928 C 0.01827 0.57905 0.11364 0.0
C929 C 0.99519 0.60337 0.07694 0.0
C930 C 0.03024 0.55636 0.1924 0.0
C931 C 0.0278 0.56218 0.17328 0.0
C932 C 0.00273 0.57495 0.15339 0.0
C933 C 0.00923 0.59574 0.09968 0.0
C934 C 0.00963 0.58586 0.11681 0.0
C935 C 0.01361 0.56025 0.16902 0.0
C936 C 0.01159 0.56833 0.15047 0.0
H937 H 0.03293 0.62488 0.06635 0.0
H938 H 0.03343 0.60866 0.09469 0.0
H939 H 0.99507 0.58878 0.1397 0.0
H940 H 0.99503 0.5399 0.21448 0.0
H941 H 0.99053 0.54949 0.18068 0.0
C942 C 0.39856 0.40996 0.06214 0.0
C943 C 0.40109 0.39927 0.05088 0.0
C944 C 0.40791 0.41904 0.07981 0.0
C945 C 0.43438 0.4208 0.12169 0.0
H946 H 0.44581 0.46342 0.12838 0.0
C947 C 0.47148 0.45928 0.19511 0.0
C948 C 0.46582 0.46741 0.20643 0.0
C949 C 0.46574 0.45243 0.17417 0.0
C950 C 0.44269 0.45153 0.12676 0.0
H951 H 0.41545 0.38973 0.0494 0.0
H952 H 0.43181 0.40565 0.08019 0.0
H953 H 0.43122 0.44817 0.09586 0.0
H954 H 0.45043 0.47559 0.2042 0.0
H955 H 0.44034 0.4636 0.16782 0.0
H956 H 0.4456 0.42406 0.15279 0.0
C957 C 0.4225 0.40691 0.07546 0.0
C958 C 0.43429 0.44278 0.10817 0.0
C959 C 0.41315 0.39782 0.05777 0.0
C960 C 0.45491 0.46927 0.19592 0.0
C961 C 0.44922 0.4625 0.17499 0.0
C962 C 0.44279 0.42955 0.14027 0.0
C963 C 0.42002 0.41766 0.08664 0.0
C964 C 0.42983 0.42724 0.10561 0.0
C965 C 0.45429 0.45368 0.16411 0.0
C966 C 0.44683 0.44495 0.1432 0.0
H967 H 0.38935 0.41135 0.0573 0.0
H968 H 0.40552 0.42702 0.0883 0.0
H969 H 0.43099 0.40882 0.12034 0.0
H970 H 0.47983 0.4576 0.20287 0.0
H971 H 0.47 0.44586 0.16607 0.0
C972 C 0.66728 0.73668 0.40046 0.0
C973 C 0.67718 0.74387 0.38277 0.0
C974 C 0.66702 0.74538 0.41866 0.0
C975 C 0.67974 0.78546 0.43796 0.0
H976 H 0.67668 0.76895 0.49609 0.0
C977 C 0.6809 0.81748 0.52061 0.0
C978 C 0.68909 0.81645 0.53816 0.0
C979 C 0.6782 0.80862 0.50097 0.0
C980 C 0.67763 0.77378 0.47999 0.0
H981 H 0.69446 0.76584 0.37017 0.0
H982 H 0.69435 0.78093 0.40214 0.0
H983 H 0.67432 0.75356 0.46314 0.0
H984 H 0.70166 0.80618 0.54847 0.0
H985 H 0.69722 0.79106 0.51441 0.0
H986 H 0.68377 0.806 0.45505 0.0
C987 C 0.68652 0.76862 0.4018 0.0
C988 C 0.67605 0.76484 0.46103 0.0
C989 C 0.68668 0.75994 0.38353 0.0
C990 C 0.69498 0.8069 0.53544 0.0
C991 C 0.69238 0.79818 0.51592 0.0
C992 C 0.68142 0.79446 0.45699 0.0
C993 C 0.67676 0.76145 0.41968 0.0
C994 C 0.6773 0.77063 0.43976 0.0
C995 C 0.68374 0.7987 0.49857 0.0
C996 C 0.68066 0.78882 0.47824 0.0
H997 H 0.6597 0.72433 0.40026 0.0
H998 H 0.65917 0.73948 0.43194 0.0
H999 H 0.68053 0.79019 0.42183 0.0
H1000 H 0.67628 0.8248 0.52231 0.0
H1001 H 0.6715 0.80928 0.48791 0.0
C1002 C 0.26973 0.92709 0.40417 0.0
C1003 C 0.26875 0.94016 0.4016 0.0
C1004 C 0.26138 0.91657 0.4205 0.0
C1005 C 0.22867 0.90406 0.45795 0.0
H1006 H 0.24895 0.88906 0.4933 0.0
C1007 C 0.22369 0.87968 0.55001 0.0
C1008 C 0.20811 0.86902 0.55128 0.0
C1009 C 0.23033 0.88594 0.52979 0.0
C1010 C 0.24311 0.89311 0.48355 0.0
H1011 H 0.25816 0.95236 0.4141 0.0
H1012 H 0.24381 0.93416 0.44282 0.0
H1013 H 0.26192 0.90517 0.46194 0.0
H1014 H 0.18732 0.85605 0.53227 0.0
H1015 H 0.19899 0.86701 0.49661 0.0
H1016 H 0.21011 0.89254 0.48023 0.0
C1017 C 0.25083 0.9319 0.43197 0.0
C1018 C 0.2505 0.90224 0.46543 0.0
C1019 C 0.25916 0.94241 0.41562 0.0
C1020 C 0.19936 0.86426 0.53172 0.0
C1021 C 0.20602 0.87061 0.5114 0.0
C1022 C 0.22128 0.89492 0.47609 0.0
C1023 C 0.25187 0.91887 0.43465 0.0
C1024 C 0.24348 0.90807 0.45268 0.0
C1025 C 0.22155 0.8817 0.5103 0.0
C1026 C 0.22855 0.88963 0.48938 0.0
H1027 H 0.27694 0.92495 0.39354 0.0
H1028 H 0.26231 0.90657 0.42195 0.0
H1029 H 0.22287 0.90817 0.44825 0.0
H1030 H 0.23073 0.88341 0.5648 0.0
H1031 H 0.24227 0.89456 0.52962 0.0
C1032 C 0.06803 0.34419 0.40775 0.0
C1033 C 0.05697 0.33052 0.39688 0.0
C1034 C 0.07755 0.34393 0.42374 0.0
C1035 C 0.09328 0.32114 0.4417 0.0
H1036 H 0.09902 0.34234 0.49863 0.0
C1037 C 0.11721 0.30867 0.51863 0.0
C1038 C 0.12509 0.32041 0.5348 0.0
C1039 C 0.11106 0.31125 0.49996 0.0
C1040 C 0.09785 0.33662 0.48267 0.0
H1041 H 0.04718 0.30586 0.39435 0.0
H1042 H 0.06383 0.30545 0.42219 0.0
H1043 H 0.08374 0.3442 0.47002 0.0
H1044 H 0.13369 0.34433 0.54341 0.0
H1045 H 0.12343 0.34904 0.51043 0.0
H1046 H 0.10739 0.31356 0.45424 0.0
C1047 C 0.06518 0.31636 0.41824 0.0
C1048 C 0.089 0.33763 0.46632 0.0
C1049 C 0.05556 0.31659 0.40245 0.0
C1050 C 0.12755 0.33506 0.53125 0.0
C1051 C 0.12156 0.33769 0.51246 0.0
C1052 C 0.10226 0.32025 0.45796 0.0
C1053 C 0.0763 0.33003 0.42899 0.0
C1054 C 0.08643 0.32971 0.44581 0.0
C1055 C 0.11279 0.32568 0.49696 0.0
C1056 C 0.10448 0.32779 0.4788 0.0
H1057 H 0.06941 0.35511 0.40382 0.0
H1058 H 0.08606 0.35465 0.43172 0.0
H1059 H 0.09167 0.3151 0.42589 0.0
H1060 H 0.11496 0.29722 0.52111 0.0
H1061 H 0.10426 0.30167 0.48857 0.0
C1062 C 0.07067 0.3257 0.29195 0.0
C1063 C 0.06743 0.33725 0.29628 0.0
C1064 C 0.0803 0.32704 0.27466 0.0
C1065 C 0.09751 0.34843 0.22317 0.0
H1066 H 0.12377 0.33239 0.22936 0.0
C1067 C 0.1414 0.35817 0.15711 0.0
C1068 C 0.14019 0.34463 0.14841 0.0
C1069 C 0.13427 0.35807 0.1769 0.0
C1070 C 0.11648 0.3369 0.22744 0.0
H1071 H 0.07187 0.35936 0.28603 0.0
H1072 H 0.08904 0.36197 0.25634 0.0
H1073 H 0.10758 0.33073 0.26017 0.0
H1074 H 0.13139 0.32062 0.15459 0.0
H1075 H 0.11924 0.32056 0.18953 0.0
H1076 H 0.1066 0.35478 0.19056 0.0
C1077 C 0.08384 0.35164 0.26586 0.0
C1078 C 0.10712 0.33587 0.24501 0.0
C1079 C 0.07404 0.35019 0.28297 0.0
C1080 C 0.13266 0.33127 0.16089 0.0
C1081 C 0.12564 0.33121 0.18085 0.0
C1082 C 0.107 0.34964 0.20578 0.0
C1083 C 0.0871 0.34007 0.26145 0.0
C1084 C 0.09742 0.34152 0.24304 0.0
C1085 C 0.12593 0.34447 0.1886 0.0
C1086 C 0.11652 0.34382 0.20768 0.0
H1087 H 0.06568 0.31554 0.30184 0.0
H1088 H 0.08226 0.31774 0.27152 0.0
H1089 H 0.09 0.35262 0.22078 0.0
H1090 H 0.14738 0.36874 0.14813 0.0
H1091 H 0.13489 0.36852 0.18273 0.0
C1092 C 0.64923 0.73045 0.28043 0.0
C1093 C 0.66207 0.73032 0.28707 0.0
C1094 C 0.65016 0.73998 0.26361 0.0
C1095 C 0.67658 0.77529 0.23503 0.0
H1096 H 0.64607 0.75823 0.18852 0.0
C1097 C 0.68154 0.80693 0.1542 0.0
C1098 C 0.66815 0.80392 0.14396 0.0
C1099 C 0.68098 0.79929 0.17339 0.0
C1100 C 0.65454 0.76331 0.20158 0.0
H1101 H 0.68599 0.74015 0.28134 0.0
H1102 H 0.68761 0.75689 0.25193 0.0
H1103 H 0.6448 0.74197 0.21805 0.0
H1104 H 0.64381 0.79153 0.14641 0.0
H1105 H 0.6428 0.7787 0.18039 0.0
H1106 H 0.68626 0.79669 0.21866 0.0
C1107 C 0.67684 0.74961 0.25983 0.0
C1108 C 0.65384 0.75393 0.21845 0.0
C1109 C 0.67588 0.73994 0.27652 0.0
C1110 C 0.65428 0.79396 0.15399 0.0
C1111 C 0.65372 0.7865 0.1733 0.0
C1112 C 0.67721 0.78475 0.21823 0.0
C1113 C 0.66398 0.74971 0.2532 0.0
C1114 C 0.66486 0.75979 0.23533 0.0
C1115 C 0.66702 0.78861 0.18278 0.0
C1116 C 0.66619 0.77887 0.20127 0.0
H1117 H 0.63843 0.7232 0.28825 0.0
H1118 H 0.64009 0.73991 0.25898 0.0
H1119 H 0.68515 0.78016 0.24798 0.0
H1120 H 0.69236 0.81445 0.14659 0.0
H1121 H 0.69145 0.80115 0.1801 0.0
C1122 C 0.24822 0.9259 0.29706 0.0
C1123 C 0.2639 0.9364 0.29695 0.0
C1124 C 0.24066 0.91749 0.27775 0.0
C1125 C 0.24416 0.91736 0.21682 0.0
H1126 H 0.21639 0.87335 0.21981 0.0
C1127 C 0.22726 0.87808 0.13929 0.0
C1128 C 0.21218 0.86601 0.13655 0.0
C1129 C 0.23223 0.88658 0.15922 0.0
C1130 C 0.22392 0.88566 0.21874 0.0
H1131 H 0.2839 0.94648 0.2764 0.0
H1132 H 0.27071 0.93184 0.24276 0.0
H1133 H 0.22757 0.88871 0.25397 0.0
H1134 H 0.19055 0.8531 0.15281 0.0
H1135 H 0.19928 0.86808 0.18797 0.0
H1136 H 0.24068 0.91437 0.18167 0.0
C1137 C 0.26425 0.93016 0.25774 0.0
C1138 C 0.23033 0.89445 0.2383 0.0
C1139 C 0.27182 0.93849 0.27705 0.0
C1140 C 0.20223 0.86236 0.15447 0.0
C1141 C 0.20723 0.87092 0.17455 0.0
C1142 C 0.23773 0.90861 0.19734 0.0
C1143 C 0.24861 0.9195 0.2579 0.0
C1144 C 0.24076 0.91035 0.23747 0.0
C1145 C 0.22226 0.88324 0.17702 0.0
C1146 C 0.22779 0.89261 0.19801 0.0
H1147 H 0.24179 0.92402 0.31213 0.0
H1148 H 0.22859 0.90945 0.27833 0.0
H1149 H 0.25192 0.92963 0.2157 0.0
H1150 H 0.23533 0.88091 0.12602 0.0
H1151 H 0.24397 0.89569 0.16076 0.0
C1152 C 0.65864 0.93304 0.28217 0.0
C1153 C 0.67128 0.94231 0.2959 0.0
C1154 C 0.65924 0.92371 0.26527 0.0
C1155 C 0.68529 0.91937 0.22902 0.0
H1156 H 0.65153 0.87752 0.22079 0.0
C1157 C 0.68468 0.87982 0.15817 0.0
C1158 C 0.67113 0.87173 0.14592 0.0
C1159 C 0.68521 0.88695 0.17864 0.0
C1160 C 0.66101 0.8892 0.22278 0.0
H1161 H 0.69453 0.94928 0.30239 0.0
H1162 H 0.69559 0.93307 0.27263 0.0
H1163 H 0.65153 0.89346 0.2518 0.0
H1164 H 0.64732 0.86391 0.14617 0.0
H1165 H 0.64828 0.87658 0.18149 0.0
H1166 H 0.69456 0.91535 0.19963 0.0
C1167 C 0.68523 0.93301 0.27505 0.0
C1168 C 0.66101 0.89832 0.24054 0.0
C1169 C 0.6846 0.94226 0.29211 0.0
C1170 C 0.65797 0.87024 0.1551 0.0
C1171 C 0.6585 0.87738 0.17548 0.0
C1172 C 0.68525 0.91029 0.21115 0.0
C1173 C 0.67251 0.92354 0.26159 0.0
C1174 C 0.67303 0.91357 0.24363 0.0
C1175 C 0.6722 0.88612 0.18728 0.0
C1176 C 0.67299 0.89517 0.20761 0.0
H1177 H 0.6482 0.93281 0.28465 0.0
H1178 H 0.64932 0.91669 0.25493 0.0
H1179 H 0.69466 0.93113 0.23091 0.0
H1180 H 0.69503 0.88123 0.15149 0.0
H1181 H 0.69589 0.8934 0.18747 0.0
C1182 C 0.06333 0.73778 0.27362 0.0
C1183 C 0.06504 0.7269 0.28472 0.0
C1184 C 0.07343 0.74651 0.25699 0.0
C1185 C 0.10242 0.74757 0.21916 0.0
H1186 H 0.11404 0.79 0.21286 0.0
C1187 C 0.14772 0.78629 0.1569 0.0
C1188 C 0.143 0.79337 0.14221 0.0
C1189 C 0.13956 0.77976 0.17621 0.0
C1190 C 0.11088 0.77816 0.21445 0.0
H1191 H 0.07875 0.71674 0.28717 0.0
H1192 H 0.09652 0.73218 0.25872 0.0
H1193 H 0.09673 0.77499 0.24234 0.0
H1194 H 0.12672 0.80009 0.1368 0.0
H1195 H 0.11258 0.78887 0.17072 0.0
H1196 H 0.11666 0.75081 0.19138 0.0
C1197 C 0.08719 0.73375 0.26238 0.0
C1198 C 0.10088 0.76951 0.23122 0.0
C1199 C 0.07702 0.72491 0.27879 0.0
C1200 C 0.13057 0.79467 0.14787 0.0
C1201 C 0.12252 0.7883 0.16729 0.0
C1202 C 0.11252 0.75626 0.20259 0.0
C1203 C 0.08556 0.74468 0.25125 0.0
C1204 C 0.09643 0.75405 0.23369 0.0
C1205 C 0.12665 0.78035 0.18128 0.0
C1206 C 0.11678 0.77161 0.19996 0.0
H1207 H 0.05419 0.73955 0.27776 0.0
H1208 H 0.07163 0.75461 0.24853 0.0
H1209 H 0.09905 0.73564 0.22021 0.0
H1210 H 0.15718 0.78502 0.15284 0.0
H1211 H 0.14308 0.77383 0.18683 0.0
C1212 C 0.26138 0.32647 0.28323 0.0
C1213 C 0.27423 0.32611 0.2768 0.0
C1214 C 0.25214 0.32726 0.26735 0.0
C1215 C 0.2529 0.33921 0.21009 0.0
H1216 H 0.20932 0.31661 0.2157 0.0
C1217 C 0.21674 0.3504 0.15208 0.0
C1218 C 0.20407 0.33738 0.14245 0.0
C1219 C 0.22416 0.34903 0.17019 0.0
C1220 C 0.22147 0.32295 0.21387 0.0
H1221 H 0.28725 0.32597 0.24855 0.0
H1222 H 0.27102 0.32721 0.2208 0.0
H1223 H 0.22463 0.3134 0.24296 0.0
H1224 H 0.18874 0.31283 0.14494 0.0
H1225 H 0.20176 0.31038 0.17663 0.0
H1226 H 0.2498 0.3485 0.1808 0.0
C1227 C 0.26823 0.3271 0.23818 0.0
C1228 C 0.23025 0.32121 0.22958 0.0
C1229 C 0.27748 0.32631 0.25408 0.0
C1230 C 0.1984 0.32308 0.15217 0.0
C1231 C 0.20589 0.32169 0.17028 0.0
C1232 C 0.24415 0.34095 0.19444 0.0
C1233 C 0.25552 0.32773 0.24465 0.0
C1234 C 0.24608 0.32932 0.22784 0.0
C1235 C 0.21915 0.33459 0.17902 0.0
C1236 C 0.22833 0.33288 0.19615 0.0
H1237 H 0.25854 0.32635 0.3006 0.0
H1238 H 0.24255 0.3279 0.27292 0.0
H1239 H 0.26506 0.34577 0.20839 0.0
H1240 H 0.22123 0.36159 0.14504 0.0
H1241 H 0.23411 0.35925 0.17688 0.0
C1242 C 0.26084 0.32109 0.39975 0.0
C1243 C 0.27426 0.33536 0.39727 0.0
C1244 C 0.25032 0.31932 0.41581 0.0
C1245 C 0.2388 0.34156 0.45175 0.0
H1246 H 0.21766 0.30375 0.4839 0.0
C1247 C 0.20538 0.33375 0.53279 0.0
C1248 C 0.19201 0.3195 0.53571 0.0
C1249 C 0.21427 0.33617 0.51401 0.0
C1250 C 0.2233 0.31429 0.47483 0.0
H1251 H 0.28725 0.35892 0.40998 0.0
H1252 H 0.26907 0.35572 0.43843 0.0
H1253 H 0.23596 0.30695 0.45581 0.0
H1254 H 0.1771 0.29688 0.52078 0.0
H1255 H 0.19256 0.30115 0.48788 0.0
H1256 H 0.22634 0.349 0.47136 0.0
C1257 C 0.26651 0.34598 0.42761 0.0
C1258 C 0.23381 0.31613 0.45871 0.0
C1259 C 0.27701 0.34778 0.41142 0.0
C1260 C 0.18727 0.30802 0.5189 0.0
C1261 C 0.19621 0.3104 0.5002 0.0
C1262 C 0.22834 0.33975 0.46802 0.0
C1263 C 0.25299 0.33174 0.42992 0.0
C1264 C 0.24173 0.3298 0.44699 0.0
C1265 C 0.21001 0.32434 0.49788 0.0
C1266 C 0.2205 0.32609 0.47974 0.0
H1267 H 0.25831 0.31131 0.38902 0.0
H1268 H 0.23994 0.30826 0.41687 0.0
H1269 H 0.24449 0.35214 0.44279 0.0
H1270 H 0.20925 0.34282 0.54545 0.0
H1271 H 0.22486 0.34701 0.51273 0.0
C1272 C 0.65581 0.9303 0.40215 0.0
C1273 C 0.65906 0.94525 0.40741 0.0
C1274 C 0.65664 0.92135 0.41846 0.0
C1275 C 0.65702 0.91797 0.47937 0.0
H1276 H 0.67802 0.89657 0.46618 0.0
C1277 C 0.68238 0.90105 0.54772 0.0
C1278 C 0.68037 0.88634 0.54692 0.0
C1279 C 0.67819 0.90632 0.52984 0.0
C1280 C 0.6719 0.90226 0.47 0.0
H1281 H 0.66554 0.96241 0.43401 0.0
H1282 H 0.66708 0.94686 0.4624 0.0
H1283 H 0.67341 0.90948 0.43657 0.0
H1284 H 0.67298 0.86586 0.52622 0.0
H1285 H 0.66575 0.87526 0.49446 0.0
H1286 H 0.65586 0.91113 0.51286 0.0
C1287 C 0.66372 0.94198 0.44571 0.0
C1288 C 0.66927 0.90967 0.45307 0.0
C1289 C 0.66293 0.95094 0.4294 0.0
C1290 C 0.67457 0.87721 0.52735 0.0
C1291 C 0.67043 0.88257 0.50924 0.0
C1292 C 0.65967 0.91061 0.49623 0.0
C1293 C 0.66068 0.92712 0.44042 0.0
C1294 C 0.66212 0.91792 0.45772 0.0
C1295 C 0.672 0.89711 0.5105 0.0
C1296 C 0.66747 0.90302 0.49186 0.0
H1297 H 0.65277 0.92555 0.38535 0.0
H1298 H 0.65409 0.90989 0.41391 0.0
H1299 H 0.65117 0.92391 0.48339 0.0
H1300 H 0.68731 0.90863 0.56221 0.0
H1301 H 0.67996 0.91774 0.53108 0.0
C1302 C 0.08625 0.74444 0.38818 0.0
C1303 C 0.07136 0.74098 0.38564 0.0
C1304 C 0.09516 0.75363 0.40611 0.0
C1305 C 0.09966 0.78294 0.44738 0.0
H1306 H 0.12007 0.768 0.48251 0.0
C1307 C 0.12297 0.80696 0.53544 0.0
C1308 C 0.13536 0.80643 0.54333 0.0
C1309 C 0.1169 0.80098 0.51433 0.0
C1310 C 0.11475 0.77257 0.47265 0.0
H1311 H 0.05421 0.74467 0.39976 0.0
H1312 H 0.06987 0.76088 0.43104 0.0
H1313 H 0.10593 0.75347 0.44943 0.0
H1314 H 0.15169 0.80007 0.53451 0.0
H1315 H 0.14156 0.79032 0.49733 0.0
H1316 H 0.10851 0.80209 0.47047 0.0
C1317 C 0.07461 0.75645 0.4191 0.0
C1318 C 0.10656 0.76416 0.45375 0.0
C1319 C 0.06562 0.74708 0.40129 0.0
C1320 C 0.14218 0.80074 0.52899 0.0
C1321 C 0.1362 0.79491 0.50776 0.0
C1322 C 0.10801 0.79147 0.46615 0.0
C1323 C 0.08944 0.75973 0.42175 0.0
C1324 C 0.09876 0.76914 0.4411 0.0
C1325 C 0.12318 0.79448 0.50044 0.0
C1326 C 0.11549 0.78628 0.47924 0.0
H1327 H 0.09102 0.73992 0.37641 0.0
H1328 H 0.10658 0.75606 0.40768 0.0
H1329 H 0.09391 0.78715 0.43773 0.0
H1330 H 0.11759 0.81151 0.54591 0.0
H1331 H 0.10683 0.80081 0.50941 0.0
C1332 C 0.34893 0.07741 0.73154 0.0
C1333 C 0.33466 0.06499 0.72509 0.0
C1334 C 0.35034 0.08773 0.7485 0.0
C1335 C 0.32819 0.10076 0.78109 0.0
H1336 H 0.36282 0.11805 0.82077 0.0
C1337 C 0.33358 0.132 0.86593 0.0
C1338 C 0.34762 0.14531 0.87092 0.0
C1339 C 0.33158 0.12331 0.84644 0.0
C1340 C 0.35318 0.11345 0.80964 0.0
H1341 H 0.31067 0.05348 0.7316 0.0
H1342 H 0.31315 0.07112 0.76181 0.0
H1343 H 0.36009 0.1001 0.79102 0.0
H1344 H 0.3704 0.16027 0.85915 0.0
H1345 H 0.36692 0.14502 0.82514 0.0
H1346 H 0.32108 0.11378 0.80052 0.0
C1347 C 0.32325 0.0732 0.75334 0.0
C1348 C 0.35162 0.10318 0.79253 0.0
C1349 C 0.32183 0.06299 0.73614 0.0
C1350 C 0.35942 0.15014 0.85561 0.0
C1351 C 0.35748 0.14135 0.83628 0.0
C1352 C 0.32967 0.11089 0.79845 0.0
C1353 C 0.33753 0.08576 0.75969 0.0
C1354 C 0.33912 0.0967 0.77797 0.0
C1355 C 0.34365 0.12767 0.83178 0.0
C1356 C 0.34221 0.11736 0.81284 0.0
H1357 H 0.35904 0.07937 0.72319 0.0
H1358 H 0.3615 0.0974 0.75257 0.0
H1359 H 0.31855 0.09623 0.77001 0.0
H1360 H 0.32431 0.12805 0.87747 0.0
H1361 H 0.32082 0.11278 0.8434 0.0
C1362 C 0.93873 0.25206 0.73612 0.0
C1363 C 0.94036 0.266 0.73 0.0
C1364 C 0.92942 0.24394 0.7538 0.0
C1365 C 0.9114 0.24908 0.80384 0.0
H1366 H 0.88685 0.20457 0.80091 0.0
C1367 C 0.86903 0.21593 0.87217 0.0
C1368 C 0.86988 0.20384 0.88096 0.0
C1369 C 0.87611 0.22238 0.85223 0.0
C1370 C 0.8937 0.21699 0.80197 0.0
H1371 H 0.93336 0.28224 0.73746 0.0
H1372 H 0.91698 0.26799 0.76798 0.0
H1373 H 0.90257 0.21835 0.76933 0.0
H1374 H 0.87817 0.18851 0.87511 0.0
H1375 H 0.89047 0.19973 0.84009 0.0
H1376 H 0.90256 0.24776 0.83642 0.0
C1377 C 0.9231 0.26346 0.75945 0.0
C1378 C 0.90274 0.2249 0.78394 0.0
C1379 C 0.93246 0.27161 0.74187 0.0
C1380 C 0.87719 0.19772 0.86867 0.0
C1381 C 0.88427 0.20417 0.84865 0.0
C1382 C 0.90231 0.24121 0.82176 0.0
C1383 C 0.92149 0.24954 0.76568 0.0
C1384 C 0.91173 0.24105 0.78468 0.0
C1385 C 0.88419 0.21687 0.84058 0.0
C1386 C 0.89337 0.22508 0.82105 0.0
H1387 H 0.94469 0.24744 0.72733 0.0
H1388 H 0.92862 0.23339 0.75835 0.0
H1389 H 0.91839 0.26149 0.80519 0.0
H1390 H 0.86325 0.22071 0.88109 0.0
H1391 H 0.87559 0.23195 0.84618 0.0
C1392 C 0.73463 0.68106 0.73897 0.0
C1393 C 0.72344 0.66735 0.72832 0.0
C1394 C 0.744 0.6808 0.75521 0.0
C1395 C 0.75927 0.65782 0.774 0.0
H1396 H 0.76536 0.67961 0.8305 0.0
C1397 C 0.78382 0.64612 0.85096 0.0
C1398 C 0.79193 0.65805 0.86678 0.0
C1399 C 0.77738 0.64846 0.83242 0.0
C1400 C 0.76408 0.67371 0.81466 0.0
H1401 H 0.71327 0.64262 0.72649 0.0
H1402 H 0.72969 0.64222 0.75473 0.0
H1403 H 0.75008 0.68135 0.80175 0.0
H1404 H 0.80054 0.68203 0.87495 0.0
H1405 H 0.78976 0.68632 0.84218 0.0
H1406 H 0.77331 0.65023 0.78675 0.0
C1407 C 0.73123 0.65315 0.75043 0.0
C1408 C 0.75523 0.67466 0.79824 0.0
C1409 C 0.72175 0.65338 0.7344 0.0
C1410 C 0.79423 0.67261 0.86305 0.0
C1411 C 0.78794 0.675 0.84439 0.0
C1412 C 0.76826 0.65701 0.79032 0.0
C1413 C 0.74249 0.66686 0.76093 0.0
C1414 C 0.75256 0.66654 0.77787 0.0
C1415 C 0.77903 0.66283 0.82919 0.0
C1416 C 0.7706 0.66476 0.81101 0.0
H1417 H 0.73621 0.69201 0.73465 0.0
H1418 H 0.75262 0.69155 0.763 0.0
H1419 H 0.75757 0.65164 0.7583 0.0
H1420 H 0.78169 0.63472 0.85358 0.0
H1421 H 0.77046 0.63875 0.82128 0.0
C1422 C 0.74048 0.68425 0.61278 0.0
C1423 C 0.73432 0.67213 0.62762 0.0
C1424 C 0.74986 0.68479 0.59558 0.0
C1425 C 0.75828 0.66047 0.56055 0.0
H1426 H 0.79626 0.69814 0.54976 0.0
C1427 C 0.79699 0.66285 0.48999 0.0
C1428 C 0.80341 0.67595 0.47698 0.0
C1429 C 0.79031 0.66263 0.51034 0.0
C1430 C 0.78563 0.68756 0.55239 0.0
H1431 H 0.733 0.65097 0.6359 0.0
H1432 H 0.74914 0.65179 0.60561 0.0
H1433 H 0.78051 0.69725 0.58069 0.0
H1434 H 0.80879 0.69948 0.476 0.0
H1435 H 0.79664 0.69891 0.51087 0.0
H1436 H 0.76296 0.65088 0.53187 0.0
C1437 C 0.74678 0.6609 0.60739 0.0
C1438 C 0.77664 0.68707 0.57014 0.0
C1439 C 0.73758 0.66047 0.62476 0.0
C1440 C 0.80371 0.6891 0.48541 0.0
C1441 C 0.79689 0.68882 0.5056 0.0
C1442 C 0.76716 0.66101 0.54264 0.0
C1443 C 0.75308 0.67311 0.59271 0.0
C1444 C 0.76283 0.67354 0.5743 0.0
C1445 C 0.78975 0.67545 0.51808 0.0
C1446 C 0.78091 0.6746 0.53819 0.0
H1447 H 0.7382 0.69342 0.61459 0.0
H1448 H 0.75446 0.69425 0.58435 0.0
H1449 H 0.74761 0.64993 0.56327 0.0
H1450 H 0.79648 0.65248 0.484 0.0
H1451 H 0.78522 0.65224 0.51972 0.0
C1452 C 0.35331 0.07892 0.61504 0.0
C1453 C 0.33865 0.06712 0.62046 0.0
C1454 C 0.35556 0.08956 0.59912 0.0
C1455 C 0.33545 0.10466 0.56807 0.0
H1456 H 0.36824 0.11711 0.52649 0.0
C1457 C 0.35071 0.12759 0.47409 0.0
C1458 C 0.34614 0.13831 0.47434 0.0
C1459 C 0.35195 0.12153 0.49377 0.0
C1460 C 0.35901 0.11375 0.53795 0.0
H1461 H 0.31485 0.05718 0.61331 0.0
H1462 H 0.31876 0.07539 0.5851 0.0
H1463 H 0.36548 0.10075 0.55682 0.0
H1464 H 0.34008 0.15174 0.49551 0.0
H1465 H 0.34248 0.14128 0.53023 0.0
H1466 H 0.32848 0.11695 0.5484 0.0
C1467 C 0.32854 0.07672 0.59353 0.0
C1468 C 0.35753 0.10449 0.55554 0.0
C1469 C 0.32629 0.06617 0.60957 0.0
C1470 C 0.3436 0.14347 0.49485 0.0
C1471 C 0.34484 0.13737 0.51467 0.0
C1472 C 0.33687 0.11383 0.55037 0.0
C1473 C 0.3432 0.08859 0.58812 0.0
C1474 C 0.34554 0.09955 0.57057 0.0
C1475 C 0.34874 0.12609 0.51429 0.0
C1476 C 0.34847 0.1182 0.53479 0.0
H1477 H 0.36307 0.08006 0.62327 0.0
H1478 H 0.36699 0.09865 0.59562 0.0
H1479 H 0.32626 0.10135 0.57958 0.0
H1480 H 0.35298 0.12357 0.45854 0.0
H1481 H 0.35481 0.11276 0.49272 0.0
C1482 C 0.91507 0.25509 0.63198 0.0
C1483 C 0.93084 0.26507 0.6325 0.0
C1484 C 0.90799 0.24476 0.614 0.0
C1485 C 0.91584 0.22577 0.567 0.0
H1486 H 0.87942 0.22069 0.54119 0.0
C1487 C 0.89661 0.20311 0.47784 0.0
C1488 C 0.88116 0.19306 0.47333 0.0
C1489 C 0.90155 0.20982 0.49896 0.0
C1490 C 0.88943 0.22178 0.54845 0.0
H1491 H 0.95152 0.2721 0.61444 0.0
H1492 H 0.93917 0.2543 0.58305 0.0
H1493 H 0.89026 0.23674 0.57485 0.0
H1494 H 0.85877 0.18182 0.48744 0.0
H1495 H 0.86744 0.19374 0.52467 0.0
H1496 H 0.91525 0.21117 0.54025 0.0
C1497 C 0.93228 0.25424 0.59669 0.0
C1498 C 0.89566 0.23098 0.56771 0.0
C1499 C 0.93935 0.26454 0.61463 0.0
C1500 C 0.87074 0.18954 0.49054 0.0
C1501 C 0.87568 0.19641 0.51173 0.0
C1502 C 0.90965 0.21663 0.54774 0.0
C1503 C 0.91652 0.24418 0.59619 0.0
C1504 C 0.90912 0.23334 0.57693 0.0
C1505 C 0.89115 0.2067 0.51608 0.0
C1506 C 0.89657 0.2148 0.53799 0.0
H1507 H 0.90819 0.25518 0.64552 0.0
H1508 H 0.89584 0.23709 0.6142 0.0
H1509 H 0.92601 0.22705 0.57397 0.0
H1510 H 0.9049 0.20588 0.46493 0.0
H1511 H 0.91351 0.21782 0.50172 0.0
C1512 C 0.30852 0.25219 0.61816 0.0
C1513 C 0.32102 0.26589 0.62663 0.0
C1514 C 0.31036 0.24341 0.60164 0.0
C1515 C 0.33728 0.24591 0.55865 0.0
H1516 H 0.31199 0.20145 0.55808 0.0
C1517 C 0.34447 0.20851 0.49251 0.0
C1518 C 0.33107 0.19818 0.48091 0.0
C1519 C 0.34396 0.21548 0.51258 0.0
C1520 C 0.31914 0.21386 0.55807 0.0
H1521 H 0.34531 0.28106 0.62459 0.0
H1522 H 0.3486 0.26559 0.59619 0.0
H1523 H 0.30979 0.21659 0.58839 0.0
H1524 H 0.30667 0.18622 0.48185 0.0
H1525 H 0.30577 0.19825 0.51707 0.0
H1526 H 0.34661 0.24313 0.52832 0.0
C1527 C 0.33729 0.26177 0.6019 0.0
C1528 C 0.31782 0.22255 0.57533 0.0
C1529 C 0.33542 0.27063 0.61825 0.0
C1530 C 0.31715 0.19418 0.49047 0.0
C1531 C 0.31664 0.20101 0.51064 0.0
C1532 C 0.3387 0.23721 0.54154 0.0
C1533 C 0.32479 0.24804 0.59336 0.0
C1534 C 0.32673 0.23871 0.57567 0.0
C1535 C 0.33006 0.21211 0.52152 0.0
C1536 C 0.32951 0.22111 0.54091 0.0
H1537 H 0.29726 0.24827 0.62421 0.0
H1538 H 0.30043 0.23308 0.59518 0.0
H1539 H 0.34416 0.25831 0.55811 0.0
H1540 H 0.35535 0.21189 0.48542 0.0
H1541 H 0.35447 0.22388 0.52075 0.0
C1542 C 0.74899 0.06133 0.6137 0.0
C1543 C 0.73668 0.06269 0.61986 0.0
C1544 C 0.75873 0.07023 0.59692 0.0
C1545 C 0.77062 0.10514 0.56472 0.0
H1546 H 0.78546 0.08615 0.52364 0.0
C1547 C 0.79781 0.12972 0.47978 0.0
C1548 C 0.80983 0.12806 0.47283 0.0
C1549 C 0.79039 0.12353 0.49969 0.0
C1550 C 0.78161 0.0917 0.53518 0.0
H1551 H 0.72488 0.07444 0.61314 0.0
H1552 H 0.74164 0.0897 0.58341 0.0
H1553 H 0.76906 0.07139 0.5538 0.0
H1554 H 0.82396 0.11925 0.48178 0.0
H1555 H 0.8111 0.10857 0.51666 0.0
H1556 H 0.78291 0.12534 0.54551 0.0
C1557 C 0.74398 0.08198 0.59188 0.0
C1558 C 0.77219 0.08324 0.5525 0.0
C1559 C 0.73429 0.07314 0.60882 0.0
C1560 C 0.81482 0.12082 0.48677 0.0
C1561 C 0.80734 0.11455 0.50661 0.0
C1562 C 0.77998 0.11359 0.54725 0.0
C1563 C 0.75632 0.08063 0.58572 0.0
C1564 C 0.76654 0.08982 0.56748 0.0
C1565 C 0.79478 0.11546 0.51296 0.0
C1566 C 0.78555 0.10694 0.53228 0.0
H1567 H 0.75124 0.05349 0.62201 0.0
H1568 H 0.76825 0.06906 0.59291 0.0
H1569 H 0.76668 0.11065 0.57614 0.0
H1570 H 0.79379 0.13532 0.4694 0.0
H1571 H 0.78072 0.12436 0.50409 0.0
C1572 C 0.94085 0.68735 0.61147 0.0
C1573 C 0.9395 0.67365 0.61818 0.0
C1574 C 0.93176 0.68713 0.5944 0.0
C1575 C 0.89576 0.66241 0.5651 0.0
H1576 H 0.91432 0.69219 0.51894 0.0
C1577 C 0.86453 0.65965 0.48411 0.0
C1578 C 0.86872 0.67355 0.47419 0.0
C1579 C 0.87206 0.65958 0.5032 0.0
C1580 C 0.90886 0.68397 0.53189 0.0
H1581 H 0.92751 0.64897 0.61227 0.0
H1582 H 0.91152 0.64862 0.58243 0.0
H1583 H 0.92987 0.69211 0.54871 0.0
H1584 H 0.88321 0.69828 0.47709 0.0
H1585 H 0.89593 0.69827 0.51088 0.0
H1586 H 0.8747 0.65436 0.5484 0.0
C1587 C 0.91963 0.6595 0.59047 0.0
C1588 C 0.91782 0.68388 0.5489 0.0
C1589 C 0.92885 0.65972 0.60742 0.0
C1590 C 0.87987 0.68741 0.48441 0.0
C1591 C 0.88724 0.68737 0.50361 0.0
C1592 C 0.88673 0.66258 0.54816 0.0
C1593 C 0.921 0.67321 0.58378 0.0
C1594 C 0.91138 0.67311 0.56567 0.0
C1595 C 0.88382 0.67343 0.51281 0.0
C1596 C 0.89318 0.67339 0.53134 0.0
H1597 H 0.94893 0.69827 0.61943 0.0
H1598 H 0.93299 0.69787 0.58972 0.0
H1599 H 0.89047 0.65407 0.57797 0.0
H1600 H 0.85607 0.6488 0.47637 0.0
H1601 H 0.86917 0.64862 0.5097 0.0
C1602 C 0.94271 0.68566 0.73837 0.0
C1603 C 0.9393 0.67336 0.72352 0.0
C1604 C 0.93223 0.68426 0.75433 0.0
C1605 C 0.8984 0.65483 0.78379 0.0
H1606 H 0.89392 0.68917 0.80046 0.0
C1607 C 0.8539 0.64782 0.84698 0.0
C1608 C 0.85948 0.6588 0.86459 0.0
C1609 C 0.86234 0.65034 0.82768 0.0
C1610 C 0.89508 0.6795 0.79597 0.0
H1611 H 0.92209 0.65004 0.7135 0.0
H1612 H 0.90378 0.64771 0.74092 0.0
H1613 H 0.9115 0.69199 0.77107 0.0
H1614 H 0.87769 0.68148 0.87513 0.0
H1615 H 0.89247 0.68588 0.84141 0.0
H1616 H 0.88207 0.64236 0.80871 0.0
C1617 C 0.91465 0.65834 0.74064 0.0
C1618 C 0.90519 0.68112 0.77923 0.0
C1619 C 0.92515 0.65969 0.72482 0.0
C1620 C 0.87318 0.67278 0.86187 0.0
C1621 C 0.88159 0.67533 0.84252 0.0
C1622 C 0.88824 0.65318 0.80038 0.0
C1623 C 0.91808 0.67056 0.7557 0.0
C1624 C 0.90705 0.66883 0.77304 0.0
C1625 C 0.8765 0.66391 0.82555 0.0
C1626 C 0.88653 0.66551 0.80677 0.0
H1627 H 0.95353 0.69633 0.73782 0.0
H1628 H 0.93534 0.69382 0.76586 0.0
H1629 H 0.89973 0.64521 0.77981 0.0
H1630 H 0.84345 0.63689 0.84863 0.0
H1631 H 0.85804 0.64142 0.81473 0.0
C1632 C 0.34839 0.2711 0.72605 0.0
C1633 C 0.33647 0.27365 0.72334 0.0
C1634 C 0.34795 0.26175 0.74278 0.0
C1635 C 0.3301 0.24617 0.79658 0.0
H1636 H 0.3463 0.21988 0.7868 0.0
C1637 C 0.33024 0.20934 0.86619 0.0
C1638 C 0.34427 0.21085 0.87006 0.0
C1639 C 0.32752 0.21439 0.84653 0.0
C1640 C 0.34176 0.22719 0.78977 0.0
H1641 H 0.31465 0.26818 0.73591 0.0
H1642 H 0.3138 0.25169 0.76497 0.0
H1643 H 0.34495 0.23407 0.75599 0.0
H1644 H 0.36613 0.21806 0.85578 0.0
H1645 H 0.36135 0.22677 0.82139 0.0
H1646 H 0.3271 0.23948 0.83039 0.0
C1647 C 0.32359 0.25712 0.75436 0.0
C1648 C 0.34103 0.23536 0.77216 0.0
C1649 C 0.32406 0.26654 0.73766 0.0
C1650 C 0.35515 0.21658 0.85322 0.0
C1651 C 0.35242 0.22161 0.83351 0.0
C1652 C 0.33078 0.23797 0.81413 0.0
C1653 C 0.33556 0.25465 0.75717 0.0
C1654 C 0.33539 0.24512 0.77544 0.0
C1655 C 0.33875 0.22102 0.83027 0.0
C1656 C 0.33679 0.22854 0.81101 0.0
H1657 H 0.35814 0.27643 0.71534 0.0
H1658 H 0.35748 0.26032 0.7447 0.0
H1659 H 0.32591 0.25376 0.7998 0.0
H1660 H 0.32155 0.20475 0.87874 0.0
H1661 H 0.31677 0.21352 0.84432 0.0
C1662 C 0.75134 0.06674 0.73046 0.0
C1663 C 0.73811 0.06641 0.72469 0.0
C1664 C 0.76034 0.07601 0.7483 0.0
C1665 C 0.7686 0.10985 0.78355 0.0
H1666 H 0.78415 0.09315 0.82503 0.0
C1667 C 0.79109 0.13662 0.87087 0.0
C1668 C 0.80313 0.13591 0.87981 0.0
C1669 C 0.78482 0.12964 0.85025 0.0
C1670 C 0.78014 0.0981 0.8134 0.0
H1671 H 0.72394 0.07555 0.7332 0.0
H1672 H 0.73956 0.09159 0.76445 0.0
H1673 H 0.76969 0.0777 0.79265 0.0
H1674 H 0.81845 0.12786 0.87368 0.0
H1675 H 0.8077 0.11591 0.8374 0.0
H1676 H 0.77889 0.13018 0.80449 0.0
C1677 C 0.74308 0.08483 0.75499 0.0
C1678 C 0.77181 0.08922 0.79486 0.0
C1679 C 0.73407 0.07554 0.73718 0.0
C1680 C 0.80924 0.12869 0.86718 0.0
C1681 C 0.80296 0.12169 0.84653 0.0
C1682 C 0.77695 0.11874 0.80208 0.0
C1683 C 0.75633 0.08519 0.76074 0.0
C1684 C 0.76579 0.09492 0.77986 0.0
C1685 C 0.79046 0.12178 0.83806 0.0
C1686 C 0.78267 0.1129 0.81737 0.0
H1687 H 0.75481 0.05988 0.72114 0.0
H1688 H 0.77055 0.07613 0.75217 0.0
H1689 H 0.76434 0.11467 0.77209 0.0
H1690 H 0.78623 0.14223 0.88013 0.0
H1691 H 0.77514 0.12984 0.84431 0.0
C1692 C 0.06781 0.39693 0.01943 0.0
C1693 C 0.05313 0.38465 0.0144 0.0
C1694 C 0.07955 0.3943 0.02261 0.0
C1695 C 0.09119 0.366 0.01307 0.0
H1696 H 0.11525 0.38516 0.06636 0.0
C1697 C 0.12561 0.34421 0.05621 0.0
C1698 C 0.13816 0.35467 0.06924 0.0
C1699 C 0.11724 0.34912 0.04498 0.0
C1700 C 0.10894 0.37997 0.0511 0.0
H1701 H 0.03939 0.36003 0.00798 0.0
H1702 H 0.0599 0.35545 0.01361 0.0
H1703 H 0.09669 0.39132 0.05553 0.0
H1704 H 0.15262 0.37856 0.0794 0.0
H1705 H 0.13855 0.38735 0.05894 0.0
H1706 H 0.10336 0.35448 0.00883 0.0
C1707 C 0.06233 0.36713 0.01498 0.0
C1708 C 0.09822 0.38347 0.04495 0.0
C1709 C 0.05056 0.36974 0.01192 0.0
C1710 C 0.14298 0.3703 0.06938 0.0
C1711 C 0.13478 0.37526 0.05791 0.0
C1712 C 0.10204 0.36256 0.01914 0.0
C1713 C 0.07691 0.37934 0.02071 0.0
C1714 C 0.08907 0.37639 0.02605 0.0
C1715 C 0.12138 0.36463 0.04647 0.0
C1716 C 0.11093 0.36935 0.03842 0.0
H1717 H 0.07021 0.40857 0.02134 0.0
H1718 H 0.0907 0.40397 0.02676 0.0
H1719 H 0.08442 0.36047 -0.00173 0.0
H1720 H 0.12156 0.33205 0.05616 0.0
H1721 H 0.10696 0.34056 0.03649 0.0
C1722 C 0.62728 0.67644 0.0187 0.0
C1723 C 0.63981 0.67671 0.00922 0.0
C1724 C 0.62707 0.68994 0.02135 0.0
C1725 C 0.64659 0.73095 0.00537 0.0
H1726 H 0.63277 0.73619 0.06304 0.0
C1727 C 0.66573 0.78949 0.04922 0.0
C1728 C 0.6559 0.79031 0.06454 0.0
C1729 C 0.66124 0.77578 0.03726 0.0
C1730 C 0.63636 0.73486 0.04663 0.0
H1731 H 0.66173 0.6913 0.99439 0.0
H1732 H 0.66154 0.71492 -0.00046 0.0
H1733 H 0.62984 0.71174 0.05251 0.0
H1734 H 0.63323 0.77817 0.07764 0.0
H1735 H 0.62521 0.75438 0.05629 0.0
H1736 H 0.65367 0.75443 3e-05 0.0
C1737 C 0.65174 0.70424 0.00458 0.0
C1738 C 0.63469 0.72078 0.04058 0.0
C1739 C 0.6519 0.6907 0.00178 0.0
C1740 C 0.64103 0.77776 0.066 0.0
C1741 C 0.63651 0.76412 0.05393 0.0
C1742 C 0.6483 0.74512 0.01148 0.0
C1743 C 0.63943 0.70408 0.01476 0.0
C1744 C 0.63999 0.71869 0.02003 0.0
C1745 C 0.64683 0.76271 0.04038 0.0
C1746 C 0.64339 0.74729 0.03233 0.0
H1747 H 0.61769 0.66581 0.02436 0.0
H1748 H 0.61728 0.68934 0.02887 0.0
H1749 H 0.65061 0.72967 0.98928 0.0
H1750 H 0.6773 0.79897 0.04797 0.0
H1751 H 0.66949 0.77509 0.02702 0.0
C1752 C 0.32219 0.94793 0.98501 0.0
C1753 C 0.32663 0.96334 0.98911 0.0
C1754 C 0.30726 0.93612 0.98851 0.0
C1755 C 0.27401 0.92889 0.02111 0.0
H1756 H 0.25436 0.88963 0.98889 0.0
C1757 C 0.21743 0.88039 0.05077 0.0
C1758 C 0.21745 0.86696 0.0549 0.0
C1759 C 0.22823 0.89143 0.03689 0.0
C1760 C 0.25969 0.90056 0.99796 0.0
H1761 H 0.31872 0.97854 -0.0013 0.0
H1762 H 0.29265 0.95806 0.0041 0.0
H1763 H 0.27846 0.91085 0.97577 0.0
H1764 H 0.22783 0.85389 0.04616 0.0
H1765 H 0.24673 0.87318 0.0219 0.0
H1766 H 0.25551 0.91862 0.04353 0.0
C1767 C 0.30075 0.95499 -0.00109 0.0
C1768 C 0.27353 0.9127 0.99053 0.0
C1769 C 0.3157 0.96676 0.9957 0.0
C1770 C 0.22749 0.86408 0.04314 0.0
C1771 C 0.23835 0.87517 0.02928 0.0
C1772 C 0.26018 0.91685 0.02839 0.0
C1773 C 0.2964 0.93949 0.99594 0.0
C1774 C 0.28099 0.92695 0.00226 0.0
C1775 C 0.23931 0.88929 0.02694 0.0
C1776 C 0.25296 0.90246 0.01715 0.0
H1777 H 0.33036 0.94492 0.97994 0.0
H1778 H 0.30442 0.92435 0.98629 0.0
H1779 H 0.2795 0.93953 0.03091 0.0
H1780 H 0.20971 0.88281 0.05948 0.0
H1781 H 0.22848 0.90206 0.03503 0.0
C1782 C 0.36901 0.05462 0.00212 0.0
C1783 C 0.35628 0.04043 0.00761 0.0
C1784 C 0.36788 0.06755 -6e-05 0.0
C1785 C 0.34076 0.07774 0.98422 0.0
H1786 H 0.37027 0.11845 0.00747 0.0
C1787 C 0.33763 0.129 0.95753 0.0
C1788 C 0.35145 0.1419 0.95161 0.0
C1789 C 0.33732 0.11766 0.97029 0.0
C1790 C 0.36197 0.10718 0.00072 0.0
H1791 H 0.33247 0.0288 0.01564 0.0
H1792 H 0.33047 0.05132 0.01141 0.0
H1793 H 0.37188 0.09642 0.01775 0.0
H1794 H 0.3757 0.15358 0.95525 0.0
H1795 H 0.3753 0.13367 0.9768 0.0
H1796 H 0.33134 0.08832 0.9661 0.0
C1797 C 0.34132 0.05242 0.00889 0.0
C1798 C 0.36288 0.09458 0.00669 0.0
C1799 C 0.34249 0.03954 0.01136 0.0
C1800 C 0.3649 0.14382 0.95992 0.0
C1801 C 0.36463 0.13235 0.97229 0.0
C1802 C 0.33998 0.09032 0.97797 0.0
C1803 C 0.35396 0.06651 0.00293 0.0
C1804 C 0.35239 0.07976 -0.00174 0.0
C1805 C 0.35085 0.1188 0.97685 0.0
C1806 C 0.3507 0.10528 0.98586 0.0
H1807 H 0.37981 0.05569 -0.00079 0.0
H1808 H 0.37777 0.07825 0.99514 0.0
H1809 H 0.33263 0.06647 0.97724 0.0
H1810 H 0.32712 0.12729 0.95123 0.0
H1811 H 0.32647 0.10765 0.97403 0.0
C1812 C 0.95905 0.32744 0.03293 0.0
C1813 C 0.96828 0.3361 0.01534 0.0
C1814 C 0.94592 0.31312 0.02875 0.0
C1815 C 0.91889 0.28943 0.98352 0.0
H1816 H 0.90896 0.2553 0.02098 0.0
C1817 C 0.88371 0.22005 0.97379 0.0
C1818 C 0.87188 0.21824 0.96044 0.0
C1819 C 0.89324 0.23404 0.98511 0.0
C1820 C 0.91156 0.26471 0.01036 0.0
H1821 H 0.97098 0.33644 0.97957 0.0
H1822 H 0.94832 0.31146 0.97233 0.0
H1823 H 0.93064 0.28075 0.03038 0.0
H1824 H 0.85977 0.22889 0.94996 0.0
H1825 H 0.87587 0.25306 0.97059 0.0
H1826 H 0.90045 0.2734 0.96281 0.0
C1827 C 0.95102 0.31582 0.98934 0.0
C1828 C 0.92391 0.27935 0.01587 0.0
C1829 C 0.96409 0.33013 0.99351 0.0
C1830 C 0.86883 0.23006 0.96023 0.0
C1831 C 0.8782 0.24395 0.97178 0.0
C1832 C 0.90663 0.27484 0.97796 0.0
C1833 C 0.94174 0.30713 0.00689 0.0
C1834 C 0.9279 0.29183 0.00225 0.0
C1835 C 0.891 0.24641 0.98339 0.0
C1836 C 0.90292 0.26221 0.99109 0.0
H1837 H 0.96193 0.33172 0.04995 0.0
H1838 H 0.93897 0.30682 0.04264 0.0
H1839 H 0.92145 0.29882 0.97287 0.0
H1840 H 0.88639 0.21115 0.97391 0.0
H1841 H 0.903 0.23549 0.99374 0.0
C1842 C 0.68271 0.64158 0.017 0.0
C1843 C 0.67426 0.64002 0.99791 0.0
C1844 C 0.69764 0.64512 0.01515 0.0
C1845 C 0.72983 0.66187 0.97651 0.0
H1846 H 0.74293 0.63798 0.00698 0.0
C1847 C 0.77326 0.64125 0.95744 0.0
C1848 C 0.78474 0.65468 0.94778 0.0
C1849 C 0.76217 0.64159 0.97033 0.0
C1850 C 0.73948 0.64482 -0.00154 0.0
H1851 H 0.67489 0.64095 0.96195 0.0
H1852 H 0.70073 0.64704 0.95876 0.0
H1853 H 0.71817 0.6343 0.01509 0.0
H1854 H 0.79472 0.67925 0.94605 0.0
H1855 H 0.77572 0.67999 0.96925 0.0
H1856 H 0.75056 0.67177 0.9589 0.0
C1857 C 0.69593 0.64572 0.97518 0.0
C1858 C 0.72535 0.64279 0.00324 0.0
C1859 C 0.68106 0.6421 0.97701 0.0
C1860 C 0.7859 0.66872 0.95322 0.0
C1861 C 0.77493 0.66909 0.96631 0.0
C1862 C 0.74389 0.6639 0.97174 0.0
C1863 C 0.70442 0.64731 0.9942 0.0
C1864 C 0.72019 0.65096 0.99176 0.0
C1865 C 0.76245 0.6554 0.97391 0.0
C1866 C 0.74875 0.6551 0.98217 0.0
H1867 H 0.67778 0.64003 0.03336 0.0
H1868 H 0.70392 0.64631 0.03009 0.0
H1869 H 0.72628 0.66852 0.96766 0.0
H1870 H 0.77202 0.63026 0.95332 0.0
H1871 H 0.75273 0.6308 0.97579 0.0
C1872 C 0.95216 0.63618 0.00808 0.0
C1873 C 0.96148 0.63805 0.98986 0.0
C1874 C 0.94017 0.6386 0.00598 0.0
C1875 C 0.92648 0.65765 0.96999 0.0
H1876 H 0.88748 0.62992 0.99584 0.0
C1877 C 0.86153 0.63686 0.95052 0.0
C1878 C 0.86384 0.65093 0.94376 0.0
C1879 C 0.87288 0.63638 0.962 0.0
C1880 C 0.8983 0.63779 0.98853 0.0
H1881 H 0.96531 0.64365 0.95505 0.0
H1882 H 0.94436 0.64755 0.95127 0.0
H1883 H 0.90866 0.62661 0.00292 0.0
H1884 H 0.87903 0.67559 0.94552 0.0
H1885 H 0.8986 0.67488 0.96653 0.0
H1886 H 0.91609 0.66829 0.95453 0.0
C1887 C 0.94647 0.64457 0.96735 0.0
C1888 C 0.91049 0.63598 0.99276 0.0
C1889 C 0.95844 0.64221 0.96947 0.0
C1890 C 0.87704 0.6646 0.95053 0.0
C1891 C 0.88829 0.66415 0.96231 0.0
C1892 C 0.91433 0.6594 0.96566 0.0
C1893 C 0.93725 0.64293 0.9856 0.0
C1894 C 0.92463 0.64567 0.98309 0.0
C1895 C 0.88671 0.65 0.96712 0.0
C1896 C 0.89998 0.64932 0.9745 0.0
H1897 H 0.95422 0.63301 0.02405 0.0
H1898 H 0.93335 0.63733 0.02039 0.0
H1899 H 0.93728 0.66553 0.96263 0.0
H1900 H 0.85151 0.62616 0.94523 0.0
H1901 H 0.87124 0.62526 0.96526 0.0
C1902 C 0.35604 0.32544 0.02353 0.0
C1903 C 0.35839 0.33496 0.00567 0.0
C1904 C 0.35381 0.31081 0.01972 0.0
C1905 C 0.34172 0.28041 0.97619 0.0
H1906 H 0.36386 0.26687 0.01022 0.0
C1907 C 0.36221 0.23571 0.96086 0.0
C1908 C 0.34909 0.2237 0.95048 0.0
C1909 C 0.36179 0.24742 0.97288 0.0
C1910 C 0.35754 0.27046 0.00067 0.0
H1911 H 0.36021 0.33656 0.96982 0.0
H1912 H 0.35627 0.3111 0.96323 0.0
H1913 H 0.36638 0.29158 0.0197 0.0
H1914 H 0.32499 0.21356 0.94651 0.0
H1915 H 0.32416 0.23378 0.96794 0.0
H1916 H 0.33332 0.25972 0.95661 0.0
C1917 C 0.35606 0.31489 0.98016 0.0
C1918 C 0.35891 0.28455 0.00618 0.0
C1919 C 0.35841 0.32953 0.98395 0.0
C1920 C 0.33529 0.22278 0.95422 0.0
C1921 C 0.33485 0.23441 0.96631 0.0
C1922 C 0.34029 0.26634 0.97078 0.0
C1923 C 0.35371 0.30535 0.99798 0.0
C1924 C 0.35126 0.28981 0.99366 0.0
C1925 C 0.34822 0.24727 0.97479 0.0
C1926 C 0.34838 0.26129 0.98268 0.0
H1927 H 0.35599 0.3293 0.04046 0.0
H1928 H 0.35195 0.30368 0.03377 0.0
H1929 H 0.33553 0.28406 0.96642 0.0
H1930 H 0.37302 0.23677 0.95806 0.0
H1931 H 0.37231 0.25717 0.97912 0.0
C1932 C 0.67655 0.05889 0.00553 0.0
C1933 C 0.67286 0.04398 0.01039 0.0
C1934 C 0.69165 0.07077 0.00386 0.0
C1935 C 0.72962 0.07667 0.99409 0.0
H1936 H 0.74278 0.1194 0.00599 0.0
C1937 C 0.78995 0.12432 0.97437 0.0
C1938 C 0.79021 0.13467 0.95936 0.0
C1939 C 0.77688 0.11488 0.98642 0.0
C1940 C 0.73927 0.1075 0.00275 0.0
H1941 H 0.68207 0.02999 0.01852 0.0
H1942 H 0.70835 0.05077 0.01653 0.0
H1943 H 0.71728 0.09927 0.01611 0.0
H1944 H 0.77764 0.14426 0.94652 0.0
H1945 H 0.75491 0.128 0.9679 0.0
H1946 H 0.75157 0.08492 0.98062 0.0
C1947 C 0.69965 0.05325 0.01317 0.0
C1948 C 0.72462 0.09595 0.00837 0.0
C1949 C 0.68456 0.04133 0.01445 0.0
C1950 C 0.7777 0.13639 0.95806 0.0
C1951 C 0.76472 0.1271 0.97032 0.0
C1952 C 0.74429 0.08818 0.9888 0.0
C1953 C 0.70342 0.06807 0.00737 0.0
C1954 C 0.71948 0.08037 0.00364 0.0
C1955 C 0.76395 0.11579 0.98386 0.0
C1956 C 0.74918 0.10373 0.99264 0.0
H1957 H 0.66777 0.06127 0.00222 0.0
H1958 H 0.69403 0.08192 -0.00098 0.0
H1959 H 0.72608 0.06489 0.98974 0.0
H1960 H 0.7994 0.12269 0.97549 0.0
H1961 H 0.77662 0.10633 0.99689 0.0
C1962 C 0.61352 0.93896 0.01711 0.0
C1963 C 0.62551 0.95345 0.011 0.0
C1964 C 0.61588 0.92688 0.02023 0.0
C1965 C 0.64241 0.91356 0.00917 0.0
H1966 H 0.62689 0.89247 0.06433 0.0
C1967 C 0.66658 0.88143 0.05284 0.0
C1968 C 0.65717 0.86956 0.06699 0.0
C1969 C 0.66098 0.88913 0.04137 0.0
C1970 C 0.63103 0.89791 0.04857 0.0
H1971 H 0.64927 0.96642 0.00256 0.0
H1972 H 0.65338 0.94537 0.0081 0.0
H1973 H 0.62035 0.91083 0.05315 0.0
H1974 H 0.63437 0.85549 0.07899 0.0
H1975 H 0.62434 0.86835 0.05817 0.0
H1976 H 0.65333 0.90079 0.00482 0.0
C1977 C 0.64213 0.94332 0.01035 0.0
C1978 C 0.6273 0.90853 0.0422 0.0
C1979 C 0.63979 0.95543 0.00734 0.0
C1980 C 0.6418 0.86461 0.06808 0.0
C1981 C 0.63615 0.87213 0.0564 0.0
C1982 C 0.64607 0.90283 0.01547 0.0
C1983 C 0.63026 0.92899 0.01719 0.0
C1984 C 0.63314 0.91667 0.02263 0.0
C1985 C 0.64583 0.88498 0.04377 0.0
C1986 C 0.64063 0.89504 0.03546 0.0
H1987 H 0.60236 0.93702 0.01995 0.0
H1988 H 0.60647 0.91592 0.02527 0.0
H1989 H 0.64695 0.91953 0.99385 0.0
H1990 H 0.67853 0.88557 0.05204 0.0
H1991 H 0.66882 0.89901 0.03196 0.0
C1992 C 0.04943 0.67776 0.98404 0.0
C1993 C 0.03638 0.67321 0.99663 0.0
C1994 C 0.06209 0.6926 0.98674 0.0
C1995 C 0.07491 0.73187 0.00679 0.0
H1996 H 0.11148 0.73366 0.02476 0.0
C1997 C 0.12084 0.7816 0.06022 0.0
C1998 C 0.13552 0.7842 0.06077 0.0
C1999 C 0.10979 0.77013 0.04622 0.0
C2000 C 0.10157 0.73357 0.01917 0.0
H2001 H 0.02611 0.6808 0.02121 0.0
H2002 H 0.04812 0.7068 0.02561 0.0
H2003 H 0.08986 0.70938 0.01173 0.0
H2004 H 0.15047 0.77789 0.04511 0.0
H2005 H 0.13148 0.75858 0.01977 0.0
H2006 H 0.08652 0.75602 0.01424 0.0
C2007 C 0.04857 0.69886 0.01376 0.0
C2008 C 0.08913 0.71956 0.01183 0.0
C2009 C 0.03603 0.68395 0.01137 0.0
C2010 C 0.13929 0.77621 0.04523 0.0
C2011 C 0.12829 0.7649 0.03093 0.0
C2012 C 0.08746 0.74597 0.01376 0.0
C2013 C 0.0618 0.70324 0.00174 0.0
C2014 C 0.07555 0.71849 0.00622 0.0
C2015 C 0.1132 0.76116 0.03205 0.0
C2016 C 0.10081 0.74692 0.02077 0.0
H2017 H 0.05003 0.66972 0.97256 0.0
H2018 H 0.07216 0.69572 0.97728 0.0
H2019 H 0.0646 0.73136 0.00229 0.0
H2020 H 0.11764 0.7878 0.07161 0.0
H2021 H 0.09837 0.76768 0.04771 0.0
C2022 C 0.32139 0.37988 0.00653 0.0
C2023 C 0.32249 0.36966 0.9916 0.0
C2024 C 0.30746 0.37847 0.01053 0.0
C2025 C 0.26698 0.34966 0.00937 0.0
H2026 H 0.2631 0.385 0.02032 0.0
C2027 C 0.21205 0.3416 0.0447 0.0
C2028 C 0.21433 0.35108 0.0635 0.0
C2029 C 0.224 0.34509 0.03027 0.0
C2030 C 0.26398 0.37501 0.0173 0.0
H2031 H 0.30986 0.35022 0.96867 0.0
H2032 H 0.28554 0.34776 0.9757 0.0
H2033 H 0.28679 0.38865 0.00609 0.0
H2034 H 0.2304 0.37237 0.08077 0.0
H2035 H 0.25122 0.37839 0.05592 0.0
H2036 H 0.24448 0.33606 0.02144 0.0
C2037 C 0.29545 0.35679 0.98443 0.0
C2038 C 0.27756 0.37711 0.00917 0.0
C2039 C 0.3094 0.35824 0.98035 0.0
C2040 C 0.22837 0.36479 0.06649 0.0
C2041 C 0.24029 0.36828 0.05213 0.0
C2042 C 0.25344 0.34757 0.01756 0.0
C2043 C 0.2943 0.36679 -0.00025 0.0
C2044 C 0.27934 0.36449 0.00564 0.0
C2045 C 0.23843 0.35814 0.03438 0.0
C2046 C 0.25189 0.36025 0.02218 0.0
H2047 H 0.33124 0.38882 0.01546 0.0
H2048 H 0.30695 0.38623 0.02265 0.0
H2049 H 0.26802 0.33971 0.00706 0.0
H2050 H 0.20137 0.33092 0.04201 0.0
H2051 H 0.22212 0.33718 0.01652 0.0
C2052 C 0.7125 0.69868 0.34046 0.0
C2053 C 0.71524 0.71369 0.34073 0.0
C2054 C 0.72434 0.69617 0.34366 0.0
C2055 C 0.76111 0.71383 0.37098 0.0
H2056 H 0.76504 0.68306 0.33759 0.0
C2057 C 0.80596 0.70098 0.39669 0.0
C2058 C 0.8011 0.68537 0.39751 0.0
C2059 C 0.79759 0.70562 0.38494 0.0
C2060 C 0.76406 0.69164 0.34717 0.0
H2061 H 0.73263 0.73784 0.34405 0.0
H2062 H 0.75324 0.73343 0.3499 0.0
H2063 H 0.7459 0.68869 0.32669 0.0
H2064 H 0.78419 0.66242 0.38604 0.0
H2065 H 0.76928 0.67037 0.36598 0.0
H2066 H 0.77863 0.71635 0.39213 0.0
C2067 C 0.74192 0.72362 0.34723 0.0
C2068 C 0.75312 0.69487 0.34087 0.0
C2069 C 0.73012 0.72614 0.34381 0.0
C2070 C 0.78827 0.67455 0.38529 0.0
C2071 C 0.77973 0.67916 0.37382 0.0
C2072 C 0.77192 0.7105 0.37741 0.0
C2073 C 0.73914 0.70861 0.34741 0.0
C2074 C 0.75143 0.70589 0.35287 0.0
C2075 C 0.78397 0.6947 0.37423 0.0
C2076 C 0.77346 0.69924 0.36577 0.0
H2077 H 0.70118 0.68883 0.33805 0.0
H2078 H 0.72181 0.68447 0.34393 0.0
H2079 H 0.75994 0.72221 0.38077 0.0
H2080 H 0.8158 0.70949 0.40614 0.0
H2081 H 0.80145 0.71773 0.38514 0.0
C2082 C 0.2981 0.01415 0.32354 0.0
C2083 C 0.30003 0.00618 0.3405 0.0
C2084 C 0.29963 0.02841 0.32808 0.0
C2085 C 0.29933 0.05273 0.37479 0.0
H2086 H 0.32147 0.08626 0.33473 0.0
C2087 C 0.33509 0.12195 0.38257 0.0
C2088 C 0.32588 0.12378 0.39788 0.0
C2089 C 0.32965 0.10792 0.37099 0.0
C2090 C 0.31523 0.07701 0.34607 0.0
H2091 H 0.30521 0.00703 0.37551 0.0
H2092 H 0.30809 0.0319 0.38334 0.0
H2093 H 0.31695 0.06084 0.32468 0.0
H2094 H 0.30352 0.11313 0.41186 0.0
H2095 H 0.2937 0.08886 0.39086 0.0
H2096 H 0.29827 0.06889 0.39674 0.0
C2097 C 0.30512 0.02704 0.36659 0.0
C2098 C 0.31252 0.0624 0.34022 0.0
C2099 C 0.30357 0.0128 0.36207 0.0
C2100 C 0.31076 0.11195 0.39996 0.0
C2101 C 0.30525 0.09801 0.38818 0.0
C2102 C 0.30207 0.06728 0.38065 0.0
C2103 C 0.30311 0.035 0.34969 0.0
C2104 C 0.30483 0.05018 0.35476 0.0
C2105 C 0.31487 0.09553 0.3745 0.0
C2106 C 0.31028 0.0797 0.36658 0.0
H2107 H 0.29534 0.00936 0.30674 0.0
H2108 H 0.29791 0.03419 0.31473 0.0
H2109 H 0.29313 0.04351 0.3862 0.0
H2110 H 0.34688 0.13086 0.38106 0.0
H2111 H 0.33744 0.10645 0.36074 0.0
C2112 C 0.9926 0.28616 0.32639 0.0
C2113 C 0.99743 0.30134 0.33317 0.0
C2114 C 0.97773 0.27426 0.32997 0.0
C2115 C 0.9455 0.26514 0.36649 0.0
H2116 H 0.9241 0.22871 0.32807 0.0
C2117 C 0.88804 0.21594 0.39231 0.0
C2118 C 0.88705 0.20172 0.39262 0.0
C2119 C 0.89923 0.22789 0.38001 0.0
C2120 C 0.92993 0.23884 0.33892 0.0
H2121 H 0.99022 0.31607 0.34788 0.0
H2122 H 0.96424 0.29545 0.35356 0.0
H2123 H 0.94837 0.25042 0.31639 0.0
H2124 H 0.89608 0.18838 0.37885 0.0
H2125 H 0.91571 0.2093 0.35732 0.0
H2126 H 0.92731 0.25357 0.38916 0.0
C2127 C 0.97202 0.29261 0.34609 0.0
C2128 C 0.94387 0.25125 0.3323 0.0
C2129 C 0.98691 0.30446 0.34274 0.0
C2130 C 0.89652 0.1992 0.37874 0.0
C2131 C 0.90779 0.21121 0.36646 0.0
C2132 C 0.93158 0.25283 0.373 0.0
C2133 C 0.9673 0.27729 0.34022 0.0
C2134 C 0.95193 0.26449 0.34616 0.0
C2135 C 0.90972 0.2259 0.36787 0.0
C2136 C 0.9237 0.23945 0.35944 0.0
H2137 H 1.00044 0.28337 0.31899 0.0
H2138 H 0.97459 0.26261 0.32547 0.0
H2139 H 0.95147 0.27494 0.37787 0.0
H2140 H 0.88079 0.21812 0.40277 0.0
H2141 H 0.90021 0.23898 0.38103 0.0
C2142 C 0.01539 0.37855 0.35838 0.0
C2143 C 0.02876 0.37887 0.35315 0.0
C2144 C 0.01457 0.39167 0.35631 0.0
C2145 C 0.03714 0.43379 0.35182 0.0
H2146 H 0.00398 0.42762 0.31494 0.0
C2147 C 0.03895 0.48204 0.30277 0.0
C2148 C 0.02537 0.48044 0.29577 0.0
C2149 C 0.03878 0.47095 0.31596 0.0
C2150 C 0.01311 0.42963 0.3258 0.0
H2151 H 0.05194 0.39341 0.34256 0.0
H2152 H 0.05051 0.41635 0.33911 0.0
H2153 H 0.00489 0.4056 0.32627 0.0
H2154 H 1.00107 0.46696 0.29854 0.0
H2155 H 1.00071 0.44808 0.32274 0.0
H2156 H 0.04545 0.45786 0.35126 0.0
C2157 C 0.04068 0.40593 0.3448 0.0
C2158 C 0.01366 0.41693 0.33217 0.0
C2159 C 0.04146 0.39276 0.34662 0.0
C2160 C 0.01168 0.46843 0.30386 0.0
C2161 C 0.01151 0.4575 0.31741 0.0
C2162 C 0.03649 0.44653 0.34571 0.0
C2163 C 0.02715 0.40544 0.34924 0.0
C2164 C 0.02585 0.41889 0.34481 0.0
C2165 C 0.02501 0.45814 0.3226 0.0
C2166 C 0.02465 0.44465 0.33214 0.0
H2167 H 0.00542 0.36805 0.36352 0.0
H2168 H 0.00403 0.39099 0.35996 0.0
H2169 H 0.04658 0.43561 0.3618 0.0
H2170 H 0.04962 0.49109 0.2964 0.0
H2171 H 0.04942 0.47186 0.31938 0.0
C2172 C 0.61191 0.66503 0.34884 0.0
C2173 C 0.62645 0.66769 0.34524 0.0
C2174 C 0.59922 0.65016 0.34687 0.0
C2175 C 0.58641 0.60927 0.348 0.0
H2176 H 0.55601 0.60345 0.30546 0.0
C2177 C 0.54583 0.55093 0.30464 0.0
C2178 C 0.53239 0.54829 0.29517 0.0
C2179 C 0.55543 0.56471 0.31634 0.0
C2180 C 0.56409 0.60478 0.31789 0.0
H2181 H 0.63914 0.65678 0.33748 0.0
H2182 H 0.61698 0.63076 0.33444 0.0
H2183 H 0.57657 0.62924 0.31526 0.0
H2184 H 0.51774 0.5572 0.29181 0.0
H2185 H 0.53395 0.58085 0.31352 0.0
H2186 H 0.57398 0.58485 0.35078 0.0
C2187 C 0.61542 0.64021 0.33868 0.0
C2188 C 0.57597 0.61963 0.32336 0.0
C2189 C 0.62808 0.65511 0.34025 0.0
C2190 C 0.52802 0.55899 0.29917 0.0
C2191 C 0.53747 0.57264 0.31127 0.0
C2192 C 0.57436 0.5944 0.34285 0.0
C2193 C 0.60086 0.63762 0.34169 0.0
C2194 C 0.58743 0.622 0.33803 0.0
C2195 C 0.55168 0.57605 0.31901 0.0
C2196 C 0.56323 0.5919 0.32725 0.0
H2197 H 0.61029 0.67449 0.3527 0.0
H2198 H 0.58811 0.64844 0.34929 0.0
H2199 H 0.59505 0.61082 0.35957 0.0
H2200 H 0.54953 0.54293 0.30135 0.0
H2201 H 0.56628 0.56686 0.32175 0.0
C2202 C 0.34565 0.96559 0.34278 0.0
C2203 C 0.34488 0.97861 0.33854 0.0
C2204 C 0.35912 0.96586 0.3397 0.0
C2205 C 0.40046 0.99184 0.33141 0.0
H2206 H 0.39645 0.95666 0.29856 0.0
C2207 C 0.44687 0.99401 0.2761 0.0
C2208 C 0.44727 0.98059 0.2724 0.0
C2209 C 0.43617 0.99402 0.29029 0.0
C2210 C 0.39784 0.96644 0.30821 0.0
H2211 H 0.35783 0.00227 0.32841 0.0
H2212 H 0.38123 0.00264 0.32268 0.0
H2213 H 0.37399 0.9561 0.31134 0.0
H2214 H 0.43772 0.9571 0.28232 0.0
H2215 H 0.4193 0.95722 0.30756 0.0
H2216 H 0.42436 0.00237 0.32752 0.0
C2217 C 0.37148 0.99229 0.32868 0.0
C2218 C 0.38491 0.96614 0.31551 0.0
C2219 C 0.35802 0.99203 0.3318 0.0
C2220 C 0.43773 0.96763 0.28484 0.0
C2221 C 0.42704 0.96764 0.29908 0.0
C2222 C 0.41342 0.99215 0.3241 0.0
C2223 C 0.37214 0.97913 0.33226 0.0
C2224 C 0.38603 0.97894 0.32678 0.0
C2225 C 0.42566 0.9806 0.30115 0.0
C2226 C 0.41225 0.97957 0.31198 0.0
H2227 H 0.33579 0.9551 0.34818 0.0
H2228 H 0.35929 0.9556 0.34292 0.0
H2229 H 0.40172 0.0018 0.34038 0.0
H2230 H 0.4542 0.00423 0.2669 0.0
H2231 H 0.43545 0.0042 0.29142 0.0
C2232 C 0.61022 0.96298 0.33932 0.0
C2233 C 0.62388 0.97613 0.34628 0.0
C2234 C 0.59755 0.9639 0.33485 0.0
C2235 C 0.58788 0.99105 0.31584 0.0
H2236 H 0.5471 0.96038 0.33265 0.0
C2237 C 0.53823 0.99337 0.2812 0.0
C2238 C 0.526 0.97928 0.2733 0.0
C2239 C 0.54896 0.99376 0.29543 0.0
C2240 C 0.5584 0.969 0.3277 0.0
H2241 H 0.63483 1.00048 0.35463 0.0
H2242 H 0.61276 0.0021 0.34649 0.0
H2243 H 0.56841 0.95931 0.34706 0.0
H2244 H 0.51488 0.95459 0.27481 0.0
H2245 H 0.53378 0.95515 0.29904 0.0
H2246 H 0.57808 1.00031 0.29556 0.0
C2247 C 0.61188 0.99109 0.34452 0.0
C2248 C 0.57059 0.9684 0.33602 0.0
C2249 C 0.62449 0.99014 0.34923 0.0
C2250 C 0.52414 0.96559 0.28095 0.0
C2251 C 0.535 0.96595 0.29487 0.0
C2252 C 0.57572 0.99155 0.30731 0.0
C2253 C 0.59834 0.97802 0.33702 0.0
C2254 C 0.58544 0.97931 0.32993 0.0
C2255 C 0.54787 0.98005 0.30162 0.0
C2256 C 0.56078 0.98041 0.31285 0.0
H2257 H 0.60936 0.952 0.33697 0.0
H2258 H 0.58731 0.95367 0.32889 0.0
H2259 H 0.59918 0.99949 0.31059 0.0
H2260 H 0.53986 0.00408 0.27552 0.0
H2261 H 0.55846 0.00483 0.30077 0.0
C2262 C 0.04336 0.66677 0.36319 0.0
C2263 C 0.03366 0.67046 0.35283 0.0
C2264 C 0.0413 0.65218 0.36002 0.0
C2265 C 0.01404 0.61212 0.34236 0.0
H2266 H 0.04921 0.61225 0.32023 0.0
C2267 C 0.00999 0.56206 0.29008 0.0
C2268 C 0.02253 0.56034 0.28864 0.0
C2269 C 0.0105 0.57369 0.30357 0.0
C2270 C 0.03932 0.61184 0.32695 0.0
H2271 H 0.01379 0.66151 0.33182 0.0
H2272 H 0.0101 0.63597 0.32653 0.0
H2273 H 0.05163 0.63617 0.33315 0.0
H2274 H 0.04482 0.56849 0.30222 0.0
H2275 H 0.04535 0.58813 0.32671 0.0
H2276 H 1.00168 0.5878 0.33613 0.0
C2277 C 0.01932 0.6444 0.33705 0.0
C2278 C 0.04073 0.62563 0.33424 0.0
C2279 C 0.0215 0.65905 0.33995 0.0
C2280 C 0.03495 0.56946 0.30283 0.0
C2281 C 0.03536 0.58095 0.31662 0.0
C2282 C 0.01266 0.59825 0.33539 0.0
C2283 C 0.02937 0.64091 0.34671 0.0
C2284 C 0.02805 0.62598 0.34151 0.0
C2285 C 0.02346 0.58373 0.31632 0.0
C2286 C 0.02522 0.59797 0.32702 0.0
H2287 H 0.05284 0.67528 0.37323 0.0
H2288 H 0.04917 0.64977 0.36776 0.0
H2289 H 0.00412 0.61205 0.34816 0.0
H2290 H 1.0001 0.555 0.27974 0.0
H2291 H 1.00108 0.57538 0.30278 0.0
C2292 C 0.33354 0.38679 0.32286 0.0
C2293 C 0.33168 0.3732 0.33107 0.0
C2294 C 0.34796 0.39978 0.32055 0.0
C2295 C 0.38822 0.41758 0.33702 0.0
H2296 H 0.39549 0.43745 0.28065 0.0
C2297 C 0.4474 0.45531 0.29872 0.0
C2298 C 0.44956 0.46665 0.28403 0.0
C2299 C 0.43343 0.44626 0.30897 0.0
C2300 C 0.39365 0.43232 0.29672 0.0
H2301 H 0.34353 0.36278 0.34397 0.0
H2302 H 0.36869 0.38541 0.33967 0.0
H2303 H 0.37021 0.41694 0.28963 0.0
H2304 H 0.43949 0.47846 0.27005 0.0
H2305 H 0.41532 0.46317 0.28863 0.0
H2306 H 0.41184 0.43282 0.34381 0.0
C2307 C 0.35899 0.38606 0.33523 0.0
C2308 C 0.3791 0.42049 0.30184 0.0
C2309 C 0.34456 0.37305 0.33754 0.0
C2310 C 0.43805 0.46975 0.28132 0.0
C2311 C 0.42417 0.46086 0.29175 0.0
C2312 C 0.40283 0.4295 0.33191 0.0
C2313 C 0.36087 0.39951 0.32638 0.0
C2314 C 0.37622 0.41284 0.32192 0.0
C2315 C 0.42143 0.44849 0.30478 0.0
C2316 C 0.40575 0.43691 0.31157 0.0
H2317 H 0.32387 0.38735 0.31788 0.0
H2318 H 0.349 0.41003 0.31399 0.0
H2319 H 0.38633 0.41203 0.35274 0.0
H2320 H 0.45607 0.45259 0.30082 0.0
H2321 H 0.43173 0.43681 0.3188 0.0
C2322 C 0.30273 0.28465 0.33917 0.0
C2323 C 0.2883 0.28245 0.3422 0.0
C2324 C 0.3052 0.27266 0.3425 0.0
C2325 C 0.29014 0.23798 0.37465 0.0
H2326 H 0.31695 0.23038 0.33901 0.0
C2327 C 0.30421 0.19404 0.4024 0.0
C2328 C 0.31956 0.19887 0.4018 0.0
C2329 C 0.29881 0.20169 0.39045 0.0
C2330 C 0.30948 0.23239 0.34919 0.0
H2331 H 0.26503 0.2657 0.35017 0.0
H2332 H 0.26937 0.24484 0.35602 0.0
H2333 H 0.31066 0.24901 0.32706 0.0
H2334 H 0.34115 0.21485 0.38735 0.0
H2335 H 0.33188 0.2285 0.36687 0.0
H2336 H 0.28941 0.22202 0.3973 0.0
C2337 C 0.27879 0.25588 0.35126 0.0
C2338 C 0.30587 0.24305 0.34232 0.0
C2339 C 0.2763 0.26783 0.34783 0.0
C2340 C 0.32922 0.2108 0.38786 0.0
C2341 C 0.32387 0.21862 0.37613 0.0
C2342 C 0.29383 0.22745 0.3816 0.0
C2343 C 0.29332 0.25823 0.34903 0.0
C2344 C 0.29629 0.24608 0.35512 0.0
C2345 C 0.30871 0.21455 0.37798 0.0
C2346 C 0.30368 0.22462 0.36912 0.0
H2347 H 0.31221 0.29575 0.33476 0.0
H2348 H 0.31654 0.27488 0.34083 0.0
H2349 H 0.28294 0.24023 0.38511 0.0
H2350 H 0.29654 0.18483 0.41301 0.0
H2351 H 0.28698 0.19795 0.39179 0.0
C2352 C 0.70029 0.01387 0.35819 0.0
C2353 C 0.6947 0.00862 0.33651 0.0
C2354 C 0.71282 0.0286 0.36209 0.0
C2355 C 0.74638 0.05997 0.33548 0.0
H2356 H 0.74652 0.08316 0.38776 0.0
C2357 C 0.78652 0.12014 0.3908 0.0
C2358 C 0.79957 0.11938 0.39225 0.0
C2359 C 0.77394 0.10888 0.37873 0.0
C2360 C 0.74663 0.07704 0.37283 0.0
H2361 H 0.69797 0.01476 0.30188 0.0
H2362 H 0.7199 0.04057 0.30876 0.0
H2363 H 0.72381 0.0589 0.37772 0.0
H2364 H 0.81019 0.10702 0.38076 0.0
H2365 H 0.78823 0.08726 0.35989 0.0
H2366 H 0.76932 0.07813 0.33079 0.0
C2367 C 0.71459 0.03321 0.3227 0.0
C2368 C 0.73365 0.06298 0.36728 0.0
C2369 C 0.70199 0.01845 0.31879 0.0
C2370 C 0.80032 0.10797 0.37974 0.0
C2371 C 0.78769 0.09662 0.3678 0.0
C2372 C 0.75942 0.07409 0.34107 0.0
C2373 C 0.7201 0.03847 0.34442 0.0
C2374 C 0.73346 0.05411 0.34886 0.0
C2375 C 0.77411 0.09653 0.36807 0.0
C2376 C 0.7598 0.08265 0.36007 0.0
H2377 H 0.695 0.0066 0.37222 0.0
H2378 H 0.71693 0.03219 0.37898 0.0
H2379 H 0.74661 0.05339 0.3212 0.0
H2380 H 0.78571 0.1289 0.40019 0.0
H2381 H 0.7638 0.10938 0.37881 0.0
C2382 C 0.97652 0.6901 0.31926 0.0
C2383 C 0.98945 0.70177 0.33054 0.0
C2384 C 0.96254 0.68879 0.32225 0.0
C2385 C 0.94432 0.70964 0.34355 0.0
H2386 H 0.91107 0.66894 0.35699 0.0
C2387 C 0.89403 0.69862 0.39753 0.0
C2388 C 0.88009 0.68475 0.39474 0.0
C2389 C 0.90621 0.7018 0.38392 0.0
C2390 C 0.92007 0.68034 0.35276 0.0
H2391 H 0.9979 0.72153 0.35322 0.0
H2392 H 0.97355 0.71919 0.35852 0.0
H2393 H 0.93482 0.6723 0.34429 0.0
H2394 H 0.86761 0.664 0.37421 0.0
H2395 H 0.8888 0.66974 0.34999 0.0
H2396 H 0.92966 0.71773 0.35265 0.0
C2397 C 0.97422 0.71112 0.34722 0.0
C2398 C 0.93375 0.68227 0.34552 0.0
C2399 C 0.98817 0.71239 0.34431 0.0
C2400 C 0.8782 0.67479 0.37674 0.0
C2401 C 0.89041 0.67799 0.36306 0.0
C2402 C 0.9306 0.70771 0.35071 0.0
C2403 C 0.96119 0.69917 0.33649 0.0
C2404 C 0.94615 0.69699 0.34139 0.0
C2405 C 0.90473 0.69121 0.36712 0.0
C2406 C 0.91843 0.69308 0.35597 0.0
H2407 H 0.97711 0.68177 0.30845 0.0
H2408 H 0.95275 0.67956 0.31357 0.0
H2409 H 0.95359 0.7211 0.34013 0.0
H2410 H 0.89577 0.70658 0.41115 0.0
H2411 H 0.91705 0.71207 0.38764 0.0
C2412 C 0.40236 0.05997 0.68266 0.0
C2413 C 0.38771 0.04757 0.67776 0.0
C2414 C 0.41418 0.0575 0.68606 0.0
C2415 C 0.42621 0.02948 0.6773 0.0
H2416 H 0.45009 0.04909 0.73059 0.0
C2417 C 0.46101 0.00849 0.72126 0.0
C2418 C 0.47345 0.01908 0.73436 0.0
C2419 C 0.45258 0.01323 0.7098 0.0
C2420 C 0.44383 0.04378 0.71533 0.0
H2421 H 0.37412 0.02289 0.67184 0.0
H2422 H 0.39478 0.01859 0.67783 0.0
H2423 H 0.43134 0.0549 0.7194 0.0
H2424 H 0.48765 0.043 0.7445 0.0
H2425 H 0.47349 0.05151 0.7236 0.0
H2426 H 0.43862 0.0182 0.6734 0.0
C2427 C 0.39712 0.03024 0.67893 0.0
C2428 C 0.433 0.04708 0.70898 0.0
C2429 C 0.38526 0.03269 0.67566 0.0
C2430 C 0.47811 0.03467 0.73439 0.0
C2431 C 0.46985 0.03946 0.72267 0.0
C2432 C 0.43717 0.02625 0.68356 0.0
C2433 C 0.41166 0.04258 0.68451 0.0
C2434 C 0.42391 0.03982 0.69008 0.0
C2435 C 0.45655 0.02869 0.71113 0.0
C2436 C 0.44599 0.03321 0.70285 0.0
H2437 H 0.40467 0.07159 0.68429 0.0
H2438 H 0.4253 0.06726 0.69009 0.0
H2439 H 0.41947 0.02383 0.66251 0.0
H2440 H 0.45709 0.99637 0.72133 0.0
H2441 H 0.44238 0.00458 0.70126 0.0
C2442 C 0.94851 0.34022 0.696 0.0
C2443 C 0.95755 0.33642 0.68327 0.0
C2444 C 0.95139 0.3552 0.69658 0.0
C2445 C 0.9827 0.39491 0.6883 0.0
H2446 H 0.95145 0.40421 0.69876 0.0
C2447 C 0.99874 0.45603 0.71316 0.0
C2448 C 0.99215 0.45646 0.7334 0.0
C2449 C 0.9927 0.44225 0.70066 0.0
C2450 C 0.96029 0.4018 0.69568 0.0
H2451 H 0.9762 0.34518 0.6602 0.0
H2452 H 0.98103 0.37122 0.66082 0.0
H2453 H 0.94442 0.37793 0.68872 0.0
H2454 H 0.97344 0.44342 0.75549 0.0
H2455 H 0.96279 0.41945 0.73366 0.0
H2456 H 0.99855 0.41863 0.69589 0.0
C2457 C 0.97193 0.36273 0.67081 0.0
C2458 C 0.95628 0.38673 0.69006 0.0
C2459 C 0.96913 0.34777 0.67038 0.0
C2460 C 0.97868 0.44334 0.73989 0.0
C2461 C 0.97258 0.42963 0.72734 0.0
C2462 C 0.9867 0.40996 0.69376 0.0
C2463 C 0.96331 0.36672 0.68429 0.0
C2464 C 0.96744 0.38301 0.68697 0.0
C2465 C 0.97992 0.42876 0.70814 0.0
C2466 C 0.97555 0.41349 0.69816 0.0
H2467 H 0.9395 0.33176 0.70614 0.0
H2468 H 0.94464 0.35786 0.70741 0.0
H2469 H 0.99162 0.3925 0.68637 0.0
H2470 H 0.0092 0.46599 0.70791 0.0
H2471 H 0.9985 0.44195 0.6858 0.0
C2472 C 0.65405 0.64167 0.67173 0.0
C2473 C 0.66456 0.63819 0.66318 0.0
C2474 C 0.63902 0.63003 0.67477 0.0
C2475 C 0.61067 0.58857 0.66188 0.0
H2476 H 0.59347 0.59203 0.71749 0.0
C2477 C 0.56322 0.53759 0.70958 0.0
C2478 C 0.55369 0.54033 0.72295 0.0
C2479 C 0.57439 0.54931 0.69682 0.0
C2480 C 0.59791 0.59097 0.70165 0.0
H2481 H 0.66745 0.61982 0.65049 0.0
H2482 H 0.64137 0.59944 0.65647 0.0
H2483 H 0.61782 0.6131 0.70626 0.0
H2484 H 0.54716 0.55675 0.7316 0.0
H2485 H 0.56643 0.5771 0.709 0.0
H2486 H 0.59088 0.56601 0.658 0.0
C2487 C 0.64461 0.61119 0.66038 0.0
C2488 C 0.61194 0.60311 0.69517 0.0
C2489 C 0.65962 0.62287 0.6571 0.0
C2490 C 0.55446 0.55441 0.72155 0.0
C2491 C 0.56556 0.56607 0.70876 0.0
C2492 C 0.59661 0.57633 0.66848 0.0
C2493 C 0.63417 0.61458 0.66962 0.0
C2494 C 0.61862 0.60203 0.67535 0.0
C2495 C 0.57617 0.56393 0.69722 0.0
C2496 C 0.59016 0.57735 0.68857 0.0
H2497 H 0.65745 0.65338 0.67632 0.0
H2498 H 0.63125 0.63314 0.68145 0.0
H2499 H 0.61536 0.58741 0.64635 0.0
H2500 H 0.56295 0.52689 0.71053 0.0
H2501 H 0.5824 0.54728 0.68816 0.0
C2502 C 0.68326 0.7157 0.68594 0.0
C2503 C 0.69659 0.71586 0.68108 0.0
C2504 C 0.68252 0.7288 0.68314 0.0
C2505 C 0.70523 0.77078 0.67725 0.0
H2506 H 0.67222 0.76417 0.63959 0.0
C2507 C 0.70725 0.81851 0.62651 0.0
C2508 C 0.69369 0.81691 0.61938 0.0
C2509 C 0.70703 0.8075 0.63992 0.0
C2510 C 0.68131 0.7663 0.65064 0.0
H2511 H 0.71979 0.7301 0.6704 0.0
H2512 H 0.7185 0.75303 0.6657 0.0
H2513 H 0.67302 0.74229 0.65195 0.0
H2514 H 0.66939 0.80345 0.62195 0.0
H2515 H 0.66894 0.7847 0.64654 0.0
H2516 H 0.71359 0.79482 0.67587 0.0
C2517 C 0.70864 0.74274 0.67165 0.0
C2518 C 0.6818 0.75369 0.65761 0.0
C2519 C 0.70933 0.72958 0.67418 0.0
C2520 C 0.67997 0.80493 0.62741 0.0
C2521 C 0.67975 0.79408 0.64119 0.0
C2522 C 0.70463 0.78343 0.67054 0.0
C2523 C 0.69514 0.7424 0.67571 0.0
C2524 C 0.69392 0.7558 0.67056 0.0
C2525 C 0.69324 0.79475 0.64665 0.0
C2526 C 0.69284 0.78139 0.65668 0.0
H2527 H 0.67325 0.70533 0.69133 0.0
H2528 H 0.672 0.72825 0.68652 0.0
H2529 H 0.71462 0.7727 0.68745 0.0
H2530 H 0.71794 0.82754 0.62014 0.0
H2531 H 0.71766 0.80842 0.64352 0.0
C2532 C 0.29604 0.98975 0.70015 0.0
C2533 C 0.30394 0.99865 0.68189 0.0
C2534 C 0.28253 0.9756 0.69701 0.0
C2535 C 0.25235 0.95252 0.65483 0.0
H2536 H 0.24501 0.91798 0.68942 0.0
C2537 C 0.21844 0.8834 0.64241 0.0
C2538 C 0.20603 0.88143 0.63046 0.0
C2539 C 0.228 0.89723 0.65403 0.0
C2540 C 0.24687 0.92749 0.6796 0.0
H2541 H 0.30385 0.99962 0.64598 0.0
H2542 H 0.28062 0.9749 0.64045 0.0
H2543 H 0.26699 0.94337 0.69777 0.0
H2544 H 0.19304 0.89165 0.62256 0.0
H2545 H 0.20918 0.91552 0.64391 0.0
H2546 H 0.23291 0.93663 0.63569 0.0
C2547 C 0.2846 0.97895 0.65728 0.0
C2548 C 0.25941 0.94212 0.68456 0.0
C2549 C 0.29802 0.99311 0.66044 0.0
C2550 C 0.20249 0.8929 0.6319 0.0
C2551 C 0.2119 0.90665 0.64382 0.0
C2552 C 0.23993 0.93792 0.64975 0.0
C2553 C 0.27665 0.97 0.67551 0.0
C2554 C 0.26251 0.95475 0.67187 0.0
C2555 C 0.22524 0.90932 0.65401 0.0
C2556 C 0.23717 0.92512 0.66175 0.0
H2557 H 0.30026 0.99372 0.71692 0.0
H2558 H 0.27664 0.96912 0.71145 0.0
H2559 H 0.25417 0.96202 0.64501 0.0
H2560 H 0.22152 0.87479 0.6411 0.0
H2561 H 0.23818 0.89882 0.66145 0.0
C2562 C 0.01481 0.30747 0.68043 0.0
C2563 C 0.008 0.30936 0.66174 0.0
C2564 C 0.02936 0.3099 0.67911 0.0
C2565 C 0.06368 0.32809 0.64394 0.0
H2566 H 0.07179 0.29897 0.67006 0.0
C2567 C 0.10335 0.30265 0.62317 0.0
C2568 C 0.11589 0.31607 0.61525 0.0
C2569 C 0.09229 0.30342 0.63548 0.0
C2570 C 0.06973 0.30722 0.66268 0.0
H2571 H 0.01114 0.31525 0.62702 0.0
H2572 H 0.0362 0.31916 0.62459 0.0
H2573 H 0.0478 0.29717 0.67721 0.0
H2574 H 0.12761 0.34088 0.61581 0.0
H2575 H 0.10875 0.34236 0.63834 0.0
H2576 H 0.08501 0.33751 0.62814 0.0
C2577 C 0.03052 0.31615 0.64044 0.0
C2578 C 0.05603 0.30629 0.66698 0.0
C2579 C 0.01606 0.31377 0.64178 0.0
C2580 C 0.11799 0.33037 0.62174 0.0
C2581 C 0.10708 0.33117 0.63438 0.0
C2582 C 0.07728 0.32894 0.63949 0.0
C2583 C 0.03739 0.31427 0.65906 0.0
C2584 C 0.05266 0.31644 0.6571 0.0
C2585 C 0.09366 0.31767 0.6403 0.0
C2586 C 0.08035 0.31827 0.64831 0.0
H2587 H 0.0089 0.3041 0.69609 0.0
H2588 H 0.03434 0.30846 0.6938 0.0
H2589 H 0.06162 0.33631 0.63645 0.0
H2590 H 0.1014 0.29148 0.61813 0.0
H2591 H 0.08213 0.29275 0.63956 0.0
C2592 C 0.28128 0.29919 0.67371 0.0
C2593 C 0.29511 0.31234 0.6801 0.0
C2594 C 0.26848 0.30009 0.67046 0.0
C2595 C 0.25799 0.32706 0.65378 0.0
H2596 H 0.21802 0.29661 0.67391 0.0
C2597 C 0.20714 0.32876 0.62352 0.0
C2598 C 0.19477 0.31454 0.61635 0.0
C2599 C 0.21829 0.32942 0.63711 0.0
C2600 C 0.22908 0.30517 0.66805 0.0
H2601 H 0.30627 0.33669 0.68853 0.0
H2602 H 0.28397 0.33829 0.68245 0.0
H2603 H 0.23988 0.29565 0.68591 0.0
H2604 H 0.18381 0.2899 0.61861 0.0
H2605 H 0.20341 0.29092 0.64168 0.0
H2606 H 0.24737 0.33612 0.63491 0.0
C2607 C 0.28305 0.32729 0.68005 0.0
C2608 C 0.24159 0.30463 0.67499 0.0
C2609 C 0.2958 0.32635 0.68357 0.0
C2610 C 0.19316 0.30101 0.62422 0.0
C2611 C 0.20444 0.30164 0.63747 0.0
C2612 C 0.24551 0.32749 0.6466 0.0
C2613 C 0.2693 0.3142 0.67327 0.0
C2614 C 0.25614 0.31545 0.66766 0.0
C2615 C 0.21748 0.31585 0.64332 0.0
C2616 C 0.23083 0.31642 0.65335 0.0
H2617 H 0.28037 0.28821 0.67099 0.0
H2618 H 0.25807 0.28985 0.66502 0.0
H2619 H 0.26905 0.33544 0.64763 0.0
H2620 H 0.20859 0.33934 0.6176 0.0
H2621 H 0.22791 0.34058 0.64181 0.0
C2622 C 0.69328 0.99261 0.66466 0.0
C2623 C 0.696 0.99969 0.6859 0.0
C2624 C 0.69068 0.97782 0.66188 0.0
C2625 C 0.6978 0.95008 0.68704 0.0
H2626 H 0.66758 0.92211 0.64406 0.0
C2627 C 0.67319 0.88802 0.63538 0.0
C2628 C 0.68707 0.89041 0.62788 0.0
C2629 C 0.67277 0.89883 0.64965 0.0
C2630 C 0.67586 0.92957 0.65651 0.0
H2631 H 0.69814 0.99676 0.72091 0.0
H2632 H 0.69367 0.97083 0.71596 0.0
H2633 H 0.66943 0.9462 0.65417 0.0
H2634 H 0.71134 0.90505 0.63116 0.0
H2635 H 0.71066 0.924 0.65583 0.0
H2636 H 0.70444 0.93352 0.68894 0.0
C2637 C 0.69356 0.97681 0.7015 0.0
C2638 C 0.67705 0.94351 0.66204 0.0
C2639 C 0.69606 0.99162 0.70432 0.0
C2640 C 0.70049 0.90287 0.63686 0.0
C2641 C 0.70008 0.91376 0.65098 0.0
C2642 C 0.69662 0.93609 0.68145 0.0
C2643 C 0.69079 0.96974 0.68024 0.0
C2644 C 0.68831 0.95412 0.67685 0.0
C2645 C 0.68621 0.91232 0.65646 0.0
C2646 C 0.68588 0.92583 0.66567 0.0
H2647 H 0.69317 0.9985 0.6501 0.0
H2648 H 0.68882 0.97279 0.64523 0.0
H2649 H 0.7066 0.95804 0.69852 0.0
H2650 H 0.66269 0.87846 0.62872 0.0
H2651 H 0.66189 0.89716 0.65403 0.0
C2652 C 0.02111 0.70077 0.68136 0.0
C2653 C 0.00746 0.69956 0.67557 0.0
C2654 C 0.03491 0.71445 0.67833 0.0
C2655 C 0.05171 0.7488 0.64434 0.0
H2656 H 0.08626 0.76342 0.68358 0.0
C2657 C 0.10815 0.80133 0.6217 0.0
C2658 C 0.12047 0.79929 0.62248 0.0
C2659 C 0.09481 0.79143 0.63278 0.0
C2660 C 0.07672 0.75946 0.67246 0.0
H2661 H 0.99757 0.71201 0.66297 0.0
H2662 H 0.02159 0.73589 0.65797 0.0
H2663 H 0.06177 0.74147 0.69397 0.0
H2664 H 0.12894 0.78605 0.63668 0.0
H2665 H 0.10558 0.7686 0.65592 0.0
H2666 H 0.06659 0.76641 0.62257 0.0
C2667 C 0.02167 0.72618 0.66444 0.0
C2668 C 0.06269 0.74688 0.67838 0.0
C2669 C 0.00788 0.7125 0.66739 0.0
C2670 C 0.11965 0.78795 0.636 0.0
C2671 C 0.10624 0.77794 0.64698 0.0
C2672 C 0.06567 0.76134 0.63846 0.0
C2673 C 0.03537 0.72725 0.6695 0.0
C2674 C 0.05006 0.74129 0.66425 0.0
C2675 C 0.09345 0.77917 0.64468 0.0
C2676 C 0.07839 0.76675 0.65231 0.0
H2677 H 0.02119 0.69103 0.68772 0.0
H2678 H 0.04523 0.71479 0.68217 0.0
H2679 H 0.04234 0.74464 0.63282 0.0
H2680 H 0.10856 0.81007 0.61149 0.0
H2681 H 0.0853 0.79292 0.63111 0.0
C2682 C 0.96583 0.61871 0.67325 0.0
C2683 C 0.96561 0.62717 0.69197 0.0
C2684 C 0.96765 0.60619 0.67573 0.0
C2685 C 0.96418 0.57882 0.71777 0.0
H2686 H 0.99098 0.57296 0.67934 0.0
C2687 C 1.00125 0.54906 0.72386 0.0
C2688 C 0.99104 0.53626 0.73601 0.0
C2689 C 0.99648 0.5579 0.71362 0.0
C2690 C 0.98345 0.57443 0.69021 0.0
H2691 H 0.96732 0.62923 0.72793 0.0
H2692 H 0.97071 0.60771 0.73221 0.0
H2693 H 0.98623 0.59344 0.6721 0.0
H2694 H 0.96768 0.5218 0.74546 0.0
H2695 H 0.95912 0.53673 0.72671 0.0
H2696 H 0.96199 0.56052 0.73666 0.0
C2697 C 0.96917 0.61047 0.71562 0.0
C2698 C 0.98061 0.58607 0.68593 0.0
C2699 C 0.96733 0.62291 0.71315 0.0
C2700 C 0.97574 0.53165 0.73616 0.0
C2701 C 0.97092 0.54033 0.72565 0.0
C2702 C 0.96706 0.56728 0.72211 0.0
C2703 C 0.96927 0.60189 0.69698 0.0
C2704 C 0.9712 0.58862 0.69998 0.0
C2705 C 0.98136 0.55401 0.71522 0.0
C2706 C 0.97694 0.56507 0.70865 0.0
H2707 H 0.96453 0.6217 0.65669 0.0
H2708 H 0.96759 0.59977 0.66104 0.0
H2709 H 0.95665 0.58026 0.7287 0.0
H2710 H 0.01314 0.55293 0.72378 0.0
H2711 H 0.00488 0.56839 0.7059 0.0
C2712 C 0.37378 0.35371 0.65001 0.0
C2713 C 0.36602 0.34447 0.66807 0.0
C2714 C 0.38617 0.36865 0.65357 0.0
C2715 C 0.40357 0.39989 0.69639 0.0
H2716 H 0.44051 0.41421 0.66324 0.0
C2717 C 0.46964 0.44578 0.71243 0.0
C2718 C 0.46842 0.45753 0.72294 0.0
C2719 C 0.45747 0.43394 0.70032 0.0
C2720 C 0.43025 0.4104 0.67256 0.0
H2721 H 0.36527 0.34367 0.70404 0.0
H2722 H 0.38684 0.36957 0.71021 0.0
H2723 H 0.41823 0.38906 0.65389 0.0
H2724 H 0.45423 0.46708 0.72709 0.0
H2725 H 0.4331 0.44667 0.70542 0.0
H2726 H 0.41562 0.42075 0.71576 0.0
C2727 C 0.38326 0.36538 0.69329 0.0
C2728 C 0.41746 0.39605 0.6671 0.0
C2729 C 0.37094 0.35047 0.68974 0.0
C2730 C 0.45539 0.45806 0.7193 0.0
C2731 C 0.44327 0.44631 0.70705 0.0
C2732 C 0.41629 0.41419 0.70181 0.0
C2733 C 0.39099 0.37466 0.67526 0.0
C2734 C 0.4041 0.39049 0.67934 0.0
C2735 C 0.44387 0.4337 0.6984 0.0
C2736 C 0.42989 0.41951 0.69028 0.0
H2737 H 0.37028 0.34944 0.6331 0.0
H2738 H 0.39186 0.37555 0.63935 0.0
H2739 H 0.39338 0.39604 0.70591 0.0
H2740 H 0.4795 0.445 0.71516 0.0
H2741 H 0.45832 0.4244 0.69399 0.0
C2742 C 0.65777 0.04439 0.67565 0.0
C2743 C 0.65918 0.03356 0.66261 0.0
C2744 C 0.64375 0.04301 0.67817 0.0
C2745 C 0.60348 0.01384 0.67749 0.0
H2746 H 0.59886 0.04906 0.68191 0.0
C2747 C 0.54838 0.00659 0.71012 0.0
C2748 C 0.55065 0.01714 0.72745 0.0
C2749 C 0.56022 0.00949 0.69581 0.0
C2750 C 0.59994 0.0391 0.68071 0.0
H2751 H 0.64699 0.01306 0.6414 0.0
H2752 H 0.62249 0.01063 0.6459 0.0
H2753 H 0.62276 0.05238 0.66938 0.0
H2754 H 0.56647 0.03962 0.74195 0.0
H2755 H 0.58711 0.04459 0.71737 0.0
H2756 H 0.58102 1.00067 0.68982 0.0
C2757 C 0.63225 0.02014 0.65427 0.0
C2758 C 0.61364 0.04101 0.67355 0.0
C2759 C 0.6463 0.02156 0.65165 0.0
C2760 C 0.56447 0.03122 0.72886 0.0
C2761 C 0.57628 0.03411 0.71463 0.0
C2762 C 0.58983 0.01195 0.68476 0.0
C2763 C 0.63078 0.03074 0.66778 0.0
C2764 C 0.61569 0.02846 0.67242 0.0
C2765 C 0.57452 0.02298 0.69857 0.0
C2766 C 0.58801 0.02462 0.68705 0.0
H2767 H 0.66746 0.05379 0.68428 0.0
H2768 H 0.64298 0.05127 0.68892 0.0
H2769 H 0.60473 0.00397 0.67703 0.0
H2770 H 0.53786 0.99562 0.70866 0.0
H2771 H 0.55839 1.00081 0.68332 0.0
loop_
_geom_bond_atom_site_label_1
_geom_bond_atom_site_label_2
_geom_bond_distance
_geom_bond_site_symmetry_2
_ccdc_geom_bond_type
C0 O1 1.160 . S
C0 O7 1.185 . S
O1 C0 1.160 . S
O2 Zn3 1.899 1_656 S
O2 C10 1.284 1_556 S
Zn3 O2 1.899 1_454 S
Zn3 O4 2.032 . S
Zn3 O7 2.086 . S
Zn3 O12 1.977 1_554 S
O4 Zn3 2.032 . S
O4 C8 1.278 1_455 S
C5 O6 1.203 1_455 S
C5 O12 1.267 . S
O6 C5 1.203 1_655 S
O7 C0 1.185 . S
O7 Zn3 2.086 . S
C8 O4 1.278 1_655 S
C8 O9 1.211 . S
O9 C8 1.211 . S
C10 O2 1.284 1_554 S
C10 O11 1.273 . S
O11 C10 1.273 . S
O12 Zn3 1.977 1_556 S
O12 C5 1.267 . S
C13 O14 1.152 1_554 S
C13 O20 1.198 . S
O14 C13 1.152 1_556 S
O15 Zn16 1.899 . S
O15 C23 1.284 . S
Zn16 O15 1.899 . S
Zn16 O17 2.032 1_554 S
Zn16 O20 2.086 . S
Zn16 O25 1.977 . S
O17 Zn16 2.032 1_556 S
O17 C21 1.278 . S
C18 O19 1.203 . S
C18 O25 1.267 . S
O19 C18 1.203 . S
O20 C13 1.198 . S
O20 Zn16 2.086 . S
C21 O17 1.278 . S
C21 O22 1.211 . S
O22 C21 1.211 . S
C23 O15 1.284 . S
C23 O24 1.273 . S
O24 C23 1.273 . S
O25 Zn16 1.977 . S
O25 C18 1.267 . S
C26 O27 1.160 1_554 S
C26 O33 1.185 . S
O27 C26 1.160 1_556 S
O28 Zn29 1.899 1_565 S
O28 C36 1.284 . S
Zn29 O28 1.899 1_545 S
Zn29 O30 2.032 1_554 S
Zn29 O33 2.086 . S
Zn29 O38 1.977 . S
O30 Zn29 2.032 1_556 S
O30 C34 1.278 . S
C31 O32 1.203 1_545 S
C31 O38 1.267 . S
O32 C31 1.203 1_565 S
O33 C26 1.185 . S
O33 Zn29 2.086 . S
C34 O30 1.278 . S
C34 O35 1.211 1_545 S
O35 C34 1.211 1_565 S
C36 O28 1.284 . S
C36 O37 1.273 . S
O37 C36 1.273 . S
O38 Zn29 1.977 . S
O38 C31 1.267 . S
C39 O40 1.160 . S
C39 O46 1.185 1_556 S
O40 C39 1.160 . S
O41 Zn42 1.899 1_455 S
O41 C49 1.284 . S
Zn42 O41 1.899 1_655 S
Zn42 O43 2.032 1_554 S
Zn42 O46 2.086 . S
Zn42 O51 1.977 . S
O43 Zn42 2.032 1_556 S
O43 C47 1.278 1_655 S
C44 O45 1.142 1_655 S
C44 O51 1.330 . S
O45 C44 1.142 1_455 S
O46 C39 1.185 1_554 S
O46 Zn42 2.086 . S
C47 O43 1.278 1_455 S
C47 O48 1.211 . S
O48 C47 1.211 . S
C49 O41 1.284 . S
C49 O50 1.273 . S
O50 C49 1.273 . S
O51 Zn42 1.977 . S
O51 C44 1.330 . S
C52 O53 1.160 . S
C52 O59 1.185 . S
O53 C52 1.160 . S
O54 Zn55 1.899 1_556 S
O54 C62 1.284 . S
Zn55 O54 1.899 1_554 S
Zn55 O56 2.032 . S
Zn55 O59 2.086 . S
Zn55 O64 1.977 1_554 S
O56 Zn55 2.032 . S
O56 C60 1.278 . S
C57 O58 1.203 . S
C57 O64 1.267 . S
O58 C57 1.203 . S
O59 C52 1.185 . S
O59 Zn55 2.086 . S
C60 O56 1.278 . S
C60 O61 1.211 . S
O61 C60 1.211 . S
C62 O54 1.284 . S
C62 O63 1.273 1_556 S
O63 C62 1.273 1_554 S
O64 Zn55 1.977 1_556 S
O64 C57 1.267 . S
C65 O66 1.160 . S
C65 O72 1.185 . S
O66 C65 1.160 . S
O67 Zn68 1.899 1_546 S
O67 C75 1.284 . S
Zn68 O67 1.899 1_564 S
Zn68 O69 2.055 . S
Zn68 O72 2.086 . S
Zn68 O77 1.977 1_554 S
O69 Zn68 2.055 . S
O69 C73 1.204 1_565 S
C70 O71 1.203 1_565 S
C70 O77 1.267 . S
O71 C70 1.203 1_545 S
O72 C65 1.185 . S
O72 Zn68 2.086 . S
C73 O69 1.204 1_545 S
C73 O74 1.211 . S
O74 C73 1.211 . S
C75 O67 1.284 . S
C75 O76 1.273 1_556 S
O76 C75 1.273 1_554 S
O77 Zn68 1.977 1_556 S
O77 C70 1.267 . S
C78 O79 1.160 . S
C78 O85 1.185 . S
O79 C78 1.160 . S
O80 Zn81 1.899 . S
O80 C88 1.284 . S
Zn81 O80 1.899 . S
Zn81 O82 2.032 . S
Zn81 O85 2.086 . S
Zn81 O90 1.977 . S
O82 Zn81 2.032 . S
O82 C86 1.278 . S
C83 O84 1.203 . S
C83 O90 1.267 . S
O84 C83 1.203 . S
O85 C78 1.185 . S
O85 Zn81 2.086 . S
C86 O82 1.278 . S
C86 O87 1.211 . S
O87 C86 1.211 . S
C88 O80 1.284 . S
C88 O89 1.273 . S
O89 C88 1.273 . S
O90 Zn81 1.977 . S
O90 C83 1.267 . S
C91 O92 1.153 . S
C91 O98 1.185 . S
O92 C91 1.153 . S
O93 Zn94 1.899 1_545 S
O93 C101 1.284 . S
Zn94 O93 1.899 1_565 S
Zn94 O95 2.032 . S
Zn94 O98 2.086 . S
Zn94 O103 1.977 . S
O95 Zn94 2.032 . S
O95 C99 1.278 . S
C96 O97 1.203 . S
C96 O103 1.267 . S
O97 C96 1.203 . S
O98 C91 1.185 . S
O98 Zn94 2.086 . S
C99 O95 1.278 . S
C99 O100 1.211 . S
O100 C99 1.211 . S
C101 O93 1.284 . S
C101 O102 1.278 . S
O102 C101 1.278 . S
O103 Zn94 1.977 . S
O103 C96 1.267 . S
C104 O105 1.160 . S
C104 O111 1.185 . S
O105 C104 1.160 . S
O106 Zn107 1.899 . S
O106 C114 1.284 1_455 S
Zn107 O106 1.899 . S
Zn107 O108 2.032 . S
Zn107 O111 2.086 . S
Zn107 O116 1.977 . S
O108 Zn107 2.032 . S
O108 C112 1.278 . S
C109 O110 1.203 . S
C109 O116 1.267 . S
O110 C109 1.203 . S
O111 C104 1.185 . S
O111 Zn107 2.086 . S
C112 O108 1.278 . S
C112 O113 1.211 . S
O113 C112 1.211 . S
C114 O106 1.284 1_655 S
C114 O115 1.273 1_655 S
O115 C114 1.273 1_455 S
O116 Zn107 1.977 . S
O116 C109 1.267 . S
C117 O118 1.155 1_565 S
C117 O124 1.185 . S
O118 C117 1.155 1_545 S
O119 Zn120 1.899 1_545 S
O119 C127 1.284 . S
Zn120 O119 1.899 1_565 S
Zn120 O121 2.032 . S
Zn120 O124 2.086 . S
Zn120 O129 1.977 . S
O121 Zn120 2.032 . S
O121 C125 1.278 . S
C122 O123 1.203 . S
C122 O129 1.267 . S
O123 C122 1.203 . S
O124 C117 1.185 . S
O124 Zn120 2.086 . S
C125 O121 1.278 . S
C125 O126 1.211 . S
O126 C125 1.211 . S
C127 O119 1.284 . S
C127 O128 1.273 . S
O128 C127 1.273 . S
O129 Zn120 1.977 . S
O129 C122 1.267 . S
C130 O131 1.160 . S
C130 O137 1.185 . S
O131 C130 1.160 . S
O132 Zn133 1.899 . S
O132 C140 1.284 . S
Zn133 O132 1.899 . S
Zn133 O134 2.032 . S
Zn133 O137 2.086 1_455 S
Zn133 O142 1.977 . S
O134 Zn133 2.032 . S
O134 C138 1.278 . S
C135 O136 1.203 . S
C135 O142 1.267 . S
O136 C135 1.203 . S
O137 C130 1.185 . S
O137 Zn133 2.086 1_655 S
C138 O134 1.278 . S
C138 O139 1.211 . S
O139 C138 1.211 . S
C140 O132 1.284 . S
C140 O141 1.273 . S
O141 C140 1.273 . S
O142 Zn133 1.977 . S
O142 C135 1.267 . S
C143 O144 1.160 . S
C143 O150 1.185 . S
O144 C143 1.160 . S
O145 Zn146 1.899 . S
O145 C153 1.284 . S
Zn146 O145 1.899 . S
Zn146 O147 2.032 . S
Zn146 O150 2.086 . S
Zn146 O155 1.977 . S
O147 Zn146 2.032 . S
O147 C151 1.278 . S
C148 O149 1.203 . S
C148 O155 1.267 . S
O149 C148 1.203 . S
O150 C143 1.185 . S
O150 Zn146 2.086 . S
C151 O147 1.278 . S
C151 O152 1.211 . S
O152 C151 1.211 . S
C153 O145 1.284 . S
C153 O154 1.273 . S
O154 C153 1.273 . S
O155 Zn146 1.977 . S
O155 C148 1.267 . S
C156 O157 1.160 . S
C156 O163 1.185 . S
O157 C156 1.160 . S
O158 Zn159 1.899 . S
O158 C166 1.284 1_545 S
Zn159 O158 1.899 . S
Zn159 O160 2.032 . S
Zn159 O163 2.086 . S
Zn159 O168 1.977 . S
O160 Zn159 2.032 . S
O160 C164 1.278 . S
C161 O162 1.203 . S
C161 O168 1.267 . S
O162 C161 1.203 . S
O163 C156 1.185 . S
O163 Zn159 2.086 . S
C164 O160 1.278 . S
C164 O165 1.211 . S
O165 C164 1.211 . S
C166 O158 1.284 1_565 S
C166 O167 1.273 1_565 S
O167 C166 1.273 1_545 S
O168 Zn159 1.977 . S
O168 C161 1.267 . S
C169 O170 1.160 . S
C169 O176 1.185 . S
O170 C169 1.160 . S
O171 Zn172 1.899 . S
O171 C179 1.284 . S
Zn172 O171 1.899 . S
Zn172 O173 2.032 . S
Zn172 O176 2.086 1_655 S
Zn172 O181 1.977 . S
O173 Zn172 2.032 . S
O173 C177 1.278 . S
C174 O175 1.203 . S
C174 O181 1.267 . S
O175 C174 1.203 . S
O176 C169 1.185 . S
O176 Zn172 2.086 1_455 S
C177 O173 1.278 . S
C177 O178 1.211 . S
O178 C177 1.211 . S
C179 O171 1.284 . S
C179 O180 1.273 . S
O180 C179 1.273 . S
O181 Zn172 1.977 . S
O181 C174 1.267 . S
C182 O183 1.160 . S
C182 O189 1.185 . S
O183 C182 1.160 . S
O184 Zn185 1.899 . S
O184 C192 1.284 . S
Zn185 O184 1.899 . S
Zn185 O186 2.032 . S
Zn185 O189 2.086 . S
Zn185 O194 1.977 . S
O186 Zn185 2.032 . S
O186 C190 1.278 . S
C187 O188 1.203 . S
C187 O194 1.267 . S
O188 C187 1.203 . S
O189 C182 1.185 . S
O189 Zn185 2.086 . S
C190 O186 1.278 . S
C190 O191 1.211 . S
O191 C190 1.211 . S
C192 O184 1.284 . S
C192 O193 1.273 . S
O193 C192 1.273 . S
O194 Zn185 1.977 . S
O194 C187 1.267 . S
C195 O196 1.160 . S
C195 O202 1.185 . S
O196 C195 1.160 . S
O197 Zn198 1.899 . S
O197 C205 1.284 . S
Zn198 O197 1.899 . S
Zn198 O199 2.032 . S
Zn198 O202 2.086 . S
Zn198 O207 1.977 . S
O199 Zn198 2.032 . S
O199 C203 1.278 . S
C200 O201 1.203 . S
C200 O207 1.267 . S
O201 C200 1.203 . S
O202 C195 1.185 . S
O202 Zn198 2.086 . S
C203 O199 1.278 . S
C203 O204 1.211 . S
O204 C203 1.211 . S
C205 O197 1.284 . S
C205 O206 1.273 . S
O206 C205 1.273 . S
O207 Zn198 1.977 . S
O207 C200 1.267 . S
C208 O209 1.160 . S
C208 O215 1.185 . S
O209 C208 1.160 . S
O210 Zn211 1.899 . S
O210 C218 1.284 1_545 S
Zn211 O210 1.899 . S
Zn211 O212 2.032 . S
Zn211 O215 2.086 . S
Zn211 O220 1.977 . S
O212 Zn211 2.032 . S
O212 C216 1.278 . S
C213 O214 1.203 . S
C213 O220 1.267 . S
O214 C213 1.203 . S
O215 C208 1.185 . S
O215 Zn211 2.086 . S
C216 O212 1.278 . S
C216 O217 1.211 . S
O217 C216 1.211 . S
C218 O210 1.284 1_565 S
C218 O219 1.273 1_565 S
O219 C218 1.273 1_545 S
O220 Zn211 1.977 . S
O220 C213 1.267 . S
C221 O222 1.160 . S
C221 O228 1.185 . S
O222 C221 1.160 . S
O223 Zn224 1.899 . S
O223 C231 1.284 1_655 S
Zn224 O223 1.899 . S
Zn224 O225 2.032 . S
Zn224 O228 2.086 . S
Zn224 O233 1.977 . S
O225 Zn224 2.032 . S
O225 C229 1.278 . S
C226 O227 1.203 . S
C226 O233 1.267 . S
O227 C226 1.203 . S
O228 C221 1.185 . S
O228 Zn224 2.086 . S
C229 O225 1.278 . S
C229 O230 1.211 . S
O230 C229 1.211 . S
C231 O223 1.284 1_455 S
C231 O232 1.273 1_455 S
O232 C231 1.273 1_655 S
O233 Zn224 1.977 . S
O233 C226 1.267 . S
H234 C242 0.930 . S
H235 C245 0.930 . S
H236 C247 0.930 . S
H237 C248 0.970 . S
H238 C248 0.970 . S
H239 C250 0.930 . S
H240 C252 0.930 . S
H241 C254 0.930 . S
C242 H234 0.930 . S
C242 C243 1.382 . S
C242 C244 1.426 . S
C243 C242 1.382 . S
C243 C247 1.389 . S
C244 C242 1.426 . S
C244 C245 1.375 . S
C244 C248 1.532 . S
C245 H235 0.930 . S
C245 C244 1.375 . S
C245 C246 1.416 . S
C246 C245 1.416 . S
C246 C247 1.371 . S
C247 H236 0.930 . S
C247 C243 1.389 . S
C247 C246 1.371 . S
C248 H237 0.970 . S
C248 H238 0.970 . S
C248 C244 1.532 . S
C248 C249 1.499 . S
C249 C248 1.499 . S
C249 C250 1.370 . S
C249 C254 1.415 . S
C250 H239 0.930 . S
C250 C249 1.370 . S
C250 C251 1.407 . S
C251 C250 1.407 . S
C251 C252 1.365 . S
C252 H240 0.930 . S
C252 C251 1.365 . S
C252 C253 1.393 . S
C253 C252 1.393 . S
C253 C254 1.387 . S
C254 H241 0.930 . S
C254 C249 1.415 . S
C254 C253 1.387 . S
H255 C263 0.930 . S
H256 C266 0.930 . S
H257 C268 0.930 . S
H258 C269 0.970 . S
H259 C269 0.970 . S
H260 C271 0.930 . S
H261 C273 0.930 . S
H262 C275 0.930 . S
C263 H255 0.930 . S
C263 C264 1.382 . S
C263 C265 1.426 . S
C264 C263 1.382 . S
C264 C268 1.389 . S
C265 C263 1.426 . S
C265 C266 1.375 . S
C265 C269 1.532 . S
C266 H256 0.930 . S
C266 C265 1.375 . S
C266 C267 1.416 . S
C267 C266 1.416 . S
C267 C268 1.371 . S
C268 H257 0.930 . S
C268 C264 1.389 . S
C268 C267 1.371 . S
C269 H258 0.970 . S
C269 H259 0.970 . S
C269 C265 1.532 . S
C269 C270 1.499 . S
C270 C269 1.499 . S
C270 C271 1.370 . S
C270 C275 1.415 . S
C271 H260 0.930 . S
C271 C270 1.370 . S
C271 C272 1.407 . S
C272 C271 1.407 . S
C272 C273 1.365 . S
C273 H261 0.930 . S
C273 C272 1.365 . S
C273 C274 1.393 . S
C274 C273 1.393 . S
C274 C275 1.387 . S
C275 H262 0.930 . S
C275 C270 1.415 . S
C275 C274 1.387 . S
H276 C284 0.930 . S
H277 C287 0.930 . S
H278 C289 0.930 . S
H279 C290 0.970 . S
H280 C290 0.970 . S
H281 C292 0.930 . S
H282 C294 0.930 . S
H283 C296 0.930 . S
C284 H276 0.930 . S
C284 C285 1.382 . S
C284 C286 1.426 . S
C285 C284 1.382 . S
C285 C289 1.389 . S
C286 C284 1.426 . S
C286 C287 1.375 . S
C286 C290 1.532 . S
C287 H277 0.930 . S
C287 C286 1.375 . S
C287 C288 1.416 . S
C288 C287 1.416 . S
C288 C289 1.371 . S
C289 H278 0.930 . S
C289 C285 1.389 . S
C289 C288 1.371 . S
C290 H279 0.970 . S
C290 H280 0.970 . S
C290 C286 1.532 . S
C290 C291 1.499 . S
C291 C290 1.499 . S
C291 C292 1.370 . S
C291 C296 1.415 . S
C292 H281 0.930 . S
C292 C291 1.370 . S
C292 C293 1.407 . S
C293 C292 1.407 . S
C293 C294 1.365 . S
C294 H282 0.930 . S
C294 C293 1.365 . S
C294 C295 1.393 . S
C295 C294 1.393 . S
C295 C296 1.387 . S
C296 H283 0.930 . S
C296 C291 1.415 . S
C296 C295 1.387 . S
H297 C305 0.930 . S
H298 C308 0.930 . S
H299 C310 0.930 . S
H300 C311 0.970 . S
H301 C311 0.970 . S
H302 C313 0.930 . S
H303 C315 0.930 . S
H304 C317 0.930 . S
C305 H297 0.930 . S
C305 C306 1.382 . S
C305 C307 1.426 . S
C306 C305 1.382 . S
C306 C310 1.389 . S
C307 C305 1.426 . S
C307 C308 1.375 . S
C307 C311 1.532 . S
C308 H298 0.930 . S
C308 C307 1.375 . S
C308 C309 1.416 . S
C309 C308 1.416 . S
C309 C310 1.371 . S
C310 H299 0.930 . S
C310 C306 1.389 . S
C310 C309 1.371 . S
C311 H300 0.970 . S
C311 H301 0.970 . S
C311 C307 1.532 . S
C311 C312 1.499 . S
C312 C311 1.499 . S
C312 C313 1.370 . S
C312 C317 1.415 . S
C313 H302 0.930 . S
C313 C312 1.370 . S
C313 C314 1.407 . S
C314 C313 1.407 . S
C314 C315 1.365 . S
C315 H303 0.930 . S
C315 C314 1.365 . S
C315 C316 1.393 . S
C316 C315 1.393 . S
C316 C317 1.387 . S
C317 H304 0.930 . S
C317 C312 1.415 . S
C317 C316 1.387 . S
H318 C326 0.930 . S
H319 C329 0.930 . S
H320 C331 0.930 . S
H321 C332 0.970 . S
H322 C332 0.970 . S
H323 C334 0.930 . S
H324 C336 0.930 . S
H325 C338 0.930 . S
C326 H318 0.930 . S
C326 C327 1.382 . S
C326 C328 1.426 . S
C327 C326 1.382 . S
C327 C331 1.389 . S
C328 C326 1.426 . S
C328 C329 1.375 . S
C328 C332 1.532 . S
C329 H319 0.930 . S
C329 C328 1.375 . S
C329 C330 1.416 . S
C330 C329 1.416 . S
C330 C331 1.371 . S
C331 H320 0.930 . S
C331 C327 1.389 . S
C331 C330 1.371 . S
C332 H321 0.970 . S
C332 H322 0.970 . S
C332 C328 1.532 . S
C332 C333 1.499 . S
C333 C332 1.499 . S
C333 C334 1.370 . S
C333 C338 1.415 . S
C334 H323 0.930 . S
C334 C333 1.370 . S
C334 C335 1.407 . S
C335 C334 1.407 . S
C335 C336 1.365 . S
C336 H324 0.930 . S
C336 C335 1.365 . S
C336 C337 1.393 . S
C337 C336 1.393 . S
C337 C338 1.387 . S
C338 H325 0.930 . S
C338 C333 1.415 . S
C338 C337 1.387 . S
H339 C347 0.930 . S
H340 C350 0.930 . S
H341 C352 0.930 . S
H342 C353 0.970 . S
H343 C353 0.970 . S
H344 C355 0.930 . S
H345 C357 0.930 . S
H346 C359 0.930 . S
C347 H339 0.930 . S
C347 C348 1.382 . S
C347 C349 1.426 . S
C348 C347 1.382 . S
C348 C352 1.389 . S
C349 C347 1.426 . S
C349 C350 1.375 . S
C349 C353 1.532 . S
C350 H340 0.930 . S
C350 C349 1.375 . S
C350 C351 1.416 . S
C351 C350 1.416 . S
C351 C352 1.371 . S
C352 H341 0.930 . S
C352 C348 1.389 . S
C352 C351 1.371 . S
C353 H342 0.970 . S
C353 H343 0.970 . S
C353 C349 1.532 . S
C353 C354 1.499 . S
C354 C353 1.499 . S
C354 C355 1.370 . S
C354 C359 1.415 . S
C355 H344 0.930 . S
C355 C354 1.370 . S
C355 C356 1.407 . S
C356 C355 1.407 . S
C356 C357 1.365 . S
C357 H345 0.930 . S
C357 C356 1.365 . S
C357 C358 1.393 . S
C358 C357 1.393 . S
C358 C359 1.387 . S
C359 H346 0.930 . S
C359 C354 1.415 . S
C359 C358 1.387 . S
H360 C368 0.930 . S
H361 C371 0.930 . S
H362 C373 0.930 . S
H363 C374 0.970 . S
H364 C374 0.970 . S
H365 C376 0.930 . S
H366 C378 0.930 . S
H367 C380 0.930 . S
C368 H360 0.930 . S
C368 C369 1.382 . S
C368 C370 1.426 . S
C369 C368 1.382 . S
C369 C373 1.389 . S
C370 C368 1.426 . S
C370 C371 1.375 . S
C370 C374 1.532 . S
C371 H361 0.930 . S
C371 C370 1.375 . S
C371 C372 1.416 . S
C372 C371 1.416 . S
C372 C373 1.371 . S
C373 H362 0.930 . S
C373 C369 1.389 . S
C373 C372 1.371 . S
C374 H363 0.970 . S
C374 H364 0.970 . S
C374 C370 1.532 . S
C374 C375 1.499 . S
C375 C374 1.499 . S
C375 C376 1.370 . S
C375 C380 1.415 . S
C376 H365 0.930 . S
C376 C375 1.370 . S
C376 C377 1.407 . S
C377 C376 1.407 . S
C377 C378 1.365 . S
C378 H366 0.930 . S
C378 C377 1.365 . S
C378 C379 1.393 . S
C379 C378 1.393 . S
C379 C380 1.387 . S
C380 H367 0.930 . S
C380 C375 1.415 . S
C380 C379 1.387 . S
H381 C389 0.930 . S
H382 C392 0.930 . S
H383 C394 0.930 . S
H384 C395 0.970 . S
H385 C395 0.970 . S
H386 C397 0.930 . S
H387 C399 0.930 . S
H388 C401 0.930 . S
C389 H381 0.930 . S
C389 C390 1.382 . S
C389 C391 1.426 . S
C390 C389 1.382 . S
C390 C394 1.389 . S
C391 C389 1.426 . S
C391 C392 1.375 . S
C391 C395 1.532 . S
C392 H382 0.930 . S
C392 C391 1.375 . S
C392 C393 1.416 . S
C393 C392 1.416 . S
C393 C394 1.371 . S
C394 H383 0.930 . S
C394 C390 1.389 . S
C394 C393 1.371 . S
C395 H384 0.970 . S
C395 H385 0.970 . S
C395 C391 1.532 . S
C395 C396 1.499 . S
C396 C395 1.499 . S
C396 C397 1.370 . S
C396 C401 1.415 . S
C397 H386 0.930 . S
C397 C396 1.370 . S
C397 C398 1.407 . S
C398 C397 1.407 . S
C398 C399 1.365 . S
C399 H387 0.930 . S
C399 C398 1.365 . S
C399 C400 1.393 . S
C400 C399 1.393 . S
C400 C401 1.387 . S
C401 H388 0.930 . S
C401 C396 1.415 . S
C401 C400 1.387 . S
H402 C410 0.930 . S
H403 C413 0.930 . S
H404 C415 0.930 . S
H405 C416 0.970 . S
H406 C416 0.970 . S
H407 C418 0.930 . S
H408 C420 0.930 . S
H409 C422 0.930 . S
C410 H402 0.930 . S
C410 C411 1.382 . S
C410 C412 1.426 . S
C411 C410 1.382 . S
C411 C415 1.389 . S
C412 C410 1.426 . S
C412 C413 1.375 . S
C412 C416 1.532 . S
C413 H403 0.930 . S
C413 C412 1.375 . S
C413 C414 1.416 . S
C414 C413 1.416 . S
C414 C415 1.371 . S
C415 H404 0.930 . S
C415 C411 1.389 . S
C415 C414 1.371 . S
C416 H405 0.970 . S
C416 H406 0.970 . S
C416 C412 1.532 . S
C416 C417 1.499 . S
C417 C416 1.499 . S
C417 C418 1.370 . S
C417 C422 1.415 . S
C418 H407 0.930 . S
C418 C417 1.370 . S
C418 C419 1.407 . S
C419 C418 1.407 . S
C419 C420 1.365 . S
C420 H408 0.930 . S
C420 C419 1.365 . S
C420 C421 1.393 . S
C421 C420 1.393 . S
C421 C422 1.387 . S
C422 H409 0.930 . S
C422 C417 1.415 . S
C422 C421 1.387 . S
H423 C431 0.930 . S
H424 C434 0.930 . S
H425 C436 0.930 . S
H426 C437 0.970 . S
H427 C437 0.970 . S
H428 C439 0.930 . S
H429 C441 0.930 . S
H430 C443 0.930 . S
C431 H423 0.930 . S
C431 C432 1.382 . S
C431 C433 1.426 . S
C432 C431 1.382 . S
C432 C436 1.389 1_455 S
C433 C431 1.426 . S
C433 C434 1.375 . S
C433 C437 1.532 . S
C434 H424 0.930 . S
C434 C433 1.375 . S
C434 C435 1.416 . S
C435 C434 1.416 . S
C435 C436 1.371 1_455 S
C436 H425 0.930 . S
C436 C432 1.389 1_655 S
C436 C435 1.371 1_655 S
C437 H426 0.970 . S
C437 H427 0.970 . S
C437 C433 1.532 . S
C437 C438 1.499 . S
C438 C437 1.499 . S
C438 C439 1.370 . S
C438 C443 1.415 . S
C439 H428 0.930 . S
C439 C438 1.370 . S
C439 C440 1.411 . S
C440 C439 1.411 . S
C440 C441 1.376 1_455 S
C441 H429 0.930 . S
C441 C440 1.376 1_655 S
C441 C442 1.393 1_655 S
C442 C441 1.393 1_455 S
C442 C443 1.387 . S
C443 H430 0.930 . S
C443 C438 1.415 . S
C443 C442 1.387 . S
H444 C452 0.930 . S
H445 C455 0.930 . S
H446 C457 0.930 . S
H447 C458 0.970 . S
H448 C458 0.970 . S
H449 C460 0.930 . S
H450 C462 0.930 . S
H451 C464 0.930 . S
C452 H444 0.930 . S
C452 C453 1.382 . S
C452 C454 1.426 . S
C453 C452 1.382 . S
C453 C457 1.389 . S
C454 C452 1.426 . S
C454 C455 1.375 . S
C454 C458 1.532 . S
C455 H445 0.930 . S
C455 C454 1.375 . S
C455 C456 1.416 . S
C456 C455 1.416 . S
C456 C457 1.371 . S
C457 H446 0.930 . S
C457 C453 1.389 . S
C457 C456 1.371 . S
C458 H447 0.970 . S
C458 H448 0.970 . S
C458 C454 1.532 . S
C458 C459 1.499 . S
C459 C458 1.499 . S
C459 C460 1.370 . S
C459 C464 1.415 . S
C460 H449 0.930 . S
C460 C459 1.370 . S
C460 C461 1.407 . S
C461 C460 1.407 . S
C461 C462 1.365 . S
C462 H450 0.930 . S
C462 C461 1.365 . S
C462 C463 1.393 . S
C463 C462 1.393 . S
C463 C464 1.387 . S
C464 H451 0.930 . S
C464 C459 1.415 . S
C464 C463 1.387 . S
H465 C473 0.930 . S
H466 C476 0.930 . S
H467 C478 0.934 . S
H468 C479 0.970 . S
H469 C479 0.970 . S
H470 C481 0.930 . S
H471 C483 0.930 . S
H472 C485 0.930 . S
C473 H465 0.930 . S
C473 C474 1.382 . S
C473 C475 1.426 . S
C474 C473 1.382 . S
C474 C478 1.394 1_565 S
C475 C473 1.426 . S
C475 C476 1.375 . S
C475 C479 1.532 . S
C476 H466 0.930 . S
C476 C475 1.375 . S
C476 C477 1.416 . S
C477 C476 1.416 . S
C477 C478 1.370 1_565 S
C478 H467 0.934 . S
C478 C474 1.394 1_545 S
C478 C477 1.370 1_545 S
C479 H468 0.970 . S
C479 H469 0.970 . S
C479 C475 1.532 . S
C479 C480 1.499 . S
C480 C479 1.499 . S
C480 C481 1.370 . S
C480 C485 1.415 . S
C481 H470 0.930 . S
C481 C480 1.370 . S
C481 C482 1.403 . S
C482 C481 1.403 . S
C482 C483 1.366 1_565 S
C483 H471 0.930 . S
C483 C482 1.366 1_545 S
C483 C484 1.393 1_545 S
C484 C483 1.393 1_565 S
C484 C485 1.387 . S
C485 H472 0.930 . S
C485 C480 1.415 . S
C485 C484 1.387 . S
H486 C494 0.930 . S
H487 C497 0.930 . S
H488 C499 0.930 . S
H489 C500 0.970 . S
H490 C500 0.970 . S
H491 C502 0.930 . S
H492 C504 0.930 . S
H493 C506 0.930 . S
C494 H486 0.930 . S
C494 C495 1.382 . S
C494 C496 1.426 . S
C495 C494 1.382 . S
C495 C499 1.389 1_565 S
C496 C494 1.426 . S
C496 C497 1.375 . S
C496 C500 1.532 . S
C497 H487 0.930 . S
C497 C496 1.375 . S
C497 C498 1.461 . S
C498 C497 1.461 . S
C498 C499 1.355 1_565 S
C499 H488 0.930 . S
C499 C495 1.389 1_545 S
C499 C498 1.355 1_545 S
C500 H489 0.970 . S
C500 H490 0.970 . S
C500 C496 1.532 . S
C500 C501 1.499 . S
C501 C500 1.499 . S
C501 C502 1.370 . S
C501 C506 1.415 . S
C502 H491 0.930 . S
C502 C501 1.370 . S
C502 C503 1.407 . S
C503 C502 1.407 . S
C503 C504 1.365 1_565 S
C504 H492 0.930 . S
C504 C503 1.365 1_545 S
C504 C505 1.393 1_545 S
C505 C504 1.393 1_565 S
C505 C506 1.387 . S
C506 H493 0.930 . S
C506 C501 1.415 . S
C506 C505 1.387 . S
H507 C515 0.930 . S
H508 C518 0.930 . S
H509 C520 0.934 . S
H510 C521 0.970 . S
H511 C521 0.970 . S
H512 C523 0.930 . S
H513 C525 0.930 . S
H514 C527 0.930 . S
C515 H507 0.930 . S
C515 C516 1.382 . S
C515 C517 1.426 . S
C516 C515 1.382 . S
C516 C520 1.382 1_455 S
C517 C515 1.426 . S
C517 C518 1.375 . S
C517 C521 1.532 . S
C518 H508 0.930 . S
C518 C517 1.375 . S
C518 C519 1.416 . S
C519 C518 1.416 . S
C519 C520 1.382 1_455 S
C520 H509 0.934 . S
C520 C516 1.382 1_655 S
C520 C519 1.382 1_655 S
C521 H510 0.970 . S
C521 H511 0.970 . S
C521 C517 1.532 . S
C521 C522 1.499 . S
C522 C521 1.499 . S
C522 C523 1.370 . S
C522 C527 1.415 . S
C523 H512 0.930 . S
C523 C522 1.370 . S
C523 C524 1.407 . S
C524 C523 1.407 . S
C524 C525 1.365 1_455 S
C525 H513 0.930 . S
C525 C524 1.365 1_655 S
C525 C526 1.393 1_655 S
C526 C525 1.393 1_455 S
C526 C527 1.387 . S
C527 H514 0.930 . S
C527 C522 1.415 . S
C527 C526 1.387 . S
H528 C536 0.930 . S
H529 C539 0.930 . S
H530 C541 0.930 . S
H531 C542 0.970 . S
H532 C542 0.970 . S
H533 C544 0.930 . S
H534 C546 0.930 . S
H535 C548 0.930 . S
C536 H528 0.930 . S
C536 C537 1.382 . S
C536 C538 1.426 . S
C537 C536 1.382 . S
C537 C541 1.389 . S
C538 C536 1.426 . S
C538 C539 1.375 . S
C538 C542 1.532 . S
C539 H529 0.930 . S
C539 C538 1.375 . S
C539 C540 1.416 . S
C540 C539 1.416 . S
C540 C541 1.371 . S
C541 H530 0.930 . S
C541 C537 1.389 . S
C541 C540 1.371 . S
C542 H531 0.970 . S
C542 H532 0.970 . S
C542 C538 1.532 . S
C542 C543 1.499 . S
C543 C542 1.499 . S
C543 C544 1.370 . S
C543 C548 1.415 . S
C544 H533 0.930 . S
C544 C543 1.370 . S
C544 C545 1.407 . S
C545 C544 1.407 . S
C545 C546 1.365 . S
C546 H534 0.930 . S
C546 C545 1.365 . S
C546 C547 1.393 . S
C547 C546 1.393 . S
C547 C548 1.387 . S
C548 H535 0.930 . S
C548 C543 1.415 . S
C548 C547 1.387 . S
H549 C557 0.930 . S
H550 C560 0.930 . S
H551 C562 0.930 . S
H552 C563 0.970 . S
H553 C563 0.970 . S
H554 C565 0.930 . S
H555 C567 0.930 . S
H556 C569 0.930 . S
C557 H549 0.930 . S
C557 C558 1.382 . S
C557 C559 1.426 . S
C558 C557 1.382 . S
C558 C562 1.389 . S
C559 C557 1.426 . S
C559 C560 1.375 . S
C559 C563 1.532 . S
C560 H550 0.930 . S
C560 C559 1.375 . S
C560 C561 1.416 . S
C561 C560 1.416 . S
C561 C562 1.371 . S
C562 H551 0.930 . S
C562 C558 1.389 . S
C562 C561 1.371 . S
C563 H552 0.970 . S
C563 H553 0.970 . S
C563 C559 1.532 . S
C563 C564 1.499 . S
C564 C563 1.499 . S
C564 C565 1.370 . S
C564 C569 1.415 . S
C565 H554 0.930 . S
C565 C564 1.370 . S
C565 C566 1.407 . S
C566 C565 1.407 . S
C566 C567 1.365 . S
C567 H555 0.930 . S
C567 C566 1.365 . S
C567 C568 1.393 . S
C568 C567 1.393 . S
C568 C569 1.387 . S
C569 H556 0.930 . S
C569 C564 1.415 . S
C569 C568 1.387 . S
H570 C578 0.930 . S
H571 C581 0.930 . S
H572 C583 0.930 . S
H573 C584 0.970 . S
H574 C584 0.970 . S
H575 C586 0.930 . S
H576 C588 0.930 . S
H577 C590 0.930 . S
C578 H570 0.930 . S
C578 C579 1.382 . S
C578 C580 1.426 . S
C579 C578 1.382 . S
C579 C583 1.389 . S
C580 C578 1.426 . S
C580 C581 1.375 . S
C580 C584 1.532 . S
C581 H571 0.930 . S
C581 C580 1.375 . S
C581 C582 1.416 . S
C582 C581 1.416 . S
C582 C583 1.371 . S
C583 H572 0.930 . S
C583 C579 1.389 . S
C583 C582 1.371 . S
C584 H573 0.970 . S
C584 H574 0.970 . S
C584 C580 1.532 . S
C584 C585 1.499 . S
C585 C584 1.499 . S
C585 C586 1.370 . S
C585 C590 1.415 . S
C586 H575 0.930 . S
C586 C585 1.370 . S
C586 C587 1.407 . S
C587 C586 1.407 . S
C587 C588 1.365 . S
C588 H576 0.930 . S
C588 C587 1.365 . S
C588 C589 1.393 . S
C589 C588 1.393 . S
C589 C590 1.387 . S
C590 H577 0.930 . S
C590 C585 1.415 . S
C590 C589 1.387 . S
H591 C599 0.930 . S
H592 C602 0.930 . S
H593 C604 0.930 . S
H594 C605 0.970 . S
H595 C605 0.970 . S
H596 C607 0.930 . S
H597 C609 0.930 . S
H598 C611 0.930 . S
C599 H591 0.930 . S
C599 C600 1.382 . S
C599 C601 1.426 . S
C600 C599 1.382 . S
C600 C604 1.389 . S
C601 C599 1.426 . S
C601 C602 1.375 . S
C601 C605 1.532 . S
C602 H592 0.930 . S
C602 C601 1.375 . S
C602 C603 1.416 . S
C603 C602 1.416 . S
C603 C604 1.371 . S
C604 H593 0.930 . S
C604 C600 1.389 . S
C604 C603 1.371 . S
C605 H594 0.970 . S
C605 H595 0.970 . S
C605 C601 1.532 . S
C605 C606 1.499 . S
C606 C605 1.499 . S
C606 C607 1.370 . S
C606 C611 1.415 . S
C607 H596 0.930 . S
C607 C606 1.370 . S
C607 C608 1.407 . S
C608 C607 1.407 . S
C608 C609 1.365 . S
C609 H597 0.930 . S
C609 C608 1.365 . S
C609 C610 1.393 . S
C610 C609 1.393 . S
C610 C611 1.387 . S
C611 H598 0.930 . S
C611 C606 1.415 . S
C611 C610 1.387 . S
C612 C613 1.368 . S
C612 C614 1.336 . S
C612 H637 0.905 1_655 S
C613 C612 1.368 . S
C613 C629 1.349 . S
C614 C612 1.336 . S
C614 C633 1.461 . S
C614 H638 0.938 1_655 S
C615 C632 1.574 . S
C615 C634 1.368 . S
C615 H639 0.949 . S
H616 C620 0.948 . S
C617 C618 1.349 . S
C617 C619 1.327 . S
C617 H640 0.950 . S
C618 C617 1.349 . S
C618 C630 1.335 1_655 S
C619 C617 1.327 . S
C619 C635 1.429 . S
C619 H641 0.950 . S
C620 H616 0.948 . S
C620 C628 1.573 1_455 S
C620 C636 1.370 1_455 S
H621 C629 0.950 . S
H622 C627 0.950 . S
H623 C628 0.949 1_455 S
H624 C630 0.955 . S
H625 C631 0.958 . S
H626 C632 0.949 . S
C627 H622 0.950 . S
C627 C629 1.327 . S
C627 C633 1.429 . S
C628 C620 1.573 1_655 S
C628 H623 0.949 1_655 S
C628 C634 1.368 . S
C629 C613 1.349 . S
C629 H621 0.950 . S
C629 C627 1.327 . S
C630 C618 1.335 1_455 S
C630 H624 0.955 . S
C630 C631 1.330 . S
C631 H625 0.958 . S
C631 C630 1.330 . S
C631 C635 1.426 1_455 S
C632 C615 1.574 . S
C632 H626 0.949 . S
C632 C636 1.368 . S
C633 C614 1.461 . S
C633 C627 1.429 . S
C633 C634 1.523 . S
C634 C615 1.368 . S
C634 C628 1.368 . S
C634 C633 1.523 . S
C635 C619 1.429 . S
C635 C631 1.426 1_655 S
C635 C636 1.523 . S
C636 C620 1.370 1_655 S
C636 C632 1.368 . S
C636 C635 1.523 . S
H637 C612 0.905 1_455 S
H638 C614 0.938 1_455 S
H639 C615 0.949 . S
H640 C617 0.950 . S
H641 C619 0.950 . S
C642 C643 1.349 . S
C642 C644 1.327 . S
C642 H667 0.950 . S
C643 C642 1.349 . S
C643 C659 1.349 . S
C644 C642 1.327 . S
C644 C663 1.429 . S
C644 H668 0.950 . S
C645 C662 1.574 . S
C645 C664 1.368 . S
C645 H669 0.949 . S
H646 C650 0.949 . S
C647 C648 1.349 . S
C647 C649 1.327 . S
C647 H670 0.950 . S
C648 C647 1.349 . S
C648 C660 1.349 . S
C649 C647 1.327 . S
C649 C665 1.429 . S
C649 H671 0.950 . S
C650 H646 0.949 . S
C650 C658 1.574 . S
C650 C666 1.368 . S
H651 C659 0.950 . S
H652 C657 0.950 . S
H653 C658 0.949 . S
H654 C660 0.950 . S
H655 C661 0.950 . S
H656 C662 0.949 . S
C657 H652 0.950 . S
C657 C659 1.327 . S
C657 C663 1.429 . S
C658 C650 1.574 . S
C658 H653 0.949 . S
C658 C664 1.368 . S
C659 C643 1.349 . S
C659 H651 0.950 . S
C659 C657 1.327 . S
C660 C648 1.349 . S
C660 H654 0.950 . S
C660 C661 1.327 . S
C661 H655 0.950 . S
C661 C660 1.327 . S
C661 C665 1.429 . S
C662 C645 1.574 . S
C662 H656 0.949 . S
C662 C666 1.368 . S
C663 C644 1.429 . S
C663 C657 1.429 . S
C663 C664 1.523 . S
C664 C645 1.368 . S
C664 C658 1.368 . S
C664 C663 1.523 . S
C665 C649 1.429 . S
C665 C661 1.429 . S
C665 C666 1.523 . S
C666 C650 1.368 . S
C666 C662 1.368 . S
C666 C665 1.523 . S
H667 C642 0.950 . S
H668 C644 0.950 . S
H669 C645 0.949 . S
H670 C647 0.950 . S
H671 C649 0.950 . S
C672 C673 1.349 . S
C672 C674 1.327 . S
C672 H697 0.950 . S
C673 C672 1.349 . S
C673 C689 1.392 . S
C674 C672 1.327 . S
C674 C693 1.429 . S
C674 H698 0.950 . S
C675 C692 1.574 . S
C675 C694 1.368 1_565 S
C675 H699 0.949 . S
H676 C680 0.949 . S
C677 C678 1.349 1_565 S
C677 C679 1.327 . S
C677 H700 0.950 . S
C678 C677 1.349 1_545 S
C678 C690 1.349 . S
C679 C677 1.327 . S
C679 C695 1.429 1_565 S
C679 H701 0.950 . S
C680 H676 0.949 . S
C680 C688 1.574 . S
C680 C696 1.368 . S
H681 C689 0.930 1_565 S
H682 C687 1.001 . S
H683 C688 0.949 . S
H684 C690 0.950 . S
H685 C691 0.950 . S
H686 C692 0.949 . S
C687 H682 1.001 . S
C687 C689 1.280 1_565 S
C687 C693 1.406 1_565 S
C688 C680 1.574 . S
C688 H683 0.949 . S
C688 C694 1.368 . S
C689 C673 1.392 . S
C689 H681 0.930 1_545 S
C689 C687 1.280 1_545 S
C690 C678 1.349 . S
C690 H684 0.950 . S
C690 C691 1.327 . S
C691 H685 0.950 . S
C691 C690 1.327 . S
C691 C695 1.429 . S
C692 C675 1.574 . S
C692 H686 0.949 . S
C692 C696 1.368 1_565 S
C693 C674 1.429 . S
C693 C687 1.406 1_545 S
C693 C694 1.523 . S
C694 C675 1.368 1_545 S
C694 C688 1.368 . S
C694 C693 1.523 . S
C695 C679 1.429 1_545 S
C695 C691 1.429 . S
C695 C696 1.523 . S
C696 C680 1.368 . S
C696 C692 1.368 1_545 S
C696 C695 1.523 . S
H697 C672 0.950 . S
H698 C674 0.950 . S
H699 C675 0.949 . S
H700 C677 0.950 . S
H701 C679 0.950 . S
C702 C703 1.349 1_565 S
C702 C704 1.327 . S
C702 H727 0.950 . S
C703 C702 1.349 1_545 S
C703 C719 1.349 . S
C704 C702 1.327 . S
C704 C723 1.439 . S
C704 H728 0.950 . S
C705 C722 1.574 . S
C705 C724 1.344 1_545 S
C705 H729 0.949 . S
H706 C710 0.949 . S
C707 C708 1.349 1_545 S
C707 C709 1.327 . S
C707 H730 0.950 . S
C708 C707 1.349 1_565 S
C708 C720 1.349 . S
C709 C707 1.327 . S
C709 C725 1.429 1_545 S
C709 H731 0.950 . S
C710 H706 0.949 . S
C710 C718 1.574 . S
C710 C726 1.368 . S
H711 C719 0.950 . S
H712 C717 0.950 . S
H713 C718 0.949 . S
H714 C720 0.950 . S
H715 C721 0.950 . S
H716 C722 0.949 . S
C717 H712 0.950 . S
C717 C719 1.327 . S
C717 C723 1.400 1_545 S
C718 C710 1.574 . S
C718 H713 0.949 . S
C718 C724 1.421 . S
C719 C703 1.349 . S
C719 H711 0.950 . S
C719 C717 1.327 . S
C720 C708 1.349 . S
C720 H714 0.950 . S
C720 C721 1.327 . S
C721 H715 0.950 . S
C721 C720 1.327 . S
C721 C725 1.429 . S
C722 C705 1.574 . S
C722 H716 0.949 . S
C722 C726 1.368 1_545 S
C723 C704 1.439 . S
C723 C717 1.400 1_565 S
C723 C724 1.509 . S
C724 C705 1.344 1_565 S
C724 C718 1.421 . S
C724 C723 1.509 . S
C725 C709 1.429 1_565 S
C725 C721 1.429 . S
C725 C726 1.523 . S
C726 C710 1.368 . S
C726 C722 1.368 1_565 S
C726 C725 1.523 . S
H727 C702 0.950 . S
H728 C704 0.950 . S
H729 C705 0.949 . S
H730 C707 0.950 . S
H731 C709 0.950 . S
C732 C733 1.349 . S
C732 C734 1.327 . S
C732 H757 0.950 . S
C733 C732 1.349 . S
C733 C749 1.349 . S
C734 C732 1.327 . S
C734 C753 1.429 . S
C734 H758 0.915 1_455 S
C735 C752 1.574 . S
C735 C754 1.368 . S
C735 H759 0.949 . S
H736 C740 0.890 1_655 S
C737 C738 1.349 . S
C737 C739 1.327 . S
C737 H760 0.950 . S
C738 C737 1.349 . S
C738 C750 1.353 . S
C739 C737 1.327 . S
C739 C755 1.429 . S
C739 H761 0.950 . S
C740 H736 0.890 1_455 S
C740 C748 1.613 . S
C740 C756 1.402 . S
H741 C749 0.950 . S
H742 C747 0.950 . S
H743 C748 0.949 1_655 S
H744 C750 0.940 1_655 S
H745 C751 0.939 1_655 S
H746 C752 0.949 . S
C747 H742 0.950 . S
C747 C749 1.327 . S
C747 C753 1.429 . S
C748 C740 1.613 . S
C748 H743 0.949 1_455 S
C748 C754 1.368 . S
C749 C733 1.349 . S
C749 H741 0.950 . S
C749 C747 1.327 . S
C750 C738 1.353 . S
C750 H744 0.940 1_455 S
C750 C751 1.318 . S
C751 H745 0.939 1_455 S
C751 C750 1.318 . S
C751 C755 1.455 . S
C752 C735 1.574 . S
C752 H746 0.949 . S
C752 C756 1.368 . S
C753 C734 1.429 . S
C753 C747 1.429 . S
C753 C754 1.523 . S
C754 C735 1.368 . S
C754 C748 1.368 . S
C754 C753 1.523 . S
C755 C739 1.429 . S
C755 C751 1.455 . S
C755 C756 1.523 . S
C756 C740 1.402 . S
C756 C752 1.368 . S
C756 C755 1.523 . S
H757 C732 0.950 . S
H758 C734 0.915 1_655 S
H759 C735 0.949 . S
H760 C737 0.950 . S
H761 C739 0.950 . S
C762 C763 1.349 . S
C762 C764 1.327 . S
C762 H787 0.950 . S
C763 C762 1.349 . S
C763 C779 1.349 . S
C764 C762 1.327 . S
C764 C783 1.429 . S
C764 H788 0.950 . S
C765 C782 1.574 . S
C765 C784 1.368 . S
C765 H789 0.949 . S
H766 C770 0.949 . S
C767 C768 1.349 . S
C767 C769 1.327 . S
C767 H790 0.950 . S
C768 C767 1.349 . S
C768 C780 1.349 . S
C769 C767 1.327 . S
C769 C785 1.429 . S
C769 H791 0.950 . S
C770 H766 0.949 . S
C770 C778 1.574 . S
C770 C786 1.368 . S
H771 C779 0.950 . S
H772 C777 0.950 . S
H773 C778 0.949 . S
H774 C780 0.950 . S
H775 C781 0.950 . S
H776 C782 0.949 . S
C777 H772 0.950 . S
C777 C779 1.327 . S
C777 C783 1.429 . S
C778 C770 1.574 . S
C778 H773 0.949 . S
C778 C784 1.368 . S
C779 C763 1.349 . S
C779 H771 0.950 . S
C779 C777 1.327 . S
C780 C768 1.349 . S
C780 H774 0.950 . S
C780 C781 1.327 . S
C781 H775 0.950 . S
C781 C780 1.327 . S
C781 C785 1.429 . S
C782 C765 1.574 . S
C782 H776 0.949 . S
C782 C786 1.368 . S
C783 C764 1.429 . S
C783 C777 1.429 . S
C783 C784 1.523 . S
C784 C765 1.368 . S
C784 C778 1.368 . S
C784 C783 1.523 . S
C785 C769 1.429 . S
C785 C781 1.429 . S
C785 C786 1.523 . S
C786 C770 1.368 . S
C786 C782 1.368 . S
C786 C785 1.523 . S
H787 C762 0.950 . S
H788 C764 0.950 . S
H789 C765 0.949 . S
H790 C767 0.950 . S
H791 C769 0.950 . S
C792 C793 1.349 1_655 S
C792 C794 1.327 . S
C792 H817 0.950 . S
C793 C792 1.349 1_455 S
C793 C809 1.349 . S
C794 C792 1.327 . S
C794 C813 1.429 1_655 S
C794 H818 0.950 . S
C795 C812 1.574 . S
C795 C814 1.368 . S
C795 H819 0.949 . S
H796 C800 0.949 . S
C797 C798 1.354 . S
C797 C799 1.327 . S
C797 H820 0.950 . S
C798 C797 1.354 . S
C798 C810 1.326 1_455 S
C799 C797 1.327 . S
C799 C815 1.429 . S
C799 H821 0.950 . S
C800 H796 0.949 . S
C800 C808 1.574 . S
C800 C816 1.368 1_655 S
H801 C809 0.950 . S
H802 C807 0.950 . S
H803 C808 0.949 . S
H804 C810 0.950 . S
H805 C811 0.950 . S
H806 C812 0.949 . S
C807 H802 0.950 . S
C807 C809 1.327 . S
C807 C813 1.429 . S
C808 C800 1.574 . S
C808 H803 0.949 . S
C808 C814 1.368 1_655 S
C809 C793 1.349 . S
C809 H801 0.950 . S
C809 C807 1.327 . S
C810 C798 1.326 1_655 S
C810 H804 0.950 . S
C810 C811 1.327 . S
C811 H805 0.950 . S
C811 C810 1.327 . S
C811 C815 1.429 1_655 S
C812 C795 1.574 . S
C812 H806 0.949 . S
C812 C816 1.368 . S
C813 C794 1.429 1_455 S
C813 C807 1.429 . S
C813 C814 1.523 . S
C814 C795 1.368 . S
C814 C808 1.368 1_455 S
C814 C813 1.523 . S
C815 C799 1.429 . S
C815 C811 1.429 1_455 S
C815 C816 1.523 . S
C816 C800 1.368 1_455 S
C816 C812 1.368 . S
C816 C815 1.523 . S
H817 C792 0.950 . S
H818 C794 0.950 . S
H819 C795 0.949 . S
H820 C797 0.950 . S
H821 C799 0.950 . S
C822 C823 1.349 . S
C822 C824 1.327 . S
C822 H847 0.950 . S
C823 C822 1.349 . S
C823 C839 1.349 . S
C824 C822 1.327 . S
C824 C843 1.429 . S
C824 H848 0.950 . S
C825 C842 1.574 . S
C825 C844 1.368 . S
C825 H849 0.949 . S
H826 C830 0.949 . S
C827 C828 1.349 . S
C827 C829 1.327 . S
C827 H850 0.950 . S
C828 C827 1.349 . S
C828 C840 1.349 . S
C829 C827 1.327 . S
C829 C845 1.429 . S
C829 H851 0.950 . S
C830 H826 0.949 . S
C830 C838 1.574 . S
C830 C846 1.368 . S
H831 C839 0.950 . S
H832 C837 0.950 . S
H833 C838 0.949 . S
H834 C840 0.950 . S
H835 C841 0.950 . S
H836 C842 0.949 . S
C837 H832 0.950 . S
C837 C839 1.327 . S
C837 C843 1.429 . S
C838 C830 1.574 . S
C838 H833 0.949 . S
C838 C844 1.368 . S
C839 C823 1.349 . S
C839 H831 0.950 . S
C839 C837 1.327 . S
C840 C828 1.349 . S
C840 H834 0.950 . S
C840 C841 1.327 . S
C841 H835 0.950 . S
C841 C840 1.327 . S
C841 C845 1.429 . S
C842 C825 1.574 . S
C842 H836 0.949 . S
C842 C846 1.368 . S
C843 C824 1.429 . S
C843 C837 1.429 . S
C843 C844 1.523 . S
C844 C825 1.368 . S
C844 C838 1.368 . S
C844 C843 1.523 . S
C845 C829 1.429 . S
C845 C841 1.429 . S
C845 C846 1.523 . S
C846 C830 1.368 . S
C846 C842 1.368 . S
C846 C845 1.523 . S
H847 C822 0.950 . S
H848 C824 0.950 . S
H849 C825 0.949 . S
H850 C827 0.950 . S
H851 C829 0.950 . S
C852 C853 1.349 . S
C852 C854 1.327 . S
C852 H877 0.950 . S
C853 C852 1.349 . S
C853 C869 1.349 1_565 S
C854 C852 1.327 . S
C854 C873 1.429 . S
C854 H878 0.950 . S
C855 C872 1.574 . S
C855 C874 1.368 1_545 S
C855 H879 0.949 . S
H856 C860 0.949 . S
C857 C858 1.349 1_545 S
C857 C859 1.327 . S
C857 H880 0.950 . S
C858 C857 1.349 1_565 S
C858 C870 1.349 . S
C859 C857 1.327 . S
C859 C875 1.429 1_545 S
C859 H881 0.950 . S
C860 H856 0.949 . S
C860 C868 1.574 . S
C860 C876 1.368 . S
H861 C869 0.950 . S
H862 C867 0.950 . S
H863 C868 0.949 . S
H864 C870 0.950 . S
H865 C871 0.950 . S
H866 C872 0.949 . S
C867 H862 0.950 . S
C867 C869 1.327 . S
C867 C873 1.429 1_545 S
C868 C860 1.574 . S
C868 H863 0.949 . S
C868 C874 1.368 . S
C869 C853 1.349 1_545 S
C869 H861 0.950 . S
C869 C867 1.327 . S
C870 C858 1.349 . S
C870 H864 0.950 . S
C870 C871 1.327 . S
C871 H865 0.950 . S
C871 C870 1.327 . S
C871 C875 1.429 . S
C872 C855 1.574 . S
C872 H866 0.949 . S
C872 C876 1.368 1_545 S
C873 C854 1.429 . S
C873 C867 1.429 1_565 S
C873 C874 1.523 . S
C874 C855 1.368 1_565 S
C874 C868 1.368 . S
C874 C873 1.523 . S
C875 C859 1.429 1_565 S
C875 C871 1.429 . S
C875 C876 1.523 . S
C876 C860 1.368 . S
C876 C872 1.368 1_565 S
C876 C875 1.523 . S
H877 C852 0.950 . S
H878 C854 0.950 . S
H879 C855 0.949 . S
H880 C857 0.950 . S
H881 C859 0.950 . S
C882 C883 1.349 . S
C882 C884 1.327 . S
C882 H907 0.950 . S
C883 C882 1.349 . S
C883 C899 1.349 1_545 S
C884 C882 1.327 . S
C884 C903 1.429 . S
C884 H908 0.950 . S
C885 C902 1.574 . S
C885 C904 1.368 1_565 S
C885 H909 0.949 . S
H886 C890 0.949 . S
C887 C888 1.271 1_565 S
C887 C889 1.327 . S
C887 H910 0.950 . S
C888 C887 1.271 1_545 S
C888 C900 1.400 . S
C889 C887 1.327 . S
C889 C905 1.429 1_565 S
C889 H911 0.950 . S
C890 H886 0.949 . S
C890 C898 1.574 . S
C890 C906 1.368 . S
H891 C899 0.950 . S
H892 C897 0.950 . S
H893 C898 0.949 . S
H894 C900 0.950 . S
H895 C901 0.950 . S
H896 C902 0.949 . S
C897 H892 0.950 . S
C897 C899 1.327 . S
C897 C903 1.429 1_565 S
C898 C890 1.574 . S
C898 H893 0.949 . S
C898 C904 1.368 . S
C899 C883 1.349 1_565 S
C899 H891 0.950 . S
C899 C897 1.327 . S
C900 C888 1.400 . S
C900 H894 0.950 . S
C900 C901 1.327 . S
C901 H895 0.950 . S
C901 C900 1.327 . S
C901 C905 1.429 . S
C902 C885 1.574 . S
C902 H896 0.949 . S
C902 C906 1.368 1_565 S
C903 C884 1.429 . S
C903 C897 1.429 1_545 S
C903 C904 1.523 . S
C904 C885 1.368 1_545 S
C904 C898 1.368 . S
C904 C903 1.523 . S
C905 C889 1.429 1_545 S
C905 C901 1.429 . S
C905 C906 1.523 . S
C906 C890 1.368 . S
C906 C902 1.368 1_545 S
C906 C905 1.523 . S
H907 C882 0.950 . S
H908 C884 0.950 . S
H909 C885 0.949 . S
H910 C887 0.950 . S
H911 C889 0.950 . S
C912 C913 1.349 1_455 S
C912 C914 1.327 . S
C912 H937 0.950 . S
C913 C912 1.349 1_655 S
C913 C929 1.349 . S
C914 C912 1.327 . S
C914 C933 1.429 1_455 S
C914 H938 0.950 . S
C915 C932 1.574 . S
C915 C934 1.368 . S
C915 H939 0.949 . S
H916 C920 0.949 . S
C917 C918 1.349 . S
C917 C919 1.327 . S
C917 H940 0.950 . S
C918 C917 1.349 . S
C918 C930 1.349 1_655 S
C919 C917 1.327 . S
C919 C935 1.429 . S
C919 H941 0.950 . S
C920 H916 0.949 . S
C920 C928 1.574 . S
C920 C936 1.368 1_455 S
H921 C929 0.950 . S
H922 C927 0.950 . S
H923 C928 0.949 . S
H924 C930 0.950 . S
H925 C931 0.950 . S
H926 C932 0.949 . S
C927 H922 0.950 . S
C927 C929 1.327 . S
C927 C933 1.429 . S
C928 C920 1.574 . S
C928 H923 0.949 . S
C928 C934 1.368 1_455 S
C929 C913 1.349 . S
C929 H921 0.950 . S
C929 C927 1.327 . S
C930 C918 1.349 1_455 S
C930 H924 0.950 . S
C930 C931 1.327 . S
C931 H925 0.950 . S
C931 C930 1.327 . S
C931 C935 1.429 1_455 S
C932 C915 1.574 . S
C932 H926 0.949 . S
C932 C936 1.368 . S
C933 C914 1.429 1_655 S
C933 C927 1.429 . S
C933 C934 1.523 . S
C934 C915 1.368 . S
C934 C928 1.368 1_655 S
C934 C933 1.523 . S
C935 C919 1.429 . S
C935 C931 1.429 1_655 S
C935 C936 1.523 . S
C936 C920 1.368 1_655 S
C936 C932 1.368 . S
C936 C935 1.523 . S
H937 C912 0.950 . S
H938 C914 0.950 . S
H939 C915 0.949 . S
H940 C917 0.950 . S
H941 C919 0.950 . S
C942 C943 1.349 . S
C942 C944 1.327 . S
C942 H967 0.950 . S
C943 C942 1.349 . S
C943 C959 1.349 . S
C944 C942 1.327 . S
C944 C963 1.429 . S
C944 H968 0.950 . S
C945 C962 1.574 . S
C945 C964 1.368 . S
C945 H969 0.949 . S
H946 C950 0.949 . S
C947 C948 1.349 . S
C947 C949 1.327 . S
C947 H970 0.950 . S
C948 C947 1.349 . S
C948 C960 1.349 . S
C949 C947 1.327 . S
C949 C965 1.429 . S
C949 H971 0.950 . S
C950 H946 0.949 . S
C950 C958 1.574 . S
C950 C966 1.368 . S
H951 C959 0.950 . S
H952 C957 0.950 . S
H953 C958 0.949 . S
H954 C960 0.950 . S
H955 C961 0.950 . S
H956 C962 0.949 . S
C957 H952 0.950 . S
C957 C959 1.327 . S
C957 C963 1.429 . S
C958 C950 1.574 . S
C958 H953 0.949 . S
C958 C964 1.368 . S
C959 C943 1.349 . S
C959 H951 0.950 . S
C959 C957 1.327 . S
C960 C948 1.349 . S
C960 H954 0.950 . S
C960 C961 1.327 . S
C961 H955 0.950 . S
C961 C960 1.327 . S
C961 C965 1.429 . S
C962 C945 1.574 . S
C962 H956 0.949 . S
C962 C966 1.368 . S
C963 C944 1.429 . S
C963 C957 1.429 . S
C963 C964 1.523 . S
C964 C945 1.368 . S
C964 C958 1.368 . S
C964 C963 1.523 . S
C965 C949 1.429 . S
C965 C961 1.429 . S
C965 C966 1.523 . S
C966 C950 1.368 . S
C966 C962 1.368 . S
C966 C965 1.523 . S
H967 C942 0.950 . S
H968 C944 0.950 . S
H969 C945 0.949 . S
H970 C947 0.950 . S
H971 C949 0.950 . S
C972 C973 1.349 . S
C972 C974 1.327 . S
C972 H997 0.950 . S
C973 C972 1.349 . S
C973 C989 1.349 . S
C974 C972 1.327 . S
C974 C993 1.429 . S
C974 H998 0.950 . S
C975 C992 1.574 . S
C975 C994 1.368 . S
C975 H999 0.949 . S
H976 C980 0.949 . S
C977 C978 1.349 . S
C977 C979 1.327 . S
C977 H1000 0.950 . S
C978 C977 1.349 . S
C978 C990 1.349 . S
C979 C977 1.327 . S
C979 C995 1.429 . S
C979 H1001 0.950 . S
C980 H976 0.949 . S
C980 C988 1.574 . S
C980 C996 1.368 . S
H981 C989 0.950 . S
H982 C987 0.950 . S
H983 C988 0.949 . S
H984 C990 0.950 . S
H985 C991 0.950 . S
H986 C992 0.949 . S
C987 H982 0.950 . S
C987 C989 1.327 . S
C987 C993 1.429 . S
C988 C980 1.574 . S
C988 H983 0.949 . S
C988 C994 1.368 . S
C989 C973 1.349 . S
C989 H981 0.950 . S
C989 C987 1.327 . S
C990 C978 1.349 . S
C990 H984 0.950 . S
C990 C991 1.327 . S
C991 H985 0.950 . S
C991 C990 1.327 . S
C991 C995 1.429 . S
C992 C975 1.574 . S
C992 H986 0.949 . S
C992 C996 1.368 . S
C993 C974 1.429 . S
C993 C987 1.429 . S
C993 C994 1.523 . S
C994 C975 1.368 . S
C994 C988 1.368 . S
C994 C993 1.523 . S
C995 C979 1.429 . S
C995 C991 1.429 . S
C995 C996 1.523 . S
C996 C980 1.368 . S
C996 C992 1.368 . S
C996 C995 1.523 . S
H997 C972 0.950 . S
H998 C974 0.950 . S
H999 C975 0.949 . S
H1000 C977 0.950 . S
H1001 C979 0.950 . S
C1002 C1003 1.349 . S
C1002 C1004 1.327 . S
C1002 H1027 0.950 . S
C1003 C1002 1.349 . S
C1003 C1019 1.349 . S
C1004 C1002 1.327 . S
C1004 C1023 1.429 . S
C1004 H1028 0.950 . S
C1005 C1022 1.574 . S
C1005 C1024 1.368 . S
C1005 H1029 0.949 . S
H1006 C1010 0.949 . S
C1007 C1008 1.349 . S
C1007 C1009 1.327 . S
C1007 H1030 0.950 . S
C1008 C1007 1.349 . S
C1008 C1020 1.349 . S
C1009 C1007 1.327 . S
C1009 C1025 1.429 . S
C1009 H1031 0.950 . S
C1010 H1006 0.949 . S
C1010 C1018 1.574 . S
C1010 C1026 1.368 . S
H1011 C1019 0.950 . S
H1012 C1017 0.950 . S
H1013 C1018 0.949 . S
H1014 C1020 0.950 . S
H1015 C1021 0.950 . S
H1016 C1022 0.949 . S
C1017 H1012 0.950 . S
C1017 C1019 1.327 . S
C1017 C1023 1.429 . S
C1018 C1010 1.574 . S
C1018 H1013 0.949 . S
C1018 C1024 1.368 . S
C1019 C1003 1.349 . S
C1019 H1011 0.950 . S
C1019 C1017 1.327 . S
C1020 C1008 1.349 . S
C1020 H1014 0.950 . S
C1020 C1021 1.327 . S
C1021 H1015 0.950 . S
C1021 C1020 1.327 . S
C1021 C1025 1.429 . S
C1022 C1005 1.574 . S
C1022 H1016 0.949 . S
C1022 C1026 1.368 . S
C1023 C1004 1.429 . S
C1023 C1017 1.429 . S
C1023 C1024 1.523 . S
C1024 C1005 1.368 . S
C1024 C1018 1.368 . S
C1024 C1023 1.523 . S
C1025 C1009 1.429 . S
C1025 C1021 1.429 . S
C1025 C1026 1.523 . S
C1026 C1010 1.368 . S
C1026 C1022 1.368 . S
C1026 C1025 1.523 . S
H1027 C1002 0.950 . S
H1028 C1004 0.950 . S
H1029 C1005 0.949 . S
H1030 C1007 0.950 . S
H1031 C1009 0.950 . S
C1032 C1033 1.349 . S
C1032 C1034 1.327 . S
C1032 H1057 0.950 . S
C1033 C1032 1.349 . S
C1033 C1049 1.349 . S
C1034 C1032 1.327 . S
C1034 C1053 1.429 . S
C1034 H1058 0.950 . S
C1035 C1052 1.574 . S
C1035 C1054 1.368 . S
C1035 H1059 0.949 . S
H1036 C1040 0.949 . S
C1037 C1038 1.349 . S
C1037 C1039 1.327 . S
C1037 H1060 0.950 . S
C1038 C1037 1.349 . S
C1038 C1050 1.349 . S
C1039 C1037 1.327 . S
C1039 C1055 1.429 . S
C1039 H1061 0.950 . S
C1040 H1036 0.949 . S
C1040 C1048 1.574 . S
C1040 C1056 1.368 . S
H1041 C1049 0.950 . S
H1042 C1047 0.950 . S
H1043 C1048 0.949 . S
H1044 C1050 0.950 . S
H1045 C1051 0.950 . S
H1046 C1052 0.949 . S
C1047 H1042 0.950 . S
C1047 C1049 1.327 . S
C1047 C1053 1.429 . S
C1048 C1040 1.574 . S
C1048 H1043 0.949 . S
C1048 C1054 1.368 . S
C1049 C1033 1.349 . S
C1049 H1041 0.950 . S
C1049 C1047 1.327 . S
C1050 C1038 1.349 . S
C1050 H1044 0.950 . S
C1050 C1051 1.327 . S
C1051 H1045 0.950 . S
C1051 C1050 1.327 . S
C1051 C1055 1.429 . S
C1052 C1035 1.574 . S
C1052 H1046 0.949 . S
C1052 C1056 1.368 . S
C1053 C1034 1.429 . S
C1053 C1047 1.429 . S
C1053 C1054 1.523 . S
C1054 C1035 1.368 . S
C1054 C1048 1.368 . S
C1054 C1053 1.523 . S
C1055 C1039 1.429 . S
C1055 C1051 1.429 . S
C1055 C1056 1.523 . S
C1056 C1040 1.368 . S
C1056 C1052 1.368 . S
C1056 C1055 1.523 . S
H1057 C1032 0.950 . S
H1058 C1034 0.950 . S
H1059 C1035 0.949 . S
H1060 C1037 0.950 . S
H1061 C1039 0.950 . S
C1062 C1063 1.349 . S
C1062 C1064 1.327 . S
C1062 H1087 0.950 . S
C1063 C1062 1.349 . S
C1063 C1079 1.349 . S
C1064 C1062 1.327 . S
C1064 C1083 1.429 . S
C1064 H1088 0.950 . S
C1065 C1082 1.574 . S
C1065 C1084 1.368 . S
C1065 H1089 0.949 . S
H1066 C1070 0.949 . S
C1067 C1068 1.349 . S
C1067 C1069 1.327 . S
C1067 H1090 0.950 . S
C1068 C1067 1.349 . S
C1068 C1080 1.349 . S
C1069 C1067 1.327 . S
C1069 C1085 1.429 . S
C1069 H1091 0.950 . S
C1070 H1066 0.949 . S
C1070 C1078 1.574 . S
C1070 C1086 1.368 . S
H1071 C1079 0.950 . S
H1072 C1077 0.950 . S
H1073 C1078 0.949 . S
H1074 C1080 0.950 . S
H1075 C1081 0.950 . S
H1076 C1082 0.949 . S
C1077 H1072 0.950 . S
C1077 C1079 1.327 . S
C1077 C1083 1.429 . S
C1078 C1070 1.574 . S
C1078 H1073 0.949 . S
C1078 C1084 1.368 . S
C1079 C1063 1.349 . S
C1079 H1071 0.950 . S
C1079 C1077 1.327 . S
C1080 C1068 1.349 . S
C1080 H1074 0.950 . S
C1080 C1081 1.327 . S
C1081 H1075 0.950 . S
C1081 C1080 1.327 . S
C1081 C1085 1.429 . S
C1082 C1065 1.574 . S
C1082 H1076 0.949 . S
C1082 C1086 1.368 . S
C1083 C1064 1.429 . S
C1083 C1077 1.429 . S
C1083 C1084 1.523 . S
C1084 C1065 1.368 . S
C1084 C1078 1.368 . S
C1084 C1083 1.523 . S
C1085 C1069 1.429 . S
C1085 C1081 1.429 . S
C1085 C1086 1.523 . S
C1086 C1070 1.368 . S
C1086 C1082 1.368 . S
C1086 C1085 1.523 . S
H1087 C1062 0.950 . S
H1088 C1064 0.950 . S
H1089 C1065 0.949 . S
H1090 C1067 0.950 . S
H1091 C1069 0.950 . S
C1092 C1093 1.349 . S
C1092 C1094 1.327 . S
C1092 H1117 0.950 . S
C1093 C1092 1.349 . S
C1093 C1109 1.349 . S
C1094 C1092 1.327 . S
C1094 C1113 1.429 . S
C1094 H1118 0.950 . S
C1095 C1112 1.574 . S
C1095 C1114 1.368 . S
C1095 H1119 0.949 . S
H1096 C1100 0.949 . S
C1097 C1098 1.349 . S
C1097 C1099 1.327 . S
C1097 H1120 0.950 . S
C1098 C1097 1.349 . S
C1098 C1110 1.349 . S
C1099 C1097 1.327 . S
C1099 C1115 1.429 . S
C1099 H1121 0.950 . S
C1100 H1096 0.949 . S
C1100 C1108 1.574 . S
C1100 C1116 1.368 . S
H1101 C1109 0.950 . S
H1102 C1107 0.950 . S
H1103 C1108 0.949 . S
H1104 C1110 0.950 . S
H1105 C1111 0.950 . S
H1106 C1112 0.949 . S
C1107 H1102 0.950 . S
C1107 C1109 1.327 . S
C1107 C1113 1.429 . S
C1108 C1100 1.574 . S
C1108 H1103 0.949 . S
C1108 C1114 1.368 . S
C1109 C1093 1.349 . S
C1109 H1101 0.950 . S
C1109 C1107 1.327 . S
C1110 C1098 1.349 . S
C1110 H1104 0.950 . S
C1110 C1111 1.327 . S
C1111 H1105 0.950 . S
C1111 C1110 1.327 . S
C1111 C1115 1.429 . S
C1112 C1095 1.574 . S
C1112 H1106 0.949 . S
C1112 C1116 1.368 . S
C1113 C1094 1.429 . S
C1113 C1107 1.429 . S
C1113 C1114 1.523 . S
C1114 C1095 1.368 . S
C1114 C1108 1.368 . S
C1114 C1113 1.523 . S
C1115 C1099 1.429 . S
C1115 C1111 1.429 . S
C1115 C1116 1.523 . S
C1116 C1100 1.368 . S
C1116 C1112 1.368 . S
C1116 C1115 1.523 . S
H1117 C1092 0.950 . S
H1118 C1094 0.950 . S
H1119 C1095 0.949 . S
H1120 C1097 0.950 . S
H1121 C1099 0.950 . S
C1122 C1123 1.349 . S
C1122 C1124 1.327 . S
C1122 H1147 0.950 . S
C1123 C1122 1.349 . S
C1123 C1139 1.349 . S
C1124 C1122 1.327 . S
C1124 C1143 1.429 . S
C1124 H1148 0.950 . S
C1125 C1142 1.574 . S
C1125 C1144 1.368 . S
C1125 H1149 0.949 . S
H1126 C1130 0.949 . S
C1127 C1128 1.349 . S
C1127 C1129 1.327 . S
C1127 H1150 0.950 . S
C1128 C1127 1.349 . S
C1128 C1140 1.349 . S
C1129 C1127 1.327 . S
C1129 C1145 1.429 . S
C1129 H1151 0.950 . S
C1130 H1126 0.949 . S
C1130 C1138 1.574 . S
C1130 C1146 1.368 . S
H1131 C1139 0.950 . S
H1132 C1137 0.950 . S
H1133 C1138 0.949 . S
H1134 C1140 0.950 . S
H1135 C1141 0.950 . S
H1136 C1142 0.949 . S
C1137 H1132 0.950 . S
C1137 C1139 1.327 . S
C1137 C1143 1.429 . S
C1138 C1130 1.574 . S
C1138 H1133 0.949 . S
C1138 C1144 1.368 . S
C1139 C1123 1.349 . S
C1139 H1131 0.950 . S
C1139 C1137 1.327 . S
C1140 C1128 1.349 . S
C1140 H1134 0.950 . S
C1140 C1141 1.327 . S
C1141 H1135 0.950 . S
C1141 C1140 1.327 . S
C1141 C1145 1.429 . S
C1142 C1125 1.574 . S
C1142 H1136 0.949 . S
C1142 C1146 1.368 . S
C1143 C1124 1.429 . S
C1143 C1137 1.429 . S
C1143 C1144 1.523 . S
C1144 C1125 1.368 . S
C1144 C1138 1.368 . S
C1144 C1143 1.523 . S
C1145 C1129 1.429 . S
C1145 C1141 1.429 . S
C1145 C1146 1.523 . S
C1146 C1130 1.368 . S
C1146 C1142 1.368 . S
C1146 C1145 1.523 . S
H1147 C1122 0.950 . S
H1148 C1124 0.950 . S
H1149 C1125 0.949 . S
H1150 C1127 0.950 . S
H1151 C1129 0.950 . S
C1152 C1153 1.349 . S
C1152 C1154 1.327 . S
C1152 H1177 0.950 . S
C1153 C1152 1.349 . S
C1153 C1169 1.349 . S
C1154 C1152 1.327 . S
C1154 C1173 1.429 . S
C1154 H1178 0.950 . S
C1155 C1172 1.574 . S
C1155 C1174 1.368 . S
C1155 H1179 0.949 . S
H1156 C1160 0.949 . S
C1157 C1158 1.349 . S
C1157 C1159 1.327 . S
C1157 H1180 0.950 . S
C1158 C1157 1.349 . S
C1158 C1170 1.349 . S
C1159 C1157 1.327 . S
C1159 C1175 1.429 . S
C1159 H1181 0.950 . S
C1160 H1156 0.949 . S
C1160 C1168 1.574 . S
C1160 C1176 1.368 . S
H1161 C1169 0.950 . S
H1162 C1167 0.950 . S
H1163 C1168 0.949 . S
H1164 C1170 0.950 . S
H1165 C1171 0.950 . S
H1166 C1172 0.949 . S
C1167 H1162 0.950 . S
C1167 C1169 1.327 . S
C1167 C1173 1.429 . S
C1168 C1160 1.574 . S
C1168 H1163 0.949 . S
C1168 C1174 1.368 . S
C1169 C1153 1.349 . S
C1169 H1161 0.950 . S
C1169 C1167 1.327 . S
C1170 C1158 1.349 . S
C1170 H1164 0.950 . S
C1170 C1171 1.327 . S
C1171 H1165 0.950 . S
C1171 C1170 1.327 . S
C1171 C1175 1.429 . S
C1172 C1155 1.574 . S
C1172 H1166 0.949 . S
C1172 C1176 1.368 . S
C1173 C1154 1.429 . S
C1173 C1167 1.429 . S
C1173 C1174 1.523 . S
C1174 C1155 1.368 . S
C1174 C1168 1.368 . S
C1174 C1173 1.523 . S
C1175 C1159 1.429 . S
C1175 C1171 1.429 . S
C1175 C1176 1.523 . S
C1176 C1160 1.368 . S
C1176 C1172 1.368 . S
C1176 C1175 1.523 . S
H1177 C1152 0.950 . S
H1178 C1154 0.950 . S
H1179 C1155 0.949 . S
H1180 C1157 0.950 . S
H1181 C1159 0.950 . S
C1182 C1183 1.349 . S
C1182 C1184 1.327 . S
C1182 H1207 0.950 . S
C1183 C1182 1.349 . S
C1183 C1199 1.349 . S
C1184 C1182 1.327 . S
C1184 C1203 1.429 . S
C1184 H1208 0.950 . S
C1185 C1202 1.574 . S
C1185 C1204 1.368 . S
C1185 H1209 0.949 . S
H1186 C1190 0.949 . S
C1187 C1188 1.349 . S
C1187 C1189 1.327 . S
C1187 H1210 0.950 . S
C1188 C1187 1.349 . S
C1188 C1200 1.349 . S
C1189 C1187 1.327 . S
C1189 C1205 1.429 . S
C1189 H1211 0.950 . S
C1190 H1186 0.949 . S
C1190 C1198 1.574 . S
C1190 C1206 1.368 . S
H1191 C1199 0.950 . S
H1192 C1197 0.950 . S
H1193 C1198 0.949 . S
H1194 C1200 0.950 . S
H1195 C1201 0.950 . S
H1196 C1202 0.949 . S
C1197 H1192 0.950 . S
C1197 C1199 1.327 . S
C1197 C1203 1.429 . S
C1198 C1190 1.574 . S
C1198 H1193 0.949 . S
C1198 C1204 1.368 . S
C1199 C1183 1.349 . S
C1199 H1191 0.950 . S
C1199 C1197 1.327 . S
C1200 C1188 1.349 . S
C1200 H1194 0.950 . S
C1200 C1201 1.327 . S
C1201 H1195 0.950 . S
C1201 C1200 1.327 . S
C1201 C1205 1.429 . S
C1202 C1185 1.574 . S
C1202 H1196 0.949 . S
C1202 C1206 1.368 . S
C1203 C1184 1.429 . S
C1203 C1197 1.429 . S
C1203 C1204 1.523 . S
C1204 C1185 1.368 . S
C1204 C1198 1.368 . S
C1204 C1203 1.523 . S
C1205 C1189 1.429 . S
C1205 C1201 1.429 . S
C1205 C1206 1.523 . S
C1206 C1190 1.368 . S
C1206 C1202 1.368 . S
C1206 C1205 1.523 . S
H1207 C1182 0.950 . S
H1208 C1184 0.950 . S
H1209 C1185 0.949 . S
H1210 C1187 0.950 . S
H1211 C1189 0.950 . S
C1212 C1213 1.349 . S
C1212 C1214 1.327 . S
C1212 H1237 0.950 . S
C1213 C1212 1.349 . S
C1213 C1229 1.349 . S
C1214 C1212 1.327 . S
C1214 C1233 1.429 . S
C1214 H1238 0.950 . S
C1215 C1232 1.574 . S
C1215 C1234 1.368 . S
C1215 H1239 0.949 . S
H1216 C1220 0.949 . S
C1217 C1218 1.349 . S
C1217 C1219 1.327 . S
C1217 H1240 0.950 . S
C1218 C1217 1.349 . S
C1218 C1230 1.349 . S
C1219 C1217 1.327 . S
C1219 C1235 1.429 . S
C1219 H1241 0.950 . S
C1220 H1216 0.949 . S
C1220 C1228 1.574 . S
C1220 C1236 1.368 . S
H1221 C1229 0.950 . S
H1222 C1227 0.950 . S
H1223 C1228 0.949 . S
H1224 C1230 0.950 . S
H1225 C1231 0.950 . S
H1226 C1232 0.949 . S
C1227 H1222 0.950 . S
C1227 C1229 1.327 . S
C1227 C1233 1.429 . S
C1228 C1220 1.574 . S
C1228 H1223 0.949 . S
C1228 C1234 1.368 . S
C1229 C1213 1.349 . S
C1229 H1221 0.950 . S
C1229 C1227 1.327 . S
C1230 C1218 1.349 . S
C1230 H1224 0.950 . S
C1230 C1231 1.327 . S
C1231 H1225 0.950 . S
C1231 C1230 1.327 . S
C1231 C1235 1.429 . S
C1232 C1215 1.574 . S
C1232 H1226 0.949 . S
C1232 C1236 1.368 . S
C1233 C1214 1.429 . S
C1233 C1227 1.429 . S
C1233 C1234 1.523 . S
C1234 C1215 1.368 . S
C1234 C1228 1.368 . S
C1234 C1233 1.523 . S
C1235 C1219 1.429 . S
C1235 C1231 1.429 . S
C1235 C1236 1.523 . S
C1236 C1220 1.368 . S
C1236 C1232 1.368 . S
C1236 C1235 1.523 . S
H1237 C1212 0.950 . S
H1238 C1214 0.950 . S
H1239 C1215 0.949 . S
H1240 C1217 0.950 . S
H1241 C1219 0.950 . S
C1242 C1243 1.349 . S
C1242 C1244 1.327 . S
C1242 H1267 0.950 . S
C1243 C1242 1.349 . S
C1243 C1259 1.349 . S
C1244 C1242 1.327 . S
C1244 C1263 1.429 . S
C1244 H1268 0.950 . S
C1245 C1262 1.574 . S
C1245 C1264 1.368 . S
C1245 H1269 0.949 . S
H1246 C1250 0.949 . S
C1247 C1248 1.349 . S
C1247 C1249 1.327 . S
C1247 H1270 0.950 . S
C1248 C1247 1.349 . S
C1248 C1260 1.349 . S
C1249 C1247 1.327 . S
C1249 C1265 1.429 . S
C1249 H1271 0.950 . S
C1250 H1246 0.949 . S
C1250 C1258 1.574 . S
C1250 C1266 1.368 . S
H1251 C1259 0.950 . S
H1252 C1257 0.950 . S
H1253 C1258 0.949 . S
H1254 C1260 0.950 . S
H1255 C1261 0.950 . S
H1256 C1262 0.949 . S
C1257 H1252 0.950 . S
C1257 C1259 1.327 . S
C1257 C1263 1.429 . S
C1258 C1250 1.574 . S
C1258 H1253 0.949 . S
C1258 C1264 1.368 . S
C1259 C1243 1.349 . S
C1259 H1251 0.950 . S
C1259 C1257 1.327 . S
C1260 C1248 1.349 . S
C1260 H1254 0.950 . S
C1260 C1261 1.327 . S
C1261 H1255 0.950 . S
C1261 C1260 1.327 . S
C1261 C1265 1.429 . S
C1262 C1245 1.574 . S
C1262 H1256 0.949 . S
C1262 C1266 1.368 . S
C1263 C1244 1.429 . S
C1263 C1257 1.429 . S
C1263 C1264 1.523 . S
C1264 C1245 1.368 . S
C1264 C1258 1.368 . S
C1264 C1263 1.523 . S
C1265 C1249 1.429 . S
C1265 C1261 1.429 . S
C1265 C1266 1.523 . S
C1266 C1250 1.368 . S
C1266 C1262 1.368 . S
C1266 C1265 1.523 . S
H1267 C1242 0.950 . S
H1268 C1244 0.950 . S
H1269 C1245 0.949 . S
H1270 C1247 0.950 . S
H1271 C1249 0.950 . S
C1272 C1273 1.349 . S
C1272 C1274 1.327 . S
C1272 H1297 0.950 . S
C1273 C1272 1.349 . S
C1273 C1289 1.349 . S
C1274 C1272 1.327 . S
C1274 C1293 1.429 . S
C1274 H1298 0.950 . S
C1275 C1292 1.574 . S
C1275 C1294 1.368 . S
C1275 H1299 0.949 . S
H1276 C1280 0.949 . S
C1277 C1278 1.349 . S
C1277 C1279 1.327 . S
C1277 H1300 0.950 . S
C1278 C1277 1.349 . S
C1278 C1290 1.349 . S
C1279 C1277 1.327 . S
C1279 C1295 1.429 . S
C1279 H1301 0.950 . S
C1280 H1276 0.949 . S
C1280 C1288 1.574 . S
C1280 C1296 1.368 . S
H1281 C1289 0.950 . S
H1282 C1287 0.950 . S
H1283 C1288 0.949 . S
H1284 C1290 0.950 . S
H1285 C1291 0.950 . S
H1286 C1292 0.949 . S
C1287 H1282 0.950 . S
C1287 C1289 1.327 . S
C1287 C1293 1.429 . S
C1288 C1280 1.574 . S
C1288 H1283 0.949 . S
C1288 C1294 1.368 . S
C1289 C1273 1.349 . S
C1289 H1281 0.950 . S
C1289 C1287 1.327 . S
C1290 C1278 1.349 . S
C1290 H1284 0.950 . S
C1290 C1291 1.327 . S
C1291 H1285 0.950 . S
C1291 C1290 1.327 . S
C1291 C1295 1.429 . S
C1292 C1275 1.574 . S
C1292 H1286 0.949 . S
C1292 C1296 1.368 . S
C1293 C1274 1.429 . S
C1293 C1287 1.429 . S
C1293 C1294 1.523 . S
C1294 C1275 1.368 . S
C1294 C1288 1.368 . S
C1294 C1293 1.523 . S
C1295 C1279 1.429 . S
C1295 C1291 1.429 . S
C1295 C1296 1.523 . S
C1296 C1280 1.368 . S
C1296 C1292 1.368 . S
C1296 C1295 1.523 . S
H1297 C1272 0.950 . S
H1298 C1274 0.950 . S
H1299 C1275 0.949 . S
H1300 C1277 0.950 . S
H1301 C1279 0.950 . S
C1302 C1303 1.349 . S
C1302 C1304 1.327 . S
C1302 H1327 0.950 . S
C1303 C1302 1.349 . S
C1303 C1319 1.349 . S
C1304 C1302 1.327 . S
C1304 C1323 1.429 . S
C1304 H1328 0.950 . S
C1305 C1322 1.574 . S
C1305 C1324 1.368 . S
C1305 H1329 0.949 . S
H1306 C1310 0.949 . S
C1307 C1308 1.349 . S
C1307 C1309 1.327 . S
C1307 H1330 0.950 . S
C1308 C1307 1.349 . S
C1308 C1320 1.349 . S
C1309 C1307 1.327 . S
C1309 C1325 1.429 . S
C1309 H1331 0.950 . S
C1310 H1306 0.949 . S
C1310 C1318 1.574 . S
C1310 C1326 1.368 . S
H1311 C1319 0.950 . S
H1312 C1317 0.950 . S
H1313 C1318 0.949 . S
H1314 C1320 0.950 . S
H1315 C1321 0.950 . S
H1316 C1322 0.949 . S
C1317 H1312 0.950 . S
C1317 C1319 1.327 . S
C1317 C1323 1.429 . S
C1318 C1310 1.574 . S
C1318 H1313 0.949 . S
C1318 C1324 1.368 . S
C1319 C1303 1.349 . S
C1319 H1311 0.950 . S
C1319 C1317 1.327 . S
C1320 C1308 1.349 . S
C1320 H1314 0.950 . S
C1320 C1321 1.327 . S
C1321 H1315 0.950 . S
C1321 C1320 1.327 . S
C1321 C1325 1.429 . S
C1322 C1305 1.574 . S
C1322 H1316 0.949 . S
C1322 C1326 1.368 . S
C1323 C1304 1.429 . S
C1323 C1317 1.429 . S
C1323 C1324 1.523 . S
C1324 C1305 1.368 . S
C1324 C1318 1.368 . S
C1324 C1323 1.523 . S
C1325 C1309 1.429 . S
C1325 C1321 1.429 . S
C1325 C1326 1.523 . S
C1326 C1310 1.368 . S
C1326 C1322 1.368 . S
C1326 C1325 1.523 . S
H1327 C1302 0.950 . S
H1328 C1304 0.950 . S
H1329 C1305 0.949 . S
H1330 C1307 0.950 . S
H1331 C1309 0.950 . S
C1332 C1333 1.349 . S
C1332 C1334 1.327 . S
C1332 H1357 0.950 . S
C1333 C1332 1.349 . S
C1333 C1349 1.349 . S
C1334 C1332 1.327 . S
C1334 C1353 1.429 . S
C1334 H1358 0.950 . S
C1335 C1352 1.574 . S
C1335 C1354 1.368 . S
C1335 H1359 0.949 . S
H1336 C1340 0.949 . S
C1337 C1338 1.349 . S
C1337 C1339 1.327 . S
C1337 H1360 0.950 . S
C1338 C1337 1.349 . S
C1338 C1350 1.349 . S
C1339 C1337 1.327 . S
C1339 C1355 1.429 . S
C1339 H1361 0.950 . S
C1340 H1336 0.949 . S
C1340 C1348 1.574 . S
C1340 C1356 1.368 . S
H1341 C1349 0.950 . S
H1342 C1347 0.950 . S
H1343 C1348 0.949 . S
H1344 C1350 0.950 . S
H1345 C1351 0.950 . S
H1346 C1352 0.949 . S
C1347 H1342 0.950 . S
C1347 C1349 1.327 . S
C1347 C1353 1.429 . S
C1348 C1340 1.574 . S
C1348 H1343 0.949 . S
C1348 C1354 1.368 . S
C1349 C1333 1.349 . S
C1349 H1341 0.950 . S
C1349 C1347 1.327 . S
C1350 C1338 1.349 . S
C1350 H1344 0.950 . S
C1350 C1351 1.327 . S
C1351 H1345 0.950 . S
C1351 C1350 1.327 . S
C1351 C1355 1.429 . S
C1352 C1335 1.574 . S
C1352 H1346 0.949 . S
C1352 C1356 1.368 . S
C1353 C1334 1.429 . S
C1353 C1347 1.429 . S
C1353 C1354 1.523 . S
C1354 C1335 1.368 . S
C1354 C1348 1.368 . S
C1354 C1353 1.523 . S
C1355 C1339 1.429 . S
C1355 C1351 1.429 . S
C1355 C1356 1.523 . S
C1356 C1340 1.368 . S
C1356 C1352 1.368 . S
C1356 C1355 1.523 . S
H1357 C1332 0.950 . S
H1358 C1334 0.950 . S
H1359 C1335 0.949 . S
H1360 C1337 0.950 . S
H1361 C1339 0.950 . S
C1362 C1363 1.349 . S
C1362 C1364 1.327 . S
C1362 H1387 0.950 . S
C1363 C1362 1.349 . S
C1363 C1379 1.349 . S
C1364 C1362 1.327 . S
C1364 C1383 1.429 . S
C1364 H1388 0.950 . S
C1365 C1382 1.574 . S
C1365 C1384 1.368 . S
C1365 H1389 0.949 . S
H1366 C1370 0.949 . S
C1367 C1368 1.349 . S
C1367 C1369 1.327 . S
C1367 H1390 0.950 . S
C1368 C1367 1.349 . S
C1368 C1380 1.349 . S
C1369 C1367 1.327 . S
C1369 C1385 1.429 . S
C1369 H1391 0.950 . S
C1370 H1366 0.949 . S
C1370 C1378 1.574 . S
C1370 C1386 1.368 . S
H1371 C1379 0.950 . S
H1372 C1377 0.950 . S
H1373 C1378 0.949 . S
H1374 C1380 0.950 . S
H1375 C1381 0.950 . S
H1376 C1382 0.949 . S
C1377 H1372 0.950 . S
C1377 C1379 1.327 . S
C1377 C1383 1.429 . S
C1378 C1370 1.574 . S
C1378 H1373 0.949 . S
C1378 C1384 1.368 . S
C1379 C1363 1.349 . S
C1379 H1371 0.950 . S
C1379 C1377 1.327 . S
C1380 C1368 1.349 . S
C1380 H1374 0.950 . S
C1380 C1381 1.327 . S
C1381 H1375 0.950 . S
C1381 C1380 1.327 . S
C1381 C1385 1.429 . S
C1382 C1365 1.574 . S
C1382 H1376 0.949 . S
C1382 C1386 1.368 . S
C1383 C1364 1.429 . S
C1383 C1377 1.429 . S
C1383 C1384 1.523 . S
C1384 C1365 1.368 . S
C1384 C1378 1.368 . S
C1384 C1383 1.523 . S
C1385 C1369 1.429 . S
C1385 C1381 1.429 . S
C1385 C1386 1.523 . S
C1386 C1370 1.368 . S
C1386 C1382 1.368 . S
C1386 C1385 1.523 . S
H1387 C1362 0.950 . S
H1388 C1364 0.950 . S
H1389 C1365 0.949 . S
H1390 C1367 0.950 . S
H1391 C1369 0.950 . S
C1392 C1393 1.349 . S
C1392 C1394 1.327 . S
C1392 H1417 0.950 . S
C1393 C1392 1.349 . S
C1393 C1409 1.349 . S
C1394 C1392 1.327 . S
C1394 C1413 1.429 . S
C1394 H1418 0.950 . S
C1395 C1412 1.574 . S
C1395 C1414 1.368 . S
C1395 H1419 0.949 . S
H1396 C1400 0.949 . S
C1397 C1398 1.349 . S
C1397 C1399 1.327 . S
C1397 H1420 0.950 . S
C1398 C1397 1.349 . S
C1398 C1410 1.349 . S
C1399 C1397 1.327 . S
C1399 C1415 1.429 . S
C1399 H1421 0.950 . S
C1400 H1396 0.949 . S
C1400 C1408 1.574 . S
C1400 C1416 1.368 . S
H1401 C1409 0.950 . S
H1402 C1407 0.950 . S
H1403 C1408 0.949 . S
H1404 C1410 0.950 . S
H1405 C1411 0.950 . S
H1406 C1412 0.949 . S
C1407 H1402 0.950 . S
C1407 C1409 1.327 . S
C1407 C1413 1.429 . S
C1408 C1400 1.574 . S
C1408 H1403 0.949 . S
C1408 C1414 1.368 . S
C1409 C1393 1.349 . S
C1409 H1401 0.950 . S
C1409 C1407 1.327 . S
C1410 C1398 1.349 . S
C1410 H1404 0.950 . S
C1410 C1411 1.327 . S
C1411 H1405 0.950 . S
C1411 C1410 1.327 . S
C1411 C1415 1.429 . S
C1412 C1395 1.574 . S
C1412 H1406 0.949 . S
C1412 C1416 1.368 . S
C1413 C1394 1.429 . S
C1413 C1407 1.429 . S
C1413 C1414 1.523 . S
C1414 C1395 1.368 . S
C1414 C1408 1.368 . S
C1414 C1413 1.523 . S
C1415 C1399 1.429 . S
C1415 C1411 1.429 . S
C1415 C1416 1.523 . S
C1416 C1400 1.368 . S
C1416 C1412 1.368 . S
C1416 C1415 1.523 . S
H1417 C1392 0.950 . S
H1418 C1394 0.950 . S
H1419 C1395 0.949 . S
H1420 C1397 0.950 . S
H1421 C1399 0.950 . S
C1422 C1423 1.349 . S
C1422 C1424 1.327 . S
C1422 H1447 0.950 . S
C1423 C1422 1.349 . S
C1423 C1439 1.349 . S
C1424 C1422 1.327 . S
C1424 C1443 1.429 . S
C1424 H1448 0.950 . S
C1425 C1442 1.574 . S
C1425 C1444 1.368 . S
C1425 H1449 0.949 . S
H1426 C1430 0.949 . S
C1427 C1428 1.349 . S
C1427 C1429 1.327 . S
C1427 H1450 0.950 . S
C1428 C1427 1.349 . S
C1428 C1440 1.349 . S
C1429 C1427 1.327 . S
C1429 C1445 1.429 . S
C1429 H1451 0.950 . S
C1430 H1426 0.949 . S
C1430 C1438 1.574 . S
C1430 C1446 1.368 . S
H1431 C1439 0.950 . S
H1432 C1437 0.950 . S
H1433 C1438 0.949 . S
H1434 C1440 0.950 . S
H1435 C1441 0.950 . S
H1436 C1442 0.949 . S
C1437 H1432 0.950 . S
C1437 C1439 1.327 . S
C1437 C1443 1.429 . S
C1438 C1430 1.574 . S
C1438 H1433 0.949 . S
C1438 C1444 1.368 . S
C1439 C1423 1.349 . S
C1439 H1431 0.950 . S
C1439 C1437 1.327 . S
C1440 C1428 1.349 . S
C1440 H1434 0.950 . S
C1440 C1441 1.327 . S
C1441 H1435 0.950 . S
C1441 C1440 1.327 . S
C1441 C1445 1.429 . S
C1442 C1425 1.574 . S
C1442 H1436 0.949 . S
C1442 C1446 1.368 . S
C1443 C1424 1.429 . S
C1443 C1437 1.429 . S
C1443 C1444 1.523 . S
C1444 C1425 1.368 . S
C1444 C1438 1.368 . S
C1444 C1443 1.523 . S
C1445 C1429 1.429 . S
C1445 C1441 1.429 . S
C1445 C1446 1.523 . S
C1446 C1430 1.368 . S
C1446 C1442 1.368 . S
C1446 C1445 1.523 . S
H1447 C1422 0.950 . S
H1448 C1424 0.950 . S
H1449 C1425 0.949 . S
H1450 C1427 0.950 . S
H1451 C1429 0.950 . S
C1452 C1453 1.349 . S
C1452 C1454 1.327 . S
C1452 H1477 0.950 . S
C1453 C1452 1.349 . S
C1453 C1469 1.349 . S
C1454 C1452 1.327 . S
C1454 C1473 1.429 . S
C1454 H1478 0.950 . S
C1455 C1472 1.574 . S
C1455 C1474 1.368 . S
C1455 H1479 0.949 . S
H1456 C1460 0.949 . S
C1457 C1458 1.349 . S
C1457 C1459 1.327 . S
C1457 H1480 0.950 . S
C1458 C1457 1.349 . S
C1458 C1470 1.349 . S
C1459 C1457 1.327 . S
C1459 C1475 1.429 . S
C1459 H1481 0.950 . S
C1460 H1456 0.949 . S
C1460 C1468 1.574 . S
C1460 C1476 1.368 . S
H1461 C1469 0.950 . S
H1462 C1467 0.950 . S
H1463 C1468 0.949 . S
H1464 C1470 0.950 . S
H1465 C1471 0.950 . S
H1466 C1472 0.949 . S
C1467 H1462 0.950 . S
C1467 C1469 1.327 . S
C1467 C1473 1.429 . S
C1468 C1460 1.574 . S
C1468 H1463 0.949 . S
C1468 C1474 1.368 . S
C1469 C1453 1.349 . S
C1469 H1461 0.950 . S
C1469 C1467 1.327 . S
C1470 C1458 1.349 . S
C1470 H1464 0.950 . S
C1470 C1471 1.327 . S
C1471 H1465 0.950 . S
C1471 C1470 1.327 . S
C1471 C1475 1.429 . S
C1472 C1455 1.574 . S
C1472 H1466 0.949 . S
C1472 C1476 1.368 . S
C1473 C1454 1.429 . S
C1473 C1467 1.429 . S
C1473 C1474 1.523 . S
C1474 C1455 1.368 . S
C1474 C1468 1.368 . S
C1474 C1473 1.523 . S
C1475 C1459 1.429 . S
C1475 C1471 1.429 . S
C1475 C1476 1.523 . S
C1476 C1460 1.368 . S
C1476 C1472 1.368 . S
C1476 C1475 1.523 . S
H1477 C1452 0.950 . S
H1478 C1454 0.950 . S
H1479 C1455 0.949 . S
H1480 C1457 0.950 . S
H1481 C1459 0.950 . S
C1482 C1483 1.349 . S
C1482 C1484 1.327 . S
C1482 H1507 0.950 . S
C1483 C1482 1.349 . S
C1483 C1499 1.349 . S
C1484 C1482 1.327 . S
C1484 C1503 1.429 . S
C1484 H1508 0.950 . S
C1485 C1502 1.574 . S
C1485 C1504 1.368 . S
C1485 H1509 0.949 . S
H1486 C1490 0.949 . S
C1487 C1488 1.349 . S
C1487 C1489 1.327 . S
C1487 H1510 0.950 . S
C1488 C1487 1.349 . S
C1488 C1500 1.349 . S
C1489 C1487 1.327 . S
C1489 C1505 1.429 . S
C1489 H1511 0.950 . S
C1490 H1486 0.949 . S
C1490 C1498 1.574 . S
C1490 C1506 1.368 . S
H1491 C1499 0.950 . S
H1492 C1497 0.950 . S
H1493 C1498 0.949 . S
H1494 C1500 0.950 . S
H1495 C1501 0.950 . S
H1496 C1502 0.949 . S
C1497 H1492 0.950 . S
C1497 C1499 1.327 . S
C1497 C1503 1.429 . S
C1498 C1490 1.574 . S
C1498 H1493 0.949 . S
C1498 C1504 1.368 . S
C1499 C1483 1.349 . S
C1499 H1491 0.950 . S
C1499 C1497 1.327 . S
C1500 C1488 1.349 . S
C1500 H1494 0.950 . S
C1500 C1501 1.327 . S
C1501 H1495 0.950 . S
C1501 C1500 1.327 . S
C1501 C1505 1.429 . S
C1502 C1485 1.574 . S
C1502 H1496 0.949 . S
C1502 C1506 1.368 . S
C1503 C1484 1.429 . S
C1503 C1497 1.429 . S
C1503 C1504 1.523 . S
C1504 C1485 1.368 . S
C1504 C1498 1.368 . S
C1504 C1503 1.523 . S
C1505 C1489 1.429 . S
C1505 C1501 1.429 . S
C1505 C1506 1.523 . S
C1506 C1490 1.368 . S
C1506 C1502 1.368 . S
C1506 C1505 1.523 . S
H1507 C1482 0.950 . S
H1508 C1484 0.950 . S
H1509 C1485 0.949 . S
H1510 C1487 0.950 . S
H1511 C1489 0.950 . S
C1512 C1513 1.349 . S
C1512 C1514 1.327 . S
C1512 H1537 0.950 . S
C1513 C1512 1.349 . S
C1513 C1529 1.349 . S
C1514 C1512 1.327 . S
C1514 C1533 1.429 . S
C1514 H1538 0.950 . S
C1515 C1532 1.574 . S
C1515 C1534 1.368 . S
C1515 H1539 0.949 . S
H1516 C1520 0.949 . S
C1517 C1518 1.349 . S
C1517 C1519 1.327 . S
C1517 H1540 0.950 . S
C1518 C1517 1.349 . S
C1518 C1530 1.349 . S
C1519 C1517 1.327 . S
C1519 C1535 1.429 . S
C1519 H1541 0.950 . S
C1520 H1516 0.949 . S
C1520 C1528 1.574 . S
C1520 C1536 1.368 . S
H1521 C1529 0.950 . S
H1522 C1527 0.950 . S
H1523 C1528 0.949 . S
H1524 C1530 0.950 . S
H1525 C1531 0.950 . S
H1526 C1532 0.949 . S
C1527 H1522 0.950 . S
C1527 C1529 1.327 . S
C1527 C1533 1.429 . S
C1528 C1520 1.574 . S
C1528 H1523 0.949 . S
C1528 C1534 1.368 . S
C1529 C1513 1.349 . S
C1529 H1521 0.950 . S
C1529 C1527 1.327 . S
C1530 C1518 1.349 . S
C1530 H1524 0.950 . S
C1530 C1531 1.327 . S
C1531 H1525 0.950 . S
C1531 C1530 1.327 . S
C1531 C1535 1.429 . S
C1532 C1515 1.574 . S
C1532 H1526 0.949 . S
C1532 C1536 1.368 . S
C1533 C1514 1.429 . S
C1533 C1527 1.429 . S
C1533 C1534 1.523 . S
C1534 C1515 1.368 . S
C1534 C1528 1.368 . S
C1534 C1533 1.523 . S
C1535 C1519 1.429 . S
C1535 C1531 1.429 . S
C1535 C1536 1.523 . S
C1536 C1520 1.368 . S
C1536 C1532 1.368 . S
C1536 C1535 1.523 . S
H1537 C1512 0.950 . S
H1538 C1514 0.950 . S
H1539 C1515 0.949 . S
H1540 C1517 0.950 . S
H1541 C1519 0.950 . S
C1542 C1543 1.349 . S
C1542 C1544 1.327 . S
C1542 H1567 0.950 . S
C1543 C1542 1.349 . S
C1543 C1559 1.349 . S
C1544 C1542 1.327 . S
C1544 C1563 1.429 . S
C1544 H1568 0.950 . S
C1545 C1562 1.574 . S
C1545 C1564 1.368 . S
C1545 H1569 0.949 . S
H1546 C1550 0.949 . S
C1547 C1548 1.349 . S
C1547 C1549 1.327 . S
C1547 H1570 0.950 . S
C1548 C1547 1.349 . S
C1548 C1560 1.349 . S
C1549 C1547 1.327 . S
C1549 C1565 1.429 . S
C1549 H1571 0.950 . S
C1550 H1546 0.949 . S
C1550 C1558 1.574 . S
C1550 C1566 1.368 . S
H1551 C1559 0.950 . S
H1552 C1557 0.950 . S
H1553 C1558 0.949 . S
H1554 C1560 0.950 . S
H1555 C1561 0.950 . S
H1556 C1562 0.949 . S
C1557 H1552 0.950 . S
C1557 C1559 1.327 . S
C1557 C1563 1.429 . S
C1558 C1550 1.574 . S
C1558 H1553 0.949 . S
C1558 C1564 1.368 . S
C1559 C1543 1.349 . S
C1559 H1551 0.950 . S
C1559 C1557 1.327 . S
C1560 C1548 1.349 . S
C1560 H1554 0.950 . S
C1560 C1561 1.327 . S
C1561 H1555 0.950 . S
C1561 C1560 1.327 . S
C1561 C1565 1.429 . S
C1562 C1545 1.574 . S
C1562 H1556 0.949 . S
C1562 C1566 1.368 . S
C1563 C1544 1.429 . S
C1563 C1557 1.429 . S
C1563 C1564 1.523 . S
C1564 C1545 1.368 . S
C1564 C1558 1.368 . S
C1564 C1563 1.523 . S
C1565 C1549 1.429 . S
C1565 C1561 1.429 . S
C1565 C1566 1.523 . S
C1566 C1550 1.368 . S
C1566 C1562 1.368 . S
C1566 C1565 1.523 . S
H1567 C1542 0.950 . S
H1568 C1544 0.950 . S
H1569 C1545 0.949 . S
H1570 C1547 0.950 . S
H1571 C1549 0.950 . S
C1572 C1573 1.349 . S
C1572 C1574 1.327 . S
C1572 H1597 0.950 . S
C1573 C1572 1.349 . S
C1573 C1589 1.349 . S
C1574 C1572 1.327 . S
C1574 C1593 1.429 . S
C1574 H1598 0.950 . S
C1575 C1592 1.574 . S
C1575 C1594 1.368 . S
C1575 H1599 0.949 . S
H1576 C1580 0.949 . S
C1577 C1578 1.349 . S
C1577 C1579 1.327 . S
C1577 H1600 0.950 . S
C1578 C1577 1.349 . S
C1578 C1590 1.349 . S
C1579 C1577 1.327 . S
C1579 C1595 1.429 . S
C1579 H1601 0.950 . S
C1580 H1576 0.949 . S
C1580 C1588 1.574 . S
C1580 C1596 1.368 . S
H1581 C1589 0.950 . S
H1582 C1587 0.950 . S
H1583 C1588 0.949 . S
H1584 C1590 0.950 . S
H1585 C1591 0.950 . S
H1586 C1592 0.949 . S
C1587 H1582 0.950 . S
C1587 C1589 1.327 . S
C1587 C1593 1.429 . S
C1588 C1580 1.574 . S
C1588 H1583 0.949 . S
C1588 C1594 1.368 . S
C1589 C1573 1.349 . S
C1589 H1581 0.950 . S
C1589 C1587 1.327 . S
C1590 C1578 1.349 . S
C1590 H1584 0.950 . S
C1590 C1591 1.327 . S
C1591 H1585 0.950 . S
C1591 C1590 1.327 . S
C1591 C1595 1.429 . S
C1592 C1575 1.574 . S
C1592 H1586 0.949 . S
C1592 C1596 1.368 . S
C1593 C1574 1.429 . S
C1593 C1587 1.429 . S
C1593 C1594 1.523 . S
C1594 C1575 1.368 . S
C1594 C1588 1.368 . S
C1594 C1593 1.523 . S
C1595 C1579 1.429 . S
C1595 C1591 1.429 . S
C1595 C1596 1.523 . S
C1596 C1580 1.368 . S
C1596 C1592 1.368 . S
C1596 C1595 1.523 . S
H1597 C1572 0.950 . S
H1598 C1574 0.950 . S
H1599 C1575 0.949 . S
H1600 C1577 0.950 . S
H1601 C1579 0.950 . S
C1602 C1603 1.349 . S
C1602 C1604 1.327 . S
C1602 H1627 0.950 . S
C1603 C1602 1.349 . S
C1603 C1619 1.349 . S
C1604 C1602 1.327 . S
C1604 C1623 1.429 . S
C1604 H1628 0.950 . S
C1605 C1622 1.574 . S
C1605 C1624 1.368 . S
C1605 H1629 0.949 . S
H1606 C1610 0.949 . S
C1607 C1608 1.349 . S
C1607 C1609 1.327 . S
C1607 H1630 0.950 . S
C1608 C1607 1.349 . S
C1608 C1620 1.349 . S
C1609 C1607 1.327 . S
C1609 C1625 1.429 . S
C1609 H1631 0.950 . S
C1610 H1606 0.949 . S
C1610 C1618 1.574 . S
C1610 C1626 1.368 . S
H1611 C1619 0.950 . S
H1612 C1617 0.950 . S
H1613 C1618 0.949 . S
H1614 C1620 0.950 . S
H1615 C1621 0.950 . S
H1616 C1622 0.949 . S
C1617 H1612 0.950 . S
C1617 C1619 1.327 . S
C1617 C1623 1.429 . S
C1618 C1610 1.574 . S
C1618 H1613 0.949 . S
C1618 C1624 1.368 . S
C1619 C1603 1.349 . S
C1619 H1611 0.950 . S
C1619 C1617 1.327 . S
C1620 C1608 1.349 . S
C1620 H1614 0.950 . S
C1620 C1621 1.327 . S
C1621 H1615 0.950 . S
C1621 C1620 1.327 . S
C1621 C1625 1.429 . S
C1622 C1605 1.574 . S
C1622 H1616 0.949 . S
C1622 C1626 1.368 . S
C1623 C1604 1.429 . S
C1623 C1617 1.429 . S
C1623 C1624 1.523 . S
C1624 C1605 1.368 . S
C1624 C1618 1.368 . S
C1624 C1623 1.523 . S
C1625 C1609 1.429 . S
C1625 C1621 1.429 . S
C1625 C1626 1.523 . S
C1626 C1610 1.368 . S
C1626 C1622 1.368 . S
C1626 C1625 1.523 . S
H1627 C1602 0.950 . S
H1628 C1604 0.950 . S
H1629 C1605 0.949 . S
H1630 C1607 0.950 . S
H1631 C1609 0.950 . S
C1632 C1633 1.349 . S
C1632 C1634 1.327 . S
C1632 H1657 0.950 . S
C1633 C1632 1.349 . S
C1633 C1649 1.349 . S
C1634 C1632 1.327 . S
C1634 C1653 1.429 . S
C1634 H1658 0.950 . S
C1635 C1652 1.574 . S
C1635 C1654 1.368 . S
C1635 H1659 0.949 . S
H1636 C1640 0.949 . S
C1637 C1638 1.349 . S
C1637 C1639 1.327 . S
C1637 H1660 0.950 . S
C1638 C1637 1.349 . S
C1638 C1650 1.349 . S
C1639 C1637 1.327 . S
C1639 C1655 1.429 . S
C1639 H1661 0.950 . S
C1640 H1636 0.949 . S
C1640 C1648 1.574 . S
C1640 C1656 1.368 . S
H1641 C1649 0.950 . S
H1642 C1647 0.950 . S
H1643 C1648 0.949 . S
H1644 C1650 0.950 . S
H1645 C1651 0.950 . S
H1646 C1652 0.949 . S
C1647 H1642 0.950 . S
C1647 C1649 1.327 . S
C1647 C1653 1.429 . S
C1648 C1640 1.574 . S
C1648 H1643 0.949 . S
C1648 C1654 1.368 . S
C1649 C1633 1.349 . S
C1649 H1641 0.950 . S
C1649 C1647 1.327 . S
C1650 C1638 1.349 . S
C1650 H1644 0.950 . S
C1650 C1651 1.327 . S
C1651 H1645 0.950 . S
C1651 C1650 1.327 . S
C1651 C1655 1.429 . S
C1652 C1635 1.574 . S
C1652 H1646 0.949 . S
C1652 C1656 1.368 . S
C1653 C1634 1.429 . S
C1653 C1647 1.429 . S
C1653 C1654 1.523 . S
C1654 C1635 1.368 . S
C1654 C1648 1.368 . S
C1654 C1653 1.523 . S
C1655 C1639 1.429 . S
C1655 C1651 1.429 . S
C1655 C1656 1.523 . S
C1656 C1640 1.368 . S
C1656 C1652 1.368 . S
C1656 C1655 1.523 . S
H1657 C1632 0.950 . S
H1658 C1634 0.950 . S
H1659 C1635 0.949 . S
H1660 C1637 0.950 . S
H1661 C1639 0.950 . S
C1662 C1663 1.349 . S
C1662 C1664 1.327 . S
C1662 H1687 0.950 . S
C1663 C1662 1.349 . S
C1663 C1679 1.349 . S
C1664 C1662 1.327 . S
C1664 C1683 1.429 . S
C1664 H1688 0.950 . S
C1665 C1682 1.574 . S
C1665 C1684 1.368 . S
C1665 H1689 0.949 . S
H1666 C1670 0.949 . S
C1667 C1668 1.349 . S
C1667 C1669 1.327 . S
C1667 H1690 0.950 . S
C1668 C1667 1.349 . S
C1668 C1680 1.349 . S
C1669 C1667 1.327 . S
C1669 C1685 1.429 . S
C1669 H1691 0.950 . S
C1670 H1666 0.949 . S
C1670 C1678 1.574 . S
C1670 C1686 1.368 . S
H1671 C1679 0.950 . S
H1672 C1677 0.950 . S
H1673 C1678 0.949 . S
H1674 C1680 0.950 . S
H1675 C1681 0.950 . S
H1676 C1682 0.949 . S
C1677 H1672 0.950 . S
C1677 C1679 1.327 . S
C1677 C1683 1.429 . S
C1678 C1670 1.574 . S
C1678 H1673 0.949 . S
C1678 C1684 1.368 . S
C1679 C1663 1.349 . S
C1679 H1671 0.950 . S
C1679 C1677 1.327 . S
C1680 C1668 1.349 . S
C1680 H1674 0.950 . S
C1680 C1681 1.327 . S
C1681 H1675 0.950 . S
C1681 C1680 1.327 . S
C1681 C1685 1.429 . S
C1682 C1665 1.574 . S
C1682 H1676 0.949 . S
C1682 C1686 1.368 . S
C1683 C1664 1.429 . S
C1683 C1677 1.429 . S
C1683 C1684 1.523 . S
C1684 C1665 1.368 . S
C1684 C1678 1.368 . S
C1684 C1683 1.523 . S
C1685 C1669 1.429 . S
C1685 C1681 1.429 . S
C1685 C1686 1.523 . S
C1686 C1670 1.368 . S
C1686 C1682 1.368 . S
C1686 C1685 1.523 . S
H1687 C1662 0.950 . S
H1688 C1664 0.950 . S
H1689 C1665 0.949 . S
H1690 C1667 0.950 . S
H1691 C1669 0.950 . S
C1692 C1693 1.349 . S
C1692 C1694 1.327 . S
C1692 H1717 0.950 . S
C1693 C1692 1.349 . S
C1693 C1709 1.349 . S
C1694 C1692 1.327 . S
C1694 C1713 1.429 . S
C1694 H1718 0.950 . S
C1695 C1712 1.574 . S
C1695 C1714 1.368 . S
C1695 H1719 0.949 . S
H1696 C1700 0.949 . S
C1697 C1698 1.349 . S
C1697 C1699 1.327 . S
C1697 H1720 0.950 . S
C1698 C1697 1.349 . S
C1698 C1710 1.349 . S
C1699 C1697 1.327 . S
C1699 C1715 1.429 . S
C1699 H1721 0.950 . S
C1700 H1696 0.949 . S
C1700 C1708 1.574 . S
C1700 C1716 1.368 . S
H1701 C1709 0.950 . S
H1702 C1707 0.950 . S
H1703 C1708 0.949 . S
H1704 C1710 0.950 . S
H1705 C1711 0.950 . S
H1706 C1712 0.949 . S
C1707 H1702 0.950 . S
C1707 C1709 1.327 . S
C1707 C1713 1.429 . S
C1708 C1700 1.574 . S
C1708 H1703 0.949 . S
C1708 C1714 1.368 . S
C1709 C1693 1.349 . S
C1709 H1701 0.950 . S
C1709 C1707 1.327 . S
C1710 C1698 1.349 . S
C1710 H1704 0.950 . S
C1710 C1711 1.327 . S
C1711 H1705 0.950 . S
C1711 C1710 1.327 . S
C1711 C1715 1.429 . S
C1712 C1695 1.574 . S
C1712 H1706 0.949 . S
C1712 C1716 1.368 . S
C1713 C1694 1.429 . S
C1713 C1707 1.429 . S
C1713 C1714 1.523 . S
C1714 C1695 1.368 . S
C1714 C1708 1.368 . S
C1714 C1713 1.523 . S
C1715 C1699 1.429 . S
C1715 C1711 1.429 . S
C1715 C1716 1.523 . S
C1716 C1700 1.368 . S
C1716 C1712 1.368 . S
C1716 C1715 1.523 . S
H1717 C1692 0.950 . S
H1718 C1694 0.950 . S
H1719 C1695 0.949 . S
H1720 C1697 0.950 . S
H1721 C1699 0.950 . S
C1722 C1723 1.349 . S
C1722 C1724 1.327 . S
C1722 H1747 0.950 . S
C1723 C1722 1.349 . S
C1723 C1739 1.349 . S
C1724 C1722 1.327 . S
C1724 C1743 1.429 . S
C1724 H1748 0.950 . S
C1725 C1742 1.574 . S
C1725 C1744 1.368 . S
C1725 H1749 0.949 . S
H1726 C1730 0.949 . S
C1727 C1728 1.349 . S
C1727 C1729 1.327 . S
C1727 H1750 0.950 . S
C1728 C1727 1.349 . S
C1728 C1740 1.349 . S
C1729 C1727 1.327 . S
C1729 C1745 1.429 . S
C1729 H1751 0.950 . S
C1730 H1726 0.949 . S
C1730 C1738 1.574 . S
C1730 C1746 1.368 . S
H1731 C1739 0.950 . S
H1732 C1737 0.950 . S
H1733 C1738 0.949 . S
H1734 C1740 0.950 . S
H1735 C1741 0.950 . S
H1736 C1742 0.949 . S
C1737 H1732 0.950 . S
C1737 C1739 1.327 . S
C1737 C1743 1.429 . S
C1738 C1730 1.574 . S
C1738 H1733 0.949 . S
C1738 C1744 1.368 . S
C1739 C1723 1.349 . S
C1739 H1731 0.950 . S
C1739 C1737 1.327 . S
C1740 C1728 1.349 . S
C1740 H1734 0.950 . S
C1740 C1741 1.327 . S
C1741 H1735 0.950 . S
C1741 C1740 1.327 . S
C1741 C1745 1.429 . S
C1742 C1725 1.574 . S
C1742 H1736 0.949 . S
C1742 C1746 1.368 . S
C1743 C1724 1.429 . S
C1743 C1737 1.429 . S
C1743 C1744 1.523 . S
C1744 C1725 1.368 . S
C1744 C1738 1.368 . S
C1744 C1743 1.523 . S
C1745 C1729 1.429 . S
C1745 C1741 1.429 . S
C1745 C1746 1.523 . S
C1746 C1730 1.368 . S
C1746 C1742 1.368 . S
C1746 C1745 1.523 . S
H1747 C1722 0.950 . S
H1748 C1724 0.950 . S
H1749 C1725 0.949 . S
H1750 C1727 0.950 . S
H1751 C1729 0.950 . S
C1752 C1753 1.349 . S
C1752 C1754 1.327 . S
C1752 H1777 0.950 . S
C1753 C1752 1.349 . S
C1753 C1769 1.349 . S
C1754 C1752 1.327 . S
C1754 C1773 1.429 . S
C1754 H1778 0.950 . S
C1755 C1772 1.574 . S
C1755 C1774 1.368 . S
C1755 H1779 0.949 . S
H1756 C1760 0.949 . S
C1757 C1758 1.349 . S
C1757 C1759 1.327 . S
C1757 H1780 0.950 . S
C1758 C1757 1.349 . S
C1758 C1770 1.349 . S
C1759 C1757 1.327 . S
C1759 C1775 1.429 . S
C1759 H1781 0.950 . S
C1760 H1756 0.949 . S
C1760 C1768 1.574 . S
C1760 C1776 1.368 . S
H1761 C1769 0.950 . S
H1762 C1767 0.950 . S
H1763 C1768 0.949 . S
H1764 C1770 0.950 . S
H1765 C1771 0.950 . S
H1766 C1772 0.949 . S
C1767 H1762 0.950 . S
C1767 C1769 1.327 . S
C1767 C1773 1.429 . S
C1768 C1760 1.574 . S
C1768 H1763 0.949 . S
C1768 C1774 1.368 . S
C1769 C1753 1.349 . S
C1769 H1761 0.950 . S
C1769 C1767 1.327 . S
C1770 C1758 1.349 . S
C1770 H1764 0.950 . S
C1770 C1771 1.327 . S
C1771 H1765 0.950 . S
C1771 C1770 1.327 . S
C1771 C1775 1.429 . S
C1772 C1755 1.574 . S
C1772 H1766 0.949 . S
C1772 C1776 1.368 . S
C1773 C1754 1.429 . S
C1773 C1767 1.429 . S
C1773 C1774 1.523 . S
C1774 C1755 1.368 . S
C1774 C1768 1.368 . S
C1774 C1773 1.523 . S
C1775 C1759 1.429 . S
C1775 C1771 1.429 . S
C1775 C1776 1.523 . S
C1776 C1760 1.368 . S
C1776 C1772 1.368 . S
C1776 C1775 1.523 . S
H1777 C1752 0.950 . S
H1778 C1754 0.950 . S
H1779 C1755 0.949 . S
H1780 C1757 0.950 . S
H1781 C1759 0.950 . S
C1782 C1783 1.349 . S
C1782 C1784 1.327 . S
C1782 H1807 0.950 . S
C1783 C1782 1.349 . S
C1783 C1799 1.349 . S
C1784 C1782 1.327 . S
C1784 C1803 1.429 . S
C1784 H1808 0.950 . S
C1785 C1802 1.574 . S
C1785 C1804 1.368 . S
C1785 H1809 0.949 . S
H1786 C1790 0.949 . S
C1787 C1788 1.349 . S
C1787 C1789 1.327 . S
C1787 H1810 0.950 . S
C1788 C1787 1.349 . S
C1788 C1800 1.349 . S
C1789 C1787 1.327 . S
C1789 C1805 1.429 . S
C1789 H1811 0.950 . S
C1790 H1786 0.949 . S
C1790 C1798 1.574 . S
C1790 C1806 1.368 . S
H1791 C1799 0.950 . S
H1792 C1797 0.950 . S
H1793 C1798 0.949 . S
H1794 C1800 0.950 . S
H1795 C1801 0.950 . S
H1796 C1802 0.949 . S
C1797 H1792 0.950 . S
C1797 C1799 1.327 . S
C1797 C1803 1.429 . S
C1798 C1790 1.574 . S
C1798 H1793 0.949 . S
C1798 C1804 1.368 . S
C1799 C1783 1.349 . S
C1799 H1791 0.950 . S
C1799 C1797 1.327 . S
C1800 C1788 1.349 . S
C1800 H1794 0.950 . S
C1800 C1801 1.327 . S
C1801 H1795 0.950 . S
C1801 C1800 1.327 . S
C1801 C1805 1.429 . S
C1802 C1785 1.574 . S
C1802 H1796 0.949 . S
C1802 C1806 1.368 . S
C1803 C1784 1.429 . S
C1803 C1797 1.429 . S
C1803 C1804 1.523 . S
C1804 C1785 1.368 . S
C1804 C1798 1.368 . S
C1804 C1803 1.523 . S
C1805 C1789 1.429 . S
C1805 C1801 1.429 . S
C1805 C1806 1.523 . S
C1806 C1790 1.368 . S
C1806 C1802 1.368 . S
C1806 C1805 1.523 . S
H1807 C1782 0.950 . S
H1808 C1784 0.950 . S
H1809 C1785 0.949 . S
H1810 C1787 0.950 . S
H1811 C1789 0.950 . S
C1812 C1813 1.349 1_554 S
C1812 C1814 1.327 1_554 S
C1812 H1837 0.950 . S
C1813 C1812 1.349 1_556 S
C1813 C1829 1.349 . S
C1814 C1812 1.327 1_556 S
C1814 C1833 1.429 . S
C1814 H1838 0.950 1_556 S
C1815 C1832 1.574 . S
C1815 C1834 1.368 . S
C1815 H1839 0.949 . S
H1816 C1820 0.949 . S
C1817 C1818 1.349 . S
C1817 C1819 1.327 . S
C1817 H1840 0.950 . S
C1818 C1817 1.349 . S
C1818 C1830 1.349 . S
C1819 C1817 1.327 . S
C1819 C1835 1.429 . S
C1819 H1841 0.950 . S
C1820 H1816 0.949 . S
C1820 C1828 1.574 . S
C1820 C1836 1.368 . S
H1821 C1829 0.950 . S
H1822 C1827 0.950 . S
H1823 C1828 0.949 . S
H1824 C1830 0.950 . S
H1825 C1831 0.950 . S
H1826 C1832 0.949 . S
C1827 H1822 0.950 . S
C1827 C1829 1.327 . S
C1827 C1833 1.429 . S
C1828 C1820 1.574 . S
C1828 H1823 0.949 . S
C1828 C1834 1.368 . S
C1829 C1813 1.349 . S
C1829 H1821 0.950 . S
C1829 C1827 1.327 . S
C1830 C1818 1.349 . S
C1830 H1824 0.950 . S
C1830 C1831 1.327 . S
C1831 H1825 0.950 . S
C1831 C1830 1.327 . S
C1831 C1835 1.429 . S
C1832 C1815 1.574 . S
C1832 H1826 0.949 . S
C1832 C1836 1.368 . S
C1833 C1814 1.429 . S
C1833 C1827 1.429 . S
C1833 C1834 1.523 . S
C1834 C1815 1.368 . S
C1834 C1828 1.368 . S
C1834 C1833 1.523 . S
C1835 C1819 1.429 . S
C1835 C1831 1.429 . S
C1835 C1836 1.523 . S
C1836 C1820 1.368 . S
C1836 C1832 1.368 . S
C1836 C1835 1.523 . S
H1837 C1812 0.950 . S
H1838 C1814 0.950 1_554 S
H1839 C1815 0.949 . S
H1840 C1817 0.950 . S
H1841 C1819 0.950 . S
C1842 C1843 1.349 1_554 S
C1842 C1844 1.317 1_554 S
C1842 H1867 0.950 . S
C1843 C1842 1.349 1_556 S
C1843 C1859 1.349 . S
C1844 C1842 1.317 1_556 S
C1844 C1863 1.459 . S
C1844 H1868 0.929 1_556 S
C1845 C1862 1.574 . S
C1845 C1864 1.368 . S
C1845 H1869 0.949 . S
H1846 C1850 0.949 . S
C1847 C1848 1.349 . S
C1847 C1849 1.327 . S
C1847 H1870 0.950 . S
C1848 C1847 1.349 . S
C1848 C1860 1.349 . S
C1849 C1847 1.327 . S
C1849 C1865 1.429 . S
C1849 H1871 0.950 . S
C1850 H1846 0.949 . S
C1850 C1858 1.574 . S
C1850 C1866 1.368 . S
H1851 C1859 0.950 . S
H1852 C1857 0.950 . S
H1853 C1858 0.949 . S
H1854 C1860 0.950 . S
H1855 C1861 0.950 . S
H1856 C1862 0.949 . S
C1857 H1852 0.950 . S
C1857 C1859 1.327 . S
C1857 C1863 1.429 . S
C1858 C1850 1.574 . S
C1858 H1853 0.949 . S
C1858 C1864 1.368 . S
C1859 C1843 1.349 . S
C1859 H1851 0.950 . S
C1859 C1857 1.327 . S
C1860 C1848 1.349 . S
C1860 H1854 0.950 . S
C1860 C1861 1.327 . S
C1861 H1855 0.950 . S
C1861 C1860 1.327 . S
C1861 C1865 1.429 . S
C1862 C1845 1.574 . S
C1862 H1856 0.949 . S
C1862 C1866 1.368 . S
C1863 C1844 1.459 . S
C1863 C1857 1.429 . S
C1863 C1864 1.523 . S
C1864 C1845 1.368 . S
C1864 C1858 1.368 . S
C1864 C1863 1.523 . S
C1865 C1849 1.429 . S
C1865 C1861 1.429 . S
C1865 C1866 1.523 . S
C1866 C1850 1.368 . S
C1866 C1862 1.368 . S
C1866 C1865 1.523 . S
H1867 C1842 0.950 . S
H1868 C1844 0.929 1_554 S
H1869 C1845 0.949 . S
H1870 C1847 0.950 . S
H1871 C1849 0.950 . S
C1872 C1873 1.349 1_554 S
C1872 C1874 1.327 1_554 S
C1872 H1897 0.950 . S
C1873 C1872 1.349 1_556 S
C1873 C1889 1.349 . S
C1874 C1872 1.327 1_556 S
C1874 C1893 1.429 . S
C1874 H1898 0.950 1_556 S
C1875 C1892 1.574 . S
C1875 C1894 1.368 . S
C1875 H1899 0.949 . S
H1876 C1880 0.949 . S
C1877 C1878 1.349 . S
C1877 C1879 1.327 . S
C1877 H1900 0.950 . S
C1878 C1877 1.349 . S
C1878 C1890 1.349 . S
C1879 C1877 1.327 . S
C1879 C1895 1.429 . S
C1879 H1901 0.950 . S
C1880 H1876 0.949 . S
C1880 C1888 1.574 . S
C1880 C1896 1.368 . S
H1881 C1889 0.950 . S
H1882 C1887 0.950 . S
H1883 C1888 0.949 . S
H1884 C1890 0.950 . S
H1885 C1891 0.950 . S
H1886 C1892 0.949 . S
C1887 H1882 0.950 . S
C1887 C1889 1.327 . S
C1887 C1893 1.429 . S
C1888 C1880 1.574 . S
C1888 H1883 0.949 . S
C1888 C1894 1.368 . S
C1889 C1873 1.349 . S
C1889 H1881 0.950 . S
C1889 C1887 1.327 . S
C1890 C1878 1.349 . S
C1890 H1884 0.950 . S
C1890 C1891 1.327 . S
C1891 H1885 0.950 . S
C1891 C1890 1.327 . S
C1891 C1895 1.429 . S
C1892 C1875 1.574 . S
C1892 H1886 0.949 . S
C1892 C1896 1.368 . S
C1893 C1874 1.429 . S
C1893 C1887 1.429 . S
C1893 C1894 1.523 . S
C1894 C1875 1.368 . S
C1894 C1888 1.368 . S
C1894 C1893 1.523 . S
C1895 C1879 1.429 . S
C1895 C1891 1.429 . S
C1895 C1896 1.523 . S
C1896 C1880 1.368 . S
C1896 C1892 1.368 . S
C1896 C1895 1.523 . S
H1897 C1872 0.950 . S
H1898 C1874 0.950 1_554 S
H1899 C1875 0.949 . S
H1900 C1877 0.950 . S
H1901 C1879 0.950 . S
C1902 C1903 1.349 . S
C1902 C1904 1.327 . S
C1902 H1927 0.950 1_556 S
C1903 C1902 1.349 . S
C1903 C1919 1.349 . S
C1904 C1902 1.327 . S
C1904 C1923 1.429 . S
C1904 H1928 0.970 . S
C1905 C1922 1.574 . S
C1905 C1924 1.368 . S
C1905 H1929 0.949 . S
H1906 C1910 0.949 . S
C1907 C1908 1.349 . S
C1907 C1909 1.327 . S
C1907 H1930 0.950 . S
C1908 C1907 1.349 . S
C1908 C1920 1.349 . S
C1909 C1907 1.327 . S
C1909 C1925 1.429 . S
C1909 H1931 0.950 . S
C1910 H1906 0.949 . S
C1910 C1918 1.574 . S
C1910 C1926 1.368 . S
H1911 C1919 0.950 . S
H1912 C1917 0.950 . S
H1913 C1918 0.949 . S
H1914 C1920 0.950 . S
H1915 C1921 0.950 . S
H1916 C1922 0.949 . S
C1917 H1912 0.950 . S
C1917 C1919 1.327 . S
C1917 C1923 1.429 . S
C1918 C1910 1.574 . S
C1918 H1913 0.949 . S
C1918 C1924 1.368 . S
C1919 C1903 1.349 . S
C1919 H1911 0.950 . S
C1919 C1917 1.327 . S
C1920 C1908 1.349 . S
C1920 H1914 0.950 . S
C1920 C1921 1.327 . S
C1921 H1915 0.950 . S
C1921 C1920 1.327 . S
C1921 C1925 1.429 . S
C1922 C1905 1.574 . S
C1922 H1916 0.949 . S
C1922 C1926 1.368 . S
C1923 C1904 1.429 . S
C1923 C1917 1.429 . S
C1923 C1924 1.523 . S
C1924 C1905 1.368 . S
C1924 C1918 1.368 . S
C1924 C1923 1.523 . S
C1925 C1909 1.429 . S
C1925 C1921 1.429 . S
C1925 C1926 1.523 . S
C1926 C1910 1.368 . S
C1926 C1922 1.368 . S
C1926 C1925 1.523 . S
H1927 C1902 0.950 1_554 S
H1928 C1904 0.970 . S
H1929 C1905 0.949 . S
H1930 C1907 0.950 . S
H1931 C1909 0.950 . S
C1932 C1933 1.349 . S
C1932 C1934 1.327 . S
C1932 H1957 0.950 . S
C1933 C1932 1.349 . S
C1933 C1949 1.349 . S
C1934 C1932 1.327 . S
C1934 C1953 1.429 . S
C1934 H1958 0.950 . S
C1935 C1952 1.574 . S
C1935 C1954 1.368 . S
C1935 H1959 0.949 . S
H1936 C1940 0.949 . S
C1937 C1938 1.349 . S
C1937 C1939 1.327 . S
C1937 H1960 0.950 . S
C1938 C1937 1.349 . S
C1938 C1950 1.349 . S
C1939 C1937 1.327 . S
C1939 C1955 1.429 . S
C1939 H1961 0.950 . S
C1940 H1936 0.949 . S
C1940 C1948 1.574 . S
C1940 C1956 1.368 . S
H1941 C1949 0.950 . S
H1942 C1947 0.950 . S
H1943 C1948 0.949 . S
H1944 C1950 0.950 . S
H1945 C1951 0.950 . S
H1946 C1952 0.949 . S
C1947 H1942 0.950 . S
C1947 C1949 1.327 . S
C1947 C1953 1.429 . S
C1948 C1940 1.574 . S
C1948 H1943 0.949 . S
C1948 C1954 1.368 . S
C1949 C1933 1.349 . S
C1949 H1941 0.950 . S
C1949 C1947 1.327 . S
C1950 C1938 1.349 . S
C1950 H1944 0.950 . S
C1950 C1951 1.327 . S
C1951 H1945 0.950 . S
C1951 C1950 1.327 . S
C1951 C1955 1.429 . S
C1952 C1935 1.574 . S
C1952 H1946 0.949 . S
C1952 C1956 1.368 . S
C1953 C1934 1.429 . S
C1953 C1947 1.429 . S
C1953 C1954 1.523 . S
C1954 C1935 1.368 . S
C1954 C1948 1.368 . S
C1954 C1953 1.523 . S
C1955 C1939 1.429 . S
C1955 C1951 1.429 . S
C1955 C1956 1.523 . S
C1956 C1940 1.368 . S
C1956 C1952 1.368 . S
C1956 C1955 1.523 . S
H1957 C1932 0.950 . S
H1958 C1934 0.950 . S
H1959 C1935 0.949 . S
H1960 C1937 0.950 . S
H1961 C1939 0.950 . S
C1962 C1963 1.349 . S
C1962 C1964 1.327 . S
C1962 H1987 0.950 . S
C1963 C1962 1.349 . S
C1963 C1979 1.349 . S
C1964 C1962 1.327 . S
C1964 C1983 1.429 . S
C1964 H1988 0.950 . S
C1965 C1982 1.574 . S
C1965 C1984 1.368 . S
C1965 H1989 0.949 . S
H1966 C1970 0.949 . S
C1967 C1968 1.349 . S
C1967 C1969 1.327 . S
C1967 H1990 0.950 . S
C1968 C1967 1.349 . S
C1968 C1980 1.349 . S
C1969 C1967 1.327 . S
C1969 C1985 1.429 . S
C1969 H1991 0.950 . S
C1970 H1966 0.949 . S
C1970 C1978 1.574 . S
C1970 C1986 1.368 . S
H1971 C1979 0.950 1_556 S
H1972 C1977 0.950 . S
H1973 C1978 0.949 . S
H1974 C1980 0.950 . S
H1975 C1981 0.950 . S
H1976 C1982 0.949 . S
C1977 H1972 0.950 . S
C1977 C1979 1.327 . S
C1977 C1983 1.429 . S
C1978 C1970 1.574 . S
C1978 H1973 0.949 . S
C1978 C1984 1.368 . S
C1979 C1963 1.349 . S
C1979 H1971 0.950 1_554 S
C1979 C1977 1.327 . S
C1980 C1968 1.349 . S
C1980 H1974 0.950 . S
C1980 C1981 1.327 . S
C1981 H1975 0.950 . S
C1981 C1980 1.327 . S
C1981 C1985 1.429 . S
C1982 C1965 1.574 . S
C1982 H1976 0.949 . S
C1982 C1986 1.368 . S
C1983 C1964 1.429 . S
C1983 C1977 1.429 . S
C1983 C1984 1.523 . S
C1984 C1965 1.368 . S
C1984 C1978 1.368 . S
C1984 C1983 1.523 . S
C1985 C1969 1.429 . S
C1985 C1981 1.429 . S
C1985 C1986 1.523 . S
C1986 C1970 1.368 . S
C1986 C1982 1.368 . S
C1986 C1985 1.523 . S
H1987 C1962 0.950 . S
H1988 C1964 0.950 . S
H1989 C1965 0.949 . S
H1990 C1967 0.950 . S
H1991 C1969 0.950 . S
C1992 C1993 1.349 . S
C1992 C1994 1.327 . S
C1992 H2017 0.950 . S
C1993 C1992 1.349 . S
C1993 C2009 1.349 . S
C1994 C1992 1.327 . S
C1994 C2013 1.429 . S
C1994 H2018 0.950 . S
C1995 C2012 1.574 . S
C1995 C2014 1.368 . S
C1995 H2019 0.949 . S
H1996 C2000 0.949 . S
C1997 C1998 1.349 . S
C1997 C1999 1.327 . S
C1997 H2020 0.950 . S
C1998 C1997 1.349 . S
C1998 C2010 1.349 . S
C1999 C1997 1.327 . S
C1999 C2015 1.429 . S
C1999 H2021 0.950 . S
C2000 H1996 0.949 . S
C2000 C2008 1.574 . S
C2000 C2016 1.368 . S
H2001 C2009 0.950 . S
H2002 C2007 0.950 . S
H2003 C2008 0.949 . S
H2004 C2010 0.950 . S
H2005 C2011 0.950 . S
H2006 C2012 0.949 . S
C2007 H2002 0.950 . S
C2007 C2009 1.327 . S
C2007 C2013 1.429 . S
C2008 C2000 1.574 . S
C2008 H2003 0.949 . S
C2008 C2014 1.368 . S
C2009 C1993 1.349 . S
C2009 H2001 0.950 . S
C2009 C2007 1.327 . S
C2010 C1998 1.349 . S
C2010 H2004 0.950 . S
C2010 C2011 1.327 . S
C2011 H2005 0.950 . S
C2011 C2010 1.327 . S
C2011 C2015 1.429 . S
C2012 C1995 1.574 . S
C2012 H2006 0.949 . S
C2012 C2016 1.368 . S
C2013 C1994 1.429 . S
C2013 C2007 1.429 . S
C2013 C2014 1.523 . S
C2014 C1995 1.368 . S
C2014 C2008 1.368 . S
C2014 C2013 1.523 . S
C2015 C1999 1.429 . S
C2015 C2011 1.429 . S
C2015 C2016 1.523 . S
C2016 C2000 1.368 . S
C2016 C2012 1.368 . S
C2016 C2015 1.523 . S
H2017 C1992 0.950 . S
H2018 C1994 0.950 . S
H2019 C1995 0.949 . S
H2020 C1997 0.950 . S
H2021 C1999 0.950 . S
C2022 C2023 1.349 . S
C2022 C2024 1.327 . S
C2022 H2047 0.950 . S
C2023 C2022 1.349 . S
C2023 C2039 1.349 . S
C2024 C2022 1.327 . S
C2024 C2043 1.429 . S
C2024 H2048 0.950 . S
C2025 C2042 1.574 . S
C2025 C2044 1.368 . S
C2025 H2049 0.949 . S
H2026 C2030 0.949 . S
C2027 C2028 1.349 . S
C2027 C2029 1.327 . S
C2027 H2050 0.950 . S
C2028 C2027 1.349 . S
C2028 C2040 1.349 . S
C2029 C2027 1.327 . S
C2029 C2045 1.429 . S
C2029 H2051 0.950 . S
C2030 H2026 0.949 . S
C2030 C2038 1.574 . S
C2030 C2046 1.368 . S
H2031 C2039 0.950 . S
H2032 C2037 0.950 . S
H2033 C2038 0.949 . S
H2034 C2040 0.950 . S
H2035 C2041 0.950 . S
H2036 C2042 0.949 . S
C2037 H2032 0.950 . S
C2037 C2039 1.327 . S
C2037 C2043 1.429 . S
C2038 C2030 1.574 . S
C2038 H2033 0.949 . S
C2038 C2044 1.368 . S
C2039 C2023 1.349 . S
C2039 H2031 0.950 . S
C2039 C2037 1.327 . S
C2040 C2028 1.349 . S
C2040 H2034 0.950 . S
C2040 C2041 1.327 . S
C2041 H2035 0.950 . S
C2041 C2040 1.327 . S
C2041 C2045 1.429 . S
C2042 C2025 1.574 . S
C2042 H2036 0.949 . S
C2042 C2046 1.368 . S
C2043 C2024 1.429 . S
C2043 C2037 1.429 . S
C2043 C2044 1.523 . S
C2044 C2025 1.368 . S
C2044 C2038 1.368 . S
C2044 C2043 1.523 . S
C2045 C2029 1.429 . S
C2045 C2041 1.429 . S
C2045 C2046 1.523 . S
C2046 C2030 1.368 . S
C2046 C2042 1.368 . S
C2046 C2045 1.523 . S
H2047 C2022 0.950 . S
H2048 C2024 0.950 . S
H2049 C2025 0.949 . S
H2050 C2027 0.950 . S
H2051 C2029 0.950 . S
C2052 C2053 1.349 . S
C2052 C2054 1.327 . S
C2052 H2077 0.950 . S
C2053 C2052 1.349 . S
C2053 C2069 1.349 . S
C2054 C2052 1.327 . S
C2054 C2073 1.429 . S
C2054 H2078 0.950 . S
C2055 C2072 1.574 . S
C2055 C2074 1.368 . S
C2055 H2079 0.949 . S
H2056 C2060 0.949 . S
C2057 C2058 1.349 . S
C2057 C2059 1.327 . S
C2057 H2080 0.950 . S
C2058 C2057 1.349 . S
C2058 C2070 1.349 . S
C2059 C2057 1.327 . S
C2059 C2075 1.429 . S
C2059 H2081 0.950 . S
C2060 H2056 0.949 . S
C2060 C2068 1.574 . S
C2060 C2076 1.368 . S
H2061 C2069 0.950 . S
H2062 C2067 0.950 . S
H2063 C2068 0.949 . S
H2064 C2070 0.950 . S
H2065 C2071 0.950 . S
H2066 C2072 0.949 . S
C2067 H2062 0.950 . S
C2067 C2069 1.327 . S
C2067 C2073 1.429 . S
C2068 C2060 1.574 . S
C2068 H2063 0.949 . S
C2068 C2074 1.368 . S
C2069 C2053 1.349 . S
C2069 H2061 0.950 . S
C2069 C2067 1.327 . S
C2070 C2058 1.349 . S
C2070 H2064 0.950 . S
C2070 C2071 1.327 . S
C2071 H2065 0.950 . S
C2071 C2070 1.327 . S
C2071 C2075 1.429 . S
C2072 C2055 1.574 . S
C2072 H2066 0.949 . S
C2072 C2076 1.368 . S
C2073 C2054 1.429 . S
C2073 C2067 1.429 . S
C2073 C2074 1.523 . S
C2074 C2055 1.368 . S
C2074 C2068 1.368 . S
C2074 C2073 1.523 . S
C2075 C2059 1.429 . S
C2075 C2071 1.429 . S
C2075 C2076 1.523 . S
C2076 C2060 1.368 . S
C2076 C2072 1.368 . S
C2076 C2075 1.523 . S
H2077 C2052 0.950 . S
H2078 C2054 0.950 . S
H2079 C2055 0.949 . S
H2080 C2057 0.950 . S
H2081 C2059 0.950 . S
C2082 C2083 1.349 . S
C2082 C2084 1.327 . S
C2082 H2107 0.950 . S
C2083 C2082 1.349 . S
C2083 C2099 1.349 . S
C2084 C2082 1.327 . S
C2084 C2103 1.429 . S
C2084 H2108 0.950 . S
C2085 C2102 1.574 . S
C2085 C2104 1.368 . S
C2085 H2109 0.949 . S
H2086 C2090 0.949 . S
C2087 C2088 1.349 . S
C2087 C2089 1.327 . S
C2087 H2110 0.950 . S
C2088 C2087 1.349 . S
C2088 C2100 1.349 . S
C2089 C2087 1.327 . S
C2089 C2105 1.429 . S
C2089 H2111 0.950 . S
C2090 H2086 0.949 . S
C2090 C2098 1.574 . S
C2090 C2106 1.368 . S
H2091 C2099 0.950 . S
H2092 C2097 0.950 . S
H2093 C2098 0.949 . S
H2094 C2100 0.950 . S
H2095 C2101 0.950 . S
H2096 C2102 0.949 . S
C2097 H2092 0.950 . S
C2097 C2099 1.327 . S
C2097 C2103 1.429 . S
C2098 C2090 1.574 . S
C2098 H2093 0.949 . S
C2098 C2104 1.368 . S
C2099 C2083 1.349 . S
C2099 H2091 0.950 . S
C2099 C2097 1.327 . S
C2100 C2088 1.349 . S
C2100 H2094 0.950 . S
C2100 C2101 1.327 . S
C2101 H2095 0.950 . S
C2101 C2100 1.327 . S
C2101 C2105 1.429 . S
C2102 C2085 1.574 . S
C2102 H2096 0.949 . S
C2102 C2106 1.368 . S
C2103 C2084 1.429 . S
C2103 C2097 1.429 . S
C2103 C2104 1.523 . S
C2104 C2085 1.368 . S
C2104 C2098 1.368 . S
C2104 C2103 1.523 . S
C2105 C2089 1.429 . S
C2105 C2101 1.429 . S
C2105 C2106 1.523 . S
C2106 C2090 1.368 . S
C2106 C2102 1.368 . S
C2106 C2105 1.523 . S
H2107 C2082 0.950 . S
H2108 C2084 0.950 . S
H2109 C2085 0.949 . S
H2110 C2087 0.950 . S
H2111 C2089 0.950 . S
C2112 C2113 1.349 . S
C2112 C2114 1.327 . S
C2112 H2137 0.950 . S
C2113 C2112 1.349 . S
C2113 C2129 1.349 . S
C2114 C2112 1.327 . S
C2114 C2133 1.429 . S
C2114 H2138 0.950 . S
C2115 C2132 1.574 . S
C2115 C2134 1.368 . S
C2115 H2139 0.949 . S
H2116 C2120 0.949 . S
C2117 C2118 1.349 . S
C2117 C2119 1.327 . S
C2117 H2140 0.950 . S
C2118 C2117 1.349 . S
C2118 C2130 1.349 . S
C2119 C2117 1.327 . S
C2119 C2135 1.429 . S
C2119 H2141 0.950 . S
C2120 H2116 0.949 . S
C2120 C2128 1.574 . S
C2120 C2136 1.368 . S
H2121 C2129 0.950 . S
H2122 C2127 0.950 . S
H2123 C2128 0.949 . S
H2124 C2130 0.950 . S
H2125 C2131 0.950 . S
H2126 C2132 0.949 . S
C2127 H2122 0.950 . S
C2127 C2129 1.327 . S
C2127 C2133 1.429 . S
C2128 C2120 1.574 . S
C2128 H2123 0.949 . S
C2128 C2134 1.368 . S
C2129 C2113 1.349 . S
C2129 H2121 0.950 . S
C2129 C2127 1.327 . S
C2130 C2118 1.349 . S
C2130 H2124 0.950 . S
C2130 C2131 1.327 . S
C2131 H2125 0.950 . S
C2131 C2130 1.327 . S
C2131 C2135 1.429 . S
C2132 C2115 1.574 . S
C2132 H2126 0.949 . S
C2132 C2136 1.368 . S
C2133 C2114 1.429 . S
C2133 C2127 1.429 . S
C2133 C2134 1.523 . S
C2134 C2115 1.368 . S
C2134 C2128 1.368 . S
C2134 C2133 1.523 . S
C2135 C2119 1.429 . S
C2135 C2131 1.429 . S
C2135 C2136 1.523 . S
C2136 C2120 1.368 . S
C2136 C2132 1.368 . S
C2136 C2135 1.523 . S
H2137 C2112 0.950 . S
H2138 C2114 0.950 . S
H2139 C2115 0.949 . S
H2140 C2117 0.950 . S
H2141 C2119 0.950 . S
C2142 C2143 1.349 . S
C2142 C2144 1.327 . S
C2142 H2167 0.950 . S
C2143 C2142 1.349 . S
C2143 C2159 1.349 . S
C2144 C2142 1.327 . S
C2144 C2163 1.429 . S
C2144 H2168 0.950 . S
C2145 C2162 1.574 . S
C2145 C2164 1.368 . S
C2145 H2169 0.949 . S
H2146 C2150 0.949 1_655 S
C2147 C2148 1.349 . S
C2147 C2149 1.327 . S
C2147 H2170 0.950 . S
C2148 C2147 1.349 . S
C2148 C2160 1.349 1_455 S
C2149 C2147 1.327 . S
C2149 C2165 1.429 . S
C2149 H2171 0.950 . S
C2150 H2146 0.949 1_455 S
C2150 C2158 1.574 . S
C2150 C2166 1.368 . S
H2151 C2159 0.950 . S
H2152 C2157 0.950 . S
H2153 C2158 0.957 1_655 S
H2154 C2160 0.950 . S
H2155 C2161 0.950 . S
H2156 C2162 0.949 . S
C2157 H2152 0.950 . S
C2157 C2159 1.327 . S
C2157 C2163 1.429 . S
C2158 C2150 1.574 . S
C2158 H2153 0.957 1_455 S
C2158 C2164 1.368 . S
C2159 C2143 1.349 . S
C2159 H2151 0.950 . S
C2159 C2157 1.327 . S
C2160 C2148 1.349 1_655 S
C2160 H2154 0.950 . S
C2160 C2161 1.327 . S
C2161 H2155 0.950 . S
C2161 C2160 1.327 . S
C2161 C2165 1.429 1_655 S
C2162 C2145 1.574 . S
C2162 H2156 0.949 . S
C2162 C2166 1.368 . S
C2163 C2144 1.429 . S
C2163 C2157 1.429 . S
C2163 C2164 1.523 . S
C2164 C2145 1.368 . S
C2164 C2158 1.368 . S
C2164 C2163 1.523 . S
C2165 C2149 1.429 . S
C2165 C2161 1.429 1_455 S
C2165 C2166 1.523 . S
C2166 C2150 1.368 . S
C2166 C2162 1.368 . S
C2166 C2165 1.523 . S
H2167 C2142 0.950 . S
H2168 C2144 0.950 . S
H2169 C2145 0.949 . S
H2170 C2147 0.950 . S
H2171 C2149 0.950 . S
C2172 C2173 1.349 . S
C2172 C2174 1.327 . S
C2172 H2197 0.950 . S
C2173 C2172 1.349 . S
C2173 C2189 1.349 . S
C2174 C2172 1.327 . S
C2174 C2193 1.429 . S
C2174 H2198 0.950 . S
C2175 C2192 1.574 . S
C2175 C2194 1.368 . S
C2175 H2199 0.949 . S
H2176 C2180 0.949 . S
C2177 C2178 1.349 . S
C2177 C2179 1.327 . S
C2177 H2200 0.950 . S
C2178 C2177 1.349 . S
C2178 C2190 1.349 . S
C2179 C2177 1.327 . S
C2179 C2195 1.429 . S
C2179 H2201 0.950 . S
C2180 H2176 0.949 . S
C2180 C2188 1.574 . S
C2180 C2196 1.368 . S
H2181 C2189 0.950 . S
H2182 C2187 0.950 . S
H2183 C2188 0.949 . S
H2184 C2190 0.950 . S
H2185 C2191 0.950 . S
H2186 C2192 0.949 . S
C2187 H2182 0.950 . S
C2187 C2189 1.327 . S
C2187 C2193 1.429 . S
C2188 C2180 1.574 . S
C2188 H2183 0.949 . S
C2188 C2194 1.368 . S
C2189 C2173 1.349 . S
C2189 H2181 0.950 . S
C2189 C2187 1.327 . S
C2190 C2178 1.349 . S
C2190 H2184 0.950 . S
C2190 C2191 1.327 . S
C2191 H2185 0.950 . S
C2191 C2190 1.327 . S
C2191 C2195 1.429 . S
C2192 C2175 1.574 . S
C2192 H2186 0.949 . S
C2192 C2196 1.368 . S
C2193 C2174 1.429 . S
C2193 C2187 1.429 . S
C2193 C2194 1.523 . S
C2194 C2175 1.368 . S
C2194 C2188 1.368 . S
C2194 C2193 1.523 . S
C2195 C2179 1.429 . S
C2195 C2191 1.429 . S
C2195 C2196 1.523 . S
C2196 C2180 1.368 . S
C2196 C2192 1.368 . S
C2196 C2195 1.523 . S
H2197 C2172 0.950 . S
H2198 C2174 0.950 . S
H2199 C2175 0.949 . S
H2200 C2177 0.950 . S
H2201 C2179 0.950 . S
C2202 C2203 1.349 . S
C2202 C2204 1.327 . S
C2202 H2227 0.950 . S
C2203 C2202 1.349 . S
C2203 C2219 1.383 . S
C2204 C2202 1.327 . S
C2204 C2223 1.429 . S
C2204 H2228 0.950 . S
C2205 C2222 1.574 . S
C2205 C2224 1.368 1_545 S
C2205 H2229 0.949 . S
H2206 C2210 0.949 . S
C2207 C2208 1.349 1_545 S
C2207 C2209 1.327 . S
C2207 H2230 0.950 . S
C2208 C2207 1.349 1_565 S
C2208 C2220 1.349 . S
C2209 C2207 1.327 . S
C2209 C2225 1.429 1_545 S
C2209 H2231 0.950 . S
C2210 H2206 0.949 . S
C2210 C2218 1.574 . S
C2210 C2226 1.368 . S
H2211 C2219 0.884 1_545 S
H2212 C2217 0.967 . S
H2213 C2218 0.949 . S
H2214 C2220 0.950 . S
H2215 C2221 0.950 . S
H2216 C2222 0.949 . S
C2217 H2212 0.967 . S
C2217 C2219 1.383 1_545 S
C2217 C2223 1.396 1_545 S
C2218 C2210 1.574 . S
C2218 H2213 0.949 . S
C2218 C2224 1.368 . S
C2219 C2203 1.383 . S
C2219 H2211 0.884 1_565 S
C2219 C2217 1.383 1_565 S
C2220 C2208 1.349 . S
C2220 H2214 0.950 . S
C2220 C2221 1.327 . S
C2221 H2215 0.950 . S
C2221 C2220 1.327 . S
C2221 C2225 1.429 . S
C2222 C2205 1.574 . S
C2222 H2216 0.949 . S
C2222 C2226 1.368 1_545 S
C2223 C2204 1.429 . S
C2223 C2217 1.396 1_565 S
C2223 C2224 1.523 . S
C2224 C2205 1.368 1_565 S
C2224 C2218 1.368 . S
C2224 C2223 1.523 . S
C2225 C2209 1.429 1_565 S
C2225 C2221 1.429 . S
C2225 C2226 1.523 . S
C2226 C2210 1.368 . S
C2226 C2222 1.368 1_565 S
C2226 C2225 1.523 . S
H2227 C2202 0.950 . S
H2228 C2204 0.950 . S
H2229 C2205 0.949 . S
H2230 C2207 0.950 . S
H2231 C2209 0.950 . S
C2232 C2233 1.349 . S
C2232 C2234 1.327 . S
C2232 H2257 0.950 . S
C2233 C2232 1.349 . S
C2233 C2249 1.310 1_565 S
C2234 C2232 1.327 . S
C2234 C2253 1.429 . S
C2234 H2258 0.950 . S
C2235 C2252 1.574 . S
C2235 C2254 1.368 1_545 S
C2235 H2259 0.949 . S
H2236 C2240 0.949 . S
C2237 C2238 1.349 1_545 S
C2237 C2239 1.327 . S
C2237 H2260 0.950 . S
C2238 C2237 1.349 1_565 S
C2238 C2250 1.349 . S
C2239 C2237 1.327 . S
C2239 C2255 1.429 1_545 S
C2239 H2261 0.950 . S
C2240 H2236 0.949 . S
C2240 C2248 1.574 . S
C2240 C2256 1.368 . S
H2241 C2249 0.964 . S
H2242 C2247 0.950 . S
H2243 C2248 0.949 . S
H2244 C2250 0.950 . S
H2245 C2251 0.950 . S
H2246 C2252 0.949 . S
C2247 H2242 0.950 . S
C2247 C2249 1.353 . S
C2247 C2253 1.429 1_545 S
C2248 C2240 1.574 . S
C2248 H2243 0.949 . S
C2248 C2254 1.368 . S
C2249 C2233 1.310 1_545 S
C2249 H2241 0.964 . S
C2249 C2247 1.353 . S
C2250 C2238 1.349 . S
C2250 H2244 0.950 . S
C2250 C2251 1.327 . S
C2251 H2245 0.950 . S
C2251 C2250 1.327 . S
C2251 C2255 1.429 . S
C2252 C2235 1.574 . S
C2252 H2246 0.949 . S
C2252 C2256 1.368 1_545 S
C2253 C2234 1.429 . S
C2253 C2247 1.429 1_565 S
C2253 C2254 1.523 . S
C2254 C2235 1.368 1_565 S
C2254 C2248 1.368 . S
C2254 C2253 1.523 . S
C2255 C2239 1.429 1_565 S
C2255 C2251 1.429 . S
C2255 C2256 1.523 . S
C2256 C2240 1.368 . S
C2256 C2252 1.368 1_565 S
C2256 C2255 1.523 . S
H2257 C2232 0.950 . S
H2258 C2234 0.950 . S
H2259 C2235 0.949 . S
H2260 C2237 0.950 . S
H2261 C2239 0.950 . S
C2262 C2263 1.349 . S
C2262 C2264 1.327 . S
C2262 H2287 0.950 . S
C2263 C2262 1.349 . S
C2263 C2279 1.345 . S
C2264 C2262 1.327 . S
C2264 C2283 1.429 . S
C2264 H2288 0.950 . S
C2265 C2282 1.574 . S
C2265 C2284 1.368 1_655 S
C2265 H2289 0.949 . S
H2266 C2270 0.949 . S
C2267 C2268 1.309 1_655 S
C2267 C2269 1.327 . S
C2267 H2290 0.950 . S
C2268 C2267 1.309 1_455 S
C2268 C2280 1.369 . S
C2269 C2267 1.327 . S
C2269 C2285 1.429 1_655 S
C2269 H2291 0.950 . S
C2270 H2266 0.949 . S
C2270 C2278 1.574 . S
C2270 C2286 1.368 . S
H2271 C2279 0.958 1_655 S
H2272 C2277 0.950 . S
H2273 C2278 0.949 . S
H2274 C2280 0.950 . S
H2275 C2281 0.950 . S
H2276 C2282 0.949 . S
C2277 H2272 0.950 . S
C2277 C2279 1.323 1_655 S
C2277 C2283 1.429 1_655 S
C2278 C2270 1.574 . S
C2278 H2273 0.949 . S
C2278 C2284 1.368 . S
C2279 C2263 1.345 . S
C2279 H2271 0.958 1_455 S
C2279 C2277 1.323 1_455 S
C2280 C2268 1.369 . S
C2280 H2274 0.950 . S
C2280 C2281 1.327 . S
C2281 H2275 0.950 . S
C2281 C2280 1.327 . S
C2281 C2285 1.429 . S
C2282 C2265 1.574 . S
C2282 H2276 0.949 . S
C2282 C2286 1.368 1_655 S
C2283 C2264 1.429 . S
C2283 C2277 1.429 1_455 S
C2283 C2284 1.523 . S
C2284 C2265 1.368 1_455 S
C2284 C2278 1.368 . S
C2284 C2283 1.523 . S
C2285 C2269 1.429 1_455 S
C2285 C2281 1.429 . S
C2285 C2286 1.523 . S
C2286 C2270 1.368 . S
C2286 C2282 1.368 1_455 S
C2286 C2285 1.523 . S
H2287 C2262 0.950 . S
H2288 C2264 0.950 . S
H2289 C2265 0.949 . S
H2290 C2267 0.950 . S
H2291 C2269 0.950 . S
C2292 C2293 1.349 . S
C2292 C2294 1.327 . S
C2292 H2317 0.950 . S
C2293 C2292 1.349 . S
C2293 C2309 1.349 . S
C2294 C2292 1.327 . S
C2294 C2313 1.429 . S
C2294 H2318 0.950 . S
C2295 C2312 1.574 . S
C2295 C2314 1.368 . S
C2295 H2319 0.949 . S
H2296 C2300 0.949 . S
C2297 C2298 1.349 . S
C2297 C2299 1.327 . S
C2297 H2320 0.950 . S
C2298 C2297 1.349 . S
C2298 C2310 1.349 . S
C2299 C2297 1.327 . S
C2299 C2315 1.429 . S
C2299 H2321 0.950 . S
C2300 H2296 0.949 . S
C2300 C2308 1.574 . S
C2300 C2316 1.368 . S
H2301 C2309 0.950 . S
H2302 C2307 0.950 . S
H2303 C2308 0.949 . S
H2304 C2310 0.950 . S
H2305 C2311 0.950 . S
H2306 C2312 0.949 . S
C2307 H2302 0.950 . S
C2307 C2309 1.327 . S
C2307 C2313 1.429 . S
C2308 C2300 1.574 . S
C2308 H2303 0.949 . S
C2308 C2314 1.368 . S
C2309 C2293 1.349 . S
C2309 H2301 0.950 . S
C2309 C2307 1.327 . S
C2310 C2298 1.349 . S
C2310 H2304 0.950 . S
C2310 C2311 1.327 . S
C2311 H2305 0.950 . S
C2311 C2310 1.327 . S
C2311 C2315 1.429 . S
C2312 C2295 1.574 . S
C2312 H2306 0.949 . S
C2312 C2316 1.368 . S
C2313 C2294 1.429 . S
C2313 C2307 1.429 . S
C2313 C2314 1.523 . S
C2314 C2295 1.368 . S
C2314 C2308 1.368 . S
C2314 C2313 1.523 . S
C2315 C2299 1.429 . S
C2315 C2311 1.429 . S
C2315 C2316 1.523 . S
C2316 C2300 1.368 . S
C2316 C2312 1.368 . S
C2316 C2315 1.523 . S
H2317 C2292 0.950 . S
H2318 C2294 0.950 . S
H2319 C2295 0.949 . S
H2320 C2297 0.950 . S
H2321 C2299 0.950 . S
C2322 C2323 1.349 . S
C2322 C2324 1.327 . S
C2322 H2347 0.950 . S
C2323 C2322 1.349 . S
C2323 C2339 1.349 . S
C2324 C2322 1.327 . S
C2324 C2343 1.429 . S
C2324 H2348 0.950 . S
C2325 C2342 1.574 . S
C2325 C2344 1.368 . S
C2325 H2349 0.949 . S
H2326 C2330 0.949 . S
C2327 C2328 1.349 . S
C2327 C2329 1.327 . S
C2327 H2350 0.950 . S
C2328 C2327 1.349 . S
C2328 C2340 1.349 . S
C2329 C2327 1.327 . S
C2329 C2345 1.429 . S
C2329 H2351 0.950 . S
C2330 H2326 0.949 . S
C2330 C2338 1.574 . S
C2330 C2346 1.368 . S
H2331 C2339 0.950 . S
H2332 C2337 0.950 . S
H2333 C2338 0.949 . S
H2334 C2340 0.950 . S
H2335 C2341 0.950 . S
H2336 C2342 0.949 . S
C2337 H2332 0.950 . S
C2337 C2339 1.327 . S
C2337 C2343 1.429 . S
C2338 C2330 1.574 . S
C2338 H2333 0.949 . S
C2338 C2344 1.368 . S
C2339 C2323 1.349 . S
C2339 H2331 0.950 . S
C2339 C2337 1.327 . S
C2340 C2328 1.349 . S
C2340 H2334 0.950 . S
C2340 C2341 1.327 . S
C2341 H2335 0.950 . S
C2341 C2340 1.327 . S
C2341 C2345 1.429 . S
C2342 C2325 1.574 . S
C2342 H2336 0.949 . S
C2342 C2346 1.368 . S
C2343 C2324 1.429 . S
C2343 C2337 1.429 . S
C2343 C2344 1.523 . S
C2344 C2325 1.368 . S
C2344 C2338 1.368 . S
C2344 C2343 1.523 . S
C2345 C2329 1.429 . S
C2345 C2341 1.429 . S
C2345 C2346 1.523 . S
C2346 C2330 1.368 . S
C2346 C2342 1.368 . S
C2346 C2345 1.523 . S
H2347 C2322 0.950 . S
H2348 C2324 0.950 . S
H2349 C2325 0.949 . S
H2350 C2327 0.950 . S
H2351 C2329 0.950 . S
C2352 C2353 1.349 . S
C2352 C2354 1.327 . S
C2352 H2377 0.950 . S
C2353 C2352 1.349 . S
C2353 C2369 1.349 . S
C2354 C2352 1.327 . S
C2354 C2373 1.429 . S
C2354 H2378 0.950 . S
C2355 C2372 1.574 . S
C2355 C2374 1.368 . S
C2355 H2379 0.949 . S
H2356 C2360 0.949 . S
C2357 C2358 1.349 . S
C2357 C2359 1.327 . S
C2357 H2380 0.950 . S
C2358 C2357 1.349 . S
C2358 C2370 1.349 . S
C2359 C2357 1.327 . S
C2359 C2375 1.429 . S
C2359 H2381 0.950 . S
C2360 H2356 0.949 . S
C2360 C2368 1.574 . S
C2360 C2376 1.368 . S
H2361 C2369 0.950 . S
H2362 C2367 0.950 . S
H2363 C2368 0.949 . S
H2364 C2370 0.950 . S
H2365 C2371 0.950 . S
H2366 C2372 0.949 . S
C2367 H2362 0.950 . S
C2367 C2369 1.327 . S
C2367 C2373 1.429 . S
C2368 C2360 1.574 . S
C2368 H2363 0.949 . S
C2368 C2374 1.368 . S
C2369 C2353 1.349 . S
C2369 H2361 0.950 . S
C2369 C2367 1.327 . S
C2370 C2358 1.349 . S
C2370 H2364 0.950 . S
C2370 C2371 1.327 . S
C2371 H2365 0.950 . S
C2371 C2370 1.327 . S
C2371 C2375 1.429 . S
C2372 C2355 1.574 . S
C2372 H2366 0.949 . S
C2372 C2376 1.368 . S
C2373 C2354 1.429 . S
C2373 C2367 1.429 . S
C2373 C2374 1.523 . S
C2374 C2355 1.368 . S
C2374 C2368 1.368 . S
C2374 C2373 1.523 . S
C2375 C2359 1.429 . S
C2375 C2371 1.429 . S
C2375 C2376 1.523 . S
C2376 C2360 1.368 . S
C2376 C2372 1.368 . S
C2376 C2375 1.523 . S
H2377 C2352 0.950 . S
H2378 C2354 0.950 . S
H2379 C2355 0.949 . S
H2380 C2357 0.950 . S
H2381 C2359 0.950 . S
C2382 C2383 1.349 . S
C2382 C2384 1.327 . S
C2382 H2407 0.950 . S
C2383 C2382 1.349 . S
C2383 C2399 1.349 . S
C2384 C2382 1.327 . S
C2384 C2403 1.429 . S
C2384 H2408 0.950 . S
C2385 C2402 1.574 . S
C2385 C2404 1.368 . S
C2385 H2409 0.949 . S
H2386 C2390 0.949 . S
C2387 C2388 1.349 . S
C2387 C2389 1.327 . S
C2387 H2410 0.950 . S
C2388 C2387 1.349 . S
C2388 C2400 1.349 . S
C2389 C2387 1.327 . S
C2389 C2405 1.429 . S
C2389 H2411 0.950 . S
C2390 H2386 0.949 . S
C2390 C2398 1.574 . S
C2390 C2406 1.368 . S
H2391 C2399 0.950 . S
H2392 C2397 0.950 . S
H2393 C2398 0.949 . S
H2394 C2400 0.950 . S
H2395 C2401 0.950 . S
H2396 C2402 0.949 . S
C2397 H2392 0.950 . S
C2397 C2399 1.327 . S
C2397 C2403 1.429 . S
C2398 C2390 1.574 . S
C2398 H2393 0.949 . S
C2398 C2404 1.368 . S
C2399 C2383 1.349 . S
C2399 H2391 0.950 . S
C2399 C2397 1.327 . S
C2400 C2388 1.349 . S
C2400 H2394 0.950 . S
C2400 C2401 1.327 . S
C2401 H2395 0.950 . S
C2401 C2400 1.327 . S
C2401 C2405 1.429 . S
C2402 C2385 1.574 . S
C2402 H2396 0.949 . S
C2402 C2406 1.368 . S
C2403 C2384 1.429 . S
C2403 C2397 1.429 . S
C2403 C2404 1.523 . S
C2404 C2385 1.368 . S
C2404 C2398 1.368 . S
C2404 C2403 1.523 . S
C2405 C2389 1.429 . S
C2405 C2401 1.429 . S
C2405 C2406 1.523 . S
C2406 C2390 1.368 . S
C2406 C2402 1.368 . S
C2406 C2405 1.523 . S
H2407 C2382 0.950 . S
H2408 C2384 0.950 . S
H2409 C2385 0.949 . S
H2410 C2387 0.950 . S
H2411 C2389 0.950 . S
C2412 C2413 1.349 . S
C2412 C2414 1.327 . S
C2412 H2437 0.950 . S
C2413 C2412 1.349 . S
C2413 C2429 1.349 . S
C2414 C2412 1.327 . S
C2414 C2433 1.429 . S
C2414 H2438 0.950 . S
C2415 C2432 1.596 . S
C2415 C2434 1.368 . S
C2415 H2439 0.949 1_545 S
H2416 C2420 0.949 . S
C2417 C2418 1.349 1_565 S
C2417 C2419 1.327 . S
C2417 H2440 0.950 . S
C2418 C2417 1.349 1_545 S
C2418 C2430 1.349 . S
C2419 C2417 1.327 . S
C2419 C2435 1.429 1_565 S
C2419 H2441 0.950 . S
C2420 H2416 0.949 . S
C2420 C2428 1.574 . S
C2420 C2436 1.368 . S
H2421 C2429 0.950 . S
H2422 C2427 0.913 1_565 S
H2423 C2428 0.949 . S
H2424 C2430 0.950 . S
H2425 C2431 0.950 . S
H2426 C2432 0.917 1_565 S
C2427 H2422 0.913 1_545 S
C2427 C2429 1.327 . S
C2427 C2433 1.429 . S
C2428 C2420 1.574 . S
C2428 H2423 0.949 . S
C2428 C2434 1.368 . S
C2429 C2413 1.349 . S
C2429 H2421 0.950 . S
C2429 C2427 1.327 . S
C2430 C2418 1.349 . S
C2430 H2424 0.950 . S
C2430 C2431 1.327 . S
C2431 H2425 0.950 . S
C2431 C2430 1.327 . S
C2431 C2435 1.429 . S
C2432 C2415 1.596 . S
C2432 H2426 0.917 1_545 S
C2432 C2436 1.383 . S
C2433 C2414 1.429 . S
C2433 C2427 1.429 . S
C2433 C2434 1.523 . S
C2434 C2415 1.368 . S
C2434 C2428 1.368 . S
C2434 C2433 1.523 . S
C2435 C2419 1.429 1_545 S
C2435 C2431 1.429 . S
C2435 C2436 1.523 . S
C2436 C2420 1.368 . S
C2436 C2432 1.383 . S
C2436 C2435 1.523 . S
H2437 C2412 0.950 . S
H2438 C2414 0.950 . S
H2439 C2415 0.949 1_565 S
H2440 C2417 0.950 . S
H2441 C2419 0.950 . S
C2442 C2443 1.349 . S
C2442 C2444 1.327 . S
C2442 H2467 0.950 . S
C2443 C2442 1.349 . S
C2443 C2459 1.349 . S
C2444 C2442 1.327 . S
C2444 C2463 1.429 . S
C2444 H2468 0.950 . S
C2445 C2462 1.574 . S
C2445 C2464 1.368 1_455 S
C2445 H2469 0.949 . S
H2446 C2450 0.949 . S
C2447 C2448 1.349 1_455 S
C2447 C2449 1.327 . S
C2447 H2470 0.950 . S
C2448 C2447 1.349 1_655 S
C2448 C2460 1.349 . S
C2449 C2447 1.327 . S
C2449 C2465 1.429 1_455 S
C2449 H2471 0.950 . S
C2450 H2446 0.949 . S
C2450 C2458 1.574 . S
C2450 C2466 1.368 . S
H2451 C2459 0.950 1_455 S
H2452 C2457 0.950 1_455 S
H2453 C2458 0.949 . S
H2454 C2460 0.950 . S
H2455 C2461 0.950 . S
H2456 C2462 0.949 . S
C2457 H2452 0.950 1_655 S
C2457 C2459 1.327 . S
C2457 C2463 1.429 . S
C2458 C2450 1.574 . S
C2458 H2453 0.949 . S
C2458 C2464 1.368 . S
C2459 C2443 1.349 . S
C2459 H2451 0.950 1_655 S
C2459 C2457 1.327 . S
C2460 C2448 1.349 . S
C2460 H2454 0.950 . S
C2460 C2461 1.327 . S
C2461 H2455 0.950 . S
C2461 C2460 1.327 . S
C2461 C2465 1.429 . S
C2462 C2445 1.574 . S
C2462 H2456 0.949 . S
C2462 C2466 1.368 1_455 S
C2463 C2444 1.429 . S
C2463 C2457 1.429 . S
C2463 C2464 1.523 . S
C2464 C2445 1.368 1_655 S
C2464 C2458 1.368 . S
C2464 C2463 1.523 . S
C2465 C2449 1.429 1_655 S
C2465 C2461 1.429 . S
C2465 C2466 1.523 . S
C2466 C2450 1.368 . S
C2466 C2462 1.368 1_655 S
C2466 C2465 1.523 . S
H2467 C2442 0.950 . S
H2468 C2444 0.950 . S
H2469 C2445 0.949 . S
H2470 C2447 0.950 . S
H2471 C2449 0.950 . S
C2472 C2473 1.349 . S
C2472 C2474 1.327 . S
C2472 H2497 0.950 . S
C2473 C2472 1.349 . S
C2473 C2489 1.349 . S
C2474 C2472 1.327 . S
C2474 C2493 1.429 . S
C2474 H2498 0.950 . S
C2475 C2492 1.574 . S
C2475 C2494 1.368 . S
C2475 H2499 0.949 . S
H2476 C2480 0.949 . S
C2477 C2478 1.349 . S
C2477 C2479 1.327 . S
C2477 H2500 0.950 . S
C2478 C2477 1.349 . S
C2478 C2490 1.349 . S
C2479 C2477 1.327 . S
C2479 C2495 1.429 . S
C2479 H2501 0.950 . S
C2480 H2476 0.949 . S
C2480 C2488 1.574 . S
C2480 C2496 1.368 . S
H2481 C2489 0.950 . S
H2482 C2487 0.950 . S
H2483 C2488 0.949 . S
H2484 C2490 0.950 . S
H2485 C2491 0.950 . S
H2486 C2492 0.949 . S
C2487 H2482 0.950 . S
C2487 C2489 1.327 . S
C2487 C2493 1.429 . S
C2488 C2480 1.574 . S
C2488 H2483 0.949 . S
C2488 C2494 1.368 . S
C2489 C2473 1.349 . S
C2489 H2481 0.950 . S
C2489 C2487 1.327 . S
C2490 C2478 1.349 . S
C2490 H2484 0.950 . S
C2490 C2491 1.327 . S
C2491 H2485 0.950 . S
C2491 C2490 1.327 . S
C2491 C2495 1.429 . S
C2492 C2475 1.574 . S
C2492 H2486 0.949 . S
C2492 C2496 1.368 . S
C2493 C2474 1.429 . S
C2493 C2487 1.429 . S
C2493 C2494 1.523 . S
C2494 C2475 1.368 . S
C2494 C2488 1.368 . S
C2494 C2493 1.523 . S
C2495 C2479 1.429 . S
C2495 C2491 1.429 . S
C2495 C2496 1.523 . S
C2496 C2480 1.368 . S
C2496 C2492 1.368 . S
C2496 C2495 1.523 . S
H2497 C2472 0.950 . S
H2498 C2474 0.950 . S
H2499 C2475 0.949 . S
H2500 C2477 0.950 . S
H2501 C2479 0.950 . S
C2502 C2503 1.349 . S
C2502 C2504 1.327 . S
C2502 H2527 0.950 . S
C2503 C2502 1.349 . S
C2503 C2519 1.349 . S
C2504 C2502 1.327 . S
C2504 C2523 1.429 . S
C2504 H2528 0.950 . S
C2505 C2522 1.574 . S
C2505 C2524 1.368 . S
C2505 H2529 0.949 . S
H2506 C2510 0.949 . S
C2507 C2508 1.349 . S
C2507 C2509 1.327 . S
C2507 H2530 0.950 . S
C2508 C2507 1.349 . S
C2508 C2520 1.349 . S
C2509 C2507 1.327 . S
C2509 C2525 1.429 . S
C2509 H2531 0.950 . S
C2510 H2506 0.949 . S
C2510 C2518 1.574 . S
C2510 C2526 1.368 . S
H2511 C2519 0.950 . S
H2512 C2517 0.950 . S
H2513 C2518 0.949 . S
H2514 C2520 0.950 . S
H2515 C2521 0.950 . S
H2516 C2522 0.949 . S
C2517 H2512 0.950 . S
C2517 C2519 1.327 . S
C2517 C2523 1.429 . S
C2518 C2510 1.574 . S
C2518 H2513 0.949 . S
C2518 C2524 1.368 . S
C2519 C2503 1.349 . S
C2519 H2511 0.950 . S
C2519 C2517 1.327 . S
C2520 C2508 1.349 . S
C2520 H2514 0.950 . S
C2520 C2521 1.327 . S
C2521 H2515 0.950 . S
C2521 C2520 1.327 . S
C2521 C2525 1.429 . S
C2522 C2505 1.574 . S
C2522 H2516 0.949 . S
C2522 C2526 1.368 . S
C2523 C2504 1.429 . S
C2523 C2517 1.429 . S
C2523 C2524 1.523 . S
C2524 C2505 1.368 . S
C2524 C2518 1.368 . S
C2524 C2523 1.523 . S
C2525 C2509 1.429 . S
C2525 C2521 1.429 . S
C2525 C2526 1.523 . S
C2526 C2510 1.368 . S
C2526 C2522 1.368 . S
C2526 C2525 1.523 . S
H2527 C2502 0.950 . S
H2528 C2504 0.950 . S
H2529 C2505 0.949 . S
H2530 C2507 0.950 . S
H2531 C2509 0.950 . S
C2532 C2533 1.349 . S
C2532 C2534 1.327 . S
C2532 H2557 0.950 . S
C2533 C2532 1.349 . S
C2533 C2549 1.349 . S
C2534 C2532 1.327 . S
C2534 C2553 1.429 . S
C2534 H2558 0.950 . S
C2535 C2552 1.574 . S
C2535 C2554 1.368 . S
C2535 H2559 0.949 . S
H2536 C2540 0.949 . S
C2537 C2538 1.349 . S
C2537 C2539 1.327 . S
C2537 H2560 0.950 . S
C2538 C2537 1.349 . S
C2538 C2550 1.349 . S
C2539 C2537 1.327 . S
C2539 C2555 1.429 . S
C2539 H2561 0.950 . S
C2540 H2536 0.949 . S
C2540 C2548 1.574 . S
C2540 C2556 1.368 . S
H2541 C2549 0.950 . S
H2542 C2547 0.950 . S
H2543 C2548 0.949 . S
H2544 C2550 0.950 . S
H2545 C2551 0.950 . S
H2546 C2552 0.949 . S
C2547 H2542 0.950 . S
C2547 C2549 1.327 . S
C2547 C2553 1.429 . S
C2548 C2540 1.574 . S
C2548 H2543 0.949 . S
C2548 C2554 1.368 . S
C2549 C2533 1.349 . S
C2549 H2541 0.950 . S
C2549 C2547 1.327 . S
C2550 C2538 1.349 . S
C2550 H2544 0.950 . S
C2550 C2551 1.327 . S
C2551 H2545 0.950 . S
C2551 C2550 1.327 . S
C2551 C2555 1.429 . S
C2552 C2535 1.574 . S
C2552 H2546 0.949 . S
C2552 C2556 1.368 . S
C2553 C2534 1.429 . S
C2553 C2547 1.429 . S
C2553 C2554 1.523 . S
C2554 C2535 1.368 . S
C2554 C2548 1.368 . S
C2554 C2553 1.523 . S
C2555 C2539 1.429 . S
C2555 C2551 1.429 . S
C2555 C2556 1.523 . S
C2556 C2540 1.368 . S
C2556 C2552 1.368 . S
C2556 C2555 1.523 . S
H2557 C2532 0.950 . S
H2558 C2534 0.950 . S
H2559 C2535 0.949 . S
H2560 C2537 0.950 . S
H2561 C2539 0.950 . S
C2562 C2563 1.349 . S
C2562 C2564 1.327 . S
C2562 H2587 0.950 . S
C2563 C2562 1.349 . S
C2563 C2579 1.349 . S
C2564 C2562 1.327 . S
C2564 C2583 1.429 . S
C2564 H2588 0.950 . S
C2565 C2582 1.574 . S
C2565 C2584 1.368 . S
C2565 H2589 0.949 . S
H2566 C2570 0.949 . S
C2567 C2568 1.349 . S
C2567 C2569 1.327 . S
C2567 H2590 0.950 . S
C2568 C2567 1.349 . S
C2568 C2580 1.349 . S
C2569 C2567 1.327 . S
C2569 C2585 1.429 . S
C2569 H2591 0.950 . S
C2570 H2566 0.949 . S
C2570 C2578 1.574 . S
C2570 C2586 1.368 . S
H2571 C2579 0.950 . S
H2572 C2577 0.950 . S
H2573 C2578 0.949 . S
H2574 C2580 0.950 . S
H2575 C2581 0.950 . S
H2576 C2582 0.949 . S
C2577 H2572 0.950 . S
C2577 C2579 1.327 . S
C2577 C2583 1.429 . S
C2578 C2570 1.574 . S
C2578 H2573 0.949 . S
C2578 C2584 1.368 . S
C2579 C2563 1.349 . S
C2579 H2571 0.950 . S
C2579 C2577 1.327 . S
C2580 C2568 1.349 . S
C2580 H2574 0.950 . S
C2580 C2581 1.327 . S
C2581 H2575 0.950 . S
C2581 C2580 1.327 . S
C2581 C2585 1.429 . S
C2582 C2565 1.574 . S
C2582 H2576 0.949 . S
C2582 C2586 1.368 . S
C2583 C2564 1.429 . S
C2583 C2577 1.429 . S
C2583 C2584 1.523 . S
C2584 C2565 1.368 . S
C2584 C2578 1.368 . S
C2584 C2583 1.523 . S
C2585 C2569 1.429 . S
C2585 C2581 1.429 . S
C2585 C2586 1.523 . S
C2586 C2570 1.368 . S
C2586 C2582 1.368 . S
C2586 C2585 1.523 . S
H2587 C2562 0.950 . S
H2588 C2564 0.950 . S
H2589 C2565 0.949 . S
H2590 C2567 0.950 . S
H2591 C2569 0.950 . S
C2592 C2593 1.349 . S
C2592 C2594 1.327 . S
C2592 H2617 0.950 . S
C2593 C2592 1.349 . S
C2593 C2609 1.349 . S
C2594 C2592 1.327 . S
C2594 C2613 1.429 . S
C2594 H2618 0.950 . S
C2595 C2612 1.574 . S
C2595 C2614 1.368 . S
C2595 H2619 0.949 . S
H2596 C2600 0.949 . S
C2597 C2598 1.349 . S
C2597 C2599 1.327 . S
C2597 H2620 0.950 . S
C2598 C2597 1.349 . S
C2598 C2610 1.349 . S
C2599 C2597 1.327 . S
C2599 C2615 1.429 . S
C2599 H2621 0.950 . S
C2600 H2596 0.949 . S
C2600 C2608 1.574 . S
C2600 C2616 1.368 . S
H2601 C2609 0.950 . S
H2602 C2607 0.950 . S
H2603 C2608 0.949 . S
H2604 C2610 0.950 . S
H2605 C2611 0.950 . S
H2606 C2612 0.949 . S
C2607 H2602 0.950 . S
C2607 C2609 1.327 . S
C2607 C2613 1.429 . S
C2608 C2600 1.574 . S
C2608 H2603 0.949 . S
C2608 C2614 1.368 . S
C2609 C2593 1.349 . S
C2609 H2601 0.950 . S
C2609 C2607 1.327 . S
C2610 C2598 1.349 . S
C2610 H2604 0.950 . S
C2610 C2611 1.327 . S
C2611 H2605 0.950 . S
C2611 C2610 1.327 . S
C2611 C2615 1.429 . S
C2612 C2595 1.574 . S
C2612 H2606 0.949 . S
C2612 C2616 1.368 . S
C2613 C2594 1.429 . S
C2613 C2607 1.429 . S
C2613 C2614 1.523 . S
C2614 C2595 1.368 . S
C2614 C2608 1.368 . S
C2614 C2613 1.523 . S
C2615 C2599 1.429 . S
C2615 C2611 1.429 . S
C2615 C2616 1.523 . S
C2616 C2600 1.368 . S
C2616 C2612 1.368 . S
C2616 C2615 1.523 . S
H2617 C2592 0.950 . S
H2618 C2594 0.950 . S
H2619 C2595 0.949 . S
H2620 C2597 0.950 . S
H2621 C2599 0.950 . S
C2622 C2623 1.349 . S
C2622 C2624 1.327 . S
C2622 H2647 0.950 . S
C2623 C2622 1.349 . S
C2623 C2639 1.349 . S
C2624 C2622 1.327 . S
C2624 C2643 1.429 . S
C2624 H2648 0.950 . S
C2625 C2642 1.574 . S
C2625 C2644 1.368 . S
C2625 H2649 0.949 . S
H2626 C2630 0.949 . S
C2627 C2628 1.349 . S
C2627 C2629 1.327 . S
C2627 H2650 0.950 . S
C2628 C2627 1.349 . S
C2628 C2640 1.349 . S
C2629 C2627 1.327 . S
C2629 C2645 1.429 . S
C2629 H2651 0.950 . S
C2630 H2626 0.949 . S
C2630 C2638 1.574 . S
C2630 C2646 1.368 . S
H2631 C2639 0.950 . S
H2632 C2637 0.950 . S
H2633 C2638 0.949 . S
H2634 C2640 0.950 . S
H2635 C2641 0.950 . S
H2636 C2642 0.949 . S
C2637 H2632 0.950 . S
C2637 C2639 1.327 . S
C2637 C2643 1.429 . S
C2638 C2630 1.574 . S
C2638 H2633 0.949 . S
C2638 C2644 1.368 . S
C2639 C2623 1.349 . S
C2639 H2631 0.950 . S
C2639 C2637 1.327 . S
C2640 C2628 1.349 . S
C2640 H2634 0.950 . S
C2640 C2641 1.327 . S
C2641 H2635 0.950 . S
C2641 C2640 1.327 . S
C2641 C2645 1.429 . S
C2642 C2625 1.574 . S
C2642 H2636 0.949 . S
C2642 C2646 1.368 . S
C2643 C2624 1.429 . S
C2643 C2637 1.429 . S
C2643 C2644 1.523 . S
C2644 C2625 1.368 . S
C2644 C2638 1.368 . S
C2644 C2643 1.523 . S
C2645 C2629 1.429 . S
C2645 C2641 1.429 . S
C2645 C2646 1.523 . S
C2646 C2630 1.368 . S
C2646 C2642 1.368 . S
C2646 C2645 1.523 . S
H2647 C2622 0.950 . S
H2648 C2624 0.950 . S
H2649 C2625 0.949 . S
H2650 C2627 0.950 . S
H2651 C2629 0.950 . S
C2652 C2653 1.349 . S
C2652 C2654 1.327 . S
C2652 H2677 0.950 . S
C2653 C2652 1.349 . S
C2653 C2669 1.349 . S
C2654 C2652 1.327 . S
C2654 C2673 1.429 . S
C2654 H2678 0.950 . S
C2655 C2672 1.574 . S
C2655 C2674 1.368 . S
C2655 H2679 0.949 . S
H2656 C2660 0.949 . S
C2657 C2658 1.349 . S
C2657 C2659 1.327 . S
C2657 H2680 0.950 . S
C2658 C2657 1.349 . S
C2658 C2670 1.349 . S
C2659 C2657 1.327 . S
C2659 C2675 1.429 . S
C2659 H2681 0.950 . S
C2660 H2656 0.949 . S
C2660 C2668 1.574 . S
C2660 C2676 1.368 . S
H2661 C2669 0.950 . S
H2662 C2667 0.950 . S
H2663 C2668 0.949 . S
H2664 C2670 0.950 . S
H2665 C2671 0.950 . S
H2666 C2672 0.949 . S
C2667 H2662 0.950 . S
C2667 C2669 1.327 . S
C2667 C2673 1.429 . S
C2668 C2660 1.574 . S
C2668 H2663 0.949 . S
C2668 C2674 1.368 . S
C2669 C2653 1.349 . S
C2669 H2661 0.950 . S
C2669 C2667 1.327 . S
C2670 C2658 1.349 . S
C2670 H2664 0.950 . S
C2670 C2671 1.327 . S
C2671 H2665 0.950 . S
C2671 C2670 1.327 . S
C2671 C2675 1.429 . S
C2672 C2655 1.574 . S
C2672 H2666 0.949 . S
C2672 C2676 1.368 . S
C2673 C2654 1.429 . S
C2673 C2667 1.429 . S
C2673 C2674 1.523 . S
C2674 C2655 1.368 . S
C2674 C2668 1.368 . S
C2674 C2673 1.523 . S
C2675 C2659 1.429 . S
C2675 C2671 1.429 . S
C2675 C2676 1.523 . S
C2676 C2660 1.368 . S
C2676 C2672 1.368 . S
C2676 C2675 1.523 . S
H2677 C2652 0.950 . S
H2678 C2654 0.950 . S
H2679 C2655 0.949 . S
H2680 C2657 0.950 . S
H2681 C2659 0.950 . S
C2682 C2683 1.349 . S
C2682 C2684 1.327 . S
C2682 H2707 0.950 . S
C2683 C2682 1.349 . S
C2683 C2699 1.349 . S
C2684 C2682 1.327 . S
C2684 C2703 1.429 . S
C2684 H2708 0.950 . S
C2685 C2702 1.574 . S
C2685 C2704 1.368 . S
C2685 H2709 0.949 . S
H2686 C2690 0.949 . S
C2687 C2688 1.349 . S
C2687 C2689 1.327 . S
C2687 H2710 0.950 . S
C2688 C2687 1.349 . S
C2688 C2700 1.349 . S
C2689 C2687 1.327 . S
C2689 C2705 1.429 . S
C2689 H2711 0.950 . S
C2690 H2686 0.949 . S
C2690 C2698 1.574 . S
C2690 C2706 1.368 . S
H2691 C2699 0.950 . S
H2692 C2697 0.950 . S
H2693 C2698 0.949 . S
H2694 C2700 0.966 . S
H2695 C2701 0.950 . S
H2696 C2702 0.949 . S
C2697 H2692 0.950 . S
C2697 C2699 1.327 . S
C2697 C2703 1.429 . S
C2698 C2690 1.574 . S
C2698 H2693 0.949 . S
C2698 C2704 1.368 . S
C2699 C2683 1.349 . S
C2699 H2691 0.950 . S
C2699 C2697 1.327 . S
C2700 C2688 1.349 . S
C2700 H2694 0.966 . S
C2700 C2701 1.327 . S
C2701 H2695 0.950 . S
C2701 C2700 1.327 . S
C2701 C2705 1.429 . S
C2702 C2685 1.574 . S
C2702 H2696 0.949 . S
C2702 C2706 1.368 . S
C2703 C2684 1.429 . S
C2703 C2697 1.429 . S
C2703 C2704 1.523 . S
C2704 C2685 1.368 . S
C2704 C2698 1.368 . S
C2704 C2703 1.523 . S
C2705 C2689 1.429 . S
C2705 C2701 1.429 . S
C2705 C2706 1.523 . S
C2706 C2690 1.368 . S
C2706 C2702 1.368 . S
C2706 C2705 1.523 . S
H2707 C2682 0.950 . S
H2708 C2684 0.950 . S
H2709 C2685 0.949 . S
H2710 C2687 0.950 . S
H2711 C2689 0.950 . S
C2712 C2713 1.349 . S
C2712 C2714 1.327 . S
C2712 H2737 0.950 . S
C2713 C2712 1.349 . S
C2713 C2729 1.349 . S
C2714 C2712 1.327 . S
C2714 C2733 1.429 . S
C2714 H2738 0.950 . S
C2715 C2732 1.574 . S
C2715 C2734 1.368 . S
C2715 H2739 0.949 . S
H2716 C2720 0.949 . S
C2717 C2718 1.349 . S
C2717 C2719 1.327 . S
C2717 H2740 0.950 . S
C2718 C2717 1.349 . S
C2718 C2730 1.349 . S
C2719 C2717 1.327 . S
C2719 C2735 1.429 . S
C2719 H2741 0.950 . S
C2720 H2716 0.949 . S
C2720 C2728 1.574 . S
C2720 C2736 1.368 . S
H2721 C2729 0.950 . S
H2722 C2727 0.950 . S
H2723 C2728 0.949 . S
H2724 C2730 0.950 . S
H2725 C2731 0.950 . S
H2726 C2732 0.949 . S
C2727 H2722 0.950 . S
C2727 C2729 1.327 . S
C2727 C2733 1.429 . S
C2728 C2720 1.574 . S
C2728 H2723 0.949 . S
C2728 C2734 1.368 . S
C2729 C2713 1.349 . S
C2729 H2721 0.950 . S
C2729 C2727 1.327 . S
C2730 C2718 1.349 . S
C2730 H2724 0.950 . S
C2730 C2731 1.327 . S
C2731 H2725 0.950 . S
C2731 C2730 1.327 . S
C2731 C2735 1.429 . S
C2732 C2715 1.574 . S
C2732 H2726 0.949 . S
C2732 C2736 1.368 . S
C2733 C2714 1.429 . S
C2733 C2727 1.429 . S
C2733 C2734 1.523 . S
C2734 C2715 1.368 . S
C2734 C2728 1.368 . S
C2734 C2733 1.523 . S
C2735 C2719 1.429 . S
C2735 C2731 1.429 . S
C2735 C2736 1.523 . S
C2736 C2720 1.368 . S
C2736 C2732 1.368 . S
C2736 C2735 1.523 . S
H2737 C2712 0.950 . S
H2738 C2714 0.950 . S
H2739 C2715 0.949 . S
H2740 C2717 0.950 . S
H2741 C2719 0.950 . S
C2742 C2743 1.349 . S
C2742 C2744 1.327 . S
C2742 H2767 0.950 . S
C2743 C2742 1.349 . S
C2743 C2759 1.349 . S
C2744 C2742 1.327 . S
C2744 C2763 1.429 . S
C2744 H2768 0.950 . S
C2745 C2762 1.574 . S
C2745 C2764 1.368 1_565 S
C2745 H2769 0.949 . S
H2746 C2750 0.949 . S
C2747 C2748 1.264 1_565 S
C2747 C2749 1.327 . S
C2747 H2770 0.950 . S
C2748 C2747 1.264 1_545 S
C2748 C2760 1.404 . S
C2749 C2747 1.327 . S
C2749 C2765 1.429 1_565 S
C2749 H2771 0.950 . S
C2750 H2746 0.949 . S
C2750 C2758 1.574 . S
C2750 C2766 1.368 . S
H2751 C2759 0.950 1_565 S
H2752 C2757 0.950 1_565 S
H2753 C2758 0.949 . S
H2754 C2760 0.950 . S
H2755 C2761 0.950 . S
H2756 C2762 0.949 . S
C2757 H2752 0.950 1_545 S
C2757 C2759 1.327 . S
C2757 C2763 1.429 . S
C2758 C2750 1.574 . S
C2758 H2753 0.949 . S
C2758 C2764 1.368 . S
C2759 C2743 1.349 . S
C2759 H2751 0.950 1_545 S
C2759 C2757 1.327 . S
C2760 C2748 1.404 . S
C2760 H2754 0.950 . S
C2760 C2761 1.327 . S
C2761 H2755 0.950 . S
C2761 C2760 1.327 . S
C2761 C2765 1.429 . S
C2762 C2745 1.574 . S
C2762 H2756 0.949 . S
C2762 C2766 1.368 1_565 S
C2763 C2744 1.429 . S
C2763 C2757 1.429 . S
C2763 C2764 1.523 . S
C2764 C2745 1.368 1_545 S
C2764 C2758 1.368 . S
C2764 C2763 1.523 . S
C2765 C2749 1.429 1_545 S
C2765 C2761 1.429 . S
C2765 C2766 1.523 . S
C2766 C2750 1.368 . S
C2766 C2762 1.368 1_545 S
C2766 C2765 1.523 . S
H2767 C2742 0.950 . S
H2768 C2744 0.950 . S
H2769 C2745 0.949 . S
H2770 C2747 0.950 . S
H2771 C2749 0.950 . S
C613 C8 1.499 . S
C618 C440 1.526 1_655 S
C643 C18 1.524 . S
C648 C453 1.529 . S
C678 C482 1.520 1_545 S
C673 C31 1.523 . S
C703 C34 1.509 . S
C708 C495 1.537 . S
C733 C5 1.528 . S
C738 C516 1.539 . S
C763 C21 1.512 . S
C768 C545 1.511 . S
C793 C47 1.491 . S
C798 C524 1.524 . S
C828 C537 1.509 . S
C823 C57 1.513 . S
C858 C503 1.535 . S
C853 C70 1.538 . S
C883 C73 1.483 . S
C888 C474 1.519 1_545 S
C918 C432 1.532 1_655 S
C913 C44 1.520 . S
C943 C60 1.501 . S
C948 C461 1.522 . S
C973 C86 1.556 . S
C978 C566 1.552 . S
C1003 C96 1.546 . S
C1008 C579 1.547 . S
C1038 C608 1.547 . S
C1033 C109 1.595 . S
C1063 C112 1.574 . S
C1068 C243 1.609 . S
C1093 C83 1.595 . S
C1098 C264 1.601 . S
C1123 C99 1.536 . S
C1128 C293 1.528 . S
C1153 C125 1.513 . S
C1158 C272 1.538 . S
C1183 C135 1.536 . S
C1188 C285 1.530 . S
C1218 C251 1.572 . S
C1213 C148 1.575 . S
C1248 C600 1.577 . S
C1243 C151 1.580 . S
C1278 C558 1.536 . S
C1273 C122 1.562 . S
C1308 C587 1.561 . S
C1303 C138 1.540 . S
C1333 C164 1.532 . S
C1338 C314 1.528 . S
C1363 C174 1.540 . S
C1368 C327 1.549 . S
C1393 C187 1.586 . S
C1398 C356 1.544 . S
C1423 C190 1.594 . S
C1428 C369 1.630 . S
C1458 C390 1.592 . S
C1453 C161 1.591 . S
C1488 C419 1.546 . S
C1483 C177 1.553 . S
C1518 C398 1.578 . S
C1513 C203 1.551 . S
C1548 C411 1.530 . S
C1543 C213 1.542 . S
C1573 C226 1.571 . S
C1578 C377 1.564 . S
C1608 C348 1.545 . S
C1603 C229 1.548 . S
C1633 C200 1.576 . S
C1638 C306 1.557 . S
C1668 C335 1.554 . S
C1663 C216 1.533 . S
C1698 C246 1.260 . S
C1693 C0 1.319 . S
C1723 C23 1.290 . S
C1728 C267 1.191 . S
C1758 C295 1.243 . S
C1753 C36 1.349 . S
C1788 C316 1.261 . S
C1783 C26 1.331 1_556 S
C1818 C330 1.205 . S
C1813 C10 1.309 1_556 S
C1848 C358 1.203 . S
C1843 C13 1.270 1_556 S
C1873 C39 1.343 . S
C1878 C351 1.238 . S
C1903 C62 1.304 . S
C1908 C309 1.160 . S
C1933 C75 1.328 . S
C1938 C337 1.246 . S
C1963 C65 1.377 . S
C1968 C274 1.340 . S
C1998 C288 1.166 . S
C1993 C49 1.313 . S
C2023 C52 1.300 . S
C2028 C253 1.261 . S
C2058 C372 1.254 . S
C2053 C78 1.318 . S
C2083 C101 1.362 . S
C2088 C393 1.258 . S
C2113 C114 1.391 . S
C2118 C421 1.283 . S
C2148 C442 1.207 . S
C2143 C104 1.274 . S
C2173 C88 1.312 . S
C2178 C456 1.205 . S
C2203 C91 1.213 . S
C2208 C484 1.151 . S
C2233 C117 1.258 . S
C2238 C477 1.159 . S
C2263 C140 1.260 . S
C2268 C435 1.169 . S
C2298 C463 1.272 . S
C2293 C153 1.357 . S
C2323 C143 1.340 . S
C2328 C400 1.296 . S
C2353 C127 1.390 . S
C2358 C414 1.234 . S
C2388 C379 1.306 . S
C2383 C130 1.351 . S
C2418 C498 1.155 1_545 S
C2413 C156 1.265 . S
C2443 C179 1.246 . S
C2448 C519 1.145 1_655 S
C2473 C192 1.338 . S
C2478 C547 1.238 . S
C2508 C568 1.233 . S
C2503 C182 1.308 . S
C2538 C582 1.267 . S
C2533 C166 1.380 . S
C2563 C169 1.338 . S
C2568 C610 1.255 . S
C2593 C195 1.345 . S
C2598 C603 1.230 . S
C2623 C218 1.376 . S
C2628 C561 1.224 . S
C2658 C589 1.299 . S
C2653 C231 1.387 . S
C2688 C526 1.215 1_655 S
C2683 C221 1.265 . S
C2718 C540 1.185 . S
C2713 C205 1.329 . S
C2743 C208 1.233 . S
C2748 C505 1.197 1_545 S
