# Generated by pormake.
# Topology pth, (4,4)-cn, num edge types: 1
# Building blocks:
#     Node 0, Type 0, BuildingBlock: UXUYUI_clean_sbu_0, # of connection points: 4
#     Node 1, Type 0, BuildingBlock: UXUYUI_clean_sbu_0, # of connection points: 4
#     Node 2, Type 0, BuildingBlock: UXUYUI_clean_sbu_0, # of connection points: 4
#     Node 3, Type 1, BuildingBlock: NAHDIM_clean_linker_0, # of connection points: 4
#     Node 4, Type 1, BuildingBlock: NAHDIM_clean_linker_0, # of connection points: 4
#     Node 5, Type 1, BuildingBlock: NAHDIM_clean_linker_0, # of connection points: 4
#     Edge 6, Type (0, 1), BuildingBlock: XUDNAN_clean_linker_2, # of connection points: 2
#     Edge 7, Type (0, 1), BuildingBlock: XUDNAN_clean_linker_2, # of connection points: 2
#     Edge 8, Type (0, 1), BuildingBlock: XUDNAN_clean_linker_2, # of connection points: 2
#     Edge 9, Type (0, 1), BuildingBlock: XUDNAN_clean_linker_2, # of connection points: 2
#     Edge 10, Type (0, 1), BuildingBlock: XUDNAN_clean_linker_2, # of connection points: 2
#     Edge 11, Type (0, 1), BuildingBlock: XUDNAN_clean_linker_2, # of connection points: 2
#     Edge 12, Type (0, 1), BuildingBlock: XUDNAN_clean_linker_2, # of connection points: 2
#     Edge 13, Type (0, 1), BuildingBlock: XUDNAN_clean_linker_2, # of connection points: 2
#     Edge 14, Type (0, 1), BuildingBlock: XUDNAN_clean_linker_2, # of connection points: 2
#     Edge 15, Type (0, 1), BuildingBlock: XUDNAN_clean_linker_2, # of connection points: 2
#     Edge 16, Type (0, 1), BuildingBlock: XUDNAN_clean_linker_2, # of connection points: 2
#     Edge 17, Type (0, 1), BuildingBlock: XUDNAN_clean_linker_2, # of connection points: 2
# Relax obj value: 0.093
# Max RMSD: 0.220
# Mean RMSD: 0.135
data_MOF--net-pth--node1-UXUYUI_clean_sbu_0--node2-NAHDIM_clean_linker_0--edge1-XUDNAN_clean_linker_2
_symmetry_space_group_name_H-M    P1
_symmetry_Int_Tables_number       1
_symmetry_cell_setting            triclinic
loop_
_symmetry_equiv_pos_as_xyz
'x, y, z'
_cell_length_a     36.92171
_cell_length_b     36.91009
_cell_length_c     93.982826
_cell_angle_alpha  89.720638
_cell_angle_beta   90.306774
_cell_angle_gamma 119.98348
loop_
_atom_site_label
_atom_site_type_symbol
_atom_site_fract_x
_atom_site_fract_y
_atom_site_fract_z
_atom_type_partial_charge
Li0 Li 0.04675 0.06001 0.05057 0.0
Li1 Li 0.00835 0.05956 0.07177 0.0
Li2 Li 0.02537 0.00341 0.06793 0.0
Li3 Li 0.97256 0.00685 0.05342 0.0
C4 C 0.10505 0.08411 0.07398 0.0
N5 N 0.18925 0.12582 0.08061 0.0
C6 C 0.12382 0.12429 0.07978 0.0
C7 C 0.12886 0.06481 0.07181 0.0
C8 C 0.16651 0.14497 0.08298 0.0
C9 C 0.17145 0.08651 0.07516 0.0
C10 C 0.96621 0.07801 0.05083 0.0
C11 C 0.9006 0.06924 0.05914 0.0
N12 N 0.90276 0.09693 0.0491 0.0
C13 C 0.96778 0.10634 0.0406 0.0
C14 C 0.93236 0.05926 0.06019 0.0
C15 C 0.9354 0.11552 0.0399 0.0
C16 C 0.08038 0.08415 0.02312 0.0
N17 N 0.08625 0.09632 0.03697 0.0
C18 C 0.14068 0.16474 0.03054 0.0
C19 C 0.11582 0.13561 0.04084 0.0
C20 C 0.1345 0.15351 0.01609 0.0
C21 C 0.10439 0.11235 0.01245 0.0
H22 H 0.05586 0.05302 0.0203 0.0
H23 H 0.11874 0.14505 0.05182 0.0
C24 C 0.00036 0.08421 0.09946 0.0
N25 N 0.00666 0.09582 0.08554 0.0
C26 C 0.00445 0.11292 0.10988 0.0
C27 C 0.02019 0.16436 0.09135 0.0
C28 C 0.01615 0.13484 0.08133 0.0
C29 C 0.01499 0.15377 0.10587 0.0
H30 H 0.99347 0.05308 0.10248 0.0
H31 H 0.02205 0.14348 0.07021 0.0
C32 C 0.03635 0.97948 0.0399 0.0
N33 N 0.07109 0.93898 0.02564 0.0
C34 C 0.01059 0.94022 0.03383 0.0
C35 C 0.07973 0.99835 0.03858 0.0
C36 C 0.02877 0.92019 0.0267 0.0
C37 C 0.0967 0.97731 0.03136 0.0
C38 C 0.94361 0.95754 0.07799 0.0
C39 C 0.94074 0.92486 0.0697 0.0
C40 C 0.91869 0.94849 0.09009 0.0
C41 C 0.91289 0.88357 0.07365 0.0
C42 C 0.89116 0.90677 0.09368 0.0
N43 N 0.88887 0.87545 0.08546 0.0
C44 C 0.03497 0.96901 0.09266 0.0
C45 C 0.04151 0.93487 0.07237 0.0
C46 C 0.03434 0.93845 0.1016 0.0
N47 N 0.03738 0.96612 0.07833 0.0
C48 C 0.04122 0.90367 0.08094 0.0
C49 C 0.03626 0.90449 0.09573 0.0
H50 H 0.03097 0.99381 0.09707 0.0
H51 H 0.04293 0.93276 0.06098 0.0
C52 C 0.92972 0.97203 0.02865 0.0
N53 N 0.92309 0.97422 0.04273 0.0
C54 C 0.89712 0.94434 0.0199 0.0
C55 C 0.85081 0.92297 0.04018 0.0
C56 C 0.8844 0.95143 0.04855 0.0
C57 C 0.85727 0.91852 0.02571 0.0
H58 H 0.9609 0.99052 0.02437 0.0
H59 H 0.87992 0.95407 0.05977 0.0
O60 O 0.06323 0.06336 0.07093 0.0
O61 O 0.99772 0.06877 0.05159 0.0
O62 O 0.01896 0.9995 0.04686 0.0
O63 O 0.97103 0.99827 0.07446 0.0
H64 H 0.10563 0.13942 0.08169 0.0
H65 H 0.11459 0.03329 0.06771 0.0
H66 H 0.18154 0.17621 0.08737 0.0
H67 H 0.19032 0.07202 0.07349 0.0
H68 H 0.87422 0.05497 0.0663 0.0
H69 H 0.99379 0.12108 0.03328 0.0
H70 H 0.93057 0.03729 0.06819 0.0
H71 H 0.93621 0.13741 0.03203 0.0
H72 H 0.16287 0.19637 0.0338 0.0
H73 H 0.09869 0.10241 0.00144 0.0
H74 H 9e-05 0.10353 0.12096 0.0
H75 H 0.02914 0.19571 0.08782 0.0
H76 H 0.97691 0.92531 0.03466 0.0
H77 H 0.10008 0.02902 0.04297 0.0
H78 H 0.00923 0.88972 0.02201 0.0
H79 H 0.13023 0.99152 0.03028 0.0
H80 H 0.95982 0.93126 0.06032 0.0
H81 H 0.92065 0.97347 0.09663 0.0
H82 H 0.91038 0.85799 0.06733 0.0
H83 H 0.87166 0.8993 0.10301 0.0
H84 H 0.02977 0.94013 0.1129 0.0
H85 H 0.04324 0.87833 0.07597 0.0
H86 H 0.90371 0.94153 0.00887 0.0
H87 H 0.82048 0.90382 0.04503 0.0
Li88 Li 0.01705 0.00536 0.37947 0.0
Li89 Li 0.0634 0.05866 0.39626 0.0
Li90 Li 0.98584 0.03252 0.3963 0.0
Li91 Li 0.02996 0.07905 0.37733 0.0
C92 C 0.0032 0.96204 0.40495 0.0
N93 N 0.97728 0.88103 0.41355 0.0
C94 C 0.03239 0.95122 0.40982 0.0
C95 C 0.96076 0.93186 0.40473 0.0
C96 C 0.0187 0.91004 0.41404 0.0
C97 C 0.94829 0.89103 0.40905 0.0
C98 C 0.11113 0.07897 0.37116 0.0
C99 C 0.17469 0.14314 0.36574 0.0
N100 N 0.1939 0.12081 0.36275 0.0
C101 C 0.13132 0.05663 0.3678 0.0
C102 C 0.13282 0.12254 0.36992 0.0
C103 C 0.17324 0.07836 0.36367 0.0
C104 C 0.9866 0.94185 0.35791 0.0
N105 N 0.01249 0.95889 0.3693 0.0
C106 C 0.04046 0.91355 0.36603 0.0
C107 C 0.03919 0.94553 0.37339 0.0
C108 C 0.01445 0.89545 0.35413 0.0
C109 C 0.98693 0.90973 0.35016 0.0
H110 H 0.96643 0.95382 0.35464 0.0
H111 H 0.06032 0.96048 0.3822 0.0
C112 C 0.11391 0.09539 0.42052 0.0
N113 N 0.11022 0.07387 0.40839 0.0
C114 C 0.14484 0.10239 0.43051 0.0
C115 C 0.16763 0.06493 0.41536 0.0
C116 C 0.13631 0.05875 0.40565 0.0
C117 C 0.17179 0.08647 0.42809 0.0
H118 H 0.09176 0.10567 0.42272 0.0
H119 H 0.13163 0.04023 0.39624 0.0
C120 C 0.93487 0.00606 0.37246 0.0
N121 N 0.85021 0.96801 0.36671 0.0
C122 C 0.91743 0.02976 0.36749 0.0
C123 C 0.90939 0.9629 0.37424 0.0
C124 C 0.87452 0.00998 0.36472 0.0
C125 C 0.86663 0.94426 0.37134 0.0
C126 C 0.05022 0.13154 0.40176 0.0
C127 C 0.0249 0.1458 0.40763 0.0
C128 C 0.09295 0.15938 0.40003 0.0
C129 C 0.04259 0.1879 0.41134 0.0
C130 C 0.10949 0.20124 0.40388 0.0
N131 N 0.08417 0.21454 0.40939 0.0
C132 C 0.93365 0.00497 0.42091 0.0
C133 C 0.92151 0.0463 0.40429 0.0
C134 C 0.9065 0.00755 0.43065 0.0
N135 N 0.94099 0.02476 0.40812 0.0
C136 C 0.89434 0.04979 0.41367 0.0
C137 C 0.8875 0.03131 0.42721 0.0
H138 H 0.95063 0.98924 0.42388 0.0
H139 H 0.92925 0.0632 0.39433 0.0
C140 C 0.05259 0.13004 0.35219 0.0
N141 N 0.03341 0.12161 0.36507 0.0
C142 C 0.05342 0.16128 0.34347 0.0
C143 C 0.01419 0.17381 0.36137 0.0
C144 C 0.01383 0.14224 0.36963 0.0
C145 C 0.03414 0.18379 0.34807 0.0
H146 H 0.06703 0.11239 0.34867 0.0
H147 H 0.99749 0.13384 0.37966 0.0
O148 O 0.01607 0.0022 0.40074 0.0
O149 O 0.06998 0.05812 0.37514 0.0
O150 O 0.97684 0.02493 0.37522 0.0
O151 O 0.03335 0.09032 0.3981 0.0
H152 H 0.06532 0.97432 0.41023 0.0
H153 H 0.93765 0.93998 0.4014 0.0
H154 H 0.04099 0.90115 0.41772 0.0
H155 H 0.91554 0.86732 0.40888 0.0
H156 H 0.19185 0.17687 0.3648 0.0
H157 H 0.11492 0.02288 0.36846 0.0
H158 H 0.11744 0.14031 0.37201 0.0
H159 H 0.18932 0.06145 0.36117 0.0
H160 H 0.06176 0.90324 0.36962 0.0
H161 H 0.96671 0.89703 0.34096 0.0
H162 H 0.14625 0.11828 0.44032 0.0
H163 H 0.18768 0.05208 0.41308 0.0
H164 H 0.93677 0.06312 0.36587 0.0
H165 H 0.92252 0.94391 0.37768 0.0
H166 H 0.86056 0.028 0.36098 0.0
H167 H 0.84653 0.9109 0.37272 0.0
H168 H 0.9919 0.12467 0.40926 0.0
H169 H 0.11331 0.14867 0.39602 0.0
H170 H 0.02328 0.19938 0.4158 0.0
H171 H 0.14252 0.22309 0.40258 0.0
H172 H 0.90243 0.99329 0.44105 0.0
H173 H 0.88015 0.0682 0.41058 0.0
H174 H 0.06858 0.1674 0.33321 0.0
H175 H 0.99937 0.19051 0.3655 0.0
Li176 Li 0.03134 0.03759 0.72209 0.0
Li177 Li 0.04118 0.09127 0.73951 0.0
Li178 Li 0.97496 0.02044 0.73934 0.0
Li179 Li 0.98769 0.07214 0.7209 0.0
C180 C 0.05413 0.0143 0.74751 0.0
N181 N 0.09589 0.97341 0.75635 0.0
C182 C 0.09633 0.03713 0.75136 0.0
C183 C 0.03297 0.97066 0.74844 0.0
C184 C 0.11696 0.0159 0.75571 0.0
C185 C 0.05466 0.95056 0.75286 0.0
C186 C 0.07755 0.13677 0.71432 0.0
C187 C 0.09992 0.21018 0.71243 0.0
N188 N 0.13555 0.21696 0.70588 0.0
C189 C 0.11422 0.14439 0.70747 0.0
C190 C 0.07019 0.16985 0.71674 0.0
C191 C 0.14322 0.18517 0.70333 0.0
C192 C 0.04616 0.99422 0.69972 0.0
N193 N 0.06266 0.01973 0.71119 0.0
C194 C 0.13033 0.02948 0.70628 0.0
C195 C 0.10384 0.03731 0.71456 0.0
C196 C 0.11446 0.00382 0.69422 0.0
C197 C 0.07161 0.98554 0.69109 0.0
H198 H 0.01363 0.98181 0.69695 0.0
H199 H 0.11648 0.0588 0.72338 0.0
C200 C 0.07293 0.13934 0.7646 0.0
N201 N 0.08292 0.13265 0.75134 0.0
C202 C 0.10454 0.16292 0.77444 0.0
C203 C 0.15579 0.17376 0.75653 0.0
C204 C 0.12333 0.15005 0.74708 0.0
C205 C 0.14657 0.17917 0.77056 0.0
H206 H 0.04049 0.12433 0.76779 0.0
H207 H 0.13049 0.14308 0.73668 0.0
C208 C 0.94215 0.97168 0.71502 0.0
N209 N 0.88439 0.88955 0.70864 0.0
C210 C 0.90404 0.96182 0.70863 0.0
C211 C 0.95111 0.93985 0.71796 0.0
C212 C 0.87517 0.92009 0.70555 0.0
C213 C 0.92146 0.89851 0.71471 0.0
C214 C 0.96202 0.09911 0.74448 0.0
C215 C 0.91869 0.078 0.74635 0.0
C216 C 0.98484 0.14262 0.74581 0.0
C217 C 0.89871 0.10093 0.74904 0.0
C218 C 0.96374 0.16444 0.74852 0.0
N219 N 0.92146 0.14332 0.75004 0.0
C220 C 0.9421 0.9668 0.76336 0.0
C221 C 0.89215 0.96098 0.74623 0.0
C222 C 0.91063 0.93578 0.77174 0.0
N223 N 0.93238 0.97828 0.75078 0.0
C224 C 0.85979 0.92977 0.75421 0.0
C225 C 0.86877 0.91664 0.76716 0.0
H226 H 0.97429 0.98184 0.7669 0.0
H227 H 0.88515 0.97154 0.73641 0.0
C228 C 0.97895 0.1134 0.69653 0.0
N229 N 0.95916 0.08918 0.70804 0.0
C230 C 0.95612 0.12013 0.68599 0.0
C231 C 0.89311 0.07712 0.69941 0.0
C232 C 0.91714 0.0714 0.70969 0.0
C233 C 0.91249 0.10103 0.68722 0.0
H234 H 0.01209 0.12579 0.69513 0.0
H235 H 0.90195 0.0509 0.71862 0.0
O236 O 0.03339 0.03464 0.74328 0.0
O237 O 0.049 0.09705 0.71855 0.0
O238 O 0.97059 0.01234 0.71827 0.0
O239 O 0.98212 0.07714 0.74193 0.0
H240 H 0.11313 0.07089 0.75091 0.0
H241 H 3e-05 0.95245 0.74596 0.0
H242 H 0.14972 0.03323 0.7586 0.0
H243 H 0.03867 0.9168 0.75358 0.0
H244 H 0.09459 0.23606 0.71424 0.0
H245 H 0.1203 0.11911 0.70541 0.0
H246 H 0.04156 0.16432 0.72171 0.0
H247 H 0.17182 0.19154 0.69807 0.0
H248 H 0.16309 0.04403 0.70915 0.0
H249 H 0.05827 0.96616 0.68176 0.0
H250 H 0.09615 0.16603 0.78521 0.0
H251 H 0.1878 0.18598 0.7531 0.0
H252 H 0.89669 0.98606 0.70614 0.0
H253 H 0.98085 0.94705 0.72253 0.0
H254 H 0.84545 0.91199 0.70069 0.0
H255 H 0.928 0.87357 0.71696 0.0
H256 H 0.90063 0.04428 0.74563 0.0
H257 H 0.01854 0.15937 0.74491 0.0
H258 H 0.86514 0.085 0.75036 0.0
H259 H 0.98101 0.19814 0.7495 0.0
H260 H 0.91896 0.92718 0.78176 0.0
H261 H 0.82814 0.9157 0.75014 0.0
H262 H 0.97212 0.13814 0.67662 0.0
H263 H 0.85953 0.06187 0.70076 0.0
C264 C 0.93844 0.60156 0.32524 0.0
C265 C 0.96945 0.63109 0.31412 0.0
C266 C 0.96486 0.61095 0.28936 0.0
C267 C 0.00749 0.63188 0.28592 0.0
C268 C 0.02236 0.61773 0.27477 0.0
C269 C 0.99399 0.58162 0.26706 0.0
C270 C 0.95067 0.56165 0.27012 0.0
C271 C 0.93661 0.57719 0.28109 0.0
C272 C 0.06854 0.6406 0.27154 0.0
C273 C 0.91943 0.52274 0.2623 0.0
C274 C 0.15797 0.47959 0.31009 0.0
C275 C 0.11598 0.4531 0.30251 0.0
C276 C 0.10198 0.46552 0.27846 0.0
C277 C 0.05824 0.4455 0.27828 0.0
C278 C 0.03743 0.46026 0.26956 0.0
C279 C 0.06104 0.49633 0.26108 0.0
C280 C 0.10524 0.5154 0.26077 0.0
C281 C 0.12509 0.4991 0.2693 0.0
C282 C 0.99029 0.43824 0.26986 0.0
C283 C 0.1317 0.5543 0.25207 0.0
C284 C 0.04363 0.44112 0.16634 0.0
C285 C 0.00268 0.43054 0.16963 0.0
C286 C 0.9943 0.45537 0.17878 0.0
C287 C 0.02791 0.49246 0.18448 0.0
C288 C 0.06953 0.5041 0.18087 0.0
C289 C 0.07701 0.47795 0.17205 0.0
C290 C 0.94949 0.4418 0.18235 0.0
C291 C 0.10615 0.54414 0.18634 0.0
C292 C 0.91908 0.72478 0.18115 0.0
C293 C 0.95126 0.71317 0.17609 0.0
C294 C 0.94901 0.64616 0.17994 0.0
C295 C 0.92157 0.60413 0.1831 0.0
C296 C 0.93635 0.57823 0.18831 0.0
C297 C 0.97983 0.59487 0.19026 0.0
C298 C 0.008 0.63688 0.18642 0.0
C299 C 0.99232 0.66214 0.18124 0.0
C300 C 0.90548 0.53342 0.19211 0.0
C301 C 0.05458 0.65525 0.18811 0.0
C302 C 0.00992 0.5621 0.25693 0.0
C303 C 0.02734 0.53928 0.26269 0.0
C304 C 0.04012 0.51712 0.25402 0.0
C305 C 0.03414 0.51647 0.23914 0.0
C306 C 0.04321 0.49168 0.23019 0.0
C307 C 0.03777 0.49181 0.21553 0.0
C308 C 0.02396 0.51748 0.20923 0.0
C309 C 0.01941 0.51876 0.1943 0.0
C310 C 0.00562 0.54469 0.18843 0.0
C311 C 0.99554 0.56903 0.1971 0.0
C312 C 0.99944 0.56784 0.21205 0.0
C313 C 0.98897 0.5915 0.22109 0.0
C314 C 0.99235 0.58969 0.23579 0.0
C315 C 0.00674 0.5645 0.24201 0.0
C316 C 0.01833 0.54109 0.23309 0.0
C317 C 0.01401 0.54222 0.21811 0.0
C318 C 0.11042 0.44564 0.14281 0.0
C319 C 0.08603 0.41505 0.15488 0.0
O320 O 0.95036 0.62186 0.30085 0.0
O321 O 0.93232 0.66994 0.1757 0.0
O322 O 0.04922 0.4152 0.15753 0.0
O323 O 0.12244 0.45444 0.28797 0.0
H324 H 0.99602 0.6248 0.31434 0.0
H325 H 0.93015 0.56885 0.32285 0.0
H326 H 0.90919 0.60314 0.32517 0.0
H327 H 0.95265 0.60958 0.33604 0.0
H328 H 0.02919 0.65892 0.29206 0.0
H329 H 0.90369 0.56164 0.28377 0.0
H330 H 0.08252 0.62199 0.27559 0.0
H331 H 0.08509 0.67194 0.27662 0.0
H332 H 0.07378 0.64438 0.25987 0.0
H333 H 0.88741 0.50915 0.26674 0.0
H334 H 0.92914 0.49872 0.2628 0.0
H335 H 0.91838 0.53032 0.25092 0.0
H336 H 0.09699 0.46804 0.30515 0.0
H337 H 0.15364 0.47713 0.32181 0.0
H338 H 0.17133 0.51293 0.30698 0.0
H339 H 0.18079 0.46968 0.30712 0.0
H340 H 0.04047 0.41881 0.28517 0.0
H341 H 0.1589 0.51405 0.26949 0.0
H342 H 0.97752 0.43591 0.25896 0.0
H343 H 0.98029 0.45656 0.27644 0.0
H344 H 0.97656 0.40633 0.27449 0.0
H345 H 0.16567 0.56752 0.25411 0.0
H346 H 0.12328 0.5786 0.25448 0.0
H347 H 0.12568 0.54681 0.24058 0.0
H348 H 0.10591 0.42456 0.16463 0.0
H349 H 0.97713 0.40224 0.16513 0.0
H350 H 0.10896 0.48684 0.16959 0.0
H351 H 0.94577 0.4429 0.19404 0.0
H352 H 0.92742 0.40968 0.17853 0.0
H353 H 0.94083 0.4637 0.17733 0.0
H354 H 0.13568 0.55202 0.18078 0.0
H355 H 0.11053 0.54083 0.19787 0.0
H356 H 0.10011 0.57058 0.18503 0.0
H357 H 0.97722 0.72641 0.18402 0.0
H358 H 0.93345 0.7593 0.18195 0.0
H359 H 0.90736 0.71106 0.19184 0.0
H360 H 0.89211 0.71261 0.17367 0.0
H361 H 0.88826 0.59195 0.18183 0.0
H362 H 0.01396 0.6942 0.17826 0.0
H363 H 0.90739 0.52849 0.20369 0.0
H364 H 0.91347 0.5121 0.1864 0.0
H365 H 0.8728 0.52476 0.18942 0.0
H366 H 0.07248 0.68793 0.18411 0.0
H367 H 0.06482 0.63584 0.18227 0.0
H368 H 0.06231 0.65486 0.19952 0.0
H369 H 0.03092 0.53866 0.27415 0.0
H370 H 0.05435 0.4717 0.23446 0.0
H371 H 0.04493 0.47181 0.20919 0.0
H372 H 0.00222 0.54557 0.17698 0.0
H373 H 0.97782 0.61156 0.21691 0.0
H374 H 0.98379 0.60846 0.24224 0.0
H375 H 0.09113 0.43784 0.13298 0.0
H376 H 0.13931 0.44452 0.14047 0.0
H377 H 0.11971 0.47815 0.14584 0.0
C378 C 0.37353 0.0112 0.64862 0.0
C379 C 0.35025 0.02631 0.6389 0.0
C380 C 0.376 0.02046 0.61578 0.0
C381 C 0.40444 0.06266 0.6128 0.0
C382 C 0.43801 0.07382 0.6035 0.0
C383 C 0.44325 0.04213 0.59711 0.0
C384 C 0.41356 0.99954 0.59963 0.0
C385 C 0.37988 0.98929 0.60879 0.0
C386 C 0.4684 0.11949 0.60072 0.0
C387 C 0.41822 0.96487 0.59305 0.0
C388 C 0.74066 0.08613 0.63677 0.0
C389 C 0.70097 0.06842 0.62863 0.0
C390 C 0.6582 0.09053 0.61544 0.0
C391 C 0.63054 0.05056 0.60996 0.0
C392 C 0.59668 0.04385 0.60132 0.0
C393 C 0.59061 0.07782 0.59794 0.0
C394 C 0.61862 0.11815 0.60328 0.0
C395 C 0.65207 0.12393 0.61199 0.0
C396 C 0.56713 0.00034 0.59589 0.0
C397 C 0.613 0.15501 0.59984 0.0
C398 C 0.65693 0.06146 0.50808 0.0
C399 C 0.62729 0.02552 0.5154 0.0
C400 C 0.59247 0.02425 0.52183 0.0
C401 C 0.58766 0.05996 0.52126 0.0
C402 C 0.61709 0.09596 0.51376 0.0
C403 C 0.65115 0.09605 0.50717 0.0
C404 C 0.56116 0.98485 0.52944 0.0
C405 C 0.61302 0.13461 0.51299 0.0
C406 C 0.2651 0.99658 0.51589 0.0
C407 C 0.30527 0.02913 0.50854 0.0
C408 C 0.36645 0.02041 0.50833 0.0
C409 C 0.37552 0.98841 0.51071 0.0
C410 C 0.41395 0.997 0.51666 0.0
C411 C 0.44414 0.03878 0.52 0.0
C412 C 0.43638 0.07164 0.51652 0.0
C413 C 0.39752 0.0621 0.51072 0.0
C414 C 0.42154 0.96131 0.52 0.0
C415 C 0.4685 0.11665 0.51947 0.0
C416 C 0.48138 0.05344 0.58872 0.0
C417 C 0.51764 0.06237 0.59623 0.0
C418 C 0.55419 0.07078 0.58916 0.0
C419 C 0.5548 0.07008 0.57413 0.0
C420 C 0.59083 0.07758 0.56668 0.0
C421 C 0.59046 0.07484 0.55192 0.0
C422 C 0.55416 0.06489 0.54404 0.0
C423 C 0.55284 0.06 0.52909 0.0
C424 C 0.51691 0.05205 0.52149 0.0
C425 C 0.48162 0.04765 0.52852 0.0
C426 C 0.48168 0.0504 0.54354 0.0
C427 C 0.44601 0.04412 0.551 0.0
C428 C 0.44594 0.04554 0.56579 0.0
C429 C 0.48156 0.05346 0.57368 0.0
C430 C 0.51826 0.0612 0.56637 0.0
C431 C 0.51813 0.05914 0.5513 0.0
C432 C 0.72805 0.04192 0.51742 0.0
C433 C 0.7065 0.03673 0.50299 0.0
O434 O 0.34501 0.00886 0.62548 0.0
O435 O 0.32733 0.01002 0.504 0.0
O436 O 0.69149 0.0644 0.50185 0.0
O437 O 0.69085 0.09804 0.62409 0.0
H438 H 0.36909 0.06097 0.63822 0.0
H439 H 0.40532 0.02186 0.64437 0.0
H440 H 0.35645 0.97649 0.6493 0.0
H441 H 0.37692 0.0243 0.65949 0.0
H442 H 0.40053 0.08697 0.61768 0.0
H443 H 0.35738 0.95683 0.61103 0.0
H444 H 0.49894 0.12818 0.60575 0.0
H445 H 0.4572 0.14011 0.60504 0.0
H446 H 0.47372 0.12526 0.5891 0.0
H447 H 0.3935 0.9334 0.59662 0.0
H448 H 0.44924 0.96878 0.59585 0.0
H449 H 0.41668 0.96648 0.58129 0.0
H450 H 0.67418 0.04015 0.6335 0.0
H451 H 0.73121 0.07227 0.64775 0.0
H452 H 0.74844 0.1185 0.64019 0.0
H453 H 0.78073 0.07497 0.62343 0.0
H454 H 0.63499 0.02438 0.61242 0.0
H455 H 0.67359 0.15463 0.61623 0.0
H456 H 0.56781 0.00029 0.58408 0.0
H457 H 0.53464 0.99056 0.59914 0.0
H458 H 0.57525 0.97693 0.59992 0.0
H459 H 0.63877 0.18478 0.60418 0.0
H460 H 0.58295 0.14963 0.60433 0.0
H461 H 0.61146 0.15818 0.58812 0.0
H462 H 0.6803 0.00405 0.50187 0.0
H463 H 0.63097 0.99833 0.51622 0.0
H464 H 0.67404 0.12358 0.50147 0.0
H465 H 0.56456 0.9902 0.5411 0.0
H466 H 0.56563 0.95792 0.52701 0.0
H467 H 0.52876 0.97653 0.52647 0.0
H468 H 0.63967 0.16078 0.50733 0.0
H469 H 0.61118 0.14502 0.5239 0.0
H470 H 0.5836 0.1272 0.50736 0.0
H471 H 0.32329 0.05339 0.51672 0.0
H472 H 0.24661 0.01112 0.51943 0.0
H473 H 0.27307 0.98392 0.5254 0.0
H474 H 0.24561 0.97015 0.50863 0.0
H475 H 0.3516 0.95642 0.50853 0.0
H476 H 0.39121 0.08712 0.50824 0.0
H477 H 0.42568 0.95975 0.53165 0.0
H478 H 0.45081 0.96681 0.5148 0.0
H479 H 0.39538 0.9307 0.51638 0.0
H480 H 0.45989 0.13877 0.51457 0.0
H481 H 0.49954 0.12371 0.51539 0.0
H482 H 0.47155 0.12192 0.53115 0.0
H483 H 0.51718 0.06197 0.60778 0.0
H484 H 0.61956 0.0851 0.5722 0.0
H485 H 0.61898 0.08048 0.54677 0.0
H486 H 0.5161 0.04846 0.51003 0.0
H487 H 0.4175 0.03749 0.54552 0.0
H488 H 0.41752 0.04011 0.57097 0.0
H489 H 0.7404 0.02003 0.51832 0.0
H490 H 0.70549 0.03487 0.52621 0.0
H491 H 0.7543 0.0745 0.51872 0.0
C492 C 0.67808 0.62028 0.80134 0.0
C493 C 0.66911 0.6486 0.81078 0.0
C494 C 0.64976 0.6304 0.83551 0.0
C495 C 0.62042 0.64374 0.83688 0.0
C496 C 0.58885 0.62598 0.84718 0.0
C497 C 0.58653 0.59409 0.85621 0.0
C498 C 0.61738 0.58207 0.85527 0.0
C499 C 0.64912 0.60104 0.84506 0.0
C500 C 0.55715 0.64029 0.84812 0.0
C501 C 0.61579 0.54787 0.86459 0.0
C502 C 0.33047 0.30849 0.82238 0.0
C503 C 0.35952 0.33633 0.83346 0.0
C504 C 0.38623 0.40552 0.84378 0.0
C505 C 0.4132 0.40137 0.85343 0.0
C506 C 0.4427 0.43564 0.86133 0.0
C507 C 0.44431 0.47464 0.85998 0.0
C508 C 0.41584 0.47846 0.85082 0.0
C509 C 0.38722 0.44379 0.84279 0.0
C510 C 0.47295 0.43027 0.87078 0.0
C511 C 0.41637 0.51941 0.84926 0.0
C512 C 0.38126 0.44572 0.95367 0.0
C513 C 0.41478 0.43911 0.95126 0.0
C514 C 0.44832 0.46614 0.94255 0.0
C515 C 0.44881 0.50144 0.93637 0.0
C516 C 0.41532 0.50883 0.93895 0.0
C517 C 0.3816 0.4806 0.94742 0.0
C518 C 0.48328 0.45696 0.94008 0.0
C519 C 0.41516 0.54656 0.93277 0.0
C520 C 0.78868 0.73524 0.94367 0.0
C521 C 0.74457 0.7255 0.94763 0.0
C522 C 0.67905 0.65964 0.94382 0.0
C523 C 0.66407 0.61772 0.94052 0.0
C524 C 0.62386 0.59283 0.93489 0.0
C525 C 0.59771 0.61028 0.9328 0.0
C526 C 0.61188 0.65216 0.93681 0.0
C527 C 0.65255 0.67655 0.94229 0.0
C528 C 0.60987 0.54827 0.93074 0.0
C529 C 0.58444 0.67135 0.93493 0.0
C530 C 0.54953 0.57027 0.86549 0.0
C531 C 0.5134 0.53837 0.85914 0.0
C532 C 0.47822 0.51195 0.86721 0.0
C533 C 0.47841 0.51814 0.88205 0.0
C534 C 0.44329 0.49261 0.89045 0.0
C535 C 0.44482 0.49689 0.90518 0.0
C536 C 0.48147 0.52706 0.91206 0.0
C537 C 0.48412 0.53024 0.92708 0.0
C538 C 0.5218 0.55917 0.93355 0.0
C539 C 0.55698 0.58536 0.92542 0.0
C540 C 0.55437 0.5839 0.9104 0.0
C541 C 0.58887 0.61074 0.90192 0.0
C542 C 0.58692 0.6073 0.88716 0.0
C543 C 0.55075 0.57627 0.88037 0.0
C544 C 0.5151 0.54989 0.88868 0.0
C545 C 0.51676 0.55405 0.90371 0.0
C546 C 0.31535 0.44549 0.97639 0.0
C547 C 0.3115 0.41503 0.96463 0.0
O548 O 0.67815 0.64436 0.82481 0.0
O549 O 0.71918 0.68248 0.94841 0.0
O550 O 0.34985 0.41796 0.9622 0.0
O551 O 0.3598 0.37379 0.83508 0.0
H552 H 0.63509 0.63727 0.80937 0.0
H553 H 0.65662 0.58703 0.80422 0.0
H554 H 0.71067 0.62683 0.80278 0.0
H555 H 0.67286 0.62469 0.78996 0.0
H556 H 0.62186 0.66759 0.82976 0.0
H557 H 0.67233 0.59145 0.844 0.0
H558 H 0.52662 0.61532 0.84397 0.0
H559 H 0.56668 0.66929 0.84186 0.0
H560 H 0.55256 0.64599 0.85938 0.0
H561 H 0.64048 0.54028 0.86184 0.0
H562 H 0.5848 0.51904 0.86357 0.0
H563 H 0.61986 0.55769 0.8759 0.0
H564 H 0.3914 0.34001 0.833 0.0
H565 H 0.35107 0.30604 0.81409 0.0
H566 H 0.32214 0.32848 0.81553 0.0
H567 H 0.28508 0.25552 0.8341 0.0
H568 H 0.41203 0.37165 0.85468 0.0
H569 H 0.36603 0.44666 0.83546 0.0
H570 H 0.46568 0.43216 0.8821 0.0
H571 H 0.50553 0.45563 0.8688 0.0
H572 H 0.47131 0.39971 0.86911 0.0
H573 H 0.38859 0.51578 0.84337 0.0
H574 H 0.44491 0.542 0.84341 0.0
H575 H 0.41749 0.53293 0.8599 0.0
H576 H 0.30013 0.42273 0.95471 0.0
H577 H 0.41437 0.41226 0.95616 0.0
H578 H 0.35599 0.48636 0.94915 0.0
H579 H 0.49215 0.46088 0.92866 0.0
H580 H 0.47469 0.42478 0.94347 0.0
H581 H 0.51109 0.47942 0.94629 0.0
H582 H 0.38927 0.5504 0.93703 0.0
H583 H 0.41173 0.54337 0.92103 0.0
H584 H 0.44533 0.57535 0.93507 0.0
H585 H 0.7337 0.73859 0.93899 0.0
H586 H 0.80982 0.7695 0.94243 0.0
H587 H 0.7878 0.72003 0.93341 0.0
H588 H 0.80162 0.72333 0.952 0.0
H589 H 0.68463 0.60491 0.94194 0.0
H590 H 0.66349 0.70866 0.94531 0.0
H591 H 0.60424 0.54447 0.91909 0.0
H592 H 0.57996 0.52669 0.93609 0.0
H593 H 0.63331 0.53894 0.9336 0.0
H594 H 0.59908 0.70355 0.93931 0.0
H595 H 0.55395 0.65159 0.94027 0.0
H596 H 0.578 0.67248 0.92343 0.0
H597 H 0.51334 0.53279 0.84781 0.0
H598 H 0.41443 0.46861 0.88572 0.0
H599 H 0.41708 0.47577 0.91111 0.0
H600 H 0.52422 0.56025 0.94507 0.0
H601 H 0.6179 0.63457 0.90659 0.0
H602 H 0.61445 0.6286 0.88117 0.0
H603 H 0.32761 0.43931 0.98638 0.0
H604 H 0.28431 0.44227 0.97854 0.0
H605 H 0.33698 0.47829 0.97314 0.0
H606 H 0.99012 0.21242 0.10546 0.0
H607 H 0.06044 0.16928 0.13045 0.0
H608 H 0.08177 0.22842 0.14699 0.0
H609 H 0.06264 0.31854 0.10735 0.0
H610 H 0.02491 0.33577 0.10873 0.0
H611 H 0.01101 0.2874 0.09988 0.0
H612 H 0.94773 0.24758 0.11675 0.0
H613 H 0.96124 0.29595 0.1256 0.0
H614 H 0.95595 0.25198 0.13573 0.0
H615 H 0.10222 0.29682 0.15905 0.0
H616 H 0.11695 0.36712 0.1665 0.0
H617 H 0.03206 0.36465 0.13394 0.0
C618 C 0.0095 0.21509 0.11454 0.0
C619 C 0.02353 0.18621 0.1167 0.0
C620 C 0.04882 0.19069 0.12871 0.0
C621 C 0.06125 0.22429 0.13812 0.0
C622 C 0.04772 0.25282 0.13546 0.0
C623 C 0.02195 0.24825 0.12407 0.0
C624 C 0.01348 0.2843 0.12316 0.0
C625 C 0.02895 0.30789 0.10894 0.0
C626 C 0.96682 0.26903 0.12545 0.0
C627 C 0.03963 0.3106 0.13553 0.0
C628 C 0.05895 0.29183 0.14256 0.0
C629 C 0.0867 0.31149 0.15379 0.0
C630 C 0.09494 0.3514 0.15792 0.0
C631 C 0.07543 0.37115 0.15086 0.0
C632 C 0.04713 0.35013 0.13961 0.0
H633 H 0.82778 0.97606 0.44582 0.0
H634 H 0.89445 0.10674 0.43319 0.0
H635 H 0.85612 0.12253 0.45123 0.0
H636 H 0.72879 0.96922 0.45202 0.0
H637 H 0.71617 0.93527 0.46727 0.0
H638 H 0.74937 0.93417 0.45351 0.0
H639 H 0.80692 0.9491 0.47225 0.0
H640 H 0.77388 0.95023 0.48607 0.0
H641 H 0.82564 0.99431 0.48356 0.0
H642 H 0.81192 0.12466 0.4709 0.0
H643 H 0.76176 0.11212 0.49019 0.0
H644 H 0.72234 0.97993 0.48973 0.0
C645 C 0.83437 0.00799 0.4469 0.0
C646 C 0.86383 0.04011 0.43803 0.0
C647 C 0.87147 0.0815 0.43971 0.0
C648 C 0.85011 0.09086 0.45 0.0
C649 C 0.82115 0.0585 0.45852 0.0
C650 C 0.8131 0.01787 0.45708 0.0
C651 C 0.77989 0.98885 0.46748 0.0
C652 C 0.74127 0.95488 0.45959 0.0
C653 C 0.79766 0.96949 0.47796 0.0
C654 C 0.77036 0.01949 0.47488 0.0
C655 C 0.79479 0.05955 0.46965 0.0
C656 C 0.79222 0.09334 0.47499 0.0
C657 C 0.76353 0.08589 0.48588 0.0
C658 C 0.73724 0.04483 0.49113 0.0
C659 C 0.74133 0.01144 0.48567 0.0
H660 H 0.87073 0.85297 0.78181 0.0
H661 H 0.78931 0.90284 0.77143 0.0
H662 H 0.7307 0.84245 0.7833 0.0
H663 H 0.79947 0.74881 0.77581 0.0
H664 H 0.81564 0.72843 0.79046 0.0
H665 H 0.85236 0.77756 0.78244 0.0
H666 H 0.86661 0.81406 0.80697 0.0
H667 H 0.83011 0.76487 0.81512 0.0
H668 H 0.82347 0.80972 0.81722 0.0
H669 H 0.67942 0.77328 0.79388 0.0
H670 H 0.63959 0.70104 0.80314 0.0
H671 H 0.75509 0.69829 0.80811 0.0
C672 C 0.84091 0.85187 0.78236 0.0
C673 C 0.83466 0.88261 0.77559 0.0
C674 C 0.79478 0.87936 0.77631 0.0
C675 C 0.76135 0.84537 0.78315 0.0
C676 C 0.76839 0.81517 0.78942 0.0
C677 C 0.8073 0.81834 0.78926 0.0
C678 C 0.806 0.78052 0.79615 0.0
C679 C 0.81913 0.75748 0.78558 0.0
C680 C 0.83316 0.79305 0.80967 0.0
C681 C 0.75996 0.75491 0.79972 0.0
C682 C 0.73889 0.7756 0.79585 0.0
C683 C 0.69565 0.75701 0.79716 0.0
C684 C 0.6733 0.71596 0.80238 0.0
C685 C 0.69418 0.69393 0.8062 0.0
C686 C 0.73823 0.71423 0.80519 0.0
H687 H 0.06411 0.90556 0.12306 0.0
H688 H 0.98877 0.82132 0.08927 0.0
H689 H 0.96683 0.76132 0.10545 0.0
H690 H 0.09347 0.8327 0.14096 0.0
H691 H 0.0891 0.85029 0.15839 0.0
H692 H 0.10511 0.88585 0.14348 0.0
H693 H 0.04489 0.90071 0.14868 0.0
H694 H 0.02862 0.86516 0.16352 0.0
H695 H 0.99192 0.85765 0.14953 0.0
H696 H 0.94342 0.71228 0.12609 0.0
H697 H 0.92278 0.67749 0.1495 0.0
H698 H 0.01339 0.79274 0.17004 0.0
C699 C 0.04371 0.87441 0.11897 0.0
C700 C 0.02848 0.86824 0.10484 0.0
C701 C 0.00168 0.82693 0.09993 0.0
C702 C 0.98883 0.79257 0.10908 0.0
C703 C 0.00331 0.79991 0.12307 0.0
C704 C 0.03055 0.83977 0.12797 0.0
C705 C 0.03829 0.83959 0.14381 0.0
C706 C 0.08423 0.85289 0.14683 0.0
C707 C 0.02512 0.86741 0.15185 0.0
C708 C 0.00968 0.79372 0.14716 0.0
C709 C 0.99021 0.77126 0.13502 0.0
C710 C 0.95937 0.7292 0.13562 0.0
C711 C 0.94787 0.70968 0.14897 0.0
C712 C 0.96744 0.73213 0.16156 0.0
C713 C 0.99899 0.77455 0.16055 0.0
H714 H 0.18787 0.02496 0.43673 0.0
H715 H 0.22145 0.15349 0.44524 0.0
H716 H 0.26478 0.15498 0.46562 0.0
H717 H 0.17618 0.99222 0.47177 0.0
H718 H 0.19765 0.95818 0.46956 0.0
H719 H 0.17335 0.96875 0.45471 0.0
H720 H 0.24092 0.99477 0.43988 0.0
H721 H 0.2654 0.98399 0.45467 0.0
H722 H 0.29 0.03553 0.44687 0.0
H723 H 0.2984 0.13995 0.48644 0.0
H724 H 0.32041 0.10978 0.50591 0.0
H725 H 0.26641 0.99187 0.48332 0.0
C726 C 0.20533 0.05387 0.44259 0.0
C727 C 0.20147 0.08921 0.43934 0.0
C728 C 0.2238 0.12598 0.44759 0.0
C729 C 0.24868 0.12721 0.45912 0.0
C730 C 0.25111 0.0915 0.46219 0.0
C731 C 0.23028 0.05562 0.4541 0.0
C732 C 0.23566 0.02055 0.4602 0.0
C733 C 0.19319 0.98271 0.4643 0.0
C734 C 0.25942 0.00798 0.44978 0.0
C735 C 0.26185 0.04193 0.47321 0.0
C736 C 0.27075 0.08295 0.47412 0.0
C737 C 0.29222 0.1081 0.48572 0.0
C738 C 0.30454 0.09072 0.49672 0.0
C739 C 0.29534 0.04864 0.49604 0.0
C740 C 0.27425 0.02426 0.48401 0.0
H741 H 0.1593 0.23624 0.79146 0.0
H742 H 0.20888 0.1612 0.77425 0.0
H743 H 0.26356 0.18762 0.7927 0.0
H744 H 0.25666 0.32683 0.80085 0.0
H745 H 0.23515 0.33734 0.81643 0.0
H746 H 0.20203 0.31142 0.80133 0.0
H747 H 0.15184 0.25 0.81737 0.0
H748 H 0.18447 0.27521 0.83262 0.0
H749 H 0.17176 0.22283 0.82791 0.0
H750 H 0.31815 0.2136 0.81524 0.0
H751 H 0.36752 0.2606 0.83959 0.0
H752 H 0.27336 0.32719 0.84259 0.0
C753 C 0.18192 0.22572 0.79168 0.0
C754 C 0.18028 0.1971 0.78141 0.0
C755 C 0.21012 0.18376 0.78186 0.0
C756 C 0.24108 0.19831 0.79235 0.0
C757 C 0.24209 0.22633 0.80235 0.0
C758 C 0.21316 0.24066 0.80222 0.0
C759 C 0.21832 0.27178 0.8141 0.0
C760 C 0.22864 0.31435 0.8078 0.0
C761 C 0.17928 0.25388 0.82355 0.0
C762 C 0.25487 0.27567 0.82237 0.0
C763 C 0.27084 0.24405 0.81398 0.0
C764 C 0.31121 0.23523 0.82062 0.0
C765 C 0.34037 0.26232 0.8362 0.0
C766 C 0.33045 0.30472 0.84227 0.0
C767 C 0.28079 0.30485 0.83803 0.0
H768 H 0.84201 0.03632 0.67604 0.0
H769 H 0.92624 0.16954 0.67148 0.0
H770 H 0.88413 0.17144 0.65123 0.0
H771 H 0.82399 0.00966 0.63986 0.0
H772 H 0.77056 0.96918 0.64273 0.0
H773 H 0.80877 0.98253 0.65667 0.0
H774 H 0.76288 0.99644 0.67382 0.0
H775 H 0.72413 0.98334 0.66007 0.0
H776 H 0.74643 0.03326 0.66889 0.0
H777 H 0.83449 0.16728 0.62784 0.0
H778 H 0.76507 0.13672 0.60783 0.0
H779 H 0.70787 0.99059 0.63075 0.0
C780 C 0.85104 0.06587 0.67083 0.0
C781 C 0.88693 0.10286 0.67533 0.0
C782 C 0.89879 0.14088 0.66814 0.0
C783 C 0.87506 0.14223 0.65667 0.0
C784 C 0.83974 0.10532 0.65244 0.0
C785 C 0.82736 0.06691 0.65934 0.0
C786 C 0.78803 0.02821 0.65347 0.0
C787 C 0.79848 0.99548 0.64785 0.0
C788 C 0.75333 0.00921 0.66473 0.0
C789 C 0.77557 0.04642 0.64152 0.0
C790 C 0.81141 0.09991 0.64101 0.0
C791 C 0.81027 0.13474 0.62794 0.0
C792 C 0.76859 0.1157 0.61502 0.0
C793 C 0.7249 0.06133 0.61876 0.0
C794 C 0.73241 0.02276 0.62943 0.0
H795 H 0.83615 0.92232 0.99796 0.0
H796 H 0.80647 0.83706 0.03359 0.0
H797 H 0.76317 0.7775 0.01782 0.0
H798 H 0.73299 0.85952 0.97822 0.0
H799 H 0.75939 0.87309 0.9613 0.0
H800 H 0.77989 0.90942 0.97592 0.0
H801 H 0.85127 0.9126 0.97331 0.0
H802 H 0.83097 0.87608 0.95884 0.0
H803 H 0.85326 0.86481 0.97417 0.0
H804 H 0.73704 0.72727 0.99762 0.0
H805 H 0.7254 0.69041 0.9748 0.0
H806 H 0.7698 0.80764 0.95214 0.0
C807 C 0.81942 0.89121 0.00252 0.0
C808 C 0.8245 0.88432 0.01701 0.0
C809 C 0.80244 0.84317 0.02258 0.0
C810 C 0.77788 0.8091 0.01368 0.0
C811 C 0.77517 0.81678 0.99929 0.0
C812 C 0.79471 0.85693 0.99379 0.0
C813 C 0.79082 0.8565 0.97773 0.0
C814 C 0.76418 0.87577 0.97302 0.0
C815 C 0.83415 0.8788 0.97061 0.0
C816 C 0.76823 0.80989 0.975 0.0
C817 C 0.75894 0.78747 0.98758 0.0
C818 C 0.74277 0.74432 0.98771 0.0
C819 C 0.7363 0.72363 0.97467 0.0
C820 C 0.74564 0.74608 0.96165 0.0
C821 C 0.76115 0.78962 0.96191 0.0
H822 H 0.94944 0.82399 0.34248 0.0
H823 H 0.08453 0.89163 0.34732 0.0
H824 H 0.08807 0.83372 0.33577 0.0
H825 H 0.93321 0.72496 0.35002 0.0
H826 H 0.89254 0.6976 0.337 0.0
H827 H 0.90063 0.74598 0.34438 0.0
H828 H 0.90984 0.77737 0.31904 0.0
H829 H 0.90147 0.72889 0.31156 0.0
H830 H 0.94823 0.77727 0.3073 0.0
H831 H 0.07658 0.76593 0.32612 0.0
H832 H 0.05067 0.69324 0.31831 0.0
H833 H 0.92365 0.67105 0.31825 0.0
C834 C 0.97986 0.82711 0.3408 0.0
C835 C 0.01666 0.86225 0.34594 0.0
C836 C 0.0558 0.8647 0.34373 0.0
C837 C 0.05821 0.83214 0.33705 0.0
C838 C 0.02129 0.79756 0.33243 0.0
C839 C 0.98288 0.79499 0.33404 0.0
C840 C 0.94778 0.75339 0.32875 0.0
C841 C 0.91673 0.72906 0.34076 0.0
C842 C 0.92552 0.75961 0.31589 0.0
C843 C 0.97236 0.73246 0.3244 0.0
C844 C 0.01474 0.75862 0.32652 0.0
C845 C 0.04352 0.74534 0.32421 0.0
C846 C 0.02853 0.70401 0.31982 0.0
C847 C 0.98517 0.67645 0.31778 0.0
C848 C 0.95694 0.69135 0.31977 0.0
H849 H 0.19246 0.06359 0.68566 0.0
H850 H 0.10118 0.93179 0.68099 0.0
H851 H 0.15007 0.92328 0.66529 0.0
H852 H 0.23265 0.08114 0.64991 0.0
H853 H 0.28569 0.11652 0.65542 0.0
H854 H 0.24272 0.11223 0.66573 0.0
H855 H 0.272 0.09468 0.68824 0.0
H856 H 0.31511 0.09906 0.67802 0.0
H857 H 0.28208 0.05168 0.68777 0.0
H858 H 0.21091 0.92912 0.65091 0.0
H859 H 0.27813 0.94892 0.63905 0.0
H860 H 0.32861 0.07651 0.65365 0.0
C861 C 0.18275 0.03281 0.68143 0.0
C862 C 0.14309 0.99827 0.68462 0.0
C863 C 0.13132 0.95875 0.67861 0.0
C864 C 0.15891 0.95361 0.66973 0.0
C865 C 0.19797 0.98835 0.66693 0.0
C866 C 0.20976 0.02717 0.6726 0.0
C867 C 0.25366 0.05941 0.66826 0.0
C868 C 0.25366 0.09438 0.65929 0.0
C869 C 0.2824 0.07723 0.68135 0.0
C870 C 0.26508 0.03261 0.65938 0.0
C871 C 0.23256 0.99175 0.65865 0.0
C872 C 0.2364 0.96112 0.6513 0.0
C873 C 0.27455 0.97261 0.64457 0.0
C874 C 0.30818 0.01439 0.64522 0.0
C875 C 0.30318 0.04455 0.65276 0.0
H876 H 0.21725 0.21483 0.01559 0.0
H877 H 0.10135 0.16587 0.99169 0.0
H878 H 0.1358 0.22426 0.9746 0.0
H879 H 0.24608 0.31965 0.01302 0.0
H880 H 0.30135 0.33919 0.0111 0.0
H881 H 0.26934 0.29082 0.0204 0.0
H882 H 0.29412 0.25243 0.00344 0.0
H883 H 0.32652 0.30083 0.99412 0.0
H884 H 0.28839 0.25551 0.98448 0.0
H885 H 0.18021 0.29237 0.96189 0.0
H886 H 0.23261 0.36334 0.95377 0.0
H887 H 0.31981 0.36738 0.98568 0.0
C888 C 0.19932 0.21606 0.00664 0.0
C889 C 0.15667 0.18568 0.00494 0.0
C890 C 0.13425 0.18837 0.99308 0.0
C891 C 0.15348 0.22154 0.98335 0.0
C892 C 0.19528 0.25154 0.98554 0.0
C893 C 0.21809 0.24882 0.99679 0.0
C894 C 0.26188 0.28629 0.99719 0.0
C895 C 0.27011 0.3104 0.01126 0.0
C896 C 0.29466 0.27296 0.99466 0.0
C897 C 0.25963 0.31124 0.98473 0.0
C898 C 0.22108 0.29052 0.97807 0.0
C899 C 0.21078 0.30856 0.96684 0.0
C900 C 0.24066 0.34886 0.96232 0.0
C901 C 0.28037 0.37062 0.969 0.0
C902 C 0.28989 0.35124 0.98027 0.0
H903 H 0.09889 0.24166 0.33158 0.0
H904 H 0.97237 0.20408 0.34486 0.0
H905 H 0.97769 0.26613 0.33296 0.0
H906 H 0.14232 0.34747 0.33654 0.0
H907 H 0.17516 0.36369 0.32099 0.0
H908 H 0.16025 0.31413 0.32923 0.0
H909 H 0.1292 0.27611 0.30536 0.0
H910 H 0.14448 0.3257 0.29696 0.0
H911 H 0.09078 0.28414 0.29618 0.0
H912 H -0.00016 0.33637 0.32249 0.0
H913 H 0.03587 0.40801 0.31264 0.0
H914 H 0.14544 0.39708 0.30416 0.0
C915 C 0.07181 0.24571 0.33164 0.0
C916 C 0.0354 0.21811 0.33932 0.0
C917 C 0.00099 0.22518 0.33933 0.0
C918 C 0.00352 0.26015 0.33248 0.0
C919 C 0.0403 0.28733 0.32539 0.0
C920 C 0.07356 0.28015 0.32468 0.0
C921 C 0.11021 0.31527 0.3169 0.0
C922 C 0.14927 0.33638 0.32649 0.0
C923 C 0.11918 0.29935 0.30302 0.0
C924 C 0.09297 0.34414 0.3139 0.0
C925 C 0.05251 0.32731 0.31883 0.0
C926 C 0.03122 0.34957 0.31834 0.0
C927 C 0.05198 0.39026 0.31278 0.0
C928 C 0.09356 0.40827 0.30775 0.0
C929 C 0.11379 0.38433 0.308 0.0
loop_
_geom_bond_atom_site_label_1
_geom_bond_atom_site_label_2
_geom_bond_distance
_geom_bond_site_symmetry_2
_ccdc_geom_bond_type
Li0 N17 1.990 . S
Li0 O60 1.956 . S
Li0 O61 2.002 . S
Li0 O62 1.961 . S
Li1 N25 1.986 1_455 S
Li1 O60 1.978 . S
Li1 O61 1.956 . S
Li1 O63 1.961 1_455 S
Li2 N47 1.990 1_545 S
Li2 O60 1.961 . S
Li2 O62 1.956 . S
Li2 O63 1.970 1_455 S
Li3 N53 1.990 1_545 S
Li3 O61 1.961 1_655 S
Li3 O62 1.970 1_655 S
Li3 O63 1.956 . S
C4 C6 1.348 . S
C4 C7 1.356 . S
C4 O60 1.325 . S
N5 C8 1.314 . S
N5 C9 1.279 . S
C6 C4 1.348 . S
C6 C8 1.353 . S
C6 H64 0.929 . S
C7 C4 1.356 . S
C7 C9 1.358 . S
C7 H65 0.930 . S
C8 N5 1.314 . S
C8 C6 1.353 . S
C8 H66 0.930 . S
C9 N5 1.279 . S
C9 C7 1.358 . S
C9 H67 0.930 . S
C10 C13 1.348 1_655 S
C10 C14 1.356 . S
C10 O61 1.306 1_655 S
C11 N12 1.279 . S
C11 C14 1.358 . S
C11 H68 0.930 . S
N12 C11 1.279 . S
N12 C15 1.314 1_655 S
C13 C10 1.348 1_455 S
C13 C15 1.353 . S
C13 H69 0.929 . S
C14 C10 1.356 . S
C14 C11 1.358 . S
C14 H70 0.930 . S
C15 N12 1.314 1_455 S
C15 C13 1.353 . S
C15 H71 0.930 . S
C16 N17 1.314 . S
C16 C21 1.353 . S
C16 H22 0.930 . S
N17 Li0 1.990 . S
N17 C16 1.314 . S
N17 C19 1.279 . S
C18 C19 1.358 . S
C18 C20 1.356 . S
C18 H72 0.930 . S
C19 N17 1.279 . S
C19 C18 1.358 . S
C19 H23 0.930 . S
C20 C18 1.356 . S
C20 C21 1.348 . S
C21 C16 1.353 . S
C21 C20 1.348 . S
C21 H73 0.929 . S
H22 C16 0.930 . S
H23 C19 0.930 . S
C24 N25 1.314 . S
C24 C26 1.353 . S
C24 H30 0.930 . S
N25 Li1 1.986 1_655 S
N25 C24 1.314 . S
N25 C28 1.279 . S
C26 C24 1.353 . S
C26 C29 1.348 . S
C26 H74 0.929 . S
C27 C28 1.358 . S
C27 C29 1.356 . S
C27 H75 0.930 . S
C28 N25 1.279 . S
C28 C27 1.358 . S
C28 H31 0.930 . S
C29 C26 1.348 . S
C29 C27 1.356 . S
H30 C24 0.930 . S
H31 C28 0.930 . S
C32 C34 1.348 . S
C32 C35 1.356 . S
C32 O62 1.325 1_565 S
N33 C36 1.314 . S
N33 C37 1.279 . S
C34 C32 1.348 . S
C34 C36 1.353 . S
C34 H76 0.929 1_455 S
C35 C32 1.356 . S
C35 C37 1.358 . S
C35 H77 0.930 1_565 S
C36 N33 1.314 . S
C36 C34 1.353 . S
C36 H78 0.930 1_455 S
C37 N33 1.279 . S
C37 C35 1.358 . S
C37 H79 0.930 . S
C38 C39 1.348 . S
C38 C40 1.356 . S
C38 O63 1.325 1_565 S
C39 C38 1.348 . S
C39 C41 1.353 . S
C39 H80 0.929 . S
C40 C38 1.356 . S
C40 C42 1.358 . S
C40 H81 0.930 1_565 S
C41 C39 1.353 . S
C41 N43 1.314 . S
C41 H82 0.930 . S
C42 C40 1.358 . S
C42 N43 1.279 . S
C42 H83 0.930 . S
N43 C41 1.314 . S
N43 C42 1.279 . S
C44 C46 1.353 . S
C44 N47 1.314 . S
C44 H50 0.930 . S
C45 N47 1.279 . S
C45 C48 1.358 . S
C45 H51 0.930 . S
C46 C44 1.353 . S
C46 C49 1.348 . S
C46 H84 0.929 . S
N47 Li2 1.990 1_565 S
N47 C44 1.314 . S
N47 C45 1.279 . S
C48 C45 1.358 . S
C48 C49 1.356 . S
C48 H85 0.930 . S
C49 C46 1.348 . S
C49 C48 1.356 . S
H50 C44 0.930 . S
H51 C45 0.930 . S
C52 N53 1.314 . S
C52 C54 1.353 . S
C52 H58 0.942 . S
N53 Li3 1.990 1_565 S
N53 C52 1.314 . S
N53 C56 1.279 . S
C54 C52 1.353 . S
C54 C57 1.348 . S
C54 H86 0.929 . S
C55 C56 1.358 . S
C55 C57 1.356 . S
C55 H87 0.930 . S
C56 N53 1.279 . S
C56 C55 1.358 . S
C56 H59 0.930 . S
C57 C54 1.348 . S
C57 C55 1.356 . S
H58 C52 0.942 . S
H59 C56 0.930 . S
O60 Li0 1.956 . S
O60 Li1 1.978 . S
O60 Li2 1.961 . S
O60 C4 1.325 . S
O61 Li0 2.002 . S
O61 Li1 1.956 . S
O61 Li3 1.961 1_455 S
O61 C10 1.306 1_455 S
O62 Li0 1.961 . S
O62 Li2 1.956 . S
O62 Li3 1.970 1_455 S
O62 C32 1.325 1_545 S
O63 Li1 1.961 1_655 S
O63 Li2 1.970 1_655 S
O63 Li3 1.956 . S
O63 C38 1.325 1_545 S
H64 C6 0.929 . S
H65 C7 0.930 . S
H66 C8 0.930 . S
H67 C9 0.930 . S
H68 C11 0.930 . S
H69 C13 0.929 . S
H70 C14 0.930 . S
H71 C15 0.930 . S
H72 C18 0.930 . S
H73 C21 0.929 . S
H74 C26 0.929 . S
H75 C27 0.930 . S
H76 C34 0.929 1_655 S
H77 C35 0.930 1_545 S
H78 C36 0.930 1_655 S
H79 C37 0.930 . S
H80 C39 0.929 . S
H81 C40 0.930 1_545 S
H82 C41 0.930 . S
H83 C42 0.930 . S
H84 C46 0.929 . S
H85 C48 0.930 . S
H86 C54 0.929 . S
H87 C55 0.930 . S
Li88 N105 1.990 1_445 S
Li88 O148 1.956 . S
Li88 O149 1.970 . S
Li88 O150 1.961 1_455 S
Li89 N113 1.990 . S
Li89 O148 1.970 . S
Li89 O149 1.956 . S
Li89 O151 1.961 . S
Li90 N135 1.990 . S
Li90 O148 1.961 1_655 S
Li90 O150 1.956 . S
Li90 O151 1.970 1_655 S
Li91 N141 1.990 . S
Li91 O149 1.961 . S
Li91 O150 1.970 1_455 S
Li91 O151 1.956 . S
C92 C94 1.348 . S
C92 C95 1.356 1_455 S
C92 O148 1.325 1_565 S
N93 C96 1.314 1_655 S
N93 C97 1.279 . S
C94 C92 1.348 . S
C94 C96 1.353 . S
C94 H152 0.929 . S
C95 C92 1.356 1_655 S
C95 C97 1.358 . S
C95 H153 0.930 . S
C96 N93 1.314 1_455 S
C96 C94 1.353 . S
C96 H154 0.930 . S
C97 N93 1.279 . S
C97 C95 1.358 . S
C97 H155 0.930 . S
C98 C101 1.348 . S
C98 C102 1.356 . S
C98 O149 1.325 . S
C99 N100 1.279 . S
C99 C102 1.358 . S
C99 H156 0.930 . S
N100 C99 1.279 . S
N100 C103 1.314 . S
C101 C98 1.348 . S
C101 C103 1.353 . S
C101 H157 0.929 . S
C102 C98 1.356 . S
C102 C99 1.358 . S
C102 H158 0.930 . S
C103 N100 1.314 . S
C103 C101 1.353 . S
C103 H159 0.930 . S
C104 N105 1.314 . S
C104 C109 1.353 . S
C104 H110 0.930 . S
N105 Li88 1.990 1_665 S
N105 C104 1.314 . S
N105 C107 1.279 . S
C106 C107 1.358 . S
C106 C108 1.356 . S
C106 H160 0.930 . S
C107 N105 1.279 . S
C107 C106 1.358 . S
C107 H111 0.930 1_655 S
C108 C106 1.356 . S
C108 C109 1.348 . S
C109 C104 1.353 . S
C109 C108 1.348 . S
C109 H161 0.929 . S
H110 C104 0.930 . S
H111 C107 0.930 1_455 S
C112 N113 1.314 . S
C112 C114 1.353 . S
C112 H118 0.930 . S
N113 Li89 1.990 . S
N113 C112 1.314 . S
N113 C116 1.279 . S
C114 C112 1.353 . S
C114 C117 1.348 . S
C114 H162 0.929 . S
C115 C116 1.358 . S
C115 C117 1.356 . S
C115 H163 0.930 . S
C116 N113 1.279 . S
C116 C115 1.358 . S
C116 H119 0.930 . S
C117 C114 1.348 . S
C117 C115 1.356 . S
H118 C112 0.930 . S
H119 C116 0.930 . S
C120 C122 1.348 . S
C120 C123 1.356 1_545 S
C120 O150 1.325 . S
N121 C124 1.314 . S
N121 C125 1.279 1_545 S
C122 C120 1.348 . S
C122 C124 1.353 . S
C122 H164 0.929 . S
C123 C120 1.356 1_565 S
C123 C125 1.358 . S
C123 H165 0.930 . S
C124 N121 1.314 . S
C124 C122 1.353 . S
C124 H166 0.930 . S
C125 N121 1.279 1_565 S
C125 C123 1.358 . S
C125 H167 0.930 . S
C126 C127 1.348 . S
C126 C128 1.356 . S
C126 O151 1.325 . S
C127 C126 1.348 . S
C127 C129 1.353 . S
C127 H168 0.929 1_455 S
C128 C126 1.356 . S
C128 C130 1.358 . S
C128 H169 0.930 . S
C129 C127 1.353 . S
C129 N131 1.314 . S
C129 H170 0.930 . S
C130 C128 1.358 . S
C130 N131 1.279 . S
C130 H171 0.930 . S
N131 C129 1.314 . S
N131 C130 1.279 . S
C132 C134 1.353 . S
C132 N135 1.314 . S
C132 H138 0.930 . S
C133 N135 1.279 . S
C133 C136 1.358 . S
C133 H139 0.930 . S
C134 C132 1.353 . S
C134 C137 1.348 . S
C134 H172 0.929 1_545 S
N135 Li90 1.990 . S
N135 C132 1.314 . S
N135 C133 1.279 . S
C136 C133 1.358 . S
C136 C137 1.356 . S
C136 H173 0.930 . S
C137 C134 1.348 . S
C137 C136 1.356 . S
H138 C132 0.930 . S
H139 C133 0.930 . S
C140 N141 1.314 . S
C140 C142 1.353 . S
C140 H146 0.930 . S
N141 Li91 1.990 . S
N141 C140 1.314 . S
N141 C144 1.279 . S
C142 C140 1.353 . S
C142 C145 1.348 . S
C142 H174 0.929 . S
C143 C144 1.358 . S
C143 C145 1.356 . S
C143 H175 0.930 . S
C144 N141 1.279 . S
C144 C143 1.358 . S
C144 H147 0.930 . S
C145 C142 1.348 . S
C145 C143 1.356 . S
H146 C140 0.930 . S
H147 C144 0.930 . S
O148 Li88 1.956 . S
O148 Li89 1.970 . S
O148 Li90 1.961 1_455 S
O148 C92 1.325 1_545 S
O149 Li88 1.970 . S
O149 Li89 1.956 . S
O149 Li91 1.961 . S
O149 C98 1.325 . S
O150 Li88 1.961 1_655 S
O150 Li90 1.956 . S
O150 Li91 1.970 1_655 S
O150 C120 1.325 . S
O151 Li89 1.961 . S
O151 Li90 1.970 1_455 S
O151 Li91 1.956 . S
O151 C126 1.325 . S
H152 C94 0.929 . S
H153 C95 0.930 . S
H154 C96 0.930 . S
H155 C97 0.930 . S
H156 C99 0.930 . S
H157 C101 0.929 . S
H158 C102 0.930 . S
H159 C103 0.930 . S
H160 C106 0.930 . S
H161 C109 0.929 . S
H162 C114 0.929 . S
H163 C115 0.930 . S
H164 C122 0.929 . S
H165 C123 0.930 . S
H166 C124 0.930 . S
H167 C125 0.930 . S
H168 C127 0.929 1_655 S
H169 C128 0.930 . S
H170 C129 0.930 . S
H171 C130 0.930 . S
H172 C134 0.929 1_565 S
H173 C136 0.930 . S
H174 C142 0.929 . S
H175 C143 0.930 . S
Li176 N193 1.990 . S
Li176 O236 1.956 . S
Li176 O237 1.970 . S
Li176 O238 1.961 1_455 S
Li177 N201 1.990 . S
Li177 O236 1.970 . S
Li177 O237 1.956 . S
Li177 O239 1.961 1_455 S
Li178 N223 1.990 1_545 S
Li178 O236 1.961 1_655 S
Li178 O238 1.956 . S
Li178 O239 1.970 . S
Li179 N229 1.990 . S
Li179 O237 1.961 1_655 S
Li179 O238 1.970 . S
Li179 O239 1.956 . S
C180 C182 1.348 . S
C180 C183 1.356 1_545 S
C180 O236 1.325 . S
N181 C184 1.314 . S
N181 C185 1.279 1_545 S
C182 C180 1.348 . S
C182 C184 1.353 . S
C182 H240 0.929 . S
C183 C180 1.356 1_565 S
C183 C185 1.358 . S
C183 H241 0.930 . S
C184 N181 1.314 . S
C184 C182 1.353 . S
C184 H242 0.930 . S
C185 N181 1.279 1_565 S
C185 C183 1.358 . S
C185 H243 0.930 . S
C186 C189 1.348 . S
C186 C190 1.356 . S
C186 O237 1.325 . S
C187 N188 1.279 . S
C187 C190 1.358 . S
C187 H244 0.930 . S
N188 C187 1.279 . S
N188 C191 1.314 . S
C189 C186 1.348 . S
C189 C191 1.353 . S
C189 H245 0.929 . S
C190 C186 1.356 . S
C190 C187 1.358 . S
C190 H246 0.930 . S
C191 N188 1.314 . S
C191 C189 1.353 . S
C191 H247 0.930 . S
C192 N193 1.314 . S
C192 C197 1.353 . S
C192 H198 0.930 . S
N193 Li176 1.990 . S
N193 C192 1.314 . S
N193 C195 1.279 . S
C194 C195 1.358 . S
C194 C196 1.356 . S
C194 H248 0.930 . S
C195 N193 1.279 . S
C195 C194 1.358 . S
C195 H199 0.930 . S
C196 C194 1.356 . S
C196 C197 1.348 . S
C197 C192 1.353 . S
C197 C196 1.348 . S
C197 H249 0.929 1_545 S
H198 C192 0.930 . S
H199 C195 0.930 . S
C200 N201 1.314 . S
C200 C202 1.353 . S
C200 H206 0.930 . S
N201 Li177 1.990 . S
N201 C200 1.314 . S
N201 C204 1.279 . S
C202 C200 1.353 . S
C202 C205 1.348 . S
C202 H250 0.929 . S
C203 C204 1.358 . S
C203 C205 1.356 . S
C203 H251 0.930 . S
C204 N201 1.279 . S
C204 C203 1.358 . S
C204 H207 0.930 . S
C205 C202 1.348 . S
C205 C203 1.356 . S
H206 C200 0.930 . S
H207 C204 0.930 . S
C208 C210 1.348 . S
C208 C211 1.356 . S
C208 O238 1.325 1_565 S
N209 C212 1.314 . S
N209 C213 1.279 . S
C210 C208 1.348 . S
C210 C212 1.353 . S
C210 H252 0.929 . S
C211 C208 1.356 . S
C211 C213 1.358 . S
C211 H253 0.930 . S
C212 N209 1.314 . S
C212 C210 1.353 . S
C212 H254 0.930 . S
C213 N209 1.279 . S
C213 C211 1.358 . S
C213 H255 0.930 . S
C214 C215 1.348 . S
C214 C216 1.356 . S
C214 O239 1.325 . S
C215 C214 1.348 . S
C215 C217 1.353 . S
C215 H256 0.929 . S
C216 C214 1.356 . S
C216 C218 1.358 . S
C216 H257 0.930 . S
C217 C215 1.353 . S
C217 N219 1.314 . S
C217 H258 0.930 . S
C218 C216 1.358 . S
C218 N219 1.279 . S
C218 H259 0.930 . S
N219 C217 1.314 . S
N219 C218 1.279 . S
C220 C222 1.353 . S
C220 N223 1.314 . S
C220 H226 0.930 . S
C221 N223 1.279 . S
C221 C224 1.358 . S
C221 H227 0.930 . S
C222 C220 1.353 . S
C222 C225 1.348 . S
C222 H260 0.929 . S
N223 Li178 1.990 1_565 S
N223 C220 1.314 . S
N223 C221 1.279 . S
C224 C221 1.358 . S
C224 C225 1.356 . S
C224 H261 0.930 . S
C225 C222 1.348 . S
C225 C224 1.356 . S
H226 C220 0.930 . S
H227 C221 0.930 . S
C228 N229 1.314 . S
C228 C230 1.353 . S
C228 H234 0.930 . S
N229 Li179 1.990 . S
N229 C228 1.314 . S
N229 C232 1.279 . S
C230 C228 1.353 . S
C230 C233 1.348 . S
C230 H262 0.929 . S
C231 C232 1.358 . S
C231 C233 1.356 . S
C231 H263 0.930 . S
C232 N229 1.279 . S
C232 C231 1.358 . S
C232 H235 0.930 . S
C233 C230 1.348 . S
C233 C231 1.356 . S
H234 C228 0.930 . S
H235 C232 0.930 . S
O236 Li176 1.956 . S
O236 Li177 1.970 . S
O236 Li178 1.961 1_455 S
O236 C180 1.325 . S
O237 Li176 1.970 . S
O237 Li177 1.956 . S
O237 Li179 1.961 1_455 S
O237 C186 1.325 . S
O238 Li176 1.961 1_655 S
O238 Li178 1.956 . S
O238 Li179 1.970 . S
O238 C208 1.325 1_545 S
O239 Li177 1.961 1_655 S
O239 Li178 1.970 . S
O239 Li179 1.956 . S
O239 C214 1.325 . S
H240 C182 0.929 . S
H241 C183 0.930 . S
H242 C184 0.930 . S
H243 C185 0.930 . S
H244 C187 0.930 . S
H245 C189 0.929 . S
H246 C190 0.930 . S
H247 C191 0.930 . S
H248 C194 0.930 . S
H249 C197 0.929 1_565 S
H250 C202 0.929 . S
H251 C203 0.930 . S
H252 C210 0.929 . S
H253 C211 0.930 . S
H254 C212 0.930 . S
H255 C213 0.930 . S
H256 C215 0.929 . S
H257 C216 0.930 . S
H258 C217 0.930 . S
H259 C218 0.930 . S
H260 C222 0.929 . S
H261 C224 0.930 . S
H262 C230 0.929 . S
H263 C231 0.930 . S
C264 C265 1.560 . S
C264 H325 0.959 . S
C264 H326 0.959 . S
C264 H327 0.960 . S
C265 C264 1.560 . S
C265 O320 1.426 . S
C265 H324 0.980 1_655 S
C266 C267 1.407 1_655 S
C266 C271 1.418 . S
C266 O320 1.334 . S
C267 C266 1.407 1_455 S
C267 C268 1.360 . S
C267 H328 0.929 . S
C268 C267 1.360 . S
C268 C269 1.401 . S
C268 C272 1.527 . S
C269 C268 1.401 . S
C269 C270 1.405 1_455 S
C269 C302 1.587 . S
C270 C269 1.405 1_655 S
C270 C271 1.332 . S
C270 C273 1.496 . S
C271 C266 1.418 . S
C271 C270 1.332 . S
C271 H329 0.929 . S
C272 C268 1.527 . S
C272 H330 0.959 . S
C272 H331 0.961 . S
C272 H332 0.961 . S
C273 C270 1.496 . S
C273 H333 0.960 . S
C273 H334 0.960 . S
C273 H335 0.961 . S
C274 C275 1.517 . S
C274 H337 0.961 . S
C274 H338 0.960 . S
C274 H339 0.959 . S
C275 C274 1.517 . S
C275 O323 1.468 . S
C275 H336 0.980 . S
C276 C277 1.349 . S
C276 C281 1.367 . S
C276 O323 1.408 . S
C277 C276 1.349 . S
C277 C278 1.407 . S
C277 H340 0.930 . S
C278 C277 1.407 . S
C278 C279 1.449 . S
C278 C282 1.535 1_455 S
C279 C278 1.449 . S
C279 C280 1.384 . S
C279 C304 1.553 . S
C280 C279 1.384 . S
C280 C281 1.364 . S
C280 C283 1.450 . S
C281 C276 1.367 . S
C281 C280 1.364 . S
C281 H341 0.931 . S
C282 C278 1.535 1_655 S
C282 H342 0.959 . S
C282 H343 0.961 . S
C282 H344 0.959 . S
C283 C280 1.450 . S
C283 H345 0.960 . S
C283 H346 0.960 . S
C283 H347 0.960 . S
C284 C285 1.309 . S
C284 C289 1.304 . S
C284 O322 1.435 . S
C285 C284 1.309 . S
C285 C286 1.476 . S
C285 H349 0.930 1_455 S
C286 C285 1.476 . S
C286 C287 1.400 . S
C286 C290 1.567 1_455 S
C287 C286 1.400 . S
C287 C288 1.373 . S
C287 C309 1.432 . S
C288 C287 1.373 . S
C288 C289 1.339 . S
C288 C291 1.530 . S
C289 C284 1.304 . S
C289 C288 1.339 . S
C289 H350 0.930 . S
C290 C286 1.567 1_655 S
C290 H351 0.961 . S
C290 H352 0.960 . S
C290 H353 0.958 . S
C291 C288 1.530 . S
C291 H354 0.961 . S
C291 H355 0.960 . S
C291 H356 0.960 . S
C292 C293 1.530 1_655 S
C292 H358 0.961 . S
C292 H359 0.961 . S
C292 H360 0.959 . S
C293 C292 1.530 1_455 S
C293 O321 1.412 1_455 S
C293 H357 0.980 . S
C294 C295 1.288 . S
C294 C299 1.377 1_655 S
C294 O321 1.393 . S
C295 C294 1.288 . S
C295 C296 1.369 . S
C295 H361 0.932 . S
C296 C295 1.369 . S
C296 C297 1.398 1_655 S
C296 C300 1.527 . S
C297 C296 1.398 1_455 S
C297 C298 1.380 . S
C297 C311 1.497 . S
C298 C297 1.380 . S
C298 C299 1.383 . S
C298 C301 1.603 . S
C299 C294 1.377 1_455 S
C299 C298 1.383 . S
C299 H362 0.929 . S
C300 C296 1.527 . S
C300 H363 0.961 . S
C300 H364 0.959 . S
C300 H365 0.959 . S
C301 C298 1.603 . S
C301 H366 0.960 . S
C301 H367 0.962 . S
C301 H368 0.961 . S
C302 C269 1.587 . S
C302 C303 1.360 . S
C302 C315 1.412 . S
C303 C302 1.360 . S
C303 C304 1.365 . S
C303 H369 0.929 . S
C304 C279 1.553 . S
C304 C303 1.365 . S
C304 C305 1.404 . S
C305 C304 1.404 . S
C305 C306 1.395 . S
C305 C316 1.451 . S
C306 C305 1.395 . S
C306 C307 1.322 . S
C306 H370 0.930 . S
C307 C306 1.322 . S
C307 C308 1.459 . S
C307 H371 0.929 . S
C308 C307 1.459 . S
C308 C309 1.445 . S
C308 C317 1.395 . S
C309 C287 1.432 . S
C309 C308 1.445 . S
C309 C310 1.370 . S
C310 C309 1.370 . S
C310 C311 1.438 . S
C310 H372 0.930 . S
C311 C297 1.497 . S
C311 C310 1.438 . S
C311 C312 1.360 . S
C312 C311 1.360 . S
C312 C313 1.401 . S
C312 C317 1.446 . S
C313 C312 1.401 . S
C313 C314 1.347 . S
C313 H373 0.929 . S
C314 C313 1.347 . S
C314 C315 1.455 . S
C314 H374 0.930 . S
C315 C302 1.412 . S
C315 C314 1.455 . S
C315 C316 1.331 . S
C316 C305 1.451 . S
C316 C315 1.331 . S
C316 C317 1.497 . S
C317 C308 1.395 . S
C317 C312 1.446 . S
C317 C316 1.497 . S
C318 C319 1.582 . S
C318 H375 0.962 . S
C318 H376 0.959 . S
C318 H377 0.958 . S
C319 C318 1.582 . S
C319 O322 1.458 . S
C319 H348 0.980 . S
O320 C265 1.426 . S
O320 C266 1.334 . S
O321 C293 1.412 1_655 S
O321 C294 1.393 . S
O322 C284 1.435 . S
O322 C319 1.458 . S
O323 C275 1.468 . S
O323 C276 1.408 . S
H324 C265 0.980 1_455 S
H325 C264 0.959 . S
H326 C264 0.959 . S
H327 C264 0.960 . S
H328 C267 0.929 . S
H329 C271 0.929 . S
H330 C272 0.959 . S
H331 C272 0.961 . S
H332 C272 0.961 . S
H333 C273 0.960 . S
H334 C273 0.960 . S
H335 C273 0.961 . S
H336 C275 0.980 . S
H337 C274 0.961 . S
H338 C274 0.960 . S
H339 C274 0.959 . S
H340 C277 0.930 . S
H341 C281 0.931 . S
H342 C282 0.959 . S
H343 C282 0.961 . S
H344 C282 0.959 . S
H345 C283 0.960 . S
H346 C283 0.960 . S
H347 C283 0.960 . S
H348 C319 0.980 . S
H349 C285 0.930 1_655 S
H350 C289 0.930 . S
H351 C290 0.961 . S
H352 C290 0.960 . S
H353 C290 0.958 . S
H354 C291 0.961 . S
H355 C291 0.960 . S
H356 C291 0.960 . S
H357 C293 0.980 . S
H358 C292 0.961 . S
H359 C292 0.961 . S
H360 C292 0.959 . S
H361 C295 0.932 . S
H362 C299 0.929 . S
H363 C300 0.961 . S
H364 C300 0.959 . S
H365 C300 0.959 . S
H366 C301 0.960 . S
H367 C301 0.962 . S
H368 C301 0.961 . S
H369 C303 0.929 . S
H370 C306 0.930 . S
H371 C307 0.929 . S
H372 C310 0.930 . S
H373 C313 0.929 . S
H374 C314 0.930 . S
H375 C318 0.962 . S
H376 C318 0.959 . S
H377 C318 0.958 . S
C378 C379 1.560 1_565 S
C378 H439 0.959 . S
C378 H440 0.959 . S
C378 H441 0.960 1_565 S
C379 C378 1.560 1_545 S
C379 O434 1.426 . S
C379 H438 0.980 . S
C380 C381 1.407 . S
C380 C385 1.418 1_545 S
C380 O434 1.334 . S
C381 C380 1.407 . S
C381 C382 1.360 . S
C381 H442 0.929 . S
C382 C381 1.360 . S
C382 C383 1.401 . S
C382 C386 1.527 . S
C383 C382 1.401 . S
C383 C384 1.405 . S
C383 C416 1.587 . S
C384 C383 1.405 . S
C384 C385 1.332 1_545 S
C384 C387 1.496 1_545 S
C385 C380 1.418 1_565 S
C385 C384 1.332 1_565 S
C385 H443 0.929 . S
C386 C382 1.527 . S
C386 H444 0.959 . S
C386 H445 0.961 . S
C386 H446 0.961 . S
C387 C384 1.496 1_565 S
C387 H447 0.960 . S
C387 H448 0.960 . S
C387 H449 0.961 . S
C388 C389 1.517 . S
C388 H451 0.961 . S
C388 H452 0.960 . S
C388 H453 0.959 . S
C389 C388 1.517 . S
C389 O437 1.468 . S
C389 H450 0.980 . S
C390 C391 1.349 . S
C390 C395 1.367 . S
C390 O437 1.408 . S
C391 C390 1.349 . S
C391 C392 1.407 . S
C391 H454 0.930 . S
C392 C391 1.407 . S
C392 C393 1.449 . S
C392 C396 1.535 . S
C393 C392 1.449 . S
C393 C394 1.384 . S
C393 C418 1.553 . S
C394 C393 1.384 . S
C394 C395 1.364 . S
C394 C397 1.450 . S
C395 C390 1.367 . S
C395 C394 1.364 . S
C395 H455 0.931 . S
C396 C392 1.535 . S
C396 H456 0.959 . S
C396 H457 0.961 1_545 S
C396 H458 0.959 1_545 S
C397 C394 1.450 . S
C397 H459 0.960 . S
C397 H460 0.960 . S
C397 H461 0.960 . S
C398 C399 1.309 . S
C398 C403 1.304 . S
C398 O436 1.435 . S
C399 C398 1.309 . S
C399 C400 1.476 . S
C399 H463 0.930 . S
C400 C399 1.476 . S
C400 C401 1.400 . S
C400 C404 1.567 1_545 S
C401 C400 1.400 . S
C401 C402 1.373 . S
C401 C423 1.432 . S
C402 C401 1.373 . S
C402 C403 1.339 . S
C402 C405 1.530 . S
C403 C398 1.304 . S
C403 C402 1.339 . S
C403 H464 0.930 . S
C404 C400 1.567 1_565 S
C404 H465 0.971 . S
C404 H466 0.960 . S
C404 H467 0.958 . S
C405 C402 1.530 . S
C405 H468 0.961 . S
C405 H469 0.960 . S
C405 H470 0.960 . S
C406 C407 1.530 . S
C406 H472 0.961 . S
C406 H473 0.961 1_545 S
C406 H474 0.959 1_545 S
C407 C406 1.530 . S
C407 O435 1.412 . S
C407 H471 0.980 . S
C408 C409 1.288 1_545 S
C408 C413 1.377 . S
C408 O435 1.393 . S
C409 C408 1.288 1_565 S
C409 C410 1.369 1_565 S
C409 H475 0.932 . S
C410 C409 1.369 1_545 S
C410 C411 1.398 . S
C410 C414 1.527 1_545 S
C411 C410 1.398 . S
C411 C412 1.380 . S
C411 C425 1.497 . S
C412 C411 1.380 . S
C412 C413 1.383 . S
C412 C415 1.603 . S
C413 C408 1.377 . S
C413 C412 1.383 . S
C413 H476 0.929 . S
C414 C410 1.527 1_565 S
C414 H477 0.961 . S
C414 H478 0.959 . S
C414 H479 0.959 . S
C415 C412 1.603 . S
C415 H480 0.960 . S
C415 H481 0.962 . S
C415 H482 0.961 . S
C416 C383 1.587 . S
C416 C417 1.360 . S
C416 C429 1.412 . S
C417 C416 1.360 . S
C417 C418 1.365 . S
C417 H483 0.929 . S
C418 C393 1.553 . S
C418 C417 1.365 . S
C418 C419 1.404 . S
C419 C418 1.404 . S
C419 C420 1.395 . S
C419 C430 1.451 . S
C420 C419 1.395 . S
C420 C421 1.322 . S
C420 H484 0.930 . S
C421 C420 1.322 . S
C421 C422 1.459 . S
C421 H485 0.929 . S
C422 C421 1.459 . S
C422 C423 1.445 . S
C422 C431 1.395 . S
C423 C401 1.432 . S
C423 C422 1.445 . S
C423 C424 1.370 . S
C424 C423 1.370 . S
C424 C425 1.438 . S
C424 H486 0.930 . S
C425 C411 1.497 . S
C425 C424 1.438 . S
C425 C426 1.360 . S
C426 C425 1.360 . S
C426 C427 1.401 . S
C426 C431 1.446 . S
C427 C426 1.401 . S
C427 C428 1.347 . S
C427 H487 0.929 . S
C428 C427 1.347 . S
C428 C429 1.455 . S
C428 H488 0.930 . S
C429 C416 1.412 . S
C429 C428 1.455 . S
C429 C430 1.331 . S
C430 C419 1.451 . S
C430 C429 1.331 . S
C430 C431 1.497 . S
C431 C422 1.395 . S
C431 C426 1.446 . S
C431 C430 1.497 . S
C432 C433 1.582 . S
C432 H489 0.962 . S
C432 H490 0.959 . S
C432 H491 0.958 . S
C433 C432 1.582 . S
C433 O436 1.458 . S
C433 H462 0.980 . S
O434 C379 1.426 . S
O434 C380 1.334 . S
O435 C407 1.412 . S
O435 C408 1.393 . S
O436 C398 1.435 . S
O436 C433 1.458 . S
O437 C389 1.468 . S
O437 C390 1.408 . S
H438 C379 0.980 . S
H439 C378 0.959 . S
H440 C378 0.959 . S
H441 C378 0.960 1_545 S
H442 C381 0.929 . S
H443 C385 0.929 . S
H444 C386 0.959 . S
H445 C386 0.961 . S
H446 C386 0.961 . S
H447 C387 0.960 . S
H448 C387 0.960 . S
H449 C387 0.961 . S
H450 C389 0.980 . S
H451 C388 0.961 . S
H452 C388 0.960 . S
H453 C388 0.959 . S
H454 C391 0.930 . S
H455 C395 0.931 . S
H456 C396 0.959 . S
H457 C396 0.961 1_565 S
H458 C396 0.959 1_565 S
H459 C397 0.960 . S
H460 C397 0.960 . S
H461 C397 0.960 . S
H462 C433 0.980 . S
H463 C399 0.930 . S
H464 C403 0.930 . S
H465 C404 0.971 . S
H466 C404 0.960 . S
H467 C404 0.958 . S
H468 C405 0.961 . S
H469 C405 0.960 . S
H470 C405 0.960 . S
H471 C407 0.980 . S
H472 C406 0.961 . S
H473 C406 0.961 1_565 S
H474 C406 0.959 1_565 S
H475 C409 0.932 . S
H476 C413 0.929 . S
H477 C414 0.961 . S
H478 C414 0.959 . S
H479 C414 0.959 . S
H480 C415 0.960 . S
H481 C415 0.962 . S
H482 C415 0.961 . S
H483 C417 0.929 . S
H484 C420 0.930 . S
H485 C421 0.929 . S
H486 C424 0.930 . S
H487 C427 0.929 . S
H488 C428 0.930 . S
H489 C432 0.962 . S
H490 C432 0.959 . S
H491 C432 0.958 . S
C492 C493 1.560 . S
C492 H553 0.959 . S
C492 H554 0.959 . S
C492 H555 0.960 . S
C493 C492 1.560 . S
C493 O548 1.426 . S
C493 H552 0.980 . S
C494 C495 1.407 . S
C494 C499 1.418 . S
C494 O548 1.334 . S
C495 C494 1.407 . S
C495 C496 1.360 . S
C495 H556 0.929 . S
C496 C495 1.360 . S
C496 C497 1.401 . S
C496 C500 1.527 . S
C497 C496 1.401 . S
C497 C498 1.405 . S
C497 C530 1.587 . S
C498 C497 1.405 . S
C498 C499 1.332 . S
C498 C501 1.496 . S
C499 C494 1.418 . S
C499 C498 1.332 . S
C499 H557 0.929 . S
C500 C496 1.527 . S
C500 H558 0.959 . S
C500 H559 0.961 . S
C500 H560 0.961 . S
C501 C498 1.496 . S
C501 H561 0.960 . S
C501 H562 0.960 . S
C501 H563 0.961 . S
C502 C503 1.517 . S
C502 H565 0.961 . S
C502 H566 0.960 . S
C502 H567 0.959 . S
C503 C502 1.517 . S
C503 O551 1.468 . S
C503 H564 0.980 . S
C504 C505 1.349 . S
C504 C509 1.367 . S
C504 O551 1.408 . S
C505 C504 1.349 . S
C505 C506 1.407 . S
C505 H568 0.930 . S
C506 C505 1.407 . S
C506 C507 1.449 . S
C506 C510 1.535 . S
C507 C506 1.449 . S
C507 C508 1.384 . S
C507 C532 1.553 . S
C508 C507 1.384 . S
C508 C509 1.364 . S
C508 C511 1.450 . S
C509 C504 1.367 . S
C509 C508 1.364 . S
C509 H569 0.931 . S
C510 C506 1.535 . S
C510 H570 0.959 . S
C510 H571 0.961 . S
C510 H572 0.959 . S
C511 C508 1.450 . S
C511 H573 0.960 . S
C511 H574 0.960 . S
C511 H575 0.960 . S
C512 C513 1.309 . S
C512 C517 1.304 . S
C512 O550 1.435 . S
C513 C512 1.309 . S
C513 C514 1.476 . S
C513 H577 0.930 . S
C514 C513 1.476 . S
C514 C515 1.400 . S
C514 C518 1.567 . S
C515 C514 1.400 . S
C515 C516 1.373 . S
C515 C537 1.432 . S
C516 C515 1.373 . S
C516 C517 1.339 . S
C516 C519 1.530 . S
C517 C512 1.304 . S
C517 C516 1.339 . S
C517 H578 0.930 . S
C518 C514 1.567 . S
C518 H579 0.961 . S
C518 H580 0.960 . S
C518 H581 0.958 . S
C519 C516 1.530 . S
C519 H582 0.961 . S
C519 H583 0.960 . S
C519 H584 0.960 . S
C520 C521 1.530 . S
C520 H586 0.961 . S
C520 H587 0.961 . S
C520 H588 0.959 . S
C521 C520 1.530 . S
C521 O549 1.412 . S
C521 H585 0.980 . S
C522 C523 1.288 . S
C522 C527 1.377 . S
C522 O549 1.393 . S
C523 C522 1.288 . S
C523 C524 1.369 . S
C523 H589 0.932 . S
C524 C523 1.369 . S
C524 C525 1.398 . S
C524 C528 1.527 . S
C525 C524 1.398 . S
C525 C526 1.380 . S
C525 C539 1.497 . S
C526 C525 1.380 . S
C526 C527 1.383 . S
C526 C529 1.603 . S
C527 C522 1.377 . S
C527 C526 1.383 . S
C527 H590 0.929 . S
C528 C524 1.527 . S
C528 H591 0.961 . S
C528 H592 0.959 . S
C528 H593 0.959 . S
C529 C526 1.603 . S
C529 H594 0.960 . S
C529 H595 0.962 . S
C529 H596 0.961 . S
C530 C497 1.587 . S
C530 C531 1.360 . S
C530 C543 1.412 . S
C531 C530 1.360 . S
C531 C532 1.365 . S
C531 H597 0.929 . S
C532 C507 1.553 . S
C532 C531 1.365 . S
C532 C533 1.404 . S
C533 C532 1.404 . S
C533 C534 1.395 . S
C533 C544 1.451 . S
C534 C533 1.395 . S
C534 C535 1.322 . S
C534 H598 0.930 . S
C535 C534 1.322 . S
C535 C536 1.459 . S
C535 H599 0.929 . S
C536 C535 1.459 . S
C536 C537 1.445 . S
C536 C545 1.395 . S
C537 C515 1.432 . S
C537 C536 1.445 . S
C537 C538 1.370 . S
C538 C537 1.370 . S
C538 C539 1.438 . S
C538 H600 0.930 . S
C539 C525 1.497 . S
C539 C538 1.438 . S
C539 C540 1.360 . S
C540 C539 1.360 . S
C540 C541 1.401 . S
C540 C545 1.446 . S
C541 C540 1.401 . S
C541 C542 1.347 . S
C541 H601 0.929 . S
C542 C541 1.347 . S
C542 C543 1.455 . S
C542 H602 0.930 . S
C543 C530 1.412 . S
C543 C542 1.455 . S
C543 C544 1.331 . S
C544 C533 1.451 . S
C544 C543 1.331 . S
C544 C545 1.497 . S
C545 C536 1.395 . S
C545 C540 1.446 . S
C545 C544 1.497 . S
C546 C547 1.582 . S
C546 H603 0.962 . S
C546 H604 0.959 . S
C546 H605 0.958 . S
C547 C546 1.582 . S
C547 O550 1.458 . S
C547 H576 0.980 . S
O548 C493 1.426 . S
O548 C494 1.334 . S
O549 C521 1.412 . S
O549 C522 1.393 . S
O550 C512 1.435 . S
O550 C547 1.458 . S
O551 C503 1.468 . S
O551 C504 1.408 . S
H552 C493 0.980 . S
H553 C492 0.959 . S
H554 C492 0.959 . S
H555 C492 0.960 . S
H556 C495 0.929 . S
H557 C499 0.929 . S
H558 C500 0.959 . S
H559 C500 0.961 . S
H560 C500 0.961 . S
H561 C501 0.960 . S
H562 C501 0.960 . S
H563 C501 0.961 . S
H564 C503 0.980 . S
H565 C502 0.961 . S
H566 C502 0.960 . S
H567 C502 0.959 . S
H568 C505 0.930 . S
H569 C509 0.931 . S
H570 C510 0.959 . S
H571 C510 0.961 . S
H572 C510 0.959 . S
H573 C511 0.960 . S
H574 C511 0.960 . S
H575 C511 0.960 . S
H576 C547 0.980 . S
H577 C513 0.930 . S
H578 C517 0.930 . S
H579 C518 0.961 . S
H580 C518 0.960 . S
H581 C518 0.958 . S
H582 C519 0.961 . S
H583 C519 0.960 . S
H584 C519 0.960 . S
H585 C521 0.980 . S
H586 C520 0.961 . S
H587 C520 0.961 . S
H588 C520 0.959 . S
H589 C523 0.932 . S
H590 C527 0.929 . S
H591 C528 0.961 . S
H592 C528 0.959 . S
H593 C528 0.959 . S
H594 C529 0.960 . S
H595 C529 0.962 . S
H596 C529 0.961 . S
H597 C531 0.929 . S
H598 C534 0.930 . S
H599 C535 0.929 . S
H600 C538 0.930 . S
H601 C541 0.929 . S
H602 C542 0.930 . S
H603 C546 0.962 . S
H604 C546 0.959 . S
H605 C546 0.958 . S
H606 C618 0.930 . S
H607 C620 0.930 1_455 S
H608 C621 0.930 . S
H609 C625 0.959 . S
H610 C625 0.959 . S
H611 C625 0.961 . S
H612 C626 0.960 . S
H613 C626 0.961 . S
H614 C626 0.959 . S
H615 C629 0.929 . S
H616 C630 0.931 . S
H617 C632 0.930 . S
C618 H606 0.930 . S
C618 C619 1.399 . S
C618 C623 1.399 . S
C619 C618 1.399 . S
C619 C620 1.376 . S
C620 H607 0.930 1_655 S
C620 C619 1.376 . S
C620 C621 1.388 1_655 S
C621 H608 0.930 . S
C621 C620 1.388 1_455 S
C621 C622 1.390 1_455 S
C622 C621 1.390 1_655 S
C622 C623 1.394 . S
C622 C628 1.465 . S
C623 C618 1.399 . S
C623 C622 1.394 . S
C623 C624 1.516 . S
C624 C623 1.516 . S
C624 C625 1.502 . S
C624 C626 1.561 . S
C624 C627 1.526 . S
C625 H609 0.959 . S
C625 H610 0.959 . S
C625 H611 0.961 . S
C625 C624 1.502 . S
C626 H612 0.960 . S
C626 H613 0.961 . S
C626 H614 0.959 . S
C626 C624 1.561 . S
C627 C624 1.526 . S
C627 C628 1.396 . S
C627 C632 1.390 . S
C628 C622 1.465 . S
C628 C627 1.396 . S
C628 C629 1.399 1_655 S
C629 H615 0.929 . S
C629 C628 1.399 1_455 S
C629 C630 1.385 . S
C630 H616 0.931 . S
C630 C629 1.385 . S
C630 C631 1.389 . S
C631 C630 1.389 . S
C631 C632 1.387 1_455 S
C632 H617 0.930 . S
C632 C627 1.390 . S
C632 C631 1.387 1_655 S
H633 C645 0.930 . S
H634 C647 0.930 . S
H635 C648 0.930 . S
H636 C652 0.959 . S
H637 C652 0.959 . S
H638 C652 0.961 . S
H639 C653 0.960 . S
H640 C653 0.961 . S
H641 C653 0.959 . S
H642 C656 0.929 . S
H643 C657 0.931 . S
H644 C659 0.930 1_565 S
C645 H633 0.930 . S
C645 C646 1.399 1_565 S
C645 C650 1.399 . S
C646 C645 1.399 1_545 S
C646 C647 1.376 . S
C647 H634 0.930 . S
C647 C646 1.376 . S
C647 C648 1.388 . S
C648 H635 0.930 . S
C648 C647 1.388 . S
C648 C649 1.390 . S
C649 C648 1.390 . S
C649 C650 1.394 1_545 S
C649 C655 1.465 . S
C650 C645 1.399 . S
C650 C649 1.394 1_565 S
C650 C651 1.516 . S
C651 C650 1.516 . S
C651 C652 1.502 . S
C651 C653 1.561 . S
C651 C654 1.526 1_565 S
C652 H636 0.959 . S
C652 H637 0.959 . S
C652 H638 0.961 . S
C652 C651 1.502 . S
C653 H639 0.960 . S
C653 H640 0.961 . S
C653 H641 0.959 . S
C653 C651 1.561 . S
C654 C651 1.526 1_545 S
C654 C655 1.396 . S
C654 C659 1.390 . S
C655 C649 1.465 . S
C655 C654 1.396 . S
C655 C656 1.399 . S
C656 H642 0.929 . S
C656 C655 1.399 . S
C656 C657 1.385 . S
C657 H643 0.931 . S
C657 C656 1.385 . S
C657 C658 1.389 . S
C658 C657 1.389 . S
C658 C659 1.387 . S
C659 H644 0.930 1_545 S
C659 C654 1.390 . S
C659 C658 1.387 . S
H660 C672 0.930 . S
H661 C674 0.930 . S
H662 C675 0.930 . S
H663 C679 0.959 . S
H664 C679 0.959 . S
H665 C679 0.961 . S
H666 C680 0.960 . S
H667 C680 0.961 . S
H668 C680 0.959 . S
H669 C683 0.929 . S
H670 C684 0.931 . S
H671 C686 0.930 . S
C672 H660 0.930 . S
C672 C673 1.399 . S
C672 C677 1.399 . S
C673 C672 1.399 . S
C673 C674 1.376 . S
C674 H661 0.930 . S
C674 C673 1.376 . S
C674 C675 1.388 . S
C675 H662 0.930 . S
C675 C674 1.388 . S
C675 C676 1.390 . S
C676 C675 1.390 . S
C676 C677 1.394 . S
C676 C682 1.465 . S
C677 C672 1.399 . S
C677 C676 1.394 . S
C677 C678 1.516 . S
C678 C677 1.516 . S
C678 C679 1.502 . S
C678 C680 1.561 . S
C678 C681 1.526 . S
C679 H663 0.959 . S
C679 H664 0.959 . S
C679 H665 0.961 . S
C679 C678 1.502 . S
C680 H666 0.960 . S
C680 H667 0.961 . S
C680 H668 0.959 . S
C680 C678 1.561 . S
C681 C678 1.526 . S
C681 C682 1.396 . S
C681 C686 1.390 . S
C682 C676 1.465 . S
C682 C681 1.396 . S
C682 C683 1.399 . S
C683 H669 0.929 . S
C683 C682 1.399 . S
C683 C684 1.385 . S
C684 H670 0.931 . S
C684 C683 1.385 . S
C684 C685 1.389 . S
C685 C684 1.389 . S
C685 C686 1.387 . S
C686 H671 0.930 . S
C686 C681 1.390 . S
C686 C685 1.387 . S
H687 C699 0.930 . S
H688 C701 0.930 . S
H689 C702 0.930 1_655 S
H690 C706 0.959 . S
H691 C706 0.959 . S
H692 C706 0.961 . S
H693 C707 0.960 . S
H694 C707 0.961 . S
H695 C707 0.959 . S
H696 C710 0.929 . S
H697 C711 0.931 . S
H698 C713 0.930 . S
C699 H687 0.930 . S
C699 C700 1.399 . S
C699 C704 1.399 . S
C700 C699 1.399 . S
C700 C701 1.376 . S
C701 H688 0.930 . S
C701 C700 1.376 . S
C701 C702 1.388 . S
C702 H689 0.930 1_455 S
C702 C701 1.388 . S
C702 C703 1.390 . S
C703 C702 1.390 . S
C703 C704 1.394 . S
C703 C709 1.465 . S
C704 C699 1.399 . S
C704 C703 1.394 . S
C704 C705 1.516 . S
C705 C704 1.516 . S
C705 C706 1.502 . S
C705 C707 1.561 . S
C705 C708 1.526 . S
C706 H690 0.959 . S
C706 H691 0.959 . S
C706 H692 0.961 . S
C706 C705 1.502 . S
C707 H693 0.960 . S
C707 H694 0.961 . S
C707 H695 0.959 . S
C707 C705 1.561 . S
C708 C705 1.526 . S
C708 C709 1.396 . S
C708 C713 1.390 . S
C709 C703 1.465 . S
C709 C708 1.396 . S
C709 C710 1.399 1_455 S
C710 H696 0.929 . S
C710 C709 1.399 1_655 S
C710 C711 1.385 . S
C711 H697 0.931 . S
C711 C710 1.385 . S
C711 C712 1.389 1_655 S
C712 C711 1.389 1_455 S
C712 C713 1.387 . S
C713 H698 0.930 . S
C713 C708 1.390 . S
C713 C712 1.387 . S
H714 C726 0.930 . S
H715 C728 0.930 . S
H716 C729 0.930 . S
H717 C733 0.959 1_545 S
H718 C733 0.959 . S
H719 C733 0.961 . S
H720 C734 0.960 . S
H721 C734 0.961 . S
H722 C734 0.959 1_545 S
H723 C737 0.929 . S
H724 C738 0.931 . S
H725 C740 0.930 . S
C726 H714 0.930 . S
C726 C727 1.399 . S
C726 C731 1.399 . S
C727 C726 1.399 . S
C727 C728 1.376 . S
C728 H715 0.930 . S
C728 C727 1.376 . S
C728 C729 1.388 . S
C729 H716 0.930 . S
C729 C728 1.388 . S
C729 C730 1.390 . S
C730 C729 1.390 . S
C730 C731 1.394 . S
C730 C736 1.465 . S
C731 C726 1.399 . S
C731 C730 1.394 . S
C731 C732 1.516 . S
C732 C731 1.516 . S
C732 C733 1.502 1_545 S
C732 C734 1.561 1_545 S
C732 C735 1.526 . S
C733 H717 0.959 1_565 S
C733 H718 0.959 . S
C733 H719 0.961 . S
C733 C732 1.502 1_565 S
C734 H720 0.960 . S
C734 H721 0.961 . S
C734 H722 0.959 1_565 S
C734 C732 1.561 1_565 S
C735 C732 1.526 . S
C735 C736 1.396 . S
C735 C740 1.390 . S
C736 C730 1.465 . S
C736 C735 1.396 . S
C736 C737 1.399 . S
C737 H723 0.929 . S
C737 C736 1.399 . S
C737 C738 1.385 . S
C738 H724 0.931 . S
C738 C737 1.385 . S
C738 C739 1.389 . S
C739 C738 1.389 . S
C739 C740 1.387 . S
C740 H725 0.930 . S
C740 C735 1.390 . S
C740 C739 1.387 . S
H741 C753 0.930 . S
H742 C755 0.930 . S
H743 C756 0.930 . S
H744 C760 0.959 . S
H745 C760 0.959 . S
H746 C760 0.961 . S
H747 C761 0.960 . S
H748 C761 0.961 . S
H749 C761 0.959 . S
H750 C764 0.929 . S
H751 C765 0.931 . S
H752 C767 0.930 . S
C753 H741 0.930 . S
C753 C754 1.399 . S
C753 C758 1.399 . S
C754 C753 1.399 . S
C754 C755 1.376 . S
C755 H742 0.930 . S
C755 C754 1.376 . S
C755 C756 1.388 . S
C756 H743 0.930 . S
C756 C755 1.388 . S
C756 C757 1.390 . S
C757 C756 1.390 . S
C757 C758 1.394 . S
C757 C763 1.465 . S
C758 C753 1.399 . S
C758 C757 1.394 . S
C758 C759 1.516 . S
C759 C758 1.516 . S
C759 C760 1.502 . S
C759 C761 1.561 . S
C759 C762 1.526 . S
C760 H744 0.959 . S
C760 H745 0.959 . S
C760 H746 0.961 . S
C760 C759 1.502 . S
C761 H747 0.960 . S
C761 H748 0.961 . S
C761 H749 0.959 . S
C761 C759 1.561 . S
C762 C759 1.526 . S
C762 C763 1.396 . S
C762 C767 1.390 . S
C763 C757 1.465 . S
C763 C762 1.396 . S
C763 C764 1.399 . S
C764 H750 0.929 . S
C764 C763 1.399 . S
C764 C765 1.385 . S
C765 H751 0.931 . S
C765 C764 1.385 . S
C765 C766 1.389 . S
C766 C765 1.389 . S
C766 C767 1.387 . S
C767 H752 0.930 . S
C767 C762 1.390 . S
C767 C766 1.387 . S
H768 C780 0.930 . S
H769 C782 0.930 . S
H770 C783 0.930 . S
H771 C787 0.959 1_545 S
H772 C787 0.959 . S
H773 C787 0.961 . S
H774 C788 0.960 . S
H775 C788 0.961 . S
H776 C788 0.959 1_545 S
H777 C791 0.929 . S
H778 C792 0.931 . S
H779 C794 0.930 . S
C780 H768 0.930 . S
C780 C781 1.399 . S
C780 C785 1.399 . S
C781 C780 1.399 . S
C781 C782 1.376 . S
C782 H769 0.930 . S
C782 C781 1.376 . S
C782 C783 1.388 . S
C783 H770 0.930 . S
C783 C782 1.388 . S
C783 C784 1.390 . S
C784 C783 1.390 . S
C784 C785 1.394 . S
C784 C790 1.465 . S
C785 C780 1.399 . S
C785 C784 1.394 . S
C785 C786 1.516 . S
C786 C785 1.516 . S
C786 C787 1.502 1_545 S
C786 C788 1.561 1_545 S
C786 C789 1.526 . S
C787 H771 0.959 1_565 S
C787 H772 0.959 . S
C787 H773 0.961 . S
C787 C786 1.502 1_565 S
C788 H774 0.960 . S
C788 H775 0.961 . S
C788 H776 0.959 1_565 S
C788 C786 1.561 1_565 S
C789 C786 1.526 . S
C789 C790 1.396 . S
C789 C794 1.390 . S
C790 C784 1.465 . S
C790 C789 1.396 . S
C790 C791 1.399 . S
C791 H777 0.929 . S
C791 C790 1.399 . S
C791 C792 1.385 . S
C792 H778 0.931 . S
C792 C791 1.385 . S
C792 C793 1.389 . S
C793 C792 1.389 . S
C793 C794 1.387 . S
C794 H779 0.930 . S
C794 C789 1.390 . S
C794 C793 1.387 . S
H795 C807 0.954 . S
H796 C809 0.930 . S
H797 C810 0.930 . S
H798 C814 0.959 . S
H799 C814 0.959 . S
H800 C814 0.961 . S
H801 C815 0.960 . S
H802 C815 0.961 . S
H803 C815 0.959 . S
H804 C818 0.929 1_554 S
H805 C819 0.931 . S
H806 C821 0.930 . S
C807 H795 0.954 . S
C807 C808 1.353 1_556 S
C807 C812 1.422 . S
C808 C807 1.353 1_554 S
C808 C809 1.376 . S
C809 H796 0.930 . S
C809 C808 1.376 . S
C809 C810 1.388 . S
C810 H797 0.930 . S
C810 C809 1.388 . S
C810 C811 1.397 . S
C811 C810 1.397 . S
C811 C812 1.390 1_554 S
C811 C817 1.460 1_554 S
C812 C807 1.422 . S
C812 C811 1.390 1_556 S
C812 C813 1.516 . S
C813 C812 1.516 . S
C813 C814 1.502 . S
C813 C815 1.561 . S
C813 C816 1.526 . S
C814 H798 0.959 . S
C814 H799 0.959 . S
C814 H800 0.961 . S
C814 C813 1.502 . S
C815 H801 0.960 . S
C815 H802 0.961 . S
C815 H803 0.959 . S
C815 C813 1.561 . S
C816 C813 1.526 . S
C816 C817 1.396 . S
C816 C821 1.390 . S
C817 C811 1.460 1_556 S
C817 C816 1.396 . S
C817 C818 1.399 . S
C818 H804 0.929 1_556 S
C818 C817 1.399 . S
C818 C819 1.385 . S
C819 H805 0.931 . S
C819 C818 1.385 . S
C819 C820 1.389 . S
C820 C819 1.389 . S
C820 C821 1.387 . S
C821 H806 0.930 . S
C821 C816 1.390 . S
C821 C820 1.387 . S
H822 C834 0.930 . S
H823 C836 0.930 . S
H824 C837 0.930 . S
H825 C841 0.959 . S
H826 C841 0.959 . S
H827 C841 0.961 . S
H828 C842 0.960 . S
H829 C842 0.961 . S
H830 C842 0.959 . S
H831 C845 0.929 . S
H832 C846 0.931 . S
H833 C848 0.930 . S
C834 H822 0.930 . S
C834 C835 1.399 . S
C834 C839 1.399 . S
C835 C834 1.399 . S
C835 C836 1.376 1_655 S
C836 H823 0.930 . S
C836 C835 1.376 1_455 S
C836 C837 1.388 . S
C837 H824 0.930 . S
C837 C836 1.388 . S
C837 C838 1.390 . S
C838 C837 1.390 . S
C838 C839 1.394 1_455 S
C838 C844 1.465 . S
C839 C834 1.399 . S
C839 C838 1.394 1_655 S
C839 C840 1.516 . S
C840 C839 1.516 . S
C840 C841 1.502 . S
C840 C842 1.561 . S
C840 C843 1.526 . S
C841 H825 0.959 . S
C841 H826 0.959 . S
C841 H827 0.961 . S
C841 C840 1.502 . S
C842 H828 0.960 . S
C842 H829 0.961 . S
C842 H830 0.959 . S
C842 C840 1.561 . S
C843 C840 1.526 . S
C843 C844 1.396 1_655 S
C843 C848 1.390 . S
C844 C838 1.465 . S
C844 C843 1.396 1_455 S
C844 C845 1.399 . S
C845 H831 0.929 . S
C845 C844 1.399 . S
C845 C846 1.385 . S
C846 H832 0.931 . S
C846 C845 1.385 . S
C846 C847 1.389 . S
C847 C846 1.389 . S
C847 C848 1.387 1_455 S
C848 H833 0.930 . S
C848 C843 1.390 . S
C848 C847 1.387 1_655 S
H849 C861 0.930 . S
H850 C863 0.930 . S
H851 C864 0.930 . S
H852 C868 0.959 . S
H853 C868 0.959 . S
H854 C868 0.961 . S
H855 C869 0.960 . S
H856 C869 0.961 . S
H857 C869 0.959 . S
H858 C872 0.929 . S
H859 C873 0.931 . S
H860 C875 0.930 . S
C861 H849 0.930 . S
C861 C862 1.399 1_545 S
C861 C866 1.399 . S
C862 C861 1.399 1_565 S
C862 C863 1.376 . S
C863 H850 0.930 . S
C863 C862 1.376 . S
C863 C864 1.388 . S
C864 H851 0.930 . S
C864 C863 1.388 . S
C864 C865 1.390 . S
C865 C864 1.390 . S
C865 C866 1.394 1_565 S
C865 C871 1.465 1_565 S
C866 C861 1.399 . S
C866 C865 1.394 1_545 S
C866 C867 1.516 . S
C867 C866 1.516 . S
C867 C868 1.502 . S
C867 C869 1.561 . S
C867 C870 1.526 . S
C868 H852 0.959 . S
C868 H853 0.959 . S
C868 H854 0.961 . S
C868 C867 1.502 . S
C869 H855 0.960 . S
C869 H856 0.961 . S
C869 H857 0.959 . S
C869 C867 1.561 . S
C870 C867 1.526 . S
C870 C871 1.396 . S
C870 C875 1.390 . S
C871 C865 1.465 1_545 S
C871 C870 1.396 . S
C871 C872 1.399 1_545 S
C872 H858 0.929 . S
C872 C871 1.399 1_565 S
C872 C873 1.385 . S
C873 H859 0.931 . S
C873 C872 1.385 . S
C873 C874 1.389 1_565 S
C874 C873 1.389 1_545 S
C874 C875 1.387 . S
C875 H860 0.930 . S
C875 C870 1.390 . S
C875 C874 1.387 . S
H876 C888 0.930 . S
H877 C890 0.933 . S
H878 C891 0.930 . S
H879 C895 0.959 . S
H880 C895 0.959 . S
H881 C895 0.961 . S
H882 C896 0.960 . S
H883 C896 0.961 . S
H884 C896 0.959 . S
H885 C899 0.929 . S
H886 C900 0.931 . S
H887 C902 0.930 . S
C888 H876 0.930 . S
C888 C889 1.399 . S
C888 C893 1.399 1_554 S
C889 C888 1.399 . S
C889 C890 1.395 . S
C890 H877 0.933 . S
C890 C889 1.395 . S
C890 C891 1.368 1_554 S
C891 H878 0.930 . S
C891 C890 1.368 1_556 S
C891 C892 1.390 . S
C892 C891 1.390 . S
C892 C893 1.394 . S
C892 C898 1.465 . S
C893 C888 1.399 1_556 S
C893 C892 1.394 . S
C893 C894 1.516 . S
C894 C893 1.516 . S
C894 C895 1.502 1_556 S
C894 C896 1.561 . S
C894 C897 1.526 . S
C895 H879 0.959 . S
C895 H880 0.959 . S
C895 H881 0.961 . S
C895 C894 1.502 1_554 S
C896 H882 0.960 . S
C896 H883 0.961 . S
C896 H884 0.959 . S
C896 C894 1.561 . S
C897 C894 1.526 . S
C897 C898 1.396 . S
C897 C902 1.390 . S
C898 C892 1.465 . S
C898 C897 1.396 . S
C898 C899 1.399 . S
C899 H885 0.929 . S
C899 C898 1.399 . S
C899 C900 1.385 . S
C900 H886 0.931 . S
C900 C899 1.385 . S
C900 C901 1.389 . S
C901 C900 1.389 . S
C901 C902 1.387 . S
C902 H887 0.930 . S
C902 C897 1.390 . S
C902 C901 1.387 . S
H903 C915 0.930 . S
H904 C917 0.930 . S
H905 C918 0.930 . S
H906 C922 0.959 . S
H907 C922 0.959 . S
H908 C922 0.961 . S
H909 C923 0.960 . S
H910 C923 0.961 . S
H911 C923 0.959 . S
H912 C926 0.929 1_655 S
H913 C927 0.931 1_655 S
H914 C929 0.930 . S
C915 H903 0.930 . S
C915 C916 1.399 . S
C915 C920 1.399 . S
C916 C915 1.399 . S
C916 C917 1.376 . S
C917 H904 0.930 . S
C917 C916 1.376 . S
C917 C918 1.388 . S
C918 H905 0.930 . S
C918 C917 1.388 . S
C918 C919 1.390 . S
C919 C918 1.390 . S
C919 C920 1.394 . S
C919 C925 1.465 . S
C920 C915 1.399 . S
C920 C919 1.394 . S
C920 C921 1.516 . S
C921 C920 1.516 . S
C921 C922 1.502 . S
C921 C923 1.561 . S
C921 C924 1.526 . S
C922 H906 0.959 . S
C922 H907 0.959 . S
C922 H908 0.961 . S
C922 C921 1.502 . S
C923 H909 0.960 . S
C923 H910 0.961 . S
C923 H911 0.959 . S
C923 C921 1.561 . S
C924 C921 1.526 . S
C924 C925 1.396 . S
C924 C929 1.390 . S
C925 C919 1.465 . S
C925 C924 1.396 . S
C925 C926 1.399 . S
C926 H912 0.929 1_455 S
C926 C925 1.399 . S
C926 C927 1.385 . S
C927 H913 0.931 1_455 S
C927 C926 1.385 . S
C927 C928 1.389 . S
C928 C927 1.389 . S
C928 C929 1.387 . S
C929 H914 0.930 . S
C929 C924 1.390 . S
C929 C928 1.387 . S
C631 C319 1.097 . S
C619 C29 1.480 . S
C646 C137 1.470 . S
C658 C433 1.098 . S
C673 C225 1.204 . S
C685 C493 1.006 . S
C700 C49 1.295 . S
C712 C293 1.134 . S
C739 C407 1.200 . S
C727 C117 1.342 . S
C754 C205 1.379 . S
C766 C503 0.877 . S
C793 C389 0.706 . S
C781 C233 1.432 . S
C808 C57 1.298 . S
C820 C521 1.154 . S
C847 C265 1.026 1_455 S
C835 C108 1.198 . S
C874 C379 0.855 . S
C862 C196 1.258 1_565 S
C901 C547 1.099 . S
C889 C20 1.479 . S
C916 C145 1.395 . S
C928 C275 0.769 . S
