# Generated by pormake.
# Topology anh, (6,3)-cn, num edge types: 1
# Building blocks:
#     Node 0, Type 0, BuildingBlock: BETFEN_clean_sbu_0, # of connection points: 6
#     Node 1, Type 0, BuildingBlock: BETFEN_clean_sbu_0, # of connection points: 6
#     Node 2, Type 0, BuildingBlock: BETFEN_clean_sbu_0, # of connection points: 6
#     Node 3, Type 1, BuildingBlock: ESEHIV_clean_linker_0, # of connection points: 3
#     Node 4, Type 1, BuildingBlock: ESEHIV_clean_linker_0, # of connection points: 3
#     Node 5, Type 1, BuildingBlock: ESEHIV_clean_linker_0, # of connection points: 3
#     Node 6, Type 1, BuildingBlock: ESEHIV_clean_linker_0, # of connection points: 3
#     Node 7, Type 1, BuildingBlock: ESEHIV_clean_linker_0, # of connection points: 3
#     Node 8, Type 1, BuildingBlock: ESEHIV_clean_linker_0, # of connection points: 3
#     Edge 9, Type (0, 1), BuildingBlock: MIFKUJ_clean_linker_0, # of connection points: 2
#     Edge 10, Type (0, 1), BuildingBlock: MIFKUJ_clean_linker_0, # of connection points: 2
#     Edge 11, Type (0, 1), BuildingBlock: MIFKUJ_clean_linker_0, # of connection points: 2
#     Edge 12, Type (0, 1), BuildingBlock: MIFKUJ_clean_linker_0, # of connection points: 2
#     Edge 13, Type (0, 1), BuildingBlock: MIFKUJ_clean_linker_0, # of connection points: 2
#     Edge 14, Type (0, 1), BuildingBlock: MIFKUJ_clean_linker_0, # of connection points: 2
#     Edge 15, Type (0, 1), BuildingBlock: MIFKUJ_clean_linker_0, # of connection points: 2
#     Edge 16, Type (0, 1), BuildingBlock: MIFKUJ_clean_linker_0, # of connection points: 2
#     Edge 17, Type (0, 1), BuildingBlock: MIFKUJ_clean_linker_0, # of connection points: 2
#     Edge 18, Type (0, 1), BuildingBlock: MIFKUJ_clean_linker_0, # of connection points: 2
#     Edge 19, Type (0, 1), BuildingBlock: MIFKUJ_clean_linker_0, # of connection points: 2
#     Edge 20, Type (0, 1), BuildingBlock: MIFKUJ_clean_linker_0, # of connection points: 2
#     Edge 21, Type (0, 1), BuildingBlock: MIFKUJ_clean_linker_0, # of connection points: 2
#     Edge 22, Type (0, 1), BuildingBlock: MIFKUJ_clean_linker_0, # of connection points: 2
#     Edge 23, Type (0, 1), BuildingBlock: MIFKUJ_clean_linker_0, # of connection points: 2
#     Edge 24, Type (0, 1), BuildingBlock: MIFKUJ_clean_linker_0, # of connection points: 2
#     Edge 25, Type (0, 1), BuildingBlock: MIFKUJ_clean_linker_0, # of connection points: 2
#     Edge 26, Type (0, 1), BuildingBlock: MIFKUJ_clean_linker_0, # of connection points: 2
# Relax obj value: 0.182
# Max RMSD: 0.207
# Mean RMSD: 0.155
data_MOF--net-anh--node1-BETFEN_clean_sbu_0--node2-ESEHIV_clean_linker_0--edge1-MIFKUJ_clean_linker_0
_symmetry_space_group_name_H-M    P1
_symmetry_Int_Tables_number       1
_symmetry_cell_setting            triclinic
loop_
_symmetry_equiv_pos_as_xyz
'x, y, z'
_cell_length_a     36.203543
_cell_length_b     37.537948
_cell_length_c     67.944173
_cell_angle_alpha  90.449763
_cell_angle_beta   91.795431
_cell_angle_gamma 106.83955
loop_
_atom_site_label
_atom_site_type_symbol
_atom_site_fract_x
_atom_site_fract_y
_atom_site_fract_z
_atom_type_partial_charge
Pr0 Pr 0.04026 0.53771 0.14966 0.0
Pr1 Pr 0.06083 0.61929 0.14182 0.0
C2 C 1.01181 0.46797 0.16308 0.0
C3 C 0.97508 0.43945 0.16621 0.0
C4 C 0.97483 0.40222 0.16768 0.0
C5 C 0.94064 0.37463 0.17138 0.0
C6 C 0.90599 0.38381 0.1737 0.0
C7 C 0.90618 0.42118 0.17179 0.0
C8 C 0.94052 0.44882 0.1681 0.0
C9 C 0.05411 0.5548 0.11022 0.0
C10 C 0.9699 0.57677 0.13981 0.0
C11 C 0.09303 0.69057 0.13175 0.0
C12 C 0.12694 0.71988 0.13953 0.0
C13 C 0.14037 0.7186 0.15904 0.0
C14 C 0.17319 0.74573 0.16633 0.0
C15 C 0.1936 0.77453 0.15421 0.0
C16 C 0.18 0.77564 0.13464 0.0
C17 C 0.14693 0.74852 0.12737 0.0
C18 C 0.04971 0.60165 0.18141 0.0
C19 C 0.13174 0.57893 0.14808 0.0
O20 O 1.01997 0.49773 0.17443 0.0
O21 O 1.02135 0.47513 0.14483 0.0
O22 O 0.03464 0.56943 0.1211 0.0
O23 O 0.06594 0.5297 0.11938 0.0
O24 O 0.99618 0.604 0.13163 0.0
O25 O 0.9801 0.55087 0.14985 0.0
O26 O 0.10035 0.66251 0.12284 0.0
O27 O 0.064 0.68026 0.14347 0.0
O28 O 0.06869 0.58771 0.16998 0.0
O29 O 0.03633 0.62606 0.17266 0.0
O30 O 0.10652 0.55 0.15555 0.0
O31 O 0.12069 0.60654 0.14038 0.0
H32 H 1.00123 0.3945 0.16614 0.0
H33 H 0.94136 0.34606 0.17241 0.0
H34 H 0.88005 0.42919 0.17364 0.0
H35 H 0.94022 0.4775 0.16698 0.0
H36 H 0.1255 0.69651 0.16863 0.0
H37 H 0.18238 0.74426 0.18155 0.0
H38 H 0.19527 0.79706 0.12481 0.0
H39 H 0.13719 0.74971 0.11222 0.0
Pr40 Pr 0.58185 0.07952 0.51789 0.0
Pr41 Pr 0.49546 0.05634 0.52209 0.0
C42 C 0.6548 0.11076 0.50683 0.0
C43 C 0.68089 0.14794 0.50235 0.0
C44 C 0.70107 0.17238 0.51746 0.0
C45 C 0.72689 0.20674 0.51296 0.0
C46 C 0.73323 0.21732 0.49326 0.0
C47 C 0.71253 0.19311 0.4782 0.0
C48 C 0.68685 0.15876 0.48269 0.0
C49 C 0.55843 0.06836 0.55648 0.0
C50 C 0.537 0.14676 0.52217 0.0
C51 C 0.42124 1.02404 0.53088 0.0
C52 C 0.39298 0.98816 0.52555 0.0
C53 C 0.35332 0.98409 0.52606 0.0
C54 C 0.32649 0.95068 0.51972 0.0
C55 C 0.33896 0.92076 0.51279 0.0
C56 C 0.37885 0.92489 0.51272 0.0
C57 C 0.40553 0.95833 0.51888 0.0
C58 C 0.51822 0.06621 0.48327 0.0
C59 C 0.54194 0.98892 0.52059 0.0
O60 O 0.62596 0.09652 0.4943 0.0
O61 O 0.64566 0.10392 0.52518 0.0
O62 O 0.54422 0.08517 0.54369 0.0
O63 O 0.5871 0.05804 0.54985 0.0
O64 O 0.50742 0.12071 0.52913 0.0
O65 O 0.5663 0.13718 0.51469 0.0
O66 O 0.4505 1.02258 0.54234 0.0
O67 O 0.43138 0.04723 0.51643 0.0
O68 O 0.53284 0.04973 0.49612 0.0
O69 O 0.49017 0.07704 0.49014 0.0
O70 O 0.57347 1.0148 0.51551 0.0
O71 O 0.51036 0.99827 0.52489 0.0
H72 H 0.69739 0.16481 0.53278 0.0
H73 H 0.74267 0.22456 0.5249 0.0
H74 H 0.71626 0.2007 0.46289 0.0
H75 H 0.67185 0.14048 0.47075 0.0
H76 H 0.34313 1.00699 0.53098 0.0
H77 H 0.29605 0.94871 0.51973 0.0
H78 H 0.38956 0.90234 0.5078 0.0
H79 H 0.43601 0.96109 0.51815 0.0
Pr80 Pr 0.5381 0.53388 0.81725 0.0
Pr81 Pr 0.56324 0.61366 0.83336 0.0
C82 C 0.53409 0.46873 0.79977 0.0
C83 C 0.55397 0.44135 0.80575 0.0
C84 C 0.56389 0.43855 0.82573 0.0
C85 C 0.58145 0.41174 0.83173 0.0
C86 C 0.59011 0.3879 0.8178 0.0
C87 C 0.58215 0.39209 0.79769 0.0
C88 C 0.56403 0.41863 0.7917 0.0
C89 C 0.54131 0.54001 0.85815 0.0
C90 C 0.63298 0.57833 0.82464 0.0
C91 C 0.57119 0.67408 0.85664 0.0
C92 C 0.5451 0.69342 0.86474 0.0
C93 C 0.50513 0.67877 0.86162 0.0
C94 C 0.4803 0.69879 0.86753 0.0
C95 C 0.49517 0.73376 0.87691 0.0
C96 C 0.53515 0.74709 0.88129 0.0
C97 C 0.55997 0.72712 0.87513 0.0
C98 C 0.56184 0.608 0.79236 0.0
C99 C 0.46903 0.57068 0.82362 0.0
O100 O 0.55642 0.50031 0.79356 0.0
O101 O 0.50798 0.47286 0.81177 0.0
O102 O 0.56594 0.55902 0.84684 0.0
O103 O 0.51428 0.51521 0.84848 0.0
O104 O 0.62397 0.60456 0.83473 0.0
O105 O 0.60615 0.55142 0.81532 0.0
O106 O 0.5674 0.64079 0.86343 0.0
O107 O 0.57521 0.67596 0.83756 0.0
O108 O 0.53657 0.58849 0.8033 0.0
O109 O 0.58793 0.63349 0.8024 0.0
O110 O 0.47873 0.54597 0.81256 0.0
O111 O 0.49522 0.59547 0.83455 0.0
H112 H 0.55722 0.45652 0.83677 0.0
H113 H 0.5873 0.4089 0.84729 0.0
H114 H 0.58818 0.3736 0.78673 0.0
H115 H 0.55716 0.42087 0.77621 0.0
H116 H 0.49328 0.65235 0.8541 0.0
H117 H 0.44978 0.68779 0.86374 0.0
H118 H 0.54742 0.77372 0.88873 0.0
H119 H 0.5908 0.73851 0.87795 0.0
H120 H 0.50596 1.02336 0.27063 0.0
H121 H 0.61048 0.11436 0.27189 0.0
H122 H 0.55282 0.07233 0.21649 0.0
C123 C 0.52844 1.04334 0.26297 0.0
C124 C 0.52609 1.04452 0.24232 0.0
C125 C 0.55866 0.06852 0.27382 0.0
C126 C 0.58691 0.09496 0.26368 0.0
C127 C 0.58498 0.09672 0.24302 0.0
C128 C 0.55423 0.07158 0.23243 0.0
H129 H 0.54433 0.63075 0.57631 0.0
H130 H 0.54522 0.51701 0.58002 0.0
H131 H 0.53883 0.56573 0.52307 0.0
C132 C 0.54422 0.60484 0.56909 0.0
C133 C 0.54237 0.60274 0.54844 0.0
C134 C 0.54506 0.57419 0.58056 0.0
C135 C 0.54374 0.54042 0.57112 0.0
C136 C 0.541 0.53619 0.55045 0.0
C137 C 0.54094 0.56808 0.53899 0.0
H138 H 0.99764 0.57542 0.89784 0.0
H139 H 0.1168 0.5778 0.89572 0.0
H140 H 0.04959 0.57262 0.84183 0.0
C141 C 1.02262 0.5757 0.88937 0.0
C142 C 1.01931 0.57439 0.86867 0.0
C143 C 0.05747 0.5766 0.89927 0.0
C144 C 0.08947 0.57636 0.88824 0.0
C145 C 0.08679 0.57483 0.86759 0.0
C146 C 0.05153 0.57333 0.85778 0.0
H147 H 0.99093 0.52106 0.39264 0.0
H148 H 0.08809 0.619 0.39561 0.0
H149 H 0.03996 0.5674 0.4491 0.0
C150 C 1.01222 0.54193 0.4014 0.0
C151 C 1.01208 0.54061 0.42208 0.0
C152 C 0.0399 0.56981 0.39185 0.0
C153 C 0.06734 0.59698 0.40308 0.0
C154 C 0.06724 0.59677 0.42377 0.0
C155 C 0.03949 0.56842 0.43317 0.0
H156 H 0.49281 0.05244 0.75755 0.0
H157 H 0.39366 0.95597 0.75584 0.0
H158 H 0.43898 1.00998 0.81133 0.0
C159 C 0.47047 1.03229 0.76522 0.0
C160 C 0.46891 1.03477 0.78575 0.0
C161 C 0.44325 1.00428 0.75437 0.0
C162 C 0.41395 0.97841 0.76414 0.0
C163 C 0.41219 0.98033 0.78476 0.0
C164 C 0.43936 1.00902 0.79539 0.0
H165 H 0.48855 0.58628 0.07075 0.0
H166 H 0.60625 0.5832 0.07087 0.0
H167 H 0.5501 0.5835 0.12575 0.0
C168 C 0.51463 0.58529 0.07873 0.0
C169 C 0.5153 0.58491 0.09942 0.0
C170 C 0.54716 0.58452 0.06826 0.0
C171 C 0.58097 0.58415 0.07878 0.0
C172 C 0.58244 0.584 0.09944 0.0
C173 C 0.54918 0.58353 0.1098 0.0
H174 H 0.19101 0.63402 0.13348 0.0
H175 H 0.25735 0.6334 0.12897 0.0
H176 H 0.23277 0.5257 0.15578 0.0
H177 H 0.16596 0.52603 0.16046 0.0
H178 H 0.30606 0.5737 0.16733 0.0
H179 H 0.23217 0.52854 0.10799 0.0
H180 H 0.18675 0.52998 0.0804 0.0
H181 H 0.26397 0.63222 0.06071 0.0
H182 H 0.30956 0.63178 0.08842 0.0
H183 H 0.47378 0.53632 0.12616 0.0
H184 H 0.40973 0.53403 0.13814 0.0
H185 H 0.4139 0.63504 0.10721 0.0
H186 H 0.47712 0.63681 0.09499 0.0
H187 H 0.34877 0.58424 0.0984 0.0
H188 H 0.42135 0.63096 0.15867 0.0
H189 H 0.46605 0.63016 0.1867 0.0
H190 H 0.39162 0.52499 0.20457 0.0
H191 H 0.3467 0.52493 0.17648 0.0
C192 C 0.19964 0.61026 0.13861 0.0
C193 C 0.17294 0.57987 0.14716 0.0
C194 C 0.23765 0.60998 0.13599 0.0
C195 C 0.24987 0.57929 0.14179 0.0
C196 C 0.2239 0.54962 0.15115 0.0
C197 C 0.18569 0.54983 0.15376 0.0
C198 C 0.28908 0.57757 0.13696 0.0
C199 C 0.31534 0.57548 0.15225 0.0
C200 C 0.30123 0.58024 0.11729 0.0
C201 C 0.27416 0.58028 0.1004 0.0
C202 C 0.23936 0.55147 0.09786 0.0
C203 C 0.21358 0.5521 0.0822 0.0
C204 C 0.22243 0.58121 0.06883 0.0
C205 C 0.25714 0.6097 0.07109 0.0
C206 C 0.28297 0.60927 0.08677 0.0
C207 C 0.46126 0.5584 0.12235 0.0
C208 C 0.48023 0.58667 0.10963 0.0
C209 C 0.42468 0.55708 0.12915 0.0
C210 C 0.40683 0.58433 0.12354 0.0
C211 C 0.42681 0.61353 0.11162 0.0
C212 C 0.46301 0.61464 0.10472 0.0
C213 C 0.36642 0.58148 0.12882 0.0
C214 C 0.33968 0.5824 0.11352 0.0
C215 C 0.35396 0.5777 0.14846 0.0
C216 C 0.38089 0.57775 0.16536 0.0
C217 C 0.41467 0.60751 0.16849 0.0
C218 C 0.44002 0.60725 0.1844 0.0
C219 C 0.43174 0.57749 0.19737 0.0
C220 C 0.39803 0.54799 0.19449 0.0
C221 C 0.3726 0.5481 0.17859 0.0
H222 H 0.45139 0.57734 0.20969 0.0
H223 H 0.20243 0.58165 0.05672 0.0
H224 H 0.74748 0.28582 0.51146 0.0
H225 H 0.79628 0.3437 0.50336 0.0
H226 H 0.83275 0.28692 0.45557 0.0
H227 H 0.78525 0.2289 0.46404 0.0
H228 H 0.89365 0.33021 0.47618 0.0
H229 H 0.77326 0.34368 0.44792 0.0
H230 H 0.70582 0.34509 0.45016 0.0
H231 H 0.74147 0.43562 0.49217 0.0
H232 H 0.80912 0.43446 0.49033 0.0
H233 H 0.99032 0.46689 0.4117 0.0
H234 H 0.94379 0.41574 0.42743 0.0
H235 H 0.92443 0.49213 0.47092 0.0
H236 H 0.97032 0.54397 0.45479 0.0
H237 H 0.85688 0.44335 0.45778 0.0
H238 H 0.97782 0.43533 0.48335 0.0
H239 H 0.04526 0.43351 0.48238 0.0
H240 H 1.00932 0.33299 0.44728 0.0
H241 H 0.94169 0.33449 0.44779 0.0
C242 C 0.76614 0.28564 0.49934 0.0
C243 C 0.76232 0.25278 0.48833 0.0
C244 C 0.79379 0.31879 0.49463 0.0
C245 C 0.81794 0.31972 0.47873 0.0
C246 C 0.8144 0.28688 0.46787 0.0
C247 C 0.78692 0.2538 0.4726 0.0
C248 C 0.8469 0.35472 0.47315 0.0
C249 C 0.88557 0.35487 0.47202 0.0
C250 C 0.83661 0.38736 0.46845 0.0
C251 C 0.79616 0.38877 0.46912 0.0
C252 C 0.76668 0.3638 0.45768 0.0
C253 C 0.72843 0.36456 0.45888 0.0
C254 C 0.71936 0.39038 0.47133 0.0
C255 C 0.74855 0.41563 0.48254 0.0
C256 C 0.78685 0.41496 0.48141 0.0
C257 C 0.97594 0.47296 0.4245 0.0
C258 C 0.984 0.50956 0.43196 0.0
C259 C 0.94961 0.4436 0.43361 0.0
C260 C 0.93099 0.45002 0.45051 0.0
C261 C 0.93862 0.48654 0.45795 0.0
C262 C 0.96505 0.51605 0.44881 0.0
C263 C 0.90342 0.41836 0.46017 0.0
C264 C 0.86508 0.41888 0.46215 0.0
C265 C 0.91403 0.38633 0.46578 0.0
C266 C 0.95468 0.38518 0.4655 0.0
C267 C 0.98431 0.41298 0.4753 0.0
C268 C 1.02258 0.41198 0.47485 0.0
C269 C 0.03158 0.38319 0.46475 0.0
C270 C 1.0023 0.35529 0.4551 0.0
C271 C 0.96399 0.35617 0.45548 0.0
H272 H 0.06122 0.38247 0.46442 0.0
H273 H 0.68971 0.39083 0.4723 0.0
H274 H 0.41989 0.7162 0.88891 0.0
H275 H 0.37566 0.75453 0.88454 0.0
H276 H 0.46989 0.8444 0.86406 0.0
H277 H 0.51349 0.8071 0.86864 0.0
H278 H 0.42409 0.87291 0.88194 0.0
H279 H 0.40736 0.76842 0.83329 0.0
H280 H 0.38683 0.70161 0.82408 0.0
H281 H 0.27425 0.69079 0.84607 0.0
H282 H 0.29441 0.75742 0.85572 0.0
H283 H 0.40352 0.90683 0.77928 0.0
H284 H 0.38326 0.85927 0.80384 0.0
H285 H 0.34417 0.93529 0.84002 0.0
H286 H 0.36594 0.98381 0.81553 0.0
H287 H 0.33093 0.82024 0.82672 0.0
H288 H 0.37872 0.93377 0.88488 0.0
H289 H 0.41289 1.00091 0.88866 0.0
H290 H 0.48307 0.99403 0.83979 0.0
H291 H 0.44931 0.9269 0.83578 0.0
C292 C 0.43118 0.74453 0.88398 0.0
C293 C 0.47014 0.75852 0.87895 0.0
C294 C 0.40591 0.76637 0.8815 0.0
C295 C 0.41923 0.80218 0.87367 0.0
C296 C 0.45876 0.817 0.87025 0.0
C297 C 0.48389 0.79553 0.87291 0.0
C298 C 0.39264 0.82288 0.86609 0.0
C299 C 0.40267 0.86122 0.87029 0.0
C300 C 0.36437 0.80768 0.85101 0.0
C301 C 0.35252 0.76764 0.84547 0.0
C302 C 0.37833 0.75167 0.83628 0.0
C303 C 0.36677 0.71387 0.83099 0.0
C304 C 0.32928 0.69194 0.83454 0.0
C305 C 0.3033 0.70778 0.84339 0.0
C306 C 0.31481 0.74551 0.84883 0.0
C307 C 0.38902 0.91299 0.79202 0.0
C308 C 0.38712 0.94921 0.79575 0.0
C309 C 0.37729 0.88564 0.80612 0.0
C310 C 0.36326 0.89404 0.8241 0.0
C311 C 0.35577 0.92849 0.82647 0.0
C312 C 0.36817 0.95615 0.81248 0.0
C313 C 0.36577 0.87051 0.84125 0.0
C314 C 0.35042 0.83172 0.83916 0.0
C315 C 0.39098 0.88536 0.8576 0.0
C316 C 0.41122 0.92561 0.85991 0.0
C317 C 0.40141 0.94668 0.87496 0.0
C318 C 0.42069 0.98469 0.87713 0.0
C319 C 0.45002 1.00176 0.86442 0.0
C320 C 0.46026 0.98082 0.84957 0.0
C321 C 0.44107 0.94284 0.84734 0.0
H322 H 0.46489 1.03117 0.86611 0.0
H323 H 0.3203 0.66273 0.83037 0.0
H324 H 0.93928 0.62805 0.12266 0.0
H325 H 0.87162 0.62711 0.12016 0.0
H326 H 0.83884 0.52223 0.15002 0.0
H327 H 0.90668 0.52283 0.15253 0.0
H328 H 0.79084 0.52289 0.11781 0.0
H329 H 0.83993 0.60008 0.17464 0.0
H330 H 0.88541 0.65147 0.19359 0.0
H331 H 0.86034 0.73071 0.15402 0.0
H332 H 0.81512 0.67974 0.13465 0.0
H333 H 0.59761 0.53298 0.12468 0.0
H334 H 0.66174 0.52982 0.13622 0.0
H335 H 0.71474 0.63359 0.10777 0.0
H336 H 0.65106 0.63665 0.09626 0.0
H337 H 0.75034 0.62944 0.14346 0.0
H338 H 0.70881 0.55385 0.08463 0.0
H339 H 0.66464 0.50378 0.06427 0.0
H340 H 0.67651 0.42292 0.10651 0.0
H341 H 0.7204 0.47266 0.12725 0.0
C342 C 0.91778 0.6047 0.12869 0.0
C343 C 0.92855 0.57558 0.13788 0.0
C344 C 0.87905 0.60431 0.12733 0.0
C345 C 0.85015 0.57485 0.13514 0.0
C346 C 0.86064 0.54533 0.14397 0.0
C347 C 0.89948 0.54577 0.14542 0.0
C348 C 0.80908 0.57504 0.13393 0.0
C349 C 0.78181 0.5458 0.12379 0.0
C350 C 0.79738 0.60526 0.14139 0.0
C351 C 0.82433 0.63604 0.1531 0.0
C352 C 0.84431 0.62844 0.16989 0.0
C353 C 0.87002 0.6575 0.18073 0.0
C354 C 0.87582 0.69433 0.17499 0.0
C355 C 0.85584 0.70217 0.15844 0.0
C356 C 0.83013 0.67321 0.14754 0.0
C357 C 0.62297 0.55548 0.12137 0.0
C358 C 0.61956 0.58506 0.10962 0.0
C359 C 0.65954 0.55355 0.1278 0.0
C360 C 0.69309 0.58129 0.12266 0.0
C361 C 0.68935 0.61189 0.11192 0.0
C362 C 0.65299 0.61362 0.10535 0.0
C363 C 0.73227 0.57755 0.12715 0.0
C364 C 0.75922 0.60619 0.13782 0.0
C365 C 0.74375 0.54693 0.12005 0.0
C366 C 0.71747 0.517 0.1076 0.0
C367 C 0.70173 0.52543 0.08965 0.0
C368 C 0.6768 0.49711 0.07803 0.0
C369 C 0.66767 0.46021 0.08413 0.0
C370 C 0.68354 0.45154 0.10183 0.0
C371 C 0.70845 0.47977 0.11352 0.0
H372 H 0.64837 0.43831 0.07511 0.0
H373 H 0.89574 0.71679 0.1834 0.0
H374 H 0.26771 0.88418 0.52682 0.0
H375 H 0.22102 0.82785 0.51324 0.0
H376 H 0.30008 0.8213 0.46808 0.0
H377 H 0.34593 0.87847 0.48089 0.0
H378 H 0.23084 0.80934 0.45245 0.0
H379 H 0.28481 0.76327 0.50875 0.0
H380 H 0.30343 0.76067 0.54381 0.0
H381 H 0.18479 0.73738 0.55926 0.0
H382 H 0.1655 0.74035 0.52429 0.0
H383 H 0.1442 0.62652 0.41734 0.0
H384 H 0.18967 0.6797 0.43433 0.0
H385 H 0.10087 0.68773 0.4735 0.0
H386 H 0.05494 0.63465 0.45642 0.0
H387 H 0.17274 0.69886 0.4928 0.0
H388 H 0.11969 0.74409 0.43568 0.0
H389 H 0.10238 0.74522 0.40035 0.0
H390 H 0.2218 0.76904 0.38628 0.0
H391 H 0.23977 0.76749 0.42153 0.0
C392 C 0.27505 0.87093 0.5139 0.0
C393 C 0.31072 0.88587 0.50502 0.0
C394 C 0.24849 0.83844 0.50629 0.0
C395 C 0.25722 0.82001 0.48978 0.0
C396 C 0.29273 0.83491 0.48088 0.0
C397 C 0.31913 0.86745 0.48837 0.0
C398 C 0.22908 0.78578 0.48135 0.0
C399 C 0.21857 0.78505 0.46125 0.0
C400 C 0.21227 0.75433 0.4929 0.0
C401 C 0.22377 0.75242 0.51392 0.0
C402 C 0.26273 0.75789 0.51964 0.0
C403 C 0.27339 0.75629 0.53949 0.0
C404 C 0.24532 0.74897 0.55376 0.0
C405 C 0.20651 0.74312 0.54819 0.0
C406 C 0.19569 0.74472 0.52836 0.0
C407 C 0.1343 0.63957 0.42957 0.0
C408 C 0.0958 0.62665 0.43536 0.0
C409 C 0.16037 0.66987 0.4393 0.0
C410 C 0.14846 0.68799 0.45498 0.0
C411 C 0.1106 0.67415 0.46142 0.0
C412 C 0.08443 0.64379 0.45167 0.0
C413 C 0.17507 0.72244 0.46393 0.0
C414 C 0.1851 0.72324 0.48407 0.0
C415 C 0.19172 0.75392 0.45242 0.0
C416 C 0.18103 0.75535 0.43123 0.0
C417 C 0.14223 0.74932 0.42504 0.0
C418 C 0.1323 0.75006 0.40503 0.0
C419 C 0.16096 0.75711 0.39107 0.0
C420 C 0.19963 0.76354 0.39711 0.0
C421 C 0.2097 0.76276 0.4171 0.0
H422 H 0.15322 0.75767 0.37559 0.0
H423 H 0.25364 0.74774 0.56912 0.0
H424 H 0.65298 0.36641 0.80722 0.0
H425 H 0.66123 0.30424 0.81151 0.0
H426 H 0.5587 0.27294 0.84582 0.0
H427 H 0.55197 0.33524 0.84255 0.0
H428 H 0.60138 0.23061 0.85582 0.0
H429 H 0.55519 0.2699 0.79292 0.0
H430 H 0.56333 0.30963 0.76365 0.0
H431 H 0.66431 0.27821 0.74903 0.0
H432 H 0.65686 0.23853 0.77834 0.0
H433 H 0.45756 0.0787 0.81583 0.0
H434 H 0.50425 0.13407 0.83011 0.0
H435 H 0.59354 0.11301 0.79524 0.0
H436 H 0.54687 0.05742 0.78091 0.0
H437 H 0.58339 0.1786 0.78769 0.0
H438 H 0.6041 0.11701 0.84546 0.0
H439 H 0.58606 0.07536 0.87366 0.0
H440 H 0.52383 0.14623 0.89759 0.0
H441 H 0.54088 0.18799 0.86939 0.0
C442 C 0.63322 0.34653 0.81629 0.0
C443 C 0.60146 0.35508 0.82426 0.0
C444 C 0.63789 0.31111 0.81875 0.0
C445 C 0.60981 0.28351 0.82841 0.0
C446 C 0.58065 0.29357 0.83821 0.0
C447 C 0.57664 0.32917 0.83623 0.0
C448 C 0.60525 0.24336 0.82496 0.0
C449 C 0.59785 0.21908 0.84096 0.0
C450 C 0.60149 0.22825 0.80557 0.0
C451 C 0.60577 0.25171 0.78788 0.0
C452 C 0.57917 0.27159 0.78347 0.0
C453 C 0.58367 0.29409 0.7669 0.0
C454 C 0.6144 0.29654 0.75453 0.0
C455 C 0.64059 0.27637 0.75866 0.0
C456 C 0.63626 0.25388 0.77524 0.0
C457 C 0.48739 0.08521 0.81166 0.0
C458 C 0.49841 0.06427 0.79694 0.0
C459 C 0.51417 0.11675 0.81994 0.0
C460 C 0.55245 0.12763 0.81377 0.0
C461 C 0.56416 0.10509 0.8002 0.0
C462 C 0.53739 0.07361 0.79189 0.0
C463 C 0.57742 0.16574 0.8185 0.0
C464 C 0.58864 0.1897 0.80265 0.0
C465 C 0.5836 0.18031 0.83798 0.0
C466 C 0.57381 0.15569 0.85524 0.0
C467 C 0.58643 0.12366 0.85668 0.0
C468 C 0.57636 0.10001 0.87268 0.0
C469 C 0.5538 0.10814 0.8874 0.0
C470 C 0.54135 0.14 0.88619 0.0
C471 C 0.5513 0.16373 0.87021 0.0
H472 H 0.54599 0.08976 0.89976 0.0
H473 H 0.61786 0.31399 0.74171 0.0
H474 H 0.4807 0.9264 0.52693 0.0
H475 H 0.48022 0.86134 0.52866 0.0
H476 H 0.60254 0.89341 0.51919 0.0
H477 H 0.60276 0.9586 0.51663 0.0
H478 H 0.57409 0.83187 0.50037 0.0
H479 H 0.55768 0.8664 0.56672 0.0
H480 H 0.52788 0.89137 0.5937 0.0
H481 H 0.42012 0.80772 0.58137 0.0
H482 H 0.44916 0.78252 0.55415 0.0
H483 H 0.60267 0.65955 0.5354 0.0
H484 H 0.60259 0.72364 0.52845 0.0
H485 H 0.47912 0.69169 0.534 0.0
H486 H 0.4795 0.62779 0.54117 0.0
H487 H 0.50857 0.753 0.55448 0.0
H488 H 0.52745 0.71781 0.48824 0.0
H489 H 0.55935 0.69327 0.462 0.0
H490 H 0.66539 0.77869 0.47527 0.0
H491 H 0.63424 0.80347 0.50177 0.0
C492 C 0.5076 0.91984 0.52514 0.0
C493 C 0.54178 0.94846 0.52165 0.0
C494 C 0.50738 0.88221 0.52633 0.0
C495 C 0.54151 0.87157 0.52451 0.0
C496 C 0.57561 0.90012 0.52075 0.0
C497 C 0.57575 0.93776 0.51934 0.0
C498 C 0.54162 0.83107 0.52646 0.0
C499 C 0.56013 0.81496 0.51241 0.0
C500 C 0.523 0.80786 0.54187 0.0
C501 C 0.5055 0.8228 0.55828 0.0
C502 C 0.52756 0.85348 0.56969 0.0
C503 C 0.51082 0.86765 0.58503 0.0
C504 C 0.47211 0.8512 0.58921 0.0
C505 C 0.45009 0.82046 0.57809 0.0
C506 C 0.46668 0.8062 0.56272 0.0
C507 C 0.5753 0.66579 0.53425 0.0
C508 C 0.5409 0.63781 0.53808 0.0
C509 C 0.57525 0.7028 0.53046 0.0
C510 C 0.54077 0.7133 0.53049 0.0
C511 C 0.50626 0.68499 0.53378 0.0
C512 C 0.50635 0.64804 0.53754 0.0
C513 C 0.54082 0.75377 0.52833 0.0
C514 C 0.52243 0.7699 0.54241 0.0
C515 C 0.55987 0.77704 0.51307 0.0
C516 C 0.5786 0.76227 0.49711 0.0
C517 C 0.55765 0.7312 0.48566 0.0
C518 C 0.57558 0.71727 0.47072 0.0
C519 C 0.6144 0.73435 0.467 0.0
C520 C 0.63534 0.76546 0.47819 0.0
C521 C 0.61755 0.77948 0.49315 0.0
H522 H 0.62823 0.72353 0.45543 0.0
H523 H 0.4592 0.86222 0.60109 0.0
H524 H 0.66382 0.53057 0.8045 0.0
H525 H 0.73075 0.52835 0.80597 0.0
H526 H 0.76126 0.62197 0.84664 0.0
H527 H 0.69489 0.62498 0.84488 0.0
H528 H 0.81551 0.62916 0.82028 0.0
H529 H 0.74301 0.52918 0.86168 0.0
H530 H 0.69005 0.47196 0.86697 0.0
H531 H 0.73407 0.41437 0.82275 0.0
H532 H 0.78708 0.47143 0.81704 0.0
H533 H 0.97655 0.62095 0.87703 0.0
H534 H 0.91279 0.61921 0.86368 0.0
H535 H 0.91368 0.52801 0.82486 0.0
H536 H 0.9779 0.52931 0.83854 0.0
H537 H 0.84478 0.515 0.84358 0.0
H538 H 0.92276 0.61189 0.8057 0.0
H539 H 0.97459 0.66925 0.79923 0.0
H540 H 0.91998 0.73238 0.83523 0.0
H541 H 0.86809 0.6753 0.84217 0.0
C542 C 0.68483 0.55087 0.81365 0.0
C543 C 0.67386 0.57789 0.82464 0.0
C544 C 0.72309 0.54944 0.81454 0.0
C545 C 0.75103 0.57467 0.82663 0.0
C546 C 0.74029 0.60218 0.8372 0.0
C547 C 0.7022 0.6038 0.83622 0.0
C548 C 0.7913 0.57225 0.8288 0.0
C549 C 0.82189 0.60425 0.82548 0.0
C550 C 0.79975 0.5393 0.83483 0.0
C551 C 0.76878 0.50465 0.8388 0.0
C552 C 0.74133 0.50433 0.85305 0.0
C553 C 0.71131 0.47194 0.85612 0.0
C554 C 0.70863 0.43958 0.84516 0.0
C555 C 0.73616 0.43947 0.83121 0.0
C556 C 0.76622 0.47182 0.82807 0.0
C557 C 0.96331 0.6006 0.86558 0.0
C558 C 0.9822 0.57517 0.85889 0.0
C559 C 0.92691 0.59978 0.85786 0.0
C560 C 0.90846 0.57366 0.84315 0.0
C561 C 0.9274 0.54846 0.83617 0.0
C562 C 0.96415 0.54941 0.84387 0.0
C563 C 0.86892 0.57241 0.83576 0.0
C564 C 0.83847 0.53973 0.83807 0.0
C565 C 0.86053 0.60471 0.82871 0.0
C566 C 0.89161 0.63922 0.82454 0.0
C567 C 0.92193 0.63795 0.81235 0.0
C568 C 0.95131 0.67043 0.80858 0.0
C569 C 0.95061 0.70442 0.81684 0.0
C570 C 0.92048 0.70602 0.82885 0.0
C571 C 0.89104 0.67361 0.83268 0.0
H572 H 0.97339 0.72954 0.8139 0.0
H573 H 0.68526 0.41458 0.84749 0.0
H574 H 0.21692 0.84958 0.14709 0.0
H575 H 0.27447 0.89626 0.16053 0.0
H576 H 0.30735 0.81111 0.1928 0.0
H577 H 0.25055 0.76414 0.17908 0.0
H578 H 0.31133 0.87297 0.21581 0.0
H579 H 0.35405 0.84534 0.15264 0.0
H580 H 0.35046 0.83832 0.11646 0.0
H581 H 0.3562 0.95364 0.11079 0.0
H582 H 0.35928 0.96122 0.14698 0.0
H583 H 0.50061 0.96951 0.24717 0.0
H584 H 0.44515 0.92491 0.23071 0.0
H585 H 0.42322 1.0133 0.19634 0.0
H586 H 0.47936 0.05804 0.21258 0.0
H587 H 0.41218 0.95184 0.17414 0.0
H588 H 0.37111 0.9804 0.23711 0.0
H589 H 0.37517 0.988 0.27328 0.0
H590 H 0.36522 0.87188 0.27943 0.0
H591 H 0.36176 0.86369 0.24328 0.0
C592 C 0.23664 0.84065 0.15682 0.0
C593 C 0.22896 0.80304 0.16202 0.0
C594 C 0.26946 0.86742 0.16455 0.0
C595 C 0.29522 0.85712 0.17762 0.0
C596 C 0.28772 0.81967 0.18282 0.0
C597 C 0.25509 0.79289 0.17502 0.0
C598 C 0.32974 0.88539 0.18617 0.0
C599 C 0.33361 0.88993 0.20672 0.0
C600 C 0.35822 0.90821 0.17427 0.0
C601 C 0.35647 0.90374 0.15252 0.0
C602 C 0.35421 0.86912 0.14368 0.0
C603 C 0.35233 0.86506 0.12317 0.0
C604 C 0.35298 0.89549 0.11134 0.0
C605 C 0.35563 0.93008 0.11998 0.0
C606 C 0.35747 0.93428 0.14049 0.0
C607 C 0.48399 0.97941 0.23608 0.0
C608 C 0.49401 1.01729 0.23129 0.0
C609 C 0.45228 0.95393 0.2267 0.0
C610 C 0.4295 0.96588 0.21259 0.0
C611 C 0.44027 1.00348 0.20725 0.0
C612 C 0.47232 1.02899 0.21651 0.0
C613 C 0.394 0.93919 0.20382 0.0
C614 C 0.38985 0.935 0.18324 0.0
C615 C 0.36509 0.91679 0.2157 0.0
C616 C 0.36649 0.9215 0.23747 0.0
C617 C 0.37002 0.95653 0.24617 0.0
C618 C 0.3722 0.96094 0.26667 0.0
C619 C 0.37054 0.93046 0.27864 0.0
C620 C 0.36655 0.89547 0.27013 0.0
C621 C 0.36444 0.89092 0.24964 0.0
H622 H 0.37226 0.93393 0.2945 0.0
H623 H 0.35154 0.89229 0.09546 0.0
H624 H 0.58567 0.20699 0.50365 0.0
H625 H 0.58649 0.2724 0.50476 0.0
H626 H 0.492 0.24528 0.54438 0.0
H627 H 0.49001 0.17958 0.54254 0.0
H628 H 0.47899 0.29284 0.52128 0.0
H629 H 0.59732 0.29391 0.5573 0.0
H630 H 0.66084 0.2824 0.5613 0.0
H631 H 0.70213 0.35189 0.51203 0.0
H632 H 0.63871 0.36359 0.50763 0.0
H633 H 0.49088 0.47033 0.56127 0.0
H634 H 0.49148 0.40706 0.55377 0.0
H635 H 0.58342 0.44888 0.51367 0.0
H636 H 0.5838 0.51323 0.5219 0.0
H637 H 0.5996 0.39546 0.53345 0.0
H638 H 0.485 0.39852 0.49841 0.0
H639 H 0.4218 0.40998 0.49291 0.0
H640 H 0.3737 0.33252 0.53805 0.0
H641 H 0.43676 0.32094 0.54401 0.0
C642 C 0.56502 0.21483 0.51265 0.0
C643 C 0.53781 0.18741 0.52303 0.0
C644 C 0.56573 0.25271 0.51343 0.0
C645 C 0.53986 0.26495 0.52502 0.0
C646 C 0.51252 0.23741 0.5353 0.0
C647 C 0.51143 0.19947 0.53428 0.0
C648 C 0.54048 0.30584 0.52626 0.0
C649 C 0.50546 0.31504 0.52424 0.0
C650 C 0.57491 0.33591 0.52924 0.0
C651 C 0.61317 0.32934 0.53204 0.0
C652 C 0.6199 0.30661 0.54728 0.0
C653 C 0.65588 0.30008 0.54961 0.0
C654 C 0.68546 0.31635 0.5369 0.0
C655 C 0.67917 0.3393 0.52186 0.0
C656 C 0.64323 0.34594 0.51945 0.0
C657 C 0.51092 0.46628 0.55056 0.0
C658 C 0.5371 0.49745 0.54214 0.0
C659 C 0.51114 0.42964 0.54618 0.0
C660 C 0.53714 0.42216 0.53286 0.0
C661 C 0.56284 0.45321 0.52397 0.0
C662 C 0.56272 0.49024 0.52847 0.0
C663 C 0.53793 0.38222 0.52901 0.0
C664 C 0.57316 0.37324 0.53047 0.0
C665 C 0.50374 0.3523 0.52532 0.0
C666 C 0.46572 0.35909 0.52176 0.0
C667 C 0.46102 0.38411 0.50726 0.0
C668 C 0.4252 0.3906 0.50404 0.0
C669 C 0.39378 0.37205 0.51515 0.0
C670 C 0.39807 0.34689 0.52947 0.0
C671 C 0.43384 0.34032 0.53275 0.0
H672 H 0.36607 0.37711 0.51264 0.0
H673 H 0.71328 0.31125 0.53875 0.0
H674 H 0.40317 0.51298 0.81614 0.0
H675 H 0.33612 0.51362 0.81989 0.0
H676 H 0.37614 0.63042 0.83566 0.0
H677 H 0.4426 0.62987 0.83184 0.0
H678 H 0.32596 0.59467 0.86107 0.0
H679 H 0.33055 0.5985 0.7905 0.0
H680 H 0.34169 0.57688 0.75744 0.0
H681 H 0.25544 0.47272 0.76589 0.0
H682 H 0.24415 0.49354 0.79911 0.0
H683 H 0.14905 0.6345 0.86305 0.0
H684 H 0.2123 0.63436 0.85126 0.0
H685 H 0.16781 0.51686 0.83771 0.0
H686 H 0.10409 0.51739 0.849 0.0
H687 H 0.21942 0.55135 0.81086 0.0
H688 H 0.2135 0.5493 0.88135 0.0
H689 H 0.20197 0.57229 0.91401 0.0
H690 H 0.29227 0.67381 0.90595 0.0
H691 H 0.30399 0.65168 0.87315 0.0
C692 C 0.39755 0.53885 0.82017 0.0
C693 C 0.42826 0.57122 0.82406 0.0
C694 C 0.35922 0.53922 0.82229 0.0
C695 C 0.35096 0.57211 0.82807 0.0
C696 C 0.38165 0.60463 0.83136 0.0
C697 C 0.41977 0.60421 0.82931 0.0
C698 C 0.31068 0.57259 0.83161 0.0
C699 C 0.30281 0.58565 0.84997 0.0
C700 C 0.28016 0.55995 0.81735 0.0
C701 C 0.2868 0.54743 0.79736 0.0
C702 C 0.31418 0.57087 0.78536 0.0
C703 C 0.32048 0.55878 0.76659 0.0
C704 C 0.29937 0.52341 0.75959 0.0
C705 C 0.27182 0.50009 0.77134 0.0
C706 C 0.26543 0.51203 0.79013 0.0
C707 C 0.15261 0.60896 0.857 0.0
C708 C 0.1219 0.576 0.85678 0.0
C709 C 0.18876 0.60879 0.85042 0.0
C710 C 0.19509 0.57542 0.84399 0.0
C711 C 0.16369 0.5429 0.84266 0.0
C712 C 0.12732 0.54319 0.84905 0.0
C713 C 0.23493 0.57391 0.84021 0.0
C714 C 0.24264 0.56045 0.82191 0.0
C715 C 0.26544 0.58625 0.85454 0.0
C716 C 0.25911 0.59911 0.87457 0.0
C717 C 0.23069 0.57666 0.88645 0.0
C718 C 0.22415 0.58951 0.90502 0.0
C719 C 0.24622 0.62457 0.912 0.0
C720 C 0.27506 0.64673 0.90049 0.0
C721 C 0.28163 0.63406 0.8819 0.0
H722 H 0.24106 0.63453 0.92634 0.0
H723 H 0.30429 0.5141 0.74505 0.0
H724 H 0.83209 0.37379 0.15889 0.0
H725 H 0.77364 0.32464 0.16701 0.0
H726 H 0.84071 0.27869 0.20774 0.0
H727 H 0.89892 0.32756 0.19979 0.0
H728 H 0.79308 0.22505 0.18499 0.0
H729 H 0.78333 0.33113 0.22343 0.0
H730 H 0.78008 0.39538 0.22802 0.0
H731 H 0.67846 0.37117 0.19008 0.0
H732 H 0.6814 0.30687 0.18507 0.0
H733 H 0.66287 0.11483 0.24989 0.0
H734 H 0.71308 0.16287 0.23415 0.0
H735 H 0.6267 0.1897 0.19677 0.0
H736 H 0.57597 0.14195 0.21286 0.0
H737 H 0.67868 0.2521 0.21267 0.0
H738 H 0.68394 0.14388 0.1774 0.0
H739 H 0.68679 0.07948 0.173 0.0
H740 H 0.79633 0.10737 0.20452 0.0
H741 H 0.7939 0.17183 0.20936 0.0
C742 C 0.83427 0.35336 0.16968 0.0
C743 C 0.87019 0.35449 0.17864 0.0
C744 C 0.80088 0.32527 0.17428 0.0
C745 C 0.8028 0.29805 0.18803 0.0
C746 C 0.83859 0.29923 0.19698 0.0
C747 C 0.87188 0.32715 0.19238 0.0
C748 C 0.76778 0.2681 0.19323 0.0
C749 C 0.76816 0.23097 0.19116 0.0
C750 C 0.7347 0.27577 0.20062 0.0
C751 C 0.73285 0.31435 0.20369 0.0
C752 C 0.76047 0.3396 0.21594 0.0
C753 C 0.75866 0.37601 0.21864 0.0
C754 C 0.72916 0.38739 0.2093 0.0
C755 C 0.70134 0.36234 0.19728 0.0
C756 C 0.70305 0.32591 0.19451 0.0
C757 C 0.65451 0.131 0.23835 0.0
C758 C 0.61546 0.12469 0.23265 0.0
C759 C 0.68327 0.15823 0.22924 0.0
C760 C 0.67367 0.17963 0.21415 0.0
C761 C 0.63472 0.17339 0.20834 0.0
C762 C 0.60584 0.14596 0.21743 0.0
C763 C 0.70453 0.20914 0.20497 0.0
C764 C 0.70334 0.24614 0.20623 0.0
C765 C 0.73689 0.20139 0.1968 0.0
C766 C 0.7386 0.16266 0.19385 0.0
C767 C 0.70852 0.13623 0.18352 0.0
C768 C 0.71007 0.09971 0.18093 0.0
C769 C 0.74169 0.08933 0.1885 0.0
C770 C 0.77185 0.11546 0.19866 0.0
C771 C 0.77042 0.152 0.20131 0.0
H772 H 0.74284 0.06104 0.18648 0.0
H773 H 0.7278 0.41559 0.21141 0.0
H774 H 1.02852 0.60393 0.0881 0.0
H775 H 0.03308 0.61254 0.05245 0.0
H776 H 0.09344 0.52913 0.04874 0.0
H777 H 0.08973 0.52107 0.08437 0.0
H778 H 0.12477 0.58536 0.02531 0.0
H779 H 0.99607 0.50856 0.03723 0.0
H780 H 0.93252 0.49275 0.05245 0.0
H781 H 0.91039 0.58931 0.02712 0.0
H782 H 0.97407 0.60598 0.01196 0.0
H783 H 0.09115 0.53632 0.92359 0.0
H784 H 0.0941 0.53713 0.9596 0.0
H785 H 0.03351 0.62061 0.96036 0.0
H786 H 0.03016 0.61963 0.92434 0.0
H787 H 1.00342 0.56749 0.98541 0.0
H788 H 0.1318 0.64124 0.97127 0.0
H789 H 0.195 0.65485 0.95581 0.0
H790 H 0.21779 0.56207 0.98506 0.0
H791 H 0.15443 0.54747 0.00042 0.0
C792 C 0.04293 0.58757 0.07966 0.0
C793 C 0.05834 0.56148 0.08892 0.0
C794 C 0.04542 0.59244 0.05931 0.0
C795 C 0.06301 0.57099 0.04786 0.0
C796 C 0.0796 0.54587 0.05724 0.0
C797 C 0.07729 0.54113 0.07759 0.0
C798 C 0.06297 0.5737 0.02606 0.0
C799 C 0.09822 0.58114 0.01655 0.0
C800 C 1.02841 0.56885 0.01466 0.0
C801 C 0.98999 0.55872 0.02364 0.0
C802 C 0.97776 0.52656 0.03502 0.0
C803 C 0.94171 0.51743 0.04362 0.0
C804 C 0.91748 0.54007 0.0408 0.0
C805 C 0.92921 0.57184 0.02932 0.0
C806 C 0.96527 0.58112 0.02071 0.0
C807 C 0.07884 0.55515 0.93144 0.0
C808 C 0.06039 0.5779 0.92114 0.0
C809 C 0.08059 0.55561 0.95203 0.0
C810 C 0.06441 0.57924 0.96271 0.0
C811 C 0.04617 0.60212 0.95244 0.0
C812 C 0.04417 0.60149 0.93186 0.0
C813 C 0.06523 0.57912 0.98459 0.0
C814 C 0.03006 0.57205 0.99413 0.0
C815 C 0.09987 0.5841 -0.00403 0.0
C816 C 0.13817 0.59307 0.98687 0.0
C817 C 0.15014 0.62356 0.97429 0.0
C818 C 0.18602 0.63147 0.96555 0.0
C819 C 0.21036 0.60929 0.96942 0.0
C820 C 0.19889 0.57919 0.98206 0.0
C821 C 0.16301 0.5711 0.99079 0.0
H822 H 0.23815 0.61548 0.96268 0.0
H823 H 0.88958 0.53296 0.04748 0.0
H824 H 0.57137 1.03932 0.465 0.0
H825 H 0.58301 1.03931 0.42958 0.0
H826 H 0.49652 0.09601 0.41879 0.0
H827 H 0.48464 0.09585 0.45395 0.0
H828 H 0.48628 1.03798 0.39388 0.0
H829 H 0.59256 0.14215 0.41722 0.0
H830 H 0.65105 0.17353 0.43733 0.0
H831 H 0.70968 0.09931 0.4136 0.0
H832 H 0.6514 0.06725 0.3935 0.0
H833 H 0.57807 0.12778 0.2998 0.0
H834 H 0.57682 0.12632 0.33573 0.0
H835 H 0.54027 1.00632 0.33341 0.0
H836 H 0.54235 1.00741 0.29747 0.0
H837 H 0.61356 0.09468 0.36478 0.0
H838 H 0.46981 0.97864 0.36761 0.0
H839 H 0.41173 0.95091 0.34642 0.0
H840 H 0.42717 0.05527 0.31751 0.0
H841 H 0.48495 0.08372 0.33871 0.0
C842 C 0.55503 0.05192 0.45504 0.0
C843 C 0.52699 0.06744 0.46218 0.0
C844 C 0.56176 0.05199 0.43484 0.0
C845 C 0.54064 0.0677 0.42155 0.0
C846 C 0.513 0.08358 0.42876 0.0
C847 C 0.50632 0.08356 0.44887 0.0
C848 C 0.54633 0.06696 0.40003 0.0
C849 C 0.51419 0.05024 0.38756 0.0
C850 C 0.58266 0.08307 0.39174 0.0
C851 C 0.6175 0.10208 0.40401 0.0
C852 C 0.61781 0.13231 0.41643 0.0
C853 C 0.65096 0.15029 0.42778 0.0
C854 C 0.68404 0.13838 0.42676 0.0
C855 C 0.68403 0.10849 0.41438 0.0
C856 C 0.65098 0.09043 0.403 0.0
C857 C 0.57052 0.10104 0.30691 0.0
C858 C 0.56008 0.06769 0.29572 0.0
C859 C 0.56976 0.10029 0.32746 0.0
C860 C 0.55821 0.06624 0.33719 0.0
C861 C 0.54891 1.03289 0.32614 0.0
C862 C 0.54985 1.0336 0.30561 0.0
C863 C 0.55357 0.06573 0.35877 0.0
C864 C 0.58582 0.08211 0.3712 0.0
C865 C 0.51726 0.04967 0.36706 0.0
C866 C 0.48192 1.03315 0.35461 0.0
C867 C 0.46067 0.99569 0.35679 0.0
C868 C 0.42783 0.97985 0.34477 0.0
C869 C 0.41585 1.00128 0.33058 0.0
C870 C 0.43656 1.03866 0.32846 0.0
C871 C 0.46936 0.05464 0.34046 0.0
H872 H 0.39047 0.98896 0.32127 0.0
H873 H 0.70971 0.15234 0.43551 0.0
H874 H 0.60058 0.65807 0.76569 0.0
H875 H 0.59558 0.65189 0.72963 0.0
H876 H 0.51365 0.54323 0.73413 0.0
H877 H 0.51788 0.54958 0.77013 0.0
H878 H 0.57355 0.54606 0.70762 0.0
H879 H 0.47917 0.60794 0.721 0.0
H880 H 0.45306 0.65582 0.73523 0.0
H881 H 0.53367 0.7404 0.70331 0.0
H882 H 0.56073 0.69305 0.68912 0.0
H883 H 0.50692 0.52253 0.607 0.0
H884 H 0.50955 0.52788 0.64293 0.0
H885 H 0.58792 0.6386 0.63992 0.0
H886 H 0.58648 0.63315 0.60401 0.0
H887 H 0.52818 0.63384 0.66578 0.0
H888 H 0.62262 0.56995 0.65267 0.0
H889 H 0.64623 0.52054 0.63822 0.0
H890 H 0.56238 0.43793 0.66962 0.0
H891 H 0.53787 0.48684 0.68404 0.0
C892 C 0.58149 0.63292 0.75896 0.0
C893 C 0.55955 0.60435 0.77066 0.0
C894 C 0.57858 0.62946 0.7384 0.0
C895 C 0.55412 0.59716 0.72923 0.0
C896 C 0.53265 0.56837 0.74092 0.0
C897 C 0.53503 0.57208 0.76145 0.0
C898 C 0.55121 0.59333 0.70744 0.0
C899 C 0.56318 0.56495 0.69847 0.0
C900 C 0.53817 0.61832 0.69553 0.0
C901 C 0.52233 0.64699 0.7042 0.0
C902 C 0.49167 0.63681 0.7172 0.0
C903 C 0.47661 0.66384 0.72522 0.0
C904 C 0.49178 0.70115 0.72023 0.0
C905 C 0.522 0.71149 0.70719 0.0
C906 C 0.53721 0.68456 0.69915 0.0
C907 C 0.52518 0.54785 0.61395 0.0
C908 C 0.54662 0.57734 0.60252 0.0
C909 C 0.52644 0.55093 0.6345 0.0
C910 C 0.54906 0.58358 0.6441 0.0
C911 C 0.57015 0.61321 0.63281 0.0
C912 C 0.56917 0.61006 0.61225 0.0
C913 C 0.55086 0.58676 0.66594 0.0
C914 C 0.53861 0.61499 0.67493 0.0
C915 C 0.5634 0.56147 0.67788 0.0
C916 C 0.57814 0.53202 0.66927 0.0
C917 C 0.60899 0.54122 0.65636 0.0
C918 C 0.62258 0.51331 0.6482 0.0
C919 C 0.60575 0.47611 0.65295 0.0
C920 C 0.57535 0.46675 0.66592 0.0
C921 C 0.56161 0.49456 0.67411 0.0
H922 H 0.61632 0.45453 0.64662 0.0
H923 H 0.48005 0.72204 0.72643 0.0
H924 H 0.49149 0.07693 0.56999 0.0
H925 H 0.46387 0.05958 0.60211 0.0
H926 H 0.56283 1.02353 0.61961 0.0
H927 H 0.58949 1.03901 0.58708 0.0
H928 H 0.50135 0.97599 0.6317 0.0
H929 H 0.55013 0.10969 0.63469 0.0
H930 H 0.55688 0.17366 0.6237 0.0
H931 H 0.43548 0.15682 0.63034 0.0
H932 H 0.42793 0.09255 0.64115 0.0
H933 H 0.5055 0.99715 0.73552 0.0
H934 H 0.5161 1.00084 0.70012 0.0
H935 H 0.40136 1.01071 0.68954 0.0
H936 H 0.39051 1.00658 0.72516 0.0
H937 H 0.46159 0.06749 0.67275 0.0
H938 H 0.41735 0.93452 0.67455 0.0
H939 H 0.4151 0.87244 0.68698 0.0
H940 H 0.53388 0.89038 0.67301 0.0
H941 H 0.53705 0.95284 0.66077 0.0
C942 C 0.50727 0.06524 0.5807 0.0
C943 C 0.54264 0.05936 0.57612 0.0
C944 C 0.49157 0.05551 0.59909 0.0
C945 C 0.51151 1.04074 0.61342 0.0
C946 C 0.54687 1.03483 0.6088 0.0
C947 C 0.56221 1.04389 0.59027 0.0
C948 C 0.49579 1.03158 0.63327 0.0
C949 C 0.49297 0.99613 0.64072 0.0
C950 C 0.48386 0.05749 0.64488 0.0
C951 C 0.48839 0.09619 0.63851 0.0
C952 C 0.52483 0.11955 0.63368 0.0
C953 C 0.52881 0.15587 0.6275 0.0
C954 C 0.49661 0.16926 0.62626 0.0
C955 C 0.46038 0.14639 0.63127 0.0
C956 C 0.45624 0.11003 0.63743 0.0
C957 C 0.48234 0.99944 0.72557 0.0
C958 C 0.44723 1.00161 0.73291 0.0
C959 C 0.48835 1.00142 0.70541 0.0
C960 C 0.45944 1.00589 0.69226 0.0
C961 C 0.4239 1.00711 0.6995 0.0
C962 C 0.41767 1.00458 0.71974 0.0
C963 C 0.46794 1.01227 0.67123 0.0
C964 C 0.46945 0.04722 0.66357 0.0
C965 C 0.47935 0.98618 0.6596 0.0
C966 C 0.47749 0.94851 0.66686 0.0
C967 C 0.44309 0.92537 0.67427 0.0
C968 C 0.44163 0.89008 0.68126 0.0
C969 C 0.47434 0.8775 0.68082 0.0
C970 C 0.50856 0.90017 0.67335 0.0
C971 C 0.51019 0.9355 0.66636 0.0
H972 H 0.47315 0.85017 0.68624 0.0
H973 H 0.49974 0.19738 0.62147 0.0
H974 H 0.48469 0.51026 0.88375 0.0
H975 H 0.48642 0.52151 0.91937 0.0
H976 H 0.60269 0.59428 0.91656 0.0
H977 H 0.60107 0.5832 0.88089 0.0
H978 H 0.59382 0.54446 0.94719 0.0
H979 H 0.53421 0.6335 0.92241 0.0
H980 H 0.48799 0.6563 0.90254 0.0
H981 H 0.39354 0.58296 0.93231 0.0
H982 H 0.43931 0.55961 0.95241 0.0
H983 H 0.60302 0.62198 0.04345 0.0
H984 H 0.60215 0.61717 0.00752 0.0
H985 H 0.4872 0.54105 0.00753 0.0
H986 H 0.4881 0.54495 0.0435 0.0
H987 H 0.49698 0.59534 0.97818 0.0
H988 H 0.55979 0.50683 0.00315 0.0
H989 H 0.6083 0.48799 0.02352 0.0
H990 H 0.69949 0.56402 0.99291 0.0
H991 H 0.6515 0.5838 0.97257 0.0
C992 C 0.51062 0.52856 0.89075 0.0
C993 C 0.54272 0.54592 0.87964 0.0
C994 C 0.51151 0.53511 0.91105 0.0
C995 C 0.54458 0.55895 0.92053 0.0
C996 C 0.57691 0.57583 0.90949 0.0
C997 C 0.57591 0.56955 0.88916 0.0
C998 C 0.54537 0.56599 0.94202 0.0
C999 C 0.57301 0.55607 0.95395 0.0
C1000 C 0.51789 0.5807 0.9508 0.0
C1001 C 0.49016 0.59453 0.93877 0.0
C1002 C 0.50356 0.622 0.92462 0.0
C1003 C 0.47745 0.63507 0.91333 0.0
C1004 C 0.43782 0.62095 0.91605 0.0
C1005 C 0.42425 0.59383 0.93018 0.0
C1006 C 0.45027 0.58073 0.94157 0.0
C1007 C 0.57761 0.60406 0.03584 0.0
C1008 C 0.54576 0.58359 0.04637 0.0
C1009 C 0.57709 0.60153 0.01531 0.0
C1010 C 0.54473 0.57852 0.00494 0.0
C1011 C 0.51239 0.55903 0.01531 0.0
C1012 C 0.51295 0.56139 0.03585 0.0
C1013 C 0.54524 0.57354 0.98333 0.0
C1014 C 0.51783 0.58381 0.9714 0.0
C1015 C 0.57318 0.55946 0.97453 0.0
C1016 C 0.60205 0.54706 0.98647 0.0
C1017 C 0.59019 0.51972 0.00085 0.0
C1018 C 0.61759 0.50885 0.01239 0.0
C1019 C 0.65695 0.52487 0.00955 0.0
C1020 C 0.66899 0.55168 0.99511 0.0
C1021 C 0.6417 0.56272 0.98357 0.0
H1022 H 0.67811 0.51645 0.01851 0.0
H1023 H 0.41766 0.63111 0.90727 0.0
H1024 H 0.99881 0.61707 0.20616 0.0
H1025 H 0.99601 0.60854 0.24174 0.0
H1026 H 0.09357 0.56434 0.24047 0.0
H1027 H 0.09499 0.57099 0.20463 0.0
H1028 H 0.04673 0.52717 0.26528 0.0
H1029 H 0.10132 0.65708 0.25557 0.0
H1030 H 0.10615 0.719 0.24209 0.0
H1031 H 1.0008 0.71908 0.2694 0.0
H1032 H 0.99506 0.65689 0.28282 0.0
H1033 H 0.09977 0.57084 0.36837 0.0
H1034 H 0.10029 0.57312 0.33224 0.0
H1035 H 0.9815 0.57433 0.33039 0.0
H1036 H 0.98055 0.57107 0.36649 0.0
H1037 H 0.04067 0.63326 0.30783 0.0
H1038 H 0.98993 0.50019 0.31771 0.0
H1039 H 0.99192 0.44057 0.332 0.0
H1040 H 0.10019 0.45058 0.30515 0.0
H1041 H 0.09913 0.51061 0.29096 0.0
C1042 C 1.01952 0.60537 0.21349 0.0
C1043 C 0.04735 0.59503 0.20274 0.0
C1044 C 1.01808 0.60071 0.23385 0.0
C1045 C 0.04523 0.5867 0.24394 0.0
C1046 C 0.07244 0.5754 0.23308 0.0
C1047 C 0.07333 0.5793 0.21262 0.0
C1048 C 0.04542 0.58427 0.2658 0.0
C1049 C 0.04588 0.55058 0.27454 0.0
C1050 C 0.04416 0.61469 0.27802 0.0
C1051 C 0.04757 0.65217 0.27005 0.0
C1052 C 0.07904 0.67019 0.25859 0.0
C1053 C 0.08196 0.70535 0.25097 0.0
C1054 C 0.05375 0.72292 0.25484 0.0
C1055 C 1.02261 0.70541 0.26639 0.0
C1056 C 1.01952 0.67022 0.27402 0.0
C1057 C 0.07379 0.57147 0.3602 0.0
C1058 C 0.0401 0.57074 0.3701 0.0
C1059 C 0.07409 0.57267 0.33964 0.0
C1060 C 0.04091 0.57382 0.32875 0.0
C1061 C 1.00732 0.57339 0.33861 0.0
C1062 C 1.00677 0.57141 0.35914 0.0
C1063 C 0.04153 0.57624 0.30706 0.0
C1064 C 0.04144 0.60998 0.29844 0.0
C1065 C 0.04413 0.54626 0.29503 0.0
C1066 C 0.04466 0.51009 0.30346 0.0
C1067 C 1.01435 0.48987 0.31502 0.0
C1068 C 1.01527 0.45596 0.32307 0.0
C1069 C 0.04622 0.44185 0.31954 0.0
C1070 C 0.07626 0.46158 0.3079 0.0
C1071 C 0.07551 0.49553 0.29984 0.0
H1072 H 0.04687 0.41558 0.32577 0.0
H1073 H 0.05606 0.75014 0.24894 0.0
loop_
_geom_bond_atom_site_label_1
_geom_bond_atom_site_label_2
_geom_bond_distance
_geom_bond_site_symmetry_2
_ccdc_geom_bond_type
Pr0 C2 2.880 . S
Pr0 O20 2.562 . S
Pr0 O21 2.490 . S
Pr0 O22 2.695 1_655 S
Pr0 O23 2.512 . S
Pr0 O25 2.437 . S
Pr0 O28 2.436 . S
Pr0 O30 2.438 1_655 S
Pr1 C11 2.880 . S
Pr1 O22 2.436 . S
Pr1 O24 2.438 1_455 S
Pr1 O26 2.562 . S
Pr1 O27 2.490 . S
Pr1 O28 2.695 1_455 S
Pr1 O29 2.512 . S
Pr1 O31 2.437 . S
C2 Pr0 2.880 . S
C2 C3 1.491 . S
C2 O20 1.254 . S
C2 O21 1.225 . S
C3 C2 1.491 . S
C3 C4 1.392 . S
C3 C8 1.356 . S
C4 C3 1.392 . S
C4 C5 1.368 . S
C4 H32 0.929 . S
C5 C4 1.368 . S
C5 C6 1.386 . S
C5 H33 0.929 . S
C6 C5 1.386 . S
C6 C7 1.373 . S
C7 C6 1.373 . S
C7 C8 1.409 . S
C7 H34 0.931 . S
C8 C3 1.356 . S
C8 C7 1.409 . S
C8 H35 0.930 . S
C9 O22 1.270 . S
C9 O23 1.248 1_455 S
C10 O24 1.267 . S
C10 O25 1.278 . S
C11 Pr1 2.880 . S
C11 C12 1.491 . S
C11 O26 1.254 . S
C11 O27 1.225 . S
C12 C11 1.491 . S
C12 C13 1.392 . S
C12 C17 1.356 . S
C13 C12 1.392 . S
C13 C14 1.368 . S
C13 H36 0.929 . S
C14 C13 1.368 . S
C14 C15 1.386 . S
C14 H37 0.929 . S
C15 C14 1.386 . S
C15 C16 1.373 . S
C16 C15 1.373 . S
C16 C17 1.409 . S
C16 H38 0.931 . S
C17 C12 1.356 . S
C17 C16 1.409 . S
C17 H39 0.930 . S
C18 O28 1.270 1_455 S
C18 O29 1.248 . S
C19 O30 1.267 . S
C19 O31 1.278 . S
O20 Pr0 2.562 . S
O20 C2 1.254 . S
O21 Pr0 2.490 . S
O21 C2 1.225 . S
O22 Pr0 2.695 1_455 S
O22 Pr1 2.436 . S
O22 C9 1.270 . S
O23 Pr0 2.512 . S
O23 C9 1.248 1_655 S
O24 Pr1 2.438 1_655 S
O24 C10 1.267 . S
O25 Pr0 2.437 . S
O25 C10 1.278 . S
O26 Pr1 2.562 . S
O26 C11 1.254 . S
O27 Pr1 2.490 . S
O27 C11 1.225 . S
O28 Pr0 2.436 . S
O28 Pr1 2.695 1_655 S
O28 C18 1.270 1_655 S
O29 Pr1 2.512 . S
O29 C18 1.248 . S
O30 Pr0 2.438 1_455 S
O30 C19 1.267 . S
O31 Pr1 2.437 . S
O31 C19 1.278 . S
H32 C4 0.929 . S
H33 C5 0.929 . S
H34 C7 0.931 . S
H35 C8 0.930 . S
H36 C13 0.929 . S
H37 C14 0.929 . S
H38 C16 0.931 . S
H39 C17 0.930 . S
Pr40 C42 2.880 . S
Pr40 O60 2.562 . S
Pr40 O61 2.490 . S
Pr40 O62 2.695 . S
Pr40 O63 2.512 . S
Pr40 O65 2.437 . S
Pr40 O68 2.436 . S
Pr40 O70 2.438 1_545 S
Pr41 C51 2.880 . S
Pr41 O62 2.436 1_565 S
Pr41 O64 2.438 1_565 S
Pr41 O66 2.562 . S
Pr41 O67 2.490 . S
Pr41 O68 2.695 1_565 S
Pr41 O69 2.512 . S
Pr41 O71 2.437 . S
C42 Pr40 2.880 . S
C42 C43 1.491 . S
C42 O60 1.254 . S
C42 O61 1.225 . S
C43 C42 1.491 . S
C43 C44 1.392 . S
C43 C48 1.356 . S
C44 C43 1.392 . S
C44 C45 1.368 . S
C44 H72 0.929 . S
C45 C44 1.368 . S
C45 C46 1.386 . S
C45 H73 0.929 . S
C46 C45 1.386 . S
C46 C47 1.373 . S
C47 C46 1.373 . S
C47 C48 1.409 . S
C47 H74 0.931 . S
C48 C43 1.356 . S
C48 C47 1.409 . S
C48 H75 0.930 . S
C49 O62 1.270 . S
C49 O63 1.248 . S
C50 O64 1.267 . S
C50 O65 1.278 . S
C51 Pr41 2.880 . S
C51 C52 1.491 . S
C51 O66 1.254 . S
C51 O67 1.225 . S
C52 C51 1.491 . S
C52 C53 1.392 . S
C52 C57 1.356 . S
C53 C52 1.392 . S
C53 C54 1.368 . S
C53 H76 0.929 . S
C54 C53 1.368 . S
C54 C55 1.386 . S
C54 H77 0.929 . S
C55 C54 1.386 . S
C55 C56 1.373 . S
C56 C55 1.373 . S
C56 C57 1.409 . S
C56 H78 0.931 . S
C57 C52 1.356 . S
C57 C56 1.409 . S
C57 H79 0.930 . S
C58 O68 1.270 . S
C58 O69 1.248 1_545 S
C59 O70 1.267 . S
C59 O71 1.278 . S
O60 Pr40 2.562 . S
O60 C42 1.254 . S
O61 Pr40 2.490 . S
O61 C42 1.225 . S
O62 Pr40 2.695 . S
O62 Pr41 2.436 1_545 S
O62 C49 1.270 . S
O63 Pr40 2.512 . S
O63 C49 1.248 . S
O64 Pr41 2.438 1_545 S
O64 C50 1.267 . S
O65 Pr40 2.437 . S
O65 C50 1.278 . S
O66 Pr41 2.562 . S
O66 C51 1.254 . S
O67 Pr41 2.490 . S
O67 C51 1.225 . S
O68 Pr40 2.436 . S
O68 Pr41 2.695 1_545 S
O68 C58 1.270 . S
O69 Pr41 2.512 . S
O69 C58 1.248 1_565 S
O70 Pr40 2.438 1_565 S
O70 C59 1.267 . S
O71 Pr41 2.437 . S
O71 C59 1.278 . S
H72 C44 0.929 . S
H73 C45 0.929 . S
H74 C47 0.931 . S
H75 C48 0.930 . S
H76 C53 0.929 . S
H77 C54 0.929 . S
H78 C56 0.931 . S
H79 C57 0.930 . S
Pr80 C82 2.880 . S
Pr80 O100 2.562 . S
Pr80 O101 2.490 . S
Pr80 O102 2.695 . S
Pr80 O103 2.512 . S
Pr80 O105 2.437 . S
Pr80 O108 2.436 . S
Pr80 O110 2.438 . S
Pr81 C91 2.880 . S
Pr81 O102 2.436 . S
Pr81 O104 2.438 . S
Pr81 O106 2.562 . S
Pr81 O107 2.490 . S
Pr81 O108 2.695 . S
Pr81 O109 2.512 . S
Pr81 O111 2.437 . S
C82 Pr80 2.880 . S
C82 C83 1.491 . S
C82 O100 1.254 . S
C82 O101 1.225 . S
C83 C82 1.491 . S
C83 C84 1.392 . S
C83 C88 1.356 . S
C84 C83 1.392 . S
C84 C85 1.368 . S
C84 H112 0.929 . S
C85 C84 1.368 . S
C85 C86 1.386 . S
C85 H113 0.929 . S
C86 C85 1.386 . S
C86 C87 1.373 . S
C87 C86 1.373 . S
C87 C88 1.409 . S
C87 H114 0.931 . S
C88 C83 1.356 . S
C88 C87 1.409 . S
C88 H115 0.930 . S
C89 O102 1.270 . S
C89 O103 1.248 . S
C90 O104 1.267 . S
C90 O105 1.278 . S
C91 Pr81 2.880 . S
C91 C92 1.491 . S
C91 O106 1.254 . S
C91 O107 1.225 . S
C92 C91 1.491 . S
C92 C93 1.392 . S
C92 C97 1.356 . S
C93 C92 1.392 . S
C93 C94 1.368 . S
C93 H116 0.929 . S
C94 C93 1.368 . S
C94 C95 1.386 . S
C94 H117 0.929 . S
C95 C94 1.386 . S
C95 C96 1.373 . S
C96 C95 1.373 . S
C96 C97 1.409 . S
C96 H118 0.931 . S
C97 C92 1.356 . S
C97 C96 1.409 . S
C97 H119 0.930 . S
C98 O108 1.270 . S
C98 O109 1.248 . S
C99 O110 1.267 . S
C99 O111 1.278 . S
O100 Pr80 2.562 . S
O100 C82 1.254 . S
O101 Pr80 2.490 . S
O101 C82 1.225 . S
O102 Pr80 2.695 . S
O102 Pr81 2.436 . S
O102 C89 1.270 . S
O103 Pr80 2.512 . S
O103 C89 1.248 . S
O104 Pr81 2.438 . S
O104 C90 1.267 . S
O105 Pr80 2.437 . S
O105 C90 1.278 . S
O106 Pr81 2.562 . S
O106 C91 1.254 . S
O107 Pr81 2.490 . S
O107 C91 1.225 . S
O108 Pr80 2.436 . S
O108 Pr81 2.695 . S
O108 C98 1.270 . S
O109 Pr81 2.512 . S
O109 C98 1.248 . S
O110 Pr80 2.438 . S
O110 C99 1.267 . S
O111 Pr81 2.437 . S
O111 C99 1.278 . S
H112 C84 0.929 . S
H113 C85 0.929 . S
H114 C87 0.931 . S
H115 C88 0.930 . S
H116 C93 0.929 . S
H117 C94 0.929 . S
H118 C96 0.931 . S
H119 C97 0.930 . S
H120 C123 0.931 1_565 S
H121 C126 0.928 . S
H122 C128 0.930 . S
C123 H120 0.931 1_545 S
C123 C124 1.413 . S
C123 C125 1.360 . S
C124 C123 1.413 . S
C124 C128 1.429 . S
C125 C123 1.360 . S
C125 C126 1.372 . S
C126 H121 0.928 . S
C126 C125 1.372 . S
C126 C127 1.404 . S
C127 C126 1.404 . S
C127 C128 1.391 . S
C128 H122 0.930 . S
C128 C124 1.429 . S
C128 C127 1.391 . S
H129 C132 0.931 . S
H130 C135 0.928 . S
H131 C137 0.930 . S
C132 H129 0.931 . S
C132 C133 1.413 . S
C132 C134 1.360 . S
C133 C132 1.413 . S
C133 C137 1.429 . S
C134 C132 1.360 . S
C134 C135 1.372 . S
C135 H130 0.928 . S
C135 C134 1.372 . S
C135 C136 1.404 . S
C136 C135 1.404 . S
C136 C137 1.391 . S
C137 H131 0.930 . S
C137 C133 1.429 . S
C137 C136 1.391 . S
H138 C141 0.931 . S
H139 C144 0.928 . S
H140 C146 0.930 . S
C141 H138 0.931 . S
C141 C142 1.413 . S
C141 C143 1.360 1_655 S
C142 C141 1.413 . S
C142 C146 1.429 1_655 S
C143 C141 1.360 1_455 S
C143 C144 1.372 . S
C144 H139 0.928 . S
C144 C143 1.372 . S
C144 C145 1.404 . S
C145 C144 1.404 . S
C145 C146 1.391 . S
C146 H140 0.930 . S
C146 C142 1.429 1_455 S
C146 C145 1.391 . S
H147 C150 0.931 . S
H148 C153 0.928 . S
H149 C155 0.930 . S
C150 H147 0.931 . S
C150 C151 1.413 . S
C150 C152 1.360 1_655 S
C151 C150 1.413 . S
C151 C155 1.429 1_655 S
C152 C150 1.360 1_455 S
C152 C153 1.372 . S
C153 H148 0.928 . S
C153 C152 1.372 . S
C153 C154 1.404 . S
C154 C153 1.404 . S
C154 C155 1.391 . S
C155 H149 0.930 . S
C155 C151 1.429 1_455 S
C155 C154 1.391 . S
H156 C159 0.931 . S
H157 C162 0.928 . S
H158 C164 0.930 . S
C159 H156 0.931 . S
C159 C160 1.413 . S
C159 C161 1.360 . S
C160 C159 1.413 . S
C160 C164 1.429 . S
C161 C159 1.360 . S
C161 C162 1.372 1_545 S
C162 H157 0.928 . S
C162 C161 1.372 1_565 S
C162 C163 1.404 . S
C163 C162 1.404 . S
C163 C164 1.391 1_565 S
C164 H158 0.930 . S
C164 C160 1.429 . S
C164 C163 1.391 1_545 S
H165 C168 0.931 . S
H166 C171 0.928 . S
H167 C173 0.930 . S
C168 H165 0.931 . S
C168 C169 1.413 . S
C168 C170 1.360 . S
C169 C168 1.413 . S
C169 C173 1.429 . S
C170 C168 1.360 . S
C170 C171 1.372 . S
C171 H166 0.928 . S
C171 C170 1.372 . S
C171 C172 1.404 . S
C172 C171 1.404 . S
C172 C173 1.391 . S
C173 H167 0.930 . S
C173 C169 1.429 . S
C173 C172 1.391 . S
H174 C192 0.951 . S
H175 C194 0.951 . S
H176 C196 0.950 . S
H177 C197 0.950 . S
H178 C199 0.950 . S
H179 C202 0.950 . S
H180 C203 0.950 . S
H181 C205 0.950 . S
H182 C206 0.950 . S
H183 C207 0.951 . S
H184 C209 0.951 . S
H185 C211 0.950 . S
H186 C212 0.950 . S
H187 C214 0.950 . S
H188 C217 0.950 . S
H189 C218 0.950 . S
H190 C220 0.950 . S
H191 C221 0.950 . S
C192 H174 0.951 . S
C192 C193 1.366 . S
C192 C194 1.388 . S
C193 C192 1.366 . S
C193 C197 1.385 . S
C194 H175 0.951 . S
C194 C192 1.388 . S
C194 C195 1.366 . S
C195 C194 1.366 . S
C195 C196 1.414 . S
C195 C198 1.499 . S
C196 H176 0.950 . S
C196 C195 1.414 . S
C196 C197 1.374 . S
C197 H177 0.950 . S
C197 C193 1.385 . S
C197 C196 1.374 . S
C198 C195 1.499 . S
C198 C199 1.373 . S
C198 C200 1.389 . S
C199 H178 0.950 . S
C199 C198 1.373 . S
C199 C215 1.377 . S
C200 C198 1.389 . S
C200 C201 1.524 . S
C200 C214 1.377 . S
C201 C200 1.524 . S
C201 C202 1.397 . S
C201 C206 1.363 . S
C202 H179 0.950 . S
C202 C201 1.397 . S
C202 C203 1.334 . S
C203 H180 0.950 . S
C203 C202 1.334 . S
C203 C204 1.287 . S
C204 C203 1.287 . S
C204 C205 1.524 . S
C204 H223 0.913 . S
C205 H181 0.950 . S
C205 C204 1.524 . S
C205 C206 1.415 . S
C206 H182 0.950 . S
C206 C201 1.363 . S
C206 C205 1.415 . S
C207 H183 0.951 . S
C207 C208 1.366 . S
C207 C209 1.388 . S
C208 C207 1.366 . S
C208 C212 1.385 . S
C209 H184 0.951 . S
C209 C207 1.388 . S
C209 C210 1.366 . S
C210 C209 1.366 . S
C210 C211 1.414 . S
C210 C213 1.499 . S
C211 H185 0.950 . S
C211 C210 1.414 . S
C211 C212 1.374 . S
C212 H186 0.950 . S
C212 C208 1.385 . S
C212 C211 1.374 . S
C213 C210 1.499 . S
C213 C214 1.373 . S
C213 C215 1.389 . S
C214 H187 0.950 . S
C214 C200 1.377 . S
C214 C213 1.373 . S
C215 C199 1.377 . S
C215 C213 1.389 . S
C215 C216 1.524 . S
C216 C215 1.524 . S
C216 C217 1.397 . S
C216 C221 1.363 . S
C217 H188 0.950 . S
C217 C216 1.397 . S
C217 C218 1.334 . S
C218 H189 0.950 . S
C218 C217 1.334 . S
C218 C219 1.287 . S
C219 C218 1.287 . S
C219 C220 1.524 . S
C219 H222 0.999 . S
C220 H190 0.950 . S
C220 C219 1.524 . S
C220 C221 1.415 . S
C221 H191 0.950 . S
C221 C216 1.363 . S
C221 C220 1.415 . S
H222 C219 0.999 . S
H223 C204 0.913 . S
H224 C242 0.951 . S
H225 C244 0.951 . S
H226 C246 0.950 . S
H227 C247 0.950 . S
H228 C249 0.950 . S
H229 C252 0.950 . S
H230 C253 0.950 . S
H231 C255 0.950 . S
H232 C256 0.950 . S
H233 C257 0.951 . S
H234 C259 0.951 . S
H235 C261 0.950 . S
H236 C262 0.950 . S
H237 C264 0.950 . S
H238 C267 0.950 . S
H239 C268 0.950 1_455 S
H240 C270 0.950 . S
H241 C271 0.950 . S
C242 H224 0.951 . S
C242 C243 1.366 . S
C242 C244 1.388 . S
C243 C242 1.366 . S
C243 C247 1.385 . S
C244 H225 0.951 . S
C244 C242 1.388 . S
C244 C245 1.366 . S
C245 C244 1.366 . S
C245 C246 1.414 . S
C245 C248 1.499 . S
C246 H226 0.950 . S
C246 C245 1.414 . S
C246 C247 1.374 . S
C247 H227 0.950 . S
C247 C243 1.385 . S
C247 C246 1.374 . S
C248 C245 1.499 . S
C248 C249 1.373 . S
C248 C250 1.389 . S
C249 H228 0.950 . S
C249 C248 1.373 . S
C249 C265 1.377 . S
C250 C248 1.389 . S
C250 C251 1.524 . S
C250 C264 1.377 . S
C251 C250 1.524 . S
C251 C252 1.397 . S
C251 C256 1.363 . S
C252 H229 0.950 . S
C252 C251 1.397 . S
C252 C253 1.334 . S
C253 H230 0.950 . S
C253 C252 1.334 . S
C253 C254 1.287 . S
C254 C253 1.287 . S
C254 C255 1.524 . S
C254 H273 0.913 . S
C255 H231 0.950 . S
C255 C254 1.524 . S
C255 C256 1.415 . S
C256 H232 0.950 . S
C256 C251 1.363 . S
C256 C255 1.415 . S
C257 H233 0.951 . S
C257 C258 1.366 . S
C257 C259 1.388 . S
C258 C257 1.366 . S
C258 C262 1.385 . S
C259 H234 0.951 . S
C259 C257 1.388 . S
C259 C260 1.366 . S
C260 C259 1.366 . S
C260 C261 1.414 . S
C260 C263 1.499 . S
C261 H235 0.950 . S
C261 C260 1.414 . S
C261 C262 1.374 . S
C262 H236 0.950 . S
C262 C258 1.385 . S
C262 C261 1.374 . S
C263 C260 1.499 . S
C263 C264 1.373 . S
C263 C265 1.389 . S
C264 H237 0.950 . S
C264 C250 1.377 . S
C264 C263 1.373 . S
C265 C249 1.377 . S
C265 C263 1.389 . S
C265 C266 1.524 . S
C266 C265 1.524 . S
C266 C267 1.397 . S
C266 C271 1.363 . S
C267 H238 0.950 . S
C267 C266 1.397 . S
C267 C268 1.334 . S
C268 H239 0.950 1_655 S
C268 C267 1.334 . S
C268 C269 1.267 1_655 S
C269 C268 1.267 1_455 S
C269 C270 1.517 1_455 S
C269 H272 1.031 . S
C270 H240 0.950 . S
C270 C269 1.517 1_655 S
C270 C271 1.415 . S
C271 H241 0.950 . S
C271 C266 1.363 . S
C271 C270 1.415 . S
H272 C269 1.031 . S
H273 C254 0.913 . S
H274 C292 0.951 . S
H275 C294 0.951 . S
H276 C296 0.950 . S
H277 C297 0.950 . S
H278 C299 0.950 . S
H279 C302 0.950 . S
H280 C303 0.950 . S
H281 C305 0.950 . S
H282 C306 0.950 . S
H283 C307 0.951 . S
H284 C309 0.951 . S
H285 C311 0.950 . S
H286 C312 0.950 . S
H287 C314 0.950 . S
H288 C317 0.950 . S
H289 C318 0.950 . S
H290 C320 0.950 . S
H291 C321 0.950 . S
C292 H274 0.951 . S
C292 C293 1.366 . S
C292 C294 1.388 . S
C293 C292 1.366 . S
C293 C297 1.385 . S
C294 H275 0.951 . S
C294 C292 1.388 . S
C294 C295 1.366 . S
C295 C294 1.366 . S
C295 C296 1.414 . S
C295 C298 1.499 . S
C296 H276 0.950 . S
C296 C295 1.414 . S
C296 C297 1.374 . S
C297 H277 0.950 . S
C297 C293 1.385 . S
C297 C296 1.374 . S
C298 C295 1.499 . S
C298 C299 1.373 . S
C298 C300 1.389 . S
C299 H278 0.950 . S
C299 C298 1.373 . S
C299 C315 1.377 . S
C300 C298 1.389 . S
C300 C301 1.524 . S
C300 C314 1.377 . S
C301 C300 1.524 . S
C301 C302 1.397 . S
C301 C306 1.363 . S
C302 H279 0.950 . S
C302 C301 1.397 . S
C302 C303 1.334 . S
C303 H280 0.950 . S
C303 C302 1.334 . S
C303 C304 1.287 . S
C304 C303 1.287 . S
C304 C305 1.524 . S
C304 H323 0.913 . S
C305 H281 0.950 . S
C305 C304 1.524 . S
C305 C306 1.415 . S
C306 H282 0.950 . S
C306 C301 1.363 . S
C306 C305 1.415 . S
C307 H283 0.951 . S
C307 C308 1.366 . S
C307 C309 1.388 . S
C308 C307 1.366 . S
C308 C312 1.385 . S
C309 H284 0.951 . S
C309 C307 1.388 . S
C309 C310 1.366 . S
C310 C309 1.366 . S
C310 C311 1.414 . S
C310 C313 1.499 . S
C311 H285 0.950 . S
C311 C310 1.414 . S
C311 C312 1.374 . S
C312 H286 0.950 . S
C312 C308 1.385 . S
C312 C311 1.374 . S
C313 C310 1.499 . S
C313 C314 1.373 . S
C313 C315 1.389 . S
C314 H287 0.950 . S
C314 C300 1.377 . S
C314 C313 1.373 . S
C315 C299 1.377 . S
C315 C313 1.389 . S
C315 C316 1.524 . S
C316 C315 1.524 . S
C316 C317 1.397 . S
C316 C321 1.363 . S
C317 H288 0.950 . S
C317 C316 1.397 . S
C317 C318 1.334 . S
C318 H289 0.950 . S
C318 C317 1.334 . S
C318 C319 1.287 . S
C319 C318 1.287 . S
C319 C320 1.524 . S
C319 H322 0.999 . S
C320 H290 0.950 . S
C320 C319 1.524 . S
C320 C321 1.415 . S
C321 H291 0.950 . S
C321 C316 1.363 . S
C321 C320 1.415 . S
H322 C319 0.999 . S
H323 C304 0.913 . S
H324 C342 0.951 . S
H325 C344 0.951 . S
H326 C346 0.950 . S
H327 C347 0.950 . S
H328 C349 0.950 . S
H329 C352 0.950 . S
H330 C353 0.950 . S
H331 C355 0.950 . S
H332 C356 0.950 . S
H333 C357 0.951 . S
H334 C359 0.951 . S
H335 C361 0.950 . S
H336 C362 0.950 . S
H337 C364 0.950 . S
H338 C367 0.950 . S
H339 C368 0.950 . S
H340 C370 0.950 . S
H341 C371 0.950 . S
C342 H324 0.951 . S
C342 C343 1.366 . S
C342 C344 1.388 . S
C343 C342 1.366 . S
C343 C347 1.385 . S
C344 H325 0.951 . S
C344 C342 1.388 . S
C344 C345 1.366 . S
C345 C344 1.366 . S
C345 C346 1.414 . S
C345 C348 1.499 . S
C346 H326 0.950 . S
C346 C345 1.414 . S
C346 C347 1.374 . S
C347 H327 0.950 . S
C347 C343 1.385 . S
C347 C346 1.374 . S
C348 C345 1.499 . S
C348 C349 1.373 . S
C348 C350 1.389 . S
C349 H328 0.950 . S
C349 C348 1.373 . S
C349 C365 1.377 . S
C350 C348 1.389 . S
C350 C351 1.524 . S
C350 C364 1.377 . S
C351 C350 1.524 . S
C351 C352 1.397 . S
C351 C356 1.363 . S
C352 H329 0.950 . S
C352 C351 1.397 . S
C352 C353 1.334 . S
C353 H330 0.950 . S
C353 C352 1.334 . S
C353 C354 1.287 . S
C354 C353 1.287 . S
C354 C355 1.524 . S
C354 H373 0.913 . S
C355 H331 0.950 . S
C355 C354 1.524 . S
C355 C356 1.415 . S
C356 H332 0.950 . S
C356 C351 1.363 . S
C356 C355 1.415 . S
C357 H333 0.951 . S
C357 C358 1.366 . S
C357 C359 1.388 . S
C358 C357 1.366 . S
C358 C362 1.385 . S
C359 H334 0.951 . S
C359 C357 1.388 . S
C359 C360 1.366 . S
C360 C359 1.366 . S
C360 C361 1.414 . S
C360 C363 1.499 . S
C361 H335 0.950 . S
C361 C360 1.414 . S
C361 C362 1.374 . S
C362 H336 0.950 . S
C362 C358 1.385 . S
C362 C361 1.374 . S
C363 C360 1.499 . S
C363 C364 1.373 . S
C363 C365 1.389 . S
C364 H337 0.950 . S
C364 C350 1.377 . S
C364 C363 1.373 . S
C365 C349 1.377 . S
C365 C363 1.389 . S
C365 C366 1.524 . S
C366 C365 1.524 . S
C366 C367 1.397 . S
C366 C371 1.363 . S
C367 H338 0.950 . S
C367 C366 1.397 . S
C367 C368 1.334 . S
C368 H339 0.950 . S
C368 C367 1.334 . S
C368 C369 1.287 . S
C369 C368 1.287 . S
C369 C370 1.524 . S
C369 H372 0.999 . S
C370 H340 0.950 . S
C370 C369 1.524 . S
C370 C371 1.415 . S
C371 H341 0.950 . S
C371 C366 1.363 . S
C371 C370 1.415 . S
H372 C369 0.999 . S
H373 C354 0.913 . S
H374 C392 0.951 . S
H375 C394 0.951 . S
H376 C396 0.950 . S
H377 C397 0.950 . S
H378 C399 0.950 . S
H379 C402 0.950 . S
H380 C403 0.950 . S
H381 C405 0.950 . S
H382 C406 0.950 . S
H383 C407 0.951 . S
H384 C409 0.951 . S
H385 C411 0.950 . S
H386 C412 0.950 . S
H387 C414 0.950 . S
H388 C417 0.950 . S
H389 C418 0.950 . S
H390 C420 0.950 . S
H391 C421 0.950 . S
C392 H374 0.951 . S
C392 C393 1.366 . S
C392 C394 1.388 . S
C393 C392 1.366 . S
C393 C397 1.385 . S
C394 H375 0.951 . S
C394 C392 1.388 . S
C394 C395 1.366 . S
C395 C394 1.366 . S
C395 C396 1.414 . S
C395 C398 1.499 . S
C396 H376 0.950 . S
C396 C395 1.414 . S
C396 C397 1.374 . S
C397 H377 0.950 . S
C397 C393 1.385 . S
C397 C396 1.374 . S
C398 C395 1.499 . S
C398 C399 1.373 . S
C398 C400 1.389 . S
C399 H378 0.950 . S
C399 C398 1.373 . S
C399 C415 1.377 . S
C400 C398 1.389 . S
C400 C401 1.524 . S
C400 C414 1.377 . S
C401 C400 1.524 . S
C401 C402 1.397 . S
C401 C406 1.363 . S
C402 H379 0.950 . S
C402 C401 1.397 . S
C402 C403 1.334 . S
C403 H380 0.950 . S
C403 C402 1.334 . S
C403 C404 1.287 . S
C404 C403 1.287 . S
C404 C405 1.524 . S
C404 H423 0.913 . S
C405 H381 0.950 . S
C405 C404 1.524 . S
C405 C406 1.415 . S
C406 H382 0.950 . S
C406 C401 1.363 . S
C406 C405 1.415 . S
C407 H383 0.951 . S
C407 C408 1.366 . S
C407 C409 1.388 . S
C408 C407 1.366 . S
C408 C412 1.385 . S
C409 H384 0.951 . S
C409 C407 1.388 . S
C409 C410 1.366 . S
C410 C409 1.366 . S
C410 C411 1.414 . S
C410 C413 1.499 . S
C411 H385 0.950 . S
C411 C410 1.414 . S
C411 C412 1.374 . S
C412 H386 0.950 . S
C412 C408 1.385 . S
C412 C411 1.374 . S
C413 C410 1.499 . S
C413 C414 1.373 . S
C413 C415 1.389 . S
C414 H387 0.950 . S
C414 C400 1.377 . S
C414 C413 1.373 . S
C415 C399 1.377 . S
C415 C413 1.389 . S
C415 C416 1.524 . S
C416 C415 1.524 . S
C416 C417 1.397 . S
C416 C421 1.363 . S
C417 H388 0.950 . S
C417 C416 1.397 . S
C417 C418 1.334 . S
C418 H389 0.950 . S
C418 C417 1.334 . S
C418 C419 1.287 . S
C419 C418 1.287 . S
C419 C420 1.524 . S
C419 H422 0.999 . S
C420 H390 0.950 . S
C420 C419 1.524 . S
C420 C421 1.415 . S
C421 H391 0.950 . S
C421 C416 1.363 . S
C421 C420 1.415 . S
H422 C419 0.999 . S
H423 C404 0.913 . S
H424 C442 0.951 . S
H425 C444 0.951 . S
H426 C446 0.950 . S
H427 C447 0.950 . S
H428 C449 0.950 . S
H429 C452 0.950 . S
H430 C453 0.950 . S
H431 C455 0.950 . S
H432 C456 0.950 . S
H433 C457 0.951 . S
H434 C459 0.951 . S
H435 C461 0.950 . S
H436 C462 0.950 . S
H437 C464 0.950 . S
H438 C467 0.950 . S
H439 C468 0.950 . S
H440 C470 0.950 . S
H441 C471 0.950 . S
C442 H424 0.951 . S
C442 C443 1.366 . S
C442 C444 1.388 . S
C443 C442 1.366 . S
C443 C447 1.385 . S
C444 H425 0.951 . S
C444 C442 1.388 . S
C444 C445 1.366 . S
C445 C444 1.366 . S
C445 C446 1.414 . S
C445 C448 1.499 . S
C446 H426 0.950 . S
C446 C445 1.414 . S
C446 C447 1.374 . S
C447 H427 0.950 . S
C447 C443 1.385 . S
C447 C446 1.374 . S
C448 C445 1.499 . S
C448 C449 1.373 . S
C448 C450 1.389 . S
C449 H428 0.950 . S
C449 C448 1.373 . S
C449 C465 1.377 . S
C450 C448 1.389 . S
C450 C451 1.524 . S
C450 C464 1.377 . S
C451 C450 1.524 . S
C451 C452 1.397 . S
C451 C456 1.363 . S
C452 H429 0.950 . S
C452 C451 1.397 . S
C452 C453 1.334 . S
C453 H430 0.950 . S
C453 C452 1.334 . S
C453 C454 1.287 . S
C454 C453 1.287 . S
C454 C455 1.524 . S
C454 H473 0.913 . S
C455 H431 0.950 . S
C455 C454 1.524 . S
C455 C456 1.415 . S
C456 H432 0.950 . S
C456 C451 1.363 . S
C456 C455 1.415 . S
C457 H433 0.951 . S
C457 C458 1.366 . S
C457 C459 1.388 . S
C458 C457 1.366 . S
C458 C462 1.385 . S
C459 H434 0.951 . S
C459 C457 1.388 . S
C459 C460 1.366 . S
C460 C459 1.366 . S
C460 C461 1.414 . S
C460 C463 1.499 . S
C461 H435 0.950 . S
C461 C460 1.414 . S
C461 C462 1.374 . S
C462 H436 0.950 . S
C462 C458 1.385 . S
C462 C461 1.374 . S
C463 C460 1.499 . S
C463 C464 1.373 . S
C463 C465 1.389 . S
C464 H437 0.950 . S
C464 C450 1.377 . S
C464 C463 1.373 . S
C465 C449 1.377 . S
C465 C463 1.389 . S
C465 C466 1.524 . S
C466 C465 1.524 . S
C466 C467 1.397 . S
C466 C471 1.363 . S
C467 H438 0.950 . S
C467 C466 1.397 . S
C467 C468 1.334 . S
C468 H439 0.950 . S
C468 C467 1.334 . S
C468 C469 1.287 . S
C469 C468 1.287 . S
C469 C470 1.524 . S
C469 H472 0.999 . S
C470 H440 0.950 . S
C470 C469 1.524 . S
C470 C471 1.415 . S
C471 H441 0.950 . S
C471 C466 1.363 . S
C471 C470 1.415 . S
H472 C469 0.999 . S
H473 C454 0.913 . S
H474 C492 0.951 . S
H475 C494 0.951 . S
H476 C496 0.950 . S
H477 C497 0.950 . S
H478 C499 0.950 . S
H479 C502 0.950 . S
H480 C503 0.950 . S
H481 C505 0.950 . S
H482 C506 0.950 . S
H483 C507 0.951 . S
H484 C509 0.951 . S
H485 C511 0.950 . S
H486 C512 0.950 . S
H487 C514 0.950 . S
H488 C517 0.950 . S
H489 C518 0.950 . S
H490 C520 0.950 . S
H491 C521 0.950 . S
C492 H474 0.951 . S
C492 C493 1.366 . S
C492 C494 1.388 . S
C493 C492 1.366 . S
C493 C497 1.385 . S
C494 H475 0.951 . S
C494 C492 1.388 . S
C494 C495 1.366 . S
C495 C494 1.366 . S
C495 C496 1.414 . S
C495 C498 1.499 . S
C496 H476 0.950 . S
C496 C495 1.414 . S
C496 C497 1.374 . S
C497 H477 0.950 . S
C497 C493 1.385 . S
C497 C496 1.374 . S
C498 C495 1.499 . S
C498 C499 1.373 . S
C498 C500 1.389 . S
C499 H478 0.950 . S
C499 C498 1.373 . S
C499 C515 1.377 . S
C500 C498 1.389 . S
C500 C501 1.524 . S
C500 C514 1.377 . S
C501 C500 1.524 . S
C501 C502 1.397 . S
C501 C506 1.363 . S
C502 H479 0.950 . S
C502 C501 1.397 . S
C502 C503 1.334 . S
C503 H480 0.950 . S
C503 C502 1.334 . S
C503 C504 1.287 . S
C504 C503 1.287 . S
C504 C505 1.524 . S
C504 H523 0.913 . S
C505 H481 0.950 . S
C505 C504 1.524 . S
C505 C506 1.415 . S
C506 H482 0.950 . S
C506 C501 1.363 . S
C506 C505 1.415 . S
C507 H483 0.951 . S
C507 C508 1.366 . S
C507 C509 1.388 . S
C508 C507 1.366 . S
C508 C512 1.385 . S
C509 H484 0.951 . S
C509 C507 1.388 . S
C509 C510 1.366 . S
C510 C509 1.366 . S
C510 C511 1.414 . S
C510 C513 1.499 . S
C511 H485 0.950 . S
C511 C510 1.414 . S
C511 C512 1.374 . S
C512 H486 0.950 . S
C512 C508 1.385 . S
C512 C511 1.374 . S
C513 C510 1.499 . S
C513 C514 1.373 . S
C513 C515 1.389 . S
C514 H487 0.950 . S
C514 C500 1.377 . S
C514 C513 1.373 . S
C515 C499 1.377 . S
C515 C513 1.389 . S
C515 C516 1.524 . S
C516 C515 1.524 . S
C516 C517 1.397 . S
C516 C521 1.363 . S
C517 H488 0.950 . S
C517 C516 1.397 . S
C517 C518 1.334 . S
C518 H489 0.950 . S
C518 C517 1.334 . S
C518 C519 1.287 . S
C519 C518 1.287 . S
C519 C520 1.524 . S
C519 H522 0.999 . S
C520 H490 0.950 . S
C520 C519 1.524 . S
C520 C521 1.415 . S
C521 H491 0.950 . S
C521 C516 1.363 . S
C521 C520 1.415 . S
H522 C519 0.999 . S
H523 C504 0.913 . S
H524 C542 0.951 . S
H525 C544 0.951 . S
H526 C546 0.950 . S
H527 C547 0.950 . S
H528 C549 0.950 . S
H529 C552 0.950 . S
H530 C553 0.950 . S
H531 C555 0.950 . S
H532 C556 0.950 . S
H533 C557 0.951 . S
H534 C559 0.951 . S
H535 C561 0.950 . S
H536 C562 0.950 . S
H537 C564 0.950 . S
H538 C567 0.950 . S
H539 C568 0.950 . S
H540 C570 0.950 . S
H541 C571 0.950 . S
C542 H524 0.951 . S
C542 C543 1.366 . S
C542 C544 1.388 . S
C543 C542 1.366 . S
C543 C547 1.385 . S
C544 H525 0.951 . S
C544 C542 1.388 . S
C544 C545 1.366 . S
C545 C544 1.366 . S
C545 C546 1.414 . S
C545 C548 1.499 . S
C546 H526 0.950 . S
C546 C545 1.414 . S
C546 C547 1.374 . S
C547 H527 0.950 . S
C547 C543 1.385 . S
C547 C546 1.374 . S
C548 C545 1.499 . S
C548 C549 1.373 . S
C548 C550 1.389 . S
C549 H528 0.950 . S
C549 C548 1.373 . S
C549 C565 1.377 . S
C550 C548 1.389 . S
C550 C551 1.524 . S
C550 C564 1.377 . S
C551 C550 1.524 . S
C551 C552 1.397 . S
C551 C556 1.363 . S
C552 H529 0.950 . S
C552 C551 1.397 . S
C552 C553 1.334 . S
C553 H530 0.950 . S
C553 C552 1.334 . S
C553 C554 1.287 . S
C554 C553 1.287 . S
C554 C555 1.524 . S
C554 H573 0.913 . S
C555 H531 0.950 . S
C555 C554 1.524 . S
C555 C556 1.415 . S
C556 H532 0.950 . S
C556 C551 1.363 . S
C556 C555 1.415 . S
C557 H533 0.951 . S
C557 C558 1.366 . S
C557 C559 1.388 . S
C558 C557 1.366 . S
C558 C562 1.385 . S
C559 H534 0.951 . S
C559 C557 1.388 . S
C559 C560 1.366 . S
C560 C559 1.366 . S
C560 C561 1.414 . S
C560 C563 1.499 . S
C561 H535 0.950 . S
C561 C560 1.414 . S
C561 C562 1.374 . S
C562 H536 0.950 . S
C562 C558 1.385 . S
C562 C561 1.374 . S
C563 C560 1.499 . S
C563 C564 1.373 . S
C563 C565 1.389 . S
C564 H537 0.950 . S
C564 C550 1.377 . S
C564 C563 1.373 . S
C565 C549 1.377 . S
C565 C563 1.389 . S
C565 C566 1.524 . S
C566 C565 1.524 . S
C566 C567 1.397 . S
C566 C571 1.363 . S
C567 H538 0.950 . S
C567 C566 1.397 . S
C567 C568 1.334 . S
C568 H539 0.950 . S
C568 C567 1.334 . S
C568 C569 1.287 . S
C569 C568 1.287 . S
C569 C570 1.524 . S
C569 H572 0.999 . S
C570 H540 0.950 . S
C570 C569 1.524 . S
C570 C571 1.415 . S
C571 H541 0.950 . S
C571 C566 1.363 . S
C571 C570 1.415 . S
H572 C569 0.999 . S
H573 C554 0.913 . S
H574 C592 0.951 . S
H575 C594 0.951 . S
H576 C596 0.950 . S
H577 C597 0.950 . S
H578 C599 0.950 . S
H579 C602 0.950 . S
H580 C603 0.950 . S
H581 C605 0.950 . S
H582 C606 0.950 . S
H583 C607 0.951 . S
H584 C609 0.951 . S
H585 C611 0.950 . S
H586 C612 0.950 1_545 S
H587 C614 0.950 . S
H588 C617 0.950 . S
H589 C618 0.950 . S
H590 C620 0.950 . S
H591 C621 0.950 . S
C592 H574 0.951 . S
C592 C593 1.366 . S
C592 C594 1.388 . S
C593 C592 1.366 . S
C593 C597 1.385 . S
C594 H575 0.951 . S
C594 C592 1.388 . S
C594 C595 1.366 . S
C595 C594 1.366 . S
C595 C596 1.414 . S
C595 C598 1.499 . S
C596 H576 0.950 . S
C596 C595 1.414 . S
C596 C597 1.374 . S
C597 H577 0.950 . S
C597 C593 1.385 . S
C597 C596 1.374 . S
C598 C595 1.499 . S
C598 C599 1.373 . S
C598 C600 1.389 . S
C599 H578 0.950 . S
C599 C598 1.373 . S
C599 C615 1.377 . S
C600 C598 1.389 . S
C600 C601 1.524 . S
C600 C614 1.377 . S
C601 C600 1.524 . S
C601 C602 1.397 . S
C601 C606 1.363 . S
C602 H579 0.950 . S
C602 C601 1.397 . S
C602 C603 1.334 . S
C603 H580 0.950 . S
C603 C602 1.334 . S
C603 C604 1.287 . S
C604 C603 1.287 . S
C604 C605 1.524 . S
C604 H623 0.913 . S
C605 H581 0.950 . S
C605 C604 1.524 . S
C605 C606 1.415 . S
C606 H582 0.950 . S
C606 C601 1.363 . S
C606 C605 1.415 . S
C607 H583 0.951 . S
C607 C608 1.366 . S
C607 C609 1.388 . S
C608 C607 1.366 . S
C608 C612 1.385 . S
C609 H584 0.951 . S
C609 C607 1.388 . S
C609 C610 1.366 . S
C610 C609 1.366 . S
C610 C611 1.414 . S
C610 C613 1.499 . S
C611 H585 0.950 . S
C611 C610 1.414 . S
C611 C612 1.374 . S
C612 H586 0.950 1_565 S
C612 C608 1.385 . S
C612 C611 1.374 . S
C613 C610 1.499 . S
C613 C614 1.373 . S
C613 C615 1.389 . S
C614 H587 0.950 . S
C614 C600 1.377 . S
C614 C613 1.373 . S
C615 C599 1.377 . S
C615 C613 1.389 . S
C615 C616 1.524 . S
C616 C615 1.524 . S
C616 C617 1.397 . S
C616 C621 1.363 . S
C617 H588 0.950 . S
C617 C616 1.397 . S
C617 C618 1.334 . S
C618 H589 0.950 . S
C618 C617 1.334 . S
C618 C619 1.287 . S
C619 C618 1.287 . S
C619 C620 1.524 . S
C619 H622 0.999 . S
C620 H590 0.950 . S
C620 C619 1.524 . S
C620 C621 1.415 . S
C621 H591 0.950 . S
C621 C616 1.363 . S
C621 C620 1.415 . S
H622 C619 0.999 . S
H623 C604 0.913 . S
H624 C642 0.951 . S
H625 C644 0.951 . S
H626 C646 0.950 . S
H627 C647 0.950 . S
H628 C649 0.950 . S
H629 C652 0.950 . S
H630 C653 0.950 . S
H631 C655 0.950 . S
H632 C656 0.950 . S
H633 C657 0.951 . S
H634 C659 0.951 . S
H635 C661 0.950 . S
H636 C662 0.950 . S
H637 C664 0.950 . S
H638 C667 0.950 . S
H639 C668 0.950 . S
H640 C670 0.950 . S
H641 C671 0.950 . S
C642 H624 0.951 . S
C642 C643 1.366 . S
C642 C644 1.388 . S
C643 C642 1.366 . S
C643 C647 1.385 . S
C644 H625 0.951 . S
C644 C642 1.388 . S
C644 C645 1.366 . S
C645 C644 1.366 . S
C645 C646 1.414 . S
C645 C648 1.499 . S
C646 H626 0.950 . S
C646 C645 1.414 . S
C646 C647 1.374 . S
C647 H627 0.950 . S
C647 C643 1.385 . S
C647 C646 1.374 . S
C648 C645 1.499 . S
C648 C649 1.373 . S
C648 C650 1.389 . S
C649 H628 0.950 . S
C649 C648 1.373 . S
C649 C665 1.377 . S
C650 C648 1.389 . S
C650 C651 1.524 . S
C650 C664 1.377 . S
C651 C650 1.524 . S
C651 C652 1.397 . S
C651 C656 1.363 . S
C652 H629 0.950 . S
C652 C651 1.397 . S
C652 C653 1.334 . S
C653 H630 0.950 . S
C653 C652 1.334 . S
C653 C654 1.287 . S
C654 C653 1.287 . S
C654 C655 1.524 . S
C654 H673 0.913 . S
C655 H631 0.950 . S
C655 C654 1.524 . S
C655 C656 1.415 . S
C656 H632 0.950 . S
C656 C651 1.363 . S
C656 C655 1.415 . S
C657 H633 0.951 . S
C657 C658 1.366 . S
C657 C659 1.388 . S
C658 C657 1.366 . S
C658 C662 1.385 . S
C659 H634 0.951 . S
C659 C657 1.388 . S
C659 C660 1.366 . S
C660 C659 1.366 . S
C660 C661 1.414 . S
C660 C663 1.499 . S
C661 H635 0.950 . S
C661 C660 1.414 . S
C661 C662 1.374 . S
C662 H636 0.950 . S
C662 C658 1.385 . S
C662 C661 1.374 . S
C663 C660 1.499 . S
C663 C664 1.373 . S
C663 C665 1.389 . S
C664 H637 0.950 . S
C664 C650 1.377 . S
C664 C663 1.373 . S
C665 C649 1.377 . S
C665 C663 1.389 . S
C665 C666 1.524 . S
C666 C665 1.524 . S
C666 C667 1.397 . S
C666 C671 1.363 . S
C667 H638 0.950 . S
C667 C666 1.397 . S
C667 C668 1.334 . S
C668 H639 0.950 . S
C668 C667 1.334 . S
C668 C669 1.287 . S
C669 C668 1.287 . S
C669 C670 1.524 . S
C669 H672 0.999 . S
C670 H640 0.950 . S
C670 C669 1.524 . S
C670 C671 1.415 . S
C671 H641 0.950 . S
C671 C666 1.363 . S
C671 C670 1.415 . S
H672 C669 0.999 . S
H673 C654 0.913 . S
H674 C692 0.951 . S
H675 C694 0.951 . S
H676 C696 0.950 . S
H677 C697 0.950 . S
H678 C699 0.950 . S
H679 C702 0.950 . S
H680 C703 0.950 . S
H681 C705 0.950 . S
H682 C706 0.950 . S
H683 C707 0.951 . S
H684 C709 0.951 . S
H685 C711 0.950 . S
H686 C712 0.950 . S
H687 C714 0.950 . S
H688 C717 0.950 . S
H689 C718 0.950 . S
H690 C720 0.950 . S
H691 C721 0.950 . S
C692 H674 0.951 . S
C692 C693 1.366 . S
C692 C694 1.388 . S
C693 C692 1.366 . S
C693 C697 1.385 . S
C694 H675 0.951 . S
C694 C692 1.388 . S
C694 C695 1.366 . S
C695 C694 1.366 . S
C695 C696 1.414 . S
C695 C698 1.499 . S
C696 H676 0.950 . S
C696 C695 1.414 . S
C696 C697 1.374 . S
C697 H677 0.950 . S
C697 C693 1.385 . S
C697 C696 1.374 . S
C698 C695 1.499 . S
C698 C699 1.373 . S
C698 C700 1.389 . S
C699 H678 0.950 . S
C699 C698 1.373 . S
C699 C715 1.377 . S
C700 C698 1.389 . S
C700 C701 1.524 . S
C700 C714 1.377 . S
C701 C700 1.524 . S
C701 C702 1.397 . S
C701 C706 1.363 . S
C702 H679 0.950 . S
C702 C701 1.397 . S
C702 C703 1.334 . S
C703 H680 0.950 . S
C703 C702 1.334 . S
C703 C704 1.287 . S
C704 C703 1.287 . S
C704 C705 1.524 . S
C704 H723 0.913 . S
C705 H681 0.950 . S
C705 C704 1.524 . S
C705 C706 1.415 . S
C706 H682 0.950 . S
C706 C701 1.363 . S
C706 C705 1.415 . S
C707 H683 0.951 . S
C707 C708 1.366 . S
C707 C709 1.388 . S
C708 C707 1.366 . S
C708 C712 1.385 . S
C709 H684 0.951 . S
C709 C707 1.388 . S
C709 C710 1.366 . S
C710 C709 1.366 . S
C710 C711 1.414 . S
C710 C713 1.499 . S
C711 H685 0.950 . S
C711 C710 1.414 . S
C711 C712 1.374 . S
C712 H686 0.950 . S
C712 C708 1.385 . S
C712 C711 1.374 . S
C713 C710 1.499 . S
C713 C714 1.373 . S
C713 C715 1.389 . S
C714 H687 0.950 . S
C714 C700 1.377 . S
C714 C713 1.373 . S
C715 C699 1.377 . S
C715 C713 1.389 . S
C715 C716 1.524 . S
C716 C715 1.524 . S
C716 C717 1.397 . S
C716 C721 1.363 . S
C717 H688 0.950 . S
C717 C716 1.397 . S
C717 C718 1.334 . S
C718 H689 0.950 . S
C718 C717 1.334 . S
C718 C719 1.287 . S
C719 C718 1.287 . S
C719 C720 1.524 . S
C719 H722 0.999 . S
C720 H690 0.950 . S
C720 C719 1.524 . S
C720 C721 1.415 . S
C721 H691 0.950 . S
C721 C716 1.363 . S
C721 C720 1.415 . S
H722 C719 0.999 . S
H723 C704 0.913 . S
H724 C742 0.951 . S
H725 C744 0.951 . S
H726 C746 0.950 . S
H727 C747 0.950 . S
H728 C749 0.950 . S
H729 C752 0.950 . S
H730 C753 0.950 . S
H731 C755 0.950 . S
H732 C756 0.950 . S
H733 C757 0.951 . S
H734 C759 0.951 . S
H735 C761 0.950 . S
H736 C762 0.950 . S
H737 C764 0.950 . S
H738 C767 0.950 . S
H739 C768 0.950 . S
H740 C770 0.950 . S
H741 C771 0.950 . S
C742 H724 0.951 . S
C742 C743 1.366 . S
C742 C744 1.388 . S
C743 C742 1.366 . S
C743 C747 1.385 . S
C744 H725 0.951 . S
C744 C742 1.388 . S
C744 C745 1.366 . S
C745 C744 1.366 . S
C745 C746 1.414 . S
C745 C748 1.499 . S
C746 H726 0.950 . S
C746 C745 1.414 . S
C746 C747 1.374 . S
C747 H727 0.950 . S
C747 C743 1.385 . S
C747 C746 1.374 . S
C748 C745 1.499 . S
C748 C749 1.373 . S
C748 C750 1.389 . S
C749 H728 0.950 . S
C749 C748 1.373 . S
C749 C765 1.377 . S
C750 C748 1.389 . S
C750 C751 1.524 . S
C750 C764 1.377 . S
C751 C750 1.524 . S
C751 C752 1.397 . S
C751 C756 1.363 . S
C752 H729 0.950 . S
C752 C751 1.397 . S
C752 C753 1.334 . S
C753 H730 0.950 . S
C753 C752 1.334 . S
C753 C754 1.287 . S
C754 C753 1.287 . S
C754 C755 1.524 . S
C754 H773 0.913 . S
C755 H731 0.950 . S
C755 C754 1.524 . S
C755 C756 1.415 . S
C756 H732 0.950 . S
C756 C751 1.363 . S
C756 C755 1.415 . S
C757 H733 0.951 . S
C757 C758 1.366 . S
C757 C759 1.388 . S
C758 C757 1.366 . S
C758 C762 1.385 . S
C759 H734 0.951 . S
C759 C757 1.388 . S
C759 C760 1.366 . S
C760 C759 1.366 . S
C760 C761 1.414 . S
C760 C763 1.499 . S
C761 H735 0.950 . S
C761 C760 1.414 . S
C761 C762 1.374 . S
C762 H736 0.950 . S
C762 C758 1.385 . S
C762 C761 1.374 . S
C763 C760 1.499 . S
C763 C764 1.373 . S
C763 C765 1.389 . S
C764 H737 0.950 . S
C764 C750 1.377 . S
C764 C763 1.373 . S
C765 C749 1.377 . S
C765 C763 1.389 . S
C765 C766 1.524 . S
C766 C765 1.524 . S
C766 C767 1.397 . S
C766 C771 1.363 . S
C767 H738 0.950 . S
C767 C766 1.397 . S
C767 C768 1.334 . S
C768 H739 0.950 . S
C768 C767 1.334 . S
C768 C769 1.287 . S
C769 C768 1.287 . S
C769 C770 1.524 . S
C769 H772 0.999 . S
C770 H740 0.950 . S
C770 C769 1.524 . S
C770 C771 1.415 . S
C771 H741 0.950 . S
C771 C766 1.363 . S
C771 C770 1.415 . S
H772 C769 0.999 . S
H773 C754 0.913 . S
H774 C792 0.951 . S
H775 C794 0.951 . S
H776 C796 0.950 . S
H777 C797 0.950 . S
H778 C799 0.950 . S
H779 C802 0.950 . S
H780 C803 0.950 . S
H781 C805 0.950 . S
H782 C806 0.950 . S
H783 C807 0.951 . S
H784 C809 0.951 . S
H785 C811 0.950 . S
H786 C812 0.950 . S
H787 C814 0.950 1_556 S
H788 C817 0.950 . S
H789 C818 0.950 . S
H790 C820 0.953 . S
H791 C821 0.950 . S
C792 H774 0.951 . S
C792 C793 1.366 . S
C792 C794 1.388 . S
C793 C792 1.366 . S
C793 C797 1.385 . S
C794 H775 0.951 . S
C794 C792 1.388 . S
C794 C795 1.366 . S
C795 C794 1.366 . S
C795 C796 1.414 . S
C795 C798 1.499 . S
C796 H776 0.950 . S
C796 C795 1.414 . S
C796 C797 1.374 . S
C797 H777 0.950 . S
C797 C793 1.385 . S
C797 C796 1.374 . S
C798 C795 1.499 . S
C798 C799 1.373 . S
C798 C800 1.389 1_455 S
C799 H778 0.950 . S
C799 C798 1.373 . S
C799 C815 1.377 . S
C800 C798 1.389 1_655 S
C800 C801 1.524 . S
C800 C814 1.377 . S
C801 C800 1.524 . S
C801 C802 1.397 . S
C801 C806 1.363 . S
C802 H779 0.950 . S
C802 C801 1.397 . S
C802 C803 1.334 . S
C803 H780 0.950 . S
C803 C802 1.334 . S
C803 C804 1.287 . S
C804 C803 1.287 . S
C804 C805 1.524 . S
C804 H823 0.913 . S
C805 H781 0.950 . S
C805 C804 1.524 . S
C805 C806 1.415 . S
C806 H782 0.950 . S
C806 C801 1.363 . S
C806 C805 1.415 . S
C807 H783 0.951 . S
C807 C808 1.366 . S
C807 C809 1.388 . S
C808 C807 1.366 . S
C808 C812 1.385 . S
C809 H784 0.951 . S
C809 C807 1.388 . S
C809 C810 1.366 . S
C810 C809 1.366 . S
C810 C811 1.414 . S
C810 C813 1.499 . S
C811 H785 0.950 . S
C811 C810 1.414 . S
C811 C812 1.374 . S
C812 H786 0.950 . S
C812 C808 1.385 . S
C812 C811 1.374 . S
C813 C810 1.499 . S
C813 C814 1.373 1_456 S
C813 C815 1.389 1_556 S
C814 H787 0.950 1_554 S
C814 C800 1.377 . S
C814 C813 1.373 1_654 S
C815 C799 1.377 . S
C815 C813 1.389 1_554 S
C815 C816 1.524 1_554 S
C816 C815 1.524 1_556 S
C816 C817 1.397 . S
C816 C821 1.363 1_556 S
C817 H788 0.950 . S
C817 C816 1.397 . S
C817 C818 1.334 . S
C818 H789 0.950 . S
C818 C817 1.334 . S
C818 C819 1.287 . S
C819 C818 1.287 . S
C819 C820 1.524 . S
C819 H822 0.999 . S
C820 H790 0.953 . S
C820 C819 1.524 . S
C820 C821 1.415 1_556 S
C821 H791 0.950 . S
C821 C816 1.363 1_554 S
C821 C820 1.415 1_554 S
H822 C819 0.999 . S
H823 C804 0.913 . S
H824 C842 0.951 . S
H825 C844 0.951 . S
H826 C846 0.950 . S
H827 C847 0.950 . S
H828 C849 0.950 . S
H829 C852 0.950 . S
H830 C853 0.950 . S
H831 C855 0.950 . S
H832 C856 0.950 . S
H833 C857 0.951 . S
H834 C859 0.951 . S
H835 C861 0.966 . S
H836 C862 0.950 1_565 S
H837 C864 0.950 . S
H838 C867 0.950 1_565 S
H839 C868 0.950 1_565 S
H840 C870 0.950 . S
H841 C871 0.950 . S
C842 H824 0.951 . S
C842 C843 1.366 1_565 S
C842 C844 1.388 . S
C843 C842 1.366 1_545 S
C843 C847 1.385 . S
C844 H825 0.951 . S
C844 C842 1.388 . S
C844 C845 1.366 1_565 S
C845 C844 1.366 1_545 S
C845 C846 1.414 . S
C845 C848 1.499 . S
C846 H826 0.950 . S
C846 C845 1.414 . S
C846 C847 1.374 . S
C847 H827 0.950 . S
C847 C843 1.385 . S
C847 C846 1.374 . S
C848 C845 1.499 . S
C848 C849 1.373 . S
C848 C850 1.389 . S
C849 H828 0.950 . S
C849 C848 1.373 . S
C849 C865 1.377 . S
C850 C848 1.389 . S
C850 C851 1.524 . S
C850 C864 1.377 . S
C851 C850 1.524 . S
C851 C852 1.397 . S
C851 C856 1.363 1_545 S
C852 H829 0.950 . S
C852 C851 1.397 . S
C852 C853 1.334 . S
C853 H830 0.950 . S
C853 C852 1.334 . S
C853 C854 1.287 . S
C854 C853 1.287 . S
C854 C855 1.524 1_545 S
C854 H873 0.913 . S
C855 H831 0.950 . S
C855 C854 1.524 1_565 S
C855 C856 1.415 . S
C856 H832 0.950 . S
C856 C851 1.363 1_565 S
C856 C855 1.415 . S
C857 H833 0.951 . S
C857 C858 1.366 . S
C857 C859 1.388 . S
C858 C857 1.366 . S
C858 C862 1.385 . S
C859 H834 0.951 . S
C859 C857 1.388 . S
C859 C860 1.366 . S
C860 C859 1.366 . S
C860 C861 1.399 1_545 S
C860 C863 1.499 . S
C861 H835 0.966 . S
C861 C860 1.399 1_565 S
C861 C862 1.373 1_565 S
C862 H836 0.950 1_545 S
C862 C858 1.385 . S
C862 C861 1.373 1_545 S
C863 C860 1.499 . S
C863 C864 1.373 . S
C863 C865 1.389 . S
C864 H837 0.950 . S
C864 C850 1.377 . S
C864 C863 1.373 . S
C865 C849 1.377 . S
C865 C863 1.389 . S
C865 C866 1.524 . S
C866 C865 1.524 . S
C866 C867 1.397 . S
C866 C871 1.363 . S
C867 H838 0.950 1_545 S
C867 C866 1.397 . S
C867 C868 1.334 . S
C868 H839 0.950 1_545 S
C868 C867 1.334 . S
C868 C869 1.287 . S
C869 C868 1.287 . S
C869 C870 1.524 . S
C869 H872 0.999 . S
C870 H840 0.950 . S
C870 C869 1.524 . S
C870 C871 1.415 . S
C871 H841 0.950 . S
C871 C866 1.363 . S
C871 C870 1.415 . S
H872 C869 0.999 . S
H873 C854 0.913 . S
H874 C892 0.951 . S
H875 C894 0.951 . S
H876 C896 0.950 . S
H877 C897 0.950 . S
H878 C899 0.950 . S
H879 C902 0.950 . S
H880 C903 0.950 . S
H881 C905 0.950 . S
H882 C906 0.950 . S
H883 C907 0.951 . S
H884 C909 0.951 . S
H885 C911 0.950 . S
H886 C912 0.950 . S
H887 C914 0.950 . S
H888 C917 0.950 . S
H889 C918 0.950 . S
H890 C920 0.950 . S
H891 C921 0.950 . S
C892 H874 0.951 . S
C892 C893 1.366 . S
C892 C894 1.388 . S
C893 C892 1.366 . S
C893 C897 1.385 . S
C894 H875 0.951 . S
C894 C892 1.388 . S
C894 C895 1.366 . S
C895 C894 1.366 . S
C895 C896 1.414 . S
C895 C898 1.499 . S
C896 H876 0.950 . S
C896 C895 1.414 . S
C896 C897 1.374 . S
C897 H877 0.950 . S
C897 C893 1.385 . S
C897 C896 1.374 . S
C898 C895 1.499 . S
C898 C899 1.373 . S
C898 C900 1.389 . S
C899 H878 0.950 . S
C899 C898 1.373 . S
C899 C915 1.377 . S
C900 C898 1.389 . S
C900 C901 1.524 . S
C900 C914 1.377 . S
C901 C900 1.524 . S
C901 C902 1.397 . S
C901 C906 1.363 . S
C902 H879 0.950 . S
C902 C901 1.397 . S
C902 C903 1.334 . S
C903 H880 0.950 . S
C903 C902 1.334 . S
C903 C904 1.287 . S
C904 C903 1.287 . S
C904 C905 1.524 . S
C904 H923 0.913 . S
C905 H881 0.950 . S
C905 C904 1.524 . S
C905 C906 1.415 . S
C906 H882 0.950 . S
C906 C901 1.363 . S
C906 C905 1.415 . S
C907 H883 0.951 . S
C907 C908 1.366 . S
C907 C909 1.388 . S
C908 C907 1.366 . S
C908 C912 1.385 . S
C909 H884 0.951 . S
C909 C907 1.388 . S
C909 C910 1.366 . S
C910 C909 1.366 . S
C910 C911 1.414 . S
C910 C913 1.499 . S
C911 H885 0.950 . S
C911 C910 1.414 . S
C911 C912 1.374 . S
C912 H886 0.950 . S
C912 C908 1.385 . S
C912 C911 1.374 . S
C913 C910 1.499 . S
C913 C914 1.373 . S
C913 C915 1.389 . S
C914 H887 0.950 . S
C914 C900 1.377 . S
C914 C913 1.373 . S
C915 C899 1.377 . S
C915 C913 1.389 . S
C915 C916 1.524 . S
C916 C915 1.524 . S
C916 C917 1.397 . S
C916 C921 1.363 . S
C917 H888 0.950 . S
C917 C916 1.397 . S
C917 C918 1.334 . S
C918 H889 0.950 . S
C918 C917 1.334 . S
C918 C919 1.287 . S
C919 C918 1.287 . S
C919 C920 1.524 . S
C919 H922 0.999 . S
C920 H890 0.950 . S
C920 C919 1.524 . S
C920 C921 1.415 . S
C921 H891 0.950 . S
C921 C916 1.363 . S
C921 C920 1.415 . S
H922 C919 0.999 . S
H923 C904 0.913 . S
H924 C942 0.951 . S
H925 C944 0.951 . S
H926 C946 0.950 . S
H927 C947 0.950 . S
H928 C949 0.950 . S
H929 C952 0.950 . S
H930 C953 0.950 . S
H931 C955 0.950 . S
H932 C956 0.950 . S
H933 C957 0.951 . S
H934 C959 0.951 . S
H935 C961 0.953 1_565 S
H936 C962 0.952 1_565 S
H937 C964 0.950 . S
H938 C967 0.950 . S
H939 C968 0.950 . S
H940 C970 0.950 . S
H941 C971 0.950 . S
C942 H924 0.951 . S
C942 C943 1.366 . S
C942 C944 1.388 . S
C943 C942 1.366 . S
C943 C947 1.385 . S
C944 H925 0.951 . S
C944 C942 1.388 . S
C944 C945 1.366 . S
C945 C944 1.366 . S
C945 C946 1.414 . S
C945 C948 1.499 . S
C946 H926 0.950 . S
C946 C945 1.414 . S
C946 C947 1.374 . S
C947 H927 0.950 . S
C947 C943 1.385 . S
C947 C946 1.374 . S
C948 C945 1.499 . S
C948 C949 1.373 1_545 S
C948 C950 1.389 . S
C949 H928 0.950 . S
C949 C948 1.373 1_565 S
C949 C965 1.377 . S
C950 C948 1.389 . S
C950 C951 1.524 . S
C950 C964 1.377 . S
C951 C950 1.524 . S
C951 C952 1.397 . S
C951 C956 1.363 . S
C952 H929 0.950 . S
C952 C951 1.397 . S
C952 C953 1.334 . S
C953 H930 0.950 . S
C953 C952 1.334 . S
C953 C954 1.287 . S
C954 C953 1.287 . S
C954 C955 1.524 . S
C954 H973 0.913 . S
C955 H931 0.950 . S
C955 C954 1.524 . S
C955 C956 1.415 . S
C956 H932 0.950 . S
C956 C951 1.363 . S
C956 C955 1.415 . S
C957 H933 0.951 . S
C957 C958 1.366 . S
C957 C959 1.388 . S
C958 C957 1.366 . S
C958 C962 1.383 . S
C959 H934 0.951 . S
C959 C957 1.388 . S
C959 C960 1.366 . S
C960 C959 1.366 . S
C960 C961 1.412 . S
C960 C963 1.499 . S
C961 H935 0.953 1_545 S
C961 C960 1.412 . S
C961 C962 1.374 . S
C962 H936 0.952 1_545 S
C962 C958 1.383 . S
C962 C961 1.374 . S
C963 C960 1.499 . S
C963 C964 1.373 . S
C963 C965 1.389 1_545 S
C964 H937 0.950 . S
C964 C950 1.377 . S
C964 C963 1.373 . S
C965 C949 1.377 . S
C965 C963 1.389 1_565 S
C965 C966 1.524 . S
C966 C965 1.524 . S
C966 C967 1.397 . S
C966 C971 1.363 . S
C967 H938 0.950 . S
C967 C966 1.397 . S
C967 C968 1.334 . S
C968 H939 0.950 . S
C968 C967 1.334 . S
C968 C969 1.287 . S
C969 C968 1.287 . S
C969 C970 1.524 . S
C969 H972 0.999 . S
C970 H940 0.950 . S
C970 C969 1.524 . S
C970 C971 1.415 . S
C971 H941 0.950 . S
C971 C966 1.363 . S
C971 C970 1.415 . S
H972 C969 0.999 . S
H973 C954 0.913 . S
H974 C992 0.951 . S
H975 C994 0.951 . S
H976 C996 0.950 . S
H977 C997 0.950 . S
H978 C999 0.950 . S
H979 C1002 0.950 . S
H980 C1003 0.950 . S
H981 C1005 0.950 . S
H982 C1006 0.950 . S
H983 C1007 0.951 . S
H984 C1009 0.951 . S
H985 C1011 0.950 . S
H986 C1012 0.950 . S
H987 C1014 0.950 1_554 S
H988 C1017 0.950 . S
H989 C1018 0.950 . S
H990 C1020 0.950 . S
H991 C1021 0.937 1_556 S
C992 H974 0.951 . S
C992 C993 1.366 . S
C992 C994 1.388 . S
C993 C992 1.366 . S
C993 C997 1.385 . S
C994 H975 0.951 . S
C994 C992 1.388 . S
C994 C995 1.366 . S
C995 C994 1.366 . S
C995 C996 1.414 . S
C995 C998 1.499 . S
C996 H976 0.950 . S
C996 C995 1.414 . S
C996 C997 1.374 . S
C997 H977 0.950 . S
C997 C993 1.385 . S
C997 C996 1.374 . S
C998 C995 1.499 . S
C998 C999 1.373 . S
C998 C1000 1.389 . S
C999 H978 0.950 . S
C999 C998 1.373 . S
C999 C1015 1.377 . S
C1000 C998 1.389 . S
C1000 C1001 1.524 . S
C1000 C1014 1.377 . S
C1001 C1000 1.524 . S
C1001 C1002 1.397 . S
C1001 C1006 1.363 . S
C1002 H979 0.950 . S
C1002 C1001 1.397 . S
C1002 C1003 1.334 . S
C1003 H980 0.950 . S
C1003 C1002 1.334 . S
C1003 C1004 1.287 . S
C1004 C1003 1.287 . S
C1004 C1005 1.524 . S
C1004 H1023 0.913 . S
C1005 H981 0.950 . S
C1005 C1004 1.524 . S
C1005 C1006 1.415 . S
C1006 H982 0.950 . S
C1006 C1001 1.363 . S
C1006 C1005 1.415 . S
C1007 H983 0.951 . S
C1007 C1008 1.366 . S
C1007 C1009 1.388 . S
C1008 C1007 1.366 . S
C1008 C1012 1.385 . S
C1009 H984 0.951 . S
C1009 C1007 1.388 . S
C1009 C1010 1.366 . S
C1010 C1009 1.366 . S
C1010 C1011 1.414 . S
C1010 C1013 1.499 . S
C1011 H985 0.950 . S
C1011 C1010 1.414 . S
C1011 C1012 1.374 . S
C1012 H986 0.950 . S
C1012 C1008 1.385 . S
C1012 C1011 1.374 . S
C1013 C1010 1.499 . S
C1013 C1014 1.373 1_554 S
C1013 C1015 1.389 1_554 S
C1014 H987 0.950 1_556 S
C1014 C1000 1.377 . S
C1014 C1013 1.373 1_556 S
C1015 C999 1.377 . S
C1015 C1013 1.389 1_556 S
C1015 C1016 1.524 1_556 S
C1016 C1015 1.524 1_554 S
C1016 C1017 1.397 . S
C1016 C1021 1.369 . S
C1017 H988 0.950 . S
C1017 C1016 1.397 . S
C1017 C1018 1.334 . S
C1018 H989 0.950 . S
C1018 C1017 1.334 . S
C1018 C1019 1.287 . S
C1019 C1018 1.287 . S
C1019 C1020 1.524 . S
C1019 H1022 0.999 . S
C1020 H990 0.950 . S
C1020 C1019 1.524 . S
C1020 C1021 1.423 . S
C1021 H991 0.937 1_554 S
C1021 C1016 1.369 . S
C1021 C1020 1.423 . S
H1022 C1019 0.999 . S
H1023 C1004 0.913 . S
H1024 C1042 0.951 . S
H1025 C1044 0.951 . S
H1026 C1046 0.950 . S
H1027 C1047 0.950 . S
H1028 C1049 0.950 . S
H1029 C1052 0.950 . S
H1030 C1053 0.950 . S
H1031 C1055 0.950 . S
H1032 C1056 0.950 . S
H1033 C1057 0.951 . S
H1034 C1059 0.951 . S
H1035 C1061 0.950 . S
H1036 C1062 0.950 . S
H1037 C1064 0.950 . S
H1038 C1067 0.950 . S
H1039 C1068 0.950 . S
H1040 C1070 0.950 . S
H1041 C1071 0.950 . S
C1042 H1024 0.951 . S
C1042 C1043 1.366 1_655 S
C1042 C1044 1.388 . S
C1043 C1042 1.366 1_455 S
C1043 C1047 1.385 . S
C1044 H1025 0.951 . S
C1044 C1042 1.388 . S
C1044 C1045 1.366 1_655 S
C1045 C1044 1.366 1_455 S
C1045 C1046 1.414 . S
C1045 C1048 1.499 . S
C1046 H1026 0.950 . S
C1046 C1045 1.414 . S
C1046 C1047 1.374 . S
C1047 H1027 0.950 . S
C1047 C1043 1.385 . S
C1047 C1046 1.374 . S
C1048 C1045 1.499 . S
C1048 C1049 1.373 . S
C1048 C1050 1.389 1_455 S
C1049 H1028 0.950 . S
C1049 C1048 1.373 . S
C1049 C1065 1.377 . S
C1050 C1048 1.389 1_655 S
C1050 C1051 1.524 . S
C1050 C1064 1.377 . S
C1051 C1050 1.524 . S
C1051 C1052 1.397 1_655 S
C1051 C1056 1.363 . S
C1052 H1029 0.950 . S
C1052 C1051 1.397 1_455 S
C1052 C1053 1.334 . S
C1053 H1030 0.950 . S
C1053 C1052 1.334 . S
C1053 C1054 1.287 . S
C1054 C1053 1.287 . S
C1054 C1055 1.524 1_455 S
C1054 H1073 0.913 . S
C1055 H1031 0.950 . S
C1055 C1054 1.524 1_655 S
C1055 C1056 1.415 . S
C1056 H1032 0.950 . S
C1056 C1051 1.363 . S
C1056 C1055 1.415 . S
C1057 H1033 0.951 . S
C1057 C1058 1.365 . S
C1057 C1059 1.388 . S
C1058 C1057 1.365 . S
C1058 C1062 1.385 1_455 S
C1059 H1034 0.951 . S
C1059 C1057 1.388 . S
C1059 C1060 1.365 . S
C1060 C1059 1.365 . S
C1060 C1061 1.414 1_455 S
C1060 C1063 1.499 1_455 S
C1061 H1035 0.950 . S
C1061 C1060 1.414 1_655 S
C1061 C1062 1.374 . S
C1062 H1036 0.950 . S
C1062 C1058 1.385 1_655 S
C1062 C1061 1.374 . S
C1063 C1060 1.499 1_655 S
C1063 C1064 1.377 . S
C1063 C1065 1.385 1_655 S
C1064 H1037 0.950 . S
C1064 C1050 1.377 . S
C1064 C1063 1.377 . S
C1065 C1049 1.377 . S
C1065 C1063 1.385 1_455 S
C1065 C1066 1.524 . S
C1066 C1065 1.524 . S
C1066 C1067 1.397 1_455 S
C1066 C1071 1.363 . S
C1067 H1038 0.950 . S
C1067 C1066 1.397 1_655 S
C1067 C1068 1.334 . S
C1068 H1039 0.950 . S
C1068 C1067 1.334 . S
C1068 C1069 1.287 1_655 S
C1069 C1068 1.287 1_455 S
C1069 C1070 1.524 . S
C1069 H1072 0.999 . S
C1070 H1040 0.950 . S
C1070 C1069 1.524 . S
C1070 C1071 1.415 . S
C1071 H1041 0.950 . S
C1071 C1066 1.363 . S
C1071 C1070 1.415 . S
H1072 C1069 0.999 . S
H1073 C1054 0.913 . S
C193 C19 1.768 . S
C208 C169 1.749 . S
C243 C46 1.194 . S
C258 C151 1.209 . S
C293 C95 0.429 . S
C308 C163 0.289 . S
C343 C10 1.787 . S
C358 C172 1.786 . S
C408 C154 1.256 . S
C393 C55 1.237 . S
C458 C160 0.431 . S
C443 C86 0.485 . S
C493 C59 2.945 . S
C508 C133 2.914 . S
C543 C90 1.821 . S
C558 C142 1.838 . S
C593 C15 1.249 . S
C608 C124 1.277 1_565 S
C658 C136 2.825 . S
C643 C50 2.818 . S
C708 C145 1.733 . S
C693 C99 1.749 . S
C743 C6 1.156 . S
C758 C127 1.167 . S
C808 C143 1.376 . S
C793 C9 1.326 . S
C843 C58 1.447 . S
C858 C125 1.507 . S
C893 C98 1.702 . S
C908 C134 1.773 . S
C958 C161 1.086 . S
C943 C49 1.063 . S
C1008 C170 1.365 . S
C993 C89 1.321 . S
C1043 C18 1.436 . S
C1058 C152 1.485 . S
