# Generated by pormake.
# Topology eea, (3,6)-cn, num edge types: 1
# Building blocks:
#     Node 0, Type 0, BuildingBlock: MIDCAF_clean_linker_0, # of connection points: 3
#     Node 1, Type 0, BuildingBlock: MIDCAF_clean_linker_0, # of connection points: 3
#     Node 2, Type 0, BuildingBlock: MIDCAF_clean_linker_0, # of connection points: 3
#     Node 3, Type 0, BuildingBlock: MIDCAF_clean_linker_0, # of connection points: 3
#     Node 4, Type 0, BuildingBlock: MIDCAF_clean_linker_0, # of connection points: 3
#     Node 5, Type 0, BuildingBlock: MIDCAF_clean_linker_0, # of connection points: 3
#     Node 6, Type 0, BuildingBlock: MIDCAF_clean_linker_0, # of connection points: 3
#     Node 7, Type 0, BuildingBlock: MIDCAF_clean_linker_0, # of connection points: 3
#     Node 8, Type 0, BuildingBlock: MIDCAF_clean_linker_0, # of connection points: 3
#     Node 9, Type 0, BuildingBlock: MIDCAF_clean_linker_0, # of connection points: 3
#     Node 10, Type 0, BuildingBlock: MIDCAF_clean_linker_0, # of connection points: 3
#     Node 11, Type 0, BuildingBlock: MIDCAF_clean_linker_0, # of connection points: 3
#     Node 12, Type 0, BuildingBlock: MIDCAF_clean_linker_0, # of connection points: 3
#     Node 13, Type 0, BuildingBlock: MIDCAF_clean_linker_0, # of connection points: 3
#     Node 14, Type 0, BuildingBlock: MIDCAF_clean_linker_0, # of connection points: 3
#     Node 15, Type 0, BuildingBlock: MIDCAF_clean_linker_0, # of connection points: 3
#     Node 16, Type 0, BuildingBlock: MIDCAF_clean_linker_0, # of connection points: 3
#     Node 17, Type 0, BuildingBlock: MIDCAF_clean_linker_0, # of connection points: 3
#     Node 18, Type 1, BuildingBlock: HISSIN_clean_sbu_0, # of connection points: 6
#     Node 19, Type 1, BuildingBlock: HISSIN_clean_sbu_0, # of connection points: 6
#     Node 20, Type 1, BuildingBlock: HISSIN_clean_sbu_0, # of connection points: 6
#     Node 21, Type 1, BuildingBlock: HISSIN_clean_sbu_0, # of connection points: 6
#     Node 22, Type 1, BuildingBlock: HISSIN_clean_sbu_0, # of connection points: 6
#     Node 23, Type 1, BuildingBlock: HISSIN_clean_sbu_0, # of connection points: 6
#     Node 24, Type 1, BuildingBlock: HISSIN_clean_sbu_0, # of connection points: 6
#     Node 25, Type 1, BuildingBlock: HISSIN_clean_sbu_0, # of connection points: 6
#     Node 26, Type 1, BuildingBlock: HISSIN_clean_sbu_0, # of connection points: 6
#     Edge 27, Type (0, 1), BuildingBlock: MIFKUJ_clean_linker_0, # of connection points: 2
#     Edge 28, Type (0, 1), BuildingBlock: MIFKUJ_clean_linker_0, # of connection points: 2
#     Edge 29, Type (0, 1), BuildingBlock: MIFKUJ_clean_linker_0, # of connection points: 2
#     Edge 30, Type (0, 1), BuildingBlock: MIFKUJ_clean_linker_0, # of connection points: 2
#     Edge 31, Type (0, 1), BuildingBlock: MIFKUJ_clean_linker_0, # of connection points: 2
#     Edge 32, Type (0, 1), BuildingBlock: MIFKUJ_clean_linker_0, # of connection points: 2
#     Edge 33, Type (0, 1), BuildingBlock: MIFKUJ_clean_linker_0, # of connection points: 2
#     Edge 34, Type (0, 1), BuildingBlock: MIFKUJ_clean_linker_0, # of connection points: 2
#     Edge 35, Type (0, 1), BuildingBlock: MIFKUJ_clean_linker_0, # of connection points: 2
#     Edge 36, Type (0, 1), BuildingBlock: MIFKUJ_clean_linker_0, # of connection points: 2
#     Edge 37, Type (0, 1), BuildingBlock: MIFKUJ_clean_linker_0, # of connection points: 2
#     Edge 38, Type (0, 1), BuildingBlock: MIFKUJ_clean_linker_0, # of connection points: 2
#     Edge 39, Type (0, 1), BuildingBlock: MIFKUJ_clean_linker_0, # of connection points: 2
#     Edge 40, Type (0, 1), BuildingBlock: MIFKUJ_clean_linker_0, # of connection points: 2
#     Edge 41, Type (0, 1), BuildingBlock: MIFKUJ_clean_linker_0, # of connection points: 2
#     Edge 42, Type (0, 1), BuildingBlock: MIFKUJ_clean_linker_0, # of connection points: 2
#     Edge 43, Type (0, 1), BuildingBlock: MIFKUJ_clean_linker_0, # of connection points: 2
#     Edge 44, Type (0, 1), BuildingBlock: MIFKUJ_clean_linker_0, # of connection points: 2
#     Edge 45, Type (0, 1), BuildingBlock: MIFKUJ_clean_linker_0, # of connection points: 2
#     Edge 46, Type (0, 1), BuildingBlock: MIFKUJ_clean_linker_0, # of connection points: 2
#     Edge 47, Type (0, 1), BuildingBlock: MIFKUJ_clean_linker_0, # of connection points: 2
#     Edge 48, Type (0, 1), BuildingBlock: MIFKUJ_clean_linker_0, # of connection points: 2
#     Edge 49, Type (0, 1), BuildingBlock: MIFKUJ_clean_linker_0, # of connection points: 2
#     Edge 50, Type (0, 1), BuildingBlock: MIFKUJ_clean_linker_0, # of connection points: 2
#     Edge 51, Type (0, 1), BuildingBlock: MIFKUJ_clean_linker_0, # of connection points: 2
#     Edge 52, Type (0, 1), BuildingBlock: MIFKUJ_clean_linker_0, # of connection points: 2
#     Edge 53, Type (0, 1), BuildingBlock: MIFKUJ_clean_linker_0, # of connection points: 2
#     Edge 54, Type (0, 1), BuildingBlock: MIFKUJ_clean_linker_0, # of connection points: 2
#     Edge 55, Type (0, 1), BuildingBlock: MIFKUJ_clean_linker_0, # of connection points: 2
#     Edge 56, Type (0, 1), BuildingBlock: MIFKUJ_clean_linker_0, # of connection points: 2
#     Edge 57, Type (0, 1), BuildingBlock: MIFKUJ_clean_linker_0, # of connection points: 2
#     Edge 58, Type (0, 1), BuildingBlock: MIFKUJ_clean_linker_0, # of connection points: 2
#     Edge 59, Type (0, 1), BuildingBlock: MIFKUJ_clean_linker_0, # of connection points: 2
#     Edge 60, Type (0, 1), BuildingBlock: MIFKUJ_clean_linker_0, # of connection points: 2
#     Edge 61, Type (0, 1), BuildingBlock: MIFKUJ_clean_linker_0, # of connection points: 2
#     Edge 62, Type (0, 1), BuildingBlock: MIFKUJ_clean_linker_0, # of connection points: 2
#     Edge 63, Type (0, 1), BuildingBlock: MIFKUJ_clean_linker_0, # of connection points: 2
#     Edge 64, Type (0, 1), BuildingBlock: MIFKUJ_clean_linker_0, # of connection points: 2
#     Edge 65, Type (0, 1), BuildingBlock: MIFKUJ_clean_linker_0, # of connection points: 2
#     Edge 66, Type (0, 1), BuildingBlock: MIFKUJ_clean_linker_0, # of connection points: 2
#     Edge 67, Type (0, 1), BuildingBlock: MIFKUJ_clean_linker_0, # of connection points: 2
#     Edge 68, Type (0, 1), BuildingBlock: MIFKUJ_clean_linker_0, # of connection points: 2
#     Edge 69, Type (0, 1), BuildingBlock: MIFKUJ_clean_linker_0, # of connection points: 2
#     Edge 70, Type (0, 1), BuildingBlock: MIFKUJ_clean_linker_0, # of connection points: 2
#     Edge 71, Type (0, 1), BuildingBlock: MIFKUJ_clean_linker_0, # of connection points: 2
#     Edge 72, Type (0, 1), BuildingBlock: MIFKUJ_clean_linker_0, # of connection points: 2
#     Edge 73, Type (0, 1), BuildingBlock: MIFKUJ_clean_linker_0, # of connection points: 2
#     Edge 74, Type (0, 1), BuildingBlock: MIFKUJ_clean_linker_0, # of connection points: 2
#     Edge 75, Type (0, 1), BuildingBlock: MIFKUJ_clean_linker_0, # of connection points: 2
#     Edge 76, Type (0, 1), BuildingBlock: MIFKUJ_clean_linker_0, # of connection points: 2
#     Edge 77, Type (0, 1), BuildingBlock: MIFKUJ_clean_linker_0, # of connection points: 2
#     Edge 78, Type (0, 1), BuildingBlock: MIFKUJ_clean_linker_0, # of connection points: 2
#     Edge 79, Type (0, 1), BuildingBlock: MIFKUJ_clean_linker_0, # of connection points: 2
#     Edge 80, Type (0, 1), BuildingBlock: MIFKUJ_clean_linker_0, # of connection points: 2
# Relax obj value: 0.035
# Max RMSD: 0.134
# Mean RMSD: 0.067
data_MOF--net-eea--node1-HISSIN_clean_sbu_0--node2-MIDCAF_clean_linker_0--edge1-MIFKUJ_clean_linker_0
_symmetry_space_group_name_H-M    P1
_symmetry_Int_Tables_number       1
_symmetry_cell_setting            triclinic
loop_
_symmetry_equiv_pos_as_xyz
'x, y, z'
_cell_length_a     77.93826
_cell_length_b     78.118998
_cell_length_c     107.77574
_cell_angle_alpha  93.437486
_cell_angle_beta   93.5554
_cell_angle_gamma 119.70228
loop_
_atom_site_label
_atom_site_type_symbol
_atom_site_fract_x
_atom_site_fract_y
_atom_site_fract_z
_atom_type_partial_charge
C0 C 0.28308 0.08778 0.40576 0.0
C1 C 0.2748 0.08277 0.39322 0.0
C2 C 0.27376 0.09727 0.38663 0.0
C3 C 0.28027 0.11616 0.39256 0.0
H4 H 0.26919 0.16134 0.39003 0.0
H5 H 0.25701 0.18115 0.38053 0.0
H6 H 0.29154 0.22909 0.40968 0.0
H7 H 0.30318 0.20888 0.41952 0.0
H8 H 0.31385 0.196 0.44559 0.0
H9 H 0.32443 0.20268 0.46795 0.0
H10 H 0.32439 0.14732 0.46742 0.0
H11 H 0.31423 0.14077 0.44509 0.0
H12 H 0.29548 0.10988 0.42146 0.0
H13 H 0.28391 0.07688 0.41113 0.0
H14 H 0.26779 0.09399 0.37689 0.0
H15 H 0.27894 0.12684 0.38723 0.0
N16 N 0.28918 0.15311 0.40588 0.0
N17 N 0.30113 0.17545 0.42402 0.0
N18 N 0.30143 0.14556 0.42386 0.0
C19 C 0.29303 0.17059 0.41191 0.0
C20 C 0.30541 0.16302 0.43006 0.0
C21 C 0.29339 0.14054 0.41175 0.0
C22 C 0.28707 0.18345 0.4056 0.0
C23 C 0.27435 0.17616 0.39439 0.0
C24 C 0.26744 0.18761 0.38887 0.0
C25 C 0.27323 0.20673 0.39434 0.0
C26 C 0.28648 0.21428 0.40534 0.0
C27 C 0.29325 0.20273 0.41094 0.0
C28 C 0.31308 0.16779 0.4435 0.0
C29 C 0.31625 0.18531 0.4502 0.0
C30 C 0.32222 0.18911 0.46304 0.0
C31 C 0.32519 0.17551 0.46947 0.0
C32 C 0.32247 0.15823 0.46273 0.0
C33 C 0.31651 0.15442 0.4499 0.0
C34 C 0.288 0.12101 0.40523 0.0
C35 C 0.28963 0.10669 0.4117 0.0
C36 C 0.94426 0.20207 0.4131 0.0
C37 C 0.9525 0.193 0.40585 0.0
C38 C 0.94278 0.17224 0.40391 0.0
C39 C 0.92496 0.16073 0.40897 0.0
H40 H 0.87467 0.10367 0.4051 0.0
H41 H 0.85152 0.0696 0.39651 0.0
H42 H 0.80469 0.0717 0.41483 0.0
H43 H 0.82799 0.10536 0.42382 0.0
H44 H 0.84424 0.13291 0.45003 0.0
H45 H 0.83841 0.14286 0.47029 0.0
H46 H 0.89196 0.19972 0.47129 0.0
H47 H 0.89824 0.1895 0.45102 0.0
H48 H 0.92062 0.19793 0.42395 0.0
H49 H 0.95156 0.21807 0.41475 0.0
H50 H 0.94881 0.16493 0.39828 0.0
H51 H 0.91774 0.14474 0.40724 0.0
N52 N 0.88483 0.13886 0.41622 0.0
N53 N 0.86326 0.13484 0.4314 0.0
N54 N 0.89342 0.16464 0.43204 0.0
C55 C 0.86742 0.12751 0.42101 0.0
C56 C 0.87616 0.1533 0.43702 0.0
C57 C 0.89783 0.1575 0.42163 0.0
C58 C 0.85322 0.10719 0.41521 0.0
C59 C 0.85941 0.09686 0.40726 0.0
C60 C 0.84609 0.07733 0.40228 0.0
C61 C 0.82621 0.06779 0.40502 0.0
C62 C 0.81997 0.07836 0.41275 0.0
C63 C 0.83333 0.09775 0.41785 0.0
C64 C 0.87182 0.16034 0.44888 0.0
C65 C 0.85476 0.14763 0.45446 0.0
C66 C 0.85129 0.1534 0.46609 0.0
C67 C 0.8647 0.1721 0.47245 0.0
C68 C 0.88147 0.1851 0.46672 0.0
C69 C 0.88501 0.17927 0.45506 0.0
C70 C 0.91672 0.16975 0.4163 0.0
C71 C 0.92664 0.19055 0.41839 0.0
C72 C 0.83287 0.76401 0.42338 0.0
C73 C 0.83193 0.76619 0.41053 0.0
C74 C 0.84511 0.7636 0.40333 0.0
C75 C 0.85904 0.75931 0.40888 0.0
H76 H 0.91819 0.77476 0.40748 0.0
H77 H 0.94909 0.78513 0.39826 0.0
H78 H 0.96655 0.7568 0.4255 0.0
H79 H 0.93546 0.74619 0.43477 0.0
H80 H 0.9099 0.73136 0.45823 0.0
H81 H 0.90377 0.71625 0.47785 0.0
H82 H 0.84732 0.71428 0.47671 0.0
H83 H 0.85317 0.72899 0.4571 0.0
H84 H 0.84697 0.75796 0.43882 0.0
H85 H 0.82328 0.76625 0.4293 0.0
H86 H 0.84461 0.76472 0.39337 0.0
H87 H 0.86899 0.75747 0.40307 0.0
N88 N 0.89167 0.75742 0.42225 0.0
N89 N 0.90244 0.74536 0.43863 0.0
N90 N 0.8719 0.74448 0.43854 0.0
C91 C 0.90561 0.75383 0.4277 0.0
C92 C 0.88557 0.7406 0.44409 0.0
C93 C 0.87481 0.75281 0.42761 0.0
C94 C 0.92429 0.75965 0.42192 0.0
C95 C 0.92853 0.77064 0.41153 0.0
C96 C 0.94632 0.77672 0.40626 0.0
C97 C 0.9603 0.77188 0.41119 0.0
C98 C 0.956 0.76064 0.42145 0.0
C99 C 0.93821 0.75465 0.42679 0.0
C100 C 0.88204 0.73141 0.45603 0.0
C101 C 0.89616 0.72767 0.46214 0.0
C102 C 0.8927 0.71908 0.47342 0.0
C103 C 0.87502 0.71398 0.47881 0.0
C104 C 0.86094 0.71771 0.4727 0.0
C105 C 0.86439 0.7263 0.46147 0.0
C106 C 0.85991 0.75714 0.42171 0.0
C107 C 0.84657 0.75937 0.42888 0.0
C108 C 0.05125 0.23495 0.59076 0.0
C109 C 0.04521 0.22218 0.60026 0.0
C110 C 0.05666 0.21358 0.60382 0.0
C111 C 0.07379 0.21781 0.59818 0.0
H112 H 0.12211 0.21001 0.60144 0.0
H113 H 0.14519 0.20073 0.61085 0.0
H114 H 0.18952 0.23766 0.58755 0.0
H115 H 0.16653 0.24706 0.5781 0.0
H116 H 0.153 0.26215 0.55518 0.0
H117 H 0.15938 0.27603 0.53529 0.0
H118 H 0.10091 0.2696 0.53144 0.0
H119 H 0.09461 0.25608 0.55155 0.0
H120 H 0.0726 0.24908 0.57782 0.0
H121 H 0.04298 0.24208 0.58788 0.0
H122 H 0.05229 0.20337 0.61092 0.0
H123 H 0.08219 0.21089 0.6012 0.0
N124 N 0.11133 0.23043 0.58824 0.0
N125 N 0.13209 0.2438 0.57246 0.0
N126 N 0.10224 0.24433 0.5722 0.0
C127 C 0.12831 0.23471 0.58312 0.0
C128 C 0.11914 0.24861 0.5669 0.0
C129 C 0.09825 0.23526 0.58289 0.0
C130 C 0.14243 0.22927 0.58899 0.0
C131 C 0.13679 0.21622 0.59832 0.0
C132 C 0.14996 0.2108 0.60368 0.0
C133 C 0.16913 0.21845 0.59991 0.0
C134 C 0.17488 0.23166 0.59069 0.0
C135 C 0.16164 0.23693 0.58524 0.0
C136 C 0.12323 0.25786 0.55499 0.0
C137 C 0.14147 0.26372 0.55015 0.0
C138 C 0.14511 0.27159 0.53868 0.0
C139 C 0.13059 0.27376 0.53169 0.0
C140 C 0.11249 0.26828 0.53662 0.0
C141 C 0.10885 0.26044 0.54814 0.0
C142 C 0.07987 0.23062 0.58872 0.0
C143 C 0.06832 0.23905 0.58502 0.0
C144 C 0.71251 0.79605 0.60996 0.0
C145 C 0.72033 0.80037 0.62259 0.0
C146 C 0.72112 0.81653 0.62963 0.0
C147 C 0.71494 0.82852 0.62407 0.0
H148 H 0.72888 0.88659 0.62756 0.0
H149 H 0.74223 0.92034 0.63727 0.0
H150 H 0.70872 0.93102 0.60844 0.0
H151 H 0.6953 0.89729 0.59866 0.0
H152 H 0.68997 0.87321 0.57177 0.0
H153 H 0.68082 0.86765 0.54936 0.0
H154 H 0.66738 0.80694 0.54954 0.0
H155 H 0.67719 0.81267 0.57198 0.0
H156 H 0.70082 0.80455 0.59456 0.0
H157 H 0.71187 0.78383 0.60423 0.0
H158 H 0.72672 0.82004 0.63944 0.0
H159 H 0.71613 0.84106 0.62975 0.0
N160 N 0.70772 0.85612 0.61142 0.0
N161 N 0.69659 0.86502 0.59358 0.0
N162 N 0.69504 0.83423 0.59305 0.0
C163 C 0.70452 0.86945 0.6057 0.0
C164 C 0.69176 0.84744 0.58718 0.0
C165 C 0.70294 0.83844 0.60519 0.0
C166 C 0.71112 0.88925 0.61227 0.0
C167 C 0.72414 0.89602 0.62335 0.0
C168 C 0.73189 0.91537 0.62889 0.0
C169 C 0.72658 0.92828 0.62357 0.0
C170 C 0.71296 0.92132 0.61279 0.0
C171 C 0.70538 0.90203 0.60715 0.0
C172 C 0.68447 0.84343 0.5737 0.0
C173 C 0.68492 0.8586 0.56709 0.0
C174 C 0.67954 0.85538 0.5542 0.0
C175 C 0.67341 0.83686 0.54761 0.0
C176 C 0.67236 0.82149 0.55428 0.0
C177 C 0.67789 0.82475 0.56717 0.0
C178 C 0.70776 0.82463 0.61132 0.0
C179 C 0.70626 0.80802 0.60439 0.0
C180 C 0.17438 0.91284 0.5971 0.0
C181 C 0.17321 0.91779 0.60966 0.0
C182 C 0.15782 0.90372 0.61588 0.0
C183 C 0.14372 0.88533 0.60963 0.0
H184 H 0.08831 0.83915 0.61211 0.0
H185 H 0.05755 0.81954 0.62122 0.0
H186 H 0.03451 0.77744 0.5882 0.0
H187 H 0.06522 0.79728 0.57889 0.0
H188 H 0.08958 0.80899 0.55464 0.0
H189 H 0.09429 0.8004 0.53342 0.0
H190 H 0.15591 0.84645 0.53942 0.0
H191 H 0.15138 0.85499 0.56054 0.0
H192 H 0.16161 0.89126 0.58115 0.0
H193 H 0.18584 0.9234 0.59195 0.0
H194 H 0.15665 0.9069 0.62561 0.0
H195 H 0.13199 0.87494 0.6147 0.0
N196 N 0.1124 0.84957 0.59536 0.0
N197 N 0.10041 0.82687 0.57735 0.0
N198 N 0.13163 0.85568 0.57857 0.0
C199 C 0.09787 0.83231 0.58902 0.0
C200 C 0.11731 0.83846 0.57209 0.0
C201 C 0.12931 0.86135 0.5902 0.0
C202 C 0.0793 0.81987 0.59472 0.0
C203 C 0.07676 0.8257 0.60676 0.0
C204 C 0.05913 0.81436 0.61204 0.0
C205 C 0.04357 0.7969 0.60545 0.0
C206 C 0.04613 0.79094 0.59347 0.0
C207 C 0.0638 0.80228 0.58816 0.0
C208 C 0.12008 0.83271 0.55932 0.0
C209 C 0.10416 0.81721 0.55146 0.0
C210 C 0.10681 0.81234 0.53929 0.0
C211 C 0.12547 0.82271 0.53478 0.0
C212 C 0.14141 0.83802 0.54268 0.0
C213 C 0.13875 0.84299 0.55478 0.0
C214 C 0.14474 0.88051 0.59701 0.0
C215 C 0.16038 0.89441 0.59087 0.0
C216 C 0.95043 0.42542 0.73811 0.0
C217 C 0.94126 0.41957 0.72577 0.0
C218 C 0.93903 0.43335 0.71907 0.0
C219 C 0.94531 0.45238 0.72469 0.0
H220 H 0.93724 0.49908 0.72037 0.0
H221 H 0.9262 0.51933 0.71004 0.0
H222 H 0.95677 0.56595 0.74037 0.0
H223 H 0.96796 0.54576 0.75079 0.0
H224 H 0.97622 0.53227 0.77728 0.0
H225 H 0.98463 0.53817 0.79988 0.0
H226 H 0.98924 0.48528 0.79935 0.0
H227 H 0.98054 0.47912 0.77685 0.0
H228 H 0.9633 0.44828 0.75337 0.0
H229 H 0.9522 0.4151 0.74357 0.0
H230 H 0.93231 0.42939 0.70947 0.0
H231 H 0.94305 0.46248 0.71929 0.0
N232 N 0.95522 0.49024 0.73729 0.0
N233 N 0.9665 0.51273 0.75535 0.0
N234 N 0.96673 0.48286 0.75564 0.0
C235 C 0.95891 0.5078 0.74313 0.0
C236 C 0.9705 0.50035 0.76167 0.0
C237 C 0.95916 0.47771 0.74345 0.0
C238 C 0.95341 0.52072 0.73647 0.0
C239 C 0.94179 0.5137 0.72483 0.0
C240 C 0.93535 0.52524 0.71892 0.0
C241 C 0.94053 0.54414 0.72445 0.0
C242 C 0.95266 0.55147 0.73587 0.0
C243 C 0.95896 0.53984 0.74186 0.0
C244 C 0.97747 0.50509 0.77522 0.0
C245 C 0.97918 0.52196 0.78194 0.0
C246 C 0.98409 0.52542 0.79491 0.0
C247 C 0.98739 0.51208 0.80142 0.0
C248 C 0.9864 0.49563 0.79463 0.0
C249 C 0.9815 0.49217 0.7817 0.0
C250 C 0.95394 0.45807 0.73717 0.0
C251 C 0.9567 0.44445 0.74375 0.0
C252 C 0.6061 0.52871 0.74513 0.0
C253 C 0.61133 0.52065 0.735 0.0
C254 C 0.59846 0.50075 0.73029 0.0
C255 C 0.58079 0.48926 0.7355 0.0
H256 H 0.52761 0.43776 0.72782 0.0
H257 H 0.5038 0.40477 0.7178 0.0
H258 H 0.46545 0.39657 0.74686 0.0
H259 H 0.48933 0.42935 0.75704 0.0
H260 H 0.5022 0.46303 0.7787 0.0
H261 H 0.4974 0.47027 0.79999 0.0
H262 H 0.55949 0.51497 0.80705 0.0
H263 H 0.56425 0.50807 0.78554 0.0
H264 H 0.58491 0.52384 0.75819 0.0
H265 H 0.61548 0.54406 0.74888 0.0
H266 H 0.60215 0.4939 0.72267 0.0
H267 H 0.57133 0.47397 0.73164 0.0
N268 N 0.54272 0.46737 0.74495 0.0
N269 N 0.52275 0.46175 0.76129 0.0
N270 N 0.55384 0.49073 0.7626 0.0
C271 C 0.52558 0.45572 0.74992 0.0
C272 C 0.53675 0.47919 0.76771 0.0
C273 C 0.55688 0.48492 0.75118 0.0
C274 C 0.51051 0.43621 0.74331 0.0
C275 C 0.51406 0.42901 0.73205 0.0
C276 C 0.50035 0.41011 0.72625 0.0
C277 C 0.48279 0.39801 0.73157 0.0
C278 C 0.479 0.40541 0.74264 0.0
C279 C 0.49268 0.42427 0.74844 0.0
C280 C 0.53367 0.48483 0.78041 0.0
C281 C 0.51485 0.47449 0.78474 0.0
C282 C 0.5121 0.47857 0.797 0.0
C283 C 0.52811 0.49299 0.8053 0.0
C284 C 0.54681 0.50383 0.80088 0.0
C285 C 0.54955 0.49983 0.78855 0.0
C286 C 0.57561 0.49728 0.74565 0.0
C287 C 0.5885 0.51714 0.75043 0.0
C288 C 0.50003 0.10223 0.75766 0.0
C289 C 0.49929 0.10445 0.74481 0.0
C290 C 0.51324 0.10288 0.73785 0.0
C291 C 0.52762 0.09936 0.7436 0.0
H292 H 0.58712 0.11459 0.74246 0.0
H293 H 0.61778 0.12379 0.73314 0.0
H294 H 0.6343 0.09539 0.76084 0.0
H295 H 0.60351 0.086 0.7702 0.0
H296 H 0.57996 0.07585 0.79485 0.0
H297 H 0.57477 0.06344 0.81533 0.0
H298 H 0.51647 0.05745 0.81249 0.0
H299 H 0.52171 0.07017 0.79225 0.0
H300 H 0.51436 0.0969 0.77329 0.0
H301 H 0.48985 0.10374 0.76341 0.0
H302 H 0.51295 0.10415 0.7279 0.0
H303 H 0.5381 0.09821 0.73796 0.0
N304 N 0.56017 0.09749 0.7572 0.0
N305 N 0.57128 0.08665 0.77412 0.0
N306 N 0.54071 0.08569 0.77376 0.0
C307 C 0.57423 0.09429 0.76292 0.0
C308 C 0.55451 0.08227 0.77959 0.0
C309 C 0.54338 0.09323 0.76257 0.0
C310 C 0.59279 0.09955 0.75712 0.0
C311 C 0.59721 0.11023 0.74659 0.0
C312 C 0.61487 0.11564 0.74128 0.0
C313 C 0.62849 0.1104 0.7463 0.0
C314 C 0.62402 0.09953 0.75672 0.0
C315 C 0.60641 0.09424 0.76211 0.0
C316 C 0.55132 0.07415 0.79189 0.0
C317 C 0.56602 0.07187 0.79858 0.0
C318 C 0.56301 0.06466 0.8103 0.0
C319 C 0.54526 0.05958 0.81559 0.0
C320 C 0.53048 0.06158 0.80881 0.0
C321 C 0.53347 0.0688 0.79713 0.0
C322 C 0.52823 0.09704 0.75642 0.0
C323 C 0.51421 0.09843 0.76337 0.0
C324 C 0.71456 0.57006 0.92328 0.0
C325 C 0.7101 0.55971 0.93394 0.0
C326 C 0.72325 0.55376 0.93881 0.0
C327 C 0.74042 0.55806 0.9332 0.0
H328 H 0.7907 0.55393 0.93793 0.0
H329 H 0.81403 0.54479 0.9471 0.0
H330 H 0.85106 0.56875 0.91731 0.0
H331 H 0.82768 0.57757 0.90799 0.0
H332 H 0.81569 0.5957 0.88726 0.0
H333 H 0.82197 0.60979 0.86745 0.0
H334 H 0.76632 0.6095 0.86584 0.0
H335 H 0.76006 0.59564 0.88588 0.0
H336 H 0.7347 0.58237 0.90944 0.0
H337 H 0.70488 0.57507 0.91937 0.0
H338 H 0.72013 0.54548 0.94689 0.0
H339 H 0.75011 0.55313 0.93722 0.0
N340 N 0.7763 0.56803 0.92184 0.0
N341 N 0.79634 0.58046 0.90562 0.0
N342 N 0.76676 0.58143 0.90568 0.0
C343 C 0.79296 0.57184 0.91645 0.0
C344 C 0.78338 0.58532 0.90016 0.0
C345 C 0.76312 0.57279 0.91654 0.0
C346 C 0.80724 0.56647 0.92219 0.0
C347 C 0.8038 0.55726 0.93331 0.0
C348 C 0.81723 0.5521 0.93862 0.0
C349 C 0.83439 0.55601 0.93293 0.0
C350 C 0.83785 0.56527 0.92184 0.0
C351 C 0.82445 0.57044 0.91654 0.0
C352 C 0.78729 0.59441 0.88819 0.0
C353 C 0.80474 0.59863 0.88274 0.0
C354 C 0.80832 0.60663 0.87132 0.0
C355 C 0.79458 0.61062 0.86501 0.0
C356 C 0.77727 0.60672 0.87052 0.0
C357 C 0.77365 0.59869 0.88198 0.0
C358 C 0.7449 0.56838 0.92252 0.0
C359 C 0.73174 0.57433 0.91762 0.0
C360 C 0.38704 0.12791 0.94186 0.0
C361 C 0.39559 0.13319 0.95435 0.0
C362 C 0.39671 0.14978 0.96102 0.0
C363 C 0.38986 0.16113 0.95525 0.0
H364 H 0.38481 0.21076 0.96169 0.0
H365 H 0.39327 0.2428 0.97232 0.0
H366 H 0.38 0.26046 0.93742 0.0
H367 H 0.37102 0.2284 0.92688 0.0
H368 H 0.35587 0.1995 0.90292 0.0
H369 H 0.34812 0.19452 0.88035 0.0
H370 H 0.35386 0.14224 0.87889 0.0
H371 H 0.36135 0.14696 0.90155 0.0
H372 H 0.3741 0.13498 0.92637 0.0
H373 H 0.38615 0.11532 0.93643 0.0
H374 H 0.40297 0.15406 0.97071 0.0
H375 H 0.39124 0.17398 0.96065 0.0
N376 N 0.37804 0.18571 0.94258 0.0
N377 N 0.36744 0.19399 0.92426 0.0
N378 N 0.36959 0.16511 0.92384 0.0
C379 C 0.37376 0.19822 0.93666 0.0
C380 C 0.36524 0.17746 0.91777 0.0
C381 C 0.37595 0.16909 0.93626 0.0
C382 C 0.37735 0.217 0.94339 0.0
C383 C 0.38348 0.22139 0.9563 0.0
C384 C 0.38843 0.2398 0.96239 0.0
C385 C 0.38741 0.25425 0.95572 0.0
C386 C 0.38069 0.24961 0.9429 0.0
C387 C 0.37566 0.2312 0.93683 0.0
C388 C 0.35936 0.1737 0.9041 0.0
C389 C 0.3554 0.18686 0.89784 0.0
C390 C 0.35106 0.18409 0.88487 0.0
C391 C 0.35055 0.16809 0.87782 0.0
C392 C 0.35401 0.15463 0.88407 0.0
C393 C 0.35839 0.15741 0.89707 0.0
C394 C 0.38181 0.15619 0.94265 0.0
C395 C 0.38023 0.13928 0.93607 0.0
C396 C 0.84018 0.24508 0.93147 0.0
C397 C 0.83788 0.25045 0.94368 0.0
C398 C 0.82184 0.23668 0.94959 0.0
C399 C 0.80818 0.21811 0.94335 0.0
H400 H 0.75318 0.17149 0.9453 0.0
H401 H 0.72244 0.15114 0.95428 0.0
H402 H 0.70286 0.10658 0.92279 0.0
H403 H 0.7338 0.12687 0.91374 0.0
H404 H 0.76004 0.13651 0.89058 0.0
H405 H 0.76319 0.12931 0.86874 0.0
H406 H 0.81501 0.18737 0.86968 0.0
H407 H 0.81192 0.19472 0.89139 0.0
H408 H 0.82865 0.22305 0.91577 0.0
H409 H 0.85223 0.25543 0.92659 0.0
H410 H 0.8198 0.24024 0.95905 0.0
H411 H 0.7959 0.20797 0.94817 0.0
N412 N 0.77863 0.18118 0.92943 0.0
N413 N 0.76688 0.15888 0.91125 0.0
N414 N 0.79739 0.18849 0.91237 0.0
C415 C 0.76441 0.1638 0.92306 0.0
C416 C 0.78336 0.17116 0.90584 0.0
C417 C 0.79519 0.19359 0.92418 0.0
C418 C 0.746 0.1509 0.92875 0.0
C419 C 0.74243 0.15733 0.94027 0.0
C420 C 0.72473 0.14573 0.9454 0.0
C421 C 0.71018 0.12736 0.93918 0.0
C422 C 0.71386 0.12066 0.92781 0.0
C423 C 0.73155 0.13234 0.92261 0.0
C424 C 0.78566 0.16624 0.89276 0.0
C425 C 0.77215 0.14774 0.88616 0.0
C426 C 0.77399 0.14355 0.87366 0.0
C427 C 0.78926 0.15783 0.8675 0.0
C428 C 0.80292 0.17618 0.87414 0.0
C429 C 0.80119 0.18032 0.88663 0.0
C430 C 0.81025 0.21288 0.93104 0.0
C431 C 0.82655 0.22651 0.92524 0.0
C432 C 0.61855 0.75127 0.07496 0.0
C433 C 0.6072 0.74398 0.06326 0.0
C434 C 0.60247 0.75647 0.05681 0.0
C435 C 0.60826 0.77553 0.06218 0.0
H436 H 0.61616 0.83263 0.05527 0.0
H437 H 0.60559 0.8532 0.04479 0.0
H438 H 0.60215 0.87844 0.08074 0.0
H439 H 0.61353 0.8587 0.09112 0.0
H440 H 0.63798 0.85521 0.11459 0.0
H441 H 0.64522 0.86081 0.13725 0.0
H442 H 0.64654 0.80621 0.13742 0.0
H443 H 0.63903 0.80035 0.1148 0.0
H444 H 0.63263 0.77518 0.08951 0.0
H445 H 0.62278 0.74216 0.08005 0.0
H446 H 0.5936 0.75125 0.04781 0.0
H447 H 0.6038 0.78451 0.05713 0.0
N448 N 0.61891 0.81417 0.07437 0.0
N449 N 0.62774 0.83533 0.0929 0.0
N450 N 0.62946 0.80626 0.09291 0.0
C451 C 0.62133 0.83106 0.08051 0.0
C452 C 0.63194 0.82306 0.09917 0.0
C453 C 0.623 0.8017 0.08052 0.0
C454 C 0.61571 0.84402 0.07403 0.0
C455 C 0.6133 0.84272 0.06091 0.0
C456 C 0.60713 0.85444 0.05491 0.0
C457 C 0.60299 0.86753 0.06189 0.0
C458 C 0.6056 0.8689 0.07502 0.0
C459 C 0.61203 0.85743 0.081 0.0
C460 C 0.63778 0.82725 0.11284 0.0
C461 C 0.63992 0.84442 0.11942 0.0
C462 C 0.64416 0.84771 0.13241 0.0
C463 C 0.64632 0.83389 0.13912 0.0
C464 C 0.64465 0.81697 0.13253 0.0
C465 C 0.64046 0.81369 0.11954 0.0
C466 C 0.61884 0.78248 0.07415 0.0
C467 C 0.62428 0.77027 0.08035 0.0
C468 C 0.27403 0.85916 0.07894 0.0
C469 C 0.27593 0.85347 0.06671 0.0
C470 C 0.25992 0.83638 0.06009 0.0
C471 C 0.24256 0.82503 0.06563 0.0
H472 H 0.18415 0.77668 0.05833 0.0
H473 H 0.15983 0.74431 0.04772 0.0
H474 H 0.14217 0.72277 0.08347 0.0
H475 H 0.16571 0.75535 0.09396 0.0
H476 H 0.17214 0.792 0.11457 0.0
H477 H 0.16857 0.80056 0.13592 0.0
H478 H 0.22759 0.85166 0.13926 0.0
H479 H 0.23137 0.84301 0.11785 0.0
H480 H 0.25582 0.85246 0.09402 0.0
H481 H 0.28616 0.87216 0.08434 0.0
H482 H 0.26077 0.83178 0.05057 0.0
H483 H 0.23063 0.81187 0.06024 0.0
N484 N 0.20825 0.80024 0.0779 0.0
N485 N 0.19018 0.79356 0.09529 0.0
N486 N 0.22062 0.82311 0.09584 0.0
C487 C 0.192 0.78805 0.08349 0.0
C488 C 0.20433 0.81111 0.10152 0.0
C489 C 0.22266 0.81778 0.08401 0.0
C490 C 0.17685 0.76858 0.07698 0.0
C491 C 0.17497 0.76503 0.0639 0.0
C492 C 0.16109 0.74641 0.05782 0.0
C493 C 0.149 0.73079 0.0647 0.0
C494 C 0.15087 0.73446 0.0778 0.0
C495 C 0.1645 0.75316 0.08385 0.0
C496 C 0.20208 0.81678 0.11445 0.0
C497 C 0.1844 0.80511 0.1198 0.0
C498 C 0.18226 0.81009 0.13203 0.0
C499 C 0.19777 0.82682 0.13927 0.0
C500 C 0.21543 0.83859 0.13394 0.0
C501 C 0.21755 0.83366 0.12165 0.0
C502 C 0.24076 0.83047 0.07796 0.0
C503 C 0.25664 0.8478 0.08451 0.0
C504 C 0.15792 0.42706 0.08656 0.0
C505 C 0.1587 0.43205 0.0742 0.0
C506 C 0.17381 0.43258 0.06744 0.0
C507 C 0.18785 0.42838 0.07293 0.0
H508 H 0.2454 0.44033 0.07092 0.0
H509 H 0.27555 0.44913 0.0612 0.0
H510 H 0.29075 0.41754 0.08723 0.0
H511 H 0.26078 0.40922 0.09726 0.0
H512 H 0.2376 0.39888 0.12238 0.0
H513 H 0.23199 0.38524 0.14251 0.0
H514 H 0.17527 0.38273 0.14092 0.0
H515 H 0.1806 0.39597 0.12084 0.0
H516 H 0.17083 0.41904 0.10157 0.0
H517 H 0.14672 0.42682 0.09212 0.0
H518 H 0.17468 0.43605 0.05784 0.0
H519 H 0.19924 0.42891 0.06743 0.0
N520 N 0.21856 0.42301 0.08561 0.0
N521 N 0.22941 0.41119 0.1021 0.0
N522 N 0.19926 0.41106 0.10221 0.0
C523 C 0.23237 0.41919 0.09101 0.0
C524 C 0.21284 0.40707 0.10776 0.0
C525 C 0.20196 0.41898 0.09115 0.0
C526 C 0.25061 0.42407 0.08492 0.0
C527 C 0.2551 0.43518 0.07459 0.0
C528 C 0.27239 0.44015 0.06893 0.0
C529 C 0.28561 0.43401 0.07338 0.0
C530 C 0.28106 0.42276 0.08365 0.0
C531 C 0.26379 0.4179 0.08938 0.0
C532 C 0.20957 0.39855 0.11993 0.0
C533 C 0.22389 0.39535 0.12629 0.0
C534 C 0.22074 0.38762 0.13786 0.0
C535 C 0.20315 0.38283 0.14329 0.0
C536 C 0.18884 0.38596 0.13691 0.0
C537 C 0.19199 0.39371 0.1254 0.0
C538 C 0.18704 0.42338 0.08528 0.0
C539 C 0.17186 0.4227 0.09201 0.0
C540 C 0.38274 0.89407 0.25615 0.0
C541 C 0.38031 0.88784 0.26821 0.0
C542 C 0.3956 0.88611 0.27458 0.0
C543 C 0.41284 0.89043 0.26901 0.0
H544 H 0.46312 0.88622 0.27362 0.0
H545 H 0.48665 0.87773 0.28317 0.0
H546 H 0.52055 0.89546 0.25143 0.0
H547 H 0.4973 0.90441 0.24197 0.0
H548 H 0.48693 0.92679 0.22219 0.0
H549 H 0.49276 0.94133 0.20244 0.0
H550 H 0.43504 0.93661 0.20032 0.0
H551 H 0.42899 0.92181 0.22 0.0
H552 H 0.40131 0.90317 0.24128 0.0
H553 H 0.37116 0.8953 0.2509 0.0
H554 H 0.39439 0.88167 0.28396 0.0
H555 H 0.4243 0.88898 0.27423 0.0
N556 N 0.44706 0.89702 0.25649 0.0
N557 N 0.46703 0.90947 0.2402 0.0
N558 N 0.43705 0.90967 0.24012 0.0
C559 C 0.4638 0.90103 0.25111 0.0
C560 C 0.45376 0.91387 0.23465 0.0
C561 C 0.43359 0.90128 0.25105 0.0
C562 C 0.47825 0.896 0.257 0.0
C563 C 0.47558 0.88835 0.26865 0.0
C564 C 0.48903 0.88335 0.27411 0.0
C565 C 0.50545 0.88583 0.26805 0.0
C566 C 0.50819 0.89358 0.25643 0.0
C567 C 0.49477 0.89862 0.25097 0.0
C568 C 0.45745 0.92305 0.22271 0.0
C569 C 0.47544 0.92884 0.21755 0.0
C570 C 0.47887 0.93731 0.20626 0.0
C571 C 0.46437 0.94014 0.19983 0.0
C572 C 0.44642 0.93444 0.20499 0.0
C573 C 0.44301 0.92604 0.21632 0.0
C574 C 0.41528 0.8967 0.25696 0.0
C575 C 0.40003 0.8985 0.2506 0.0
C576 C 0.04977 0.46141 0.27245 0.0
C577 C 0.06646 0.46974 0.28137 0.0
C578 C 0.07605 0.49005 0.28537 0.0
C579 C 0.06919 0.50195 0.28046 0.0
H580 H 0.06697 0.55286 0.28946 0.0
H581 H 0.07942 0.58623 0.29944 0.0
H582 H 0.05326 0.59967 0.26769 0.0
H583 H 0.04105 0.56644 0.25756 0.0
H584 H 0.02606 0.53816 0.23321 0.0
H585 H 0.01529 0.53198 0.21094 0.0
H586 H 0.00963 0.47408 0.2102 0.0
H587 H 0.02031 0.48009 0.23258 0.0
H588 H 0.03046 0.46671 0.26028 0.0
H589 H 0.04222 0.44575 0.26923 0.0
H590 H 0.08891 0.49673 0.29228 0.0
H591 H 0.07706 0.51763 0.28364 0.0
N592 N 0.05145 0.52455 0.2716 0.0
N593 N 0.03765 0.532 0.25429 0.0
N594 N 0.03724 0.50175 0.25366 0.0
C595 C 0.04688 0.53719 0.26612 0.0
C596 C 0.03274 0.51433 0.24799 0.0
C597 C 0.04658 0.50679 0.26547 0.0
C598 C 0.05313 0.55695 0.27264 0.0
C599 C 0.06372 0.56284 0.28461 0.0
C600 C 0.07079 0.58196 0.29039 0.0
C601 C 0.06743 0.59562 0.28432 0.0
C602 C 0.05636 0.58957 0.27252 0.0
C603 C 0.04927 0.57046 0.26674 0.0
C604 C 0.02426 0.5097 0.23471 0.0
C605 C 0.02236 0.52401 0.22838 0.0
C606 C 0.01629 0.52054 0.21559 0.0
C607 C 0.01184 0.50265 0.20882 0.0
C608 C 0.01291 0.48798 0.2152 0.0
C609 C 0.01911 0.49149 0.22801 0.0
C610 C 0.05284 0.4938 0.27125 0.0
C611 C 0.04313 0.4734 0.26733 0.0
C612 C 0.50707 0.5886 0.26038 0.0
C613 C 0.50886 0.59386 0.2733 0.0
C614 C 0.49636 0.57945 0.28077 0.0
C615 C 0.48226 0.56039 0.27541 0.0
H616 H 0.42403 0.51668 0.27825 0.0
H617 H 0.39434 0.49762 0.28843 0.0
H618 H 0.37622 0.44731 0.26115 0.0
H619 H 0.40577 0.46668 0.25066 0.0
H620 H 0.42606 0.4786 0.22334 0.0
H621 H 0.43041 0.469 0.20222 0.0
H622 H 0.49118 0.51713 0.20681 0.0
H623 H 0.48703 0.52654 0.22775 0.0
H624 H 0.49216 0.56603 0.24507 0.0
H625 H 0.51612 0.59935 0.25428 0.0
H626 H 0.49753 0.5828 0.29078 0.0
H627 H 0.47284 0.54967 0.28141 0.0
N628 N 0.44937 0.52356 0.2626 0.0
N629 N 0.43739 0.49873 0.24572 0.0
N630 N 0.46749 0.52835 0.24537 0.0
C631 C 0.4352 0.50536 0.25717 0.0
C632 C 0.4536 0.51017 0.23979 0.0
C633 C 0.46552 0.53514 0.25675 0.0
C634 C 0.41734 0.49327 0.26358 0.0
C635 C 0.41381 0.50153 0.27441 0.0
C636 C 0.39678 0.49053 0.28032 0.0
C637 C 0.38286 0.47088 0.27565 0.0
C638 C 0.38648 0.46249 0.26491 0.0
C639 C 0.4035 0.47358 0.25892 0.0
C640 C 0.45616 0.50339 0.22725 0.0
C641 C 0.44039 0.48699 0.21987 0.0
C642 C 0.44284 0.48156 0.20776 0.0
C643 C 0.46115 0.49227 0.20287 0.0
C644 C 0.47697 0.50838 0.21035 0.0
C645 C 0.47451 0.51388 0.22236 0.0
C646 C 0.48056 0.5552 0.26251 0.0
C647 C 0.49322 0.56948 0.25507 0.0
Eu648 Eu 0.48755 0.98269 0.99282 0.0
Eu649 Eu 0.5039 0.00986 0.02016 0.0
C650 C 0.48187 0.02013 0.99872 0.0
C651 C 0.48303 0.9713 0.95805 0.0
C652 C 0.49218 0.99167 0.95686 0.0
C653 C 0.48635 0.9652 0.93623 0.0
C654 C 0.49831 -0.00124 0.94541 0.0
C655 C 0.48017 0.9581 0.9477 0.0
C656 C 0.49548 0.98561 0.93497 0.0
C657 C 0.47783 0.96409 0.97031 0.0
O658 O 0.47109 0.98884 0.02036 0.0
O659 O 0.46587 0.96361 0.00573 0.0
C660 C 0.46028 0.97047 0.01515 0.0
O661 O 0.50733 0.97376 1.00323 0.0
O662 O 0.50057 0.02788 0.03503 0.0
O663 O 0.52578 0.02328 0.03654 0.0
O664 O 0.50355 0.98157 0.02329 0.0
C665 C 0.50871 0.97215 0.01525 0.0
O666 O 0.51371 0.01189 0.98975 0.0
O667 O 0.5304 0.01923 0.00926 0.0
O668 O 0.49759 0.02777 0.00696 0.0
O669 O 0.4927 0.96633 0.97782 0.0
O670 O 0.46652 0.96923 0.97599 0.0
O671 O 0.4731 0.00147 0.99409 0.0
C672 C 0.51131 0.02388 0.05489 0.0
C673 C 0.50015 0.00374 0.05663 0.0
C674 C 0.51388 0.03243 0.07722 0.0
C675 C 0.4959 0.99796 0.06859 0.0
C676 C 0.51814 0.03819 0.06522 0.0
C677 C 0.50268 0.01223 0.07903 0.0
C678 C 0.51559 0.02984 0.04229 0.0
C679 C 0.53026 0.02111 0.99724 0.0
H680 H 0.49479 0.00211 0.96482 0.0
H681 H 0.48385 0.9547 0.92832 0.0
H682 H 0.50559 0.01458 0.9448 0.0
H683 H 0.47333 0.94236 0.94851 0.0
H684 H 0.49476 0.99249 0.04873 0.0
H685 H 0.51912 0.04378 0.08504 0.0
H686 H 0.48752 0.98229 0.06967 0.0
H687 H 0.5267 0.05381 0.06401 0.0
Eu688 Eu 0.00655 0.49388 0.99072 0.0
Eu689 Eu 0.98173 0.48744 0.01539 0.0
C690 C 0.96934 0.45268 0.99442 0.0
C691 C 0.02358 0.50307 0.95792 0.0
C692 C 0.02633 0.49264 0.94794 0.0
C693 C 0.01655 0.52177 0.94321 0.0
C694 C 0.02393 0.4965 0.93568 0.0
C695 C 0.01876 0.51775 0.95551 0.0
C696 C 0.01884 0.51096 0.93318 0.0
C697 C 0.0247 0.49749 0.9706 0.0
O698 O 0.00248 0.47565 0.01957 0.0
O699 O 0.02598 0.49198 0.0062 0.0
C700 C 0.02017 0.48172 0.01584 0.0
O701 O 0.01629 0.52422 1.00023 0.0
O702 O 0.9628 0.46755 0.02825 0.0
O703 O 0.97064 0.49842 0.03014 0.0
O704 O 0.01083 0.5157 0.02017 0.0
C705 C 0.01951 0.52901 0.01238 0.0
O706 O 0.97955 0.49558 0.98395 0.0
O707 O 0.97157 0.50341 1.00282 0.0
O708 O 0.96247 0.46264 1.00046 0.0
O709 O 0.03111 0.5114 0.97988 0.0
O710 O 0.00948 0.48104 0.97302 0.0
O711 O 0.98819 0.46127 0.9927 0.0
C712 C 0.96654 0.48267 0.04883 0.0
C713 C 0.97177 0.50007 0.05652 0.0
C714 C 0.96816 0.46695 0.06736 0.0
C715 C 0.97529 0.50095 0.06947 0.0
C716 C 0.96466 0.46608 0.0544 0.0
C717 C 0.97353 0.4844 0.07504 0.0
C718 C 0.96245 0.48169 0.03513 0.0
C719 C 0.97008 0.50227 0.99055 0.0
H720 H 0.02999 0.48123 0.94963 0.0
H721 H 0.01247 0.53288 0.94151 0.0
H722 H 0.02596 0.4881 0.92813 0.0
H723 H 0.01635 0.52582 0.96309 0.0
H724 H 0.97303 0.51302 0.05255 0.0
H725 H 0.96683 0.45401 0.07135 0.0
H726 H 0.97908 0.51451 0.07515 0.0
H727 H 0.96046 0.45237 0.04875 0.0
Eu728 Eu 0.50902 0.49604 0.01795 0.0
Eu729 Eu 0.49065 0.50515 0.99229 0.0
C730 C 0.51604 0.53898 0.01485 0.0
C731 C 0.51763 0.4885 0.05159 0.0
C732 C 0.50669 0.4973 0.05548 0.0
C733 C 0.51823 0.47802 0.07227 0.0
C734 C 0.50156 0.49649 0.06772 0.0
C735 C 0.5234 0.47889 0.06004 0.0
C736 C 0.50718 0.48675 0.07625 0.0
C737 C 0.52208 0.48833 0.03857 0.0
O738 O 0.51548 0.50045 0.98675 0.0
O739 O 0.53406 0.50972 0.00581 0.0
C740 C 0.5325 0.50685 0.99355 0.0
O741 O 0.49889 0.46971 1.00376 0.0
O742 O 0.49345 0.52607 0.97889 0.0
O743 O 0.46867 0.4961 0.97609 0.0
O744 O 0.47425 0.47215 0.99288 0.0
C745 C 0.48217 0.46161 0.99642 0.0
O746 O 0.47743 0.48714 0.02077 0.0
O747 O 0.47085 0.50484 0.00675 0.0
O748 O 0.51359 0.53433 1.00273 0.0
O749 O 0.50753 0.47487 0.03073 0.0
O750 O 0.53107 0.50551 0.03416 0.0
O751 O 0.51069 0.5253 0.02257 0.0
C752 C 0.4826 0.51139 0.9582 0.0
C753 C 0.48826 0.49778 0.9539 0.0
C754 C 0.48639 0.52376 0.93783 0.0
C755 C 0.49275 0.49703 0.94159 0.0
C756 C 0.48173 0.52438 0.95011 0.0
C757 C 0.4919 0.51004 0.93344 0.0
C758 C 0.47851 0.51278 0.97124 0.0
C759 C 0.46654 0.49444 0.01641 0.0
H760 H 0.50198 0.50466 0.04902 0.0
H761 H 0.52255 0.47015 0.07853 0.0
H762 H 0.49328 0.5036 0.0705 0.0
H763 H 0.53166 0.47183 0.05712 0.0
H764 H 0.48935 0.48783 0.96007 0.0
H765 H 0.48547 0.53386 0.93172 0.0
H766 H 0.49719 0.48648 0.93851 0.0
H767 H 0.47755 0.53509 0.95331 0.0
Eu768 Eu 0.15653 0.32084 0.32463 0.0
Eu769 Eu 0.17202 0.3475 0.35229 0.0
C770 C 0.1512 0.35786 0.3299 0.0
C771 C 0.14946 0.3074 0.28975 0.0
C772 C 0.16251 0.32728 0.28811 0.0
C773 C 0.14625 0.29871 0.2674 0.0
C774 C 0.16741 0.33286 0.27618 0.0
C775 C 0.14137 0.29315 0.27935 0.0
C776 C 0.15934 0.31863 0.26567 0.0
C777 C 0.14455 0.30153 0.30231 0.0
O778 O 0.14712 0.31738 0.35521 0.0
O779 O 0.13014 0.3103 0.33582 0.0
C780 C 0.13058 0.30773 0.34773 0.0
O781 O 0.16496 0.30334 0.33698 0.0
O782 O 0.16472 0.36101 0.36784 0.0
O783 O 0.19392 0.36411 0.36838 0.0
O784 O 0.18594 0.32833 0.35223 0.0
C785 C 0.17897 0.31054 0.34642 0.0
O786 O 0.18894 0.34238 0.32408 0.0
O787 O 0.19452 0.36664 0.33968 0.0
O788 O 0.15096 0.35475 0.34171 0.0
O789 O 0.15893 0.30234 0.30965 0.0
O790 O 0.13507 0.309 0.308 0.0
O791 O 0.15804 0.34985 0.32208 0.0
C792 C 0.17934 0.36027 0.38728 0.0
C793 C 0.17313 0.34047 0.38905 0.0
C794 C 0.17928 0.36739 0.4095 0.0
C795 C 0.16994 0.33414 0.40098 0.0
C796 C 0.1825 0.37371 0.39755 0.0
C797 C 0.17283 0.3475 0.41134 0.0
C798 C 0.18139 0.36661 0.37464 0.0
C799 C 0.19983 0.36037 0.32982 0.0
H800 H 0.1689 0.33848 0.29607 0.0
H801 H 0.13998 0.28735 0.25954 0.0
H802 H 0.17731 0.34835 0.27517 0.0
H803 H 0.13135 0.27772 0.28049 0.0
H804 H 0.17043 0.32984 0.38118 0.0
H805 H 0.18187 0.37809 0.41729 0.0
H806 H 0.16473 0.31868 0.40204 0.0
H807 H 0.18722 0.38903 0.39631 0.0
Eu808 Eu 0.68219 0.8353 0.32988 0.0
Eu809 Eu 0.65557 0.82244 0.35401 0.0
C810 C 0.64446 0.7919 0.32946 0.0
C811 C 0.69583 0.84652 0.2972 0.0
C812 C 0.67569 0.83772 0.29269 0.0
C813 C 0.70496 0.85701 0.27675 0.0
C814 C 0.6702 0.83842 0.28023 0.0
C815 C 0.71043 0.85621 0.2892 0.0
C816 C 0.68479 0.84807 0.27213 0.0
C817 C 0.70164 0.84596 0.31029 0.0
O818 O 0.68402 0.82322 0.36039 0.0
O819 O 0.69406 0.81949 0.34127 0.0
C820 C 0.69497 0.81899 0.35345 0.0
O821 O 0.70084 0.85822 0.34582 0.0
O822 O 0.64137 0.80166 0.36771 0.0
O823 O 0.63824 0.8277 0.36729 0.0
O824 O 0.67588 0.8556 0.35716 0.0
C825 C 0.69416 0.86564 0.35421 0.0
O826 O 0.66118 0.84718 0.32821 0.0
O827 O 0.63623 0.82448 0.33845 0.0
O828 O 0.64591 0.79428 0.34171 0.0
O829 O 0.70027 0.85829 0.3183 0.0
O830 O 0.69459 0.82836 0.31405 0.0
O831 O 0.65436 0.80672 0.32288 0.0
C832 C 0.6386 0.81552 0.38701 0.0
C833 C 0.64852 0.83456 0.39357 0.0
C834 C 0.6352 0.80118 0.40672 0.0
C835 C 0.65165 0.83685 0.40663 0.0
C836 C 0.63191 0.79889 0.3937 0.0
C837 C 0.6451 0.82017 0.41332 0.0
C838 C 0.63507 0.81249 0.37325 0.0
C839 C 0.64255 0.83792 0.33053 0.0
H840 H 0.66424 0.83033 0.29882 0.0
H841 H 0.71652 0.86431 0.27068 0.0
H842 H 0.65457 0.83154 0.27696 0.0
H843 H 0.72604 0.86312 0.29257 0.0
H844 H 0.65393 0.84766 0.38864 0.0
H845 H 0.62977 0.78807 0.41165 0.0
H846 H 0.65945 0.85166 0.41149 0.0
H847 H 0.62414 0.78407 0.38884 0.0
Eu848 Eu 0.18245 0.83657 0.35269 0.0
Eu849 Eu 0.16175 0.84138 0.32655 0.0
C850 C 0.18827 0.87795 0.34643 0.0
C851 C 0.19017 0.82673 0.38611 0.0
C852 C 0.20336 0.83425 0.39704 0.0
C853 C 0.16271 0.80964 0.39857 0.0
C854 C 0.19629 0.82971 0.40869 0.0
C855 C 0.1698 0.81432 0.38691 0.0
C856 C 0.17585 0.81748 0.40962 0.0
C857 C 0.19768 0.83329 0.3741 0.0
O858 O 0.19377 0.85251 0.3235 0.0
O859 O 0.20196 0.83669 0.33807 0.0
C860 C 0.2055 0.84628 0.32807 0.0
O861 O 0.15862 0.80614 0.34441 0.0
O862 O 0.15979 0.86021 0.31311 0.0
O863 O 0.14014 0.82842 0.30994 0.0
O864 O 0.16202 0.81274 0.32413 0.0
C865 C 0.15648 0.80005 0.33252 0.0
O866 O 0.15559 0.83783 0.35798 0.0
O867 O 0.13692 0.82793 0.33887 0.0
O868 O 0.17071 0.86824 0.34002 0.0
O869 O 0.19104 0.81976 0.36456 0.0
O870 O 0.19812 0.84947 0.37126 0.0
O871 O 0.1979 0.86875 0.34945 0.0
C872 C 0.15191 0.84544 0.29218 0.0
C873 C 0.13691 0.83345 0.28257 0.0
C874 C 0.17591 0.85693 0.27689 0.0
C875 C 0.14136 0.83309 0.27022 0.0
C876 C 0.17148 0.85713 0.28924 0.0
C877 C 0.16093 0.84485 0.26721 0.0
C878 C 0.14701 0.8453 0.3052 0.0
C879 C 0.13851 0.83086 0.35113 0.0
H880 H 0.21909 0.84407 0.39659 0.0
H881 H 0.14692 0.80002 0.39891 0.0
H882 H 0.20682 0.83635 0.41697 0.0
H883 H 0.15935 0.80854 0.37855 0.0
H884 H 0.12174 0.82421 0.28465 0.0
H885 H 0.19108 0.8664 0.27493 0.0
H886 H 0.12949 0.82334 0.26307 0.0
H887 H 0.18341 0.86645 0.29647 0.0
Eu888 Eu 0.81843 0.65498 0.65823 0.0
Eu889 Eu 0.83638 0.68175 0.68568 0.0
C890 C 0.81022 0.68983 0.66605 0.0
C891 C 0.81389 0.63912 0.62367 0.0
C892 C 0.82963 0.65776 0.62173 0.0
C893 C 0.81179 0.62773 0.60188 0.0
C894 C 0.83617 0.6615 0.60989 0.0
C895 C 0.80519 0.62405 0.61373 0.0
C896 C 0.82714 0.64662 0.59976 0.0
C897 C 0.80591 0.63574 0.63584 0.0
O898 O 0.80473 0.65905 0.68772 0.0
O899 O 0.79786 0.63529 0.67145 0.0
C900 C 0.79363 0.64108 0.68197 0.0
O901 O 0.8427 0.6501 0.66663 0.0
O902 O 0.83407 0.69969 0.70107 0.0
O903 O 0.859 0.69459 0.70169 0.0
O904 O 0.83777 0.65388 0.68698 0.0
C905 C 0.8446 0.64707 0.67834 0.0
O906 O 0.84447 0.68394 0.65446 0.0
O907 O 0.862 0.69337 0.67391 0.0
O908 O 0.82714 0.69847 0.6732 0.0
O909 O 0.81539 0.63161 0.64445 0.0
O910 O 0.80117 0.6486 0.64018 0.0
O911 O 0.80167 0.671 0.66195 0.0
C912 C 0.84558 0.69518 0.72053 0.0
C913 C 0.83535 0.67499 0.7223 0.0
C914 C 0.84786 0.70358 0.74285 0.0
C915 C 0.83149 0.66912 0.73428 0.0
C916 C 0.8518 0.70944 0.73085 0.0
C917 C 0.83769 0.68335 0.74469 0.0
C918 C 0.8493 0.70127 0.7079 0.0
C919 C 0.86115 0.69444 0.66179 0.0
H920 H 0.83649 0.66958 0.62931 0.0
H921 H 0.80472 0.61584 0.59435 0.0
H922 H 0.84783 0.67628 0.60861 0.0
H923 H 0.79307 0.60954 0.61509 0.0
H924 H 0.83027 0.66378 0.71439 0.0
H925 H 0.85297 0.71487 0.7507 0.0
H926 H 0.82338 0.65344 0.73537 0.0
H927 H 0.85966 0.72508 0.72961 0.0
Eu928 Eu 0.34251 0.16005 0.65997 0.0
Eu929 Eu 0.31788 0.15289 0.68472 0.0
C930 C 0.30638 0.11806 0.66373 0.0
C931 C 0.36023 0.17122 0.62747 0.0
C932 C 0.34229 0.16845 0.62165 0.0
C933 C 0.37582 0.18272 0.60856 0.0
C934 C 0.34101 0.17236 0.60924 0.0
C935 C 0.37704 0.1787 0.62094 0.0
C936 C 0.35768 0.17918 0.60248 0.0
C937 C 0.36136 0.16531 0.64003 0.0
O938 O 0.33949 0.14218 0.68897 0.0
O939 O 0.3625 0.15888 0.67542 0.0
C940 C 0.35716 0.1487 0.68513 0.0
O941 O 0.34979 0.18991 0.66914 0.0
O942 O 0.29968 0.13298 0.69784 0.0
O943 O 0.3066 0.16359 0.69949 0.0
O944 O 0.34661 0.18166 0.68915 0.0
C945 C 0.35393 0.19503 0.68124 0.0
O946 O 0.31437 0.1595 0.65307 0.0
O947 O 0.30619 0.16736 0.67186 0.0
O948 O 0.29914 0.12738 0.6701 0.0
O949 O 0.36697 0.17895 0.64939 0.0
O950 O 0.34657 0.14838 0.64226 0.0
O951 O 0.32511 0.12728 0.66167 0.0
C952 C 0.30358 0.14832 0.71805 0.0
C953 C 0.32338 0.15884 0.72344 0.0
C954 C 0.29264 0.13983 0.73851 0.0
C955 C 0.32777 0.15997 0.73634 0.0
C956 C 0.28827 0.1388 0.72563 0.0
C957 C 0.31244 0.15046 0.74401 0.0
C958 C 0.29874 0.14691 0.70453 0.0
C959 C 0.30435 0.16562 0.65957 0.0
H960 H 0.32914 0.16273 0.62658 0.0
H961 H 0.38902 0.18832 0.60371 0.0
H962 H 0.32678 0.16931 0.60483 0.0
H963 H 0.39103 0.18104 0.62533 0.0
H964 H 0.3354 0.16614 0.71768 0.0
H965 H 0.28052 0.13254 0.7442 0.0
H966 H 0.34316 0.16808 0.7403 0.0
H967 H 0.27292 0.13058 0.72159 0.0
Eu968 Eu 0.8476 0.17225 0.6855 0.0
Eu969 Eu 0.82775 0.17826 0.65945 0.0
C970 C 0.85533 0.21433 0.67964 0.0
C971 C 0.85119 0.16096 0.71866 0.0
C972 C 0.83425 0.16229 0.72068 0.0
C973 C 0.85119 0.15016 0.73931 0.0
C974 C 0.82612 0.15807 0.73203 0.0
C975 C 0.85945 0.1546 0.72796 0.0
C976 C 0.83467 0.15221 0.74153 0.0
C977 C 0.86049 0.16686 0.70704 0.0
O978 O 0.85915 0.18714 0.65591 0.0
O979 O 0.86778 0.17266 0.6713 0.0
C980 C 0.87098 0.18129 0.6609 0.0
O981 O 0.82326 0.14237 0.67668 0.0
O982 O 0.82701 0.19825 0.64649 0.0
O983 O 0.80576 0.16684 0.64304 0.0
O984 O 0.8268 0.14909 0.65643 0.0
C985 C 0.82104 0.13633 0.66477 0.0
O986 O 0.8217 0.17546 0.69063 0.0
O987 O 0.8028 0.16453 0.67167 0.0
O988 O 0.83778 0.20512 0.6732 0.0
O989 O 0.85298 0.15337 0.69747 0.0
O990 O 0.86372 0.18405 0.70402 0.0
O991 O 0.86435 0.20458 0.6827 0.0
C992 C 0.81755 0.18441 0.62529 0.0
C993 C 0.80593 0.16774 0.61659 0.0
C994 C 0.83703 0.20185 0.60873 0.0
C995 C 0.80995 0.16806 0.60411 0.0
C996 C 0.83302 0.20154 0.62119 0.0
C997 C 0.82563 0.18508 0.60006 0.0
C998 C 0.81342 0.18397 0.63854 0.0
C999 C 0.80448 0.16798 0.68389 0.0
H1000 H 0.82755 0.167 0.71357 0.0
H1001 H 0.85814 0.1458 0.74651 0.0
H1002 H 0.81327 0.15958 0.73343 0.0
H1003 H 0.8725 0.15344 0.72653 0.0
H1004 H 0.79379 0.15439 0.61943 0.0
H1005 H 0.84898 0.21531 0.60586 0.0
H1006 H 0.80098 0.15484 0.59769 0.0
H1007 H 0.84211 0.21476 0.62759 0.0
H1008 H 0.29508 0.83932 0.05258 0.0
H1009 H 0.32585 0.85834 0.04307 0.0
H1010 H 0.33031 0.91279 0.05854 0.0
H1011 H 0.29915 0.89385 0.06776 0.0
H1012 H 0.3384 0.91455 0.03453 0.0
H1013 H 0.35871 0.89557 0.07177 0.0
H1014 H 0.35792 0.87233 0.08653 0.0
H1015 H 0.37189 0.84178 0.05801 0.0
H1016 H 0.3725 0.8647 0.04301 0.0
H1017 H 0.44013 0.9816 0.03042 0.0
H1018 H 0.40824 0.96048 0.03814 0.0
H1019 H 0.40488 0.90897 0.01853 0.0
H1020 H 0.43687 0.93007 0.01063 0.0
H1021 H 0.39581 0.90449 0.04361 0.0
H1022 H 0.3776 0.92518 0.00676 0.0
H1023 H 0.37872 0.94884 0.99225 0.0
H1024 H 0.36077 0.97646 0.02022 0.0
H1025 H 0.36007 0.95331 0.03503 0.0
C1026 C 0.30249 0.85535 0.05386 0.0
C1027 C 0.29466 0.86508 0.06094 0.0
C1028 C 0.32018 0.86619 0.04851 0.0
C1029 C 0.33048 0.88698 0.05021 0.0
C1030 C 0.32261 0.89675 0.05714 0.0
C1031 C 0.30491 0.88591 0.0625 0.0
C1032 C 0.34947 0.89854 0.04474 0.0
C1033 C 0.35104 0.91253 0.03663 0.0
C1034 C 0.36576 0.8955 0.04723 0.0
C1035 C 0.36544 0.88172 0.05623 0.0
C1036 C 0.36145 0.88379 0.06861 0.0
C1037 C 0.36107 0.8707 0.07703 0.0
C1038 C 0.3648 0.85555 0.0732 0.0
C1039 C 0.36897 0.8535 0.06095 0.0
C1040 C 0.36935 0.86655 0.0525 0.0
C1041 C 0.43267 0.96578 0.02774 0.0
C1042 C 0.44103 0.95751 0.01988 0.0
C1043 C 0.4144 0.95375 0.03213 0.0
C1044 C 0.40417 0.93322 0.02882 0.0
C1045 C 0.41256 0.92482 0.02115 0.0
C1046 C 0.43078 0.93689 0.01662 0.0
C1047 C 0.38477 0.92061 0.03351 0.0
C1048 C 0.38313 0.90643 0.04147 0.0
C1049 C 0.36844 0.92354 0.03092 0.0
C1050 C 0.369 0.93762 0.02206 0.0
C1051 C 0.37414 0.93646 0.00988 0.0
C1052 C 0.37469 0.94977 1.00159 0.0
C1053 C 0.36991 0.9642 0.00533 0.0
C1054 C 0.36456 0.96533 0.01736 0.0
C1055 C 0.3641 0.95212 0.02571 0.0
H1056 H 0.37027 0.97444 0.99888 0.0
H1057 H 0.3645 0.84543 0.07973 0.0
H1058 H 0.11886 0.4144 0.07681 0.0
H1059 H 0.09488 0.42286 0.06775 0.0
H1060 H 0.14074 0.46828 0.04904 0.0
H1061 H 0.16505 0.46065 0.05861 0.0
H1062 H 0.11927 0.48183 0.05876 0.0
H1063 H 0.10493 0.4226 0.03351 0.0
H1064 H 0.09664 0.38781 0.02934 0.0
H1065 H 0.04209 0.36842 0.0459 0.0
H1066 H 0.05019 0.40313 0.05033 0.0
H1067 H 0.05935 0.4957 0.01297 0.0
H1068 H 0.082 0.48704 0.02376 0.0
H1069 H 0.03514 0.44772 0.04469 0.0
H1070 H 0.01224 0.45627 0.0339 0.0
H1071 H 0.05604 0.43079 0.03468 0.0
H1072 H 0.07034 0.49072 0.05894 0.0
H1073 H 0.07879 0.52565 0.06226 0.0
H1074 H 0.13386 0.54385 0.04659 0.0
H1075 H 0.1256 0.50899 0.043 0.0
C1076 C 0.12392 0.42634 0.07088 0.0
C1077 C 0.14392 0.43682 0.06844 0.0
C1078 C 0.11012 0.431 0.06558 0.0
C1079 C 0.11593 0.44603 0.05757 0.0
C1080 C 0.13588 0.45657 0.05516 0.0
C1081 C 0.14973 0.45204 0.06053 0.0
C1082 C 0.10132 0.45095 0.05181 0.0
C1083 C 0.10556 0.47069 0.05337 0.0
C1084 C 0.08318 0.43635 0.04503 0.0
C1085 C 0.07828 0.41547 0.04237 0.0
C1086 C 0.09125 0.41093 0.03636 0.0
C1087 C 0.08657 0.39122 0.03393 0.0
C1088 C 0.06888 0.37592 0.03738 0.0
C1089 C 0.0558 0.38029 0.04325 0.0
C1090 C 0.06043 0.39997 0.04571 0.0
C1091 C 0.05381 0.48523 0.01987 0.0
C1092 C 0.03396 0.47669 0.02258 0.0
C1093 C 0.06682 0.48036 0.02607 0.0
C1094 C 0.06028 0.46687 0.03509 0.0
C1095 C 0.04047 0.4582 0.03777 0.0
C1096 C 0.02744 0.46316 0.03163 0.0
C1097 C 0.07413 0.46164 0.04155 0.0
C1098 C 0.06972 0.44187 0.04013 0.0
C1099 C 0.09219 0.47622 0.04837 0.0
C1100 C 0.09726 0.49722 0.0506 0.0
C1101 C 0.08418 0.50216 0.05611 0.0
C1102 C 0.08895 0.52195 0.05806 0.0
C1103 C 0.10683 0.53696 0.05461 0.0
C1104 C 0.12001 0.53221 0.04924 0.0
C1105 C 0.1153 0.51244 0.04726 0.0
H1106 H 0.1105 0.55227 0.05613 0.0
H1107 H 0.06527 0.36067 0.03549 0.0
H1108 H 0.60485 0.72944 0.03901 0.0
H1109 H 0.59023 0.6947 0.03061 0.0
H1110 H 0.57723 0.67663 0.06752 0.0
H1111 H 0.59162 0.71119 0.07596 0.0
H1112 H 0.59221 0.65646 0.05529 0.0
H1113 H 0.54123 0.67326 0.04674 0.0
H1114 H 0.52727 0.69291 0.03825 0.0
H1115 H 0.53782 0.67955 1.00123 0.0
H1116 H 0.55211 0.66003 0.00954 0.0
H1117 H 0.52199 0.55454 0.03924 0.0
H1118 H 0.53828 0.58954 0.04729 0.0
H1119 H 0.54837 0.60611 0.00982 0.0
H1120 H 0.53178 0.57123 1.00167 0.0
H1121 H 0.53554 0.62728 0.02205 0.0
H1122 H 0.58591 0.60998 0.03035 0.0
H1123 H 0.59998 0.59034 0.03872 0.0
H1124 H 0.59093 0.60467 0.07594 0.0
H1125 H 0.57654 0.62419 0.06777 0.0
C1126 C 0.59883 0.71806 0.04533 0.0
C1127 C 0.59937 0.72308 0.05815 0.0
C1128 C 0.59053 0.69824 0.04052 0.0
C1129 C 0.58248 0.68309 0.04843 0.0
C1130 C 0.58341 0.68809 0.06127 0.0
C1131 C 0.59171 0.70787 0.06608 0.0
C1132 C 0.57267 0.66199 0.04334 0.0
C1133 C 0.57969 0.65001 0.04811 0.0
C1134 C 0.55661 0.65372 0.0338 0.0
C1135 C 0.54793 0.66536 0.02878 0.0
C1136 C 0.54072 0.67464 0.0368 0.0
C1137 C 0.53272 0.68573 0.03202 0.0
C1138 C 0.53171 0.68752 0.01921 0.0
C1139 C 0.53864 0.67817 0.01115 0.0
C1140 C 0.54668 0.66708 0.01589 0.0
C1141 C 0.52766 0.56563 0.03271 0.0
C1142 C 0.52563 0.56009 0.01981 0.0
C1143 C 0.53705 0.58563 0.03733 0.0
C1144 C 0.54477 0.60044 0.02916 0.0
C1145 C 0.54254 0.59493 0.01629 0.0
C1146 C 0.53308 0.57496 0.01165 0.0
C1147 C 0.55505 0.6217 0.034 0.0
C1148 C 0.54811 0.63372 0.02919 0.0
C1149 C 0.57122 0.63001 0.04349 0.0
C1150 C 0.57998 0.61839 0.04844 0.0
C1151 C 0.58679 0.60883 0.04031 0.0
C1152 C 0.59484 0.59774 0.04502 0.0
C1153 C 0.5963 0.59622 0.05785 0.0
C1154 C 0.58976 0.60584 0.066 0.0
C1155 C 0.58168 0.61694 0.06134 0.0
H1156 H 0.60254 0.58762 0.06148 0.0
H1157 H 0.52551 0.69612 0.01553 0.0
H1158 H 0.82878 0.27451 0.95787 0.0
H1159 H 0.85135 0.30825 0.96746 0.0
H1160 H 0.90076 0.30615 0.95304 0.0
H1161 H 0.87836 0.27208 0.94378 0.0
H1162 H 0.9105 0.32387 0.97677 0.0
H1163 H 0.87958 0.32927 0.93837 0.0
H1164 H 0.85147 0.32252 0.92313 0.0
H1165 H 0.82985 0.34764 0.95025 0.0
H1166 H 0.85769 0.35429 0.96572 0.0
H1167 H 0.97867 0.42743 0.98185 0.0
H1168 H 0.95637 0.39265 0.97411 0.0
H1169 H 0.9074 0.39538 0.98873 0.0
H1170 H 0.92954 0.43024 0.99639 0.0
H1171 H 0.89734 0.37719 0.96525 0.0
H1172 H 0.92886 0.37257 1.00354 0.0
H1173 H 0.95718 0.37955 0.01866 0.0
H1174 H 0.97792 0.35323 0.99171 0.0
H1175 H 0.94987 0.34634 0.97635 0.0
C1176 C 0.84449 0.28108 0.95691 0.0
C1177 C 0.85176 0.27062 0.95001 0.0
C1178 C 0.85734 0.30044 0.96229 0.0
C1179 C 0.87768 0.3098 0.9608 0.0
C1180 C 0.88509 0.29923 0.95425 0.0
C1181 C 0.87225 0.27983 0.94887 0.0
C1182 C 0.89112 0.3308 0.96578 0.0
C1183 C 0.90777 0.33558 0.97415 0.0
C1184 C 0.88731 0.34599 0.96255 0.0
C1185 C 0.87061 0.3421 0.95324 0.0
C1186 C 0.86875 0.33321 0.94112 0.0
C1187 C 0.85288 0.32943 0.93243 0.0
C1188 C 0.83885 0.3346 0.93573 0.0
C1189 C 0.84071 0.34362 0.94771 0.0
C1190 C 0.85653 0.34741 0.95644 0.0
C1191 C 0.96317 0.42064 0.98344 0.0
C1192 C 0.95589 0.4316 0.98976 0.0
C1193 C 0.95046 0.40073 0.97906 0.0
C1194 C 0.93028 0.39137 0.98097 0.0
C1195 C 0.92294 0.40231 0.98719 0.0
C1196 C 0.93563 0.42222 0.99158 0.0
C1197 C 0.91672 0.37028 0.97626 0.0
C1198 C 0.90005 0.36549 0.96792 0.0
C1199 C 0.92054 0.35511 0.97951 0.0
C1200 C 0.93736 0.35911 0.98875 0.0
C1201 C 0.93955 0.36841 1.0008 0.0
C1202 C 0.95554 0.37232 0.00942 0.0
C1203 C 0.96937 0.36688 0.00613 0.0
C1204 C 0.96721 0.35746 0.99423 0.0
C1205 C 0.95125 0.35353 0.98557 0.0
H1206 H 0.98174 0.36993 0.01282 0.0
H1207 H 0.82658 0.33166 0.92899 0.0
H1208 H 0.67281 0.54747 0.92255 0.0
H1209 H 0.64262 0.53894 0.93252 0.0
H1210 H 0.67556 0.55232 0.96883 0.0
H1211 H 0.70586 0.56117 0.95896 0.0
H1212 H 0.6412 0.51735 0.96709 0.0
H1213 H 0.66193 0.58349 0.95776 0.0
H1214 H 0.67193 0.61098 0.94461 0.0
H1215 H 0.61539 0.579 0.92245 0.0
H1216 H 0.60517 0.5511 0.93535 0.0
H1217 H 0.57001 0.5191 0.00437 0.0
H1218 H 0.59976 0.52778 0.99393 0.0
H1219 H 0.56553 0.5138 0.95803 0.0
H1220 H 0.53568 0.50526 0.96839 0.0
H1221 H 0.6002 0.54876 0.9593 0.0
H1222 H 0.57981 0.48242 0.9685 0.0
H1223 H 0.56977 0.4552 0.98191 0.0
H1224 H 0.62574 0.48818 0.00462 0.0
H1225 H 0.636 0.51573 0.99145 0.0
C1226 C 0.67371 0.54887 0.93266 0.0
C1227 C 0.69178 0.55499 0.93995 0.0
C1228 C 0.65641 0.54393 0.93834 0.0
C1229 C 0.65686 0.54508 0.95142 0.0
C1230 C 0.67486 0.55124 0.95872 0.0
C1231 C 0.69216 0.55622 0.95306 0.0
C1232 C 0.63848 0.53945 0.95751 0.0
C1233 C 0.63237 0.5244 0.96551 0.0
C1234 C 0.62672 0.54833 0.95521 0.0
C1235 C 0.63289 0.56506 0.9474 0.0
C1236 C 0.65171 0.58219 0.94999 0.0
C1237 C 0.6574 0.59787 0.9426 0.0
C1238 C 0.64434 0.59669 0.93266 0.0
C1239 C 0.62553 0.57984 0.93012 0.0
C1240 C 0.61978 0.56409 0.93746 0.0
C1241 C 0.56875 0.51777 0.99426 0.0
C1242 C 0.55042 0.51141 0.98723 0.0
C1243 C 0.58578 0.52269 0.9883 0.0
C1244 C 0.58483 0.52128 0.9752 0.0
C1245 C 0.56659 0.51498 0.96815 0.0
C1246 C 0.54952 0.51002 0.9741 0.0
C1247 C 0.60296 0.52668 0.96887 0.0
C1248 C 0.60902 0.54169 0.96084 0.0
C1249 C 0.6147 0.5178 0.97115 0.0
C1250 C 0.6086 0.50122 0.97906 0.0
C1251 C 0.58991 0.48393 0.97641 0.0
C1252 C 0.58419 0.46843 0.98396 0.0
C1253 C 0.59709 0.46998 0.99413 0.0
C1254 C 0.61575 0.48702 0.99675 0.0
C1255 C 0.62154 0.50257 0.98924 0.0
H1256 H 0.59263 0.45796 0.99996 0.0
H1257 H 0.64877 0.60885 0.92696 0.0
H1258 H 0.43079 0.14797 0.96903 0.0
H1259 H 0.44554 0.1295 0.97782 0.0
H1260 H 0.39472 0.07458 0.96139 0.0
H1261 H 0.37961 0.09294 0.95283 0.0
H1262 H 0.40669 0.07208 0.98533 0.0
H1263 H 0.43669 0.09462 0.94745 0.0
H1264 H 0.45471 0.11947 0.93305 0.0
H1265 H 0.505 0.15007 0.96083 0.0
H1266 H 0.48715 0.12554 0.97547 0.0
H1267 H 0.44633 0.00794 0.9851 0.0
H1268 H 0.43216 0.02825 0.9789 0.0
H1269 H 0.48408 0.08058 0.99712 0.0
H1270 H 0.49845 0.06035 1.00341 0.0
H1271 H 0.47245 0.08566 0.97341 0.0
H1272 H 0.44347 0.0621 0.01085 0.0
H1273 H 0.42565 0.03738 0.02534 0.0
H1274 H 0.37363 0.00902 0.99879 0.0
H1275 H 0.39129 0.0333 0.98399 0.0
C1276 C 0.42261 0.13194 0.96745 0.0
C1277 C 0.40406 0.1219 0.9602 0.0
C1278 C 0.43114 0.12143 0.97238 0.0
C1279 C 0.42132 0.1007 0.97012 0.0
C1280 C 0.40256 0.09059 0.9632 0.0
C1281 C 0.39403 0.10109 0.95824 0.0
C1282 C 0.43086 0.08958 0.97469 0.0
C1283 C 0.42096 0.07488 0.98262 0.0
C1284 C 0.44972 0.09365 0.9714 0.0
C1285 C 0.4605 0.10837 0.9626 0.0
C1286 C 0.45153 0.10674 0.95052 0.0
C1287 C 0.46172 0.12075 0.94231 0.0
C1288 C 0.48097 0.13637 0.94603 0.0
C1289 C 0.49008 0.13798 0.95797 0.0
C1290 C 0.47993 0.12402 0.96622 0.0
C1291 C 0.45479 0.02377 0.98778 0.0
C1292 C 0.47351 0.03253 0.99478 0.0
C1293 C 0.44661 0.03533 0.98428 0.0
C1294 C 0.457 0.05586 0.98766 0.0
C1295 C 0.47583 0.06473 0.99446 0.0
C1296 C 0.48397 0.05315 0.99807 0.0
C1297 C 0.4482 0.06802 0.98396 0.0
C1298 C 0.45823 0.08292 0.97618 0.0
C1299 C 0.42947 0.06414 0.9874 0.0
C1300 C 0.41879 0.04942 0.99625 0.0
C1301 C 0.4283 0.05046 0.00803 0.0
C1302 C 0.41823 0.03653 0.01631 0.0
C1303 C 0.39855 0.02159 0.01297 0.0
C1304 C 0.3889 0.02055 1.00135 0.0
C1305 C 0.39894 0.0344 0.993 0.0
H1306 H 0.39077 0.01088 0.01942 0.0
H1307 H 0.48884 0.1472 0.93966 0.0
H1308 H 0.68681 0.1404 0.94901 0.0
H1309 H 0.65632 0.12131 0.95877 0.0
H1310 H 0.66 0.06841 0.95125 0.0
H1311 H 0.69053 0.08748 0.94134 0.0
H1312 H 0.62241 0.06033 0.94691 0.0
H1313 H 0.6745 0.09331 0.98025 0.0
H1314 H 0.70367 0.12164 0.9924 0.0
H1315 H 0.66943 0.14998 0.99907 0.0
H1316 H 0.64012 0.12192 0.9868 0.0
H1317 H 0.56776 0.03226 0.00734 0.0
H1318 H 0.59852 0.04921 0.99743 0.0
H1319 H 0.56609 0.05425 0.96524 0.0
H1320 H 0.53522 0.03657 0.97486 0.0
H1321 H 0.61924 0.08385 0.99007 0.0
H1322 H 0.58583 0.05131 0.93889 0.0
H1323 H 0.55656 0.02151 0.92787 0.0
H1324 H 0.55525 0.98829 0.95848 0.0
H1325 H 0.58452 0.01782 0.96962 0.0
C1326 C 0.68116 0.12471 0.94947 0.0
C1327 C 0.69117 0.11546 0.94454 0.0
C1328 C 0.66373 0.11381 0.95503 0.0
C1329 C 0.65608 0.0935 0.95593 0.0
C1330 C 0.66568 0.08408 0.95067 0.0
C1331 C 0.68309 0.09497 0.94502 0.0
C1332 C 0.63834 0.08233 0.96264 0.0
C1333 C 0.62171 0.06542 0.95635 0.0
C1334 C 0.63759 0.08872 0.97506 0.0
C1335 C 0.65515 0.10558 0.98252 0.0
C1336 C 0.67323 0.10564 0.98424 0.0
C1337 C 0.68978 0.12165 0.99115 0.0
C1338 C 0.68841 0.13762 0.99648 0.0
C1339 C 0.67047 0.1376 0.99493 0.0
C1340 C 0.65387 0.12164 0.988 0.0
C1341 C 0.56723 0.03709 0.99818 0.0
C1342 C 0.54909 0.03297 0.99183 0.0
C1343 C 0.58481 0.04677 0.99253 0.0
C1344 C 0.58457 0.05267 0.98049 0.0
C1345 C 0.56658 0.04937 0.97439 0.0
C1346 C 0.54896 0.03937 0.97993 0.0
C1347 C 0.6031 0.06209 0.97426 0.0
C1348 C 0.61992 0.07867 0.98065 0.0
C1349 C 0.60415 0.05505 0.96206 0.0
C1350 C 0.58722 0.03688 0.95514 0.0
C1351 C 0.57933 0.03762 0.94322 0.0
C1352 C 0.56273 0.02078 0.93697 0.0
C1353 C 0.55401 0.00305 0.9425 0.0
C1354 C 0.56197 0.00206 0.95423 0.0
C1355 C 0.57855 0.01885 0.96052 0.0
H1356 H 0.54112 0.99005 0.93769 0.0
H1357 H 0.70125 0.15 1.00184 0.0
H1358 H 0.85348 0.53953 0.92086 0.0
H1359 H 0.87743 0.53108 0.93004 0.0
H1360 H 0.87121 0.55106 0.9668 0.0
H1361 H 0.84771 0.56015 0.95764 0.0
H1362 H 0.9096 0.56454 0.96357 0.0
H1363 H 0.84889 0.50184 0.95686 0.0
H1364 H 0.81896 0.4746 0.94458 0.0
H1365 H 0.8554 0.46468 0.92019 0.0
H1366 H 0.88556 0.49206 0.93223 0.0
H1367 H 0.95065 0.5196 1.00107 0.0
H1368 H 0.92903 0.52966 0.99046 0.0
H1369 H 0.93878 0.50979 0.95476 0.0
H1370 H 0.96043 0.49954 0.96531 0.0
H1371 H 0.89964 0.49673 0.95652 0.0
H1372 H 0.96054 0.55857 0.96401 0.0
H1373 H 0.99031 0.5864 0.97603 0.0
H1374 H 0.95348 0.59815 0.999 0.0
H1375 H 0.92348 0.57019 0.98725 0.0
C1376 C 0.85732 0.54227 0.93089 0.0
C1377 C 0.84867 0.5505 0.93852 0.0
C1378 C 0.87087 0.53725 0.93613 0.0
C1379 C 0.87595 0.54025 0.94912 0.0
C1380 C 0.86745 0.54857 0.95676 0.0
C1381 C 0.85389 0.55359 0.95152 0.0
C1382 C 0.89031 0.53491 0.95475 0.0
C1383 C 0.90731 0.54965 0.96217 0.0
C1384 C 0.88758 0.51562 0.9526 0.0
C1385 C 0.86947 0.49914 0.94536 0.0
C1386 C 0.85052 0.49396 0.94881 0.0
C1387 C 0.83351 0.47848 0.94191 0.0
C1388 C 0.83527 0.46796 0.93159 0.0
C1389 C 0.85405 0.47287 0.92817 0.0
C1390 C 0.87111 0.48835 0.93504 0.0
C1391 C 0.94828 0.5174 0.99096 0.0
C1392 C 0.95727 0.50871 0.98405 0.0
C1393 C 0.93599 0.52327 0.9849 0.0
C1394 C 0.93245 0.52065 0.97182 0.0
C1395 C 0.94136 0.51199 0.96487 0.0
C1396 C 0.95375 0.50617 0.97092 0.0
C1397 C 0.91886 0.52633 0.96546 0.0
C1398 C 0.90199 0.51164 0.95789 0.0
C1399 C 0.92169 0.54567 0.9675 0.0
C1400 C 0.93975 0.56216 0.97481 0.0
C1401 C 0.95878 0.56694 0.97172 0.0
C1402 C 0.97571 0.58278 0.97846 0.0
C1403 C 0.97378 0.59404 0.98827 0.0
C1404 C 0.95494 0.58942 0.9914 0.0
C1405 C 0.93797 0.57358 0.9847 0.0
H1406 H 0.98687 0.60641 0.99341 0.0
H1407 H 0.82209 0.45597 0.92626 0.0
H1408 H 0.37114 0.27796 0.95235 0.0
H1409 H 0.38532 0.31276 0.96035 0.0
H1410 H 0.43365 0.31118 0.98096 0.0
H1411 H 0.41988 0.27654 0.9728 0.0
H1412 H 0.41904 0.33262 0.99437 0.0
H1413 H 0.441 0.32844 0.95388 0.0
H1414 H 0.43601 0.31726 0.9314 0.0
H1415 H 0.4018 0.34572 0.92444 0.0
H1416 H 0.40634 0.35681 0.94694 0.0
H1417 H 0.49232 0.43436 1.0033 0.0
H1418 H 0.47408 0.39862 0.99729 0.0
H1419 H 0.42985 0.40435 0.97475 0.0
H1420 H 0.44805 0.44011 0.9806 0.0
H1421 H 0.4406 0.38057 0.96253 0.0
H1422 H 0.41963 0.38638 1.00242 0.0
H1423 H 0.42381 0.39755 0.02484 0.0
H1424 H 0.45484 0.36628 0.033 0.0
H1425 H 0.4511 0.35514 0.01058 0.0
C1426 C 0.38475 0.28498 0.95862 0.0
C1427 C 0.39449 0.27451 0.96182 0.0
C1428 C 0.39277 0.30482 0.96323 0.0
C1429 C 0.41063 0.31454 0.97113 0.0
C1430 C 0.41982 0.30389 0.97489 0.0
C1431 C 0.41188 0.28407 0.97024 0.0
C1432 C 0.42049 0.33614 0.97474 0.0
C1433 C 0.42393 0.34315 0.98745 0.0
C1434 C 0.42641 0.34977 0.96564 0.0
C1435 C 0.42382 0.34327 0.9521 0.0
C1436 C 0.43228 0.33217 0.94757 0.0
C1437 C 0.42955 0.32588 0.93482 0.0
C1438 C 0.41854 0.33073 0.9265 0.0
C1439 C 0.41029 0.34194 0.9309 0.0
C1440 C 0.41294 0.34825 0.94365 0.0
C1441 C 0.47875 0.42805 0.99703 0.0
C1442 C 0.47163 0.44009 0.99245 0.0
C1443 C 0.46829 0.40761 0.99367 0.0
C1444 C 0.45049 0.39883 0.9857 0.0
C1445 C 0.44352 0.41084 0.98094 0.0
C1446 C 0.45395 0.43127 0.98431 0.0
C1447 C 0.43929 0.37714 0.9822 0.0
C1448 C 0.43562 0.37009 0.96949 0.0
C1449 C 0.43305 0.3635 0.9913 0.0
C1450 C 0.43524 0.37008 0.0048 0.0
C1451 C 0.42748 0.38201 0.00898 0.0
C1452 C 0.42975 0.38832 0.02169 0.0
C1453 C 0.43963 0.38267 0.03034 0.0
C1454 C 0.44721 0.37066 0.02629 0.0
C1455 C 0.44501 0.36433 0.01358 0.0
H1456 H 0.44137 0.38757 0.04018 0.0
H1457 H 0.41645 0.32585 0.91663 0.0
H1458 H 0.11218 0.70372 0.07097 0.0
H1459 H 0.09042 0.66974 0.06151 0.0
H1460 H 0.1313 0.67826 0.03419 0.0
H1461 H 0.15379 0.71192 0.04396 0.0
H1462 H 0.08747 0.65848 0.02506 0.0
H1463 H 0.13473 0.65542 0.05509 0.0
H1464 H 0.15274 0.66202 0.07603 0.0
H1465 H 0.09742 0.62932 0.09163 0.0
H1466 H 0.07906 0.62278 0.07079 0.0
H1467 H 0.04824 0.5585 1.00079 0.0
H1468 H 0.07042 0.59301 0.00922 0.0
H1469 H 0.04284 0.58125 0.04361 0.0
H1470 H 0.02125 0.54657 0.03543 0.0
H1471 H 0.08038 0.60342 0.04903 0.0
H1472 H 0.03247 0.60498 0.02024 0.0
H1473 H 0.01263 0.59814 1.00001 0.0
H1474 H 0.06566 0.63409 0.9829 0.0
H1475 H 0.08594 0.64061 1.00298 0.0
C1476 C 0.11672 0.69839 0.06303 0.0
C1477 C 0.13491 0.71062 0.05833 0.0
C1478 C 0.10414 0.67902 0.05757 0.0
C1479 C 0.10934 0.67158 0.0472 0.0
C1480 C 0.12704 0.68385 0.04216 0.0
C1481 C 0.13982 0.70314 0.04774 0.0
C1482 C 0.0967 0.65067 0.04199 0.0
C1483 C 0.08606 0.64638 0.03018 0.0
C1484 C 0.0945 0.63503 0.0489 0.0
C1485 C 0.10553 0.6388 0.06141 0.0
C1486 C 0.1264 0.64979 0.063 0.0
C1487 C 0.13667 0.65349 0.07485 0.0
C1488 C 0.12623 0.64614 0.08516 0.0
C1489 C 0.10549 0.63503 0.08363 0.0
C1490 C 0.09515 0.63131 0.07181 0.0
C1491 C 0.04692 0.56329 0.01014 0.0
C1492 C 0.03296 0.54987 0.01743 0.0
C1493 C 0.05955 0.58304 0.01494 0.0
C1494 C 0.0581 0.58985 0.02698 0.0
C1495 C 0.04427 0.57638 0.0343 0.0
C1496 C 0.0319 0.55656 0.0296 0.0
C1497 C 0.07096 0.61098 0.03199 0.0
C1498 C 0.0817 0.6154 0.04381 0.0
C1499 C 0.07291 0.62672 0.02516 0.0
C1500 C 0.06075 0.62312 0.0131 0.0
C1501 C 0.03993 0.61131 0.01215 0.0
C1502 C 0.02859 0.6075 1.0007 0.0
C1503 C 0.03785 0.61571 0.99017 0.0
C1504 C 0.0585 0.62773 0.99107 0.0
C1505 C 0.06994 0.63145 1.00248 0.0
H1506 H 0.02904 0.61276 0.98132 0.0
H1507 H 0.13421 0.64902 0.09432 0.0
H1508 H 0.32259 0.44503 0.08481 0.0
H1509 H 0.35319 0.45522 0.07506 0.0
H1510 H 0.32171 0.447 0.03885 0.0
H1511 H 0.29081 0.43576 0.04844 0.0
H1512 H 0.34655 0.43365 0.03706 0.0
H1513 H 0.35133 0.49361 0.05513 0.0
H1514 H 0.35084 0.5163 0.07184 0.0
H1515 H 0.39945 0.51668 0.09317 0.0
H1516 H 0.40006 0.49376 0.07665 0.0
H1517 H 0.43255 0.49237 0.00603 0.0
H1518 H 0.40178 0.48245 0.01579 0.0
H1519 H 0.42923 0.47705 0.05018 0.0
H1520 H 0.45985 0.48653 0.04045 0.0
H1521 H 0.40671 0.49782 0.05259 0.0
H1522 H 0.4011 0.43718 0.03426 0.0
H1523 H 0.40185 0.41534 0.01707 0.0
H1524 H 0.35471 0.4174 0.99563 0.0
H1525 H 0.3539 0.43953 0.01264 0.0
C1526 C 0.32207 0.44508 0.07475 0.0
C1527 C 0.3042 0.43967 0.06743 0.0
C1528 C 0.33966 0.45116 0.0692 0.0
C1529 C 0.33986 0.45226 0.05624 0.0
C1530 C 0.32198 0.44642 0.04887 0.0
C1531 C 0.30434 0.44018 0.0544 0.0
C1532 C 0.35871 0.45963 0.05037 0.0
C1533 C 0.3596 0.44781 0.04036 0.0
C1534 C 0.37589 0.47798 0.05478 0.0
C1535 C 0.37561 0.49182 0.06471 0.0
C1536 C 0.36182 0.49841 0.06343 0.0
C1537 C 0.36154 0.51133 0.07286 0.0
C1538 C 0.37507 0.51789 0.08358 0.0
C1539 C 0.38896 0.51157 0.08487 0.0
C1540 C 0.38929 0.49863 0.07547 0.0
C1541 C 0.43207 0.48926 0.01571 0.0
C1542 C 0.44854 0.49013 0.02247 0.0
C1543 C 0.4145 0.48354 0.02124 0.0
C1544 C 0.41328 0.47895 0.03366 0.0
C1545 C 0.42993 0.48053 0.04057 0.0
C1546 C 0.44734 0.48586 0.03499 0.0
C1547 C 0.39442 0.47185 0.03936 0.0
C1548 C 0.39358 0.48371 0.04931 0.0
C1549 C 0.37727 0.45364 0.03485 0.0
C1550 C 0.3776 0.4402 0.02466 0.0
C1551 C 0.39102 0.43313 0.02583 0.0
C1552 C 0.39143 0.42067 0.01613 0.0
C1553 C 0.37838 0.41504 0.00525 0.0
C1554 C 0.36484 0.42181 1.00406 0.0
C1555 C 0.36439 0.4343 0.01373 0.0
H1556 H 0.37871 0.40539 0.99775 0.0
H1557 H 0.37483 0.52789 0.09087 0.0
H1558 H 0.61103 0.90531 0.06909 0.0
H1559 H 0.59508 0.92267 0.06029 0.0
H1560 H 0.56215 0.8742 0.03143 0.0
H1561 H 0.57716 0.85614 0.04051 0.0
H1562 H 0.58157 0.91687 0.02417 0.0
H1563 H 0.53731 0.87222 0.05202 0.0
H1564 H 0.53001 0.8581 0.07219 0.0
H1565 H 0.54923 0.91577 0.09085 0.0
H1566 H 0.55695 0.93028 0.07081 0.0
H1567 H 0.51087 0.9424 1.00219 0.0
H1568 H 0.52691 0.92422 0.00947 0.0
H1569 H 0.54319 0.95799 0.04569 0.0
H1570 H 0.52633 0.97552 0.03863 0.0
H1571 H 0.53255 0.92223 0.04899 0.0
H1572 H 0.5767 0.96785 0.02274 0.0
H1573 H 0.58663 0.98447 1.00356 0.0
H1574 H 0.5714 0.92914 0.98302 0.0
H1575 H 0.5611 0.91212 1.00205 0.0
C1576 C 0.60032 0.89823 0.06091 0.0
C1577 C 0.59519 0.87915 0.05564 0.0
C1578 C 0.59139 0.90828 0.05584 0.0
C1579 C 0.57742 0.89962 0.04528 0.0
C1580 C 0.57299 0.8811 0.03957 0.0
C1581 C 0.58167 0.87086 0.04475 0.0
C1582 C 0.5665 0.90936 0.04076 0.0
C1583 C 0.57064 0.91786 0.02946 0.0
C1584 C 0.55277 0.91111 0.04793 0.0
C1585 C 0.5479 0.90236 0.05994 0.0
C1586 C 0.54015 0.88191 0.06045 0.0
C1587 C 0.5359 0.87383 0.07185 0.0
C1588 C 0.53921 0.88604 0.0828 0.0
C1589 C 0.54671 0.90634 0.08236 0.0
C1590 C 0.55101 0.9145 0.07098 0.0
C1591 C 0.51778 0.94585 0.01173 0.0
C1592 C 0.51743 0.96042 0.01983 0.0
C1593 C 0.52707 0.93555 0.01586 0.0
C1594 C 0.53668 0.94004 0.02805 0.0
C1595 C 0.53594 0.95429 0.03624 0.0
C1596 C 0.5263 0.96431 0.03219 0.0
C1597 C 0.54752 0.92991 0.03229 0.0
C1598 C 0.54341 0.9213 0.04359 0.0
C1599 C 0.56161 0.92846 0.02523 0.0
C1600 C 0.56794 0.93867 0.01379 0.0
C1601 C 0.57534 0.9592 0.01411 0.0
C1602 C 0.58105 0.9687 1.00327 0.0
C1603 C 0.5796 0.95786 0.99207 0.0
C1604 C 0.57249 0.93751 0.9917 0.0
C1605 C 0.56672 0.92793 1.00251 0.0
H1606 H 0.58402 0.96524 0.98369 0.0
H1607 H 0.53591 0.87976 0.09162 0.0
H1608 H 0.98612 0.19035 0.40767 0.0
H1609 H 0.01667 0.21001 0.39784 0.0
H1610 H 0.99095 0.24208 0.38115 0.0
H1611 H 0.96054 0.22275 0.39118 0.0
H1612 H 0.0092 0.22473 0.36444 0.0
H1613 H 0.02231 0.2658 0.40333 0.0
H1614 H 0.02549 0.27233 0.42626 0.0
H1615 H 0.07044 0.25585 0.42978 0.0
H1616 H 0.06729 0.2489 0.40686 0.0
H1617 H 0.09314 0.29965 0.34004 0.0
H1618 H 0.06289 0.27995 0.3499 0.0
H1619 H 0.09595 0.26577 0.37697 0.0
H1620 H 0.12644 0.28657 0.3676 0.0
H1621 H 0.0734 0.2733 0.38862 0.0
H1622 H 0.06155 0.23157 0.35111 0.0
H1623 H 0.05874 0.22262 0.32844 0.0
H1624 H 0.0122 0.23649 0.32242 0.0
H1625 H 0.01491 0.24577 0.34504 0.0
C1626 C 0.98706 0.20165 0.40193 0.0
C1627 C 0.97107 0.20512 0.40017 0.0
C1628 C 0.00447 0.21286 0.39637 0.0
C1629 C 0.00598 0.22745 0.38881 0.0
C1630 C 0.99 0.23086 0.38697 0.0
C1631 C 0.97274 0.21993 0.39273 0.0
C1632 C 0.02419 0.23897 0.38266 0.0
C1633 C 0.02324 0.23555 0.36966 0.0
C1634 C 0.04254 0.25247 0.3896 0.0
C1635 C 0.04439 0.2566 0.40338 0.0
C1636 C 0.03271 0.26335 0.40899 0.0
C1637 C 0.03454 0.26718 0.42199 0.0
C1638 C 0.04811 0.26445 0.42948 0.0
C1639 C 0.0599 0.25792 0.42397 0.0
C1640 C 0.05811 0.25405 0.41098 0.0
C1641 C 0.09386 0.29216 0.34802 0.0
C1642 C 0.11206 0.29453 0.35303 0.0
C1643 C 0.07655 0.2808 0.35363 0.0
C1644 C 0.07696 0.271 0.36408 0.0
C1645 C 0.09516 0.27316 0.36895 0.0
C1646 C 0.11257 0.28497 0.36356 0.0
C1647 C 0.05863 0.25915 0.37024 0.0
C1648 C 0.05948 0.26247 0.3833 0.0
C1649 C 0.04027 0.24516 0.36337 0.0
C1650 C 0.03856 0.23954 0.34976 0.0
C1651 C 0.05081 0.23284 0.34494 0.0
C1652 C 0.04923 0.22769 0.3321 0.0
C1653 C 0.03534 0.22903 0.32399 0.0
C1654 C 0.02297 0.23548 0.32871 0.0
C1655 C 0.02451 0.24066 0.34154 0.0
H1656 H 0.03414 0.22504 0.31406 0.0
H1657 H 0.04952 0.26744 0.43954 0.0
H1658 H 0.83702 0.78979 0.39158 0.0
H1659 H 0.81338 0.79813 0.38201 0.0
H1660 H 0.77098 0.76415 0.4072 0.0
H1661 H 0.79393 0.75437 0.41615 0.0
H1662 H 0.75222 0.75782 0.38562 0.0
H1663 H 0.79986 0.81667 0.41108 0.0
H1664 H 0.8331 0.84418 0.41928 0.0
H1665 H 0.84263 0.86457 0.38285 0.0
H1666 H 0.80954 0.83701 0.3744 0.0
H1667 H 0.6936 0.8047 0.37612 0.0
H1668 H 0.71667 0.79551 0.38599 0.0
H1669 H 0.75121 0.81258 0.35459 0.0
H1670 H 0.72804 0.82144 0.34454 0.0
H1671 H 0.77332 0.82782 0.37981 0.0
H1672 H 0.72428 0.76722 0.35494 0.0
H1673 H 0.69012 0.74032 0.34804 0.0
H1674 H 0.68233 0.72425 0.38554 0.0
H1675 H 0.71637 0.75127 0.3927 0.0
C1676 C 0.82256 0.78376 0.39497 0.0
C1677 C 0.81749 0.77141 0.4047 0.0
C1678 C 0.80914 0.78884 0.38961 0.0
C1679 C 0.79052 0.78215 0.39405 0.0
C1680 C 0.7853 0.76964 0.40365 0.0
C1681 C 0.79858 0.76425 0.40888 0.0
C1682 C 0.77644 0.78803 0.3886 0.0
C1683 C 0.75682 0.77317 0.38454 0.0
C1684 C 0.78239 0.80804 0.38703 0.0
C1685 C 0.80229 0.82466 0.39208 0.0
C1686 C 0.80911 0.82694 0.4048 0.0
C1687 C 0.82791 0.84255 0.4095 0.0
C1688 C 0.83999 0.85608 0.40158 0.0
C1689 C 0.83327 0.85406 0.38897 0.0
C1690 C 0.81448 0.83846 0.38422 0.0
C1691 C 0.70613 0.80653 0.37133 0.0
C1692 C 0.709 0.81373 0.35954 0.0
C1693 C 0.71923 0.80123 0.37696 0.0
C1694 C 0.73555 0.80335 0.37098 0.0
C1695 C 0.73866 0.81086 0.35932 0.0
C1696 C 0.72538 0.81581 0.35359 0.0
C1697 C 0.74936 0.79762 0.37684 0.0
C1698 C 0.76885 0.81251 0.38097 0.0
C1699 C 0.7432 0.77773 0.37869 0.0
C1700 C 0.72279 0.7614 0.37438 0.0
C1701 C 0.71522 0.75807 0.36174 0.0
C1702 C 0.69589 0.74278 0.35778 0.0
C1703 C 0.68404 0.73062 0.36636 0.0
C1704 C 0.69152 0.7337 0.37891 0.0
C1705 C 0.71083 0.74899 0.38292 0.0
H1706 H 0.66908 0.71878 0.36327 0.0
H1707 H 0.85454 0.86816 0.40524 0.0
H1708 H 0.29049 0.05832 0.39503 0.0
H1709 H 0.27582 0.02398 0.38588 0.0
H1710 H 0.22602 0.0267 0.36842 0.0
H1711 H 0.24022 0.06078 0.37788 0.0
H1712 H 0.2138 0.99363 0.37958 0.0
H1713 H 0.26177 0.02769 0.35127 0.0
H1714 H 0.29489 0.05048 0.34508 0.0
H1715 H 0.31792 0.01592 0.36101 0.0
H1716 H 0.28499 0.99306 0.36746 0.0
H1717 H 0.17318 0.90214 0.34142 0.0
H1718 H 0.18814 0.93749 0.34819 0.0
H1719 H 0.23863 0.9375 0.36702 0.0
H1720 H 0.22397 0.90228 0.36016 0.0
H1721 H 0.25002 0.96948 0.35422 0.0
H1722 H 0.20229 0.93634 0.38329 0.0
H1723 H 0.16907 0.91344 0.38931 0.0
H1724 H 0.14555 0.94646 0.37175 0.0
H1725 H 0.17859 0.9694 0.36546 0.0
C1726 C 0.27639 0.05159 0.38927 0.0
C1727 C 0.26654 0.06229 0.38717 0.0
C1728 C 0.26812 0.03203 0.38395 0.0
C1729 C 0.24993 0.02287 0.37637 0.0
C1730 C 0.24011 0.03353 0.3742 0.0
C1731 C 0.24834 0.05306 0.37953 0.0
C1732 C 0.24077 0.00191 0.37106 0.0
C1733 C 0.2216 0.98841 0.37387 0.0
C1734 C 0.25112 0.99505 0.36382 0.0
C1735 C 0.27095 0.00876 0.35995 0.0
C1736 C 0.27393 0.02503 0.35354 0.0
C1737 C 0.29266 0.03795 0.34997 0.0
C1738 C 0.30851 0.03468 0.35268 0.0
C1739 C 0.30564 0.01845 0.35894 0.0
C1740 C 0.28694 0.0055 0.36254 0.0
C1741 C 0.18748 0.90966 0.34699 0.0
C1742 C 0.19734 0.89937 0.35031 0.0
C1743 C 0.19598 0.92985 0.35086 0.0
C1744 C 0.21439 0.94004 0.35821 0.0
C1745 C 0.22441 0.92989 0.36135 0.0
C1746 C 0.21596 0.90974 0.35746 0.0
C1747 C 0.22313 0.96123 0.36281 0.0
C1748 C 0.24221 0.97476 0.35988 0.0
C1749 C 0.21269 0.96813 0.36992 0.0
C1750 C 0.19286 0.95446 0.37379 0.0
C1751 C 0.19 0.93863 0.38063 0.0
C1752 C 0.17121 0.92566 0.38411 0.0
C1753 C 0.1552 0.92846 0.38089 0.0
C1754 C 0.15796 0.94429 0.37422 0.0
C1755 C 0.17671 0.95728 0.3707 0.0
H1756 H 0.14066 0.9184 0.38358 0.0
H1757 H 0.323 0.04469 0.3499 0.0
H1758 H 0.54623 0.61859 0.26677 0.0
H1759 H 0.56949 0.65261 0.27535 0.0
H1760 H 0.52869 0.64933 0.30167 0.0
H1761 H 0.50469 0.61582 0.2925 0.0
H1762 H 0.5432 0.683 0.29298 0.0
H1763 H 0.57179 0.64632 0.30984 0.0
H1764 H 0.58481 0.62327 0.3094 0.0
H1765 H 0.62996 0.66038 0.28694 0.0
H1766 H 0.61704 0.68353 0.2871 0.0
H1767 H 0.61276 0.76144 0.33828 0.0
H1768 H 0.59031 0.72834 0.32761 0.0
H1769 H 0.62336 0.74391 0.29551 0.0
H1770 H 0.64572 0.77735 0.30602 0.0
H1771 H 0.61382 0.70517 0.30627 0.0
H1772 H 0.58446 0.74263 0.2908 0.0
H1773 H 0.57158 0.76567 0.29325 0.0
H1774 H 0.52759 0.72624 0.31551 0.0
H1775 H 0.54044 0.70312 0.31337 0.0
C1776 C 0.54204 0.62514 0.27427 0.0
C1777 C 0.5235 0.61435 0.27892 0.0
C1778 C 0.55552 0.64455 0.2793 0.0
C1779 C 0.55101 0.65348 0.2893 0.0
C1780 C 0.53256 0.64276 0.29398 0.0
C1781 C 0.51893 0.62346 0.28882 0.0
C1782 C 0.56532 0.67409 0.29474 0.0
C1783 C 0.55858 0.68772 0.29599 0.0
C1784 C 0.58552 0.68045 0.2985 0.0
C1785 C 0.59331 0.66655 0.29837 0.0
C1786 C 0.58439 0.64948 0.30472 0.0
C1787 C 0.59177 0.63641 0.30454 0.0
C1788 C 0.60816 0.64033 0.29812 0.0
C1789 C 0.61724 0.65735 0.29189 0.0
C1790 C 0.60991 0.67046 0.29203 0.0
C1791 C 0.61528 0.75784 0.32895 0.0
C1792 C 0.63098 0.77196 0.32297 0.0
C1793 C 0.60243 0.73896 0.32288 0.0
C1794 C 0.60525 0.7338 0.31081 0.0
C1795 C 0.62103 0.74772 0.30484 0.0
C1796 C 0.63369 0.76678 0.31082 0.0
C1797 C 0.59158 0.71377 0.3045 0.0
C1798 C 0.59845 0.70032 0.30314 0.0
C1799 C 0.57144 0.70747 0.30085 0.0
C1800 C 0.56355 0.72124 0.30203 0.0
C1801 C 0.57216 0.73896 0.29632 0.0
C1802 C 0.56484 0.75202 0.29763 0.0
C1803 C 0.54881 0.74744 0.30456 0.0
C1804 C 0.54003 0.72978 0.31016 0.0
C1805 C 0.54731 0.71668 0.30889 0.0
H1806 H 0.54317 0.75757 0.30557 0.0
H1807 H 0.61386 0.63019 0.29799 0.0
H1808 H 0.35931 0.90746 0.26724 0.0
H1809 H 0.32925 0.89989 0.27702 0.0
H1810 H 0.3301 0.85085 0.29285 0.0
H1811 H 0.35965 0.85774 0.2826 0.0
H1812 H 0.29338 0.84047 0.28404 0.0
H1813 H 0.34597 0.89542 0.31052 0.0
H1814 H 0.3751 0.92889 0.31555 0.0
H1815 H 0.34082 0.95457 0.30212 0.0
H1816 H 0.31154 0.92122 0.29684 0.0
H1817 H 0.2287 0.82927 0.33097 0.0
H1818 H 0.25799 0.83604 0.32037 0.0
H1819 H 0.25187 0.87926 0.30041 0.0
H1820 H 0.22247 0.87248 0.31083 0.0
H1821 H 0.29098 0.89253 0.31136 0.0
H1822 H 0.2384 0.83742 0.28504 0.0
H1823 H 0.20925 0.80391 0.28029 0.0
H1824 H 0.24367 0.7785 0.29393 0.0
H1825 H 0.27298 0.81191 0.29895 0.0
C1826 C 0.35299 0.89491 0.27267 0.0
C1827 C 0.36197 0.88325 0.27416 0.0
C1828 C 0.33591 0.89073 0.27838 0.0
C1829 C 0.32758 0.87498 0.28583 0.0
C1830 C 0.33632 0.86314 0.28719 0.0
C1831 C 0.35334 0.86723 0.28143 0.0
C1832 C 0.30976 0.87086 0.29221 0.0
C1833 C 0.29298 0.85179 0.29015 0.0
C1834 C 0.30905 0.88573 0.29998 0.0
C1835 C 0.32662 0.90581 0.30317 0.0
C1836 C 0.34468 0.90819 0.30855 0.0
C1837 C 0.36121 0.92715 0.31146 0.0
C1838 C 0.35982 0.94384 0.30913 0.0
C1839 C 0.34188 0.94162 0.30391 0.0
C1840 C 0.32531 0.9227 0.30096 0.0
C1841 C 0.23359 0.84023 0.32433 0.0
C1842 C 0.22326 0.85035 0.32175 0.0
C1843 C 0.25027 0.84402 0.31826 0.0
C1844 C 0.25701 0.85809 0.30959 0.0
C1845 C 0.24688 0.86835 0.30708 0.0
C1846 C 0.23005 0.8644 0.31302 0.0
C1847 C 0.27473 0.8622 0.30319 0.0
C1848 C 0.29146 0.88124 0.30525 0.0
C1849 C 0.27542 0.8473 0.29548 0.0
C1850 C 0.25783 0.82719 0.29249 0.0
C1851 C 0.23971 0.8247 0.28714 0.0
C1852 C 0.22317 0.80573 0.28438 0.0
C1853 C 0.2246 0.7891 0.28683 0.0
C1854 C 0.24258 0.79141 0.29205 0.0
C1855 C 0.25917 0.81036 0.29485 0.0
H1856 H 0.21179 0.77443 0.28464 0.0
H1857 H 0.37264 0.95851 0.31139 0.0
H1858 H 0.10366 0.47557 0.28047 0.0
H1859 H 0.11703 0.45543 0.28871 0.0
H1860 H 0.06059 0.41664 0.30179 0.0
H1861 H 0.04694 0.43644 0.29322 0.0
H1862 H 0.10133 0.43568 0.3197 0.0
H1863 H 0.06488 0.39593 0.28047 0.0
H1864 H 0.05623 0.39155 0.25766 0.0
H1865 H 0.11722 0.41262 0.25186 0.0
H1866 H 0.12628 0.41742 0.27466 0.0
H1867 H 0.12169 0.3622 0.33904 0.0
H1868 H 0.10647 0.38053 0.33077 0.0
H1869 H 0.14685 0.39915 0.30226 0.0
H1870 H 0.16123 0.37973 0.31007 0.0
H1871 H 0.1133 0.39035 0.29208 0.0
H1872 H 0.15133 0.43056 0.32965 0.0
H1873 H 0.16314 0.4383 0.35214 0.0
H1874 H 0.10412 0.42102 0.361 0.0
H1875 H 0.0919 0.41293 0.33857 0.0
C1876 C 0.09413 0.4627 0.28508 0.0
C1877 C 0.07432 0.45746 0.28624 0.0
C1878 C 0.10175 0.45126 0.28974 0.0
C1879 C 0.08975 0.43464 0.29582 0.0
C1880 C 0.07 0.42945 0.2971 0.0
C1881 C 0.06224 0.44066 0.29219 0.0
C1882 C 0.09801 0.42282 0.30089 0.0
C1883 C 0.1037 0.42549 0.31375 0.0
C1884 C 0.10175 0.41025 0.29297 0.0
C1885 C 0.09629 0.40725 0.27927 0.0
C1886 C 0.07648 0.39983 0.27434 0.0
C1887 C 0.07149 0.39722 0.26141 0.0
C1888 C 0.08618 0.40186 0.25332 0.0
C1889 C 0.10587 0.40906 0.25814 0.0
C1890 C 0.11093 0.41171 0.27106 0.0
C1891 C 0.12736 0.3703 0.33105 0.0
C1892 C 0.14268 0.36968 0.32522 0.0
C1893 C 0.11873 0.38087 0.32636 0.0
C1894 C 0.12575 0.39161 0.31602 0.0
C1895 C 0.14115 0.39102 0.31024 0.0
C1896 C 0.14942 0.37999 0.31472 0.0
C1897 C 0.11672 0.40303 0.31106 0.0
C1898 C 0.11093 0.40041 0.29815 0.0
C1899 C 0.11336 0.41606 0.31893 0.0
C1900 C 0.12067 0.42096 0.33243 0.0
C1901 C 0.14084 0.42828 0.3364 0.0
C1902 C 0.14762 0.43275 0.34914 0.0
C1903 C 0.13438 0.43011 0.35799 0.0
C1904 C 0.11435 0.42304 0.35413 0.0
C1905 C 0.1075 0.41853 0.34141 0.0
H1906 H 0.13965 0.43357 0.36785 0.0
H1907 H 0.08229 0.39982 0.24331 0.0
H1908 H 0.3452 0.44511 0.26452 0.0
H1909 H 0.31482 0.42756 0.27461 0.0
H1910 H 0.34804 0.45401 0.31073 0.0
H1911 H 0.3787 0.47078 0.30076 0.0
H1912 H 0.32172 0.41684 0.31216 0.0
H1913 H 0.31982 0.47151 0.29611 0.0
H1914 H 0.3214 0.49366 0.2803 0.0
H1915 H 0.27114 0.44508 0.25823 0.0
H1916 H 0.26942 0.42256 0.27382 0.0
H1917 H 0.2335 0.39177 0.34238 0.0
H1918 H 0.26534 0.41224 0.33402 0.0
H1919 H 0.24015 0.3797 0.29763 0.0
H1920 H 0.20856 0.35908 0.3059 0.0
H1921 H 0.26299 0.42214 0.2977 0.0
H1922 H 0.26688 0.36747 0.31385 0.0
H1923 H 0.26543 0.34622 0.33025 0.0
H1924 H 0.31245 0.39677 0.35305 0.0
H1925 H 0.31396 0.41838 0.33685 0.0
C1926 C 0.34615 0.44696 0.27463 0.0
C1927 C 0.36443 0.45949 0.28181 0.0
C1928 C 0.32869 0.43711 0.28038 0.0
C1929 C 0.32906 0.43979 0.29342 0.0
C1930 C 0.34735 0.45184 0.30065 0.0
C1931 C 0.36485 0.46157 0.29491 0.0
C1932 C 0.31037 0.43009 0.29948 0.0
C1933 C 0.30901 0.41828 0.30912 0.0
C1934 C 0.29367 0.43181 0.29548 0.0
C1935 C 0.2946 0.44531 0.28609 0.0
C1936 C 0.30919 0.46552 0.28784 0.0
C1937 C 0.3101 0.47814 0.27892 0.0
C1938 C 0.29641 0.47077 0.26825 0.0
C1939 C 0.28175 0.45076 0.26649 0.0
C1940 C 0.28079 0.43806 0.27537 0.0
C1941 C 0.23474 0.38914 0.33258 0.0
C1942 C 0.21862 0.37378 0.32481 0.0
C1943 C 0.25291 0.40076 0.32784 0.0
C1944 C 0.25505 0.39737 0.31523 0.0
C1945 C 0.23876 0.38252 0.30738 0.0
C1946 C 0.22078 0.3707 0.31215 0.0
C1947 C 0.27439 0.40881 0.3102 0.0
C1948 C 0.27582 0.42092 0.30078 0.0
C1949 C 0.2912 0.40755 0.31449 0.0
C1950 C 0.29036 0.39457 0.32421 0.0
C1951 C 0.27677 0.37408 0.32241 0.0
C1952 C 0.27597 0.36197 0.33166 0.0
C1953 C 0.28879 0.37015 0.3427 0.0
C1954 C 0.30249 0.39046 0.3445 0.0
C1955 C 0.30333 0.40264 0.33529 0.0
H1956 H 0.28816 0.36075 0.34985 0.0
H1957 H 0.29714 0.48057 0.26136 0.0
H1958 H 0.49696 0.85336 0.28041 0.0
H1959 H 0.52033 0.84489 0.29048 0.0
H1960 H 0.56934 0.89703 0.2787 0.0
H1961 H 0.54608 0.90579 0.26873 0.0
H1962 H 0.57378 0.86429 0.27527 0.0
H1963 H 0.55864 0.89743 0.30812 0.0
H1964 H 0.53671 0.9034 0.32103 0.0
H1965 H 0.51255 0.84498 0.33274 0.0
H1966 H 0.53414 0.83855 0.31975 0.0
H1967 H 0.65098 0.86783 0.31578 0.0
H1968 H 0.62763 0.87532 0.30469 0.0
H1969 H 0.57874 0.8257 0.31873 0.0
H1970 H 0.60206 0.8184 0.33014 0.0
H1971 H 0.57415 0.85696 0.32069 0.0
H1972 H 0.59017 0.82408 0.28822 0.0
H1973 H 0.61245 0.81842 0.27547 0.0
H1974 H 0.63518 0.87624 0.26302 0.0
H1975 H 0.61327 0.88239 0.27586 0.0
C1976 C 0.51272 0.86313 0.28003 0.0
C1977 C 0.51965 0.88035 0.27384 0.0
C1978 C 0.52604 0.85821 0.28575 0.0
C1979 C 0.54658 0.87044 0.28544 0.0
C1980 C 0.55355 0.88738 0.27902 0.0
C1981 C 0.54022 0.89233 0.27331 0.0
C1982 C 0.56077 0.86577 0.29207 0.0
C1983 C 0.57405 0.8629 0.28523 0.0
C1984 C 0.5608 0.86358 0.305 0.0
C1985 C 0.54787 0.86744 0.31287 0.0
C1986 C 0.54854 0.8858 0.31337 0.0
C1987 C 0.53619 0.88927 0.32072 0.0
C1988 C 0.52321 0.87456 0.32767 0.0
C1989 C 0.52259 0.85635 0.32733 0.0
C1990 C 0.53489 0.85279 0.31999 0.0
C1991 C 0.63526 0.85849 0.31652 0.0
C1992 C 0.62839 0.84251 0.32386 0.0
C1993 C 0.62191 0.86273 0.3101 0.0
C1994 C 0.6014 0.85089 0.31072 0.0
C1995 C 0.5945 0.83501 0.3181 0.0
C1996 C 0.60786 0.83085 0.32461 0.0
C1997 C 0.58716 0.85535 0.30391 0.0
C1998 C 0.57388 0.85824 0.31072 0.0
C1999 C 0.58715 0.85753 0.29095 0.0
C2000 C 0.60018 0.85376 0.2831 0.0
C2001 C 0.60002 0.83565 0.28283 0.0
C2002 C 0.61257 0.83235 0.27558 0.0
C2003 C 0.62524 0.84698 0.26845 0.0
C2004 C 0.62536 0.86493 0.26855 0.0
C2005 C 0.61287 0.86832 0.27581 0.0
H2006 H 0.63494 0.84439 0.26283 0.0
H2007 H 0.51366 0.87728 0.33336 0.0
H2008 H 0.06906 0.60865 0.30879 0.0
H2009 H 0.0846 0.643 0.3182 0.0
H2010 H 0.10082 0.66364 0.28217 0.0
H2011 H 0.08585 0.62944 0.27279 0.0
H2012 H 0.13146 0.68378 0.30026 0.0
H2013 H 0.06194 0.66385 0.29447 0.0
H2014 H 0.02638 0.64274 0.2969 0.0
H2015 H 0.03911 0.65506 0.33681 0.0
H2016 H 0.07481 0.67604 0.33462 0.0
H2017 H 0.15276 0.78272 0.309 0.0
H2018 H 0.13811 0.74749 0.30226 0.0
H2019 H 0.1258 0.73377 0.34 0.0
H2020 H 0.14036 0.76908 0.34687 0.0
H2021 H 0.09401 0.70957 0.32284 0.0
H2022 H 0.16317 0.73135 0.32865 0.0
H2023 H 0.19874 0.75254 0.32632 0.0
H2024 H 0.18696 0.73665 0.28663 0.0
H2025 H 0.15124 0.71565 0.28868 0.0
C2026 C 0.07601 0.62052 0.3029 0.0
C2027 C 0.07616 0.61634 0.29004 0.0
C2028 C 0.08475 0.64012 0.30826 0.0
C2029 C 0.09372 0.65584 0.30086 0.0
C2030 C 0.09394 0.65171 0.28804 0.0
C2031 C 0.0852 0.63216 0.28268 0.0
C2032 C 0.10313 0.67668 0.30643 0.0
C2033 C 0.12323 0.68948 0.30508 0.0
C2034 C 0.09252 0.68392 0.31306 0.0
C2035 C 0.07107 0.67133 0.31439 0.0
C2036 C 0.05718 0.66192 0.30377 0.0
C2037 C 0.037 0.65001 0.3051 0.0
C2038 C 0.0305 0.64751 0.31701 0.0
C2039 C 0.04417 0.65698 0.3276 0.0
C2040 C 0.06438 0.66889 0.32632 0.0
C2041 C 0.14697 0.77225 0.3159 0.0
C2042 C 0.14777 0.77871 0.32849 0.0
C2043 C 0.13868 0.75212 0.31202 0.0
C2044 C 0.13107 0.73807 0.32066 0.0
C2045 C 0.13165 0.74441 0.33321 0.0
C2046 C 0.14003 0.76459 0.33711 0.0
C2047 C 0.12224 0.71673 0.31646 0.0
C2048 C 0.10228 0.70384 0.31809 0.0
C2049 C 0.13299 0.70939 0.3101 0.0
C2050 C 0.15448 0.72205 0.30881 0.0
C2051 C 0.16813 0.73252 0.31941 0.0
C2052 C 0.18832 0.74448 0.31814 0.0
C2053 C 0.1951 0.74598 0.30634 0.0
C2054 C 0.18169 0.73551 0.29577 0.0
C2055 C 0.16146 0.72356 0.29698 0.0
H2056 H 0.21075 0.7552 0.30539 0.0
H2057 H 0.01487 0.63829 0.31802 0.0
H2058 H 0.82363 0.04916 0.38195 0.0
H2059 H 0.80073 0.01472 0.37394 0.0
H2060 H 0.7731 0.00477 0.40829 0.0
H2061 H 0.79681 0.0388 0.41671 0.0
H2062 H 0.77703 0.97479 0.40163 0.0
H2063 H 0.75129 0.0106 0.38053 0.0
H2064 H 0.75199 0.03616 0.36786 0.0
H2065 H 0.76829 0.01219 0.33683 0.0
H2066 H 0.76795 0.98664 0.34937 0.0
H2067 H 0.68999 0.88377 0.37546 0.0
H2068 H 0.71188 0.9181 0.38464 0.0
H2069 H 0.74983 0.92804 0.35521 0.0
H2070 H 0.72828 0.89385 0.34606 0.0
H2071 H 0.73896 0.95767 0.35978 0.0
H2072 H 0.76518 0.92216 0.38203 0.0
H2073 H 0.76269 0.89622 0.395 0.0
H2074 H 0.74289 0.91958 0.42437 0.0
H2075 H 0.74499 0.94551 0.41149 0.0
C2076 C 0.81286 0.03962 0.38789 0.0
C2077 C 0.81206 0.04686 0.39998 0.0
C2078 C 0.79957 0.01996 0.38321 0.0
C2079 C 0.78492 0.00722 0.39042 0.0
C2080 C 0.78418 0.01434 0.40252 0.0
C2081 C 0.79763 0.03391 0.40726 0.0
C2082 C 0.77059 0.98638 0.38542 0.0
C2083 C 0.76849 0.97111 0.39256 0.0
C2084 C 0.75956 0.98148 0.37352 0.0
C2085 C 0.75978 0.99682 0.36594 0.0
C2086 C 0.75518 0.01087 0.37104 0.0
C2087 C 0.75548 0.02534 0.36388 0.0
C2088 C 0.76023 0.02583 0.35156 0.0
C2089 C 0.76464 0.01181 0.34638 0.0
C2090 C 0.76437 0.99732 0.35351 0.0
C2091 C 0.70303 0.89326 0.37097 0.0
C2092 C 0.70744 0.8861 0.36006 0.0
C2093 C 0.71551 0.91282 0.37623 0.0
C2094 C 0.73243 0.92552 0.37058 0.0
C2095 C 0.7368 0.91844 0.35968 0.0
C2096 C 0.72453 0.89887 0.35452 0.0
C2097 C 0.74562 0.94629 0.37595 0.0
C2098 C 0.74746 0.96148 0.36888 0.0
C2099 C 0.75616 0.95112 0.38797 0.0
C2100 C 0.75503 0.93563 0.39574 0.0
C2101 C 0.76013 0.92166 0.39121 0.0
C2102 C 0.75882 0.90698 0.39855 0.0
C2103 C 0.75258 0.90622 0.41048 0.0
C2104 C 0.74769 0.92017 0.41511 0.0
C2105 C 0.74895 0.93487 0.4078 0.0
H2106 H 0.75157 0.89484 0.41615 0.0
H2107 H 0.76045 0.03704 0.34603 0.0
H2108 H 0.97863 0.75063 0.40562 0.0
H2109 H 0.00959 0.76184 0.39599 0.0
H2110 H 0.01595 0.81981 0.39477 0.0
H2111 H 0.98492 0.8086 0.40424 0.0
H2112 H 0.02372 0.80909 0.37359 0.0
H2113 H 0.04461 0.81106 0.41634 0.0
H2114 H 0.044 0.79848 0.43684 0.0
H2115 H 0.05451 0.75351 0.42038 0.0
H2116 H 0.05494 0.76568 0.39975 0.0
H2117 H 0.13673 0.84167 0.37539 0.0
H2118 H 0.1071 0.83316 0.38594 0.0
H2119 H 0.07007 0.7995 0.35202 0.0
H2120 H 0.09965 0.80855 0.34129 0.0
H2121 H 0.07867 0.80034 0.3916 0.0
H2122 H 0.027 0.79964 0.35008 0.0
H2123 H 0.02963 0.81657 0.33109 0.0
H2124 H 0.0843 0.86686 0.34779 0.0
H2125 H 0.08186 0.85034 0.36693 0.0
C2126 C 0.98674 0.76581 0.40339 0.0
C2127 C 0.97934 0.77873 0.40567 0.0
C2128 C 0.00443 0.77221 0.3979 0.0
C2129 C 0.01521 0.79173 0.39475 0.0
C2130 C 0.00787 0.80466 0.39707 0.0
C2131 C 0.99012 0.79823 0.40247 0.0
C2132 C 0.03394 0.7986 0.38881 0.0
C2133 C 0.03573 0.80718 0.37753 0.0
C2134 C 0.04983 0.79653 0.39408 0.0
C2135 C 0.0496 0.78916 0.40647 0.0
C2136 C 0.04664 0.79839 0.41708 0.0
C2137 C 0.04636 0.79136 0.42873 0.0
C2138 C 0.04916 0.77518 0.42991 0.0
C2139 C 0.05232 0.76604 0.41946 0.0
C2140 C 0.0526 0.77301 0.40778 0.0
C2141 C 0.12228 0.83256 0.37015 0.0
C2142 C 0.12055 0.82591 0.35747 0.0
C2143 C 0.10534 0.82764 0.37621 0.0
C2144 C 0.08632 0.81587 0.36976 0.0
C2145 C 0.08456 0.80897 0.35714 0.0
C2146 C 0.1015 0.81411 0.35102 0.0
C2147 C 0.06835 0.8106 0.37628 0.0
C2148 C 0.06667 0.80227 0.38765 0.0
C2149 C 0.05284 0.81349 0.37131 0.0
C2150 C 0.05433 0.82365 0.35988 0.0
C2151 C 0.03954 0.81434 0.34971 0.0
C2152 C 0.041 0.82386 0.33892 0.0
C2153 C 0.05716 0.84275 0.33822 0.0
C2154 C 0.07184 0.8522 0.34832 0.0
C2155 C 0.07043 0.84275 0.35914 0.0
H2156 H 0.05827 0.85009 0.32985 0.0
H2157 H 0.04889 0.76975 0.43895 0.0
H2158 H 0.26502 0.20897 0.36953 0.0
H2159 H 0.24838 0.22562 0.36071 0.0
H2160 H 0.24634 0.24809 0.39783 0.0
H2161 H 0.26179 0.23044 0.40676 0.0
H2162 H 0.21217 0.23456 0.38511 0.0
H2163 H 0.27938 0.27774 0.37732 0.0
H2164 H 0.31161 0.28699 0.36949 0.0
H2165 H 0.28305 0.26657 0.33198 0.0
H2166 H 0.25059 0.25695 0.3396 0.0
H2167 H 0.19642 0.31331 0.36965 0.0
H2168 H 0.21148 0.29418 0.37681 0.0
H2169 H 0.19589 0.26155 0.3403 0.0
H2170 H 0.1804 0.28047 0.33306 0.0
H2171 H 0.23771 0.27896 0.35156 0.0
H2172 H 0.17019 0.23748 0.36039 0.0
H2173 H 0.13922 0.23093 0.36909 0.0
H2174 H 0.1704 0.25131 0.40596 0.0
H2175 H 0.20163 0.25828 0.39744 0.0
C2176 C 0.26093 0.21735 0.37584 0.0
C2177 C 0.26473 0.2183 0.38888 0.0
C2178 C 0.25163 0.22708 0.37076 0.0
C2179 C 0.24627 0.23828 0.3786 0.0
C2180 C 0.25035 0.23954 0.39159 0.0
C2181 C 0.25943 0.22963 0.39668 0.0
C2182 C 0.23581 0.24814 0.3733 0.0
C2183 C 0.21791 0.24443 0.37787 0.0
C2184 C 0.24303 0.26071 0.36366 0.0
C2185 C 0.26252 0.26642 0.35905 0.0
C2186 C 0.27995 0.27506 0.36741 0.0
C2187 C 0.29826 0.2804 0.36301 0.0
C2188 C 0.29937 0.27731 0.35025 0.0
C2189 C 0.28217 0.26892 0.34186 0.0
C2190 C 0.26381 0.26353 0.34622 0.0
C2191 C 0.19612 0.30202 0.36315 0.0
C2192 C 0.18726 0.29836 0.35079 0.0
C2193 C 0.20468 0.2911 0.36726 0.0
C2194 C 0.20474 0.27651 0.35907 0.0
C2195 C 0.19594 0.27279 0.34673 0.0
C2196 C 0.18704 0.2835 0.34265 0.0
C2197 C 0.21432 0.26543 0.36346 0.0
C2198 C 0.232 0.26894 0.35873 0.0
C2199 C 0.2071 0.25296 0.37309 0.0
C2200 C 0.18829 0.24857 0.37826 0.0
C2201 C 0.17048 0.24072 0.37034 0.0
C2202 C 0.15287 0.2369 0.37524 0.0
C2203 C 0.15285 0.24074 0.38807 0.0
C2204 C 0.17043 0.24836 0.39602 0.0
C2205 C 0.18809 0.25222 0.39117 0.0
H2206 H 0.1392 0.23778 0.39184 0.0
H2207 H 0.31357 0.28147 0.34686 0.0
H2208 H 0.64766 0.54866 0.74699 0.0
H2209 H 0.67844 0.56862 0.73769 0.0
H2210 H 0.64879 0.53985 0.70112 0.0
H2211 H 0.61773 0.5203 0.71024 0.0
H2212 H 0.686 0.54221 0.70626 0.0
H2213 H 0.65747 0.58454 0.70824 0.0
H2214 H 0.64289 0.60258 0.71859 0.0
H2215 H 0.69611 0.63586 0.74385 0.0
H2216 H 0.71091 0.6178 0.73376 0.0
H2217 H 0.76071 0.60788 0.67032 0.0
H2218 H 0.72982 0.58664 0.6792 0.0
H2219 H 0.75482 0.62164 0.71494 0.0
H2220 H 0.7854 0.64326 0.70602 0.0
H2221 H 0.71934 0.6156 0.70998 0.0
H2222 H 0.74818 0.57384 0.70874 0.0
H2223 H 0.76324 0.55569 0.69915 0.0
H2224 H 0.71055 0.52125 0.67362 0.0
H2225 H 0.69527 0.53939 0.68295 0.0
C2226 C 0.64755 0.54674 0.73695 0.0
C2227 C 0.63014 0.53286 0.72938 0.0
C2228 C 0.66521 0.55808 0.73167 0.0
C2229 C 0.66584 0.55572 0.71873 0.0
C2230 C 0.64861 0.5418 0.71114 0.0
C2231 C 0.63089 0.53058 0.7164 0.0
C2232 C 0.6845 0.56784 0.7131 0.0
C2233 C 0.69321 0.55825 0.70692 0.0
C2234 C 0.69407 0.58876 0.71426 0.0
C2235 C 0.68522 0.59967 0.72032 0.0
C2236 C 0.666 0.59558 0.71607 0.0
C2237 C 0.65771 0.60583 0.72188 0.0
C2238 C 0.66855 0.62032 0.73189 0.0
C2239 C 0.68772 0.62461 0.7361 0.0
C2240 C 0.69607 0.61438 0.73034 0.0
C2241 C 0.75967 0.61092 0.68009 0.0
C2242 C 0.77546 0.62727 0.68745 0.0
C2243 C 0.74202 0.59873 0.68518 0.0
C2244 C 0.74001 0.60242 0.69778 0.0
C2245 C 0.75595 0.61853 0.70519 0.0
C2246 C 0.77345 0.63086 0.70007 0.0
C2247 C 0.72109 0.59003 0.70318 0.0
C2248 C 0.71224 0.59957 0.70931 0.0
C2249 C 0.71153 0.56907 0.70208 0.0
C2250 C 0.72066 0.55812 0.69646 0.0
C2251 C 0.73987 0.56251 0.70102 0.0
C2252 C 0.74843 0.5522 0.69564 0.0
C2253 C 0.73788 0.53736 0.68576 0.0
C2254 C 0.71871 0.53276 0.68126 0.0
C2255 C 0.71009 0.54304 0.6866 0.0
H2256 H 0.74453 0.5294 0.68161 0.0
H2257 H 0.6621 0.62825 0.73637 0.0
H2258 H 0.50355 0.1282 0.72607 0.0
H2259 H 0.47884 0.13501 0.71631 0.0
H2260 H 0.43641 0.09805 0.74056 0.0
H2261 H 0.46057 0.08998 0.74976 0.0
H2262 H 0.41833 0.09162 0.71854 0.0
H2263 H 0.46236 0.15027 0.7455 0.0
H2264 H 0.49455 0.17869 0.75448 0.0
H2265 H 0.50454 0.20132 0.71869 0.0
H2266 H 0.47252 0.17288 0.70945 0.0
H2267 H 0.35219 0.12848 0.70579 0.0
H2268 H 0.37583 0.12091 0.71654 0.0
H2269 H 0.41805 0.15123 0.69039 0.0
H2270 H 0.39469 0.15907 0.67969 0.0
H2271 H 0.43544 0.16105 0.7143 0.0
H2272 H 0.38994 0.10064 0.68778 0.0
H2273 H 0.35674 0.07255 0.68007 0.0
H2274 H 0.3485 0.05374 0.71693 0.0
H2275 H 0.38152 0.08188 0.7249 0.0
C2276 C 0.48888 0.12123 0.72922 0.0
C2277 C 0.48417 0.10859 0.73878 0.0
C2278 C 0.47482 0.12539 0.72374 0.0
C2279 C 0.45586 0.11739 0.72787 0.0
C2280 C 0.45098 0.10453 0.73726 0.0
C2281 C 0.46494 0.10012 0.74262 0.0
C2282 C 0.44109 0.12235 0.72235 0.0
C2283 C 0.42201 0.10683 0.71779 0.0
C2284 C 0.44588 0.14217 0.72123 0.0
C2285 C 0.46512 0.15934 0.72676 0.0
C2286 C 0.47149 0.16123 0.73953 0.0
C2287 C 0.48969 0.17735 0.74467 0.0
C2288 C 0.5016 0.19177 0.73715 0.0
C2289 C 0.49531 0.19012 0.72449 0.0
C2290 C 0.47713 0.17401 0.7193 0.0
C2291 C 0.3665 0.13355 0.70232 0.0
C2292 C 0.37149 0.14431 0.69183 0.0
C2293 C 0.37997 0.12916 0.70846 0.0
C2294 C 0.39861 0.13532 0.70418 0.0
C2295 C 0.40373 0.14631 0.69384 0.0
C2296 C 0.39031 0.15072 0.68772 0.0
C2297 C 0.41285 0.13034 0.7104 0.0
C2298 C 0.4318 0.14587 0.71511 0.0
C2299 C 0.40784 0.11056 0.71182 0.0
C2300 C 0.38812 0.09347 0.70696 0.0
C2301 C 0.38099 0.09058 0.69425 0.0
C2302 C 0.36221 0.07464 0.68983 0.0
C2303 C 0.35051 0.0614 0.69801 0.0
C2304 C 0.35758 0.06402 0.71061 0.0
C2305 C 0.37632 0.07995 0.71508 0.0
H2306 H 0.33597 0.04909 0.6946 0.0
H2307 H 0.51569 0.20425 0.74115 0.0
H2308 H 0.95856 0.39648 0.72725 0.0
H2309 H 0.94448 0.36188 0.71876 0.0
H2310 H 0.89209 0.36151 0.70286 0.0
H2311 H 0.90579 0.39586 0.71163 0.0
H2312 H 0.88252 0.32935 0.71486 0.0
H2313 H 0.92673 0.36329 0.68448 0.0
H2314 H 0.9587 0.3865 0.67707 0.0
H2315 H 0.98495 0.35407 0.69208 0.0
H2316 H 0.95319 0.33081 0.69974 0.0
H2317 H 0.84025 0.23885 0.67595 0.0
H2318 H 0.85562 0.27404 0.68322 0.0
H2319 H 0.90703 0.27345 0.69995 0.0
H2320 H 0.89187 0.23828 0.69263 0.0
H2321 H 0.91729 0.30606 0.68743 0.0
H2322 H 0.8732 0.27235 0.71795 0.0
H2323 H 0.84117 0.24895 0.72522 0.0
H2324 H 0.81472 0.28102 0.70991 0.0
H2325 H 0.84654 0.30444 0.70238 0.0
C2326 C 0.94402 0.38901 0.72197 0.0
C2327 C 0.93331 0.39892 0.72009 0.0
C2328 C 0.93607 0.3693 0.71703 0.0
C2329 C 0.91731 0.35918 0.71008 0.0
C2330 C 0.90662 0.36907 0.70816 0.0
C2331 C 0.91455 0.38875 0.71308 0.0
C2332 C 0.90851 0.3381 0.70515 0.0
C2333 C 0.88999 0.3243 0.70872 0.0
C2334 C 0.91851 0.33147 0.6974 0.0
C2335 C 0.93763 0.34543 0.6928 0.0
C2336 C 0.93936 0.36121 0.6863 0.0
C2337 C 0.95744 0.37435 0.68203 0.0
C2338 C 0.97386 0.37179 0.68413 0.0
C2339 C 0.97223 0.35605 0.69048 0.0
C2340 C 0.95418 0.34287 0.69477 0.0
C2341 C 0.85485 0.2462 0.68115 0.0
C2342 C 0.86479 0.23573 0.68377 0.0
C2343 C 0.86358 0.2663 0.68532 0.0
C2344 C 0.88236 0.27628 0.69223 0.0
C2345 C 0.89251 0.266 0.69464 0.0
C2346 C 0.88378 0.24588 0.69049 0.0
C2347 C 0.89129 0.29738 0.69711 0.0
C2348 C 0.90983 0.31115 0.69356 0.0
C2349 C 0.88132 0.30401 0.70489 0.0
C2350 C 0.86221 0.29003 0.70949 0.0
C2351 C 0.86052 0.27432 0.71605 0.0
C2352 C 0.8424 0.26107 0.72023 0.0
C2353 C 0.82591 0.26347 0.718 0.0
C2354 C 0.8275 0.27916 0.71162 0.0
C2355 C 0.84558 0.29244 0.7074 0.0
H2356 H 0.81189 0.25319 0.72125 0.0
H2357 H 0.98784 0.38198 0.68082 0.0
H2358 H 0.16577 0.94094 0.62605 0.0
H2359 H 0.18908 0.97421 0.63597 0.0
H2360 H 0.23627 0.97374 0.61731 0.0
H2361 H 0.21325 0.94 0.60784 0.0
H2362 H 0.24951 0.9903 0.64062 0.0
H2363 H 0.21239 0.99784 0.60641 0.0
H2364 H 0.18228 0.9918 0.59352 0.0
H2365 H 0.16458 0.01399 0.62469 0.0
H2366 H 0.19446 0.01991 0.63782 0.0
H2367 H 0.31539 0.09487 0.64857 0.0
H2368 H 0.29335 0.06043 0.63997 0.0
H2369 H 0.24584 0.05921 0.65915 0.0
H2370 H 0.26764 0.09373 0.66759 0.0
H2371 H 0.23319 0.04349 0.63548 0.0
H2372 H 0.27184 0.03665 0.66952 0.0
H2373 H 0.30281 0.04326 0.68162 0.0
H2374 H 0.3186 0.0204 0.6498 0.0
H2375 H 0.28789 0.01394 0.63745 0.0
C2376 C 0.18117 0.94773 0.62421 0.0
C2377 C 0.18759 0.93779 0.61608 0.0
C2378 C 0.19444 0.96688 0.62978 0.0
C2379 C 0.21434 0.97662 0.62721 0.0
C2380 C 0.22095 0.96657 0.61937 0.0
C2381 C 0.20771 0.94734 0.61386 0.0
C2382 C 0.22816 0.99742 0.63249 0.0
C2383 C 0.24605 0.00199 0.63938 0.0
C2384 C 0.22353 0.01262 0.63102 0.0
C2385 C 0.20557 0.00913 0.62313 0.0
C2386 C 0.202 0.00129 0.61054 0.0
C2387 C 0.18499 0.99791 0.60319 0.0
C2388 C 0.1715 0.00246 0.60829 0.0
C2389 C 0.17502 0.01044 0.62075 0.0
C2390 C 0.19201 0.01383 0.62815 0.0
C2391 C 0.30028 0.08726 0.651 0.0
C2392 C 0.29327 0.09705 0.65877 0.0
C2393 C 0.28772 0.06753 0.64612 0.0
C2394 C 0.26801 0.05717 0.64903 0.0
C2395 C 0.26101 0.06691 0.6568 0.0
C2396 C 0.27351 0.08665 0.66163 0.0
C2397 C 0.25446 0.03635 0.64371 0.0
C2398 C 0.23662 0.0318 0.63677 0.0
C2399 C 0.25925 0.02124 0.64505 0.0
C2400 C 0.27764 0.02497 0.65253 0.0
C2401 C 0.28199 0.03316 0.66508 0.0
C2402 C 0.29949 0.03687 0.67199 0.0
C2403 C 0.31268 0.03229 0.66647 0.0
C2404 C 0.30838 0.02396 0.65405 0.0
C2405 C 0.29092 0.02026 0.6471 0.0
H2406 H 0.32621 0.03514 0.67182 0.0
H2407 H 0.15833 -0.00017 0.60258 0.0
H2408 H 0.00972 0.21692 0.58964 0.0
H2409 H 0.98022 0.21002 0.59997 0.0
H2410 H 0.00987 0.21018 0.63513 0.0
H2411 H 0.03965 0.21768 0.62501 0.0
H2412 H 0.97118 0.17788 0.63011 0.0
H2413 H 0.00538 0.24892 0.63023 0.0
H2414 H 0.02169 0.28035 0.62066 0.0
H2415 H 0.96774 0.26262 0.59729 0.0
H2416 H 0.95119 0.23094 0.60661 0.0
H2417 H 0.90379 0.18029 0.67051 0.0
H2418 H 0.93317 0.18693 0.66014 0.0
H2419 H 0.90719 0.19629 0.62653 0.0
H2420 H 0.87811 0.19035 0.63698 0.0
H2421 H 0.94413 0.22354 0.63056 0.0
H2422 H 0.90951 0.1529 0.62985 0.0
H2423 H 0.89257 0.12085 0.63866 0.0
H2424 H 0.94603 0.13653 0.66196 0.0
H2425 H 0.96322 0.16881 0.6534 0.0
C2426 C 0.01011 0.21576 0.5996 0.0
C2427 C 0.02714 0.2179 0.60648 0.0
C2428 C 0.99317 0.2117 0.60547 0.0
C2429 C 0.9929 0.20966 0.61832 0.0
C2430 C 0.00975 0.2116 0.62519 0.0
C2431 C 0.02674 0.21581 0.61936 0.0
C2432 C 0.97504 0.20551 0.6246 0.0
C2433 C 0.96537 0.18796 0.63035 0.0
C2434 C 0.9672 0.21841 0.6246 0.0
C2435 C 0.97711 0.23748 0.61903 0.0
C2436 C 0.99705 0.25165 0.62298 0.0
C2437 C 0.00632 0.26952 0.61761 0.0
C2438 C 0.99577 0.27345 0.60835 0.0
C2439 C 0.9759 0.25954 0.60446 0.0
C2440 C 0.96656 0.24163 0.60978 0.0
C2441 C 0.9043 0.18369 0.6609 0.0
C2442 C 0.88859 0.18477 0.65457 0.0
C2443 C 0.92108 0.1874 0.65495 0.0
C2444 C 0.92232 0.19185 0.64248 0.0
C2445 C 0.90662 0.19291 0.63616 0.0
C2446 C 0.88997 0.18947 0.64214 0.0
C2447 C 0.94012 0.19583 0.63609 0.0
C2448 C 0.94984 0.21338 0.63031 0.0
C2449 C 0.94786 0.18279 0.63595 0.0
C2450 C 0.9376 0.16336 0.64107 0.0
C2451 C 0.91761 0.14958 0.63692 0.0
C2452 C 0.90797 0.13136 0.64186 0.0
C2453 C 0.9182 0.12668 0.65089 0.0
C2454 C 0.93812 0.14019 0.65497 0.0
C2455 C 0.94782 0.15844 0.65007 0.0
H2456 H 0.91071 0.11256 0.6547 0.0
H2457 H 0.00298 0.2873 0.60421 0.0
H2458 H 0.75433 0.81429 0.63839 0.0
H2459 H 0.76876 0.79544 0.64691 0.0
H2460 H 0.72005 0.74144 0.62768 0.0
H2461 H 0.70508 0.76013 0.61946 0.0
H2462 H 0.72973 0.73608 0.65115 0.0
H2463 H 0.76422 0.76442 0.61578 0.0
H2464 H 0.78339 0.79129 0.60285 0.0
H2465 H 0.83045 0.82038 0.63282 0.0
H2466 H 0.81142 0.7938 0.64599 0.0
H2467 H 0.77464 0.67629 0.65208 0.0
H2468 H 0.759 0.69531 0.64591 0.0
H2469 H 0.80809 0.74829 0.66586 0.0
H2470 H 0.82401 0.72939 0.672 0.0
H2471 H 0.79832 0.75454 0.64264 0.0
H2472 H 0.76403 0.72521 0.67777 0.0
H2473 H 0.74482 0.69789 0.6904 0.0
H2474 H 0.69734 0.67018 0.66062 0.0
H2475 H 0.71639 0.69719 0.64774 0.0
C2476 C 0.74648 0.79836 0.63614 0.0
C2477 C 0.72856 0.78871 0.62822 0.0
C2478 C 0.75487 0.78763 0.64092 0.0
C2479 C 0.74563 0.76709 0.63778 0.0
C2480 C 0.72747 0.75731 0.63017 0.0
C2481 C 0.71903 0.76803 0.6254 0.0
C2482 C 0.75519 0.75591 0.6422 0.0
C2483 C 0.74464 0.73995 0.64918 0.0
C2484 C 0.7748 0.76126 0.63983 0.0
C2485 C 0.7863 0.77723 0.63191 0.0
C2486 C 0.77858 0.77663 0.61965 0.0
C2487 C 0.78944 0.79179 0.61227 0.0
C2488 C 0.8081 0.80756 0.61702 0.0
C2489 C 0.81598 0.80817 0.62915 0.0
C2490 C 0.80517 0.79305 0.63658 0.0
C2491 C 0.78212 0.69197 0.65521 0.0
C2492 C 0.80058 0.70132 0.66255 0.0
C2493 C 0.77309 0.7028 0.65172 0.0
C2494 C 0.78228 0.72316 0.65555 0.0
C2495 C 0.80073 0.73257 0.66284 0.0
C2496 C 0.80978 0.72174 0.66636 0.0
C2497 C 0.77288 0.73471 0.6516 0.0
C2498 C 0.78345 0.75071 0.64468 0.0
C2499 C 0.75328 0.72935 0.65399 0.0
C2500 C 0.74172 0.71314 0.66175 0.0
C2501 C 0.74956 0.71321 0.67388 0.0
C2502 C 0.73868 0.6978 0.68109 0.0
C2503 C 0.71989 0.68229 0.6763 0.0
C2504 C 0.71191 0.68219 0.66431 0.0
C2505 C 0.72273 0.69756 0.65705 0.0
H2506 H 0.7115 0.67036 0.68189 0.0
H2507 H 0.81649 0.81928 0.6113 0.0
H2508 H 0.00568 0.77946 0.59381 0.0
H2509 H 0.97453 0.76172 0.6032 0.0
H2510 H 0.00735 0.77088 0.63904 0.0
H2511 H 0.03856 0.78805 0.62964 0.0
H2512 H 0.97589 0.7339 0.63497 0.0
H2513 H 0.98779 0.79998 0.6322 0.0
H2514 H 0.99473 0.82956 0.62165 0.0
H2515 H 0.94066 0.79536 0.59724 0.0
H2516 H 0.93354 0.76549 0.60754 0.0
H2517 H 0.89918 0.71414 0.67328 0.0
H2518 H 0.92991 0.7318 0.6635 0.0
H2519 H 0.89604 0.71991 0.62769 0.0
H2520 H 0.8652 0.70246 0.6374 0.0
H2521 H 0.92771 0.7579 0.63154 0.0
H2522 H 0.91562 0.69185 0.63476 0.0
H2523 H 0.90836 0.66275 0.64594 0.0
H2524 H 0.96283 0.69727 0.66994 0.0
H2525 H 0.97025 0.72669 0.65903 0.0
C2526 C 0.00628 0.77744 0.60365 0.0
C2527 C 0.02461 0.78528 0.61099 0.0
C2528 C 0.98846 0.76747 0.60903 0.0
C2529 C 0.98863 0.76524 0.62186 0.0
C2530 C 0.00688 0.77252 0.62914 0.0
C2531 C 0.0247 0.78248 0.62377 0.0
C2532 C 0.9698 0.7557 0.62776 0.0
C2533 C 0.96547 0.73929 0.63434 0.0
C2534 C 0.95602 0.76251 0.62674 0.0
C2535 C 0.96024 0.78046 0.62056 0.0
C2536 C 0.97746 0.79873 0.62452 0.0
C2537 C 0.98141 0.81555 0.61859 0.0
C2538 C 0.96817 0.81433 0.60875 0.0
C2539 C 0.95092 0.79628 0.60484 0.0
C2540 C 0.94691 0.7794 0.61073 0.0
C2541 C 0.89822 0.71545 0.66335 0.0
C2542 C 0.8797 0.70671 0.6561 0.0
C2543 C 0.91581 0.72547 0.65776 0.0
C2544 C 0.91523 0.72688 0.64484 0.0
C2545 C 0.8968 0.71889 0.63767 0.0
C2546 C 0.87919 0.70885 0.64324 0.0
C2547 C 0.93386 0.73617 0.63875 0.0
C2548 C 0.93813 0.75251 0.63214 0.0
C2549 C 0.94759 0.72933 0.63977 0.0
C2550 C 0.9434 0.71153 0.64615 0.0
C2551 C 0.92599 0.69327 0.64247 0.0
C2552 C 0.92185 0.67672 0.64876 0.0
C2553 C 0.9351 0.67817 0.65867 0.0
C2554 C 0.95257 0.69617 0.66227 0.0
C2555 C 0.95676 0.71279 0.65603 0.0
H2556 H 0.93185 0.66534 0.66354 0.0
H2557 H 0.97126 0.82737 0.60418 0.0
H2558 H 0.20828 0.24236 0.60864 0.0
H2559 H 0.23108 0.23255 0.61802 0.0
H2560 H 0.1842 0.17135 0.61303 0.0
H2561 H 0.16128 0.18118 0.60389 0.0
H2562 H 0.20308 0.17876 0.63497 0.0
H2563 H 0.22269 0.19049 0.59381 0.0
H2564 H 0.23334 0.20925 0.57548 0.0
H2565 H 0.28626 0.25439 0.59748 0.0
H2566 H 0.27579 0.23603 0.61599 0.0
H2567 H 0.2924 0.15937 0.63445 0.0
H2568 H 0.26905 0.16724 0.62364 0.0
H2569 H 0.26245 0.19202 0.65867 0.0
H2570 H 0.28531 0.18375 0.66958 0.0
H2571 H 0.26931 0.20038 0.62047 0.0
H2572 H 0.21602 0.18406 0.65905 0.0
H2573 H 0.20396 0.16213 0.67587 0.0
H2574 H 0.21559 0.12019 0.6561 0.0
H2575 H 0.22745 0.14172 0.6391 0.0
C2576 C 0.2029 0.22681 0.60948 0.0
C2577 C 0.18302 0.21253 0.60552 0.0
C2578 C 0.21594 0.2212 0.61482 0.0
C2579 C 0.20945 0.20116 0.61609 0.0
C2580 C 0.18957 0.1869 0.61217 0.0
C2581 C 0.17647 0.19252 0.60696 0.0
C2582 C 0.22324 0.19509 0.62173 0.0
C2583 C 0.21755 0.18348 0.63178 0.0
C2584 C 0.24199 0.2009 0.61743 0.0
C2585 C 0.24836 0.21196 0.60631 0.0
C2586 C 0.23652 0.20449 0.59476 0.0
C2587 C 0.24254 0.21504 0.58434 0.0
C2588 C 0.26044 0.23302 0.58532 0.0
C2589 C 0.27238 0.24047 0.59673 0.0
C2590 C 0.26643 0.22999 0.60719 0.0
C2591 C 0.28595 0.16646 0.63986 0.0
C2592 C 0.29059 0.17076 0.6529 0.0
C2593 C 0.27265 0.17101 0.63365 0.0
C2594 C 0.26377 0.17997 0.64035 0.0
C2595 C 0.26877 0.18472 0.65333 0.0
C2596 C 0.28191 0.18003 0.65955 0.0
C2597 C 0.24924 0.18433 0.63381 0.0
C2598 C 0.25482 0.19564 0.62363 0.0
C2599 C 0.23016 0.1778 0.63776 0.0
C2600 C 0.2228 0.16461 0.64786 0.0
C2601 C 0.21592 0.17012 0.65827 0.0
C2602 C 0.20914 0.15776 0.66784 0.0
C2603 C 0.20907 0.13981 0.66707 0.0
C2604 C 0.21572 0.13413 0.65671 0.0
C2605 C 0.22249 0.14642 0.64711 0.0
H2606 H 0.20383 0.13028 0.67449 0.0
H2607 H 0.26507 0.24116 0.57724 0.0
H2608 H 0.70865 0.95008 0.62851 0.0
H2609 H 0.72477 0.98531 0.6361 0.0
H2610 H 0.78204 0.9891 0.63756 0.0
H2611 H 0.76594 0.95383 0.6303 0.0
H2612 H 0.78141 0.00975 0.65701 0.0
H2613 H 0.76425 0.00503 0.61304 0.0
H2614 H 0.74208 0.99285 0.59332 0.0
H2615 H 0.70673 0.01588 0.60799 0.0
H2616 H 0.72855 0.02797 0.62787 0.0
H2617 H 0.81957 0.11872 0.64173 0.0
H2618 H 0.80402 0.08328 0.63513 0.0
H2619 H 0.78478 0.07014 0.6718 0.0
H2620 H 0.8008 0.10552 0.67859 0.0
H2621 H 0.76749 0.0544 0.63284 0.0
H2622 H 0.78359 0.0283 0.67922 0.0
H2623 H 0.80902 0.04115 0.69741 0.0
H2624 H 0.85254 0.08112 0.67513 0.0
H2625 H 0.82746 0.06833 0.65677 0.0
C2626 C 0.72467 0.95846 0.6305 0.0
C2627 C 0.73607 0.94928 0.6288 0.0
C2628 C 0.73387 0.97857 0.6348 0.0
C2629 C 0.75466 0.98993 0.63722 0.0
C2630 C 0.766 0.98064 0.63579 0.0
C2631 C 0.75679 0.9605 0.63165 0.0
C2632 C 0.76467 0.01157 0.64097 0.0
C2633 C 0.77833 0.0195 0.65174 0.0
C2634 C 0.76101 0.02439 0.63395 0.0
C2635 C 0.74792 0.01724 0.62198 0.0
C2636 C 0.75167 0.00738 0.61209 0.0
C2637 C 0.73918 0.00051 0.60088 0.0
C2638 C 0.72298 0.00355 0.59941 0.0
C2639 C 0.71927 0.01352 0.60914 0.0
C2640 C 0.7317 0.02039 0.62038 0.0
C2641 C 0.81208 0.10828 0.6484 0.0
C2642 C 0.81151 0.11492 0.6607 0.0
C2643 C 0.80315 0.08803 0.6446 0.0
C2644 C 0.79342 0.07404 0.653 0.0
C2645 C 0.79254 0.08065 0.66523 0.0
C2646 C 0.80166 0.10089 0.66908 0.0
C2647 C 0.78409 0.05255 0.64894 0.0
C2648 C 0.77053 0.04464 0.63814 0.0
C2649 C 0.78832 0.03985 0.65571 0.0
C2650 C 0.80358 0.04749 0.66666 0.0
C2651 C 0.79861 0.03978 0.67819 0.0
C2652 C 0.81296 0.04706 0.68853 0.0
C2653 C 0.83237 0.06199 0.68744 0.0
C2654 C 0.83749 0.06961 0.67598 0.0
C2655 C 0.8232 0.06237 0.66561 0.0
H2656 H 0.84345 0.06762 0.69545 0.0
H2657 H 0.71332 0.99821 0.59073 0.0
H2658 H 0.46379 0.36472 0.74359 0.0
H2659 H 0.44163 0.33073 0.73432 0.0
H2660 H 0.44858 0.35049 0.69749 0.0
H2661 H 0.47037 0.38474 0.70674 0.0
H2662 H 0.41001 0.32343 0.69999 0.0
H2663 H 0.47364 0.32873 0.70797 0.0
H2664 H 0.50468 0.33677 0.72058 0.0
H2665 H 0.47126 0.2946 0.74575 0.0
H2666 H 0.43998 0.28651 0.73338 0.0
H2667 H 0.37091 0.22699 0.66775 0.0
H2668 H 0.39257 0.26178 0.67577 0.0
H2669 H 0.388 0.24568 0.71351 0.0
H2670 H 0.3665 0.21085 0.7056 0.0
H2671 H 0.42601 0.27128 0.70969 0.0
H2672 H 0.36231 0.26658 0.70188 0.0
H2673 H 0.33135 0.25856 0.68917 0.0
H2674 H 0.36506 0.29955 0.6635 0.0
H2675 H 0.39626 0.30761 0.67596 0.0
C2676 C 0.46041 0.3619 0.73352 0.0
C2677 C 0.46887 0.37744 0.72589 0.0
C2678 C 0.44789 0.34243 0.72823 0.0
C2679 C 0.44368 0.33806 0.71521 0.0
C2680 C 0.45172 0.35355 0.70756 0.0
C2681 C 0.46428 0.37307 0.71285 0.0
C2682 C 0.43107 0.31725 0.70963 0.0
C2683 C 0.41364 0.31206 0.70195 0.0
C2684 C 0.43567 0.30239 0.71238 0.0
C2685 C 0.45446 0.30715 0.71981 0.0
C2686 C 0.4729 0.32128 0.71624 0.0
C2687 C 0.49054 0.32583 0.72334 0.0
C2688 C 0.48994 0.31623 0.73397 0.0
C2689 C 0.4717 0.30203 0.73752 0.0
C2690 C 0.45401 0.29745 0.73046 0.0
C2691 C 0.37448 0.23083 0.67776 0.0
C2692 C 0.36694 0.21613 0.68604 0.0
C2693 C 0.3868 0.25074 0.68232 0.0
C2694 C 0.39174 0.25632 0.69524 0.0
C2695 C 0.38435 0.24168 0.70351 0.0
C2696 C 0.37202 0.22178 0.69896 0.0
C2697 C 0.40484 0.27739 0.70016 0.0
C2698 C 0.4224 0.28264 0.7077 0.0
C2699 C 0.40037 0.29229 0.69725 0.0
C2700 C 0.38163 0.28754 0.68978 0.0
C2701 C 0.36313 0.27376 0.69347 0.0
C2702 C 0.34554 0.26924 0.68632 0.0
C2703 C 0.34624 0.2785 0.67552 0.0
C2704 C 0.36454 0.29236 0.67186 0.0
C2705 C 0.38218 0.29693 0.67897 0.0
H2706 H 0.3326 0.27498 0.67 0.0
H2707 H 0.50361 0.31977 0.73946 0.0
H2708 H 0.65405 0.14648 0.73887 0.0
H2709 H 0.68425 0.15588 0.72874 0.0
H2710 H 0.67556 0.09714 0.73068 0.0
H2711 H 0.64543 0.08772 0.74099 0.0
H2712 H 0.71361 0.12369 0.73597 0.0
H2713 H 0.66293 0.11069 0.70346 0.0
H2714 H 0.63576 0.1137 0.69282 0.0
H2715 H 0.67548 0.17579 0.69113 0.0
H2716 H 0.70284 0.1732 0.70192 0.0
H2717 H 0.76568 0.14455 0.67426 0.0
H2718 H 0.73612 0.13397 0.68525 0.0
H2719 H 0.77295 0.16882 0.71896 0.0
H2720 H 0.8026 0.17901 0.70812 0.0
H2721 H 0.71998 0.15215 0.69543 0.0
H2722 H 0.75131 0.14726 0.74474 0.0
H2723 H 0.77609 0.13968 0.75425 0.0
H2724 H 0.77206 0.10624 0.72001 0.0
H2725 H 0.74699 0.11327 0.71037 0.0
C2726 C 0.65856 0.13556 0.73712 0.0
C2727 C 0.64728 0.11631 0.74063 0.0
C2728 C 0.67582 0.14095 0.73133 0.0
C2729 C 0.68201 0.12712 0.72877 0.0
C2730 C 0.67107 0.10805 0.73256 0.0
C2731 C 0.65387 0.10269 0.73845 0.0
C2732 C 0.69961 0.13245 0.72185 0.0
C2733 C 0.71504 0.12995 0.72712 0.0
C2734 C 0.70127 0.14018 0.71015 0.0
C2735 C 0.68488 0.14178 0.70361 0.0
C2736 C 0.66583 0.12501 0.7009 0.0
C2737 C 0.6504 0.12664 0.69483 0.0
C2738 C 0.65388 0.14493 0.69133 0.0
C2739 C 0.6728 0.16163 0.69386 0.0
C2740 C 0.68828 0.16009 0.69995 0.0
C2741 C 0.7675 0.15003 0.684 0.0
C2742 C 0.7865 0.16255 0.69032 0.0
C2743 C 0.75057 0.14395 0.69028 0.0
C2744 C 0.75228 0.15036 0.70299 0.0
C2745 C 0.77124 0.1633 0.70924 0.0
C2746 C 0.78819 0.16921 0.703 0.0
C2747 C 0.73419 0.14366 0.70962 0.0
C2748 C 0.71863 0.14594 0.7043 0.0
C2749 C 0.73222 0.13521 0.7211 0.0
C2750 C 0.74739 0.13097 0.7268 0.0
C2751 C 0.75567 0.13824 0.73925 0.0
C2752 C 0.76976 0.13403 0.74467 0.0
C2753 C 0.77563 0.12249 0.73773 0.0
C2754 C 0.7675 0.11519 0.72536 0.0
C2755 C 0.75336 0.1193 0.71991 0.0
H2756 H 0.78647 0.11917 0.74194 0.0
H2757 H 0.64191 0.14616 0.68663 0.0
H2758 H 0.90236 0.53114 0.71512 0.0
H2759 H 0.88883 0.55026 0.70583 0.0
H2760 H 0.94713 0.60246 0.71105 0.0
H2761 H 0.96066 0.58339 0.72065 0.0
H2762 H 0.92136 0.61195 0.71764 0.0
H2763 H 0.92548 0.57664 0.68164 0.0
H2764 H 0.92088 0.54764 0.66827 0.0
H2765 H 0.85757 0.52138 0.66709 0.0
H2766 H 0.86178 0.5501 0.68061 0.0
H2767 H 0.86774 0.63813 0.66431 0.0
H2768 H 0.88702 0.62265 0.67085 0.0
H2769 H 0.86495 0.61703 0.70701 0.0
H2770 H 0.84611 0.63293 0.70068 0.0
H2771 H 0.87736 0.58765 0.67771 0.0
H2772 H 0.8993 0.62277 0.72948 0.0
H2773 H 0.90665 0.65387 0.7416 0.0
H2774 H 0.92364 0.68465 0.70884 0.0
H2775 H 0.91667 0.65381 0.69657 0.0
C2776 C 0.91233 0.54665 0.71416 0.0
C2777 C 0.93258 0.55577 0.71853 0.0
C2778 C 0.9046 0.55756 0.70883 0.0
C2779 C 0.91702 0.57774 0.70753 0.0
C2780 C 0.93727 0.5869 0.71192 0.0
C2781 C 0.94498 0.57602 0.7174 0.0
C2782 C 0.90863 0.58932 0.70201 0.0
C2783 C 0.91184 0.60669 0.70888 0.0
C2784 C 0.89659 0.58277 0.69041 0.0
C2785 C 0.89396 0.56548 0.68222 0.0
C2786 C 0.91058 0.56462 0.6786 0.0
C2787 C 0.90804 0.54824 0.67099 0.0
C2788 C 0.88895 0.53266 0.66685 0.0
C2789 C 0.87235 0.53345 0.6703 0.0
C2790 C 0.8748 0.5498 0.67793 0.0
C2791 C 0.86696 0.63355 0.67364 0.0
C2792 C 0.85547 0.63683 0.682 0.0
C2793 C 0.87798 0.6247 0.67736 0.0
C2794 C 0.87766 0.61895 0.68948 0.0
C2795 C 0.86578 0.62175 0.69771 0.0
C2796 C 0.85493 0.63075 0.69405 0.0
C2797 C 0.88959 0.60987 0.69355 0.0
C2798 C 0.88705 0.593 0.68641 0.0
C2799 C 0.9027 0.6172 0.70471 0.0
C2800 C 0.90731 0.63592 0.71209 0.0
C2801 C 0.90472 0.6362 0.72488 0.0
C2802 C 0.90879 0.65378 0.73177 0.0
C2803 C 0.91555 0.67121 0.72599 0.0
C2804 C 0.91833 0.67112 0.71331 0.0
C2805 C 0.9143 0.65359 0.70638 0.0
H2806 H 0.91867 0.6848 0.73134 0.0
H2807 H 0.88701 0.51998 0.66096 0.0
H2808 H 0.4384 0.92778 0.17862 0.0
H2809 H 0.44451 0.94117 0.1584 0.0
H2810 H 0.50439 0.98484 0.17319 0.0
H2811 H 0.49824 0.97179 0.19354 0.0
H2812 H 0.4866 0.00076 0.15886 0.0
H2813 H 0.49629 0.94467 0.15534 0.0
H2814 H 0.48724 0.90983 0.15661 0.0
H2815 H 0.4368 0.89071 0.12953 0.0
H2816 H 0.4454 0.92546 0.12824 0.0
H2817 H 0.52737 0.0274 0.10092 0.0
H2818 H 0.52015 0.01628 0.12168 0.0
H2819 H 0.46076 0.97163 0.10666 0.0
H2820 H 0.46777 0.98279 0.08592 0.0
H2821 H 0.47815 0.95642 0.1212 0.0
H2822 H 0.46877 0.01261 0.12442 0.0
H2823 H 0.47786 0.04747 0.12314 0.0
H2824 H 0.52771 0.06647 0.15069 0.0
H2825 H 0.51907 0.03173 0.152 0.0
C2826 C 0.45279 0.94038 0.17762 0.0
C2827 C 0.46787 0.94868 0.18767 0.0
C2828 C 0.45631 0.94792 0.16603 0.0
C2829 C 0.47498 0.96385 0.16426 0.0
C2830 C 0.4899 0.97249 0.17435 0.0
C2831 C 0.48642 0.96492 0.18593 0.0
C2832 C 0.47905 0.97122 0.15181 0.0
C2833 C 0.48499 0.99115 0.15064 0.0
C2834 C 0.47655 0.95855 0.14106 0.0
C2835 C 0.47137 0.93765 0.14179 0.0
C2836 C 0.48317 0.93303 0.14974 0.0
C2837 C 0.47815 0.9133 0.15045 0.0
C2838 C 0.46143 0.89806 0.14318 0.0
C2839 C 0.44973 0.90253 0.13517 0.0
C2840 C 0.45468 0.92224 0.13444 0.0
C2841 C 0.51268 0.0154 0.10207 0.0
C2842 C 0.49816 0.00597 0.09175 0.0
C2843 C 0.50859 0.00904 0.11393 0.0
C2844 C 0.48987 0.9932 0.11573 0.0
C2845 C 0.47532 0.98383 0.10548 0.0
C2846 C 0.47939 0.99019 0.09362 0.0
C2847 C 0.48564 0.98597 0.12822 0.0
C2848 C 0.47971 0.96605 0.1294 0.0
C2849 C 0.48816 -0.00134 0.13896 0.0
C2850 C 0.49338 0.01957 0.13821 0.0
C2851 C 0.48177 0.02423 0.13013 0.0
C2852 C 0.48682 0.04397 0.12941 0.0
C2853 C 0.50338 0.05918 0.13681 0.0
C2854 C 0.5149 0.05468 0.14495 0.0
C2855 C 0.50992 0.03496 0.14569 0.0
H2856 H 0.50727 0.07445 0.13624 0.0
H2857 H 0.45756 0.8828 0.14374 0.0
H2858 H 0.03098 0.52881 0.1921 0.0
H2859 H 0.02325 0.52439 0.16945 0.0
H2860 H 0.97422 0.46558 0.17173 0.0
H2861 H 0.98211 0.46987 0.1945 0.0
H2862 H 0.99469 0.46573 0.15275 0.0
H2863 H 0.96639 0.50448 0.16714 0.0
H2864 H 0.96604 0.53232 0.17894 0.0
H2865 H 0.01179 0.57357 0.15842 0.0
H2866 H 0.01262 0.54599 0.14661 0.0
H2867 H 0.95196 0.45622 0.09032 0.0
H2868 H 0.95766 0.4581 0.11306 0.0
H2869 H 0.0087 0.51654 0.11363 0.0
H2870 H 0.00316 0.51474 0.0909 0.0
H2871 H 0.98519 0.51531 0.13125 0.0
H2872 H 0.01411 0.47644 0.11738 0.0
H2873 H 0.01438 0.44851 0.10563 0.0
H2874 H 0.96694 0.40731 0.12515 0.0
H2875 H 0.96621 0.435 0.1369 0.0
C2876 C 0.01844 0.515 0.18779 0.0
C2877 C 0.007 0.49976 0.19507 0.0
C2878 C 0.01404 0.51249 0.17484 0.0
C2879 C 0.99794 0.49479 0.16892 0.0
C2880 C 0.98667 0.47939 0.17613 0.0
C2881 C 0.99118 0.48184 0.18911 0.0
C2882 C 0.99302 0.49243 0.15518 0.0
C2883 C 0.99228 0.47639 0.14806 0.0
C2884 C 0.99025 0.50654 0.14904 0.0
C2885 C 0.98967 0.52316 0.15606 0.0
C2886 C 0.97647 0.51949 0.1652 0.0
C2887 C 0.97617 0.53523 0.17188 0.0
C2888 C 0.98891 0.5547 0.16945 0.0
C2889 C 0.00194 0.55848 0.1603 0.0
C2890 C 0.00231 0.5428 0.1536 0.0
C2891 C 0.96454 0.46938 0.09528 0.0
C2892 C 0.97713 0.48534 0.08881 0.0
C2893 C 0.96775 0.47044 0.10827 0.0
C2894 C 0.98369 0.4874 0.11502 0.0
C2895 C 0.99628 0.50334 0.1086 0.0
C2896 C 0.99306 0.50231 0.09562 0.0
C2897 C 0.98709 0.48876 0.12882 0.0
C2898 C 0.9875 0.5046 0.13595 0.0
C2899 C 0.98949 0.47444 0.13495 0.0
C2900 C 0.98997 0.45778 0.12792 0.0
C2901 C 0.00363 0.46141 0.11909 0.0
C2902 C 0.00389 0.44563 0.11245 0.0
C2903 C 0.99065 0.42614 0.11462 0.0
C2904 C 0.97717 0.42241 0.12347 0.0
C2905 C 0.97684 0.43814 0.13013 0.0
H2906 H 0.99087 0.41394 0.10946 0.0
H2907 H 0.98866 0.56686 0.17464 0.0
H2908 H 0.43569 0.48335 0.18171 0.0
H2909 H 0.44204 0.4795 0.16004 0.0
H2910 H 0.49906 0.48687 0.17293 0.0
H2911 H 0.49278 0.49065 0.19457 0.0
H2912 H 0.50233 0.51124 0.15556 0.0
H2913 H 0.4609 0.44199 0.15999 0.0
H2914 H 0.43077 0.41231 0.16492 0.0
H2915 H 0.39564 0.42113 0.1365 0.0
H2916 H 0.42553 0.45104 0.13151 0.0
H2917 H 0.52958 0.49035 0.09792 0.0
H2918 H 0.52024 0.48862 0.1192 0.0
H2919 H 0.46292 0.47963 0.10539 0.0
H2920 H 0.47182 0.48047 0.08398 0.0
H2921 H 0.45918 0.45579 0.12309 0.0
H2922 H 0.49973 0.52495 0.11884 0.0
H2923 H 0.52938 0.55506 0.11386 0.0
H2924 H 0.56553 0.54703 0.14199 0.0
H2925 H 0.53612 0.5167 0.14702 0.0
C2926 C 0.44938 0.4837 0.17993 0.0
C2927 C 0.4638 0.48743 0.18984 0.0
C2928 C 0.45301 0.48154 0.16754 0.0
C2929 C 0.47104 0.4829 0.16487 0.0
C2930 C 0.48511 0.48589 0.17477 0.0
C2931 C 0.48151 0.48808 0.18713 0.0
C2932 C 0.47587 0.48258 0.15178 0.0
C2933 C 0.49305 0.49896 0.14851 0.0
C2934 C 0.46341 0.46687 0.14249 0.0
C2935 C 0.44543 0.44887 0.14546 0.0
C2936 C 0.44672 0.4377 0.15486 0.0
C2937 C 0.42969 0.42082 0.15765 0.0
C2938 C 0.41129 0.41487 0.15105 0.0
C2939 C 0.4099 0.42577 0.14162 0.0
C2940 C 0.42688 0.44268 0.13879 0.0
C2941 C 0.51489 0.48776 0.09937 0.0
C2942 C 0.50149 0.48564 0.08923 0.0
C2943 C 0.50964 0.48696 0.11157 0.0
C2944 C 0.49098 0.48428 0.11391 0.0
C2945 C 0.47743 0.4818 0.10381 0.0
C2946 C 0.48263 0.4825 0.09159 0.0
C2947 C 0.48575 0.48435 0.12692 0.0
C2948 C 0.46848 0.46801 0.13016 0.0
C2949 C 0.49804 0.50016 0.13619 0.0
C2950 C 0.51575 0.51844 0.13322 0.0
C2951 C 0.51403 0.52952 0.1239 0.0
C2952 C 0.53079 0.54664 0.12108 0.0
C2953 C 0.54934 0.55293 0.12758 0.0
C2954 C 0.55116 0.54213 0.13694 0.0
C2955 C 0.53444 0.52498 0.13979 0.0
H2956 H 0.56229 0.56619 0.12539 0.0
H2957 H 0.39812 0.40179 0.15322 0.0
H2958 H 0.0112 0.54648 0.81676 0.0
H2959 H 0.01663 0.55048 0.83966 0.0
H2960 H 0.97729 0.48768 0.84016 0.0
H2961 H 0.97137 0.48369 0.81741 0.0
H2962 H 0.9699 0.50864 0.85753 0.0
H2963 H 0.02752 0.50788 0.84398 0.0
H2964 H 0.05726 0.51949 0.83266 0.0
H2965 H 0.08324 0.5771 0.85311 0.0
H2966 H 0.05351 0.56589 0.86444 0.0
H2967 H 0.99613 0.48285 0.914 0.0
H2968 H 0.99091 0.48762 0.89218 0.0
H2969 H 0.02814 0.55086 0.9009 0.0
H2970 H 0.03345 0.54614 0.92287 0.0
H2971 H 0.03733 0.53527 0.8796 0.0
H2972 H 0.9809 0.53388 0.89525 0.0
H2973 H 0.95133 0.52121 0.90678 0.0
H2974 H 0.92308 0.46679 0.88252 0.0
H2975 H 0.95262 0.47901 0.87096 0.0
C2976 C 0.00361 0.53357 0.82178 0.0
C2977 C 0.99097 0.51474 0.81527 0.0
C2978 C 0.00682 0.53585 0.83484 0.0
C2979 C 0.99747 0.51935 0.8416 0.0
C2980 C 0.98467 0.50062 0.83513 0.0
C2981 C 0.98147 0.49833 0.82212 0.0
C2982 C 0.00106 0.52133 0.85542 0.0
C2983 C 0.98464 0.51439 0.86236 0.0
C2984 C 0.02035 0.52937 0.86174 0.0
C2985 C 0.0382 0.53613 0.85493 0.0
C2986 C 0.0395 0.52308 0.84598 0.0
C2987 C 0.05637 0.52957 0.83958 0.0
C2988 C 0.0721 0.54904 0.84213 0.0
C2989 C 0.07102 0.56204 0.85112 0.0
C2990 C 0.05417 0.55562 0.85753 0.0
C2991 C 0.00321 0.49778 0.91127 0.0
C2992 C 0.01525 0.51413 0.92009 0.0
C2993 C 0.00011 0.50049 0.89883 0.0
C2994 C 0.00903 0.5196 0.89497 0.0
C2995 C 0.02108 0.53601 0.90374 0.0
C2996 C 0.02402 0.53331 0.91625 0.0
C2997 C 0.00612 0.52211 0.88164 0.0
C2998 C 0.02265 0.52988 0.8748 0.0
C2999 C 0.98692 0.51473 0.87539 0.0
C3000 C 0.96905 0.50733 0.88229 0.0
C3001 C 0.96845 0.51915 0.89243 0.0
C3002 C 0.95168 0.51206 0.89896 0.0
C3003 C 0.93535 0.49319 0.8954 0.0
C3004 C 0.93575 0.4814 0.88527 0.0
C3005 C 0.95249 0.48841 0.87872 0.0
H3006 H 0.92238 0.48773 0.90047 0.0
H3007 H 0.08515 0.55404 0.83718 0.0
H3008 H 0.50638 0.46482 0.82045 0.0
H3009 H 0.50107 0.4697 0.84212 0.0
H3010 H 0.53862 0.53287 0.84224 0.0
H3011 H 0.54378 0.52816 0.82036 0.0
H3012 H 0.5466 0.51861 0.86351 0.0
H3013 H 0.48986 0.51405 0.84031 0.0
H3014 H 0.46077 0.49937 0.82447 0.0
H3015 H 0.43349 0.44647 0.84309 0.0
H3016 H 0.46256 0.46073 0.85895 0.0
H3017 H 0.5155 0.54101 0.92054 0.0
H3018 H 0.52282 0.53954 0.89883 0.0
H3019 H 0.48637 0.47584 0.89522 0.0
H3020 H 0.47892 0.47722 0.91687 0.0
H3021 H 0.47825 0.49255 0.87554 0.0
H3022 H 0.53499 0.49592 0.89801 0.0
H3023 H 0.56448 0.50938 0.91345 0.0
H3024 H 0.59179 0.56361 0.89621 0.0
H3025 H 0.56231 0.55058 0.88075 0.0
C3026 C 0.51333 0.4798 0.825 0.0
C3027 C 0.52532 0.49613 0.8186 0.0
C3028 C 0.51034 0.48254 0.83742 0.0
C3029 C 0.51924 0.50166 0.84373 0.0
C3030 C 0.53159 0.51799 0.83751 0.0
C3031 C 0.53456 0.51527 0.82503 0.0
C3032 C 0.51554 0.50441 0.85683 0.0
C3033 C 0.5317 0.51327 0.86614 0.0
C3034 C 0.49604 0.49699 0.86024 0.0
C3035 C 0.47848 0.4884 0.85076 0.0
C3036 C 0.47773 0.49923 0.84097 0.0
C3037 C 0.46123 0.49099 0.832 0.0
C3038 C 0.44531 0.47198 0.83276 0.0
C3039 C 0.44584 0.46119 0.84251 0.0
C3040 C 0.46232 0.46935 0.8515 0.0
C3041 C 0.50902 0.52671 0.91509 0.0
C3042 C 0.49664 0.50922 0.92038 0.0
C3043 C 0.51332 0.52588 0.90274 0.0
C3044 C 0.50522 0.50757 0.89545 0.0
C3045 C 0.49279 0.49011 0.9007 0.0
C3046 C 0.48865 0.49091 0.91307 0.0
C3047 C 0.50929 0.50659 0.88226 0.0
C3048 C 0.49317 0.49807 0.87292 0.0
C3049 C 0.52881 0.51427 0.87884 0.0
C3050 C 0.54634 0.52236 0.88831 0.0
C3051 C 0.54717 0.51081 0.8976 0.0
C3052 C 0.56391 0.51834 0.90633 0.0
C3053 C 0.57997 0.53734 0.90581 0.0
C3054 C 0.57931 0.5489 0.89659 0.0
C3055 C 0.56259 0.54145 0.88785 0.0
H3056 H 0.59298 0.54304 0.91249 0.0
H3057 H 0.43255 0.46563 0.8258 0.0
H3058 H 0.555 0.03355 0.8255 0.0
H3059 H 0.54901 0.02133 0.84609 0.0
H3060 H 0.52191 0.05665 0.85452 0.0
H3061 H 0.5285 0.06947 0.83421 0.0
H3062 H 0.54572 0.05905 0.87411 0.0
H3063 H 0.49388 0.00666 0.84534 0.0
H3064 H 0.48026 0.9819 0.82685 0.0
H3065 H 0.511 0.95339 0.84152 0.0
H3066 H 0.52503 0.97816 0.86003 0.0
H3067 H 0.49053 0.01348 0.92372 0.0
H3068 H 0.50131 0.02621 0.90379 0.0
H3069 H 0.52603 0.98788 0.89881 0.0
H3070 H 0.51493 0.97481 0.91868 0.0
H3071 H 0.50607 0.98692 0.87774 0.0
H3072 H 0.55588 0.03856 0.90755 0.0
H3073 H 0.56838 0.06324 0.92607 0.0
H3074 H 0.54063 0.09321 0.90945 0.0
H3075 H 0.52769 0.06857 0.8909 0.0
C3076 C 0.54798 0.03889 0.8318 0.0
C3077 C 0.5421 0.05238 0.82817 0.0
C3078 C 0.5444 0.03175 0.84352 0.0
C3079 C 0.53477 0.03788 0.85178 0.0
C3080 C 0.52929 0.05165 0.84828 0.0
C3081 C 0.53289 0.05882 0.83661 0.0
C3082 C 0.53019 0.02989 0.86406 0.0
C3083 C 0.53692 0.04328 0.8749 0.0
C3084 C 0.51911 0.00929 0.86512 0.0
C3085 C 0.51068 0.99439 0.854 0.0
C3086 C 0.49787 0.99521 0.84457 0.0
C3087 C 0.49005 0.98116 0.8341 0.0
C3088 C 0.49481 0.96612 0.83299 0.0
C3089 C 0.50736 0.96507 0.84238 0.0
C3090 C 0.51524 0.97911 0.85286 0.0
C3091 C 0.49841 0.00788 0.91843 0.0
C3092 C 0.502 0.99324 0.92282 0.0
C3093 C 0.5046 0.0152 0.90705 0.0
C3094 C 0.5148 0.00826 0.8999 0.0
C3095 C 0.51824 0.99349 0.90419 0.0
C3096 C 0.51186 0.98601 0.91553 0.0
C3097 C 0.52139 0.0161 0.8878 0.0
C3098 C 0.51506 0.00267 0.87698 0.0
C3099 C 0.53276 0.03668 0.88676 0.0
C3100 C 0.54069 0.05162 0.89787 0.0
C3101 C 0.55233 0.05033 0.90788 0.0
C3102 C 0.5595 0.06431 0.91838 0.0
C3103 C 0.55527 0.07974 0.91895 0.0
C3104 C 0.54389 0.08125 0.909 0.0
C3105 C 0.53664 0.06729 0.89849 0.0
H3106 H 0.56085 0.09054 0.92709 0.0
H3107 H 0.48874 0.95525 0.82487 0.0
H3108 H 0.12076 0.29969 0.5217 0.0
H3109 H 0.12734 0.3124 0.50127 0.0
H3110 H 0.15552 0.27802 0.49315 0.0
H3111 H 0.14879 0.26508 0.51344 0.0
H3112 H 0.17762 0.31551 0.48754 0.0
H3113 H 0.10942 0.26375 0.47973 0.0
H3114 H 0.07397 0.24559 0.48308 0.0
H3115 H 0.06917 0.2968 0.47652 0.0
H3116 H 0.1047 0.31539 0.47332 0.0
H3117 H 0.18221 0.32213 0.42243 0.0
H3118 H 0.17469 0.31018 0.44296 0.0
H3119 H 0.14699 0.34549 0.4494 0.0
H3120 H 0.15394 0.35706 0.42872 0.0
H3121 H 0.1247 0.30857 0.4561 0.0
H3122 H 0.19282 0.36017 0.46359 0.0
H3123 H 0.22816 0.37811 0.45994 0.0
H3124 H 0.23301 0.32706 0.46695 0.0
H3125 H 0.1976 0.30871 0.47047 0.0
C3126 C 0.12816 0.29466 0.51551 0.0
C3127 C 0.1343 0.2814 0.51923 0.0
C3128 C 0.13194 0.30197 0.50385 0.0
C3129 C 0.14184 0.29608 0.49566 0.0
C3130 C 0.14795 0.28284 0.49934 0.0
C3131 C 0.14416 0.27552 0.51097 0.0
C3132 C 0.14619 0.30394 0.48334 0.0
C3133 C 0.16602 0.31379 0.48061 0.0
C3134 C 0.13111 0.30214 0.47442 0.0
C3135 C 0.10979 0.29104 0.47644 0.0
C3136 C 0.10086 0.27121 0.47913 0.0
C3137 C 0.08074 0.26082 0.48097 0.0
C3138 C 0.06934 0.27005 0.48005 0.0
C3139 C 0.07803 0.28968 0.47726 0.0
C3140 C 0.09816 0.30015 0.47543 0.0
C3141 C 0.17441 0.32727 0.42818 0.0
C3142 C 0.16873 0.3406 0.42395 0.0
C3143 C 0.17028 0.32056 0.43996 0.0
C3144 C 0.16047 0.32711 0.44777 0.0
C3145 C 0.15464 0.3403 0.44354 0.0
C3146 C 0.15879 0.34704 0.43177 0.0
C3147 C 0.1561 0.32003 0.46029 0.0
C3148 C 0.1363 0.31035 0.46306 0.0
C3149 C 0.17119 0.32199 0.46925 0.0
C3150 C 0.19251 0.33301 0.46718 0.0
C3151 C 0.20138 0.35272 0.46426 0.0
C3152 C 0.22143 0.36297 0.46223 0.0
C3153 C 0.23281 0.35372 0.46318 0.0
C3154 C 0.22417 0.3342 0.4662 0.0
C3155 C 0.20411 0.32387 0.46822 0.0
H3156 H 0.24833 0.36168 0.46161 0.0
H3157 H 0.05376 0.26198 0.48147 0.0
H3158 H 0.68272 0.81593 0.53068 0.0
H3159 H 0.67706 0.81264 0.50794 0.0
H3160 H 0.64954 0.84876 0.51035 0.0
H3161 H 0.65415 0.85122 0.53314 0.0
H3162 H 0.6297 0.81927 0.49268 0.0
H3163 H 0.69822 0.86789 0.50367 0.0
H3164 H 0.73226 0.88137 0.51383 0.0
H3165 H 0.73737 0.83568 0.49312 0.0
H3166 H 0.70324 0.82176 0.48296 0.0
H3167 H 0.63863 0.84383 0.4298 0.0
H3168 H 0.64315 0.84661 0.4527 0.0
H3169 H 0.66353 0.80436 0.45086 0.0
H3170 H 0.65916 0.80162 0.42799 0.0
H3171 H 0.68704 0.83747 0.4681 0.0
H3172 H 0.61786 0.78916 0.45715 0.0
H3173 H 0.58409 0.7768 0.44688 0.0
H3174 H 0.58078 0.82371 0.46745 0.0
H3175 H 0.61468 0.83652 0.47772 0.0
C3176 C 0.67512 0.82287 0.52641 0.0
C3177 C 0.66899 0.83394 0.53377 0.0
C3178 C 0.67213 0.82119 0.51338 0.0
C3179 C 0.66325 0.8308 0.50743 0.0
C3180 C 0.65657 0.84135 0.51473 0.0
C3181 C 0.65939 0.8429 0.52777 0.0
C3182 C 0.66116 0.83006 0.4936 0.0
C3183 C 0.6423 0.82351 0.48733 0.0
C3184 C 0.67754 0.83531 0.48658 0.0
C3185 C 0.6981 0.84368 0.49265 0.0
C3186 C 0.70655 0.86063 0.50136 0.0
C3187 C 0.72587 0.86836 0.5071 0.0
C3188 C 0.73695 0.85936 0.50415 0.0
C3189 C 0.72876 0.84263 0.49542 0.0
C3190 C 0.70943 0.83482 0.48965 0.0
C3191 C 0.64423 0.83528 0.4343 0.0
C3192 C 0.64847 0.82245 0.42714 0.0
C3193 C 0.64668 0.83678 0.44735 0.0
C3194 C 0.6535 0.82555 0.45344 0.0
C3195 C 0.65819 0.81309 0.44632 0.0
C3196 C 0.65557 0.81145 0.43328 0.0
C3197 C 0.65562 0.82665 0.46724 0.0
C3198 C 0.67449 0.83328 0.47349 0.0
C3199 C 0.63929 0.82166 0.47423 0.0
C3200 C 0.61888 0.81392 0.46811 0.0
C3201 C 0.61 0.79694 0.45941 0.0
C3202 C 0.59082 0.78983 0.4536 0.0
C3203 C 0.58032 0.79949 0.45648 0.0
C3204 C 0.58895 0.81625 0.46521 0.0
C3205 C 0.60814 0.82344 0.47103 0.0
H3206 H 0.56547 0.79396 0.45197 0.0
H3207 H 0.75191 0.86537 0.50861 0.0
H3208 H 0.15604 0.81871 0.52691 0.0
H3209 H 0.16249 0.81422 0.5054 0.0
H3210 H 0.10813 0.81203 0.49177 0.0
H3211 H 0.1015 0.81634 0.51333 0.0
H3212 H 0.11373 0.78549 0.47796 0.0
H3213 H 0.15217 0.85452 0.49269 0.0
H3214 H 0.17584 0.88366 0.50719 0.0
H3215 H 0.22188 0.86986 0.50152 0.0
H3216 H 0.1984 0.84045 0.48713 0.0
H3217 H 0.14175 0.81525 0.417 0.0
H3218 H 0.13096 0.81186 0.43798 0.0
H3219 H 0.18241 0.80874 0.45166 0.0
H3220 H 0.19298 0.81142 0.43066 0.0
H3221 H 0.17773 0.83726 0.46529 0.0
H3222 H 0.13889 0.76906 0.4491 0.0
H3223 H 0.11473 0.74037 0.43451 0.0
H3224 H 0.06867 0.75291 0.44275 0.0
H3225 H 0.09269 0.78216 0.45704 0.0
C3226 C 0.14542 0.81719 0.51933 0.0
C3227 C 0.12837 0.81809 0.52179 0.0
C3228 C 0.14911 0.8146 0.50705 0.0
C3229 C 0.13597 0.81315 0.49697 0.0
C3230 C 0.11849 0.81316 0.4994 0.0
C3231 C 0.11471 0.8156 0.51171 0.0
C3232 C 0.14103 0.81264 0.48396 0.0
C3233 C 0.1276 0.79692 0.47513 0.0
C3234 C 0.15928 0.82743 0.48033 0.0
C3235 C 0.17347 0.84517 0.48893 0.0
C3236 C 0.16731 0.85761 0.49461 0.0
C3237 C 0.18069 0.87419 0.5028 0.0
C3238 C 0.20034 0.87858 0.5053 0.0
C3239 C 0.20665 0.86643 0.49959 0.0
C3240 C 0.19331 0.84981 0.49141 0.0
C3241 C 0.15055 0.81336 0.42439 0.0
C3242 C 0.16833 0.81373 0.42212 0.0
C3243 C 0.14438 0.81151 0.43639 0.0
C3244 C 0.15591 0.81007 0.44636 0.0
C3245 C 0.17337 0.80994 0.44409 0.0
C3246 C 0.17944 0.81159 0.43209 0.0
C3247 C 0.15051 0.81004 0.4593 0.0
C3248 C 0.16387 0.82578 0.46811 0.0
C3249 C 0.13212 0.79537 0.46283 0.0
C3250 C 0.1177 0.77801 0.45403 0.0
C3251 C 0.12369 0.76593 0.44765 0.0
C3252 C 0.11001 0.74955 0.43942 0.0
C3253 C 0.09021 0.74492 0.43762 0.0
C3254 C 0.08405 0.75665 0.44405 0.0
C3255 C 0.0977 0.77315 0.4522 0.0
H3256 H 0.07961 0.73219 0.43129 0.0
H3257 H 0.21068 0.89143 0.51164 0.0
H3258 H 0.62871 0.80629 0.15544 0.0
H3259 H 0.63446 0.81098 0.17824 0.0
H3260 H 0.67699 0.87281 0.17693 0.0
H3261 H 0.67166 0.86811 0.15405 0.0
H3262 H 0.69076 0.85552 0.19278 0.0
H3263 H 0.63164 0.85941 0.18558 0.0
H3264 H 0.59749 0.84841 0.17659 0.0
H3265 H 0.57568 0.79536 0.19503 0.0
H3266 H 0.60976 0.8059 0.20399 0.0
H3267 H 0.70075 0.87934 0.25809 0.0
H3268 H 0.69308 0.87907 0.2357 0.0
H3269 H 0.64839 0.81724 0.2337 0.0
H3270 H 0.65591 0.81745 0.25609 0.0
H3271 H 0.63585 0.83691 0.21957 0.0
H3272 H 0.69468 0.83145 0.22533 0.0
H3273 H 0.72873 0.84167 0.23415 0.0
H3274 H 0.7509 0.89689 0.21816 0.0
H3275 H 0.71691 0.8871 0.20939 0.0
C3276 C 0.63939 0.82085 0.16 0.0
C3277 C 0.64977 0.83683 0.15296 0.0
C3278 C 0.6425 0.82356 0.17303 0.0
C3279 C 0.65597 0.8423 0.17927 0.0
C3280 C 0.66645 0.85826 0.17228 0.0
C3281 C 0.66331 0.85558 0.15923 0.0
C3282 C 0.65951 0.84502 0.19309 0.0
C3283 C 0.67882 0.8518 0.19865 0.0
C3284 C 0.64383 0.83972 0.20071 0.0
C3285 C 0.62329 0.83338 0.19538 0.0
C3286 C 0.61959 0.84532 0.18765 0.0
C3287 C 0.60023 0.83918 0.18257 0.0
C3288 C 0.58443 0.82118 0.18521 0.0
C3289 C 0.58794 0.8093 0.19298 0.0
C3290 C 0.60727 0.81536 0.19807 0.0
C3291 C 0.68927 0.86571 0.25287 0.0
C3292 C 0.67909 0.84836 0.2588 0.0
C3293 C 0.68488 0.86558 0.2401 0.0
C3294 C 0.6704 0.84804 0.233 0.0
C3295 C 0.65964 0.83092 0.239 0.0
C3296 C 0.66395 0.83107 0.25179 0.0
C3297 C 0.66707 0.84726 0.21925 0.0
C3298 C 0.64781 0.84082 0.2137 0.0
C3299 C 0.68278 0.85277 0.21162 0.0
C3300 C 0.70323 0.85863 0.21682 0.0
C3301 C 0.7068 0.84583 0.22378 0.0
C3302 C 0.72609 0.85154 0.22875 0.0
C3303 C 0.74196 0.86994 0.22675 0.0
C3304 C 0.73858 0.88266 0.21973 0.0
C3305 C 0.71931 0.87703 0.21475 0.0
H3306 H 0.75689 0.87433 0.23061 0.0
H3307 H 0.56945 0.81645 0.18127 0.0
H3308 H 0.22498 0.83821 0.15978 0.0
H3309 H 0.22037 0.84378 0.18162 0.0
H3310 H 0.16087 0.83124 0.17033 0.0
H3311 H 0.16552 0.82609 0.14846 0.0
H3312 H 0.18043 0.86289 0.18841 0.0
H3313 H 0.16817 0.79594 0.18139 0.0
H3314 H 0.1766 0.77042 0.17492 0.0
H3315 H 0.2273 0.79726 0.20251 0.0
H3316 H 0.21932 0.82311 0.20903 0.0
H3317 H 0.13841 0.84204 0.24572 0.0
H3318 H 0.14605 0.84072 0.22421 0.0
H3319 H 0.20234 0.84658 0.23733 0.0
H3320 H 0.19427 0.84663 0.25883 0.0
H3321 H 0.18606 0.81973 0.21841 0.0
H3322 H 0.19805 0.88591 0.22622 0.0
H3323 H 0.19031 0.91191 0.23272 0.0
H3324 H 0.1414 0.88767 0.2039 0.0
H3325 H 0.14868 0.86135 0.19733 0.0
C3326 C 0.21103 0.83695 0.16194 0.0
C3327 C 0.19555 0.83158 0.15241 0.0
C3328 C 0.20837 0.83999 0.17442 0.0
C3329 C 0.19019 0.83767 0.1776 0.0
C3330 C 0.17499 0.83303 0.16808 0.0
C3331 C 0.17761 0.82994 0.15561 0.0
C3332 C 0.18669 0.83932 0.19087 0.0
C3333 C 0.18147 0.85336 0.19497 0.0
C3334 C 0.18854 0.82719 0.19947 0.0
C3335 C 0.19326 0.81157 0.19561 0.0
C3336 C 0.1812 0.79648 0.18601 0.0
C3337 C 0.18588 0.78195 0.18234 0.0
C3338 C 0.20251 0.78225 0.18827 0.0
C3339 C 0.21445 0.79706 0.19791 0.0
C3340 C 0.20984 0.81165 0.20161 0.0
C3341 C 0.15233 0.84282 0.24405 0.0
C3342 C 0.16573 0.84448 0.25407 0.0
C3343 C 0.15681 0.84236 0.23173 0.0
C3344 C 0.17494 0.84391 0.22913 0.0
C3345 C 0.18831 0.84549 0.23909 0.0
C3346 C 0.18375 0.84572 0.25141 0.0
C3347 C 0.17973 0.84332 0.21603 0.0
C3348 C 0.18515 0.82942 0.21193 0.0
C3349 C 0.17819 0.85569 0.20746 0.0
C3350 C 0.17382 0.87155 0.21136 0.0
C3351 C 0.18556 0.88604 0.22133 0.0
C3352 C 0.18126 0.90085 0.22502 0.0
C3353 C 0.16534 0.90142 0.21875 0.0
C3354 C 0.15371 0.8872 0.20876 0.0
C3355 C 0.15793 0.87235 0.20504 0.0
H3356 H 0.16204 0.9129 0.22162 0.0
H3357 H 0.20611 0.77098 0.18542 0.0
H3358 H 0.16883 0.35276 0.15028 0.0
H3359 H 0.16241 0.34144 0.17101 0.0
H3360 H 0.22318 0.38347 0.18505 0.0
H3361 H 0.22971 0.39498 0.16429 0.0
H3362 H 0.21041 0.34766 0.19414 0.0
H3363 H 0.18715 0.39379 0.19045 0.0
H3364 H 0.16812 0.40776 0.18053 0.0
H3365 H 0.1136 0.3539 0.18329 0.0
H3366 H 0.13233 0.33949 0.19306 0.0
H3367 H 0.19569 0.34522 0.25873 0.0
H3368 H 0.20384 0.35557 0.23791 0.0
H3369 H 0.14299 0.31555 0.22298 0.0
H3370 H 0.13457 0.30565 0.24384 0.0
H3371 H 0.15652 0.35089 0.21446 0.0
H3372 H 0.17988 0.30472 0.21815 0.0
H3373 H 0.19901 0.29085 0.22807 0.0
H3374 H 0.2534 0.3449 0.22543 0.0
H3375 H 0.23457 0.3592 0.21565 0.0
C3376 C 0.18083 0.35964 0.15778 0.0
C3377 C 0.19973 0.37492 0.15566 0.0
C3378 C 0.17715 0.35312 0.16962 0.0
C3379 C 0.19223 0.36183 0.17962 0.0
C3380 C 0.21132 0.37657 0.17746 0.0
C3381 C 0.21504 0.38309 0.16559 0.0
C3382 C 0.18787 0.35593 0.19239 0.0
C3383 C 0.1988 0.3486 0.19866 0.0
C3384 C 0.17248 0.35683 0.19819 0.0
C3385 C 0.16116 0.3655 0.19238 0.0
C3386 C 0.17111 0.38487 0.18886 0.0
C3387 C 0.16038 0.39287 0.18327 0.0
C3388 C 0.13967 0.38171 0.18125 0.0
C3389 C 0.12965 0.36252 0.18484 0.0
C3390 C 0.14031 0.35444 0.19041 0.0
C3391 C 0.184 0.33871 0.25103 0.0
C3392 C 0.16447 0.32459 0.25296 0.0
C3393 C 0.18873 0.34449 0.23911 0.0
C3394 C 0.17407 0.33617 0.22885 0.0
C3395 C 0.15456 0.32211 0.23075 0.0
C3396 C 0.14981 0.31635 0.24266 0.0
C3397 C 0.17893 0.34244 0.21619 0.0
C3398 C 0.16811 0.34992 0.20995 0.0
C3399 C 0.19443 0.34169 0.21044 0.0
C3400 C 0.20579 0.33309 0.21628 0.0
C3401 C 0.19591 0.3137 0.21978 0.0
C3402 C 0.2067 0.30575 0.22536 0.0
C3403 C 0.2274 0.317 0.22741 0.0
C3404 C 0.23736 0.33621 0.22385 0.0
C3405 C 0.22664 0.34424 0.21828 0.0
H3406 H 0.23573 0.31082 0.23173 0.0
H3407 H 0.13139 0.38793 0.17693 0.0
H3408 H 0.78864 0.63989 0.8565 0.0
H3409 H 0.7957 0.65341 0.83632 0.0
H3410 H 0.81606 0.61296 0.82553 0.0
H3411 H 0.80897 0.59935 0.8456 0.0
H3412 H 0.84147 0.64966 0.82032 0.0
H3413 H 0.77083 0.60518 0.81376 0.0
H3414 H 0.7361 0.59145 0.81838 0.0
H3415 H 0.74001 0.64758 0.8143 0.0
H3416 H 0.77488 0.66173 0.80982 0.0
H3417 H 0.84166 0.65428 0.75508 0.0
H3418 H 0.83427 0.64345 0.77587 0.0
H3419 H 0.81722 0.68738 0.78393 0.0
H3420 H 0.82421 0.69805 0.763 0.0
H3421 H 0.79067 0.65121 0.79105 0.0
H3422 H 0.86099 0.69515 0.79657 0.0
H3423 H 0.89556 0.70852 0.79171 0.0
H3424 H 0.89215 0.65308 0.79761 0.0
H3425 H 0.85744 0.63928 0.80234 0.0
C3426 C 0.79442 0.63374 0.84977 0.0
C3427 C 0.7983 0.61858 0.85267 0.0
C3428 C 0.79848 0.6415 0.83825 0.0
C3429 C 0.80633 0.63413 0.82939 0.0
C3430 C 0.81011 0.61895 0.83225 0.0
C3431 C 0.8061 0.61122 0.84374 0.0
C3432 C 0.81092 0.64236 0.81719 0.0
C3433 C 0.8303 0.6498 0.81387 0.0
C3434 C 0.79649 0.64305 0.80892 0.0
C3435 C 0.77553 0.63457 0.8116 0.0
C3436 C 0.76434 0.61464 0.81395 0.0
C3437 C 0.74461 0.60677 0.81652 0.0
C3438 C 0.73587 0.61865 0.81667 0.0
C3439 C 0.74681 0.63841 0.81421 0.0
C3440 C 0.76655 0.64636 0.81164 0.0
C3441 C 0.83623 0.66157 0.76125 0.0
C3442 C 0.83354 0.67704 0.75741 0.0
C3443 C 0.83217 0.65547 0.77316 0.0
C3444 C 0.82538 0.66475 0.78149 0.0
C3445 C 0.82251 0.68008 0.77766 0.0
C3446 C 0.82666 0.68626 0.76575 0.0
C3447 C 0.82113 0.65824 0.79414 0.0
C3448 C 0.80185 0.65117 0.79755 0.0
C3449 C 0.83564 0.65785 0.80249 0.0
C3450 C 0.85655 0.66613 0.79971 0.0
C3451 C 0.86756 0.68576 0.79674 0.0
C3452 C 0.88719 0.69342 0.79402 0.0
C3453 C 0.89603 0.68164 0.79432 0.0
C3454 C 0.88527 0.66219 0.79737 0.0
C3455 C 0.86563 0.65444 0.80008 0.0
H3456 H 0.91123 0.6876 0.79221 0.0
H3457 H 0.72059 0.61253 0.81866 0.0
H3458 H 0.32691 0.134 0.86229 0.0
H3459 H 0.32089 0.13049 0.83947 0.0
H3460 H 0.35988 0.19342 0.83931 0.0
H3461 H 0.36596 0.19703 0.86207 0.0
H3462 H 0.32648 0.18099 0.82438 0.0
H3463 H 0.37476 0.16044 0.8307 0.0
H3464 H 0.38877 0.1409 0.83932 0.0
H3465 H 0.33856 0.08725 0.82143 0.0
H3466 H 0.32411 0.10645 0.81284 0.0
H3467 H 0.33851 0.18323 0.75979 0.0
H3468 H 0.34528 0.18555 0.78249 0.0
H3469 H 0.30326 0.12316 0.78193 0.0
H3470 H 0.29668 0.12065 0.75918 0.0
H3471 H 0.33781 0.13481 0.79713 0.0
H3472 H 0.28978 0.15581 0.79076 0.0
H3473 H 0.27622 0.17568 0.78208 0.0
H3474 H 0.32671 0.229 0.80008 0.0
H3475 H 0.34072 0.20946 0.80872 0.0
C3476 C 0.33432 0.14705 0.85738 0.0
C3477 C 0.34688 0.16579 0.86398 0.0
C3478 C 0.33087 0.14503 0.84435 0.0
C3479 C 0.34008 0.16168 0.83768 0.0
C3480 C 0.35258 0.18039 0.84426 0.0
C3481 C 0.35599 0.18243 0.85727 0.0
C3482 C 0.33644 0.15971 0.82387 0.0
C3483 C 0.32922 0.17109 0.81842 0.0
C3484 C 0.33958 0.14645 0.81611 0.0
C3485 C 0.34825 0.13487 0.82124 0.0
C3486 C 0.36662 0.14446 0.82869 0.0
C3487 C 0.37466 0.13345 0.83355 0.0
C3488 C 0.36454 0.11284 0.83095 0.0
C3489 C 0.34637 0.10321 0.82345 0.0
C3490 C 0.33826 0.11415 0.81858 0.0
C3491 C 0.33087 0.16997 0.76449 0.0
C3492 C 0.317 0.15177 0.75772 0.0
C3493 C 0.33464 0.17135 0.77745 0.0
C3494 C 0.3246 0.15457 0.78388 0.0
C3495 C 0.3111 0.13629 0.77713 0.0
C3496 C 0.30725 0.13492 0.76417 0.0
C3497 C 0.32797 0.15617 0.79768 0.0
C3498 C 0.3351 0.14471 0.80311 0.0
C3499 C 0.32482 0.1694 0.80544 0.0
C3500 C 0.31639 0.18119 0.80028 0.0
C3501 C 0.29808 0.17179 0.79278 0.0
C3502 C 0.29029 0.18299 0.78788 0.0
C3503 C 0.30062 0.2036 0.79049 0.0
C3504 C 0.31874 0.21304 0.79804 0.0
C3505 C 0.3266 0.20191 0.80295 0.0
H3506 H 0.29457 0.21224 0.7867 0.0
H3507 H 0.37079 0.10434 0.83473 0.0
H3508 H 0.79563 0.18235 0.84923 0.0
H3509 H 0.79948 0.17655 0.82732 0.0
H3510 H 0.79013 0.11861 0.83348 0.0
H3511 H 0.78649 0.12445 0.85555 0.0
H3512 H 0.82284 0.14023 0.82076 0.0
H3513 H 0.75428 0.1218 0.81745 0.0
H3514 H 0.72548 0.12583 0.82103 0.0
H3515 H 0.7499 0.17805 0.80167 0.0
H3516 H 0.779 0.17452 0.79813 0.0
H3517 H 0.8265 0.12162 0.7557 0.0
H3518 H 0.81477 0.11771 0.7765 0.0
H3519 H 0.81437 0.17274 0.77611 0.0
H3520 H 0.82553 0.17637 0.75528 0.0
H3521 H 0.78302 0.14707 0.78571 0.0
H3522 H 0.85316 0.16886 0.79172 0.0
H3523 H 0.88314 0.16669 0.78862 0.0
H3524 H 0.85702 0.11023 0.80331 0.0
H3525 H 0.82677 0.11196 0.80635 0.0
C3526 C 0.79441 0.16838 0.84593 0.0
C3527 C 0.79082 0.15387 0.85411 0.0
C3528 C 0.79644 0.16502 0.83339 0.0
C3529 C 0.79489 0.14708 0.82876 0.0
C3530 C 0.79127 0.13252 0.83688 0.0
C3531 C 0.78909 0.13582 0.84944 0.0
C3532 C 0.79791 0.14403 0.81555 0.0
C3533 C 0.81389 0.1413 0.81306 0.0
C3534 C 0.78646 0.14585 0.80556 0.0
C3535 C 0.7689 0.14796 0.8076 0.0
C3536 C 0.75359 0.13423 0.81403 0.0
C3537 C 0.73719 0.13641 0.81604 0.0
C3538 C 0.73588 0.1522 0.8116 0.0
C3539 C 0.75094 0.16583 0.80511 0.0
C3540 C 0.76737 0.16372 0.80309 0.0
C3541 C 0.82388 0.13283 0.76009 0.0
C3542 C 0.82701 0.14934 0.75393 0.0
C3543 C 0.81719 0.13061 0.77195 0.0
C3544 C 0.81396 0.14508 0.77796 0.0
C3545 C 0.81671 0.16135 0.77168 0.0
C3546 C 0.82312 0.16343 0.75978 0.0
C3547 C 0.8083 0.14379 0.79092 0.0
C3548 C 0.7918 0.14569 0.79338 0.0
C3549 C 0.81942 0.14144 0.8009 0.0
C3550 C 0.83762 0.14043 0.79912 0.0
C3551 C 0.85376 0.15592 0.79421 0.0
C3552 C 0.87081 0.15478 0.79247 0.0
C3553 C 0.87196 0.1383 0.79573 0.0
C3554 C 0.85609 0.12296 0.80077 0.0
C3555 C 0.83899 0.12402 0.8025 0.0
H3556 H 0.88517 0.13744 0.79439 0.0
H3557 H 0.72317 0.15387 0.81317 0.0
H3558 H 0.35193 0.16898 0.48298 0.0
H3559 H 0.35831 0.17182 0.50572 0.0
H3560 H 0.31673 0.19252 0.50985 0.0
H3561 H 0.31009 0.18953 0.4871 0.0
H3562 H 0.35036 0.21334 0.52653 0.0
H3563 H 0.30215 0.14548 0.51309 0.0
H3564 H 0.28854 0.11323 0.50048 0.0
H3565 H 0.33796 0.10782 0.51511 0.0
H3566 H 0.35202 0.1402 0.52767 0.0
H3567 H 0.33667 0.19409 0.59033 0.0
H3568 H 0.33207 0.19554 0.56783 0.0
H3569 H 0.37032 0.1713 0.56157 0.0
H3570 H 0.37429 0.16901 0.58391 0.0
H3571 H 0.3375 0.15262 0.54594 0.0
H3572 H 0.38582 0.22077 0.55941 0.0
H3573 H 0.39924 0.25302 0.57197 0.0
H3574 H 0.34942 0.25785 0.55745 0.0
H3575 H 0.33557 0.22548 0.54492 0.0
C3576 C 0.34413 0.17413 0.48872 0.0
C3577 C 0.33037 0.17886 0.48323 0.0
C3578 C 0.34784 0.1758 0.5017 0.0
C3579 C 0.33779 0.18213 0.50945 0.0
C3580 C 0.32463 0.18761 0.50402 0.0
C3581 C 0.32091 0.18594 0.49103 0.0
C3582 C 0.34041 0.18221 0.52319 0.0
C3583 C 0.34734 0.20004 0.53081 0.0
C3584 C 0.33671 0.16489 0.52872 0.0
C3585 C 0.32823 0.14536 0.52123 0.0
C3586 C 0.31019 0.13749 0.51354 0.0
C3587 C 0.30239 0.11918 0.50642 0.0
C3588 C 0.3124 0.10851 0.50697 0.0
C3589 C 0.33023 0.11612 0.51468 0.0
C3590 C 0.33812 0.13444 0.52181 0.0
C3591 C 0.34407 0.18904 0.58416 0.0
C3592 C 0.35589 0.18147 0.58894 0.0
C3593 C 0.34159 0.19006 0.57131 0.0
C3594 C 0.351 0.1837 0.56303 0.0
C3595 C 0.36296 0.17635 0.56779 0.0
C3596 C 0.36538 0.17525 0.5806 0.0
C3597 C 0.34777 0.18383 0.54933 0.0
C3598 C 0.34059 0.16597 0.54169 0.0
C3599 C 0.35122 0.20112 0.54382 0.0
C3600 C 0.35956 0.22061 0.55132 0.0
C3601 C 0.37765 0.22863 0.55897 0.0
C3602 C 0.38535 0.24695 0.56607 0.0
C3603 C 0.37517 0.25746 0.56554 0.0
C3604 C 0.35728 0.24969 0.55787 0.0
C3605 C 0.34951 0.23136 0.55076 0.0
H3606 H 0.38115 0.27164 0.57104 0.0
H3607 H 0.30633 0.09433 0.50145 0.0
H3608 H 0.89276 0.192 0.49251 0.0
H3609 H 0.88722 0.19751 0.51407 0.0
H3610 H 0.82413 0.16868 0.5032 0.0
H3611 H 0.82964 0.16408 0.48151 0.0
H3612 H 0.8349 0.19897 0.52014 0.0
H3613 H 0.84612 0.1437 0.51601 0.0
H3614 H 0.86455 0.12665 0.51061 0.0
H3615 H 0.91374 0.16766 0.53701 0.0
H3616 H 0.89569 0.18512 0.54245 0.0
H3617 H 0.7994 0.16999 0.57884 0.0
H3618 H 0.80706 0.1703 0.55716 0.0
H3619 H 0.86971 0.20156 0.56974 0.0
H3620 H 0.86217 0.20074 0.59145 0.0
H3621 H 0.86029 0.1716 0.55216 0.0
H3622 H 0.84745 0.22564 0.55705 0.0
H3623 H 0.82804 0.24161 0.56248 0.0
H3624 H 0.7807 0.20162 0.53468 0.0
H3625 H 0.79972 0.18522 0.5292 0.0
C3626 C 0.87775 0.18726 0.49463 0.0
C3627 C 0.86162 0.17739 0.48528 0.0
C3628 C 0.87458 0.19021 0.507 0.0
C3629 C 0.85521 0.1831 0.5103 0.0
C3630 C 0.83919 0.17415 0.5009 0.0
C3631 C 0.84236 0.17135 0.48852 0.0
C3632 C 0.8515 0.18411 0.5236 0.0
C3633 C 0.8403 0.19283 0.52712 0.0
C3634 C 0.85882 0.17638 0.53276 0.0
C3635 C 0.86965 0.16584 0.52954 0.0
C3636 C 0.86093 0.14917 0.5206 0.0
C3637 C 0.87129 0.13942 0.51754 0.0
C3638 C 0.89032 0.1461 0.52343 0.0
C3639 C 0.89901 0.16252 0.53243 0.0
C3640 C 0.88872 0.17234 0.53552 0.0
C3641 C 0.81481 0.17681 0.57699 0.0
C3642 C 0.83018 0.18539 0.58687 0.0
C3643 C 0.81916 0.17716 0.5646 0.0
C3644 C 0.83897 0.18619 0.56184 0.0
C3645 C 0.85433 0.19462 0.57167 0.0
C3646 C 0.84999 0.19426 0.58406 0.0
C3647 C 0.84367 0.18643 0.5487 0.0
C3648 C 0.85502 0.17788 0.5452 0.0
C3649 C 0.83635 0.19417 0.53957 0.0
C3650 C 0.82495 0.2041 0.54279 0.0
C3651 C 0.83284 0.22016 0.55216 0.0
C3652 C 0.82192 0.22931 0.55524 0.0
C3653 C 0.80313 0.22261 0.54895 0.0
C3654 C 0.79525 0.20678 0.53955 0.0
C3655 C 0.8061 0.19757 0.53644 0.0
H3656 H 0.79469 0.2297 0.55135 0.0
H3657 H 0.89832 0.13853 0.52105 0.0
H3658 H 0.84033 0.68343 0.48502 0.0
H3659 H 0.83334 0.67051 0.50531 0.0
H3660 H 0.89407 0.71116 0.52014 0.0
H3661 H 0.90117 0.7243 0.49984 0.0
H3662 H 0.88012 0.6741 0.52816 0.0
H3663 H 0.85899 0.72218 0.526 0.0
H3664 H 0.84092 0.73749 0.51658 0.0
H3665 H 0.78543 0.68406 0.51813 0.0
H3666 H 0.8032 0.66832 0.52739 0.0
H3667 H 0.86454 0.66986 0.59276 0.0
H3668 H 0.87349 0.67968 0.57197 0.0
H3669 H 0.81213 0.64311 0.55689 0.0
H3670 H 0.80292 0.63401 0.57772 0.0
H3671 H 0.82707 0.67827 0.54895 0.0
H3672 H 0.84807 0.63016 0.55141 0.0
H3673 H 0.86614 0.61479 0.56074 0.0
H3674 H 0.92169 0.66793 0.55873 0.0
H3675 H 0.90393 0.68372 0.54953 0.0
C3676 C 0.85221 0.68966 0.49259 0.0
C3677 C 0.87125 0.70506 0.49086 0.0
C3678 C 0.8482 0.68221 0.50417 0.0
C3679 C 0.86311 0.69008 0.51428 0.0
C3680 C 0.88235 0.7049 0.51246 0.0
C3681 C 0.88639 0.71236 0.50086 0.0
C3682 C 0.85834 0.6834 0.52685 0.0
C3683 C 0.86869 0.6752 0.5328 0.0
C3684 C 0.84317 0.68453 0.53276 0.0
C3685 C 0.83244 0.69401 0.52728 0.0
C3686 C 0.84294 0.71365 0.52424 0.0
C3687 C 0.83275 0.72241 0.51895 0.0
C3688 C 0.81204 0.71174 0.51673 0.0
C3689 C 0.80147 0.6923 0.51984 0.0
C3690 C 0.8116 0.68345 0.52512 0.0
C3691 C 0.85293 0.66392 0.58503 0.0
C3692 C 0.83299 0.65116 0.58695 0.0
C3693 C 0.85812 0.66937 0.5731 0.0
C3694 C 0.84351 0.662 0.56283 0.0
C3695 C 0.82367 0.64896 0.56467 0.0
C3696 C 0.81845 0.6436 0.57659 0.0
C3697 C 0.84867 0.6687 0.55028 0.0
C3698 C 0.83845 0.67704 0.54434 0.0
C3699 C 0.86394 0.66767 0.5444 0.0
C3700 C 0.87465 0.65818 0.54989 0.0
C3701 C 0.86413 0.63862 0.55305 0.0
C3702 C 0.87432 0.62983 0.5583 0.0
C3703 C 0.89505 0.6404 0.56036 0.0
C3704 C 0.90563 0.65977 0.55714 0.0
C3705 C 0.89551 0.66864 0.55189 0.0
H3706 H 0.90291 0.63356 0.56442 0.0
H3707 H 0.80418 0.71855 0.51263 0.0
loop_
_geom_bond_atom_site_label_1
_geom_bond_atom_site_label_2
_geom_bond_distance
_geom_bond_site_symmetry_2
_ccdc_geom_bond_type
C0 C1 1.384 . S
C0 H13 0.947 . S
C0 C35 1.382 . S
C1 C0 1.384 . S
C1 C2 1.378 . S
C2 C1 1.378 . S
C2 C3 1.378 . S
C2 H14 0.952 . S
C3 C2 1.378 . S
C3 H15 0.950 . S
C3 C34 1.383 . S
H4 C23 0.947 . S
H5 C24 0.946 . S
H6 C26 0.953 . S
H7 C27 0.945 . S
H8 C29 0.952 . S
H9 C30 0.949 . S
H10 C32 0.950 . S
H11 C33 0.948 . S
H12 C35 0.951 . S
H13 C0 0.947 . S
H14 C2 0.952 . S
H15 C3 0.950 . S
N16 C19 1.382 . S
N16 C21 1.363 . S
N17 C19 1.371 . S
N17 C20 1.372 . S
N18 C20 1.361 . S
N18 C21 1.377 . S
C19 N16 1.382 . S
C19 N17 1.371 . S
C19 C22 1.480 . S
C20 N17 1.372 . S
C20 N18 1.361 . S
C20 C28 1.457 . S
C21 N16 1.363 . S
C21 N18 1.377 . S
C21 C34 1.479 . S
C22 C19 1.480 . S
C22 C23 1.383 . S
C22 C27 1.385 . S
C23 H4 0.947 . S
C23 C22 1.383 . S
C23 C24 1.388 . S
C24 H5 0.946 . S
C24 C23 1.388 . S
C24 C25 1.384 . S
C25 C24 1.384 . S
C25 C26 1.377 . S
C26 H6 0.953 . S
C26 C25 1.377 . S
C26 C27 1.369 . S
C27 H7 0.945 . S
C27 C22 1.385 . S
C27 C26 1.369 . S
C28 C20 1.457 . S
C28 C29 1.372 . S
C28 C33 1.364 . S
C29 H8 0.952 . S
C29 C28 1.372 . S
C29 C30 1.389 . S
C30 H9 0.949 . S
C30 C29 1.389 . S
C30 C31 1.387 . S
C31 C30 1.387 . S
C31 C32 1.372 . S
C32 H10 0.950 . S
C32 C31 1.372 . S
C32 C33 1.379 . S
C33 H11 0.948 . S
C33 C28 1.364 . S
C33 C32 1.379 . S
C34 C3 1.383 . S
C34 C21 1.479 . S
C34 C35 1.398 . S
C35 C0 1.382 . S
C35 H12 0.951 . S
C35 C34 1.398 . S
C36 C37 1.384 . S
C36 H49 0.947 . S
C36 C71 1.382 . S
C37 C36 1.384 . S
C37 C38 1.378 . S
C38 C37 1.378 . S
C38 C39 1.378 . S
C38 H50 0.952 . S
C39 C38 1.378 . S
C39 H51 0.950 . S
C39 C70 1.383 . S
H40 C59 0.947 . S
H41 C60 0.946 . S
H42 C62 0.953 . S
H43 C63 0.945 . S
H44 C65 0.952 . S
H45 C66 0.949 . S
H46 C68 0.950 . S
H47 C69 0.948 . S
H48 C71 0.951 . S
H49 C36 0.947 . S
H50 C38 0.952 . S
H51 C39 0.950 . S
N52 C55 1.382 . S
N52 C57 1.363 . S
N53 C55 1.371 . S
N53 C56 1.372 . S
N54 C56 1.361 . S
N54 C57 1.377 . S
C55 N52 1.382 . S
C55 N53 1.371 . S
C55 C58 1.480 . S
C56 N53 1.372 . S
C56 N54 1.361 . S
C56 C64 1.457 . S
C57 N52 1.363 . S
C57 N54 1.377 . S
C57 C70 1.479 . S
C58 C55 1.480 . S
C58 C59 1.383 . S
C58 C63 1.385 . S
C59 H40 0.947 . S
C59 C58 1.383 . S
C59 C60 1.388 . S
C60 H41 0.946 . S
C60 C59 1.388 . S
C60 C61 1.384 . S
C61 C60 1.384 . S
C61 C62 1.377 . S
C62 H42 0.953 . S
C62 C61 1.377 . S
C62 C63 1.369 . S
C63 H43 0.945 . S
C63 C58 1.385 . S
C63 C62 1.369 . S
C64 C56 1.457 . S
C64 C65 1.372 . S
C64 C69 1.364 . S
C65 H44 0.952 . S
C65 C64 1.372 . S
C65 C66 1.389 . S
C66 H45 0.949 . S
C66 C65 1.389 . S
C66 C67 1.387 . S
C67 C66 1.387 . S
C67 C68 1.372 . S
C68 H46 0.950 . S
C68 C67 1.372 . S
C68 C69 1.379 . S
C69 H47 0.948 . S
C69 C64 1.364 . S
C69 C68 1.379 . S
C70 C39 1.383 . S
C70 C57 1.479 . S
C70 C71 1.398 . S
C71 C36 1.382 . S
C71 H48 0.951 . S
C71 C70 1.398 . S
C72 C73 1.384 . S
C72 H85 0.947 . S
C72 C107 1.382 . S
C73 C72 1.384 . S
C73 C74 1.378 . S
C74 C73 1.378 . S
C74 C75 1.378 . S
C74 H86 0.952 . S
C75 C74 1.378 . S
C75 H87 0.950 . S
C75 C106 1.383 . S
H76 C95 0.947 . S
H77 C96 0.946 . S
H78 C98 0.953 . S
H79 C99 0.945 . S
H80 C101 0.952 . S
H81 C102 0.949 . S
H82 C104 0.950 . S
H83 C105 0.948 . S
H84 C107 0.951 . S
H85 C72 0.947 . S
H86 C74 0.952 . S
H87 C75 0.950 . S
N88 C91 1.382 . S
N88 C93 1.363 . S
N89 C91 1.371 . S
N89 C92 1.372 . S
N90 C92 1.361 . S
N90 C93 1.377 . S
C91 N88 1.382 . S
C91 N89 1.371 . S
C91 C94 1.480 . S
C92 N89 1.372 . S
C92 N90 1.361 . S
C92 C100 1.457 . S
C93 N88 1.363 . S
C93 N90 1.377 . S
C93 C106 1.479 . S
C94 C91 1.480 . S
C94 C95 1.383 . S
C94 C99 1.385 . S
C95 H76 0.947 . S
C95 C94 1.383 . S
C95 C96 1.388 . S
C96 H77 0.946 . S
C96 C95 1.388 . S
C96 C97 1.384 . S
C97 C96 1.384 . S
C97 C98 1.377 . S
C98 H78 0.953 . S
C98 C97 1.377 . S
C98 C99 1.369 . S
C99 H79 0.945 . S
C99 C94 1.385 . S
C99 C98 1.369 . S
C100 C92 1.457 . S
C100 C101 1.372 . S
C100 C105 1.364 . S
C101 H80 0.952 . S
C101 C100 1.372 . S
C101 C102 1.389 . S
C102 H81 0.949 . S
C102 C101 1.389 . S
C102 C103 1.387 . S
C103 C102 1.387 . S
C103 C104 1.372 . S
C104 H82 0.950 . S
C104 C103 1.372 . S
C104 C105 1.379 . S
C105 H83 0.948 . S
C105 C100 1.364 . S
C105 C104 1.379 . S
C106 C75 1.383 . S
C106 C93 1.479 . S
C106 C107 1.398 . S
C107 C72 1.382 . S
C107 H84 0.951 . S
C107 C106 1.398 . S
C108 C109 1.384 . S
C108 H121 0.947 . S
C108 C143 1.382 . S
C109 C108 1.384 . S
C109 C110 1.378 . S
C110 C109 1.378 . S
C110 C111 1.378 . S
C110 H122 0.952 . S
C111 C110 1.378 . S
C111 H123 0.950 . S
C111 C142 1.383 . S
H112 C131 0.947 . S
H113 C132 0.946 . S
H114 C134 0.953 . S
H115 C135 0.945 . S
H116 C137 0.952 . S
H117 C138 0.949 . S
H118 C140 0.950 . S
H119 C141 0.948 . S
H120 C143 0.951 . S
H121 C108 0.947 . S
H122 C110 0.952 . S
H123 C111 0.950 . S
N124 C127 1.382 . S
N124 C129 1.363 . S
N125 C127 1.371 . S
N125 C128 1.372 . S
N126 C128 1.361 . S
N126 C129 1.377 . S
C127 N124 1.382 . S
C127 N125 1.371 . S
C127 C130 1.480 . S
C128 N125 1.372 . S
C128 N126 1.361 . S
C128 C136 1.457 . S
C129 N124 1.363 . S
C129 N126 1.377 . S
C129 C142 1.479 . S
C130 C127 1.480 . S
C130 C131 1.383 . S
C130 C135 1.385 . S
C131 H112 0.947 . S
C131 C130 1.383 . S
C131 C132 1.388 . S
C132 H113 0.946 . S
C132 C131 1.388 . S
C132 C133 1.384 . S
C133 C132 1.384 . S
C133 C134 1.377 . S
C134 H114 0.953 . S
C134 C133 1.377 . S
C134 C135 1.369 . S
C135 H115 0.945 . S
C135 C130 1.385 . S
C135 C134 1.369 . S
C136 C128 1.457 . S
C136 C137 1.372 . S
C136 C141 1.364 . S
C137 H116 0.952 . S
C137 C136 1.372 . S
C137 C138 1.389 . S
C138 H117 0.949 . S
C138 C137 1.389 . S
C138 C139 1.387 . S
C139 C138 1.387 . S
C139 C140 1.372 . S
C140 H118 0.950 . S
C140 C139 1.372 . S
C140 C141 1.379 . S
C141 H119 0.948 . S
C141 C136 1.364 . S
C141 C140 1.379 . S
C142 C111 1.383 . S
C142 C129 1.479 . S
C142 C143 1.398 . S
C143 C108 1.382 . S
C143 H120 0.951 . S
C143 C142 1.398 . S
C144 C145 1.384 . S
C144 H157 0.947 . S
C144 C179 1.382 . S
C145 C144 1.384 . S
C145 C146 1.378 . S
C146 C145 1.378 . S
C146 C147 1.378 . S
C146 H158 0.952 . S
C147 C146 1.378 . S
C147 H159 0.950 . S
C147 C178 1.383 . S
H148 C167 0.947 . S
H149 C168 0.946 . S
H150 C170 0.953 . S
H151 C171 0.945 . S
H152 C173 0.952 . S
H153 C174 0.949 . S
H154 C176 0.950 . S
H155 C177 0.948 . S
H156 C179 0.951 . S
H157 C144 0.947 . S
H158 C146 0.952 . S
H159 C147 0.950 . S
N160 C163 1.382 . S
N160 C165 1.363 . S
N161 C163 1.371 . S
N161 C164 1.372 . S
N162 C164 1.361 . S
N162 C165 1.377 . S
C163 N160 1.382 . S
C163 N161 1.371 . S
C163 C166 1.480 . S
C164 N161 1.372 . S
C164 N162 1.361 . S
C164 C172 1.457 . S
C165 N160 1.363 . S
C165 N162 1.377 . S
C165 C178 1.479 . S
C166 C163 1.480 . S
C166 C167 1.383 . S
C166 C171 1.385 . S
C167 H148 0.947 . S
C167 C166 1.383 . S
C167 C168 1.388 . S
C168 H149 0.946 . S
C168 C167 1.388 . S
C168 C169 1.384 . S
C169 C168 1.384 . S
C169 C170 1.377 . S
C170 H150 0.953 . S
C170 C169 1.377 . S
C170 C171 1.369 . S
C171 H151 0.945 . S
C171 C166 1.385 . S
C171 C170 1.369 . S
C172 C164 1.457 . S
C172 C173 1.372 . S
C172 C177 1.364 . S
C173 H152 0.952 . S
C173 C172 1.372 . S
C173 C174 1.389 . S
C174 H153 0.949 . S
C174 C173 1.389 . S
C174 C175 1.387 . S
C175 C174 1.387 . S
C175 C176 1.372 . S
C176 H154 0.950 . S
C176 C175 1.372 . S
C176 C177 1.379 . S
C177 H155 0.948 . S
C177 C172 1.364 . S
C177 C176 1.379 . S
C178 C147 1.383 . S
C178 C165 1.479 . S
C178 C179 1.398 . S
C179 C144 1.382 . S
C179 H156 0.951 . S
C179 C178 1.398 . S
C180 C181 1.384 . S
C180 H193 0.947 . S
C180 C215 1.382 . S
C181 C180 1.384 . S
C181 C182 1.378 . S
C182 C181 1.378 . S
C182 C183 1.378 . S
C182 H194 0.952 . S
C183 C182 1.378 . S
C183 H195 0.950 . S
C183 C214 1.383 . S
H184 C203 0.947 . S
H185 C204 0.946 . S
H186 C206 0.953 . S
H187 C207 0.945 . S
H188 C209 0.952 . S
H189 C210 0.949 . S
H190 C212 0.950 . S
H191 C213 0.948 . S
H192 C215 0.951 . S
H193 C180 0.947 . S
H194 C182 0.952 . S
H195 C183 0.950 . S
N196 C199 1.382 . S
N196 C201 1.363 . S
N197 C199 1.371 . S
N197 C200 1.372 . S
N198 C200 1.361 . S
N198 C201 1.377 . S
C199 N196 1.382 . S
C199 N197 1.371 . S
C199 C202 1.480 . S
C200 N197 1.372 . S
C200 N198 1.361 . S
C200 C208 1.457 . S
C201 N196 1.363 . S
C201 N198 1.377 . S
C201 C214 1.479 . S
C202 C199 1.480 . S
C202 C203 1.383 . S
C202 C207 1.385 . S
C203 H184 0.947 . S
C203 C202 1.383 . S
C203 C204 1.388 . S
C204 H185 0.946 . S
C204 C203 1.388 . S
C204 C205 1.384 . S
C205 C204 1.384 . S
C205 C206 1.377 . S
C206 H186 0.953 . S
C206 C205 1.377 . S
C206 C207 1.369 . S
C207 H187 0.945 . S
C207 C202 1.385 . S
C207 C206 1.369 . S
C208 C200 1.457 . S
C208 C209 1.372 . S
C208 C213 1.364 . S
C209 H188 0.952 . S
C209 C208 1.372 . S
C209 C210 1.389 . S
C210 H189 0.949 . S
C210 C209 1.389 . S
C210 C211 1.387 . S
C211 C210 1.387 . S
C211 C212 1.372 . S
C212 H190 0.950 . S
C212 C211 1.372 . S
C212 C213 1.379 . S
C213 H191 0.948 . S
C213 C208 1.364 . S
C213 C212 1.379 . S
C214 C183 1.383 . S
C214 C201 1.479 . S
C214 C215 1.398 . S
C215 C180 1.382 . S
C215 H192 0.951 . S
C215 C214 1.398 . S
C216 C217 1.384 . S
C216 H229 0.947 . S
C216 C251 1.382 . S
C217 C216 1.384 . S
C217 C218 1.378 . S
C218 C217 1.378 . S
C218 C219 1.378 . S
C218 H230 0.952 . S
C219 C218 1.378 . S
C219 H231 0.950 . S
C219 C250 1.383 . S
H220 C239 0.947 . S
H221 C240 0.946 . S
H222 C242 0.953 . S
H223 C243 0.945 . S
H224 C245 0.952 . S
H225 C246 0.949 . S
H226 C248 0.950 . S
H227 C249 0.948 . S
H228 C251 0.951 . S
H229 C216 0.947 . S
H230 C218 0.952 . S
H231 C219 0.950 . S
N232 C235 1.382 . S
N232 C237 1.363 . S
N233 C235 1.371 . S
N233 C236 1.372 . S
N234 C236 1.361 . S
N234 C237 1.377 . S
C235 N232 1.382 . S
C235 N233 1.371 . S
C235 C238 1.480 . S
C236 N233 1.372 . S
C236 N234 1.361 . S
C236 C244 1.457 . S
C237 N232 1.363 . S
C237 N234 1.377 . S
C237 C250 1.479 . S
C238 C235 1.480 . S
C238 C239 1.383 . S
C238 C243 1.385 . S
C239 H220 0.947 . S
C239 C238 1.383 . S
C239 C240 1.388 . S
C240 H221 0.946 . S
C240 C239 1.388 . S
C240 C241 1.384 . S
C241 C240 1.384 . S
C241 C242 1.377 . S
C242 H222 0.953 . S
C242 C241 1.377 . S
C242 C243 1.369 . S
C243 H223 0.945 . S
C243 C238 1.385 . S
C243 C242 1.369 . S
C244 C236 1.457 . S
C244 C245 1.372 . S
C244 C249 1.364 . S
C245 H224 0.952 . S
C245 C244 1.372 . S
C245 C246 1.389 . S
C246 H225 0.949 . S
C246 C245 1.389 . S
C246 C247 1.387 . S
C247 C246 1.387 . S
C247 C248 1.372 . S
C248 H226 0.950 . S
C248 C247 1.372 . S
C248 C249 1.379 . S
C249 H227 0.948 . S
C249 C244 1.364 . S
C249 C248 1.379 . S
C250 C219 1.383 . S
C250 C237 1.479 . S
C250 C251 1.398 . S
C251 C216 1.382 . S
C251 H228 0.951 . S
C251 C250 1.398 . S
C252 C253 1.384 . S
C252 H265 0.947 . S
C252 C287 1.382 . S
C253 C252 1.384 . S
C253 C254 1.378 . S
C254 C253 1.378 . S
C254 C255 1.378 . S
C254 H266 0.952 . S
C255 C254 1.378 . S
C255 H267 0.950 . S
C255 C286 1.383 . S
H256 C275 0.947 . S
H257 C276 0.946 . S
H258 C278 0.953 . S
H259 C279 0.945 . S
H260 C281 0.952 . S
H261 C282 0.949 . S
H262 C284 0.950 . S
H263 C285 0.948 . S
H264 C287 0.951 . S
H265 C252 0.947 . S
H266 C254 0.952 . S
H267 C255 0.950 . S
N268 C271 1.382 . S
N268 C273 1.363 . S
N269 C271 1.371 . S
N269 C272 1.372 . S
N270 C272 1.361 . S
N270 C273 1.377 . S
C271 N268 1.382 . S
C271 N269 1.371 . S
C271 C274 1.480 . S
C272 N269 1.372 . S
C272 N270 1.361 . S
C272 C280 1.457 . S
C273 N268 1.363 . S
C273 N270 1.377 . S
C273 C286 1.479 . S
C274 C271 1.480 . S
C274 C275 1.383 . S
C274 C279 1.385 . S
C275 H256 0.947 . S
C275 C274 1.383 . S
C275 C276 1.388 . S
C276 H257 0.946 . S
C276 C275 1.388 . S
C276 C277 1.384 . S
C277 C276 1.384 . S
C277 C278 1.377 . S
C278 H258 0.953 . S
C278 C277 1.377 . S
C278 C279 1.369 . S
C279 H259 0.945 . S
C279 C274 1.385 . S
C279 C278 1.369 . S
C280 C272 1.457 . S
C280 C281 1.372 . S
C280 C285 1.364 . S
C281 H260 0.952 . S
C281 C280 1.372 . S
C281 C282 1.389 . S
C282 H261 0.949 . S
C282 C281 1.389 . S
C282 C283 1.387 . S
C283 C282 1.387 . S
C283 C284 1.372 . S
C284 H262 0.950 . S
C284 C283 1.372 . S
C284 C285 1.379 . S
C285 H263 0.948 . S
C285 C280 1.364 . S
C285 C284 1.379 . S
C286 C255 1.383 . S
C286 C273 1.479 . S
C286 C287 1.398 . S
C287 C252 1.382 . S
C287 H264 0.951 . S
C287 C286 1.398 . S
C288 C289 1.384 . S
C288 H301 0.947 . S
C288 C323 1.382 . S
C289 C288 1.384 . S
C289 C290 1.378 . S
C290 C289 1.378 . S
C290 C291 1.378 . S
C290 H302 0.952 . S
C291 C290 1.378 . S
C291 H303 0.950 . S
C291 C322 1.383 . S
H292 C311 0.947 . S
H293 C312 0.946 . S
H294 C314 0.953 . S
H295 C315 0.945 . S
H296 C317 0.952 . S
H297 C318 0.949 . S
H298 C320 0.950 . S
H299 C321 0.948 . S
H300 C323 0.951 . S
H301 C288 0.947 . S
H302 C290 0.952 . S
H303 C291 0.950 . S
N304 C307 1.382 . S
N304 C309 1.363 . S
N305 C307 1.371 . S
N305 C308 1.372 . S
N306 C308 1.361 . S
N306 C309 1.377 . S
C307 N304 1.382 . S
C307 N305 1.371 . S
C307 C310 1.480 . S
C308 N305 1.372 . S
C308 N306 1.361 . S
C308 C316 1.457 . S
C309 N304 1.363 . S
C309 N306 1.377 . S
C309 C322 1.479 . S
C310 C307 1.480 . S
C310 C311 1.383 . S
C310 C315 1.385 . S
C311 H292 0.947 . S
C311 C310 1.383 . S
C311 C312 1.388 . S
C312 H293 0.946 . S
C312 C311 1.388 . S
C312 C313 1.384 . S
C313 C312 1.384 . S
C313 C314 1.377 . S
C314 H294 0.953 . S
C314 C313 1.377 . S
C314 C315 1.369 . S
C315 H295 0.945 . S
C315 C310 1.385 . S
C315 C314 1.369 . S
C316 C308 1.457 . S
C316 C317 1.372 . S
C316 C321 1.364 . S
C317 H296 0.952 . S
C317 C316 1.372 . S
C317 C318 1.389 . S
C318 H297 0.949 . S
C318 C317 1.389 . S
C318 C319 1.387 . S
C319 C318 1.387 . S
C319 C320 1.372 . S
C320 H298 0.950 . S
C320 C319 1.372 . S
C320 C321 1.379 . S
C321 H299 0.948 . S
C321 C316 1.364 . S
C321 C320 1.379 . S
C322 C291 1.383 . S
C322 C309 1.479 . S
C322 C323 1.398 . S
C323 C288 1.382 . S
C323 H300 0.951 . S
C323 C322 1.398 . S
C324 C325 1.384 . S
C324 H337 0.947 . S
C324 C359 1.382 . S
C325 C324 1.384 . S
C325 C326 1.378 . S
C326 C325 1.378 . S
C326 C327 1.378 . S
C326 H338 0.952 . S
C327 C326 1.378 . S
C327 H339 0.950 . S
C327 C358 1.383 . S
H328 C347 0.947 . S
H329 C348 0.946 . S
H330 C350 0.953 . S
H331 C351 0.945 . S
H332 C353 0.952 . S
H333 C354 0.949 . S
H334 C356 0.950 . S
H335 C357 0.948 . S
H336 C359 0.951 . S
H337 C324 0.947 . S
H338 C326 0.952 . S
H339 C327 0.950 . S
N340 C343 1.382 . S
N340 C345 1.363 . S
N341 C343 1.371 . S
N341 C344 1.372 . S
N342 C344 1.361 . S
N342 C345 1.377 . S
C343 N340 1.382 . S
C343 N341 1.371 . S
C343 C346 1.480 . S
C344 N341 1.372 . S
C344 N342 1.361 . S
C344 C352 1.457 . S
C345 N340 1.363 . S
C345 N342 1.377 . S
C345 C358 1.479 . S
C346 C343 1.480 . S
C346 C347 1.383 . S
C346 C351 1.385 . S
C347 H328 0.947 . S
C347 C346 1.383 . S
C347 C348 1.388 . S
C348 H329 0.946 . S
C348 C347 1.388 . S
C348 C349 1.384 . S
C349 C348 1.384 . S
C349 C350 1.377 . S
C350 H330 0.953 . S
C350 C349 1.377 . S
C350 C351 1.369 . S
C351 H331 0.945 . S
C351 C346 1.385 . S
C351 C350 1.369 . S
C352 C344 1.457 . S
C352 C353 1.372 . S
C352 C357 1.364 . S
C353 H332 0.952 . S
C353 C352 1.372 . S
C353 C354 1.389 . S
C354 H333 0.949 . S
C354 C353 1.389 . S
C354 C355 1.387 . S
C355 C354 1.387 . S
C355 C356 1.372 . S
C356 H334 0.950 . S
C356 C355 1.372 . S
C356 C357 1.379 . S
C357 H335 0.948 . S
C357 C352 1.364 . S
C357 C356 1.379 . S
C358 C327 1.383 . S
C358 C345 1.479 . S
C358 C359 1.398 . S
C359 C324 1.382 . S
C359 H336 0.951 . S
C359 C358 1.398 . S
C360 C361 1.384 . S
C360 H373 0.947 . S
C360 C395 1.382 . S
C361 C360 1.384 . S
C361 C362 1.378 . S
C362 C361 1.378 . S
C362 C363 1.378 . S
C362 H374 0.952 . S
C363 C362 1.378 . S
C363 H375 0.950 . S
C363 C394 1.383 . S
H364 C383 0.947 . S
H365 C384 0.946 . S
H366 C386 0.953 . S
H367 C387 0.945 . S
H368 C389 0.952 . S
H369 C390 0.949 . S
H370 C392 0.950 . S
H371 C393 0.948 . S
H372 C395 0.951 . S
H373 C360 0.947 . S
H374 C362 0.952 . S
H375 C363 0.950 . S
N376 C379 1.382 . S
N376 C381 1.363 . S
N377 C379 1.371 . S
N377 C380 1.372 . S
N378 C380 1.361 . S
N378 C381 1.377 . S
C379 N376 1.382 . S
C379 N377 1.371 . S
C379 C382 1.480 . S
C380 N377 1.372 . S
C380 N378 1.361 . S
C380 C388 1.457 . S
C381 N376 1.363 . S
C381 N378 1.377 . S
C381 C394 1.479 . S
C382 C379 1.480 . S
C382 C383 1.383 . S
C382 C387 1.385 . S
C383 H364 0.947 . S
C383 C382 1.383 . S
C383 C384 1.388 . S
C384 H365 0.946 . S
C384 C383 1.388 . S
C384 C385 1.384 . S
C385 C384 1.384 . S
C385 C386 1.377 . S
C386 H366 0.953 . S
C386 C385 1.377 . S
C386 C387 1.369 . S
C387 H367 0.945 . S
C387 C382 1.385 . S
C387 C386 1.369 . S
C388 C380 1.457 . S
C388 C389 1.372 . S
C388 C393 1.364 . S
C389 H368 0.952 . S
C389 C388 1.372 . S
C389 C390 1.389 . S
C390 H369 0.949 . S
C390 C389 1.389 . S
C390 C391 1.387 . S
C391 C390 1.387 . S
C391 C392 1.372 . S
C392 H370 0.950 . S
C392 C391 1.372 . S
C392 C393 1.379 . S
C393 H371 0.948 . S
C393 C388 1.364 . S
C393 C392 1.379 . S
C394 C363 1.383 . S
C394 C381 1.479 . S
C394 C395 1.398 . S
C395 C360 1.382 . S
C395 H372 0.951 . S
C395 C394 1.398 . S
C396 C397 1.384 . S
C396 H409 0.947 . S
C396 C431 1.382 . S
C397 C396 1.384 . S
C397 C398 1.378 . S
C398 C397 1.378 . S
C398 C399 1.378 . S
C398 H410 0.952 . S
C399 C398 1.378 . S
C399 H411 0.950 . S
C399 C430 1.383 . S
H400 C419 0.947 . S
H401 C420 0.946 . S
H402 C422 0.953 . S
H403 C423 0.945 . S
H404 C425 0.952 . S
H405 C426 0.949 . S
H406 C428 0.950 . S
H407 C429 0.948 . S
H408 C431 0.951 . S
H409 C396 0.947 . S
H410 C398 0.952 . S
H411 C399 0.950 . S
N412 C415 1.382 . S
N412 C417 1.363 . S
N413 C415 1.371 . S
N413 C416 1.372 . S
N414 C416 1.361 . S
N414 C417 1.377 . S
C415 N412 1.382 . S
C415 N413 1.371 . S
C415 C418 1.480 . S
C416 N413 1.372 . S
C416 N414 1.361 . S
C416 C424 1.457 . S
C417 N412 1.363 . S
C417 N414 1.377 . S
C417 C430 1.479 . S
C418 C415 1.480 . S
C418 C419 1.383 . S
C418 C423 1.385 . S
C419 H400 0.947 . S
C419 C418 1.383 . S
C419 C420 1.388 . S
C420 H401 0.946 . S
C420 C419 1.388 . S
C420 C421 1.384 . S
C421 C420 1.384 . S
C421 C422 1.377 . S
C422 H402 0.953 . S
C422 C421 1.377 . S
C422 C423 1.369 . S
C423 H403 0.945 . S
C423 C418 1.385 . S
C423 C422 1.369 . S
C424 C416 1.457 . S
C424 C425 1.372 . S
C424 C429 1.364 . S
C425 H404 0.952 . S
C425 C424 1.372 . S
C425 C426 1.389 . S
C426 H405 0.949 . S
C426 C425 1.389 . S
C426 C427 1.387 . S
C427 C426 1.387 . S
C427 C428 1.372 . S
C428 H406 0.950 . S
C428 C427 1.372 . S
C428 C429 1.379 . S
C429 H407 0.948 . S
C429 C424 1.364 . S
C429 C428 1.379 . S
C430 C399 1.383 . S
C430 C417 1.479 . S
C430 C431 1.398 . S
C431 C396 1.382 . S
C431 H408 0.951 . S
C431 C430 1.398 . S
C432 C433 1.384 . S
C432 H445 0.947 . S
C432 C467 1.382 . S
C433 C432 1.384 . S
C433 C434 1.378 . S
C434 C433 1.378 . S
C434 C435 1.378 . S
C434 H446 0.952 . S
C435 C434 1.378 . S
C435 H447 0.950 . S
C435 C466 1.383 . S
H436 C455 0.947 . S
H437 C456 0.946 . S
H438 C458 0.953 . S
H439 C459 0.945 . S
H440 C461 0.952 . S
H441 C462 0.949 . S
H442 C464 0.950 . S
H443 C465 0.948 . S
H444 C467 0.951 . S
H445 C432 0.947 . S
H446 C434 0.952 . S
H447 C435 0.950 . S
N448 C451 1.382 . S
N448 C453 1.363 . S
N449 C451 1.371 . S
N449 C452 1.372 . S
N450 C452 1.361 . S
N450 C453 1.377 . S
C451 N448 1.382 . S
C451 N449 1.371 . S
C451 C454 1.480 . S
C452 N449 1.372 . S
C452 N450 1.361 . S
C452 C460 1.457 . S
C453 N448 1.363 . S
C453 N450 1.377 . S
C453 C466 1.479 . S
C454 C451 1.480 . S
C454 C455 1.383 . S
C454 C459 1.385 . S
C455 H436 0.947 . S
C455 C454 1.383 . S
C455 C456 1.388 . S
C456 H437 0.946 . S
C456 C455 1.388 . S
C456 C457 1.384 . S
C457 C456 1.384 . S
C457 C458 1.377 . S
C458 H438 0.953 . S
C458 C457 1.377 . S
C458 C459 1.369 . S
C459 H439 0.945 . S
C459 C454 1.385 . S
C459 C458 1.369 . S
C460 C452 1.457 . S
C460 C461 1.372 . S
C460 C465 1.364 . S
C461 H440 0.952 . S
C461 C460 1.372 . S
C461 C462 1.389 . S
C462 H441 0.949 . S
C462 C461 1.389 . S
C462 C463 1.387 . S
C463 C462 1.387 . S
C463 C464 1.372 . S
C464 H442 0.950 . S
C464 C463 1.372 . S
C464 C465 1.379 . S
C465 H443 0.948 . S
C465 C460 1.364 . S
C465 C464 1.379 . S
C466 C435 1.383 . S
C466 C453 1.479 . S
C466 C467 1.398 . S
C467 C432 1.382 . S
C467 H444 0.951 . S
C467 C466 1.398 . S
C468 C469 1.384 . S
C468 H481 0.947 . S
C468 C503 1.382 . S
C469 C468 1.384 . S
C469 C470 1.378 . S
C470 C469 1.378 . S
C470 C471 1.378 . S
C470 H482 0.952 . S
C471 C470 1.378 . S
C471 H483 0.950 . S
C471 C502 1.383 . S
H472 C491 0.947 . S
H473 C492 0.946 . S
H474 C494 0.953 . S
H475 C495 0.945 . S
H476 C497 0.952 . S
H477 C498 0.949 . S
H478 C500 0.950 . S
H479 C501 0.948 . S
H480 C503 0.951 . S
H481 C468 0.947 . S
H482 C470 0.952 . S
H483 C471 0.950 . S
N484 C487 1.382 . S
N484 C489 1.363 . S
N485 C487 1.371 . S
N485 C488 1.372 . S
N486 C488 1.361 . S
N486 C489 1.377 . S
C487 N484 1.382 . S
C487 N485 1.371 . S
C487 C490 1.480 . S
C488 N485 1.372 . S
C488 N486 1.361 . S
C488 C496 1.457 . S
C489 N484 1.363 . S
C489 N486 1.377 . S
C489 C502 1.479 . S
C490 C487 1.480 . S
C490 C491 1.383 . S
C490 C495 1.385 . S
C491 H472 0.947 . S
C491 C490 1.383 . S
C491 C492 1.388 . S
C492 H473 0.946 . S
C492 C491 1.388 . S
C492 C493 1.384 . S
C493 C492 1.384 . S
C493 C494 1.377 . S
C494 H474 0.953 . S
C494 C493 1.377 . S
C494 C495 1.369 . S
C495 H475 0.945 . S
C495 C490 1.385 . S
C495 C494 1.369 . S
C496 C488 1.457 . S
C496 C497 1.372 . S
C496 C501 1.364 . S
C497 H476 0.952 . S
C497 C496 1.372 . S
C497 C498 1.389 . S
C498 H477 0.949 . S
C498 C497 1.389 . S
C498 C499 1.387 . S
C499 C498 1.387 . S
C499 C500 1.372 . S
C500 H478 0.950 . S
C500 C499 1.372 . S
C500 C501 1.379 . S
C501 H479 0.948 . S
C501 C496 1.364 . S
C501 C500 1.379 . S
C502 C471 1.383 . S
C502 C489 1.479 . S
C502 C503 1.398 . S
C503 C468 1.382 . S
C503 H480 0.951 . S
C503 C502 1.398 . S
C504 C505 1.384 . S
C504 H517 0.947 . S
C504 C539 1.382 . S
C505 C504 1.384 . S
C505 C506 1.378 . S
C506 C505 1.378 . S
C506 C507 1.378 . S
C506 H518 0.952 . S
C507 C506 1.378 . S
C507 H519 0.950 . S
C507 C538 1.383 . S
H508 C527 0.947 . S
H509 C528 0.946 . S
H510 C530 0.953 . S
H511 C531 0.945 . S
H512 C533 0.952 . S
H513 C534 0.949 . S
H514 C536 0.950 . S
H515 C537 0.948 . S
H516 C539 0.951 . S
H517 C504 0.947 . S
H518 C506 0.952 . S
H519 C507 0.950 . S
N520 C523 1.382 . S
N520 C525 1.363 . S
N521 C523 1.371 . S
N521 C524 1.372 . S
N522 C524 1.361 . S
N522 C525 1.377 . S
C523 N520 1.382 . S
C523 N521 1.371 . S
C523 C526 1.480 . S
C524 N521 1.372 . S
C524 N522 1.361 . S
C524 C532 1.457 . S
C525 N520 1.363 . S
C525 N522 1.377 . S
C525 C538 1.479 . S
C526 C523 1.480 . S
C526 C527 1.383 . S
C526 C531 1.385 . S
C527 H508 0.947 . S
C527 C526 1.383 . S
C527 C528 1.388 . S
C528 H509 0.946 . S
C528 C527 1.388 . S
C528 C529 1.384 . S
C529 C528 1.384 . S
C529 C530 1.377 . S
C530 H510 0.953 . S
C530 C529 1.377 . S
C530 C531 1.369 . S
C531 H511 0.945 . S
C531 C526 1.385 . S
C531 C530 1.369 . S
C532 C524 1.457 . S
C532 C533 1.372 . S
C532 C537 1.364 . S
C533 H512 0.952 . S
C533 C532 1.372 . S
C533 C534 1.389 . S
C534 H513 0.949 . S
C534 C533 1.389 . S
C534 C535 1.387 . S
C535 C534 1.387 . S
C535 C536 1.372 . S
C536 H514 0.950 . S
C536 C535 1.372 . S
C536 C537 1.379 . S
C537 H515 0.948 . S
C537 C532 1.364 . S
C537 C536 1.379 . S
C538 C507 1.383 . S
C538 C525 1.479 . S
C538 C539 1.398 . S
C539 C504 1.382 . S
C539 H516 0.951 . S
C539 C538 1.398 . S
C540 C541 1.384 . S
C540 H553 0.947 . S
C540 C575 1.382 . S
C541 C540 1.384 . S
C541 C542 1.378 . S
C542 C541 1.378 . S
C542 C543 1.378 . S
C542 H554 0.952 . S
C543 C542 1.378 . S
C543 H555 0.950 . S
C543 C574 1.383 . S
H544 C563 0.947 . S
H545 C564 0.946 . S
H546 C566 0.953 . S
H547 C567 0.945 . S
H548 C569 0.952 . S
H549 C570 0.949 . S
H550 C572 0.950 . S
H551 C573 0.948 . S
H552 C575 0.951 . S
H553 C540 0.947 . S
H554 C542 0.952 . S
H555 C543 0.950 . S
N556 C559 1.382 . S
N556 C561 1.363 . S
N557 C559 1.371 . S
N557 C560 1.372 . S
N558 C560 1.361 . S
N558 C561 1.377 . S
C559 N556 1.382 . S
C559 N557 1.371 . S
C559 C562 1.480 . S
C560 N557 1.372 . S
C560 N558 1.361 . S
C560 C568 1.457 . S
C561 N556 1.363 . S
C561 N558 1.377 . S
C561 C574 1.479 . S
C562 C559 1.480 . S
C562 C563 1.383 . S
C562 C567 1.385 . S
C563 H544 0.947 . S
C563 C562 1.383 . S
C563 C564 1.388 . S
C564 H545 0.946 . S
C564 C563 1.388 . S
C564 C565 1.384 . S
C565 C564 1.384 . S
C565 C566 1.377 . S
C566 H546 0.953 . S
C566 C565 1.377 . S
C566 C567 1.369 . S
C567 H547 0.945 . S
C567 C562 1.385 . S
C567 C566 1.369 . S
C568 C560 1.457 . S
C568 C569 1.372 . S
C568 C573 1.364 . S
C569 H548 0.952 . S
C569 C568 1.372 . S
C569 C570 1.389 . S
C570 H549 0.949 . S
C570 C569 1.389 . S
C570 C571 1.387 . S
C571 C570 1.387 . S
C571 C572 1.372 . S
C572 H550 0.950 . S
C572 C571 1.372 . S
C572 C573 1.379 . S
C573 H551 0.948 . S
C573 C568 1.364 . S
C573 C572 1.379 . S
C574 C543 1.383 . S
C574 C561 1.479 . S
C574 C575 1.398 . S
C575 C540 1.382 . S
C575 H552 0.951 . S
C575 C574 1.398 . S
C576 C577 1.384 . S
C576 H589 0.947 . S
C576 C611 1.382 . S
C577 C576 1.384 . S
C577 C578 1.378 . S
C578 C577 1.378 . S
C578 C579 1.378 . S
C578 H590 0.952 . S
C579 C578 1.378 . S
C579 H591 0.950 . S
C579 C610 1.383 . S
H580 C599 0.947 . S
H581 C600 0.946 . S
H582 C602 0.953 . S
H583 C603 0.945 . S
H584 C605 0.952 . S
H585 C606 0.949 . S
H586 C608 0.950 . S
H587 C609 0.948 . S
H588 C611 0.951 . S
H589 C576 0.947 . S
H590 C578 0.952 . S
H591 C579 0.950 . S
N592 C595 1.382 . S
N592 C597 1.363 . S
N593 C595 1.371 . S
N593 C596 1.372 . S
N594 C596 1.361 . S
N594 C597 1.377 . S
C595 N592 1.382 . S
C595 N593 1.371 . S
C595 C598 1.480 . S
C596 N593 1.372 . S
C596 N594 1.361 . S
C596 C604 1.457 . S
C597 N592 1.363 . S
C597 N594 1.377 . S
C597 C610 1.479 . S
C598 C595 1.480 . S
C598 C599 1.383 . S
C598 C603 1.385 . S
C599 H580 0.947 . S
C599 C598 1.383 . S
C599 C600 1.388 . S
C600 H581 0.946 . S
C600 C599 1.388 . S
C600 C601 1.384 . S
C601 C600 1.384 . S
C601 C602 1.377 . S
C602 H582 0.953 . S
C602 C601 1.377 . S
C602 C603 1.369 . S
C603 H583 0.945 . S
C603 C598 1.385 . S
C603 C602 1.369 . S
C604 C596 1.457 . S
C604 C605 1.372 . S
C604 C609 1.364 . S
C605 H584 0.952 . S
C605 C604 1.372 . S
C605 C606 1.389 . S
C606 H585 0.949 . S
C606 C605 1.389 . S
C606 C607 1.387 . S
C607 C606 1.387 . S
C607 C608 1.372 . S
C608 H586 0.950 . S
C608 C607 1.372 . S
C608 C609 1.379 . S
C609 H587 0.948 . S
C609 C604 1.364 . S
C609 C608 1.379 . S
C610 C579 1.383 . S
C610 C597 1.479 . S
C610 C611 1.398 . S
C611 C576 1.382 . S
C611 H588 0.951 . S
C611 C610 1.398 . S
C612 C613 1.384 . S
C612 H625 0.947 . S
C612 C647 1.382 . S
C613 C612 1.384 . S
C613 C614 1.378 . S
C614 C613 1.378 . S
C614 C615 1.378 . S
C614 H626 0.952 . S
C615 C614 1.378 . S
C615 H627 0.950 . S
C615 C646 1.383 . S
H616 C635 0.947 . S
H617 C636 0.946 . S
H618 C638 0.953 . S
H619 C639 0.945 . S
H620 C641 0.952 . S
H621 C642 0.949 . S
H622 C644 0.950 . S
H623 C645 0.948 . S
H624 C647 0.951 . S
H625 C612 0.947 . S
H626 C614 0.952 . S
H627 C615 0.950 . S
N628 C631 1.382 . S
N628 C633 1.363 . S
N629 C631 1.371 . S
N629 C632 1.372 . S
N630 C632 1.361 . S
N630 C633 1.377 . S
C631 N628 1.382 . S
C631 N629 1.371 . S
C631 C634 1.480 . S
C632 N629 1.372 . S
C632 N630 1.361 . S
C632 C640 1.457 . S
C633 N628 1.363 . S
C633 N630 1.377 . S
C633 C646 1.479 . S
C634 C631 1.480 . S
C634 C635 1.383 . S
C634 C639 1.385 . S
C635 H616 0.947 . S
C635 C634 1.383 . S
C635 C636 1.388 . S
C636 H617 0.946 . S
C636 C635 1.388 . S
C636 C637 1.384 . S
C637 C636 1.384 . S
C637 C638 1.377 . S
C638 H618 0.953 . S
C638 C637 1.377 . S
C638 C639 1.369 . S
C639 H619 0.945 . S
C639 C634 1.385 . S
C639 C638 1.369 . S
C640 C632 1.457 . S
C640 C641 1.372 . S
C640 C645 1.364 . S
C641 H620 0.952 . S
C641 C640 1.372 . S
C641 C642 1.389 . S
C642 H621 0.949 . S
C642 C641 1.389 . S
C642 C643 1.387 . S
C643 C642 1.387 . S
C643 C644 1.372 . S
C644 H622 0.950 . S
C644 C643 1.372 . S
C644 C645 1.379 . S
C645 H623 0.948 . S
C645 C640 1.364 . S
C645 C644 1.379 . S
C646 C615 1.383 . S
C646 C633 1.479 . S
C646 C647 1.398 . S
C647 C612 1.382 . S
C647 H624 0.951 . S
C647 C646 1.398 . S
Eu648 C657 2.828 . S
Eu648 O659 2.416 . S
Eu648 O661 2.418 . S
Eu648 O666 2.373 1_565 S
Eu648 O669 2.488 . S
Eu648 O670 2.471 1_565 S
Eu648 O671 2.349 1_565 S
Eu649 O658 2.373 1_545 S
Eu649 O662 2.488 . S
Eu649 O663 2.437 1_545 S
Eu649 O664 2.349 1_545 S
Eu649 O667 2.392 . S
Eu649 O668 2.418 . S
Eu649 C678 2.828 . S
C650 O668 1.189 1_556 S
C650 O671 1.288 . S
C651 C652 1.379 1_565 S
C651 C655 1.373 . S
C651 C657 1.505 . S
C652 C651 1.379 1_545 S
C652 C654 1.369 . S
C652 H680 0.930 . S
C653 C655 1.383 . S
C653 C656 1.382 1_565 S
C653 H681 0.930 . S
C654 C652 1.369 . S
C654 C656 1.392 . S
C654 H682 0.930 . S
C655 C651 1.373 . S
C655 C653 1.383 . S
C655 H683 0.931 . S
C656 C653 1.382 1_545 S
C656 C654 1.392 . S
C657 Eu648 2.828 . S
C657 C651 1.505 . S
C657 O669 1.249 . S
C657 O670 1.244 1_565 S
O658 Eu649 2.373 1_565 S
O658 C660 1.258 . S
O659 Eu648 2.416 . S
O659 C660 1.214 1_556 S
C660 O658 1.258 . S
C660 O659 1.214 1_554 S
O661 Eu648 2.418 . S
O661 C665 1.244 1_556 S
O662 Eu649 2.488 . S
O662 C678 1.249 . S
O663 Eu649 2.437 1_565 S
O663 C678 1.193 1_565 S
O664 Eu649 2.349 1_565 S
O664 C665 1.265 . S
C665 O661 1.244 1_554 S
C665 O664 1.265 . S
O666 Eu648 2.373 1_545 S
O666 C679 1.258 . S
O667 Eu649 2.392 . S
O667 C679 1.242 1_554 S
O668 Eu649 2.418 . S
O668 C650 1.189 1_554 S
O669 Eu648 2.488 . S
O669 C657 1.249 . S
O670 Eu648 2.471 1_545 S
O670 C657 1.244 1_545 S
O671 Eu648 2.349 1_545 S
O671 C650 1.288 . S
C672 C673 1.379 1_545 S
C672 C676 1.373 . S
C672 C678 1.505 . S
C673 C672 1.379 1_565 S
C673 C675 1.369 . S
C673 H684 0.930 . S
C674 C676 1.383 . S
C674 C677 1.382 1_545 S
C674 H685 0.930 . S
C675 C673 1.369 . S
C675 C677 1.392 . S
C675 H686 0.930 . S
C676 C672 1.373 . S
C676 C674 1.383 . S
C676 H687 0.931 . S
C677 C674 1.382 1_565 S
C677 C675 1.392 . S
C678 Eu649 2.828 . S
C678 O662 1.249 . S
C678 O663 1.193 1_545 S
C678 C672 1.505 . S
C679 O666 1.258 . S
C679 O667 1.242 1_556 S
H680 C652 0.930 . S
H681 C653 0.930 . S
H682 C654 0.930 . S
H683 C655 0.931 . S
H684 C673 0.930 . S
H685 C674 0.930 . S
H686 C675 0.930 . S
H687 C676 0.931 . S
Eu688 C697 2.828 . S
Eu688 O699 2.392 1_556 S
Eu688 O701 2.418 . S
Eu688 O706 2.373 1_455 S
Eu688 O709 2.488 . S
Eu688 O710 2.471 1_455 S
Eu688 O711 2.349 1_455 S
Eu689 O698 2.373 1_655 S
Eu689 O702 2.488 . S
Eu689 O703 2.471 1_655 S
Eu689 O704 2.349 1_655 S
Eu689 O707 2.380 1_554 S
Eu689 O708 2.418 . S
Eu689 C718 2.828 . S
C690 O708 1.244 1_556 S
C690 O711 1.265 . S
C691 C692 1.379 1_455 S
C691 C695 1.373 . S
C691 C697 1.505 . S
C692 C691 1.379 1_655 S
C692 C694 1.369 . S
C692 H720 0.930 . S
C693 C695 1.383 . S
C693 C696 1.382 1_455 S
C693 H721 0.930 . S
C694 C692 1.369 . S
C694 C696 1.392 . S
C694 H722 0.930 . S
C695 C691 1.373 . S
C695 C693 1.383 . S
C695 H723 0.931 . S
C696 C693 1.382 1_655 S
C696 C694 1.392 . S
C697 Eu688 2.828 . S
C697 C691 1.505 . S
C697 O709 1.249 . S
C697 O710 1.244 1_455 S
O698 Eu689 2.373 1_455 S
O698 C700 1.258 . S
O699 Eu688 2.392 1_554 S
O699 C700 1.242 . S
C700 O698 1.258 . S
C700 O699 1.242 . S
O701 Eu688 2.418 . S
O701 C705 1.244 1_556 S
O702 Eu689 2.488 . S
O702 C718 1.249 . S
O703 Eu689 2.471 1_455 S
O703 C718 1.244 1_455 S
O704 Eu689 2.349 1_455 S
O704 C705 1.265 . S
C705 O701 1.244 1_554 S
C705 O704 1.265 . S
O706 Eu688 2.373 1_655 S
O706 C719 1.258 . S
O707 Eu689 2.380 1_556 S
O707 C719 1.257 . S
O708 Eu689 2.418 . S
O708 C690 1.244 1_554 S
O709 Eu688 2.488 . S
O709 C697 1.249 . S
O710 Eu688 2.471 1_655 S
O710 C697 1.244 1_655 S
O711 Eu688 2.349 1_655 S
O711 C690 1.265 . S
C712 C713 1.379 1_655 S
C712 C716 1.373 . S
C712 C718 1.505 . S
C713 C712 1.379 1_455 S
C713 C715 1.369 . S
C713 H724 0.930 . S
C714 C716 1.383 . S
C714 C717 1.382 1_655 S
C714 H725 0.930 . S
C715 C713 1.369 . S
C715 C717 1.392 . S
C715 H726 0.930 . S
C716 C712 1.373 . S
C716 C714 1.383 . S
C716 H727 0.931 . S
C717 C714 1.382 1_455 S
C717 C715 1.392 . S
C718 Eu689 2.828 . S
C718 O702 1.249 . S
C718 O703 1.244 1_655 S
C718 C712 1.505 . S
C719 O706 1.258 . S
C719 O707 1.257 . S
H720 C692 0.930 . S
H721 C693 0.930 . S
H722 C694 0.930 . S
H723 C695 0.931 . S
H724 C713 0.930 . S
H725 C714 0.930 . S
H726 C715 0.930 . S
H727 C716 0.931 . S
Eu728 C737 2.828 . S
Eu728 O739 2.392 . S
Eu728 O741 2.418 . S
Eu728 O746 2.373 . S
Eu728 O749 2.488 . S
Eu728 O750 2.471 . S
Eu728 O751 2.349 . S
Eu729 O738 2.373 . S
Eu729 O742 2.488 . S
Eu729 O743 2.471 . S
Eu729 O744 2.349 . S
Eu729 O747 2.392 1_556 S
Eu729 O748 2.418 . S
Eu729 C758 2.828 . S
C730 O748 1.244 1_554 S
C730 O751 1.265 . S
C731 C732 1.379 . S
C731 C735 1.373 . S
C731 C737 1.505 . S
C732 C731 1.379 . S
C732 C734 1.369 . S
C732 H760 0.930 . S
C733 C735 1.383 . S
C733 C736 1.382 . S
C733 H761 0.930 . S
C734 C732 1.369 . S
C734 C736 1.392 . S
C734 H762 0.930 . S
C735 C731 1.373 . S
C735 C733 1.383 . S
C735 H763 0.931 . S
C736 C733 1.382 . S
C736 C734 1.392 . S
C737 Eu728 2.828 . S
C737 C731 1.505 . S
C737 O749 1.249 . S
C737 O750 1.244 . S
O738 Eu729 2.373 . S
O738 C740 1.258 . S
O739 Eu728 2.392 . S
O739 C740 1.242 1_554 S
C740 O738 1.258 . S
C740 O739 1.242 1_556 S
O741 Eu728 2.418 . S
O741 C745 1.244 1_554 S
O742 Eu729 2.488 . S
O742 C758 1.249 . S
O743 Eu729 2.471 . S
O743 C758 1.244 . S
O744 Eu729 2.349 . S
O744 C745 1.265 . S
C745 O741 1.244 1_556 S
C745 O744 1.265 . S
O746 Eu728 2.373 . S
O746 C759 1.258 . S
O747 Eu729 2.392 1_554 S
O747 C759 1.242 . S
O748 Eu729 2.418 . S
O748 C730 1.244 1_556 S
O749 Eu728 2.488 . S
O749 C737 1.249 . S
O750 Eu728 2.471 . S
O750 C737 1.244 . S
O751 Eu728 2.349 . S
O751 C730 1.265 . S
C752 C753 1.379 . S
C752 C756 1.373 . S
C752 C758 1.505 . S
C753 C752 1.379 . S
C753 C755 1.369 . S
C753 H764 0.930 . S
C754 C756 1.383 . S
C754 C757 1.382 . S
C754 H765 0.930 . S
C755 C753 1.369 . S
C755 C757 1.392 . S
C755 H766 0.930 . S
C756 C752 1.373 . S
C756 C754 1.383 . S
C756 H767 0.931 . S
C757 C754 1.382 . S
C757 C755 1.392 . S
C758 Eu729 2.828 . S
C758 O742 1.249 . S
C758 O743 1.244 . S
C758 C752 1.505 . S
C759 O746 1.258 . S
C759 O747 1.242 . S
H760 C732 0.930 . S
H761 C733 0.930 . S
H762 C734 0.930 . S
H763 C735 0.931 . S
H764 C753 0.930 . S
H765 C754 0.930 . S
H766 C755 0.930 . S
H767 C756 0.931 . S
Eu768 C777 2.828 . S
Eu768 O779 2.392 . S
Eu768 O781 2.418 . S
Eu768 O786 2.373 . S
Eu768 O789 2.488 . S
Eu768 O790 2.471 . S
Eu768 O791 2.349 . S
Eu769 O778 2.373 . S
Eu769 O782 2.488 . S
Eu769 O783 2.471 . S
Eu769 O784 2.349 . S
Eu769 O787 2.392 . S
Eu769 O788 2.418 . S
Eu769 C798 2.828 . S
C770 O788 1.244 . S
C770 O791 1.265 . S
C771 C772 1.379 . S
C771 C775 1.373 . S
C771 C777 1.505 . S
C772 C771 1.379 . S
C772 C774 1.369 . S
C772 H800 0.930 . S
C773 C775 1.383 . S
C773 C776 1.382 . S
C773 H801 0.930 . S
C774 C772 1.369 . S
C774 C776 1.392 . S
C774 H802 0.930 . S
C775 C771 1.373 . S
C775 C773 1.383 . S
C775 H803 0.931 . S
C776 C773 1.382 . S
C776 C774 1.392 . S
C777 Eu768 2.828 . S
C777 C771 1.505 . S
C777 O789 1.249 . S
C777 O790 1.244 . S
O778 Eu769 2.373 . S
O778 C780 1.258 . S
O779 Eu768 2.392 . S
O779 C780 1.242 . S
C780 O778 1.258 . S
C780 O779 1.242 . S
O781 Eu768 2.418 . S
O781 C785 1.244 . S
O782 Eu769 2.488 . S
O782 C798 1.249 . S
O783 Eu769 2.471 . S
O783 C798 1.244 . S
O784 Eu769 2.349 . S
O784 C785 1.265 . S
C785 O781 1.244 . S
C785 O784 1.265 . S
O786 Eu768 2.373 . S
O786 C799 1.258 . S
O787 Eu769 2.392 . S
O787 C799 1.242 . S
O788 Eu769 2.418 . S
O788 C770 1.244 . S
O789 Eu768 2.488 . S
O789 C777 1.249 . S
O790 Eu768 2.471 . S
O790 C777 1.244 . S
O791 Eu768 2.349 . S
O791 C770 1.265 . S
C792 C793 1.379 . S
C792 C796 1.373 . S
C792 C798 1.505 . S
C793 C792 1.379 . S
C793 C795 1.369 . S
C793 H804 0.930 . S
C794 C796 1.383 . S
C794 C797 1.382 . S
C794 H805 0.930 . S
C795 C793 1.369 . S
C795 C797 1.392 . S
C795 H806 0.930 . S
C796 C792 1.373 . S
C796 C794 1.383 . S
C796 H807 0.931 . S
C797 C794 1.382 . S
C797 C795 1.392 . S
C798 Eu769 2.828 . S
C798 O782 1.249 . S
C798 O783 1.244 . S
C798 C792 1.505 . S
C799 O786 1.258 . S
C799 O787 1.242 . S
H800 C772 0.930 . S
H801 C773 0.930 . S
H802 C774 0.930 . S
H803 C775 0.931 . S
H804 C793 0.930 . S
H805 C794 0.930 . S
H806 C795 0.930 . S
H807 C796 0.931 . S
Eu808 C817 2.828 . S
Eu808 O819 2.392 . S
Eu808 O821 2.418 . S
Eu808 O826 2.373 . S
Eu808 O829 2.488 . S
Eu808 O830 2.471 . S
Eu808 O831 2.349 . S
Eu809 O818 2.373 . S
Eu809 O822 2.488 . S
Eu809 O823 2.471 . S
Eu809 O824 2.349 . S
Eu809 O827 2.392 . S
Eu809 O828 2.418 . S
Eu809 C838 2.828 . S
C810 O828 1.244 . S
C810 O831 1.265 . S
C811 C812 1.379 . S
C811 C815 1.373 . S
C811 C817 1.505 . S
C812 C811 1.379 . S
C812 C814 1.369 . S
C812 H840 0.930 . S
C813 C815 1.383 . S
C813 C816 1.382 . S
C813 H841 0.930 . S
C814 C812 1.369 . S
C814 C816 1.392 . S
C814 H842 0.930 . S
C815 C811 1.373 . S
C815 C813 1.383 . S
C815 H843 0.931 . S
C816 C813 1.382 . S
C816 C814 1.392 . S
C817 Eu808 2.828 . S
C817 C811 1.505 . S
C817 O829 1.249 . S
C817 O830 1.244 . S
O818 Eu809 2.373 . S
O818 C820 1.258 . S
O819 Eu808 2.392 . S
O819 C820 1.242 . S
C820 O818 1.258 . S
C820 O819 1.242 . S
O821 Eu808 2.418 . S
O821 C825 1.244 . S
O822 Eu809 2.488 . S
O822 C838 1.249 . S
O823 Eu809 2.471 . S
O823 C838 1.244 . S
O824 Eu809 2.349 . S
O824 C825 1.265 . S
C825 O821 1.244 . S
C825 O824 1.265 . S
O826 Eu808 2.373 . S
O826 C839 1.258 . S
O827 Eu809 2.392 . S
O827 C839 1.242 . S
O828 Eu809 2.418 . S
O828 C810 1.244 . S
O829 Eu808 2.488 . S
O829 C817 1.249 . S
O830 Eu808 2.471 . S
O830 C817 1.244 . S
O831 Eu808 2.349 . S
O831 C810 1.265 . S
C832 C833 1.379 . S
C832 C836 1.373 . S
C832 C838 1.505 . S
C833 C832 1.379 . S
C833 C835 1.369 . S
C833 H844 0.930 . S
C834 C836 1.383 . S
C834 C837 1.382 . S
C834 H845 0.930 . S
C835 C833 1.369 . S
C835 C837 1.392 . S
C835 H846 0.930 . S
C836 C832 1.373 . S
C836 C834 1.383 . S
C836 H847 0.931 . S
C837 C834 1.382 . S
C837 C835 1.392 . S
C838 Eu809 2.828 . S
C838 O822 1.249 . S
C838 O823 1.244 . S
C838 C832 1.505 . S
C839 O826 1.258 . S
C839 O827 1.242 . S
H840 C812 0.930 . S
H841 C813 0.930 . S
H842 C814 0.930 . S
H843 C815 0.931 . S
H844 C833 0.930 . S
H845 C834 0.930 . S
H846 C835 0.930 . S
H847 C836 0.931 . S
Eu848 C857 2.828 . S
Eu848 O859 2.392 . S
Eu848 O861 2.418 . S
Eu848 O866 2.373 . S
Eu848 O869 2.488 . S
Eu848 O870 2.471 . S
Eu848 O871 2.349 . S
Eu849 O858 2.373 . S
Eu849 O862 2.488 . S
Eu849 O863 2.471 . S
Eu849 O864 2.349 . S
Eu849 O867 2.392 . S
Eu849 O868 2.418 . S
Eu849 C878 2.828 . S
C850 O868 1.244 . S
C850 O871 1.265 . S
C851 C852 1.379 . S
C851 C855 1.373 . S
C851 C857 1.505 . S
C852 C851 1.379 . S
C852 C854 1.369 . S
C852 H880 0.930 . S
C853 C855 1.383 . S
C853 C856 1.382 . S
C853 H881 0.930 . S
C854 C852 1.369 . S
C854 C856 1.392 . S
C854 H882 0.930 . S
C855 C851 1.373 . S
C855 C853 1.383 . S
C855 H883 0.931 . S
C856 C853 1.382 . S
C856 C854 1.392 . S
C857 Eu848 2.828 . S
C857 C851 1.505 . S
C857 O869 1.249 . S
C857 O870 1.244 . S
O858 Eu849 2.373 . S
O858 C860 1.258 . S
O859 Eu848 2.392 . S
O859 C860 1.242 . S
C860 O858 1.258 . S
C860 O859 1.242 . S
O861 Eu848 2.418 . S
O861 C865 1.244 . S
O862 Eu849 2.488 . S
O862 C878 1.249 . S
O863 Eu849 2.471 . S
O863 C878 1.244 . S
O864 Eu849 2.349 . S
O864 C865 1.265 . S
C865 O861 1.244 . S
C865 O864 1.265 . S
O866 Eu848 2.373 . S
O866 C879 1.258 . S
O867 Eu849 2.392 . S
O867 C879 1.242 . S
O868 Eu849 2.418 . S
O868 C850 1.244 . S
O869 Eu848 2.488 . S
O869 C857 1.249 . S
O870 Eu848 2.471 . S
O870 C857 1.244 . S
O871 Eu848 2.349 . S
O871 C850 1.265 . S
C872 C873 1.379 . S
C872 C876 1.373 . S
C872 C878 1.505 . S
C873 C872 1.379 . S
C873 C875 1.369 . S
C873 H884 0.930 . S
C874 C876 1.383 . S
C874 C877 1.382 . S
C874 H885 0.930 . S
C875 C873 1.369 . S
C875 C877 1.392 . S
C875 H886 0.930 . S
C876 C872 1.373 . S
C876 C874 1.383 . S
C876 H887 0.931 . S
C877 C874 1.382 . S
C877 C875 1.392 . S
C878 Eu849 2.828 . S
C878 O862 1.249 . S
C878 O863 1.244 . S
C878 C872 1.505 . S
C879 O866 1.258 . S
C879 O867 1.242 . S
H880 C852 0.930 . S
H881 C853 0.930 . S
H882 C854 0.930 . S
H883 C855 0.931 . S
H884 C873 0.930 . S
H885 C874 0.930 . S
H886 C875 0.930 . S
H887 C876 0.931 . S
Eu888 C897 2.828 . S
Eu888 O899 2.392 . S
Eu888 O901 2.418 . S
Eu888 O906 2.373 . S
Eu888 O909 2.488 . S
Eu888 O910 2.471 . S
Eu888 O911 2.349 . S
Eu889 O898 2.373 . S
Eu889 O902 2.488 . S
Eu889 O903 2.471 . S
Eu889 O904 2.349 . S
Eu889 O907 2.392 . S
Eu889 O908 2.418 . S
Eu889 C918 2.828 . S
C890 O908 1.244 . S
C890 O911 1.265 . S
C891 C892 1.379 . S
C891 C895 1.373 . S
C891 C897 1.505 . S
C892 C891 1.379 . S
C892 C894 1.369 . S
C892 H920 0.930 . S
C893 C895 1.383 . S
C893 C896 1.382 . S
C893 H921 0.930 . S
C894 C892 1.369 . S
C894 C896 1.392 . S
C894 H922 0.930 . S
C895 C891 1.373 . S
C895 C893 1.383 . S
C895 H923 0.931 . S
C896 C893 1.382 . S
C896 C894 1.392 . S
C897 Eu888 2.828 . S
C897 C891 1.505 . S
C897 O909 1.249 . S
C897 O910 1.244 . S
O898 Eu889 2.373 . S
O898 C900 1.258 . S
O899 Eu888 2.392 . S
O899 C900 1.242 . S
C900 O898 1.258 . S
C900 O899 1.242 . S
O901 Eu888 2.418 . S
O901 C905 1.244 . S
O902 Eu889 2.488 . S
O902 C918 1.249 . S
O903 Eu889 2.471 . S
O903 C918 1.244 . S
O904 Eu889 2.349 . S
O904 C905 1.265 . S
C905 O901 1.244 . S
C905 O904 1.265 . S
O906 Eu888 2.373 . S
O906 C919 1.258 . S
O907 Eu889 2.392 . S
O907 C919 1.242 . S
O908 Eu889 2.418 . S
O908 C890 1.244 . S
O909 Eu888 2.488 . S
O909 C897 1.249 . S
O910 Eu888 2.471 . S
O910 C897 1.244 . S
O911 Eu888 2.349 . S
O911 C890 1.265 . S
C912 C913 1.379 . S
C912 C916 1.373 . S
C912 C918 1.505 . S
C913 C912 1.379 . S
C913 C915 1.369 . S
C913 H924 0.930 . S
C914 C916 1.383 . S
C914 C917 1.382 . S
C914 H925 0.930 . S
C915 C913 1.369 . S
C915 C917 1.392 . S
C915 H926 0.930 . S
C916 C912 1.373 . S
C916 C914 1.383 . S
C916 H927 0.931 . S
C917 C914 1.382 . S
C917 C915 1.392 . S
C918 Eu889 2.828 . S
C918 O902 1.249 . S
C918 O903 1.244 . S
C918 C912 1.505 . S
C919 O906 1.258 . S
C919 O907 1.242 . S
H920 C892 0.930 . S
H921 C893 0.930 . S
H922 C894 0.930 . S
H923 C895 0.931 . S
H924 C913 0.930 . S
H925 C914 0.930 . S
H926 C915 0.930 . S
H927 C916 0.931 . S
Eu928 C937 2.828 . S
Eu928 O939 2.392 . S
Eu928 O941 2.418 . S
Eu928 O946 2.373 . S
Eu928 O949 2.488 . S
Eu928 O950 2.471 . S
Eu928 O951 2.349 . S
Eu929 O938 2.373 . S
Eu929 O942 2.488 . S
Eu929 O943 2.471 . S
Eu929 O944 2.349 . S
Eu929 O947 2.392 . S
Eu929 O948 2.418 . S
Eu929 C958 2.828 . S
C930 O948 1.244 . S
C930 O951 1.265 . S
C931 C932 1.379 . S
C931 C935 1.373 . S
C931 C937 1.505 . S
C932 C931 1.379 . S
C932 C934 1.369 . S
C932 H960 0.930 . S
C933 C935 1.383 . S
C933 C936 1.382 . S
C933 H961 0.930 . S
C934 C932 1.369 . S
C934 C936 1.392 . S
C934 H962 0.930 . S
C935 C931 1.373 . S
C935 C933 1.383 . S
C935 H963 0.931 . S
C936 C933 1.382 . S
C936 C934 1.392 . S
C937 Eu928 2.828 . S
C937 C931 1.505 . S
C937 O949 1.249 . S
C937 O950 1.244 . S
O938 Eu929 2.373 . S
O938 C940 1.258 . S
O939 Eu928 2.392 . S
O939 C940 1.242 . S
C940 O938 1.258 . S
C940 O939 1.242 . S
O941 Eu928 2.418 . S
O941 C945 1.244 . S
O942 Eu929 2.488 . S
O942 C958 1.249 . S
O943 Eu929 2.471 . S
O943 C958 1.244 . S
O944 Eu929 2.349 . S
O944 C945 1.265 . S
C945 O941 1.244 . S
C945 O944 1.265 . S
O946 Eu928 2.373 . S
O946 C959 1.258 . S
O947 Eu929 2.392 . S
O947 C959 1.242 . S
O948 Eu929 2.418 . S
O948 C930 1.244 . S
O949 Eu928 2.488 . S
O949 C937 1.249 . S
O950 Eu928 2.471 . S
O950 C937 1.244 . S
O951 Eu928 2.349 . S
O951 C930 1.265 . S
C952 C953 1.379 . S
C952 C956 1.373 . S
C952 C958 1.505 . S
C953 C952 1.379 . S
C953 C955 1.369 . S
C953 H964 0.930 . S
C954 C956 1.383 . S
C954 C957 1.382 . S
C954 H965 0.930 . S
C955 C953 1.369 . S
C955 C957 1.392 . S
C955 H966 0.930 . S
C956 C952 1.373 . S
C956 C954 1.383 . S
C956 H967 0.931 . S
C957 C954 1.382 . S
C957 C955 1.392 . S
C958 Eu929 2.828 . S
C958 O942 1.249 . S
C958 O943 1.244 . S
C958 C952 1.505 . S
C959 O946 1.258 . S
C959 O947 1.242 . S
H960 C932 0.930 . S
H961 C933 0.930 . S
H962 C934 0.930 . S
H963 C935 0.931 . S
H964 C953 0.930 . S
H965 C954 0.930 . S
H966 C955 0.930 . S
H967 C956 0.931 . S
Eu968 C977 2.828 . S
Eu968 O979 2.392 . S
Eu968 O981 2.418 . S
Eu968 O986 2.373 . S
Eu968 O989 2.488 . S
Eu968 O990 2.471 . S
Eu968 O991 2.349 . S
Eu969 O978 2.373 . S
Eu969 O982 2.488 . S
Eu969 O983 2.471 . S
Eu969 O984 2.349 . S
Eu969 O987 2.392 . S
Eu969 O988 2.418 . S
Eu969 C998 2.828 . S
C970 O988 1.244 . S
C970 O991 1.265 . S
C971 C972 1.379 . S
C971 C975 1.373 . S
C971 C977 1.505 . S
C972 C971 1.379 . S
C972 C974 1.369 . S
C972 H1000 0.930 . S
C973 C975 1.383 . S
C973 C976 1.382 . S
C973 H1001 0.930 . S
C974 C972 1.369 . S
C974 C976 1.392 . S
C974 H1002 0.930 . S
C975 C971 1.373 . S
C975 C973 1.383 . S
C975 H1003 0.931 . S
C976 C973 1.382 . S
C976 C974 1.392 . S
C977 Eu968 2.828 . S
C977 C971 1.505 . S
C977 O989 1.249 . S
C977 O990 1.244 . S
O978 Eu969 2.373 . S
O978 C980 1.258 . S
O979 Eu968 2.392 . S
O979 C980 1.242 . S
C980 O978 1.258 . S
C980 O979 1.242 . S
O981 Eu968 2.418 . S
O981 C985 1.244 . S
O982 Eu969 2.488 . S
O982 C998 1.249 . S
O983 Eu969 2.471 . S
O983 C998 1.244 . S
O984 Eu969 2.349 . S
O984 C985 1.265 . S
C985 O981 1.244 . S
C985 O984 1.265 . S
O986 Eu968 2.373 . S
O986 C999 1.258 . S
O987 Eu969 2.392 . S
O987 C999 1.242 . S
O988 Eu969 2.418 . S
O988 C970 1.244 . S
O989 Eu968 2.488 . S
O989 C977 1.249 . S
O990 Eu968 2.471 . S
O990 C977 1.244 . S
O991 Eu968 2.349 . S
O991 C970 1.265 . S
C992 C993 1.379 . S
C992 C996 1.373 . S
C992 C998 1.505 . S
C993 C992 1.379 . S
C993 C995 1.369 . S
C993 H1004 0.930 . S
C994 C996 1.383 . S
C994 C997 1.382 . S
C994 H1005 0.930 . S
C995 C993 1.369 . S
C995 C997 1.392 . S
C995 H1006 0.930 . S
C996 C992 1.373 . S
C996 C994 1.383 . S
C996 H1007 0.931 . S
C997 C994 1.382 . S
C997 C995 1.392 . S
C998 Eu969 2.828 . S
C998 O982 1.249 . S
C998 O983 1.244 . S
C998 C992 1.505 . S
C999 O986 1.258 . S
C999 O987 1.242 . S
H1000 C972 0.930 . S
H1001 C973 0.930 . S
H1002 C974 0.930 . S
H1003 C975 0.931 . S
H1004 C993 0.930 . S
H1005 C994 0.930 . S
H1006 C995 0.930 . S
H1007 C996 0.931 . S
H1008 C1026 0.951 . S
H1009 C1028 0.951 . S
H1010 C1030 0.950 . S
H1011 C1031 0.950 . S
H1012 C1033 0.950 . S
H1013 C1036 0.950 . S
H1014 C1037 0.950 . S
H1015 C1039 0.950 . S
H1016 C1040 0.950 . S
H1017 C1041 0.951 . S
H1018 C1043 0.951 . S
H1019 C1045 0.950 . S
H1020 C1046 0.950 . S
H1021 C1048 0.950 . S
H1022 C1051 0.950 1_554 S
H1023 C1052 0.950 . S
H1024 C1054 0.950 . S
H1025 C1055 0.950 . S
C1026 H1008 0.951 . S
C1026 C1027 1.366 . S
C1026 C1028 1.388 . S
C1027 C1026 1.366 . S
C1027 C1031 1.385 . S
C1028 H1009 0.951 . S
C1028 C1026 1.388 . S
C1028 C1029 1.366 . S
C1029 C1028 1.366 . S
C1029 C1030 1.414 . S
C1029 C1032 1.499 . S
C1030 H1010 0.950 . S
C1030 C1029 1.414 . S
C1030 C1031 1.374 . S
C1031 H1011 0.950 . S
C1031 C1027 1.385 . S
C1031 C1030 1.374 . S
C1032 C1029 1.499 . S
C1032 C1033 1.373 . S
C1032 C1034 1.389 . S
C1033 H1012 0.950 . S
C1033 C1032 1.373 . S
C1033 C1049 1.377 . S
C1034 C1032 1.389 . S
C1034 C1035 1.524 . S
C1034 C1048 1.377 . S
C1035 C1034 1.524 . S
C1035 C1036 1.397 . S
C1035 C1040 1.363 . S
C1036 H1013 0.950 . S
C1036 C1035 1.397 . S
C1036 C1037 1.334 . S
C1037 H1014 0.950 . S
C1037 C1036 1.334 . S
C1037 C1038 1.287 . S
C1038 C1037 1.287 . S
C1038 C1039 1.524 . S
C1038 H1057 0.913 . S
C1039 H1015 0.950 . S
C1039 C1038 1.524 . S
C1039 C1040 1.415 . S
C1040 H1016 0.950 . S
C1040 C1035 1.363 . S
C1040 C1039 1.415 . S
C1041 H1017 0.951 . S
C1041 C1042 1.366 . S
C1041 C1043 1.388 . S
C1042 C1041 1.366 . S
C1042 C1046 1.385 . S
C1043 H1018 0.951 . S
C1043 C1041 1.388 . S
C1043 C1044 1.366 . S
C1044 C1043 1.366 . S
C1044 C1045 1.414 . S
C1044 C1047 1.499 . S
C1045 H1019 0.950 . S
C1045 C1044 1.414 . S
C1045 C1046 1.374 . S
C1046 H1020 0.950 . S
C1046 C1042 1.385 . S
C1046 C1045 1.374 . S
C1047 C1044 1.499 . S
C1047 C1048 1.373 . S
C1047 C1049 1.389 . S
C1048 H1021 0.950 . S
C1048 C1034 1.377 . S
C1048 C1047 1.373 . S
C1049 C1033 1.377 . S
C1049 C1047 1.389 . S
C1049 C1050 1.524 . S
C1050 C1049 1.524 . S
C1050 C1051 1.397 1_554 S
C1050 C1055 1.363 . S
C1051 H1022 0.950 1_556 S
C1051 C1050 1.397 1_556 S
C1051 C1052 1.334 . S
C1052 H1023 0.950 . S
C1052 C1051 1.334 . S
C1052 C1053 1.287 . S
C1053 C1052 1.287 . S
C1053 C1054 1.524 . S
C1053 H1056 0.999 . S
C1054 H1024 0.950 . S
C1054 C1053 1.524 . S
C1054 C1055 1.415 1_556 S
C1055 H1025 0.950 . S
C1055 C1050 1.363 . S
C1055 C1054 1.415 1_554 S
H1056 C1053 0.999 . S
H1057 C1038 0.913 . S
H1058 C1076 0.951 . S
H1059 C1078 0.951 . S
H1060 C1080 0.950 . S
H1061 C1081 0.950 . S
H1062 C1083 0.950 . S
H1063 C1086 0.950 . S
H1064 C1087 0.950 . S
H1065 C1089 0.950 . S
H1066 C1090 0.950 . S
H1067 C1091 0.951 . S
H1068 C1093 0.951 . S
H1069 C1095 0.950 . S
H1070 C1096 0.950 . S
H1071 C1098 0.950 . S
H1072 C1101 0.950 . S
H1073 C1102 0.950 . S
H1074 C1104 0.950 . S
H1075 C1105 0.950 . S
C1076 H1058 0.951 . S
C1076 C1077 1.366 . S
C1076 C1078 1.388 . S
C1077 C1076 1.366 . S
C1077 C1081 1.385 . S
C1078 H1059 0.951 . S
C1078 C1076 1.388 . S
C1078 C1079 1.366 . S
C1079 C1078 1.366 . S
C1079 C1080 1.414 . S
C1079 C1082 1.499 . S
C1080 H1060 0.950 . S
C1080 C1079 1.414 . S
C1080 C1081 1.374 . S
C1081 H1061 0.950 . S
C1081 C1077 1.385 . S
C1081 C1080 1.374 . S
C1082 C1079 1.499 . S
C1082 C1083 1.373 . S
C1082 C1084 1.389 . S
C1083 H1062 0.950 . S
C1083 C1082 1.373 . S
C1083 C1099 1.377 . S
C1084 C1082 1.389 . S
C1084 C1085 1.524 . S
C1084 C1098 1.377 . S
C1085 C1084 1.524 . S
C1085 C1086 1.397 . S
C1085 C1090 1.363 . S
C1086 H1063 0.950 . S
C1086 C1085 1.397 . S
C1086 C1087 1.334 . S
C1087 H1064 0.950 . S
C1087 C1086 1.334 . S
C1087 C1088 1.287 . S
C1088 C1087 1.287 . S
C1088 C1089 1.524 . S
C1088 H1107 0.913 . S
C1089 H1065 0.950 . S
C1089 C1088 1.524 . S
C1089 C1090 1.415 . S
C1090 H1066 0.950 . S
C1090 C1085 1.363 . S
C1090 C1089 1.415 . S
C1091 H1067 0.951 . S
C1091 C1092 1.366 . S
C1091 C1093 1.388 . S
C1092 C1091 1.366 . S
C1092 C1096 1.385 . S
C1093 H1068 0.951 . S
C1093 C1091 1.388 . S
C1093 C1094 1.366 . S
C1094 C1093 1.366 . S
C1094 C1095 1.414 . S
C1094 C1097 1.499 . S
C1095 H1069 0.950 . S
C1095 C1094 1.414 . S
C1095 C1096 1.374 . S
C1096 H1070 0.950 . S
C1096 C1092 1.385 . S
C1096 C1095 1.374 . S
C1097 C1094 1.499 . S
C1097 C1098 1.373 . S
C1097 C1099 1.389 . S
C1098 H1071 0.950 . S
C1098 C1084 1.377 . S
C1098 C1097 1.373 . S
C1099 C1083 1.377 . S
C1099 C1097 1.389 . S
C1099 C1100 1.524 . S
C1100 C1099 1.524 . S
C1100 C1101 1.397 . S
C1100 C1105 1.363 . S
C1101 H1072 0.950 . S
C1101 C1100 1.397 . S
C1101 C1102 1.334 . S
C1102 H1073 0.950 . S
C1102 C1101 1.334 . S
C1102 C1103 1.287 . S
C1103 C1102 1.287 . S
C1103 C1104 1.524 . S
C1103 H1106 0.999 . S
C1104 H1074 0.950 . S
C1104 C1103 1.524 . S
C1104 C1105 1.415 . S
C1105 H1075 0.950 . S
C1105 C1100 1.363 . S
C1105 C1104 1.415 . S
H1106 C1103 0.999 . S
H1107 C1088 0.913 . S
H1108 C1126 0.951 . S
H1109 C1128 0.951 . S
H1110 C1130 0.950 . S
H1111 C1131 0.950 . S
H1112 C1133 0.950 . S
H1113 C1136 0.950 . S
H1114 C1137 0.950 . S
H1115 C1139 0.950 . S
H1116 C1140 0.950 . S
H1117 C1141 0.951 . S
H1118 C1143 0.951 . S
H1119 C1145 0.885 1_556 S
H1120 C1146 0.950 1_556 S
H1121 C1148 0.950 . S
H1122 C1151 0.950 . S
H1123 C1152 0.950 . S
H1124 C1154 0.950 . S
H1125 C1155 0.950 . S
C1126 H1108 0.951 . S
C1126 C1127 1.366 . S
C1126 C1128 1.388 . S
C1127 C1126 1.366 . S
C1127 C1131 1.385 . S
C1128 H1109 0.951 . S
C1128 C1126 1.388 . S
C1128 C1129 1.366 . S
C1129 C1128 1.366 . S
C1129 C1130 1.414 . S
C1129 C1132 1.499 . S
C1130 H1110 0.950 . S
C1130 C1129 1.414 . S
C1130 C1131 1.374 . S
C1131 H1111 0.950 . S
C1131 C1127 1.385 . S
C1131 C1130 1.374 . S
C1132 C1129 1.499 . S
C1132 C1133 1.373 . S
C1132 C1134 1.389 . S
C1133 H1112 0.950 . S
C1133 C1132 1.373 . S
C1133 C1149 1.377 . S
C1134 C1132 1.389 . S
C1134 C1135 1.524 . S
C1134 C1148 1.377 . S
C1135 C1134 1.524 . S
C1135 C1136 1.397 . S
C1135 C1140 1.363 1_554 S
C1136 H1113 0.950 . S
C1136 C1135 1.397 . S
C1136 C1137 1.334 . S
C1137 H1114 0.950 . S
C1137 C1136 1.334 . S
C1137 C1138 1.287 1_554 S
C1138 C1137 1.287 1_556 S
C1138 C1139 1.524 . S
C1138 H1157 0.913 . S
C1139 H1115 0.950 . S
C1139 C1138 1.524 . S
C1139 C1140 1.415 . S
C1140 H1116 0.950 . S
C1140 C1135 1.363 1_556 S
C1140 C1139 1.415 . S
C1141 H1117 0.951 . S
C1141 C1142 1.366 . S
C1141 C1143 1.388 . S
C1142 C1141 1.366 . S
C1142 C1146 1.385 . S
C1143 H1118 0.951 . S
C1143 C1141 1.388 . S
C1143 C1144 1.366 . S
C1144 C1143 1.366 . S
C1144 C1145 1.414 . S
C1144 C1147 1.499 . S
C1145 H1119 0.885 1_554 S
C1145 C1144 1.414 . S
C1145 C1146 1.374 . S
C1146 H1120 0.950 1_554 S
C1146 C1142 1.385 . S
C1146 C1145 1.374 . S
C1147 C1144 1.499 . S
C1147 C1148 1.373 . S
C1147 C1149 1.389 . S
C1148 H1121 0.950 . S
C1148 C1134 1.377 . S
C1148 C1147 1.373 . S
C1149 C1133 1.377 . S
C1149 C1147 1.389 . S
C1149 C1150 1.524 . S
C1150 C1149 1.524 . S
C1150 C1151 1.397 . S
C1150 C1155 1.363 . S
C1151 H1122 0.950 . S
C1151 C1150 1.397 . S
C1151 C1152 1.334 . S
C1152 H1123 0.950 . S
C1152 C1151 1.334 . S
C1152 C1153 1.287 . S
C1153 C1152 1.287 . S
C1153 C1154 1.524 . S
C1153 H1156 0.999 . S
C1154 H1124 0.950 . S
C1154 C1153 1.524 . S
C1154 C1155 1.415 . S
C1155 H1125 0.950 . S
C1155 C1150 1.363 . S
C1155 C1154 1.415 . S
H1156 C1153 0.999 . S
H1157 C1138 0.913 . S
H1158 C1176 0.951 . S
H1159 C1178 0.951 . S
H1160 C1180 0.950 . S
H1161 C1181 0.950 . S
H1162 C1183 0.950 . S
H1163 C1186 0.950 . S
H1164 C1187 0.950 . S
H1165 C1189 0.950 . S
H1166 C1190 0.950 . S
H1167 C1191 0.951 . S
H1168 C1193 0.951 . S
H1169 C1195 0.950 . S
H1170 C1196 0.950 . S
H1171 C1198 0.950 . S
H1172 C1201 0.950 . S
H1173 C1202 0.950 . S
H1174 C1204 0.950 . S
H1175 C1205 0.950 . S
C1176 H1158 0.951 . S
C1176 C1177 1.366 . S
C1176 C1178 1.388 . S
C1177 C1176 1.366 . S
C1177 C1181 1.385 . S
C1178 H1159 0.951 . S
C1178 C1176 1.388 . S
C1178 C1179 1.366 . S
C1179 C1178 1.366 . S
C1179 C1180 1.414 . S
C1179 C1182 1.499 . S
C1180 H1160 0.950 . S
C1180 C1179 1.414 . S
C1180 C1181 1.374 . S
C1181 H1161 0.950 . S
C1181 C1177 1.385 . S
C1181 C1180 1.374 . S
C1182 C1179 1.499 . S
C1182 C1183 1.373 . S
C1182 C1184 1.389 . S
C1183 H1162 0.950 . S
C1183 C1182 1.373 . S
C1183 C1199 1.377 . S
C1184 C1182 1.389 . S
C1184 C1185 1.524 . S
C1184 C1198 1.377 . S
C1185 C1184 1.524 . S
C1185 C1186 1.397 . S
C1185 C1190 1.363 . S
C1186 H1163 0.950 . S
C1186 C1185 1.397 . S
C1186 C1187 1.334 . S
C1187 H1164 0.950 . S
C1187 C1186 1.334 . S
C1187 C1188 1.287 . S
C1188 C1187 1.287 . S
C1188 C1189 1.524 . S
C1188 H1207 0.913 . S
C1189 H1165 0.950 . S
C1189 C1188 1.524 . S
C1189 C1190 1.415 . S
C1190 H1166 0.950 . S
C1190 C1185 1.363 . S
C1190 C1189 1.415 . S
C1191 H1167 0.951 . S
C1191 C1192 1.366 . S
C1191 C1193 1.388 . S
C1192 C1191 1.366 . S
C1192 C1196 1.385 . S
C1193 H1168 0.951 . S
C1193 C1191 1.388 . S
C1193 C1194 1.366 . S
C1194 C1193 1.366 . S
C1194 C1195 1.414 . S
C1194 C1197 1.499 . S
C1195 H1169 0.950 . S
C1195 C1194 1.414 . S
C1195 C1196 1.374 . S
C1196 H1170 0.950 . S
C1196 C1192 1.385 . S
C1196 C1195 1.374 . S
C1197 C1194 1.499 . S
C1197 C1198 1.373 . S
C1197 C1199 1.389 . S
C1198 H1171 0.950 . S
C1198 C1184 1.377 . S
C1198 C1197 1.373 . S
C1199 C1183 1.377 . S
C1199 C1197 1.389 . S
C1199 C1200 1.524 . S
C1200 C1199 1.524 . S
C1200 C1201 1.397 1_556 S
C1200 C1205 1.363 . S
C1201 H1172 0.950 . S
C1201 C1200 1.397 1_554 S
C1201 C1202 1.334 . S
C1202 H1173 0.950 . S
C1202 C1201 1.334 . S
C1202 C1203 1.287 . S
C1203 C1202 1.287 . S
C1203 C1204 1.524 1_554 S
C1203 H1206 0.999 . S
C1204 H1174 0.950 . S
C1204 C1203 1.524 1_556 S
C1204 C1205 1.415 . S
C1205 H1175 0.950 . S
C1205 C1200 1.363 . S
C1205 C1204 1.415 . S
H1206 C1203 0.999 . S
H1207 C1188 0.913 . S
H1208 C1226 0.951 . S
H1209 C1228 0.951 . S
H1210 C1230 0.950 . S
H1211 C1231 0.950 . S
H1212 C1233 0.950 . S
H1213 C1236 0.950 . S
H1214 C1237 0.950 . S
H1215 C1239 0.950 . S
H1216 C1240 0.950 . S
H1217 C1241 0.895 1_554 S
H1218 C1243 0.951 . S
H1219 C1245 0.950 . S
H1220 C1246 0.950 . S
H1221 C1248 0.950 . S
H1222 C1251 0.950 . S
H1223 C1252 0.950 . S
H1224 C1254 0.950 . S
H1225 C1255 0.950 . S
C1226 H1208 0.951 . S
C1226 C1227 1.366 . S
C1226 C1228 1.388 . S
C1227 C1226 1.366 . S
C1227 C1231 1.385 . S
C1228 H1209 0.951 . S
C1228 C1226 1.388 . S
C1228 C1229 1.366 . S
C1229 C1228 1.366 . S
C1229 C1230 1.414 . S
C1229 C1232 1.499 . S
C1230 H1210 0.950 . S
C1230 C1229 1.414 . S
C1230 C1231 1.374 . S
C1231 H1211 0.950 . S
C1231 C1227 1.385 . S
C1231 C1230 1.374 . S
C1232 C1229 1.499 . S
C1232 C1233 1.373 . S
C1232 C1234 1.389 . S
C1233 H1212 0.950 . S
C1233 C1232 1.373 . S
C1233 C1249 1.377 . S
C1234 C1232 1.389 . S
C1234 C1235 1.524 . S
C1234 C1248 1.377 . S
C1235 C1234 1.524 . S
C1235 C1236 1.397 . S
C1235 C1240 1.363 . S
C1236 H1213 0.950 . S
C1236 C1235 1.397 . S
C1236 C1237 1.334 . S
C1237 H1214 0.950 . S
C1237 C1236 1.334 . S
C1237 C1238 1.287 . S
C1238 C1237 1.287 . S
C1238 C1239 1.524 . S
C1238 H1257 0.913 . S
C1239 H1215 0.950 . S
C1239 C1238 1.524 . S
C1239 C1240 1.415 . S
C1240 H1216 0.950 . S
C1240 C1235 1.363 . S
C1240 C1239 1.415 . S
C1241 H1217 0.895 1_556 S
C1241 C1242 1.366 . S
C1241 C1243 1.388 . S
C1242 C1241 1.366 . S
C1242 C1246 1.385 . S
C1243 H1218 0.951 . S
C1243 C1241 1.388 . S
C1243 C1244 1.366 . S
C1244 C1243 1.366 . S
C1244 C1245 1.414 . S
C1244 C1247 1.499 . S
C1245 H1219 0.950 . S
C1245 C1244 1.414 . S
C1245 C1246 1.374 . S
C1246 H1220 0.950 . S
C1246 C1242 1.385 . S
C1246 C1245 1.374 . S
C1247 C1244 1.499 . S
C1247 C1248 1.373 . S
C1247 C1249 1.389 . S
C1248 H1221 0.950 . S
C1248 C1234 1.377 . S
C1248 C1247 1.373 . S
C1249 C1233 1.377 . S
C1249 C1247 1.389 . S
C1249 C1250 1.524 . S
C1250 C1249 1.524 . S
C1250 C1251 1.397 . S
C1250 C1255 1.363 . S
C1251 H1222 0.950 . S
C1251 C1250 1.397 . S
C1251 C1252 1.334 . S
C1252 H1223 0.950 . S
C1252 C1251 1.334 . S
C1252 C1253 1.287 . S
C1253 C1252 1.287 . S
C1253 C1254 1.524 . S
C1253 H1256 0.999 . S
C1254 H1224 0.950 . S
C1254 C1253 1.524 . S
C1254 C1255 1.415 . S
C1255 H1225 0.950 . S
C1255 C1250 1.363 . S
C1255 C1254 1.415 . S
H1256 C1253 0.999 . S
H1257 C1238 0.913 . S
H1258 C1276 0.951 . S
H1259 C1278 0.951 . S
H1260 C1280 0.950 . S
H1261 C1281 0.950 . S
H1262 C1283 0.950 . S
H1263 C1286 0.950 . S
H1264 C1287 0.950 . S
H1265 C1289 0.950 . S
H1266 C1290 0.950 . S
H1267 C1291 0.951 . S
H1268 C1293 0.951 . S
H1269 C1295 0.950 . S
H1270 C1296 0.950 . S
H1271 C1298 0.950 . S
H1272 C1301 0.950 . S
H1273 C1302 0.950 . S
H1274 C1304 0.950 . S
H1275 C1305 0.950 1_556 S
C1276 H1258 0.951 . S
C1276 C1277 1.366 . S
C1276 C1278 1.388 . S
C1277 C1276 1.366 . S
C1277 C1281 1.385 . S
C1278 H1259 0.951 . S
C1278 C1276 1.388 . S
C1278 C1279 1.366 . S
C1279 C1278 1.366 . S
C1279 C1280 1.414 . S
C1279 C1282 1.499 . S
C1280 H1260 0.950 . S
C1280 C1279 1.414 . S
C1280 C1281 1.374 . S
C1281 H1261 0.950 . S
C1281 C1277 1.385 . S
C1281 C1280 1.374 . S
C1282 C1279 1.499 . S
C1282 C1283 1.373 . S
C1282 C1284 1.389 . S
C1283 H1262 0.950 . S
C1283 C1282 1.373 . S
C1283 C1299 1.377 . S
C1284 C1282 1.389 . S
C1284 C1285 1.524 . S
C1284 C1298 1.377 . S
C1285 C1284 1.524 . S
C1285 C1286 1.397 . S
C1285 C1290 1.363 . S
C1286 H1263 0.950 . S
C1286 C1285 1.397 . S
C1286 C1287 1.334 . S
C1287 H1264 0.950 . S
C1287 C1286 1.334 . S
C1287 C1288 1.287 . S
C1288 C1287 1.287 . S
C1288 C1289 1.524 . S
C1288 H1307 0.913 . S
C1289 H1265 0.950 . S
C1289 C1288 1.524 . S
C1289 C1290 1.415 . S
C1290 H1266 0.950 . S
C1290 C1285 1.363 . S
C1290 C1289 1.415 . S
C1291 H1267 0.951 . S
C1291 C1292 1.366 . S
C1291 C1293 1.388 . S
C1292 C1291 1.366 . S
C1292 C1296 1.385 . S
C1293 H1268 0.951 . S
C1293 C1291 1.388 . S
C1293 C1294 1.366 . S
C1294 C1293 1.366 . S
C1294 C1295 1.414 . S
C1294 C1297 1.499 . S
C1295 H1269 0.950 . S
C1295 C1294 1.414 . S
C1295 C1296 1.374 . S
C1296 H1270 0.950 . S
C1296 C1292 1.385 . S
C1296 C1295 1.374 . S
C1297 C1294 1.499 . S
C1297 C1298 1.373 . S
C1297 C1299 1.389 . S
C1298 H1271 0.950 . S
C1298 C1284 1.377 . S
C1298 C1297 1.373 . S
C1299 C1283 1.377 . S
C1299 C1297 1.389 . S
C1299 C1300 1.524 1_556 S
C1300 C1299 1.524 1_554 S
C1300 C1301 1.397 . S
C1300 C1305 1.363 . S
C1301 H1272 0.950 . S
C1301 C1300 1.397 . S
C1301 C1302 1.334 . S
C1302 H1273 0.950 . S
C1302 C1301 1.334 . S
C1302 C1303 1.287 . S
C1303 C1302 1.287 . S
C1303 C1304 1.524 . S
C1303 H1306 0.999 . S
C1304 H1274 0.950 . S
C1304 C1303 1.524 . S
C1304 C1305 1.415 . S
C1305 H1275 0.950 1_554 S
C1305 C1300 1.363 . S
C1305 C1304 1.415 . S
H1306 C1303 0.999 . S
H1307 C1288 0.913 . S
H1308 C1326 0.951 . S
H1309 C1328 0.951 . S
H1310 C1330 0.950 . S
H1311 C1331 0.950 . S
H1312 C1333 0.950 . S
H1313 C1336 0.950 . S
H1314 C1337 0.950 . S
H1315 C1339 0.950 . S
H1316 C1340 0.950 . S
H1317 C1341 0.951 . S
H1318 C1343 0.951 . S
H1319 C1345 0.950 . S
H1320 C1346 0.950 . S
H1321 C1348 0.950 . S
H1322 C1351 0.950 . S
H1323 C1352 0.950 . S
H1324 C1354 0.899 1_565 S
H1325 C1355 0.950 . S
C1326 H1308 0.951 . S
C1326 C1327 1.366 . S
C1326 C1328 1.388 . S
C1327 C1326 1.366 . S
C1327 C1331 1.385 . S
C1328 H1309 0.951 . S
C1328 C1326 1.388 . S
C1328 C1329 1.366 . S
C1329 C1328 1.366 . S
C1329 C1330 1.414 . S
C1329 C1332 1.499 . S
C1330 H1310 0.950 . S
C1330 C1329 1.414 . S
C1330 C1331 1.374 . S
C1331 H1311 0.950 . S
C1331 C1327 1.385 . S
C1331 C1330 1.374 . S
C1332 C1329 1.499 . S
C1332 C1333 1.373 . S
C1332 C1334 1.389 . S
C1333 H1312 0.950 . S
C1333 C1332 1.373 . S
C1333 C1349 1.377 . S
C1334 C1332 1.389 . S
C1334 C1335 1.524 . S
C1334 C1348 1.377 . S
C1335 C1334 1.524 . S
C1335 C1336 1.397 . S
C1335 C1340 1.363 . S
C1336 H1313 0.950 . S
C1336 C1335 1.397 . S
C1336 C1337 1.334 . S
C1337 H1314 0.950 . S
C1337 C1336 1.334 . S
C1337 C1338 1.287 . S
C1338 C1337 1.287 . S
C1338 C1339 1.524 . S
C1338 H1357 0.913 . S
C1339 H1315 0.950 . S
C1339 C1338 1.524 . S
C1339 C1340 1.415 . S
C1340 H1316 0.950 . S
C1340 C1335 1.363 . S
C1340 C1339 1.415 . S
C1341 H1317 0.951 . S
C1341 C1342 1.366 . S
C1341 C1343 1.388 . S
C1342 C1341 1.366 . S
C1342 C1346 1.385 . S
C1343 H1318 0.951 . S
C1343 C1341 1.388 . S
C1343 C1344 1.366 . S
C1344 C1343 1.366 . S
C1344 C1345 1.414 . S
C1344 C1347 1.499 . S
C1345 H1319 0.950 . S
C1345 C1344 1.414 . S
C1345 C1346 1.374 . S
C1346 H1320 0.950 . S
C1346 C1342 1.385 . S
C1346 C1345 1.374 . S
C1347 C1344 1.499 . S
C1347 C1348 1.373 . S
C1347 C1349 1.389 . S
C1348 H1321 0.950 . S
C1348 C1334 1.377 . S
C1348 C1347 1.373 . S
C1349 C1333 1.377 . S
C1349 C1347 1.389 . S
C1349 C1350 1.524 . S
C1350 C1349 1.524 . S
C1350 C1351 1.397 . S
C1350 C1355 1.363 . S
C1351 H1322 0.950 . S
C1351 C1350 1.397 . S
C1351 C1352 1.334 . S
C1352 H1323 0.950 . S
C1352 C1351 1.334 . S
C1352 C1353 1.287 1_545 S
C1353 C1352 1.287 1_565 S
C1353 C1354 1.541 1_565 S
C1353 H1356 0.999 . S
C1354 H1324 0.899 1_545 S
C1354 C1353 1.541 1_545 S
C1354 C1355 1.456 . S
C1355 H1325 0.950 . S
C1355 C1350 1.363 . S
C1355 C1354 1.456 . S
H1356 C1353 0.999 . S
H1357 C1338 0.913 . S
H1358 C1376 0.951 . S
H1359 C1378 0.951 . S
H1360 C1380 0.950 . S
H1361 C1381 0.950 . S
H1362 C1383 0.950 . S
H1363 C1386 0.950 . S
H1364 C1387 0.950 . S
H1365 C1389 0.950 . S
H1366 C1390 0.950 . S
H1367 C1391 0.951 . S
H1368 C1393 0.951 . S
H1369 C1395 0.950 . S
H1370 C1396 0.950 . S
H1371 C1398 0.950 . S
H1372 C1401 0.950 . S
H1373 C1402 0.950 . S
H1374 C1404 0.950 . S
H1375 C1405 0.950 . S
C1376 H1358 0.951 . S
C1376 C1377 1.366 . S
C1376 C1378 1.388 . S
C1377 C1376 1.366 . S
C1377 C1381 1.385 . S
C1378 H1359 0.951 . S
C1378 C1376 1.388 . S
C1378 C1379 1.366 . S
C1379 C1378 1.366 . S
C1379 C1380 1.414 . S
C1379 C1382 1.499 . S
C1380 H1360 0.950 . S
C1380 C1379 1.414 . S
C1380 C1381 1.374 . S
C1381 H1361 0.950 . S
C1381 C1377 1.385 . S
C1381 C1380 1.374 . S
C1382 C1379 1.499 . S
C1382 C1383 1.373 . S
C1382 C1384 1.389 . S
C1383 H1362 0.950 . S
C1383 C1382 1.373 . S
C1383 C1399 1.377 . S
C1384 C1382 1.389 . S
C1384 C1385 1.524 . S
C1384 C1398 1.377 . S
C1385 C1384 1.524 . S
C1385 C1386 1.397 . S
C1385 C1390 1.363 . S
C1386 H1363 0.950 . S
C1386 C1385 1.397 . S
C1386 C1387 1.334 . S
C1387 H1364 0.950 . S
C1387 C1386 1.334 . S
C1387 C1388 1.287 . S
C1388 C1387 1.287 . S
C1388 C1389 1.524 . S
C1388 H1407 0.913 . S
C1389 H1365 0.950 . S
C1389 C1388 1.524 . S
C1389 C1390 1.415 . S
C1390 H1366 0.950 . S
C1390 C1385 1.363 . S
C1390 C1389 1.415 . S
C1391 H1367 0.951 . S
C1391 C1392 1.366 . S
C1391 C1393 1.388 . S
C1392 C1391 1.366 . S
C1392 C1396 1.385 . S
C1393 H1368 0.951 . S
C1393 C1391 1.388 . S
C1393 C1394 1.366 . S
C1394 C1393 1.366 . S
C1394 C1395 1.414 . S
C1394 C1397 1.499 . S
C1395 H1369 0.950 . S
C1395 C1394 1.414 . S
C1395 C1396 1.374 . S
C1396 H1370 0.950 . S
C1396 C1392 1.385 . S
C1396 C1395 1.374 . S
C1397 C1394 1.499 . S
C1397 C1398 1.373 . S
C1397 C1399 1.389 . S
C1398 H1371 0.950 . S
C1398 C1384 1.377 . S
C1398 C1397 1.373 . S
C1399 C1383 1.377 . S
C1399 C1397 1.389 . S
C1399 C1400 1.524 . S
C1400 C1399 1.524 . S
C1400 C1401 1.397 . S
C1400 C1405 1.363 . S
C1401 H1372 0.950 . S
C1401 C1400 1.397 . S
C1401 C1402 1.334 . S
C1402 H1373 0.950 . S
C1402 C1401 1.334 . S
C1402 C1403 1.287 . S
C1403 C1402 1.287 . S
C1403 C1404 1.524 . S
C1403 H1406 0.999 1_655 S
C1404 H1374 0.950 . S
C1404 C1403 1.524 . S
C1404 C1405 1.415 . S
C1405 H1375 0.950 . S
C1405 C1400 1.363 . S
C1405 C1404 1.415 . S
H1406 C1403 0.999 1_455 S
H1407 C1388 0.913 . S
H1408 C1426 0.951 . S
H1409 C1428 0.951 . S
H1410 C1430 0.950 . S
H1411 C1431 0.950 . S
H1412 C1433 0.950 . S
H1413 C1436 0.950 . S
H1414 C1437 0.950 . S
H1415 C1439 0.950 . S
H1416 C1440 0.950 . S
H1417 C1441 0.951 1_554 S
H1418 C1443 0.948 . S
H1419 C1445 0.950 . S
H1420 C1446 0.950 . S
H1421 C1448 0.950 . S
H1422 C1451 0.950 . S
H1423 C1452 0.950 . S
H1424 C1454 0.950 . S
H1425 C1455 0.950 . S
C1426 H1408 0.951 . S
C1426 C1427 1.366 . S
C1426 C1428 1.388 . S
C1427 C1426 1.366 . S
C1427 C1431 1.385 . S
C1428 H1409 0.951 . S
C1428 C1426 1.388 . S
C1428 C1429 1.366 . S
C1429 C1428 1.366 . S
C1429 C1430 1.414 . S
C1429 C1432 1.499 . S
C1430 H1410 0.950 . S
C1430 C1429 1.414 . S
C1430 C1431 1.374 . S
C1431 H1411 0.950 . S
C1431 C1427 1.385 . S
C1431 C1430 1.374 . S
C1432 C1429 1.499 . S
C1432 C1433 1.373 . S
C1432 C1434 1.389 . S
C1433 H1412 0.950 . S
C1433 C1432 1.373 . S
C1433 C1449 1.377 . S
C1434 C1432 1.389 . S
C1434 C1435 1.524 . S
C1434 C1448 1.377 . S
C1435 C1434 1.524 . S
C1435 C1436 1.397 . S
C1435 C1440 1.363 . S
C1436 H1413 0.950 . S
C1436 C1435 1.397 . S
C1436 C1437 1.334 . S
C1437 H1414 0.950 . S
C1437 C1436 1.334 . S
C1437 C1438 1.287 . S
C1438 C1437 1.287 . S
C1438 C1439 1.524 . S
C1438 H1457 0.913 . S
C1439 H1415 0.950 . S
C1439 C1438 1.524 . S
C1439 C1440 1.415 . S
C1440 H1416 0.950 . S
C1440 C1435 1.363 . S
C1440 C1439 1.415 . S
C1441 H1417 0.951 1_556 S
C1441 C1442 1.366 . S
C1441 C1443 1.388 . S
C1442 C1441 1.366 . S
C1442 C1446 1.385 . S
C1443 H1418 0.948 . S
C1443 C1441 1.388 . S
C1443 C1444 1.366 . S
C1444 C1443 1.366 . S
C1444 C1445 1.414 . S
C1444 C1447 1.499 . S
C1445 H1419 0.950 . S
C1445 C1444 1.414 . S
C1445 C1446 1.374 . S
C1446 H1420 0.950 . S
C1446 C1442 1.385 . S
C1446 C1445 1.374 . S
C1447 C1444 1.499 . S
C1447 C1448 1.373 . S
C1447 C1449 1.389 . S
C1448 H1421 0.950 . S
C1448 C1434 1.377 . S
C1448 C1447 1.373 . S
C1449 C1433 1.377 . S
C1449 C1447 1.389 . S
C1449 C1450 1.524 1_556 S
C1450 C1449 1.524 1_554 S
C1450 C1451 1.397 . S
C1450 C1455 1.363 . S
C1451 H1422 0.950 . S
C1451 C1450 1.397 . S
C1451 C1452 1.334 . S
C1452 H1423 0.950 . S
C1452 C1451 1.334 . S
C1452 C1453 1.287 . S
C1453 C1452 1.287 . S
C1453 C1454 1.524 . S
C1453 H1456 0.999 . S
C1454 H1424 0.950 . S
C1454 C1453 1.524 . S
C1454 C1455 1.415 . S
C1455 H1425 0.950 . S
C1455 C1450 1.363 . S
C1455 C1454 1.415 . S
H1456 C1453 0.999 . S
H1457 C1438 0.913 . S
H1458 C1476 0.951 . S
H1459 C1478 0.951 . S
H1460 C1480 0.950 . S
H1461 C1481 0.950 . S
H1462 C1483 0.950 . S
H1463 C1486 0.950 . S
H1464 C1487 0.950 . S
H1465 C1489 0.950 . S
H1466 C1490 0.950 . S
H1467 C1491 0.975 . S
H1468 C1493 0.951 . S
H1469 C1495 0.950 . S
H1470 C1496 0.950 . S
H1471 C1498 0.950 . S
H1472 C1501 0.950 1_554 S
H1473 C1502 0.950 . S
H1474 C1504 0.950 . S
H1475 C1505 0.950 . S
C1476 H1458 0.951 . S
C1476 C1477 1.366 . S
C1476 C1478 1.388 . S
C1477 C1476 1.366 . S
C1477 C1481 1.385 . S
C1478 H1459 0.951 . S
C1478 C1476 1.388 . S
C1478 C1479 1.366 . S
C1479 C1478 1.366 . S
C1479 C1480 1.414 . S
C1479 C1482 1.499 . S
C1480 H1460 0.950 . S
C1480 C1479 1.414 . S
C1480 C1481 1.374 . S
C1481 H1461 0.950 . S
C1481 C1477 1.385 . S
C1481 C1480 1.374 . S
C1482 C1479 1.499 . S
C1482 C1483 1.373 . S
C1482 C1484 1.389 . S
C1483 H1462 0.950 . S
C1483 C1482 1.373 . S
C1483 C1499 1.377 . S
C1484 C1482 1.389 . S
C1484 C1485 1.524 . S
C1484 C1498 1.377 . S
C1485 C1484 1.524 . S
C1485 C1486 1.397 . S
C1485 C1490 1.363 . S
C1486 H1463 0.950 . S
C1486 C1485 1.397 . S
C1486 C1487 1.334 . S
C1487 H1464 0.950 . S
C1487 C1486 1.334 . S
C1487 C1488 1.287 . S
C1488 C1487 1.287 . S
C1488 C1489 1.524 . S
C1488 H1507 0.913 . S
C1489 H1465 0.950 . S
C1489 C1488 1.524 . S
C1489 C1490 1.415 . S
C1490 H1466 0.950 . S
C1490 C1485 1.363 . S
C1490 C1489 1.415 . S
C1491 H1467 0.975 . S
C1491 C1492 1.366 . S
C1491 C1493 1.388 . S
C1492 C1491 1.366 . S
C1492 C1496 1.385 . S
C1493 H1468 0.951 . S
C1493 C1491 1.388 . S
C1493 C1494 1.366 . S
C1494 C1493 1.366 . S
C1494 C1495 1.414 . S
C1494 C1497 1.499 . S
C1495 H1469 0.950 . S
C1495 C1494 1.414 . S
C1495 C1496 1.374 . S
C1496 H1470 0.950 . S
C1496 C1492 1.385 . S
C1496 C1495 1.374 . S
C1497 C1494 1.499 . S
C1497 C1498 1.373 . S
C1497 C1499 1.389 . S
C1498 H1471 0.950 . S
C1498 C1484 1.377 . S
C1498 C1497 1.373 . S
C1499 C1483 1.377 . S
C1499 C1497 1.389 . S
C1499 C1500 1.524 . S
C1500 C1499 1.524 . S
C1500 C1501 1.397 1_554 S
C1500 C1505 1.363 1_554 S
C1501 H1472 0.950 1_556 S
C1501 C1500 1.397 1_556 S
C1501 C1502 1.334 . S
C1502 H1473 0.950 . S
C1502 C1501 1.334 . S
C1502 C1503 1.287 . S
C1503 C1502 1.287 . S
C1503 C1504 1.524 . S
C1503 H1506 0.999 . S
C1504 H1474 0.950 . S
C1504 C1503 1.524 . S
C1504 C1505 1.415 . S
C1505 H1475 0.950 . S
C1505 C1500 1.363 1_556 S
C1505 C1504 1.415 . S
H1506 C1503 0.999 . S
H1507 C1488 0.913 . S
H1508 C1526 0.951 . S
H1509 C1528 0.951 . S
H1510 C1530 0.950 . S
H1511 C1531 0.950 . S
H1512 C1533 0.950 . S
H1513 C1536 0.950 . S
H1514 C1537 0.950 . S
H1515 C1539 0.950 . S
H1516 C1540 0.950 . S
H1517 C1541 0.951 . S
H1518 C1543 0.951 . S
H1519 C1545 0.950 . S
H1520 C1546 0.950 . S
H1521 C1548 0.950 . S
H1522 C1551 0.950 . S
H1523 C1552 0.945 1_556 S
H1524 C1554 0.950 . S
H1525 C1555 0.950 . S
C1526 H1508 0.951 . S
C1526 C1527 1.366 . S
C1526 C1528 1.388 . S
C1527 C1526 1.366 . S
C1527 C1531 1.385 . S
C1528 H1509 0.951 . S
C1528 C1526 1.388 . S
C1528 C1529 1.366 . S
C1529 C1528 1.366 . S
C1529 C1530 1.414 . S
C1529 C1532 1.499 . S
C1530 H1510 0.950 . S
C1530 C1529 1.414 . S
C1530 C1531 1.374 . S
C1531 H1511 0.950 . S
C1531 C1527 1.385 . S
C1531 C1530 1.374 . S
C1532 C1529 1.499 . S
C1532 C1533 1.373 . S
C1532 C1534 1.389 . S
C1533 H1512 0.950 . S
C1533 C1532 1.373 . S
C1533 C1549 1.377 . S
C1534 C1532 1.389 . S
C1534 C1535 1.524 . S
C1534 C1548 1.377 . S
C1535 C1534 1.524 . S
C1535 C1536 1.397 . S
C1535 C1540 1.363 . S
C1536 H1513 0.950 . S
C1536 C1535 1.397 . S
C1536 C1537 1.334 . S
C1537 H1514 0.950 . S
C1537 C1536 1.334 . S
C1537 C1538 1.287 . S
C1538 C1537 1.287 . S
C1538 C1539 1.524 . S
C1538 H1557 0.913 . S
C1539 H1515 0.950 . S
C1539 C1538 1.524 . S
C1539 C1540 1.415 . S
C1540 H1516 0.950 . S
C1540 C1535 1.363 . S
C1540 C1539 1.415 . S
C1541 H1517 0.951 . S
C1541 C1542 1.366 . S
C1541 C1543 1.388 . S
C1542 C1541 1.366 . S
C1542 C1546 1.385 . S
C1543 H1518 0.951 . S
C1543 C1541 1.388 . S
C1543 C1544 1.366 . S
C1544 C1543 1.366 . S
C1544 C1545 1.414 . S
C1544 C1547 1.499 . S
C1545 H1519 0.950 . S
C1545 C1544 1.414 . S
C1545 C1546 1.374 . S
C1546 H1520 0.950 . S
C1546 C1542 1.385 . S
C1546 C1545 1.374 . S
C1547 C1544 1.499 . S
C1547 C1548 1.373 . S
C1547 C1549 1.389 . S
C1548 H1521 0.950 . S
C1548 C1534 1.377 . S
C1548 C1547 1.373 . S
C1549 C1533 1.377 . S
C1549 C1547 1.389 . S
C1549 C1550 1.524 . S
C1550 C1549 1.524 . S
C1550 C1551 1.397 . S
C1550 C1555 1.363 . S
C1551 H1522 0.950 . S
C1551 C1550 1.397 . S
C1551 C1552 1.334 . S
C1552 H1523 0.945 1_554 S
C1552 C1551 1.334 . S
C1552 C1553 1.287 1_554 S
C1553 C1552 1.287 1_556 S
C1553 C1554 1.524 . S
C1553 H1556 0.999 . S
C1554 H1524 0.950 . S
C1554 C1553 1.524 . S
C1554 C1555 1.415 1_556 S
C1555 H1525 0.950 . S
C1555 C1550 1.363 . S
C1555 C1554 1.415 1_554 S
H1556 C1553 0.999 . S
H1557 C1538 0.913 . S
H1558 C1576 0.951 . S
H1559 C1578 0.951 . S
H1560 C1580 0.950 . S
H1561 C1581 0.950 . S
H1562 C1583 0.950 . S
H1563 C1586 0.950 . S
H1564 C1587 0.950 . S
H1565 C1589 0.950 . S
H1566 C1590 0.950 . S
H1567 C1591 0.951 . S
H1568 C1593 0.951 . S
H1569 C1595 0.950 . S
H1570 C1596 0.950 . S
H1571 C1598 0.950 . S
H1572 C1601 0.950 . S
H1573 C1602 0.950 . S
H1574 C1604 0.950 . S
H1575 C1605 0.950 . S
C1576 H1558 0.951 . S
C1576 C1577 1.366 . S
C1576 C1578 1.388 . S
C1577 C1576 1.366 . S
C1577 C1581 1.385 . S
C1578 H1559 0.951 . S
C1578 C1576 1.388 . S
C1578 C1579 1.366 . S
C1579 C1578 1.366 . S
C1579 C1580 1.414 . S
C1579 C1582 1.499 . S
C1580 H1560 0.950 . S
C1580 C1579 1.414 . S
C1580 C1581 1.374 . S
C1581 H1561 0.950 . S
C1581 C1577 1.385 . S
C1581 C1580 1.374 . S
C1582 C1579 1.499 . S
C1582 C1583 1.373 . S
C1582 C1584 1.389 . S
C1583 H1562 0.950 . S
C1583 C1582 1.373 . S
C1583 C1599 1.377 . S
C1584 C1582 1.389 . S
C1584 C1585 1.524 . S
C1584 C1598 1.377 . S
C1585 C1584 1.524 . S
C1585 C1586 1.397 . S
C1585 C1590 1.363 . S
C1586 H1563 0.950 . S
C1586 C1585 1.397 . S
C1586 C1587 1.334 . S
C1587 H1564 0.950 . S
C1587 C1586 1.334 . S
C1587 C1588 1.287 . S
C1588 C1587 1.287 . S
C1588 C1589 1.524 . S
C1588 H1607 0.913 . S
C1589 H1565 0.950 . S
C1589 C1588 1.524 . S
C1589 C1590 1.415 . S
C1590 H1566 0.950 . S
C1590 C1585 1.363 . S
C1590 C1589 1.415 . S
C1591 H1567 0.951 . S
C1591 C1592 1.366 . S
C1591 C1593 1.388 . S
C1592 C1591 1.366 . S
C1592 C1596 1.385 . S
C1593 H1568 0.951 . S
C1593 C1591 1.388 . S
C1593 C1594 1.366 . S
C1594 C1593 1.366 . S
C1594 C1595 1.414 . S
C1594 C1597 1.499 . S
C1595 H1569 0.950 . S
C1595 C1594 1.414 . S
C1595 C1596 1.374 . S
C1596 H1570 0.950 . S
C1596 C1592 1.385 . S
C1596 C1595 1.374 . S
C1597 C1594 1.499 . S
C1597 C1598 1.373 . S
C1597 C1599 1.389 . S
C1598 H1571 0.950 . S
C1598 C1584 1.377 . S
C1598 C1597 1.373 . S
C1599 C1583 1.377 . S
C1599 C1597 1.389 . S
C1599 C1600 1.524 1_554 S
C1600 C1599 1.524 1_556 S
C1600 C1601 1.397 . S
C1600 C1605 1.363 . S
C1601 H1572 0.950 . S
C1601 C1600 1.397 . S
C1601 C1602 1.334 . S
C1602 H1573 0.950 . S
C1602 C1601 1.334 . S
C1602 C1603 1.287 . S
C1603 C1602 1.287 . S
C1603 C1604 1.524 . S
C1603 H1606 0.999 . S
C1604 H1574 0.950 . S
C1604 C1603 1.524 . S
C1604 C1605 1.415 . S
C1605 H1575 0.950 . S
C1605 C1600 1.363 . S
C1605 C1604 1.415 . S
H1606 C1603 0.999 . S
H1607 C1588 0.913 . S
H1608 C1626 0.951 . S
H1609 C1628 0.951 . S
H1610 C1630 0.950 . S
H1611 C1631 0.950 . S
H1612 C1633 0.950 . S
H1613 C1636 0.950 . S
H1614 C1637 0.950 . S
H1615 C1639 0.950 . S
H1616 C1640 0.950 . S
H1617 C1641 0.951 . S
H1618 C1643 0.951 . S
H1619 C1645 0.950 . S
H1620 C1646 0.950 . S
H1621 C1648 0.950 . S
H1622 C1651 0.950 . S
H1623 C1652 0.950 . S
H1624 C1654 0.950 . S
H1625 C1655 0.950 . S
C1626 H1608 0.951 . S
C1626 C1627 1.366 . S
C1626 C1628 1.388 . S
C1627 C1626 1.366 . S
C1627 C1631 1.385 . S
C1628 H1609 0.951 . S
C1628 C1626 1.388 . S
C1628 C1629 1.366 . S
C1629 C1628 1.366 . S
C1629 C1630 1.414 . S
C1629 C1632 1.499 1_655 S
C1630 H1610 0.950 . S
C1630 C1629 1.414 . S
C1630 C1631 1.374 . S
C1631 H1611 0.950 . S
C1631 C1627 1.385 . S
C1631 C1630 1.374 . S
C1632 C1629 1.499 1_455 S
C1632 C1633 1.373 . S
C1632 C1634 1.389 . S
C1633 H1612 0.950 . S
C1633 C1632 1.373 . S
C1633 C1649 1.377 . S
C1634 C1632 1.389 . S
C1634 C1635 1.524 . S
C1634 C1648 1.377 . S
C1635 C1634 1.524 . S
C1635 C1636 1.397 . S
C1635 C1640 1.363 . S
C1636 H1613 0.950 . S
C1636 C1635 1.397 . S
C1636 C1637 1.334 . S
C1637 H1614 0.950 . S
C1637 C1636 1.334 . S
C1637 C1638 1.287 . S
C1638 C1637 1.287 . S
C1638 C1639 1.524 . S
C1638 H1657 0.913 . S
C1639 H1615 0.950 . S
C1639 C1638 1.524 . S
C1639 C1640 1.415 . S
C1640 H1616 0.950 . S
C1640 C1635 1.363 . S
C1640 C1639 1.415 . S
C1641 H1617 0.951 . S
C1641 C1642 1.366 . S
C1641 C1643 1.388 . S
C1642 C1641 1.366 . S
C1642 C1646 1.385 . S
C1643 H1618 0.951 . S
C1643 C1641 1.388 . S
C1643 C1644 1.366 . S
C1644 C1643 1.366 . S
C1644 C1645 1.414 . S
C1644 C1647 1.499 . S
C1645 H1619 0.950 . S
C1645 C1644 1.414 . S
C1645 C1646 1.374 . S
C1646 H1620 0.950 . S
C1646 C1642 1.385 . S
C1646 C1645 1.374 . S
C1647 C1644 1.499 . S
C1647 C1648 1.373 . S
C1647 C1649 1.389 . S
C1648 H1621 0.950 . S
C1648 C1634 1.377 . S
C1648 C1647 1.373 . S
C1649 C1633 1.377 . S
C1649 C1647 1.389 . S
C1649 C1650 1.524 . S
C1650 C1649 1.524 . S
C1650 C1651 1.397 . S
C1650 C1655 1.363 . S
C1651 H1622 0.950 . S
C1651 C1650 1.397 . S
C1651 C1652 1.334 . S
C1652 H1623 0.950 . S
C1652 C1651 1.334 . S
C1652 C1653 1.287 . S
C1653 C1652 1.287 . S
C1653 C1654 1.524 . S
C1653 H1656 0.999 . S
C1654 H1624 0.950 . S
C1654 C1653 1.524 . S
C1654 C1655 1.415 . S
C1655 H1625 0.950 . S
C1655 C1650 1.363 . S
C1655 C1654 1.415 . S
H1656 C1653 0.999 . S
H1657 C1638 0.913 . S
H1658 C1676 0.951 . S
H1659 C1678 0.951 . S
H1660 C1680 0.950 . S
H1661 C1681 0.950 . S
H1662 C1683 0.950 . S
H1663 C1686 0.950 . S
H1664 C1687 0.950 . S
H1665 C1689 0.950 . S
H1666 C1690 0.950 . S
H1667 C1691 0.951 . S
H1668 C1693 0.951 . S
H1669 C1695 0.950 . S
H1670 C1696 0.950 . S
H1671 C1698 0.950 . S
H1672 C1701 0.950 . S
H1673 C1702 0.950 . S
H1674 C1704 0.950 . S
H1675 C1705 0.950 . S
C1676 H1658 0.951 . S
C1676 C1677 1.366 . S
C1676 C1678 1.388 . S
C1677 C1676 1.366 . S
C1677 C1681 1.385 . S
C1678 H1659 0.951 . S
C1678 C1676 1.388 . S
C1678 C1679 1.366 . S
C1679 C1678 1.366 . S
C1679 C1680 1.414 . S
C1679 C1682 1.499 . S
C1680 H1660 0.950 . S
C1680 C1679 1.414 . S
C1680 C1681 1.374 . S
C1681 H1661 0.950 . S
C1681 C1677 1.385 . S
C1681 C1680 1.374 . S
C1682 C1679 1.499 . S
C1682 C1683 1.373 . S
C1682 C1684 1.389 . S
C1683 H1662 0.950 . S
C1683 C1682 1.373 . S
C1683 C1699 1.377 . S
C1684 C1682 1.389 . S
C1684 C1685 1.524 . S
C1684 C1698 1.377 . S
C1685 C1684 1.524 . S
C1685 C1686 1.397 . S
C1685 C1690 1.363 . S
C1686 H1663 0.950 . S
C1686 C1685 1.397 . S
C1686 C1687 1.334 . S
C1687 H1664 0.950 . S
C1687 C1686 1.334 . S
C1687 C1688 1.287 . S
C1688 C1687 1.287 . S
C1688 C1689 1.524 . S
C1688 H1707 0.913 . S
C1689 H1665 0.950 . S
C1689 C1688 1.524 . S
C1689 C1690 1.415 . S
C1690 H1666 0.950 . S
C1690 C1685 1.363 . S
C1690 C1689 1.415 . S
C1691 H1667 0.951 . S
C1691 C1692 1.366 . S
C1691 C1693 1.388 . S
C1692 C1691 1.366 . S
C1692 C1696 1.385 . S
C1693 H1668 0.951 . S
C1693 C1691 1.388 . S
C1693 C1694 1.366 . S
C1694 C1693 1.366 . S
C1694 C1695 1.414 . S
C1694 C1697 1.499 . S
C1695 H1669 0.950 . S
C1695 C1694 1.414 . S
C1695 C1696 1.374 . S
C1696 H1670 0.950 . S
C1696 C1692 1.385 . S
C1696 C1695 1.374 . S
C1697 C1694 1.499 . S
C1697 C1698 1.373 . S
C1697 C1699 1.389 . S
C1698 H1671 0.950 . S
C1698 C1684 1.377 . S
C1698 C1697 1.373 . S
C1699 C1683 1.377 . S
C1699 C1697 1.389 . S
C1699 C1700 1.524 . S
C1700 C1699 1.524 . S
C1700 C1701 1.397 . S
C1700 C1705 1.363 . S
C1701 H1672 0.950 . S
C1701 C1700 1.397 . S
C1701 C1702 1.334 . S
C1702 H1673 0.950 . S
C1702 C1701 1.334 . S
C1702 C1703 1.287 . S
C1703 C1702 1.287 . S
C1703 C1704 1.524 . S
C1703 H1706 0.999 . S
C1704 H1674 0.950 . S
C1704 C1703 1.524 . S
C1704 C1705 1.415 . S
C1705 H1675 0.950 . S
C1705 C1700 1.363 . S
C1705 C1704 1.415 . S
H1706 C1703 0.999 . S
H1707 C1688 0.913 . S
H1708 C1726 0.951 . S
H1709 C1728 0.951 . S
H1710 C1730 0.950 . S
H1711 C1731 0.950 . S
H1712 C1733 0.950 . S
H1713 C1736 0.950 . S
H1714 C1737 0.950 . S
H1715 C1739 0.950 . S
H1716 C1740 0.950 . S
H1717 C1741 0.951 . S
H1718 C1743 0.951 . S
H1719 C1745 0.950 . S
H1720 C1746 0.950 . S
H1721 C1748 0.950 . S
H1722 C1751 0.950 . S
H1723 C1752 0.950 . S
H1724 C1754 0.950 . S
H1725 C1755 0.950 . S
C1726 H1708 0.951 . S
C1726 C1727 1.366 . S
C1726 C1728 1.388 . S
C1727 C1726 1.366 . S
C1727 C1731 1.385 . S
C1728 H1709 0.951 . S
C1728 C1726 1.388 . S
C1728 C1729 1.366 . S
C1729 C1728 1.366 . S
C1729 C1730 1.414 . S
C1729 C1732 1.499 . S
C1730 H1710 0.950 . S
C1730 C1729 1.414 . S
C1730 C1731 1.374 . S
C1731 H1711 0.950 . S
C1731 C1727 1.385 . S
C1731 C1730 1.374 . S
C1732 C1729 1.499 . S
C1732 C1733 1.373 1_545 S
C1732 C1734 1.389 1_545 S
C1733 H1712 0.950 . S
C1733 C1732 1.373 1_565 S
C1733 C1749 1.377 . S
C1734 C1732 1.389 1_565 S
C1734 C1735 1.524 1_565 S
C1734 C1748 1.377 . S
C1735 C1734 1.524 1_545 S
C1735 C1736 1.397 . S
C1735 C1740 1.363 1_545 S
C1736 H1713 0.950 . S
C1736 C1735 1.397 . S
C1736 C1737 1.334 . S
C1737 H1714 0.950 . S
C1737 C1736 1.334 . S
C1737 C1738 1.287 . S
C1738 C1737 1.287 . S
C1738 C1739 1.524 . S
C1738 H1757 0.913 . S
C1739 H1715 0.950 . S
C1739 C1738 1.524 . S
C1739 C1740 1.415 1_545 S
C1740 H1716 0.950 . S
C1740 C1735 1.363 1_565 S
C1740 C1739 1.415 1_565 S
C1741 H1717 0.951 . S
C1741 C1742 1.366 . S
C1741 C1743 1.388 . S
C1742 C1741 1.366 . S
C1742 C1746 1.385 . S
C1743 H1718 0.951 . S
C1743 C1741 1.388 . S
C1743 C1744 1.366 . S
C1744 C1743 1.366 . S
C1744 C1745 1.414 . S
C1744 C1747 1.499 . S
C1745 H1719 0.950 . S
C1745 C1744 1.414 . S
C1745 C1746 1.374 . S
C1746 H1720 0.950 . S
C1746 C1742 1.385 . S
C1746 C1745 1.374 . S
C1747 C1744 1.499 . S
C1747 C1748 1.373 . S
C1747 C1749 1.389 . S
C1748 H1721 0.950 . S
C1748 C1734 1.377 . S
C1748 C1747 1.373 . S
C1749 C1733 1.377 . S
C1749 C1747 1.389 . S
C1749 C1750 1.524 . S
C1750 C1749 1.524 . S
C1750 C1751 1.397 . S
C1750 C1755 1.363 . S
C1751 H1722 0.950 . S
C1751 C1750 1.397 . S
C1751 C1752 1.334 . S
C1752 H1723 0.950 . S
C1752 C1751 1.334 . S
C1752 C1753 1.287 . S
C1753 C1752 1.287 . S
C1753 C1754 1.524 . S
C1753 H1756 0.999 . S
C1754 H1724 0.950 . S
C1754 C1753 1.524 . S
C1754 C1755 1.415 . S
C1755 H1725 0.950 . S
C1755 C1750 1.363 . S
C1755 C1754 1.415 . S
H1756 C1753 0.999 . S
H1757 C1738 0.913 . S
H1758 C1776 0.951 . S
H1759 C1778 0.951 . S
H1760 C1780 0.950 . S
H1761 C1781 0.950 . S
H1762 C1783 0.950 . S
H1763 C1786 0.950 . S
H1764 C1787 0.950 . S
H1765 C1789 0.950 . S
H1766 C1790 0.950 . S
H1767 C1791 0.951 . S
H1768 C1793 0.951 . S
H1769 C1795 0.950 . S
H1770 C1796 0.950 . S
H1771 C1798 0.950 . S
H1772 C1801 0.950 . S
H1773 C1802 0.950 . S
H1774 C1804 0.950 . S
H1775 C1805 0.950 . S
C1776 H1758 0.951 . S
C1776 C1777 1.366 . S
C1776 C1778 1.388 . S
C1777 C1776 1.366 . S
C1777 C1781 1.385 . S
C1778 H1759 0.951 . S
C1778 C1776 1.388 . S
C1778 C1779 1.366 . S
C1779 C1778 1.366 . S
C1779 C1780 1.414 . S
C1779 C1782 1.499 . S
C1780 H1760 0.950 . S
C1780 C1779 1.414 . S
C1780 C1781 1.374 . S
C1781 H1761 0.950 . S
C1781 C1777 1.385 . S
C1781 C1780 1.374 . S
C1782 C1779 1.499 . S
C1782 C1783 1.373 . S
C1782 C1784 1.389 . S
C1783 H1762 0.950 . S
C1783 C1782 1.373 . S
C1783 C1799 1.377 . S
C1784 C1782 1.389 . S
C1784 C1785 1.524 . S
C1784 C1798 1.377 . S
C1785 C1784 1.524 . S
C1785 C1786 1.397 . S
C1785 C1790 1.363 . S
C1786 H1763 0.950 . S
C1786 C1785 1.397 . S
C1786 C1787 1.334 . S
C1787 H1764 0.950 . S
C1787 C1786 1.334 . S
C1787 C1788 1.287 . S
C1788 C1787 1.287 . S
C1788 C1789 1.524 . S
C1788 H1807 0.913 . S
C1789 H1765 0.950 . S
C1789 C1788 1.524 . S
C1789 C1790 1.415 . S
C1790 H1766 0.950 . S
C1790 C1785 1.363 . S
C1790 C1789 1.415 . S
C1791 H1767 0.951 . S
C1791 C1792 1.366 . S
C1791 C1793 1.388 . S
C1792 C1791 1.366 . S
C1792 C1796 1.385 . S
C1793 H1768 0.951 . S
C1793 C1791 1.388 . S
C1793 C1794 1.366 . S
C1794 C1793 1.366 . S
C1794 C1795 1.414 . S
C1794 C1797 1.499 . S
C1795 H1769 0.950 . S
C1795 C1794 1.414 . S
C1795 C1796 1.374 . S
C1796 H1770 0.950 . S
C1796 C1792 1.385 . S
C1796 C1795 1.374 . S
C1797 C1794 1.499 . S
C1797 C1798 1.373 . S
C1797 C1799 1.389 . S
C1798 H1771 0.950 . S
C1798 C1784 1.377 . S
C1798 C1797 1.373 . S
C1799 C1783 1.377 . S
C1799 C1797 1.389 . S
C1799 C1800 1.524 . S
C1800 C1799 1.524 . S
C1800 C1801 1.397 . S
C1800 C1805 1.363 . S
C1801 H1772 0.950 . S
C1801 C1800 1.397 . S
C1801 C1802 1.334 . S
C1802 H1773 0.950 . S
C1802 C1801 1.334 . S
C1802 C1803 1.287 . S
C1803 C1802 1.287 . S
C1803 C1804 1.524 . S
C1803 H1806 0.999 . S
C1804 H1774 0.950 . S
C1804 C1803 1.524 . S
C1804 C1805 1.415 . S
C1805 H1775 0.950 . S
C1805 C1800 1.363 . S
C1805 C1804 1.415 . S
H1806 C1803 0.999 . S
H1807 C1788 0.913 . S
H1808 C1826 0.951 . S
H1809 C1828 0.951 . S
H1810 C1830 0.950 . S
H1811 C1831 0.950 . S
H1812 C1833 0.950 . S
H1813 C1836 0.950 . S
H1814 C1837 0.950 . S
H1815 C1839 0.950 . S
H1816 C1840 0.950 . S
H1817 C1841 0.951 . S
H1818 C1843 0.951 . S
H1819 C1845 0.950 . S
H1820 C1846 0.950 . S
H1821 C1848 0.950 . S
H1822 C1851 0.950 . S
H1823 C1852 0.950 . S
H1824 C1854 0.950 . S
H1825 C1855 0.950 . S
C1826 H1808 0.951 . S
C1826 C1827 1.366 . S
C1826 C1828 1.388 . S
C1827 C1826 1.366 . S
C1827 C1831 1.385 . S
C1828 H1809 0.951 . S
C1828 C1826 1.388 . S
C1828 C1829 1.366 . S
C1829 C1828 1.366 . S
C1829 C1830 1.414 . S
C1829 C1832 1.499 . S
C1830 H1810 0.950 . S
C1830 C1829 1.414 . S
C1830 C1831 1.374 . S
C1831 H1811 0.950 . S
C1831 C1827 1.385 . S
C1831 C1830 1.374 . S
C1832 C1829 1.499 . S
C1832 C1833 1.373 . S
C1832 C1834 1.389 . S
C1833 H1812 0.950 . S
C1833 C1832 1.373 . S
C1833 C1849 1.377 . S
C1834 C1832 1.389 . S
C1834 C1835 1.524 . S
C1834 C1848 1.377 . S
C1835 C1834 1.524 . S
C1835 C1836 1.397 . S
C1835 C1840 1.363 . S
C1836 H1813 0.950 . S
C1836 C1835 1.397 . S
C1836 C1837 1.334 . S
C1837 H1814 0.950 . S
C1837 C1836 1.334 . S
C1837 C1838 1.287 . S
C1838 C1837 1.287 . S
C1838 C1839 1.524 . S
C1838 H1857 0.913 . S
C1839 H1815 0.950 . S
C1839 C1838 1.524 . S
C1839 C1840 1.415 . S
C1840 H1816 0.950 . S
C1840 C1835 1.363 . S
C1840 C1839 1.415 . S
C1841 H1817 0.951 . S
C1841 C1842 1.366 . S
C1841 C1843 1.388 . S
C1842 C1841 1.366 . S
C1842 C1846 1.385 . S
C1843 H1818 0.951 . S
C1843 C1841 1.388 . S
C1843 C1844 1.366 . S
C1844 C1843 1.366 . S
C1844 C1845 1.414 . S
C1844 C1847 1.499 . S
C1845 H1819 0.950 . S
C1845 C1844 1.414 . S
C1845 C1846 1.374 . S
C1846 H1820 0.950 . S
C1846 C1842 1.385 . S
C1846 C1845 1.374 . S
C1847 C1844 1.499 . S
C1847 C1848 1.373 . S
C1847 C1849 1.389 . S
C1848 H1821 0.950 . S
C1848 C1834 1.377 . S
C1848 C1847 1.373 . S
C1849 C1833 1.377 . S
C1849 C1847 1.389 . S
C1849 C1850 1.524 . S
C1850 C1849 1.524 . S
C1850 C1851 1.397 . S
C1850 C1855 1.363 . S
C1851 H1822 0.950 . S
C1851 C1850 1.397 . S
C1851 C1852 1.334 . S
C1852 H1823 0.950 . S
C1852 C1851 1.334 . S
C1852 C1853 1.287 . S
C1853 C1852 1.287 . S
C1853 C1854 1.524 . S
C1853 H1856 0.999 . S
C1854 H1824 0.950 . S
C1854 C1853 1.524 . S
C1854 C1855 1.415 . S
C1855 H1825 0.950 . S
C1855 C1850 1.363 . S
C1855 C1854 1.415 . S
H1856 C1853 0.999 . S
H1857 C1838 0.913 . S
H1858 C1876 0.951 . S
H1859 C1878 0.951 . S
H1860 C1880 0.950 . S
H1861 C1881 0.950 . S
H1862 C1883 0.950 . S
H1863 C1886 0.950 . S
H1864 C1887 0.950 . S
H1865 C1889 0.950 . S
H1866 C1890 0.950 . S
H1867 C1891 0.951 . S
H1868 C1893 0.951 . S
H1869 C1895 0.950 . S
H1870 C1896 0.950 . S
H1871 C1898 0.950 . S
H1872 C1901 0.950 . S
H1873 C1902 0.950 . S
H1874 C1904 0.950 . S
H1875 C1905 0.950 . S
C1876 H1858 0.951 . S
C1876 C1877 1.366 . S
C1876 C1878 1.388 . S
C1877 C1876 1.366 . S
C1877 C1881 1.385 . S
C1878 H1859 0.951 . S
C1878 C1876 1.388 . S
C1878 C1879 1.366 . S
C1879 C1878 1.366 . S
C1879 C1880 1.414 . S
C1879 C1882 1.499 . S
C1880 H1860 0.950 . S
C1880 C1879 1.414 . S
C1880 C1881 1.374 . S
C1881 H1861 0.950 . S
C1881 C1877 1.385 . S
C1881 C1880 1.374 . S
C1882 C1879 1.499 . S
C1882 C1883 1.373 . S
C1882 C1884 1.389 . S
C1883 H1862 0.950 . S
C1883 C1882 1.373 . S
C1883 C1899 1.377 . S
C1884 C1882 1.389 . S
C1884 C1885 1.524 . S
C1884 C1898 1.377 . S
C1885 C1884 1.524 . S
C1885 C1886 1.397 . S
C1885 C1890 1.363 . S
C1886 H1863 0.950 . S
C1886 C1885 1.397 . S
C1886 C1887 1.334 . S
C1887 H1864 0.950 . S
C1887 C1886 1.334 . S
C1887 C1888 1.287 . S
C1888 C1887 1.287 . S
C1888 C1889 1.524 . S
C1888 H1907 0.913 . S
C1889 H1865 0.950 . S
C1889 C1888 1.524 . S
C1889 C1890 1.415 . S
C1890 H1866 0.950 . S
C1890 C1885 1.363 . S
C1890 C1889 1.415 . S
C1891 H1867 0.951 . S
C1891 C1892 1.366 . S
C1891 C1893 1.388 . S
C1892 C1891 1.366 . S
C1892 C1896 1.385 . S
C1893 H1868 0.951 . S
C1893 C1891 1.388 . S
C1893 C1894 1.366 . S
C1894 C1893 1.366 . S
C1894 C1895 1.414 . S
C1894 C1897 1.499 . S
C1895 H1869 0.950 . S
C1895 C1894 1.414 . S
C1895 C1896 1.374 . S
C1896 H1870 0.950 . S
C1896 C1892 1.385 . S
C1896 C1895 1.374 . S
C1897 C1894 1.499 . S
C1897 C1898 1.373 . S
C1897 C1899 1.389 . S
C1898 H1871 0.950 . S
C1898 C1884 1.377 . S
C1898 C1897 1.373 . S
C1899 C1883 1.377 . S
C1899 C1897 1.389 . S
C1899 C1900 1.524 . S
C1900 C1899 1.524 . S
C1900 C1901 1.397 . S
C1900 C1905 1.363 . S
C1901 H1872 0.950 . S
C1901 C1900 1.397 . S
C1901 C1902 1.334 . S
C1902 H1873 0.950 . S
C1902 C1901 1.334 . S
C1902 C1903 1.287 . S
C1903 C1902 1.287 . S
C1903 C1904 1.524 . S
C1903 H1906 0.999 . S
C1904 H1874 0.950 . S
C1904 C1903 1.524 . S
C1904 C1905 1.415 . S
C1905 H1875 0.950 . S
C1905 C1900 1.363 . S
C1905 C1904 1.415 . S
H1906 C1903 0.999 . S
H1907 C1888 0.913 . S
H1908 C1926 0.951 . S
H1909 C1928 0.951 . S
H1910 C1930 0.950 . S
H1911 C1931 0.950 . S
H1912 C1933 0.950 . S
H1913 C1936 0.950 . S
H1914 C1937 0.950 . S
H1915 C1939 0.950 . S
H1916 C1940 0.950 . S
H1917 C1941 0.951 . S
H1918 C1943 0.951 . S
H1919 C1945 0.950 . S
H1920 C1946 0.950 . S
H1921 C1948 0.950 . S
H1922 C1951 0.950 . S
H1923 C1952 0.950 . S
H1924 C1954 0.950 . S
H1925 C1955 0.950 . S
C1926 H1908 0.951 . S
C1926 C1927 1.366 . S
C1926 C1928 1.388 . S
C1927 C1926 1.366 . S
C1927 C1931 1.385 . S
C1928 H1909 0.951 . S
C1928 C1926 1.388 . S
C1928 C1929 1.366 . S
C1929 C1928 1.366 . S
C1929 C1930 1.414 . S
C1929 C1932 1.499 . S
C1930 H1910 0.950 . S
C1930 C1929 1.414 . S
C1930 C1931 1.374 . S
C1931 H1911 0.950 . S
C1931 C1927 1.385 . S
C1931 C1930 1.374 . S
C1932 C1929 1.499 . S
C1932 C1933 1.373 . S
C1932 C1934 1.389 . S
C1933 H1912 0.950 . S
C1933 C1932 1.373 . S
C1933 C1949 1.377 . S
C1934 C1932 1.389 . S
C1934 C1935 1.524 . S
C1934 C1948 1.377 . S
C1935 C1934 1.524 . S
C1935 C1936 1.397 . S
C1935 C1940 1.363 . S
C1936 H1913 0.950 . S
C1936 C1935 1.397 . S
C1936 C1937 1.334 . S
C1937 H1914 0.950 . S
C1937 C1936 1.334 . S
C1937 C1938 1.287 . S
C1938 C1937 1.287 . S
C1938 C1939 1.524 . S
C1938 H1957 0.913 . S
C1939 H1915 0.950 . S
C1939 C1938 1.524 . S
C1939 C1940 1.415 . S
C1940 H1916 0.950 . S
C1940 C1935 1.363 . S
C1940 C1939 1.415 . S
C1941 H1917 0.951 . S
C1941 C1942 1.366 . S
C1941 C1943 1.388 . S
C1942 C1941 1.366 . S
C1942 C1946 1.385 . S
C1943 H1918 0.951 . S
C1943 C1941 1.388 . S
C1943 C1944 1.366 . S
C1944 C1943 1.366 . S
C1944 C1945 1.414 . S
C1944 C1947 1.499 . S
C1945 H1919 0.950 . S
C1945 C1944 1.414 . S
C1945 C1946 1.374 . S
C1946 H1920 0.950 . S
C1946 C1942 1.385 . S
C1946 C1945 1.374 . S
C1947 C1944 1.499 . S
C1947 C1948 1.373 . S
C1947 C1949 1.389 . S
C1948 H1921 0.950 . S
C1948 C1934 1.377 . S
C1948 C1947 1.373 . S
C1949 C1933 1.377 . S
C1949 C1947 1.389 . S
C1949 C1950 1.524 . S
C1950 C1949 1.524 . S
C1950 C1951 1.397 . S
C1950 C1955 1.363 . S
C1951 H1922 0.950 . S
C1951 C1950 1.397 . S
C1951 C1952 1.334 . S
C1952 H1923 0.950 . S
C1952 C1951 1.334 . S
C1952 C1953 1.287 . S
C1953 C1952 1.287 . S
C1953 C1954 1.524 . S
C1953 H1956 0.999 . S
C1954 H1924 0.950 . S
C1954 C1953 1.524 . S
C1954 C1955 1.415 . S
C1955 H1925 0.950 . S
C1955 C1950 1.363 . S
C1955 C1954 1.415 . S
H1956 C1953 0.999 . S
H1957 C1938 0.913 . S
H1958 C1976 0.951 . S
H1959 C1978 0.951 . S
H1960 C1980 0.950 . S
H1961 C1981 0.950 . S
H1962 C1983 0.950 . S
H1963 C1986 0.950 . S
H1964 C1987 0.950 . S
H1965 C1989 0.950 . S
H1966 C1990 0.950 . S
H1967 C1991 0.951 . S
H1968 C1993 0.951 . S
H1969 C1995 0.950 . S
H1970 C1996 0.950 . S
H1971 C1998 0.950 . S
H1972 C2001 0.950 . S
H1973 C2002 0.950 . S
H1974 C2004 0.950 . S
H1975 C2005 0.950 . S
C1976 H1958 0.951 . S
C1976 C1977 1.366 . S
C1976 C1978 1.388 . S
C1977 C1976 1.366 . S
C1977 C1981 1.385 . S
C1978 H1959 0.951 . S
C1978 C1976 1.388 . S
C1978 C1979 1.366 . S
C1979 C1978 1.366 . S
C1979 C1980 1.414 . S
C1979 C1982 1.499 . S
C1980 H1960 0.950 . S
C1980 C1979 1.414 . S
C1980 C1981 1.374 . S
C1981 H1961 0.950 . S
C1981 C1977 1.385 . S
C1981 C1980 1.374 . S
C1982 C1979 1.499 . S
C1982 C1983 1.373 . S
C1982 C1984 1.389 . S
C1983 H1962 0.950 . S
C1983 C1982 1.373 . S
C1983 C1999 1.377 . S
C1984 C1982 1.389 . S
C1984 C1985 1.524 . S
C1984 C1998 1.377 . S
C1985 C1984 1.524 . S
C1985 C1986 1.397 . S
C1985 C1990 1.363 . S
C1986 H1963 0.950 . S
C1986 C1985 1.397 . S
C1986 C1987 1.334 . S
C1987 H1964 0.950 . S
C1987 C1986 1.334 . S
C1987 C1988 1.287 . S
C1988 C1987 1.287 . S
C1988 C1989 1.524 . S
C1988 H2007 0.913 . S
C1989 H1965 0.950 . S
C1989 C1988 1.524 . S
C1989 C1990 1.415 . S
C1990 H1966 0.950 . S
C1990 C1985 1.363 . S
C1990 C1989 1.415 . S
C1991 H1967 0.951 . S
C1991 C1992 1.366 . S
C1991 C1993 1.388 . S
C1992 C1991 1.366 . S
C1992 C1996 1.385 . S
C1993 H1968 0.951 . S
C1993 C1991 1.388 . S
C1993 C1994 1.366 . S
C1994 C1993 1.366 . S
C1994 C1995 1.414 . S
C1994 C1997 1.499 . S
C1995 H1969 0.950 . S
C1995 C1994 1.414 . S
C1995 C1996 1.374 . S
C1996 H1970 0.950 . S
C1996 C1992 1.385 . S
C1996 C1995 1.374 . S
C1997 C1994 1.499 . S
C1997 C1998 1.373 . S
C1997 C1999 1.389 . S
C1998 H1971 0.950 . S
C1998 C1984 1.377 . S
C1998 C1997 1.373 . S
C1999 C1983 1.377 . S
C1999 C1997 1.389 . S
C1999 C2000 1.524 . S
C2000 C1999 1.524 . S
C2000 C2001 1.397 . S
C2000 C2005 1.363 . S
C2001 H1972 0.950 . S
C2001 C2000 1.397 . S
C2001 C2002 1.334 . S
C2002 H1973 0.950 . S
C2002 C2001 1.334 . S
C2002 C2003 1.287 . S
C2003 C2002 1.287 . S
C2003 C2004 1.524 . S
C2003 H2006 0.999 . S
C2004 H1974 0.950 . S
C2004 C2003 1.524 . S
C2004 C2005 1.415 . S
C2005 H1975 0.950 . S
C2005 C2000 1.363 . S
C2005 C2004 1.415 . S
H2006 C2003 0.999 . S
H2007 C1988 0.913 . S
H2008 C2026 0.951 . S
H2009 C2028 0.951 . S
H2010 C2030 0.950 . S
H2011 C2031 0.950 . S
H2012 C2033 0.950 . S
H2013 C2036 0.950 . S
H2014 C2037 0.950 . S
H2015 C2039 0.950 . S
H2016 C2040 0.950 . S
H2017 C2041 0.951 . S
H2018 C2043 0.951 . S
H2019 C2045 0.950 . S
H2020 C2046 0.950 . S
H2021 C2048 0.950 . S
H2022 C2051 0.950 . S
H2023 C2052 0.950 . S
H2024 C2054 0.950 . S
H2025 C2055 0.950 . S
C2026 H2008 0.951 . S
C2026 C2027 1.366 . S
C2026 C2028 1.388 . S
C2027 C2026 1.366 . S
C2027 C2031 1.385 . S
C2028 H2009 0.951 . S
C2028 C2026 1.388 . S
C2028 C2029 1.366 . S
C2029 C2028 1.366 . S
C2029 C2030 1.414 . S
C2029 C2032 1.499 . S
C2030 H2010 0.950 . S
C2030 C2029 1.414 . S
C2030 C2031 1.374 . S
C2031 H2011 0.950 . S
C2031 C2027 1.385 . S
C2031 C2030 1.374 . S
C2032 C2029 1.499 . S
C2032 C2033 1.373 . S
C2032 C2034 1.389 . S
C2033 H2012 0.950 . S
C2033 C2032 1.373 . S
C2033 C2049 1.377 . S
C2034 C2032 1.389 . S
C2034 C2035 1.524 . S
C2034 C2048 1.377 . S
C2035 C2034 1.524 . S
C2035 C2036 1.397 . S
C2035 C2040 1.363 . S
C2036 H2013 0.950 . S
C2036 C2035 1.397 . S
C2036 C2037 1.334 . S
C2037 H2014 0.950 . S
C2037 C2036 1.334 . S
C2037 C2038 1.287 . S
C2038 C2037 1.287 . S
C2038 C2039 1.524 . S
C2038 H2057 0.913 . S
C2039 H2015 0.950 . S
C2039 C2038 1.524 . S
C2039 C2040 1.415 . S
C2040 H2016 0.950 . S
C2040 C2035 1.363 . S
C2040 C2039 1.415 . S
C2041 H2017 0.951 . S
C2041 C2042 1.366 . S
C2041 C2043 1.388 . S
C2042 C2041 1.366 . S
C2042 C2046 1.385 . S
C2043 H2018 0.951 . S
C2043 C2041 1.388 . S
C2043 C2044 1.366 . S
C2044 C2043 1.366 . S
C2044 C2045 1.414 . S
C2044 C2047 1.499 . S
C2045 H2019 0.950 . S
C2045 C2044 1.414 . S
C2045 C2046 1.374 . S
C2046 H2020 0.950 . S
C2046 C2042 1.385 . S
C2046 C2045 1.374 . S
C2047 C2044 1.499 . S
C2047 C2048 1.373 . S
C2047 C2049 1.389 . S
C2048 H2021 0.950 . S
C2048 C2034 1.377 . S
C2048 C2047 1.373 . S
C2049 C2033 1.377 . S
C2049 C2047 1.389 . S
C2049 C2050 1.524 . S
C2050 C2049 1.524 . S
C2050 C2051 1.397 . S
C2050 C2055 1.363 . S
C2051 H2022 0.950 . S
C2051 C2050 1.397 . S
C2051 C2052 1.334 . S
C2052 H2023 0.950 . S
C2052 C2051 1.334 . S
C2052 C2053 1.287 . S
C2053 C2052 1.287 . S
C2053 C2054 1.524 . S
C2053 H2056 0.999 . S
C2054 H2024 0.950 . S
C2054 C2053 1.524 . S
C2054 C2055 1.415 . S
C2055 H2025 0.950 . S
C2055 C2050 1.363 . S
C2055 C2054 1.415 . S
H2056 C2053 0.999 . S
H2057 C2038 0.913 . S
H2058 C2076 0.951 . S
H2059 C2078 0.951 . S
H2060 C2080 0.950 . S
H2061 C2081 0.950 . S
H2062 C2083 0.950 . S
H2063 C2086 0.950 . S
H2064 C2087 0.950 . S
H2065 C2089 0.950 . S
H2066 C2090 0.979 . S
H2067 C2091 0.951 . S
H2068 C2093 0.951 . S
H2069 C2095 0.950 . S
H2070 C2096 0.950 . S
H2071 C2098 0.950 . S
H2072 C2101 0.950 . S
H2073 C2102 0.950 . S
H2074 C2104 0.950 . S
H2075 C2105 0.950 . S
C2076 H2058 0.951 . S
C2076 C2077 1.366 . S
C2076 C2078 1.388 . S
C2077 C2076 1.366 . S
C2077 C2081 1.385 . S
C2078 H2059 0.951 . S
C2078 C2076 1.388 . S
C2078 C2079 1.366 . S
C2079 C2078 1.366 . S
C2079 C2080 1.414 . S
C2079 C2082 1.499 1_545 S
C2080 H2060 0.950 . S
C2080 C2079 1.414 . S
C2080 C2081 1.374 . S
C2081 H2061 0.950 . S
C2081 C2077 1.385 . S
C2081 C2080 1.374 . S
C2082 C2079 1.499 1_565 S
C2082 C2083 1.373 . S
C2082 C2084 1.389 . S
C2083 H2062 0.950 . S
C2083 C2082 1.373 . S
C2083 C2099 1.377 . S
C2084 C2082 1.389 . S
C2084 C2085 1.524 1_565 S
C2084 C2098 1.377 . S
C2085 C2084 1.524 1_545 S
C2085 C2086 1.397 . S
C2085 C2090 1.359 1_545 S
C2086 H2063 0.950 . S
C2086 C2085 1.397 . S
C2086 C2087 1.334 . S
C2087 H2064 0.950 . S
C2087 C2086 1.334 . S
C2087 C2088 1.287 . S
C2088 C2087 1.287 . S
C2088 C2089 1.524 . S
C2088 H2107 0.913 . S
C2089 H2065 0.950 . S
C2089 C2088 1.524 . S
C2089 C2090 1.391 1_545 S
C2090 H2066 0.979 . S
C2090 C2085 1.359 1_565 S
C2090 C2089 1.391 1_565 S
C2091 H2067 0.951 . S
C2091 C2092 1.366 . S
C2091 C2093 1.388 . S
C2092 C2091 1.366 . S
C2092 C2096 1.385 . S
C2093 H2068 0.951 . S
C2093 C2091 1.388 . S
C2093 C2094 1.366 . S
C2094 C2093 1.366 . S
C2094 C2095 1.414 . S
C2094 C2097 1.499 . S
C2095 H2069 0.950 . S
C2095 C2094 1.414 . S
C2095 C2096 1.374 . S
C2096 H2070 0.950 . S
C2096 C2092 1.385 . S
C2096 C2095 1.374 . S
C2097 C2094 1.499 . S
C2097 C2098 1.373 . S
C2097 C2099 1.389 . S
C2098 H2071 0.950 . S
C2098 C2084 1.377 . S
C2098 C2097 1.373 . S
C2099 C2083 1.377 . S
C2099 C2097 1.389 . S
C2099 C2100 1.524 . S
C2100 C2099 1.524 . S
C2100 C2101 1.397 . S
C2100 C2105 1.363 . S
C2101 H2072 0.950 . S
C2101 C2100 1.397 . S
C2101 C2102 1.334 . S
C2102 H2073 0.950 . S
C2102 C2101 1.334 . S
C2102 C2103 1.287 . S
C2103 C2102 1.287 . S
C2103 C2104 1.524 . S
C2103 H2106 0.999 . S
C2104 H2074 0.950 . S
C2104 C2103 1.524 . S
C2104 C2105 1.415 . S
C2105 H2075 0.950 . S
C2105 C2100 1.363 . S
C2105 C2104 1.415 . S
H2106 C2103 0.999 . S
H2107 C2088 0.913 . S
H2108 C2126 0.951 . S
H2109 C2128 0.951 1_455 S
H2110 C2130 0.954 1_455 S
H2111 C2131 0.950 . S
H2112 C2133 0.950 . S
H2113 C2136 0.950 . S
H2114 C2137 0.950 . S
H2115 C2139 0.950 . S
H2116 C2140 0.950 . S
H2117 C2141 0.951 . S
H2118 C2143 0.951 . S
H2119 C2145 0.950 . S
H2120 C2146 0.950 . S
H2121 C2148 0.950 . S
H2122 C2151 0.950 . S
H2123 C2152 0.950 . S
H2124 C2154 0.950 . S
H2125 C2155 0.950 . S
C2126 H2108 0.951 . S
C2126 C2127 1.366 . S
C2126 C2128 1.388 . S
C2127 C2126 1.366 . S
C2127 C2131 1.385 . S
C2128 H2109 0.951 1_655 S
C2128 C2126 1.388 . S
C2128 C2129 1.366 1_655 S
C2129 C2128 1.366 1_455 S
C2129 C2130 1.414 1_455 S
C2129 C2132 1.499 . S
C2130 H2110 0.954 1_655 S
C2130 C2129 1.414 1_655 S
C2130 C2131 1.374 . S
C2131 H2111 0.950 . S
C2131 C2127 1.385 . S
C2131 C2130 1.374 . S
C2132 C2129 1.499 . S
C2132 C2133 1.373 . S
C2132 C2134 1.389 . S
C2133 H2112 0.950 . S
C2133 C2132 1.373 . S
C2133 C2149 1.377 . S
C2134 C2132 1.389 . S
C2134 C2135 1.524 . S
C2134 C2148 1.377 . S
C2135 C2134 1.524 . S
C2135 C2136 1.397 . S
C2135 C2140 1.363 . S
C2136 H2113 0.950 . S
C2136 C2135 1.397 . S
C2136 C2137 1.334 . S
C2137 H2114 0.950 . S
C2137 C2136 1.334 . S
C2137 C2138 1.287 . S
C2138 C2137 1.287 . S
C2138 C2139 1.524 . S
C2138 H2157 0.913 . S
C2139 H2115 0.950 . S
C2139 C2138 1.524 . S
C2139 C2140 1.415 . S
C2140 H2116 0.950 . S
C2140 C2135 1.363 . S
C2140 C2139 1.415 . S
C2141 H2117 0.951 . S
C2141 C2142 1.366 . S
C2141 C2143 1.388 . S
C2142 C2141 1.366 . S
C2142 C2146 1.385 . S
C2143 H2118 0.951 . S
C2143 C2141 1.388 . S
C2143 C2144 1.366 . S
C2144 C2143 1.366 . S
C2144 C2145 1.414 . S
C2144 C2147 1.499 . S
C2145 H2119 0.950 . S
C2145 C2144 1.414 . S
C2145 C2146 1.374 . S
C2146 H2120 0.950 . S
C2146 C2142 1.385 . S
C2146 C2145 1.374 . S
C2147 C2144 1.499 . S
C2147 C2148 1.373 . S
C2147 C2149 1.389 . S
C2148 H2121 0.950 . S
C2148 C2134 1.377 . S
C2148 C2147 1.373 . S
C2149 C2133 1.377 . S
C2149 C2147 1.389 . S
C2149 C2150 1.524 . S
C2150 C2149 1.524 . S
C2150 C2151 1.397 . S
C2150 C2155 1.363 . S
C2151 H2122 0.950 . S
C2151 C2150 1.397 . S
C2151 C2152 1.334 . S
C2152 H2123 0.950 . S
C2152 C2151 1.334 . S
C2152 C2153 1.287 . S
C2153 C2152 1.287 . S
C2153 C2154 1.524 . S
C2153 H2156 0.999 . S
C2154 H2124 0.950 . S
C2154 C2153 1.524 . S
C2154 C2155 1.415 . S
C2155 H2125 0.950 . S
C2155 C2150 1.363 . S
C2155 C2154 1.415 . S
H2156 C2153 0.999 . S
H2157 C2138 0.913 . S
H2158 C2176 0.951 . S
H2159 C2178 0.951 . S
H2160 C2180 0.950 . S
H2161 C2181 0.950 . S
H2162 C2183 0.950 . S
H2163 C2186 0.950 . S
H2164 C2187 0.950 . S
H2165 C2189 0.950 . S
H2166 C2190 0.950 . S
H2167 C2191 0.951 . S
H2168 C2193 0.951 . S
H2169 C2195 0.950 . S
H2170 C2196 0.950 . S
H2171 C2198 0.950 . S
H2172 C2201 0.950 . S
H2173 C2202 0.950 . S
H2174 C2204 0.950 . S
H2175 C2205 0.950 . S
C2176 H2158 0.951 . S
C2176 C2177 1.366 . S
C2176 C2178 1.388 . S
C2177 C2176 1.366 . S
C2177 C2181 1.385 . S
C2178 H2159 0.951 . S
C2178 C2176 1.388 . S
C2178 C2179 1.366 . S
C2179 C2178 1.366 . S
C2179 C2180 1.414 . S
C2179 C2182 1.499 . S
C2180 H2160 0.950 . S
C2180 C2179 1.414 . S
C2180 C2181 1.374 . S
C2181 H2161 0.950 . S
C2181 C2177 1.385 . S
C2181 C2180 1.374 . S
C2182 C2179 1.499 . S
C2182 C2183 1.373 . S
C2182 C2184 1.389 . S
C2183 H2162 0.950 . S
C2183 C2182 1.373 . S
C2183 C2199 1.377 . S
C2184 C2182 1.389 . S
C2184 C2185 1.524 . S
C2184 C2198 1.377 . S
C2185 C2184 1.524 . S
C2185 C2186 1.397 . S
C2185 C2190 1.363 . S
C2186 H2163 0.950 . S
C2186 C2185 1.397 . S
C2186 C2187 1.334 . S
C2187 H2164 0.950 . S
C2187 C2186 1.334 . S
C2187 C2188 1.287 . S
C2188 C2187 1.287 . S
C2188 C2189 1.524 . S
C2188 H2207 0.913 . S
C2189 H2165 0.950 . S
C2189 C2188 1.524 . S
C2189 C2190 1.415 . S
C2190 H2166 0.950 . S
C2190 C2185 1.363 . S
C2190 C2189 1.415 . S
C2191 H2167 0.951 . S
C2191 C2192 1.366 . S
C2191 C2193 1.388 . S
C2192 C2191 1.366 . S
C2192 C2196 1.385 . S
C2193 H2168 0.951 . S
C2193 C2191 1.388 . S
C2193 C2194 1.366 . S
C2194 C2193 1.366 . S
C2194 C2195 1.414 . S
C2194 C2197 1.499 . S
C2195 H2169 0.950 . S
C2195 C2194 1.414 . S
C2195 C2196 1.374 . S
C2196 H2170 0.950 . S
C2196 C2192 1.385 . S
C2196 C2195 1.374 . S
C2197 C2194 1.499 . S
C2197 C2198 1.373 . S
C2197 C2199 1.389 . S
C2198 H2171 0.950 . S
C2198 C2184 1.377 . S
C2198 C2197 1.373 . S
C2199 C2183 1.377 . S
C2199 C2197 1.389 . S
C2199 C2200 1.524 . S
C2200 C2199 1.524 . S
C2200 C2201 1.397 . S
C2200 C2205 1.363 . S
C2201 H2172 0.950 . S
C2201 C2200 1.397 . S
C2201 C2202 1.334 . S
C2202 H2173 0.950 . S
C2202 C2201 1.334 . S
C2202 C2203 1.287 . S
C2203 C2202 1.287 . S
C2203 C2204 1.524 . S
C2203 H2206 0.999 . S
C2204 H2174 0.950 . S
C2204 C2203 1.524 . S
C2204 C2205 1.415 . S
C2205 H2175 0.950 . S
C2205 C2200 1.363 . S
C2205 C2204 1.415 . S
H2206 C2203 0.999 . S
H2207 C2188 0.913 . S
H2208 C2226 0.951 . S
H2209 C2228 0.951 . S
H2210 C2230 0.950 . S
H2211 C2231 0.950 . S
H2212 C2233 0.950 . S
H2213 C2236 0.950 . S
H2214 C2237 0.950 . S
H2215 C2239 0.950 . S
H2216 C2240 0.950 . S
H2217 C2241 0.951 . S
H2218 C2243 0.951 . S
H2219 C2245 0.950 . S
H2220 C2246 0.950 . S
H2221 C2248 0.950 . S
H2222 C2251 0.950 . S
H2223 C2252 0.950 . S
H2224 C2254 0.950 . S
H2225 C2255 0.950 . S
C2226 H2208 0.951 . S
C2226 C2227 1.366 . S
C2226 C2228 1.388 . S
C2227 C2226 1.366 . S
C2227 C2231 1.385 . S
C2228 H2209 0.951 . S
C2228 C2226 1.388 . S
C2228 C2229 1.366 . S
C2229 C2228 1.366 . S
C2229 C2230 1.414 . S
C2229 C2232 1.499 . S
C2230 H2210 0.950 . S
C2230 C2229 1.414 . S
C2230 C2231 1.374 . S
C2231 H2211 0.950 . S
C2231 C2227 1.385 . S
C2231 C2230 1.374 . S
C2232 C2229 1.499 . S
C2232 C2233 1.373 . S
C2232 C2234 1.389 . S
C2233 H2212 0.950 . S
C2233 C2232 1.373 . S
C2233 C2249 1.377 . S
C2234 C2232 1.389 . S
C2234 C2235 1.524 . S
C2234 C2248 1.377 . S
C2235 C2234 1.524 . S
C2235 C2236 1.397 . S
C2235 C2240 1.363 . S
C2236 H2213 0.950 . S
C2236 C2235 1.397 . S
C2236 C2237 1.334 . S
C2237 H2214 0.950 . S
C2237 C2236 1.334 . S
C2237 C2238 1.287 . S
C2238 C2237 1.287 . S
C2238 C2239 1.524 . S
C2238 H2257 0.913 . S
C2239 H2215 0.950 . S
C2239 C2238 1.524 . S
C2239 C2240 1.415 . S
C2240 H2216 0.950 . S
C2240 C2235 1.363 . S
C2240 C2239 1.415 . S
C2241 H2217 0.951 . S
C2241 C2242 1.366 . S
C2241 C2243 1.388 . S
C2242 C2241 1.366 . S
C2242 C2246 1.385 . S
C2243 H2218 0.951 . S
C2243 C2241 1.388 . S
C2243 C2244 1.366 . S
C2244 C2243 1.366 . S
C2244 C2245 1.414 . S
C2244 C2247 1.499 . S
C2245 H2219 0.950 . S
C2245 C2244 1.414 . S
C2245 C2246 1.374 . S
C2246 H2220 0.950 . S
C2246 C2242 1.385 . S
C2246 C2245 1.374 . S
C2247 C2244 1.499 . S
C2247 C2248 1.373 . S
C2247 C2249 1.389 . S
C2248 H2221 0.950 . S
C2248 C2234 1.377 . S
C2248 C2247 1.373 . S
C2249 C2233 1.377 . S
C2249 C2247 1.389 . S
C2249 C2250 1.524 . S
C2250 C2249 1.524 . S
C2250 C2251 1.397 . S
C2250 C2255 1.363 . S
C2251 H2222 0.950 . S
C2251 C2250 1.397 . S
C2251 C2252 1.334 . S
C2252 H2223 0.950 . S
C2252 C2251 1.334 . S
C2252 C2253 1.287 . S
C2253 C2252 1.287 . S
C2253 C2254 1.524 . S
C2253 H2256 0.999 . S
C2254 H2224 0.950 . S
C2254 C2253 1.524 . S
C2254 C2255 1.415 . S
C2255 H2225 0.950 . S
C2255 C2250 1.363 . S
C2255 C2254 1.415 . S
H2256 C2253 0.999 . S
H2257 C2238 0.913 . S
H2258 C2276 0.951 . S
H2259 C2278 0.951 . S
H2260 C2280 0.950 . S
H2261 C2281 0.950 . S
H2262 C2283 0.950 . S
H2263 C2286 0.950 . S
H2264 C2287 0.950 . S
H2265 C2289 0.950 . S
H2266 C2290 0.950 . S
H2267 C2291 0.951 . S
H2268 C2293 0.951 . S
H2269 C2295 0.950 . S
H2270 C2296 0.950 . S
H2271 C2298 0.950 . S
H2272 C2301 0.950 . S
H2273 C2302 0.950 . S
H2274 C2304 0.950 . S
H2275 C2305 0.950 . S
C2276 H2258 0.951 . S
C2276 C2277 1.366 . S
C2276 C2278 1.388 . S
C2277 C2276 1.366 . S
C2277 C2281 1.385 . S
C2278 H2259 0.951 . S
C2278 C2276 1.388 . S
C2278 C2279 1.366 . S
C2279 C2278 1.366 . S
C2279 C2280 1.414 . S
C2279 C2282 1.499 . S
C2280 H2260 0.950 . S
C2280 C2279 1.414 . S
C2280 C2281 1.374 . S
C2281 H2261 0.950 . S
C2281 C2277 1.385 . S
C2281 C2280 1.374 . S
C2282 C2279 1.499 . S
C2282 C2283 1.373 . S
C2282 C2284 1.389 . S
C2283 H2262 0.950 . S
C2283 C2282 1.373 . S
C2283 C2299 1.377 . S
C2284 C2282 1.389 . S
C2284 C2285 1.524 . S
C2284 C2298 1.377 . S
C2285 C2284 1.524 . S
C2285 C2286 1.397 . S
C2285 C2290 1.363 . S
C2286 H2263 0.950 . S
C2286 C2285 1.397 . S
C2286 C2287 1.334 . S
C2287 H2264 0.950 . S
C2287 C2286 1.334 . S
C2287 C2288 1.287 . S
C2288 C2287 1.287 . S
C2288 C2289 1.524 . S
C2288 H2307 0.913 . S
C2289 H2265 0.950 . S
C2289 C2288 1.524 . S
C2289 C2290 1.415 . S
C2290 H2266 0.950 . S
C2290 C2285 1.363 . S
C2290 C2289 1.415 . S
C2291 H2267 0.951 . S
C2291 C2292 1.366 . S
C2291 C2293 1.388 . S
C2292 C2291 1.366 . S
C2292 C2296 1.385 . S
C2293 H2268 0.951 . S
C2293 C2291 1.388 . S
C2293 C2294 1.366 . S
C2294 C2293 1.366 . S
C2294 C2295 1.414 . S
C2294 C2297 1.499 . S
C2295 H2269 0.950 . S
C2295 C2294 1.414 . S
C2295 C2296 1.374 . S
C2296 H2270 0.950 . S
C2296 C2292 1.385 . S
C2296 C2295 1.374 . S
C2297 C2294 1.499 . S
C2297 C2298 1.373 . S
C2297 C2299 1.389 . S
C2298 H2271 0.950 . S
C2298 C2284 1.377 . S
C2298 C2297 1.373 . S
C2299 C2283 1.377 . S
C2299 C2297 1.389 . S
C2299 C2300 1.524 . S
C2300 C2299 1.524 . S
C2300 C2301 1.397 . S
C2300 C2305 1.363 . S
C2301 H2272 0.950 . S
C2301 C2300 1.397 . S
C2301 C2302 1.334 . S
C2302 H2273 0.950 . S
C2302 C2301 1.334 . S
C2302 C2303 1.287 . S
C2303 C2302 1.287 . S
C2303 C2304 1.524 . S
C2303 H2306 0.999 . S
C2304 H2274 0.950 . S
C2304 C2303 1.524 . S
C2304 C2305 1.415 . S
C2305 H2275 0.950 . S
C2305 C2300 1.363 . S
C2305 C2304 1.415 . S
H2306 C2303 0.999 . S
H2307 C2288 0.913 . S
H2308 C2326 0.951 . S
H2309 C2328 0.951 . S
H2310 C2330 0.950 . S
H2311 C2331 0.950 . S
H2312 C2333 0.950 . S
H2313 C2336 0.950 . S
H2314 C2337 0.950 . S
H2315 C2339 0.950 . S
H2316 C2340 0.950 . S
H2317 C2341 0.951 . S
H2318 C2343 0.951 . S
H2319 C2345 0.950 . S
H2320 C2346 0.950 . S
H2321 C2348 0.950 . S
H2322 C2351 0.950 . S
H2323 C2352 0.950 . S
H2324 C2354 0.950 . S
H2325 C2355 0.950 . S
C2326 H2308 0.951 . S
C2326 C2327 1.366 . S
C2326 C2328 1.388 . S
C2327 C2326 1.366 . S
C2327 C2331 1.385 . S
C2328 H2309 0.951 . S
C2328 C2326 1.388 . S
C2328 C2329 1.366 . S
C2329 C2328 1.366 . S
C2329 C2330 1.414 . S
C2329 C2332 1.499 . S
C2330 H2310 0.950 . S
C2330 C2329 1.414 . S
C2330 C2331 1.374 . S
C2331 H2311 0.950 . S
C2331 C2327 1.385 . S
C2331 C2330 1.374 . S
C2332 C2329 1.499 . S
C2332 C2333 1.373 . S
C2332 C2334 1.389 . S
C2333 H2312 0.950 . S
C2333 C2332 1.373 . S
C2333 C2349 1.377 . S
C2334 C2332 1.389 . S
C2334 C2335 1.524 . S
C2334 C2348 1.377 . S
C2335 C2334 1.524 . S
C2335 C2336 1.397 . S
C2335 C2340 1.363 . S
C2336 H2313 0.950 . S
C2336 C2335 1.397 . S
C2336 C2337 1.334 . S
C2337 H2314 0.950 . S
C2337 C2336 1.334 . S
C2337 C2338 1.287 . S
C2338 C2337 1.287 . S
C2338 C2339 1.524 . S
C2338 H2357 0.913 . S
C2339 H2315 0.950 . S
C2339 C2338 1.524 . S
C2339 C2340 1.415 . S
C2340 H2316 0.950 . S
C2340 C2335 1.363 . S
C2340 C2339 1.415 . S
C2341 H2317 0.951 . S
C2341 C2342 1.366 . S
C2341 C2343 1.388 . S
C2342 C2341 1.366 . S
C2342 C2346 1.385 . S
C2343 H2318 0.951 . S
C2343 C2341 1.388 . S
C2343 C2344 1.366 . S
C2344 C2343 1.366 . S
C2344 C2345 1.414 . S
C2344 C2347 1.499 . S
C2345 H2319 0.950 . S
C2345 C2344 1.414 . S
C2345 C2346 1.374 . S
C2346 H2320 0.950 . S
C2346 C2342 1.385 . S
C2346 C2345 1.374 . S
C2347 C2344 1.499 . S
C2347 C2348 1.373 . S
C2347 C2349 1.389 . S
C2348 H2321 0.950 . S
C2348 C2334 1.377 . S
C2348 C2347 1.373 . S
C2349 C2333 1.377 . S
C2349 C2347 1.389 . S
C2349 C2350 1.524 . S
C2350 C2349 1.524 . S
C2350 C2351 1.397 . S
C2350 C2355 1.363 . S
C2351 H2322 0.950 . S
C2351 C2350 1.397 . S
C2351 C2352 1.334 . S
C2352 H2323 0.950 . S
C2352 C2351 1.334 . S
C2352 C2353 1.287 . S
C2353 C2352 1.287 . S
C2353 C2354 1.524 . S
C2353 H2356 0.999 . S
C2354 H2324 0.950 . S
C2354 C2353 1.524 . S
C2354 C2355 1.415 . S
C2355 H2325 0.950 . S
C2355 C2350 1.363 . S
C2355 C2354 1.415 . S
H2356 C2353 0.999 . S
H2357 C2338 0.913 . S
H2358 C2376 0.951 . S
H2359 C2378 0.951 . S
H2360 C2380 0.950 . S
H2361 C2381 0.950 . S
H2362 C2383 0.950 . S
H2363 C2386 0.918 1_565 S
H2364 C2387 0.950 . S
H2365 C2389 0.950 . S
H2366 C2390 0.950 . S
H2367 C2391 0.951 . S
H2368 C2393 0.951 . S
H2369 C2395 0.950 . S
H2370 C2396 0.950 . S
H2371 C2398 0.950 . S
H2372 C2401 0.950 . S
H2373 C2402 0.950 . S
H2374 C2404 0.950 . S
H2375 C2405 0.950 . S
C2376 H2358 0.951 . S
C2376 C2377 1.366 . S
C2376 C2378 1.388 . S
C2377 C2376 1.366 . S
C2377 C2381 1.385 . S
C2378 H2359 0.951 . S
C2378 C2376 1.388 . S
C2378 C2379 1.366 . S
C2379 C2378 1.366 . S
C2379 C2380 1.414 . S
C2379 C2382 1.499 1_565 S
C2380 H2360 0.950 . S
C2380 C2379 1.414 . S
C2380 C2381 1.374 . S
C2381 H2361 0.950 . S
C2381 C2377 1.385 . S
C2381 C2380 1.374 . S
C2382 C2379 1.499 1_545 S
C2382 C2383 1.373 . S
C2382 C2384 1.389 . S
C2383 H2362 0.950 . S
C2383 C2382 1.373 . S
C2383 C2399 1.377 . S
C2384 C2382 1.389 . S
C2384 C2385 1.524 . S
C2384 C2398 1.377 . S
C2385 C2384 1.524 . S
C2385 C2386 1.397 . S
C2385 C2390 1.363 . S
C2386 H2363 0.918 1_545 S
C2386 C2385 1.397 . S
C2386 C2387 1.334 1_545 S
C2387 H2364 0.950 . S
C2387 C2386 1.334 1_565 S
C2387 C2388 1.303 . S
C2388 C2387 1.303 . S
C2388 C2389 1.514 1_565 S
C2388 H2407 0.909 . S
C2389 H2365 0.950 . S
C2389 C2388 1.514 1_545 S
C2389 C2390 1.415 . S
C2390 H2366 0.950 . S
C2390 C2385 1.363 . S
C2390 C2389 1.415 . S
C2391 H2367 0.951 . S
C2391 C2392 1.366 . S
C2391 C2393 1.388 . S
C2392 C2391 1.366 . S
C2392 C2396 1.385 . S
C2393 H2368 0.951 . S
C2393 C2391 1.388 . S
C2393 C2394 1.366 . S
C2394 C2393 1.366 . S
C2394 C2395 1.414 . S
C2394 C2397 1.499 . S
C2395 H2369 0.950 . S
C2395 C2394 1.414 . S
C2395 C2396 1.374 . S
C2396 H2370 0.950 . S
C2396 C2392 1.385 . S
C2396 C2395 1.374 . S
C2397 C2394 1.499 . S
C2397 C2398 1.373 . S
C2397 C2399 1.389 . S
C2398 H2371 0.950 . S
C2398 C2384 1.377 . S
C2398 C2397 1.373 . S
C2399 C2383 1.377 . S
C2399 C2397 1.389 . S
C2399 C2400 1.524 . S
C2400 C2399 1.524 . S
C2400 C2401 1.397 . S
C2400 C2405 1.363 . S
C2401 H2372 0.950 . S
C2401 C2400 1.397 . S
C2401 C2402 1.334 . S
C2402 H2373 0.950 . S
C2402 C2401 1.334 . S
C2402 C2403 1.287 . S
C2403 C2402 1.287 . S
C2403 C2404 1.524 . S
C2403 H2406 0.999 . S
C2404 H2374 0.950 . S
C2404 C2403 1.524 . S
C2404 C2405 1.415 . S
C2405 H2375 0.950 . S
C2405 C2400 1.363 . S
C2405 C2404 1.415 . S
H2406 C2403 0.999 . S
H2407 C2388 0.909 . S
H2408 C2426 0.951 . S
H2409 C2428 0.951 . S
H2410 C2430 0.950 . S
H2411 C2431 0.950 . S
H2412 C2433 0.950 . S
H2413 C2436 0.950 . S
H2414 C2437 0.950 1_455 S
H2415 C2439 0.950 . S
H2416 C2440 0.950 . S
H2417 C2441 0.951 . S
H2418 C2443 0.951 . S
H2419 C2445 0.950 . S
H2420 C2446 0.950 . S
H2421 C2448 0.950 . S
H2422 C2451 0.950 . S
H2423 C2452 0.950 . S
H2424 C2454 0.950 . S
H2425 C2455 0.950 . S
C2426 H2408 0.951 . S
C2426 C2427 1.366 . S
C2426 C2428 1.388 1_455 S
C2427 C2426 1.366 . S
C2427 C2431 1.385 . S
C2428 H2409 0.951 . S
C2428 C2426 1.388 1_655 S
C2428 C2429 1.366 . S
C2429 C2428 1.366 . S
C2429 C2430 1.414 1_655 S
C2429 C2432 1.499 . S
C2430 H2410 0.950 . S
C2430 C2429 1.414 1_455 S
C2430 C2431 1.374 . S
C2431 H2411 0.950 . S
C2431 C2427 1.385 . S
C2431 C2430 1.374 . S
C2432 C2429 1.499 . S
C2432 C2433 1.373 . S
C2432 C2434 1.389 . S
C2433 H2412 0.950 . S
C2433 C2432 1.373 . S
C2433 C2449 1.377 . S
C2434 C2432 1.389 . S
C2434 C2435 1.524 . S
C2434 C2448 1.377 . S
C2435 C2434 1.524 . S
C2435 C2436 1.397 . S
C2435 C2440 1.363 . S
C2436 H2413 0.950 . S
C2436 C2435 1.397 . S
C2436 C2437 1.334 . S
C2437 H2414 0.950 1_655 S
C2437 C2436 1.334 . S
C2437 C2438 1.287 . S
C2438 C2437 1.287 . S
C2438 C2439 1.524 . S
C2438 H2457 0.913 . S
C2439 H2415 0.950 . S
C2439 C2438 1.524 . S
C2439 C2440 1.415 . S
C2440 H2416 0.950 . S
C2440 C2435 1.363 . S
C2440 C2439 1.415 . S
C2441 H2417 0.951 . S
C2441 C2442 1.366 . S
C2441 C2443 1.388 . S
C2442 C2441 1.366 . S
C2442 C2446 1.385 . S
C2443 H2418 0.951 . S
C2443 C2441 1.388 . S
C2443 C2444 1.366 . S
C2444 C2443 1.366 . S
C2444 C2445 1.414 . S
C2444 C2447 1.499 . S
C2445 H2419 0.950 . S
C2445 C2444 1.414 . S
C2445 C2446 1.374 . S
C2446 H2420 0.950 . S
C2446 C2442 1.385 . S
C2446 C2445 1.374 . S
C2447 C2444 1.499 . S
C2447 C2448 1.373 . S
C2447 C2449 1.389 . S
C2448 H2421 0.950 . S
C2448 C2434 1.377 . S
C2448 C2447 1.373 . S
C2449 C2433 1.377 . S
C2449 C2447 1.389 . S
C2449 C2450 1.524 . S
C2450 C2449 1.524 . S
C2450 C2451 1.397 . S
C2450 C2455 1.363 . S
C2451 H2422 0.950 . S
C2451 C2450 1.397 . S
C2451 C2452 1.334 . S
C2452 H2423 0.950 . S
C2452 C2451 1.334 . S
C2452 C2453 1.287 . S
C2453 C2452 1.287 . S
C2453 C2454 1.524 . S
C2453 H2456 0.999 . S
C2454 H2424 0.950 . S
C2454 C2453 1.524 . S
C2454 C2455 1.415 . S
C2455 H2425 0.950 . S
C2455 C2450 1.363 . S
C2455 C2454 1.415 . S
H2456 C2453 0.999 . S
H2457 C2438 0.913 . S
H2458 C2476 0.951 . S
H2459 C2478 0.951 . S
H2460 C2480 0.950 . S
H2461 C2481 0.950 . S
H2462 C2483 0.950 . S
H2463 C2486 0.950 . S
H2464 C2487 0.950 . S
H2465 C2489 0.950 . S
H2466 C2490 0.950 . S
H2467 C2491 0.951 . S
H2468 C2493 0.951 . S
H2469 C2495 0.950 . S
H2470 C2496 0.950 . S
H2471 C2498 0.950 . S
H2472 C2501 0.950 . S
H2473 C2502 0.950 . S
H2474 C2504 0.950 . S
H2475 C2505 0.950 . S
C2476 H2458 0.951 . S
C2476 C2477 1.366 . S
C2476 C2478 1.388 . S
C2477 C2476 1.366 . S
C2477 C2481 1.385 . S
C2478 H2459 0.951 . S
C2478 C2476 1.388 . S
C2478 C2479 1.366 . S
C2479 C2478 1.366 . S
C2479 C2480 1.414 . S
C2479 C2482 1.499 . S
C2480 H2460 0.950 . S
C2480 C2479 1.414 . S
C2480 C2481 1.374 . S
C2481 H2461 0.950 . S
C2481 C2477 1.385 . S
C2481 C2480 1.374 . S
C2482 C2479 1.499 . S
C2482 C2483 1.373 . S
C2482 C2484 1.389 . S
C2483 H2462 0.950 . S
C2483 C2482 1.373 . S
C2483 C2499 1.377 . S
C2484 C2482 1.389 . S
C2484 C2485 1.524 . S
C2484 C2498 1.377 . S
C2485 C2484 1.524 . S
C2485 C2486 1.397 . S
C2485 C2490 1.363 . S
C2486 H2463 0.950 . S
C2486 C2485 1.397 . S
C2486 C2487 1.334 . S
C2487 H2464 0.950 . S
C2487 C2486 1.334 . S
C2487 C2488 1.287 . S
C2488 C2487 1.287 . S
C2488 C2489 1.524 . S
C2488 H2507 0.913 . S
C2489 H2465 0.950 . S
C2489 C2488 1.524 . S
C2489 C2490 1.415 . S
C2490 H2466 0.950 . S
C2490 C2485 1.363 . S
C2490 C2489 1.415 . S
C2491 H2467 0.951 . S
C2491 C2492 1.366 . S
C2491 C2493 1.388 . S
C2492 C2491 1.366 . S
C2492 C2496 1.385 . S
C2493 H2468 0.951 . S
C2493 C2491 1.388 . S
C2493 C2494 1.366 . S
C2494 C2493 1.366 . S
C2494 C2495 1.414 . S
C2494 C2497 1.499 . S
C2495 H2469 0.950 . S
C2495 C2494 1.414 . S
C2495 C2496 1.374 . S
C2496 H2470 0.950 . S
C2496 C2492 1.385 . S
C2496 C2495 1.374 . S
C2497 C2494 1.499 . S
C2497 C2498 1.373 . S
C2497 C2499 1.389 . S
C2498 H2471 0.950 . S
C2498 C2484 1.377 . S
C2498 C2497 1.373 . S
C2499 C2483 1.377 . S
C2499 C2497 1.389 . S
C2499 C2500 1.524 . S
C2500 C2499 1.524 . S
C2500 C2501 1.397 . S
C2500 C2505 1.363 . S
C2501 H2472 0.950 . S
C2501 C2500 1.397 . S
C2501 C2502 1.334 . S
C2502 H2473 0.950 . S
C2502 C2501 1.334 . S
C2502 C2503 1.287 . S
C2503 C2502 1.287 . S
C2503 C2504 1.524 . S
C2503 H2506 0.999 . S
C2504 H2474 0.950 . S
C2504 C2503 1.524 . S
C2504 C2505 1.415 . S
C2505 H2475 0.950 . S
C2505 C2500 1.363 . S
C2505 C2504 1.415 . S
H2506 C2503 0.999 . S
H2507 C2488 0.913 . S
H2508 C2526 0.951 . S
H2509 C2528 0.951 . S
H2510 C2530 0.950 . S
H2511 C2531 0.950 . S
H2512 C2533 0.950 . S
H2513 C2536 0.950 . S
H2514 C2537 0.950 . S
H2515 C2539 0.950 . S
H2516 C2540 0.950 . S
H2517 C2541 0.951 . S
H2518 C2543 0.951 . S
H2519 C2545 0.950 . S
H2520 C2546 0.950 . S
H2521 C2548 0.950 . S
H2522 C2551 0.950 . S
H2523 C2552 0.950 . S
H2524 C2554 0.950 . S
H2525 C2555 0.950 . S
C2526 H2508 0.951 . S
C2526 C2527 1.366 . S
C2526 C2528 1.388 . S
C2527 C2526 1.366 . S
C2527 C2531 1.385 . S
C2528 H2509 0.951 . S
C2528 C2526 1.388 . S
C2528 C2529 1.366 . S
C2529 C2528 1.366 . S
C2529 C2530 1.414 . S
C2529 C2532 1.499 1_455 S
C2530 H2510 0.950 . S
C2530 C2529 1.414 . S
C2530 C2531 1.374 . S
C2531 H2511 0.950 . S
C2531 C2527 1.385 . S
C2531 C2530 1.374 . S
C2532 C2529 1.499 1_655 S
C2532 C2533 1.373 . S
C2532 C2534 1.389 . S
C2533 H2512 0.950 . S
C2533 C2532 1.373 . S
C2533 C2549 1.377 . S
C2534 C2532 1.389 . S
C2534 C2535 1.524 . S
C2534 C2548 1.377 . S
C2535 C2534 1.524 . S
C2535 C2536 1.397 1_655 S
C2535 C2540 1.363 . S
C2536 H2513 0.950 . S
C2536 C2535 1.397 1_455 S
C2536 C2537 1.334 . S
C2537 H2514 0.950 . S
C2537 C2536 1.334 . S
C2537 C2538 1.287 . S
C2538 C2537 1.287 . S
C2538 C2539 1.524 1_455 S
C2538 H2557 0.913 . S
C2539 H2515 0.950 . S
C2539 C2538 1.524 1_655 S
C2539 C2540 1.415 . S
C2540 H2516 0.950 . S
C2540 C2535 1.363 . S
C2540 C2539 1.415 . S
C2541 H2517 0.951 . S
C2541 C2542 1.366 . S
C2541 C2543 1.388 . S
C2542 C2541 1.366 . S
C2542 C2546 1.385 . S
C2543 H2518 0.951 . S
C2543 C2541 1.388 . S
C2543 C2544 1.366 . S
C2544 C2543 1.366 . S
C2544 C2545 1.414 . S
C2544 C2547 1.499 . S
C2545 H2519 0.950 . S
C2545 C2544 1.414 . S
C2545 C2546 1.374 . S
C2546 H2520 0.950 . S
C2546 C2542 1.385 . S
C2546 C2545 1.374 . S
C2547 C2544 1.499 . S
C2547 C2548 1.373 . S
C2547 C2549 1.389 . S
C2548 H2521 0.950 . S
C2548 C2534 1.377 . S
C2548 C2547 1.373 . S
C2549 C2533 1.377 . S
C2549 C2547 1.389 . S
C2549 C2550 1.524 . S
C2550 C2549 1.524 . S
C2550 C2551 1.397 . S
C2550 C2555 1.363 . S
C2551 H2522 0.950 . S
C2551 C2550 1.397 . S
C2551 C2552 1.334 . S
C2552 H2523 0.950 . S
C2552 C2551 1.334 . S
C2552 C2553 1.287 . S
C2553 C2552 1.287 . S
C2553 C2554 1.524 . S
C2553 H2556 0.999 . S
C2554 H2524 0.950 . S
C2554 C2553 1.524 . S
C2554 C2555 1.415 . S
C2555 H2525 0.950 . S
C2555 C2550 1.363 . S
C2555 C2554 1.415 . S
H2556 C2553 0.999 . S
H2557 C2538 0.913 . S
H2558 C2576 0.951 . S
H2559 C2578 0.951 . S
H2560 C2580 0.950 . S
H2561 C2581 0.950 . S
H2562 C2583 0.950 . S
H2563 C2586 0.950 . S
H2564 C2587 0.950 . S
H2565 C2589 0.950 . S
H2566 C2590 0.950 . S
H2567 C2591 0.951 . S
H2568 C2593 0.951 . S
H2569 C2595 0.950 . S
H2570 C2596 0.950 . S
H2571 C2598 0.950 . S
H2572 C2601 0.950 . S
H2573 C2602 0.950 . S
H2574 C2604 0.950 . S
H2575 C2605 0.950 . S
C2576 H2558 0.951 . S
C2576 C2577 1.366 . S
C2576 C2578 1.388 . S
C2577 C2576 1.366 . S
C2577 C2581 1.385 . S
C2578 H2559 0.951 . S
C2578 C2576 1.388 . S
C2578 C2579 1.366 . S
C2579 C2578 1.366 . S
C2579 C2580 1.414 . S
C2579 C2582 1.499 . S
C2580 H2560 0.950 . S
C2580 C2579 1.414 . S
C2580 C2581 1.374 . S
C2581 H2561 0.950 . S
C2581 C2577 1.385 . S
C2581 C2580 1.374 . S
C2582 C2579 1.499 . S
C2582 C2583 1.373 . S
C2582 C2584 1.389 . S
C2583 H2562 0.950 . S
C2583 C2582 1.373 . S
C2583 C2599 1.377 . S
C2584 C2582 1.389 . S
C2584 C2585 1.524 . S
C2584 C2598 1.377 . S
C2585 C2584 1.524 . S
C2585 C2586 1.397 . S
C2585 C2590 1.363 . S
C2586 H2563 0.950 . S
C2586 C2585 1.397 . S
C2586 C2587 1.334 . S
C2587 H2564 0.950 . S
C2587 C2586 1.334 . S
C2587 C2588 1.287 . S
C2588 C2587 1.287 . S
C2588 C2589 1.524 . S
C2588 H2607 0.913 . S
C2589 H2565 0.950 . S
C2589 C2588 1.524 . S
C2589 C2590 1.415 . S
C2590 H2566 0.950 . S
C2590 C2585 1.363 . S
C2590 C2589 1.415 . S
C2591 H2567 0.951 . S
C2591 C2592 1.366 . S
C2591 C2593 1.388 . S
C2592 C2591 1.366 . S
C2592 C2596 1.385 . S
C2593 H2568 0.951 . S
C2593 C2591 1.388 . S
C2593 C2594 1.366 . S
C2594 C2593 1.366 . S
C2594 C2595 1.414 . S
C2594 C2597 1.499 . S
C2595 H2569 0.950 . S
C2595 C2594 1.414 . S
C2595 C2596 1.374 . S
C2596 H2570 0.950 . S
C2596 C2592 1.385 . S
C2596 C2595 1.374 . S
C2597 C2594 1.499 . S
C2597 C2598 1.373 . S
C2597 C2599 1.389 . S
C2598 H2571 0.950 . S
C2598 C2584 1.377 . S
C2598 C2597 1.373 . S
C2599 C2583 1.377 . S
C2599 C2597 1.389 . S
C2599 C2600 1.524 . S
C2600 C2599 1.524 . S
C2600 C2601 1.397 . S
C2600 C2605 1.363 . S
C2601 H2572 0.950 . S
C2601 C2600 1.397 . S
C2601 C2602 1.334 . S
C2602 H2573 0.950 . S
C2602 C2601 1.334 . S
C2602 C2603 1.287 . S
C2603 C2602 1.287 . S
C2603 C2604 1.524 . S
C2603 H2606 0.999 . S
C2604 H2574 0.950 . S
C2604 C2603 1.524 . S
C2604 C2605 1.415 . S
C2605 H2575 0.950 . S
C2605 C2600 1.363 . S
C2605 C2604 1.415 . S
H2606 C2603 0.999 . S
H2607 C2588 0.913 . S
H2608 C2626 0.951 . S
H2609 C2628 0.951 . S
H2610 C2630 0.950 . S
H2611 C2631 0.950 . S
H2612 C2633 0.950 . S
H2613 C2636 0.950 . S
H2614 C2637 0.950 . S
H2615 C2639 0.945 . S
H2616 C2640 0.950 . S
H2617 C2641 0.951 . S
H2618 C2643 0.951 . S
H2619 C2645 0.950 . S
H2620 C2646 0.950 . S
H2621 C2648 0.950 . S
H2622 C2651 0.950 . S
H2623 C2652 0.950 . S
H2624 C2654 0.950 . S
H2625 C2655 0.950 . S
C2626 H2608 0.951 . S
C2626 C2627 1.366 . S
C2626 C2628 1.388 . S
C2627 C2626 1.366 . S
C2627 C2631 1.385 . S
C2628 H2609 0.951 . S
C2628 C2626 1.388 . S
C2628 C2629 1.366 . S
C2629 C2628 1.366 . S
C2629 C2630 1.414 . S
C2629 C2632 1.502 1_565 S
C2630 H2610 0.950 . S
C2630 C2629 1.414 . S
C2630 C2631 1.374 . S
C2631 H2611 0.950 . S
C2631 C2627 1.385 . S
C2631 C2630 1.374 . S
C2632 C2629 1.502 1_545 S
C2632 C2633 1.373 . S
C2632 C2634 1.386 . S
C2633 H2612 0.950 . S
C2633 C2632 1.373 . S
C2633 C2649 1.377 . S
C2634 C2632 1.386 . S
C2634 C2635 1.524 . S
C2634 C2648 1.377 . S
C2635 C2634 1.524 . S
C2635 C2636 1.397 1_545 S
C2635 C2640 1.363 . S
C2636 H2613 0.950 . S
C2636 C2635 1.397 1_565 S
C2636 C2637 1.334 . S
C2637 H2614 0.950 . S
C2637 C2636 1.334 . S
C2637 C2638 1.287 . S
C2638 C2637 1.287 . S
C2638 C2639 1.528 1_565 S
C2638 H2657 0.913 . S
C2639 H2615 0.945 . S
C2639 C2638 1.528 1_545 S
C2639 C2640 1.416 . S
C2640 H2616 0.950 . S
C2640 C2635 1.363 . S
C2640 C2639 1.416 . S
C2641 H2617 0.951 . S
C2641 C2642 1.366 . S
C2641 C2643 1.388 . S
C2642 C2641 1.366 . S
C2642 C2646 1.385 . S
C2643 H2618 0.951 . S
C2643 C2641 1.388 . S
C2643 C2644 1.366 . S
C2644 C2643 1.366 . S
C2644 C2645 1.414 . S
C2644 C2647 1.499 . S
C2645 H2619 0.950 . S
C2645 C2644 1.414 . S
C2645 C2646 1.374 . S
C2646 H2620 0.950 . S
C2646 C2642 1.385 . S
C2646 C2645 1.374 . S
C2647 C2644 1.499 . S
C2647 C2648 1.373 . S
C2647 C2649 1.389 . S
C2648 H2621 0.950 . S
C2648 C2634 1.377 . S
C2648 C2647 1.373 . S
C2649 C2633 1.377 . S
C2649 C2647 1.389 . S
C2649 C2650 1.524 . S
C2650 C2649 1.524 . S
C2650 C2651 1.397 . S
C2650 C2655 1.363 . S
C2651 H2622 0.950 . S
C2651 C2650 1.397 . S
C2651 C2652 1.334 . S
C2652 H2623 0.950 . S
C2652 C2651 1.334 . S
C2652 C2653 1.287 . S
C2653 C2652 1.287 . S
C2653 C2654 1.524 . S
C2653 H2656 0.999 . S
C2654 H2624 0.950 . S
C2654 C2653 1.524 . S
C2654 C2655 1.415 . S
C2655 H2625 0.950 . S
C2655 C2650 1.363 . S
C2655 C2654 1.415 . S
H2656 C2653 0.999 . S
H2657 C2638 0.913 . S
H2658 C2676 0.951 . S
H2659 C2678 0.951 . S
H2660 C2680 0.950 . S
H2661 C2681 0.950 . S
H2662 C2683 0.950 . S
H2663 C2686 0.950 . S
H2664 C2687 0.950 . S
H2665 C2689 0.950 . S
H2666 C2690 0.950 . S
H2667 C2691 0.951 . S
H2668 C2693 0.951 . S
H2669 C2695 0.950 . S
H2670 C2696 0.950 . S
H2671 C2698 0.950 . S
H2672 C2701 0.950 . S
H2673 C2702 0.950 . S
H2674 C2704 0.950 . S
H2675 C2705 0.950 . S
C2676 H2658 0.951 . S
C2676 C2677 1.366 . S
C2676 C2678 1.388 . S
C2677 C2676 1.366 . S
C2677 C2681 1.385 . S
C2678 H2659 0.951 . S
C2678 C2676 1.388 . S
C2678 C2679 1.366 . S
C2679 C2678 1.366 . S
C2679 C2680 1.414 . S
C2679 C2682 1.499 . S
C2680 H2660 0.950 . S
C2680 C2679 1.414 . S
C2680 C2681 1.374 . S
C2681 H2661 0.950 . S
C2681 C2677 1.385 . S
C2681 C2680 1.374 . S
C2682 C2679 1.499 . S
C2682 C2683 1.373 . S
C2682 C2684 1.389 . S
C2683 H2662 0.950 . S
C2683 C2682 1.373 . S
C2683 C2699 1.377 . S
C2684 C2682 1.389 . S
C2684 C2685 1.524 . S
C2684 C2698 1.377 . S
C2685 C2684 1.524 . S
C2685 C2686 1.397 . S
C2685 C2690 1.363 . S
C2686 H2663 0.950 . S
C2686 C2685 1.397 . S
C2686 C2687 1.334 . S
C2687 H2664 0.950 . S
C2687 C2686 1.334 . S
C2687 C2688 1.287 . S
C2688 C2687 1.287 . S
C2688 C2689 1.524 . S
C2688 H2707 0.913 . S
C2689 H2665 0.950 . S
C2689 C2688 1.524 . S
C2689 C2690 1.415 . S
C2690 H2666 0.950 . S
C2690 C2685 1.363 . S
C2690 C2689 1.415 . S
C2691 H2667 0.951 . S
C2691 C2692 1.366 . S
C2691 C2693 1.388 . S
C2692 C2691 1.366 . S
C2692 C2696 1.385 . S
C2693 H2668 0.951 . S
C2693 C2691 1.388 . S
C2693 C2694 1.366 . S
C2694 C2693 1.366 . S
C2694 C2695 1.414 . S
C2694 C2697 1.499 . S
C2695 H2669 0.950 . S
C2695 C2694 1.414 . S
C2695 C2696 1.374 . S
C2696 H2670 0.950 . S
C2696 C2692 1.385 . S
C2696 C2695 1.374 . S
C2697 C2694 1.499 . S
C2697 C2698 1.373 . S
C2697 C2699 1.389 . S
C2698 H2671 0.950 . S
C2698 C2684 1.377 . S
C2698 C2697 1.373 . S
C2699 C2683 1.377 . S
C2699 C2697 1.389 . S
C2699 C2700 1.524 . S
C2700 C2699 1.524 . S
C2700 C2701 1.397 . S
C2700 C2705 1.363 . S
C2701 H2672 0.950 . S
C2701 C2700 1.397 . S
C2701 C2702 1.334 . S
C2702 H2673 0.950 . S
C2702 C2701 1.334 . S
C2702 C2703 1.287 . S
C2703 C2702 1.287 . S
C2703 C2704 1.524 . S
C2703 H2706 0.999 . S
C2704 H2674 0.950 . S
C2704 C2703 1.524 . S
C2704 C2705 1.415 . S
C2705 H2675 0.950 . S
C2705 C2700 1.363 . S
C2705 C2704 1.415 . S
H2706 C2703 0.999 . S
H2707 C2688 0.913 . S
H2708 C2726 0.951 . S
H2709 C2728 0.951 . S
H2710 C2730 0.950 . S
H2711 C2731 0.950 . S
H2712 C2733 0.950 . S
H2713 C2736 0.950 . S
H2714 C2737 0.950 . S
H2715 C2739 0.950 . S
H2716 C2740 0.950 . S
H2717 C2741 0.951 . S
H2718 C2743 0.951 . S
H2719 C2745 0.950 . S
H2720 C2746 0.950 . S
H2721 C2748 0.950 . S
H2722 C2751 0.950 . S
H2723 C2752 0.950 . S
H2724 C2754 0.950 . S
H2725 C2755 0.950 . S
C2726 H2708 0.951 . S
C2726 C2727 1.366 . S
C2726 C2728 1.388 . S
C2727 C2726 1.366 . S
C2727 C2731 1.385 . S
C2728 H2709 0.951 . S
C2728 C2726 1.388 . S
C2728 C2729 1.366 . S
C2729 C2728 1.366 . S
C2729 C2730 1.414 . S
C2729 C2732 1.499 . S
C2730 H2710 0.950 . S
C2730 C2729 1.414 . S
C2730 C2731 1.374 . S
C2731 H2711 0.950 . S
C2731 C2727 1.385 . S
C2731 C2730 1.374 . S
C2732 C2729 1.499 . S
C2732 C2733 1.373 . S
C2732 C2734 1.389 . S
C2733 H2712 0.950 . S
C2733 C2732 1.373 . S
C2733 C2749 1.377 . S
C2734 C2732 1.389 . S
C2734 C2735 1.524 . S
C2734 C2748 1.377 . S
C2735 C2734 1.524 . S
C2735 C2736 1.397 . S
C2735 C2740 1.363 . S
C2736 H2713 0.950 . S
C2736 C2735 1.397 . S
C2736 C2737 1.334 . S
C2737 H2714 0.950 . S
C2737 C2736 1.334 . S
C2737 C2738 1.287 . S
C2738 C2737 1.287 . S
C2738 C2739 1.524 . S
C2738 H2757 0.913 . S
C2739 H2715 0.950 . S
C2739 C2738 1.524 . S
C2739 C2740 1.415 . S
C2740 H2716 0.950 . S
C2740 C2735 1.363 . S
C2740 C2739 1.415 . S
C2741 H2717 0.951 . S
C2741 C2742 1.366 . S
C2741 C2743 1.388 . S
C2742 C2741 1.366 . S
C2742 C2746 1.385 . S
C2743 H2718 0.951 . S
C2743 C2741 1.388 . S
C2743 C2744 1.366 . S
C2744 C2743 1.366 . S
C2744 C2745 1.414 . S
C2744 C2747 1.499 . S
C2745 H2719 0.950 . S
C2745 C2744 1.414 . S
C2745 C2746 1.374 . S
C2746 H2720 0.950 . S
C2746 C2742 1.385 . S
C2746 C2745 1.374 . S
C2747 C2744 1.499 . S
C2747 C2748 1.373 . S
C2747 C2749 1.389 . S
C2748 H2721 0.950 . S
C2748 C2734 1.377 . S
C2748 C2747 1.373 . S
C2749 C2733 1.377 . S
C2749 C2747 1.389 . S
C2749 C2750 1.524 . S
C2750 C2749 1.524 . S
C2750 C2751 1.397 . S
C2750 C2755 1.363 . S
C2751 H2722 0.950 . S
C2751 C2750 1.397 . S
C2751 C2752 1.334 . S
C2752 H2723 0.950 . S
C2752 C2751 1.334 . S
C2752 C2753 1.287 . S
C2753 C2752 1.287 . S
C2753 C2754 1.524 . S
C2753 H2756 0.999 . S
C2754 H2724 0.950 . S
C2754 C2753 1.524 . S
C2754 C2755 1.415 . S
C2755 H2725 0.950 . S
C2755 C2750 1.363 . S
C2755 C2754 1.415 . S
H2756 C2753 0.999 . S
H2757 C2738 0.913 . S
H2758 C2776 0.951 . S
H2759 C2778 0.951 . S
H2760 C2780 0.950 . S
H2761 C2781 0.950 . S
H2762 C2783 0.950 . S
H2763 C2786 0.950 . S
H2764 C2787 0.950 . S
H2765 C2789 0.950 . S
H2766 C2790 0.950 . S
H2767 C2791 0.951 . S
H2768 C2793 0.951 . S
H2769 C2795 0.950 . S
H2770 C2796 0.950 . S
H2771 C2798 0.950 . S
H2772 C2801 0.950 . S
H2773 C2802 0.950 . S
H2774 C2804 0.950 . S
H2775 C2805 0.950 . S
C2776 H2758 0.951 . S
C2776 C2777 1.366 . S
C2776 C2778 1.388 . S
C2777 C2776 1.366 . S
C2777 C2781 1.385 . S
C2778 H2759 0.951 . S
C2778 C2776 1.388 . S
C2778 C2779 1.366 . S
C2779 C2778 1.366 . S
C2779 C2780 1.414 . S
C2779 C2782 1.499 . S
C2780 H2760 0.950 . S
C2780 C2779 1.414 . S
C2780 C2781 1.374 . S
C2781 H2761 0.950 . S
C2781 C2777 1.385 . S
C2781 C2780 1.374 . S
C2782 C2779 1.499 . S
C2782 C2783 1.373 . S
C2782 C2784 1.389 . S
C2783 H2762 0.950 . S
C2783 C2782 1.373 . S
C2783 C2799 1.377 . S
C2784 C2782 1.389 . S
C2784 C2785 1.524 . S
C2784 C2798 1.377 . S
C2785 C2784 1.524 . S
C2785 C2786 1.397 . S
C2785 C2790 1.363 . S
C2786 H2763 0.950 . S
C2786 C2785 1.397 . S
C2786 C2787 1.334 . S
C2787 H2764 0.950 . S
C2787 C2786 1.334 . S
C2787 C2788 1.287 . S
C2788 C2787 1.287 . S
C2788 C2789 1.524 . S
C2788 H2807 0.913 . S
C2789 H2765 0.950 . S
C2789 C2788 1.524 . S
C2789 C2790 1.415 . S
C2790 H2766 0.950 . S
C2790 C2785 1.363 . S
C2790 C2789 1.415 . S
C2791 H2767 0.951 . S
C2791 C2792 1.366 . S
C2791 C2793 1.388 . S
C2792 C2791 1.366 . S
C2792 C2796 1.385 . S
C2793 H2768 0.951 . S
C2793 C2791 1.388 . S
C2793 C2794 1.366 . S
C2794 C2793 1.366 . S
C2794 C2795 1.414 . S
C2794 C2797 1.499 . S
C2795 H2769 0.950 . S
C2795 C2794 1.414 . S
C2795 C2796 1.374 . S
C2796 H2770 0.950 . S
C2796 C2792 1.385 . S
C2796 C2795 1.374 . S
C2797 C2794 1.499 . S
C2797 C2798 1.373 . S
C2797 C2799 1.389 . S
C2798 H2771 0.950 . S
C2798 C2784 1.377 . S
C2798 C2797 1.373 . S
C2799 C2783 1.377 . S
C2799 C2797 1.389 . S
C2799 C2800 1.524 . S
C2800 C2799 1.524 . S
C2800 C2801 1.397 . S
C2800 C2805 1.363 . S
C2801 H2772 0.950 . S
C2801 C2800 1.397 . S
C2801 C2802 1.334 . S
C2802 H2773 0.950 . S
C2802 C2801 1.334 . S
C2802 C2803 1.287 . S
C2803 C2802 1.287 . S
C2803 C2804 1.524 . S
C2803 H2806 0.999 . S
C2804 H2774 0.950 . S
C2804 C2803 1.524 . S
C2804 C2805 1.415 . S
C2805 H2775 0.950 . S
C2805 C2800 1.363 . S
C2805 C2804 1.415 . S
H2806 C2803 0.999 . S
H2807 C2788 0.913 . S
H2808 C2826 0.951 . S
H2809 C2828 0.951 . S
H2810 C2830 0.950 . S
H2811 C2831 0.950 . S
H2812 C2833 0.950 . S
H2813 C2836 0.950 . S
H2814 C2837 0.950 . S
H2815 C2839 0.950 . S
H2816 C2840 0.950 . S
H2817 C2841 0.951 . S
H2818 C2843 0.951 . S
H2819 C2845 0.950 . S
H2820 C2846 0.950 . S
H2821 C2848 0.950 . S
H2822 C2851 0.950 . S
H2823 C2852 0.950 . S
H2824 C2854 0.950 . S
H2825 C2855 0.950 . S
C2826 H2808 0.951 . S
C2826 C2827 1.366 . S
C2826 C2828 1.388 . S
C2827 C2826 1.366 . S
C2827 C2831 1.385 . S
C2828 H2809 0.951 . S
C2828 C2826 1.388 . S
C2828 C2829 1.366 . S
C2829 C2828 1.366 . S
C2829 C2830 1.414 . S
C2829 C2832 1.499 . S
C2830 H2810 0.950 . S
C2830 C2829 1.414 . S
C2830 C2831 1.374 . S
C2831 H2811 0.950 . S
C2831 C2827 1.385 . S
C2831 C2830 1.374 . S
C2832 C2829 1.499 . S
C2832 C2833 1.373 . S
C2832 C2834 1.389 . S
C2833 H2812 0.950 . S
C2833 C2832 1.373 . S
C2833 C2849 1.377 . S
C2834 C2832 1.389 . S
C2834 C2835 1.524 . S
C2834 C2848 1.377 . S
C2835 C2834 1.524 . S
C2835 C2836 1.397 . S
C2835 C2840 1.363 . S
C2836 H2813 0.950 . S
C2836 C2835 1.397 . S
C2836 C2837 1.334 . S
C2837 H2814 0.950 . S
C2837 C2836 1.334 . S
C2837 C2838 1.287 . S
C2838 C2837 1.287 . S
C2838 C2839 1.524 . S
C2838 H2857 0.913 . S
C2839 H2815 0.950 . S
C2839 C2838 1.524 . S
C2839 C2840 1.415 . S
C2840 H2816 0.950 . S
C2840 C2835 1.363 . S
C2840 C2839 1.415 . S
C2841 H2817 0.951 . S
C2841 C2842 1.366 1_545 S
C2841 C2843 1.388 . S
C2842 C2841 1.366 1_565 S
C2842 C2846 1.385 . S
C2843 H2818 0.951 . S
C2843 C2841 1.388 . S
C2843 C2844 1.366 1_545 S
C2844 C2843 1.366 1_565 S
C2844 C2845 1.414 . S
C2844 C2847 1.499 . S
C2845 H2819 0.950 . S
C2845 C2844 1.414 . S
C2845 C2846 1.374 . S
C2846 H2820 0.950 . S
C2846 C2842 1.385 . S
C2846 C2845 1.374 . S
C2847 C2844 1.499 . S
C2847 C2848 1.373 . S
C2847 C2849 1.389 . S
C2848 H2821 0.950 . S
C2848 C2834 1.377 . S
C2848 C2847 1.373 . S
C2849 C2833 1.377 . S
C2849 C2847 1.389 . S
C2849 C2850 1.524 1_565 S
C2850 C2849 1.524 1_545 S
C2850 C2851 1.397 1_545 S
C2850 C2855 1.363 . S
C2851 H2822 0.950 . S
C2851 C2850 1.397 1_565 S
C2851 C2852 1.334 1_565 S
C2852 H2823 0.950 . S
C2852 C2851 1.334 1_545 S
C2852 C2853 1.287 . S
C2853 C2852 1.287 . S
C2853 C2854 1.524 . S
C2853 H2856 0.999 . S
C2854 H2824 0.950 . S
C2854 C2853 1.524 . S
C2854 C2855 1.415 . S
C2855 H2825 0.950 . S
C2855 C2850 1.363 . S
C2855 C2854 1.415 . S
H2856 C2853 0.999 . S
H2857 C2838 0.913 . S
H2858 C2876 0.951 . S
H2859 C2878 0.951 . S
H2860 C2880 0.950 . S
H2861 C2881 0.950 . S
H2862 C2883 0.950 1_655 S
H2863 C2886 0.950 1_655 S
H2864 C2887 0.950 . S
H2865 C2889 0.950 . S
H2866 C2890 0.950 . S
H2867 C2891 0.951 . S
H2868 C2893 0.951 . S
H2869 C2895 0.950 . S
H2870 C2896 0.950 . S
H2871 C2898 0.950 . S
H2872 C2901 0.950 . S
H2873 C2902 0.950 . S
H2874 C2904 0.950 . S
H2875 C2905 0.950 . S
C2876 H2858 0.951 . S
C2876 C2877 1.366 . S
C2876 C2878 1.388 . S
C2877 C2876 1.366 . S
C2877 C2881 1.385 1_455 S
C2878 H2859 0.951 . S
C2878 C2876 1.388 . S
C2878 C2879 1.366 . S
C2879 C2878 1.366 . S
C2879 C2880 1.414 1_455 S
C2879 C2882 1.499 . S
C2880 H2860 0.950 . S
C2880 C2879 1.414 1_655 S
C2880 C2881 1.374 . S
C2881 H2861 0.950 . S
C2881 C2877 1.385 1_655 S
C2881 C2880 1.374 . S
C2882 C2879 1.499 . S
C2882 C2883 1.373 . S
C2882 C2884 1.389 . S
C2883 H2862 0.950 1_455 S
C2883 C2882 1.373 . S
C2883 C2899 1.377 . S
C2884 C2882 1.389 . S
C2884 C2885 1.524 . S
C2884 C2898 1.377 . S
C2885 C2884 1.524 . S
C2885 C2886 1.397 . S
C2885 C2890 1.363 . S
C2886 H2863 0.950 1_455 S
C2886 C2885 1.397 . S
C2886 C2887 1.334 . S
C2887 H2864 0.950 . S
C2887 C2886 1.334 . S
C2887 C2888 1.287 . S
C2888 C2887 1.287 . S
C2888 C2889 1.524 . S
C2888 H2907 0.913 . S
C2889 H2865 0.950 . S
C2889 C2888 1.524 . S
C2889 C2890 1.415 . S
C2890 H2866 0.950 . S
C2890 C2885 1.363 . S
C2890 C2889 1.415 . S
C2891 H2867 0.951 . S
C2891 C2892 1.366 1_655 S
C2891 C2893 1.388 . S
C2892 C2891 1.366 1_455 S
C2892 C2896 1.385 . S
C2893 H2868 0.951 . S
C2893 C2891 1.388 . S
C2893 C2894 1.366 1_655 S
C2894 C2893 1.366 1_455 S
C2894 C2895 1.414 . S
C2894 C2897 1.499 . S
C2895 H2869 0.950 . S
C2895 C2894 1.414 . S
C2895 C2896 1.374 . S
C2896 H2870 0.950 . S
C2896 C2892 1.385 . S
C2896 C2895 1.374 . S
C2897 C2894 1.499 . S
C2897 C2898 1.373 . S
C2897 C2899 1.389 . S
C2898 H2871 0.950 . S
C2898 C2884 1.377 . S
C2898 C2897 1.373 . S
C2899 C2883 1.377 . S
C2899 C2897 1.389 . S
C2899 C2900 1.524 1_455 S
C2900 C2899 1.524 1_655 S
C2900 C2901 1.397 1_655 S
C2900 C2905 1.363 . S
C2901 H2872 0.950 . S
C2901 C2900 1.397 1_455 S
C2901 C2902 1.334 . S
C2902 H2873 0.950 . S
C2902 C2901 1.334 . S
C2902 C2903 1.287 1_455 S
C2903 C2902 1.287 1_655 S
C2903 C2904 1.524 . S
C2903 H2906 0.999 . S
C2904 H2874 0.950 . S
C2904 C2903 1.524 . S
C2904 C2905 1.415 . S
C2905 H2875 0.950 . S
C2905 C2900 1.363 . S
C2905 C2904 1.415 . S
H2906 C2903 0.999 . S
H2907 C2888 0.913 . S
H2908 C2926 0.951 . S
H2909 C2928 0.951 . S
H2910 C2930 0.950 . S
H2911 C2931 0.950 . S
H2912 C2933 0.950 . S
H2913 C2936 0.950 . S
H2914 C2937 0.950 . S
H2915 C2939 0.950 . S
H2916 C2940 0.950 . S
H2917 C2941 0.951 . S
H2918 C2943 0.951 . S
H2919 C2945 0.950 . S
H2920 C2946 0.950 . S
H2921 C2948 0.950 . S
H2922 C2951 0.950 . S
H2923 C2952 0.950 . S
H2924 C2954 0.950 . S
H2925 C2955 0.950 . S
C2926 H2908 0.951 . S
C2926 C2927 1.366 . S
C2926 C2928 1.388 . S
C2927 C2926 1.366 . S
C2927 C2931 1.385 . S
C2928 H2909 0.951 . S
C2928 C2926 1.388 . S
C2928 C2929 1.366 . S
C2929 C2928 1.366 . S
C2929 C2930 1.414 . S
C2929 C2932 1.499 . S
C2930 H2910 0.950 . S
C2930 C2929 1.414 . S
C2930 C2931 1.374 . S
C2931 H2911 0.950 . S
C2931 C2927 1.385 . S
C2931 C2930 1.374 . S
C2932 C2929 1.499 . S
C2932 C2933 1.373 . S
C2932 C2934 1.389 . S
C2933 H2912 0.950 . S
C2933 C2932 1.373 . S
C2933 C2949 1.377 . S
C2934 C2932 1.389 . S
C2934 C2935 1.524 . S
C2934 C2948 1.377 . S
C2935 C2934 1.524 . S
C2935 C2936 1.397 . S
C2935 C2940 1.363 . S
C2936 H2913 0.950 . S
C2936 C2935 1.397 . S
C2936 C2937 1.334 . S
C2937 H2914 0.950 . S
C2937 C2936 1.334 . S
C2937 C2938 1.287 . S
C2938 C2937 1.287 . S
C2938 C2939 1.524 . S
C2938 H2957 0.913 . S
C2939 H2915 0.950 . S
C2939 C2938 1.524 . S
C2939 C2940 1.415 . S
C2940 H2916 0.950 . S
C2940 C2935 1.363 . S
C2940 C2939 1.415 . S
C2941 H2917 0.951 . S
C2941 C2942 1.366 . S
C2941 C2943 1.388 . S
C2942 C2941 1.366 . S
C2942 C2946 1.385 . S
C2943 H2918 0.951 . S
C2943 C2941 1.388 . S
C2943 C2944 1.366 . S
C2944 C2943 1.366 . S
C2944 C2945 1.414 . S
C2944 C2947 1.499 . S
C2945 H2919 0.950 . S
C2945 C2944 1.414 . S
C2945 C2946 1.374 . S
C2946 H2920 0.950 . S
C2946 C2942 1.385 . S
C2946 C2945 1.374 . S
C2947 C2944 1.499 . S
C2947 C2948 1.373 . S
C2947 C2949 1.389 . S
C2948 H2921 0.950 . S
C2948 C2934 1.377 . S
C2948 C2947 1.373 . S
C2949 C2933 1.377 . S
C2949 C2947 1.389 . S
C2949 C2950 1.524 . S
C2950 C2949 1.524 . S
C2950 C2951 1.397 . S
C2950 C2955 1.363 . S
C2951 H2922 0.950 . S
C2951 C2950 1.397 . S
C2951 C2952 1.334 . S
C2952 H2923 0.950 . S
C2952 C2951 1.334 . S
C2952 C2953 1.287 . S
C2953 C2952 1.287 . S
C2953 C2954 1.524 . S
C2953 H2956 0.999 . S
C2954 H2924 0.950 . S
C2954 C2953 1.524 . S
C2954 C2955 1.415 . S
C2955 H2925 0.950 . S
C2955 C2950 1.363 . S
C2955 C2954 1.415 . S
H2956 C2953 0.999 . S
H2957 C2938 0.913 . S
H2958 C2976 0.951 . S
H2959 C2978 0.951 . S
H2960 C2980 0.950 . S
H2961 C2981 0.950 . S
H2962 C2983 0.950 . S
H2963 C2986 0.950 . S
H2964 C2987 0.950 . S
H2965 C2989 0.950 . S
H2966 C2990 0.950 . S
H2967 C2991 0.951 . S
H2968 C2993 0.951 . S
H2969 C2995 0.950 . S
H2970 C2996 0.950 . S
H2971 C2998 0.950 . S
H2972 C3001 0.950 . S
H2973 C3002 0.950 . S
H2974 C3004 0.950 . S
H2975 C3005 0.950 . S
C2976 H2958 0.951 . S
C2976 C2977 1.366 1_455 S
C2976 C2978 1.388 . S
C2977 C2976 1.366 1_655 S
C2977 C2981 1.385 . S
C2978 H2959 0.951 . S
C2978 C2976 1.388 . S
C2978 C2979 1.366 1_455 S
C2979 C2978 1.366 1_655 S
C2979 C2980 1.414 . S
C2979 C2982 1.499 . S
C2980 H2960 0.950 . S
C2980 C2979 1.414 . S
C2980 C2981 1.374 . S
C2981 H2961 0.950 . S
C2981 C2977 1.385 . S
C2981 C2980 1.374 . S
C2982 C2979 1.499 . S
C2982 C2983 1.373 . S
C2982 C2984 1.389 1_655 S
C2983 H2962 0.950 . S
C2983 C2982 1.373 . S
C2983 C2999 1.377 . S
C2984 C2982 1.389 1_455 S
C2984 C2985 1.524 . S
C2984 C2998 1.377 . S
C2985 C2984 1.524 . S
C2985 C2986 1.397 . S
C2985 C2990 1.363 . S
C2986 H2963 0.950 . S
C2986 C2985 1.397 . S
C2986 C2987 1.334 . S
C2987 H2964 0.950 . S
C2987 C2986 1.334 . S
C2987 C2988 1.287 . S
C2988 C2987 1.287 . S
C2988 C2989 1.524 . S
C2988 H3007 0.913 . S
C2989 H2965 0.950 . S
C2989 C2988 1.524 . S
C2989 C2990 1.415 . S
C2990 H2966 0.950 . S
C2990 C2985 1.363 . S
C2990 C2989 1.415 . S
C2991 H2967 0.951 . S
C2991 C2992 1.366 . S
C2991 C2993 1.388 . S
C2992 C2991 1.366 . S
C2992 C2996 1.385 1_655 S
C2993 H2968 0.951 . S
C2993 C2991 1.388 . S
C2993 C2994 1.366 . S
C2994 C2993 1.366 . S
C2994 C2995 1.414 1_655 S
C2994 C2997 1.499 . S
C2995 H2969 0.950 . S
C2995 C2994 1.414 1_455 S
C2995 C2996 1.374 . S
C2996 H2970 0.950 . S
C2996 C2992 1.385 1_455 S
C2996 C2995 1.374 . S
C2997 C2994 1.499 . S
C2997 C2998 1.373 1_655 S
C2997 C2999 1.389 . S
C2998 H2971 0.950 . S
C2998 C2984 1.377 . S
C2998 C2997 1.373 1_455 S
C2999 C2983 1.377 . S
C2999 C2997 1.389 . S
C2999 C3000 1.524 . S
C3000 C2999 1.524 . S
C3000 C3001 1.397 . S
C3000 C3005 1.363 . S
C3001 H2972 0.950 . S
C3001 C3000 1.397 . S
C3001 C3002 1.334 . S
C3002 H2973 0.950 . S
C3002 C3001 1.334 . S
C3002 C3003 1.287 . S
C3003 C3002 1.287 . S
C3003 C3004 1.524 . S
C3003 H3006 0.999 . S
C3004 H2974 0.950 . S
C3004 C3003 1.524 . S
C3004 C3005 1.415 . S
C3005 H2975 0.950 . S
C3005 C3000 1.363 . S
C3005 C3004 1.415 . S
H3006 C3003 0.999 . S
H3007 C2988 0.913 . S
H3008 C3026 0.951 . S
H3009 C3028 0.951 . S
H3010 C3030 0.950 . S
H3011 C3031 0.950 . S
H3012 C3033 0.950 . S
H3013 C3036 0.950 . S
H3014 C3037 0.950 . S
H3015 C3039 0.950 . S
H3016 C3040 0.950 . S
H3017 C3041 0.951 . S
H3018 C3043 0.951 . S
H3019 C3045 0.950 . S
H3020 C3046 0.950 . S
H3021 C3048 0.950 . S
H3022 C3051 0.950 . S
H3023 C3052 0.950 . S
H3024 C3054 0.950 . S
H3025 C3055 0.950 . S
C3026 H3008 0.951 . S
C3026 C3027 1.366 . S
C3026 C3028 1.388 . S
C3027 C3026 1.366 . S
C3027 C3031 1.385 . S
C3028 H3009 0.951 . S
C3028 C3026 1.388 . S
C3028 C3029 1.366 . S
C3029 C3028 1.366 . S
C3029 C3030 1.414 . S
C3029 C3032 1.499 . S
C3030 H3010 0.950 . S
C3030 C3029 1.414 . S
C3030 C3031 1.374 . S
C3031 H3011 0.950 . S
C3031 C3027 1.385 . S
C3031 C3030 1.374 . S
C3032 C3029 1.499 . S
C3032 C3033 1.373 . S
C3032 C3034 1.389 . S
C3033 H3012 0.950 . S
C3033 C3032 1.373 . S
C3033 C3049 1.377 . S
C3034 C3032 1.389 . S
C3034 C3035 1.524 . S
C3034 C3048 1.377 . S
C3035 C3034 1.524 . S
C3035 C3036 1.397 . S
C3035 C3040 1.363 . S
C3036 H3013 0.950 . S
C3036 C3035 1.397 . S
C3036 C3037 1.334 . S
C3037 H3014 0.950 . S
C3037 C3036 1.334 . S
C3037 C3038 1.287 . S
C3038 C3037 1.287 . S
C3038 C3039 1.524 . S
C3038 H3057 0.913 . S
C3039 H3015 0.950 . S
C3039 C3038 1.524 . S
C3039 C3040 1.415 . S
C3040 H3016 0.950 . S
C3040 C3035 1.363 . S
C3040 C3039 1.415 . S
C3041 H3017 0.951 . S
C3041 C3042 1.366 . S
C3041 C3043 1.388 . S
C3042 C3041 1.366 . S
C3042 C3046 1.385 . S
C3043 H3018 0.951 . S
C3043 C3041 1.388 . S
C3043 C3044 1.366 . S
C3044 C3043 1.366 . S
C3044 C3045 1.414 . S
C3044 C3047 1.499 . S
C3045 H3019 0.950 . S
C3045 C3044 1.414 . S
C3045 C3046 1.374 . S
C3046 H3020 0.950 . S
C3046 C3042 1.385 . S
C3046 C3045 1.374 . S
C3047 C3044 1.499 . S
C3047 C3048 1.373 . S
C3047 C3049 1.389 . S
C3048 H3021 0.950 . S
C3048 C3034 1.377 . S
C3048 C3047 1.373 . S
C3049 C3033 1.377 . S
C3049 C3047 1.389 . S
C3049 C3050 1.524 . S
C3050 C3049 1.524 . S
C3050 C3051 1.397 . S
C3050 C3055 1.363 . S
C3051 H3022 0.950 . S
C3051 C3050 1.397 . S
C3051 C3052 1.334 . S
C3052 H3023 0.950 . S
C3052 C3051 1.334 . S
C3052 C3053 1.287 . S
C3053 C3052 1.287 . S
C3053 C3054 1.524 . S
C3053 H3056 0.999 . S
C3054 H3024 0.950 . S
C3054 C3053 1.524 . S
C3054 C3055 1.415 . S
C3055 H3025 0.950 . S
C3055 C3050 1.363 . S
C3055 C3054 1.415 . S
H3056 C3053 0.999 . S
H3057 C3038 0.913 . S
H3058 C3076 0.951 . S
H3059 C3078 0.951 . S
H3060 C3080 0.950 . S
H3061 C3081 0.950 . S
H3062 C3083 0.950 . S
H3063 C3086 0.950 1_545 S
H3064 C3087 0.950 . S
H3065 C3089 0.950 . S
H3066 C3090 0.950 . S
H3067 C3091 0.951 . S
H3068 C3093 0.951 . S
H3069 C3095 0.950 1_565 S
H3070 C3096 0.930 1_565 S
H3071 C3098 0.950 1_565 S
H3072 C3101 0.950 . S
H3073 C3102 0.950 . S
H3074 C3104 0.950 . S
H3075 C3105 0.950 . S
C3076 H3058 0.951 . S
C3076 C3077 1.366 . S
C3076 C3078 1.388 . S
C3077 C3076 1.366 . S
C3077 C3081 1.385 . S
C3078 H3059 0.951 . S
C3078 C3076 1.388 . S
C3078 C3079 1.366 . S
C3079 C3078 1.366 . S
C3079 C3080 1.414 . S
C3079 C3082 1.499 . S
C3080 H3060 0.950 . S
C3080 C3079 1.414 . S
C3080 C3081 1.374 . S
C3081 H3061 0.950 . S
C3081 C3077 1.385 . S
C3081 C3080 1.374 . S
C3082 C3079 1.499 . S
C3082 C3083 1.373 . S
C3082 C3084 1.389 . S
C3083 H3062 0.950 . S
C3083 C3082 1.373 . S
C3083 C3099 1.377 . S
C3084 C3082 1.389 . S
C3084 C3085 1.524 1_545 S
C3084 C3098 1.377 . S
C3085 C3084 1.524 1_565 S
C3085 C3086 1.397 . S
C3085 C3090 1.363 . S
C3086 H3063 0.950 1_565 S
C3086 C3085 1.397 . S
C3086 C3087 1.334 . S
C3087 H3064 0.950 . S
C3087 C3086 1.334 . S
C3087 C3088 1.287 . S
C3088 C3087 1.287 . S
C3088 C3089 1.524 . S
C3088 H3107 0.913 . S
C3089 H3065 0.950 . S
C3089 C3088 1.524 . S
C3089 C3090 1.415 . S
C3090 H3066 0.950 . S
C3090 C3085 1.363 . S
C3090 C3089 1.415 . S
C3091 H3067 0.951 . S
C3091 C3092 1.366 . S
C3091 C3093 1.388 . S
C3092 C3091 1.366 . S
C3092 C3096 1.399 . S
C3093 H3068 0.951 . S
C3093 C3091 1.388 . S
C3093 C3094 1.366 . S
C3094 C3093 1.366 . S
C3094 C3095 1.414 . S
C3094 C3097 1.499 . S
C3095 H3069 0.950 1_545 S
C3095 C3094 1.414 . S
C3095 C3096 1.379 . S
C3096 H3070 0.930 1_545 S
C3096 C3092 1.399 . S
C3096 C3095 1.379 . S
C3097 C3094 1.499 . S
C3097 C3098 1.373 . S
C3097 C3099 1.389 . S
C3098 H3071 0.950 1_545 S
C3098 C3084 1.377 . S
C3098 C3097 1.373 . S
C3099 C3083 1.377 . S
C3099 C3097 1.389 . S
C3099 C3100 1.524 . S
C3100 C3099 1.524 . S
C3100 C3101 1.397 . S
C3100 C3105 1.363 . S
C3101 H3072 0.950 . S
C3101 C3100 1.397 . S
C3101 C3102 1.334 . S
C3102 H3073 0.950 . S
C3102 C3101 1.334 . S
C3102 C3103 1.287 . S
C3103 C3102 1.287 . S
C3103 C3104 1.524 . S
C3103 H3106 0.999 . S
C3104 H3074 0.950 . S
C3104 C3103 1.524 . S
C3104 C3105 1.415 . S
C3105 H3075 0.950 . S
C3105 C3100 1.363 . S
C3105 C3104 1.415 . S
H3106 C3103 0.999 . S
H3107 C3088 0.913 . S
H3108 C3126 0.951 . S
H3109 C3128 0.951 . S
H3110 C3130 0.950 . S
H3111 C3131 0.950 . S
H3112 C3133 0.950 . S
H3113 C3136 0.950 . S
H3114 C3137 0.950 . S
H3115 C3139 0.950 . S
H3116 C3140 0.950 . S
H3117 C3141 0.951 . S
H3118 C3143 0.951 . S
H3119 C3145 0.950 . S
H3120 C3146 0.950 . S
H3121 C3148 0.950 . S
H3122 C3151 0.950 . S
H3123 C3152 0.950 . S
H3124 C3154 0.950 . S
H3125 C3155 0.950 . S
C3126 H3108 0.951 . S
C3126 C3127 1.366 . S
C3126 C3128 1.388 . S
C3127 C3126 1.366 . S
C3127 C3131 1.385 . S
C3128 H3109 0.951 . S
C3128 C3126 1.388 . S
C3128 C3129 1.366 . S
C3129 C3128 1.366 . S
C3129 C3130 1.414 . S
C3129 C3132 1.499 . S
C3130 H3110 0.950 . S
C3130 C3129 1.414 . S
C3130 C3131 1.374 . S
C3131 H3111 0.950 . S
C3131 C3127 1.385 . S
C3131 C3130 1.374 . S
C3132 C3129 1.499 . S
C3132 C3133 1.373 . S
C3132 C3134 1.389 . S
C3133 H3112 0.950 . S
C3133 C3132 1.373 . S
C3133 C3149 1.377 . S
C3134 C3132 1.389 . S
C3134 C3135 1.524 . S
C3134 C3148 1.377 . S
C3135 C3134 1.524 . S
C3135 C3136 1.397 . S
C3135 C3140 1.363 . S
C3136 H3113 0.950 . S
C3136 C3135 1.397 . S
C3136 C3137 1.334 . S
C3137 H3114 0.950 . S
C3137 C3136 1.334 . S
C3137 C3138 1.287 . S
C3138 C3137 1.287 . S
C3138 C3139 1.524 . S
C3138 H3157 0.913 . S
C3139 H3115 0.950 . S
C3139 C3138 1.524 . S
C3139 C3140 1.415 . S
C3140 H3116 0.950 . S
C3140 C3135 1.363 . S
C3140 C3139 1.415 . S
C3141 H3117 0.951 . S
C3141 C3142 1.366 . S
C3141 C3143 1.388 . S
C3142 C3141 1.366 . S
C3142 C3146 1.385 . S
C3143 H3118 0.951 . S
C3143 C3141 1.388 . S
C3143 C3144 1.366 . S
C3144 C3143 1.366 . S
C3144 C3145 1.414 . S
C3144 C3147 1.499 . S
C3145 H3119 0.950 . S
C3145 C3144 1.414 . S
C3145 C3146 1.374 . S
C3146 H3120 0.950 . S
C3146 C3142 1.385 . S
C3146 C3145 1.374 . S
C3147 C3144 1.499 . S
C3147 C3148 1.373 . S
C3147 C3149 1.389 . S
C3148 H3121 0.950 . S
C3148 C3134 1.377 . S
C3148 C3147 1.373 . S
C3149 C3133 1.377 . S
C3149 C3147 1.389 . S
C3149 C3150 1.524 . S
C3150 C3149 1.524 . S
C3150 C3151 1.397 . S
C3150 C3155 1.363 . S
C3151 H3122 0.950 . S
C3151 C3150 1.397 . S
C3151 C3152 1.334 . S
C3152 H3123 0.950 . S
C3152 C3151 1.334 . S
C3152 C3153 1.287 . S
C3153 C3152 1.287 . S
C3153 C3154 1.524 . S
C3153 H3156 0.999 . S
C3154 H3124 0.950 . S
C3154 C3153 1.524 . S
C3154 C3155 1.415 . S
C3155 H3125 0.950 . S
C3155 C3150 1.363 . S
C3155 C3154 1.415 . S
H3156 C3153 0.999 . S
H3157 C3138 0.913 . S
H3158 C3176 0.951 . S
H3159 C3178 0.951 . S
H3160 C3180 0.950 . S
H3161 C3181 0.950 . S
H3162 C3183 0.950 . S
H3163 C3186 0.950 . S
H3164 C3187 0.950 . S
H3165 C3189 0.950 . S
H3166 C3190 0.950 . S
H3167 C3191 0.951 . S
H3168 C3193 0.951 . S
H3169 C3195 0.950 . S
H3170 C3196 0.950 . S
H3171 C3198 0.950 . S
H3172 C3201 0.950 . S
H3173 C3202 0.950 . S
H3174 C3204 0.950 . S
H3175 C3205 0.950 . S
C3176 H3158 0.951 . S
C3176 C3177 1.366 . S
C3176 C3178 1.388 . S
C3177 C3176 1.366 . S
C3177 C3181 1.385 . S
C3178 H3159 0.951 . S
C3178 C3176 1.388 . S
C3178 C3179 1.366 . S
C3179 C3178 1.366 . S
C3179 C3180 1.414 . S
C3179 C3182 1.499 . S
C3180 H3160 0.950 . S
C3180 C3179 1.414 . S
C3180 C3181 1.374 . S
C3181 H3161 0.950 . S
C3181 C3177 1.385 . S
C3181 C3180 1.374 . S
C3182 C3179 1.499 . S
C3182 C3183 1.373 . S
C3182 C3184 1.389 . S
C3183 H3162 0.950 . S
C3183 C3182 1.373 . S
C3183 C3199 1.377 . S
C3184 C3182 1.389 . S
C3184 C3185 1.524 . S
C3184 C3198 1.377 . S
C3185 C3184 1.524 . S
C3185 C3186 1.397 . S
C3185 C3190 1.363 . S
C3186 H3163 0.950 . S
C3186 C3185 1.397 . S
C3186 C3187 1.334 . S
C3187 H3164 0.950 . S
C3187 C3186 1.334 . S
C3187 C3188 1.287 . S
C3188 C3187 1.287 . S
C3188 C3189 1.524 . S
C3188 H3207 0.913 . S
C3189 H3165 0.950 . S
C3189 C3188 1.524 . S
C3189 C3190 1.415 . S
C3190 H3166 0.950 . S
C3190 C3185 1.363 . S
C3190 C3189 1.415 . S
C3191 H3167 0.951 . S
C3191 C3192 1.366 . S
C3191 C3193 1.388 . S
C3192 C3191 1.366 . S
C3192 C3196 1.385 . S
C3193 H3168 0.951 . S
C3193 C3191 1.388 . S
C3193 C3194 1.366 . S
C3194 C3193 1.366 . S
C3194 C3195 1.414 . S
C3194 C3197 1.499 . S
C3195 H3169 0.950 . S
C3195 C3194 1.414 . S
C3195 C3196 1.374 . S
C3196 H3170 0.950 . S
C3196 C3192 1.385 . S
C3196 C3195 1.374 . S
C3197 C3194 1.499 . S
C3197 C3198 1.373 . S
C3197 C3199 1.389 . S
C3198 H3171 0.950 . S
C3198 C3184 1.377 . S
C3198 C3197 1.373 . S
C3199 C3183 1.377 . S
C3199 C3197 1.389 . S
C3199 C3200 1.524 . S
C3200 C3199 1.524 . S
C3200 C3201 1.397 . S
C3200 C3205 1.363 . S
C3201 H3172 0.950 . S
C3201 C3200 1.397 . S
C3201 C3202 1.334 . S
C3202 H3173 0.950 . S
C3202 C3201 1.334 . S
C3202 C3203 1.287 . S
C3203 C3202 1.287 . S
C3203 C3204 1.524 . S
C3203 H3206 0.999 . S
C3204 H3174 0.950 . S
C3204 C3203 1.524 . S
C3204 C3205 1.415 . S
C3205 H3175 0.950 . S
C3205 C3200 1.363 . S
C3205 C3204 1.415 . S
H3206 C3203 0.999 . S
H3207 C3188 0.913 . S
H3208 C3226 0.951 . S
H3209 C3228 0.951 . S
H3210 C3230 0.950 . S
H3211 C3231 0.950 . S
H3212 C3233 0.950 . S
H3213 C3236 0.950 . S
H3214 C3237 0.950 . S
H3215 C3239 0.950 . S
H3216 C3240 0.950 . S
H3217 C3241 0.951 . S
H3218 C3243 0.951 . S
H3219 C3245 0.950 . S
H3220 C3246 0.950 . S
H3221 C3248 0.950 . S
H3222 C3251 0.950 . S
H3223 C3252 0.950 . S
H3224 C3254 0.950 . S
H3225 C3255 0.950 . S
C3226 H3208 0.951 . S
C3226 C3227 1.366 . S
C3226 C3228 1.388 . S
C3227 C3226 1.366 . S
C3227 C3231 1.385 . S
C3228 H3209 0.951 . S
C3228 C3226 1.388 . S
C3228 C3229 1.366 . S
C3229 C3228 1.366 . S
C3229 C3230 1.414 . S
C3229 C3232 1.499 . S
C3230 H3210 0.950 . S
C3230 C3229 1.414 . S
C3230 C3231 1.374 . S
C3231 H3211 0.950 . S
C3231 C3227 1.385 . S
C3231 C3230 1.374 . S
C3232 C3229 1.499 . S
C3232 C3233 1.373 . S
C3232 C3234 1.389 . S
C3233 H3212 0.950 . S
C3233 C3232 1.373 . S
C3233 C3249 1.377 . S
C3234 C3232 1.389 . S
C3234 C3235 1.524 . S
C3234 C3248 1.377 . S
C3235 C3234 1.524 . S
C3235 C3236 1.397 . S
C3235 C3240 1.363 . S
C3236 H3213 0.950 . S
C3236 C3235 1.397 . S
C3236 C3237 1.334 . S
C3237 H3214 0.950 . S
C3237 C3236 1.334 . S
C3237 C3238 1.287 . S
C3238 C3237 1.287 . S
C3238 C3239 1.524 . S
C3238 H3257 0.913 . S
C3239 H3215 0.950 . S
C3239 C3238 1.524 . S
C3239 C3240 1.415 . S
C3240 H3216 0.950 . S
C3240 C3235 1.363 . S
C3240 C3239 1.415 . S
C3241 H3217 0.951 . S
C3241 C3242 1.366 . S
C3241 C3243 1.388 . S
C3242 C3241 1.366 . S
C3242 C3246 1.385 . S
C3243 H3218 0.951 . S
C3243 C3241 1.388 . S
C3243 C3244 1.366 . S
C3244 C3243 1.366 . S
C3244 C3245 1.414 . S
C3244 C3247 1.499 . S
C3245 H3219 0.950 . S
C3245 C3244 1.414 . S
C3245 C3246 1.374 . S
C3246 H3220 0.950 . S
C3246 C3242 1.385 . S
C3246 C3245 1.374 . S
C3247 C3244 1.499 . S
C3247 C3248 1.373 . S
C3247 C3249 1.389 . S
C3248 H3221 0.950 . S
C3248 C3234 1.377 . S
C3248 C3247 1.373 . S
C3249 C3233 1.377 . S
C3249 C3247 1.389 . S
C3249 C3250 1.524 . S
C3250 C3249 1.524 . S
C3250 C3251 1.397 . S
C3250 C3255 1.363 . S
C3251 H3222 0.950 . S
C3251 C3250 1.397 . S
C3251 C3252 1.334 . S
C3252 H3223 0.950 . S
C3252 C3251 1.334 . S
C3252 C3253 1.287 . S
C3253 C3252 1.287 . S
C3253 C3254 1.524 . S
C3253 H3256 0.999 . S
C3254 H3224 0.950 . S
C3254 C3253 1.524 . S
C3254 C3255 1.415 . S
C3255 H3225 0.950 . S
C3255 C3250 1.363 . S
C3255 C3254 1.415 . S
H3256 C3253 0.999 . S
H3257 C3238 0.913 . S
H3258 C3276 0.951 . S
H3259 C3278 0.951 . S
H3260 C3280 0.950 . S
H3261 C3281 0.950 . S
H3262 C3283 0.950 . S
H3263 C3286 0.950 . S
H3264 C3287 0.950 . S
H3265 C3289 0.950 . S
H3266 C3290 0.950 . S
H3267 C3291 0.951 . S
H3268 C3293 0.951 . S
H3269 C3295 0.950 . S
H3270 C3296 0.950 . S
H3271 C3298 0.950 . S
H3272 C3301 0.950 . S
H3273 C3302 0.950 . S
H3274 C3304 0.950 . S
H3275 C3305 0.950 . S
C3276 H3258 0.951 . S
C3276 C3277 1.366 . S
C3276 C3278 1.388 . S
C3277 C3276 1.366 . S
C3277 C3281 1.385 . S
C3278 H3259 0.951 . S
C3278 C3276 1.388 . S
C3278 C3279 1.366 . S
C3279 C3278 1.366 . S
C3279 C3280 1.414 . S
C3279 C3282 1.499 . S
C3280 H3260 0.950 . S
C3280 C3279 1.414 . S
C3280 C3281 1.374 . S
C3281 H3261 0.950 . S
C3281 C3277 1.385 . S
C3281 C3280 1.374 . S
C3282 C3279 1.499 . S
C3282 C3283 1.373 . S
C3282 C3284 1.389 . S
C3283 H3262 0.950 . S
C3283 C3282 1.373 . S
C3283 C3299 1.377 . S
C3284 C3282 1.389 . S
C3284 C3285 1.524 . S
C3284 C3298 1.377 . S
C3285 C3284 1.524 . S
C3285 C3286 1.397 . S
C3285 C3290 1.363 . S
C3286 H3263 0.950 . S
C3286 C3285 1.397 . S
C3286 C3287 1.334 . S
C3287 H3264 0.950 . S
C3287 C3286 1.334 . S
C3287 C3288 1.287 . S
C3288 C3287 1.287 . S
C3288 C3289 1.524 . S
C3288 H3307 0.913 . S
C3289 H3265 0.950 . S
C3289 C3288 1.524 . S
C3289 C3290 1.415 . S
C3290 H3266 0.950 . S
C3290 C3285 1.363 . S
C3290 C3289 1.415 . S
C3291 H3267 0.951 . S
C3291 C3292 1.366 . S
C3291 C3293 1.388 . S
C3292 C3291 1.366 . S
C3292 C3296 1.385 . S
C3293 H3268 0.951 . S
C3293 C3291 1.388 . S
C3293 C3294 1.366 . S
C3294 C3293 1.366 . S
C3294 C3295 1.414 . S
C3294 C3297 1.499 . S
C3295 H3269 0.950 . S
C3295 C3294 1.414 . S
C3295 C3296 1.374 . S
C3296 H3270 0.950 . S
C3296 C3292 1.385 . S
C3296 C3295 1.374 . S
C3297 C3294 1.499 . S
C3297 C3298 1.373 . S
C3297 C3299 1.389 . S
C3298 H3271 0.950 . S
C3298 C3284 1.377 . S
C3298 C3297 1.373 . S
C3299 C3283 1.377 . S
C3299 C3297 1.389 . S
C3299 C3300 1.524 . S
C3300 C3299 1.524 . S
C3300 C3301 1.397 . S
C3300 C3305 1.363 . S
C3301 H3272 0.950 . S
C3301 C3300 1.397 . S
C3301 C3302 1.334 . S
C3302 H3273 0.950 . S
C3302 C3301 1.334 . S
C3302 C3303 1.287 . S
C3303 C3302 1.287 . S
C3303 C3304 1.524 . S
C3303 H3306 0.999 . S
C3304 H3274 0.950 . S
C3304 C3303 1.524 . S
C3304 C3305 1.415 . S
C3305 H3275 0.950 . S
C3305 C3300 1.363 . S
C3305 C3304 1.415 . S
H3306 C3303 0.999 . S
H3307 C3288 0.913 . S
H3308 C3326 0.951 . S
H3309 C3328 0.951 . S
H3310 C3330 0.950 . S
H3311 C3331 0.950 . S
H3312 C3333 0.950 . S
H3313 C3336 0.950 . S
H3314 C3337 0.950 . S
H3315 C3339 0.950 . S
H3316 C3340 0.950 . S
H3317 C3341 0.951 . S
H3318 C3343 0.951 . S
H3319 C3345 0.950 . S
H3320 C3346 0.950 . S
H3321 C3348 0.950 . S
H3322 C3351 0.950 . S
H3323 C3352 0.950 . S
H3324 C3354 0.950 . S
H3325 C3355 0.950 . S
C3326 H3308 0.951 . S
C3326 C3327 1.366 . S
C3326 C3328 1.388 . S
C3327 C3326 1.366 . S
C3327 C3331 1.385 . S
C3328 H3309 0.951 . S
C3328 C3326 1.388 . S
C3328 C3329 1.366 . S
C3329 C3328 1.366 . S
C3329 C3330 1.414 . S
C3329 C3332 1.499 . S
C3330 H3310 0.950 . S
C3330 C3329 1.414 . S
C3330 C3331 1.374 . S
C3331 H3311 0.950 . S
C3331 C3327 1.385 . S
C3331 C3330 1.374 . S
C3332 C3329 1.499 . S
C3332 C3333 1.373 . S
C3332 C3334 1.389 . S
C3333 H3312 0.950 . S
C3333 C3332 1.373 . S
C3333 C3349 1.377 . S
C3334 C3332 1.389 . S
C3334 C3335 1.524 . S
C3334 C3348 1.377 . S
C3335 C3334 1.524 . S
C3335 C3336 1.397 . S
C3335 C3340 1.363 . S
C3336 H3313 0.950 . S
C3336 C3335 1.397 . S
C3336 C3337 1.334 . S
C3337 H3314 0.950 . S
C3337 C3336 1.334 . S
C3337 C3338 1.287 . S
C3338 C3337 1.287 . S
C3338 C3339 1.524 . S
C3338 H3357 0.913 . S
C3339 H3315 0.950 . S
C3339 C3338 1.524 . S
C3339 C3340 1.415 . S
C3340 H3316 0.950 . S
C3340 C3335 1.363 . S
C3340 C3339 1.415 . S
C3341 H3317 0.951 . S
C3341 C3342 1.366 . S
C3341 C3343 1.388 . S
C3342 C3341 1.366 . S
C3342 C3346 1.385 . S
C3343 H3318 0.951 . S
C3343 C3341 1.388 . S
C3343 C3344 1.366 . S
C3344 C3343 1.366 . S
C3344 C3345 1.414 . S
C3344 C3347 1.499 . S
C3345 H3319 0.950 . S
C3345 C3344 1.414 . S
C3345 C3346 1.374 . S
C3346 H3320 0.950 . S
C3346 C3342 1.385 . S
C3346 C3345 1.374 . S
C3347 C3344 1.499 . S
C3347 C3348 1.373 . S
C3347 C3349 1.389 . S
C3348 H3321 0.950 . S
C3348 C3334 1.377 . S
C3348 C3347 1.373 . S
C3349 C3333 1.377 . S
C3349 C3347 1.389 . S
C3349 C3350 1.524 . S
C3350 C3349 1.524 . S
C3350 C3351 1.397 . S
C3350 C3355 1.363 . S
C3351 H3322 0.950 . S
C3351 C3350 1.397 . S
C3351 C3352 1.334 . S
C3352 H3323 0.950 . S
C3352 C3351 1.334 . S
C3352 C3353 1.287 . S
C3353 C3352 1.287 . S
C3353 C3354 1.524 . S
C3353 H3356 0.999 . S
C3354 H3324 0.950 . S
C3354 C3353 1.524 . S
C3354 C3355 1.415 . S
C3355 H3325 0.950 . S
C3355 C3350 1.363 . S
C3355 C3354 1.415 . S
H3356 C3353 0.999 . S
H3357 C3338 0.913 . S
H3358 C3376 0.951 . S
H3359 C3378 0.951 . S
H3360 C3380 0.950 . S
H3361 C3381 0.950 . S
H3362 C3383 0.950 . S
H3363 C3386 0.950 . S
H3364 C3387 0.950 . S
H3365 C3389 0.950 . S
H3366 C3390 0.950 . S
H3367 C3391 0.951 . S
H3368 C3393 0.951 . S
H3369 C3395 0.950 . S
H3370 C3396 0.950 . S
H3371 C3398 0.950 . S
H3372 C3401 0.950 . S
H3373 C3402 0.950 . S
H3374 C3404 0.950 . S
H3375 C3405 0.950 . S
C3376 H3358 0.951 . S
C3376 C3377 1.366 . S
C3376 C3378 1.388 . S
C3377 C3376 1.366 . S
C3377 C3381 1.385 . S
C3378 H3359 0.951 . S
C3378 C3376 1.388 . S
C3378 C3379 1.366 . S
C3379 C3378 1.366 . S
C3379 C3380 1.414 . S
C3379 C3382 1.499 . S
C3380 H3360 0.950 . S
C3380 C3379 1.414 . S
C3380 C3381 1.374 . S
C3381 H3361 0.950 . S
C3381 C3377 1.385 . S
C3381 C3380 1.374 . S
C3382 C3379 1.499 . S
C3382 C3383 1.373 . S
C3382 C3384 1.389 . S
C3383 H3362 0.950 . S
C3383 C3382 1.373 . S
C3383 C3399 1.377 . S
C3384 C3382 1.389 . S
C3384 C3385 1.524 . S
C3384 C3398 1.377 . S
C3385 C3384 1.524 . S
C3385 C3386 1.397 . S
C3385 C3390 1.363 . S
C3386 H3363 0.950 . S
C3386 C3385 1.397 . S
C3386 C3387 1.334 . S
C3387 H3364 0.950 . S
C3387 C3386 1.334 . S
C3387 C3388 1.287 . S
C3388 C3387 1.287 . S
C3388 C3389 1.524 . S
C3388 H3407 0.913 . S
C3389 H3365 0.950 . S
C3389 C3388 1.524 . S
C3389 C3390 1.415 . S
C3390 H3366 0.950 . S
C3390 C3385 1.363 . S
C3390 C3389 1.415 . S
C3391 H3367 0.951 . S
C3391 C3392 1.366 . S
C3391 C3393 1.388 . S
C3392 C3391 1.366 . S
C3392 C3396 1.385 . S
C3393 H3368 0.951 . S
C3393 C3391 1.388 . S
C3393 C3394 1.366 . S
C3394 C3393 1.366 . S
C3394 C3395 1.414 . S
C3394 C3397 1.499 . S
C3395 H3369 0.950 . S
C3395 C3394 1.414 . S
C3395 C3396 1.374 . S
C3396 H3370 0.950 . S
C3396 C3392 1.385 . S
C3396 C3395 1.374 . S
C3397 C3394 1.499 . S
C3397 C3398 1.373 . S
C3397 C3399 1.389 . S
C3398 H3371 0.950 . S
C3398 C3384 1.377 . S
C3398 C3397 1.373 . S
C3399 C3383 1.377 . S
C3399 C3397 1.389 . S
C3399 C3400 1.524 . S
C3400 C3399 1.524 . S
C3400 C3401 1.397 . S
C3400 C3405 1.363 . S
C3401 H3372 0.950 . S
C3401 C3400 1.397 . S
C3401 C3402 1.334 . S
C3402 H3373 0.950 . S
C3402 C3401 1.334 . S
C3402 C3403 1.287 . S
C3403 C3402 1.287 . S
C3403 C3404 1.524 . S
C3403 H3406 0.999 . S
C3404 H3374 0.950 . S
C3404 C3403 1.524 . S
C3404 C3405 1.415 . S
C3405 H3375 0.950 . S
C3405 C3400 1.363 . S
C3405 C3404 1.415 . S
H3406 C3403 0.999 . S
H3407 C3388 0.913 . S
H3408 C3426 0.951 . S
H3409 C3428 0.951 . S
H3410 C3430 0.950 . S
H3411 C3431 0.950 . S
H3412 C3433 0.950 . S
H3413 C3436 0.950 . S
H3414 C3437 0.950 . S
H3415 C3439 0.950 . S
H3416 C3440 0.950 . S
H3417 C3441 0.951 . S
H3418 C3443 0.951 . S
H3419 C3445 0.950 . S
H3420 C3446 0.950 . S
H3421 C3448 0.950 . S
H3422 C3451 0.950 . S
H3423 C3452 0.950 . S
H3424 C3454 0.950 . S
H3425 C3455 0.950 . S
C3426 H3408 0.951 . S
C3426 C3427 1.366 . S
C3426 C3428 1.388 . S
C3427 C3426 1.366 . S
C3427 C3431 1.385 . S
C3428 H3409 0.951 . S
C3428 C3426 1.388 . S
C3428 C3429 1.366 . S
C3429 C3428 1.366 . S
C3429 C3430 1.414 . S
C3429 C3432 1.499 . S
C3430 H3410 0.950 . S
C3430 C3429 1.414 . S
C3430 C3431 1.374 . S
C3431 H3411 0.950 . S
C3431 C3427 1.385 . S
C3431 C3430 1.374 . S
C3432 C3429 1.499 . S
C3432 C3433 1.373 . S
C3432 C3434 1.389 . S
C3433 H3412 0.950 . S
C3433 C3432 1.373 . S
C3433 C3449 1.377 . S
C3434 C3432 1.389 . S
C3434 C3435 1.524 . S
C3434 C3448 1.377 . S
C3435 C3434 1.524 . S
C3435 C3436 1.397 . S
C3435 C3440 1.363 . S
C3436 H3413 0.950 . S
C3436 C3435 1.397 . S
C3436 C3437 1.334 . S
C3437 H3414 0.950 . S
C3437 C3436 1.334 . S
C3437 C3438 1.287 . S
C3438 C3437 1.287 . S
C3438 C3439 1.524 . S
C3438 H3457 0.913 . S
C3439 H3415 0.950 . S
C3439 C3438 1.524 . S
C3439 C3440 1.415 . S
C3440 H3416 0.950 . S
C3440 C3435 1.363 . S
C3440 C3439 1.415 . S
C3441 H3417 0.951 . S
C3441 C3442 1.366 . S
C3441 C3443 1.388 . S
C3442 C3441 1.366 . S
C3442 C3446 1.385 . S
C3443 H3418 0.951 . S
C3443 C3441 1.388 . S
C3443 C3444 1.366 . S
C3444 C3443 1.366 . S
C3444 C3445 1.414 . S
C3444 C3447 1.499 . S
C3445 H3419 0.950 . S
C3445 C3444 1.414 . S
C3445 C3446 1.374 . S
C3446 H3420 0.950 . S
C3446 C3442 1.385 . S
C3446 C3445 1.374 . S
C3447 C3444 1.499 . S
C3447 C3448 1.373 . S
C3447 C3449 1.389 . S
C3448 H3421 0.950 . S
C3448 C3434 1.377 . S
C3448 C3447 1.373 . S
C3449 C3433 1.377 . S
C3449 C3447 1.389 . S
C3449 C3450 1.524 . S
C3450 C3449 1.524 . S
C3450 C3451 1.397 . S
C3450 C3455 1.363 . S
C3451 H3422 0.950 . S
C3451 C3450 1.397 . S
C3451 C3452 1.334 . S
C3452 H3423 0.950 . S
C3452 C3451 1.334 . S
C3452 C3453 1.287 . S
C3453 C3452 1.287 . S
C3453 C3454 1.524 . S
C3453 H3456 0.999 . S
C3454 H3424 0.950 . S
C3454 C3453 1.524 . S
C3454 C3455 1.415 . S
C3455 H3425 0.950 . S
C3455 C3450 1.363 . S
C3455 C3454 1.415 . S
H3456 C3453 0.999 . S
H3457 C3438 0.913 . S
H3458 C3476 0.951 . S
H3459 C3478 0.951 . S
H3460 C3480 0.950 . S
H3461 C3481 0.950 . S
H3462 C3483 0.950 . S
H3463 C3486 0.950 . S
H3464 C3487 0.950 . S
H3465 C3489 0.950 . S
H3466 C3490 0.950 . S
H3467 C3491 0.951 . S
H3468 C3493 0.951 . S
H3469 C3495 0.950 . S
H3470 C3496 0.950 . S
H3471 C3498 0.950 . S
H3472 C3501 0.950 . S
H3473 C3502 0.950 . S
H3474 C3504 0.950 . S
H3475 C3505 0.950 . S
C3476 H3458 0.951 . S
C3476 C3477 1.366 . S
C3476 C3478 1.388 . S
C3477 C3476 1.366 . S
C3477 C3481 1.385 . S
C3478 H3459 0.951 . S
C3478 C3476 1.388 . S
C3478 C3479 1.366 . S
C3479 C3478 1.366 . S
C3479 C3480 1.414 . S
C3479 C3482 1.499 . S
C3480 H3460 0.950 . S
C3480 C3479 1.414 . S
C3480 C3481 1.374 . S
C3481 H3461 0.950 . S
C3481 C3477 1.385 . S
C3481 C3480 1.374 . S
C3482 C3479 1.499 . S
C3482 C3483 1.373 . S
C3482 C3484 1.389 . S
C3483 H3462 0.950 . S
C3483 C3482 1.373 . S
C3483 C3499 1.377 . S
C3484 C3482 1.389 . S
C3484 C3485 1.524 . S
C3484 C3498 1.377 . S
C3485 C3484 1.524 . S
C3485 C3486 1.397 . S
C3485 C3490 1.363 . S
C3486 H3463 0.950 . S
C3486 C3485 1.397 . S
C3486 C3487 1.334 . S
C3487 H3464 0.950 . S
C3487 C3486 1.334 . S
C3487 C3488 1.287 . S
C3488 C3487 1.287 . S
C3488 C3489 1.524 . S
C3488 H3507 0.913 . S
C3489 H3465 0.950 . S
C3489 C3488 1.524 . S
C3489 C3490 1.415 . S
C3490 H3466 0.950 . S
C3490 C3485 1.363 . S
C3490 C3489 1.415 . S
C3491 H3467 0.951 . S
C3491 C3492 1.366 . S
C3491 C3493 1.388 . S
C3492 C3491 1.366 . S
C3492 C3496 1.385 . S
C3493 H3468 0.951 . S
C3493 C3491 1.388 . S
C3493 C3494 1.366 . S
C3494 C3493 1.366 . S
C3494 C3495 1.414 . S
C3494 C3497 1.499 . S
C3495 H3469 0.950 . S
C3495 C3494 1.414 . S
C3495 C3496 1.374 . S
C3496 H3470 0.950 . S
C3496 C3492 1.385 . S
C3496 C3495 1.374 . S
C3497 C3494 1.499 . S
C3497 C3498 1.373 . S
C3497 C3499 1.389 . S
C3498 H3471 0.950 . S
C3498 C3484 1.377 . S
C3498 C3497 1.373 . S
C3499 C3483 1.377 . S
C3499 C3497 1.389 . S
C3499 C3500 1.524 . S
C3500 C3499 1.524 . S
C3500 C3501 1.397 . S
C3500 C3505 1.363 . S
C3501 H3472 0.950 . S
C3501 C3500 1.397 . S
C3501 C3502 1.334 . S
C3502 H3473 0.950 . S
C3502 C3501 1.334 . S
C3502 C3503 1.287 . S
C3503 C3502 1.287 . S
C3503 C3504 1.524 . S
C3503 H3506 0.999 . S
C3504 H3474 0.950 . S
C3504 C3503 1.524 . S
C3504 C3505 1.415 . S
C3505 H3475 0.950 . S
C3505 C3500 1.363 . S
C3505 C3504 1.415 . S
H3506 C3503 0.999 . S
H3507 C3488 0.913 . S
H3508 C3526 0.951 . S
H3509 C3528 0.951 . S
H3510 C3530 0.950 . S
H3511 C3531 0.950 . S
H3512 C3533 0.950 . S
H3513 C3536 0.950 . S
H3514 C3537 0.950 . S
H3515 C3539 0.950 . S
H3516 C3540 0.950 . S
H3517 C3541 0.951 . S
H3518 C3543 0.951 . S
H3519 C3545 0.950 . S
H3520 C3546 0.950 . S
H3521 C3548 0.950 . S
H3522 C3551 0.950 . S
H3523 C3552 0.950 . S
H3524 C3554 0.950 . S
H3525 C3555 0.950 . S
C3526 H3508 0.951 . S
C3526 C3527 1.366 . S
C3526 C3528 1.388 . S
C3527 C3526 1.366 . S
C3527 C3531 1.385 . S
C3528 H3509 0.951 . S
C3528 C3526 1.388 . S
C3528 C3529 1.366 . S
C3529 C3528 1.366 . S
C3529 C3530 1.414 . S
C3529 C3532 1.499 . S
C3530 H3510 0.950 . S
C3530 C3529 1.414 . S
C3530 C3531 1.374 . S
C3531 H3511 0.950 . S
C3531 C3527 1.385 . S
C3531 C3530 1.374 . S
C3532 C3529 1.499 . S
C3532 C3533 1.373 . S
C3532 C3534 1.389 . S
C3533 H3512 0.950 . S
C3533 C3532 1.373 . S
C3533 C3549 1.377 . S
C3534 C3532 1.389 . S
C3534 C3535 1.524 . S
C3534 C3548 1.377 . S
C3535 C3534 1.524 . S
C3535 C3536 1.397 . S
C3535 C3540 1.363 . S
C3536 H3513 0.950 . S
C3536 C3535 1.397 . S
C3536 C3537 1.334 . S
C3537 H3514 0.950 . S
C3537 C3536 1.334 . S
C3537 C3538 1.287 . S
C3538 C3537 1.287 . S
C3538 C3539 1.524 . S
C3538 H3557 0.913 . S
C3539 H3515 0.950 . S
C3539 C3538 1.524 . S
C3539 C3540 1.415 . S
C3540 H3516 0.950 . S
C3540 C3535 1.363 . S
C3540 C3539 1.415 . S
C3541 H3517 0.951 . S
C3541 C3542 1.366 . S
C3541 C3543 1.388 . S
C3542 C3541 1.366 . S
C3542 C3546 1.385 . S
C3543 H3518 0.951 . S
C3543 C3541 1.388 . S
C3543 C3544 1.366 . S
C3544 C3543 1.366 . S
C3544 C3545 1.414 . S
C3544 C3547 1.499 . S
C3545 H3519 0.950 . S
C3545 C3544 1.414 . S
C3545 C3546 1.374 . S
C3546 H3520 0.950 . S
C3546 C3542 1.385 . S
C3546 C3545 1.374 . S
C3547 C3544 1.499 . S
C3547 C3548 1.373 . S
C3547 C3549 1.389 . S
C3548 H3521 0.950 . S
C3548 C3534 1.377 . S
C3548 C3547 1.373 . S
C3549 C3533 1.377 . S
C3549 C3547 1.389 . S
C3549 C3550 1.524 . S
C3550 C3549 1.524 . S
C3550 C3551 1.397 . S
C3550 C3555 1.363 . S
C3551 H3522 0.950 . S
C3551 C3550 1.397 . S
C3551 C3552 1.334 . S
C3552 H3523 0.950 . S
C3552 C3551 1.334 . S
C3552 C3553 1.287 . S
C3553 C3552 1.287 . S
C3553 C3554 1.524 . S
C3553 H3556 0.999 . S
C3554 H3524 0.950 . S
C3554 C3553 1.524 . S
C3554 C3555 1.415 . S
C3555 H3525 0.950 . S
C3555 C3550 1.363 . S
C3555 C3554 1.415 . S
H3556 C3553 0.999 . S
H3557 C3538 0.913 . S
H3558 C3576 0.951 . S
H3559 C3578 0.951 . S
H3560 C3580 0.950 . S
H3561 C3581 0.950 . S
H3562 C3583 0.950 . S
H3563 C3586 0.950 . S
H3564 C3587 0.950 . S
H3565 C3589 0.950 . S
H3566 C3590 0.950 . S
H3567 C3591 0.951 . S
H3568 C3593 0.951 . S
H3569 C3595 0.950 . S
H3570 C3596 0.950 . S
H3571 C3598 0.950 . S
H3572 C3601 0.950 . S
H3573 C3602 0.950 . S
H3574 C3604 0.950 . S
H3575 C3605 0.950 . S
C3576 H3558 0.951 . S
C3576 C3577 1.366 . S
C3576 C3578 1.388 . S
C3577 C3576 1.366 . S
C3577 C3581 1.385 . S
C3578 H3559 0.951 . S
C3578 C3576 1.388 . S
C3578 C3579 1.366 . S
C3579 C3578 1.366 . S
C3579 C3580 1.414 . S
C3579 C3582 1.499 . S
C3580 H3560 0.950 . S
C3580 C3579 1.414 . S
C3580 C3581 1.374 . S
C3581 H3561 0.950 . S
C3581 C3577 1.385 . S
C3581 C3580 1.374 . S
C3582 C3579 1.499 . S
C3582 C3583 1.373 . S
C3582 C3584 1.389 . S
C3583 H3562 0.950 . S
C3583 C3582 1.373 . S
C3583 C3599 1.377 . S
C3584 C3582 1.389 . S
C3584 C3585 1.524 . S
C3584 C3598 1.377 . S
C3585 C3584 1.524 . S
C3585 C3586 1.397 . S
C3585 C3590 1.363 . S
C3586 H3563 0.950 . S
C3586 C3585 1.397 . S
C3586 C3587 1.334 . S
C3587 H3564 0.950 . S
C3587 C3586 1.334 . S
C3587 C3588 1.287 . S
C3588 C3587 1.287 . S
C3588 C3589 1.524 . S
C3588 H3607 0.913 . S
C3589 H3565 0.950 . S
C3589 C3588 1.524 . S
C3589 C3590 1.415 . S
C3590 H3566 0.950 . S
C3590 C3585 1.363 . S
C3590 C3589 1.415 . S
C3591 H3567 0.951 . S
C3591 C3592 1.366 . S
C3591 C3593 1.388 . S
C3592 C3591 1.366 . S
C3592 C3596 1.385 . S
C3593 H3568 0.951 . S
C3593 C3591 1.388 . S
C3593 C3594 1.366 . S
C3594 C3593 1.366 . S
C3594 C3595 1.414 . S
C3594 C3597 1.499 . S
C3595 H3569 0.950 . S
C3595 C3594 1.414 . S
C3595 C3596 1.374 . S
C3596 H3570 0.950 . S
C3596 C3592 1.385 . S
C3596 C3595 1.374 . S
C3597 C3594 1.499 . S
C3597 C3598 1.373 . S
C3597 C3599 1.389 . S
C3598 H3571 0.950 . S
C3598 C3584 1.377 . S
C3598 C3597 1.373 . S
C3599 C3583 1.377 . S
C3599 C3597 1.389 . S
C3599 C3600 1.524 . S
C3600 C3599 1.524 . S
C3600 C3601 1.397 . S
C3600 C3605 1.363 . S
C3601 H3572 0.950 . S
C3601 C3600 1.397 . S
C3601 C3602 1.334 . S
C3602 H3573 0.950 . S
C3602 C3601 1.334 . S
C3602 C3603 1.287 . S
C3603 C3602 1.287 . S
C3603 C3604 1.524 . S
C3603 H3606 0.999 . S
C3604 H3574 0.950 . S
C3604 C3603 1.524 . S
C3604 C3605 1.415 . S
C3605 H3575 0.950 . S
C3605 C3600 1.363 . S
C3605 C3604 1.415 . S
H3606 C3603 0.999 . S
H3607 C3588 0.913 . S
H3608 C3626 0.951 . S
H3609 C3628 0.951 . S
H3610 C3630 0.950 . S
H3611 C3631 0.950 . S
H3612 C3633 0.950 . S
H3613 C3636 0.950 . S
H3614 C3637 0.950 . S
H3615 C3639 0.950 . S
H3616 C3640 0.950 . S
H3617 C3641 0.951 . S
H3618 C3643 0.951 . S
H3619 C3645 0.950 . S
H3620 C3646 0.950 . S
H3621 C3648 0.950 . S
H3622 C3651 0.950 . S
H3623 C3652 0.950 . S
H3624 C3654 0.950 . S
H3625 C3655 0.950 . S
C3626 H3608 0.951 . S
C3626 C3627 1.366 . S
C3626 C3628 1.388 . S
C3627 C3626 1.366 . S
C3627 C3631 1.385 . S
C3628 H3609 0.951 . S
C3628 C3626 1.388 . S
C3628 C3629 1.366 . S
C3629 C3628 1.366 . S
C3629 C3630 1.414 . S
C3629 C3632 1.499 . S
C3630 H3610 0.950 . S
C3630 C3629 1.414 . S
C3630 C3631 1.374 . S
C3631 H3611 0.950 . S
C3631 C3627 1.385 . S
C3631 C3630 1.374 . S
C3632 C3629 1.499 . S
C3632 C3633 1.373 . S
C3632 C3634 1.389 . S
C3633 H3612 0.950 . S
C3633 C3632 1.373 . S
C3633 C3649 1.377 . S
C3634 C3632 1.389 . S
C3634 C3635 1.524 . S
C3634 C3648 1.377 . S
C3635 C3634 1.524 . S
C3635 C3636 1.397 . S
C3635 C3640 1.363 . S
C3636 H3613 0.950 . S
C3636 C3635 1.397 . S
C3636 C3637 1.334 . S
C3637 H3614 0.950 . S
C3637 C3636 1.334 . S
C3637 C3638 1.287 . S
C3638 C3637 1.287 . S
C3638 C3639 1.524 . S
C3638 H3657 0.913 . S
C3639 H3615 0.950 . S
C3639 C3638 1.524 . S
C3639 C3640 1.415 . S
C3640 H3616 0.950 . S
C3640 C3635 1.363 . S
C3640 C3639 1.415 . S
C3641 H3617 0.951 . S
C3641 C3642 1.366 . S
C3641 C3643 1.388 . S
C3642 C3641 1.366 . S
C3642 C3646 1.385 . S
C3643 H3618 0.951 . S
C3643 C3641 1.388 . S
C3643 C3644 1.366 . S
C3644 C3643 1.366 . S
C3644 C3645 1.414 . S
C3644 C3647 1.499 . S
C3645 H3619 0.950 . S
C3645 C3644 1.414 . S
C3645 C3646 1.374 . S
C3646 H3620 0.950 . S
C3646 C3642 1.385 . S
C3646 C3645 1.374 . S
C3647 C3644 1.499 . S
C3647 C3648 1.373 . S
C3647 C3649 1.389 . S
C3648 H3621 0.950 . S
C3648 C3634 1.377 . S
C3648 C3647 1.373 . S
C3649 C3633 1.377 . S
C3649 C3647 1.389 . S
C3649 C3650 1.524 . S
C3650 C3649 1.524 . S
C3650 C3651 1.397 . S
C3650 C3655 1.363 . S
C3651 H3622 0.950 . S
C3651 C3650 1.397 . S
C3651 C3652 1.334 . S
C3652 H3623 0.950 . S
C3652 C3651 1.334 . S
C3652 C3653 1.287 . S
C3653 C3652 1.287 . S
C3653 C3654 1.524 . S
C3653 H3656 0.999 . S
C3654 H3624 0.950 . S
C3654 C3653 1.524 . S
C3654 C3655 1.415 . S
C3655 H3625 0.950 . S
C3655 C3650 1.363 . S
C3655 C3654 1.415 . S
H3656 C3653 0.999 . S
H3657 C3638 0.913 . S
H3658 C3676 0.951 . S
H3659 C3678 0.951 . S
H3660 C3680 0.950 . S
H3661 C3681 0.950 . S
H3662 C3683 0.950 . S
H3663 C3686 0.950 . S
H3664 C3687 0.950 . S
H3665 C3689 0.950 . S
H3666 C3690 0.950 . S
H3667 C3691 0.951 . S
H3668 C3693 0.951 . S
H3669 C3695 0.950 . S
H3670 C3696 0.950 . S
H3671 C3698 0.950 . S
H3672 C3701 0.950 . S
H3673 C3702 0.950 . S
H3674 C3704 0.950 . S
H3675 C3705 0.950 . S
C3676 H3658 0.951 . S
C3676 C3677 1.366 . S
C3676 C3678 1.388 . S
C3677 C3676 1.366 . S
C3677 C3681 1.385 . S
C3678 H3659 0.951 . S
C3678 C3676 1.388 . S
C3678 C3679 1.366 . S
C3679 C3678 1.366 . S
C3679 C3680 1.414 . S
C3679 C3682 1.499 . S
C3680 H3660 0.950 . S
C3680 C3679 1.414 . S
C3680 C3681 1.374 . S
C3681 H3661 0.950 . S
C3681 C3677 1.385 . S
C3681 C3680 1.374 . S
C3682 C3679 1.499 . S
C3682 C3683 1.373 . S
C3682 C3684 1.389 . S
C3683 H3662 0.950 . S
C3683 C3682 1.373 . S
C3683 C3699 1.377 . S
C3684 C3682 1.389 . S
C3684 C3685 1.524 . S
C3684 C3698 1.377 . S
C3685 C3684 1.524 . S
C3685 C3686 1.397 . S
C3685 C3690 1.363 . S
C3686 H3663 0.950 . S
C3686 C3685 1.397 . S
C3686 C3687 1.334 . S
C3687 H3664 0.950 . S
C3687 C3686 1.334 . S
C3687 C3688 1.287 . S
C3688 C3687 1.287 . S
C3688 C3689 1.524 . S
C3688 H3707 0.913 . S
C3689 H3665 0.950 . S
C3689 C3688 1.524 . S
C3689 C3690 1.415 . S
C3690 H3666 0.950 . S
C3690 C3685 1.363 . S
C3690 C3689 1.415 . S
C3691 H3667 0.951 . S
C3691 C3692 1.366 . S
C3691 C3693 1.388 . S
C3692 C3691 1.366 . S
C3692 C3696 1.385 . S
C3693 H3668 0.951 . S
C3693 C3691 1.388 . S
C3693 C3694 1.366 . S
C3694 C3693 1.366 . S
C3694 C3695 1.414 . S
C3694 C3697 1.499 . S
C3695 H3669 0.950 . S
C3695 C3694 1.414 . S
C3695 C3696 1.374 . S
C3696 H3670 0.950 . S
C3696 C3692 1.385 . S
C3696 C3695 1.374 . S
C3697 C3694 1.499 . S
C3697 C3698 1.373 . S
C3697 C3699 1.389 . S
C3698 H3671 0.950 . S
C3698 C3684 1.377 . S
C3698 C3697 1.373 . S
C3699 C3683 1.377 . S
C3699 C3697 1.389 . S
C3699 C3700 1.524 . S
C3700 C3699 1.524 . S
C3700 C3701 1.397 . S
C3700 C3705 1.363 . S
C3701 H3672 0.950 . S
C3701 C3700 1.397 . S
C3701 C3702 1.334 . S
C3702 H3673 0.950 . S
C3702 C3701 1.334 . S
C3702 C3703 1.287 . S
C3703 C3702 1.287 . S
C3703 C3704 1.524 . S
C3703 H3706 0.999 . S
C3704 H3674 0.950 . S
C3704 C3703 1.524 . S
C3704 C3705 1.415 . S
C3705 H3675 0.950 . S
C3705 C3700 1.363 . S
C3705 C3704 1.415 . S
H3706 C3703 0.999 . S
H3707 C3688 0.913 . S
C1027 C469 1.662 . S
C1042 C660 1.666 . S
C1077 C505 1.832 . S
C1092 C700 1.828 . S
C1127 C433 1.738 . S
C1142 C730 1.722 . S
C1177 C397 1.549 . S
C1192 C690 1.529 . S
C1242 C740 1.439 . S
C1227 C325 1.435 . S
C1277 C361 1.346 . S
C1292 C650 1.373 . S
C1342 C679 1.666 . S
C1327 C421 1.667 . S
C1392 C719 1.827 . S
C1377 C349 1.829 . S
C1427 C385 1.733 . S
C1442 C745 1.725 . S
C1477 C493 1.546 . S
C1492 C705 1.530 . S
C1527 C529 1.441 . S
C1542 C759 1.439 . S
C1592 C665 1.349 . S
C1577 C457 1.349 . S
C1642 C780 1.666 . S
C1627 C37 1.662 . S
C1677 C73 1.832 . S
C1692 C820 1.828 . S
C1727 C1 1.738 . S
C1742 C850 1.723 . S
C1777 C613 1.549 . S
C1792 C810 1.529 . S
C1827 C541 1.435 . S
C1842 C860 1.439 . S
C1877 C577 1.347 . S
C1892 C770 1.347 . S
C1927 C637 1.668 . S
C1942 C799 1.667 . S
C1977 C565 1.829 . S
C1992 C839 1.827 . S
C2042 C865 1.724 . S
C2027 C601 1.733 . S
C2077 C61 1.545 . S
C2092 C825 1.529 . S
C2142 C879 1.438 . S
C2127 C97 1.441 . S
C2177 C25 1.349 . S
C2192 C785 1.349 . S
C2242 C900 1.666 . S
C2227 C253 1.662 . S
C2277 C289 1.832 . S
C2292 C940 1.828 . S
C2342 C970 1.723 . S
C2327 C217 1.738 . S
C2392 C930 1.528 . S
C2377 C181 1.549 . S
C2442 C980 1.439 . S
C2427 C109 1.435 . S
C2477 C145 1.347 . S
C2492 C890 1.347 . S
C2527 C205 1.667 . S
C2542 C919 1.666 . S
C2577 C133 1.829 . S
C2592 C959 1.827 . S
C2642 C985 1.725 . S
C2627 C169 1.733 . S
C2677 C277 1.546 . S
C2692 C945 1.529 . S
C2727 C313 1.441 . S
C2742 C999 1.439 . S
C2777 C241 1.349 . S
C2792 C905 1.348 . S
C2827 C571 1.254 . S
C2842 C677 1.247 . S
C2892 C717 1.902 . S
C2877 C607 1.922 . S
C2927 C643 1.580 . S
C2942 C736 1.578 . S
C2977 C247 1.920 . S
C2992 C696 1.901 . S
C3027 C283 1.584 . S
C3042 C757 1.579 . S
C3092 C656 1.246 . S
C3077 C319 1.253 . S
C3127 C139 1.254 . S
C3142 C797 1.247 . S
C3177 C175 1.922 . S
C3192 C837 1.902 . S
C3227 C211 1.580 . S
C3242 C856 1.578 . S
C3277 C463 1.920 . S
C3292 C816 1.901 . S
C3342 C877 1.579 . S
C3327 C499 1.584 . S
C3377 C535 1.253 . S
C3392 C776 1.246 . S
C3427 C355 1.254 . S
C3442 C917 1.247 . S
C3477 C391 1.922 . S
C3492 C957 1.902 . S
C3542 C976 1.578 . S
C3527 C427 1.580 . S
C3577 C31 1.920 . S
C3592 C936 1.901 . S
C3627 C67 1.584 . S
C3642 C997 1.579 . S
C3677 C103 1.253 . S
C3692 C896 1.246 . S
