# Generated by pormake.
# Topology the, (3,8)-cn, num edge types: 1
# Building blocks:
#     Node 0, Type 0, BuildingBlock: KAKCAD_clean_linker_0, # of connection points: 3
#     Node 1, Type 0, BuildingBlock: KAKCAD_clean_linker_0, # of connection points: 3
#     Node 2, Type 0, BuildingBlock: KAKCAD_clean_linker_0, # of connection points: 3
#     Node 3, Type 0, BuildingBlock: KAKCAD_clean_linker_0, # of connection points: 3
#     Node 4, Type 0, BuildingBlock: KAKCAD_clean_linker_0, # of connection points: 3
#     Node 5, Type 0, BuildingBlock: KAKCAD_clean_linker_0, # of connection points: 3
#     Node 6, Type 0, BuildingBlock: KAKCAD_clean_linker_0, # of connection points: 3
#     Node 7, Type 0, BuildingBlock: KAKCAD_clean_linker_0, # of connection points: 3
#     Node 8, Type 1, BuildingBlock: GIZVER_clean_sbu_0, # of connection points: 8
#     Node 9, Type 1, BuildingBlock: GIZVER_clean_sbu_0, # of connection points: 8
#     Node 10, Type 1, BuildingBlock: GIZVER_clean_sbu_0, # of connection points: 8
#     Edge 11, Type (0, 1), BuildingBlock: TEMPAE_clean_linker_10, # of connection points: 2
#     Edge 12, Type (0, 1), BuildingBlock: TEMPAE_clean_linker_10, # of connection points: 2
#     Edge 13, Type (0, 1), BuildingBlock: TEMPAE_clean_linker_10, # of connection points: 2
#     Edge 14, Type (0, 1), BuildingBlock: TEMPAE_clean_linker_10, # of connection points: 2
#     Edge 15, Type (0, 1), BuildingBlock: TEMPAE_clean_linker_10, # of connection points: 2
#     Edge 16, Type (0, 1), BuildingBlock: TEMPAE_clean_linker_10, # of connection points: 2
#     Edge 17, Type (0, 1), BuildingBlock: TEMPAE_clean_linker_10, # of connection points: 2
#     Edge 18, Type (0, 1), BuildingBlock: TEMPAE_clean_linker_10, # of connection points: 2
#     Edge 19, Type (0, 1), BuildingBlock: TEMPAE_clean_linker_10, # of connection points: 2
#     Edge 20, Type (0, 1), BuildingBlock: TEMPAE_clean_linker_10, # of connection points: 2
#     Edge 21, Type (0, 1), BuildingBlock: TEMPAE_clean_linker_10, # of connection points: 2
#     Edge 22, Type (0, 1), BuildingBlock: TEMPAE_clean_linker_10, # of connection points: 2
#     Edge 23, Type (0, 1), BuildingBlock: TEMPAE_clean_linker_10, # of connection points: 2
#     Edge 24, Type (0, 1), BuildingBlock: TEMPAE_clean_linker_10, # of connection points: 2
#     Edge 25, Type (0, 1), BuildingBlock: TEMPAE_clean_linker_10, # of connection points: 2
#     Edge 26, Type (0, 1), BuildingBlock: TEMPAE_clean_linker_10, # of connection points: 2
#     Edge 27, Type (0, 1), BuildingBlock: TEMPAE_clean_linker_10, # of connection points: 2
#     Edge 28, Type (0, 1), BuildingBlock: TEMPAE_clean_linker_10, # of connection points: 2
#     Edge 29, Type (0, 1), BuildingBlock: TEMPAE_clean_linker_10, # of connection points: 2
#     Edge 30, Type (0, 1), BuildingBlock: TEMPAE_clean_linker_10, # of connection points: 2
#     Edge 31, Type (0, 1), BuildingBlock: TEMPAE_clean_linker_10, # of connection points: 2
#     Edge 32, Type (0, 1), BuildingBlock: TEMPAE_clean_linker_10, # of connection points: 2
#     Edge 33, Type (0, 1), BuildingBlock: TEMPAE_clean_linker_10, # of connection points: 2
#     Edge 34, Type (0, 1), BuildingBlock: TEMPAE_clean_linker_10, # of connection points: 2
# Relax obj value: 0.045
# Max RMSD: 0.139
# Mean RMSD: 0.067
data_MOF--net-the--node1-GIZVER_clean_sbu_0--node2-KAKCAD_clean_linker_0--edge1-TEMPAE_clean_linker_10
_symmetry_space_group_name_H-M    P1
_symmetry_Int_Tables_number       1
_symmetry_cell_setting            triclinic
loop_
_symmetry_equiv_pos_as_xyz
'x, y, z'
_cell_length_a     50.845675
_cell_length_b     47.910317
_cell_length_c     44.501843
_cell_angle_alpha  86.930336
_cell_angle_beta   94.030581
_cell_angle_gamma 101.36125
loop_
_atom_site_label
_atom_site_type_symbol
_atom_site_fract_x
_atom_site_fract_y
_atom_site_fract_z
_atom_type_partial_charge
C0 C 0.34633 0.37299 0.28074 0.0
C1 C 0.35122 0.40291 0.27988 0.0
C2 C 0.33681 0.35741 0.30637 0.0
C3 C 0.33186 0.3714 0.33169 0.0
C4 C 0.33628 0.40133 0.33073 0.0
C5 C 0.3459 0.41698 0.30501 0.0
C6 C 0.32157 0.35456 0.35868 0.0
C7 C 0.33235 0.33083 0.36931 0.0
C8 C 0.32131 0.31332 0.39341 0.0
C9 C 0.29948 0.32006 0.40717 0.0
C10 C 0.2889 0.34405 0.39714 0.0
C11 C 0.30006 0.36125 0.37296 0.0
C12 C 0.26534 0.35055 0.41083 0.0
C13 C 0.24249 0.32916 0.41484 0.0
C14 C 0.26507 0.37852 0.41849 0.0
C15 C 0.24207 0.38518 0.42923 0.0
C16 C 0.21891 0.36401 0.4323 0.0
C17 C 0.33224 0.28771 0.4037 0.0
C18 C 0.34019 0.27066 0.38265 0.0
C19 C 0.33483 0.28013 0.43456 0.0
C20 C 0.34528 0.25608 0.44414 0.0
C21 C 0.35355 0.23925 0.42308 0.0
C22 C 0.35087 0.24681 0.39223 0.0
C23 C 0.21939 0.33588 0.42538 0.0
H24 H 0.34973 0.36156 0.26146 0.0
H25 H 0.33299 0.33436 0.30623 0.0
H26 H 0.33271 0.41263 0.35002 0.0
H27 H 0.34969 0.44003 0.305 0.0
H28 H 0.34949 0.32612 0.35882 0.0
H29 H 0.29121 0.37915 0.36441 0.0
H30 H 0.29046 0.3065 0.42548 0.0
H31 H 0.24218 0.30747 0.40887 0.0
H32 H 0.28254 0.3953 0.41575 0.0
H33 H 0.2421 0.40709 0.43416 0.0
H34 H 0.33807 0.27564 0.35868 0.0
H35 H 0.32911 0.29296 0.45138 0.0
H36 H 0.20178 0.31919 0.42773 0.0
H37 H 0.35738 0.23454 0.37543 0.0
H38 H 0.34679 0.25064 0.46806 0.0
C39 C 0.77001 0.3984 0.3604 0.0
C40 C 0.7895 0.38207 0.36997 0.0
C41 C 0.74521 0.38566 0.34666 0.0
C42 C 0.73907 0.35618 0.34228 0.0
C43 C 0.7586 0.33986 0.35155 0.0
C44 C 0.78347 0.35263 0.36511 0.0
C45 C 0.71216 0.34237 0.32886 0.0
C46 C 0.69986 0.35526 0.30386 0.0
C47 C 0.6744 0.34238 0.29132 0.0
C48 C 0.66112 0.31657 0.30454 0.0
C49 C 0.67288 0.3034 0.32956 0.0
C50 C 0.6985 0.31634 0.34139 0.0
C51 C 0.65811 0.27628 0.34343 0.0
C52 C 0.6305 0.27275 0.34785 0.0
C53 C 0.67127 0.25358 0.35187 0.0
C54 C 0.65707 0.22786 0.36404 0.0
C55 C 0.62942 0.22432 0.3683 0.0
C56 C 0.66136 0.35566 0.26455 0.0
C57 C 0.66198 0.38519 0.2622 0.0
C58 C 0.64726 0.33862 0.24158 0.0
C59 C 0.63359 0.35059 0.21738 0.0
C60 C 0.63365 0.38001 0.21533 0.0
C61 C 0.64826 0.39719 0.23794 0.0
C62 C 0.61637 0.24715 0.36017 0.0
H63 H 0.77362 0.42101 0.36418 0.0
H64 H 0.73053 0.39882 0.34019 0.0
H65 H 0.75473 0.31717 0.34813 0.0
H66 H 0.79805 0.33938 0.37164 0.0
H67 H 0.71041 0.37497 0.29368 0.0
H68 H 0.70744 0.3066 0.36105 0.0
H69 H 0.6414 0.30666 0.29533 0.0
H70 H 0.61979 0.28989 0.34192 0.0
H71 H 0.69247 0.25553 0.3486 0.0
H72 H 0.66779 0.2108 0.37032 0.0
H73 H 0.6725 0.39896 0.27952 0.0
H74 H 0.64664 0.31587 0.24237 0.0
H75 H 0.59506 0.2451 0.36288 0.0
H76 H 0.64905 0.41998 0.23695 0.0
H77 H 0.62239 0.3366 0.20063 0.0
C78 C 0.66053 0.64582 0.24342 0.0
C79 C 0.64898 0.66079 0.21962 0.0
C80 C 0.67411 0.66008 0.2683 0.0
C81 C 0.67669 0.68976 0.27005 0.0
C82 C 0.66517 0.70475 0.24619 0.0
C83 C 0.65144 0.69043 0.22134 0.0
C84 C 0.69135 0.70491 0.29664 0.0
C85 C 0.71463 0.69661 0.31018 0.0
C86 C 0.72841 0.71032 0.33543 0.0
C87 C 0.71883 0.73279 0.3472 0.0
C88 C 0.69535 0.74126 0.33442 0.0
C89 C 0.68188 0.72728 0.30901 0.0
C90 C 0.68427 0.76383 0.34837 0.0
C91 C 0.68416 0.76477 0.37992 0.0
C92 C 0.6732 0.78421 0.33039 0.0
C93 C 0.66207 0.80477 0.34359 0.0
C94 C 0.66164 0.80543 0.37513 0.0
C95 C 0.75226 0.70038 0.35014 0.0
C96 C 0.75076 0.67139 0.35827 0.0
C97 C 0.77654 0.71961 0.35625 0.0
C98 C 0.79898 0.70992 0.36989 0.0
C99 C 0.79734 0.68095 0.37827 0.0
C100 C 0.77298 0.66183 0.37241 0.0
C101 C 0.67301 0.78527 0.3931 0.0
H102 H 0.65857 0.62291 0.24313 0.0
H103 H 0.6822 0.64768 0.28645 0.0
H104 H 0.66704 0.72764 0.2465 0.0
H105 H 0.64299 0.70264 0.20327 0.0
H106 H 0.72239 0.67965 0.30082 0.0
H107 H 0.6634 0.73309 0.29954 0.0
H108 H 0.72948 0.74335 0.3667 0.0
H109 H 0.69221 0.74925 0.39451 0.0
H110 H 0.67315 0.78431 0.30604 0.0
H111 H 0.65327 0.81979 0.32904 0.0
H112 H 0.73226 0.65615 0.35399 0.0
H113 H 0.77824 0.74205 0.35011 0.0
H114 H 0.6733 0.7853 0.41746 0.0
H115 H 0.77122 0.63936 0.37844 0.0
H116 H 0.81752 0.7251 0.37422 0.0
C117 C 0.32187 0.64176 0.23414 0.0
C118 C 0.34818 0.63671 0.23886 0.0
C119 C 0.31077 0.65551 0.25566 0.0
C120 C 0.32588 0.6649 0.28218 0.0
C121 C 0.3523 0.66015 0.28674 0.0
C122 C 0.36326 0.64602 0.26542 0.0
C123 C 0.31388 0.6791 0.30526 0.0
C124 C 0.28817 0.66718 0.31478 0.0
C125 C 0.2766 0.67999 0.3369 0.0
C126 C 0.29104 0.70543 0.34914 0.0
C127 C 0.31682 0.7178 0.33987 0.0
C128 C 0.32814 0.70431 0.31805 0.0
C129 C 0.332 0.74469 0.35312 0.0
C130 C 0.3191 0.76746 0.35743 0.0
C131 C 0.35951 0.74772 0.36173 0.0
C132 C 0.37374 0.77279 0.37444 0.0
C133 C 0.3609 0.79566 0.37873 0.0
C134 C 0.24984 0.6662 0.34775 0.0
C135 C 0.22894 0.65368 0.32742 0.0
C136 C 0.24526 0.66455 0.37866 0.0
C137 C 0.22062 0.65028 0.38901 0.0
C138 C 0.19989 0.63732 0.36872 0.0
C139 C 0.20428 0.63944 0.33776 0.0
C140 C 0.33337 0.79264 0.36999 0.0
H141 H 0.30974 0.63473 0.21395 0.0
H142 H 0.2904 0.65901 0.25146 0.0
H143 H 0.36435 0.66696 0.30705 0.0
H144 H 0.38368 0.64264 0.26955 0.0
H145 H 0.27752 0.64727 0.30565 0.0
H146 H 0.34782 0.71379 0.31045 0.0
H147 H 0.28228 0.71551 0.36611 0.0
H148 H 0.298 0.76598 0.35069 0.0
H149 H 0.36999 0.73045 0.35917 0.0
H150 H 0.39475 0.77401 0.38144 0.0
H151 H 0.23166 0.6548 0.30343 0.0
H152 H 0.26097 0.6737 0.395 0.0
H153 H 0.32286 0.80988 0.37251 0.0
H154 H 0.18887 0.62953 0.32152 0.0
H155 H 0.21782 0.64937 0.41297 0.0
C156 C 0.23087 0.6288 0.68571 0.0
C157 C 0.22617 0.6311 0.65419 0.0
C158 C 0.25527 0.64228 0.69979 0.0
C159 C 0.27565 0.65844 0.68273 0.0
C160 C 0.27102 0.66046 0.65119 0.0
C161 C 0.24665 0.6471 0.63716 0.0
C162 C 0.30141 0.67365 0.69761 0.0
C163 C 0.31424 0.66094 0.72236 0.0
C164 C 0.33873 0.67521 0.73604 0.0
C165 C 0.35014 0.70259 0.7247 0.0
C166 C 0.33788 0.71555 0.69993 0.0
C167 C 0.31345 0.701 0.68672 0.0
C168 C 0.35112 0.74391 0.68732 0.0
C169 C 0.36374 0.76566 0.70648 0.0
C170 C 0.35217 0.74906 0.65597 0.0
C171 C 0.366 0.77503 0.64411 0.0
C172 C 0.37914 0.79654 0.66329 0.0
C173 C 0.35284 0.66166 0.76183 0.0
C174 C 0.33841 0.64514 0.78468 0.0
C175 C 0.38113 0.66589 0.76425 0.0
C176 C 0.3946 0.65477 0.78914 0.0
C177 C 0.38016 0.63878 0.812 0.0
C178 C 0.35198 0.63373 0.80949 0.0
C179 C 0.37757 0.79164 0.69462 0.0
H180 H 0.21574 0.61638 0.69956 0.0
H181 H 0.25798 0.64041 0.72412 0.0
H182 H 0.28633 0.67233 0.6372 0.0
H183 H 0.24376 0.64967 0.61291 0.0
H184 H 0.30559 0.63958 0.73034 0.0
H185 H 0.30356 0.71129 0.66817 0.0
H186 H 0.36889 0.71384 0.73501 0.0
H187 H 0.36307 0.76256 0.73072 0.0
H188 H 0.34287 0.73272 0.64055 0.0
H189 H 0.3665 0.7782 0.61986 0.0
H190 H 0.31668 0.6416 0.78379 0.0
H191 H 0.39299 0.67782 0.74685 0.0
H192 H 0.38761 0.80763 0.71007 0.0
H193 H 0.3405 0.62139 0.82697 0.0
H194 H 0.41637 0.65867 0.79057 0.0
C195 C 0.33625 0.34916 0.8072 0.0
C196 C 0.36441 0.35754 0.80785 0.0
C197 C 0.32205 0.33402 0.78313 0.0
C198 C 0.3356 0.32677 0.75906 0.0
C199 C 0.36375 0.33503 0.75974 0.0
C200 C 0.37795 0.35025 0.78375 0.0
C201 C 0.32039 0.31066 0.73339 0.0
C202 C 0.2961 0.31757 0.721 0.0
C203 C 0.28115 0.3023 0.69711 0.0
C204 C 0.29098 0.27954 0.68594 0.0
C205 C 0.31567 0.27301 0.69725 0.0
C206 C 0.3302 0.28862 0.72095 0.0
C207 C 0.32691 0.25068 0.68338 0.0
C208 C 0.3119 0.22286 0.68056 0.0
C209 C 0.35267 0.25738 0.67223 0.0
C210 C 0.36305 0.23687 0.65807 0.0
C211 C 0.34814 0.20903 0.65534 0.0
C212 C 0.25612 0.31106 0.68301 0.0
C213 C 0.23952 0.32357 0.70007 0.0
C214 C 0.24914 0.30807 0.65199 0.0
C215 C 0.2267 0.31771 0.63843 0.0
C216 C 0.21081 0.33139 0.65521 0.0
C217 C 0.21743 0.33384 0.68636 0.0
C218 C 0.32257 0.20211 0.66699 0.0
H219 H 0.32515 0.354 0.82551 0.0
H220 H 0.30042 0.32765 0.78357 0.0
H221 H 0.37482 0.3302 0.7414 0.0
H222 H 0.39954 0.35677 0.78312 0.0
H223 H 0.28944 0.33564 0.7294 0.0
H224 H 0.34896 0.28317 0.73004 0.0
H225 H 0.27979 0.26715 0.66793 0.0
H226 H 0.29201 0.21715 0.68902 0.0
H227 H 0.36459 0.2787 0.67395 0.0
H228 H 0.38285 0.2427 0.64938 0.0
H229 H 0.24364 0.32577 0.72411 0.0
H230 H 0.26137 0.29897 0.63775 0.0
H231 H 0.31067 0.18081 0.66508 0.0
H232 H 0.20605 0.34442 0.7002 0.0
H233 H 0.22208 0.31466 0.61458 0.0
C234 C 0.67589 0.22755 0.65563 0.0
C235 C 0.64842 0.2249 0.64688 0.0
C236 C 0.69008 0.25212 0.6694 0.0
C237 C 0.67706 0.27448 0.67503 0.0
C238 C 0.6495 0.27162 0.66665 0.0
C239 C 0.63539 0.24719 0.65266 0.0
C240 C 0.69222 0.30104 0.68883 0.0
C241 C 0.71752 0.31413 0.67883 0.0
C242 C 0.73137 0.33998 0.69052 0.0
C243 C 0.71982 0.35253 0.7128 0.0
C244 C 0.69474 0.33968 0.72353 0.0
C245 C 0.68108 0.3139 0.7113 0.0
C246 C 0.68274 0.35363 0.74698 0.0
C247 C 0.6991 0.36802 0.77043 0.0
C248 C 0.65496 0.35343 0.74567 0.0
C249 C 0.64393 0.36746 0.76699 0.0
C250 C 0.66041 0.38227 0.79 0.0
C251 C 0.75758 0.35444 0.67895 0.0
C252 C 0.77771 0.33897 0.67451 0.0
C253 C 0.76271 0.38399 0.67251 0.0
C254 C 0.78738 0.39779 0.66201 0.0
C255 C 0.80759 0.3824 0.65773 0.0
C256 C 0.80249 0.35283 0.66413 0.0
C257 C 0.6881 0.38231 0.79154 0.0
H258 H 0.68654 0.21082 0.65135 0.0
H259 H 0.71125 0.25358 0.67577 0.0
H260 H 0.63892 0.28854 0.67039 0.0
H261 H 0.61418 0.24568 0.6465 0.0
H262 H 0.72598 0.30476 0.66104 0.0
H263 H 0.6619 0.30352 0.71959 0.0
H264 H 0.73037 0.37259 0.72162 0.0
H265 H 0.72047 0.36818 0.77261 0.0
H266 H 0.64176 0.34301 0.72772 0.0
H267 H 0.62255 0.36731 0.76504 0.0
H268 H 0.77442 0.31621 0.67946 0.0
H269 H 0.74753 0.39648 0.67535 0.0
H270 H 0.70124 0.3932 0.80927 0.0
H271 H 0.81758 0.34035 0.66083 0.0
H272 H 0.79074 0.42062 0.65756 0.0
C273 C 0.65871 0.62553 0.73166 0.0
C274 C 0.67527 0.62137 0.75746 0.0
C275 C 0.66907 0.64331 0.70763 0.0
C276 C 0.69623 0.65687 0.70888 0.0
C277 C 0.71297 0.65193 0.73428 0.0
C278 C 0.70254 0.63447 0.75844 0.0
C279 C 0.7071 0.67663 0.68409 0.0
C280 C 0.69347 0.69805 0.67245 0.0
C281 C 0.70458 0.71758 0.64997 0.0
C282 C 0.72889 0.71515 0.63841 0.0
C283 C 0.74232 0.69351 0.64939 0.0
C284 C 0.73155 0.67455 0.67249 0.0
C285 C 0.76707 0.68993 0.636 0.0
C286 C 0.7675 0.68809 0.60469 0.0
C287 C 0.78984 0.68673 0.65453 0.0
C288 C 0.8124 0.68079 0.64201 0.0
C289 C 0.81242 0.67748 0.6108 0.0
C290 C 0.69116 0.74096 0.63876 0.0
C291 C 0.66534 0.73508 0.62444 0.0
C292 C 0.70461 0.76932 0.64154 0.0
C293 C 0.69234 0.79159 0.63015 0.0
C294 C 0.66675 0.78573 0.61528 0.0
C295 C 0.6533 0.75737 0.61245 0.0
C296 C 0.78993 0.68176 0.59219 0.0
H297 H 0.63754 0.61588 0.73057 0.0
H298 H 0.65583 0.64661 0.68816 0.0
H299 H 0.73396 0.66226 0.73584 0.0
H300 H 0.71566 0.63156 0.77813 0.0
H301 H 0.67477 0.70016 0.68157 0.0
H302 H 0.74183 0.65763 0.68086 0.0
H303 H 0.73731 0.73008 0.62078 0.0
H304 H 0.75004 0.6903 0.59002 0.0
H305 H 0.79001 0.68845 0.67872 0.0
H306 H 0.82964 0.67823 0.65688 0.0
H307 H 0.65477 0.71328 0.622 0.0
H308 H 0.72457 0.77418 0.65258 0.0
H309 H 0.78915 0.67901 0.56812 0.0
H310 H 0.63346 0.75253 0.60113 0.0
H311 H 0.70299 0.81338 0.63248 0.0
Co312 Co 0.05633 0.47285 0.53376 0.0
Co313 Co 0.02784 0.46353 0.48235 0.0
Co314 Co 1.0054 0.50904 0.51495 0.0
O315 O 0.01931 0.4727 0.5202 0.0
H316 H 0.00675 0.45723 0.52919 0.0
O317 O 0.99208 0.54561 0.5097 0.0
Co318 Co 0.95626 0.54615 0.49352 0.0
Co319 Co 0.98165 0.55497 0.54637 0.0
H320 H 1.00524 0.56105 0.5016 0.0
O321 O 0.0332 0.42739 0.47461 0.0
O322 O 0.06385 0.46442 0.49264 0.0
O323 O 0.02838 0.49193 0.44962 0.0
O324 O 0.03025 0.52567 0.48224 0.0
O325 O 0.97677 0.49033 0.48462 0.0
O326 O 0.92419 0.54919 0.47715 0.0
O327 O 0.96189 0.58306 0.47917 0.0
O328 O 0.94563 0.50757 0.50528 0.0
O329 O 0.98061 0.49221 0.5477 0.0
O330 O 0.97739 0.52613 0.57854 0.0
O331 O 0.94708 0.55813 0.53272 0.0
O332 O 0.97945 0.59199 0.55339 0.0
C333 C 0.07788 0.44382 0.55377 0.0
C334 C 0.05842 0.52872 0.54239 0.0
C335 C 0.03532 0.51775 0.45668 0.0
C336 C 0.05794 0.43938 0.48131 0.0
C337 C 0.93653 0.57496 0.4705 0.0
C338 C 0.95193 0.48983 0.48821 0.0
C339 C 0.97308 0.50008 0.57216 0.0
C340 C 0.95476 0.58355 0.54313 0.0
O341 O 0.08931 0.46999 0.54742 0.0
O342 O 0.0524 0.43521 0.54582 0.0
O343 O 0.0335 0.52762 0.54548 0.0
O344 O 0.06567 0.51218 0.52466 0.0
Co345 Co 0.53668 0.95561 0.4946 0.0
Co346 Co 0.54934 0.97617 0.54793 0.0
Co347 Co 0.50618 0.00826 0.51493 0.0
O348 O 0.5391 0.99216 0.51116 0.0
H349 H 0.55385 0.0062 0.50376 0.0
O350 O 0.47336 0.02459 0.51869 0.0
Co351 Co 0.47543 0.06166 0.53452 0.0
Co352 Co 0.46349 0.04 0.48129 0.0
H353 H 0.45857 0.01064 0.52611 0.0
O354 O 0.58395 0.96956 0.55596 0.0
O355 O 0.5484 0.9401 0.53431 0.0
O356 O 0.52401 0.9704 0.57907 0.0
O357 O 0.49082 0.97917 0.54702 0.0
O358 O 0.52685 0.03402 0.54615 0.0
O359 O 0.47441 0.09466 0.55035 0.0
O360 O 0.44075 0.05661 0.54526 0.0
O361 O 0.51212 0.07194 0.52675 0.0
O362 O 0.52165 0.03759 0.48313 0.0
O363 O 0.48879 0.04488 0.45001 0.0
O364 O 0.4653 0.07653 0.49392 0.0
O365 O 0.42922 0.04741 0.47257 0.0
C366 C 0.56153 0.93563 0.47259 0.0
C367 C 0.48303 0.95513 0.48763 0.0
C368 C 0.49912 0.96808 0.57179 0.0
C369 C 0.57295 0.9447 0.54603 0.0
C370 C 0.44976 0.08231 0.55482 0.0
C371 C 0.52905 0.061 0.54337 0.0
C372 C 0.5136 0.04823 0.45802 0.0
C373 C 0.44101 0.07236 0.48153 0.0
O374 O 0.53711 0.92297 0.47769 0.0
O375 O 0.5708 0.96116 0.4824 0.0
O376 O 0.48534 0.98212 0.48377 0.0
O377 O 0.50056 0.94504 0.50422 0.0
Co378 Co 0.47337 0.52808 0.07224 0.0
Co379 Co 0.46066 0.47557 0.05546 0.0
Co380 Co 0.50542 0.51088 0.01368 0.0
O381 O 0.47178 0.51005 0.03464 0.0
H382 H 0.45734 0.51429 0.02093 0.0
O383 O 0.53884 0.51156 0.99257 0.0
Co384 Co 0.53726 0.49712 0.95303 0.0
Co385 Co 0.55087 0.5478 0.97549 0.0
H386 H 0.55293 0.50583 0.00574 0.0
O387 O 0.42531 0.4639 0.06594 0.0
O388 O 0.45928 0.49107 0.09239 0.0
O389 O 0.48616 0.45074 0.06215 0.0
O390 O 0.51954 0.48218 0.04275 0.0
O391 O 0.48482 0.47984 0.98747 0.0
O392 O 0.53888 0.48333 0.9171 0.0
O393 O 0.571 0.48977 0.955 0.0
O394 O 0.50142 0.50171 0.94621 0.0
O395 O 0.49158 0.53974 0.9848 0.0
O396 O 0.52612 0.57367 0.97227 0.0
O397 O 0.55005 0.53601 0.93655 0.0
O398 O 0.58609 0.55916 0.96356 0.0
C399 C 0.44851 0.54769 0.09451 0.0
C400 C 0.52716 0.5393 0.06828 0.0
C401 C 0.511 0.45947 0.05855 0.0
C402 C 0.43456 0.47723 0.09027 0.0
C403 C 0.56294 0.48137 0.92784 0.0
C404 C 0.48369 0.48318 0.95872 0.0
C405 C 0.50102 0.56404 0.97242 0.0
C406 C 0.57497 0.54902 0.93829 0.0
O407 O 0.47238 0.54586 0.10591 0.0
O408 O 0.43991 0.53645 0.06864 0.0
O409 O 0.52625 0.54206 0.03955 0.0
O410 O 0.50856 0.52218 0.08098 0.0
C411 C 0.16983 0.36302 0.42362 0.0
C412 C 0.19388 0.37178 0.4409 0.0
C413 C 0.14644 0.37243 0.42966 0.0
C414 C 0.14718 0.39069 0.45378 0.0
C415 C 0.17128 0.39908 0.47172 0.0
C416 C 0.19441 0.38953 0.46501 0.0
C417 C 0.12137 0.36408 0.40929 0.0
C418 C 0.17298 0.41912 0.49716 0.0
C419 C 0.09905 0.4413 0.45465 0.0
C420 C 0.07973 0.42607 0.47327 0.0
C421 C 0.12049 0.42939 0.44691 0.0
C422 C 0.12318 0.40224 0.45941 0.0
C423 C 0.1036 0.38679 0.47831 0.0
C424 C 0.0816 0.39871 0.48445 0.0
C425 C 0.14027 0.44595 0.42556 0.0
C426 C 0.10631 0.35816 0.4927 0.0
H427 H 0.1696 0.34973 0.4046 0.0
H428 H 0.21304 0.39626 0.47837 0.0
H429 H 0.1041 0.35433 0.42272 0.0
H430 H 0.11622 0.38339 0.39732 0.0
H431 H 0.12385 0.34881 0.39227 0.0
H432 H 0.19148 0.41943 0.51207 0.0
H433 H 0.17335 0.44107 0.48775 0.0
H434 H 0.15513 0.41325 0.51082 0.0
H435 H 0.09713 0.46242 0.44583 0.0
H436 H 0.06639 0.38712 0.49876 0.0
H437 H 0.14334 0.43224 0.40729 0.0
H438 H 0.16004 0.4529 0.43778 0.0
H439 H 0.13347 0.46514 0.41521 0.0
H440 H 0.10692 0.34283 0.47509 0.0
H441 H 0.0895 0.3492 0.50718 0.0
H442 H 0.12551 0.36024 0.5066 0.0
C443 C 0.59524 0.19695 0.40253 0.0
C444 C 0.61409 0.19691 0.38096 0.0
C445 C 0.58006 0.17138 0.41406 0.0
C446 C 0.58368 0.145 0.40374 0.0
C447 C 0.60285 0.14476 0.3822 0.0
C448 C 0.61786 0.17068 0.37113 0.0
C449 C 0.56004 0.17262 0.43724 0.0
C450 C 0.60726 0.11712 0.37057 0.0
C451 C 0.55902 0.07975 0.45425 0.0
C452 C 0.53306 0.0698 0.44128 0.0
C453 C 0.57605 0.10361 0.44175 0.0
C454 C 0.56712 0.11778 0.41538 0.0
C455 C 0.54156 0.10693 0.40124 0.0
C456 C 0.52483 0.08318 0.41439 0.0
C457 C 0.60301 0.11454 0.45777 0.0
C458 C 0.53134 0.12125 0.37297 0.0
H459 H 0.59246 0.21706 0.41059 0.0
H460 H 0.63217 0.17044 0.35425 0.0
H461 H 0.53953 0.1627 0.42853 0.0
H462 H 0.56479 0.16029 0.45806 0.0
H463 H 0.55989 0.1948 0.44324 0.0
H464 H 0.62323 0.12051 0.3542 0.0
H465 H 0.61293 0.10315 0.38962 0.0
H466 H 0.58832 0.10561 0.35942 0.0
H467 H 0.56566 0.06975 0.47507 0.0
H468 H 0.50487 0.07573 0.40413 0.0
H469 H 0.60277 0.13525 0.46767 0.0
H470 H 0.61912 0.11829 0.44163 0.0
H471 H 0.60812 0.09955 0.47617 0.0
H472 H 0.52801 0.14264 0.37817 0.0
H473 H 0.51216 0.10878 0.36324 0.0
H474 H 0.54648 0.12438 0.3557 0.0
C475 C 0.84566 0.676 0.37957 0.0
C476 C 0.82088 0.67037 0.39291 0.0
C477 C 0.86721 0.6636 0.39167 0.0
C478 C 0.86404 0.64564 0.41804 0.0
C479 C 0.83948 0.64125 0.43248 0.0
C480 C 0.81813 0.65334 0.41952 0.0
C481 C 0.89291 0.6686 0.37547 0.0
C482 C 0.83511 0.62272 0.46089 0.0
C483 C 0.90025 0.58383 0.43313 0.0
C484 C 0.92083 0.59467 0.45443 0.0
C485 C 0.88268 0.6008 0.41996 0.0
C486 C 0.88513 0.62914 0.42898 0.0
C487 C 0.90635 0.64046 0.45004 0.0
C488 C 0.92428 0.62318 0.46214 0.0
C489 C 0.86091 0.588 0.39704 0.0
C490 C 0.91003 0.67055 0.46038 0.0
H491 H 0.8478 0.68912 0.35893 0.0
H492 H 0.79908 0.64918 0.43008 0.0
H493 H 0.91016 0.67741 0.39107 0.0
H494 H 0.89649 0.64804 0.36789 0.0
H495 H 0.8924 0.68351 0.35553 0.0
H496 H 0.81979 0.62901 0.47436 0.0
H497 H 0.82779 0.60025 0.45475 0.0
H498 H 0.854 0.62373 0.47516 0.0
H499 H 0.89765 0.5618 0.42702 0.0
H500 H 0.94011 0.63153 0.47876 0.0
H501 H 0.86048 0.60257 0.37684 0.0
H502 H 0.84104 0.58503 0.40684 0.0
H503 H 0.86375 0.56701 0.3898 0.0
H504 H 0.92252 0.68512 0.44443 0.0
H505 H 0.92059 0.67272 0.48311 0.0
H506 H 0.89059 0.67763 0.46099 0.0
C507 C 0.36439 0.83638 0.41345 0.0
C508 C 0.37617 0.82226 0.39268 0.0
C509 C 0.37915 0.86038 0.42811 0.0
C510 C 0.40646 0.87042 0.42212 0.0
C511 C 0.41821 0.85686 0.40048 0.0
C512 C 0.40293 0.83311 0.38597 0.0
C513 C 0.36582 0.87426 0.45091 0.0
C514 C 0.44729 0.86678 0.39346 0.0
C515 C 0.44614 0.94275 0.44675 0.0
C516 C 0.46086 0.93473 0.47251 0.0
C517 C 0.42754 0.92223 0.43059 0.0
C518 C 0.4236 0.89313 0.44051 0.0
C519 C 0.43746 0.88528 0.46734 0.0
C520 C 0.45582 0.90609 0.48293 0.0
C521 C 0.4129 0.9315 0.40229 0.0
C522 C 0.43381 0.85463 0.47899 0.0
H523 H 0.34384 0.82813 0.41908 0.0
H524 H 0.41211 0.82284 0.3695 0.0
H525 H 0.37458 0.87014 0.47387 0.0
H526 H 0.36953 0.8977 0.44666 0.0
H527 H 0.34378 0.86609 0.45049 0.0
H528 H 0.45293 0.85518 0.3747 0.0
H529 H 0.45133 0.88991 0.38737 0.0
H530 H 0.46046 0.86347 0.41377 0.0
H531 H 0.44987 0.96481 0.43858 0.0
H532 H 0.46678 0.8997 0.50308 0.0
H533 H 0.39104 0.92275 0.40277 0.0
H534 H 0.42014 0.92295 0.3824 0.0
H535 H 0.41602 0.95507 0.39929 0.0
H536 H 0.41219 0.84553 0.4812 0.0
H537 H 0.44472 0.85235 0.50123 0.0
H538 H 0.4413 0.84177 0.46267 0.0
C539 C 0.17561 0.61634 0.65204 0.0
C540 C 0.20012 0.61694 0.63902 0.0
C541 C 0.15101 0.60313 0.63787 0.0
C542 C 0.15079 0.59028 0.6099 0.0
C543 C 0.1754 0.59096 0.59654 0.0
C544 C 0.19969 0.60413 0.61127 0.0
C545 C 0.12524 0.60277 0.65293 0.0
C546 C 0.17612 0.5775 0.56675 0.0
C547 C 0.09345 0.53106 0.58433 0.0
C548 C 0.07922 0.54538 0.56254 0.0
C549 C 0.11616 0.54562 0.60072 0.0
C550 C 0.12501 0.57524 0.59496 0.0
C551 C 0.11009 0.58997 0.57359 0.0
C552 C 0.08728 0.57481 0.55762 0.0
C553 C 0.1313 0.52904 0.62331 0.0
C554 C 0.11893 0.62145 0.56657 0.0
H555 H 0.17559 0.6265 0.67321 0.0
H556 H 0.21844 0.604 0.60118 0.0
H557 H 0.11138 0.61298 0.63765 0.0
H558 H 0.11498 0.58044 0.65757 0.0
H559 H 0.12875 0.614 0.67447 0.0
H560 H 0.19678 0.58073 0.55883 0.0
H561 H 0.168 0.55428 0.5689 0.0
H562 H 0.16318 0.58659 0.54929 0.0
H563 H 0.08712 0.50825 0.58806 0.0
H564 H 0.07643 0.58572 0.54039 0.0
H565 H 0.13425 0.53933 0.64536 0.0
H566 H 0.15151 0.52897 0.61544 0.0
H567 H 0.12071 0.50659 0.6267 0.0
H568 H 0.12205 0.63336 0.58764 0.0
H569 H 0.1041 0.63014 0.55114 0.0
H570 H 0.13846 0.62534 0.55586 0.0
C571 C 0.3675 0.19331 0.61049 0.0
C572 C 0.3593 0.18756 0.63995 0.0
C573 C 0.3796 0.17413 0.5961 0.0
C574 C 0.38435 0.14889 0.61178 0.0
C575 C 0.37552 0.14268 0.64137 0.0
C576 C 0.36282 0.16195 0.65498 0.0
C577 C 0.3881 0.18139 0.56441 0.0
C578 C 0.38059 0.11635 0.65915 0.0
C579 C 0.40433 0.09083 0.56731 0.0
C580 C 0.43248 0.09806 0.57027 0.0
C581 C 0.3883 0.10703 0.58077 0.0
C582 C 0.4007 0.13054 0.59821 0.0
C583 C 0.4291 0.13733 0.60191 0.0
C584 C 0.44455 0.12126 0.58771 0.0
C585 C 0.35814 0.09944 0.57572 0.0
C586 C 0.44326 0.16185 0.62067 0.0
H587 H 0.36457 0.21299 0.59875 0.0
H588 H 0.35657 0.15755 0.67782 0.0
H589 H 0.41034 0.18707 0.56472 0.0
H590 H 0.38154 0.16269 0.55017 0.0
H591 H 0.37971 0.19956 0.55387 0.0
H592 H 0.37087 0.11354 0.68099 0.0
H593 H 0.37306 0.09712 0.64592 0.0
H594 H 0.40255 0.11782 0.66376 0.0
H595 H 0.39483 0.07296 0.55391 0.0
H596 H 0.46629 0.12688 0.59041 0.0
H597 H 0.35067 0.11737 0.5634 0.0
H598 H 0.34862 0.09605 0.59764 0.0
H599 H 0.35152 0.07995 0.56258 0.0
H600 H 0.43913 0.18222 0.61023 0.0
H601 H 0.46538 0.16323 0.62289 0.0
H602 H 0.43554 0.15959 0.64356 0.0
C603 C 0.8581 0.3914 0.65986 0.0
C604 C 0.83382 0.39732 0.64659 0.0
C605 C 0.88297 0.40615 0.65013 0.0
C606 C 0.88355 0.42722 0.6265 0.0
C607 C 0.85909 0.43296 0.61272 0.0
C608 C 0.83458 0.41798 0.62295 0.0
C609 C 0.9086 0.39945 0.66534 0.0
C610 C 0.85881 0.45507 0.58723 0.0
C611 C 0.94313 0.48768 0.61538 0.0
C612 C 0.95398 0.47922 0.58997 0.0
C613 C 0.9211 0.47019 0.62861 0.0
C614 C 0.90959 0.44363 0.61614 0.0
C615 C 0.92155 0.43415 0.59181 0.0
C616 C 0.94364 0.45198 0.57911 0.0
C617 C 0.90908 0.48098 0.65472 0.0
C618 C 0.90992 0.40599 0.57782 0.0
H619 H 0.85766 0.37564 0.67832 0.0
H620 H 0.8159 0.42235 0.61228 0.0
H621 H 0.92115 0.39323 0.6484 0.0
H622 H 0.92048 0.41872 0.67604 0.0
H623 H 0.90472 0.38199 0.68287 0.0
H624 H 0.83809 0.45677 0.57875 0.0
H625 H 0.86942 0.47623 0.5949 0.0
H626 H 0.86967 0.4497 0.56823 0.0
H627 H 0.95099 0.50858 0.62409 0.0
H628 H 0.95182 0.44512 0.55953 0.0
H629 H 0.90563 0.46431 0.67307 0.0
H630 H 0.88927 0.48616 0.64713 0.0
H631 H 0.92211 0.5004 0.66398 0.0
H632 H 0.90598 0.38872 0.59549 0.0
H633 H 0.92344 0.40011 0.56169 0.0
H634 H 0.89042 0.40731 0.56554 0.0
C635 C 0.64884 0.82955 0.62166 0.0
C636 C 0.65412 0.80924 0.60269 0.0
C637 C 0.63614 0.85161 0.61013 0.0
C638 C 0.62926 0.85369 0.57879 0.0
C639 C 0.63538 0.83365 0.55945 0.0
C640 C 0.64735 0.8113 0.57175 0.0
C641 C 0.62955 0.87231 0.63154 0.0
C642 C 0.62875 0.83524 0.52594 0.0
C643 C 0.57298 0.89324 0.55621 0.0
C644 C 0.58736 0.92093 0.55082 0.0
C645 C 0.5864 0.87089 0.56459 0.0
C646 C 0.61484 0.87631 0.56668 0.0
C647 C 0.62942 0.90383 0.55914 0.0
C648 C 0.61548 0.92601 0.55184 0.0
C649 C 0.57019 0.84184 0.57259 0.0
C650 C 0.65971 0.90993 0.55945 0.0
H651 H 0.65411 0.82773 0.64563 0.0
H652 H 0.65166 0.79556 0.55716 0.0
H653 H 0.63944 0.89436 0.62506 0.0
H654 H 0.60754 0.87162 0.63014 0.0
H655 H 0.63606 0.86756 0.6553 0.0
H656 H 0.60745 0.82491 0.5213 0.0
H657 H 0.63134 0.85762 0.51705 0.0
H658 H 0.64144 0.82395 0.51351 0.0
H659 H 0.5512 0.88933 0.55537 0.0
H660 H 0.62656 0.94737 0.54709 0.0
H661 H 0.57506 0.83586 0.59648 0.0
H662 H 0.57548 0.82559 0.55851 0.0
H663 H 0.5482 0.8411 0.56938 0.0
H664 H 0.6683 0.90772 0.58288 0.0
H665 H 0.66784 0.93171 0.5503 0.0
H666 H 0.66659 0.89422 0.54593 0.0
C667 C 0.38351 0.2155 0.45857 0.0
C668 C 0.3654 0.21419 0.43318 0.0
C669 C 0.39555 0.19231 0.46778 0.0
C670 C 0.38963 0.1674 0.4509 0.0
C671 C 0.37142 0.16592 0.42524 0.0
C672 C 0.35927 0.18922 0.4169 0.0
C673 C 0.41531 0.19501 0.49492 0.0
C674 C 0.36534 0.14005 0.4061 0.0
C675 C 0.44119 0.11993 0.45748 0.0
C676 C 0.42807 0.09675 0.47466 0.0
C677 C 0.42869 0.14294 0.44912 0.0
C678 C 0.40305 0.14316 0.45951 0.0
C679 C 0.39015 0.1201 0.47781 0.0
C680 C 0.40259 0.09669 0.48451 0.0
C681 C 0.44263 0.16662 0.42866 0.0
C682 C 0.36335 0.12022 0.49034 0.0
H683 H 0.38881 0.23492 0.4709 0.0
H684 H 0.34503 0.18792 0.39748 0.0
H685 H 0.41365 0.17461 0.50833 0.0
H686 H 0.43605 0.20076 0.4873 0.0
H687 H 0.4124 0.21199 0.50969 0.0
H688 H 0.3512 0.14261 0.38641 0.0
H689 H 0.38425 0.13597 0.39775 0.0
H690 H 0.3565 0.12093 0.4198 0.0
H691 H 0.46088 0.11957 0.44974 0.0
H692 H 0.39264 0.07857 0.49783 0.0
H693 H 0.44727 0.18689 0.44058 0.0
H694 H 0.42918 0.1698 0.40855 0.0
H695 H 0.46166 0.16216 0.42099 0.0
H696 H 0.3643 0.14013 0.50235 0.0
H697 H 0.35713 0.10171 0.50611 0.0
H698 H 0.34765 0.11973 0.47168 0.0
C699 C 0.82714 0.38136 0.41004 0.0
C700 C 0.81563 0.39559 0.38561 0.0
C701 C 0.85089 0.39443 0.42599 0.0
C702 C 0.86347 0.42257 0.41758 0.0
C703 C 0.85241 0.43677 0.39247 0.0
C704 C 0.82878 0.42312 0.37678 0.0
C705 C 0.86196 0.37848 0.45257 0.0
C706 C 0.86505 0.46682 0.38278 0.0
C707 C 0.90309 0.46982 0.47779 0.0
C708 C 0.92989 0.47064 0.47121 0.0
C709 C 0.88151 0.45393 0.46087 0.0
C710 C 0.8866 0.43816 0.43665 0.0
C711 C 0.91358 0.43812 0.43037 0.0
C712 C 0.93493 0.45438 0.44772 0.0
C713 C 0.85316 0.45462 0.46853 0.0
C714 C 0.91986 0.42138 0.40493 0.0
H715 H 0.81713 0.36026 0.41741 0.0
H716 H 0.82047 0.43417 0.35763 0.0
H717 H 0.88373 0.37917 0.45077 0.0
H718 H 0.85973 0.38885 0.4737 0.0
H719 H 0.85149 0.35586 0.4544 0.0
H720 H 0.85508 0.47425 0.36167 0.0
H721 H 0.86377 0.48153 0.40082 0.0
H722 H 0.88667 0.46826 0.37926 0.0
H723 H 0.89884 0.48207 0.49602 0.0
H724 H 0.9555 0.45482 0.44246 0.0
H725 H 0.84185 0.43265 0.47281 0.0
H726 H 0.84252 0.46412 0.44917 0.0
H727 H 0.85262 0.46717 0.48868 0.0
H728 H 0.90955 0.39879 0.40745 0.0
H729 H 0.94177 0.4222 0.40399 0.0
H730 H 0.91218 0.42998 0.38313 0.0
C731 C 0.6324 0.8179 0.41359 0.0
C732 C 0.6487 0.82646 0.38928 0.0
C733 C 0.61956 0.8371 0.42688 0.0
C734 C 0.62294 0.86574 0.4156 0.0
C735 C 0.63934 0.87458 0.39105 0.0
C736 C 0.65207 0.85488 0.37826 0.0
C737 C 0.60148 0.82607 0.45214 0.0
C738 C 0.64283 0.90463 0.37775 0.0
C739 C 0.5666 0.90306 0.43266 0.0
C740 C 0.57838 0.92027 0.4564 0.0
C741 C 0.5813 0.88632 0.41828 0.0
C742 C 0.60821 0.88593 0.42859 0.0
C743 C 0.62028 0.90342 0.45255 0.0
C744 C 0.60536 0.92088 0.46575 0.0
C745 C 0.56771 0.86845 0.39257 0.0
C746 C 0.64861 0.90298 0.4649 0.0
H747 H 0.62909 0.79586 0.42185 0.0
H748 H 0.66472 0.86178 0.3596 0.0
H749 H 0.6005 0.84287 0.46797 0.0
H750 H 0.58083 0.81817 0.4424 0.0
H751 H 0.60822 0.80795 0.46497 0.0
H752 H 0.65625 0.90818 0.35869 0.0
H753 H 0.62296 0.9093 0.36956 0.0
H754 H 0.6513 0.92004 0.39529 0.0
H755 H 0.54573 0.90263 0.42536 0.0
H756 H 0.6144 0.934 0.48428 0.0
H757 H 0.5644 0.84559 0.39985 0.0
H758 H 0.58069 0.87138 0.37317 0.0
H759 H 0.54797 0.87381 0.38488 0.0
H760 H 0.65126 0.88071 0.46983 0.0
H761 H 0.65388 0.91506 0.48581 0.0
H762 H 0.66297 0.91245 0.44779 0.0
C763 C 0.17407 0.60292 0.40573 0.0
C764 C 0.17406 0.62104 0.37988 0.0
C765 C 0.15001 0.58704 0.4163 0.0
C766 C 0.12521 0.58925 0.40066 0.0
C767 C 0.12499 0.60754 0.37461 0.0
C768 C 0.14939 0.62319 0.36453 0.0
C769 C 0.15115 0.56774 0.44414 0.0
C770 C 0.09897 0.61057 0.35741 0.0
C771 C 0.06755 0.52726 0.4154 0.0
C772 C 0.05492 0.53754 0.43839 0.0
C773 C 0.0898 0.54426 0.40203 0.0
C774 C 0.09959 0.5723 0.41172 0.0
C775 C 0.08599 0.58336 0.43364 0.0
C776 C 0.06386 0.56588 0.44669 0.0
C777 C 0.10374 0.53161 0.37879 0.0
C778 C 0.09571 0.61315 0.44456 0.0
H779 H 0.19302 0.60076 0.41748 0.0
H780 H 0.14914 0.63737 0.34474 0.0
H781 H 0.1391 0.57388 0.46164 0.0
H782 H 0.14225 0.54541 0.43863 0.0
H783 H 0.17202 0.56854 0.45381 0.0
H784 H 0.10221 0.62569 0.3376 0.0
H785 H 0.0883 0.58952 0.34949 0.0
H786 H 0.0856 0.61816 0.37246 0.0
H787 H 0.06097 0.50539 0.40886 0.0
H788 H 0.05428 0.5741 0.46438 0.0
H789 H 0.1238 0.52863 0.38834 0.0
H790 H 0.10698 0.54627 0.35866 0.0
H791 H 0.09215 0.51065 0.37153 0.0
H792 H 0.11538 0.61436 0.45741 0.0
H793 H 0.08142 0.61954 0.4594 0.0
H794 H 0.09879 0.62874 0.42518 0.0
C795 C 0.3944 0.84986 0.66285 0.0
C796 C 0.39514 0.82359 0.65071 0.0
C797 C 0.41004 0.87535 0.65169 0.0
C798 C 0.42688 0.87458 0.62785 0.0
C799 C 0.42751 0.84818 0.61529 0.0
C800 C 0.41169 0.82306 0.62688 0.0
C801 C 0.40865 0.90309 0.66548 0.0
C802 C 0.4452 0.84641 0.58983 0.0
C803 C 0.45258 0.94001 0.57826 0.0
C804 C 0.4795 0.94751 0.58931 0.0
C805 C 0.43489 0.91705 0.59135 0.0
C806 C 0.44426 0.9012 0.6162 0.0
C807 C 0.47093 0.90961 0.62851 0.0
C808 C 0.48821 0.93264 0.61495 0.0
C809 C 0.40661 0.90882 0.57752 0.0
C810 C 0.48169 0.89333 0.65504 0.0
H811 H 0.38141 0.85054 0.68099 0.0
H812 H 0.41273 0.80286 0.61764 0.0
H813 H 0.42881 0.91307 0.67513 0.0
H814 H 0.40252 0.9182 0.64785 0.0
H815 H 0.39424 0.90015 0.68357 0.0
H816 H 0.44307 0.82432 0.58225 0.0
H817 H 0.44014 0.86018 0.57029 0.0
H818 H 0.46656 0.85437 0.59712 0.0
H819 H 0.44555 0.95125 0.55845 0.0
H820 H 0.50891 0.93821 0.62375 0.0
H821 H 0.39187 0.90568 0.59522 0.0
H822 H 0.40439 0.8883 0.56626 0.0
H823 H 0.40152 0.92511 0.56056 0.0
H824 H 0.46798 0.89086 0.67374 0.0
H825 H 0.50206 0.90399 0.66354 0.0
H826 H 0.48273 0.87163 0.64831 0.0
C827 C 0.19037 0.35591 0.61046 0.0
C828 C 0.18838 0.34421 0.64005 0.0
C829 C 0.17033 0.36932 0.59632 0.0
C830 C 0.14787 0.37202 0.61222 0.0
C831 C 0.14537 0.35991 0.64187 0.0
C832 C 0.16542 0.34589 0.65526 0.0
C833 C 0.17373 0.38155 0.56462 0.0
C834 C 0.12202 0.36269 0.65989 0.0
C835 C 0.11752 0.43662 0.58734 0.0
C836 C 0.09437 0.42463 0.5699 0.0
C837 C 0.13441 0.41962 0.60203 0.0
C838 C 0.12851 0.38977 0.59873 0.0
C839 C 0.10497 0.3774 0.58143 0.0
C840 C 0.08794 0.39496 0.56757 0.0
C841 C 0.15888 0.43377 0.62073 0.0
C842 C 0.09822 0.34576 0.57687 0.0
H843 H 0.20808 0.35549 0.59845 0.0
H844 H 0.16316 0.33652 0.67784 0.0
H845 H 0.15506 0.37451 0.5504 0.0
H846 H 0.17745 0.40514 0.56485 0.0
H847 H 0.19071 0.37514 0.55411 0.0
H848 H 0.12207 0.35066 0.68193 0.0
H849 H 0.12288 0.38549 0.6641 0.0
H850 H 0.10272 0.35494 0.647 0.0
H851 H 0.12247 0.45951 0.58963 0.0
H852 H 0.07006 0.38554 0.55424 0.0
H853 H 0.17738 0.43127 0.61022 0.0
H854 H 0.15925 0.42341 0.64362 0.0
H855 H 0.15947 0.45688 0.62296 0.0
H856 H 0.11406 0.3395 0.56424 0.0
H857 H 0.07852 0.33923 0.56421 0.0
H858 H 0.09777 0.33381 0.59893 0.0
C859 C 0.61577 0.20191 0.60634 0.0
C860 C 0.63334 0.19911 0.63158 0.0
C861 C 0.60067 0.17786 0.59222 0.0
C862 C 0.60299 0.15024 0.60373 0.0
C863 C 0.62108 0.14725 0.62885 0.0
C864 C 0.63611 0.17172 0.64241 0.0
C865 C 0.58183 0.18203 0.56529 0.0
C866 C 0.62401 0.11821 0.64188 0.0
C867 C 0.54159 0.09284 0.58611 0.0
C868 C 0.54945 0.08017 0.56151 0.0
C869 C 0.55928 0.11483 0.60089 0.0
C870 C 0.58532 0.12467 0.59042 0.0
C871 C 0.59356 0.11129 0.56598 0.0
C872 C 0.57546 0.0891 0.55179 0.0
C873 C 0.54965 0.12838 0.62685 0.0
C874 C 0.62094 0.12135 0.55384 0.0
H875 H 0.61385 0.22301 0.59756 0.0
H876 H 0.64952 0.16939 0.66202 0.0
H877 H 0.58623 0.17032 0.54598 0.0
H878 H 0.56079 0.17318 0.57075 0.0
H879 H 0.58338 0.20485 0.55817 0.0
H880 H 0.63991 0.11946 0.66048 0.0
H881 H 0.60467 0.10701 0.65067 0.0
H882 H 0.62891 0.10508 0.62405 0.0
H883 H 0.52125 0.08611 0.59318 0.0
H884 H 0.5812 0.07959 0.5323 0.0
H885 H 0.54816 0.15072 0.62035 0.0
H886 H 0.56428 0.12896 0.64662 0.0
H887 H 0.52967 0.11683 0.63368 0.0
H888 H 0.62204 0.14288 0.54289 0.0
H889 H 0.62531 0.10684 0.537 0.0
H890 H 0.63682 0.12313 0.57244 0.0
C891 C 0.84404 0.67797 0.56982 0.0
C892 C 0.83488 0.66743 0.59803 0.0
C893 C 0.86402 0.667 0.55684 0.0
C894 C 0.87528 0.64535 0.57267 0.0
C895 C 0.86647 0.63502 0.60136 0.0
C896 C 0.84626 0.64604 0.61358 0.0
C897 C 0.87274 0.67816 0.52604 0.0
C898 C 0.87804 0.61191 0.61898 0.0
C899 C 0.90774 0.59201 0.53713 0.0
C900 C 0.93488 0.6018 0.54589 0.0
C901 C 0.88814 0.60729 0.54357 0.0
C902 C 0.89593 0.63276 0.55936 0.0
C903 C 0.92347 0.64384 0.5662 0.0
C904 C 0.94266 0.62823 0.55928 0.0
C905 C 0.859 0.59474 0.53567 0.0
C906 C 0.93253 0.67097 0.58299 0.0
H907 H 0.8355 0.69469 0.55782 0.0
H908 H 0.83889 0.63732 0.63505 0.0
H909 H 0.89426 0.6886 0.52758 0.0
H910 H 0.87067 0.66022 0.51079 0.0
H911 H 0.8608 0.69373 0.51584 0.0
H912 H 0.86978 0.60716 0.64155 0.0
H913 H 0.87359 0.59205 0.60627 0.0
H914 H 0.90022 0.61833 0.62203 0.0
H915 H 0.90155 0.57177 0.52643 0.0
H916 H 0.96366 0.63616 0.56572 0.0
H917 H 0.84703 0.61155 0.53018 0.0
H918 H 0.85037 0.58176 0.5553 0.0
H919 H 0.85684 0.58063 0.51626 0.0
H920 H 0.92232 0.68801 0.57302 0.0
H921 H 0.95462 0.6787 0.58292 0.0
H922 H 0.927 0.66708 0.60675 0.0
C923 C 0.35189 0.44247 0.24045 0.0
C924 C 0.36237 0.41912 0.2529 0.0
C925 C 0.36159 0.45679 0.2139 0.0
C926 C 0.38198 0.44727 0.19954 0.0
C927 C 0.39311 0.42425 0.21254 0.0
C928 C 0.38324 0.41056 0.23912 0.0
C929 C 0.3495 0.48149 0.20087 0.0
C930 C 0.41513 0.41365 0.19809 0.0
C931 C 0.3933 0.4552 0.11661 0.0
C932 C 0.4182 0.474 0.11681 0.0
C933 C 0.37985 0.44813 0.1432 0.0
C934 C 0.3915 0.46043 0.17041 0.0
C935 C 0.41512 0.48168 0.17006 0.0
C936 C 0.4284 0.48795 0.14331 0.0
C937 C 0.35446 0.42564 0.14266 0.0
C938 C 0.42779 0.49601 0.19837 0.0
H939 H 0.33566 0.44906 0.25101 0.0
H940 H 0.39179 0.39294 0.24908 0.0
H941 H 0.36519 0.49878 0.19196 0.0
H942 H 0.33496 0.4742 0.18179 0.0
H943 H 0.3387 0.49029 0.21785 0.0
H944 H 0.42165 0.39558 0.21125 0.0
H945 H 0.40805 0.40659 0.17506 0.0
H946 H 0.43284 0.43117 0.19588 0.0
H947 H 0.38504 0.44468 0.09611 0.0
H948 H 0.44744 0.50283 0.14365 0.0
H949 H 0.33896 0.43236 0.15543 0.0
H950 H 0.35885 0.40561 0.15373 0.0
H951 H 0.34607 0.42108 0.11931 0.0
H952 H 0.41238 0.49884 0.2138 0.0
H953 H 0.4404 0.51718 0.19303 0.0
H954 H 0.44088 0.48254 0.21046 0.0
C955 C 0.39897 0.59976 0.83985 0.0
C956 C 0.39483 0.62783 0.83852 0.0
C957 C 0.41514 0.58995 0.86347 0.0
C958 C 0.42717 0.60865 0.88641 0.0
C959 C 0.4222 0.63678 0.88559 0.0
C960 C 0.40628 0.64611 0.86146 0.0
C961 C 0.42017 0.55994 0.86323 0.0
C962 C 0.43427 0.65723 0.90977 0.0
C963 C 0.45508 0.57412 0.95776 0.0
C964 C 0.48256 0.57852 0.95275 0.0
C965 C 0.43692 0.58474 0.93696 0.0
C966 C 0.44634 0.59934 0.91007 0.0
C967 C 0.47414 0.60423 0.90518 0.0
C968 C 0.49191 0.59411 0.92673 0.0
C969 C 0.40758 0.57972 0.94339 0.0
C970 C 0.485 0.6191 0.87656 0.0
H971 H 0.3902 0.58578 0.82189 0.0
H972 H 0.40306 0.66787 0.86024 0.0
H973 H 0.44188 0.56054 0.86095 0.0
H974 H 0.4148 0.54832 0.88485 0.0
H975 H 0.40852 0.54776 0.84448 0.0
H976 H 0.42659 0.67745 0.90729 0.0
H977 H 0.42982 0.64728 0.9324 0.0
H978 H 0.45645 0.66234 0.90877 0.0
H979 H 0.44772 0.56202 0.97777 0.0
H980 H 0.51303 0.59719 0.9224 0.0
H981 H 0.39561 0.56508 0.92682 0.0
H982 H 0.40016 0.60006 0.94091 0.0
H983 H 0.40387 0.57031 0.96643 0.0
H984 H 0.47562 0.60682 0.85682 0.0
H985 H 0.50717 0.62152 0.87635 0.0
H986 H 0.47977 0.64054 0.87372 0.0
C987 C 0.36945 0.39597 0.84563 0.0
C988 C 0.37962 0.3742 0.83322 0.0
C989 C 0.38424 0.41282 0.86835 0.0
C990 C 0.40996 0.40796 0.87891 0.0
C991 C 0.42 0.3855 0.86715 0.0
C992 C 0.40473 0.36889 0.84458 0.0
C993 C 0.37277 0.43653 0.88024 0.0
C994 C 0.44734 0.3796 0.87768 0.0
C995 C 0.46237 0.47019 0.90775 0.0
C996 C 0.46324 0.46469 0.93912 0.0
C997 C 0.44484 0.45221 0.88816 0.0
C998 C 0.42747 0.42799 0.90003 0.0
C999 C 0.4276 0.42265 0.9317 0.0
C1000 C 0.44551 0.44106 0.95091 0.0
C1001 C 0.44541 0.45883 0.8546 0.0
C1002 C 0.40923 0.39719 0.94524 0.0
H1003 H 0.35023 0.40051 0.8369 0.0
H1004 H 0.41259 0.35181 0.83564 0.0
H1005 H 0.37394 0.4354 0.90525 0.0
H1006 H 0.3848 0.45742 0.87302 0.0
H1007 H 0.35151 0.43575 0.872 0.0
H1008 H 0.45149 0.36019 0.86786 0.0
H1009 H 0.46312 0.39801 0.8712 0.0
H1010 H 0.44898 0.37695 0.90262 0.0
H1011 H 0.4758 0.48845 0.89828 0.0
H1012 H 0.44597 0.43663 0.97506 0.0
H1013 H 0.42505 0.4606 0.845 0.0
H1014 H 0.45152 0.4412 0.84334 0.0
H1015 H 0.45954 0.47896 0.84904 0.0
H1016 H 0.38808 0.39713 0.93711 0.0
H1017 H 0.41063 0.39686 0.97028 0.0
H1018 H 0.41443 0.3773 0.93786 0.0
C1019 C 0.66077 0.42598 0.81888 0.0
C1020 C 0.64874 0.39789 0.81207 0.0
C1021 C 0.64925 0.44138 0.83869 0.0
C1022 C 0.62526 0.42827 0.85223 0.0
C1023 C 0.61343 0.39968 0.846 0.0
C1024 C 0.62522 0.38491 0.82589 0.0
C1025 C 0.66219 0.47198 0.84424 0.0
C1026 C 0.58801 0.38481 0.8602 0.0
C1027 C 0.60204 0.45786 0.9214 0.0
C1028 C 0.58092 0.47035 0.90866 0.0
C1029 C 0.61731 0.44482 0.90322 0.0
C1030 C 0.61156 0.44475 0.87158 0.0
C1031 C 0.59129 0.45885 0.85853 0.0
C1032 C 0.5761 0.47125 0.87723 0.0
C1033 C 0.63879 0.43007 0.91796 0.0
C1034 C 0.58484 0.45983 0.82489 0.0
H1035 H 0.67881 0.43621 0.80801 0.0
H1036 H 0.61604 0.3631 0.82098 0.0
H1037 H 0.6491 0.48622 0.83366 0.0
H1038 H 0.66442 0.47579 0.86874 0.0
H1039 H 0.68225 0.47805 0.83475 0.0
H1040 H 0.58221 0.36207 0.85437 0.0
H1041 H 0.59064 0.38595 0.8851 0.0
H1042 H 0.57124 0.3957 0.85255 0.0
H1043 H 0.60593 0.45727 0.94567 0.0
H1044 H 0.56013 0.48138 0.86719 0.0
H1045 H 0.65807 0.43763 0.90715 0.0
H1046 H 0.63294 0.4068 0.9148 0.0
H1047 H 0.64208 0.43372 0.94249 0.0
H1048 H 0.60349 0.46637 0.81267 0.0
H1049 H 0.57114 0.47479 0.81805 0.0
H1050 H 0.57506 0.43826 0.81763 0.0
C1051 C 0.64705 0.57861 0.78201 0.0
C1052 C 0.66355 0.60563 0.78433 0.0
C1053 C 0.6339 0.56491 0.80703 0.0
C1054 C 0.63675 0.57907 0.83452 0.0
C1055 C 0.65421 0.60588 0.8372 0.0
C1056 C 0.66758 0.61872 0.8121 0.0
C1057 C 0.61618 0.53588 0.80368 0.0
C1058 C 0.65762 0.62174 0.8661 0.0
C1059 C 0.57921 0.56783 0.88586 0.0
C1060 C 0.58983 0.55407 0.91095 0.0
C1061 C 0.59397 0.57524 0.86029 0.0
C1062 C 0.61946 0.56763 0.85955 0.0
C1063 C 0.6293 0.55173 0.88408 0.0
C1064 C 0.6146 0.54575 0.90996 0.0
C1065 C 0.58293 0.59254 0.8348 0.0
C1066 C 0.65569 0.54193 0.88356 0.0
H1067 H 0.64418 0.56839 0.76055 0.0
H1068 H 0.6802 0.63971 0.81379 0.0
H1069 H 0.61808 0.52213 0.82427 0.0
H1070 H 0.59488 0.53818 0.80041 0.0
H1071 H 0.62114 0.52503 0.78397 0.0
H1072 H 0.67272 0.6419 0.86476 0.0
H1073 H 0.6381 0.62687 0.87127 0.0
H1074 H 0.66394 0.60819 0.88516 0.0
H1075 H 0.55989 0.57402 0.88686 0.0
H1076 H 0.62238 0.53452 0.92934 0.0
H1077 H 0.58221 0.58178 0.81323 0.0
H1078 H 0.59641 0.61368 0.83234 0.0
H1079 H 0.56242 0.5959 0.83856 0.0
H1080 H 0.65896 0.53564 0.86069 0.0
H1081 H 0.65665 0.5236 0.89972 0.0
H1082 H 0.67237 0.55965 0.89 0.0
C1083 C 0.64362 0.62353 0.18069 0.0
C1084 C 0.63382 0.64526 0.19361 0.0
C1085 C 0.62858 0.60729 0.15769 0.0
C1086 C 0.603 0.61275 0.14744 0.0
C1087 C 0.59342 0.63532 0.15963 0.0
C1088 C 0.60895 0.65132 0.18249 0.0
C1089 C 0.63963 0.58358 0.14519 0.0
C1090 C 0.56617 0.64171 0.14956 0.0
C1091 C 0.56623 0.58051 0.07569 0.0
C1092 C 0.5483 0.55713 0.08762 0.0
C1093 C 0.58461 0.59856 0.09476 0.0
C1094 C 0.58505 0.59306 0.12642 0.0
C1095 C 0.56756 0.56899 0.13839 0.0
C1096 C 0.54952 0.55139 0.11893 0.0
C1097 C 0.6031 0.62388 0.08113 0.0
C1098 C 0.56735 0.56217 0.17194 0.0
H1099 H 0.663 0.619 0.18881 0.0
H1100 H 0.6011 0.66789 0.19248 0.0
H1101 H 0.62736 0.5627 0.15205 0.0
H1102 H 0.63839 0.58516 0.12018 0.0
H1103 H 0.66086 0.5839 0.15328 0.0
H1104 H 0.5626 0.6614 0.15933 0.0
H1105 H 0.56413 0.64412 0.12462 0.0
H1106 H 0.55024 0.62364 0.15653 0.0
H1107 H 0.56547 0.5851 0.05157 0.0
H1108 H 0.53597 0.53326 0.12846 0.0
H1109 H 0.62425 0.62376 0.08912 0.0
H1110 H 0.5981 0.64385 0.08855 0.0
H1111 H 0.60157 0.62419 0.05609 0.0
H1112 H 0.58774 0.56004 0.18116 0.0
H1113 H 0.55306 0.54217 0.17756 0.0
H1114 H 0.56167 0.57987 0.18351 0.0
C1115 C 0.37337 0.59967 0.22497 0.0
C1116 C 0.35999 0.62199 0.21608 0.0
C1117 C 0.38549 0.58628 0.20386 0.0
C1118 C 0.38473 0.59583 0.17318 0.0
C1119 C 0.37077 0.61799 0.16398 0.0
C1120 C 0.35839 0.63064 0.1855 0.0
C1121 C 0.39976 0.56244 0.21462 0.0
C1122 C 0.3698 0.62907 0.13161 0.0
C1123 C 0.44305 0.58451 0.12951 0.0
C1124 C 0.43126 0.56125 0.11214 0.0
C1125 C 0.42789 0.59643 0.14868 0.0
C1126 C 0.40038 0.58425 0.15131 0.0
C1127 C 0.38834 0.56064 0.13382 0.0
C1128 C 0.40385 0.54974 0.11396 0.0
C1129 C 0.4415 0.62178 0.16655 0.0
C1130 C 0.35929 0.54652 0.13656 0.0
H1131 H 0.37437 0.59266 0.24853 0.0
H1132 H 0.34821 0.648 0.17855 0.0
H1133 H 0.3953 0.54489 0.19867 0.0
H1134 H 0.42179 0.57052 0.21565 0.0
H1135 H 0.394 0.55373 0.23738 0.0
H1136 H 0.35713 0.64551 0.12782 0.0
H1137 H 0.39045 0.63851 0.12511 0.0
H1138 H 0.36181 0.61132 0.11645 0.0
H1139 H 0.46429 0.59338 0.12815 0.0
H1140 H 0.39484 0.53144 0.1009 0.0
H1141 H 0.4417 0.61583 0.19098 0.0
H1142 H 0.43014 0.63934 0.16276 0.0
H1143 H 0.46254 0.62986 0.16044 0.0
H1144 H 0.35482 0.54232 0.16061 0.0
H1145 H 0.35407 0.52608 0.12482 0.0
H1146 H 0.34614 0.56098 0.12664 0.0
C1147 C 0.60293 0.41315 0.19586 0.0
C1148 C 0.6178 0.39239 0.19023 0.0
C1149 C 0.58676 0.42387 0.17284 0.0
C1150 C 0.58528 0.4136 0.14337 0.0
C1151 C 0.60062 0.39308 0.13736 0.0
C1152 C 0.61667 0.38277 0.16079 0.0
C1153 C 0.57078 0.44577 0.18026 0.0
C1154 C 0.59977 0.38169 0.10625 0.0
C1155 C 0.52209 0.42054 0.09452 0.0
C1156 C 0.53079 0.44553 0.07704 0.0
C1157 C 0.5398 0.40946 0.11546 0.0
C1158 C 0.56696 0.42368 0.11919 0.0
C1159 C 0.57615 0.44825 0.1008 0.0
C1160 C 0.55802 0.45882 0.07995 0.0
C1161 C 0.52916 0.38311 0.13443 0.0
C1162 C 0.60491 0.4641 0.10404 0.0
H1163 H 0.60332 0.4205 0.21852 0.0
H1164 H 0.62838 0.36709 0.15602 0.0
H1165 H 0.57548 0.46493 0.16499 0.0
H1166 H 0.54898 0.43695 0.17664 0.0
H1167 H 0.57492 0.45241 0.20393 0.0
H1168 H 0.61355 0.36651 0.10499 0.0
H1169 H 0.57903 0.37067 0.09966 0.0
H1170 H 0.60531 0.39952 0.0895 0.0
H1171 H 0.50115 0.41002 0.09252 0.0
H1172 H 0.56503 0.47821 0.06677 0.0
H1173 H 0.53018 0.38856 0.15846 0.0
H1174 H 0.54177 0.36688 0.13279 0.0
H1175 H 0.50802 0.37356 0.12754 0.0
H1176 H 0.60883 0.47362 0.12649 0.0
H1177 H 0.60946 0.4814 0.08645 0.0
H1178 H 0.61893 0.44922 0.10272 0.0
loop_
_geom_bond_atom_site_label_1
_geom_bond_atom_site_label_2
_geom_bond_distance
_geom_bond_site_symmetry_2
_ccdc_geom_bond_type
C0 C1 1.386 . S
C0 C2 1.397 . S
C0 H24 0.931 . S
C1 C0 1.386 . S
C1 C5 1.397 . S
C2 C0 1.397 . S
C2 C3 1.384 . S
C2 H25 0.930 . S
C3 C2 1.384 . S
C3 C4 1.377 . S
C3 C6 1.481 . S
C4 C3 1.377 . S
C4 C5 1.389 . S
C4 H26 0.929 . S
C5 C1 1.397 . S
C5 C4 1.389 . S
C5 H27 0.931 . S
C6 C3 1.481 . S
C6 C7 1.387 . S
C6 C11 1.390 . S
C7 C6 1.387 . S
C7 C8 1.401 . S
C7 H28 0.930 . S
C8 C7 1.401 . S
C8 C9 1.376 . S
C8 C17 1.511 . S
C9 C8 1.376 . S
C9 C10 1.392 . S
C9 H30 0.931 . S
C10 C9 1.392 . S
C10 C11 1.361 . S
C10 C12 1.500 . S
C11 C6 1.390 . S
C11 C10 1.361 . S
C11 H29 0.931 . S
C12 C10 1.500 . S
C12 C13 1.371 . S
C12 C14 1.365 . S
C13 C12 1.371 . S
C13 C23 1.386 . S
C13 H31 0.931 . S
C14 C12 1.365 . S
C14 C15 1.409 . S
C14 H32 0.929 . S
C15 C14 1.409 . S
C15 C16 1.380 . S
C15 H33 0.930 . S
C16 C15 1.380 . S
C16 C23 1.357 . S
C17 C8 1.511 . S
C17 C18 1.341 . S
C17 C19 1.371 . S
C18 C17 1.341 . S
C18 C22 1.394 . S
C18 H34 0.930 . S
C19 C17 1.371 . S
C19 C20 1.392 . S
C19 H35 0.931 . S
C20 C19 1.392 . S
C20 C21 1.331 . S
C20 H38 0.932 . S
C21 C20 1.331 . S
C21 C22 1.336 . S
C22 C18 1.394 . S
C22 C21 1.336 . S
C22 H37 0.929 . S
C23 C13 1.386 . S
C23 C16 1.357 . S
C23 H36 0.928 . S
H24 C0 0.931 . S
H25 C2 0.930 . S
H26 C4 0.929 . S
H27 C5 0.931 . S
H28 C7 0.930 . S
H29 C11 0.931 . S
H30 C9 0.931 . S
H31 C13 0.931 . S
H32 C14 0.929 . S
H33 C15 0.930 . S
H34 C18 0.930 . S
H35 C19 0.931 . S
H36 C23 0.928 . S
H37 C22 0.929 . S
H38 C20 0.932 . S
C39 C40 1.386 . S
C39 C41 1.397 . S
C39 H63 0.931 . S
C40 C39 1.386 . S
C40 C44 1.397 . S
C41 C39 1.397 . S
C41 C42 1.384 . S
C41 H64 0.930 . S
C42 C41 1.384 . S
C42 C43 1.377 . S
C42 C45 1.481 . S
C43 C42 1.377 . S
C43 C44 1.389 . S
C43 H65 0.929 . S
C44 C40 1.397 . S
C44 C43 1.389 . S
C44 H66 0.931 . S
C45 C42 1.481 . S
C45 C46 1.387 . S
C45 C50 1.390 . S
C46 C45 1.387 . S
C46 C47 1.401 . S
C46 H67 0.930 . S
C47 C46 1.401 . S
C47 C48 1.376 . S
C47 C56 1.511 . S
C48 C47 1.376 . S
C48 C49 1.392 . S
C48 H69 0.931 . S
C49 C48 1.392 . S
C49 C50 1.361 . S
C49 C51 1.500 . S
C50 C45 1.390 . S
C50 C49 1.361 . S
C50 H68 0.931 . S
C51 C49 1.500 . S
C51 C52 1.371 . S
C51 C53 1.365 . S
C52 C51 1.371 . S
C52 C62 1.386 . S
C52 H70 0.931 . S
C53 C51 1.365 . S
C53 C54 1.409 . S
C53 H71 0.929 . S
C54 C53 1.409 . S
C54 C55 1.380 . S
C54 H72 0.930 . S
C55 C54 1.380 . S
C55 C62 1.357 . S
C56 C47 1.511 . S
C56 C57 1.341 . S
C56 C58 1.371 . S
C57 C56 1.341 . S
C57 C61 1.394 . S
C57 H73 0.930 . S
C58 C56 1.371 . S
C58 C59 1.392 . S
C58 H74 0.931 . S
C59 C58 1.392 . S
C59 C60 1.331 . S
C59 H77 0.932 . S
C60 C59 1.331 . S
C60 C61 1.336 . S
C61 C57 1.394 . S
C61 C60 1.336 . S
C61 H76 0.929 . S
C62 C52 1.386 . S
C62 C55 1.357 . S
C62 H75 0.928 . S
H63 C39 0.931 . S
H64 C41 0.930 . S
H65 C43 0.929 . S
H66 C44 0.931 . S
H67 C46 0.930 . S
H68 C50 0.931 . S
H69 C48 0.931 . S
H70 C52 0.931 . S
H71 C53 0.929 . S
H72 C54 0.930 . S
H73 C57 0.930 . S
H74 C58 0.931 . S
H75 C62 0.928 . S
H76 C61 0.929 . S
H77 C59 0.932 . S
C78 C79 1.386 . S
C78 C80 1.397 . S
C78 H102 0.931 . S
C79 C78 1.386 . S
C79 C83 1.397 . S
C80 C78 1.397 . S
C80 C81 1.384 . S
C80 H103 0.930 . S
C81 C80 1.384 . S
C81 C82 1.377 . S
C81 C84 1.481 . S
C82 C81 1.377 . S
C82 C83 1.389 . S
C82 H104 0.929 . S
C83 C79 1.397 . S
C83 C82 1.389 . S
C83 H105 0.931 . S
C84 C81 1.481 . S
C84 C85 1.387 . S
C84 C89 1.390 . S
C85 C84 1.387 . S
C85 C86 1.401 . S
C85 H106 0.930 . S
C86 C85 1.401 . S
C86 C87 1.376 . S
C86 C95 1.511 . S
C87 C86 1.376 . S
C87 C88 1.392 . S
C87 H108 0.931 . S
C88 C87 1.392 . S
C88 C89 1.361 . S
C88 C90 1.500 . S
C89 C84 1.390 . S
C89 C88 1.361 . S
C89 H107 0.931 . S
C90 C88 1.500 . S
C90 C91 1.371 . S
C90 C92 1.365 . S
C91 C90 1.371 . S
C91 C101 1.386 . S
C91 H109 0.931 . S
C92 C90 1.365 . S
C92 C93 1.409 . S
C92 H110 0.929 . S
C93 C92 1.409 . S
C93 C94 1.380 . S
C93 H111 0.930 . S
C94 C93 1.380 . S
C94 C101 1.357 . S
C95 C86 1.511 . S
C95 C96 1.341 . S
C95 C97 1.371 . S
C96 C95 1.341 . S
C96 C100 1.394 . S
C96 H112 0.930 . S
C97 C95 1.371 . S
C97 C98 1.392 . S
C97 H113 0.931 . S
C98 C97 1.392 . S
C98 C99 1.331 . S
C98 H116 0.932 . S
C99 C98 1.331 . S
C99 C100 1.336 . S
C100 C96 1.394 . S
C100 C99 1.336 . S
C100 H115 0.929 . S
C101 C91 1.386 . S
C101 C94 1.357 . S
C101 H114 0.928 . S
H102 C78 0.931 . S
H103 C80 0.930 . S
H104 C82 0.929 . S
H105 C83 0.931 . S
H106 C85 0.930 . S
H107 C89 0.931 . S
H108 C87 0.931 . S
H109 C91 0.931 . S
H110 C92 0.929 . S
H111 C93 0.930 . S
H112 C96 0.930 . S
H113 C97 0.931 . S
H114 C101 0.928 . S
H115 C100 0.929 . S
H116 C98 0.932 . S
C117 C118 1.386 . S
C117 C119 1.397 . S
C117 H141 0.931 . S
C118 C117 1.386 . S
C118 C122 1.397 . S
C119 C117 1.397 . S
C119 C120 1.384 . S
C119 H142 0.930 . S
C120 C119 1.384 . S
C120 C121 1.377 . S
C120 C123 1.481 . S
C121 C120 1.377 . S
C121 C122 1.389 . S
C121 H143 0.929 . S
C122 C118 1.397 . S
C122 C121 1.389 . S
C122 H144 0.931 . S
C123 C120 1.481 . S
C123 C124 1.387 . S
C123 C128 1.390 . S
C124 C123 1.387 . S
C124 C125 1.401 . S
C124 H145 0.930 . S
C125 C124 1.401 . S
C125 C126 1.376 . S
C125 C134 1.511 . S
C126 C125 1.376 . S
C126 C127 1.392 . S
C126 H147 0.931 . S
C127 C126 1.392 . S
C127 C128 1.361 . S
C127 C129 1.500 . S
C128 C123 1.390 . S
C128 C127 1.361 . S
C128 H146 0.931 . S
C129 C127 1.500 . S
C129 C130 1.371 . S
C129 C131 1.365 . S
C130 C129 1.371 . S
C130 C140 1.386 . S
C130 H148 0.931 . S
C131 C129 1.365 . S
C131 C132 1.409 . S
C131 H149 0.929 . S
C132 C131 1.409 . S
C132 C133 1.380 . S
C132 H150 0.930 . S
C133 C132 1.380 . S
C133 C140 1.357 . S
C134 C125 1.511 . S
C134 C135 1.341 . S
C134 C136 1.371 . S
C135 C134 1.341 . S
C135 C139 1.394 . S
C135 H151 0.930 . S
C136 C134 1.371 . S
C136 C137 1.392 . S
C136 H152 0.931 . S
C137 C136 1.392 . S
C137 C138 1.331 . S
C137 H155 0.932 . S
C138 C137 1.331 . S
C138 C139 1.336 . S
C139 C135 1.394 . S
C139 C138 1.336 . S
C139 H154 0.929 . S
C140 C130 1.386 . S
C140 C133 1.357 . S
C140 H153 0.928 . S
H141 C117 0.931 . S
H142 C119 0.930 . S
H143 C121 0.929 . S
H144 C122 0.931 . S
H145 C124 0.930 . S
H146 C128 0.931 . S
H147 C126 0.931 . S
H148 C130 0.931 . S
H149 C131 0.929 . S
H150 C132 0.930 . S
H151 C135 0.930 . S
H152 C136 0.931 . S
H153 C140 0.928 . S
H154 C139 0.929 . S
H155 C137 0.932 . S
C156 C157 1.386 . S
C156 C158 1.397 . S
C156 H180 0.931 . S
C157 C156 1.386 . S
C157 C161 1.397 . S
C158 C156 1.397 . S
C158 C159 1.384 . S
C158 H181 0.930 . S
C159 C158 1.384 . S
C159 C160 1.377 . S
C159 C162 1.481 . S
C160 C159 1.377 . S
C160 C161 1.389 . S
C160 H182 0.929 . S
C161 C157 1.397 . S
C161 C160 1.389 . S
C161 H183 0.931 . S
C162 C159 1.481 . S
C162 C163 1.387 . S
C162 C167 1.390 . S
C163 C162 1.387 . S
C163 C164 1.401 . S
C163 H184 0.930 . S
C164 C163 1.401 . S
C164 C165 1.376 . S
C164 C173 1.511 . S
C165 C164 1.376 . S
C165 C166 1.392 . S
C165 H186 0.931 . S
C166 C165 1.392 . S
C166 C167 1.361 . S
C166 C168 1.500 . S
C167 C162 1.390 . S
C167 C166 1.361 . S
C167 H185 0.931 . S
C168 C166 1.500 . S
C168 C169 1.371 . S
C168 C170 1.365 . S
C169 C168 1.371 . S
C169 C179 1.386 . S
C169 H187 0.931 . S
C170 C168 1.365 . S
C170 C171 1.409 . S
C170 H188 0.929 . S
C171 C170 1.409 . S
C171 C172 1.380 . S
C171 H189 0.930 . S
C172 C171 1.380 . S
C172 C179 1.357 . S
C173 C164 1.511 . S
C173 C174 1.341 . S
C173 C175 1.371 . S
C174 C173 1.341 . S
C174 C178 1.394 . S
C174 H190 0.930 . S
C175 C173 1.371 . S
C175 C176 1.392 . S
C175 H191 0.931 . S
C176 C175 1.392 . S
C176 C177 1.331 . S
C176 H194 0.932 . S
C177 C176 1.331 . S
C177 C178 1.336 . S
C178 C174 1.394 . S
C178 C177 1.336 . S
C178 H193 0.929 . S
C179 C169 1.386 . S
C179 C172 1.357 . S
C179 H192 0.928 . S
H180 C156 0.931 . S
H181 C158 0.930 . S
H182 C160 0.929 . S
H183 C161 0.931 . S
H184 C163 0.930 . S
H185 C167 0.931 . S
H186 C165 0.931 . S
H187 C169 0.931 . S
H188 C170 0.929 . S
H189 C171 0.930 . S
H190 C174 0.930 . S
H191 C175 0.931 . S
H192 C179 0.928 . S
H193 C178 0.929 . S
H194 C176 0.932 . S
C195 C196 1.386 . S
C195 C197 1.397 . S
C195 H219 0.931 . S
C196 C195 1.386 . S
C196 C200 1.397 . S
C197 C195 1.397 . S
C197 C198 1.384 . S
C197 H220 0.930 . S
C198 C197 1.384 . S
C198 C199 1.377 . S
C198 C201 1.481 . S
C199 C198 1.377 . S
C199 C200 1.389 . S
C199 H221 0.929 . S
C200 C196 1.397 . S
C200 C199 1.389 . S
C200 H222 0.931 . S
C201 C198 1.481 . S
C201 C202 1.387 . S
C201 C206 1.390 . S
C202 C201 1.387 . S
C202 C203 1.401 . S
C202 H223 0.930 . S
C203 C202 1.401 . S
C203 C204 1.376 . S
C203 C212 1.511 . S
C204 C203 1.376 . S
C204 C205 1.392 . S
C204 H225 0.931 . S
C205 C204 1.392 . S
C205 C206 1.361 . S
C205 C207 1.500 . S
C206 C201 1.390 . S
C206 C205 1.361 . S
C206 H224 0.931 . S
C207 C205 1.500 . S
C207 C208 1.371 . S
C207 C209 1.365 . S
C208 C207 1.371 . S
C208 C218 1.386 . S
C208 H226 0.931 . S
C209 C207 1.365 . S
C209 C210 1.409 . S
C209 H227 0.929 . S
C210 C209 1.409 . S
C210 C211 1.380 . S
C210 H228 0.930 . S
C211 C210 1.380 . S
C211 C218 1.357 . S
C212 C203 1.511 . S
C212 C213 1.341 . S
C212 C214 1.371 . S
C213 C212 1.341 . S
C213 C217 1.394 . S
C213 H229 0.930 . S
C214 C212 1.371 . S
C214 C215 1.392 . S
C214 H230 0.931 . S
C215 C214 1.392 . S
C215 C216 1.331 . S
C215 H233 0.932 . S
C216 C215 1.331 . S
C216 C217 1.336 . S
C217 C213 1.394 . S
C217 C216 1.336 . S
C217 H232 0.929 . S
C218 C208 1.386 . S
C218 C211 1.357 . S
C218 H231 0.928 . S
H219 C195 0.931 . S
H220 C197 0.930 . S
H221 C199 0.929 . S
H222 C200 0.931 . S
H223 C202 0.930 . S
H224 C206 0.931 . S
H225 C204 0.931 . S
H226 C208 0.931 . S
H227 C209 0.929 . S
H228 C210 0.930 . S
H229 C213 0.930 . S
H230 C214 0.931 . S
H231 C218 0.928 . S
H232 C217 0.929 . S
H233 C215 0.932 . S
C234 C235 1.386 . S
C234 C236 1.397 . S
C234 H258 0.931 . S
C235 C234 1.386 . S
C235 C239 1.397 . S
C236 C234 1.397 . S
C236 C237 1.384 . S
C236 H259 0.930 . S
C237 C236 1.384 . S
C237 C238 1.377 . S
C237 C240 1.481 . S
C238 C237 1.377 . S
C238 C239 1.389 . S
C238 H260 0.929 . S
C239 C235 1.397 . S
C239 C238 1.389 . S
C239 H261 0.931 . S
C240 C237 1.481 . S
C240 C241 1.387 . S
C240 C245 1.390 . S
C241 C240 1.387 . S
C241 C242 1.401 . S
C241 H262 0.930 . S
C242 C241 1.401 . S
C242 C243 1.376 . S
C242 C251 1.511 . S
C243 C242 1.376 . S
C243 C244 1.392 . S
C243 H264 0.931 . S
C244 C243 1.392 . S
C244 C245 1.361 . S
C244 C246 1.500 . S
C245 C240 1.390 . S
C245 C244 1.361 . S
C245 H263 0.931 . S
C246 C244 1.500 . S
C246 C247 1.371 . S
C246 C248 1.365 . S
C247 C246 1.371 . S
C247 C257 1.386 . S
C247 H265 0.931 . S
C248 C246 1.365 . S
C248 C249 1.409 . S
C248 H266 0.929 . S
C249 C248 1.409 . S
C249 C250 1.380 . S
C249 H267 0.930 . S
C250 C249 1.380 . S
C250 C257 1.357 . S
C251 C242 1.511 . S
C251 C252 1.341 . S
C251 C253 1.371 . S
C252 C251 1.341 . S
C252 C256 1.394 . S
C252 H268 0.930 . S
C253 C251 1.371 . S
C253 C254 1.392 . S
C253 H269 0.931 . S
C254 C253 1.392 . S
C254 C255 1.331 . S
C254 H272 0.932 . S
C255 C254 1.331 . S
C255 C256 1.336 . S
C256 C252 1.394 . S
C256 C255 1.336 . S
C256 H271 0.929 . S
C257 C247 1.386 . S
C257 C250 1.357 . S
C257 H270 0.928 . S
H258 C234 0.931 . S
H259 C236 0.930 . S
H260 C238 0.929 . S
H261 C239 0.931 . S
H262 C241 0.930 . S
H263 C245 0.931 . S
H264 C243 0.931 . S
H265 C247 0.931 . S
H266 C248 0.929 . S
H267 C249 0.930 . S
H268 C252 0.930 . S
H269 C253 0.931 . S
H270 C257 0.928 . S
H271 C256 0.929 . S
H272 C254 0.932 . S
C273 C274 1.386 . S
C273 C275 1.397 . S
C273 H297 0.931 . S
C274 C273 1.386 . S
C274 C278 1.397 . S
C275 C273 1.397 . S
C275 C276 1.384 . S
C275 H298 0.930 . S
C276 C275 1.384 . S
C276 C277 1.377 . S
C276 C279 1.481 . S
C277 C276 1.377 . S
C277 C278 1.389 . S
C277 H299 0.929 . S
C278 C274 1.397 . S
C278 C277 1.389 . S
C278 H300 0.931 . S
C279 C276 1.481 . S
C279 C280 1.387 . S
C279 C284 1.390 . S
C280 C279 1.387 . S
C280 C281 1.401 . S
C280 H301 0.930 . S
C281 C280 1.401 . S
C281 C282 1.376 . S
C281 C290 1.511 . S
C282 C281 1.376 . S
C282 C283 1.392 . S
C282 H303 0.931 . S
C283 C282 1.392 . S
C283 C284 1.361 . S
C283 C285 1.500 . S
C284 C279 1.390 . S
C284 C283 1.361 . S
C284 H302 0.931 . S
C285 C283 1.500 . S
C285 C286 1.371 . S
C285 C287 1.365 . S
C286 C285 1.371 . S
C286 C296 1.386 . S
C286 H304 0.931 . S
C287 C285 1.365 . S
C287 C288 1.409 . S
C287 H305 0.929 . S
C288 C287 1.409 . S
C288 C289 1.380 . S
C288 H306 0.930 . S
C289 C288 1.380 . S
C289 C296 1.357 . S
C290 C281 1.511 . S
C290 C291 1.341 . S
C290 C292 1.371 . S
C291 C290 1.341 . S
C291 C295 1.394 . S
C291 H307 0.930 . S
C292 C290 1.371 . S
C292 C293 1.392 . S
C292 H308 0.931 . S
C293 C292 1.392 . S
C293 C294 1.331 . S
C293 H311 0.932 . S
C294 C293 1.331 . S
C294 C295 1.336 . S
C295 C291 1.394 . S
C295 C294 1.336 . S
C295 H310 0.929 . S
C296 C286 1.386 . S
C296 C289 1.357 . S
C296 H309 0.928 . S
H297 C273 0.931 . S
H298 C275 0.930 . S
H299 C277 0.929 . S
H300 C278 0.931 . S
H301 C280 0.930 . S
H302 C284 0.931 . S
H303 C282 0.931 . S
H304 C286 0.931 . S
H305 C287 0.929 . S
H306 C288 0.930 . S
H307 C291 0.930 . S
H308 C292 0.931 . S
H309 C296 0.928 . S
H310 C295 0.929 . S
H311 C293 0.932 . S
Co312 O315 2.042 . S
Co312 O322 2.264 . S
Co312 O341 2.286 . S
Co312 O342 2.069 . S
Co312 O344 2.015 . S
Co313 O315 2.122 . S
Co313 O321 2.073 . S
Co313 O322 2.327 . S
Co313 O323 1.976 . S
Co314 O315 2.118 . S
Co314 O317 2.056 1_455 S
Co314 O324 2.127 . S
Co314 O325 2.122 1_455 S
Co314 O329 2.096 1_455 S
Co314 O343 2.165 . S
O315 Co312 2.042 . S
O315 Co313 2.122 . S
O315 Co314 2.118 . S
O315 H316 0.980 . S
H316 O315 0.980 . S
O317 Co314 2.056 1_655 S
O317 Co318 2.042 . S
O317 Co319 2.122 . S
O317 H320 0.980 . S
Co318 O317 2.042 . S
Co318 O326 2.286 . S
Co318 O327 2.069 . S
Co318 O328 2.015 . S
Co318 O331 2.264 . S
Co319 O317 2.122 . S
Co319 O330 1.976 . S
Co319 O331 2.327 . S
Co319 O332 2.073 . S
H320 O317 0.980 . S
O321 Co313 2.073 . S
O321 C336 1.245 . S
O322 Co312 2.264 . S
O322 Co313 2.327 . S
O322 C336 1.257 . S
O323 Co313 1.976 . S
O323 C335 1.251 . S
O324 Co314 2.127 . S
O324 C335 1.274 . S
O325 Co314 2.122 1_655 S
O325 C338 1.246 . S
O326 Co318 2.286 . S
O326 C337 1.259 . S
O327 Co318 2.069 . S
O327 C337 1.289 . S
O328 Co318 2.015 . S
O328 C338 1.257 . S
O329 Co314 2.096 1_655 S
O329 C339 1.274 . S
O330 Co319 1.976 . S
O330 C339 1.251 . S
O331 Co318 2.264 . S
O331 Co319 2.327 . S
O331 C340 1.257 . S
O332 Co319 2.073 . S
O332 C340 1.245 . S
C333 O341 1.259 . S
C333 O342 1.289 . S
C334 O343 1.246 . S
C334 O344 1.257 . S
C335 O323 1.251 . S
C335 O324 1.274 . S
C336 O321 1.245 . S
C336 O322 1.257 . S
C337 O326 1.259 . S
C337 O327 1.289 . S
C338 O325 1.246 . S
C338 O328 1.257 . S
C339 O329 1.274 . S
C339 O330 1.251 . S
C340 O331 1.257 . S
C340 O332 1.245 . S
O341 Co312 2.286 . S
O341 C333 1.259 . S
O342 Co312 2.069 . S
O342 C333 1.289 . S
O343 Co314 2.165 . S
O343 C334 1.246 . S
O344 Co312 2.015 . S
O344 C334 1.257 . S
Co345 O348 2.042 . S
Co345 O355 2.264 . S
Co345 O374 2.286 . S
Co345 O375 2.069 . S
Co345 O377 2.015 . S
Co346 O348 2.122 . S
Co346 O354 2.073 . S
Co346 O355 2.327 . S
Co346 O356 1.976 . S
Co347 O348 2.087 1_545 S
Co347 O350 2.087 . S
Co347 O357 2.111 1_545 S
Co347 O358 2.143 . S
Co347 O362 2.111 . S
Co347 O376 2.143 1_545 S
O348 Co345 2.042 . S
O348 Co346 2.122 . S
O348 Co347 2.087 1_565 S
O348 H349 0.980 . S
H349 O348 0.980 . S
O350 Co347 2.087 . S
O350 Co351 2.042 . S
O350 Co352 2.122 . S
O350 H353 0.980 . S
Co351 O350 2.042 . S
Co351 O359 2.286 . S
Co351 O360 2.069 . S
Co351 O361 2.015 . S
Co351 O364 2.264 . S
Co352 O350 2.122 . S
Co352 O363 1.976 . S
Co352 O364 2.327 . S
Co352 O365 2.073 . S
H353 O350 0.980 . S
O354 Co346 2.073 . S
O354 C369 1.245 . S
O355 Co345 2.264 . S
O355 Co346 2.327 . S
O355 C369 1.257 . S
O356 Co346 1.976 . S
O356 C368 1.251 . S
O357 Co347 2.111 1_565 S
O357 C368 1.274 . S
O358 Co347 2.143 . S
O358 C371 1.246 . S
O359 Co351 2.286 . S
O359 C370 1.259 . S
O360 Co351 2.069 . S
O360 C370 1.289 . S
O361 Co351 2.015 . S
O361 C371 1.257 . S
O362 Co347 2.111 . S
O362 C372 1.274 . S
O363 Co352 1.976 . S
O363 C372 1.251 . S
O364 Co351 2.264 . S
O364 Co352 2.327 . S
O364 C373 1.257 . S
O365 Co352 2.073 . S
O365 C373 1.245 . S
C366 O374 1.259 . S
C366 O375 1.289 . S
C367 O376 1.246 . S
C367 O377 1.257 . S
C368 O356 1.251 . S
C368 O357 1.274 . S
C369 O354 1.245 . S
C369 O355 1.257 . S
C370 O359 1.259 . S
C370 O360 1.289 . S
C371 O358 1.246 . S
C371 O361 1.257 . S
C372 O362 1.274 . S
C372 O363 1.251 . S
C373 O364 1.257 . S
C373 O365 1.245 . S
O374 Co345 2.286 . S
O374 C366 1.259 . S
O375 Co345 2.069 . S
O375 C366 1.289 . S
O376 Co347 2.143 1_565 S
O376 C367 1.246 . S
O377 Co345 2.015 . S
O377 C367 1.257 . S
Co378 O381 2.042 . S
Co378 O388 2.264 . S
Co378 O407 2.286 . S
Co378 O408 2.069 . S
Co378 O410 2.015 . S
Co379 O381 2.122 . S
Co379 O387 2.073 . S
Co379 O388 2.327 . S
Co379 O389 1.976 . S
Co380 O381 2.087 . S
Co380 O383 2.087 1_554 S
Co380 O390 2.111 . S
Co380 O391 2.143 1_554 S
Co380 O395 2.111 1_554 S
Co380 O409 2.143 . S
O381 Co378 2.042 . S
O381 Co379 2.122 . S
O381 Co380 2.087 . S
O381 H382 0.980 . S
H382 O381 0.980 . S
O383 Co380 2.087 1_556 S
O383 Co384 2.042 . S
O383 Co385 2.122 . S
O383 H386 0.980 . S
Co384 O383 2.042 . S
Co384 O392 2.286 . S
Co384 O393 2.069 . S
Co384 O394 2.015 . S
Co384 O397 2.264 . S
Co385 O383 2.122 . S
Co385 O396 1.976 . S
Co385 O397 2.327 . S
Co385 O398 2.073 . S
H386 O383 0.980 . S
O387 Co379 2.073 . S
O387 C402 1.245 . S
O388 Co378 2.264 . S
O388 Co379 2.327 . S
O388 C402 1.257 . S
O389 Co379 1.976 . S
O389 C401 1.251 . S
O390 Co380 2.111 . S
O390 C401 1.274 . S
O391 Co380 2.143 1_556 S
O391 C404 1.246 . S
O392 Co384 2.286 . S
O392 C403 1.259 . S
O393 Co384 2.069 . S
O393 C403 1.289 . S
O394 Co384 2.015 . S
O394 C404 1.257 . S
O395 Co380 2.111 1_556 S
O395 C405 1.274 . S
O396 Co385 1.976 . S
O396 C405 1.251 . S
O397 Co384 2.264 . S
O397 Co385 2.327 . S
O397 C406 1.257 . S
O398 Co385 2.073 . S
O398 C406 1.245 . S
C399 O407 1.259 . S
C399 O408 1.289 . S
C400 O409 1.246 . S
C400 O410 1.257 . S
C401 O389 1.251 . S
C401 O390 1.274 . S
C402 O387 1.245 . S
C402 O388 1.257 . S
C403 O392 1.259 . S
C403 O393 1.289 . S
C404 O391 1.246 . S
C404 O394 1.257 . S
C405 O395 1.274 . S
C405 O396 1.251 . S
C406 O397 1.257 . S
C406 O398 1.245 . S
O407 Co378 2.286 . S
O407 C399 1.259 . S
O408 Co378 2.069 . S
O408 C399 1.289 . S
O409 Co380 2.143 . S
O409 C400 1.246 . S
O410 Co378 2.015 . S
O410 C400 1.257 . S
C411 C412 1.391 . S
C411 C413 1.394 . S
C411 H427 0.931 . S
C412 C411 1.391 . S
C412 C416 1.376 . S
C413 C411 1.394 . S
C413 C414 1.369 . S
C413 C417 1.531 . S
C414 C413 1.369 . S
C414 C415 1.410 . S
C414 C422 1.503 . S
C415 C414 1.410 . S
C415 C416 1.392 . S
C415 C418 1.511 . S
C416 C412 1.376 . S
C416 C415 1.392 . S
C416 H428 0.929 . S
C417 C413 1.531 . S
C417 H429 0.960 . S
C417 H430 0.962 . S
C417 H431 0.960 . S
C418 C415 1.511 . S
C418 H432 0.961 . S
C418 H433 0.961 . S
C418 H434 0.961 . S
C419 C420 1.370 . S
C419 C421 1.363 . S
C419 H435 0.931 . S
C420 C419 1.370 . S
C420 C424 1.408 . S
C421 C419 1.363 . S
C421 C422 1.370 . S
C421 C425 1.524 . S
C422 C414 1.503 . S
C422 C421 1.370 . S
C422 C423 1.403 . S
C423 C422 1.403 . S
C423 C424 1.404 . S
C423 C426 1.539 . S
C424 C420 1.408 . S
C424 C423 1.404 . S
C424 H436 0.930 . S
C425 C421 1.524 . S
C425 H437 0.956 . S
C425 H438 0.961 . S
C425 H439 0.961 . S
C426 C423 1.539 . S
C426 H440 0.958 . S
C426 H441 0.961 . S
C426 H442 0.960 . S
H427 C411 0.931 . S
H428 C416 0.929 . S
H429 C417 0.960 . S
H430 C417 0.962 . S
H431 C417 0.960 . S
H432 C418 0.961 . S
H433 C418 0.961 . S
H434 C418 0.961 . S
H435 C419 0.931 . S
H436 C424 0.930 . S
H437 C425 0.956 . S
H438 C425 0.961 . S
H439 C425 0.961 . S
H440 C426 0.958 . S
H441 C426 0.961 . S
H442 C426 0.960 . S
C443 C444 1.391 . S
C443 C445 1.394 . S
C443 H459 0.931 . S
C444 C443 1.391 . S
C444 C448 1.376 . S
C445 C443 1.394 . S
C445 C446 1.369 . S
C445 C449 1.531 . S
C446 C445 1.369 . S
C446 C447 1.410 . S
C446 C454 1.503 . S
C447 C446 1.410 . S
C447 C448 1.392 . S
C447 C450 1.511 . S
C448 C444 1.376 . S
C448 C447 1.392 . S
C448 H460 0.929 . S
C449 C445 1.531 . S
C449 H461 0.960 . S
C449 H462 0.962 . S
C449 H463 0.960 . S
C450 C447 1.511 . S
C450 H464 0.961 . S
C450 H465 0.961 . S
C450 H466 0.961 . S
C451 C452 1.370 . S
C451 C453 1.363 . S
C451 H467 0.931 . S
C452 C451 1.370 . S
C452 C456 1.408 . S
C453 C451 1.363 . S
C453 C454 1.370 . S
C453 C457 1.524 . S
C454 C446 1.503 . S
C454 C453 1.370 . S
C454 C455 1.403 . S
C455 C454 1.403 . S
C455 C456 1.404 . S
C455 C458 1.539 . S
C456 C452 1.408 . S
C456 C455 1.404 . S
C456 H468 0.930 . S
C457 C453 1.524 . S
C457 H469 0.956 . S
C457 H470 0.961 . S
C457 H471 0.961 . S
C458 C455 1.539 . S
C458 H472 0.958 . S
C458 H473 0.961 . S
C458 H474 0.960 . S
H459 C443 0.931 . S
H460 C448 0.929 . S
H461 C449 0.960 . S
H462 C449 0.962 . S
H463 C449 0.960 . S
H464 C450 0.961 . S
H465 C450 0.961 . S
H466 C450 0.961 . S
H467 C451 0.931 . S
H468 C456 0.930 . S
H469 C457 0.956 . S
H470 C457 0.961 . S
H471 C457 0.961 . S
H472 C458 0.958 . S
H473 C458 0.961 . S
H474 C458 0.960 . S
C475 C476 1.391 . S
C475 C477 1.394 . S
C475 H491 0.931 . S
C476 C475 1.391 . S
C476 C480 1.376 . S
C477 C475 1.394 . S
C477 C478 1.369 . S
C477 C481 1.531 . S
C478 C477 1.369 . S
C478 C479 1.410 . S
C478 C486 1.503 . S
C479 C478 1.410 . S
C479 C480 1.392 . S
C479 C482 1.511 . S
C480 C476 1.376 . S
C480 C479 1.392 . S
C480 H492 0.929 . S
C481 C477 1.531 . S
C481 H493 0.960 . S
C481 H494 0.962 . S
C481 H495 0.960 . S
C482 C479 1.511 . S
C482 H496 0.961 . S
C482 H497 0.961 . S
C482 H498 0.961 . S
C483 C484 1.370 . S
C483 C485 1.363 . S
C483 H499 0.931 . S
C484 C483 1.370 . S
C484 C488 1.408 . S
C485 C483 1.363 . S
C485 C486 1.370 . S
C485 C489 1.524 . S
C486 C478 1.503 . S
C486 C485 1.370 . S
C486 C487 1.403 . S
C487 C486 1.403 . S
C487 C488 1.404 . S
C487 C490 1.539 . S
C488 C484 1.408 . S
C488 C487 1.404 . S
C488 H500 0.930 . S
C489 C485 1.524 . S
C489 H501 0.956 . S
C489 H502 0.961 . S
C489 H503 0.961 . S
C490 C487 1.539 . S
C490 H504 0.958 . S
C490 H505 0.961 . S
C490 H506 0.960 . S
H491 C475 0.931 . S
H492 C480 0.929 . S
H493 C481 0.960 . S
H494 C481 0.962 . S
H495 C481 0.960 . S
H496 C482 0.961 . S
H497 C482 0.961 . S
H498 C482 0.961 . S
H499 C483 0.931 . S
H500 C488 0.930 . S
H501 C489 0.956 . S
H502 C489 0.961 . S
H503 C489 0.961 . S
H504 C490 0.958 . S
H505 C490 0.961 . S
H506 C490 0.960 . S
C507 C508 1.391 . S
C507 C509 1.394 . S
C507 H523 0.931 . S
C508 C507 1.391 . S
C508 C512 1.376 . S
C509 C507 1.394 . S
C509 C510 1.369 . S
C509 C513 1.531 . S
C510 C509 1.369 . S
C510 C511 1.410 . S
C510 C518 1.503 . S
C511 C510 1.410 . S
C511 C512 1.392 . S
C511 C514 1.511 . S
C512 C508 1.376 . S
C512 C511 1.392 . S
C512 H524 0.929 . S
C513 C509 1.531 . S
C513 H525 0.960 . S
C513 H526 0.962 . S
C513 H527 0.960 . S
C514 C511 1.511 . S
C514 H528 0.961 . S
C514 H529 0.961 . S
C514 H530 0.961 . S
C515 C516 1.370 . S
C515 C517 1.363 . S
C515 H531 0.931 . S
C516 C515 1.370 . S
C516 C520 1.408 . S
C517 C515 1.363 . S
C517 C518 1.370 . S
C517 C521 1.524 . S
C518 C510 1.503 . S
C518 C517 1.370 . S
C518 C519 1.403 . S
C519 C518 1.403 . S
C519 C520 1.404 . S
C519 C522 1.539 . S
C520 C516 1.408 . S
C520 C519 1.404 . S
C520 H532 0.930 . S
C521 C517 1.524 . S
C521 H533 0.956 . S
C521 H534 0.961 . S
C521 H535 0.961 . S
C522 C519 1.539 . S
C522 H536 0.958 . S
C522 H537 0.961 . S
C522 H538 0.960 . S
H523 C507 0.931 . S
H524 C512 0.929 . S
H525 C513 0.960 . S
H526 C513 0.962 . S
H527 C513 0.960 . S
H528 C514 0.961 . S
H529 C514 0.961 . S
H530 C514 0.961 . S
H531 C515 0.931 . S
H532 C520 0.930 . S
H533 C521 0.956 . S
H534 C521 0.961 . S
H535 C521 0.961 . S
H536 C522 0.958 . S
H537 C522 0.961 . S
H538 C522 0.960 . S
C539 C540 1.391 . S
C539 C541 1.394 . S
C539 H555 0.931 . S
C540 C539 1.391 . S
C540 C544 1.376 . S
C541 C539 1.394 . S
C541 C542 1.369 . S
C541 C545 1.531 . S
C542 C541 1.369 . S
C542 C543 1.410 . S
C542 C550 1.503 . S
C543 C542 1.410 . S
C543 C544 1.392 . S
C543 C546 1.511 . S
C544 C540 1.376 . S
C544 C543 1.392 . S
C544 H556 0.929 . S
C545 C541 1.531 . S
C545 H557 0.960 . S
C545 H558 0.962 . S
C545 H559 0.960 . S
C546 C543 1.511 . S
C546 H560 0.961 . S
C546 H561 0.961 . S
C546 H562 0.961 . S
C547 C548 1.370 . S
C547 C549 1.363 . S
C547 H563 0.931 . S
C548 C547 1.370 . S
C548 C552 1.408 . S
C549 C547 1.363 . S
C549 C550 1.370 . S
C549 C553 1.524 . S
C550 C542 1.503 . S
C550 C549 1.370 . S
C550 C551 1.403 . S
C551 C550 1.403 . S
C551 C552 1.404 . S
C551 C554 1.539 . S
C552 C548 1.408 . S
C552 C551 1.404 . S
C552 H564 0.930 . S
C553 C549 1.524 . S
C553 H565 0.956 . S
C553 H566 0.961 . S
C553 H567 0.961 . S
C554 C551 1.539 . S
C554 H568 0.958 . S
C554 H569 0.961 . S
C554 H570 0.960 . S
H555 C539 0.931 . S
H556 C544 0.929 . S
H557 C545 0.960 . S
H558 C545 0.962 . S
H559 C545 0.960 . S
H560 C546 0.961 . S
H561 C546 0.961 . S
H562 C546 0.961 . S
H563 C547 0.931 . S
H564 C552 0.930 . S
H565 C553 0.956 . S
H566 C553 0.961 . S
H567 C553 0.961 . S
H568 C554 0.958 . S
H569 C554 0.961 . S
H570 C554 0.960 . S
C571 C572 1.391 . S
C571 C573 1.394 . S
C571 H587 0.931 . S
C572 C571 1.391 . S
C572 C576 1.376 . S
C573 C571 1.394 . S
C573 C574 1.369 . S
C573 C577 1.531 . S
C574 C573 1.369 . S
C574 C575 1.410 . S
C574 C582 1.503 . S
C575 C574 1.410 . S
C575 C576 1.392 . S
C575 C578 1.511 . S
C576 C572 1.376 . S
C576 C575 1.392 . S
C576 H588 0.929 . S
C577 C573 1.531 . S
C577 H589 0.960 . S
C577 H590 0.962 . S
C577 H591 0.960 . S
C578 C575 1.511 . S
C578 H592 0.961 . S
C578 H593 0.961 . S
C578 H594 0.961 . S
C579 C580 1.370 . S
C579 C581 1.363 . S
C579 H595 0.931 . S
C580 C579 1.370 . S
C580 C584 1.408 . S
C581 C579 1.363 . S
C581 C582 1.370 . S
C581 C585 1.524 . S
C582 C574 1.503 . S
C582 C581 1.370 . S
C582 C583 1.403 . S
C583 C582 1.403 . S
C583 C584 1.404 . S
C583 C586 1.539 . S
C584 C580 1.408 . S
C584 C583 1.404 . S
C584 H596 0.930 . S
C585 C581 1.524 . S
C585 H597 0.956 . S
C585 H598 0.961 . S
C585 H599 0.961 . S
C586 C583 1.539 . S
C586 H600 0.958 . S
C586 H601 0.961 . S
C586 H602 0.960 . S
H587 C571 0.931 . S
H588 C576 0.929 . S
H589 C577 0.960 . S
H590 C577 0.962 . S
H591 C577 0.960 . S
H592 C578 0.961 . S
H593 C578 0.961 . S
H594 C578 0.961 . S
H595 C579 0.931 . S
H596 C584 0.930 . S
H597 C585 0.956 . S
H598 C585 0.961 . S
H599 C585 0.961 . S
H600 C586 0.958 . S
H601 C586 0.961 . S
H602 C586 0.960 . S
C603 C604 1.391 . S
C603 C605 1.394 . S
C603 H619 0.931 . S
C604 C603 1.391 . S
C604 C608 1.376 . S
C605 C603 1.394 . S
C605 C606 1.369 . S
C605 C609 1.531 . S
C606 C605 1.369 . S
C606 C607 1.410 . S
C606 C614 1.503 . S
C607 C606 1.410 . S
C607 C608 1.392 . S
C607 C610 1.511 . S
C608 C604 1.376 . S
C608 C607 1.392 . S
C608 H620 0.929 . S
C609 C605 1.531 . S
C609 H621 0.960 . S
C609 H622 0.962 . S
C609 H623 0.960 . S
C610 C607 1.511 . S
C610 H624 0.961 . S
C610 H625 0.961 . S
C610 H626 0.961 . S
C611 C612 1.370 . S
C611 C613 1.363 . S
C611 H627 0.931 . S
C612 C611 1.370 . S
C612 C616 1.408 . S
C613 C611 1.363 . S
C613 C614 1.370 . S
C613 C617 1.524 . S
C614 C606 1.503 . S
C614 C613 1.370 . S
C614 C615 1.403 . S
C615 C614 1.403 . S
C615 C616 1.404 . S
C615 C618 1.539 . S
C616 C612 1.408 . S
C616 C615 1.404 . S
C616 H628 0.930 . S
C617 C613 1.524 . S
C617 H629 0.956 . S
C617 H630 0.961 . S
C617 H631 0.961 . S
C618 C615 1.539 . S
C618 H632 0.958 . S
C618 H633 0.961 . S
C618 H634 0.960 . S
H619 C603 0.931 . S
H620 C608 0.929 . S
H621 C609 0.960 . S
H622 C609 0.962 . S
H623 C609 0.960 . S
H624 C610 0.961 . S
H625 C610 0.961 . S
H626 C610 0.961 . S
H627 C611 0.931 . S
H628 C616 0.930 . S
H629 C617 0.956 . S
H630 C617 0.961 . S
H631 C617 0.961 . S
H632 C618 0.958 . S
H633 C618 0.961 . S
H634 C618 0.960 . S
C635 C636 1.391 . S
C635 C637 1.394 . S
C635 H651 0.931 . S
C636 C635 1.391 . S
C636 C640 1.376 . S
C637 C635 1.394 . S
C637 C638 1.369 . S
C637 C641 1.531 . S
C638 C637 1.369 . S
C638 C639 1.410 . S
C638 C646 1.503 . S
C639 C638 1.410 . S
C639 C640 1.392 . S
C639 C642 1.511 . S
C640 C636 1.376 . S
C640 C639 1.392 . S
C640 H652 0.929 . S
C641 C637 1.531 . S
C641 H653 0.960 . S
C641 H654 0.962 . S
C641 H655 0.960 . S
C642 C639 1.511 . S
C642 H656 0.961 . S
C642 H657 0.961 . S
C642 H658 0.961 . S
C643 C644 1.370 . S
C643 C645 1.363 . S
C643 H659 0.931 . S
C644 C643 1.370 . S
C644 C648 1.408 . S
C645 C643 1.363 . S
C645 C646 1.370 . S
C645 C649 1.524 . S
C646 C638 1.503 . S
C646 C645 1.370 . S
C646 C647 1.403 . S
C647 C646 1.403 . S
C647 C648 1.404 . S
C647 C650 1.539 . S
C648 C644 1.408 . S
C648 C647 1.404 . S
C648 H660 0.930 . S
C649 C645 1.524 . S
C649 H661 0.956 . S
C649 H662 0.961 . S
C649 H663 0.961 . S
C650 C647 1.539 . S
C650 H664 0.958 . S
C650 H665 0.961 . S
C650 H666 0.960 . S
H651 C635 0.931 . S
H652 C640 0.929 . S
H653 C641 0.960 . S
H654 C641 0.962 . S
H655 C641 0.960 . S
H656 C642 0.961 . S
H657 C642 0.961 . S
H658 C642 0.961 . S
H659 C643 0.931 . S
H660 C648 0.930 . S
H661 C649 0.956 . S
H662 C649 0.961 . S
H663 C649 0.961 . S
H664 C650 0.958 . S
H665 C650 0.961 . S
H666 C650 0.960 . S
C667 C668 1.391 . S
C667 C669 1.394 . S
C667 H683 0.931 . S
C668 C667 1.391 . S
C668 C672 1.376 . S
C669 C667 1.394 . S
C669 C670 1.369 . S
C669 C673 1.531 . S
C670 C669 1.369 . S
C670 C671 1.410 . S
C670 C678 1.503 . S
C671 C670 1.410 . S
C671 C672 1.392 . S
C671 C674 1.511 . S
C672 C668 1.376 . S
C672 C671 1.392 . S
C672 H684 0.929 . S
C673 C669 1.531 . S
C673 H685 0.960 . S
C673 H686 0.962 . S
C673 H687 0.960 . S
C674 C671 1.511 . S
C674 H688 0.961 . S
C674 H689 0.961 . S
C674 H690 0.961 . S
C675 C676 1.370 . S
C675 C677 1.363 . S
C675 H691 0.931 . S
C676 C675 1.370 . S
C676 C680 1.408 . S
C677 C675 1.363 . S
C677 C678 1.370 . S
C677 C681 1.524 . S
C678 C670 1.503 . S
C678 C677 1.370 . S
C678 C679 1.403 . S
C679 C678 1.403 . S
C679 C680 1.404 . S
C679 C682 1.539 . S
C680 C676 1.408 . S
C680 C679 1.404 . S
C680 H692 0.930 . S
C681 C677 1.524 . S
C681 H693 0.956 . S
C681 H694 0.961 . S
C681 H695 0.961 . S
C682 C679 1.539 . S
C682 H696 0.958 . S
C682 H697 0.961 . S
C682 H698 0.960 . S
H683 C667 0.931 . S
H684 C672 0.929 . S
H685 C673 0.960 . S
H686 C673 0.962 . S
H687 C673 0.960 . S
H688 C674 0.961 . S
H689 C674 0.961 . S
H690 C674 0.961 . S
H691 C675 0.931 . S
H692 C680 0.930 . S
H693 C681 0.956 . S
H694 C681 0.961 . S
H695 C681 0.961 . S
H696 C682 0.958 . S
H697 C682 0.961 . S
H698 C682 0.960 . S
C699 C700 1.391 . S
C699 C701 1.394 . S
C699 H715 0.931 . S
C700 C699 1.391 . S
C700 C704 1.376 . S
C701 C699 1.394 . S
C701 C702 1.369 . S
C701 C705 1.531 . S
C702 C701 1.369 . S
C702 C703 1.410 . S
C702 C710 1.503 . S
C703 C702 1.410 . S
C703 C704 1.392 . S
C703 C706 1.511 . S
C704 C700 1.376 . S
C704 C703 1.392 . S
C704 H716 0.929 . S
C705 C701 1.531 . S
C705 H717 0.960 . S
C705 H718 0.962 . S
C705 H719 0.960 . S
C706 C703 1.511 . S
C706 H720 0.961 . S
C706 H721 0.961 . S
C706 H722 0.961 . S
C707 C708 1.370 . S
C707 C709 1.363 . S
C707 H723 0.931 . S
C708 C707 1.370 . S
C708 C712 1.408 . S
C709 C707 1.363 . S
C709 C710 1.370 . S
C709 C713 1.524 . S
C710 C702 1.503 . S
C710 C709 1.370 . S
C710 C711 1.403 . S
C711 C710 1.403 . S
C711 C712 1.404 . S
C711 C714 1.539 . S
C712 C708 1.408 . S
C712 C711 1.404 . S
C712 H724 0.930 . S
C713 C709 1.524 . S
C713 H725 0.956 . S
C713 H726 0.961 . S
C713 H727 0.961 . S
C714 C711 1.539 . S
C714 H728 0.958 . S
C714 H729 0.961 . S
C714 H730 0.960 . S
H715 C699 0.931 . S
H716 C704 0.929 . S
H717 C705 0.960 . S
H718 C705 0.962 . S
H719 C705 0.960 . S
H720 C706 0.961 . S
H721 C706 0.961 . S
H722 C706 0.961 . S
H723 C707 0.931 . S
H724 C712 0.930 . S
H725 C713 0.956 . S
H726 C713 0.961 . S
H727 C713 0.961 . S
H728 C714 0.958 . S
H729 C714 0.961 . S
H730 C714 0.960 . S
C731 C732 1.391 . S
C731 C733 1.394 . S
C731 H747 0.931 . S
C732 C731 1.391 . S
C732 C736 1.376 . S
C733 C731 1.394 . S
C733 C734 1.369 . S
C733 C737 1.531 . S
C734 C733 1.369 . S
C734 C735 1.410 . S
C734 C742 1.503 . S
C735 C734 1.410 . S
C735 C736 1.392 . S
C735 C738 1.511 . S
C736 C732 1.376 . S
C736 C735 1.392 . S
C736 H748 0.929 . S
C737 C733 1.531 . S
C737 H749 0.960 . S
C737 H750 0.962 . S
C737 H751 0.960 . S
C738 C735 1.511 . S
C738 H752 0.961 . S
C738 H753 0.961 . S
C738 H754 0.961 . S
C739 C740 1.370 . S
C739 C741 1.363 . S
C739 H755 0.931 . S
C740 C739 1.370 . S
C740 C744 1.408 . S
C741 C739 1.363 . S
C741 C742 1.370 . S
C741 C745 1.524 . S
C742 C734 1.503 . S
C742 C741 1.370 . S
C742 C743 1.403 . S
C743 C742 1.403 . S
C743 C744 1.404 . S
C743 C746 1.539 . S
C744 C740 1.408 . S
C744 C743 1.404 . S
C744 H756 0.930 . S
C745 C741 1.524 . S
C745 H757 0.956 . S
C745 H758 0.961 . S
C745 H759 0.961 . S
C746 C743 1.539 . S
C746 H760 0.958 . S
C746 H761 0.961 . S
C746 H762 0.960 . S
H747 C731 0.931 . S
H748 C736 0.929 . S
H749 C737 0.960 . S
H750 C737 0.962 . S
H751 C737 0.960 . S
H752 C738 0.961 . S
H753 C738 0.961 . S
H754 C738 0.961 . S
H755 C739 0.931 . S
H756 C744 0.930 . S
H757 C745 0.956 . S
H758 C745 0.961 . S
H759 C745 0.961 . S
H760 C746 0.958 . S
H761 C746 0.961 . S
H762 C746 0.960 . S
C763 C764 1.391 . S
C763 C765 1.394 . S
C763 H779 0.931 . S
C764 C763 1.391 . S
C764 C768 1.376 . S
C765 C763 1.394 . S
C765 C766 1.369 . S
C765 C769 1.531 . S
C766 C765 1.369 . S
C766 C767 1.410 . S
C766 C774 1.503 . S
C767 C766 1.410 . S
C767 C768 1.392 . S
C767 C770 1.511 . S
C768 C764 1.376 . S
C768 C767 1.392 . S
C768 H780 0.929 . S
C769 C765 1.531 . S
C769 H781 0.960 . S
C769 H782 0.962 . S
C769 H783 0.960 . S
C770 C767 1.511 . S
C770 H784 0.961 . S
C770 H785 0.961 . S
C770 H786 0.961 . S
C771 C772 1.370 . S
C771 C773 1.363 . S
C771 H787 0.931 . S
C772 C771 1.370 . S
C772 C776 1.408 . S
C773 C771 1.363 . S
C773 C774 1.370 . S
C773 C777 1.524 . S
C774 C766 1.503 . S
C774 C773 1.370 . S
C774 C775 1.403 . S
C775 C774 1.403 . S
C775 C776 1.404 . S
C775 C778 1.539 . S
C776 C772 1.408 . S
C776 C775 1.404 . S
C776 H788 0.930 . S
C777 C773 1.524 . S
C777 H789 0.956 . S
C777 H790 0.961 . S
C777 H791 0.961 . S
C778 C775 1.539 . S
C778 H792 0.958 . S
C778 H793 0.961 . S
C778 H794 0.960 . S
H779 C763 0.931 . S
H780 C768 0.929 . S
H781 C769 0.960 . S
H782 C769 0.962 . S
H783 C769 0.960 . S
H784 C770 0.961 . S
H785 C770 0.961 . S
H786 C770 0.961 . S
H787 C771 0.931 . S
H788 C776 0.930 . S
H789 C777 0.956 . S
H790 C777 0.961 . S
H791 C777 0.961 . S
H792 C778 0.958 . S
H793 C778 0.961 . S
H794 C778 0.960 . S
C795 C796 1.391 . S
C795 C797 1.394 . S
C795 H811 0.931 . S
C796 C795 1.391 . S
C796 C800 1.376 . S
C797 C795 1.394 . S
C797 C798 1.369 . S
C797 C801 1.531 . S
C798 C797 1.369 . S
C798 C799 1.410 . S
C798 C806 1.503 . S
C799 C798 1.410 . S
C799 C800 1.392 . S
C799 C802 1.511 . S
C800 C796 1.376 . S
C800 C799 1.392 . S
C800 H812 0.929 . S
C801 C797 1.531 . S
C801 H813 0.960 . S
C801 H814 0.962 . S
C801 H815 0.960 . S
C802 C799 1.511 . S
C802 H816 0.961 . S
C802 H817 0.961 . S
C802 H818 0.961 . S
C803 C804 1.370 . S
C803 C805 1.363 . S
C803 H819 0.931 . S
C804 C803 1.370 . S
C804 C808 1.408 . S
C805 C803 1.363 . S
C805 C806 1.370 . S
C805 C809 1.524 . S
C806 C798 1.503 . S
C806 C805 1.370 . S
C806 C807 1.403 . S
C807 C806 1.403 . S
C807 C808 1.404 . S
C807 C810 1.539 . S
C808 C804 1.408 . S
C808 C807 1.404 . S
C808 H820 0.930 . S
C809 C805 1.524 . S
C809 H821 0.956 . S
C809 H822 0.961 . S
C809 H823 0.961 . S
C810 C807 1.539 . S
C810 H824 0.958 . S
C810 H825 0.961 . S
C810 H826 0.960 . S
H811 C795 0.931 . S
H812 C800 0.929 . S
H813 C801 0.960 . S
H814 C801 0.962 . S
H815 C801 0.960 . S
H816 C802 0.961 . S
H817 C802 0.961 . S
H818 C802 0.961 . S
H819 C803 0.931 . S
H820 C808 0.930 . S
H821 C809 0.956 . S
H822 C809 0.961 . S
H823 C809 0.961 . S
H824 C810 0.958 . S
H825 C810 0.961 . S
H826 C810 0.960 . S
C827 C828 1.391 . S
C827 C829 1.394 . S
C827 H843 0.931 . S
C828 C827 1.391 . S
C828 C832 1.376 . S
C829 C827 1.394 . S
C829 C830 1.369 . S
C829 C833 1.531 . S
C830 C829 1.369 . S
C830 C831 1.410 . S
C830 C838 1.503 . S
C831 C830 1.410 . S
C831 C832 1.392 . S
C831 C834 1.511 . S
C832 C828 1.376 . S
C832 C831 1.392 . S
C832 H844 0.929 . S
C833 C829 1.531 . S
C833 H845 0.960 . S
C833 H846 0.962 . S
C833 H847 0.960 . S
C834 C831 1.511 . S
C834 H848 0.961 . S
C834 H849 0.961 . S
C834 H850 0.961 . S
C835 C836 1.370 . S
C835 C837 1.363 . S
C835 H851 0.931 . S
C836 C835 1.370 . S
C836 C840 1.408 . S
C837 C835 1.363 . S
C837 C838 1.370 . S
C837 C841 1.524 . S
C838 C830 1.503 . S
C838 C837 1.370 . S
C838 C839 1.403 . S
C839 C838 1.403 . S
C839 C840 1.404 . S
C839 C842 1.539 . S
C840 C836 1.408 . S
C840 C839 1.404 . S
C840 H852 0.930 . S
C841 C837 1.524 . S
C841 H853 0.956 . S
C841 H854 0.961 . S
C841 H855 0.961 . S
C842 C839 1.539 . S
C842 H856 0.958 . S
C842 H857 0.961 . S
C842 H858 0.960 . S
H843 C827 0.931 . S
H844 C832 0.929 . S
H845 C833 0.960 . S
H846 C833 0.962 . S
H847 C833 0.960 . S
H848 C834 0.961 . S
H849 C834 0.961 . S
H850 C834 0.961 . S
H851 C835 0.931 . S
H852 C840 0.930 . S
H853 C841 0.956 . S
H854 C841 0.961 . S
H855 C841 0.961 . S
H856 C842 0.958 . S
H857 C842 0.961 . S
H858 C842 0.960 . S
C859 C860 1.391 . S
C859 C861 1.394 . S
C859 H875 0.931 . S
C860 C859 1.391 . S
C860 C864 1.376 . S
C861 C859 1.394 . S
C861 C862 1.369 . S
C861 C865 1.531 . S
C862 C861 1.369 . S
C862 C863 1.410 . S
C862 C870 1.503 . S
C863 C862 1.410 . S
C863 C864 1.392 . S
C863 C866 1.511 . S
C864 C860 1.376 . S
C864 C863 1.392 . S
C864 H876 0.929 . S
C865 C861 1.531 . S
C865 H877 0.960 . S
C865 H878 0.962 . S
C865 H879 0.960 . S
C866 C863 1.511 . S
C866 H880 0.961 . S
C866 H881 0.961 . S
C866 H882 0.961 . S
C867 C868 1.370 . S
C867 C869 1.363 . S
C867 H883 0.931 . S
C868 C867 1.370 . S
C868 C872 1.408 . S
C869 C867 1.363 . S
C869 C870 1.370 . S
C869 C873 1.524 . S
C870 C862 1.503 . S
C870 C869 1.370 . S
C870 C871 1.403 . S
C871 C870 1.403 . S
C871 C872 1.404 . S
C871 C874 1.539 . S
C872 C868 1.408 . S
C872 C871 1.404 . S
C872 H884 0.930 . S
C873 C869 1.524 . S
C873 H885 0.956 . S
C873 H886 0.961 . S
C873 H887 0.961 . S
C874 C871 1.539 . S
C874 H888 0.958 . S
C874 H889 0.961 . S
C874 H890 0.960 . S
H875 C859 0.931 . S
H876 C864 0.929 . S
H877 C865 0.960 . S
H878 C865 0.962 . S
H879 C865 0.960 . S
H880 C866 0.961 . S
H881 C866 0.961 . S
H882 C866 0.961 . S
H883 C867 0.931 . S
H884 C872 0.930 . S
H885 C873 0.956 . S
H886 C873 0.961 . S
H887 C873 0.961 . S
H888 C874 0.958 . S
H889 C874 0.961 . S
H890 C874 0.960 . S
C891 C892 1.391 . S
C891 C893 1.394 . S
C891 H907 0.931 . S
C892 C891 1.391 . S
C892 C896 1.376 . S
C893 C891 1.394 . S
C893 C894 1.369 . S
C893 C897 1.531 . S
C894 C893 1.369 . S
C894 C895 1.410 . S
C894 C902 1.503 . S
C895 C894 1.410 . S
C895 C896 1.392 . S
C895 C898 1.511 . S
C896 C892 1.376 . S
C896 C895 1.392 . S
C896 H908 0.929 . S
C897 C893 1.531 . S
C897 H909 0.960 . S
C897 H910 0.962 . S
C897 H911 0.960 . S
C898 C895 1.511 . S
C898 H912 0.961 . S
C898 H913 0.961 . S
C898 H914 0.961 . S
C899 C900 1.370 . S
C899 C901 1.363 . S
C899 H915 0.931 . S
C900 C899 1.370 . S
C900 C904 1.408 . S
C901 C899 1.363 . S
C901 C902 1.370 . S
C901 C905 1.524 . S
C902 C894 1.503 . S
C902 C901 1.370 . S
C902 C903 1.403 . S
C903 C902 1.403 . S
C903 C904 1.404 . S
C903 C906 1.539 . S
C904 C900 1.408 . S
C904 C903 1.404 . S
C904 H916 0.930 . S
C905 C901 1.524 . S
C905 H917 0.956 . S
C905 H918 0.961 . S
C905 H919 0.961 . S
C906 C903 1.539 . S
C906 H920 0.958 . S
C906 H921 0.961 . S
C906 H922 0.960 . S
H907 C891 0.931 . S
H908 C896 0.929 . S
H909 C897 0.960 . S
H910 C897 0.962 . S
H911 C897 0.960 . S
H912 C898 0.961 . S
H913 C898 0.961 . S
H914 C898 0.961 . S
H915 C899 0.931 . S
H916 C904 0.930 . S
H917 C905 0.956 . S
H918 C905 0.961 . S
H919 C905 0.961 . S
H920 C906 0.958 . S
H921 C906 0.961 . S
H922 C906 0.960 . S
C923 C924 1.391 . S
C923 C925 1.394 . S
C923 H939 0.931 . S
C924 C923 1.391 . S
C924 C928 1.376 . S
C925 C923 1.394 . S
C925 C926 1.369 . S
C925 C929 1.531 . S
C926 C925 1.369 . S
C926 C927 1.410 . S
C926 C934 1.503 . S
C927 C926 1.410 . S
C927 C928 1.392 . S
C927 C930 1.511 . S
C928 C924 1.376 . S
C928 C927 1.392 . S
C928 H940 0.929 . S
C929 C925 1.531 . S
C929 H941 0.960 . S
C929 H942 0.962 . S
C929 H943 0.960 . S
C930 C927 1.511 . S
C930 H944 0.961 . S
C930 H945 0.961 . S
C930 H946 0.961 . S
C931 C932 1.370 . S
C931 C933 1.363 . S
C931 H947 0.931 . S
C932 C931 1.370 . S
C932 C936 1.408 . S
C933 C931 1.363 . S
C933 C934 1.370 . S
C933 C937 1.524 . S
C934 C926 1.503 . S
C934 C933 1.370 . S
C934 C935 1.403 . S
C935 C934 1.403 . S
C935 C936 1.404 . S
C935 C938 1.539 . S
C936 C932 1.408 . S
C936 C935 1.404 . S
C936 H948 0.930 . S
C937 C933 1.524 . S
C937 H949 0.956 . S
C937 H950 0.961 . S
C937 H951 0.961 . S
C938 C935 1.539 . S
C938 H952 0.958 . S
C938 H953 0.961 . S
C938 H954 0.960 . S
H939 C923 0.931 . S
H940 C928 0.929 . S
H941 C929 0.960 . S
H942 C929 0.962 . S
H943 C929 0.960 . S
H944 C930 0.961 . S
H945 C930 0.961 . S
H946 C930 0.961 . S
H947 C931 0.931 . S
H948 C936 0.930 . S
H949 C937 0.956 . S
H950 C937 0.961 . S
H951 C937 0.961 . S
H952 C938 0.958 . S
H953 C938 0.961 . S
H954 C938 0.960 . S
C955 C956 1.391 . S
C955 C957 1.394 . S
C955 H971 0.931 . S
C956 C955 1.391 . S
C956 C960 1.376 . S
C957 C955 1.394 . S
C957 C958 1.369 . S
C957 C961 1.531 . S
C958 C957 1.369 . S
C958 C959 1.410 . S
C958 C966 1.503 . S
C959 C958 1.410 . S
C959 C960 1.392 . S
C959 C962 1.511 . S
C960 C956 1.376 . S
C960 C959 1.392 . S
C960 H972 0.929 . S
C961 C957 1.531 . S
C961 H973 0.960 . S
C961 H974 0.962 . S
C961 H975 0.960 . S
C962 C959 1.511 . S
C962 H976 0.961 . S
C962 H977 0.961 . S
C962 H978 0.961 . S
C963 C964 1.370 . S
C963 C965 1.363 . S
C963 H979 0.931 . S
C964 C963 1.370 . S
C964 C968 1.408 . S
C965 C963 1.363 . S
C965 C966 1.370 . S
C965 C969 1.524 . S
C966 C958 1.503 . S
C966 C965 1.370 . S
C966 C967 1.403 . S
C967 C966 1.403 . S
C967 C968 1.404 . S
C967 C970 1.539 . S
C968 C964 1.408 . S
C968 C967 1.404 . S
C968 H980 0.930 . S
C969 C965 1.524 . S
C969 H981 0.956 . S
C969 H982 0.961 . S
C969 H983 0.961 . S
C970 C967 1.539 . S
C970 H984 0.958 . S
C970 H985 0.961 . S
C970 H986 0.960 . S
H971 C955 0.931 . S
H972 C960 0.929 . S
H973 C961 0.960 . S
H974 C961 0.962 . S
H975 C961 0.960 . S
H976 C962 0.961 . S
H977 C962 0.961 . S
H978 C962 0.961 . S
H979 C963 0.931 . S
H980 C968 0.930 . S
H981 C969 0.956 . S
H982 C969 0.961 . S
H983 C969 0.961 . S
H984 C970 0.958 . S
H985 C970 0.961 . S
H986 C970 0.960 . S
C987 C988 1.391 . S
C987 C989 1.394 . S
C987 H1003 0.931 . S
C988 C987 1.391 . S
C988 C992 1.376 . S
C989 C987 1.394 . S
C989 C990 1.369 . S
C989 C993 1.531 . S
C990 C989 1.369 . S
C990 C991 1.410 . S
C990 C998 1.503 . S
C991 C990 1.410 . S
C991 C992 1.392 . S
C991 C994 1.511 . S
C992 C988 1.376 . S
C992 C991 1.392 . S
C992 H1004 0.929 . S
C993 C989 1.531 . S
C993 H1005 0.960 . S
C993 H1006 0.962 . S
C993 H1007 0.960 . S
C994 C991 1.511 . S
C994 H1008 0.961 . S
C994 H1009 0.961 . S
C994 H1010 0.961 . S
C995 C996 1.370 . S
C995 C997 1.363 . S
C995 H1011 0.931 . S
C996 C995 1.370 . S
C996 C1000 1.408 . S
C997 C995 1.363 . S
C997 C998 1.370 . S
C997 C1001 1.524 . S
C998 C990 1.503 . S
C998 C997 1.370 . S
C998 C999 1.403 . S
C999 C998 1.403 . S
C999 C1000 1.404 . S
C999 C1002 1.539 . S
C1000 C996 1.408 . S
C1000 C999 1.404 . S
C1000 H1012 0.930 . S
C1001 C997 1.524 . S
C1001 H1013 0.956 . S
C1001 H1014 0.961 . S
C1001 H1015 0.961 . S
C1002 C999 1.539 . S
C1002 H1016 0.958 . S
C1002 H1017 0.961 . S
C1002 H1018 0.960 . S
H1003 C987 0.931 . S
H1004 C992 0.929 . S
H1005 C993 0.960 . S
H1006 C993 0.962 . S
H1007 C993 0.960 . S
H1008 C994 0.961 . S
H1009 C994 0.961 . S
H1010 C994 0.961 . S
H1011 C995 0.931 . S
H1012 C1000 0.930 . S
H1013 C1001 0.956 . S
H1014 C1001 0.961 . S
H1015 C1001 0.961 . S
H1016 C1002 0.958 . S
H1017 C1002 0.961 . S
H1018 C1002 0.960 . S
C1019 C1020 1.391 . S
C1019 C1021 1.394 . S
C1019 H1035 0.931 . S
C1020 C1019 1.391 . S
C1020 C1024 1.376 . S
C1021 C1019 1.394 . S
C1021 C1022 1.369 . S
C1021 C1025 1.531 . S
C1022 C1021 1.369 . S
C1022 C1023 1.410 . S
C1022 C1030 1.503 . S
C1023 C1022 1.410 . S
C1023 C1024 1.392 . S
C1023 C1026 1.511 . S
C1024 C1020 1.376 . S
C1024 C1023 1.392 . S
C1024 H1036 0.929 . S
C1025 C1021 1.531 . S
C1025 H1037 0.960 . S
C1025 H1038 0.962 . S
C1025 H1039 0.960 . S
C1026 C1023 1.511 . S
C1026 H1040 0.961 . S
C1026 H1041 0.961 . S
C1026 H1042 0.961 . S
C1027 C1028 1.370 . S
C1027 C1029 1.363 . S
C1027 H1043 0.931 . S
C1028 C1027 1.370 . S
C1028 C1032 1.408 . S
C1029 C1027 1.363 . S
C1029 C1030 1.370 . S
C1029 C1033 1.524 . S
C1030 C1022 1.503 . S
C1030 C1029 1.370 . S
C1030 C1031 1.403 . S
C1031 C1030 1.403 . S
C1031 C1032 1.404 . S
C1031 C1034 1.539 . S
C1032 C1028 1.408 . S
C1032 C1031 1.404 . S
C1032 H1044 0.930 . S
C1033 C1029 1.524 . S
C1033 H1045 0.956 . S
C1033 H1046 0.961 . S
C1033 H1047 0.961 . S
C1034 C1031 1.539 . S
C1034 H1048 0.958 . S
C1034 H1049 0.961 . S
C1034 H1050 0.960 . S
H1035 C1019 0.931 . S
H1036 C1024 0.929 . S
H1037 C1025 0.960 . S
H1038 C1025 0.962 . S
H1039 C1025 0.960 . S
H1040 C1026 0.961 . S
H1041 C1026 0.961 . S
H1042 C1026 0.961 . S
H1043 C1027 0.931 . S
H1044 C1032 0.930 . S
H1045 C1033 0.956 . S
H1046 C1033 0.961 . S
H1047 C1033 0.961 . S
H1048 C1034 0.958 . S
H1049 C1034 0.961 . S
H1050 C1034 0.960 . S
C1051 C1052 1.391 . S
C1051 C1053 1.394 . S
C1051 H1067 0.931 . S
C1052 C1051 1.391 . S
C1052 C1056 1.376 . S
C1053 C1051 1.394 . S
C1053 C1054 1.369 . S
C1053 C1057 1.531 . S
C1054 C1053 1.369 . S
C1054 C1055 1.410 . S
C1054 C1062 1.503 . S
C1055 C1054 1.410 . S
C1055 C1056 1.392 . S
C1055 C1058 1.511 . S
C1056 C1052 1.376 . S
C1056 C1055 1.392 . S
C1056 H1068 0.929 . S
C1057 C1053 1.531 . S
C1057 H1069 0.960 . S
C1057 H1070 0.962 . S
C1057 H1071 0.960 . S
C1058 C1055 1.511 . S
C1058 H1072 0.961 . S
C1058 H1073 0.961 . S
C1058 H1074 0.961 . S
C1059 C1060 1.370 . S
C1059 C1061 1.363 . S
C1059 H1075 0.931 . S
C1060 C1059 1.370 . S
C1060 C1064 1.408 . S
C1061 C1059 1.363 . S
C1061 C1062 1.370 . S
C1061 C1065 1.524 . S
C1062 C1054 1.503 . S
C1062 C1061 1.370 . S
C1062 C1063 1.403 . S
C1063 C1062 1.403 . S
C1063 C1064 1.404 . S
C1063 C1066 1.539 . S
C1064 C1060 1.408 . S
C1064 C1063 1.404 . S
C1064 H1076 0.930 . S
C1065 C1061 1.524 . S
C1065 H1077 0.956 . S
C1065 H1078 0.961 . S
C1065 H1079 0.961 . S
C1066 C1063 1.539 . S
C1066 H1080 0.958 . S
C1066 H1081 0.961 . S
C1066 H1082 0.960 . S
H1067 C1051 0.931 . S
H1068 C1056 0.929 . S
H1069 C1057 0.960 . S
H1070 C1057 0.962 . S
H1071 C1057 0.960 . S
H1072 C1058 0.961 . S
H1073 C1058 0.961 . S
H1074 C1058 0.961 . S
H1075 C1059 0.931 . S
H1076 C1064 0.930 . S
H1077 C1065 0.956 . S
H1078 C1065 0.961 . S
H1079 C1065 0.961 . S
H1080 C1066 0.958 . S
H1081 C1066 0.961 . S
H1082 C1066 0.960 . S
C1083 C1084 1.391 . S
C1083 C1085 1.394 . S
C1083 H1099 0.931 . S
C1084 C1083 1.391 . S
C1084 C1088 1.376 . S
C1085 C1083 1.394 . S
C1085 C1086 1.369 . S
C1085 C1089 1.531 . S
C1086 C1085 1.369 . S
C1086 C1087 1.410 . S
C1086 C1094 1.503 . S
C1087 C1086 1.410 . S
C1087 C1088 1.392 . S
C1087 C1090 1.511 . S
C1088 C1084 1.376 . S
C1088 C1087 1.392 . S
C1088 H1100 0.929 . S
C1089 C1085 1.531 . S
C1089 H1101 0.960 . S
C1089 H1102 0.962 . S
C1089 H1103 0.960 . S
C1090 C1087 1.511 . S
C1090 H1104 0.961 . S
C1090 H1105 0.961 . S
C1090 H1106 0.961 . S
C1091 C1092 1.370 . S
C1091 C1093 1.363 . S
C1091 H1107 0.931 . S
C1092 C1091 1.370 . S
C1092 C1096 1.408 . S
C1093 C1091 1.363 . S
C1093 C1094 1.370 . S
C1093 C1097 1.524 . S
C1094 C1086 1.503 . S
C1094 C1093 1.370 . S
C1094 C1095 1.403 . S
C1095 C1094 1.403 . S
C1095 C1096 1.404 . S
C1095 C1098 1.539 . S
C1096 C1092 1.408 . S
C1096 C1095 1.404 . S
C1096 H1108 0.930 . S
C1097 C1093 1.524 . S
C1097 H1109 0.956 . S
C1097 H1110 0.961 . S
C1097 H1111 0.961 . S
C1098 C1095 1.539 . S
C1098 H1112 0.958 . S
C1098 H1113 0.961 . S
C1098 H1114 0.960 . S
H1099 C1083 0.931 . S
H1100 C1088 0.929 . S
H1101 C1089 0.960 . S
H1102 C1089 0.962 . S
H1103 C1089 0.960 . S
H1104 C1090 0.961 . S
H1105 C1090 0.961 . S
H1106 C1090 0.961 . S
H1107 C1091 0.931 . S
H1108 C1096 0.930 . S
H1109 C1097 0.956 . S
H1110 C1097 0.961 . S
H1111 C1097 0.961 . S
H1112 C1098 0.958 . S
H1113 C1098 0.961 . S
H1114 C1098 0.960 . S
C1115 C1116 1.391 . S
C1115 C1117 1.394 . S
C1115 H1131 0.931 . S
C1116 C1115 1.391 . S
C1116 C1120 1.376 . S
C1117 C1115 1.394 . S
C1117 C1118 1.369 . S
C1117 C1121 1.531 . S
C1118 C1117 1.369 . S
C1118 C1119 1.410 . S
C1118 C1126 1.503 . S
C1119 C1118 1.410 . S
C1119 C1120 1.392 . S
C1119 C1122 1.511 . S
C1120 C1116 1.376 . S
C1120 C1119 1.392 . S
C1120 H1132 0.929 . S
C1121 C1117 1.531 . S
C1121 H1133 0.960 . S
C1121 H1134 0.962 . S
C1121 H1135 0.960 . S
C1122 C1119 1.511 . S
C1122 H1136 0.961 . S
C1122 H1137 0.961 . S
C1122 H1138 0.961 . S
C1123 C1124 1.370 . S
C1123 C1125 1.363 . S
C1123 H1139 0.931 . S
C1124 C1123 1.370 . S
C1124 C1128 1.408 . S
C1125 C1123 1.363 . S
C1125 C1126 1.370 . S
C1125 C1129 1.524 . S
C1126 C1118 1.503 . S
C1126 C1125 1.370 . S
C1126 C1127 1.403 . S
C1127 C1126 1.403 . S
C1127 C1128 1.404 . S
C1127 C1130 1.539 . S
C1128 C1124 1.408 . S
C1128 C1127 1.404 . S
C1128 H1140 0.930 . S
C1129 C1125 1.524 . S
C1129 H1141 0.956 . S
C1129 H1142 0.961 . S
C1129 H1143 0.961 . S
C1130 C1127 1.539 . S
C1130 H1144 0.958 . S
C1130 H1145 0.961 . S
C1130 H1146 0.960 . S
H1131 C1115 0.931 . S
H1132 C1120 0.929 . S
H1133 C1121 0.960 . S
H1134 C1121 0.962 . S
H1135 C1121 0.960 . S
H1136 C1122 0.961 . S
H1137 C1122 0.961 . S
H1138 C1122 0.961 . S
H1139 C1123 0.931 . S
H1140 C1128 0.930 . S
H1141 C1129 0.956 . S
H1142 C1129 0.961 . S
H1143 C1129 0.961 . S
H1144 C1130 0.958 . S
H1145 C1130 0.961 . S
H1146 C1130 0.960 . S
C1147 C1148 1.391 . S
C1147 C1149 1.394 . S
C1147 H1163 0.931 . S
C1148 C1147 1.391 . S
C1148 C1152 1.376 . S
C1149 C1147 1.394 . S
C1149 C1150 1.369 . S
C1149 C1153 1.531 . S
C1150 C1149 1.369 . S
C1150 C1151 1.410 . S
C1150 C1158 1.503 . S
C1151 C1150 1.410 . S
C1151 C1152 1.392 . S
C1151 C1154 1.511 . S
C1152 C1148 1.376 . S
C1152 C1151 1.392 . S
C1152 H1164 0.929 . S
C1153 C1149 1.531 . S
C1153 H1165 0.960 . S
C1153 H1166 0.962 . S
C1153 H1167 0.960 . S
C1154 C1151 1.511 . S
C1154 H1168 0.961 . S
C1154 H1169 0.961 . S
C1154 H1170 0.961 . S
C1155 C1156 1.370 . S
C1155 C1157 1.363 . S
C1155 H1171 0.931 . S
C1156 C1155 1.370 . S
C1156 C1160 1.408 . S
C1157 C1155 1.363 . S
C1157 C1158 1.370 . S
C1157 C1161 1.524 . S
C1158 C1150 1.503 . S
C1158 C1157 1.370 . S
C1158 C1159 1.403 . S
C1159 C1158 1.403 . S
C1159 C1160 1.404 . S
C1159 C1162 1.539 . S
C1160 C1156 1.408 . S
C1160 C1159 1.404 . S
C1160 H1172 0.930 . S
C1161 C1157 1.524 . S
C1161 H1173 0.956 . S
C1161 H1174 0.961 . S
C1161 H1175 0.961 . S
C1162 C1159 1.539 . S
C1162 H1176 0.958 . S
C1162 H1177 0.961 . S
C1162 H1178 0.960 . S
H1163 C1147 0.931 . S
H1164 C1152 0.929 . S
H1165 C1153 0.960 . S
H1166 C1153 0.962 . S
H1167 C1153 0.960 . S
H1168 C1154 0.961 . S
H1169 C1154 0.961 . S
H1170 C1154 0.961 . S
H1171 C1155 0.931 . S
H1172 C1160 0.930 . S
H1173 C1161 0.956 . S
H1174 C1161 0.961 . S
H1175 C1161 0.961 . S
H1176 C1162 0.958 . S
H1177 C1162 0.961 . S
H1178 C1162 0.960 . S
C420 C336 1.094 . S
C412 C16 1.132 . S
C452 C372 1.663 . S
C444 C55 1.768 . S
C484 C337 1.405 . S
C476 C99 1.383 . S
C516 C367 1.510 . S
C508 C133 1.532 . S
C548 C334 1.518 . S
C540 C157 1.555 . S
C572 C211 1.675 . S
C580 C370 1.699 . S
C604 C255 1.165 . S
C612 C339 1.102 . S
C644 C369 1.463 . S
C636 C294 1.487 . S
C676 C373 1.464 . S
C668 C21 1.487 . S
C708 C338 1.513 . S
C700 C40 1.561 . S
C740 C366 1.709 . S
C732 C94 1.690 . S
C772 C335 1.101 . S
C764 C138 1.175 . S
C804 C368 1.668 . S
C796 C172 1.775 . S
C828 C216 1.417 . S
C836 C333 1.408 . S
C860 C235 1.565 . S
C868 C371 1.535 . S
C900 C340 1.084 . S
C892 C289 1.136 . S
C932 C402 1.687 . S
C924 C1 1.775 . S
C956 C177 2.015 . S
C964 C405 1.909 . S
C996 C404 1.702 . S
C988 C196 1.754 . S
C1020 C250 2.052 . S
C1028 C403 2.055 . S
C1060 C406 1.699 . S
C1052 C274 1.781 . S
C1084 C79 1.715 . S
C1092 C400 1.687 . S
C1124 C399 2.071 . S
C1116 C118 2.061 . S
C1148 C60 2.019 . S
C1156 C401 1.926 . S
