# Generated by pormake.
# Topology ctn, (3,4)-cn, num edge types: 1
# Building blocks:
#     Node 0, Type 0, BuildingBlock: QEWDON_clean_linker_0, # of connection points: 3
#     Node 1, Type 0, BuildingBlock: QEWDON_clean_linker_0, # of connection points: 3
#     Node 2, Type 0, BuildingBlock: QEWDON_clean_linker_0, # of connection points: 3
#     Node 3, Type 0, BuildingBlock: QEWDON_clean_linker_0, # of connection points: 3
#     Node 4, Type 0, BuildingBlock: QEWDON_clean_linker_0, # of connection points: 3
#     Node 5, Type 0, BuildingBlock: QEWDON_clean_linker_0, # of connection points: 3
#     Node 6, Type 0, BuildingBlock: QEWDON_clean_linker_0, # of connection points: 3
#     Node 7, Type 0, BuildingBlock: QEWDON_clean_linker_0, # of connection points: 3
#     Node 8, Type 0, BuildingBlock: QEWDON_clean_linker_0, # of connection points: 3
#     Node 9, Type 0, BuildingBlock: QEWDON_clean_linker_0, # of connection points: 3
#     Node 10, Type 0, BuildingBlock: QEWDON_clean_linker_0, # of connection points: 3
#     Node 11, Type 0, BuildingBlock: QEWDON_clean_linker_0, # of connection points: 3
#     Node 12, Type 0, BuildingBlock: QEWDON_clean_linker_0, # of connection points: 3
#     Node 13, Type 0, BuildingBlock: QEWDON_clean_linker_0, # of connection points: 3
#     Node 14, Type 0, BuildingBlock: QEWDON_clean_linker_0, # of connection points: 3
#     Node 15, Type 0, BuildingBlock: QEWDON_clean_linker_0, # of connection points: 3
#     Node 16, Type 1, BuildingBlock: NAHDIM_clean_sbu_0, # of connection points: 4
#     Node 17, Type 1, BuildingBlock: NAHDIM_clean_sbu_0, # of connection points: 4
#     Node 18, Type 1, BuildingBlock: NAHDIM_clean_sbu_0, # of connection points: 4
#     Node 19, Type 1, BuildingBlock: NAHDIM_clean_sbu_0, # of connection points: 4
#     Node 20, Type 1, BuildingBlock: NAHDIM_clean_sbu_0, # of connection points: 4
#     Node 21, Type 1, BuildingBlock: NAHDIM_clean_sbu_0, # of connection points: 4
#     Node 22, Type 1, BuildingBlock: NAHDIM_clean_sbu_0, # of connection points: 4
#     Node 23, Type 1, BuildingBlock: NAHDIM_clean_sbu_0, # of connection points: 4
#     Node 24, Type 1, BuildingBlock: NAHDIM_clean_sbu_0, # of connection points: 4
#     Node 25, Type 1, BuildingBlock: NAHDIM_clean_sbu_0, # of connection points: 4
#     Node 26, Type 1, BuildingBlock: NAHDIM_clean_sbu_0, # of connection points: 4
#     Node 27, Type 1, BuildingBlock: NAHDIM_clean_sbu_0, # of connection points: 4
#     Edge 28, Type (0, 1), None
#     Edge 29, Type (0, 1), None
#     Edge 30, Type (0, 1), None
#     Edge 31, Type (0, 1), None
#     Edge 32, Type (0, 1), None
#     Edge 33, Type (0, 1), None
#     Edge 34, Type (0, 1), None
#     Edge 35, Type (0, 1), None
#     Edge 36, Type (0, 1), None
#     Edge 37, Type (0, 1), None
#     Edge 38, Type (0, 1), None
#     Edge 39, Type (0, 1), None
#     Edge 40, Type (0, 1), None
#     Edge 41, Type (0, 1), None
#     Edge 42, Type (0, 1), None
#     Edge 43, Type (0, 1), None
#     Edge 44, Type (0, 1), None
#     Edge 45, Type (0, 1), None
#     Edge 46, Type (0, 1), None
#     Edge 47, Type (0, 1), None
#     Edge 48, Type (0, 1), None
#     Edge 49, Type (0, 1), None
#     Edge 50, Type (0, 1), None
#     Edge 51, Type (0, 1), None
#     Edge 52, Type (0, 1), None
#     Edge 53, Type (0, 1), None
#     Edge 54, Type (0, 1), None
#     Edge 55, Type (0, 1), None
#     Edge 56, Type (0, 1), None
#     Edge 57, Type (0, 1), None
#     Edge 58, Type (0, 1), None
#     Edge 59, Type (0, 1), None
#     Edge 60, Type (0, 1), None
#     Edge 61, Type (0, 1), None
#     Edge 62, Type (0, 1), None
#     Edge 63, Type (0, 1), None
#     Edge 64, Type (0, 1), None
#     Edge 65, Type (0, 1), None
#     Edge 66, Type (0, 1), None
#     Edge 67, Type (0, 1), None
#     Edge 68, Type (0, 1), None
#     Edge 69, Type (0, 1), None
#     Edge 70, Type (0, 1), None
#     Edge 71, Type (0, 1), None
#     Edge 72, Type (0, 1), None
#     Edge 73, Type (0, 1), None
#     Edge 74, Type (0, 1), None
#     Edge 75, Type (0, 1), None
# Relax obj value: 0.133
# Max RMSD: 0.270
# Mean RMSD: 0.151
data_MOF--net-ctn--node1-NAHDIM_clean_sbu_0--node2-QEWDON_clean_linker_0--edge1-none
_symmetry_space_group_name_H-M    P1
_symmetry_Int_Tables_number       1
_symmetry_cell_setting            triclinic
loop_
_symmetry_equiv_pos_as_xyz
'x, y, z'
_cell_length_a     22.842281
_cell_length_b     24.675492
_cell_length_c     26.86649
_cell_angle_alpha  103.23586
_cell_angle_beta   92.225011
_cell_angle_gamma 99.05197
loop_
_atom_site_label
_atom_site_type_symbol
_atom_site_fract_x
_atom_site_fract_y
_atom_site_fract_z
_atom_type_partial_charge
H0 H 0.15423 0.0154 0.04175 0.0
C1 C 0.12803 0.01277 0.07417 0.0
C2 C 0.12491 0.96543 0.09543 0.0
C3 C 0.09979 0.05821 0.09614 0.0
H4 H 0.08943 0.92796 0.1557 0.0
C5 C 0.09181 0.96391 0.13862 0.0
C6 C 0.06282 1.00907 0.16062 0.0
C7 C 0.06701 0.05574 0.13884 0.0
C8 C 0.10515 0.10941 0.07572 0.0
H9 H 0.04475 0.09064 0.15523 0.0
C10 C 0.09398 0.105 0.02303 0.0
C11 C 0.09418 0.15383 0.0045 0.0
C12 C 0.11862 0.16318 0.10952 0.0
H13 H 0.12813 0.16763 0.15022 0.0
C14 C 0.11969 0.21172 0.09117 0.0
H15 H 0.08303 0.06364 0.99687 0.0
C16 C 0.10706 0.20721 0.03907 0.0
H17 H 0.10794 0.24561 0.02582 0.0
H18 H 0.12996 0.25296 0.11746 0.0
H19 H 0.42143 0.75779 0.2553 0.0
C20 C 0.38812 0.72138 0.25573 0.0
C21 C 0.40451 0.67439 0.27038 0.0
C22 C 0.32846 0.72343 0.24464 0.0
H23 H 0.37286 0.59165 0.28274 0.0
C24 C 0.36031 0.62814 0.27182 0.0
C25 C 0.30019 0.62884 0.2581 0.0
C26 C 0.28483 0.67728 0.24562 0.0
C27 C 0.31109 0.77407 0.23243 0.0
H28 H 0.23877 0.67917 0.23597 0.0
C29 C 0.3294 0.7906 0.18807 0.0
C30 C 0.30702 0.8348 0.17335 0.0
C31 C 0.27278 0.80368 0.26337 0.0
H32 H 0.25839 0.79131 0.29773 0.0
C33 C 0.25231 0.84904 0.24981 0.0
H34 H 0.35778 0.7668 0.16351 0.0
C35 C 0.26866 0.86414 0.2047 0.0
H36 H 0.25081 0.8984 0.19398 0.0
H37 H 0.22264 0.87171 0.27366 0.0
H38 H 0.08421 0.48022 0.04737 0.0
C39 C 0.05198 0.50784 0.04591 0.0
C40 C 0.03904 0.54337 0.09125 0.0
C41 C 0.02441 0.50845 0.99839 0.0
H42 H 0.98579 0.60598 0.12348 0.0
C43 C 0.99689 0.57904 0.08853 0.0
C44 C 0.96805 0.5793 0.04117 0.0
C45 C 0.98304 0.54443 0.99624 0.0
C46 C 0.03659 0.46935 0.95104 0.0
H47 H 0.96084 0.5435 0.95957 0.0
C48 C 0.03369 0.41185 0.94973 0.0
C49 C 0.04424 0.37383 0.90493 0.0
C50 C 0.04973 0.48877 0.90684 0.0
H51 H 0.05214 0.53302 0.90706 0.0
C52 C 0.06055 0.45116 0.86216 0.0
H53 H 0.02273 0.39677 0.98366 0.0
C54 C 0.058 0.39398 0.86111 0.0
H55 H 0.06638 0.36558 0.82595 0.0
H56 H 0.07093 0.46634 0.82826 0.0
H57 H 0.847 0.86255 0.27462 0.0
C58 C 0.84791 0.84263 0.23433 0.0
C59 C 0.86506 0.87549 0.19921 0.0
C60 C 0.83128 0.78383 0.21737 0.0
H61 H 0.87776 0.87322 0.11924 0.0
C62 C 0.86452 0.84852 0.14673 0.0
C63 C 0.84739 0.78959 0.12964 0.0
C64 C 0.83127 0.75779 0.16551 0.0
C65 C 0.80744 0.74906 0.25202 0.0
H66 H 0.81752 0.71234 0.15315 0.0
C67 C 0.74862 0.74898 0.26448 0.0
C68 C 0.72119 0.71046 0.29121 0.0
C69 C 0.83965 0.71057 0.26662 0.0
H70 H 0.88483 0.7093 0.25614 0.0
C71 C 0.8131 0.67278 0.29409 0.0
H72 H 0.72387 0.77818 0.25195 0.0
C73 C 0.75403 0.67241 0.3062 0.0
H74 H 0.7343 0.64267 0.32739 0.0
H75 H 0.83815 0.64333 0.30557 0.0
H76 H 0.17763 1.01018 0.50755 0.0
C77 C 0.14026 0.01456 0.48354 0.0
C78 C 0.14419 0.06025 0.45967 0.0
C79 C 0.08839 0.97347 0.47509 0.0
H80 H 0.09913 0.09733 0.40701 0.0
C81 C 0.09596 0.06338 0.42673 0.0
C82 C 0.04455 0.02179 0.4174 0.0
C83 C 0.04075 0.97788 0.44273 0.0
C84 C 0.08571 0.92048 0.4922 0.0
H85 H 1.00192 0.94478 0.43497 0.0
C86 C 0.06855 0.91646 0.54125 0.0
C87 C 0.05421 0.86295 0.55227 0.0
C88 C 0.09086 0.87127 0.45538 0.0
H89 H 0.10328 0.87364 0.41731 0.0
C90 C 0.0775 0.81852 0.46649 0.0
H91 H 0.06393 0.95424 0.56967 0.0
C92 C 0.05848 0.81424 0.51428 0.0
H93 H 0.04813 0.77269 0.52181 0.0
H94 H 0.08094 0.78074 0.43768 0.0
H95 H 0.32664 0.66145 0.77275 0.0
C96 C 0.31997 0.68394 0.81121 0.0
C97 C 0.3473 0.67105 0.85375 0.0
C98 C 0.28392 0.72575 0.81769 0.0
H99 H 0.36014 0.69299 0.93674 0.0
C100 C 0.33828 0.70152 0.90354 0.0
C101 C 0.30187 0.74368 0.9106 0.0
C102 C 0.27437 0.75465 0.86725 0.0
C103 C 0.25776 0.74099 0.77263 0.0
H104 H 0.24769 0.78787 0.87187 0.0
C105 C 0.19775 0.7473 0.76995 0.0
C106 C 0.17275 0.76271 0.72776 0.0
C107 C 0.29292 0.75047 0.73269 0.0
H108 H 0.33948 0.74651 0.73421 0.0
C109 C 0.2685 0.76629 0.69089 0.0
H110 H 0.17038 0.73918 0.80039 0.0
C111 C 0.20882 0.7724 0.68831 0.0
H112 H 0.19091 0.78428 0.6552 0.0
H113 H 0.29589 0.7738 0.66036 0.0
H114 H 1.00704 0.63726 0.48742 0.0
C115 C 0.97808 0.60559 0.50129 0.0
C116 C 0.96867 0.6145 0.55361 0.0
C117 C 0.9463 0.55844 0.46602 0.0
H118 H 0.92105 0.58154 0.61118 0.0
C119 C 0.92882 0.57443 0.57083 0.0
C120 C 0.89878 0.52554 0.53595 0.0
C121 C 0.9076 0.51817 0.4835 0.0
C122 C 0.94947 0.55389 0.41055 0.0
H123 H 0.88312 0.48183 0.45576 0.0
C124 C 1.00425 0.55411 0.3886 0.0
C125 C 1.00703 0.54998 0.33571 0.0
C126 C 0.89742 0.55027 0.37957 0.0
H127 H 0.85483 0.55041 0.39597 0.0
C128 C 0.90008 0.54737 0.32731 0.0
H129 H 0.04422 0.55625 0.41258 0.0
C130 C 0.95446 0.54735 0.30542 0.0
H131 H 0.95502 0.54414 0.26455 0.0
H132 H 0.85983 0.54467 0.30361 0.0
H133 H 0.85288 0.82267 0.76271 0.0
C134 C 0.85107 0.79513 0.78887 0.0
C135 C 0.89278 0.75856 0.78616 0.0
C136 C 0.80696 0.79538 0.8243 0.0
H137 H 0.9258 0.69687 0.81991 0.0
C138 C 0.89279 0.72416 0.82127 0.0
C139 C 0.85115 0.72499 0.85835 0.0
C140 C 0.80748 0.75936 0.85853 0.0
C141 C 0.7607 0.83299 0.82599 0.0
H142 H 0.77337 0.75699 0.88513 0.0
C143 C 0.74332 0.85229 0.78258 0.0
C144 C 0.70051 0.88828 0.78544 0.0
C145 C 0.73384 0.85078 0.87198 0.0
H146 H 0.74719 0.84003 0.90704 0.0
C147 C 0.68967 0.884 0.87419 0.0
H148 H 0.76283 0.83981 0.74658 0.0
C149 C 0.67288 0.9024 0.83143 0.0
H150 H 0.63952 0.92946 0.83519 0.0
H151 H 0.66921 0.89668 0.90973 0.0
H152 H 0.35282 0.32266 0.2627 0.0
C153 C 0.35101 0.29512 0.28886 0.0
C154 C 0.39272 0.25853 0.28614 0.0
C155 C 0.30692 0.29538 0.32431 0.0
H156 H 0.42572 0.19683 0.31986 0.0
C157 C 0.39273 0.22413 0.32125 0.0
C158 C 0.35111 0.22498 0.35834 0.0
C159 C 0.30745 0.25937 0.35854 0.0
C160 C 0.26067 0.333 0.32601 0.0
H161 H 0.27336 0.25701 0.38515 0.0
C162 C 0.24328 0.3523 0.28259 0.0
C163 C 0.20048 0.38829 0.28546 0.0
C164 C 0.23382 0.3508 0.372 0.0
H165 H 0.24719 0.34005 0.40706 0.0
C166 C 0.18966 0.38403 0.37421 0.0
H167 H 0.26277 0.33981 0.24659 0.0
C168 C 0.17286 0.40242 0.33145 0.0
H169 H 0.1395 0.42949 0.33522 0.0
H170 H 0.16921 0.39671 0.40976 0.0
H171 H 0.58421 0.98021 0.54736 0.0
C172 C 0.55198 1.00782 0.5459 0.0
C173 C 0.53904 0.04336 0.59125 0.0
C174 C 0.52441 1.00844 0.49838 0.0
H175 H 0.4858 0.10597 0.62348 0.0
C176 C 0.49689 0.07903 0.58853 0.0
C177 C 0.46806 0.07929 0.54116 0.0
C178 C 0.48304 0.04442 0.49623 0.0
C179 C 0.53658 0.96933 0.45103 0.0
H180 H 0.46083 0.0435 0.45956 0.0
C181 C 0.53368 0.91184 0.44973 0.0
C182 C 0.54423 0.87381 0.40492 0.0
C183 C 0.54971 0.98875 0.40683 0.0
H184 H 0.55212 0.03301 0.40705 0.0
C185 C 0.56053 0.95114 0.36215 0.0
H186 H 0.52273 0.89676 0.48366 0.0
C187 C 0.55798 0.89396 0.3611 0.0
H188 H 0.56635 0.86556 0.32593 0.0
H189 H 0.5709 0.96632 0.32824 0.0
H190 H 0.34699 0.36255 0.77463 0.0
C191 C 0.3479 0.34262 0.73434 0.0
C192 C 0.36505 0.3755 0.69922 0.0
C193 C 0.33129 0.28383 0.71738 0.0
H194 H 0.37775 0.37323 0.61925 0.0
C195 C 0.36451 0.34852 0.64674 0.0
C196 C 0.34739 0.28959 0.62965 0.0
C197 C 0.33128 0.25778 0.66551 0.0
C198 C 0.30745 0.24906 0.75203 0.0
H199 H 0.31754 0.21234 0.65316 0.0
C200 C 0.24863 0.24898 0.76449 0.0
C201 C 0.22119 0.21046 0.79122 0.0
C202 C 0.33965 0.21056 0.76661 0.0
H203 H 0.38483 0.20928 0.75613 0.0
C204 C 0.3131 0.17276 0.79408 0.0
H205 H 0.22389 0.27819 0.75197 0.0
C206 C 0.25403 0.1724 0.8062 0.0
H207 H 0.2343 0.14265 0.82738 0.0
H208 H 0.33814 0.14331 0.80555 0.0
H209 H 0.92143 0.25781 0.7553 0.0
C210 C 0.88813 0.22139 0.75573 0.0
C211 C 0.90453 0.17441 0.77038 0.0
C212 C 0.82847 0.22343 0.74463 0.0
H213 H 0.87288 0.09167 0.78274 0.0
C214 C 0.86033 0.12815 0.77182 0.0
C215 C 0.80021 0.12884 0.75809 0.0
C216 C 0.78485 0.17728 0.74561 0.0
C217 C 0.81109 0.27407 0.73242 0.0
H218 H 0.73878 0.17916 0.73595 0.0
C219 C 0.82939 0.2906 0.68806 0.0
C220 C 0.807 0.33479 0.67333 0.0
C221 C 0.77279 0.30368 0.76337 0.0
H222 H 0.75841 0.29132 0.79773 0.0
C223 C 0.7523 0.34904 0.7498 0.0
H224 H 0.85776 0.2668 0.66349 0.0
C225 C 0.76864 0.36414 0.70469 0.0
H226 H 0.75079 0.39839 0.69398 0.0
H227 H 0.72264 0.37171 0.77366 0.0
H228 H 0.65417 0.51535 0.54173 0.0
C229 C 0.62798 0.51273 0.57415 0.0
C230 C 0.62486 0.46539 0.59542 0.0
C231 C 0.59974 0.55818 0.59613 0.0
H232 H 0.58937 0.42794 0.6557 0.0
C233 C 0.59176 0.46388 0.63861 0.0
C234 C 0.56277 0.50905 0.66061 0.0
C235 C 0.56697 0.55571 0.63883 0.0
C236 C 0.60512 0.60938 0.5757 0.0
H237 H 0.54472 0.59062 0.65522 0.0
C238 C 0.59394 0.60497 0.52301 0.0
C239 C 0.59416 0.6538 0.50449 0.0
C240 C 0.6186 0.66315 0.6095 0.0
H241 H 0.62812 0.66759 0.6502 0.0
C242 C 0.61968 0.71169 0.59116 0.0
H243 H 0.58299 0.56361 0.49686 0.0
C244 C 0.60705 0.70718 0.53906 0.0
H245 H 0.60794 0.74558 0.52581 0.0
H246 H 0.62996 0.75293 0.61744 0.0
H247 H 0.67761 0.51017 0.00754 0.0
C248 C 0.64024 0.51455 0.98354 0.0
C249 C 0.64418 0.56024 0.95966 0.0
C250 C 0.58837 0.47347 0.97509 0.0
H251 H 0.59912 0.59733 0.90701 0.0
C252 C 0.59595 0.56338 0.92673 0.0
C253 C 0.54453 0.52179 0.9174 0.0
C254 C 0.54074 0.47788 0.94273 0.0
C255 C 0.58569 0.42048 0.99219 0.0
H256 H 0.5019 0.44478 0.93497 0.0
C257 C 0.56852 0.41646 0.04125 0.0
C258 C 0.55417 0.36295 0.05227 0.0
C259 C 0.59083 0.37127 0.95538 0.0
H260 H 0.60325 0.37363 0.91731 0.0
C261 C 0.57745 0.31852 0.96649 0.0
H262 H 0.56391 0.45425 0.06967 0.0
C263 C 0.55843 0.31424 0.01427 0.0
H264 H 0.54807 0.27268 0.0218 0.0
H265 H 0.58089 0.28073 0.93768 0.0
H266 H 0.82671 0.16149 0.27274 0.0
C267 C 0.82001 0.18395 0.3112 0.0
C268 C 0.84732 0.17104 0.35374 0.0
C269 C 0.78395 0.22574 0.31768 0.0
H270 H 0.86012 0.19296 0.43674 0.0
C271 C 0.83828 0.2015 0.40353 0.0
C272 C 0.80185 0.24364 0.41059 0.0
C273 C 0.77436 0.25461 0.36724 0.0
C274 C 0.75779 0.24098 0.27262 0.0
H275 H 0.74766 0.28782 0.37186 0.0
C276 C 0.69774 0.24718 0.2699 0.0
C277 C 0.67275 0.26262 0.22773 0.0
C278 C 0.79298 0.25061 0.23275 0.0
H279 H 0.83956 0.24673 0.2343 0.0
C280 C 0.76857 0.26647 0.19097 0.0
H281 H 0.67035 0.23896 0.3003 0.0
C282 C 0.70886 0.27248 0.18835 0.0
H283 H 0.69095 0.28438 0.15525 0.0
H284 H 0.79599 0.27409 0.16049 0.0
H285 H 0.50717 0.13726 0.98746 0.0
C286 C 0.47821 0.1056 1.00133 0.0
C287 C 0.46882 0.1145 0.05365 0.0
C288 C 0.44643 0.05844 0.96606 0.0
H289 H 0.42119 0.08154 0.11122 0.0
C290 C 0.42897 0.07443 0.07087 0.0
C291 C 0.39891 0.02554 0.03599 0.0
C292 C 0.40773 0.01818 0.98354 0.0
C293 C 0.44959 0.0539 0.91059 0.0
H294 H 0.38325 0.98184 0.95579 0.0
C295 C 0.50435 0.05412 0.88862 0.0
C296 C 0.50711 0.04999 0.83573 0.0
C297 C 0.39752 0.0503 0.87962 0.0
H298 H 0.35494 0.05044 0.89604 0.0
C299 C 0.40017 0.0474 0.82736 0.0
H300 H 0.54433 0.05625 0.91258 0.0
C301 C 0.45453 0.04737 0.80545 0.0
H302 H 0.45507 0.04417 0.76459 0.0
H303 H 0.3599 0.04471 0.80367 0.0
C304 C 0.16066 0.92045 0.07612 0.0
O305 O 0.16312 0.88061 0.10084 0.0
O306 O 0.25958 0.81438 0.96865 0.0
Zn307 Zn 0.26563 0.88099 0.03175 0.0
O308 O 0.33497 0.9369 0.02183 0.0
C309 C 0.31807 0.84687 0.12313 0.0
O310 O 0.36946 0.84327 0.10348 0.0
O311 O 0.19557 0.92443 0.04061 0.0
C312 C 0.35536 0.98379 0.05297 0.0
O313 O 0.33342 0.99661 0.09783 0.0
C314 C 0.29689 0.78019 0.96227 0.0
O315 O 0.33661 0.78331 0.99989 0.0
O316 O 0.27584 0.85946 0.09847 0.0
C317 C 0.18797 0.41595 0.24324 0.0
O318 O 0.22257 0.41464 0.2052 0.0
O319 O 0.06425 0.53954 0.26338 0.0
Zn320 Zn 0.13074 0.51568 0.22196 0.0
O321 O 0.2012 0.57902 0.23571 0.0
C322 C 0.06938 0.54404 0.14144 0.0
O323 O 0.0686 0.58702 0.18052 0.0
O324 O 0.15097 0.45009 0.24993 0.0
C325 C 0.2531 0.57932 0.25509 0.0
O326 O 0.26503 0.53479 0.26982 0.0
C327 C 0.06341 0.54457 0.31138 0.0
O328 O 0.11068 0.53839 0.33758 0.0
O329 O 0.09618 0.50407 0.148 0.0
C330 C 0.9202 0.6134 0.03889 0.0
O331 O 0.89998 0.63886 0.08154 0.0
O332 O 0.82254 0.69707 0.9353 0.0
Zn333 Zn 0.82309 0.65414 0.99233 0.0
O334 O 0.7483 0.5944 0.98357 0.0
C335 C 0.84644 0.76007 0.07494 0.0
O336 O 0.87301 0.78545 0.0419 0.0
O337 O 0.8955 0.61525 0.99593 0.0
C338 C 0.69883 0.60367 0.96692 0.0
O339 O 0.69698 0.652 0.95469 0.0
C340 C 0.85362 0.69002 0.8967 0.0
O341 O 0.88961 0.65285 0.89215 0.0
O342 O 0.82259 0.70825 0.06068 0.0
C343 C 0.88612 0.12689 0.34571 0.0
O344 O 0.91219 0.11495 0.38534 0.0
O345 O 1.00747 0.04933 0.34446 0.0
Zn346 Zn 0.94889 0.0403 0.28396 0.0
O347 O 0.90203 0.95995 0.26415 0.0
C348 C 0.0288 1.00819 0.20655 0.0
O349 O 0.02824 0.96641 0.2294 0.0
O350 O 0.89499 0.10069 0.30045 0.0
C351 C 0.88554 0.93735 0.21708 0.0
O352 O 0.89299 0.96856 0.18349 0.0
C353 C 0.99718 0.02084 0.37789 0.0
O354 O 0.94633 0.98615 0.37366 0.0
O355 O 0.99865 0.04699 0.22372 0.0
C356 C 0.42021 0.1134 0.53888 0.0
O357 O 0.39998 0.13886 0.58154 0.0
O358 O 0.32254 0.19708 0.43531 0.0
Zn359 Zn 0.3231 0.15415 0.49233 0.0
O360 O 0.24831 0.09441 0.48358 0.0
C361 C 0.34645 0.26007 0.57495 0.0
O362 O 0.37301 0.28546 0.54191 0.0
O363 O 0.39551 0.11525 0.49593 0.0
C364 C 0.19884 0.10368 0.46693 0.0
O365 O 0.19698 0.15201 0.45469 0.0
C366 C 0.35358 0.19001 0.39669 0.0
O367 O 0.38954 0.15281 0.39211 0.0
O368 O 0.3226 0.20825 0.56068 0.0
C369 C 0.38609 0.62689 0.84572 0.0
O370 O 0.41216 0.61495 0.88534 0.0
O371 O 0.50745 0.54933 0.84446 0.0
Zn372 Zn 0.44886 0.5403 0.78396 0.0
O373 O 0.40201 0.45995 0.76416 0.0
C374 C 0.52877 0.50818 0.70654 0.0
O375 O 0.52821 0.4664 0.7294 0.0
O376 O 0.39496 0.6007 0.80046 0.0
C377 C 0.38551 0.43736 0.71709 0.0
O378 O 0.39295 0.46856 0.6835 0.0
C379 C 0.49716 0.52084 0.87789 0.0
O380 O 0.44632 0.48616 0.87367 0.0
O381 O 0.49862 0.54699 0.72371 0.0
C382 C 0.66059 0.4204 0.57611 0.0
O383 O 0.66307 0.38058 0.60084 0.0
O384 O 0.75953 0.31433 0.46864 0.0
Zn385 Zn 0.76556 0.38095 0.53173 0.0
O386 O 0.83489 0.43687 0.5218 0.0
C387 C 0.81803 0.34685 0.62311 0.0
O388 O 0.86942 0.34328 0.60346 0.0
O389 O 0.69549 0.42437 0.54059 0.0
C390 C 0.85524 0.48378 0.55293 0.0
O391 O 0.83326 0.49661 0.59777 0.0
C392 C 0.79684 0.28014 0.46226 0.0
O393 O 0.83654 0.28325 0.4999 0.0
O394 O 0.77579 0.35942 0.59845 0.0
C395 C 0.68802 0.91594 0.74322 0.0
O396 O 0.72264 0.91465 0.70519 0.0
O397 O 0.5643 0.03953 0.76338 0.0
Zn398 Zn 0.63077 0.01567 0.72194 0.0
O399 O 0.70122 0.079 0.73569 0.0
C400 C 0.56938 0.04403 0.64143 0.0
O401 O 0.5686 0.08701 0.68052 0.0
O402 O 0.651 0.95007 0.7499 0.0
C403 C 0.75312 0.07932 0.75509 0.0
O404 O 0.76505 0.03481 0.76984 0.0
C405 C 0.56348 0.04457 0.81138 0.0
O406 O 0.61076 0.0384 0.83756 0.0
O407 O 0.5962 1.00406 0.64798 0.0
C408 C 0.08113 0.14977 0.94946 0.0
O409 O 0.08657 0.10411 0.91476 0.0
O410 O 0.98064 0.15835 0.82586 0.0
Zn411 Zn 0.05963 0.19889 0.86304 0.0
O412 O 0.06031 0.28111 0.86703 0.0
C413 C 0.15949 0.21246 0.8049 0.0
O414 O 0.13315 0.25321 0.79587 0.0
O415 O 0.06757 0.19219 0.93543 0.0
C416 C 0.04117 0.31352 0.90414 0.0
O417 O 0.01959 0.29304 0.94196 0.0
C418 C 0.96737 0.1771 0.78736 0.0
O419 O 1.00864 0.21093 0.77119 0.0
O420 O 0.13342 0.17878 0.82967 0.0
C421 C 0.5811 0.64974 0.44945 0.0
O422 O 0.58652 0.60408 0.41475 0.0
O423 O 0.48063 0.65833 0.32585 0.0
Zn424 Zn 0.55962 0.69887 0.36303 0.0
O425 O 0.56029 0.7811 0.36702 0.0
C426 C 0.65948 0.71245 0.30489 0.0
O427 O 0.63314 0.7532 0.29586 0.0
O428 O 0.56757 0.69217 0.43542 0.0
C429 C 0.54117 0.8135 0.40414 0.0
O430 O 0.51959 0.79303 0.44196 0.0
C431 C 0.46736 0.67707 0.28735 0.0
O432 O 0.50863 0.7109 0.27118 0.0
O433 O 0.63341 0.67877 0.32965 0.0
C434 C 0.03744 0.85632 0.60339 0.0
O435 O 0.07264 0.88375 0.64413 0.0
O436 O 0.94792 0.79181 0.72101 0.0
Zn437 Zn 0.99993 0.77113 0.66205 0.0
O438 O 0.9684 0.69066 0.62588 0.0
C439 C 0.10881 0.76617 0.72369 0.0
O440 O 0.07459 0.7558 0.75972 0.0
O441 O 0.99947 0.81347 0.60585 0.0
C442 C 0.99618 0.66826 0.5888 0.0
O443 O 0.04522 0.6973 0.57782 0.0
C444 C 0.93452 0.75323 0.74514 0.0
O445 O 0.95611 0.70618 0.73134 0.0
O446 O 0.08605 0.77521 0.68318 0.0
C447 C 0.53741 0.35632 0.10339 0.0
O448 O 0.57259 0.38377 0.14412 0.0
O449 O 0.44792 0.2918 0.22102 0.0
Zn450 Zn 0.49995 0.27114 0.16207 0.0
O451 O 0.46851 0.19066 0.12591 0.0
C452 C 0.60878 0.26597 0.22361 0.0
O453 O 0.57448 0.25516 0.25946 0.0
O454 O 0.49946 0.31347 0.10586 0.0
C455 C 0.49631 0.16827 0.08883 0.0
O456 O 0.54533 0.19733 0.07785 0.0
C457 C 0.43443 0.25318 0.2451 0.0
O458 O 0.45593 0.20609 0.23125 0.0
O459 O 0.58609 0.27534 0.18323 0.0
loop_
_geom_bond_atom_site_label_1
_geom_bond_atom_site_label_2
_geom_bond_distance
_geom_bond_site_symmetry_2
_ccdc_geom_bond_type
H0 C1 0.949 . S
C1 H0 0.949 . S
C1 C2 1.395 1_545 S
C1 C3 1.391 . S
C2 C1 1.395 1_565 S
C2 C5 1.390 . S
C3 C1 1.391 . S
C3 C7 1.387 . S
C3 C8 1.491 . S
H4 C5 0.950 . S
C5 C2 1.390 . S
C5 H4 0.950 . S
C5 C6 1.378 . S
C6 C5 1.378 . S
C6 C7 1.409 1_565 S
C7 C3 1.387 . S
C7 C6 1.409 1_545 S
C7 H9 0.951 . S
C8 C3 1.491 . S
C8 C10 1.382 1_554 S
C8 C12 1.404 . S
H9 C7 0.951 . S
C10 C8 1.382 1_556 S
C10 C11 1.390 . S
C10 H15 0.949 . S
C11 C10 1.390 . S
C11 C16 1.399 . S
C12 C8 1.404 . S
C12 H13 0.950 . S
C12 C14 1.375 . S
H13 C12 0.950 . S
C14 C12 1.375 . S
C14 C16 1.382 1_554 S
C14 H18 0.950 . S
H15 C10 0.949 . S
C16 C11 1.399 . S
C16 C14 1.382 1_556 S
C16 H17 0.952 . S
H17 C16 0.952 . S
H18 C14 0.950 . S
H19 C20 0.949 . S
C20 H19 0.949 . S
C20 C21 1.395 . S
C20 C22 1.391 . S
C21 C20 1.395 . S
C21 C24 1.390 . S
C22 C20 1.391 . S
C22 C26 1.387 . S
C22 C27 1.491 . S
H23 C24 0.950 . S
C24 C21 1.390 . S
C24 H23 0.950 . S
C24 C25 1.378 . S
C25 C24 1.378 . S
C25 C26 1.409 . S
C26 C22 1.387 . S
C26 C25 1.409 . S
C26 H28 0.951 . S
C27 C22 1.491 . S
C27 C29 1.382 . S
C27 C31 1.404 . S
H28 C26 0.951 . S
C29 C27 1.382 . S
C29 C30 1.390 . S
C29 H34 0.949 . S
C30 C29 1.390 . S
C30 C35 1.399 . S
C31 C27 1.404 . S
C31 H32 0.950 . S
C31 C33 1.375 . S
H32 C31 0.950 . S
C33 C31 1.375 . S
C33 C35 1.382 . S
C33 H37 0.950 . S
H34 C29 0.949 . S
C35 C30 1.399 . S
C35 C33 1.382 . S
C35 H36 0.952 . S
H36 C35 0.952 . S
H37 C33 0.950 . S
H38 C39 0.949 . S
C39 H38 0.949 . S
C39 C40 1.395 . S
C39 C41 1.391 1_455 S
C40 C39 1.395 . S
C40 C43 1.390 1_455 S
C41 C39 1.391 1_655 S
C41 C45 1.387 . S
C41 C46 1.491 1_654 S
H42 C43 0.950 . S
C43 C40 1.390 1_655 S
C43 H42 0.950 . S
C43 C44 1.378 . S
C44 C43 1.378 . S
C44 C45 1.409 . S
C45 C41 1.387 . S
C45 C44 1.409 . S
C45 H47 0.951 1_554 S
C46 C41 1.491 1_456 S
C46 C48 1.382 . S
C46 C50 1.404 . S
H47 C45 0.951 1_556 S
C48 C46 1.382 . S
C48 C49 1.390 . S
C48 H53 0.949 1_455 S
C49 C48 1.390 . S
C49 C54 1.399 . S
C50 C46 1.404 . S
C50 H51 0.950 . S
C50 C52 1.375 . S
H51 C50 0.950 . S
C52 C50 1.375 . S
C52 C54 1.382 . S
C52 H56 0.950 . S
H53 C48 0.949 1_655 S
C54 C49 1.399 . S
C54 C52 1.382 . S
C54 H55 0.952 . S
H55 C54 0.952 . S
H56 C52 0.950 . S
H57 C58 0.949 . S
C58 H57 0.949 . S
C58 C59 1.395 . S
C58 C60 1.391 . S
C59 C58 1.395 . S
C59 C62 1.390 . S
C60 C58 1.391 . S
C60 C64 1.387 . S
C60 C65 1.491 . S
H61 C62 0.950 . S
C62 C59 1.390 . S
C62 H61 0.950 . S
C62 C63 1.378 . S
C63 C62 1.378 . S
C63 C64 1.409 . S
C64 C60 1.387 . S
C64 C63 1.409 . S
C64 H66 0.951 . S
C65 C60 1.491 . S
C65 C67 1.382 . S
C65 C69 1.404 . S
H66 C64 0.951 . S
C67 C65 1.382 . S
C67 C68 1.390 . S
C67 H72 0.949 . S
C68 C67 1.390 . S
C68 C73 1.399 . S
C69 C65 1.404 . S
C69 H70 0.950 . S
C69 C71 1.375 . S
H70 C69 0.950 . S
C71 C69 1.375 . S
C71 C73 1.382 . S
C71 H75 0.950 . S
H72 C67 0.949 . S
C73 C68 1.399 . S
C73 C71 1.382 . S
C73 H74 0.952 . S
H74 C73 0.952 . S
H75 C71 0.950 . S
H76 C77 0.949 . S
C77 H76 0.949 . S
C77 C78 1.395 1_565 S
C77 C79 1.391 . S
C78 C77 1.395 1_545 S
C78 C81 1.390 . S
C79 C77 1.391 . S
C79 C83 1.387 . S
C79 C84 1.491 . S
H80 C81 0.950 . S
C81 C78 1.390 . S
C81 H80 0.950 . S
C81 C82 1.378 . S
C82 C81 1.378 . S
C82 C83 1.409 1_545 S
C83 C79 1.387 . S
C83 C82 1.409 1_565 S
C83 H85 0.951 . S
C84 C79 1.491 . S
C84 C86 1.382 . S
C84 C88 1.404 . S
H85 C83 0.951 . S
C86 C84 1.382 . S
C86 C87 1.390 . S
C86 H91 0.949 . S
C87 C86 1.390 . S
C87 C92 1.399 . S
C88 C84 1.404 . S
C88 H89 0.950 . S
C88 C90 1.375 . S
H89 C88 0.950 . S
C90 C88 1.375 . S
C90 C92 1.382 . S
C90 H94 0.950 . S
H91 C86 0.949 . S
C92 C87 1.399 . S
C92 C90 1.382 . S
C92 H93 0.952 . S
H93 C92 0.952 . S
H94 C90 0.950 . S
H95 C96 0.949 . S
C96 H95 0.949 . S
C96 C97 1.395 . S
C96 C98 1.391 . S
C97 C96 1.395 . S
C97 C100 1.390 . S
C98 C96 1.391 . S
C98 C102 1.387 . S
C98 C103 1.491 . S
H99 C100 0.950 . S
C100 C97 1.390 . S
C100 H99 0.950 . S
C100 C101 1.378 . S
C101 C100 1.378 . S
C101 C102 1.409 . S
C102 C98 1.387 . S
C102 C101 1.409 . S
C102 H104 0.951 . S
C103 C98 1.491 . S
C103 C105 1.382 . S
C103 C107 1.404 . S
H104 C102 0.951 . S
C105 C103 1.382 . S
C105 C106 1.390 . S
C105 H110 0.949 . S
C106 C105 1.390 . S
C106 C111 1.399 . S
C107 C103 1.404 . S
C107 H108 0.950 . S
C107 C109 1.375 . S
H108 C107 0.950 . S
C109 C107 1.375 . S
C109 C111 1.382 . S
C109 H113 0.950 . S
H110 C105 0.949 . S
C111 C106 1.399 . S
C111 C109 1.382 . S
C111 H112 0.952 . S
H112 C111 0.952 . S
H113 C109 0.950 . S
H114 C115 0.949 1_455 S
C115 H114 0.949 1_655 S
C115 C116 1.395 . S
C115 C117 1.391 . S
C116 C115 1.395 . S
C116 C119 1.390 . S
C117 C115 1.391 . S
C117 C121 1.387 . S
C117 C122 1.491 . S
H118 C119 0.950 . S
C119 C116 1.390 . S
C119 H118 0.950 . S
C119 C120 1.378 . S
C120 C119 1.378 . S
C120 C121 1.409 . S
C121 C117 1.387 . S
C121 C120 1.409 . S
C121 H123 0.951 . S
C122 C117 1.491 . S
C122 C124 1.382 1_655 S
C122 C126 1.404 . S
H123 C121 0.951 . S
C124 C122 1.382 1_455 S
C124 C125 1.390 . S
C124 H129 0.949 . S
C125 C124 1.390 . S
C125 C130 1.387 1_455 S
C126 C122 1.404 . S
C126 H127 0.950 . S
C126 C128 1.375 . S
H127 C126 0.950 . S
C128 C126 1.375 . S
C128 C130 1.401 . S
C128 H132 0.950 . S
H129 C124 0.949 . S
C130 C125 1.387 1_655 S
C130 C128 1.401 . S
C130 H131 0.945 1_655 S
H131 C130 0.945 1_455 S
H132 C128 0.950 . S
H133 C134 0.949 . S
C134 H133 0.949 . S
C134 C135 1.395 . S
C134 C136 1.391 . S
C135 C134 1.395 . S
C135 C138 1.390 . S
C136 C134 1.391 . S
C136 C140 1.387 . S
C136 C141 1.491 . S
H137 C138 0.950 . S
C138 C135 1.390 . S
C138 H137 0.950 . S
C138 C139 1.378 . S
C139 C138 1.378 . S
C139 C140 1.409 . S
C140 C136 1.387 . S
C140 C139 1.409 . S
C140 H142 0.951 . S
C141 C136 1.491 . S
C141 C143 1.382 . S
C141 C145 1.404 . S
H142 C140 0.951 . S
C143 C141 1.382 . S
C143 C144 1.390 . S
C143 H148 0.949 . S
C144 C143 1.390 . S
C144 C149 1.399 . S
C145 C141 1.404 . S
C145 H146 0.950 . S
C145 C147 1.375 . S
H146 C145 0.950 . S
C147 C145 1.375 . S
C147 C149 1.382 . S
C147 H151 0.950 . S
H148 C143 0.949 . S
C149 C144 1.399 . S
C149 C147 1.382 . S
C149 H150 0.952 . S
H150 C149 0.952 . S
H151 C147 0.950 . S
H152 C153 0.949 . S
C153 H152 0.949 . S
C153 C154 1.395 . S
C153 C155 1.391 . S
C154 C153 1.395 . S
C154 C157 1.390 . S
C155 C153 1.391 . S
C155 C159 1.387 . S
C155 C160 1.491 . S
H156 C157 0.950 . S
C157 C154 1.390 . S
C157 H156 0.950 . S
C157 C158 1.378 . S
C158 C157 1.378 . S
C158 C159 1.409 . S
C159 C155 1.387 . S
C159 C158 1.409 . S
C159 H161 0.951 . S
C160 C155 1.491 . S
C160 C162 1.382 . S
C160 C164 1.404 . S
H161 C159 0.951 . S
C162 C160 1.382 . S
C162 C163 1.390 . S
C162 H167 0.949 . S
C163 C162 1.390 . S
C163 C168 1.399 . S
C164 C160 1.404 . S
C164 H165 0.950 . S
C164 C166 1.375 . S
H165 C164 0.950 . S
C166 C164 1.375 . S
C166 C168 1.382 . S
C166 H170 0.950 . S
H167 C162 0.949 . S
C168 C163 1.399 . S
C168 C166 1.382 . S
C168 H169 0.952 . S
H169 C168 0.952 . S
H170 C166 0.950 . S
H171 C172 0.949 . S
C172 H171 0.949 . S
C172 C173 1.395 1_565 S
C172 C174 1.391 . S
C173 C172 1.395 1_545 S
C173 C176 1.390 . S
C174 C172 1.391 . S
C174 C178 1.387 1_565 S
C174 C179 1.491 . S
H175 C176 0.950 . S
C176 C173 1.390 . S
C176 H175 0.950 . S
C176 C177 1.378 . S
C177 C176 1.378 . S
C177 C178 1.409 . S
C178 C174 1.387 1_545 S
C178 C177 1.409 . S
C178 H180 0.951 . S
C179 C174 1.491 . S
C179 C181 1.382 . S
C179 C183 1.404 . S
H180 C178 0.951 . S
C181 C179 1.382 . S
C181 C182 1.390 . S
C181 H186 0.949 . S
C182 C181 1.390 . S
C182 C187 1.399 . S
C183 C179 1.404 . S
C183 H184 0.950 . S
C183 C185 1.375 . S
H184 C183 0.950 . S
C185 C183 1.375 . S
C185 C187 1.382 . S
C185 H189 0.950 . S
H186 C181 0.949 . S
C187 C182 1.399 . S
C187 C185 1.382 . S
C187 H188 0.952 . S
H188 C187 0.952 . S
H189 C185 0.950 . S
H190 C191 0.949 . S
C191 H190 0.949 . S
C191 C192 1.395 . S
C191 C193 1.391 . S
C192 C191 1.395 . S
C192 C195 1.390 . S
C193 C191 1.391 . S
C193 C197 1.387 . S
C193 C198 1.491 . S
H194 C195 0.950 . S
C195 C192 1.390 . S
C195 H194 0.950 . S
C195 C196 1.378 . S
C196 C195 1.378 . S
C196 C197 1.409 . S
C197 C193 1.387 . S
C197 C196 1.409 . S
C197 H199 0.951 . S
C198 C193 1.491 . S
C198 C200 1.382 . S
C198 C202 1.404 . S
H199 C197 0.951 . S
C200 C198 1.382 . S
C200 C201 1.390 . S
C200 H205 0.949 . S
C201 C200 1.390 . S
C201 C206 1.399 . S
C202 C198 1.404 . S
C202 H203 0.950 . S
C202 C204 1.375 . S
H203 C202 0.950 . S
C204 C202 1.375 . S
C204 C206 1.382 . S
C204 H208 0.950 . S
H205 C200 0.949 . S
C206 C201 1.399 . S
C206 C204 1.382 . S
C206 H207 0.952 . S
H207 C206 0.952 . S
H208 C204 0.950 . S
H209 C210 0.949 . S
C210 H209 0.949 . S
C210 C211 1.395 . S
C210 C212 1.391 . S
C211 C210 1.395 . S
C211 C214 1.390 . S
C212 C210 1.391 . S
C212 C216 1.387 . S
C212 C217 1.491 . S
H213 C214 0.950 . S
C214 C211 1.390 . S
C214 H213 0.950 . S
C214 C215 1.378 . S
C215 C214 1.378 . S
C215 C216 1.409 . S
C216 C212 1.387 . S
C216 C215 1.409 . S
C216 H218 0.951 . S
C217 C212 1.491 . S
C217 C219 1.382 . S
C217 C221 1.404 . S
H218 C216 0.951 . S
C219 C217 1.382 . S
C219 C220 1.390 . S
C219 H224 0.949 . S
C220 C219 1.390 . S
C220 C225 1.399 . S
C221 C217 1.404 . S
C221 H222 0.950 . S
C221 C223 1.375 . S
H222 C221 0.950 . S
C223 C221 1.375 . S
C223 C225 1.382 . S
C223 H227 0.950 . S
H224 C219 0.949 . S
C225 C220 1.399 . S
C225 C223 1.382 . S
C225 H226 0.952 . S
H226 C225 0.952 . S
H227 C223 0.950 . S
H228 C229 0.949 . S
C229 H228 0.949 . S
C229 C230 1.395 . S
C229 C231 1.391 . S
C230 C229 1.395 . S
C230 C233 1.390 . S
C231 C229 1.391 . S
C231 C235 1.387 . S
C231 C236 1.491 . S
H232 C233 0.950 . S
C233 C230 1.390 . S
C233 H232 0.950 . S
C233 C234 1.378 . S
C234 C233 1.378 . S
C234 C235 1.409 . S
C235 C231 1.387 . S
C235 C234 1.409 . S
C235 H237 0.951 . S
C236 C231 1.491 . S
C236 C238 1.382 . S
C236 C240 1.404 . S
H237 C235 0.951 . S
C238 C236 1.382 . S
C238 C239 1.390 . S
C238 H243 0.949 . S
C239 C238 1.390 . S
C239 C244 1.399 . S
C240 C236 1.404 . S
C240 H241 0.950 . S
C240 C242 1.375 . S
H241 C240 0.950 . S
C242 C240 1.375 . S
C242 C244 1.382 . S
C242 H246 0.950 . S
H243 C238 0.949 . S
C244 C239 1.399 . S
C244 C242 1.382 . S
C244 H245 0.952 . S
H245 C244 0.952 . S
H246 C242 0.950 . S
H247 C248 0.949 1_554 S
C248 H247 0.949 1_556 S
C248 C249 1.395 . S
C248 C250 1.391 . S
C249 C248 1.395 . S
C249 C252 1.390 . S
C250 C248 1.391 . S
C250 C254 1.387 . S
C250 C255 1.491 . S
H251 C252 0.950 . S
C252 C249 1.390 . S
C252 H251 0.950 . S
C252 C253 1.378 . S
C253 C252 1.378 . S
C253 C254 1.409 . S
C254 C250 1.387 . S
C254 C253 1.409 . S
C254 H256 0.951 . S
C255 C250 1.491 . S
C255 C257 1.382 1_556 S
C255 C259 1.404 . S
H256 C254 0.951 . S
C257 C255 1.382 1_554 S
C257 C258 1.390 . S
C257 H262 0.949 . S
C258 C257 1.390 . S
C258 C263 1.399 . S
C259 C255 1.404 . S
C259 H260 0.950 . S
C259 C261 1.375 . S
H260 C259 0.950 . S
C261 C259 1.375 . S
C261 C263 1.382 1_556 S
C261 H265 0.950 . S
H262 C257 0.949 . S
C263 C258 1.399 . S
C263 C261 1.382 1_554 S
C263 H264 0.952 . S
H264 C263 0.952 . S
H265 C261 0.950 . S
H266 C267 0.949 . S
C267 H266 0.949 . S
C267 C268 1.395 . S
C267 C269 1.391 . S
C268 C267 1.395 . S
C268 C271 1.390 . S
C269 C267 1.391 . S
C269 C273 1.387 . S
C269 C274 1.491 . S
H270 C271 0.950 . S
C271 C268 1.390 . S
C271 H270 0.950 . S
C271 C272 1.378 . S
C272 C271 1.378 . S
C272 C273 1.409 . S
C273 C269 1.387 . S
C273 C272 1.409 . S
C273 H275 0.951 . S
C274 C269 1.491 . S
C274 C276 1.382 . S
C274 C278 1.404 . S
H275 C273 0.951 . S
C276 C274 1.382 . S
C276 C277 1.390 . S
C276 H281 0.949 . S
C277 C276 1.390 . S
C277 C282 1.399 . S
C278 C274 1.404 . S
C278 H279 0.950 . S
C278 C280 1.375 . S
H279 C278 0.950 . S
C280 C278 1.375 . S
C280 C282 1.382 . S
C280 H284 0.950 . S
H281 C276 0.949 . S
C282 C277 1.399 . S
C282 C280 1.382 . S
C282 H283 0.952 . S
H283 C282 0.952 . S
H284 C280 0.950 . S
H285 C286 0.949 . S
C286 H285 0.949 . S
C286 C287 1.395 1_556 S
C286 C288 1.391 . S
C287 C286 1.395 1_554 S
C287 C290 1.390 . S
C288 C286 1.391 . S
C288 C292 1.387 1_545 S
C288 C293 1.491 . S
H289 C290 0.950 . S
C290 C287 1.390 . S
C290 H289 0.950 . S
C290 C291 1.378 . S
C291 C290 1.378 . S
C291 C292 1.409 1_544 S
C292 C288 1.387 1_565 S
C292 C291 1.409 1_566 S
C292 H294 0.951 . S
C293 C288 1.491 . S
C293 C295 1.382 . S
C293 C297 1.404 1_545 S
H294 C292 0.951 . S
C295 C293 1.382 . S
C295 C296 1.390 . S
C295 H300 0.949 . S
C296 C295 1.390 . S
C296 C301 1.399 . S
C297 C293 1.404 1_565 S
C297 H298 0.950 . S
C297 C299 1.375 . S
H298 C297 0.950 . S
C299 C297 1.375 . S
C299 C301 1.382 1_565 S
C299 H303 0.950 . S
H300 C295 0.949 . S
C301 C296 1.399 . S
C301 C299 1.382 1_545 S
C301 H302 0.952 1_545 S
H302 C301 0.952 1_565 S
H303 C299 0.950 . S
C304 O305 1.160 . S
C304 O311 1.185 . S
O305 C304 1.160 . S
O306 Zn307 1.899 . S
O306 C314 1.284 1_554 S
Zn307 O306 1.899 . S
Zn307 O308 2.032 . S
Zn307 O311 2.086 . S
Zn307 O316 1.977 . S
O308 Zn307 2.032 . S
O308 C312 1.278 . S
C309 O310 1.203 . S
C309 O316 1.267 . S
O310 C309 1.203 . S
O311 C304 1.185 . S
O311 Zn307 2.086 . S
C312 O308 1.278 . S
C312 O313 1.211 . S
O313 C312 1.211 . S
C314 O306 1.284 1_556 S
C314 O315 1.273 . S
O315 C314 1.273 . S
O316 Zn307 1.977 . S
O316 C309 1.267 . S
C317 O318 1.160 . S
C317 O324 1.185 . S
O318 C317 1.160 . S
O319 Zn320 1.899 . S
O319 C327 1.284 . S
Zn320 O319 1.899 . S
Zn320 O321 2.032 . S
Zn320 O324 2.086 . S
Zn320 O329 1.977 . S
O321 Zn320 2.032 . S
O321 C325 1.278 . S
C322 O323 1.203 . S
C322 O329 1.267 . S
O323 C322 1.203 . S
O324 C317 1.185 . S
O324 Zn320 2.086 . S
C325 O321 1.278 . S
C325 O326 1.211 . S
O326 C325 1.211 . S
C327 O319 1.284 . S
C327 O328 1.273 . S
O328 C327 1.273 . S
O329 Zn320 1.977 . S
O329 C322 1.267 . S
C330 O331 1.160 . S
C330 O337 1.185 1_556 S
O331 C330 1.160 . S
O332 Zn333 1.899 1_556 S
O332 C340 1.284 . S
Zn333 O332 1.899 1_554 S
Zn333 O334 2.032 1_554 S
Zn333 O337 2.086 . S
Zn333 O342 1.977 . S
O334 Zn333 2.032 1_556 S
O334 C338 1.278 . S
C335 O336 1.203 . S
C335 O342 1.267 . S
O336 C335 1.203 . S
O337 C330 1.185 1_554 S
O337 Zn333 2.086 . S
C338 O334 1.278 . S
C338 O339 1.211 1_556 S
O339 C338 1.211 1_554 S
C340 O332 1.284 . S
C340 O341 1.273 . S
O341 C340 1.273 . S
O342 Zn333 1.977 . S
O342 C335 1.267 . S
C343 O344 1.160 . S
C343 O350 1.185 . S
O344 C343 1.160 . S
O345 Zn346 1.899 1_455 S
O345 C353 1.284 . S
Zn346 O345 1.899 1_655 S
Zn346 O347 2.032 1_545 S
Zn346 O350 2.086 . S
Zn346 O355 1.977 . S
O347 Zn346 2.032 1_565 S
O347 C351 1.278 . S
C348 O349 1.203 . S
C348 O355 1.267 1_455 S
O349 C348 1.203 . S
O350 C343 1.185 . S
O350 Zn346 2.086 . S
C351 O347 1.278 . S
C351 O352 1.211 . S
O352 C351 1.211 . S
C353 O345 1.284 . S
C353 O354 1.273 1_545 S
O354 C353 1.273 1_565 S
O355 Zn346 1.977 . S
O355 C348 1.267 1_655 S
C356 O357 1.160 . S
C356 O363 1.185 . S
O357 C356 1.160 . S
O358 Zn359 1.899 . S
O358 C366 1.284 . S
Zn359 O358 1.899 . S
Zn359 O360 2.032 . S
Zn359 O363 2.086 . S
Zn359 O368 1.977 . S
O360 Zn359 2.032 . S
O360 C364 1.278 . S
C361 O362 1.203 . S
C361 O368 1.267 . S
O362 C361 1.203 . S
O363 C356 1.185 . S
O363 Zn359 2.086 . S
C364 O360 1.278 . S
C364 O365 1.211 . S
O365 C364 1.211 . S
C366 O358 1.284 . S
C366 O367 1.273 . S
O367 C366 1.273 . S
O368 Zn359 1.977 . S
O368 C361 1.267 . S
C369 O370 1.160 . S
C369 O376 1.185 . S
O370 C369 1.160 . S
O371 Zn372 1.899 . S
O371 C379 1.284 . S
Zn372 O371 1.899 . S
Zn372 O373 2.032 . S
Zn372 O376 2.086 . S
Zn372 O381 1.977 . S
O373 Zn372 2.032 . S
O373 C377 1.278 . S
C374 O375 1.203 . S
C374 O381 1.267 . S
O375 C374 1.203 . S
O376 C369 1.185 . S
O376 Zn372 2.086 . S
C377 O373 1.278 . S
C377 O378 1.211 . S
O378 C377 1.211 . S
C379 O371 1.284 . S
C379 O380 1.273 . S
O380 C379 1.273 . S
O381 Zn372 1.977 . S
O381 C374 1.267 . S
C382 O383 1.160 . S
C382 O389 1.185 . S
O383 C382 1.160 . S
O384 Zn385 1.899 . S
O384 C392 1.284 . S
Zn385 O384 1.899 . S
Zn385 O386 2.032 . S
Zn385 O389 2.086 . S
Zn385 O394 1.977 . S
O386 Zn385 2.032 . S
O386 C390 1.278 . S
C387 O388 1.203 . S
C387 O394 1.267 . S
O388 C387 1.203 . S
O389 C382 1.185 . S
O389 Zn385 2.086 . S
C390 O386 1.278 . S
C390 O391 1.211 . S
O391 C390 1.211 . S
C392 O384 1.284 . S
C392 O393 1.273 . S
O393 C392 1.273 . S
O394 Zn385 1.977 . S
O394 C387 1.267 . S
C395 O396 1.160 . S
C395 O402 1.185 . S
O396 C395 1.160 . S
O397 Zn398 1.900 . S
O397 C405 1.284 1_565 S
Zn398 O397 1.900 . S
Zn398 O399 2.027 1_565 S
Zn398 O402 2.092 . S
Zn398 O407 1.977 . S
O399 Zn398 2.027 1_545 S
O399 C403 1.278 . S
C400 O401 1.203 1_565 S
C400 O407 1.267 . S
O401 C400 1.203 1_545 S
O402 C395 1.185 . S
O402 Zn398 2.092 . S
C403 O399 1.278 . S
C403 O404 1.211 . S
O404 C403 1.211 . S
C405 O397 1.284 1_545 S
C405 O406 1.273 . S
O406 C405 1.273 . S
O407 Zn398 1.977 . S
O407 C400 1.267 . S
C408 O409 1.160 1_455 S
C408 O415 1.185 . S
O409 C408 1.160 1_655 S
O410 Zn411 1.899 1_655 S
O410 C418 1.284 . S
Zn411 O410 1.899 1_455 S
Zn411 O412 2.035 . S
Zn411 O415 2.086 . S
Zn411 O420 1.977 . S
O412 Zn411 2.035 . S
O412 C416 1.278 . S
C413 O414 1.203 . S
C413 O420 1.267 . S
O414 C413 1.203 . S
O415 C408 1.185 . S
O415 Zn411 2.086 . S
C416 O412 1.278 . S
C416 O417 1.211 . S
O417 C416 1.211 . S
C418 O410 1.284 . S
C418 O419 1.273 . S
O419 C418 1.273 . S
O420 Zn411 1.977 . S
O420 C413 1.267 . S
C421 O422 1.160 . S
C421 O428 1.185 . S
O422 C421 1.160 . S
O423 Zn424 1.899 . S
O423 C431 1.284 . S
Zn424 O423 1.899 . S
Zn424 O425 2.032 . S
Zn424 O428 2.086 . S
Zn424 O433 1.977 . S
O425 Zn424 2.032 . S
O425 C429 1.278 . S
C426 O427 1.203 . S
C426 O433 1.267 . S
O427 C426 1.203 . S
O428 C421 1.185 . S
O428 Zn424 2.086 . S
C429 O425 1.278 . S
C429 O430 1.211 . S
O430 C429 1.211 . S
C431 O423 1.284 . S
C431 O432 1.273 . S
O432 C431 1.273 . S
O433 Zn424 1.977 . S
O433 C426 1.267 . S
C434 O435 1.160 1_455 S
C434 O441 1.185 . S
O435 C434 1.160 1_655 S
O436 Zn437 1.899 1_655 S
O436 C444 1.284 . S
Zn437 O436 1.899 1_455 S
Zn437 O438 2.032 1_455 S
Zn437 O441 2.086 . S
Zn437 O446 1.977 . S
O438 Zn437 2.032 1_655 S
O438 C442 1.278 . S
C439 O440 1.203 . S
C439 O446 1.267 . S
O440 C439 1.203 . S
O441 C434 1.185 . S
O441 Zn437 2.086 . S
C442 O438 1.278 . S
C442 O443 1.211 . S
O443 C442 1.211 . S
C444 O436 1.284 . S
C444 O445 1.273 . S
O445 C444 1.273 . S
O446 Zn437 1.977 . S
O446 C439 1.267 . S
C447 O448 1.160 . S
C447 O454 1.185 . S
O448 C447 1.160 . S
O449 Zn450 1.899 . S
O449 C457 1.284 . S
Zn450 O449 1.899 . S
Zn450 O451 2.032 . S
Zn450 O454 2.086 . S
Zn450 O459 1.977 . S
O451 Zn450 2.032 . S
O451 C455 1.278 . S
C452 O453 1.203 . S
C452 O459 1.267 . S
O453 C452 1.203 . S
O454 C447 1.185 . S
O454 Zn450 2.086 . S
C455 O451 1.278 . S
C455 O456 1.211 . S
O456 C455 1.211 . S
C457 O449 1.284 . S
C457 O458 1.273 . S
O458 C457 1.273 . S
O459 Zn450 1.977 . S
O459 C452 1.267 . S
C314 C101 2.302 . S
C327 C125 1.175 . S
C139 C340 2.237 . S
C353 C82 1.833 . S
C361 C196 1.700 . S
C374 C234 2.071 . S
C220 C387 0.973 . S
C400 C173 1.890 1_565 S
C211 C418 1.080 . S
C429 C182 0.911 . S
C201 C413 1.185 . S
C421 C239 1.506 . S
C135 C444 2.069 . S
C87 C434 1.728 . S
C106 C439 1.069 . S
C116 C442 1.260 . S
C59 C351 1.953 . S
C268 C343 2.318 . S
C312 C291 1.563 1_565 S
C317 C163 1.224 . S
C78 C364 2.191 . S
C403 C215 1.621 . S
C356 C177 2.238 . S
C382 C230 1.925 . S
C392 C272 2.302 . S
C296 C405 1.175 . S
C158 C366 2.237 . S
C379 C253 1.833 . S
C63 C335 1.700 . S
C348 C6 2.071 1_545 S
C309 C30 0.973 . S
C322 C40 1.892 . S
C21 C431 1.080 . S
C49 C416 0.911 . S
C68 C426 1.185 . S
C11 C408 1.506 . S
C457 C154 2.069 . S
C447 C258 1.728 . S
C452 C277 1.069 . S
C287 C455 1.260 . S
C192 C377 1.953 . S
C369 C97 2.318 . S
C390 C120 1.563 . S
C395 C144 1.224 . S
C249 C338 2.191 . S
C325 C25 1.621 . S
C44 C330 2.238 1_554 S
C304 C2 1.925 . S
