# Generated by pormake.
# Topology nom, (4,4)-cn, num edge types: 1
# Building blocks:
#     Node 0, Type 0, BuildingBlock: NAHDIM_clean_linker_0, # of connection points: 4
#     Node 1, Type 0, BuildingBlock: NAHDIM_clean_linker_0, # of connection points: 4
#     Node 2, Type 0, BuildingBlock: NAHDIM_clean_linker_0, # of connection points: 4
#     Node 3, Type 0, BuildingBlock: NAHDIM_clean_linker_0, # of connection points: 4
#     Node 4, Type 0, BuildingBlock: NAHDIM_clean_linker_0, # of connection points: 4
#     Node 5, Type 0, BuildingBlock: NAHDIM_clean_linker_0, # of connection points: 4
#     Node 6, Type 1, BuildingBlock: NAHDIM_clean_sbu_0, # of connection points: 4
#     Node 7, Type 1, BuildingBlock: NAHDIM_clean_sbu_0, # of connection points: 4
#     Node 8, Type 1, BuildingBlock: NAHDIM_clean_sbu_0, # of connection points: 4
#     Node 9, Type 1, BuildingBlock: NAHDIM_clean_sbu_0, # of connection points: 4
#     Node 10, Type 1, BuildingBlock: NAHDIM_clean_sbu_0, # of connection points: 4
#     Node 11, Type 1, BuildingBlock: NAHDIM_clean_sbu_0, # of connection points: 4
#     Edge 12, Type (0, 1), BuildingBlock: ZUJKAS_clean_linker_0, # of connection points: 2
#     Edge 13, Type (0, 1), BuildingBlock: ZUJKAS_clean_linker_0, # of connection points: 2
#     Edge 14, Type (0, 1), BuildingBlock: ZUJKAS_clean_linker_0, # of connection points: 2
#     Edge 15, Type (0, 1), BuildingBlock: ZUJKAS_clean_linker_0, # of connection points: 2
#     Edge 16, Type (0, 1), BuildingBlock: ZUJKAS_clean_linker_0, # of connection points: 2
#     Edge 17, Type (0, 1), BuildingBlock: ZUJKAS_clean_linker_0, # of connection points: 2
#     Edge 18, Type (0, 1), BuildingBlock: ZUJKAS_clean_linker_0, # of connection points: 2
#     Edge 19, Type (0, 1), BuildingBlock: ZUJKAS_clean_linker_0, # of connection points: 2
#     Edge 20, Type (0, 1), BuildingBlock: ZUJKAS_clean_linker_0, # of connection points: 2
#     Edge 21, Type (0, 1), BuildingBlock: ZUJKAS_clean_linker_0, # of connection points: 2
#     Edge 22, Type (0, 1), BuildingBlock: ZUJKAS_clean_linker_0, # of connection points: 2
#     Edge 23, Type (0, 1), BuildingBlock: ZUJKAS_clean_linker_0, # of connection points: 2
#     Edge 24, Type (0, 1), BuildingBlock: ZUJKAS_clean_linker_0, # of connection points: 2
#     Edge 25, Type (0, 1), BuildingBlock: ZUJKAS_clean_linker_0, # of connection points: 2
#     Edge 26, Type (0, 1), BuildingBlock: ZUJKAS_clean_linker_0, # of connection points: 2
#     Edge 27, Type (0, 1), BuildingBlock: ZUJKAS_clean_linker_0, # of connection points: 2
#     Edge 28, Type (0, 1), BuildingBlock: ZUJKAS_clean_linker_0, # of connection points: 2
#     Edge 29, Type (0, 1), BuildingBlock: ZUJKAS_clean_linker_0, # of connection points: 2
#     Edge 30, Type (0, 1), BuildingBlock: ZUJKAS_clean_linker_0, # of connection points: 2
#     Edge 31, Type (0, 1), BuildingBlock: ZUJKAS_clean_linker_0, # of connection points: 2
#     Edge 32, Type (0, 1), BuildingBlock: ZUJKAS_clean_linker_0, # of connection points: 2
#     Edge 33, Type (0, 1), BuildingBlock: ZUJKAS_clean_linker_0, # of connection points: 2
#     Edge 34, Type (0, 1), BuildingBlock: ZUJKAS_clean_linker_0, # of connection points: 2
#     Edge 35, Type (0, 1), BuildingBlock: ZUJKAS_clean_linker_0, # of connection points: 2
# Relax obj value: 0.063
# Max RMSD: 0.129
# Mean RMSD: 0.123
data_MOF--net-nom--node1-NAHDIM_clean_sbu_0--node2-NAHDIM_clean_linker_0--edge1-ZUJKAS_clean_linker_0
_symmetry_space_group_name_H-M    P1
_symmetry_Int_Tables_number       1
_symmetry_cell_setting            triclinic
loop_
_symmetry_equiv_pos_as_xyz
'x, y, z'
_cell_length_a     68.950573
_cell_length_b     71.034597
_cell_length_c     85.138525
_cell_angle_alpha  90.094524
_cell_angle_beta   90.586586
_cell_angle_gamma 120.99057
loop_
_atom_site_label
_atom_site_type_symbol
_atom_site_fract_x
_atom_site_fract_y
_atom_site_fract_z
_atom_type_partial_charge
C0 C 0.13162 0.57764 0.25147 0.0
C1 C 0.14272 0.58768 0.26745 0.0
C2 C 0.10826 0.57863 0.28174 0.0
C3 C 0.10096 0.55652 0.28478 0.0
C4 C 0.07878 0.54189 0.28963 0.0
C5 C 0.06349 0.54943 0.2913 0.0
C6 C 0.07102 0.57185 0.28881 0.0
C7 C 0.09346 0.58623 0.28429 0.0
C8 C 0.07148 0.51819 0.29253 0.0
C9 C 0.05515 0.58043 0.29036 0.0
C10 C 0.9925 0.46911 0.20437 0.0
C11 C 0.97396 0.4724 0.21113 0.0
C12 C 0.97354 0.47132 0.23967 0.0
C13 C 0.97374 0.49071 0.24321 0.0
C14 C 0.98228 0.50145 0.2577 0.0
C15 C 0.99067 0.49252 0.26881 0.0
C16 C 0.98925 0.47229 0.26558 0.0
C17 C 0.98041 0.46179 0.25107 0.0
C18 C 0.98295 0.52266 0.26096 0.0
C19 C 0.99794 0.46225 0.27721 0.0
C20 C 0.89203 0.44415 0.34538 0.0
C21 C 0.89921 0.46613 0.34204 0.0
C22 C 0.92233 0.48219 0.34194 0.0
C23 C 0.9385 0.47608 0.34521 0.0
C24 C 0.93124 0.45421 0.3495 0.0
C25 C 0.908 0.43854 0.34967 0.0
C26 C 0.92951 0.50553 0.33783 0.0
C27 C 0.94804 0.44723 0.35329 0.0
C28 C 0.10075 0.59978 0.39308 0.0
C29 C 0.08517 0.57653 0.39924 0.0
C30 C 0.04585 0.55814 0.39075 0.0
C31 C 0.0318 0.56474 0.38396 0.0
C32 C 0.01543 0.55155 0.37262 0.0
C33 C 0.01294 0.53117 0.36828 0.0
C34 C 0.02574 0.52358 0.37618 0.0
C35 C 0.04212 0.53719 0.38736 0.0
C36 C 0.00172 0.55991 0.36463 0.0
C37 C 0.02293 0.50159 0.37223 0.0
C38 C 0.03922 0.53344 0.29418 0.0
C39 C 0.02594 0.52113 0.28135 0.0
C40 C 0.00305 0.50542 0.283 0.0
C41 C 0.99282 0.50203 0.29784 0.0
C42 C 0.96973 0.48664 0.29986 0.0
C43 C 0.95988 0.48333 0.31456 0.0
C44 C 0.97276 0.49531 0.32781 0.0
C45 C 0.96291 0.49206 0.34282 0.0
C46 C 0.97627 0.50399 0.35579 0.0
C47 C 0.99934 0.51926 0.35415 0.0
C48 C 0.00943 0.52294 0.3392 0.0
C49 C 0.03259 0.53833 0.33713 0.0
C50 C 0.04241 0.54175 0.32243 0.0
C51 C 0.02945 0.53003 0.30919 0.0
C52 C 0.00611 0.51436 0.311 0.0
C53 C 0.99608 0.51089 0.32601 0.0
C54 C 0.8415 0.40497 0.32574 0.0
C55 C 0.85403 0.42739 0.33398 0.0
O56 O 0.12911 0.59297 0.276 0.0
O57 O 0.06328 0.57251 0.40014 0.0
O58 O 0.86994 0.42793 0.34435 0.0
O59 O 0.96695 0.46153 0.22533 0.0
H60 H 0.14539 0.57574 0.27412 0.0
H61 H 0.1153 0.56206 0.25308 0.0
H62 H 0.12837 0.58918 0.24478 0.0
H63 H 0.14275 0.57388 0.24447 0.0
H64 H 0.11232 0.55044 0.28323 0.0
H65 H 0.0993 0.60335 0.28208 0.0
H66 H 0.06006 0.50784 0.28282 0.0
H67 H 0.0861 0.51568 0.29316 0.0
H68 H 0.06192 0.51245 0.30364 0.0
H69 H 0.06341 0.59814 0.28742 0.0
H70 H 0.04021 0.57099 0.28247 0.0
H71 H 0.04889 0.57814 0.30257 0.0
H72 H 0.98155 0.49042 0.21275 0.0
H73 H 0.0073 0.47625 0.21254 0.0
H74 H 0.98632 0.45136 0.20274 0.0
H75 H 0.99814 0.4775 0.19288 0.0
H76 H 0.96741 0.49755 0.23463 0.0
H77 H 0.97975 0.44658 0.24829 0.0
H78 H 0.00081 0.53644 0.26123 0.0
H79 H 0.97353 0.52617 0.25192 0.0
H80 H 0.97566 0.52203 0.27266 0.0
H81 H 0.99528 0.44626 0.27302 0.0
H82 H 0.01631 0.47366 0.27938 0.0
H83 H 0.98926 0.4597 0.2886 0.0
H84 H 0.86245 0.43966 0.32448 0.0
H85 H 0.88683 0.47074 0.33936 0.0
H86 H 0.90224 0.4216 0.35252 0.0
H87 H 0.93794 0.50964 0.32626 0.0
H88 H 0.91494 0.50812 0.33723 0.0
H89 H 0.94195 0.51705 0.34667 0.0
H90 H 0.93965 0.42969 0.35671 0.0
H91 H 0.95875 0.44986 0.34291 0.0
H92 H 0.95941 0.45751 0.36305 0.0
H93 H 0.0862 0.56531 0.39058 0.0
H94 H 0.1185 0.60352 0.39267 0.0
H95 H 0.09537 0.60109 0.38099 0.0
H96 H 0.10006 0.6122 0.40061 0.0
H97 H 0.03454 0.58077 0.38695 0.0
H98 H 0.05238 0.53171 0.39318 0.0
H99 H 0.00632 0.56293 0.35204 0.0
H100 H 0.98342 0.54731 0.36517 0.0
H101 H 0.00457 0.57538 0.37006 0.0
H102 H 0.03203 0.49691 0.38072 0.0
H103 H 0.00471 0.48865 0.37206 0.0
H104 H 0.02961 0.50222 0.36031 0.0
H105 H 0.03363 0.52367 0.26989 0.0
H106 H 0.95903 0.47698 0.29008 0.0
H107 H 0.94204 0.4712 0.31539 0.0
H108 H 0.96865 0.50131 0.36727 0.0
H109 H 0.04345 0.54794 0.34686 0.0
H110 H 0.0603 0.55372 0.32156 0.0
H111 H 0.82845 0.40408 0.31749 0.0
H112 H 0.85366 0.4025 0.31891 0.0
H113 H 0.83321 0.39149 0.3344 0.0
C114 C 0.43833 0.89235 0.55422 0.0
C115 C 0.42823 0.88493 0.53764 0.0
C116 C 0.4394 0.9207 0.5258 0.0
C117 C 0.4624 0.92784 0.52377 0.0
C118 C 0.47779 0.9494 0.51905 0.0
C119 C 0.47009 0.96415 0.51645 0.0
C120 C 0.44689 0.9569 0.51819 0.0
C121 C 0.43183 0.93516 0.52268 0.0
C122 C 0.50237 0.95655 0.51711 0.0
C123 C 0.43811 0.97225 0.51568 0.0
C124 C 0.54403 0.03765 0.60123 0.0
C125 C 0.54042 0.05581 0.59494 0.0
C126 C 0.54425 0.05673 0.56668 0.0
C127 C 0.52388 0.0547 0.56153 0.0
C128 C 0.51433 0.04504 0.54692 0.0
C129 C 0.52544 0.03729 0.53734 0.0
C130 C 0.54665 0.04047 0.54214 0.0
C131 C 0.55594 0.05045 0.55674 0.0
C132 C 0.492 0.04243 0.54195 0.0
C133 C 0.55898 0.03248 0.53217 0.0
C134 C 0.57294 0.12789 0.4576 0.0
C135 C 0.55001 0.11974 0.4607 0.0
C136 C 0.53455 0.09705 0.46124 0.0
C137 C 0.54226 0.0823 0.4587 0.0
C138 C 0.56505 0.09048 0.45457 0.0
C139 C 0.58008 0.11326 0.45392 0.0
C140 C 0.51017 0.08885 0.4651 0.0
C141 C 0.57371 0.07518 0.45152 0.0
C142 C 0.42149 0.92068 0.41469 0.0
C143 C 0.44463 0.93624 0.40755 0.0
C144 C 0.46182 0.97442 0.41571 0.0
C145 C 0.45402 0.9875 0.42191 0.0
C146 C 0.46706 0.0041 0.43295 0.0
C147 C 0.48853 0.00782 0.4376 0.0
C148 C 0.49728 0.99586 0.43033 0.0
C149 C 0.4838 0.97924 0.41942 0.0
C150 C 0.45744 0.01685 0.44026 0.0
C151 C 0.52042 -6e-05 0.43464 0.0
C152 C 0.4865 0.98751 0.51288 0.0
C153 C 0.49839 0.00148 0.52547 0.0
C154 C 0.51374 0.0238 0.5232 0.0
C155 C 0.51734 0.03264 0.50792 0.0
C156 C 0.5324 0.05508 0.50523 0.0
C157 C 0.53571 0.06359 0.49013 0.0
C158 C 0.524 0.04999 0.47714 0.0
C159 C 0.52702 0.05853 0.46175 0.0
C160 C 0.51532 0.04452 0.44908 0.0
C161 C 0.50049 0.02206 0.45139 0.0
C162 C 0.49705 0.01326 0.4667 0.0
C163 C 0.48207 0.99074 0.46942 0.0
C164 C 0.47869 0.98224 0.48451 0.0
C165 C 0.49009 0.99592 0.49747 0.0
C166 C 0.50546 0.01861 0.495 0.0
C167 C 0.50886 0.02729 0.4796 0.0
C168 C 0.61143 0.1768 0.47754 0.0
C169 C 0.58845 0.16435 0.46908 0.0
O170 O 0.424 0.90026 0.53092 0.0
O171 O 0.44768 0.95708 0.40642 0.0
O172 O 0.58861 0.14967 0.45841 0.0
O173 O 0.55268 0.06428 0.5813 0.0
H174 H 0.44019 0.88286 0.53021 0.0
H175 H 0.45481 0.90803 0.55378 0.0
H176 H 0.42671 0.89481 0.56173 0.0
H177 H 0.44129 0.87984 0.5597 0.0
H178 H 0.46856 0.91682 0.52593 0.0
H179 H 0.41406 0.92948 0.52418 0.0
H180 H 0.51264 0.96866 0.52645 0.0
H181 H 0.50525 0.94256 0.51784 0.0
H182 H 0.50853 0.96476 0.50561 0.0
H183 H 0.41981 0.96435 0.51829 0.0
H184 H 0.44767 0.98704 0.52328 0.0
H185 H 0.44078 0.97783 0.5033 0.0
H186 H 0.52197 0.04824 0.59252 0.0
H187 H 0.53778 0.0241 0.59246 0.0
H188 H 0.56227 0.04402 0.60357 0.0
H189 H 0.5345 0.03086 0.61227 0.0
H190 H 0.51531 0.0604 0.56902 0.0
H191 H 0.57186 0.05245 0.56077 0.0
H192 H 0.49303 0.04834 0.52974 0.0
H193 H 0.47866 0.02476 0.5421 0.0
H194 H 0.48685 0.05155 0.54982 0.0
H195 H 0.57559 0.03672 0.53739 0.0
H196 H 0.54845 0.01437 0.53072 0.0
H197 H 0.56178 0.03979 0.52029 0.0
H198 H 0.57585 0.15545 0.47846 0.0
H199 H 0.54424 0.13107 0.46291 0.0
H200 H 0.59774 0.11976 0.45124 0.0
H201 H 0.50649 0.08152 0.47699 0.0
H202 H 0.50629 0.10221 0.46487 0.0
H203 H 0.49876 0.0758 0.45663 0.0
H204 H 0.59181 0.08413 0.44817 0.0
H205 H 0.57169 0.06544 0.46223 0.0
H206 H 0.56356 0.06343 0.44197 0.0
H207 H 0.4574 0.93619 0.41563 0.0
H208 H 0.41859 0.9038 0.41548 0.0
H209 H 0.42085 0.92637 0.42673 0.0
H210 H 0.4077 0.92022 0.40752 0.0
H211 H 0.43721 0.98392 0.41867 0.0
H212 H 0.49026 0.96979 0.41401 0.0
H213 H 0.45461 0.01298 0.45297 0.0
H214 H 0.4697 0.03475 0.43927 0.0
H215 H 0.44115 0.01298 0.43467 0.0
H216 H 0.5258 0.9911 0.42668 0.0
H217 H 0.53311 0.0178 0.43424 0.0
H218 H 0.52023 0.99438 0.44684 0.0
H219 H 0.49556 0.99487 0.53727 0.0
H220 H 0.54177 0.06631 0.51479 0.0
H221 H 0.54756 0.081 0.4888 0.0
H222 H 0.51774 0.05117 0.43732 0.0
H223 H 0.47269 0.97939 0.45993 0.0
H224 H 0.46698 0.96481 0.48588 0.0
H225 H 0.61185 0.18904 0.4859 0.0
H226 H 0.61432 0.16508 0.48429 0.0
H227 H 0.62541 0.18538 0.46905 0.0
C228 C 0.5864 0.47074 0.70902 0.0
C229 C 0.57991 0.45712 0.69379 0.0
C230 C 0.5528 0.46634 0.68256 0.0
C231 C 0.56882 0.48758 0.67748 0.0
C232 C 0.56203 0.50207 0.67226 0.0
C233 C 0.53881 0.49527 0.67223 0.0
C234 C 0.52259 0.47369 0.67683 0.0
C235 C 0.52983 0.45943 0.68178 0.0
C236 C 0.57974 0.52487 0.66717 0.0
C237 C 0.4977 0.46594 0.67701 0.0
C238 C 0.57463 0.60212 0.75467 0.0
C239 C 0.55131 0.58862 0.74682 0.0
C240 C 0.54473 0.58385 0.71861 0.0
C241 C 0.52473 0.56323 0.7184 0.0
C242 C 0.51827 0.54973 0.70497 0.0
C243 C 0.53232 0.55692 0.69163 0.0
C244 C 0.55207 0.5781 0.69165 0.0
C245 C 0.55772 0.59149 0.70508 0.0
C246 C 0.49679 0.52753 0.70523 0.0
C247 C 0.56778 0.58625 0.67781 0.0
C248 C 0.47508 0.59606 0.61414 0.0
C249 C 0.45938 0.57465 0.619 0.0
C250 C 0.46535 0.55854 0.61976 0.0
C251 C 0.4875 0.56404 0.61569 0.0
C252 C 0.50291 0.58524 0.60994 0.0
C253 C 0.49637 0.60094 0.60908 0.0
C254 C 0.44824 0.53585 0.62541 0.0
C255 C 0.52656 0.59154 0.60531 0.0
C256 C 0.50515 0.43398 0.5666 0.0
C257 C 0.51756 0.45787 0.5612 0.0
C258 C 0.5022 0.47946 0.57123 0.0
C259 C 0.48172 0.47427 0.57805 0.0
C260 C 0.48099 0.4876 0.58995 0.0
C261 C 0.50122 0.50683 0.59475 0.0
C262 C 0.52173 0.51293 0.58706 0.0
C263 C 0.52202 0.49908 0.57542 0.0
C264 C 0.45879 0.48075 0.59775 0.0
C265 C 0.54345 0.53379 0.59142 0.0
C266 C 0.53175 0.51134 0.66867 0.0
C267 C 0.53378 0.52557 0.68075 0.0
C268 C 0.52784 0.54143 0.67843 0.0
C269 C 0.51911 0.5429 0.66369 0.0
C270 C 0.51219 0.5581 0.66108 0.0
C271 C 0.50424 0.55984 0.64639 0.0
C272 C 0.50286 0.54639 0.63374 0.0
C273 C 0.49509 0.54824 0.61869 0.0
C274 C 0.49455 0.53507 0.60627 0.0
C275 C 0.50129 0.51975 0.60851 0.0
C276 C 0.50847 0.51721 0.62358 0.0
C277 C 0.51475 0.50151 0.62635 0.0
C278 C 0.52229 0.49948 0.64112 0.0
C279 C 0.52381 0.51303 0.65369 0.0
C280 C 0.51738 0.52883 0.65121 0.0
C281 C 0.5095 0.53077 0.63617 0.0
C282 C 0.46812 0.63801 0.63119 0.0
C283 C 0.45645 0.61432 0.62512 0.0
O284 O 0.55867 0.45217 0.68853 0.0
O285 O 0.50245 0.46525 0.5607 0.0
O286 O 0.47041 0.61244 0.61445 0.0
O287 O 0.55221 0.59648 0.73179 0.0
H288 H 0.59265 0.46652 0.68464 0.0
H289 H 0.58757 0.48671 0.70695 0.0
H290 H 0.57356 0.46179 0.71821 0.0
H291 H 0.60317 0.47421 0.71343 0.0
H292 H 0.58666 0.49315 0.67772 0.0
H293 H 0.51757 0.44297 0.68558 0.0
H294 H 0.581 0.53704 0.67595 0.0
H295 H 0.59669 0.52676 0.66602 0.0
H296 H 0.57479 0.52878 0.65573 0.0
H297 H 0.48725 0.44873 0.6811 0.0
H298 H 0.49479 0.47675 0.68484 0.0
H299 H 0.49191 0.46708 0.66503 0.0
H300 H 0.54747 0.57133 0.74632 0.0
H301 H 0.57436 0.59603 0.76673 0.0
H302 H 0.58733 0.60058 0.74776 0.0
H303 H 0.57992 0.61976 0.75533 0.0
H304 H 0.51431 0.5576 0.72877 0.0
H305 H 0.57299 0.60756 0.70537 0.0
H306 H 0.50115 0.51457 0.70638 0.0
H307 H 0.48581 0.52602 0.7152 0.0
H308 H 0.48711 0.52449 0.69407 0.0
H309 H 0.58351 0.60219 0.68033 0.0
H310 H 0.57247 0.57401 0.67444 0.0
H311 H 0.55906 0.58841 0.66757 0.0
H312 H 0.45399 0.60402 0.63563 0.0
H313 H 0.44254 0.57054 0.62234 0.0
H314 H 0.50821 0.61741 0.60509 0.0
H315 H 0.45353 0.53319 0.63715 0.0
H316 H 0.43104 0.53342 0.62633 0.0
H317 H 0.4475 0.52323 0.61729 0.0
H318 H 0.53646 0.60867 0.60095 0.0
H319 H 0.53561 0.58987 0.61557 0.0
H320 H 0.52577 0.58023 0.59598 0.0
H321 H 0.53139 0.46748 0.56994 0.0
H322 H 0.51697 0.42773 0.56717 0.0
H323 H 0.4982 0.43284 0.57851 0.0
H324 H 0.49092 0.42342 0.55843 0.0
H325 H 0.46645 0.45925 0.57448 0.0
H326 H 0.53772 0.50346 0.56965 0.0
H327 H 0.46033 0.47887 0.61057 0.0
H328 H 0.45453 0.49372 0.59616 0.0
H329 H 0.44467 0.46504 0.5929 0.0
H330 H 0.55708 0.53777 0.58287 0.0
H331 H 0.54058 0.54779 0.59208 0.0
H332 H 0.54931 0.53193 0.60319 0.0
H333 H 0.54045 0.52452 0.69211 0.0
H334 H 0.51292 0.56888 0.67038 0.0
H335 H 0.49934 0.57199 0.64507 0.0
H336 H 0.48892 0.53683 0.59471 0.0
H337 H 0.51395 0.49062 0.61713 0.0
H338 H 0.52703 0.48722 0.64254 0.0
H339 H 0.45709 0.63995 0.63965 0.0
H340 H 0.48417 0.64226 0.63734 0.0
H341 H 0.47215 0.6497 0.62137 0.0
C342 C 0.12975 0.55945 0.88678 0.0
C343 C 0.13865 0.55697 0.87094 0.0
C344 C 0.10307 0.52915 0.85815 0.0
C345 C 0.09497 0.54325 0.85461 0.0
C346 C 0.07284 0.53487 0.84893 0.0
C347 C 0.05846 0.51196 0.8468 0.0
C348 C 0.06671 0.49776 0.84991 0.0
C349 C 0.08902 0.50661 0.85542 0.0
C350 C 0.06461 0.55048 0.84553 0.0
C351 C 0.05177 0.47324 0.84777 0.0
C352 C 0.91806 0.44376 0.92644 0.0
C353 C 0.93138 0.44558 0.91232 0.0
C354 C 0.95421 0.47164 0.89206 0.0
C355 C 0.95578 0.45602 0.88285 0.0
C356 C 0.96912 0.4623 0.86938 0.0
C357 C 0.981 0.48461 0.8649 0.0
C358 C 0.97904 0.50031 0.87387 0.0
C359 C 0.96562 0.49358 0.88737 0.0
C360 C 0.97089 0.44511 0.86009 0.0
C361 C 0.99139 0.52419 0.86932 0.0
C362 C 0.89902 0.46852 0.77949 0.0
C363 C 0.90153 0.45098 0.78427 0.0
C364 C 0.92313 0.45385 0.78629 0.0
C365 C 0.94252 0.47486 0.78396 0.0
C366 C 0.93995 0.49228 0.77848 0.0
C367 C 0.91816 0.48872 0.77606 0.0
C368 C 0.9252 0.43459 0.79133 0.0
C369 C 0.9602 0.51483 0.77565 0.0
C370 C 0.10178 0.49374 0.74431 0.0
C371 C 0.08792 0.5038 0.73876 0.0
C372 C 0.04848 0.48705 0.74617 0.0
C373 C 0.03178 0.46706 0.75233 0.0
C374 C 0.01559 0.46616 0.76264 0.0
C375 C 0.01596 0.48572 0.76654 0.0
C376 C 0.03162 0.50567 0.75924 0.0
C377 C 0.0478 0.50614 0.74913 0.0
C378 C 0.99881 0.44452 0.76997 0.0
C379 C 0.03191 0.52664 0.76272 0.0
C380 C 0.03437 0.5029 0.84243 0.0
C381 C 0.01924 0.49877 0.85456 0.0
C382 C 0.99654 0.4915 0.8514 0.0
C383 C 0.98879 0.48909 0.83569 0.0
C384 C 0.96653 0.48354 0.83207 0.0
C385 C 0.95899 0.48086 0.81655 0.0
C386 C 0.97314 0.48274 0.80408 0.0
C387 C 0.96537 0.47915 0.78828 0.0
C388 C 0.97966 0.48034 0.77627 0.0
C389 C 0.00184 0.4857 0.77957 0.0
C390 C 0.01024 0.49036 0.79521 0.0
C391 C 0.03281 0.49678 0.79886 0.0
C392 C 0.04091 0.50135 0.81427 0.0
C393 C 0.02655 0.49892 0.82668 0.0
C394 C 0.0037 0.49223 0.8233 0.0
C395 C 0.99569 0.48846 0.80751 0.0
C396 C 0.84815 0.46659 0.7911 0.0
C397 C 0.8602 0.45401 0.78783 0.0
O398 O 0.12402 0.53643 0.86442 0.0
O399 O 0.06528 0.48746 0.73774 0.0
O400 O 0.87845 0.46658 0.7782 0.0
O401 O 0.94213 0.46621 0.90554 0.0
H402 H 0.14035 0.56995 0.86281 0.0
H403 H 0.11318 0.55831 0.88521 0.0
H404 H 0.12753 0.54635 0.89498 0.0
H405 H 0.14174 0.57573 0.89215 0.0
H406 H 0.1056 0.56077 0.85641 0.0
H407 H 0.09543 0.49586 0.85806 0.0
H408 H 0.05095 0.54737 0.85381 0.0
H409 H 0.07833 0.56796 0.84669 0.0
H410 H 0.05735 0.54758 0.83345 0.0
H411 H 0.06088 0.46446 0.8504 0.0
H412 H 0.03697 0.46696 0.85562 0.0
H413 H 0.0452 0.46938 0.83551 0.0
H414 H 0.9427 0.43876 0.91374 0.0
H415 H 0.92675 0.44037 0.93635 0.0
H416 H 0.92389 0.46103 0.93043 0.0
H417 H 0.8846 0.42138 0.91944 0.0
H418 H 0.94684 0.43891 0.88618 0.0
H419 H 0.96422 0.5055 0.89446 0.0
H420 H 0.96443 0.44417 0.84795 0.0
H421 H 0.98889 0.44979 0.85927 0.0
H422 H 0.96117 0.42856 0.86543 0.0
H423 H 0.98659 0.53402 0.87671 0.0
H424 H 0.00991 0.53114 0.87056 0.0
H425 H 0.98777 0.52578 0.85681 0.0
H426 H 0.86628 0.45153 0.79939 0.0
H427 H 0.88667 0.43508 0.78645 0.0
H428 H 0.91596 0.50202 0.77212 0.0
H429 H 0.9301 0.43646 0.80395 0.0
H430 H 0.90902 0.41874 0.78972 0.0
H431 H 0.93858 0.43404 0.78457 0.0
H432 H 0.95526 0.52692 0.77229 0.0
H433 H 0.97103 0.5209 0.78639 0.0
H434 H 0.97052 0.51391 0.7661 0.0
H435 H 0.09069 0.51633 0.74781 0.0
H436 H 0.12006 0.5065 0.74489 0.0
H437 H 0.09634 0.48682 0.75625 0.0
H438 H 0.09932 0.4803 0.7363 0.0
H439 H 0.03219 0.45235 0.74967 0.0
H440 H 0.06015 0.52147 0.74377 0.0
H441 H 0.00184 0.44546 0.78286 0.0
H442 H 0.98133 0.44109 0.76798 0.0
H443 H 2e-05 0.43063 0.76513 0.0
H444 H 0.04322 0.54012 0.75471 0.0
H445 H 0.01454 0.52383 0.76166 0.0
H446 H 0.03785 0.53193 0.77499 0.0
H447 H 0.02518 0.50101 0.86667 0.0
H448 H 0.95479 0.48146 0.84121 0.0
H449 H 0.94178 0.47692 0.8145 0.0
H450 H 0.97348 0.47714 0.76422 0.0
H451 H 0.04456 0.49853 0.78984 0.0
H452 H 0.05845 0.50641 0.81637 0.0
H453 H 0.84177 0.4698 0.77999 0.0
H454 H 0.83369 0.45709 0.7991 0.0
H455 H 0.8601 0.48259 0.79684 0.0
C456 C 0.42828 0.89122 0.92088 0.0
C457 C 0.43739 0.88612 0.93578 0.0
C458 C 0.46356 0.92362 0.94564 0.0
C459 C 0.44696 0.92777 0.95121 0.0
C460 C 0.4528 0.94882 0.95642 0.0
C461 C 0.47566 0.96609 0.95602 0.0
C462 C 0.49248 0.96186 0.95083 0.0
C463 C 0.4862 0.9406 0.94582 0.0
C464 C 0.43449 0.95274 0.9621 0.0
C465 C 0.51701 0.97992 0.95026 0.0
C466 C 0.4408 0.04043 0.87503 0.0
C467 C 0.46364 0.04958 0.88347 0.0
C468 C 0.46874 0.04992 0.91174 0.0
C469 C 0.48908 0.04995 0.91234 0.0
C470 C 0.49496 0.04226 0.92567 0.0
C471 C 0.47993 0.034 0.93848 0.0
C472 C 0.45972 0.03463 0.93805 0.0
C473 C 0.45468 0.0431 0.92477 0.0
C474 C 0.51689 0.04236 0.92584 0.0
C475 C 0.44294 0.02549 0.95126 0.0
C476 C 0.5229 0.12264 0.02281 0.0
C477 C 0.54031 0.12039 0.01641 0.0
C478 C 0.53719 0.09951 0.01361 0.0
C479 C 0.51611 0.08057 0.01704 0.0
C480 C 0.49884 0.08284 0.02398 0.0
C481 C 0.50263 0.1039 0.02697 0.0
C482 C 0.55627 0.09769 0.00678 0.0
C483 C 0.47622 0.06302 0.02792 0.0
C484 C 0.50582 0.93366 0.05873 0.0
C485 C 0.49395 0.94446 0.06639 0.0
C486 C 0.50857 0.98174 0.05726 0.0
C487 C 0.52891 0.99781 0.05072 0.0
C488 C 0.52925 0.01233 0.03941 0.0
C489 C 0.50874 0.01093 0.03487 0.0
C490 C 0.48833 0.99566 0.04228 0.0
C491 C 0.48846 0.98117 0.0534 0.0
C492 C 0.55134 0.02863 0.0319 0.0
C493 C 0.46628 0.99426 0.03814 0.0
C494 C 0.48171 0.98879 0.96018 0.0
C495 C 0.47941 0.00125 0.94847 0.0
C496 C 0.48413 0.02255 0.95148 0.0
C497 C 0.49163 0.0319 0.96663 0.0
C498 C 0.49685 0.05339 0.97006 0.0
C499 C 0.50342 0.06211 0.98516 0.0
C500 C 0.50537 0.04981 0.99736 0.0
C501 C 0.51173 0.05841 0.01281 0.0
C502 C 0.51312 0.04557 0.0247 0.0
C503 C 0.50829 0.02424 0.0216 0.0
C504 C 0.50221 0.01547 0.0062 0.0
C505 C 0.49751 0.99415 0.00265 0.0
C506 C 0.49091 0.98541 0.98758 0.0
C507 C 0.48883 0.99767 0.97545 0.0
C508 C 0.49379 0.01932 0.97869 0.0
C509 C 0.50059 0.02826 0.99407 0.0
C510 C 0.52553 0.17339 0.014 0.0
C511 C 0.53827 0.16123 0.01636 0.0
O512 O 0.45858 0.90374 0.93981 0.0
O513 O 0.50881 0.96699 0.06723 0.0
O514 O 0.525 0.14253 0.02509 0.0
O515 O 0.46199 0.05584 0.89859 0.0
H516 H 0.42551 0.88261 0.9456 0.0
H517 H 0.4261 0.90546 0.92287 0.0
H518 H 0.44016 0.89514 0.911 0.0
H519 H 0.41152 0.87691 0.91749 0.0
H520 H 0.42938 0.91481 0.9514 0.0
H521 H 0.49892 0.93725 0.94163 0.0
H522 H 0.43285 0.96402 0.95392 0.0
H523 H 0.4178 0.93729 0.96286 0.0
H524 H 0.43914 0.96078 0.97385 0.0
H525 H 0.52807 0.97396 0.94592 0.0
H526 H 0.51883 0.99323 0.94244 0.0
H527 H 0.52296 0.98715 0.96216 0.0
H528 H 0.46723 0.03597 0.88381 0.0
H529 H 0.44166 0.03515 0.86289 0.0
H530 H 0.42759 0.02595 0.88145 0.0
H531 H 0.43578 0.05298 0.87449 0.0
H532 H 0.50024 0.05579 0.90235 0.0
H533 H 0.43911 0.04337 0.92418 0.0
H534 H 0.52568 0.04835 0.93738 0.0
H535 H 0.51324 0.02534 0.92408 0.0
H536 H 0.52842 0.05281 0.91641 0.0
H537 H 0.42695 0.02497 0.94829 0.0
H538 H 0.43889 0.00862 0.95417 0.0
H539 H 0.45043 0.03584 0.96193 0.0
H540 H 0.54101 0.1566 0.00443 0.0
H541 H 0.55634 0.13489 0.01362 0.0
H542 H 0.48945 0.10585 0.03212 0.0
H543 H 0.55185 0.09141 0.99453 0.0
H544 H 0.57243 0.11376 0.00668 0.0
H545 H 0.55882 0.08581 0.01361 0.0
H546 H 0.46405 0.06762 0.03224 0.0
H547 H 0.46878 0.05228 0.0174 0.0
H548 H 0.47858 0.05332 0.03714 0.0
H549 H 0.47897 0.94039 0.05886 0.0
H550 H 0.49421 0.91557 0.05798 0.0
H551 H 0.51095 0.94003 0.04663 0.0
H552 H 0.52121 0.9373 0.06556 0.0
H553 H 0.54441 0.99835 0.05404 0.0
H554 H 0.47286 0.96934 0.05902 0.0
H555 H 0.55021 0.02547 0.01904 0.0
H556 H 0.55465 0.04553 0.03364 0.0
H557 H 0.56585 0.02777 0.03681 0.0
H558 H 0.45247 0.98332 0.0462 0.0
H559 H 0.46844 0.01086 0.03853 0.0
H560 H 0.46112 0.98781 0.02598 0.0
H561 H 0.47351 0.99411 0.93685 0.0
H562 H 0.49572 0.06362 0.96112 0.0
H563 H 0.50688 0.07863 0.98714 0.0
H564 H 0.51765 0.05213 0.03657 0.0
H565 H 0.49878 0.9839 0.01151 0.0
H566 H 0.48735 0.96887 0.98556 0.0
H567 H 0.52185 0.17827 0.02549 0.0
H568 H 0.53567 0.18834 0.00683 0.0
H569 H 0.50924 0.16256 0.00773 0.0
C570 C 0.55341 0.44835 0.08229 0.0
C571 C 0.56494 0.45241 0.09847 0.0
C572 C 0.55779 0.48029 0.10963 0.0
C573 C 0.53461 0.46609 0.1125 0.0
C574 C 0.52113 0.47435 0.11764 0.0
C575 C 0.53099 0.49722 0.11996 0.0
C576 C 0.55439 0.51149 0.11747 0.0
C577 C 0.5675 0.50278 0.11241 0.0
C578 C 0.49624 0.45871 0.12033 0.0
C579 C 0.56543 0.53597 0.11984 0.0
C580 C 0.47221 0.57137 0.03757 0.0
C581 C 0.4822 0.5689 0.0524 0.0
C582 C 0.47478 0.54235 0.07305 0.0
C583 C 0.493 0.55726 0.08269 0.0
C584 C 0.49862 0.55025 0.09645 0.0
C585 C 0.48562 0.52792 0.1008 0.0
C586 C 0.46685 0.51299 0.09142 0.0
C587 C 0.46167 0.52044 0.07764 0.0
C588 C 0.51882 0.56663 0.10616 0.0
C589 C 0.45256 0.48913 0.09582 0.0
C590 C 0.42849 0.55479 0.18537 0.0
C591 C 0.45052 0.5701 0.1806 0.0
C592 C 0.46664 0.56385 0.17866 0.0
C593 C 0.46031 0.54169 0.18109 0.0
C594 C 0.43834 0.52647 0.1865 0.0
C595 C 0.42283 0.53337 0.18882 0.0
C596 C 0.49024 0.58083 0.17367 0.0
C597 C 0.43103 0.50277 0.18941 0.0
C598 C 0.58183 0.50308 0.22254 0.0
C599 C 0.55841 0.49272 0.22992 0.0
C600 C 0.5395 0.51223 0.22244 0.0
C601 C 0.5473 0.53342 0.21694 0.0
C602 C 0.53482 0.53735 0.20567 0.0
C603 C 0.51385 0.51967 0.20015 0.0
C604 C 0.50515 0.49849 0.20659 0.0
C605 C 0.51815 0.49498 0.21765 0.0
C606 C 0.54445 0.56018 0.1992 0.0
C607 C 0.4825 0.47945 0.20134 0.0
C608 C 0.51653 0.50629 0.12404 0.0
C609 C 0.50672 0.51153 0.11169 0.0
C610 C 0.49283 0.52008 0.11452 0.0
C611 C 0.48788 0.52285 0.13012 0.0
C612 C 0.47295 0.53023 0.13338 0.0
C613 C 0.46868 0.53346 0.14879 0.0
C614 C 0.47966 0.53001 0.16151 0.0
C615 C 0.47617 0.53411 0.17721 0.0
C616 C 0.48753 0.53065 0.18954 0.0
C617 C 0.50212 0.52287 0.18664 0.0
C618 C 0.50559 0.51841 0.17106 0.0
C619 C 0.51998 0.51033 0.16776 0.0
C620 C 0.52332 0.50602 0.1524 0.0
C621 C 0.5128 0.51005 0.13972 0.0
C622 C 0.4983 0.51826 0.14277 0.0
C623 C 0.49448 0.52219 0.15846 0.0
C624 C 0.38433 0.56298 0.1722 0.0
C625 C 0.40943 0.57378 0.17651 0.0
O626 O 0.57136 0.47321 0.10401 0.0
O627 O 0.55298 0.50879 0.23223 0.0
O628 O 0.41229 0.56011 0.18663 0.0
O629 O 0.46959 0.54841 0.05923 0.0
H630 H 0.55309 0.43984 0.10686 0.0
H631 H 0.53771 0.44899 0.08306 0.0
H632 H 0.56488 0.46098 0.07381 0.0
H633 H 0.54873 0.43184 0.07774 0.0
H634 H 0.52679 0.4486 0.1106 0.0
H635 H 0.58539 0.5136 0.11027 0.0
H636 H 0.48617 0.46232 0.11193 0.0
H637 H 0.49134 0.44126 0.11882 0.0
H638 H 0.49177 0.46107 0.13237 0.0
H639 H 0.58395 0.54479 0.11783 0.0
H640 H 0.55768 0.54247 0.11164 0.0
H641 H 0.56242 0.53956 0.13197 0.0
H642 H 0.5006 0.57467 0.0518 0.0
H643 H 0.4847 0.57382 0.0282 0.0
H644 H 0.45912 0.55429 0.03351 0.0
H645 H 0.46422 0.59535 0.0432 0.0
H646 H 0.50312 0.57437 0.07947 0.0
H647 H 0.44755 0.50908 0.07022 0.0
H648 H 0.51326 0.56793 0.1181 0.0
H649 H 0.53101 0.56093 0.1075 0.0
H650 H 0.5277 0.58324 0.10086 0.0
H651 H 0.4373 0.48008 0.08815 0.0
H652 H 0.46279 0.48119 0.09485 0.0
H653 H 0.44716 0.4877 0.10822 0.0
H654 H 0.41856 0.5757 0.16533 0.0
H655 H 0.45512 0.58692 0.17842 0.0
H656 H 0.40585 0.5218 0.19274 0.0
H657 H 0.49237 0.57826 0.1611 0.0
H658 H 0.49365 0.59782 0.17516 0.0
H659 H 0.50303 0.57915 0.18056 0.0
H660 H 0.41284 0.49267 0.19243 0.0
H661 H 0.43414 0.49558 0.17883 0.0
H662 H 0.44121 0.50186 0.19923 0.0
H663 H 0.54621 0.47983 0.22159 0.0
H664 H 0.58652 0.49046 0.22063 0.0
H665 H 0.58167 0.51025 0.21099 0.0
H666 H 0.59484 0.51635 0.23021 0.0
H667 H 0.56366 0.54667 0.22097 0.0
H668 H 0.51177 0.47874 0.22245 0.0
H669 H 0.54722 0.55998 0.18639 0.0
H670 H 0.53219 0.56572 0.20081 0.0
H671 H 0.56075 0.57225 0.20497 0.0
H672 H 0.47695 0.46473 0.20876 0.0
H673 H 0.46946 0.48417 0.20169 0.0
H674 H 0.48361 0.47504 0.189 0.0
H675 H 0.51035 0.50935 0.09967 0.0
H676 H 0.46432 0.53348 0.12403 0.0
H677 H 0.45687 0.53898 0.15056 0.0
H678 H 0.48491 0.53396 0.20153 0.0
H679 H 0.52881 0.50719 0.17701 0.0
H680 H 0.5345 0.49975 0.15057 0.0
H681 H 0.3741 0.56035 0.18287 0.0
H682 H 0.38157 0.57342 0.16385 0.0
H683 H 0.37837 0.5468 0.16648 0.0
C684 C 0.60483 0.35977 0.41499 0.0
O685 O 0.62261 0.37638 0.42183 0.0
O686 O 0.64264 0.4051 0.39426 0.0
Zn687 Zn 0.6103 0.39589 0.39876 0.0
O688 O 0.60759 0.41142 0.41774 0.0
C689 C 0.60902 0.41777 0.37115 0.0
O690 O 0.63015 0.43089 0.37561 0.0
O691 O 0.59494 0.36372 0.40392 0.0
C692 C 0.60274 0.42643 0.41716 0.0
O693 O 0.60045 0.43351 0.40343 0.0
C694 C 0.66072 0.42254 0.39845 0.0
O695 O 0.65953 0.4375 0.40677 0.0
O696 O 0.59638 0.40104 0.37944 0.0
C697 C 0.24053 0.66695 0.55902 0.0
O698 O 0.22411 0.6563 0.54867 0.0
O699 O 0.2522 0.61604 0.5731 0.0
Zn700 Zn 0.22771 0.62317 0.57005 0.0
O701 O 0.21075 0.6112 0.54955 0.0
C702 C 0.20036 0.59361 0.59436 0.0
O703 O 0.20755 0.58141 0.58812 0.0
O704 O 0.24421 0.65621 0.56935 0.0
C705 C 0.19311 0.59246 0.54727 0.0
O706 O 0.18484 0.57848 0.5589 0.0
C707 C 0.2529 0.59932 0.56862 0.0
O708 O 0.23566 0.58345 0.56082 0.0
O709 O 0.20667 0.61234 0.58854 0.0
C710 C 0.60201 0.27073 0.72737 0.0
O711 O 0.61085 0.26458 0.71636 0.0
O712 O 0.64318 0.25851 0.74881 0.0
Zn713 Zn 0.60951 0.24086 0.7449 0.0
O714 O 0.602 0.2213 0.72593 0.0
C715 C 0.60363 0.21621 0.77331 0.0
O716 O 0.62515 0.22313 0.77132 0.0
O717 O 0.59914 0.26231 0.74094 0.0
C718 C 0.60807 0.20723 0.72496 0.0
O719 O 0.61971 0.20551 0.7366 0.0
C720 C 0.65737 0.265 0.73772 0.0
O721 O 0.65001 0.25927 0.72319 0.0
O722 O 0.59356 0.22201 0.76361 0.0
C723 C 0.42259 0.68059 0.90485 0.0
O724 O 0.41366 0.66605 0.91611 0.0
O725 O 0.38199 0.62556 0.88595 0.0
Zn726 Zn 0.41586 0.64256 0.889 0.0
O727 O 0.42444 0.63311 0.9088 0.0
C728 C 0.42041 0.62121 0.86163 0.0
O729 O 0.39909 0.60683 0.86449 0.0
O730 O 0.42568 0.67451 0.89152 0.0
C731 C 0.42078 0.61396 0.91141 0.0
O732 O 0.41123 0.59879 0.9004 0.0
C733 C 0.36845 0.6161 0.89721 0.0
O734 O 0.37664 0.61696 0.91136 0.0
O735 O 0.43107 0.638 0.87051 0.0
C736 C 0.74526 0.40926 0.0832 0.0
O737 O 0.7467 0.39722 0.09433 0.0
O738 O 0.74762 0.36348 0.0643 0.0
Zn739 Zn 0.77181 0.39514 0.06774 0.0
O740 O 0.79105 0.39996 0.08703 0.0
C741 C 0.79451 0.39268 0.04059 0.0
O742 O 0.78498 0.37216 0.04513 0.0
O743 O 0.75551 0.41155 0.07038 0.0
C744 C 0.80585 0.39439 0.08773 0.0
O745 O 0.80828 0.38429 0.07566 0.0
C746 C 0.74275 0.34695 0.07279 0.0
O747 O 0.75457 0.34955 0.08567 0.0
O748 O 0.79138 0.40602 0.04854 0.0
C749 C 0.43271 0.77662 0.22213 0.0
O750 O 0.43594 0.78978 0.21033 0.0
O751 O 0.378 0.77969 0.23949 0.0
Zn752 Zn 0.41153 0.79876 0.23637 0.0
O753 O 0.41748 0.81635 0.21646 0.0
C754 C 0.41476 0.82834 0.25996 0.0
O755 O 0.39721 0.82576 0.25187 0.0
O756 O 0.42356 0.77824 0.23455 0.0
C757 C 0.4295 0.83718 0.2159 0.0
O758 O 0.43869 0.84845 0.22888 0.0
C759 C 0.36586 0.7642 0.2299 0.0
O760 O 0.37536 0.7614 0.21752 0.0
O761 O 0.42465 0.81838 0.25542 0.0
H762 H 0.15377 0.63094 0.26405 0.0
H763 H 0.19089 0.66301 0.25839 0.0
H764 H 0.21998 0.62186 0.2578 0.0
H765 H 0.18312 0.58992 0.26404 0.0
H766 H 0.24644 0.65956 0.27387 0.0
H767 H 0.22144 0.67772 0.21626 0.0
H768 H 0.20485 0.67758 0.23241 0.0
H769 H 0.20361 0.6526 0.2267 0.0
C770 C 0.16816 0.62881 0.26296 0.0
C771 C 0.16567 0.60799 0.26485 0.0
C772 C 0.18929 0.64709 0.25951 0.0
C773 C 0.20815 0.64478 0.25747 0.0
C774 C 0.20568 0.62403 0.25936 0.0
H775 H 0.33577 0.72804 0.21272 0.0
H776 H 0.29707 0.70025 0.21968 0.0
C777 C 0.18466 0.60583 0.26296 0.0
C778 C 0.23055 0.66386 0.25341 0.0
H779 H 0.25856 0.70293 0.2255 0.0
C780 C 0.24908 0.66909 0.26332 0.0
C781 C 0.23399 0.67611 0.23953 0.0
C782 C 0.21498 0.67064 0.22802 0.0
C783 C 0.27098 0.68611 0.25971 0.0
C784 C 0.27435 0.69858 0.24598 0.0
C785 C 0.25584 0.69346 0.23609 0.0
C786 C 0.29718 0.7163 0.24133 0.0
C787 C 0.29042 0.69014 0.27035 0.0
C788 C 0.30982 0.73481 0.251 0.0
C789 C 0.33197 0.7507 0.24708 0.0
C790 C 0.34181 0.7484 0.23336 0.0
C791 C 0.32875 0.73026 0.2234 0.0
C792 C 0.30662 0.71437 0.22734 0.0
H793 H 0.28578 0.67599 0.2782 0.0
H794 H 0.30534 0.69334 0.26339 0.0
H795 H 0.2954 0.70478 0.27783 0.0
H796 H 0.30267 0.73681 0.26169 0.0
H797 H 0.3415 0.76455 0.25496 0.0
H798 H 0.55387 0.17183 0.47482 0.0
H799 H 0.54745 0.19967 0.46318 0.0
H800 H 0.60552 0.22077 0.43367 0.0
H801 H 0.6112 0.19221 0.44468 0.0
H802 H 0.57369 0.24136 0.46598 0.0
H803 H 0.5636 0.223 0.40253 0.0
H804 H 0.56228 0.20363 0.41681 0.0
H805 H 0.58918 0.22502 0.40954 0.0
C806 C 0.56495 0.18212 0.4656 0.0
C807 C 0.58317 0.18003 0.46076 0.0
C808 C 0.56127 0.19802 0.45896 0.0
C809 C 0.57583 0.21221 0.4474 0.0
C810 C 0.59365 0.20969 0.44223 0.0
H811 H 0.62578 0.34687 0.43579 0.0
H812 H 0.61468 0.3097 0.44336 0.0
C813 C 0.5971 0.19356 0.44869 0.0
C814 C 0.57412 0.23125 0.44214 0.0
H815 H 0.57779 0.26124 0.40979 0.0
C816 C 0.5741 0.24541 0.45366 0.0
C817 C 0.57416 0.23645 0.42608 0.0
C818 C 0.57203 0.22104 0.41307 0.0
C819 C 0.57565 0.26525 0.44962 0.0
C820 C 0.57803 0.27148 0.43367 0.0
C821 C 0.57644 0.25667 0.42206 0.0
C822 C 0.58421 0.29397 0.42899 0.0
C823 C 0.57512 0.27952 0.46257 0.0
C824 C 0.57116 0.29752 0.41795 0.0
C825 C 0.57766 0.31892 0.4134 0.0
C826 C 0.59735 0.33704 0.4198 0.0
C827 C 0.61038 0.33333 0.43076 0.0
C828 C 0.60398 0.31205 0.43519 0.0
H829 H 0.56522 0.26947 0.47272 0.0
H830 H 0.59264 0.29101 0.46682 0.0
H831 H 0.56766 0.28927 0.4584 0.0
H832 H 0.55595 0.28377 0.4129 0.0
H833 H 0.56732 0.32125 0.40488 0.0
H834 H 0.44815 0.62969 0.59776 0.0
H835 H 0.41159 0.62213 0.58723 0.0
H836 H 0.37741 0.57592 0.62449 0.0
H837 H 0.41397 0.58409 0.63539 0.0
H838 H 0.37278 0.58538 0.57675 0.0
H839 H 0.35625 0.61894 0.63061 0.0
H840 H 0.38334 0.62184 0.62687 0.0
H841 H 0.36039 0.59633 0.63408 0.0
C842 C 0.4328 0.61785 0.60363 0.0
C843 C 0.43387 0.60772 0.61752 0.0
C844 C 0.41194 0.61347 0.59759 0.0
C845 C 0.39181 0.5988 0.60526 0.0
C846 C 0.39277 0.5877 0.6186 0.0
H847 H 0.25761 0.56323 0.56691 0.0
H848 H 0.29045 0.5609 0.57536 0.0
C849 C 0.41363 0.59227 0.62476 0.0
C850 C 0.37007 0.59622 0.59982 0.0
H851 H 0.32776 0.60466 0.61107 0.0
C852 C 0.36284 0.58948 0.58425 0.0
C853 C 0.35729 0.60182 0.6096 0.0
C854 C 0.36476 0.61033 0.62617 0.0
C855 C 0.34332 0.58851 0.57813 0.0
C856 C 0.33055 0.59405 0.58795 0.0
C857 C 0.33754 0.60033 0.60359 0.0
C858 C 0.31087 0.59519 0.58205 0.0
C859 C 0.33708 0.58243 0.56106 0.0
C860 C 0.31136 0.61513 0.58317 0.0
C861 C 0.29263 0.61643 0.57859 0.0
C862 C 0.27296 0.59781 0.57271 0.0
C863 C 0.27258 0.57789 0.5713 0.0
C864 C 0.29135 0.57655 0.57605 0.0
H865 H 0.35129 0.58341 0.55433 0.0
H866 H 0.32256 0.5653 0.56022 0.0
H867 H 0.33193 0.59333 0.55548 0.0
H868 H 0.32624 0.62972 0.58775 0.0
H869 H 0.29357 0.63207 0.57975 0.0
H870 H 0.83342 0.41502 0.8025 0.0
H871 H 0.80343 0.38046 0.79108 0.0
H872 H 0.8196 0.40908 0.7449 0.0
H873 H 0.84913 0.44396 0.75639 0.0
H874 H 0.77594 0.39048 0.75048 0.0
H875 H 0.802 0.33137 0.76674 0.0
H876 H 0.8015 0.34625 0.7836 0.0
H877 H 0.82112 0.36071 0.76805 0.0
C878 C 0.83089 0.41374 0.78987 0.0
C879 C 0.84387 0.43202 0.7803 0.0
C880 C 0.81387 0.39395 0.78334 0.0
C881 C 0.8096 0.39198 0.76708 0.0
C882 C 0.8228 0.41013 0.75745 0.0
H883 H 0.6912 0.28717 0.71652 0.0
H884 H 0.7301 0.31675 0.72207 0.0
C885 C 0.83971 0.43001 0.764 0.0
C886 C 0.7897 0.3719 0.76047 0.0
H887 H 0.76221 0.31584 0.76063 0.0
C888 C 0.77317 0.37419 0.75241 0.0
C889 C 0.78607 0.35063 0.76301 0.0
C890 C 0.80375 0.3471 0.77068 0.0
C891 C 0.75265 0.3558 0.74754 0.0
C892 C 0.74862 0.33457 0.75072 0.0
C893 C 0.76539 0.33219 0.75828 0.0
C894 C 0.72635 0.31482 0.7473 0.0
C895 C 0.73495 0.35916 0.73965 0.0
C896 C 0.71171 0.30354 0.75969 0.0
C897 C 0.6895 0.28672 0.75659 0.0
C898 C 0.68159 0.28084 0.74101 0.0
C899 C 0.69672 0.29139 0.72864 0.0
C900 C 0.71893 0.30829 0.73177 0.0
H901 H 0.73955 0.37662 0.73998 0.0
H902 H 0.73297 0.35385 0.72718 0.0
H903 H 0.71833 0.34902 0.74539 0.0
H904 H 0.7172 0.30838 0.77176 0.0
H905 H 0.67834 0.27882 0.76639 0.0
H906 H 0.47183 0.88309 0.92198 0.0
H907 H 0.47264 0.84973 0.9159 0.0
H908 H 0.4066 0.81021 0.93612 0.0
H909 H 0.40573 0.84345 0.94232 0.0
H910 H 0.46664 0.81458 0.9377 0.0
H911 H 0.40168 0.78645 0.89007 0.0
H912 H 0.41716 0.8145 0.89714 0.0
H913 H 0.39411 0.79372 0.90828 0.0
C914 C 0.45765 0.8673 0.92535 0.0
C915 C 0.43889 0.86587 0.93294 0.0
C916 C 0.45811 0.8483 0.92181 0.0
C917 C 0.43964 0.82758 0.9255 0.0
C918 C 0.42095 0.82608 0.9331 0.0
H919 H 0.41955 0.69862 0.93233 0.0
H920 H 0.4263 0.7355 0.93667 0.0
C921 C 0.42053 0.84505 0.93672 0.0
C922 C 0.4397 0.80742 0.92129 0.0
H923 H 0.41209 0.76101 0.89867 0.0
C924 C 0.45486 0.80292 0.92908 0.0
C925 C 0.42452 0.79246 0.90989 0.0
C926 C 0.40854 0.79702 0.90073 0.0
C927 C 0.45465 0.78335 0.92617 0.0
C928 C 0.43875 0.76792 0.91528 0.0
C929 C 0.42418 0.77283 0.90707 0.0
C930 C 0.43616 0.74611 0.91276 0.0
C931 C 0.47137 0.77931 0.93481 0.0
C932 C 0.4392 0.73975 0.89781 0.0
C933 C 0.43527 0.71859 0.89525 0.0
C934 C 0.428 0.70338 0.90758 0.0
C935 C 0.42518 0.70992 0.92257 0.0
C936 C 0.42918 0.73106 0.92512 0.0
H937 H 0.48616 0.79487 0.93924 0.0
H938 H 0.46296 0.76865 0.94505 0.0
H939 H 0.4775 0.77085 0.92712 0.0
H940 H 0.44443 0.75111 0.88809 0.0
H941 H 0.43755 0.71405 0.88356 0.0
H942 H 0.60764 0.48329 0.08848 0.0
H943 H 0.64053 0.47908 0.0854 0.0
H944 H 0.60139 0.41237 0.1017 0.0
H945 H 0.56845 0.41648 0.10484 0.0
H946 H 0.6625 0.46645 0.10912 0.0
H947 H 0.62718 0.40852 0.05847 0.0
H948 H 0.61605 0.4255 0.06446 0.0
H949 H 0.60891 0.40102 0.07514 0.0
C950 C 0.60616 0.46782 0.09158 0.0
C951 C 0.58563 0.45033 0.09721 0.0
C952 C 0.62489 0.46543 0.08976 0.0
C953 C 0.62329 0.4454 0.09326 0.0
C954 C 0.60286 0.4279 0.09884 0.0
H955 H 0.72166 0.40776 0.1092 0.0
H956 H 0.69395 0.41927 0.11141 0.0
C957 C 0.58415 0.43031 0.10072 0.0
C958 C 0.64296 0.44271 0.09105 0.0
H959 H 0.66075 0.41329 0.07039 0.0
C960 C 0.66224 0.45495 0.10059 0.0
C961 C 0.6426 0.42792 0.07976 0.0
C962 C 0.62267 0.4151 0.06875 0.0
C963 C 0.68095 0.45223 0.09948 0.0
C964 C 0.68019 0.43676 0.08864 0.0
C965 C 0.6612 0.42506 0.07875 0.0
C966 C 0.6985 0.43177 0.08773 0.0
C967 C 0.70137 0.46591 0.1099 0.0
C968 C 0.71018 0.43494 0.07366 0.0
C969 C 0.726 0.42834 0.07234 0.0
C970 C 0.73021 0.41821 0.08503 0.0
C971 C 0.71883 0.41553 0.09922 0.0
C972 C 0.70309 0.42221 0.10054 0.0
H973 H 0.70178 0.4808 0.1144 0.0
H974 H 0.70077 0.45598 0.12014 0.0
H975 H 0.71727 0.47104 0.10349 0.0
H976 H 0.70675 0.44219 0.06363 0.0
H977 H 0.73445 0.43061 0.06124 0.0
H978 H 0.42262 0.84401 0.53539 0.0
H979 H 0.3879 0.80831 0.53835 0.0
H980 H 0.35015 0.84065 0.54554 0.0
H981 H 0.38498 0.87641 0.5431 0.0
H982 H 0.33957 0.80906 0.56678 0.0
H983 H 0.33629 0.77559 0.50741 0.0
H984 H 0.36271 0.78437 0.51731 0.0
H985 H 0.35488 0.80423 0.51233 0.0
C986 C 0.40684 0.84345 0.53736 0.0
C987 C 0.4064 0.86296 0.53853 0.0
C988 C 0.38701 0.82307 0.53898 0.0
C989 C 0.36632 0.82179 0.54173 0.0
C990 C 0.36587 0.84125 0.54319 0.0
H991 H 0.23994 0.69459 0.53688 0.0
H992 H 0.26836 0.73336 0.53302 0.0
C993 C 0.38574 0.86165 0.5417 0.0
C994 C 0.34538 0.80017 0.54385 0.0
H995 H 0.3129 0.7496 0.52685 0.0
C996 C 0.33358 0.79614 0.55798 0.0
C997 C 0.33733 0.78343 0.53225 0.0
C998 C 0.34833 0.78718 0.51641 0.0
C999 C 0.31449 0.77553 0.56108 0.0
C1000 C 0.30732 0.7584 0.54988 0.0
C1001 C 0.31855 0.76269 0.5355 0.0
C1002 C 0.28896 0.73562 0.55312 0.0
C1003 C 0.3022 0.7723 0.57631 0.0
C1004 C 0.29103 0.7241 0.56575 0.0
C1005 C 0.27481 0.702 0.56802 0.0
C1006 C 0.2563 0.69092 0.55759 0.0
C1007 C 0.25396 0.70264 0.54515 0.0
C1008 C 0.27021 0.72478 0.5429 0.0
H1009 H 0.30507 0.78813 0.58106 0.0
H1010 H 0.28372 0.7608 0.57478 0.0
H1011 H 0.30867 0.76534 0.58515 0.0
H1012 H 0.3056 0.73199 0.57358 0.0
H1013 H 0.27719 0.69346 0.57768 0.0
H1014 H 0.61449 0.44948 0.68935 0.0
H1015 H 0.6156 0.41635 0.69547 0.0
H1016 H 0.54704 0.38491 0.71202 0.0
H1017 H 0.54586 0.41805 0.70599 0.0
H1018 H 0.6075 0.39563 0.72601 0.0
H1019 H 0.5476 0.3407 0.67951 0.0
H1020 H 0.56163 0.37027 0.67854 0.0
H1021 H 0.53824 0.35534 0.69148 0.0
C1022 C 0.59956 0.43538 0.69408 0.0
C1023 C 0.57989 0.43612 0.69677 0.0
C1024 C 0.60025 0.41655 0.69764 0.0
C1025 C 0.58129 0.39813 0.70396 0.0
C1026 C 0.56169 0.39884 0.70685 0.0
H1027 H 0.58434 0.28806 0.74752 0.0
H1028 H 0.57771 0.31823 0.7424 0.0
C1029 C 0.56102 0.41773 0.70338 0.0
C1030 C 0.58235 0.37842 0.70792 0.0
H1031 H 0.56166 0.32498 0.6973 0.0
C1032 C 0.59743 0.38013 0.71981 0.0
C1033 C 0.56927 0.35835 0.69969 0.0
C1034 C 0.55336 0.35594 0.6865 0.0
C1035 C 0.59989 0.36227 0.72365 0.0
C1036 C 0.58672 0.34213 0.71548 0.0
C1037 C 0.57157 0.3404 0.70362 0.0
C1038 C 0.58942 0.32306 0.71844 0.0
C1039 C 0.61703 0.36528 0.73609 0.0
C1040 C 0.59753 0.31538 0.70652 0.0
C1041 C 0.60122 0.29811 0.70936 0.0
C1042 C 0.59678 0.28814 0.72419 0.0
C1043 C 0.58806 0.29548 0.736 0.0
C1044 C 0.58436 0.31277 0.73313 0.0
H1045 H 0.62903 0.38289 0.73885 0.0
H1046 H 0.60808 0.35709 0.74704 0.0
H1047 H 0.62684 0.35768 0.73231 0.0
H1048 H 0.60147 0.32308 0.69508 0.0
H1049 H 0.60789 0.29284 0.69998 0.0
H1050 H 0.14968 0.52645 0.88058 0.0
H1051 H 0.1875 0.53241 0.88592 0.0
H1052 H 0.21741 0.60036 0.87288 0.0
H1053 H 0.17975 0.59453 0.86751 0.0
H1054 H 0.22596 0.54908 0.86508 0.0
H1055 H 0.24262 0.60165 0.91774 0.0
H1056 H 0.21457 0.5841 0.9096 0.0
H1057 H 0.23351 0.61011 0.90072 0.0
C1058 C 0.16436 0.54257 0.87866 0.0
C1059 C 0.16184 0.55995 0.87332 0.0
C1060 C 0.18589 0.54596 0.88176 0.0
C1061 C 0.20515 0.56684 0.87989 0.0
C1062 C 0.2027 0.58417 0.87453 0.0
H1063 H 0.34621 0.61483 0.8701 0.0
H1064 H 0.30569 0.59985 0.86639 0.0
C1065 C 0.18123 0.58079 0.87136 0.0
C1066 C 0.22792 0.57072 0.88358 0.0
H1067 H 0.27433 0.60159 0.90691 0.0
C1068 C 0.23651 0.56038 0.87432 0.0
C1069 C 0.24141 0.58516 0.89582 0.0
C1070 C 0.23253 0.59576 0.90666 0.0
C1071 C 0.2587 0.56487 0.87655 0.0
C1072 C 0.27265 0.58032 0.8882 0.0
C1073 C 0.26368 0.5899 0.89789 0.0
C1074 C 0.2969 0.58763 0.89011 0.0
C1075 C 0.26701 0.5531 0.8664 0.0
C1076 C 0.30547 0.58599 0.90473 0.0
C1077 C 0.32868 0.59477 0.90695 0.0
C1078 C 0.34376 0.60543 0.89458 0.0
C1079 C 0.33506 0.60664 0.87985 0.0
C1080 C 0.31186 0.59793 0.87767 0.0
H1081 H 0.25274 0.53733 0.86176 0.0
H1082 H 0.27612 0.56356 0.85622 0.0
H1083 H 0.27883 0.54971 0.87303 0.0
H1084 H 0.2942 0.57822 0.91451 0.0
H1085 H 0.33483 0.59353 0.91843 0.0
H1086 H 0.54709 0.17058 0.04803 0.0
H1087 H 0.58282 0.19812 0.06059 0.0
H1088 H 0.61526 0.21389 0.01551 0.0
H1089 H 0.57972 0.18612 0.00296 0.0
H1090 H 0.64262 0.2128 0.04042 0.0
H1091 H 0.60488 0.26357 0.05481 0.0
H1092 H 0.5902 0.23606 0.06228 0.0
H1093 H 0.59139 0.24046 0.04145 0.0
C1094 C 0.56199 0.17961 0.04088 0.0
C1095 C 0.56073 0.17611 0.02454 0.0
C1096 C 0.58231 0.1954 0.04803 0.0
C1097 C 0.60158 0.20817 0.03894 0.0
C1098 C 0.60058 0.20415 0.02273 0.0
H1099 H 0.71441 0.33717 0.04759 0.0
H1100 H 0.68091 0.30202 0.0408 0.0
C1101 C 0.58031 0.18833 0.01558 0.0
C1102 C 0.62232 0.22687 0.04599 0.0
H1103 H 0.64297 0.27793 0.06195 0.0
C1104 C 0.64271 0.22696 0.04531 0.0
C1105 C 0.62234 0.24538 0.05219 0.0
C1106 C 0.60111 0.24657 0.05265 0.0
C1107 C 0.66323 0.24529 0.05043 0.0
C1108 C 0.66323 0.26385 0.05642 0.0
C1109 C 0.6428 0.26355 0.05743 0.0
C1110 C 0.68442 0.28456 0.06035 0.0
C1111 C 0.68491 0.24512 0.04881 0.0
C1112 C 0.69757 0.28632 0.07359 0.0
C1113 C 0.71682 0.30652 0.07758 0.0
C1114 C 0.72313 0.32521 0.06837 0.0
C1115 C 0.71006 0.32316 0.05497 0.0
C1116 C 0.69088 0.30308 0.05105 0.0
H1117 H 0.68235 0.23048 0.04222 0.0
H1118 H 0.69777 0.26015 0.0427 0.0
H1119 H 0.69176 0.24513 0.06066 0.0
H1120 H 0.69268 0.27222 0.08098 0.0
H1121 H 0.72653 0.30756 0.08796 0.0
H1122 H 0.40681 0.58382 0.2075 0.0
H1123 H 0.41637 0.61952 0.21856 0.0
H1124 H 0.43869 0.64917 0.17309 0.0
H1125 H 0.4297 0.61366 0.16208 0.0
H1126 H 0.46677 0.67567 0.19785 0.0
H1127 H 0.37597 0.64464 0.20934 0.0
H1128 H 0.38711 0.62942 0.21858 0.0
H1129 H 0.38509 0.6296 0.19752 0.0
C1130 C 0.41421 0.59807 0.19996 0.0
C1131 C 0.41777 0.59606 0.18396 0.0
C1132 C 0.41947 0.61838 0.20625 0.0
C1133 C 0.42794 0.6369 0.19659 0.0
C1134 C 0.4322 0.63508 0.18075 0.0
H1135 H 0.44878 0.76639 0.19627 0.0
H1136 H 0.45059 0.73337 0.19186 0.0
C1137 C 0.42707 0.61482 0.17448 0.0
C1138 C 0.43108 0.65789 0.20264 0.0
H1139 H 0.40198 0.68123 0.21653 0.0
C1140 C 0.45266 0.6769 0.20204 0.0
C1141 C 0.41261 0.65942 0.20806 0.0
C1142 C 0.38884 0.63976 0.20832 0.0
C1143 C 0.45622 0.69746 0.20664 0.0
C1144 C 0.43764 0.69904 0.21174 0.0
C1145 C 0.41621 0.67995 0.21269 0.0
C1146 C 0.43954 0.72039 0.21518 0.0
C1147 C 0.4798 0.7173 0.20598 0.0
C1148 C 0.43272 0.7241 0.22976 0.0
C1149 C 0.43148 0.7429 0.23229 0.0
C1150 C 0.43688 0.75827 0.22022 0.0
C1151 C 0.44455 0.75492 0.20583 0.0
C1152 C 0.44576 0.73611 0.20332 0.0
H1153 H 0.49283 0.71255 0.20655 0.0
H1154 H 0.48184 0.72592 0.19472 0.0
H1155 H 0.48293 0.72895 0.21575 0.0
H1156 H 0.42772 0.71211 0.23904 0.0
H1157 H 0.42554 0.74498 0.24351 0.0
H1158 H 0.82923 0.40662 0.36017 0.0
H1159 H 0.79943 0.41064 0.37224 0.0
H1160 H 0.81257 0.46223 0.33966 0.0
H1161 H 0.84183 0.45772 0.32722 0.0
H1162 H 0.79788 0.44471 0.38639 0.0
H1163 H 0.74622 0.41805 0.33138 0.0
H1164 H 0.77091 0.41579 0.33404 0.0
H1165 H 0.77394 0.44183 0.32932 0.0
C1166 C 0.82582 0.41889 0.35567 0.0
C1167 C 0.8376 0.43166 0.34264 0.0
C1168 C 0.80888 0.42124 0.36259 0.0
C1169 C 0.8035 0.43644 0.35664 0.0
C1170 C 0.8161 0.45005 0.34419 0.0
H1171 H 0.70276 0.45987 0.40126 0.0
H1172 H 0.73874 0.46537 0.39162 0.0
C1173 C 0.83288 0.44755 0.33716 0.0
C1174 C 0.78386 0.43706 0.36293 0.0
H1175 H 0.73165 0.42782 0.3527 0.0
C1176 C 0.78343 0.44115 0.37903 0.0
C1177 C 0.76494 0.43217 0.35331 0.0
C1178 C 0.76383 0.42651 0.33609 0.0
C1179 C 0.76444 0.44016 0.38582 0.0
C1180 C 0.74558 0.43532 0.37617 0.0
C1181 C 0.74621 0.43166 0.36004 0.0
C1182 C 0.72425 0.43221 0.38265 0.0
C1183 C 0.76434 0.44345 0.40333 0.0
C1184 C 0.7042 0.41187 0.38064 0.0
C1185 C 0.68371 0.40875 0.38596 0.0
C1186 C 0.68279 0.42594 0.39343 0.0
C1187 C 0.70294 0.44628 0.39563 0.0
C1188 C 0.72351 0.44942 0.3902 0.0
H1189 H 0.77807 0.44243 0.40946 0.0
H1190 H 0.76686 0.45993 0.4057 0.0
H1191 H 0.74787 0.431 0.40837 0.0
H1192 H 0.7044 0.39837 0.37485 0.0
H1193 H 0.66856 0.39285 0.38412 0.0
H1194 H 0.08769 0.59761 0.427 0.0
H1195 H 0.10398 0.59548 0.45214 0.0
H1196 H 0.11539 0.54585 0.43282 0.0
H1197 H 0.1 0.54863 0.40746 0.0
H1198 H 0.0935 0.5629 0.47286 0.0
H1199 H 0.17815 0.59139 0.44766 0.0
H1200 H 0.15605 0.5923 0.43682 0.0
H1201 H 0.15561 0.56686 0.43868 0.0
C1202 C 0.09373 0.58629 0.42813 0.0
C1203 C 0.09306 0.57364 0.4152 0.0
C1204 C 0.10291 0.58499 0.4425 0.0
C1205 C 0.11138 0.57087 0.44424 0.0
C1206 C 0.10955 0.55731 0.4316 0.0
H1207 H 0.15635 0.5534 0.53749 0.0
H1208 H 0.13582 0.54562 0.51239 0.0
C1209 C 0.10063 0.55881 0.41716 0.0
C1210 C 0.12281 0.57103 0.45912 0.0
H1211 H 0.17363 0.58222 0.47449 0.0
C1212 C 0.11099 0.56701 0.47323 0.0
C1213 C 0.1457 0.5766 0.45956 0.0
C1214 C 0.15972 0.58224 0.4449 0.0
C1215 C 0.12155 0.56884 0.48781 0.0
C1216 C 0.1444 0.57432 0.48823 0.0
C1217 C 0.15606 0.57786 0.4741 0.0
C1218 C 0.15717 0.57833 0.50319 0.0
C1219 C 0.10844 0.56581 0.50263 0.0
C1220 C 0.17643 0.59903 0.50611 0.0
C1221 C 0.18833 0.60342 0.52029 0.0
C1222 C 0.18119 0.5872 0.5319 0.0
C1223 C 0.16217 0.5663 0.52884 0.0
C1224 C 0.15034 0.56186 0.51455 0.0
H1225 H 0.09302 0.56668 0.50035 0.0
H1226 H 0.10305 0.54945 0.50763 0.0
H1227 H 0.11909 0.57848 0.51156 0.0
H1228 H 0.18204 0.61196 0.49748 0.0
H1229 H 0.20291 0.61969 0.52225 0.0
H1230 H 0.51357 0.06428 0.61358 0.0
H1231 H 0.52521 0.09179 0.63454 0.0
H1232 H 0.59526 0.11445 0.62531 0.0
H1233 H 0.58368 0.0872 0.60411 0.0
H1234 H 0.54923 0.09475 0.6611 0.0
H1235 H 0.59499 0.1717 0.62696 0.0
H1236 H 0.57638 0.14532 0.61783 0.0
H1237 H 0.60471 0.15298 0.62352 0.0
C1238 C 0.53146 0.07539 0.61585 0.0
C1239 C 0.54775 0.07384 0.60709 0.0
C1240 C 0.53808 0.09103 0.62784 0.0
C1241 C 0.5611 0.10537 0.63132 0.0
C1242 C 0.57742 0.1039 0.62257 0.0
H1243 H 0.61751 0.17486 0.71934 0.0
H1244 H 0.60616 0.15039 0.69646 0.0
C1245 C 0.57081 0.0883 0.61053 0.0
C1246 C 0.56792 0.12091 0.64472 0.0
H1247 H 0.59937 0.17522 0.65481 0.0
C1248 C 0.56012 0.11235 0.65972 0.0
C1249 C 0.5819 0.14388 0.64285 0.0
C1250 C 0.58983 0.15408 0.62691 0.0
C1251 C 0.56623 0.12611 0.67296 0.0
C1252 C 0.58089 0.149 0.67118 0.0
C1253 C 0.58836 0.15762 0.65614 0.0
C1254 C 0.5884 0.16426 0.68478 0.0
C1255 C 0.55668 0.11606 0.68871 0.0
C1256 C 0.58269 0.18053 0.68556 0.0
C1257 C 0.58922 0.19461 0.69856 0.0
C1258 C 0.6017 0.19272 0.71099 0.0
C1259 C 0.60779 0.17666 0.71002 0.0
C1260 C 0.60124 0.1626 0.697 0.0
H1261 H 0.54145 0.09938 0.68745 0.0
H1262 H 0.56963 0.1146 0.69554 0.0
H1263 H 0.55211 0.12652 0.69554 0.0
H1264 H 0.57287 0.18213 0.6762 0.0
H1265 H 0.58435 0.20686 0.69891 0.0
H1266 H 0.52052 0.55782 0.76681 0.0
H1267 H 0.49475 0.56127 0.78455 0.0
H1268 H 0.51784 0.62629 0.76697 0.0
H1269 H 0.5434 0.62277 0.74905 0.0
H1270 H 0.50847 0.59245 0.80789 0.0
H1271 H 0.44906 0.59855 0.76677 0.0
H1272 H 0.46712 0.58842 0.76078 0.0
H1273 H 0.47834 0.61746 0.76267 0.0
C1274 C 0.51971 0.57265 0.76651 0.0
C1275 C 0.53371 0.58991 0.75643 0.0
C1276 C 0.50506 0.57462 0.77666 0.0
C1277 C 0.50416 0.59391 0.77692 0.0
C1278 C 0.51786 0.61107 0.76669 0.0
H1279 H 0.46502 0.64615 0.85374 0.0
H1280 H 0.48453 0.639 0.83286 0.0
C1281 C 0.53251 0.60908 0.75652 0.0
C1282 C 0.4904 0.59682 0.78884 0.0
H1283 H 0.44847 0.6084 0.79354 0.0
C1284 C 0.49524 0.59579 0.80475 0.0
C1285 C 0.47302 0.60097 0.7847 0.0
C1286 C 0.46638 0.60122 0.7678 0.0
C1287 C 0.48355 0.59932 0.81666 0.0
C1288 C 0.46682 0.60434 0.81253 0.0
C1289 C 0.46152 0.60481 0.79663 0.0
C1290 C 0.45473 0.6092 0.82464 0.0
C1291 C 0.4891 0.59752 0.83359 0.0
C1292 C 0.43141 0.5951 0.82663 0.0
C1293 C 0.42019 0.59913 0.83855 0.0
C1294 C 0.4321 0.61744 0.8486 0.0
C1295 C 0.45537 0.63185 0.84627 0.0
C1296 C 0.46657 0.62775 0.83438 0.0
H1297 H 0.49824 0.58848 0.83473 0.0
H1298 H 0.5001 0.61424 0.83858 0.0
H1299 H 0.47348 0.58904 0.84068 0.0
H1300 H 0.42199 0.58073 0.81916 0.0
H1301 H 0.40223 0.58777 0.83997 0.0
H1302 H 0.89905 0.46062 0.89906 0.0
H1303 H 0.87914 0.4587 0.92931 0.0
H1304 H 0.88823 0.39601 0.94596 0.0
H1305 H 0.90878 0.39656 0.91642 0.0
H1306 H 0.84437 0.42711 0.9451 0.0
H1307 H 0.91307 0.43599 0.98407 0.0
H1308 H 0.91685 0.4412 0.9633 0.0
H1309 H 0.90442 0.41358 0.97063 0.0
C1310 C 0.89637 0.44823 0.90757 0.0
C1311 C 0.90988 0.43137 0.90578 0.0
C1312 C 0.88505 0.4476 0.92668 0.0
C1313 C 0.88327 0.42845 0.94138 0.0
C1314 C 0.89099 0.40818 0.93727 0.0
H1315 H 0.80763 0.36921 0.02293 0.0
H1316 H 0.83031 0.38084 0.99916 0.0
C1317 C 0.90249 0.40748 0.91857 0.0
C1318 C 0.87257 0.42742 0.95649 0.0
H1319 H 0.87631 0.42042 0.99582 0.0
C1320 C 0.85154 0.42607 0.95623 0.0
C1321 C 0.88203 0.4262 0.97099 0.0
C1322 C 0.90544 0.42956 0.97227 0.0
C1323 C 0.83904 0.42214 0.97 0.0
C1324 C 0.84798 0.41971 0.98435 0.0
C1325 C 0.86944 0.42205 0.98472 0.0
C1326 C 0.83465 0.41323 0.9989 0.0
C1327 C 0.81592 0.41954 0.96905 0.0
C1328 C 0.82983 0.42775 0.00667 0.0
C1329 C 0.81691 0.42119 0.02032 0.0
C1330 C 0.80859 0.39998 0.02635 0.0
C1331 C 0.81368 0.38561 0.01857 0.0
C1332 C 0.82668 0.39223 0.00501 0.0
H1333 H 0.81025 0.4191 0.95673 0.0
H1334 H 0.80328 0.40422 0.97499 0.0
H1335 H 0.81635 0.43352 0.97522 0.0
H1336 H 0.83607 0.44412 0.00218 0.0
H1337 H 0.81331 0.43265 0.02607 0.0
H1338 H 0.51929 0.9539 0.09363 0.0
H1339 H 0.5069 0.93658 0.11937 0.0
H1340 H 0.43883 0.89634 0.10127 0.0
H1341 H 0.45109 0.91372 0.07554 0.0
H1342 H 0.44228 0.91521 0.13197 0.0
H1343 H 0.49053 0.87243 0.12725 0.0
H1344 H 0.50686 0.90163 0.12441 0.0
H1345 H 0.48486 0.88457 0.11055 0.0
C1346 C 0.50164 0.94158 0.09522 0.0
C1347 C 0.48609 0.93529 0.08264 0.0
C1348 C 0.49462 0.93161 0.10987 0.0
C1349 C 0.47201 0.91506 0.11214 0.0
C1350 C 0.45635 0.90911 0.09973 0.0
H1351 H 0.41874 0.81873 0.18651 0.0
H1352 H 0.42765 0.83771 0.1613 0.0
C1353 C 0.46336 0.91904 0.08507 0.0
C1354 C 0.46484 0.90341 0.12729 0.0
H1355 H 0.47275 0.8696 0.15149 0.0
C1356 C 0.44891 0.90523 0.13626 0.0
C1357 C 0.4733 0.89016 0.1327 0.0
C1358 C 0.48969 0.88685 0.1232 0.0
C1359 C 0.44153 0.89444 0.15071 0.0
C1360 C 0.45045 0.88166 0.15629 0.0
C1361 C 0.46608 0.87955 0.14719 0.0
C1362 C 0.44384 0.87029 0.17156 0.0
C1363 C 0.42406 0.89652 0.15981 0.0
C1364 C 0.45004 0.88237 0.18565 0.0
C1365 C 0.44511 0.8716 0.20008 0.0
C1366 C 0.43386 0.84855 0.20065 0.0
C1367 C 0.42737 0.8365 0.18649 0.0
C1368 C 0.43245 0.84729 0.17207 0.0
H1369 H 0.41541 0.90297 0.15243 0.0
H1370 H 0.41115 0.88038 0.16463 0.0
H1371 H 0.43247 0.90801 0.16984 0.0
H1372 H 0.45913 0.90016 0.18548 0.0
H1373 H 0.45031 0.88136 0.21077 0.0
H1374 H 0.5418 0.44914 0.23574 0.0
H1375 H 0.54433 0.43225 0.26015 0.0
H1376 H 0.57839 0.4958 0.2829 0.0
H1377 H 0.57568 0.5127 0.25858 0.0
H1378 H 0.584 0.44187 0.27496 0.0
H1379 H 0.53095 0.45729 0.31522 0.0
H1380 H 0.52959 0.4593 0.29413 0.0
H1381 H 0.55181 0.48158 0.30537 0.0
C1382 C 0.54939 0.4594 0.24606 0.0
C1383 C 0.55817 0.48216 0.24537 0.0
C1384 C 0.55087 0.44977 0.25996 0.0
C1385 C 0.56116 0.46271 0.27341 0.0
C1386 C 0.56982 0.48542 0.27279 0.0
H1387 H 0.6331 0.44974 0.34982 0.0
H1388 H 0.61913 0.45806 0.32597 0.0
C1389 C 0.56835 0.49507 0.25889 0.0
C1390 C 0.5647 0.45286 0.28765 0.0
H1391 H 0.55661 0.44806 0.32729 0.0
C1392 C 0.57774 0.44295 0.28636 0.0
C1393 C 0.55629 0.45404 0.30248 0.0
C1394 C 0.54119 0.46343 0.3044 0.0
C1395 C 0.58352 0.43514 0.29964 0.0
C1396 C 0.57626 0.43753 0.31458 0.0
C1397 C 0.56231 0.44645 0.3158 0.0
C1398 C 0.58433 0.43224 0.32911 0.0
C1399 C 0.59766 0.42471 0.29763 0.0
C1400 C 0.56924 0.41519 0.3389 0.0
C1401 C 0.57719 0.41031 0.35259 0.0
C1402 C 0.60029 0.42263 0.35674 0.0
C1403 C 0.61523 0.43989 0.34696 0.0
C1404 C 0.60731 0.44463 0.33329 0.0
H1405 H 0.59684 0.41896 0.28536 0.0
H1406 H 0.61558 0.437 0.30051 0.0
H1407 H 0.59204 0.41058 0.30567 0.0
H1408 H 0.55141 0.40555 0.33588 0.0
H1409 H 0.56526 0.39699 0.35992 0.0
H1410 H 0.42241 0.93517 0.38028 0.0
H1411 H 0.42283 0.91926 0.35483 0.0
H1412 H 0.47141 0.90363 0.37314 0.0
H1413 H 0.47056 0.91897 0.39874 0.0
H1414 H 0.45751 0.929 0.33407 0.0
H1415 H 0.42051 0.84431 0.35731 0.0
H1416 H 0.42106 0.86618 0.36848 0.0
H1417 H 0.44621 0.86468 0.36688 0.0
C1418 C 0.43323 0.92841 0.37883 0.0
C1419 C 0.44634 0.92816 0.39149 0.0
C1420 C 0.4335 0.91938 0.36431 0.0
C1421 C 0.44687 0.90995 0.36219 0.0
C1422 C 0.46061 0.91041 0.37463 0.0
H1423 H 0.44796 0.83441 0.28096 0.0
H1424 H 0.45906 0.85606 0.30536 0.0
C1425 C 0.46023 0.91929 0.3892 0.0
C1426 C 0.44582 0.89913 0.34706 0.0
H1427 H 0.42948 0.84926 0.33045 0.0
C1428 C 0.45151 0.91159 0.33328 0.0
C1429 C 0.43805 0.87642 0.34608 0.0
C1430 C 0.43092 0.86203 0.36044 0.0
C1431 C 0.44929 0.90187 0.31849 0.0
C1432 C 0.44091 0.87908 0.3175 0.0
C1433 C 0.43594 0.86676 0.3313 0.0
C1434 C 0.43551 0.86734 0.30224 0.0
C1435 C 0.4558 0.91603 0.30405 0.0
C1436 C 0.41855 0.86647 0.2925 0.0
C1437 C 0.41211 0.85408 0.27864 0.0
C1438 C 0.42247 0.84225 0.27428 0.0
C1439 C 0.43969 0.84337 0.28397 0.0
C1440 C 0.44606 0.85572 0.2979 0.0
H1441 H 0.46776 0.93361 0.30697 0.0
H1442 H 0.46367 0.91062 0.29519 0.0
H1443 H 0.44038 0.91466 0.29869 0.0
H1444 H 0.40988 0.87495 0.29581 0.0
H1445 H 0.39876 0.85354 0.27146 0.0
H1446 H 0.56114 0.46983 0.55445 0.0
H1447 H 0.5768 0.46881 0.52902 0.0
H1448 H 0.51237 0.448 0.50663 0.0
H1449 H 0.49652 0.44862 0.53213 0.0
H1450 H 0.52902 0.42173 0.49927 0.0
H1451 H 0.59552 0.50891 0.49099 0.0
H1452 H 0.59757 0.49821 0.50961 0.0
H1453 H 0.57326 0.50041 0.50516 0.0
C1454 C 0.55048 0.46551 0.54404 0.0
C1455 C 0.52774 0.45971 0.54521 0.0
C1456 C 0.55946 0.46503 0.52951 0.0
C1457 C 0.54588 0.45875 0.51588 0.0
C1458 C 0.52322 0.45316 0.51698 0.0
H1459 H 0.58909 0.45629 0.42016 0.0
H1460 H 0.57587 0.46538 0.44399 0.0
C1461 C 0.51421 0.45359 0.53152 0.0
C1462 C 0.55471 0.45602 0.50078 0.0
H1463 H 0.5974 0.48258 0.47445 0.0
C1464 C 0.54385 0.43509 0.49378 0.0
C1465 C 0.57395 0.47351 0.49356 0.0
C1466 C 0.58564 0.49658 0.50012 0.0
C1467 C 0.55207 0.431 0.47999 0.0
C1468 C 0.57188 0.44823 0.47317 0.0
C1469 C 0.58238 0.46935 0.47986 0.0
C1470 C 0.58188 0.44442 0.45911 0.0
C1471 C 0.53944 0.40826 0.47281 0.0
C1472 C 0.59028 0.43017 0.45987 0.0
C1473 C 0.59784 0.42495 0.44632 0.0
C1474 C 0.59718 0.43392 0.43175 0.0
C1475 C 0.58972 0.449 0.43118 0.0
C1476 C 0.58218 0.45424 0.44477 0.0
H1477 H 0.52185 0.39852 0.47719 0.0
H1478 H 0.53883 0.40907 0.45981 0.0
H1479 H 0.54832 0.39944 0.47594 0.0
H1480 H 0.59052 0.42271 0.4709 0.0
H1481 H 0.60363 0.41341 0.44722 0.0
H1482 H 0.08557 0.48439 0.71028 0.0
H1483 H 0.10198 0.50239 0.68533 0.0
H1484 H 0.1237 0.56549 0.70659 0.0
H1485 H 0.10811 0.54761 0.73173 0.0
H1486 H 0.09506 0.52871 0.6658 0.0
H1487 H 0.1826 0.5743 0.69043 0.0
H1488 H 0.15925 0.55267 0.70101 0.0
H1489 H 0.16308 0.57969 0.70031 0.0
C1490 C 0.09385 0.50209 0.70959 0.0
C1491 C 0.09595 0.51465 0.72298 0.0
C1492 C 0.10312 0.51235 0.69535 0.0
C1493 C 0.11451 0.53532 0.6942 0.0
C1494 C 0.11554 0.5478 0.70733 0.0
H1495 H 0.18991 0.61741 0.61422 0.0
H1496 H 0.16719 0.60446 0.63811 0.0
C1497 C 0.10651 0.53757 0.72164 0.0
C1498 C 0.12596 0.5461 0.67942 0.0
H1499 H 0.17792 0.58094 0.66395 0.0
C1500 C 0.11315 0.54022 0.66541 0.0
C1501 C 0.14961 0.56108 0.67893 0.0
C1502 C 0.16451 0.56719 0.69343 0.0
C1503 C 0.12343 0.5487 0.65091 0.0
C1504 C 0.14703 0.56338 0.65045 0.0
C1505 C 0.15976 0.56977 0.66444 0.0
C1506 C 0.15918 0.57091 0.63547 0.0
C1507 C 0.10911 0.54176 0.63612 0.0
C1508 C 0.16214 0.55628 0.6262 0.0
C1509 C 0.17528 0.56363 0.61272 0.0
C1510 C 0.18557 0.58574 0.60822 0.0
C1511 C 0.18214 0.60027 0.61736 0.0
C1512 C 0.16919 0.59293 0.63098 0.0
H1513 H 0.09078 0.5337 0.6387 0.0
H1514 H 0.11402 0.55615 0.62848 0.0
H1515 H 0.11196 0.52995 0.62948 0.0
H1516 H 0.15472 0.53927 0.62962 0.0
H1517 H 0.17753 0.55202 0.6059 0.0
H1518 H 0.49521 0.05 0.86402 0.0
H1519 H 0.52219 0.07984 0.84725 0.0
H1520 H 0.49918 0.12175 0.86516 0.0
H1521 H 0.47237 0.09201 0.88213 0.0
H1522 H 0.5102 0.09882 0.82401 0.0
H1523 H 0.56809 0.16187 0.86724 0.0
H1524 H 0.54934 0.13348 0.87242 0.0
H1525 H 0.53866 0.15174 0.87061 0.0
C1526 C 0.49627 0.06574 0.86461 0.0
C1527 C 0.48194 0.06882 0.87452 0.0
C1528 C 0.51162 0.08273 0.85501 0.0
C1529 C 0.51291 0.1031 0.85512 0.0
C1530 C 0.49885 0.10634 0.86517 0.0
H1531 H 0.55867 0.19742 0.7799 0.0
H1532 H 0.53737 0.17043 0.80018 0.0
C1533 C 0.48351 0.08935 0.8748 0.0
C1534 C 0.52751 0.12023 0.84374 0.0
H1535 H 0.57059 0.17354 0.84067 0.0
C1536 C 0.5235 0.11511 0.82766 0.0
C1537 C 0.54497 0.1414 0.84853 0.0
C1538 C 0.55072 0.14745 0.86564 0.0
C1539 C 0.53615 0.13074 0.81622 0.0
C1540 C 0.55301 0.15216 0.82099 0.0
C1541 C 0.55744 0.15716 0.83707 0.0
C1542 C 0.56622 0.1695 0.80939 0.0
C1543 C 0.5315 0.12414 0.79911 0.0
C1544 C 0.58962 0.1784 0.80819 0.0
C1545 C 0.60188 0.19388 0.79663 0.0
C1546 C 0.59094 0.20081 0.78614 0.0
C1547 C 0.56759 0.19234 0.78772 0.0
C1548 C 0.55537 0.17686 0.79926 0.0
H1549 H 0.52216 0.106 0.79755 0.0
H1550 H 0.521 0.13033 0.79396 0.0
H1551 H 0.5475 0.13133 0.79244 0.0
H1552 H 0.5983 0.17298 0.81596 0.0
H1553 H 0.61985 0.20014 0.79578 0.0
H1554 H 0.51439 0.6173 0.04828 0.0
H1555 H 0.49715 0.61861 0.01747 0.0
H1556 H 0.41887 0.5593 0.03186 0.0
H1557 H 0.43395 0.5567 0.06321 0.0
H1558 H 0.47515 0.58453 0.99513 0.0
H1559 H 0.41032 0.60531 0.0102 0.0
H1560 H 0.4294 0.60499 0.02468 0.0
H1561 H 0.40465 0.57975 0.01837 0.0
C1562 C 0.49651 0.60741 0.04552 0.0
C1563 C 0.47668 0.5841 0.05805 0.0
C1564 C 0.48584 0.6073 0.02615 0.0
C1565 C 0.45654 0.5884 0.02103 0.0
C1566 C 0.4364 0.57001 0.03524 0.0
H1567 H 0.41491 0.57472 0.9216 0.0
H1568 H 0.42236 0.5661 0.94807 0.0
C1569 C 0.44539 0.56885 0.05498 0.0
C1570 C 0.44914 0.58907 0.00488 0.0
H1571 H 0.41305 0.59845 0.98328 0.0
C1572 C 0.46144 0.58738 0.9925 0.0
C1573 C 0.4314 0.59299 0.00159 0.0
C1574 C 0.41834 0.59608 0.01442 0.0
C1575 C 0.45663 0.58975 0.97683 0.0
C1576 C 0.43899 0.59381 0.97353 0.0
C1577 C 0.42644 0.59513 0.9859 0.0
C1578 C 0.43458 0.59869 0.95746 0.0
C1579 C 0.47095 0.58876 0.96395 0.0
C1580 C 0.43887 0.61978 0.95408 0.0
C1581 C 0.43467 0.62475 0.93906 0.0
C1582 C 0.42596 0.60866 0.92712 0.0
C1583 C 0.4217 0.58749 0.93052 0.0
C1584 C 0.42598 0.58255 0.94561 0.0
H1585 H 0.48609 0.58885 0.96867 0.0
H1586 H 0.46071 0.57346 0.95698 0.0
H1587 H 0.47661 0.60286 0.95588 0.0
H1588 H 0.44552 0.63245 0.96309 0.0
H1589 H 0.4381 0.64121 0.93687 0.0
H1590 H 0.96122 0.49598 0.19274 0.0
H1591 H 0.9305 0.48213 0.17322 0.0
H1592 H 0.91217 0.41566 0.18388 0.0
H1593 H 0.94257 0.42944 0.20368 0.0
H1594 H 0.926 0.4582 0.14701 0.0
H1595 H 0.85123 0.41174 0.18493 0.0
H1596 H 0.87894 0.43131 0.19273 0.0
H1597 H 0.87211 0.40403 0.18742 0.0
C1598 C 0.9504 0.47841 0.19108 0.0
C1599 C 0.9541 0.46376 0.19983 0.0
C1600 C 0.93291 0.47052 0.17992 0.0
C1601 C 0.91884 0.44786 0.17727 0.0
C1602 C 0.92246 0.43318 0.18601 0.0
H1603 H 0.84045 0.38669 0.09248 0.0
H1604 H 0.86733 0.39921 0.11454 0.0
C1605 C 0.93988 0.44105 0.19723 0.0
C1606 C 0.90134 0.43969 0.16467 0.0
H1607 H 0.84481 0.40578 0.1573 0.0
C1608 C 0.90823 0.44682 0.14927 0.0
C1609 C 0.87814 0.42504 0.16769 0.0
C1610 C 0.86959 0.41773 0.18411 0.0
C1611 C 0.89262 0.4394 0.13673 0.0
C1612 C 0.86957 0.4241 0.13965 0.0
C1613 C 0.86256 0.41729 0.15509 0.0
C1614 C 0.85245 0.41531 0.12682 0.0
C1615 C 0.9009 0.44826 0.12051 0.0
C1616 C 0.83472 0.41957 0.12671 0.0
C1617 C 0.81924 0.41234 0.11417 0.0
C1618 C 0.8212 0.40065 0.10154 0.0
C1619 C 0.83855 0.39578 0.10196 0.0
C1620 C 0.854 0.40301 0.11451 0.0
H1621 H 0.91763 0.46376 0.12094 0.0
H1622 H 0.90275 0.436 0.11364 0.0
H1623 H 0.88866 0.45138 0.1142 0.0
H1624 H 0.83317 0.42893 0.13616 0.0
H1625 H 0.80601 0.41628 0.11426 0.0
loop_
_geom_bond_atom_site_label_1
_geom_bond_atom_site_label_2
_geom_bond_distance
_geom_bond_site_symmetry_2
_ccdc_geom_bond_type
C0 C1 1.560 . S
C0 H61 0.959 . S
C0 H62 0.959 . S
C0 H63 0.960 . S
C1 C0 1.560 . S
C1 O56 1.426 . S
C1 H60 0.980 . S
C2 C3 1.407 . S
C2 C7 1.418 . S
C2 O56 1.334 . S
C3 C2 1.407 . S
C3 C4 1.360 . S
C3 H64 0.929 . S
C4 C3 1.360 . S
C4 C5 1.401 . S
C4 C8 1.527 . S
C5 C4 1.401 . S
C5 C6 1.405 . S
C5 C38 1.587 . S
C6 C5 1.405 . S
C6 C7 1.332 . S
C6 C9 1.496 . S
C7 C2 1.418 . S
C7 C6 1.332 . S
C7 H65 0.929 . S
C8 C4 1.527 . S
C8 H66 0.959 . S
C8 H67 0.961 . S
C8 H68 0.961 . S
C9 C6 1.496 . S
C9 H69 0.960 . S
C9 H70 0.960 . S
C9 H71 0.961 . S
C10 C11 1.517 . S
C10 H73 0.961 . S
C10 H74 0.960 . S
C10 H75 0.959 . S
C11 C10 1.517 . S
C11 O59 1.468 . S
C11 H72 0.980 . S
C12 C13 1.349 . S
C12 C17 1.367 . S
C12 O59 1.408 . S
C13 C12 1.349 . S
C13 C14 1.407 . S
C13 H76 0.930 . S
C14 C13 1.407 . S
C14 C15 1.449 . S
C14 C18 1.535 . S
C15 C14 1.449 . S
C15 C16 1.384 . S
C15 C40 1.553 1_655 S
C16 C15 1.384 . S
C16 C17 1.364 . S
C16 C19 1.450 . S
C17 C12 1.367 . S
C17 C16 1.364 . S
C17 H77 0.931 . S
C18 C14 1.535 . S
C18 H78 0.959 1_655 S
C18 H79 0.961 . S
C18 H80 0.959 . S
C19 C16 1.450 . S
C19 H81 0.960 . S
C19 H82 0.960 1_655 S
C19 H83 0.960 . S
C20 C21 1.309 . S
C20 C25 1.304 . S
C20 O58 1.435 . S
C21 C20 1.309 . S
C21 C22 1.476 . S
C21 H85 0.930 . S
C22 C21 1.476 . S
C22 C23 1.400 . S
C22 C26 1.567 . S
C23 C22 1.400 . S
C23 C24 1.373 . S
C23 C45 1.432 . S
C24 C23 1.373 . S
C24 C25 1.339 . S
C24 C27 1.530 . S
C25 C20 1.304 . S
C25 C24 1.339 . S
C25 H86 0.930 . S
C26 C22 1.567 . S
C26 H87 0.961 . S
C26 H88 0.960 . S
C26 H89 0.958 . S
C27 C24 1.530 . S
C27 H90 0.961 . S
C27 H91 0.960 . S
C27 H92 0.960 . S
C28 C29 1.530 . S
C28 H94 0.961 . S
C28 H95 0.961 . S
C28 H96 0.959 . S
C29 C28 1.530 . S
C29 O57 1.412 . S
C29 H93 0.980 . S
C30 C31 1.288 . S
C30 C35 1.377 . S
C30 O57 1.393 . S
C31 C30 1.288 . S
C31 C32 1.369 . S
C31 H97 0.932 . S
C32 C31 1.369 . S
C32 C33 1.398 . S
C32 C36 1.527 . S
C33 C32 1.398 . S
C33 C34 1.380 . S
C33 C47 1.497 . S
C34 C33 1.380 . S
C34 C35 1.383 . S
C34 C37 1.603 . S
C35 C30 1.377 . S
C35 C34 1.383 . S
C35 H98 0.929 . S
C36 C32 1.527 . S
C36 H99 0.961 . S
C36 H100 0.959 1_455 S
C36 H101 0.959 . S
C37 C34 1.603 . S
C37 H102 0.960 . S
C37 H103 0.962 . S
C37 H104 0.961 . S
C38 C5 1.587 . S
C38 C39 1.360 . S
C38 C51 1.412 . S
C39 C38 1.360 . S
C39 C40 1.365 . S
C39 H105 0.929 . S
C40 C15 1.553 1_455 S
C40 C39 1.365 . S
C40 C41 1.404 1_455 S
C41 C40 1.404 1_655 S
C41 C42 1.395 . S
C41 C52 1.451 1_655 S
C42 C41 1.395 . S
C42 C43 1.322 . S
C42 H106 0.930 . S
C43 C42 1.322 . S
C43 C44 1.459 . S
C43 H107 0.929 . S
C44 C43 1.459 . S
C44 C45 1.445 . S
C44 C53 1.395 1_655 S
C45 C23 1.432 . S
C45 C44 1.445 . S
C45 C46 1.370 . S
C46 C45 1.370 . S
C46 C47 1.438 1_655 S
C46 H108 0.930 . S
C47 C33 1.497 . S
C47 C46 1.438 1_455 S
C47 C48 1.360 . S
C48 C47 1.360 . S
C48 C49 1.401 . S
C48 C53 1.446 . S
C49 C48 1.401 . S
C49 C50 1.347 . S
C49 H109 0.929 . S
C50 C49 1.347 . S
C50 C51 1.455 . S
C50 H110 0.930 . S
C51 C38 1.412 . S
C51 C50 1.455 . S
C51 C52 1.331 . S
C52 C41 1.451 1_455 S
C52 C51 1.331 . S
C52 C53 1.497 . S
C53 C44 1.395 1_455 S
C53 C48 1.446 . S
C53 C52 1.497 . S
C54 C55 1.582 . S
C54 H111 0.962 . S
C54 H112 0.959 . S
C54 H113 0.958 . S
C55 C54 1.582 . S
C55 O58 1.458 . S
C55 H84 0.980 . S
O56 C1 1.426 . S
O56 C2 1.334 . S
O57 C29 1.412 . S
O57 C30 1.393 . S
O58 C20 1.435 . S
O58 C55 1.458 . S
O59 C11 1.468 . S
O59 C12 1.408 . S
H60 C1 0.980 . S
H61 C0 0.959 . S
H62 C0 0.959 . S
H63 C0 0.960 . S
H64 C3 0.929 . S
H65 C7 0.929 . S
H66 C8 0.959 . S
H67 C8 0.961 . S
H68 C8 0.961 . S
H69 C9 0.960 . S
H70 C9 0.960 . S
H71 C9 0.961 . S
H72 C11 0.980 . S
H73 C10 0.961 . S
H74 C10 0.960 . S
H75 C10 0.959 . S
H76 C13 0.930 . S
H77 C17 0.931 . S
H78 C18 0.959 1_455 S
H79 C18 0.961 . S
H80 C18 0.959 . S
H81 C19 0.960 . S
H82 C19 0.960 1_455 S
H83 C19 0.960 . S
H84 C55 0.980 . S
H85 C21 0.930 . S
H86 C25 0.930 . S
H87 C26 0.961 . S
H88 C26 0.960 . S
H89 C26 0.958 . S
H90 C27 0.961 . S
H91 C27 0.960 . S
H92 C27 0.960 . S
H93 C29 0.980 . S
H94 C28 0.961 . S
H95 C28 0.961 . S
H96 C28 0.959 . S
H97 C31 0.932 . S
H98 C35 0.929 . S
H99 C36 0.961 . S
H100 C36 0.959 1_655 S
H101 C36 0.959 . S
H102 C37 0.960 . S
H103 C37 0.962 . S
H104 C37 0.961 . S
H105 C39 0.929 . S
H106 C42 0.930 . S
H107 C43 0.929 . S
H108 C46 0.930 . S
H109 C49 0.929 . S
H110 C50 0.930 . S
H111 C54 0.962 . S
H112 C54 0.959 . S
H113 C54 0.958 . S
C114 C115 1.560 . S
C114 H175 0.959 . S
C114 H176 0.959 . S
C114 H177 0.960 . S
C115 C114 1.560 . S
C115 O170 1.426 . S
C115 H174 0.980 . S
C116 C117 1.407 . S
C116 C121 1.418 . S
C116 O170 1.334 . S
C117 C116 1.407 . S
C117 C118 1.360 . S
C117 H178 0.929 . S
C118 C117 1.360 . S
C118 C119 1.401 . S
C118 C122 1.527 . S
C119 C118 1.401 . S
C119 C120 1.405 . S
C119 C152 1.587 . S
C120 C119 1.405 . S
C120 C121 1.332 . S
C120 C123 1.496 . S
C121 C116 1.418 . S
C121 C120 1.332 . S
C121 H179 0.929 . S
C122 C118 1.527 . S
C122 H180 0.959 . S
C122 H181 0.961 . S
C122 H182 0.961 . S
C123 C120 1.496 . S
C123 H183 0.960 . S
C123 H184 0.960 . S
C123 H185 0.961 . S
C124 C125 1.517 . S
C124 H187 0.961 . S
C124 H188 0.960 . S
C124 H189 0.959 . S
C125 C124 1.517 . S
C125 O173 1.468 . S
C125 H186 0.980 . S
C126 C127 1.349 . S
C126 C131 1.367 . S
C126 O173 1.408 . S
C127 C126 1.349 . S
C127 C128 1.407 . S
C127 H190 0.930 . S
C128 C127 1.407 . S
C128 C129 1.449 . S
C128 C132 1.535 . S
C129 C128 1.449 . S
C129 C130 1.384 . S
C129 C154 1.553 . S
C130 C129 1.384 . S
C130 C131 1.364 . S
C130 C133 1.450 . S
C131 C126 1.367 . S
C131 C130 1.364 . S
C131 H191 0.931 . S
C132 C128 1.535 . S
C132 H192 0.959 . S
C132 H193 0.961 . S
C132 H194 0.959 . S
C133 C130 1.450 . S
C133 H195 0.960 . S
C133 H196 0.960 . S
C133 H197 0.960 . S
C134 C135 1.309 . S
C134 C139 1.304 . S
C134 O172 1.435 . S
C135 C134 1.309 . S
C135 C136 1.476 . S
C135 H199 0.930 . S
C136 C135 1.476 . S
C136 C137 1.400 . S
C136 C140 1.567 . S
C137 C136 1.400 . S
C137 C138 1.373 . S
C137 C159 1.432 . S
C138 C137 1.373 . S
C138 C139 1.339 . S
C138 C141 1.530 . S
C139 C134 1.304 . S
C139 C138 1.339 . S
C139 H200 0.930 . S
C140 C136 1.567 . S
C140 H201 0.961 . S
C140 H202 0.960 . S
C140 H203 0.958 . S
C141 C138 1.530 . S
C141 H204 0.961 . S
C141 H205 0.960 . S
C141 H206 0.960 . S
C142 C143 1.530 . S
C142 H208 0.961 . S
C142 H209 0.961 . S
C142 H210 0.959 . S
C143 C142 1.530 . S
C143 O171 1.412 . S
C143 H207 0.980 . S
C144 C145 1.288 . S
C144 C149 1.377 . S
C144 O171 1.393 . S
C145 C144 1.288 . S
C145 C146 1.369 . S
C145 H211 0.932 . S
C146 C145 1.369 . S
C146 C147 1.417 1_565 S
C146 C150 1.527 1_565 S
C147 C146 1.417 1_545 S
C147 C148 1.344 1_545 S
C147 C161 1.515 . S
C148 C147 1.344 1_565 S
C148 C149 1.383 . S
C148 C151 1.603 . S
C149 C144 1.377 . S
C149 C148 1.383 . S
C149 H212 0.929 . S
C150 C146 1.527 1_545 S
C150 H213 0.961 . S
C150 H214 0.959 . S
C150 H215 0.959 . S
C151 C148 1.603 . S
C151 H216 0.960 . S
C151 H217 0.962 1_565 S
C151 H218 0.961 . S
C152 C119 1.587 . S
C152 C153 1.360 . S
C152 C165 1.412 . S
C153 C152 1.360 . S
C153 C154 1.365 1_565 S
C153 H219 0.929 . S
C154 C129 1.553 . S
C154 C153 1.365 1_545 S
C154 C155 1.404 . S
C155 C154 1.404 . S
C155 C156 1.395 . S
C155 C166 1.451 . S
C156 C155 1.395 . S
C156 C157 1.322 . S
C156 H220 0.930 . S
C157 C156 1.322 . S
C157 C158 1.459 . S
C157 H221 0.929 . S
C158 C157 1.459 . S
C158 C159 1.445 . S
C158 C167 1.395 . S
C159 C137 1.432 . S
C159 C158 1.445 . S
C159 C160 1.370 . S
C160 C159 1.370 . S
C160 C161 1.438 . S
C160 H222 0.930 . S
C161 C147 1.515 . S
C161 C160 1.438 . S
C161 C162 1.360 . S
C162 C161 1.360 . S
C162 C163 1.401 1_545 S
C162 C167 1.446 . S
C163 C162 1.401 1_565 S
C163 C164 1.347 . S
C163 H223 0.929 . S
C164 C163 1.347 . S
C164 C165 1.455 . S
C164 H224 0.930 . S
C165 C152 1.412 . S
C165 C164 1.455 . S
C165 C166 1.331 1_565 S
C166 C155 1.451 . S
C166 C165 1.331 1_545 S
C166 C167 1.497 . S
C167 C158 1.395 . S
C167 C162 1.446 . S
C167 C166 1.497 . S
C168 C169 1.582 . S
C168 H225 0.962 . S
C168 H226 0.959 . S
C168 H227 0.958 . S
C169 C168 1.582 . S
C169 O172 1.458 . S
C169 H198 0.980 . S
O170 C115 1.426 . S
O170 C116 1.334 . S
O171 C143 1.412 . S
O171 C144 1.393 . S
O172 C134 1.435 . S
O172 C169 1.458 . S
O173 C125 1.468 . S
O173 C126 1.408 . S
H174 C115 0.980 . S
H175 C114 0.959 . S
H176 C114 0.959 . S
H177 C114 0.960 . S
H178 C117 0.929 . S
H179 C121 0.929 . S
H180 C122 0.959 . S
H181 C122 0.961 . S
H182 C122 0.961 . S
H183 C123 0.960 . S
H184 C123 0.960 . S
H185 C123 0.961 . S
H186 C125 0.980 . S
H187 C124 0.961 . S
H188 C124 0.960 . S
H189 C124 0.959 . S
H190 C127 0.930 . S
H191 C131 0.931 . S
H192 C132 0.959 . S
H193 C132 0.961 . S
H194 C132 0.959 . S
H195 C133 0.960 . S
H196 C133 0.960 . S
H197 C133 0.960 . S
H198 C169 0.980 . S
H199 C135 0.930 . S
H200 C139 0.930 . S
H201 C140 0.961 . S
H202 C140 0.960 . S
H203 C140 0.958 . S
H204 C141 0.961 . S
H205 C141 0.960 . S
H206 C141 0.960 . S
H207 C143 0.980 . S
H208 C142 0.961 . S
H209 C142 0.961 . S
H210 C142 0.959 . S
H211 C145 0.932 . S
H212 C149 0.929 . S
H213 C150 0.961 . S
H214 C150 0.959 . S
H215 C150 0.959 . S
H216 C151 0.960 . S
H217 C151 0.962 1_545 S
H218 C151 0.961 . S
H219 C153 0.929 . S
H220 C156 0.930 . S
H221 C157 0.929 . S
H222 C160 0.930 . S
H223 C163 0.929 . S
H224 C164 0.930 . S
H225 C168 0.962 . S
H226 C168 0.959 . S
H227 C168 0.958 . S
C228 C229 1.560 . S
C228 H289 0.959 . S
C228 H290 0.959 . S
C228 H291 0.960 . S
C229 C228 1.560 . S
C229 O284 1.426 . S
C229 H288 0.980 . S
C230 C231 1.407 . S
C230 C235 1.418 . S
C230 O284 1.334 . S
C231 C230 1.407 . S
C231 C232 1.360 . S
C231 H292 0.929 . S
C232 C231 1.360 . S
C232 C233 1.401 . S
C232 C236 1.527 . S
C233 C232 1.401 . S
C233 C234 1.405 . S
C233 C266 1.587 . S
C234 C233 1.405 . S
C234 C235 1.332 . S
C234 C237 1.496 . S
C235 C230 1.418 . S
C235 C234 1.332 . S
C235 H293 0.929 . S
C236 C232 1.527 . S
C236 H294 0.959 . S
C236 H295 0.961 . S
C236 H296 0.961 . S
C237 C234 1.496 . S
C237 H297 0.960 . S
C237 H298 0.960 . S
C237 H299 0.961 . S
C238 C239 1.517 . S
C238 H301 0.961 . S
C238 H302 0.960 . S
C238 H303 0.959 . S
C239 C238 1.517 . S
C239 O287 1.468 . S
C239 H300 0.980 . S
C240 C241 1.349 . S
C240 C245 1.367 . S
C240 O287 1.408 . S
C241 C240 1.349 . S
C241 C242 1.407 . S
C241 H304 0.930 . S
C242 C241 1.407 . S
C242 C243 1.449 . S
C242 C246 1.535 . S
C243 C242 1.449 . S
C243 C244 1.384 . S
C243 C268 1.553 . S
C244 C243 1.384 . S
C244 C245 1.364 . S
C244 C247 1.450 . S
C245 C240 1.367 . S
C245 C244 1.364 . S
C245 H305 0.931 . S
C246 C242 1.535 . S
C246 H306 0.959 . S
C246 H307 0.961 . S
C246 H308 0.959 . S
C247 C244 1.450 . S
C247 H309 0.960 . S
C247 H310 0.960 . S
C247 H311 0.960 . S
C248 C249 1.309 . S
C248 C253 1.304 . S
C248 O286 1.435 . S
C249 C248 1.309 . S
C249 C250 1.476 . S
C249 H313 0.930 . S
C250 C249 1.476 . S
C250 C251 1.400 . S
C250 C254 1.567 . S
C251 C250 1.400 . S
C251 C252 1.373 . S
C251 C273 1.432 . S
C252 C251 1.373 . S
C252 C253 1.339 . S
C252 C255 1.530 . S
C253 C248 1.304 . S
C253 C252 1.339 . S
C253 H314 0.930 . S
C254 C250 1.567 . S
C254 H315 0.961 . S
C254 H316 0.960 . S
C254 H317 0.958 . S
C255 C252 1.530 . S
C255 H318 0.961 . S
C255 H319 0.960 . S
C255 H320 0.960 . S
C256 C257 1.530 . S
C256 H322 0.961 . S
C256 H323 0.961 . S
C256 H324 0.959 . S
C257 C256 1.530 . S
C257 O285 1.412 . S
C257 H321 0.980 . S
C258 C259 1.288 . S
C258 C263 1.377 . S
C258 O285 1.393 . S
C259 C258 1.288 . S
C259 C260 1.369 . S
C259 H325 0.932 . S
C260 C259 1.369 . S
C260 C261 1.398 . S
C260 C264 1.527 . S
C261 C260 1.398 . S
C261 C262 1.380 . S
C261 C275 1.497 . S
C262 C261 1.380 . S
C262 C263 1.383 . S
C262 C265 1.603 . S
C263 C258 1.377 . S
C263 C262 1.383 . S
C263 H326 0.929 . S
C264 C260 1.527 . S
C264 H327 0.961 . S
C264 H328 0.959 . S
C264 H329 0.959 . S
C265 C262 1.603 . S
C265 H330 0.960 . S
C265 H331 0.962 . S
C265 H332 0.961 . S
C266 C233 1.587 . S
C266 C267 1.360 . S
C266 C279 1.412 . S
C267 C266 1.360 . S
C267 C268 1.365 . S
C267 H333 0.929 . S
C268 C243 1.553 . S
C268 C267 1.365 . S
C268 C269 1.404 . S
C269 C268 1.404 . S
C269 C270 1.395 . S
C269 C280 1.451 . S
C270 C269 1.395 . S
C270 C271 1.322 . S
C270 H334 0.930 . S
C271 C270 1.322 . S
C271 C272 1.459 . S
C271 H335 0.929 . S
C272 C271 1.459 . S
C272 C273 1.445 . S
C272 C281 1.395 . S
C273 C251 1.432 . S
C273 C272 1.445 . S
C273 C274 1.370 . S
C274 C273 1.370 . S
C274 C275 1.438 . S
C274 H336 0.930 . S
C275 C261 1.497 . S
C275 C274 1.438 . S
C275 C276 1.360 . S
C276 C275 1.360 . S
C276 C277 1.401 . S
C276 C281 1.446 . S
C277 C276 1.401 . S
C277 C278 1.347 . S
C277 H337 0.929 . S
C278 C277 1.347 . S
C278 C279 1.455 . S
C278 H338 0.930 . S
C279 C266 1.412 . S
C279 C278 1.455 . S
C279 C280 1.331 . S
C280 C269 1.451 . S
C280 C279 1.331 . S
C280 C281 1.497 . S
C281 C272 1.395 . S
C281 C276 1.446 . S
C281 C280 1.497 . S
C282 C283 1.582 . S
C282 H339 0.962 . S
C282 H340 0.959 . S
C282 H341 0.958 . S
C283 C282 1.582 . S
C283 O286 1.458 . S
C283 H312 0.980 . S
O284 C229 1.426 . S
O284 C230 1.334 . S
O285 C257 1.412 . S
O285 C258 1.393 . S
O286 C248 1.435 . S
O286 C283 1.458 . S
O287 C239 1.468 . S
O287 C240 1.408 . S
H288 C229 0.980 . S
H289 C228 0.959 . S
H290 C228 0.959 . S
H291 C228 0.960 . S
H292 C231 0.929 . S
H293 C235 0.929 . S
H294 C236 0.959 . S
H295 C236 0.961 . S
H296 C236 0.961 . S
H297 C237 0.960 . S
H298 C237 0.960 . S
H299 C237 0.961 . S
H300 C239 0.980 . S
H301 C238 0.961 . S
H302 C238 0.960 . S
H303 C238 0.959 . S
H304 C241 0.930 . S
H305 C245 0.931 . S
H306 C246 0.959 . S
H307 C246 0.961 . S
H308 C246 0.959 . S
H309 C247 0.960 . S
H310 C247 0.960 . S
H311 C247 0.960 . S
H312 C283 0.980 . S
H313 C249 0.930 . S
H314 C253 0.930 . S
H315 C254 0.961 . S
H316 C254 0.960 . S
H317 C254 0.958 . S
H318 C255 0.961 . S
H319 C255 0.960 . S
H320 C255 0.960 . S
H321 C257 0.980 . S
H322 C256 0.961 . S
H323 C256 0.961 . S
H324 C256 0.959 . S
H325 C259 0.932 . S
H326 C263 0.929 . S
H327 C264 0.961 . S
H328 C264 0.959 . S
H329 C264 0.959 . S
H330 C265 0.960 . S
H331 C265 0.962 . S
H332 C265 0.961 . S
H333 C267 0.929 . S
H334 C270 0.930 . S
H335 C271 0.929 . S
H336 C274 0.930 . S
H337 C277 0.929 . S
H338 C278 0.930 . S
H339 C282 0.962 . S
H340 C282 0.959 . S
H341 C282 0.958 . S
C342 C343 1.560 . S
C342 H403 0.959 . S
C342 H404 0.959 . S
C342 H405 0.960 . S
C343 C342 1.560 . S
C343 O398 1.426 . S
C343 H402 0.980 . S
C344 C345 1.407 . S
C344 C349 1.418 . S
C344 O398 1.334 . S
C345 C344 1.407 . S
C345 C346 1.360 . S
C345 H406 0.929 . S
C346 C345 1.360 . S
C346 C347 1.401 . S
C346 C350 1.527 . S
C347 C346 1.401 . S
C347 C348 1.405 . S
C347 C380 1.587 . S
C348 C347 1.405 . S
C348 C349 1.332 . S
C348 C351 1.496 . S
C349 C344 1.418 . S
C349 C348 1.332 . S
C349 H407 0.929 . S
C350 C346 1.527 . S
C350 H408 0.959 . S
C350 H409 0.961 . S
C350 H410 0.961 . S
C351 C348 1.496 . S
C351 H411 0.960 . S
C351 H412 0.960 . S
C351 H413 0.961 . S
C352 C353 1.517 . S
C352 H415 0.961 . S
C352 H416 0.960 . S
C352 H417 0.959 . S
C353 C352 1.517 . S
C353 O401 1.468 . S
C353 H414 0.980 . S
C354 C355 1.349 . S
C354 C359 1.367 . S
C354 O401 1.408 . S
C355 C354 1.349 . S
C355 C356 1.407 . S
C355 H418 0.930 . S
C356 C355 1.407 . S
C356 C357 1.449 . S
C356 C360 1.535 . S
C357 C356 1.449 . S
C357 C358 1.384 . S
C357 C382 1.553 1_655 S
C358 C357 1.384 . S
C358 C359 1.364 . S
C358 C361 1.450 . S
C359 C354 1.367 . S
C359 C358 1.364 . S
C359 H419 0.931 . S
C360 C356 1.535 . S
C360 H420 0.959 1_655 S
C360 H421 0.973 . S
C360 H422 0.959 . S
C361 C358 1.450 . S
C361 H423 0.960 . S
C361 H424 0.960 1_655 S
C361 H425 0.960 . S
C362 C363 1.309 . S
C362 C367 1.304 . S
C362 O400 1.435 . S
C363 C362 1.309 . S
C363 C364 1.476 . S
C363 H427 0.930 . S
C364 C363 1.476 . S
C364 C365 1.400 . S
C364 C368 1.567 . S
C365 C364 1.400 . S
C365 C366 1.373 . S
C365 C387 1.432 . S
C366 C365 1.373 . S
C366 C367 1.339 . S
C366 C369 1.530 . S
C367 C362 1.304 . S
C367 C366 1.339 . S
C367 H428 0.930 . S
C368 C364 1.567 . S
C368 H429 0.961 . S
C368 H430 0.960 . S
C368 H431 0.958 . S
C369 C366 1.530 . S
C369 H432 0.961 . S
C369 H433 0.960 . S
C369 H434 0.960 . S
C370 C371 1.530 . S
C370 H436 0.961 . S
C370 H437 0.961 . S
C370 H438 0.959 . S
C371 C370 1.530 . S
C371 O399 1.412 . S
C371 H435 0.980 . S
C372 C373 1.288 . S
C372 C377 1.377 . S
C372 O399 1.393 . S
C373 C372 1.288 . S
C373 C374 1.369 . S
C373 H439 0.932 . S
C374 C373 1.369 . S
C374 C375 1.398 . S
C374 C378 1.527 . S
C375 C374 1.398 . S
C375 C376 1.380 . S
C375 C389 1.497 . S
C376 C375 1.380 . S
C376 C377 1.383 . S
C376 C379 1.603 . S
C377 C372 1.377 . S
C377 C376 1.383 . S
C377 H440 0.929 . S
C378 C374 1.527 . S
C378 H441 0.961 . S
C378 H442 0.959 1_455 S
C378 H443 0.959 . S
C379 C376 1.603 . S
C379 H444 0.960 . S
C379 H445 0.962 . S
C379 H446 0.961 . S
C380 C347 1.587 . S
C380 C381 1.360 . S
C380 C393 1.412 . S
C381 C380 1.360 . S
C381 C382 1.365 . S
C381 H447 0.929 . S
C382 C357 1.553 1_455 S
C382 C381 1.365 . S
C382 C383 1.404 1_455 S
C383 C382 1.404 1_655 S
C383 C384 1.395 . S
C383 C394 1.451 1_655 S
C384 C383 1.395 . S
C384 C385 1.322 . S
C384 H448 0.930 . S
C385 C384 1.322 . S
C385 C386 1.459 . S
C385 H449 0.929 . S
C386 C385 1.459 . S
C386 C387 1.445 . S
C386 C395 1.395 1_655 S
C387 C365 1.432 . S
C387 C386 1.445 . S
C387 C388 1.370 . S
C388 C387 1.370 . S
C388 C389 1.438 1_655 S
C388 H450 0.930 . S
C389 C375 1.497 . S
C389 C388 1.438 1_455 S
C389 C390 1.360 . S
C390 C389 1.360 . S
C390 C391 1.401 . S
C390 C395 1.446 . S
C391 C390 1.401 . S
C391 C392 1.347 . S
C391 H451 0.929 . S
C392 C391 1.347 . S
C392 C393 1.455 . S
C392 H452 0.930 . S
C393 C380 1.412 . S
C393 C392 1.455 . S
C393 C394 1.331 . S
C394 C383 1.451 1_455 S
C394 C393 1.331 . S
C394 C395 1.497 . S
C395 C386 1.395 1_455 S
C395 C390 1.446 . S
C395 C394 1.497 . S
C396 C397 1.582 . S
C396 H453 0.962 . S
C396 H454 0.959 . S
C396 H455 0.958 . S
C397 C396 1.582 . S
C397 O400 1.458 . S
C397 H426 0.980 . S
O398 C343 1.426 . S
O398 C344 1.334 . S
O399 C371 1.412 . S
O399 C372 1.393 . S
O400 C362 1.435 . S
O400 C397 1.458 . S
O401 C353 1.468 . S
O401 C354 1.408 . S
H402 C343 0.980 . S
H403 C342 0.959 . S
H404 C342 0.959 . S
H405 C342 0.960 . S
H406 C345 0.929 . S
H407 C349 0.929 . S
H408 C350 0.959 . S
H409 C350 0.961 . S
H410 C350 0.961 . S
H411 C351 0.960 . S
H412 C351 0.960 . S
H413 C351 0.961 . S
H414 C353 0.980 . S
H415 C352 0.961 . S
H416 C352 0.960 . S
H417 C352 0.959 . S
H418 C355 0.930 . S
H419 C359 0.931 . S
H420 C360 0.959 1_455 S
H421 C360 0.973 . S
H422 C360 0.959 . S
H423 C361 0.960 . S
H424 C361 0.960 1_455 S
H425 C361 0.960 . S
H426 C397 0.980 . S
H427 C363 0.930 . S
H428 C367 0.930 . S
H429 C368 0.961 . S
H430 C368 0.960 . S
H431 C368 0.958 . S
H432 C369 0.961 . S
H433 C369 0.960 . S
H434 C369 0.960 . S
H435 C371 0.980 . S
H436 C370 0.961 . S
H437 C370 0.961 . S
H438 C370 0.959 . S
H439 C373 0.932 . S
H440 C377 0.929 . S
H441 C378 0.961 . S
H442 C378 0.959 1_655 S
H443 C378 0.959 . S
H444 C379 0.960 . S
H445 C379 0.962 . S
H446 C379 0.961 . S
H447 C381 0.929 . S
H448 C384 0.930 . S
H449 C385 0.929 . S
H450 C388 0.930 . S
H451 C391 0.929 . S
H452 C392 0.930 . S
H453 C396 0.962 . S
H454 C396 0.959 . S
H455 C396 0.958 . S
C456 C457 1.560 . S
C456 H517 0.959 . S
C456 H518 0.959 . S
C456 H519 0.960 . S
C457 C456 1.560 . S
C457 O512 1.426 . S
C457 H516 0.980 . S
C458 C459 1.407 . S
C458 C463 1.418 . S
C458 O512 1.334 . S
C459 C458 1.407 . S
C459 C460 1.360 . S
C459 H520 0.929 . S
C460 C459 1.360 . S
C460 C461 1.401 . S
C460 C464 1.527 . S
C461 C460 1.401 . S
C461 C462 1.405 . S
C461 C494 1.587 . S
C462 C461 1.405 . S
C462 C463 1.332 . S
C462 C465 1.496 . S
C463 C458 1.418 . S
C463 C462 1.332 . S
C463 H521 0.929 . S
C464 C460 1.527 . S
C464 H522 0.959 . S
C464 H523 0.961 . S
C464 H524 0.961 . S
C465 C462 1.496 . S
C465 H525 0.960 . S
C465 H526 0.960 . S
C465 H527 0.961 . S
C466 C467 1.517 . S
C466 H529 0.961 . S
C466 H530 0.960 . S
C466 H531 0.959 . S
C467 C466 1.517 . S
C467 O515 1.468 . S
C467 H528 0.980 . S
C468 C469 1.349 . S
C468 C473 1.367 . S
C468 O515 1.408 . S
C469 C468 1.349 . S
C469 C470 1.407 . S
C469 H532 0.930 . S
C470 C469 1.407 . S
C470 C471 1.449 . S
C470 C474 1.535 . S
C471 C470 1.449 . S
C471 C472 1.384 . S
C471 C496 1.553 . S
C472 C471 1.384 . S
C472 C473 1.364 . S
C472 C475 1.450 . S
C473 C468 1.367 . S
C473 C472 1.364 . S
C473 H533 0.931 . S
C474 C470 1.535 . S
C474 H534 0.959 . S
C474 H535 0.961 . S
C474 H536 0.959 . S
C475 C472 1.450 . S
C475 H537 0.960 . S
C475 H538 0.960 . S
C475 H539 0.960 . S
C476 C477 1.309 . S
C476 C481 1.304 . S
C476 O514 1.435 . S
C477 C476 1.309 . S
C477 C478 1.476 . S
C477 H541 0.930 . S
C478 C477 1.476 . S
C478 C479 1.400 . S
C478 C482 1.567 . S
C479 C478 1.400 . S
C479 C480 1.373 . S
C479 C501 1.432 . S
C480 C479 1.373 . S
C480 C481 1.339 . S
C480 C483 1.530 . S
C481 C476 1.304 . S
C481 C480 1.339 . S
C481 H542 0.930 . S
C482 C478 1.567 . S
C482 H543 0.961 . S
C482 H544 0.960 . S
C482 H545 0.958 . S
C483 C480 1.530 . S
C483 H546 0.961 . S
C483 H547 0.960 . S
C483 H548 0.960 . S
C484 C485 1.530 . S
C484 H550 0.961 . S
C484 H551 0.961 . S
C484 H552 0.959 . S
C485 C484 1.530 . S
C485 O513 1.412 . S
C485 H549 0.980 . S
C486 C487 1.288 . S
C486 C491 1.377 . S
C486 O513 1.393 . S
C487 C486 1.288 . S
C487 C488 1.405 . S
C487 H553 0.932 . S
C488 C487 1.405 . S
C488 C489 1.374 . S
C488 C492 1.523 1_565 S
C489 C488 1.374 . S
C489 C490 1.381 . S
C489 C503 1.489 1_565 S
C490 C489 1.381 . S
C490 C491 1.383 . S
C490 C493 1.603 . S
C491 C486 1.377 . S
C491 C490 1.383 . S
C491 H554 0.929 . S
C492 C488 1.523 1_545 S
C492 H555 0.961 . S
C492 H556 0.959 . S
C492 H557 0.959 . S
C493 C490 1.603 . S
C493 H558 0.960 . S
C493 H559 0.949 1_565 S
C493 H560 0.961 . S
C494 C461 1.587 . S
C494 C495 1.360 . S
C494 C507 1.412 . S
C495 C494 1.360 . S
C495 C496 1.365 1_565 S
C495 H561 0.929 . S
C496 C471 1.553 . S
C496 C495 1.365 1_545 S
C496 C497 1.404 . S
C497 C496 1.404 . S
C497 C498 1.395 . S
C497 C508 1.451 . S
C498 C497 1.395 . S
C498 C499 1.322 . S
C498 H562 0.930 . S
C499 C498 1.322 . S
C499 C500 1.459 . S
C499 H563 0.929 . S
C500 C499 1.459 . S
C500 C501 1.445 1_556 S
C500 C509 1.395 . S
C501 C479 1.432 . S
C501 C500 1.445 1_554 S
C501 C502 1.370 . S
C502 C501 1.370 . S
C502 C503 1.438 . S
C502 H564 0.930 . S
C503 C489 1.489 1_545 S
C503 C502 1.438 . S
C503 C504 1.360 . S
C504 C503 1.360 . S
C504 C505 1.401 1_545 S
C504 C509 1.446 1_554 S
C505 C504 1.401 1_565 S
C505 C506 1.347 1_554 S
C505 H565 0.929 . S
C506 C505 1.347 1_556 S
C506 C507 1.455 . S
C506 H566 0.930 . S
C507 C494 1.412 . S
C507 C506 1.455 . S
C507 C508 1.331 1_565 S
C508 C497 1.451 . S
C508 C507 1.331 1_545 S
C508 C509 1.497 . S
C509 C500 1.395 . S
C509 C504 1.446 1_556 S
C509 C508 1.497 . S
C510 C511 1.582 . S
C510 H567 0.962 . S
C510 H568 0.959 . S
C510 H569 0.958 . S
C511 C510 1.582 . S
C511 O514 1.458 . S
C511 H540 0.980 . S
O512 C457 1.426 . S
O512 C458 1.334 . S
O513 C485 1.412 . S
O513 C486 1.393 . S
O514 C476 1.435 . S
O514 C511 1.458 . S
O515 C467 1.468 . S
O515 C468 1.408 . S
H516 C457 0.980 . S
H517 C456 0.959 . S
H518 C456 0.959 . S
H519 C456 0.960 . S
H520 C459 0.929 . S
H521 C463 0.929 . S
H522 C464 0.959 . S
H523 C464 0.961 . S
H524 C464 0.961 . S
H525 C465 0.960 . S
H526 C465 0.960 . S
H527 C465 0.961 . S
H528 C467 0.980 . S
H529 C466 0.961 . S
H530 C466 0.960 . S
H531 C466 0.959 . S
H532 C469 0.930 . S
H533 C473 0.931 . S
H534 C474 0.959 . S
H535 C474 0.961 . S
H536 C474 0.959 . S
H537 C475 0.960 . S
H538 C475 0.960 . S
H539 C475 0.960 . S
H540 C511 0.980 . S
H541 C477 0.930 . S
H542 C481 0.930 . S
H543 C482 0.961 . S
H544 C482 0.960 . S
H545 C482 0.958 . S
H546 C483 0.961 . S
H547 C483 0.960 . S
H548 C483 0.960 . S
H549 C485 0.980 . S
H550 C484 0.961 . S
H551 C484 0.961 . S
H552 C484 0.959 . S
H553 C487 0.932 . S
H554 C491 0.929 . S
H555 C492 0.961 . S
H556 C492 0.959 . S
H557 C492 0.959 . S
H558 C493 0.960 . S
H559 C493 0.949 1_545 S
H560 C493 0.961 . S
H561 C495 0.929 . S
H562 C498 0.930 . S
H563 C499 0.929 . S
H564 C502 0.930 . S
H565 C505 0.929 . S
H566 C506 0.930 . S
H567 C510 0.962 . S
H568 C510 0.959 . S
H569 C510 0.958 . S
C570 C571 1.560 . S
C570 H631 0.959 . S
C570 H632 0.959 . S
C570 H633 0.960 . S
C571 C570 1.560 . S
C571 O626 1.426 . S
C571 H630 0.980 . S
C572 C573 1.407 . S
C572 C577 1.418 . S
C572 O626 1.334 . S
C573 C572 1.407 . S
C573 C574 1.360 . S
C573 H634 0.929 . S
C574 C573 1.360 . S
C574 C575 1.401 . S
C574 C578 1.527 . S
C575 C574 1.401 . S
C575 C576 1.405 . S
C575 C608 1.587 . S
C576 C575 1.405 . S
C576 C577 1.332 . S
C576 C579 1.496 . S
C577 C572 1.418 . S
C577 C576 1.332 . S
C577 H635 0.929 . S
C578 C574 1.527 . S
C578 H636 0.959 . S
C578 H637 0.961 . S
C578 H638 0.961 . S
C579 C576 1.496 . S
C579 H639 0.960 . S
C579 H640 0.960 . S
C579 H641 0.961 . S
C580 C581 1.517 . S
C580 H643 0.961 . S
C580 H644 0.960 . S
C580 H645 0.959 . S
C581 C580 1.517 . S
C581 O629 1.468 . S
C581 H642 0.980 . S
C582 C583 1.349 . S
C582 C587 1.367 . S
C582 O629 1.408 . S
C583 C582 1.349 . S
C583 C584 1.407 . S
C583 H646 0.930 . S
C584 C583 1.407 . S
C584 C585 1.449 . S
C584 C588 1.535 . S
C585 C584 1.449 . S
C585 C586 1.384 . S
C585 C610 1.553 . S
C586 C585 1.384 . S
C586 C587 1.364 . S
C586 C589 1.450 . S
C587 C582 1.367 . S
C587 C586 1.364 . S
C587 H647 0.931 . S
C588 C584 1.535 . S
C588 H648 0.959 . S
C588 H649 0.961 . S
C588 H650 0.959 . S
C589 C586 1.450 . S
C589 H651 0.960 . S
C589 H652 0.960 . S
C589 H653 0.960 . S
C590 C591 1.309 . S
C590 C595 1.304 . S
C590 O628 1.435 . S
C591 C590 1.309 . S
C591 C592 1.476 . S
C591 H655 0.930 . S
C592 C591 1.476 . S
C592 C593 1.400 . S
C592 C596 1.567 . S
C593 C592 1.400 . S
C593 C594 1.373 . S
C593 C615 1.432 . S
C594 C593 1.373 . S
C594 C595 1.339 . S
C594 C597 1.530 . S
C595 C590 1.304 . S
C595 C594 1.339 . S
C595 H656 0.930 . S
C596 C592 1.567 . S
C596 H657 0.961 . S
C596 H658 0.960 . S
C596 H659 0.958 . S
C597 C594 1.530 . S
C597 H660 0.961 . S
C597 H661 0.960 . S
C597 H662 0.960 . S
C598 C599 1.530 . S
C598 H664 0.961 . S
C598 H665 0.961 . S
C598 H666 0.959 . S
C599 C598 1.530 . S
C599 O627 1.412 . S
C599 H663 0.980 . S
C600 C601 1.288 . S
C600 C605 1.377 . S
C600 O627 1.393 . S
C601 C600 1.288 . S
C601 C602 1.369 . S
C601 H667 0.932 . S
C602 C601 1.369 . S
C602 C603 1.398 . S
C602 C606 1.527 . S
C603 C602 1.398 . S
C603 C604 1.380 . S
C603 C617 1.497 . S
C604 C603 1.380 . S
C604 C605 1.383 . S
C604 C607 1.603 . S
C605 C600 1.377 . S
C605 C604 1.383 . S
C605 H668 0.929 . S
C606 C602 1.527 . S
C606 H669 0.961 . S
C606 H670 0.959 . S
C606 H671 0.959 . S
C607 C604 1.603 . S
C607 H672 0.960 . S
C607 H673 0.962 . S
C607 H674 0.961 . S
C608 C575 1.587 . S
C608 C609 1.360 . S
C608 C621 1.412 . S
C609 C608 1.360 . S
C609 C610 1.365 . S
C609 H675 0.929 . S
C610 C585 1.553 . S
C610 C609 1.365 . S
C610 C611 1.404 . S
C611 C610 1.404 . S
C611 C612 1.395 . S
C611 C622 1.451 . S
C612 C611 1.395 . S
C612 C613 1.322 . S
C612 H676 0.930 . S
C613 C612 1.322 . S
C613 C614 1.459 . S
C613 H677 0.929 . S
C614 C613 1.459 . S
C614 C615 1.445 . S
C614 C623 1.395 . S
C615 C593 1.432 . S
C615 C614 1.445 . S
C615 C616 1.370 . S
C616 C615 1.370 . S
C616 C617 1.438 . S
C616 H678 0.930 . S
C617 C603 1.497 . S
C617 C616 1.438 . S
C617 C618 1.360 . S
C618 C617 1.360 . S
C618 C619 1.401 . S
C618 C623 1.446 . S
C619 C618 1.401 . S
C619 C620 1.347 . S
C619 H679 0.929 . S
C620 C619 1.347 . S
C620 C621 1.455 . S
C620 H680 0.930 . S
C621 C608 1.412 . S
C621 C620 1.455 . S
C621 C622 1.331 . S
C622 C611 1.451 . S
C622 C621 1.331 . S
C622 C623 1.497 . S
C623 C614 1.395 . S
C623 C618 1.446 . S
C623 C622 1.497 . S
C624 C625 1.582 . S
C624 H681 0.962 . S
C624 H682 0.959 . S
C624 H683 0.958 . S
C625 C624 1.582 . S
C625 O628 1.458 . S
C625 H654 0.980 . S
O626 C571 1.426 . S
O626 C572 1.334 . S
O627 C599 1.412 . S
O627 C600 1.393 . S
O628 C590 1.435 . S
O628 C625 1.458 . S
O629 C581 1.468 . S
O629 C582 1.408 . S
H630 C571 0.980 . S
H631 C570 0.959 . S
H632 C570 0.959 . S
H633 C570 0.960 . S
H634 C573 0.929 . S
H635 C577 0.929 . S
H636 C578 0.959 . S
H637 C578 0.961 . S
H638 C578 0.961 . S
H639 C579 0.960 . S
H640 C579 0.960 . S
H641 C579 0.961 . S
H642 C581 0.980 . S
H643 C580 0.961 . S
H644 C580 0.960 . S
H645 C580 0.959 . S
H646 C583 0.930 . S
H647 C587 0.931 . S
H648 C588 0.959 . S
H649 C588 0.961 . S
H650 C588 0.959 . S
H651 C589 0.960 . S
H652 C589 0.960 . S
H653 C589 0.960 . S
H654 C625 0.980 . S
H655 C591 0.930 . S
H656 C595 0.930 . S
H657 C596 0.961 . S
H658 C596 0.960 . S
H659 C596 0.958 . S
H660 C597 0.961 . S
H661 C597 0.960 . S
H662 C597 0.960 . S
H663 C599 0.980 . S
H664 C598 0.961 . S
H665 C598 0.961 . S
H666 C598 0.959 . S
H667 C601 0.932 . S
H668 C605 0.929 . S
H669 C606 0.961 . S
H670 C606 0.959 . S
H671 C606 0.959 . S
H672 C607 0.960 . S
H673 C607 0.962 . S
H674 C607 0.961 . S
H675 C609 0.929 . S
H676 C612 0.930 . S
H677 C613 0.929 . S
H678 C616 0.930 . S
H679 C619 0.929 . S
H680 C620 0.930 . S
H681 C624 0.962 . S
H682 C624 0.959 . S
H683 C624 0.958 . S
C684 O685 1.160 . S
C684 O691 1.185 . S
O685 C684 1.160 . S
O686 Zn687 1.899 . S
O686 C694 1.284 . S
Zn687 O686 1.899 . S
Zn687 O688 2.032 . S
Zn687 O691 2.086 . S
Zn687 O696 1.977 . S
O688 Zn687 2.032 . S
O688 C692 1.278 . S
C689 O690 1.203 . S
C689 O696 1.267 . S
O690 C689 1.203 . S
O691 C684 1.185 . S
O691 Zn687 2.086 . S
C692 O688 1.278 . S
C692 O693 1.211 . S
O693 C692 1.211 . S
C694 O686 1.284 . S
C694 O695 1.273 . S
O695 C694 1.273 . S
O696 Zn687 1.977 . S
O696 C689 1.267 . S
C697 O698 1.160 . S
C697 O704 1.185 . S
O698 C697 1.160 . S
O699 Zn700 1.899 . S
O699 C707 1.284 . S
Zn700 O699 1.899 . S
Zn700 O701 2.032 . S
Zn700 O704 2.086 . S
Zn700 O709 1.977 . S
O701 Zn700 2.032 . S
O701 C705 1.278 . S
C702 O703 1.203 . S
C702 O709 1.267 . S
O703 C702 1.203 . S
O704 C697 1.185 . S
O704 Zn700 2.086 . S
C705 O701 1.278 . S
C705 O706 1.211 . S
O706 C705 1.211 . S
C707 O699 1.284 . S
C707 O708 1.273 . S
O708 C707 1.273 . S
O709 Zn700 1.977 . S
O709 C702 1.267 . S
C710 O711 1.160 . S
C710 O717 1.185 . S
O711 C710 1.160 . S
O712 Zn713 1.899 . S
O712 C720 1.284 . S
Zn713 O712 1.899 . S
Zn713 O714 2.032 . S
Zn713 O717 2.086 . S
Zn713 O722 1.977 . S
O714 Zn713 2.032 . S
O714 C718 1.278 . S
C715 O716 1.203 . S
C715 O722 1.267 . S
O716 C715 1.203 . S
O717 C710 1.185 . S
O717 Zn713 2.086 . S
C718 O714 1.278 . S
C718 O719 1.211 . S
O719 C718 1.211 . S
C720 O712 1.284 . S
C720 O721 1.273 . S
O721 C720 1.273 . S
O722 Zn713 1.977 . S
O722 C715 1.267 . S
C723 O724 1.160 . S
C723 O730 1.185 . S
O724 C723 1.160 . S
O725 Zn726 1.899 . S
O725 C733 1.284 . S
Zn726 O725 1.899 . S
Zn726 O727 2.032 . S
Zn726 O730 2.086 . S
Zn726 O735 1.977 . S
O727 Zn726 2.032 . S
O727 C731 1.278 . S
C728 O729 1.203 . S
C728 O735 1.267 . S
O729 C728 1.203 . S
O730 C723 1.185 . S
O730 Zn726 2.086 . S
C731 O727 1.278 . S
C731 O732 1.211 . S
O732 C731 1.211 . S
C733 O725 1.284 . S
C733 O734 1.273 . S
O734 C733 1.273 . S
O735 Zn726 1.977 . S
O735 C728 1.267 . S
C736 O737 1.160 . S
C736 O743 1.185 . S
O737 C736 1.160 . S
O738 Zn739 1.899 . S
O738 C746 1.284 . S
Zn739 O738 1.899 . S
Zn739 O740 2.032 . S
Zn739 O743 2.086 . S
Zn739 O748 1.977 . S
O740 Zn739 2.032 . S
O740 C744 1.278 . S
C741 O742 1.203 . S
C741 O748 1.267 . S
O742 C741 1.203 . S
O743 C736 1.185 . S
O743 Zn739 2.086 . S
C744 O740 1.278 . S
C744 O745 1.211 . S
O745 C744 1.211 . S
C746 O738 1.284 . S
C746 O747 1.273 . S
O747 C746 1.273 . S
O748 Zn739 1.977 . S
O748 C741 1.267 . S
C749 O750 1.160 . S
C749 O756 1.185 . S
O750 C749 1.160 . S
O751 Zn752 1.899 . S
O751 C759 1.284 . S
Zn752 O751 1.899 . S
Zn752 O753 2.032 . S
Zn752 O756 2.086 . S
Zn752 O761 1.977 . S
O753 Zn752 2.032 . S
O753 C757 1.278 . S
C754 O755 1.203 . S
C754 O761 1.267 . S
O755 C754 1.203 . S
O756 C749 1.185 . S
O756 Zn752 2.086 . S
C757 O753 1.278 . S
C757 O758 1.211 . S
O758 C757 1.211 . S
C759 O751 1.284 . S
C759 O760 1.273 . S
O760 C759 1.273 . S
O761 Zn752 1.977 . S
O761 C754 1.267 . S
H762 C770 0.929 . S
H763 C772 0.930 . S
H764 C774 0.930 . S
H765 C777 0.929 . S
H766 C780 0.930 . S
H767 C782 0.960 . S
H768 C782 0.960 . S
H769 C782 0.960 . S
C770 H762 0.929 . S
C770 C771 1.377 . S
C770 C772 1.384 . S
C771 C770 1.377 . S
C771 C777 1.390 . S
C772 H763 0.930 . S
C772 C770 1.384 . S
C772 C773 1.372 . S
C773 C772 1.372 . S
C773 C774 1.400 . S
C773 C778 1.490 . S
C774 H764 0.930 . S
C774 C773 1.400 . S
C774 C777 1.386 . S
H775 C791 0.930 . S
H776 C792 0.931 . S
C777 H765 0.929 . S
C777 C771 1.390 . S
C777 C774 1.386 . S
C778 C773 1.490 . S
C778 C780 1.395 . S
C778 C781 1.403 . S
H779 C785 0.930 . S
C780 H766 0.930 . S
C780 C778 1.395 . S
C780 C783 1.403 . S
C781 C778 1.403 . S
C781 C782 1.524 . S
C781 C785 1.400 . S
C782 H767 0.960 . S
C782 H768 0.960 . S
C782 H769 0.960 . S
C782 C781 1.524 . S
C783 C780 1.403 . S
C783 C784 1.392 . S
C783 C787 1.495 . S
C784 C783 1.392 . S
C784 C785 1.385 . S
C784 C786 1.478 . S
C785 H779 0.930 . S
C785 C781 1.400 . S
C785 C784 1.385 . S
C786 C784 1.478 . S
C786 C788 1.381 . S
C786 C792 1.383 . S
C787 C783 1.495 . S
C787 H793 0.959 . S
C787 H794 0.961 . S
C787 H795 0.960 . S
C788 C786 1.381 . S
C788 C789 1.394 . S
C788 H796 0.930 . S
C789 C788 1.394 . S
C789 C790 1.383 . S
C789 H797 0.929 . S
C790 C789 1.383 . S
C790 C791 1.377 . S
C791 H775 0.930 . S
C791 C790 1.377 . S
C791 C792 1.379 . S
C792 H776 0.931 . S
C792 C786 1.383 . S
C792 C791 1.379 . S
H793 C787 0.959 . S
H794 C787 0.961 . S
H795 C787 0.960 . S
H796 C788 0.930 . S
H797 C789 0.929 . S
H798 C806 0.929 . S
H799 C808 0.930 . S
H800 C810 0.930 . S
H801 C813 0.929 . S
H802 C816 0.930 . S
H803 C818 0.960 . S
H804 C818 0.960 . S
H805 C818 0.960 . S
C806 H798 0.929 . S
C806 C807 1.377 . S
C806 C808 1.384 . S
C807 C806 1.377 . S
C807 C813 1.390 . S
C808 H799 0.930 . S
C808 C806 1.384 . S
C808 C809 1.372 . S
C809 C808 1.372 . S
C809 C810 1.400 . S
C809 C814 1.490 . S
C810 H800 0.930 . S
C810 C809 1.400 . S
C810 C813 1.386 . S
H811 C827 0.930 . S
H812 C828 0.931 . S
C813 H801 0.929 . S
C813 C807 1.390 . S
C813 C810 1.386 . S
C814 C809 1.490 . S
C814 C816 1.395 . S
C814 C817 1.403 . S
H815 C821 0.930 . S
C816 H802 0.930 . S
C816 C814 1.395 . S
C816 C819 1.403 . S
C817 C814 1.403 . S
C817 C818 1.524 . S
C817 C821 1.400 . S
C818 H803 0.960 . S
C818 H804 0.960 . S
C818 H805 0.960 . S
C818 C817 1.524 . S
C819 C816 1.403 . S
C819 C820 1.392 . S
C819 C823 1.495 . S
C820 C819 1.392 . S
C820 C821 1.385 . S
C820 C822 1.478 . S
C821 H815 0.930 . S
C821 C817 1.400 . S
C821 C820 1.385 . S
C822 C820 1.478 . S
C822 C824 1.381 . S
C822 C828 1.383 . S
C823 C819 1.495 . S
C823 H829 0.959 . S
C823 H830 0.961 . S
C823 H831 0.960 . S
C824 C822 1.381 . S
C824 C825 1.394 . S
C824 H832 0.930 . S
C825 C824 1.394 . S
C825 C826 1.383 . S
C825 H833 0.929 . S
C826 C825 1.383 . S
C826 C827 1.377 . S
C827 H811 0.930 . S
C827 C826 1.377 . S
C827 C828 1.379 . S
C828 H812 0.931 . S
C828 C822 1.383 . S
C828 C827 1.379 . S
H829 C823 0.959 . S
H830 C823 0.961 . S
H831 C823 0.960 . S
H832 C824 0.930 . S
H833 C825 0.929 . S
H834 C842 0.929 . S
H835 C844 0.930 . S
H836 C846 0.930 . S
H837 C849 0.929 . S
H838 C852 0.930 . S
H839 C854 0.960 . S
H840 C854 0.960 . S
H841 C854 0.960 . S
C842 H834 0.929 . S
C842 C843 1.377 . S
C842 C844 1.384 . S
C843 C842 1.377 . S
C843 C849 1.390 . S
C844 H835 0.930 . S
C844 C842 1.384 . S
C844 C845 1.372 . S
C845 C844 1.372 . S
C845 C846 1.400 . S
C845 C850 1.490 . S
C846 H836 0.930 . S
C846 C845 1.400 . S
C846 C849 1.386 . S
H847 C863 0.930 . S
H848 C864 0.931 . S
C849 H837 0.929 . S
C849 C843 1.390 . S
C849 C846 1.386 . S
C850 C845 1.490 . S
C850 C852 1.395 . S
C850 C853 1.403 . S
H851 C857 0.930 . S
C852 H838 0.930 . S
C852 C850 1.395 . S
C852 C855 1.403 . S
C853 C850 1.403 . S
C853 C854 1.524 . S
C853 C857 1.400 . S
C854 H839 0.960 . S
C854 H840 0.960 . S
C854 H841 0.960 . S
C854 C853 1.524 . S
C855 C852 1.403 . S
C855 C856 1.392 . S
C855 C859 1.495 . S
C856 C855 1.392 . S
C856 C857 1.385 . S
C856 C858 1.478 . S
C857 H851 0.930 . S
C857 C853 1.400 . S
C857 C856 1.385 . S
C858 C856 1.478 . S
C858 C860 1.381 . S
C858 C864 1.383 . S
C859 C855 1.495 . S
C859 H865 0.959 . S
C859 H866 0.961 . S
C859 H867 0.960 . S
C860 C858 1.381 . S
C860 C861 1.394 . S
C860 H868 0.930 . S
C861 C860 1.394 . S
C861 C862 1.383 . S
C861 H869 0.929 . S
C862 C861 1.383 . S
C862 C863 1.377 . S
C863 H847 0.930 . S
C863 C862 1.377 . S
C863 C864 1.379 . S
C864 H848 0.931 . S
C864 C858 1.383 . S
C864 C863 1.379 . S
H865 C859 0.959 . S
H866 C859 0.961 . S
H867 C859 0.960 . S
H868 C860 0.930 . S
H869 C861 0.929 . S
H870 C878 0.929 . S
H871 C880 0.930 . S
H872 C882 0.930 . S
H873 C885 0.929 . S
H874 C888 0.930 . S
H875 C890 0.960 . S
H876 C890 0.960 . S
H877 C890 0.960 . S
C878 H870 0.929 . S
C878 C879 1.377 . S
C878 C880 1.384 . S
C879 C878 1.377 . S
C879 C885 1.390 . S
C880 H871 0.930 . S
C880 C878 1.384 . S
C880 C881 1.372 . S
C881 C880 1.372 . S
C881 C882 1.400 . S
C881 C886 1.490 . S
C882 H872 0.930 . S
C882 C881 1.400 . S
C882 C885 1.386 . S
H883 C899 0.930 . S
H884 C900 0.931 . S
C885 H873 0.929 . S
C885 C879 1.390 . S
C885 C882 1.386 . S
C886 C881 1.490 . S
C886 C888 1.395 . S
C886 C889 1.403 . S
H887 C893 0.930 . S
C888 H874 0.930 . S
C888 C886 1.395 . S
C888 C891 1.403 . S
C889 C886 1.403 . S
C889 C890 1.524 . S
C889 C893 1.400 . S
C890 H875 0.960 . S
C890 H876 0.960 . S
C890 H877 0.960 . S
C890 C889 1.524 . S
C891 C888 1.403 . S
C891 C892 1.392 . S
C891 C895 1.495 . S
C892 C891 1.392 . S
C892 C893 1.385 . S
C892 C894 1.478 . S
C893 H887 0.930 . S
C893 C889 1.400 . S
C893 C892 1.385 . S
C894 C892 1.478 . S
C894 C896 1.381 . S
C894 C900 1.383 . S
C895 C891 1.495 . S
C895 H901 0.959 . S
C895 H902 0.961 . S
C895 H903 0.960 . S
C896 C894 1.381 . S
C896 C897 1.394 . S
C896 H904 0.930 . S
C897 C896 1.394 . S
C897 C898 1.383 . S
C897 H905 0.929 . S
C898 C897 1.383 . S
C898 C899 1.377 . S
C899 H883 0.930 . S
C899 C898 1.377 . S
C899 C900 1.379 . S
C900 H884 0.931 . S
C900 C894 1.383 . S
C900 C899 1.379 . S
H901 C895 0.959 . S
H902 C895 0.961 . S
H903 C895 0.960 . S
H904 C896 0.930 . S
H905 C897 0.929 . S
H906 C914 0.929 . S
H907 C916 0.930 . S
H908 C918 0.930 . S
H909 C921 0.929 . S
H910 C924 0.930 . S
H911 C926 0.960 . S
H912 C926 0.960 . S
H913 C926 0.960 . S
C914 H906 0.929 . S
C914 C915 1.377 . S
C914 C916 1.384 . S
C915 C914 1.377 . S
C915 C921 1.390 . S
C916 H907 0.930 . S
C916 C914 1.384 . S
C916 C917 1.372 . S
C917 C916 1.372 . S
C917 C918 1.400 . S
C917 C922 1.490 . S
C918 H908 0.930 . S
C918 C917 1.400 . S
C918 C921 1.386 . S
H919 C935 0.930 . S
H920 C936 0.931 . S
C921 H909 0.929 . S
C921 C915 1.390 . S
C921 C918 1.386 . S
C922 C917 1.490 . S
C922 C924 1.395 . S
C922 C925 1.403 . S
H923 C929 0.930 . S
C924 H910 0.930 . S
C924 C922 1.395 . S
C924 C927 1.403 . S
C925 C922 1.403 . S
C925 C926 1.524 . S
C925 C929 1.400 . S
C926 H911 0.960 . S
C926 H912 0.960 . S
C926 H913 0.960 . S
C926 C925 1.524 . S
C927 C924 1.403 . S
C927 C928 1.392 . S
C927 C931 1.495 . S
C928 C927 1.392 . S
C928 C929 1.385 . S
C928 C930 1.478 . S
C929 H923 0.930 . S
C929 C925 1.400 . S
C929 C928 1.385 . S
C930 C928 1.478 . S
C930 C932 1.381 . S
C930 C936 1.383 . S
C931 C927 1.495 . S
C931 H937 0.959 . S
C931 H938 0.961 . S
C931 H939 0.960 . S
C932 C930 1.381 . S
C932 C933 1.394 . S
C932 H940 0.930 . S
C933 C932 1.394 . S
C933 C934 1.383 . S
C933 H941 0.929 . S
C934 C933 1.383 . S
C934 C935 1.377 . S
C935 H919 0.930 . S
C935 C934 1.377 . S
C935 C936 1.379 . S
C936 H920 0.931 . S
C936 C930 1.383 . S
C936 C935 1.379 . S
H937 C931 0.959 . S
H938 C931 0.961 . S
H939 C931 0.960 . S
H940 C932 0.930 . S
H941 C933 0.929 . S
H942 C950 0.929 . S
H943 C952 0.930 . S
H944 C954 0.930 . S
H945 C957 0.929 . S
H946 C960 0.930 . S
H947 C962 0.960 . S
H948 C962 0.960 . S
H949 C962 0.960 . S
C950 H942 0.929 . S
C950 C951 1.377 . S
C950 C952 1.384 . S
C951 C950 1.377 . S
C951 C957 1.390 . S
C952 H943 0.930 . S
C952 C950 1.384 . S
C952 C953 1.372 . S
C953 C952 1.372 . S
C953 C954 1.400 . S
C953 C958 1.490 . S
C954 H944 0.930 . S
C954 C953 1.400 . S
C954 C957 1.386 . S
H955 C971 0.930 . S
H956 C972 0.931 . S
C957 H945 0.929 . S
C957 C951 1.390 . S
C957 C954 1.386 . S
C958 C953 1.490 . S
C958 C960 1.395 . S
C958 C961 1.403 . S
H959 C965 0.930 . S
C960 H946 0.930 . S
C960 C958 1.395 . S
C960 C963 1.403 . S
C961 C958 1.403 . S
C961 C962 1.524 . S
C961 C965 1.400 . S
C962 H947 0.960 . S
C962 H948 0.960 . S
C962 H949 0.960 . S
C962 C961 1.524 . S
C963 C960 1.403 . S
C963 C964 1.392 . S
C963 C967 1.495 . S
C964 C963 1.392 . S
C964 C965 1.385 . S
C964 C966 1.478 . S
C965 H959 0.930 . S
C965 C961 1.400 . S
C965 C964 1.385 . S
C966 C964 1.478 . S
C966 C968 1.381 . S
C966 C972 1.383 . S
C967 C963 1.495 . S
C967 H973 0.959 . S
C967 H974 0.961 . S
C967 H975 0.960 . S
C968 C966 1.381 . S
C968 C969 1.394 . S
C968 H976 0.930 . S
C969 C968 1.394 . S
C969 C970 1.383 . S
C969 H977 0.929 . S
C970 C969 1.383 . S
C970 C971 1.377 . S
C971 H955 0.930 . S
C971 C970 1.377 . S
C971 C972 1.379 . S
C972 H956 0.931 . S
C972 C966 1.383 . S
C972 C971 1.379 . S
H973 C967 0.959 . S
H974 C967 0.961 . S
H975 C967 0.960 . S
H976 C968 0.930 . S
H977 C969 0.929 . S
H978 C986 0.929 . S
H979 C988 0.930 . S
H980 C990 0.930 . S
H981 C993 0.929 . S
H982 C996 0.930 . S
H983 C998 0.960 . S
H984 C998 0.960 . S
H985 C998 0.960 . S
C986 H978 0.929 . S
C986 C987 1.377 . S
C986 C988 1.384 . S
C987 C986 1.377 . S
C987 C993 1.390 . S
C988 H979 0.930 . S
C988 C986 1.384 . S
C988 C989 1.372 . S
C989 C988 1.372 . S
C989 C990 1.400 . S
C989 C994 1.490 . S
C990 H980 0.930 . S
C990 C989 1.400 . S
C990 C993 1.386 . S
H991 C1007 0.930 . S
H992 C1008 0.931 . S
C993 H981 0.929 . S
C993 C987 1.390 . S
C993 C990 1.386 . S
C994 C989 1.490 . S
C994 C996 1.395 . S
C994 C997 1.403 . S
H995 C1001 0.930 . S
C996 H982 0.930 . S
C996 C994 1.395 . S
C996 C999 1.403 . S
C997 C994 1.403 . S
C997 C998 1.524 . S
C997 C1001 1.400 . S
C998 H983 0.960 . S
C998 H984 0.960 . S
C998 H985 0.960 . S
C998 C997 1.524 . S
C999 C996 1.403 . S
C999 C1000 1.392 . S
C999 C1003 1.495 . S
C1000 C999 1.392 . S
C1000 C1001 1.385 . S
C1000 C1002 1.478 . S
C1001 H995 0.930 . S
C1001 C997 1.400 . S
C1001 C1000 1.385 . S
C1002 C1000 1.478 . S
C1002 C1004 1.381 . S
C1002 C1008 1.383 . S
C1003 C999 1.495 . S
C1003 H1009 0.959 . S
C1003 H1010 0.961 . S
C1003 H1011 0.960 . S
C1004 C1002 1.381 . S
C1004 C1005 1.394 . S
C1004 H1012 0.930 . S
C1005 C1004 1.394 . S
C1005 C1006 1.383 . S
C1005 H1013 0.929 . S
C1006 C1005 1.383 . S
C1006 C1007 1.377 . S
C1007 H991 0.930 . S
C1007 C1006 1.377 . S
C1007 C1008 1.379 . S
C1008 H992 0.931 . S
C1008 C1002 1.383 . S
C1008 C1007 1.379 . S
H1009 C1003 0.959 . S
H1010 C1003 0.961 . S
H1011 C1003 0.960 . S
H1012 C1004 0.930 . S
H1013 C1005 0.929 . S
H1014 C1022 0.929 . S
H1015 C1024 0.930 . S
H1016 C1026 0.930 . S
H1017 C1029 0.929 . S
H1018 C1032 0.930 . S
H1019 C1034 0.960 . S
H1020 C1034 0.960 . S
H1021 C1034 0.960 . S
C1022 H1014 0.929 . S
C1022 C1023 1.377 . S
C1022 C1024 1.384 . S
C1023 C1022 1.377 . S
C1023 C1029 1.390 . S
C1024 H1015 0.930 . S
C1024 C1022 1.384 . S
C1024 C1025 1.372 . S
C1025 C1024 1.372 . S
C1025 C1026 1.400 . S
C1025 C1030 1.490 . S
C1026 H1016 0.930 . S
C1026 C1025 1.400 . S
C1026 C1029 1.386 . S
H1027 C1043 0.930 . S
H1028 C1044 0.931 . S
C1029 H1017 0.929 . S
C1029 C1023 1.390 . S
C1029 C1026 1.386 . S
C1030 C1025 1.490 . S
C1030 C1032 1.395 . S
C1030 C1033 1.403 . S
H1031 C1037 0.930 . S
C1032 H1018 0.930 . S
C1032 C1030 1.395 . S
C1032 C1035 1.403 . S
C1033 C1030 1.403 . S
C1033 C1034 1.524 . S
C1033 C1037 1.400 . S
C1034 H1019 0.960 . S
C1034 H1020 0.960 . S
C1034 H1021 0.960 . S
C1034 C1033 1.524 . S
C1035 C1032 1.403 . S
C1035 C1036 1.392 . S
C1035 C1039 1.495 . S
C1036 C1035 1.392 . S
C1036 C1037 1.385 . S
C1036 C1038 1.478 . S
C1037 H1031 0.930 . S
C1037 C1033 1.400 . S
C1037 C1036 1.385 . S
C1038 C1036 1.478 . S
C1038 C1040 1.381 . S
C1038 C1044 1.383 . S
C1039 C1035 1.495 . S
C1039 H1045 0.959 . S
C1039 H1046 0.961 . S
C1039 H1047 0.960 . S
C1040 C1038 1.381 . S
C1040 C1041 1.394 . S
C1040 H1048 0.930 . S
C1041 C1040 1.394 . S
C1041 C1042 1.383 . S
C1041 H1049 0.929 . S
C1042 C1041 1.383 . S
C1042 C1043 1.377 . S
C1043 H1027 0.930 . S
C1043 C1042 1.377 . S
C1043 C1044 1.379 . S
C1044 H1028 0.931 . S
C1044 C1038 1.383 . S
C1044 C1043 1.379 . S
H1045 C1039 0.959 . S
H1046 C1039 0.961 . S
H1047 C1039 0.960 . S
H1048 C1040 0.930 . S
H1049 C1041 0.929 . S
H1050 C1058 0.929 . S
H1051 C1060 0.930 . S
H1052 C1062 0.930 . S
H1053 C1065 0.929 . S
H1054 C1068 0.930 . S
H1055 C1070 0.960 . S
H1056 C1070 0.960 . S
H1057 C1070 0.960 . S
C1058 H1050 0.929 . S
C1058 C1059 1.377 . S
C1058 C1060 1.384 . S
C1059 C1058 1.377 . S
C1059 C1065 1.390 . S
C1060 H1051 0.930 . S
C1060 C1058 1.384 . S
C1060 C1061 1.372 . S
C1061 C1060 1.372 . S
C1061 C1062 1.400 . S
C1061 C1066 1.490 . S
C1062 H1052 0.930 . S
C1062 C1061 1.400 . S
C1062 C1065 1.386 . S
H1063 C1079 0.930 . S
H1064 C1080 0.931 . S
C1065 H1053 0.929 . S
C1065 C1059 1.390 . S
C1065 C1062 1.386 . S
C1066 C1061 1.490 . S
C1066 C1068 1.395 . S
C1066 C1069 1.403 . S
H1067 C1073 0.930 . S
C1068 H1054 0.930 . S
C1068 C1066 1.395 . S
C1068 C1071 1.403 . S
C1069 C1066 1.403 . S
C1069 C1070 1.524 . S
C1069 C1073 1.400 . S
C1070 H1055 0.960 . S
C1070 H1056 0.960 . S
C1070 H1057 0.960 . S
C1070 C1069 1.524 . S
C1071 C1068 1.403 . S
C1071 C1072 1.392 . S
C1071 C1075 1.495 . S
C1072 C1071 1.392 . S
C1072 C1073 1.385 . S
C1072 C1074 1.478 . S
C1073 H1067 0.930 . S
C1073 C1069 1.400 . S
C1073 C1072 1.385 . S
C1074 C1072 1.478 . S
C1074 C1076 1.381 . S
C1074 C1080 1.383 . S
C1075 C1071 1.495 . S
C1075 H1081 0.959 . S
C1075 H1082 0.961 . S
C1075 H1083 0.960 . S
C1076 C1074 1.381 . S
C1076 C1077 1.394 . S
C1076 H1084 0.930 . S
C1077 C1076 1.394 . S
C1077 C1078 1.383 . S
C1077 H1085 0.929 . S
C1078 C1077 1.383 . S
C1078 C1079 1.377 . S
C1079 H1063 0.930 . S
C1079 C1078 1.377 . S
C1079 C1080 1.379 . S
C1080 H1064 0.931 . S
C1080 C1074 1.383 . S
C1080 C1079 1.379 . S
H1081 C1075 0.959 . S
H1082 C1075 0.961 . S
H1083 C1075 0.960 . S
H1084 C1076 0.930 . S
H1085 C1077 0.929 . S
H1086 C1094 0.929 . S
H1087 C1096 0.930 . S
H1088 C1098 0.930 . S
H1089 C1101 0.929 . S
H1090 C1104 0.930 . S
H1091 C1106 0.960 . S
H1092 C1106 0.960 . S
H1093 C1106 0.960 . S
C1094 H1086 0.929 . S
C1094 C1095 1.377 . S
C1094 C1096 1.384 . S
C1095 C1094 1.377 . S
C1095 C1101 1.390 . S
C1096 H1087 0.930 . S
C1096 C1094 1.384 . S
C1096 C1097 1.372 . S
C1097 C1096 1.372 . S
C1097 C1098 1.400 . S
C1097 C1102 1.490 . S
C1098 H1088 0.930 . S
C1098 C1097 1.400 . S
C1098 C1101 1.386 . S
H1099 C1115 0.930 . S
H1100 C1116 0.931 . S
C1101 H1089 0.929 . S
C1101 C1095 1.390 . S
C1101 C1098 1.386 . S
C1102 C1097 1.490 . S
C1102 C1104 1.395 . S
C1102 C1105 1.403 . S
H1103 C1109 0.930 . S
C1104 H1090 0.930 . S
C1104 C1102 1.395 . S
C1104 C1107 1.403 . S
C1105 C1102 1.403 . S
C1105 C1106 1.524 . S
C1105 C1109 1.400 . S
C1106 H1091 0.960 . S
C1106 H1092 0.960 . S
C1106 H1093 0.960 . S
C1106 C1105 1.524 . S
C1107 C1104 1.403 . S
C1107 C1108 1.392 . S
C1107 C1111 1.495 . S
C1108 C1107 1.392 . S
C1108 C1109 1.385 . S
C1108 C1110 1.478 . S
C1109 H1103 0.930 . S
C1109 C1105 1.400 . S
C1109 C1108 1.385 . S
C1110 C1108 1.478 . S
C1110 C1112 1.381 . S
C1110 C1116 1.383 . S
C1111 C1107 1.495 . S
C1111 H1117 0.959 . S
C1111 H1118 0.961 . S
C1111 H1119 0.960 . S
C1112 C1110 1.381 . S
C1112 C1113 1.394 . S
C1112 H1120 0.930 . S
C1113 C1112 1.394 . S
C1113 C1114 1.383 . S
C1113 H1121 0.929 . S
C1114 C1113 1.383 . S
C1114 C1115 1.377 . S
C1115 H1099 0.930 . S
C1115 C1114 1.377 . S
C1115 C1116 1.379 . S
C1116 H1100 0.931 . S
C1116 C1110 1.383 . S
C1116 C1115 1.379 . S
H1117 C1111 0.959 . S
H1118 C1111 0.961 . S
H1119 C1111 0.960 . S
H1120 C1112 0.930 . S
H1121 C1113 0.929 . S
H1122 C1130 0.929 . S
H1123 C1132 0.930 . S
H1124 C1134 0.930 . S
H1125 C1137 0.929 . S
H1126 C1140 0.930 . S
H1127 C1142 0.960 . S
H1128 C1142 0.960 . S
H1129 C1142 0.960 . S
C1130 H1122 0.929 . S
C1130 C1131 1.377 . S
C1130 C1132 1.384 . S
C1131 C1130 1.377 . S
C1131 C1137 1.390 . S
C1132 H1123 0.930 . S
C1132 C1130 1.384 . S
C1132 C1133 1.372 . S
C1133 C1132 1.372 . S
C1133 C1134 1.400 . S
C1133 C1138 1.490 . S
C1134 H1124 0.930 . S
C1134 C1133 1.400 . S
C1134 C1137 1.386 . S
H1135 C1151 0.930 . S
H1136 C1152 0.931 . S
C1137 H1125 0.929 . S
C1137 C1131 1.390 . S
C1137 C1134 1.386 . S
C1138 C1133 1.490 . S
C1138 C1140 1.395 . S
C1138 C1141 1.403 . S
H1139 C1145 0.930 . S
C1140 H1126 0.930 . S
C1140 C1138 1.395 . S
C1140 C1143 1.403 . S
C1141 C1138 1.403 . S
C1141 C1142 1.524 . S
C1141 C1145 1.400 . S
C1142 H1127 0.960 . S
C1142 H1128 0.960 . S
C1142 H1129 0.960 . S
C1142 C1141 1.524 . S
C1143 C1140 1.403 . S
C1143 C1144 1.392 . S
C1143 C1147 1.495 . S
C1144 C1143 1.392 . S
C1144 C1145 1.385 . S
C1144 C1146 1.478 . S
C1145 H1139 0.930 . S
C1145 C1141 1.400 . S
C1145 C1144 1.385 . S
C1146 C1144 1.478 . S
C1146 C1148 1.381 . S
C1146 C1152 1.383 . S
C1147 C1143 1.495 . S
C1147 H1153 0.959 . S
C1147 H1154 0.961 . S
C1147 H1155 0.960 . S
C1148 C1146 1.381 . S
C1148 C1149 1.394 . S
C1148 H1156 0.930 . S
C1149 C1148 1.394 . S
C1149 C1150 1.383 . S
C1149 H1157 0.929 . S
C1150 C1149 1.383 . S
C1150 C1151 1.377 . S
C1151 H1135 0.930 . S
C1151 C1150 1.377 . S
C1151 C1152 1.379 . S
C1152 H1136 0.931 . S
C1152 C1146 1.383 . S
C1152 C1151 1.379 . S
H1153 C1147 0.959 . S
H1154 C1147 0.961 . S
H1155 C1147 0.960 . S
H1156 C1148 0.930 . S
H1157 C1149 0.929 . S
H1158 C1166 0.929 . S
H1159 C1168 0.930 . S
H1160 C1170 0.930 . S
H1161 C1173 0.929 . S
H1162 C1176 0.930 . S
H1163 C1178 0.960 . S
H1164 C1178 0.960 . S
H1165 C1178 0.960 . S
C1166 H1158 0.929 . S
C1166 C1167 1.377 . S
C1166 C1168 1.384 . S
C1167 C1166 1.377 . S
C1167 C1173 1.390 . S
C1168 H1159 0.930 . S
C1168 C1166 1.384 . S
C1168 C1169 1.372 . S
C1169 C1168 1.372 . S
C1169 C1170 1.400 . S
C1169 C1174 1.490 . S
C1170 H1160 0.930 . S
C1170 C1169 1.400 . S
C1170 C1173 1.386 . S
H1171 C1187 0.930 . S
H1172 C1188 0.931 . S
C1173 H1161 0.929 . S
C1173 C1167 1.390 . S
C1173 C1170 1.386 . S
C1174 C1169 1.490 . S
C1174 C1176 1.395 . S
C1174 C1177 1.403 . S
H1175 C1181 0.930 . S
C1176 H1162 0.930 . S
C1176 C1174 1.395 . S
C1176 C1179 1.403 . S
C1177 C1174 1.403 . S
C1177 C1178 1.524 . S
C1177 C1181 1.400 . S
C1178 H1163 0.960 . S
C1178 H1164 0.960 . S
C1178 H1165 0.960 . S
C1178 C1177 1.524 . S
C1179 C1176 1.403 . S
C1179 C1180 1.392 . S
C1179 C1183 1.495 . S
C1180 C1179 1.392 . S
C1180 C1181 1.385 . S
C1180 C1182 1.478 . S
C1181 H1175 0.930 . S
C1181 C1177 1.400 . S
C1181 C1180 1.385 . S
C1182 C1180 1.478 . S
C1182 C1184 1.381 . S
C1182 C1188 1.383 . S
C1183 C1179 1.495 . S
C1183 H1189 0.959 . S
C1183 H1190 0.961 . S
C1183 H1191 0.960 . S
C1184 C1182 1.381 . S
C1184 C1185 1.394 . S
C1184 H1192 0.930 . S
C1185 C1184 1.394 . S
C1185 C1186 1.383 . S
C1185 H1193 0.929 . S
C1186 C1185 1.383 . S
C1186 C1187 1.377 . S
C1187 H1171 0.930 . S
C1187 C1186 1.377 . S
C1187 C1188 1.379 . S
C1188 H1172 0.931 . S
C1188 C1182 1.383 . S
C1188 C1187 1.379 . S
H1189 C1183 0.959 . S
H1190 C1183 0.961 . S
H1191 C1183 0.960 . S
H1192 C1184 0.930 . S
H1193 C1185 0.929 . S
H1194 C1202 0.929 . S
H1195 C1204 0.930 . S
H1196 C1206 0.930 . S
H1197 C1209 0.929 . S
H1198 C1212 0.930 . S
H1199 C1214 0.960 . S
H1200 C1214 0.960 . S
H1201 C1214 0.960 . S
C1202 H1194 0.929 . S
C1202 C1203 1.377 . S
C1202 C1204 1.384 . S
C1203 C1202 1.377 . S
C1203 C1209 1.390 . S
C1204 H1195 0.930 . S
C1204 C1202 1.384 . S
C1204 C1205 1.372 . S
C1205 C1204 1.372 . S
C1205 C1206 1.400 . S
C1205 C1210 1.490 . S
C1206 H1196 0.930 . S
C1206 C1205 1.400 . S
C1206 C1209 1.386 . S
H1207 C1223 0.930 . S
H1208 C1224 0.931 . S
C1209 H1197 0.929 . S
C1209 C1203 1.390 . S
C1209 C1206 1.386 . S
C1210 C1205 1.490 . S
C1210 C1212 1.395 . S
C1210 C1213 1.403 . S
H1211 C1217 0.930 . S
C1212 H1198 0.930 . S
C1212 C1210 1.395 . S
C1212 C1215 1.403 . S
C1213 C1210 1.403 . S
C1213 C1214 1.524 . S
C1213 C1217 1.400 . S
C1214 H1199 0.960 . S
C1214 H1200 0.960 . S
C1214 H1201 0.960 . S
C1214 C1213 1.524 . S
C1215 C1212 1.403 . S
C1215 C1216 1.392 . S
C1215 C1219 1.495 . S
C1216 C1215 1.392 . S
C1216 C1217 1.385 . S
C1216 C1218 1.478 . S
C1217 H1211 0.930 . S
C1217 C1213 1.400 . S
C1217 C1216 1.385 . S
C1218 C1216 1.478 . S
C1218 C1220 1.381 . S
C1218 C1224 1.383 . S
C1219 C1215 1.495 . S
C1219 H1225 0.959 . S
C1219 H1226 0.961 . S
C1219 H1227 0.960 . S
C1220 C1218 1.381 . S
C1220 C1221 1.394 . S
C1220 H1228 0.930 . S
C1221 C1220 1.394 . S
C1221 C1222 1.383 . S
C1221 H1229 0.929 . S
C1222 C1221 1.383 . S
C1222 C1223 1.377 . S
C1223 H1207 0.930 . S
C1223 C1222 1.377 . S
C1223 C1224 1.379 . S
C1224 H1208 0.931 . S
C1224 C1218 1.383 . S
C1224 C1223 1.379 . S
H1225 C1219 0.959 . S
H1226 C1219 0.961 . S
H1227 C1219 0.960 . S
H1228 C1220 0.930 . S
H1229 C1221 0.929 . S
H1230 C1238 0.929 . S
H1231 C1240 0.930 . S
H1232 C1242 0.930 . S
H1233 C1245 0.929 . S
H1234 C1248 0.930 . S
H1235 C1250 0.960 . S
H1236 C1250 0.960 . S
H1237 C1250 0.960 . S
C1238 H1230 0.929 . S
C1238 C1239 1.377 . S
C1238 C1240 1.384 . S
C1239 C1238 1.377 . S
C1239 C1245 1.390 . S
C1240 H1231 0.930 . S
C1240 C1238 1.384 . S
C1240 C1241 1.372 . S
C1241 C1240 1.372 . S
C1241 C1242 1.400 . S
C1241 C1246 1.490 . S
C1242 H1232 0.930 . S
C1242 C1241 1.400 . S
C1242 C1245 1.386 . S
H1243 C1259 0.930 . S
H1244 C1260 0.931 . S
C1245 H1233 0.929 . S
C1245 C1239 1.390 . S
C1245 C1242 1.386 . S
C1246 C1241 1.490 . S
C1246 C1248 1.395 . S
C1246 C1249 1.403 . S
H1247 C1253 0.930 . S
C1248 H1234 0.930 . S
C1248 C1246 1.395 . S
C1248 C1251 1.403 . S
C1249 C1246 1.403 . S
C1249 C1250 1.524 . S
C1249 C1253 1.400 . S
C1250 H1235 0.960 . S
C1250 H1236 0.960 . S
C1250 H1237 0.960 . S
C1250 C1249 1.524 . S
C1251 C1248 1.403 . S
C1251 C1252 1.392 . S
C1251 C1255 1.495 . S
C1252 C1251 1.392 . S
C1252 C1253 1.385 . S
C1252 C1254 1.478 . S
C1253 H1247 0.930 . S
C1253 C1249 1.400 . S
C1253 C1252 1.385 . S
C1254 C1252 1.478 . S
C1254 C1256 1.381 . S
C1254 C1260 1.383 . S
C1255 C1251 1.495 . S
C1255 H1261 0.959 . S
C1255 H1262 0.961 . S
C1255 H1263 0.960 . S
C1256 C1254 1.381 . S
C1256 C1257 1.394 . S
C1256 H1264 0.930 . S
C1257 C1256 1.394 . S
C1257 C1258 1.383 . S
C1257 H1265 0.929 . S
C1258 C1257 1.383 . S
C1258 C1259 1.377 . S
C1259 H1243 0.930 . S
C1259 C1258 1.377 . S
C1259 C1260 1.379 . S
C1260 H1244 0.931 . S
C1260 C1254 1.383 . S
C1260 C1259 1.379 . S
H1261 C1255 0.959 . S
H1262 C1255 0.961 . S
H1263 C1255 0.960 . S
H1264 C1256 0.930 . S
H1265 C1257 0.929 . S
H1266 C1274 0.929 . S
H1267 C1276 0.930 . S
H1268 C1278 0.930 . S
H1269 C1281 0.929 . S
H1270 C1284 0.930 . S
H1271 C1286 0.960 . S
H1272 C1286 0.960 . S
H1273 C1286 0.960 . S
C1274 H1266 0.929 . S
C1274 C1275 1.377 . S
C1274 C1276 1.384 . S
C1275 C1274 1.377 . S
C1275 C1281 1.390 . S
C1276 H1267 0.930 . S
C1276 C1274 1.384 . S
C1276 C1277 1.372 . S
C1277 C1276 1.372 . S
C1277 C1278 1.400 . S
C1277 C1282 1.490 . S
C1278 H1268 0.930 . S
C1278 C1277 1.400 . S
C1278 C1281 1.386 . S
H1279 C1295 0.930 . S
H1280 C1296 0.931 . S
C1281 H1269 0.929 . S
C1281 C1275 1.390 . S
C1281 C1278 1.386 . S
C1282 C1277 1.490 . S
C1282 C1284 1.395 . S
C1282 C1285 1.403 . S
H1283 C1289 0.930 . S
C1284 H1270 0.930 . S
C1284 C1282 1.395 . S
C1284 C1287 1.403 . S
C1285 C1282 1.403 . S
C1285 C1286 1.524 . S
C1285 C1289 1.400 . S
C1286 H1271 0.960 . S
C1286 H1272 0.960 . S
C1286 H1273 0.960 . S
C1286 C1285 1.524 . S
C1287 C1284 1.403 . S
C1287 C1288 1.392 . S
C1287 C1291 1.495 . S
C1288 C1287 1.392 . S
C1288 C1289 1.385 . S
C1288 C1290 1.478 . S
C1289 H1283 0.930 . S
C1289 C1285 1.400 . S
C1289 C1288 1.385 . S
C1290 C1288 1.478 . S
C1290 C1292 1.381 . S
C1290 C1296 1.383 . S
C1291 C1287 1.495 . S
C1291 H1297 0.959 . S
C1291 H1298 0.961 . S
C1291 H1299 0.960 . S
C1292 C1290 1.381 . S
C1292 C1293 1.394 . S
C1292 H1300 0.930 . S
C1293 C1292 1.394 . S
C1293 C1294 1.383 . S
C1293 H1301 0.929 . S
C1294 C1293 1.383 . S
C1294 C1295 1.377 . S
C1295 H1279 0.930 . S
C1295 C1294 1.377 . S
C1295 C1296 1.379 . S
C1296 H1280 0.931 . S
C1296 C1290 1.383 . S
C1296 C1295 1.379 . S
H1297 C1291 0.959 . S
H1298 C1291 0.961 . S
H1299 C1291 0.960 . S
H1300 C1292 0.930 . S
H1301 C1293 0.929 . S
H1302 C1310 0.929 . S
H1303 C1312 0.930 . S
H1304 C1314 0.930 . S
H1305 C1317 0.929 . S
H1306 C1320 0.930 . S
H1307 C1322 0.960 . S
H1308 C1322 0.960 . S
H1309 C1322 0.960 . S
C1310 H1302 0.929 . S
C1310 C1311 1.377 . S
C1310 C1312 1.384 . S
C1311 C1310 1.377 . S
C1311 C1317 1.390 . S
C1312 H1303 0.930 . S
C1312 C1310 1.384 . S
C1312 C1313 1.372 . S
C1313 C1312 1.372 . S
C1313 C1314 1.400 . S
C1313 C1318 1.490 . S
C1314 H1304 0.930 . S
C1314 C1313 1.400 . S
C1314 C1317 1.386 . S
H1315 C1331 0.930 . S
H1316 C1332 0.931 . S
C1317 H1305 0.929 . S
C1317 C1311 1.390 . S
C1317 C1314 1.386 . S
C1318 C1313 1.490 . S
C1318 C1320 1.395 . S
C1318 C1321 1.403 . S
H1319 C1325 0.930 . S
C1320 H1306 0.930 . S
C1320 C1318 1.395 . S
C1320 C1323 1.403 . S
C1321 C1318 1.403 . S
C1321 C1322 1.524 . S
C1321 C1325 1.400 . S
C1322 H1307 0.960 . S
C1322 H1308 0.960 . S
C1322 H1309 0.960 . S
C1322 C1321 1.524 . S
C1323 C1320 1.403 . S
C1323 C1324 1.392 . S
C1323 C1327 1.495 . S
C1324 C1323 1.392 . S
C1324 C1325 1.385 . S
C1324 C1326 1.478 . S
C1325 H1319 0.930 . S
C1325 C1321 1.400 . S
C1325 C1324 1.385 . S
C1326 C1324 1.478 . S
C1326 C1328 1.381 1_556 S
C1326 C1332 1.383 1_556 S
C1327 C1323 1.495 . S
C1327 H1333 0.959 . S
C1327 H1334 0.961 . S
C1327 H1335 0.960 . S
C1328 C1326 1.381 1_554 S
C1328 C1329 1.394 . S
C1328 H1336 0.930 1_554 S
C1329 C1328 1.394 . S
C1329 C1330 1.383 . S
C1329 H1337 0.929 . S
C1330 C1329 1.383 . S
C1330 C1331 1.377 . S
C1331 H1315 0.930 . S
C1331 C1330 1.377 . S
C1331 C1332 1.379 . S
C1332 H1316 0.931 . S
C1332 C1326 1.383 1_554 S
C1332 C1331 1.379 . S
H1333 C1327 0.959 . S
H1334 C1327 0.961 . S
H1335 C1327 0.960 . S
H1336 C1328 0.930 1_556 S
H1337 C1329 0.929 . S
H1338 C1346 0.929 . S
H1339 C1348 0.930 . S
H1340 C1350 0.930 . S
H1341 C1353 0.929 . S
H1342 C1356 0.930 . S
H1343 C1358 0.960 . S
H1344 C1358 0.960 . S
H1345 C1358 0.960 . S
C1346 H1338 0.929 . S
C1346 C1347 1.377 . S
C1346 C1348 1.384 . S
C1347 C1346 1.377 . S
C1347 C1353 1.390 . S
C1348 H1339 0.930 . S
C1348 C1346 1.384 . S
C1348 C1349 1.372 . S
C1349 C1348 1.372 . S
C1349 C1350 1.400 . S
C1349 C1354 1.490 . S
C1350 H1340 0.930 . S
C1350 C1349 1.400 . S
C1350 C1353 1.386 . S
H1351 C1367 0.930 . S
H1352 C1368 0.931 . S
C1353 H1341 0.929 . S
C1353 C1347 1.390 . S
C1353 C1350 1.386 . S
C1354 C1349 1.490 . S
C1354 C1356 1.395 . S
C1354 C1357 1.403 . S
H1355 C1361 0.930 . S
C1356 H1342 0.930 . S
C1356 C1354 1.395 . S
C1356 C1359 1.403 . S
C1357 C1354 1.403 . S
C1357 C1358 1.524 . S
C1357 C1361 1.400 . S
C1358 H1343 0.960 . S
C1358 H1344 0.960 . S
C1358 H1345 0.960 . S
C1358 C1357 1.524 . S
C1359 C1356 1.403 . S
C1359 C1360 1.392 . S
C1359 C1363 1.495 . S
C1360 C1359 1.392 . S
C1360 C1361 1.385 . S
C1360 C1362 1.478 . S
C1361 H1355 0.930 . S
C1361 C1357 1.400 . S
C1361 C1360 1.385 . S
C1362 C1360 1.478 . S
C1362 C1364 1.381 . S
C1362 C1368 1.383 . S
C1363 C1359 1.495 . S
C1363 H1369 0.959 . S
C1363 H1370 0.961 . S
C1363 H1371 0.960 . S
C1364 C1362 1.381 . S
C1364 C1365 1.394 . S
C1364 H1372 0.930 . S
C1365 C1364 1.394 . S
C1365 C1366 1.383 . S
C1365 H1373 0.929 . S
C1366 C1365 1.383 . S
C1366 C1367 1.377 . S
C1367 H1351 0.930 . S
C1367 C1366 1.377 . S
C1367 C1368 1.379 . S
C1368 H1352 0.931 . S
C1368 C1362 1.383 . S
C1368 C1367 1.379 . S
H1369 C1363 0.959 . S
H1370 C1363 0.961 . S
H1371 C1363 0.960 . S
H1372 C1364 0.930 . S
H1373 C1365 0.929 . S
H1374 C1382 0.929 . S
H1375 C1384 0.930 . S
H1376 C1386 0.930 . S
H1377 C1389 0.929 . S
H1378 C1392 0.930 . S
H1379 C1394 0.960 . S
H1380 C1394 0.960 . S
H1381 C1394 0.960 . S
C1382 H1374 0.929 . S
C1382 C1383 1.377 . S
C1382 C1384 1.384 . S
C1383 C1382 1.377 . S
C1383 C1389 1.390 . S
C1384 H1375 0.930 . S
C1384 C1382 1.384 . S
C1384 C1385 1.372 . S
C1385 C1384 1.372 . S
C1385 C1386 1.400 . S
C1385 C1390 1.490 . S
C1386 H1376 0.930 . S
C1386 C1385 1.400 . S
C1386 C1389 1.386 . S
H1387 C1403 0.930 . S
H1388 C1404 0.931 . S
C1389 H1377 0.929 . S
C1389 C1383 1.390 . S
C1389 C1386 1.386 . S
C1390 C1385 1.490 . S
C1390 C1392 1.395 . S
C1390 C1393 1.403 . S
H1391 C1397 0.930 . S
C1392 H1378 0.930 . S
C1392 C1390 1.395 . S
C1392 C1395 1.403 . S
C1393 C1390 1.403 . S
C1393 C1394 1.524 . S
C1393 C1397 1.400 . S
C1394 H1379 0.960 . S
C1394 H1380 0.960 . S
C1394 H1381 0.960 . S
C1394 C1393 1.524 . S
C1395 C1392 1.403 . S
C1395 C1396 1.392 . S
C1395 C1399 1.495 . S
C1396 C1395 1.392 . S
C1396 C1397 1.385 . S
C1396 C1398 1.478 . S
C1397 H1391 0.930 . S
C1397 C1393 1.400 . S
C1397 C1396 1.385 . S
C1398 C1396 1.478 . S
C1398 C1400 1.381 . S
C1398 C1404 1.383 . S
C1399 C1395 1.495 . S
C1399 H1405 0.959 . S
C1399 H1406 0.961 . S
C1399 H1407 0.960 . S
C1400 C1398 1.381 . S
C1400 C1401 1.394 . S
C1400 H1408 0.930 . S
C1401 C1400 1.394 . S
C1401 C1402 1.383 . S
C1401 H1409 0.929 . S
C1402 C1401 1.383 . S
C1402 C1403 1.377 . S
C1403 H1387 0.930 . S
C1403 C1402 1.377 . S
C1403 C1404 1.379 . S
C1404 H1388 0.931 . S
C1404 C1398 1.383 . S
C1404 C1403 1.379 . S
H1405 C1399 0.959 . S
H1406 C1399 0.961 . S
H1407 C1399 0.960 . S
H1408 C1400 0.930 . S
H1409 C1401 0.929 . S
H1410 C1418 0.929 . S
H1411 C1420 0.930 . S
H1412 C1422 0.930 . S
H1413 C1425 0.929 . S
H1414 C1428 0.930 . S
H1415 C1430 0.960 . S
H1416 C1430 0.960 . S
H1417 C1430 0.960 . S
C1418 H1410 0.929 . S
C1418 C1419 1.377 . S
C1418 C1420 1.384 . S
C1419 C1418 1.377 . S
C1419 C1425 1.390 . S
C1420 H1411 0.930 . S
C1420 C1418 1.384 . S
C1420 C1421 1.372 . S
C1421 C1420 1.372 . S
C1421 C1422 1.400 . S
C1421 C1426 1.490 . S
C1422 H1412 0.930 . S
C1422 C1421 1.400 . S
C1422 C1425 1.386 . S
H1423 C1439 0.930 . S
H1424 C1440 0.931 . S
C1425 H1413 0.929 . S
C1425 C1419 1.390 . S
C1425 C1422 1.386 . S
C1426 C1421 1.490 . S
C1426 C1428 1.395 . S
C1426 C1429 1.403 . S
H1427 C1433 0.930 . S
C1428 H1414 0.930 . S
C1428 C1426 1.395 . S
C1428 C1431 1.403 . S
C1429 C1426 1.403 . S
C1429 C1430 1.524 . S
C1429 C1433 1.400 . S
C1430 H1415 0.960 . S
C1430 H1416 0.960 . S
C1430 H1417 0.960 . S
C1430 C1429 1.524 . S
C1431 C1428 1.403 . S
C1431 C1432 1.392 . S
C1431 C1435 1.495 . S
C1432 C1431 1.392 . S
C1432 C1433 1.385 . S
C1432 C1434 1.478 . S
C1433 H1427 0.930 . S
C1433 C1429 1.400 . S
C1433 C1432 1.385 . S
C1434 C1432 1.478 . S
C1434 C1436 1.381 . S
C1434 C1440 1.383 . S
C1435 C1431 1.495 . S
C1435 H1441 0.959 . S
C1435 H1442 0.961 . S
C1435 H1443 0.960 . S
C1436 C1434 1.381 . S
C1436 C1437 1.394 . S
C1436 H1444 0.930 . S
C1437 C1436 1.394 . S
C1437 C1438 1.383 . S
C1437 H1445 0.929 . S
C1438 C1437 1.383 . S
C1438 C1439 1.377 . S
C1439 H1423 0.930 . S
C1439 C1438 1.377 . S
C1439 C1440 1.379 . S
C1440 H1424 0.931 . S
C1440 C1434 1.383 . S
C1440 C1439 1.379 . S
H1441 C1435 0.959 . S
H1442 C1435 0.961 . S
H1443 C1435 0.960 . S
H1444 C1436 0.930 . S
H1445 C1437 0.929 . S
H1446 C1454 0.929 . S
H1447 C1456 0.930 . S
H1448 C1458 0.930 . S
H1449 C1461 0.929 . S
H1450 C1464 0.930 . S
H1451 C1466 0.960 . S
H1452 C1466 0.960 . S
H1453 C1466 0.960 . S
C1454 H1446 0.929 . S
C1454 C1455 1.377 . S
C1454 C1456 1.384 . S
C1455 C1454 1.377 . S
C1455 C1461 1.390 . S
C1456 H1447 0.930 . S
C1456 C1454 1.384 . S
C1456 C1457 1.372 . S
C1457 C1456 1.372 . S
C1457 C1458 1.400 . S
C1457 C1462 1.490 . S
C1458 H1448 0.930 . S
C1458 C1457 1.400 . S
C1458 C1461 1.386 . S
H1459 C1475 0.930 . S
H1460 C1476 0.931 . S
C1461 H1449 0.929 . S
C1461 C1455 1.390 . S
C1461 C1458 1.386 . S
C1462 C1457 1.490 . S
C1462 C1464 1.395 . S
C1462 C1465 1.403 . S
H1463 C1469 0.930 . S
C1464 H1450 0.930 . S
C1464 C1462 1.395 . S
C1464 C1467 1.403 . S
C1465 C1462 1.403 . S
C1465 C1466 1.524 . S
C1465 C1469 1.400 . S
C1466 H1451 0.960 . S
C1466 H1452 0.960 . S
C1466 H1453 0.960 . S
C1466 C1465 1.524 . S
C1467 C1464 1.403 . S
C1467 C1468 1.392 . S
C1467 C1471 1.495 . S
C1468 C1467 1.392 . S
C1468 C1469 1.385 . S
C1468 C1470 1.478 . S
C1469 H1463 0.930 . S
C1469 C1465 1.400 . S
C1469 C1468 1.385 . S
C1470 C1468 1.478 . S
C1470 C1472 1.381 . S
C1470 C1476 1.383 . S
C1471 C1467 1.495 . S
C1471 H1477 0.959 . S
C1471 H1478 0.961 . S
C1471 H1479 0.960 . S
C1472 C1470 1.381 . S
C1472 C1473 1.394 . S
C1472 H1480 0.930 . S
C1473 C1472 1.394 . S
C1473 C1474 1.383 . S
C1473 H1481 0.929 . S
C1474 C1473 1.383 . S
C1474 C1475 1.377 . S
C1475 H1459 0.930 . S
C1475 C1474 1.377 . S
C1475 C1476 1.379 . S
C1476 H1460 0.931 . S
C1476 C1470 1.383 . S
C1476 C1475 1.379 . S
H1477 C1471 0.959 . S
H1478 C1471 0.961 . S
H1479 C1471 0.960 . S
H1480 C1472 0.930 . S
H1481 C1473 0.929 . S
H1482 C1490 0.929 . S
H1483 C1492 0.930 . S
H1484 C1494 0.930 . S
H1485 C1497 0.929 . S
H1486 C1500 0.930 . S
H1487 C1502 0.960 . S
H1488 C1502 0.960 . S
H1489 C1502 0.960 . S
C1490 H1482 0.929 . S
C1490 C1491 1.377 . S
C1490 C1492 1.384 . S
C1491 C1490 1.377 . S
C1491 C1497 1.390 . S
C1492 H1483 0.930 . S
C1492 C1490 1.384 . S
C1492 C1493 1.372 . S
C1493 C1492 1.372 . S
C1493 C1494 1.400 . S
C1493 C1498 1.490 . S
C1494 H1484 0.930 . S
C1494 C1493 1.400 . S
C1494 C1497 1.386 . S
H1495 C1511 0.930 . S
H1496 C1512 0.931 . S
C1497 H1485 0.929 . S
C1497 C1491 1.390 . S
C1497 C1494 1.386 . S
C1498 C1493 1.490 . S
C1498 C1500 1.395 . S
C1498 C1501 1.403 . S
H1499 C1505 0.930 . S
C1500 H1486 0.930 . S
C1500 C1498 1.395 . S
C1500 C1503 1.403 . S
C1501 C1498 1.403 . S
C1501 C1502 1.524 . S
C1501 C1505 1.400 . S
C1502 H1487 0.960 . S
C1502 H1488 0.960 . S
C1502 H1489 0.960 . S
C1502 C1501 1.524 . S
C1503 C1500 1.403 . S
C1503 C1504 1.392 . S
C1503 C1507 1.495 . S
C1504 C1503 1.392 . S
C1504 C1505 1.385 . S
C1504 C1506 1.478 . S
C1505 H1499 0.930 . S
C1505 C1501 1.400 . S
C1505 C1504 1.385 . S
C1506 C1504 1.478 . S
C1506 C1508 1.381 . S
C1506 C1512 1.383 . S
C1507 C1503 1.495 . S
C1507 H1513 0.959 . S
C1507 H1514 0.961 . S
C1507 H1515 0.960 . S
C1508 C1506 1.381 . S
C1508 C1509 1.394 . S
C1508 H1516 0.930 . S
C1509 C1508 1.394 . S
C1509 C1510 1.383 . S
C1509 H1517 0.929 . S
C1510 C1509 1.383 . S
C1510 C1511 1.377 . S
C1511 H1495 0.930 . S
C1511 C1510 1.377 . S
C1511 C1512 1.379 . S
C1512 H1496 0.931 . S
C1512 C1506 1.383 . S
C1512 C1511 1.379 . S
H1513 C1507 0.959 . S
H1514 C1507 0.961 . S
H1515 C1507 0.960 . S
H1516 C1508 0.930 . S
H1517 C1509 0.929 . S
H1518 C1526 0.929 . S
H1519 C1528 0.930 . S
H1520 C1530 0.930 . S
H1521 C1533 0.929 . S
H1522 C1536 0.930 . S
H1523 C1538 0.960 . S
H1524 C1538 0.960 . S
H1525 C1538 0.960 . S
C1526 H1518 0.929 . S
C1526 C1527 1.377 . S
C1526 C1528 1.384 . S
C1527 C1526 1.377 . S
C1527 C1533 1.390 . S
C1528 H1519 0.930 . S
C1528 C1526 1.384 . S
C1528 C1529 1.372 . S
C1529 C1528 1.372 . S
C1529 C1530 1.400 . S
C1529 C1534 1.490 . S
C1530 H1520 0.930 . S
C1530 C1529 1.400 . S
C1530 C1533 1.386 . S
H1531 C1547 0.930 . S
H1532 C1548 0.931 . S
C1533 H1521 0.929 . S
C1533 C1527 1.390 . S
C1533 C1530 1.386 . S
C1534 C1529 1.490 . S
C1534 C1536 1.395 . S
C1534 C1537 1.403 . S
H1535 C1541 0.930 . S
C1536 H1522 0.930 . S
C1536 C1534 1.395 . S
C1536 C1539 1.403 . S
C1537 C1534 1.403 . S
C1537 C1538 1.524 . S
C1537 C1541 1.400 . S
C1538 H1523 0.960 . S
C1538 H1524 0.960 . S
C1538 H1525 0.960 . S
C1538 C1537 1.524 . S
C1539 C1536 1.403 . S
C1539 C1540 1.392 . S
C1539 C1543 1.495 . S
C1540 C1539 1.392 . S
C1540 C1541 1.385 . S
C1540 C1542 1.478 . S
C1541 H1535 0.930 . S
C1541 C1537 1.400 . S
C1541 C1540 1.385 . S
C1542 C1540 1.478 . S
C1542 C1544 1.381 . S
C1542 C1548 1.383 . S
C1543 C1539 1.495 . S
C1543 H1549 0.959 . S
C1543 H1550 0.961 . S
C1543 H1551 0.960 . S
C1544 C1542 1.381 . S
C1544 C1545 1.394 . S
C1544 H1552 0.930 . S
C1545 C1544 1.394 . S
C1545 C1546 1.383 . S
C1545 H1553 0.929 . S
C1546 C1545 1.383 . S
C1546 C1547 1.377 . S
C1547 H1531 0.930 . S
C1547 C1546 1.377 . S
C1547 C1548 1.379 . S
C1548 H1532 0.931 . S
C1548 C1542 1.383 . S
C1548 C1547 1.379 . S
H1549 C1543 0.959 . S
H1550 C1543 0.961 . S
H1551 C1543 0.960 . S
H1552 C1544 0.930 . S
H1553 C1545 0.929 . S
H1554 C1562 0.929 . S
H1555 C1564 0.930 . S
H1556 C1566 0.930 . S
H1557 C1569 0.929 . S
H1558 C1572 0.930 . S
H1559 C1574 0.960 . S
H1560 C1574 0.960 . S
H1561 C1574 0.960 . S
C1562 H1554 0.929 . S
C1562 C1563 1.377 . S
C1562 C1564 1.384 . S
C1563 C1562 1.377 . S
C1563 C1569 1.390 . S
C1564 H1555 0.930 . S
C1564 C1562 1.384 . S
C1564 C1565 1.372 . S
C1565 C1564 1.372 . S
C1565 C1566 1.400 . S
C1565 C1570 1.490 . S
C1566 H1556 0.930 . S
C1566 C1565 1.400 . S
C1566 C1569 1.386 . S
H1567 C1583 0.930 . S
H1568 C1584 0.931 . S
C1569 H1557 0.929 . S
C1569 C1563 1.390 . S
C1569 C1566 1.386 . S
C1570 C1565 1.490 . S
C1570 C1572 1.395 1_554 S
C1570 C1573 1.403 . S
H1571 C1577 0.930 . S
C1572 H1558 0.930 . S
C1572 C1570 1.395 1_556 S
C1572 C1575 1.403 . S
C1573 C1570 1.403 . S
C1573 C1574 1.524 . S
C1573 C1577 1.400 1_554 S
C1574 H1559 0.960 . S
C1574 H1560 0.960 . S
C1574 H1561 0.960 . S
C1574 C1573 1.524 . S
C1575 C1572 1.403 . S
C1575 C1576 1.392 . S
C1575 C1579 1.495 . S
C1576 C1575 1.392 . S
C1576 C1577 1.385 . S
C1576 C1578 1.478 . S
C1577 H1571 0.930 . S
C1577 C1573 1.400 1_556 S
C1577 C1576 1.385 . S
C1578 C1576 1.478 . S
C1578 C1580 1.381 . S
C1578 C1584 1.383 . S
C1579 C1575 1.495 . S
C1579 H1585 0.959 . S
C1579 H1586 0.961 . S
C1579 H1587 0.960 . S
C1580 C1578 1.381 . S
C1580 C1581 1.394 . S
C1580 H1588 0.930 . S
C1581 C1580 1.394 . S
C1581 C1582 1.383 . S
C1581 H1589 0.929 . S
C1582 C1581 1.383 . S
C1582 C1583 1.377 . S
C1583 H1567 0.930 . S
C1583 C1582 1.377 . S
C1583 C1584 1.379 . S
C1584 H1568 0.931 . S
C1584 C1578 1.383 . S
C1584 C1583 1.379 . S
H1585 C1579 0.959 . S
H1586 C1579 0.961 . S
H1587 C1579 0.960 . S
H1588 C1580 0.930 . S
H1589 C1581 0.929 . S
H1590 C1598 0.929 . S
H1591 C1600 0.930 . S
H1592 C1602 0.930 . S
H1593 C1605 0.929 . S
H1594 C1608 0.930 . S
H1595 C1610 0.960 . S
H1596 C1610 0.960 . S
H1597 C1610 0.960 . S
C1598 H1590 0.929 . S
C1598 C1599 1.377 . S
C1598 C1600 1.384 . S
C1599 C1598 1.377 . S
C1599 C1605 1.390 . S
C1600 H1591 0.930 . S
C1600 C1598 1.384 . S
C1600 C1601 1.372 . S
C1601 C1600 1.372 . S
C1601 C1602 1.400 . S
C1601 C1606 1.490 . S
C1602 H1592 0.930 . S
C1602 C1601 1.400 . S
C1602 C1605 1.386 . S
H1603 C1619 0.930 . S
H1604 C1620 0.931 . S
C1605 H1593 0.929 . S
C1605 C1599 1.390 . S
C1605 C1602 1.386 . S
C1606 C1601 1.490 . S
C1606 C1608 1.395 . S
C1606 C1609 1.403 . S
H1607 C1613 0.930 . S
C1608 H1594 0.930 . S
C1608 C1606 1.395 . S
C1608 C1611 1.403 . S
C1609 C1606 1.403 . S
C1609 C1610 1.524 . S
C1609 C1613 1.400 . S
C1610 H1595 0.960 . S
C1610 H1596 0.960 . S
C1610 H1597 0.960 . S
C1610 C1609 1.524 . S
C1611 C1608 1.403 . S
C1611 C1612 1.392 . S
C1611 C1615 1.495 . S
C1612 C1611 1.392 . S
C1612 C1613 1.385 . S
C1612 C1614 1.478 . S
C1613 H1607 0.930 . S
C1613 C1609 1.400 . S
C1613 C1612 1.385 . S
C1614 C1612 1.478 . S
C1614 C1616 1.381 . S
C1614 C1620 1.383 . S
C1615 C1611 1.495 . S
C1615 H1621 0.959 . S
C1615 H1622 0.961 . S
C1615 H1623 0.960 . S
C1616 C1614 1.381 . S
C1616 C1617 1.394 . S
C1616 H1624 0.930 . S
C1617 C1616 1.394 . S
C1617 C1618 1.383 . S
C1617 H1625 0.929 . S
C1618 C1617 1.383 . S
C1618 C1619 1.377 . S
C1619 H1603 0.930 . S
C1619 C1618 1.377 . S
C1619 C1620 1.379 . S
C1620 H1604 0.931 . S
C1620 C1614 1.383 . S
C1620 C1619 1.379 . S
H1621 C1615 0.959 . S
H1622 C1615 0.961 . S
H1623 C1615 0.960 . S
H1624 C1616 0.930 . S
H1625 C1617 0.929 . S
C790 C759 1.656 . S
C771 C1 1.219 . S
C807 C169 1.429 . S
C826 C684 1.614 . S
C843 C283 1.517 . S
C862 C707 1.818 . S
C879 C397 1.060 . S
C898 C720 1.341 . S
C934 C723 1.457 . S
C915 C457 1.082 . S
C951 C571 0.969 . S
C970 C736 1.284 . S
C987 C115 1.085 . S
C1006 C697 1.404 . S
C1023 C229 1.128 . S
C1042 C710 1.463 . S
C1059 C343 0.924 . S
C1078 C733 1.212 . S
C1114 C746 1.688 . S
C1095 C511 1.407 . S
C1150 C749 1.598 . S
C1131 C625 1.385 . S
C1186 C694 1.809 . S
C1167 C55 1.512 . S
C1203 C29 1.073 . S
C1222 C705 1.313 . S
C1239 C125 0.920 . S
C1258 C718 1.422 . S
C1294 C728 1.418 . S
C1275 C239 0.924 . S
C1311 C353 0.822 . S
C1330 C741 1.334 . S
C1366 C757 1.328 . S
C1347 C485 1.067 . S
C1402 C689 1.305 . S
C1383 C599 1.100 . S
C1438 C754 1.317 . S
C1419 C143 1.087 . S
C1455 C257 1.111 . S
C1474 C692 1.387 . S
C1510 C702 1.252 . S
C1491 C371 1.048 . S
C1527 C467 0.930 . S
C1546 C715 1.415 . S
C1563 C581 0.882 . S
C1582 C731 1.353 . S
C1599 C11 0.928 . S
C1618 C744 1.421 . S
