# Generated by pormake.
# Topology zzz, (3,6)-cn, num edge types: 1
# Building blocks:
#     Node 0, Type 0, BuildingBlock: CUQRIR_clean_linker_1, # of connection points: 3
#     Node 1, Type 0, BuildingBlock: CUQRIR_clean_linker_1, # of connection points: 3
#     Node 2, Type 0, BuildingBlock: CUQRIR_clean_linker_1, # of connection points: 3
#     Node 3, Type 0, BuildingBlock: CUQRIR_clean_linker_1, # of connection points: 3
#     Node 4, Type 0, BuildingBlock: CUQRIR_clean_linker_1, # of connection points: 3
#     Node 5, Type 0, BuildingBlock: CUQRIR_clean_linker_1, # of connection points: 3
#     Node 6, Type 0, BuildingBlock: CUQRIR_clean_linker_1, # of connection points: 3
#     Node 7, Type 0, BuildingBlock: CUQRIR_clean_linker_1, # of connection points: 3
#     Node 8, Type 1, BuildingBlock: MIFKUJ_clean_sbu_0, # of connection points: 6
#     Node 9, Type 1, BuildingBlock: MIFKUJ_clean_sbu_0, # of connection points: 6
#     Node 10, Type 1, BuildingBlock: MIFKUJ_clean_sbu_0, # of connection points: 6
#     Node 11, Type 1, BuildingBlock: MIFKUJ_clean_sbu_0, # of connection points: 6
#     Edge 12, Type (0, 1), BuildingBlock: KIFKEQ_clean_linker_1, # of connection points: 2
#     Edge 13, Type (0, 1), BuildingBlock: KIFKEQ_clean_linker_1, # of connection points: 2
#     Edge 14, Type (0, 1), BuildingBlock: KIFKEQ_clean_linker_1, # of connection points: 2
#     Edge 15, Type (0, 1), BuildingBlock: KIFKEQ_clean_linker_1, # of connection points: 2
#     Edge 16, Type (0, 1), BuildingBlock: KIFKEQ_clean_linker_1, # of connection points: 2
#     Edge 17, Type (0, 1), BuildingBlock: KIFKEQ_clean_linker_1, # of connection points: 2
#     Edge 18, Type (0, 1), BuildingBlock: KIFKEQ_clean_linker_1, # of connection points: 2
#     Edge 19, Type (0, 1), BuildingBlock: KIFKEQ_clean_linker_1, # of connection points: 2
#     Edge 20, Type (0, 1), BuildingBlock: KIFKEQ_clean_linker_1, # of connection points: 2
#     Edge 21, Type (0, 1), BuildingBlock: KIFKEQ_clean_linker_1, # of connection points: 2
#     Edge 22, Type (0, 1), BuildingBlock: KIFKEQ_clean_linker_1, # of connection points: 2
#     Edge 23, Type (0, 1), BuildingBlock: KIFKEQ_clean_linker_1, # of connection points: 2
#     Edge 24, Type (0, 1), BuildingBlock: KIFKEQ_clean_linker_1, # of connection points: 2
#     Edge 25, Type (0, 1), BuildingBlock: KIFKEQ_clean_linker_1, # of connection points: 2
#     Edge 26, Type (0, 1), BuildingBlock: KIFKEQ_clean_linker_1, # of connection points: 2
#     Edge 27, Type (0, 1), BuildingBlock: KIFKEQ_clean_linker_1, # of connection points: 2
#     Edge 28, Type (0, 1), BuildingBlock: KIFKEQ_clean_linker_1, # of connection points: 2
#     Edge 29, Type (0, 1), BuildingBlock: KIFKEQ_clean_linker_1, # of connection points: 2
#     Edge 30, Type (0, 1), BuildingBlock: KIFKEQ_clean_linker_1, # of connection points: 2
#     Edge 31, Type (0, 1), BuildingBlock: KIFKEQ_clean_linker_1, # of connection points: 2
#     Edge 32, Type (0, 1), BuildingBlock: KIFKEQ_clean_linker_1, # of connection points: 2
#     Edge 33, Type (0, 1), BuildingBlock: KIFKEQ_clean_linker_1, # of connection points: 2
#     Edge 34, Type (0, 1), BuildingBlock: KIFKEQ_clean_linker_1, # of connection points: 2
#     Edge 35, Type (0, 1), BuildingBlock: KIFKEQ_clean_linker_1, # of connection points: 2
# Relax obj value: 0.125
# Max RMSD: 0.121
# Mean RMSD: 0.092
data_MOF--net-zzz--node1-MIFKUJ_clean_sbu_0--node2-CUQRIR_clean_linker_1--edge1-KIFKEQ_clean_linker_1
_symmetry_space_group_name_H-M    P1
_symmetry_Int_Tables_number       1
_symmetry_cell_setting            triclinic
loop_
_symmetry_equiv_pos_as_xyz
'x, y, z'
_cell_length_a     48.178883
_cell_length_b     48.628482
_cell_length_c     14.601876
_cell_angle_alpha  90.200966
_cell_angle_beta   89.302718
_cell_angle_gamma 90.345109
loop_
_atom_site_label
_atom_site_type_symbol
_atom_site_fract_x
_atom_site_fract_y
_atom_site_fract_z
_atom_type_partial_charge
C0 C 0.71157 0.54819 0.15428 0.0
N1 N 0.7395 0.55085 0.14741 0.0
N2 N 0.69988 0.55107 0.07095 0.0
C3 C 0.69595 0.54071 0.24012 0.0
C4 C 0.7217 0.55502 0.01327 0.0
N5 N 0.74572 0.55484 0.05967 0.0
C6 C 0.71985 0.55473 0.91045 0.0
H7 H 0.6947 0.51797 0.24514 0.0
H8 H 0.6745 0.54888 0.23827 0.0
H9 H 0.70682 0.54872 0.30133 0.0
H10 H 0.69887 0.56073 0.88758 0.0
H11 H 0.72429 0.53365 0.88509 0.0
H12 H 0.73551 0.56889 0.87991 0.0
C13 C 0.98539 0.7217 0.14591 0.0
N14 N 0.98761 0.74946 0.14039 0.0
N15 N 0.98626 0.71031 0.06086 0.0
C16 C 0.98545 0.70583 0.23367 0.0
C17 C 0.98932 0.73205 0.00418 0.0
N18 N 0.99026 0.75572 0.05228 0.0
C19 C 0.99259 0.72993 0.90182 0.0
H20 H 0.00663 0.70657 0.26261 0.0
H21 H 0.97937 0.68405 0.22226 0.0
H22 H 0.97111 0.7155 0.28419 0.0
H23 H 0.98608 0.74923 0.86817 0.0
H24 H 0.98019 0.71243 0.87501 0.0
H25 H 0.01474 0.72615 0.88453 0.0
C26 C 0.78202 0.96877 0.16068 0.0
N27 N 0.75387 0.96908 0.15854 0.0
N28 N 0.79279 0.9665 0.07434 0.0
C29 C 0.79885 0.9708 0.24611 0.0
C30 C 0.77017 0.96604 0.02017 0.0
N31 N 0.74674 0.9675 0.07128 0.0
C32 C 0.77108 0.96698 0.91698 0.0
H33 H 0.80233 0.99283 0.26258 0.0
H34 H 0.81934 0.96083 0.23617 0.0
H35 H 0.78755 0.96121 0.3046 0.0
H36 H 0.77324 0.94571 0.89013 0.0
H37 H 0.78917 0.97923 0.89236 0.0
H38 H 0.75188 0.97589 0.88868 0.0
C39 C 0.51118 0.79074 0.15947 0.0
N40 N 0.50356 0.76392 0.16528 0.0
N41 N 0.50377 0.80115 0.07722 0.0
C42 C 0.52644 0.80654 0.23159 0.0
C43 C 0.49135 0.77983 0.03403 0.0
N44 N 0.49113 0.75735 0.08757 0.0
C45 C 0.48127 0.78039 0.93691 0.0
H46 H 0.51267 0.82282 0.25952 0.0
H47 H 0.54482 0.81688 0.20035 0.0
H48 H 0.53306 0.79301 0.28821 0.0
H49 H 0.49853 0.77433 0.89023 0.0
H50 H 0.47437 0.80133 0.91798 0.0
H51 H 0.46388 0.76566 0.92727 0.0
C52 C 0.289 0.45261 0.02619 0.0
N53 N 0.26103 0.45045 0.03406 0.0
N54 N 0.30083 0.45124 0.10984 0.0
C55 C 0.30454 0.45909 0.93933 0.0
C56 C 0.27902 0.44886 0.16842 0.0
N57 N 0.25494 0.44852 0.1226 0.0
C58 C 0.28104 0.45102 0.27094 0.0
H59 H 0.32294 0.44555 0.93319 0.0
H60 H 0.31217 0.48065 0.94238 0.0
H61 H 0.29119 0.45645 0.8785 0.0
H62 H 0.28137 0.47306 0.29087 0.0
H63 H 0.30048 0.44144 0.29497 0.0
H64 H 0.26289 0.44101 0.30477 0.0
C65 C 0.00196 0.2872 0.02722 0.0
N66 N 0.00267 0.25961 0.04136 0.0
N67 N 0.00296 0.3009 0.10846 0.0
C68 C 0.99998 0.30072 0.93554 0.0
C69 C 0.00408 0.28078 0.17185 0.0
N70 N 0.00392 0.25594 0.13112 0.0
C71 C 0.00314 0.28519 0.274 0.0
H72 H 0.01148 0.32056 0.93551 0.0
H73 H 0.97785 0.30506 0.92167 0.0
H74 H 0.00817 0.2871 0.88051 0.0
H75 H 0.9827 0.27809 0.30094 0.0
H76 H 0.00621 0.30706 0.29319 0.0
H77 H 0.01932 0.27265 0.30708 0.0
C78 C 0.22147 0.03707 0.02005 0.0
N79 N 0.24904 0.0425 0.02685 0.0
N80 N 0.208 0.04369 0.09929 0.0
C81 C 0.2082 0.02277 0.94064 0.0
C82 C 0.22849 0.0527 0.15443 0.0
N83 N 0.25339 0.05164 0.11125 0.0
C84 C 0.22458 0.05923 0.25455 0.0
H85 H 0.18657 0.03003 0.93244 0.0
H86 H 0.20747 0.00035 0.9545 0.0
H87 H 0.22032 0.02628 0.87659 0.0
H88 H 0.22449 0.0398 0.29418 0.0
H89 H 0.20438 0.06958 0.26653 0.0
H90 H 0.2417 0.07256 0.27949 0.0
C91 C 0.50497 0.21942 0.01822 0.0
N92 N 0.50997 0.24675 0.02637 0.0
N93 N 0.50606 0.20723 0.1016 0.0
C94 C 0.49759 0.20508 0.93079 0.0
C95 C 0.5121 0.22802 0.15992 0.0
N96 N 0.51454 0.25192 0.11416 0.0
C97 C 0.51345 0.22526 0.2625 0.0
H98 H 0.4748 0.20621 0.92169 0.0
H99 H 0.50358 0.1831 0.93305 0.0
H100 H 0.50784 0.21532 0.87147 0.0
H101 H 0.52104 0.20461 0.2819 0.0
H102 H 0.4923 0.22794 0.29193 0.0
H103 H 0.5272 0.24112 0.29277 0.0
Zn104 Zn 0.99194 0.03748 0.59014 0.0
Zn105 Zn 0.01311 0.96317 0.62545 0.0
C106 C 0.98044 0.07687 0.7291 0.0
O107 O 0.95539 0.07155 0.6989 0.0
C108 C 0.00213 0.92892 0.46561 0.0
O109 O 0.02055 0.94536 0.42725 0.0
O110 O 0.97783 0.06561 0.50241 0.0
O111 O 0.02704 0.02528 0.52437 0.0
O112 O 0.0416 0.98291 0.54743 0.0
C113 C 0.996 0.08465 0.49769 0.0
O114 O 0.01929 0.08201 0.54261 0.0
O115 O 1.00046 0.06191 0.7009 0.0
C116 C 0.0324 0.93945 0.79517 0.0
O117 O 0.02151 0.96123 0.8347 0.0
O118 O 0.03378 0.93824 0.70834 0.0
O119 O 0.98589 0.98317 0.71042 0.0
O120 O 0.96109 0.01024 0.62215 0.0
O121 O 0.99355 0.93431 0.54655 0.0
C122 C 0.04451 0.00627 0.51012 0.0
C123 C 0.96314 0.99484 0.69186 0.0
Zn124 Zn 0.46829 0.99742 0.55409 0.0
Zn125 Zn 0.53319 0.01339 0.6353 0.0
C126 C 0.42924 0.99855 0.70351 0.0
O127 O 0.43227 0.97199 0.69063 0.0
C128 C 0.58341 0.01043 0.5363 0.0
O129 O 0.58392 0.03452 0.57726 0.0
O130 O 0.43797 0.99246 0.46264 0.0
O131 O 0.49459 0.02173 0.4797 0.0
O132 O 0.5178 0.04753 0.57726 0.0
C133 C 0.42891 0.0165 0.44602 0.0
O134 O 0.44041 0.03766 0.48736 0.0
O135 O 0.44509 0.01505 0.65897 0.0
C136 C 0.56697 -0.00033 0.7721 0.0
O137 O 0.55833 0.97648 0.73561 0.0
O138 O 0.55813 0.02227 0.74036 0.0
O139 O 0.50467 0.98852 0.69793 0.0
O140 O 0.48494 0.96179 0.59663 0.0
O141 O 0.56142 0.99568 0.54426 0.0
C142 C 0.50605 0.04443 0.50047 0.0
C143 C 0.49782 0.96458 0.67145 0.0
Zn144 Zn 0.50843 0.46859 0.58541 0.0
Zn145 Zn 0.48854 0.5458 0.62016 0.0
C146 C 0.51753 0.43126 0.7331 0.0
O147 O 0.54297 0.44072 0.72288 0.0
C148 C 0.49384 0.58628 0.48604 0.0
O149 O 0.46764 0.57878 0.48284 0.0
O150 O 0.52138 0.44227 0.48898 0.0
O151 O 0.47462 0.48502 0.52964 0.0
O152 O 0.45918 0.5275 0.54384 0.0
C153 C 0.50172 0.42531 0.47454 0.0
O154 O 0.47818 0.42837 0.5197 0.0
O155 O 0.4981 0.44246 0.68866 0.0
C156 C 0.48812 0.58179 0.76109 0.0
O157 O 0.51442 0.57639 0.74539 0.0
O158 O 0.46988 0.57064 0.71088 0.0
O159 O 0.5121 0.52126 0.70203 0.0
O160 O 0.53949 0.49388 0.62273 0.0
O161 O 0.50985 0.57346 0.53988 0.0
C162 C 0.45691 0.50334 0.51194 0.0
C163 C 0.53622 0.51213 0.68422 0.0
Zn164 Zn 0.04635 0.50256 0.57908 0.0
Zn165 Zn 0.95779 0.50608 0.60213 0.0
C166 C 0.08086 0.49039 0.73646 0.0
O167 O 0.06708 0.51086 0.77368 0.0
C168 C 0.90875 0.50837 0.51148 0.0
O169 O 0.90894 0.48447 0.55322 0.0
O170 O 0.0694 0.51223 0.47037 0.0
O171 O 0.01411 0.47878 0.53481 0.0
O172 O 0.96899 0.47112 0.53805 0.0
C173 C 0.07702 0.49069 0.4282 0.0
O174 O 0.06821 0.46664 0.45753 0.0
O175 O 0.07375 0.48166 0.65784 0.0
C176 C 0.92681 0.52202 0.74655 0.0
O177 O 0.9362 0.54463 0.70823 0.0
O178 O 0.93489 0.49904 0.71487 0.0
O179 O 0.99033 0.5299 0.64162 0.0
O180 O 0.03525 0.53735 0.64526 0.0
O181 O 0.93009 0.5239 0.51726 0.0
C182 C 0.99313 0.46471 0.50978 0.0
C183 C 0.01077 0.54476 0.66618 0.0
H184 H 0.19691 0.99657 0.18571 0.0
H185 H 0.16001 0.07169 0.09424 0.0
H186 H 0.15625 0.9868 0.28094 0.0
H187 H 0.11809 0.06159 0.18516 0.0
H188 H 0.06587 0.05531 0.44814 0.0
H189 H 0.10306 0.06255 0.33634 0.0
H190 H 0.11076 0.9745 0.3023 0.0
H191 H 0.07492 0.96746 0.41826 0.0
C192 C 0.17932 0.01031 0.18309 0.0
C193 C 0.18122 0.03457 0.1319 0.0
C194 C 0.15595 0.00487 0.23792 0.0
C195 C 0.13365 0.02349 0.24219 0.0
C196 C 0.13496 0.047 0.18577 0.0
C197 C 0.15865 0.05259 0.13196 0.0
C198 C 0.07567 0.03752 0.41714 0.0
C199 C 0.06757 0.01081 0.44307 0.0
C200 C 0.09684 0.04164 0.35183 0.0
C201 C 0.11016 0.01915 0.30917 0.0
C202 C 0.10161 0.99243 0.33441 0.0
C203 C 0.08088 0.98834 0.40102 0.0
H204 H 0.46242 0.18941 0.19995 0.0
H205 H 0.5384 0.16337 0.06921 0.0
H206 H 0.46137 0.14722 0.29146 0.0
H207 H 0.53708 0.12057 0.15872 0.0
H208 H 0.50336 0.03913 0.31517 0.0
H209 H 0.50033 0.07579 0.20122 0.0
H210 H 0.50419 0.13651 0.41674 0.0
H211 H 0.50802 0.09992 0.53103 0.0
C212 C 0.47814 0.17394 0.18798 0.0
C213 C 0.50043 0.17934 0.12784 0.0
C214 C 0.47774 0.15009 0.24081 0.0
C215 C 0.49938 0.13104 0.23278 0.0
C216 C 0.5202 0.13507 0.16589 0.0
C217 C 0.52082 0.15926 0.11411 0.0
C218 C 0.50378 0.06032 0.33821 0.0
C219 C 0.50603 0.06673 0.43202 0.0
C220 C 0.50203 0.08119 0.27299 0.0
C221 C 0.50177 0.10878 0.30068 0.0
C222 C 0.50412 0.11526 0.39419 0.0
C223 C 0.50654 0.09441 0.4593 0.0
H224 H 0.34553 0.41972 0.13617 0.0
H225 H 0.31553 0.5027 0.15062 0.0
H226 H 0.38667 0.43313 0.22305 0.0
H227 H 0.35537 0.51626 0.24175 0.0
H228 H 0.43532 0.53701 0.38262 0.0
H229 H 0.40204 0.52496 0.26437 0.0
H230 H 0.39525 0.44285 0.37615 0.0
H231 H 0.42962 0.45468 0.49053 0.0
C232 C 0.34839 0.44105 0.1557 0.0
C233 C 0.32791 0.46036 0.13616 0.0
C234 C 0.37153 0.44871 0.20705 0.0
C235 C 0.3742 0.47573 0.24148 0.0
C236 C 0.3544 0.49538 0.21605 0.0
C237 C 0.33159 0.48775 0.16355 0.0
C238 C 0.42652 0.51646 0.38191 0.0
C239 C 0.4349 0.4968 0.44586 0.0
C240 C 0.40746 0.50948 0.31403 0.0
C241 C 0.39591 0.48283 0.30981 0.0
C242 C 0.40416 0.46334 0.37508 0.0
C243 C 0.42363 0.47017 0.44161 0.0
H244 H 0.0454 0.33597 0.13081 0.0
H245 H 0.95644 0.32911 0.14222 0.0
H246 H 0.0433 0.37851 0.22097 0.0
H247 H 0.95385 0.37181 0.23131 0.0
H248 H 0.96438 0.41647 0.50669 0.0
H249 H 0.96609 0.38042 0.39011 0.0
H250 H 0.02844 0.42662 0.24006 0.0
H251 H 0.0262 0.46289 0.35638 0.0
C252 C 0.02533 0.3445 0.14872 0.0
C253 C 0.00105 0.32974 0.12859 0.0
C254 C 0.02406 0.36865 0.20114 0.0
C255 C 0.99842 0.3783 0.23504 0.0
C256 C 0.97397 0.36468 0.20788 0.0
C257 C 0.97532 0.3406 0.15531 0.0
C258 C 0.97862 0.41877 0.44918 0.0
C259 C 0.99596 0.44199 0.44253 0.0
C260 C 0.97939 0.39829 0.38172 0.0
C261 C 0.99734 0.40064 0.30528 0.0
C262 C 0.01467 0.42395 0.29858 0.0
C263 C 0.0138 0.4445 0.3661 0.0
H264 H 0.81804 0.92928 0.96668 0.0
H265 H 0.83083 0.00651 0.10548 0.0
H266 H 0.86093 0.93646 0.87772 0.0
H267 H 0.87451 0.01336 0.01879 0.0
H268 H 0.96418 0.99276 0.87821 0.0
H269 H 0.92497 0.98495 0.98422 0.0
H270 H 0.86949 0.97971 0.75512 0.0
H271 H 0.90847 0.98859 0.64927 0.0
C272 C 0.83059 0.94737 0.97997 0.0
C273 C 0.82121 0.96738 0.04244 0.0
C274 C 0.85492 0.95158 0.92881 0.0
C275 C 0.87071 0.97563 0.94064 0.0
C276 C 0.86261 0.99465 0.0085 0.0
C277 C 0.83788 0.99065 0.05866 0.0
C278 C 0.94355 0.99015 0.8507 0.0
C279 C 0.93928 0.99132 0.7556 0.0
C280 C 0.9212 0.98575 0.91129 0.0
C281 C 0.89435 0.98158 0.87763 0.0
C282 C 0.89008 0.98276 0.7826 0.0
C283 C 0.91228 0.98797 0.7222 0.0
H284 H 0.48154 0.84987 0.1244 0.0
H285 H 0.53846 0.81076 0.9364 0.0
H286 H 0.48214 0.89144 0.02893 0.0
H287 H 0.539 0.8519 0.84001 0.0
H288 H 0.49389 0.90932 0.6352 0.0
H289 H 0.49962 0.8714 0.74321 0.0
H290 H 0.51346 0.92965 0.9619 0.0
H291 H 0.50786 0.96746 0.85467 0.0
C292 C 0.49493 0.85068 0.06436 0.0
C293 C 0.51001 0.82743 0.03731 0.0
C294 C 0.49513 0.87423 0.00937 0.0
C295 C 0.51021 0.87462 0.92617 0.0
C296 C 0.52682 0.85197 0.90288 0.0
C297 C 0.52682 0.82865 0.95829 0.0
C298 C 0.49809 0.914 0.70629 0.0
C299 C 0.5004 0.94136 0.73618 0.0
C300 C 0.5016 0.89234 0.76794 0.0
C301 C 0.50715 0.89765 0.86081 0.0
C302 C 0.50913 0.92499 0.89087 0.0
C303 C 0.50596 0.94659 0.82919 0.0
H304 H 0.68248 0.50061 0.02603 0.0
H305 H 0.65704 0.58505 0.04653 0.0
H306 H 0.64034 0.48939 0.9405 0.0
H307 H 0.61471 0.57419 0.96122 0.0
H308 H 0.53281 0.53788 0.85149 0.0
H309 H 0.56997 0.54595 0.96034 0.0
H310 H 0.62739 0.50369 0.78042 0.0
H311 H 0.59047 0.49614 0.67018 0.0
C312 C 0.6672 0.51645 0.01481 0.0
C313 C 0.67244 0.5435 0.04336 0.0
C314 C 0.64339 0.51022 0.96508 0.0
C315 C 0.62443 0.53099 0.94344 0.0
C316 C 0.62887 0.55774 0.97748 0.0
C317 C 0.65286 0.56397 0.02655 0.0
C318 C 0.55342 0.53064 0.83426 0.0
C319 C 0.55873 0.51678 0.75106 0.0
C320 C 0.57463 0.5351 0.89714 0.0
C321 C 0.60151 0.52537 0.87902 0.0
C322 C 0.60676 0.5111 0.79675 0.0
C323 C 0.58564 0.50694 0.73334 0.0
H324 H 0.03434 0.6858 0.02126 0.0
H325 H 0.946 0.67296 0.03124 0.0
H326 H 0.04008 0.64378 0.93132 0.0
H327 H 0.95132 0.63014 0.94318 0.0
H328 H 0.96934 0.58334 0.67125 0.0
H329 H 0.96246 0.61985 0.78479 0.0
H330 H 0.0375 0.59518 0.9205 0.0
H331 H 0.04415 0.55896 0.80736 0.0
C332 C 0.0163 0.67312 0.00735 0.0
C333 C 0.98983 0.68214 0.03384 0.0
C334 C 0.01946 0.64914 0.95541 0.0
C335 C 0.9961 0.63364 0.92881 0.0
C336 C 0.9697 0.64182 0.96092 0.0
C337 C 0.96662 0.66596 0.0127 0.0
C338 C 0.98393 0.58538 0.72665 0.0
C339 C 0.00687 0.56785 0.73156 0.0
C340 C 0.98008 0.60633 0.79171 0.0
C341 C 0.99926 0.61034 0.86274 0.0
C342 C 0.02237 0.59289 0.86671 0.0
C343 C 0.0262 0.57207 0.80168 0.0
H344 H 0.95876 0.22355 0.13812 0.0
H345 H 0.04357 0.2307 0.22446 0.0
H346 H 0.95321 0.18098 0.22715 0.0
H347 H 0.03875 0.18801 0.31142 0.0
H348 H 0.01388 0.13502 0.54408 0.0
H349 H 0.01363 0.17625 0.45104 0.0
H350 H 0.96899 0.13252 0.2401 0.0
H351 H 0.96853 0.09104 0.33587 0.0
C352 C 0.9762 0.21561 0.17569 0.0
C353 C 0.00142 0.23009 0.17673 0.0
C354 C 0.97315 0.1914 0.22598 0.0
C355 C 0.9954 0.18152 0.27743 0.0
C356 C 0.02102 0.19556 0.27439 0.0
C357 C 0.02393 0.21977 0.22473 0.0
C358 C 0.00374 0.13431 0.47822 0.0
C359 C 0.99161 0.10992 0.44601 0.0
C360 C 0.00375 0.15782 0.42477 0.0
C361 C 0.99201 0.15732 0.33733 0.0
C362 C 0.97831 0.13337 0.30719 0.0
C363 C 0.978 0.10974 0.36167 0.0
H364 H 0.29882 0.08427 0.10375 0.0
H365 H 0.26559 0.00951 0.21917 0.0
H366 H 0.34392 0.07475 0.17277 0.0
H367 H 0.30982 0.00043 0.29264 0.0
H368 H 0.39851 0.97859 0.34918 0.0
H369 H 0.35701 0.98741 0.25924 0.0
H370 H 0.36374 0.07412 0.32226 0.0
H371 H 0.40531 0.06555 0.40849 0.0
C372 C 0.30129 0.06598 0.1448 0.0
C373 C 0.2791 0.04768 0.15744 0.0
C374 C 0.32689 0.0605 0.18444 0.0
C375 C 0.33045 0.03674 0.23787 0.0
C376 C 0.30796 0.0186 0.25054 0.0
C377 C 0.28258 0.02397 0.21014 0.0
C378 C 0.39122 0.99951 0.34279 0.0
C379 C 0.405 0.02129 0.38646 0.0
C380 C 0.36743 0.00458 0.29183 0.0
C381 C 0.35702 0.03146 0.28419 0.0
C382 C 0.37137 0.05325 0.32571 0.0
C383 C 0.39512 0.04824 0.37594 0.0
H384 H 0.55686 0.27653 0.20161 0.0
H385 H 0.47236 0.28711 0.1168 0.0
H386 H 0.5553 0.32109 0.28141 0.0
H387 H 0.47104 0.33223 0.18992 0.0
H388 H 0.4639 0.38522 0.44321 0.0
H389 H 0.46882 0.34496 0.34756 0.0
H390 H 0.55145 0.37129 0.26727 0.0
H391 H 0.54682 0.41177 0.36676 0.0
C392 C 0.53821 0.2888 0.19906 0.0
C393 C 0.51467 0.27879 0.15432 0.0
C394 C 0.53735 0.31427 0.24344 0.0
C395 C 0.51296 0.33001 0.24248 0.0
C396 C 0.48995 0.32036 0.19331 0.0
C397 C 0.49072 0.29479 0.15069 0.0
C398 C 0.48313 0.38264 0.40498 0.0
C399 C 0.50499 0.40168 0.41237 0.0
C400 C 0.48585 0.3596 0.34942 0.0
C401 C 0.5104 0.35513 0.29903 0.0
C402 C 0.53233 0.37421 0.30574 0.0
C403 C 0.52964 0.39738 0.36216 0.0
H404 H 0.24052 0.49938 0.1705 0.0
H405 H 0.21088 0.41593 0.15505 0.0
H406 H 0.19494 0.51463 0.22491 0.0
H407 H 0.16552 0.43032 0.21456 0.0
H408 H 0.08208 0.46104 0.27217 0.0
H409 H 0.12466 0.45404 0.18311 0.0
H410 H 0.16703 0.5129 0.35616 0.0
H411 H 0.12395 0.52115 0.43987 0.0
C412 C 0.22408 0.48437 0.1806 0.0
C413 C 0.22877 0.45659 0.16077 0.0
C414 C 0.19809 0.49296 0.21144 0.0
C415 C 0.17649 0.47374 0.22416 0.0
C416 C 0.18145 0.44581 0.20382 0.0
C417 C 0.20739 0.43737 0.17148 0.0
C418 C 0.10037 0.47308 0.28853 0.0
C419 C 0.10002 0.49155 0.3623 0.0
C420 C 0.12481 0.46885 0.23867 0.0
C421 C 0.14947 0.48233 0.26402 0.0
C422 C 0.14845 0.50229 0.33407 0.0
C423 C 0.12378 0.50707 0.38219 0.0
H424 H 0.03839 0.76791 0.96804 0.0
H425 H 0.96148 0.80279 0.0647 0.0
H426 H 0.05449 0.81336 0.91872 0.0
H427 H 0.97709 0.84845 0.01466 0.0
H428 H 0.01802 0.92984 0.97436 0.0
H429 H 0.0108 0.88492 0.04503 0.0
H430 H 0.04332 0.84559 0.80081 0.0
H431 H 0.05131 0.8902 0.73161 0.0
C432 C 0.02485 0.78543 0.97709 0.0
C433 C 0.99862 0.78215 0.01811 0.0
C434 C 0.03404 0.81137 0.94971 0.0
C435 C 0.01709 0.8345 0.96295 0.0
C436 C 0.99083 0.83112 0.00485 0.0
C437 C 0.9817 0.8051 0.03233 0.0
C438 C 0.0244 0.91163 0.9369 0.0
C439 C 0.03485 0.91356 0.84684 0.0
C440 C 0.01994 0.88591 0.97696 0.0
C441 C 0.02594 0.86173 0.92771 0.0
C442 C 0.03854 0.8638 0.84075 0.0
C443 C 0.04307 0.88944 0.80092 0.0
H444 H 0.71884 0.01452 0.09019 0.0
H445 H 0.71426 0.93274 0.97751 0.0
H446 H 0.67233 0.02445 0.03325 0.0
H447 H 0.66797 0.94249 0.91798 0.0
H448 H 0.57782 0.9585 0.8894 0.0
H449 H 0.6205 0.95157 0.97377 0.0
H450 H 0.65089 0.03076 0.88211 0.0
H451 H 0.60779 0.03791 0.79899 0.0
C452 C 0.70757 0.99872 0.05347 0.0
C453 C 0.71952 0.97291 0.03809 0.0
C454 C 0.68121 0.00437 0.02054 0.0
C455 C 0.66653 0.98421 0.97173 0.0
C456 C 0.67864 0.95827 0.95681 0.0
C457 C 0.70503 0.95269 0.9898 0.0
C458 C 0.5934 0.97467 0.88906 0.0
C459 C 0.58974 0.99866 0.83753 0.0
C460 C 0.61785 0.97061 0.93667 0.0
C461 C 0.63913 0.9904 0.933 0.0
C462 C 0.63472 0.01523 0.8864 0.0
C463 C 0.61008 0.01938 0.83911 0.0
H464 H 0.53075 0.72165 0.04561 0.0
H465 H 0.44215 0.73178 0.05893 0.0
H466 H 0.5249 0.67533 0.98483 0.0
H467 H 0.43569 0.68482 0.99837 0.0
H468 H 0.44765 0.62065 0.75335 0.0
H469 H 0.4443 0.66161 0.85053 0.0
H470 H 0.50897 0.62976 0.0226 0.0
H471 H 0.51312 0.58968 0.92304 0.0
C472 C 0.51 0.71349 0.03661 0.0
C473 C 0.48689 0.72975 0.05632 0.0
C474 C 0.50653 0.687 0.00266 0.0
C475 C 0.47977 0.67629 0.98778 0.0
C476 C 0.45652 0.69258 0.00907 0.0
C477 C 0.4601 0.71923 0.04345 0.0
C478 C 0.46052 0.62217 0.81351 0.0
C479 C 0.48095 0.60248 0.83033 0.0
C480 C 0.45858 0.64553 0.86928 0.0
C481 C 0.47682 0.64913 0.94295 0.0
C482 C 0.49517 0.62787 0.96485 0.0
C483 C 0.49747 0.60491 0.90829 0.0
H484 H 0.77299 0.50724 0.06399 0.0
H485 H 0.77797 0.59052 0.96609 0.0
H486 H 0.81925 0.49788 0.00147 0.0
H487 H 0.82376 0.58112 0.89817 0.0
H488 H 0.91417 0.56491 0.85732 0.0
H489 H 0.87079 0.57235 0.94075 0.0
H490 H 0.84189 0.49188 0.8565 0.0
H491 H 0.88575 0.48414 0.7758 0.0
C492 C 0.78424 0.52347 0.02875 0.0
C493 C 0.7725 0.54959 0.01998 0.0
C494 C 0.81047 0.51812 0.99229 0.0
C495 C 0.82522 0.53878 0.94517 0.0
C496 C 0.81316 0.56493 0.9357 0.0
C497 C 0.78698 0.57031 0.9733 0.0
C498 C 0.89874 0.5486 0.85854 0.0
C499 C 0.90321 0.52395 0.81048 0.0
C500 C 0.87381 0.55298 0.90533 0.0
C501 C 0.85275 0.5329 0.90397 0.0
C502 C 0.85781 0.50766 0.85954 0.0
C503 C 0.88293 0.50316 0.81354 0.0
H504 H 0.04261 0.22217 0.01914 0.0
H505 H 0.9621 0.24555 0.92338 0.0
H506 H 0.03829 0.1777 0.94279 0.0
H507 H 0.9578 0.20136 0.84281 0.0
H508 H 0.94274 0.10892 0.81954 0.0
H509 H 0.94964 0.15471 0.88353 0.0
H510 H 0.03647 0.15147 0.80666 0.0
H511 H 0.02964 0.10519 0.74541 0.0
C512 C 0.02439 0.21801 0.97853 0.0
C513 C 0.0028 0.23724 0.97622 0.0
C514 C 0.02182 0.1925 0.93484 0.0
C515 C 0.99753 0.18559 0.88719 0.0
C516 C 0.97658 0.20565 0.88033 0.0
C517 C 0.97918 0.23119 0.92469 0.0
C518 C 0.96339 0.11784 0.81731 0.0
C519 C 0.98566 0.10325 0.77793 0.0
C520 C 0.96729 0.14434 0.85289 0.0
C521 C 0.99355 0.15717 0.84933 0.0
C522 C 0.01598 0.14229 0.81148 0.0
C523 C 0.0121 0.11564 0.77657 0.0
H524 H 0.28114 0.07913 0.93888 0.0
H525 H 0.26824 0.99243 0.97765 0.0
H526 H 0.3257 0.07033 0.86328 0.0
H527 H 0.31215 0.98291 0.8976 0.0
H528 H 0.40416 0.97393 0.84975 0.0
H529 H 0.35965 0.98498 0.92089 0.0
H530 H 0.35188 0.05454 0.7395 0.0
H531 H 0.39729 0.04409 0.67199 0.0
C532 C 0.28757 0.05807 0.92785 0.0
C533 C 0.27124 0.03644 0.96269 0.0
C534 C 0.31317 0.05292 0.88472 0.0
C535 C 0.32307 0.02585 0.8747 0.0
C536 C 0.30578 0.0041 0.90561 0.0
C537 C 0.28027 0.00937 0.94966 0.0
C538 C 0.39315 0.9919 0.82632 0.0
C539 C 0.4044 0.00824 0.7557 0.0
C540 C 0.3673 0.99803 0.86613 0.0
C541 C 0.35152 0.02038 0.83515 0.0
C542 C 0.36328 0.03727 0.7662 0.0
C543 C 0.38946 0.03138 0.72745 0.0
H544 H 0.5547 0.27309 0.96226 0.0
H545 H 0.46581 0.26923 0.94415 0.0
H546 H 0.5551 0.31766 0.88621 0.0
H547 H 0.46548 0.31472 0.87249 0.0
H548 H 0.47796 0.39242 0.6952 0.0
H549 H 0.47574 0.34522 0.75117 0.0
H550 H 0.54449 0.36246 0.93064 0.0
H551 H 0.54752 0.40904 0.87081 0.0
C552 C 0.53531 0.28157 0.93882 0.0
C553 C 0.51031 0.26775 0.9573 0.0
C554 C 0.53535 0.30741 0.89747 0.0
C555 C 0.51024 0.32036 0.87546 0.0
C556 C 0.48526 0.30551 0.8881 0.0
C557 C 0.48535 0.27933 0.92821 0.0
C558 C 0.49231 0.38617 0.74764 0.0
C559 C 0.51298 0.40441 0.77855 0.0
C560 C 0.4911 0.35904 0.77964 0.0
C561 C 0.5103 0.34963 0.84417 0.0
C562 C 0.52996 0.3685 0.87854 0.0
C563 C 0.53148 0.3954 0.84535 0.0
H564 H 0.24366 0.49931 0.97352 0.0
H565 H 0.23004 0.41211 0.95147 0.0
H566 H 0.1995 0.50773 0.8967 0.0
H567 H 0.18599 0.42014 0.87322 0.0
H568 H 0.11767 0.45178 0.67122 0.0
H569 H 0.16378 0.44147 0.73054 0.0
H570 H 0.15009 0.49854 0.9533 0.0
H571 H 0.10418 0.50881 0.89488 0.0
C572 C 0.2317 0.48202 0.94823 0.0
C573 C 0.24035 0.45512 0.96579 0.0
C574 C 0.20627 0.48674 0.90594 0.0
C575 C 0.18919 0.46456 0.87967 0.0
C576 C 0.19878 0.43761 0.89206 0.0
C577 C 0.22403 0.43297 0.93573 0.0
C578 C 0.12435 0.46187 0.7335 0.0
C579 C 0.10723 0.48125 0.77795 0.0
C580 C 0.15079 0.456 0.76723 0.0
C581 C 0.16073 0.46961 0.84545 0.0
C582 C 0.14324 0.48822 0.8916 0.0
C583 C 0.1168 0.49389 0.85851 0.0
H584 H 0.94654 0.76864 0.2491 0.0
H585 H 0.03381 0.77647 0.18865 0.0
H586 H 0.9479 0.81209 0.33586 0.0
H587 H 0.03543 0.8199 0.27367 0.0
H588 H 0.01783 0.91151 0.29513 0.0
H589 H 0.01406 0.8654 0.23108 0.0
H590 H 0.9692 0.83848 0.47251 0.0
H591 H 0.97294 0.88492 0.53745 0.0
C592 C 0.9662 0.77916 0.25789 0.0
C593 C 0.99012 0.76929 0.21332 0.0
C594 C 0.96697 0.80411 0.30647 0.0
C595 C 0.99166 0.81967 0.30998 0.0
C596 C 0.016 0.80862 0.27091 0.0
C597 C 0.01524 0.78362 0.22358 0.0
C598 C 0.0069 0.89592 0.33452 0.0
C599 C 0.99588 0.90195 0.42188 0.0
C600 C 0.00497 0.86939 0.29804 0.0
C601 C 0.99187 0.84816 0.34767 0.0
C602 C 0.97954 0.85441 0.43294 0.0
C603 C 0.98162 0.88103 0.46991 0.0
H604 H 0.74589 0.01241 0.27123 0.0
H605 H 0.71527 0.93165 0.20543 0.0
H606 H 0.70468 0.02084 0.36609 0.0
H607 H 0.67446 0.93902 0.30347 0.0
H608 H 0.58922 0.9738 0.39147 0.0
H609 H 0.63216 0.96206 0.30882 0.0
H610 H 0.67889 0.01268 0.49685 0.0
H611 H 0.63618 0.02532 0.57493 0.0
C612 C 0.73082 0.99603 0.28073 0.0
C613 C 0.73392 0.97123 0.23281 0.0
C614 C 0.70699 0.00079 0.33462 0.0
C615 C 0.68578 0.98068 0.34278 0.0
C616 C 0.68982 0.95528 0.29801 0.0
C617 C 0.71347 0.95075 0.24332 0.0
C618 C 0.60874 0.98225 0.415 0.0
C619 C 0.60918 0.00075 0.48905 0.0
C620 C 0.63349 0.97544 0.368 0.0
C621 C 0.65934 0.98658 0.3951 0.0
C622 C 0.6596 0.00422 0.47162 0.0
C623 C 0.63496 0.01136 0.51711 0.0
H624 H 0.55137 0.73966 0.21598 0.0
H625 H 0.46352 0.74271 0.2703 0.0
H626 H 0.55405 0.69571 0.29927 0.0
H627 H 0.46588 0.69929 0.35334 0.0
H628 H 0.47033 0.60732 0.33499 0.0
H629 H 0.47678 0.65301 0.27112 0.0
H630 H 0.54266 0.66921 0.46183 0.0
H631 H 0.53617 0.62283 0.52681 0.0
C632 C 0.53297 0.73157 0.24988 0.0
C633 C 0.50728 0.74457 0.2384 0.0
C634 C 0.53441 0.70637 0.29652 0.0
C635 C 0.51008 0.69391 0.33132 0.0
C636 C 0.48491 0.70825 0.32624 0.0
C637 C 0.48355 0.73325 0.28016 0.0
C638 C 0.48652 0.62037 0.36267 0.0
C639 C 0.50249 0.61158 0.43675 0.0
C640 C 0.49009 0.64663 0.32639 0.0
C641 C 0.5097 0.6649 0.36322 0.0
C642 C 0.52723 0.65556 0.43277 0.0
C643 C 0.52361 0.62903 0.46951 0.0
H644 H 0.74906 0.50489 0.24417 0.0
H645 H 0.77749 0.58781 0.1996 0.0
H646 H 0.79016 0.49554 0.33492 0.0
H647 H 0.81808 0.57943 0.29428 0.0
H648 H 0.90328 0.54544 0.37099 0.0
H649 H 0.86076 0.55676 0.28967 0.0
H650 H 0.81402 0.50273 0.46973 0.0
H651 H 0.85648 0.49051 0.54658 0.0
C652 C 0.76365 0.52141 0.25745 0.0
C653 C 0.76003 0.54718 0.21702 0.0
C654 C 0.78733 0.51614 0.30894 0.0
C655 C 0.80771 0.53671 0.32214 0.0
C656 C 0.80325 0.56289 0.28447 0.0
C657 C 0.77981 0.56794 0.23179 0.0
C658 C 0.88384 0.53613 0.39294 0.0
C659 C 0.88323 0.51695 0.46448 0.0
C660 C 0.85938 0.54269 0.34685 0.0
C661 C 0.83375 0.53059 0.37263 0.0
C662 C 0.83329 0.51199 0.44611 0.0
C663 C 0.85769 0.5051 0.49073 0.0
loop_
_geom_bond_atom_site_label_1
_geom_bond_atom_site_label_2
_geom_bond_distance
_geom_bond_site_symmetry_2
_ccdc_geom_bond_type
C0 N1 1.317 . S
C0 N2 1.348 . S
C0 C3 1.485 . S
N1 C0 1.317 . S
N1 N5 1.363 1_554 S
N2 C0 1.348 . S
N2 C4 1.346 1_554 S
C3 C0 1.485 . S
C3 H7 0.960 . S
C3 H8 0.961 . S
C3 H9 0.960 . S
C4 N2 1.346 1_556 S
C4 N5 1.311 . S
C4 C6 1.486 . S
N5 N1 1.363 1_556 S
N5 C4 1.311 . S
C6 C4 1.486 . S
C6 H10 0.960 . S
C6 H11 0.960 . S
C6 H12 0.959 . S
H7 C3 0.960 . S
H8 C3 0.961 . S
H9 C3 0.960 . S
H10 C6 0.960 . S
H11 C6 0.960 . S
H12 C6 0.959 . S
C13 N14 1.317 . S
C13 N15 1.350 . S
C13 C16 1.485 . S
N14 C13 1.317 . S
N14 N18 1.371 . S
N15 C13 1.350 . S
N15 C17 1.345 1_654 S
C16 C13 1.485 . S
C16 H20 0.960 1_655 S
C16 H21 0.961 . S
C16 H22 0.960 . S
C17 N15 1.345 1_456 S
C17 N18 1.307 1_456 S
C17 C19 1.486 . S
N18 N14 1.371 . S
N18 C17 1.307 1_654 S
C19 C17 1.486 . S
C19 H23 0.960 1_455 S
C19 H24 0.960 . S
C19 H25 0.959 . S
H20 C16 0.960 1_455 S
H21 C16 0.961 . S
H22 C16 0.960 . S
H23 C19 0.960 1_655 S
H24 C19 0.960 . S
H25 C19 0.959 . S
C26 N27 1.317 . S
C26 N28 1.348 . S
C26 C29 1.485 . S
N27 C26 1.317 . S
N27 N31 1.371 . S
N28 C26 1.348 . S
N28 C30 1.346 1_554 S
C29 C26 1.485 . S
C29 H33 0.960 . S
C29 H34 0.961 . S
C29 H35 0.960 . S
C30 N28 1.346 1_556 S
C30 N31 1.306 1_556 S
C30 C32 1.486 . S
N31 N27 1.371 . S
N31 C30 1.306 1_554 S
C32 C30 1.486 . S
C32 H36 0.960 . S
C32 H37 0.960 . S
C32 H38 0.959 . S
H33 C29 0.960 . S
H34 C29 0.961 . S
H35 C29 0.960 . S
H36 C32 0.960 . S
H37 C32 0.960 . S
H38 C32 0.959 . S
C39 N40 1.317 . S
C39 N41 1.348 . S
C39 C42 1.485 . S
N40 C39 1.317 . S
N40 N44 1.370 . S
N41 C39 1.348 . S
N41 C43 1.346 1_554 S
C42 C39 1.485 . S
C42 H46 0.960 . S
C42 H47 0.961 . S
C42 H48 0.960 . S
C43 N41 1.346 1_556 S
C43 N44 1.307 1_556 S
C43 C45 1.486 . S
N44 N40 1.370 . S
N44 C43 1.307 1_554 S
C45 C43 1.486 . S
C45 H49 0.960 . S
C45 H50 0.960 . S
C45 H51 0.959 . S
H46 C42 0.960 . S
H47 C42 0.961 . S
H48 C42 0.960 . S
H49 C45 0.960 . S
H50 C45 0.960 . S
H51 C45 0.959 . S
C52 N53 1.317 . S
C52 N54 1.348 . S
C52 C55 1.485 . S
N53 C52 1.317 . S
N53 N57 1.370 . S
N54 C52 1.348 . S
N54 C56 1.346 . S
C55 C52 1.485 . S
C55 H59 0.960 1_554 S
C55 H60 0.961 . S
C55 H61 0.960 1_554 S
C56 N54 1.346 . S
C56 N57 1.307 . S
C56 C58 1.486 . S
N57 N53 1.370 . S
N57 C56 1.307 . S
C58 C56 1.486 . S
C58 H62 0.960 . S
C58 H63 0.960 . S
C58 H64 0.959 . S
H59 C55 0.960 1_556 S
H60 C55 0.961 . S
H61 C55 0.960 1_556 S
H62 C58 0.960 . S
H63 C58 0.960 . S
H64 C58 0.959 . S
C65 N66 1.317 . S
C65 N67 1.350 . S
C65 C68 1.485 . S
N66 C65 1.317 . S
N66 N70 1.370 . S
N67 C65 1.350 . S
N67 C69 1.345 1_655 S
C68 C65 1.485 . S
C68 H72 0.960 1_654 S
C68 H73 0.961 . S
C68 H74 0.960 1_554 S
C69 N67 1.345 1_455 S
C69 N70 1.307 1_455 S
C69 C71 1.486 . S
N70 N66 1.370 . S
N70 C69 1.307 1_655 S
C71 C69 1.486 . S
C71 H75 0.960 1_455 S
C71 H76 0.960 . S
C71 H77 0.959 . S
H72 C68 0.960 1_456 S
H73 C68 0.961 . S
H74 C68 0.960 1_556 S
H75 C71 0.960 1_655 S
H76 C71 0.960 . S
H77 C71 0.959 . S
C78 N79 1.317 . S
C78 N80 1.348 . S
C78 C81 1.485 . S
N79 C78 1.317 . S
N79 N83 1.370 . S
N80 C78 1.348 . S
N80 C82 1.346 . S
C81 C78 1.485 . S
C81 H85 0.960 1_554 S
C81 H86 0.961 . S
C81 H87 0.960 1_554 S
C82 N80 1.346 . S
C82 N83 1.307 . S
C82 C84 1.486 . S
N83 N79 1.370 . S
N83 C82 1.307 . S
C84 C82 1.486 . S
C84 H88 0.960 . S
C84 H89 0.960 . S
C84 H90 0.959 . S
H85 C81 0.960 1_556 S
H86 C81 0.961 . S
H87 C81 0.960 1_556 S
H88 C84 0.960 . S
H89 C84 0.960 . S
H90 C84 0.959 . S
C91 N92 1.317 . S
C91 N93 1.348 . S
C91 C94 1.485 . S
N92 C91 1.317 . S
N92 N96 1.370 . S
N93 C91 1.348 . S
N93 C95 1.346 . S
C94 C91 1.485 . S
C94 H98 0.960 1_554 S
C94 H99 0.961 . S
C94 H100 0.960 1_554 S
C95 N93 1.346 . S
C95 N96 1.307 . S
C95 C97 1.486 . S
N96 N92 1.370 . S
N96 C95 1.307 . S
C97 C95 1.486 . S
C97 H101 0.960 . S
C97 H102 0.960 . S
C97 H103 0.959 . S
H98 C94 0.960 1_556 S
H99 C94 0.961 . S
H100 C94 0.960 1_556 S
H101 C97 0.960 . S
H102 C97 0.960 . S
H103 C97 0.959 . S
Zn104 O110 1.969 . S
Zn104 O111 1.965 1_655 S
Zn104 O115 2.024 1_655 S
Zn104 O120 1.969 . S
Zn105 O112 1.969 . S
Zn105 O118 1.969 . S
Zn105 O119 1.965 1_455 S
Zn105 O121 2.024 1_455 S
C106 O107 1.229 1_455 S
C106 O115 1.058 . S
O107 C106 1.229 1_655 S
C108 O109 1.229 1_655 S
C108 O121 1.058 . S
O109 C108 1.229 1_455 S
O110 Zn104 1.969 . S
O110 C113 1.267 . S
O111 Zn104 1.965 1_455 S
O111 C122 1.260 . S
O112 Zn105 1.969 . S
O112 C122 1.258 1_565 S
C113 O110 1.267 . S
C113 O114 1.228 1_655 S
O114 C113 1.228 1_455 S
O115 Zn104 2.024 1_455 S
O115 C106 1.058 . S
C116 O117 1.228 1_455 S
C116 O118 1.267 . S
O117 C116 1.228 1_655 S
O118 Zn105 1.969 . S
O118 C116 1.267 . S
O119 Zn105 1.965 1_655 S
O119 C123 1.260 1_565 S
O120 Zn104 1.969 . S
O120 C123 1.258 . S
O121 Zn105 2.024 1_655 S
O121 C108 1.058 . S
C122 O111 1.260 . S
C122 O112 1.258 1_545 S
C123 O119 1.260 1_545 S
C123 O120 1.258 . S
Zn124 O130 1.969 1_545 S
Zn124 O131 1.965 . S
Zn124 O135 2.024 . S
Zn124 O140 1.969 1_545 S
Zn125 O132 1.969 . S
Zn125 O138 1.969 . S
Zn125 O139 1.965 1_545 S
Zn125 O141 2.024 1_545 S
C126 O127 1.229 . S
C126 O135 1.058 . S
O127 C126 1.229 . S
C128 O129 1.229 1_565 S
C128 O141 1.058 . S
O129 C128 1.229 1_545 S
O130 Zn124 1.969 1_565 S
O130 C133 1.267 1_565 S
O131 Zn124 1.965 . S
O131 C142 1.260 . S
O132 Zn125 1.969 . S
O132 C142 1.258 . S
C133 O130 1.267 1_545 S
C133 O134 1.228 . S
O134 C133 1.228 . S
O135 Zn124 2.024 . S
O135 C126 1.058 . S
C136 O137 1.249 . S
C136 O138 1.252 1_565 S
O137 C136 1.249 . S
O138 Zn125 1.969 . S
O138 C136 1.252 1_545 S
O139 Zn125 1.965 1_565 S
O139 C143 1.260 . S
O140 Zn124 1.969 1_565 S
O140 C143 1.258 . S
O141 Zn125 2.024 1_565 S
O141 C128 1.058 . S
C142 O131 1.260 . S
C142 O132 1.258 . S
C143 O139 1.260 . S
C143 O140 1.258 . S
Zn144 O150 1.969 . S
Zn144 O151 1.965 . S
Zn144 O155 2.024 . S
Zn144 O160 1.969 . S
Zn145 O152 1.969 . S
Zn145 O158 1.969 . S
Zn145 O159 1.965 . S
Zn145 O161 2.024 . S
C146 O147 1.229 . S
C146 O155 1.058 . S
O147 C146 1.229 . S
C148 O149 1.229 . S
C148 O161 1.058 . S
O149 C148 1.229 . S
O150 Zn144 1.969 . S
O150 C153 1.267 . S
O151 Zn144 1.965 . S
O151 C162 1.260 . S
O152 Zn145 1.969 . S
O152 C162 1.258 . S
C153 O150 1.267 . S
C153 O154 1.228 . S
O154 C153 1.228 . S
O155 Zn144 2.024 . S
O155 C146 1.058 . S
C156 O157 1.228 . S
C156 O158 1.267 . S
O157 C156 1.228 . S
O158 Zn145 1.969 . S
O158 C156 1.267 . S
O159 Zn145 1.965 . S
O159 C163 1.260 . S
O160 Zn144 1.969 . S
O160 C163 1.258 . S
O161 Zn145 2.024 . S
O161 C148 1.058 . S
C162 O151 1.260 . S
C162 O152 1.258 . S
C163 O159 1.260 . S
C163 O160 1.258 . S
Zn164 O170 1.969 . S
Zn164 O171 1.965 . S
Zn164 O175 2.024 . S
Zn164 O180 1.969 . S
Zn165 O172 1.969 . S
Zn165 O178 1.969 . S
Zn165 O179 1.965 . S
Zn165 O181 2.024 . S
C166 O167 1.229 . S
C166 O175 1.058 . S
O167 C166 1.229 . S
C168 O169 1.229 . S
C168 O181 1.058 . S
O169 C168 1.229 . S
O170 Zn164 1.969 . S
O170 C173 1.267 . S
O171 Zn164 1.965 . S
O171 C182 1.260 1_455 S
O172 Zn165 1.969 . S
O172 C182 1.258 . S
C173 O170 1.267 . S
C173 O174 1.228 . S
O174 C173 1.228 . S
O175 Zn164 2.024 . S
O175 C166 1.058 . S
C176 O177 1.228 . S
C176 O178 1.267 . S
O177 C176 1.228 . S
O178 Zn165 1.969 . S
O178 C176 1.267 . S
O179 Zn165 1.965 . S
O179 C183 1.260 1_655 S
O180 Zn164 1.969 . S
O180 C183 1.258 . S
O181 Zn165 2.024 . S
O181 C168 1.058 . S
C182 O171 1.260 1_655 S
C182 O172 1.258 . S
C183 O179 1.260 1_455 S
C183 O180 1.258 . S
H184 C192 0.977 . S
H185 C197 0.950 . S
H186 C194 0.950 1_565 S
H187 C196 0.950 . S
H188 C198 0.950 . S
H189 C200 0.950 . S
H190 C202 0.968 . S
H191 C203 0.950 . S
C192 H184 0.977 . S
C192 C193 1.386 . S
C192 C194 1.391 . S
C193 C192 1.386 . S
C193 C197 1.393 . S
C194 H186 0.950 1_545 S
C194 C192 1.391 . S
C194 C195 1.400 . S
C195 C194 1.400 . S
C195 C196 1.398 . S
C195 C201 1.491 . S
C196 H187 0.950 . S
C196 C195 1.398 . S
C196 C197 1.391 . S
C197 H185 0.950 . S
C197 C193 1.393 . S
C197 C196 1.391 . S
C198 H188 0.950 . S
C198 C199 1.386 . S
C198 C200 1.391 . S
C199 C198 1.386 . S
C199 C203 1.393 1_545 S
C200 H189 0.950 . S
C200 C198 1.391 . S
C200 C201 1.400 . S
C201 C195 1.491 . S
C201 C200 1.400 . S
C201 C202 1.376 1_545 S
C202 H190 0.968 . S
C202 C201 1.376 1_565 S
C202 C203 1.395 . S
C203 H191 0.950 . S
C203 C199 1.393 1_565 S
C203 C202 1.395 . S
H204 C212 0.950 . S
H205 C217 0.950 . S
H206 C214 0.950 . S
H207 C216 0.950 . S
H208 C218 0.950 . S
H209 C220 0.950 . S
H210 C222 0.950 . S
H211 C223 0.950 . S
C212 H204 0.950 . S
C212 C213 1.386 . S
C212 C214 1.391 . S
C213 C212 1.386 . S
C213 C217 1.393 . S
C214 H206 0.950 . S
C214 C212 1.391 . S
C214 C215 1.400 . S
C215 C214 1.400 . S
C215 C216 1.398 . S
C215 C221 1.491 . S
C216 H207 0.950 . S
C216 C215 1.398 . S
C216 C217 1.391 . S
C217 H205 0.950 . S
C217 C213 1.393 . S
C217 C216 1.391 . S
C218 H208 0.950 . S
C218 C219 1.386 . S
C218 C220 1.391 . S
C219 C218 1.386 . S
C219 C223 1.393 . S
C220 H209 0.950 . S
C220 C218 1.391 . S
C220 C221 1.400 . S
C221 C215 1.491 . S
C221 C220 1.400 . S
C221 C222 1.398 . S
C222 H210 0.950 . S
C222 C221 1.398 . S
C222 C223 1.391 . S
C223 H211 0.950 . S
C223 C219 1.393 . S
C223 C222 1.391 . S
H224 C232 0.950 . S
H225 C237 0.950 . S
H226 C234 0.950 . S
H227 C236 0.950 . S
H228 C238 0.950 . S
H229 C240 0.950 . S
H230 C242 0.950 . S
H231 C243 0.950 . S
C232 H224 0.950 . S
C232 C233 1.386 . S
C232 C234 1.391 . S
C233 C232 1.386 . S
C233 C237 1.393 . S
C234 H226 0.950 . S
C234 C232 1.391 . S
C234 C235 1.400 . S
C235 C234 1.400 . S
C235 C236 1.398 . S
C235 C241 1.491 . S
C236 H227 0.950 . S
C236 C235 1.398 . S
C236 C237 1.391 . S
C237 H225 0.950 . S
C237 C233 1.393 . S
C237 C236 1.391 . S
C238 H228 0.950 . S
C238 C239 1.386 . S
C238 C240 1.391 . S
C239 C238 1.386 . S
C239 C243 1.393 . S
C240 H229 0.950 . S
C240 C238 1.391 . S
C240 C241 1.400 . S
C241 C235 1.491 . S
C241 C240 1.400 . S
C241 C242 1.398 . S
C242 H230 0.950 . S
C242 C241 1.398 . S
C242 C243 1.391 . S
C243 H231 0.950 . S
C243 C239 1.393 . S
C243 C242 1.391 . S
H244 C252 0.950 . S
H245 C257 0.950 . S
H246 C254 0.950 . S
H247 C256 0.950 . S
H248 C258 0.950 . S
H249 C260 0.950 . S
H250 C262 0.950 . S
H251 C263 0.950 . S
C252 H244 0.950 . S
C252 C253 1.367 1_455 S
C252 C254 1.391 . S
C253 C252 1.367 1_655 S
C253 C257 1.413 . S
C254 H246 0.950 . S
C254 C252 1.391 . S
C254 C255 1.382 1_455 S
C255 C254 1.382 1_655 S
C255 C256 1.418 . S
C255 C261 1.490 . S
C256 H247 0.950 . S
C256 C255 1.418 . S
C256 C257 1.391 . S
C257 H245 0.950 . S
C257 C253 1.413 . S
C257 C256 1.391 . S
C258 H248 0.950 . S
C258 C259 1.387 . S
C258 C260 1.391 . S
C259 C258 1.387 . S
C259 C263 1.391 1_655 S
C260 H249 0.950 . S
C260 C258 1.391 . S
C260 C261 1.402 . S
C261 C255 1.490 . S
C261 C260 1.402 . S
C261 C262 1.396 1_655 S
C262 H250 0.950 . S
C262 C261 1.396 1_455 S
C262 C263 1.391 . S
C263 H251 0.950 . S
C263 C259 1.391 1_455 S
C263 C262 1.391 . S
H264 C272 0.950 . S
H265 C277 0.950 1_544 S
H266 C274 0.950 . S
H267 C276 0.950 1_545 S
H268 C278 0.950 . S
H269 C280 0.950 . S
H270 C282 0.950 . S
H271 C283 0.950 . S
C272 H264 0.950 . S
C272 C273 1.386 . S
C272 C274 1.391 . S
C273 C272 1.386 . S
C273 C277 1.393 . S
C274 H266 0.950 . S
C274 C272 1.391 . S
C274 C275 1.400 . S
C275 C274 1.400 . S
C275 C276 1.398 . S
C275 C281 1.491 . S
C276 H267 0.950 1_565 S
C276 C275 1.398 . S
C276 C277 1.391 . S
C277 H265 0.950 1_566 S
C277 C273 1.393 . S
C277 C276 1.391 . S
C278 H268 0.950 . S
C278 C279 1.386 1_545 S
C278 C280 1.391 . S
C279 C278 1.386 1_565 S
C279 C283 1.393 . S
C280 H269 0.950 . S
C280 C278 1.391 . S
C280 C281 1.400 1_545 S
C281 C275 1.491 . S
C281 C280 1.400 1_565 S
C281 C282 1.398 . S
C282 H270 0.950 . S
C282 C281 1.398 . S
C282 C283 1.391 . S
C283 H271 0.950 . S
C283 C279 1.393 . S
C283 C282 1.391 . S
H284 C292 0.950 . S
H285 C297 0.950 . S
H286 C294 0.950 . S
H287 C296 0.950 . S
H288 C298 0.950 . S
H289 C300 0.950 . S
H290 C302 0.950 . S
H291 C303 0.950 . S
C292 H284 0.950 . S
C292 C293 1.386 1_554 S
C292 C294 1.391 1_554 S
C293 C292 1.386 1_556 S
C293 C297 1.393 . S
C294 H286 0.950 . S
C294 C292 1.391 1_556 S
C294 C295 1.400 . S
C295 C294 1.400 . S
C295 C296 1.398 . S
C295 C301 1.491 . S
C296 H287 0.950 . S
C296 C295 1.398 . S
C296 C297 1.391 . S
C297 H285 0.950 . S
C297 C293 1.393 . S
C297 C296 1.391 . S
C298 H288 0.950 . S
C298 C299 1.386 . S
C298 C300 1.391 . S
C299 C298 1.386 . S
C299 C303 1.393 . S
C300 H289 0.950 . S
C300 C298 1.391 . S
C300 C301 1.400 . S
C301 C295 1.491 . S
C301 C300 1.400 . S
C301 C302 1.398 . S
C302 H290 0.950 . S
C302 C301 1.398 . S
C302 C303 1.391 . S
C303 H291 0.950 . S
C303 C299 1.393 . S
C303 C302 1.391 . S
H304 C312 0.950 . S
H305 C317 0.950 . S
H306 C314 0.950 . S
H307 C316 0.950 . S
H308 C318 0.950 . S
H309 C320 0.950 . S
H310 C322 0.950 . S
H311 C323 0.950 . S
C312 H304 0.950 . S
C312 C313 1.386 . S
C312 C314 1.391 . S
C313 C312 1.386 . S
C313 C317 1.393 1_556 S
C314 H306 0.950 . S
C314 C312 1.391 . S
C314 C315 1.400 . S
C315 C314 1.400 . S
C315 C316 1.398 . S
C315 C321 1.491 . S
C316 H307 0.950 . S
C316 C315 1.398 . S
C316 C317 1.391 1_556 S
C317 H305 0.950 . S
C317 C313 1.393 1_554 S
C317 C316 1.391 1_554 S
C318 H308 0.950 . S
C318 C319 1.386 . S
C318 C320 1.391 . S
C319 C318 1.386 . S
C319 C323 1.393 . S
C320 H309 0.950 . S
C320 C318 1.391 . S
C320 C321 1.400 . S
C321 C315 1.491 . S
C321 C320 1.400 . S
C321 C322 1.398 . S
C322 H310 0.950 . S
C322 C321 1.398 . S
C322 C323 1.391 . S
C323 H311 0.950 . S
C323 C319 1.393 . S
C323 C322 1.391 . S
H324 C332 0.950 1_554 S
H325 C337 0.950 . S
H326 C334 0.950 . S
H327 C336 0.950 . S
H328 C338 0.950 . S
H329 C340 0.950 . S
H330 C342 0.950 . S
H331 C343 0.950 . S
C332 H324 0.950 1_556 S
C332 C333 1.374 1_455 S
C332 C334 1.391 . S
C333 C332 1.374 1_655 S
C333 C337 1.405 . S
C334 H326 0.950 . S
C334 C332 1.391 . S
C334 C335 1.406 . S
C335 C334 1.406 . S
C335 C336 1.393 1_455 S
C335 C341 1.490 . S
C336 H327 0.950 . S
C336 C335 1.393 1_655 S
C336 C337 1.391 . S
C337 H325 0.950 . S
C337 C333 1.405 . S
C337 C336 1.391 . S
C338 H328 0.950 . S
C338 C339 1.386 1_655 S
C338 C340 1.391 . S
C339 C338 1.386 1_455 S
C339 C343 1.393 . S
C340 H329 0.950 . S
C340 C338 1.391 . S
C340 C341 1.370 1_655 S
C341 C335 1.490 . S
C341 C340 1.370 1_455 S
C341 C342 1.430 . S
C342 H330 0.950 . S
C342 C341 1.430 . S
C342 C343 1.391 . S
C343 H331 0.950 . S
C343 C339 1.393 . S
C343 C342 1.391 . S
H344 C352 0.950 . S
H345 C357 0.950 . S
H346 C354 0.950 . S
H347 C356 0.950 . S
H348 C358 0.950 . S
H349 C360 0.950 . S
H350 C362 0.950 . S
H351 C363 0.950 . S
C352 H344 0.950 . S
C352 C353 1.366 1_655 S
C352 C354 1.391 . S
C353 C352 1.366 1_455 S
C353 C357 1.410 . S
C354 H346 0.950 . S
C354 C352 1.391 . S
C354 C355 1.400 . S
C355 C354 1.400 . S
C355 C356 1.398 1_655 S
C355 C361 1.491 . S
C356 H347 0.950 . S
C356 C355 1.398 1_455 S
C356 C357 1.391 . S
C357 H345 0.950 . S
C357 C353 1.410 . S
C357 C356 1.391 . S
C358 H348 0.950 . S
C358 C359 1.386 1_455 S
C358 C360 1.391 . S
C359 C358 1.386 1_655 S
C359 C363 1.393 . S
C360 H349 0.950 . S
C360 C358 1.391 . S
C360 C361 1.400 1_455 S
C361 C355 1.491 . S
C361 C360 1.400 1_655 S
C361 C362 1.398 . S
C362 H350 0.950 . S
C362 C361 1.398 . S
C362 C363 1.391 . S
C363 H351 0.950 . S
C363 C359 1.393 . S
C363 C362 1.391 . S
H364 C372 0.950 . S
H365 C377 0.950 . S
H366 C374 0.950 . S
H367 C376 0.950 1_565 S
H368 C378 0.950 . S
H369 C380 0.950 . S
H370 C382 0.950 . S
H371 C383 0.950 . S
C372 H364 0.950 . S
C372 C373 1.386 . S
C372 C374 1.391 . S
C373 C372 1.386 . S
C373 C377 1.393 . S
C374 H366 0.950 . S
C374 C372 1.391 . S
C374 C375 1.400 . S
C375 C374 1.400 . S
C375 C376 1.398 . S
C375 C381 1.491 . S
C376 H367 0.950 1_545 S
C376 C375 1.398 . S
C376 C377 1.391 . S
C377 H365 0.950 . S
C377 C373 1.393 . S
C377 C376 1.391 . S
C378 H368 0.950 . S
C378 C379 1.386 1_565 S
C378 C380 1.391 . S
C379 C378 1.386 1_545 S
C379 C383 1.393 . S
C380 H369 0.950 . S
C380 C378 1.391 . S
C380 C381 1.400 1_565 S
C381 C375 1.491 . S
C381 C380 1.400 1_545 S
C381 C382 1.398 . S
C382 H370 0.950 . S
C382 C381 1.398 . S
C382 C383 1.391 . S
C383 H371 0.950 . S
C383 C379 1.393 . S
C383 C382 1.391 . S
H384 C392 0.950 . S
H385 C397 0.950 . S
H386 C394 0.950 . S
H387 C396 0.950 . S
H388 C398 0.950 . S
H389 C400 0.950 . S
H390 C402 0.950 . S
H391 C403 0.950 . S
C392 H384 0.950 . S
C392 C393 1.386 . S
C392 C394 1.391 . S
C393 C392 1.386 . S
C393 C397 1.393 . S
C394 H386 0.950 . S
C394 C392 1.391 . S
C394 C395 1.400 . S
C395 C394 1.400 . S
C395 C396 1.398 . S
C395 C401 1.491 . S
C396 H387 0.950 . S
C396 C395 1.398 . S
C396 C397 1.391 . S
C397 H385 0.950 . S
C397 C393 1.393 . S
C397 C396 1.391 . S
C398 H388 0.950 . S
C398 C399 1.386 . S
C398 C400 1.391 . S
C399 C398 1.386 . S
C399 C403 1.393 . S
C400 H389 0.950 . S
C400 C398 1.391 . S
C400 C401 1.400 . S
C401 C395 1.491 . S
C401 C400 1.400 . S
C401 C402 1.398 . S
C402 H390 0.950 . S
C402 C401 1.398 . S
C402 C403 1.391 . S
C403 H391 0.950 . S
C403 C399 1.393 . S
C403 C402 1.391 . S
H404 C412 0.950 . S
H405 C417 0.950 . S
H406 C414 0.950 . S
H407 C416 0.950 . S
H408 C418 0.950 . S
H409 C420 0.950 . S
H410 C422 0.950 . S
H411 C423 0.950 . S
C412 H404 0.950 . S
C412 C413 1.386 . S
C412 C414 1.391 . S
C413 C412 1.386 . S
C413 C417 1.393 . S
C414 H406 0.950 . S
C414 C412 1.391 . S
C414 C415 1.400 . S
C415 C414 1.400 . S
C415 C416 1.398 . S
C415 C421 1.491 . S
C416 H407 0.950 . S
C416 C415 1.398 . S
C416 C417 1.391 . S
C417 H405 0.950 . S
C417 C413 1.393 . S
C417 C416 1.391 . S
C418 H408 0.950 . S
C418 C419 1.386 . S
C418 C420 1.391 . S
C419 C418 1.386 . S
C419 C423 1.393 . S
C420 H409 0.950 . S
C420 C418 1.391 . S
C420 C421 1.400 . S
C421 C415 1.491 . S
C421 C420 1.400 . S
C421 C422 1.398 . S
C422 H410 0.950 . S
C422 C421 1.398 . S
C422 C423 1.391 . S
C423 H411 0.950 . S
C423 C419 1.393 . S
C423 C422 1.391 . S
H424 C432 0.950 . S
H425 C437 0.950 . S
H426 C434 0.950 . S
H427 C436 0.950 1_654 S
H428 C438 0.950 . S
H429 C440 0.950 . S
H430 C442 0.950 . S
H431 C443 0.950 . S
C432 H424 0.950 . S
C432 C433 1.382 1_455 S
C432 C434 1.391 . S
C433 C432 1.382 1_655 S
C433 C437 1.395 1_556 S
C434 H426 0.950 . S
C434 C432 1.391 . S
C434 C435 1.400 . S
C435 C434 1.400 . S
C435 C436 1.399 . S
C435 C441 1.491 . S
C436 H427 0.950 1_456 S
C436 C435 1.399 . S
C436 C437 1.390 1_456 S
C437 H425 0.950 . S
C437 C433 1.395 1_554 S
C437 C436 1.390 1_654 S
C438 H428 0.950 . S
C438 C439 1.386 . S
C438 C440 1.391 . S
C439 C438 1.386 . S
C439 C443 1.393 . S
C440 H429 0.950 . S
C440 C438 1.391 . S
C440 C441 1.400 . S
C441 C435 1.491 . S
C441 C440 1.400 . S
C441 C442 1.398 . S
C442 H430 0.950 . S
C442 C441 1.398 . S
C442 C443 1.391 . S
C443 H431 0.950 . S
C443 C439 1.393 . S
C443 C442 1.391 . S
H444 C452 0.950 1_545 S
H445 C457 0.950 1_554 S
H446 C454 0.950 1_545 S
H447 C456 0.950 . S
H448 C458 0.950 . S
H449 C460 0.950 . S
H450 C462 0.950 . S
H451 C463 0.950 . S
C452 H444 0.950 1_565 S
C452 C453 1.386 . S
C452 C454 1.391 . S
C453 C452 1.386 . S
C453 C457 1.393 . S
C454 H446 0.950 1_565 S
C454 C452 1.391 . S
C454 C455 1.400 . S
C455 C454 1.400 . S
C455 C456 1.398 . S
C455 C461 1.491 . S
C456 H447 0.950 . S
C456 C455 1.398 . S
C456 C457 1.391 . S
C457 H445 0.950 1_556 S
C457 C453 1.393 . S
C457 C456 1.391 . S
C458 H448 0.950 . S
C458 C459 1.386 1_565 S
C458 C460 1.391 . S
C459 C458 1.386 1_545 S
C459 C463 1.393 . S
C460 H449 0.950 . S
C460 C458 1.391 . S
C460 C461 1.400 . S
C461 C455 1.491 . S
C461 C460 1.400 . S
C461 C462 1.398 1_565 S
C462 H450 0.950 . S
C462 C461 1.398 1_545 S
C462 C463 1.391 . S
C463 H451 0.950 . S
C463 C459 1.393 . S
C463 C462 1.391 . S
H464 C472 0.950 . S
H465 C477 0.950 . S
H466 C474 0.950 . S
H467 C476 0.950 . S
H468 C478 0.950 . S
H469 C480 0.950 . S
H470 C482 0.950 . S
H471 C483 0.950 . S
C472 H464 0.950 . S
C472 C473 1.386 1_554 S
C472 C474 1.391 1_554 S
C473 C472 1.386 1_556 S
C473 C477 1.393 . S
C474 H466 0.950 . S
C474 C472 1.391 1_556 S
C474 C475 1.400 . S
C475 C474 1.400 . S
C475 C476 1.398 . S
C475 C481 1.491 . S
C476 H467 0.950 . S
C476 C475 1.398 . S
C476 C477 1.391 . S
C477 H465 0.950 . S
C477 C473 1.393 . S
C477 C476 1.391 . S
C478 H468 0.950 . S
C478 C479 1.386 . S
C478 C480 1.391 . S
C479 C478 1.386 . S
C479 C483 1.393 . S
C480 H469 0.950 . S
C480 C478 1.391 . S
C480 C481 1.400 . S
C481 C475 1.491 . S
C481 C480 1.400 . S
C481 C482 1.398 . S
C482 H470 0.950 . S
C482 C481 1.398 . S
C482 C483 1.391 . S
C483 H471 0.950 . S
C483 C479 1.393 . S
C483 C482 1.391 . S
H484 C492 0.950 1_554 S
H485 C497 0.950 . S
H486 C494 0.950 . S
H487 C496 0.950 . S
H488 C498 0.950 . S
H489 C500 0.950 . S
H490 C502 0.950 . S
H491 C503 0.950 . S
C492 H484 0.950 1_556 S
C492 C493 1.386 . S
C492 C494 1.391 . S
C493 C492 1.386 . S
C493 C497 1.393 . S
C494 H486 0.950 . S
C494 C492 1.391 . S
C494 C495 1.400 . S
C495 C494 1.400 . S
C495 C496 1.398 . S
C495 C501 1.491 . S
C496 H487 0.950 . S
C496 C495 1.398 . S
C496 C497 1.391 . S
C497 H485 0.950 . S
C497 C493 1.393 . S
C497 C496 1.391 . S
C498 H488 0.950 . S
C498 C499 1.386 . S
C498 C500 1.391 . S
C499 C498 1.386 . S
C499 C503 1.393 . S
C500 H489 0.950 . S
C500 C498 1.391 . S
C500 C501 1.400 . S
C501 C495 1.491 . S
C501 C500 1.400 . S
C501 C502 1.398 . S
C502 H490 0.950 . S
C502 C501 1.398 . S
C502 C503 1.391 . S
C503 H491 0.950 . S
C503 C499 1.393 . S
C503 C502 1.391 . S
H504 C512 0.950 . S
H505 C517 0.950 . S
H506 C514 0.950 . S
H507 C516 0.950 . S
H508 C518 0.950 . S
H509 C520 0.950 . S
H510 C522 0.950 . S
H511 C523 0.950 . S
C512 H504 0.950 . S
C512 C513 1.418 . S
C512 C514 1.391 1_554 S
C513 C512 1.418 . S
C513 C517 1.363 1_455 S
C514 H506 0.950 . S
C514 C512 1.391 1_556 S
C514 C515 1.400 . S
C515 C514 1.400 . S
C515 C516 1.398 1_455 S
C515 C521 1.491 . S
C516 H507 0.950 . S
C516 C515 1.398 1_655 S
C516 C517 1.391 1_556 S
C517 H505 0.950 . S
C517 C513 1.363 1_655 S
C517 C516 1.391 1_554 S
C518 H508 0.950 . S
C518 C519 1.386 1_655 S
C518 C520 1.391 . S
C519 C518 1.386 1_455 S
C519 C523 1.393 . S
C520 H509 0.950 . S
C520 C518 1.391 . S
C520 C521 1.400 1_655 S
C521 C515 1.491 . S
C521 C520 1.400 1_455 S
C521 C522 1.398 . S
C522 H510 0.950 . S
C522 C521 1.398 . S
C522 C523 1.391 . S
C523 H511 0.950 . S
C523 C519 1.393 . S
C523 C522 1.391 . S
H524 C532 0.950 . S
H525 C537 0.950 . S
H526 C534 0.950 . S
H527 C536 0.950 . S
H528 C538 0.950 . S
H529 C540 0.950 . S
H530 C542 0.950 . S
H531 C543 0.950 . S
C532 H524 0.950 . S
C532 C533 1.386 1_556 S
C532 C534 1.391 . S
C533 C532 1.386 1_554 S
C533 C537 1.393 . S
C534 H526 0.950 . S
C534 C532 1.391 . S
C534 C535 1.400 . S
C535 C534 1.400 . S
C535 C536 1.398 1_556 S
C535 C541 1.491 . S
C536 H527 0.950 . S
C536 C535 1.398 1_554 S
C536 C537 1.391 . S
C537 H525 0.950 . S
C537 C533 1.393 . S
C537 C536 1.391 . S
C538 H528 0.950 . S
C538 C539 1.386 . S
C538 C540 1.391 . S
C539 C538 1.386 . S
C539 C543 1.393 . S
C540 H529 0.950 . S
C540 C538 1.391 . S
C540 C541 1.400 . S
C541 C535 1.491 . S
C541 C540 1.400 . S
C541 C542 1.398 . S
C542 H530 0.950 . S
C542 C541 1.398 . S
C542 C543 1.391 . S
C543 H531 0.950 . S
C543 C539 1.393 . S
C543 C542 1.391 . S
H544 C552 0.950 . S
H545 C557 0.950 . S
H546 C554 0.950 . S
H547 C556 0.950 . S
H548 C558 0.950 . S
H549 C560 0.950 . S
H550 C562 0.950 . S
H551 C563 0.950 . S
C552 H544 0.950 . S
C552 C553 1.386 . S
C552 C554 1.391 . S
C553 C552 1.386 . S
C553 C557 1.393 1_554 S
C554 H546 0.950 . S
C554 C552 1.391 . S
C554 C555 1.400 1_554 S
C555 C554 1.400 1_556 S
C555 C556 1.398 . S
C555 C561 1.491 . S
C556 H547 0.950 . S
C556 C555 1.398 . S
C556 C557 1.391 . S
C557 H545 0.950 . S
C557 C553 1.393 1_556 S
C557 C556 1.391 . S
C558 H548 0.950 . S
C558 C559 1.386 . S
C558 C560 1.391 . S
C559 C558 1.386 . S
C559 C563 1.393 . S
C560 H549 0.950 . S
C560 C558 1.391 . S
C560 C561 1.400 . S
C561 C555 1.491 . S
C561 C560 1.400 . S
C561 C562 1.398 . S
C562 H550 0.950 . S
C562 C561 1.398 . S
C562 C563 1.391 . S
C563 H551 0.950 . S
C563 C559 1.393 . S
C563 C562 1.391 . S
H564 C572 0.950 . S
H565 C577 0.950 . S
H566 C574 0.950 . S
H567 C576 0.950 . S
H568 C578 0.950 . S
H569 C580 0.950 . S
H570 C582 0.950 . S
H571 C583 0.950 . S
C572 H564 0.950 . S
C572 C573 1.386 . S
C572 C574 1.391 . S
C573 C572 1.386 . S
C573 C577 1.393 1_554 S
C574 H566 0.950 . S
C574 C572 1.391 . S
C574 C575 1.400 1_554 S
C575 C574 1.400 1_556 S
C575 C576 1.398 . S
C575 C581 1.491 . S
C576 H567 0.950 . S
C576 C575 1.398 . S
C576 C577 1.391 . S
C577 H565 0.950 . S
C577 C573 1.393 1_556 S
C577 C576 1.391 . S
C578 H568 0.950 . S
C578 C579 1.386 . S
C578 C580 1.391 . S
C579 C578 1.386 . S
C579 C583 1.393 . S
C580 H569 0.950 . S
C580 C578 1.391 . S
C580 C581 1.400 . S
C581 C575 1.491 . S
C581 C580 1.400 . S
C581 C582 1.398 . S
C582 H570 0.950 . S
C582 C581 1.398 . S
C582 C583 1.391 . S
C583 H571 0.950 . S
C583 C579 1.393 . S
C583 C582 1.391 . S
H584 C592 0.950 . S
H585 C597 0.950 . S
H586 C594 0.950 . S
H587 C596 0.954 . S
H588 C598 0.950 . S
H589 C600 0.950 . S
H590 C602 0.950 . S
H591 C603 0.950 . S
C592 H584 0.950 . S
C592 C593 1.385 . S
C592 C594 1.391 . S
C593 C592 1.385 . S
C593 C597 1.393 1_655 S
C594 H586 0.950 . S
C594 C592 1.391 . S
C594 C595 1.400 . S
C595 C594 1.400 . S
C595 C596 1.393 1_655 S
C595 C601 1.491 . S
C596 H587 0.954 . S
C596 C595 1.393 1_455 S
C596 C597 1.393 . S
C597 H585 0.950 . S
C597 C593 1.393 1_455 S
C597 C596 1.393 . S
C598 H588 0.950 . S
C598 C599 1.386 . S
C598 C600 1.391 . S
C599 C598 1.386 . S
C599 C603 1.393 . S
C600 H589 0.950 . S
C600 C598 1.391 . S
C600 C601 1.400 . S
C601 C595 1.491 . S
C601 C600 1.400 . S
C601 C602 1.398 . S
C602 H590 0.950 . S
C602 C601 1.398 . S
C602 C603 1.391 . S
C603 H591 0.950 . S
C603 C599 1.393 . S
C603 C602 1.391 . S
H604 C612 0.950 . S
H605 C617 0.950 . S
H606 C614 0.950 . S
H607 C616 0.950 . S
H608 C618 0.950 . S
H609 C620 0.950 . S
H610 C622 0.950 . S
H611 C623 0.933 1_545 S
C612 H604 0.950 . S
C612 C613 1.386 . S
C612 C614 1.391 . S
C613 C612 1.386 . S
C613 C617 1.393 . S
C614 H606 0.950 . S
C614 C612 1.391 . S
C614 C615 1.400 . S
C615 C614 1.400 . S
C615 C616 1.398 . S
C615 C621 1.491 . S
C616 H607 0.950 . S
C616 C615 1.398 . S
C616 C617 1.391 . S
C617 H605 0.950 . S
C617 C613 1.393 . S
C617 C616 1.391 . S
C618 H608 0.950 . S
C618 C619 1.386 . S
C618 C620 1.391 . S
C619 C618 1.386 . S
C619 C623 1.393 . S
C620 H609 0.950 . S
C620 C618 1.391 . S
C620 C621 1.400 . S
C621 C615 1.491 . S
C621 C620 1.400 . S
C621 C622 1.398 . S
C622 H610 0.950 . S
C622 C621 1.398 . S
C622 C623 1.391 . S
C623 H611 0.933 1_565 S
C623 C619 1.393 . S
C623 C622 1.391 . S
H624 C632 0.950 . S
H625 C637 0.950 . S
H626 C634 0.950 . S
H627 C636 0.950 . S
H628 C638 0.950 . S
H629 C640 0.950 . S
H630 C642 0.950 . S
H631 C643 0.950 . S
C632 H624 0.950 . S
C632 C633 1.386 . S
C632 C634 1.391 . S
C633 C632 1.386 . S
C633 C637 1.393 . S
C634 H626 0.950 . S
C634 C632 1.391 . S
C634 C635 1.400 . S
C635 C634 1.400 . S
C635 C636 1.398 . S
C635 C641 1.491 . S
C636 H627 0.950 . S
C636 C635 1.398 . S
C636 C637 1.391 . S
C637 H625 0.950 . S
C637 C633 1.393 . S
C637 C636 1.391 . S
C638 H628 0.950 . S
C638 C639 1.386 . S
C638 C640 1.391 . S
C639 C638 1.386 . S
C639 C643 1.393 . S
C640 H629 0.950 . S
C640 C638 1.391 . S
C640 C641 1.400 . S
C641 C635 1.491 . S
C641 C640 1.400 . S
C641 C642 1.398 . S
C642 H630 0.950 . S
C642 C641 1.398 . S
C642 C643 1.391 . S
C643 H631 0.950 . S
C643 C639 1.393 . S
C643 C642 1.391 . S
H644 C652 0.950 . S
H645 C657 0.950 . S
H646 C654 0.950 . S
H647 C656 0.950 . S
H648 C658 0.950 . S
H649 C660 0.950 . S
H650 C662 0.950 . S
H651 C663 0.950 . S
C652 H644 0.950 . S
C652 C653 1.386 . S
C652 C654 1.391 . S
C653 C652 1.386 . S
C653 C657 1.393 . S
C654 H646 0.950 . S
C654 C652 1.391 . S
C654 C655 1.400 . S
C655 C654 1.400 . S
C655 C656 1.398 . S
C655 C661 1.491 . S
C656 H647 0.950 . S
C656 C655 1.398 . S
C656 C657 1.391 . S
C657 H645 0.950 . S
C657 C653 1.393 . S
C657 C656 1.391 . S
C658 H648 0.950 . S
C658 C659 1.386 . S
C658 C660 1.391 . S
C659 C658 1.386 . S
C659 C663 1.393 . S
C660 H649 0.950 . S
C660 C658 1.391 . S
C660 C661 1.400 . S
C661 C655 1.491 . S
C661 C660 1.400 . S
C661 C662 1.398 . S
C662 H650 0.950 . S
C662 C661 1.398 . S
C662 C663 1.391 . S
C663 H651 0.950 . S
C663 C659 1.393 . S
C663 C662 1.391 . S
C193 N80 1.547 . S
C199 C122 1.536 . S
C219 C142 1.498 . S
C213 N93 1.522 . S
C239 C162 1.555 . S
C233 N54 1.567 . S
C259 C182 1.505 . S
C253 N67 1.518 . S
C279 C123 1.547 1_565 S
C273 N28 1.559 1_556 S
C293 N41 1.515 1_556 S
C299 C143 1.490 . S
C313 N2 1.564 1_556 S
C319 C163 1.557 . S
C333 N15 1.522 1_556 S
C339 C183 1.503 . S
C359 C113 0.826 . S
C353 N70 0.836 1_455 S
C379 C133 0.835 . S
C373 N83 0.837 . S
C399 C153 0.804 . S
C393 N96 0.836 . S
C413 N57 0.833 . S
C419 C173 0.795 . S
C433 N18 0.836 1_556 S
C439 C116 0.833 . S
C459 C136 0.848 1_545 S
C453 N31 0.847 1_556 S
C479 C156 0.792 . S
C473 N44 0.833 1_556 S
C493 N5 0.840 . S
C499 C176 0.836 . S
C513 N66 1.534 1_455 S
C519 C106 1.415 . S
C533 N79 1.567 . S
C539 C126 1.442 . S
C559 C146 1.446 . S
C553 N92 1.548 . S
C579 C166 1.480 . S
C573 N53 1.572 . S
C593 N14 1.543 . S
C599 C108 1.441 . S
C619 C128 1.458 . S
C613 N27 1.573 . S
C639 C148 1.447 . S
C633 N40 1.548 . S
C653 N1 1.573 . S
C659 C168 1.456 . S
