# Generated by pormake.
# Topology eea, (3,6)-cn, num edge types: 1
# Building blocks:
#     Node 0, Type 0, BuildingBlock: QEWDON_clean_linker_0, # of connection points: 3
#     Node 1, Type 0, BuildingBlock: QEWDON_clean_linker_0, # of connection points: 3
#     Node 2, Type 0, BuildingBlock: QEWDON_clean_linker_0, # of connection points: 3
#     Node 3, Type 0, BuildingBlock: QEWDON_clean_linker_0, # of connection points: 3
#     Node 4, Type 0, BuildingBlock: QEWDON_clean_linker_0, # of connection points: 3
#     Node 5, Type 0, BuildingBlock: QEWDON_clean_linker_0, # of connection points: 3
#     Node 6, Type 0, BuildingBlock: QEWDON_clean_linker_0, # of connection points: 3
#     Node 7, Type 0, BuildingBlock: QEWDON_clean_linker_0, # of connection points: 3
#     Node 8, Type 0, BuildingBlock: QEWDON_clean_linker_0, # of connection points: 3
#     Node 9, Type 0, BuildingBlock: QEWDON_clean_linker_0, # of connection points: 3
#     Node 10, Type 0, BuildingBlock: QEWDON_clean_linker_0, # of connection points: 3
#     Node 11, Type 0, BuildingBlock: QEWDON_clean_linker_0, # of connection points: 3
#     Node 12, Type 0, BuildingBlock: QEWDON_clean_linker_0, # of connection points: 3
#     Node 13, Type 0, BuildingBlock: QEWDON_clean_linker_0, # of connection points: 3
#     Node 14, Type 0, BuildingBlock: QEWDON_clean_linker_0, # of connection points: 3
#     Node 15, Type 0, BuildingBlock: QEWDON_clean_linker_0, # of connection points: 3
#     Node 16, Type 0, BuildingBlock: QEWDON_clean_linker_0, # of connection points: 3
#     Node 17, Type 0, BuildingBlock: QEWDON_clean_linker_0, # of connection points: 3
#     Node 18, Type 1, BuildingBlock: KUMJIN_clean_sbu_0, # of connection points: 6
#     Node 19, Type 1, BuildingBlock: KUMJIN_clean_sbu_0, # of connection points: 6
#     Node 20, Type 1, BuildingBlock: KUMJIN_clean_sbu_0, # of connection points: 6
#     Node 21, Type 1, BuildingBlock: KUMJIN_clean_sbu_0, # of connection points: 6
#     Node 22, Type 1, BuildingBlock: KUMJIN_clean_sbu_0, # of connection points: 6
#     Node 23, Type 1, BuildingBlock: KUMJIN_clean_sbu_0, # of connection points: 6
#     Node 24, Type 1, BuildingBlock: KUMJIN_clean_sbu_0, # of connection points: 6
#     Node 25, Type 1, BuildingBlock: KUMJIN_clean_sbu_0, # of connection points: 6
#     Node 26, Type 1, BuildingBlock: KUMJIN_clean_sbu_0, # of connection points: 6
#     Edge 27, Type (0, 1), BuildingBlock: OJICUG_clean_linker_0, # of connection points: 2
#     Edge 28, Type (0, 1), BuildingBlock: OJICUG_clean_linker_0, # of connection points: 2
#     Edge 29, Type (0, 1), BuildingBlock: OJICUG_clean_linker_0, # of connection points: 2
#     Edge 30, Type (0, 1), BuildingBlock: OJICUG_clean_linker_0, # of connection points: 2
#     Edge 31, Type (0, 1), BuildingBlock: OJICUG_clean_linker_0, # of connection points: 2
#     Edge 32, Type (0, 1), BuildingBlock: OJICUG_clean_linker_0, # of connection points: 2
#     Edge 33, Type (0, 1), BuildingBlock: OJICUG_clean_linker_0, # of connection points: 2
#     Edge 34, Type (0, 1), BuildingBlock: OJICUG_clean_linker_0, # of connection points: 2
#     Edge 35, Type (0, 1), BuildingBlock: OJICUG_clean_linker_0, # of connection points: 2
#     Edge 36, Type (0, 1), BuildingBlock: OJICUG_clean_linker_0, # of connection points: 2
#     Edge 37, Type (0, 1), BuildingBlock: OJICUG_clean_linker_0, # of connection points: 2
#     Edge 38, Type (0, 1), BuildingBlock: OJICUG_clean_linker_0, # of connection points: 2
#     Edge 39, Type (0, 1), BuildingBlock: OJICUG_clean_linker_0, # of connection points: 2
#     Edge 40, Type (0, 1), BuildingBlock: OJICUG_clean_linker_0, # of connection points: 2
#     Edge 41, Type (0, 1), BuildingBlock: OJICUG_clean_linker_0, # of connection points: 2
#     Edge 42, Type (0, 1), BuildingBlock: OJICUG_clean_linker_0, # of connection points: 2
#     Edge 43, Type (0, 1), BuildingBlock: OJICUG_clean_linker_0, # of connection points: 2
#     Edge 44, Type (0, 1), BuildingBlock: OJICUG_clean_linker_0, # of connection points: 2
#     Edge 45, Type (0, 1), BuildingBlock: OJICUG_clean_linker_0, # of connection points: 2
#     Edge 46, Type (0, 1), BuildingBlock: OJICUG_clean_linker_0, # of connection points: 2
#     Edge 47, Type (0, 1), BuildingBlock: OJICUG_clean_linker_0, # of connection points: 2
#     Edge 48, Type (0, 1), BuildingBlock: OJICUG_clean_linker_0, # of connection points: 2
#     Edge 49, Type (0, 1), BuildingBlock: OJICUG_clean_linker_0, # of connection points: 2
#     Edge 50, Type (0, 1), BuildingBlock: OJICUG_clean_linker_0, # of connection points: 2
#     Edge 51, Type (0, 1), BuildingBlock: OJICUG_clean_linker_0, # of connection points: 2
#     Edge 52, Type (0, 1), BuildingBlock: OJICUG_clean_linker_0, # of connection points: 2
#     Edge 53, Type (0, 1), BuildingBlock: OJICUG_clean_linker_0, # of connection points: 2
#     Edge 54, Type (0, 1), BuildingBlock: OJICUG_clean_linker_0, # of connection points: 2
#     Edge 55, Type (0, 1), BuildingBlock: OJICUG_clean_linker_0, # of connection points: 2
#     Edge 56, Type (0, 1), BuildingBlock: OJICUG_clean_linker_0, # of connection points: 2
#     Edge 57, Type (0, 1), BuildingBlock: OJICUG_clean_linker_0, # of connection points: 2
#     Edge 58, Type (0, 1), BuildingBlock: OJICUG_clean_linker_0, # of connection points: 2
#     Edge 59, Type (0, 1), BuildingBlock: OJICUG_clean_linker_0, # of connection points: 2
#     Edge 60, Type (0, 1), BuildingBlock: OJICUG_clean_linker_0, # of connection points: 2
#     Edge 61, Type (0, 1), BuildingBlock: OJICUG_clean_linker_0, # of connection points: 2
#     Edge 62, Type (0, 1), BuildingBlock: OJICUG_clean_linker_0, # of connection points: 2
#     Edge 63, Type (0, 1), BuildingBlock: OJICUG_clean_linker_0, # of connection points: 2
#     Edge 64, Type (0, 1), BuildingBlock: OJICUG_clean_linker_0, # of connection points: 2
#     Edge 65, Type (0, 1), BuildingBlock: OJICUG_clean_linker_0, # of connection points: 2
#     Edge 66, Type (0, 1), BuildingBlock: OJICUG_clean_linker_0, # of connection points: 2
#     Edge 67, Type (0, 1), BuildingBlock: OJICUG_clean_linker_0, # of connection points: 2
#     Edge 68, Type (0, 1), BuildingBlock: OJICUG_clean_linker_0, # of connection points: 2
#     Edge 69, Type (0, 1), BuildingBlock: OJICUG_clean_linker_0, # of connection points: 2
#     Edge 70, Type (0, 1), BuildingBlock: OJICUG_clean_linker_0, # of connection points: 2
#     Edge 71, Type (0, 1), BuildingBlock: OJICUG_clean_linker_0, # of connection points: 2
#     Edge 72, Type (0, 1), BuildingBlock: OJICUG_clean_linker_0, # of connection points: 2
#     Edge 73, Type (0, 1), BuildingBlock: OJICUG_clean_linker_0, # of connection points: 2
#     Edge 74, Type (0, 1), BuildingBlock: OJICUG_clean_linker_0, # of connection points: 2
#     Edge 75, Type (0, 1), BuildingBlock: OJICUG_clean_linker_0, # of connection points: 2
#     Edge 76, Type (0, 1), BuildingBlock: OJICUG_clean_linker_0, # of connection points: 2
#     Edge 77, Type (0, 1), BuildingBlock: OJICUG_clean_linker_0, # of connection points: 2
#     Edge 78, Type (0, 1), BuildingBlock: OJICUG_clean_linker_0, # of connection points: 2
#     Edge 79, Type (0, 1), BuildingBlock: OJICUG_clean_linker_0, # of connection points: 2
#     Edge 80, Type (0, 1), BuildingBlock: OJICUG_clean_linker_0, # of connection points: 2
# Relax obj value: 0.047
# Max RMSD: 0.225
# Mean RMSD: 0.160
data_MOF--net-eea--node1-KUMJIN_clean_sbu_0--node2-QEWDON_clean_linker_0--edge1-OJICUG_clean_linker_0
_symmetry_space_group_name_H-M    P1
_symmetry_Int_Tables_number       1
_symmetry_cell_setting            triclinic
loop_
_symmetry_equiv_pos_as_xyz
'x, y, z'
_cell_length_a     42.026259
_cell_length_b     43.528841
_cell_length_c     50.219295
_cell_angle_alpha  89.876093
_cell_angle_beta   89.699532
_cell_angle_gamma 119.95279
loop_
_atom_site_label
_atom_site_type_symbol
_atom_site_fract_x
_atom_site_fract_y
_atom_site_fract_z
_atom_type_partial_charge
H0 H 0.23626 0.13446 0.4419 0.0
C1 C 0.23589 0.11277 0.43105 0.0
C2 C 0.25936 0.10015 0.43864 0.0
C3 C 0.20973 0.0954 0.41109 0.0
H4 H 0.27698 0.0625 0.43096 0.0
C5 C 0.25803 0.07135 0.42521 0.0
C6 C 0.23204 0.05346 0.40523 0.0
C7 C 0.20796 0.06581 0.39827 0.0
C8 C 0.18147 0.10542 0.40572 0.0
H9 H 0.18688 0.05173 0.38355 0.0
C10 C 0.19119 0.14063 0.39932 0.0
C11 C 0.16374 0.14908 0.39334 0.0
C12 C 0.14417 0.07923 0.40702 0.0
H13 H 0.13605 0.05212 0.41227 0.0
C14 C 0.11698 0.08778 0.40186 0.0
H15 H 0.21989 0.16092 0.39791 0.0
C16 C 0.12662 0.12238 0.39493 0.0
H17 H 0.10499 0.1283 0.39062 0.0
H18 H 0.08832 0.06745 0.403 0.0
H19 H 0.89472 0.10448 0.42988 0.0
C20 C 0.91688 0.127 0.41962 0.0
C21 C 0.92955 0.16121 0.42967 0.0
C22 C 0.93405 0.12138 0.39757 0.0
H23 H 0.96959 0.21646 0.42526 0.0
C24 C 0.95951 0.19018 0.41715 0.0
C25 C 0.97687 0.18553 0.39467 0.0
C26 C 0.96389 0.15089 0.38507 0.0
C27 C 0.92271 0.08443 0.38925 0.0
H28 H 0.97695 0.14686 0.36783 0.0
C29 C 0.8853 0.05755 0.38885 0.0
C30 C 0.87541 0.02215 0.38344 0.0
C31 C 0.94972 0.07529 0.38343 0.0
H32 H 0.97862 0.09504 0.38396 0.0
C33 C 0.93985 0.04028 0.3778 0.0
H34 H 0.86398 0.064 0.393 0.0
C35 C 0.903 0.01381 0.37799 0.0
H36 H 0.89593 0.98678 0.37359 0.0
H37 H 0.96092 0.03357 0.37354 0.0
H38 H 0.93175 0.79811 0.42541 0.0
C39 C 0.90758 0.79737 0.41728 0.0
C40 C 0.8744 0.7801 0.43196 0.0
C41 C 0.90983 0.81473 0.39291 0.0
H42 H 0.81778 0.76726 0.43344 0.0
C43 C 0.84324 0.78031 0.42214 0.0
C44 C 0.84439 0.79694 0.39791 0.0
C45 C 0.87746 0.81348 0.3833 0.0
C46 C 0.94578 0.83559 0.37794 0.0
H47 H 0.87748 0.82496 0.36416 0.0
C48 C 0.97476 0.82754 0.37921 0.0
C49 C 1.00819 0.84822 0.36487 0.0
C50 C 0.95153 0.86493 0.36233 0.0
H51 H 0.93152 0.87362 0.36166 0.0
C52 C 0.98348 0.88422 0.34743 0.0
H53 H 0.97158 0.80565 0.39138 0.0
C54 C 1.01128 0.87584 0.34843 0.0
H55 H 0.03549 0.89145 0.33628 0.0
H56 H 0.98691 0.90618 0.33518 0.0
H57 H 0.14437 0.21898 0.60625 0.0
C58 C 0.12138 0.21961 0.61557 0.0
C59 C 0.10785 0.24039 0.60418 0.0
C60 C 0.10372 0.19741 0.63756 0.0
H61 H 0.06631 0.25547 0.60699 0.0
C62 C 0.07684 0.23959 0.61575 0.0
C63 C 0.05882 0.21805 0.6381 0.0
C64 C 0.07242 0.19684 0.64873 0.0
C65 C 0.11473 0.17115 0.64614 0.0
H66 H 0.05854 0.17967 0.66561 0.0
C67 C 0.15198 0.18059 0.65021 0.0
C68 C 0.16179 0.15425 0.65558 0.0
C69 C 0.08744 0.13534 0.64797 0.0
H70 H 0.05886 0.1272 0.64461 0.0
C71 C 0.09671 0.10934 0.65267 0.0
H72 H 0.17285 0.20831 0.64934 0.0
C73 C 0.13327 0.11847 0.65594 0.0
H74 H 0.13877 0.09687 0.65822 0.0
H75 H 0.07543 0.08171 0.6532 0.0
H76 H 0.79203 0.91379 0.60201 0.0
C77 C 0.79263 0.89219 0.61234 0.0
C78 C 0.76774 0.85708 0.60523 0.0
C79 C 0.8201 0.89979 0.6312 0.0
H80 H 0.74964 0.80225 0.61301 0.0
C81 C 0.76964 0.82933 0.618 0.0
C82 C 0.79734 0.83619 0.63665 0.0
C83 C 0.82239 0.87168 0.64319 0.0
C84 C 0.84836 0.93723 0.63632 0.0
H85 H 0.84441 0.87763 0.657 0.0
C86 C 0.83828 0.96331 0.64025 0.0
C87 C 0.86531 0.99918 0.64286 0.0
C88 C 0.88582 0.94746 0.63569 0.0
H89 H 0.8944 0.92807 0.63237 0.0
C90 C 0.91267 0.98303 0.63843 0.0
H91 H 0.8095 0.95582 0.64096 0.0
C92 C 0.90255 0.00882 0.6418 0.0
H93 H 0.9238 0.03629 0.64394 0.0
H94 H 0.94144 0.99068 0.63772 0.0
H95 H 0.10598 0.8711 0.6028 0.0
C96 C 0.12769 0.89341 0.61329 0.0
C97 C 0.16363 0.91043 0.60291 0.0
C98 C 0.11902 0.90697 0.63575 0.0
H99 H 0.21838 0.95444 0.60683 0.0
C100 C 0.19115 0.94089 0.61561 0.0
C101 C 0.18353 0.95426 0.63889 0.0
C102 C 0.14717 0.93658 0.64885 0.0
C103 C 0.08001 0.89469 0.64249 0.0
H104 H 0.14009 0.94616 0.6665 0.0
C105 C 0.05416 0.8587 0.64778 0.0
C106 C 0.01663 0.84784 0.65227 0.0
C107 C 0.06821 0.91968 0.64181 0.0
H108 H 0.08742 0.94734 0.6375 0.0
C109 C 0.03139 0.90918 0.64552 0.0
H110 H 0.06353 0.83964 0.64874 0.0
C111 C 1.0058 0.87371 0.65032 0.0
H112 H 0.97731 0.86674 0.65207 0.0
H113 H 0.0225 0.92858 0.64426 0.0
H114 H 0.90609 0.4675 0.77403 0.0
C115 C 0.90521 0.44523 0.76371 0.0
C116 C 0.92931 0.43322 0.77107 0.0
C117 C 0.8779 0.42668 0.74472 0.0
H118 H 0.94682 0.39538 0.76368 0.0
C119 C 0.92733 0.40371 0.75828 0.0
C120 C 0.90027 0.3847 0.73916 0.0
C121 C 0.87557 0.39649 0.73257 0.0
C122 C 0.84932 0.43641 0.73961 0.0
H123 H 0.85368 0.38161 0.71858 0.0
C124 C 0.85867 0.4714 0.73274 0.0
C125 C 0.83091 0.47956 0.72706 0.0
C126 C 0.81211 0.41017 0.74166 0.0
H127 H 0.80426 0.38325 0.7473 0.0
C128 C 0.78464 0.41844 0.73677 0.0
H129 H 0.88729 0.49174 0.73077 0.0
C130 C 0.79389 0.45279 0.72939 0.0
H131 H 0.77203 0.45847 0.72538 0.0
H132 H 0.75606 0.39806 0.7385 0.0
H133 H 0.5597 0.43636 0.76198 0.0
C134 C 0.58195 0.45895 0.75185 0.0
C135 C 0.59498 0.49308 0.76225 0.0
C136 C 0.59875 0.45351 0.72946 0.0
H137 H 0.63545 0.54831 0.7581 0.0
C138 C 0.62504 0.52208 0.74981 0.0
C139 C 0.64207 0.51752 0.7271 0.0
C140 C 0.62858 0.48307 0.71706 0.0
C141 C 0.58677 0.41679 0.72024 0.0
H142 H 0.64126 0.47925 0.6995 0.0
C143 C 0.54923 0.39033 0.71976 0.0
C144 C 0.53877 0.35541 0.71228 0.0
C145 C 0.6133 0.40759 0.71286 0.0
H146 H 0.64232 0.42696 0.71347 0.0
C147 C 0.60281 0.37301 0.70531 0.0
H148 H 0.52824 0.39679 0.7251 0.0
C149 C 0.5658 0.34702 0.70507 0.0
H150 H 0.55817 0.3203 0.69913 0.0
H151 H 0.6235 0.36627 0.69978 0.0
H152 H 0.59918 0.13065 0.75888 0.0
C153 C 0.57502 0.13018 0.75101 0.0
C154 C 0.54225 0.11359 0.76615 0.0
C155 C 0.5769 0.14721 0.72656 0.0
H156 H 0.48601 0.10162 0.7685 0.0
C157 C 0.51112 0.11415 0.75677 0.0
C158 C 0.51176 0.13036 0.73246 0.0
C159 C 0.54447 0.14629 0.71735 0.0
C160 C 0.61261 0.16736 0.71115 0.0
H161 H 0.54413 0.15749 0.69817 0.0
C162 C 0.64144 0.15908 0.71254 0.0
C163 C 0.67486 0.17937 0.6981 0.0
C164 C 0.61844 0.19642 0.69515 0.0
H165 H 0.59857 0.20527 0.6943 0.0
C166 C 0.65039 0.21534 0.68016 0.0
H167 H 0.63821 0.13734 0.72492 0.0
C168 C 0.67809 0.20683 0.68141 0.0
H169 H 0.70236 0.22222 0.66926 0.0
H170 H 0.65392 0.23714 0.66767 0.0
H171 H 0.80774 0.54556 0.94266 0.0
C172 C 0.7853 0.54772 0.9513 0.0
C173 C 0.77139 0.5666 0.9373 0.0
C174 C 0.76959 0.53059 0.97572 0.0
H175 H 0.7298 0.58193 0.9372 0.0
C176 C 0.74084 0.56768 0.94784 0.0
C177 C 0.72427 0.55058 0.97197 0.0
C178 C 0.73923 0.53276 0.98593 0.0
C179 C 0.78349 0.5092 0.99014 0.0
H180 H 0.72722 0.52097 1.00502 0.0
C181 C 0.82076 0.51729 0.98864 0.0
C182 C 0.8327 0.49631 1.00238 0.0
C183 C 0.75868 0.47956 1.00543 0.0
H184 H 0.72974 0.47112 1.00632 0.0
C185 C 0.77049 0.45974 0.01968 0.0
H186 H 0.84032 0.53957 0.97674 0.0
C187 C 0.80698 0.4681 0.01841 0.0
H188 H 0.81486 0.45211 0.03011 0.0
H189 H 0.75106 0.43745 0.03168 0.0
H190 H 0.46149 0.2498 0.9356 0.0
C191 C 0.46181 0.228 0.94583 0.0
C192 C 0.43653 0.19301 0.93868 0.0
C193 C 0.48923 0.23522 0.96464 0.0
H194 H 0.41785 0.13801 0.94626 0.0
C195 C 0.43811 0.16498 0.9513 0.0
C196 C 0.46572 0.17146 0.96995 0.0
C197 C 0.49112 0.20686 0.97653 0.0
C198 C 0.51767 0.27257 0.96994 0.0
H199 H 0.51307 0.21254 0.99034 0.0
C200 C 0.50783 0.29883 0.97381 0.0
C201 C 0.53503 0.33462 0.97651 0.0
C202 C 0.55507 0.28253 0.96951 0.0
H203 H 0.56348 0.26302 0.96625 0.0
C204 C 0.58208 0.31803 0.97238 0.0
H205 H 0.47911 0.29154 0.97437 0.0
C206 C 0.57219 0.344 0.97566 0.0
H207 H 0.59357 0.37141 0.97787 0.0
H208 H 0.6108 0.32548 0.97182 0.0
H209 H 0.77233 0.20149 0.9361 0.0
C210 C 0.79406 0.22518 0.94525 0.0
C211 C 0.83041 0.23985 0.93583 0.0
C212 C 0.7852 0.24192 0.96549 0.0
H213 H 0.88614 0.28228 0.94054 0.0
C214 C 0.85817 0.27096 0.94772 0.0
C215 C 0.85009 0.28831 0.96806 0.0
C216 C 0.81336 0.27338 0.9768 0.0
C217 C 0.74601 0.22962 0.97196 0.0
H218 H 0.80625 0.28692 0.99172 0.0
C219 C 0.72059 0.19385 0.97854 0.0
C220 C 0.68298 0.18272 0.98307 0.0
C221 C 0.73359 0.25406 0.97001 0.0
H222 H 0.75233 0.28148 0.96466 0.0
C223 C 0.69669 0.24327 0.97387 0.0
H224 H 0.73032 0.17515 0.98046 0.0
C225 C 0.6716 0.20804 0.98 0.0
H226 H 0.64302 0.20076 0.98187 0.0
H227 H 0.68734 0.26224 0.97169 0.0
H228 H 0.57455 0.80235 0.10756 0.0
C229 C 0.57369 0.7802 0.09706 0.0
C230 C 0.59766 0.768 0.10436 0.0
C231 C 0.5465 0.76197 0.07793 0.0
H232 H 0.61487 0.72995 0.0968 0.0
C233 C 0.59561 0.73856 0.09139 0.0
C234 C 0.56874 0.71996 0.07205 0.0
C235 C 0.54423 0.73196 0.06549 0.0
C236 C 0.51787 0.77168 0.07309 0.0
H237 H 0.52247 0.71733 0.05135 0.0
C238 C 0.52711 0.8067 0.06642 0.0
C239 C 0.49926 0.81485 0.0611 0.0
C240 C 0.48069 0.7454 0.0753 0.0
H241 H 0.47294 0.71845 0.08079 0.0
C242 C 0.45314 0.75366 0.07078 0.0
H243 H 0.5557 0.82706 0.06433 0.0
C244 C 0.46228 0.78805 0.06361 0.0
H245 H 0.44035 0.79373 0.05985 0.0
H246 H 0.42458 0.73326 0.07263 0.0
H247 H 0.22635 0.77085 0.09622 0.0
C248 C 0.24868 0.79325 0.08599 0.0
C249 C 0.26153 0.82755 0.09595 0.0
C250 C 0.26589 0.78738 0.06408 0.0
H251 H 0.30196 0.88269 0.09148 0.0
C252 C 0.29173 0.85634 0.08346 0.0
C253 C 0.30916 0.85144 0.06114 0.0
C254 C 0.29595 0.81673 0.05162 0.0
C255 C 0.25438 0.75035 0.05587 0.0
H256 H 0.30905 0.81252 0.03449 0.0
C257 C 0.21692 0.7236 0.05535 0.0
C258 C 0.20689 0.68815 0.04994 0.0
C259 C 0.28129 0.74103 0.05022 0.0
H260 H 0.31023 0.76066 0.05086 0.0
C261 C 0.2713 0.70598 0.04461 0.0
H262 H 0.19566 0.73018 0.05938 0.0
C263 C 0.2344 0.67965 0.04464 0.0
H264 H 0.22723 0.65259 0.04026 0.0
H265 H 0.2923 0.69913 0.04047 0.0
H266 H 0.26559 0.46527 0.09139 0.0
C267 C 0.24139 0.46443 0.08322 0.0
C268 C 0.20829 0.44744 0.098 0.0
C269 C 0.24351 0.48142 0.05869 0.0
H270 H 0.15169 0.4346 0.09949 0.0
C271 C 0.17709 0.44747 0.08811 0.0
C272 C 0.1781 0.4637 0.06372 0.0
C273 C 0.21111 0.48006 0.04902 0.0
C274 C 0.2794 0.50203 0.04361 0.0
H275 H 0.21105 0.49131 0.0298 0.0
C276 C 0.30829 0.49387 0.04498 0.0
C277 C 0.34172 0.51436 0.0306 0.0
C278 C 0.2852 0.53125 0.02784 0.0
H279 H 0.26523 0.53998 0.02706 0.0
C280 C 0.31719 0.55039 0.01293 0.0
H281 H 0.30504 0.47204 0.05726 0.0
C282 C 0.34492 0.54192 0.01405 0.0
H283 H 0.36917 0.55742 1.00191 0.0
H284 H 0.32068 0.57229 1.00056 0.0
H285 H 0.47537 0.88102 0.27672 0.0
C286 C 0.45281 0.88307 0.28526 0.0
C287 C 0.4389 0.90187 0.27116 0.0
C288 C 0.43694 0.86586 0.30964 0.0
H289 H 0.39716 0.91697 0.27079 0.0
C290 C 0.40819 0.9028 0.28153 0.0
C291 C 0.39148 0.88567 0.30562 0.0
C292 C 0.40645 0.86793 0.31969 0.0
C293 C 0.45082 0.84447 0.32413 0.0
H294 H 0.39432 0.85613 0.33876 0.0
C295 C 0.48807 0.85245 0.32265 0.0
C296 C 0.49992 0.8314 0.33643 0.0
C297 C 0.42597 0.81488 0.33946 0.0
H298 H 0.39703 0.80648 0.34034 0.0
C299 C 0.4377 0.79503 0.35375 0.0
H300 H 0.50768 0.87467 0.31073 0.0
C301 C 0.47415 0.80328 0.35248 0.0
H302 H 0.48196 0.78727 0.36421 0.0
H303 H 0.41823 0.7728 0.36577 0.0
H304 H 0.1262 0.58369 0.26822 0.0
C305 C 0.12654 0.56201 0.27862 0.0
C306 C 0.10156 0.52693 0.27148 0.0
C307 C 0.15382 0.56943 0.29761 0.0
H308 H 0.083 0.47204 0.27938 0.0
C309 C 0.1031 0.49908 0.28439 0.0
C310 C 0.13061 0.50578 0.30314 0.0
C311 C 0.1558 0.54121 0.30969 0.0
C312 C 0.18226 0.60678 0.30279 0.0
H313 H 0.1777 0.54704 0.32359 0.0
C314 C 0.17242 0.63299 0.30691 0.0
C315 C 0.19965 0.66875 0.3097 0.0
C316 C 0.21966 0.61676 0.30212 0.0
H317 H 0.22803 0.59725 0.29867 0.0
C318 C 0.24669 0.65224 0.30501 0.0
H319 H 0.1437 0.62568 0.30765 0.0
C320 C 0.23681 0.67816 0.30859 0.0
H321 H 0.25819 0.70557 0.31084 0.0
H322 H 0.27541 0.6597 0.30427 0.0
H323 H 0.4378 0.53824 0.26859 0.0
C324 C 0.45977 0.56124 0.27828 0.0
C325 C 0.49578 0.57644 0.26819 0.0
C326 C 0.45142 0.57749 0.29919 0.0
H327 H 0.5517 0.61823 0.2726 0.0
C328 C 0.52387 0.6072 0.28009 0.0
C329 C 0.51638 0.62386 0.30125 0.0
C330 C 0.4799 0.60864 0.31064 0.0
C331 C 0.4124 0.56544 0.30597 0.0
H332 H 0.47321 0.62181 0.32614 0.0
C333 C 0.38676 0.5296 0.3121 0.0
C334 C 0.34919 0.51863 0.31663 0.0
C335 C 0.40031 0.59018 0.30457 0.0
H336 H 0.41925 0.61767 0.29956 0.0
C337 C 0.36347 0.57957 0.30844 0.0
H338 H 0.3963 0.51072 0.31362 0.0
C339 C 0.33812 0.54425 0.31405 0.0
H340 H 0.3096 0.53716 0.31587 0.0
H341 H 0.35436 0.59876 0.30664 0.0
Eu342 Eu 0.49519 0.99098 0.98258 0.0
C343 C 0.56562 0.09828 0.0764 0.0
C344 C 0.62884 0.11173 0.07398 0.0
C345 C 0.61454 0.15557 0.09132 0.0
C346 C 0.59109 0.08829 0.06979 0.0
C347 C 0.57693 0.13169 0.08784 0.0
C348 C 0.64046 0.14563 0.08434 0.0
C349 C 0.51296 0.1143 0.09349 0.0
N350 N 0.52957 0.0746 0.07281 0.0
C351 C 0.50315 0.08151 0.08204 0.0
C352 C 0.55004 0.13971 0.09608 0.0
Eu353 Eu 0.51453 0.0197 0.05313 0.0
N354 N 0.57887 0.05535 0.05979 0.0
C355 C 0.60292 0.04344 0.05506 0.0
C356 C 0.65371 0.10021 0.06796 0.0
C357 C 0.64063 0.06578 0.05872 0.0
H358 H 0.47444 0.06191 0.07991 0.0
H359 H 0.6596 0.05643 0.05436 0.0
H360 H 0.66936 0.1641 0.0875 0.0
H361 H 0.49193 0.11996 0.10024 0.0
H362 H 0.59344 0.01704 0.04774 0.0
H363 H 0.34713 0.93687 0.97359 0.0
H364 H 0.68294 0.11745 0.07079 0.0
H365 H 0.54709 0.95838 0.95926 0.0
H366 H 0.41121 0.98297 0.98191 0.0
H367 H 0.53888 0.90244 0.9403 0.0
H368 H 0.62382 0.1815 0.09986 0.0
H369 H 0.33288 0.87686 0.95967 0.0
H370 H 0.35583 0.83577 0.94613 0.0
H371 H 0.5576 0.16508 0.10499 0.0
H372 H 0.40798 0.82653 0.9367 0.0
N373 N 0.43305 0.94914 0.97376 0.0
C374 C 0.40544 0.95692 0.97588 0.0
C375 C 0.36109 0.89698 0.9634 0.0
C376 C 0.38979 0.88984 0.95966 0.0
C377 C 0.36903 0.93084 0.97118 0.0
C378 C 0.426 0.9169 0.96493 0.0
H379 H 0.47631 0.85143 0.93401 0.0
N380 N 0.48984 0.93869 0.96414 0.0
C381 C 0.51515 0.90461 0.94582 0.0
C382 C 0.45528 0.91158 0.95976 0.0
C383 C 0.51973 0.9362 0.9565 0.0
C384 C 0.47978 0.87585 0.94233 0.0
C385 C 0.44927 0.87924 0.94899 0.0
O386 O 0.52973 0.01463 0.94732 0.0
O387 O 0.53397 0.03116 0.01103 0.0
O388 O 0.50506 0.06032 0.03098 0.0
O389 O 0.4742 0.02864 0.99294 0.0
O390 O 0.55758 0.01612 0.98186 0.0
O391 O 0.47624 0.0102 0.94929 0.0
O392 O 0.48306 0.00447 0.09053 0.0
O393 O 0.47424 0.98077 0.02462 0.0
O394 O 0.49768 0.94767 1.00512 0.0
O395 O 0.52909 0.97627 0.04376 0.0
O396 O 0.45326 0.99922 0.05366 0.0
O397 O 0.5252 0.9907 0.0841 0.0
C398 C 0.56449 0.03788 1.00128 0.0
C399 C 0.4997 0.00841 0.90654 0.0
C400 C 0.51006 0.02385 0.85909 0.0
C401 C 0.51357 0.03415 0.88607 0.0
C402 C 0.4923 0.98749 0.85304 0.0
C403 C 0.48175 0.97238 0.89988 0.0
C404 C 0.47815 0.96203 0.8733 0.0
C405 C 0.48608 0.05643 0.0089 0.0
C406 C 0.50546 0.01932 0.93471 0.0
C407 C 0.41318 0.85171 0.9447 0.0
C408 C 0.38349 0.85697 0.95009 0.0
C409 C 0.44475 0.97755 0.03399 0.0
C410 C 0.51422 1.00092 0.12853 0.0
C411 C 0.49639 0.97724 0.14991 0.0
C412 C 0.50915 0.98685 0.17628 0.0
C413 C 0.53965 0.02072 0.18074 0.0
C414 C 0.54471 0.03427 0.13365 0.0
C415 C 0.55722 0.04411 0.15959 0.0
C416 C 0.51523 0.94887 0.02718 0.0
C417 C 0.50141 0.99062 0.10093 0.0
H418 H 0.52751 0.06205 0.89113 0.0
H419 H 0.48865 0.97869 0.83256 0.0
H420 H 0.47065 0.95224 0.91519 0.0
H421 H 0.46427 0.93413 0.86837 0.0
H422 H 0.47309 0.95127 0.14593 0.0
H423 H 0.54976 0.0294 0.20069 0.0
H424 H 0.55896 0.05267 0.1176 0.0
H425 H 0.58066 0.07003 0.16333 0.0
Eu426 Eu 0.03474 0.50243 0.98684 0.0
C427 C 0.91087 0.45638 0.07176 0.0
C428 C 0.89881 0.5052 0.06977 0.0
C429 C 0.8499 0.44645 0.08246 0.0
C430 C 0.9229 0.49168 0.0665 0.0
C431 C 0.87453 0.43359 0.08059 0.0
C432 C 0.86205 0.48223 0.07709 0.0
C433 C 0.89093 0.3885 0.08849 0.0
N434 N 0.93554 0.44502 0.0704 0.0
C435 C 0.92668 0.41219 0.0798 0.0
C436 C 0.86453 0.39903 0.08843 0.0
Eu437 Eu 0.99556 0.48615 0.05536 0.0
N438 N 0.95874 0.51326 0.05983 0.0
C439 C 0.97271 0.54906 0.05771 0.0
C440 C 0.91266 0.54161 0.06647 0.0
C441 C 0.9499 0.56369 0.06081 0.0
H442 H 0.94707 0.40395 0.07973 0.0
H443 H 0.96102 0.59198 0.0586 0.0
H444 H 0.84304 0.49205 0.07935 0.0
H445 H 0.88378 0.36216 0.09519 0.0
H446 H 1.00125 0.56659 0.05303 0.0
H447 H 0.08842 0.41105 0.98245 0.0
H448 H 0.89505 0.55301 0.06879 0.0
H449 H 0.07388 0.58524 0.96203 0.0
H450 H 0.0407 0.42793 0.98604 0.0
H451 H 0.13581 0.63367 0.94898 0.0
H452 H 0.82176 0.42925 0.08887 0.0
H453 H 0.15344 0.45718 0.9758 0.0
H454 H 0.19989 0.52127 0.96766 0.0
H455 H 0.8369 0.38072 0.09535 0.0
H456 H 0.21292 0.58211 0.95877 0.0
N457 N 0.07827 0.48329 0.98209 0.0
C458 C 0.06887 0.44838 0.98296 0.0
C459 C 0.13257 0.46478 0.97729 0.0
C460 C 0.14169 0.50026 0.97465 0.0
C461 C 0.09589 0.43866 0.98096 0.0
C462 C 0.11348 0.50876 0.97689 0.0
H463 H 0.18908 0.62415 0.95127 0.0
N464 N 0.0926 0.54967 0.9727 0.0
C465 C 0.13207 0.60842 0.95569 0.0
C466 C 0.12092 0.54306 0.97218 0.0
C467 C 0.09713 0.58103 0.96298 0.0
C468 C 0.16208 0.60297 0.95709 0.0
C469 C 0.1566 0.56971 0.96474 0.0
O470 O 0.01773 0.51613 0.94982 0.0
O471 O 0.98903 0.49614 0.01291 0.0
O472 O 0.95743 0.43728 0.03111 0.0
O473 O 0.99311 0.44357 0.99327 0.0
O474 O 1.00515 0.5345 0.98396 0.0
O475 O 0.02066 0.46796 0.95207 0.0
O476 O 1.00407 0.46673 0.09341 0.0
O477 O 0.04109 0.49067 0.02944 0.0
O478 O 0.07239 0.55114 0.00998 0.0
O479 O 0.04223 0.54396 0.05084 0.0
O480 O 0.01883 0.44918 0.05654 0.0
O481 O 0.01988 0.52202 0.08886 0.0
C482 C 0.98165 0.51839 1.00287 0.0
C483 C 0.03174 0.49658 0.91014 0.0
C484 C 0.02401 0.49207 0.86198 0.0
C485 C 1.00897 0.48368 0.88784 0.0
C486 C 0.06214 0.51366 0.85866 0.0
C487 C 0.06986 0.51744 0.90651 0.0
C488 C 0.08493 0.52605 0.88088 0.0
C489 C 0.9637 0.42503 0.00865 0.0
C490 C 0.01501 0.48905 0.93685 0.0
C491 C 0.18521 0.56187 0.96405 0.0
C492 C 0.17778 0.5272 0.96905 0.0
C493 C 0.04426 0.46531 0.03881 0.0
C494 C 1.0011 0.49687 0.13164 0.0
C495 C 0.02213 0.50123 0.15441 0.0
C496 C 1.00869 0.50254 0.17989 0.0
C497 C 0.9737 0.49913 0.18222 0.0
C498 C 0.96631 0.49356 0.13438 0.0
C499 C 0.95266 0.49456 0.15957 0.0
C500 C 0.06886 0.5628 0.03337 0.0
C501 C 0.01647 0.49721 0.1052 0.0
H502 H 0.97949 0.46749 0.89059 0.0
H503 H 0.07432 0.5203 0.83893 0.0
H504 H 0.08796 0.52719 0.92334 0.0
H505 H 0.11435 0.54231 0.87824 0.0
H506 H 0.0493 0.50441 0.1522 0.0
H507 H 0.9625 0.4997 0.20157 0.0
H508 H 0.94989 0.49059 0.11712 0.0
H509 H 0.92576 0.49196 0.16153 0.0
Eu510 Eu 0.53792 0.51064 0.04948 0.0
C511 C 0.46441 0.55535 0.96289 0.0
C512 C 0.40295 0.5045 0.96309 0.0
C513 C 0.41244 0.56267 0.95133 0.0
C514 C 0.44105 0.51952 0.96713 0.0
C515 C 0.45049 0.57715 0.95415 0.0
C516 C 0.3887 0.5264 0.9558 0.0
C517 C 0.51302 0.62485 0.94853 0.0
N518 N 0.50102 0.56838 0.96535 0.0
C519 C 0.52544 0.60212 0.95716 0.0
C520 C 0.47534 0.61249 0.94747 0.0
Eu521 Eu 0.52037 0.52877 0.98029 0.0
N522 N 0.45576 0.49906 0.97397 0.0
C523 C 0.434 0.46304 0.97567 0.0
C524 C 0.3804 0.4678 0.96583 0.0
C525 C 0.39608 0.44695 0.9718 0.0
H526 H 0.55463 0.61177 0.95813 0.0
H527 H 0.37894 0.41847 0.97365 0.0
H528 H 0.35946 0.51541 0.95296 0.0
H529 H 0.53249 0.65186 0.94276 0.0
H530 H 0.4454 0.44645 0.98061 0.0
H531 H 0.68674 0.59587 0.0569 0.0
H532 H 0.35101 0.45527 0.96294 0.0
H533 H 0.4861 0.42813 0.07355 0.0
H534 H 0.62267 0.58226 0.05177 0.0
H535 H 0.49364 0.37773 0.08816 0.0
H536 H 0.40118 0.57908 0.94497 0.0
H537 H 0.70021 0.5474 0.06487 0.0
H538 H 0.67642 0.48266 0.07386 0.0
H539 H 0.46575 0.63008 0.94065 0.0
H540 H 0.62374 0.4231 0.08241 0.0
N541 N 0.60007 0.52652 0.0559 0.0
C542 C 0.62812 0.56087 0.05532 0.0
C543 C 0.67201 0.54126 0.06262 0.0
C544 C 0.64293 0.50639 0.06508 0.0
C545 C 0.66451 0.5687 0.05821 0.0
C546 C 0.60674 0.49983 0.06182 0.0
H547 H 0.55545 0.38387 0.08834 0.0
N548 N 0.54283 0.46163 0.06479 0.0
C549 C 0.51733 0.40241 0.08191 0.0
C550 C 0.57719 0.4663 0.06643 0.0
C551 C 0.51315 0.43092 0.07373 0.0
C552 C 0.55226 0.40595 0.08189 0.0
C553 C 0.58285 0.43843 0.07466 0.0
O554 O 0.50492 0.49925 0.0858 0.0
O555 O 0.50019 0.51696 0.02214 0.0
O556 O 0.52969 0.57588 1.00548 0.0
O557 O 0.55942 0.56969 0.04266 0.0
O558 O 0.47509 0.47818 0.05063 0.0
O559 O 0.55903 0.5455 0.08409 0.0
O560 O 0.55169 0.55127 0.94343 0.0
O561 O 0.55975 0.5242 1.00745 0.0
O562 O 0.52778 0.46277 0.02602 0.0
O563 O 0.51024 0.47209 0.98388 0.0
O564 O 0.5816 0.56687 0.9814 0.0
O565 O 0.51204 0.49522 0.94582 0.0
C566 C 0.46922 0.49431 0.03136 0.0
C567 C 0.53731 0.51804 0.12618 0.0
C568 C 0.53123 0.52172 0.17437 0.0
C569 C 0.52631 0.53046 0.14823 0.0
C570 C 0.54734 0.50047 0.17808 0.0
C571 C 0.55392 0.4974 0.13041 0.0
C572 C 0.55877 0.48859 0.15621 0.0
C573 C 0.54826 0.58788 0.02797 0.0
C574 C 0.53036 0.52587 0.09895 0.0
C575 C 0.61881 0.4443 0.07646 0.0
C576 C 0.64881 0.47823 0.07162 0.0
C577 C 0.5896 0.55016 0.99901 0.0
C578 C 0.52249 0.52227 0.90351 0.0
C579 C 0.53969 0.51657 0.88149 0.0
C580 C 0.52697 0.51592 0.85544 0.0
C581 C 0.49704 0.5215 0.85185 0.0
C582 C 0.49263 0.5276 0.89942 0.0
C583 C 0.48011 0.52736 0.87371 0.0
C584 C 0.51586 0.45266 1.0016 0.0
C585 C 0.53511 0.52131 0.93062 0.0
H586 H 0.5135 0.54646 0.14504 0.0
H587 H 0.55176 0.49361 0.19794 0.0
H588 H 0.56306 0.48802 0.11385 0.0
H589 H 0.57152 0.47255 0.15928 0.0
H590 H 0.56241 0.51188 0.88471 0.0
H591 H 0.48691 0.52166 0.83209 0.0
H592 H 0.47883 0.53167 0.91606 0.0
H593 H 0.45709 0.53158 0.87071 0.0
Eu594 Eu 0.1614 0.32621 0.31526 0.0
C595 C 0.2343 0.43393 0.40805 0.0
C596 C 0.29697 0.4458 0.40505 0.0
C597 C 0.28454 0.49098 0.42217 0.0
C598 C 0.25898 0.42296 0.40135 0.0
C599 C 0.24669 0.46772 0.41919 0.0
C600 C 0.30964 0.48007 0.41504 0.0
C601 C 0.18327 0.45185 0.42567 0.0
N602 N 0.19799 0.41084 0.40494 0.0
C603 C 0.17238 0.41867 0.41452 0.0
C604 C 0.22062 0.47671 0.42767 0.0
Eu605 Eu 0.18116 0.35516 0.38586 0.0
N606 N 0.24578 0.38969 0.39171 0.0
C607 C 0.26906 0.37692 0.38681 0.0
C608 C 0.32103 0.43336 0.39891 0.0
C609 C 0.30696 0.39865 0.39001 0.0
H610 H 0.14346 0.39949 0.41285 0.0
H611 H 0.32531 0.3886 0.38552 0.0
H612 H 0.33873 0.49808 0.41781 0.0
H613 H 0.16287 0.45824 0.43266 0.0
H614 H 0.25883 0.35031 0.37971 0.0
H615 H 1.01304 0.27101 0.30736 0.0
H616 H 0.35041 0.45013 0.40136 0.0
H617 H 0.21353 0.29442 0.29099 0.0
H618 H 0.07708 0.31748 0.31531 0.0
H619 H 0.20559 0.23879 0.27161 0.0
H620 H 0.29462 0.51718 0.43043 0.0
H621 H 0.99912 0.21117 0.29327 0.0
H622 H 0.02242 0.17053 0.27922 0.0
H623 H 0.22901 0.50238 0.43636 0.0
H624 H 0.07478 0.16189 0.26909 0.0
N625 N 0.09925 0.28399 0.30684 0.0
C626 C 0.07146 0.2915 0.30922 0.0
C627 C 0.02732 0.23144 0.29685 0.0
C628 C 0.05617 0.2246 0.29279 0.0
C629 C 0.03507 0.26521 0.30472 0.0
C630 C 0.09236 0.25185 0.29788 0.0
H631 H 0.14316 0.1874 0.26571 0.0
N632 N 0.15628 0.27417 0.29652 0.0
C633 C 0.1818 0.24065 0.27749 0.0
C634 C 0.12176 0.24686 0.29234 0.0
C635 C 0.18623 0.27207 0.28842 0.0
C636 C 0.1465 0.21168 0.27422 0.0
C637 C 0.11591 0.21469 0.28134 0.0
O638 O 0.19567 0.35042 0.27995 0.0
O639 O 0.20016 0.36649 0.34365 0.0
O640 O 0.17095 0.39535 0.36384 0.0
O641 O 0.14006 0.36352 0.32585 0.0
O642 O 0.22382 0.35183 0.31421 0.0
O643 O 0.14176 0.34494 0.28206 0.0
O644 O 0.15003 0.34144 0.42339 0.0
O645 O 0.14088 0.31598 0.35745 0.0
O646 O 0.16504 0.28323 0.33741 0.0
O647 O 0.19421 0.31061 0.37708 0.0
O648 O 0.11983 0.33434 0.38655 0.0
O649 O 0.19172 0.32692 0.4175 0.0
C650 C 0.23066 0.37346 0.33372 0.0
C651 C 0.16531 0.34361 0.23921 0.0
C652 C 0.17584 0.35884 0.19171 0.0
C653 C 0.17926 0.36927 0.21865 0.0
C654 C 0.15808 0.32245 0.18577 0.0
C655 C 0.14731 0.30756 0.23263 0.0
C656 C 0.14382 0.29709 0.20608 0.0
C657 C 0.15184 0.39129 0.34182 0.0
C658 C 0.17101 0.35457 0.26739 0.0
C659 C 0.07986 0.18696 0.27726 0.0
C660 C 0.05005 0.19187 0.28304 0.0
C661 C 0.11135 0.31253 0.36697 0.0
C662 C 0.18151 0.33909 0.46162 0.0
C663 C 0.16357 0.31648 0.48352 0.0
C664 C 0.17677 0.32705 0.50969 0.0
C665 C 0.20774 0.36081 0.51345 0.0
C666 C 0.21252 0.37234 0.46605 0.0
C667 C 0.22539 0.38316 0.4918 0.0
C668 C 0.18157 0.28391 0.35989 0.0
C669 C 0.16829 0.32775 0.43422 0.0
H670 H 0.19319 0.3972 0.22363 0.0
H671 H 0.15453 0.31355 0.16531 0.0
H672 H 0.1361 0.28747 0.24797 0.0
H673 H 0.12992 0.26917 0.20123 0.0
H674 H 0.13991 0.29054 0.4801 0.0
H675 H 0.21821 0.37014 0.53323 0.0
H676 H 0.22694 0.38987 0.44962 0.0
H677 H 0.24925 0.40899 0.49498 0.0
Eu678 Eu 0.70186 0.83701 0.32053 0.0
C679 C 0.57851 0.7941 0.40491 0.0
C680 C 0.5694 0.84476 0.40307 0.0
C681 C 0.5185 0.78685 0.41525 0.0
C682 C 0.59221 0.82977 0.39994 0.0
C683 C 0.54178 0.77244 0.4134 0.0
C684 C 0.5323 0.82296 0.4101 0.0
C685 C 0.55508 0.7252 0.42098 0.0
N686 N 0.60188 0.7812 0.40354 0.0
C687 C 0.5913 0.74784 0.4127 0.0
C688 C 0.53 0.73737 0.42089 0.0
Eu689 Eu 0.66278 0.8206 0.38911 0.0
N690 N 0.6283 0.85017 0.39342 0.0
C691 C 0.64369 0.88614 0.39114 0.0
C692 C 0.58478 0.88138 0.39979 0.0
C693 C 0.62219 0.90219 0.39414 0.0
H694 H 0.61069 0.73836 0.41276 0.0
H695 H 0.63447 0.93061 0.39186 0.0
H696 H 0.51427 0.83393 0.41225 0.0
H697 H 0.54657 0.69845 0.42745 0.0
H698 H 0.67237 0.90275 0.38644 0.0
H699 H 0.75499 0.74518 0.3163 0.0
H700 H 0.56818 0.89388 0.402 0.0
H701 H 0.74148 0.91976 0.29541 0.0
H702 H 0.70745 0.76233 0.31964 0.0
H703 H 0.8036 0.96803 0.28259 0.0
H704 H 0.49009 0.77054 0.42141 0.0
H705 H 0.82016 0.79115 0.31008 0.0
H706 H 0.8669 0.85521 0.30219 0.0
H707 H 0.50202 0.71989 0.42752 0.0
H708 H 0.88027 0.91615 0.29325 0.0
N709 N 0.74526 0.81766 0.31597 0.0
C710 C 0.73569 0.7827 0.31674 0.0
C711 C 0.79936 0.79886 0.31145 0.0
C712 C 0.80867 0.8344 0.30887 0.0
C713 C 0.7626 0.77283 0.31489 0.0
C714 C 0.78055 0.84305 0.31096 0.0
H715 H 0.85672 0.95834 0.28538 0.0
N716 N 0.75993 0.88411 0.30648 0.0
C717 C 0.7997 0.94277 0.28941 0.0
C718 C 0.78817 0.87739 0.30621 0.0
C719 C 0.76466 0.91547 0.29658 0.0
C720 C 0.82963 0.93723 0.29111 0.0
C721 C 0.82395 0.90394 0.29889 0.0
O722 O 0.68522 0.85086 0.28339 0.0
O723 O 0.65618 0.83067 0.34668 0.0
O724 O 0.62471 0.77174 0.36486 0.0
O725 O 0.66003 0.77823 0.32676 0.0
O726 O 0.67209 0.8689 0.31763 0.0
O727 O 0.68766 0.80245 0.28581 0.0
O728 O 0.66944 0.79924 0.42686 0.0
O729 O 0.70826 0.82503 0.36313 0.0
O730 O 0.7391 0.8861 0.34343 0.0
O731 O 0.71107 0.87772 0.38532 0.0
O732 O 0.68536 0.78309 0.38988 0.0
O733 O 0.68721 0.85509 0.42332 0.0
C734 C 0.6487 0.85285 0.33661 0.0
C735 C 0.69918 0.83099 0.24383 0.0
C736 C 0.69177 0.82625 0.19564 0.0
C737 C 0.67655 0.81806 0.22144 0.0
C738 C 0.72995 0.84764 0.19245 0.0
C739 C 0.73734 0.85163 0.24032 0.0
C740 C 0.75259 0.86002 0.21474 0.0
C741 C 0.63079 0.75963 0.34226 0.0
C742 C 0.68231 0.82365 0.27049 0.0
C743 C 0.85248 0.89597 0.29842 0.0
C744 C 0.84486 0.86126 0.30345 0.0
C745 C 0.71107 0.79938 0.37235 0.0
C746 C 0.66718 0.8288 0.46568 0.0
C747 C 0.68801 0.83253 0.48844 0.0
C748 C 0.67452 0.83352 0.51398 0.0
C749 C 0.63966 0.83038 0.51636 0.0
C750 C 0.63254 0.82581 0.46847 0.0
C751 C 0.61882 0.82644 0.49372 0.0
C752 C 0.73677 0.89707 0.36739 0.0
C753 C 0.68262 0.82943 0.43921 0.0
H754 H 0.64703 0.802 0.22409 0.0
H755 H 0.74227 0.85413 0.17275 0.0
H756 H 0.75533 0.86137 0.25721 0.0
H757 H 0.78205 0.87612 0.21219 0.0
H758 H 0.71509 0.83551 0.48619 0.0
H759 H 0.6284 0.83072 0.53574 0.0
H760 H 0.61629 0.82336 0.45122 0.0
H761 H 0.59203 0.82408 0.49572 0.0
Eu762 Eu 0.20544 0.84634 0.3829 0.0
C763 C 0.13261 0.89181 0.29604 0.0
C764 C 0.07042 0.84215 0.29668 0.0
C765 C 0.08173 0.90082 0.28447 0.0
C766 C 0.10841 0.85621 0.30062 0.0
C767 C 0.11966 0.9143 0.2871 0.0
C768 C 0.05715 0.86479 0.28924 0.0
C769 C 0.18276 0.96053 0.28088 0.0
N770 N 0.16907 0.90383 0.29831 0.0
C771 C 0.19421 0.93715 0.28975 0.0
C772 C 0.1453 0.94926 0.28001 0.0
Eu773 Eu 0.18672 0.86316 0.31367 0.0
N774 N 0.1222 0.835 0.30751 0.0
C775 C 0.09963 0.7991 0.30925 0.0
C776 C 0.04702 0.80559 0.29956 0.0
C777 C 0.06177 0.78392 0.30548 0.0
H778 H 0.22323 0.94597 0.29063 0.0
H779 H 0.04397 0.75554 0.30738 0.0
H780 H 0.02801 0.85454 0.28646 0.0
H781 H 0.2028 0.98723 0.2748 0.0
H782 H 0.11036 0.78193 0.31414 0.0
H783 H 0.35426 0.93228 0.38936 0.0
H784 H 0.01768 0.79377 0.29674 0.0
H785 H 0.15424 0.76426 0.40778 0.0
H786 H 0.29003 0.91825 0.38439 0.0
H787 H 0.16223 0.71431 0.4229 0.0
H788 H 0.0712 0.91778 0.27796 0.0
H789 H 0.36815 0.88419 0.3978 0.0
H790 H 0.34477 0.81966 0.40745 0.0
H791 H 0.13646 0.96735 0.27301 0.0
H792 H 0.29237 0.76014 0.41664 0.0
N793 N 0.26775 0.86263 0.38909 0.0
C794 C 0.29567 0.89702 0.38816 0.0
C795 C 0.33988 0.87786 0.39562 0.0
C796 C 0.31095 0.84297 0.39845 0.0
C797 C 0.33215 0.90509 0.39094 0.0
C798 C 0.27467 0.83616 0.39527 0.0
H799 H 0.22417 0.72077 0.42301 0.0
N800 N 0.21085 0.79783 0.39872 0.0
C801 C 0.18578 0.73893 0.4164 0.0
C802 C 0.24528 0.80267 0.40025 0.0
C803 C 0.18135 0.7672 0.40794 0.0
C804 C 0.22079 0.74265 0.41634 0.0
C805 C 0.2512 0.77506 0.40876 0.0
O806 O 0.17331 0.83549 0.41965 0.0
O807 O 0.16701 0.85165 0.35565 0.0
O808 O 0.19521 0.91011 0.3386 0.0
O809 O 0.2266 0.90517 0.37521 0.0
O810 O 0.14262 0.8135 0.38461 0.0
O811 O 0.22672 0.88248 0.41675 0.0
O812 O 0.21822 0.88402 0.27667 0.0
O813 O 0.22654 0.85905 0.34068 0.0
O814 O 0.19545 0.7983 0.3597 0.0
O815 O 0.17511 0.8061 0.31816 0.0
O816 O 0.24804 0.90116 0.31416 0.0
O817 O 0.17649 0.82864 0.27952 0.0
C818 C 0.13624 0.82901 0.36516 0.0
C819 C 0.20697 0.85632 0.4594 0.0
C820 C 0.20177 0.86055 0.50764 0.0
C821 C 0.19546 0.8682 0.48153 0.0
C822 C 0.21991 0.8411 0.51123 0.0
C823 C 0.22553 0.83746 0.46353 0.0
C824 C 0.23187 0.82985 0.4893 0.0
C825 C 0.21432 0.92266 0.3608 0.0
C826 C 0.1987 0.8629 0.43218 0.0
C827 C 0.28725 0.78115 0.41047 0.0
C828 C 0.31709 0.81504 0.40527 0.0
C829 C 0.25628 0.88481 0.33191 0.0
C830 C 0.18784 0.85537 0.237 0.0
C831 C 0.2053 0.85018 0.21492 0.0
C832 C 0.19282 0.85003 0.18887 0.0
C833 C 0.1629 0.85563 0.18535 0.0
C834 C 0.15799 0.86073 0.23299 0.0
C835 C 0.14572 0.86101 0.20728 0.0
C836 C 0.18197 0.78733 0.33571 0.0
C837 C 0.20026 0.85399 0.2641 0.0
H838 H 0.18114 0.88283 0.47844 0.0
H839 H 0.22539 0.83509 0.53106 0.0
H840 H 0.23506 0.82855 0.4469 0.0
H841 H 0.24612 0.81517 0.49228 0.0
H842 H 0.22803 0.84548 0.21807 0.0
H843 H 0.15294 0.85615 0.1656 0.0
H844 H 0.14399 0.86442 0.24968 0.0
H845 H 0.1227 0.86525 0.20434 0.0
Eu846 Eu 0.82792 0.65632 0.64846 0.0
C847 C 0.8991 0.76307 0.74284 0.0
C848 C 0.96205 0.77567 0.74063 0.0
C849 C 0.94845 0.81992 0.75811 0.0
C850 C 0.92425 0.75266 0.73628 0.0
C851 C 0.91078 0.79648 0.75443 0.0
C852 C 0.97405 0.80957 0.75116 0.0
C853 C 0.847 0.77991 0.75981 0.0
N854 N 0.86299 0.73981 0.73904 0.0
C855 C 0.83683 0.74711 0.74823 0.0
C856 C 0.88418 0.80492 0.7626 0.0
Eu857 Eu 0.84727 0.68479 0.71923 0.0
N858 N 0.91167 0.71976 0.72608 0.0
C859 C 0.93539 0.70748 0.72127 0.0
C860 C 0.98659 0.76377 0.73458 0.0
C861 C 0.97313 0.72939 0.72511 0.0
H862 H 0.80804 0.72781 0.74597 0.0
H863 H 0.99184 0.71975 0.72069 0.0
H864 H 1.003 0.82771 0.75445 0.0
H865 H 0.82618 0.78589 0.76652 0.0
H866 H 0.92564 0.68112 0.71377 0.0
H867 H 0.67992 0.60234 0.63937 0.0
H868 H 0.01584 0.78068 0.73753 0.0
H869 H 0.87986 0.62376 0.62514 0.0
H870 H 0.74401 0.64837 0.64782 0.0
H871 H 0.87167 0.56791 0.60601 0.0
H872 H 0.95801 0.84584 0.76675 0.0
H873 H 0.66567 0.54242 0.62521 0.0
H874 H 0.68863 0.50138 0.61149 0.0
H875 H 0.89202 0.8303 0.77161 0.0
H876 H 0.74077 0.49215 0.60204 0.0
N877 N 0.76582 0.61455 0.63953 0.0
C878 C 0.73822 0.62235 0.64169 0.0
C879 C 0.69388 0.56249 0.629 0.0
C880 C 0.72257 0.55536 0.62521 0.0
C881 C 0.70182 0.59631 0.63691 0.0
C882 C 0.75877 0.58236 0.63057 0.0
H883 H 0.80911 0.51699 0.59949 0.0
N884 N 0.8226 0.6041 0.62989 0.0
C885 C 0.84794 0.57008 0.61151 0.0
C886 C 0.78805 0.57705 0.62539 0.0
C887 C 0.8525 0.60162 0.62228 0.0
C888 C 0.81256 0.54137 0.60789 0.0
C889 C 0.78206 0.54476 0.61452 0.0
O890 O 0.86254 0.68033 0.61326 0.0
O891 O 0.86665 0.69603 0.67714 0.0
O892 O 0.83781 0.7255 0.69717 0.0
O893 O 0.80715 0.69408 0.65896 0.0
O894 O 0.89032 0.68144 0.64769 0.0
O895 O 0.80899 0.67573 0.61525 0.0
O896 O 0.81565 0.66977 0.75658 0.0
O897 O 0.80695 0.64629 0.69052 0.0
O898 O 0.83021 0.61281 0.6709 0.0
O899 O 0.86129 0.64105 0.70977 0.0
O900 O 0.78614 0.66482 0.71966 0.0
O901 O 0.85703 0.65501 0.75009 0.0
C902 C 0.89717 0.70281 0.66737 0.0
C903 C 0.83264 0.67445 0.57242 0.0
C904 C 0.8427 0.69026 0.52498 0.0
C905 C 0.84601 0.70034 0.55201 0.0
C906 C 0.82558 0.65396 0.51881 0.0
C907 C 0.81534 0.63849 0.56561 0.0
C908 C 0.81189 0.62836 0.53898 0.0
C909 C 0.819 0.72177 0.67503 0.0
C910 C 0.83828 0.68508 0.60068 0.0
C911 C 0.74597 0.51729 0.61012 0.0
C912 C 0.71628 0.52255 0.61552 0.0
C913 C 0.77755 0.64328 0.6999 0.0
C914 C 0.84641 0.66549 0.79455 0.0
C915 C 0.82849 0.64182 0.81592 0.0
C916 C 0.84141 0.65134 0.84228 0.0
C917 C 0.87211 0.68507 0.84672 0.0
C918 C 0.87712 0.69869 0.79966 0.0
C919 C 0.88976 0.70843 0.82557 0.0
C920 C 0.84751 0.6138 0.69306 0.0
C921 C 0.83348 0.65535 0.76694 0.0
H922 H 0.85945 0.7282 0.55717 0.0
H923 H 0.82212 0.64531 0.49829 0.0
H924 H 0.80465 0.61823 0.58083 0.0
H925 H 0.79852 0.60051 0.53395 0.0
H926 H 0.80502 0.61596 0.81196 0.0
H927 H 0.88233 0.69368 0.86666 0.0
H928 H 0.89145 0.71705 0.78361 0.0
H929 H 0.91337 0.73425 0.8293 0.0
Eu930 Eu 0.36572 0.16399 0.6549 0.0
C931 C 0.24553 0.12668 0.74212 0.0
C932 C 0.23347 0.17536 0.73754 0.0
C933 C 0.18532 0.11807 0.75369 0.0
C934 C 0.25747 0.1616 0.73525 0.0
C935 C 0.20953 0.10471 0.75189 0.0
C936 C 0.19725 0.1533 0.74649 0.0
C937 C 0.22474 0.05861 0.75897 0.0
N938 N 0.26946 0.11448 0.74004 0.0
C939 C 0.26015 0.08144 0.74926 0.0
C940 C 0.19916 0.07015 0.76003 0.0
Eu941 Eu 0.32895 0.15452 0.72352 0.0
N942 N 0.29253 0.18213 0.72635 0.0
C943 C 0.30578 0.21716 0.72056 0.0
C944 C 0.24658 0.21089 0.73079 0.0
C945 C 0.28296 0.23192 0.72245 0.0
H946 H 0.27999 0.07253 0.74849 0.0
H947 H 0.29344 0.25951 0.71734 0.0
H948 H 0.17836 0.16334 0.74818 0.0
H949 H 0.21723 0.03218 0.76569 0.0
H950 H 0.33363 0.2338 0.71376 0.0
H951 H 0.429 0.08051 0.65559 0.0
H952 H 0.22895 0.22239 0.73215 0.0
H953 H 0.3973 0.24223 0.62387 0.0
H954 H 0.37821 0.09334 0.65829 0.0
H955 H 0.45635 0.29147 0.60688 0.0
H956 H 0.15748 0.10151 0.76095 0.0
H957 H 0.49227 0.12891 0.64618 0.0
H958 H 0.53453 0.19277 0.63384 0.0
H959 H 0.17176 0.05246 0.76764 0.0
H960 H 0.54209 0.25055 0.62062 0.0
N961 N 0.41241 0.14871 0.65129 0.0
C962 C 0.40561 0.11472 0.65405 0.0
C963 C 0.47005 0.13471 0.64733 0.0
C964 C 0.47637 0.16901 0.64259 0.0
C965 C 0.43437 0.10731 0.65255 0.0
C966 C 0.44651 0.17517 0.64448 0.0
H967 H 0.51288 0.28736 0.60987 0.0
N968 N 0.42077 0.21158 0.63718 0.0
C969 C 0.45526 0.26819 0.61558 0.0
C970 C 0.45087 0.20771 0.63724 0.0
C971 C 0.42193 0.24032 0.62511 0.0
C972 C 0.48714 0.26583 0.61741 0.0
C973 C 0.48504 0.23494 0.62769 0.0
O974 O 0.34315 0.16988 0.61745 0.0
O975 O 0.32027 0.15978 0.68048 0.0
O976 O 0.29011 0.10488 0.7006 0.0
O977 O 0.32776 0.10553 0.66596 0.0
O978 O 0.33521 0.19476 0.64919 0.0
O979 O 0.35258 0.12578 0.62273 0.0
O980 O 0.33861 0.13748 0.76218 0.0
O981 O 0.37419 0.15722 0.69818 0.0
O982 O 0.40361 0.21557 0.67503 0.0
O983 O 0.37526 0.21176 0.71621 0.0
O984 O 0.35275 0.11813 0.72728 0.0
O985 O 0.35267 0.19217 0.75609 0.0
C986 C 0.31213 0.18054 0.66863 0.0
C987 C 0.35962 0.14985 0.57936 0.0
C988 C 0.35163 0.14891 0.53129 0.0
C989 C 0.33665 0.14076 0.55716 0.0
C990 C 0.38994 0.16664 0.52786 0.0
C991 C 0.39778 0.16674 0.57559 0.0
C992 C 0.41284 0.17529 0.54996 0.0
C993 C 0.29724 0.08945 0.68053 0.0
C994 C 0.34335 0.14309 0.60619 0.0
C995 C 0.51546 0.22976 0.6275 0.0
C996 C 0.51115 0.19685 0.63499 0.0
C997 C 0.37784 0.13293 0.70913 0.0
C998 C 0.3357 0.16877 0.79968 0.0
C999 C 0.35624 0.17123 0.82235 0.0
C1000 C 0.34328 0.17266 0.848 0.0
C1001 C 0.30918 0.17115 0.85058 0.0
C1002 C 0.30189 0.16751 0.80269 0.0
C1003 C 0.28865 0.16851 0.82803 0.0
C1004 C 0.401 0.2292 0.69783 0.0
C1005 C 0.35044 0.16844 0.77311 0.0
H1006 H 0.30713 0.1276 0.56003 0.0
H1007 H 0.40206 0.17296 0.50811 0.0
H1008 H 0.41592 0.17338 0.59235 0.0
H1009 H 0.44233 0.18849 0.54721 0.0
H1010 H 0.3827 0.17288 0.81993 0.0
H1011 H 0.29829 0.17181 0.87003 0.0
H1012 H 0.28591 0.16609 0.78554 0.0
H1013 H 0.26248 0.16745 0.8302 0.0
Eu1014 Eu 0.87125 0.17554 0.71679 0.0
C1015 C 0.80276 0.22602 0.62972 0.0
C1016 C 0.73968 0.17801 0.62963 0.0
C1017 C 0.75377 0.23761 0.61754 0.0
C1018 C 0.77734 0.19068 0.63404 0.0
C1019 C 0.79138 0.24968 0.62063 0.0
C1020 C 0.72797 0.20181 0.62201 0.0
C1021 C 0.85531 0.2942 0.61513 0.0
N1022 N 0.83886 0.23665 0.63235 0.0
C1023 C 0.86519 0.26971 0.62415 0.0
C1024 C 0.81822 0.28434 0.61382 0.0
Eu1025 Eu 0.85383 0.19411 0.64778 0.0
N1026 N 0.78966 0.1683 0.64101 0.0
C1027 C 0.76594 0.13258 0.64232 0.0
C1028 C 0.71507 0.14164 0.63219 0.0
C1029 C 0.72835 0.11878 0.63816 0.0
H1030 H 0.89391 0.27744 0.62538 0.0
H1031 H 0.7096 0.09052 0.63977 0.0
H1032 H 0.69911 0.19264 0.61884 0.0
H1033 H 0.87627 0.32066 0.6093 0.0
H1034 H 0.77558 0.11452 0.6472 0.0
H1035 H 0.01973 0.26271 0.72479 0.0
H1036 H 0.68593 0.13089 0.62903 0.0
H1037 H 0.82081 0.09252 0.74027 0.0
H1038 H 0.95532 0.24809 0.71991 0.0
H1039 H 0.82953 0.04245 0.75385 0.0
H1040 H 0.74444 0.25547 0.61089 0.0
H1041 H 0.03441 0.21483 0.73148 0.0
H1042 H 1.01181 0.15005 0.73924 0.0
H1043 H 0.81061 0.3033 0.60672 0.0
H1044 H 0.95989 0.08987 0.74717 0.0
N1045 N 0.9337 0.19237 0.72301 0.0
C1046 C 0.96128 0.22693 0.72294 0.0
C1047 C 1.00606 0.20824 0.72934 0.0
C1048 C 0.97745 0.17308 0.73129 0.0
C1049 C 0.99787 0.23534 0.72567 0.0
C1050 C 0.94103 0.16594 0.72824 0.0
H1051 H 0.89178 0.04963 0.75324 0.0
N1052 N 0.87731 0.12687 0.73132 0.0
C1053 C 0.8529 0.06744 0.74772 0.0
C1054 C 0.91191 0.13207 0.73253 0.0
C1055 C 0.84805 0.09577 0.74015 0.0
C1056 C 0.88807 0.07156 0.74724 0.0
C1057 C 0.91824 0.10442 0.74019 0.0
O1058 O 0.83897 0.16229 0.75363 0.0
O1059 O 0.83342 0.18193 0.6896 0.0
O1060 O 0.86221 0.24065 0.6731 0.0
O1061 O 0.89208 0.2346 0.71024 0.0
O1062 O 0.80837 0.1431 0.71799 0.0
O1063 O 0.89139 0.2106 0.75132 0.0
O1064 O 0.8861 0.21438 0.61101 0.0
O1065 O 0.89308 0.1889 0.67479 0.0
O1066 O 0.86135 0.12815 0.69277 0.0
O1067 O 0.84007 0.13634 0.6518 0.0
O1068 O 0.91522 0.23166 0.64888 0.0
O1069 O 0.84281 0.15957 0.61353 0.0
C1070 C 0.80243 0.15927 0.69878 0.0
C1071 C 0.87257 0.18259 0.79347 0.0
C1072 C 0.86935 0.18687 0.84198 0.0
C1073 C 0.86163 0.19412 0.8161 0.0
C1074 C 0.88782 0.16751 0.84464 0.0
C1075 C 0.89154 0.16401 0.79677 0.0
C1076 C 0.89893 0.15637 0.82219 0.0
C1077 C 0.88076 0.25269 0.69557 0.0
C1078 C 0.86371 0.18967 0.76658 0.0
C1079 C 0.95444 0.11089 0.74167 0.0
C1080 C 0.98401 0.14516 0.73718 0.0
C1081 C 0.92304 0.21482 0.66647 0.0
C1082 C 0.85535 0.18684 0.57118 0.0
C1083 C 0.87294 0.182 0.54901 0.0
C1084 C 0.86079 0.18259 0.52298 0.0
C1085 C 0.83112 0.18858 0.51955 0.0
C1086 C 0.82575 0.19261 0.56725 0.0
C1087 C 0.81385 0.19364 0.54156 0.0
C1088 C 0.8472 0.11735 0.66893 0.0
C1089 C 0.8673 0.1846 0.59827 0.0
H1090 H 0.84764 0.20913 0.81347 0.0
H1091 H 0.89351 0.16069 0.86409 0.0
H1092 H 0.90061 0.15532 0.77975 0.0
H1093 H 0.91329 0.14169 0.82451 0.0
H1094 H 0.89547 0.177 0.55208 0.0
H1095 H 0.82144 0.18963 0.49981 0.0
H1096 H 0.81163 0.19601 0.58399 0.0
H1097 H 0.79101 0.19818 0.53869 0.0
C1098 C 0.34433 0.91589 0.04771 0.0
C1099 C 0.3422 0.8826 0.049 0.0
H1100 H 0.37856 0.97188 0.04168 0.0
C1101 C 0.37315 0.88032 0.04089 0.0
H1102 H 0.32089 0.91866 0.05302 0.0
C1103 C 0.4061 0.91096 0.03372 0.0
C1104 C 0.40872 0.94442 0.03457 0.0
H1105 H 0.37271 0.85526 0.04167 0.0
H1106 H 0.43004 0.90866 0.02925 0.0
C1107 C 0.37725 0.9464 0.04091 0.0
C1108 C 0.11015 0.4326 0.05511 0.0
C1109 C 0.14453 0.46385 0.05414 0.0
H1110 H 0.05188 0.40873 0.05048 0.0
C1111 C 0.14601 0.49553 0.04596 0.0
H1112 H 0.10804 0.40775 0.06116 0.0
C1113 C 0.11365 0.49613 0.04004 0.0
C1114 C 0.07926 0.46488 0.0415 0.0
H1115 H 0.17202 0.52013 0.04526 0.0
H1116 H 0.11544 0.52117 0.03507 0.0
C1117 C 0.07799 0.43314 0.04891 0.0
C1118 C 0.57175 0.66372 0.0755 0.0
C1119 C 0.56487 0.68684 0.06013 0.0
H1120 H 0.5726 0.61519 0.07743 0.0
C1121 C 0.55349 0.67751 0.03362 0.0
H1122 H 0.5796 0.66928 0.09618 0.0
C1123 C 0.54856 0.64572 0.02298 0.0
C1124 C 0.55547 0.6227 0.03839 0.0
H1125 H 0.54835 0.69474 0.021 0.0
H1126 H 0.53915 0.63923 1.00276 0.0
C1127 C 0.56744 0.63234 0.06472 0.0
C1128 C 0.90809 0.34765 0.96223 0.0
C1129 C 0.87963 0.323 0.97889 0.0
H1130 H 0.95662 0.39834 0.95844 0.0
C1131 C 0.87955 0.33214 1.00577 0.0
H1132 H 0.90885 0.34231 0.94127 0.0
C1133 C 0.90686 0.36495 0.01556 0.0
C1134 C 0.93531 0.38942 0.9989 0.0
H1135 H 0.85849 0.31387 0.0194 0.0
H1136 H 0.90563 0.37094 0.03622 0.0
C1137 C 0.93559 0.38013 0.97211 0.0
C1138 C 0.65952 0.51933 0.99074 0.0
C1139 C 0.69083 0.55083 0.98214 0.0
H1140 H 0.60268 0.49408 1.00257 0.0
C1141 C 0.68912 0.58228 0.98167 0.0
H1142 H 0.65978 0.49458 0.99115 0.0
C1143 C 0.65668 0.58204 0.98859 0.0
C1144 C 0.625 0.55041 0.99619 0.0
H1145 H 0.71277 0.60705 0.97545 0.0
H1146 H 0.65604 0.60658 0.98728 0.0
C1147 C 0.62682 0.51904 0.9974 0.0
C1148 C 0.46074 0.11174 0.96505 0.0
C1149 C 0.46944 0.14143 0.98096 0.0
H1150 H 0.45829 0.06195 0.96141 0.0
C1151 C 0.48279 0.14242 1.00684 0.0
H1152 H 0.45147 0.11016 0.94477 0.0
C1153 C 0.48783 0.11476 0.01626 0.0
C1154 C 0.479 0.08515 1.00023 0.0
H1155 H 0.48946 0.16457 0.01987 0.0
H1156 H 0.49891 0.11679 0.03596 0.0
C1157 C 0.46505 0.08396 0.97461 0.0
C1158 C 0.62357 0.13807 1.00536 0.0
C1159 C 0.65499 0.14512 0.99039 0.0
H1160 H 0.57028 0.09984 0.01907 0.0
C1161 C 0.65769 0.11588 0.98123 0.0
H1162 H 0.62055 0.15933 0.01381 0.0
C1163 C 0.62915 0.08095 0.98602 0.0
C1164 C 0.59703 0.07436 0.99974 0.0
H1165 H 0.68107 0.1198 0.96945 0.0
H1166 H 0.63163 0.0591 0.97811 0.0
C1167 C 0.59471 0.10349 0.00912 0.0
C1168 C 0.87772 0.47384 1.00219 0.0
C1169 C 0.87132 0.50268 1.00033 0.0
H1170 H 0.91676 0.45622 1.00483 0.0
C1171 C 0.90212 0.53697 0.99758 0.0
H1172 H 0.85514 0.44682 1.00307 0.0
C1173 C 0.93802 0.54216 0.99784 0.0
C1174 C 0.94394 0.51338 1.00171 0.0
H1175 H 0.89867 0.55994 0.99605 0.0
H1176 H 0.96119 0.56882 0.99606 0.0
C1177 C 0.91333 0.47915 1.00311 0.0
C1178 C 0.50406 0.36094 1.00301 0.0
C1179 C 0.52504 0.3624 0.9807 0.0
H1180 H 0.4842 0.38865 0.02697 0.0
C1181 C 0.53897 0.39197 0.96361 0.0
H1182 H 0.49317 0.33844 0.0165 0.0
C1183 C 0.53329 0.4203 0.96933 0.0
C1184 C 0.51429 0.4198 0.99254 0.0
H1185 H 0.5552 0.39358 0.94627 0.0
H1186 H 0.54576 0.44353 0.95654 0.0
C1187 C 0.49906 0.38961 0.00903 0.0
C1188 C 0.15453 0.63139 0.0675 0.0
C1189 C 0.16797 0.65954 0.04906 0.0
H1190 H 0.11145 0.57873 0.07738 0.0
C1191 C 0.14587 0.65748 0.02752 0.0
H1192 H 0.17134 0.63231 0.0841 0.0
C1193 C 0.11197 0.62673 0.0235 0.0
C1194 C 0.09938 0.59783 0.04117 0.0
H1195 H 0.15586 0.67867 0.0129 0.0
H1196 H 0.09631 0.62491 1.00593 0.0
C1197 C 0.12028 0.6009 0.06375 0.0
C1198 C 0.36976 0.47431 0.03523 0.0
C1199 C 0.374 0.50841 0.03263 0.0
H1200 H 0.39659 0.44311 0.03687 0.0
C1201 C 0.41007 0.53757 0.03084 0.0
H1202 H 0.34266 0.45115 0.03669 0.0
C1203 C 0.44056 0.53279 0.03012 0.0
C1204 C 0.43628 0.49876 0.03154 0.0
H1205 H 0.41501 0.56445 0.02994 0.0
H1206 H 0.46758 0.55597 0.02868 0.0
C1207 C 0.40064 0.46962 0.03506 0.0
C1208 C 0.49032 0.85256 0.02826 0.0
C1209 C 0.50779 0.85034 0.05127 0.0
H1210 H 0.47881 0.8847 1.00292 0.0
C1211 C 0.53069 0.88154 0.06539 0.0
H1212 H 0.47276 0.82901 0.01687 0.0
C1213 C 0.53441 0.91414 0.05725 0.0
C1214 C 0.5156 0.91598 0.03471 0.0
H1215 H 0.5444 0.88044 0.08326 0.0
H1216 H 0.55114 0.93759 0.06898 0.0
C1217 C 0.49414 0.8848 0.02013 0.0
C1218 C 0.04066 0.21504 0.37406 0.0
C1219 C 1.00959 0.21691 0.38244 0.0
H1220 H 0.0974 0.2439 0.36207 0.0
C1221 C 1.01128 0.25002 0.38131 0.0
H1222 H 0.04055 0.19012 0.3747 0.0
C1223 C 0.04393 0.28074 0.37439 0.0
C1224 C 0.07555 0.27917 0.36777 0.0
H1225 H 0.98771 0.25248 0.38682 0.0
H1226 H 0.04491 0.30608 0.37527 0.0
C1227 C 0.07333 0.24588 0.36677 0.0
C1228 C 0.77645 0.76619 0.38914 0.0
C1229 C 0.81092 0.79734 0.38835 0.0
H1230 H 0.71825 0.74257 0.38416 0.0
C1231 C 0.81264 0.82914 0.3802 0.0
H1232 H 0.77415 0.74124 0.39516 0.0
C1233 C 0.78043 0.82994 0.37409 0.0
C1234 C 0.74595 0.79877 0.37533 0.0
H1235 H 0.83871 0.85367 0.37963 0.0
H1236 H 0.78241 0.85506 0.36912 0.0
C1237 C 0.74445 0.76692 0.38276 0.0
C1238 C 0.23492 0.99722 0.40875 0.0
C1239 C 0.22854 0.02055 0.39322 0.0
H1240 H 0.23625 0.94898 0.41071 0.0
C1241 C 0.21819 0.01167 0.36649 0.0
H1242 H 0.24181 1.00231 0.42962 0.0
C1243 C 0.21398 0.98018 0.35576 0.0
C1244 C 0.22066 0.95712 0.3713 0.0
H1245 H 0.21338 0.02904 0.35377 0.0
H1246 H 0.20539 0.974 0.33535 0.0
C1247 C 0.23145 0.96624 0.39788 0.0
C1248 C 0.54712 0.66653 0.33941 0.0
C1249 C 0.54619 0.65822 0.31222 0.0
H1250 H 0.57441 0.70444 0.37025 0.0
C1251 C 0.57387 0.68342 0.29537 0.0
H1252 H 0.52667 0.64775 0.35314 0.0
C1253 C 0.60157 0.71571 0.30533 0.0
C1254 C 0.60229 0.72418 0.33242 0.0
H1255 H 0.57381 0.67865 0.27421 0.0
H1256 H 0.62194 0.73442 0.29151 0.0
C1257 C 0.5747 0.69911 0.34932 0.0
C1258 C 0.32662 0.85434 0.32428 0.0
C1259 C 0.35788 0.88583 0.3156 0.0
H1260 H 0.26972 0.82898 0.33601 0.0
C1261 C 0.35596 0.91716 0.3148 0.0
H1262 H 0.32703 0.82966 0.32494 0.0
C1263 C 0.32338 0.91681 0.32149 0.0
C1264 C 0.29178 0.88519 0.3292 0.0
H1265 H 0.37954 0.94194 0.30852 0.0
H1266 H 0.3226 0.94126 0.31993 0.0
C1267 C 0.2938 0.85393 0.33073 0.0
C1268 C 0.12645 0.44649 0.298 0.0
C1269 C 0.13459 0.4759 0.31408 0.0
H1270 H 0.12462 0.39702 0.29417 0.0
C1271 C 0.14761 0.47677 0.34004 0.0
H1272 H 0.11749 0.44507 0.27765 0.0
C1273 C 0.15282 0.4492 0.3494 0.0
C1274 C 0.14451 0.41985 0.33321 0.0
H1275 H 0.15388 0.49875 0.35316 0.0
H1276 H 0.1636 0.45111 0.36918 0.0
C1277 C 0.13092 0.41881 0.3075 0.0
C1278 C 0.3239 0.45179 0.31425 0.0
C1279 C 0.32098 0.48091 0.32345 0.0
H1280 H 0.29809 0.39505 0.31093 0.0
C1281 C 0.28922 0.47362 0.33808 0.0
H1282 H 0.34749 0.45586 0.30268 0.0
C1283 C 0.26036 0.43899 0.34151 0.0
C1284 C 0.26303 0.41001 0.33225 0.0
H1285 H 0.28596 0.4947 0.34659 0.0
H1286 H 0.23573 0.43517 0.35122 0.0
C1287 C 0.29538 0.4168 0.31879 0.0
C1288 C 0.5694 0.87182 0.33157 0.0
C1289 C 0.5385 0.8376 0.33437 0.0
H1290 H 0.62848 0.90346 0.32991 0.0
C1291 C 0.54476 0.80868 0.33629 0.0
H1292 H 0.56606 0.89486 0.33 0.0
C1293 C 0.58032 0.81383 0.33716 0.0
C1294 C 0.61103 0.84799 0.33566 0.0
H1295 H 0.5221 0.7817 0.33724 0.0
H1296 H 0.58365 0.79084 0.3389 0.0
C1297 C 0.60524 0.87685 0.33178 0.0
C1298 C 0.20261 0.72559 0.2968 0.0
C1299 C 0.18976 0.69649 0.31426 0.0
H1300 H 0.20898 0.77698 0.28968 0.0
C1301 C 0.17027 0.69563 0.33729 0.0
H1302 H 0.21773 0.72674 0.27893 0.0
C1303 C 0.16571 0.72449 0.3436 0.0
C1304 C 0.1799 0.75424 0.3267 0.0
H1305 H 0.16025 0.67348 0.35106 0.0
H1306 H 0.152 0.724 0.36202 0.0
C1307 C 0.19734 0.75409 0.30283 0.0
C1308 C 0.82333 0.96514 0.40098 0.0
C1309 C 0.83651 0.99345 0.38269 0.0
H1310 H 0.78029 0.91248 0.4109 0.0
C1311 C 0.81407 0.99162 0.36147 0.0
H1312 H 0.8404 0.9659 0.41735 0.0
C1313 C 0.78006 0.96098 0.35759 0.0
C1314 C 0.76767 0.93193 0.37511 0.0
H1315 H 0.82385 0.01294 0.34697 0.0
H1316 H 0.76412 0.95935 0.34023 0.0
C1317 C 0.78895 0.93475 0.39739 0.0
C1318 C 0.03659 0.80843 0.36936 0.0
C1319 C 0.04061 0.84246 0.36682 0.0
H1320 H 0.06373 0.7775 0.37086 0.0
C1321 C 0.0766 0.87174 0.365 0.0
H1322 H 1.00956 0.78519 0.37086 0.0
C1323 C 0.1072 0.86717 0.36415 0.0
C1324 C 0.10315 0.83323 0.36548 0.0
H1325 H 0.08139 0.89857 0.36419 0.0
H1326 H 0.13414 0.89045 0.36271 0.0
C1327 C 0.0676 0.80396 0.36908 0.0
C1328 C 0.15691 0.18767 0.36012 0.0
C1329 C 0.17293 0.18482 0.38369 0.0
H1330 H 0.14698 0.22051 0.33438 0.0
C1331 C 0.19497 0.21561 0.39849 0.0
H1332 H 0.14003 0.16443 0.34821 0.0
C1333 C 0.19919 0.24843 0.39044 0.0
C1334 C 0.18175 0.25089 0.3673 0.0
H1335 H 0.20756 0.21401 0.41682 0.0
H1336 H 0.21514 0.27153 0.40269 0.0
C1337 C 0.16124 0.22013 0.35206 0.0
C1338 C 0.70572 0.54627 0.70651 0.0
C1339 C 0.67501 0.5487 0.715 0.0
H1340 H 0.76246 0.57441 0.69455 0.0
C1341 C 0.67727 0.58205 0.71404 0.0
H1342 H 0.70513 0.52113 0.70704 0.0
C1343 C 0.71018 0.61248 0.70711 0.0
C1344 C 0.74145 0.61034 0.70041 0.0
H1345 H 0.65398 0.5849 0.71969 0.0
H1346 H 0.71166 0.63803 0.70813 0.0
C1347 C 0.73865 0.57682 0.69928 0.0
C1348 C 0.44339 0.09989 0.72564 0.0
C1349 C 0.47803 0.13071 0.72339 0.0
H1350 H 0.38499 0.07662 0.72254 0.0
C1351 C 0.47964 0.16219 0.71447 0.0
H1352 H 0.44109 0.07514 0.73222 0.0
C1353 C 0.44727 0.16303 0.70898 0.0
C1354 C 0.41269 0.13222 0.71176 0.0
H1355 H 0.50582 0.18649 0.71278 0.0
H1356 H 0.44923 0.18793 0.70324 0.0
C1357 C 0.41123 0.10069 0.72002 0.0
C1358 C 0.88414 0.34145 0.70118 0.0
C1359 C 0.89653 0.35152 0.72741 0.0
H1360 H 0.86884 0.30247 0.6708 0.0
C1361 C 0.90457 0.32907 0.74266 0.0
H1362 H 0.87806 0.35809 0.68862 0.0
C1363 C 0.90056 0.29774 0.73199 0.0
C1364 C 0.88761 0.28742 0.70594 0.0
H1365 H 0.91317 0.33511 0.76317 0.0
H1366 H 0.90673 0.28117 0.74456 0.0
C1367 C 0.87934 0.30965 0.69073 0.0
C1368 C 0.25033 0.99788 0.64948 0.0
C1369 C 0.21282 0.98773 0.65165 0.0
H1370 H 0.30626 0.03791 0.65655 0.0
C1371 C 0.20379 0.01071 0.66529 0.0
H1372 H 0.25881 0.98082 0.63997 0.0
C1373 C 0.23116 0.04276 0.67591 0.0
C1374 C 0.26845 0.05345 0.67244 0.0
H1375 H 0.17565 0.00483 0.66709 0.0
H1376 H 0.22304 0.0599 0.68578 0.0
C1377 C 0.27773 0.03053 0.65931 0.0
C1378 C 0.02329 0.24845 0.65096 0.0
C1379 C 0.02506 0.21705 0.64926 0.0
H1380 H 0.9899 0.2721 0.65807 0.0
C1381 C 0.99345 0.18481 0.65635 0.0
H1382 H 0.04711 0.27384 0.64619 0.0
C1383 C 0.9605 0.1839 0.66343 0.0
C1384 C 0.9586 0.21528 0.66389 0.0
H1385 H 0.9936 0.16005 0.65514 0.0
H1386 H 0.93619 0.15855 0.66741 0.0
C1387 C 0.99054 0.24752 0.65798 0.0
C1388 C 0.81484 0.80733 0.6734 0.0
C1389 C 0.80164 0.80644 0.64749 0.0
H1390 H 0.83104 0.78168 0.70246 0.0
C1391 C 0.79356 0.77709 0.63137 0.0
H1392 H 0.8211 0.82928 0.68656 0.0
C1393 C 0.79817 0.74946 0.64079 0.0
C1394 C 0.81183 0.75046 0.66648 0.0
H1395 H 0.78449 0.77566 0.61105 0.0
H1396 H 0.79184 0.72769 0.62743 0.0
C1397 C 0.82018 0.77979 0.6827 0.0
C1398 C 0.95647 0.80265 0.67321 0.0
C1399 C 0.98818 0.81004 0.6585 0.0
H1400 H 0.90278 0.76428 0.68586 0.0
C1401 C 0.99086 0.78103 0.64873 0.0
H1402 H 0.95341 0.82361 0.68218 0.0
C1403 C 0.96209 0.74603 0.6528 0.0
C1404 C 0.92978 0.7392 0.66632 0.0
H1405 H 0.01444 0.78522 0.6371 0.0
H1406 H 0.9646 0.72436 0.64452 0.0
C1407 C 0.92737 0.76809 0.67611 0.0
C1408 C 0.23167 0.1942 0.65037 0.0
C1409 C 0.20104 0.16293 0.66028 0.0
H1410 H 0.29053 0.2246 0.64577 0.0
C1411 C 0.20826 0.13874 0.67404 0.0
H1412 H 0.22803 0.21356 0.63932 0.0
C1413 C 0.24387 0.14434 0.67633 0.0
C1414 C 0.27428 0.17556 0.66696 0.0
H1415 H 0.18651 0.11499 0.68325 0.0
H1416 H 0.2474 0.12403 0.68574 0.0
C1417 C 0.26774 0.20049 0.65384 0.0
C1418 C 0.86866 0.05626 0.63006 0.0
C1419 C 0.85514 0.02678 0.64721 0.0
H1420 H 0.87546 0.10788 0.62324 0.0
C1421 C 0.83466 0.0254 0.66981 0.0
H1422 H 0.88451 0.05782 0.61251 0.0
C1423 C 0.82988 0.05414 0.67609 0.0
C1424 C 0.84484 0.08429 0.65957 0.0
H1425 H 0.8241 1.00297 0.68334 0.0
H1426 H 0.81551 0.0533 0.69426 0.0
C1427 C 0.8632 0.08466 0.63605 0.0
C1428 C 0.48448 0.30189 0.73173 0.0
C1429 C 0.49981 0.32724 0.71121 0.0
H1430 H 0.44013 0.2509 0.74376 0.0
C1431 C 0.47982 0.32228 0.6878 0.0
H1432 H 0.49977 0.30507 0.74981 0.0
C1433 C 0.44599 0.29136 0.68429 0.0
C1434 C 0.43162 0.26493 0.70411 0.0
H1435 H 0.49133 0.34137 0.67164 0.0
H1436 H 0.4317 0.28751 0.66567 0.0
C1437 C 0.45042 0.27105 0.7283 0.0
C1438 C 0.74322 0.20255 0.69848 0.0
C1439 C 0.70714 0.17341 0.70022 0.0
H1440 H 0.80071 0.22097 0.69636 0.0
C1441 C 0.70292 0.1393 0.7028 0.0
H1442 H 0.74814 0.22943 0.69759 0.0
C1443 C 0.7338 0.13461 0.7026 0.0
C1444 C 0.76947 0.16375 0.6991 0.0
H1445 H 0.6758 0.11615 0.70424 0.0
H1446 H 0.72975 0.10808 0.70435 0.0
C1447 C 0.77372 0.19778 0.69776 0.0
C1448 C 0.82231 0.5174 0.69408 0.0
C1449 C 0.8396 0.51508 0.71716 0.0
H1450 H 0.81113 0.5497 0.66864 0.0
C1451 C 0.8625 0.54624 0.73132 0.0
H1452 H 0.80477 0.49388 0.68265 0.0
C1453 C 0.86637 0.57889 0.72316 0.0
C1454 C 0.84773 0.58082 0.70055 0.0
H1455 H 0.87607 0.54508 0.74926 0.0
H1456 H 0.88308 0.60229 0.73493 0.0
C1457 C 0.8263 0.54969 0.68592 0.0
C1458 C 0.43552 0.92185 0.22436 0.0
C1459 C 0.45668 0.92111 0.24579 0.0
H1460 H 0.43524 0.94299 0.18578 0.0
C1461 C 0.49516 0.94023 0.24322 0.0
H1462 H 0.40582 0.90698 0.22537 0.0
C1463 C 0.51198 0.96049 0.22036 0.0
C1464 C 0.49089 0.96234 0.19937 0.0
H1465 H 0.51242 0.94051 0.25927 0.0
H1466 H 0.5417 0.97515 0.2193 0.0
C1467 C 0.4524 0.94217 0.20145 0.0
C1468 C 0.07256 0.49502 0.22917 0.0
C1469 C 0.07613 0.51948 0.24883 0.0
H1470 H 0.0484 0.47042 0.19211 0.0
C1471 C 0.05672 0.53782 0.24595 0.0
H1472 H 0.08756 0.48083 0.23062 0.0
C1473 C 0.03441 0.53197 0.22377 0.0
C1474 C 0.03132 0.5079 0.20391 0.0
H1475 H 0.05888 0.55676 0.2608 0.0
H1476 H 0.02019 0.54686 0.22188 0.0
C1477 C 0.05048 0.48936 0.20694 0.0
C1478 C 0.5235 0.58466 0.22258 0.0
C1479 C 0.50379 0.56196 0.24391 0.0
H1480 H 0.54718 0.58963 0.18377 0.0
C1481 C 0.49188 0.52564 0.24178 0.0
H1482 H 0.53263 0.61272 0.22355 0.0
C1483 C 0.50043 0.51248 0.21907 0.0
C1484 C 0.52046 0.53527 0.19785 0.0
H1485 H 0.4766 0.50757 0.2579 0.0
H1486 H 0.49137 0.48444 0.21808 0.0
C1487 C 0.53152 0.57142 0.19972 0.0
C1488 C 0.95243 0.42676 0.81506 0.0
C1489 C 0.95395 0.44887 0.7941 0.0
H1490 H 0.97332 0.4233 0.85306 0.0
C1491 C 0.97852 0.48549 0.79557 0.0
H1492 H 0.93341 0.39846 0.81448 0.0
C1493 C 1.00167 0.49966 0.81755 0.0
C1494 C 0.99992 0.47746 0.83857 0.0
H1495 H 0.98007 0.503 0.77962 0.0
H1496 H 0.02059 0.52796 0.8183 0.0
C1497 C 0.97501 0.44094 0.83716 0.0
C1498 C 0.59935 0.52077 0.80707 0.0
C1499 C 0.57766 0.49837 0.78645 0.0
H1500 H 0.60043 0.54383 0.84499 0.0
C1501 C 0.53923 0.48115 0.78905 0.0
H1502 H 0.62903 0.53409 0.80584 0.0
C1503 C 0.52288 0.48663 0.8115 0.0
C1504 C 0.54454 0.50929 0.832 0.0
H1505 H 0.52176 0.46385 0.77349 0.0
H1506 H 0.49319 0.47298 0.81284 0.0
C1507 C 0.58298 0.52606 0.82963 0.0
C1508 C 0.52245 0.09934 0.81411 0.0
C1509 C 0.53948 0.09456 0.79153 0.0
H1510 H 0.50019 0.08106 0.85325 0.0
C1511 C 0.55026 0.0688 0.79252 0.0
H1512 H 0.51407 0.11919 0.814 0.0
C1513 C 0.54212 0.04684 0.81495 0.0
C1514 C 0.52341 0.05043 0.83701 0.0
H1515 H 0.56328 0.06439 0.77543 0.0
H1516 H 0.54955 0.02633 0.81474 0.0
C1517 C 0.5147 0.07767 0.83665 0.0
C1518 C 0.10382 0.26339 0.55875 0.0
C1519 C 0.12534 0.26191 0.57961 0.0
H1520 H 0.10297 0.28485 0.52041 0.0
C1521 C 0.16376 0.28098 0.57673 0.0
H1522 H 0.07413 0.24859 0.56006 0.0
C1523 C 0.18023 0.30141 0.55388 0.0
C1524 C 0.1588 0.30341 0.53321 0.0
H1525 H 0.18123 0.28061 0.59235 0.0
H1526 H 0.20992 0.31574 0.55243 0.0
C1527 C 0.12034 0.28381 0.53582 0.0
C1528 C 0.73831 0.82525 0.56295 0.0
C1529 C 0.742 0.84958 0.58278 0.0
H1530 H 0.71406 0.80104 0.52581 0.0
C1531 C 0.72254 0.8679 0.58016 0.0
H1532 H 0.75333 0.81106 0.5642 0.0
C1533 C 0.70017 0.86228 0.55806 0.0
C1534 C 0.69705 0.83843 0.538 0.0
H1535 H 0.72475 0.88672 0.59514 0.0
H1536 H 0.686 0.87723 0.55637 0.0
C1537 C 0.71617 0.81982 0.5408 0.0
C1538 C 0.16164 0.86148 0.57535 0.0
C1539 C 0.17209 0.89741 0.57801 0.0
H1540 H 0.16295 0.82172 0.55099 0.0
C1541 C 0.19091 0.92087 0.55683 0.0
H1542 H 0.14712 0.84285 0.59135 0.0
C1543 C 0.19952 0.9087 0.5336 0.0
C1544 C 0.19001 0.87297 0.53127 0.0
H1545 H 0.19894 0.94864 0.55824 0.0
H1546 H 0.21451 0.92743 0.51775 0.0
C1547 C 0.17079 0.84945 0.55232 0.0
C1548 C 0.62048 0.76119 0.1484 0.0
C1549 C 0.62222 0.78343 0.12745 0.0
H1550 H 0.641 0.75752 0.1865 0.0
C1551 C 0.64686 0.82003 0.12904 0.0
H1552 H 0.6014 0.73291 0.14772 0.0
C1553 C 0.66984 0.83405 0.15112 0.0
C1554 C 0.66785 0.81175 0.17213 0.0
H1555 H 0.64857 0.83763 0.11312 0.0
H1556 H 0.68881 0.86233 0.15196 0.0
C1557 C 0.64288 0.77525 0.17061 0.0
C1558 C 0.26557 0.8555 0.1406 0.0
C1559 C 0.24403 0.83313 0.11992 0.0
H1560 H 0.26637 0.87832 0.17857 0.0
C1561 C 0.20559 0.81593 0.12234 0.0
H1562 H 0.29526 0.8688 0.13948 0.0
C1563 C 0.18907 0.82129 0.14474 0.0
C1564 C 0.21058 0.8438 0.16537 0.0
H1565 H 0.18824 0.79865 0.10673 0.0
H1566 H 0.15937 0.8076 0.14599 0.0
C1567 C 0.24903 0.86066 0.16312 0.0
C1568 C 0.2166 0.40333 0.12509 0.0
C1569 C 0.20532 0.4287 0.12358 0.0
H1570 H 0.21623 0.36142 0.14789 0.0
C1571 C 0.18778 0.43345 0.14587 0.0
H1572 H 0.23002 0.39895 0.10824 0.0
C1573 C 0.18006 0.41212 0.16863 0.0
C1574 C 0.18928 0.38525 0.16949 0.0
H1575 H 0.17901 0.453 0.14537 0.0
H1576 H 0.16518 0.41546 0.185 0.0
C1577 C 0.20845 0.38169 0.14772 0.0
C1578 C 0.76784 0.58671 0.89057 0.0
C1579 C 0.78906 0.58579 0.91188 0.0
H1580 H 0.76747 0.60792 0.85203 0.0
C1581 C 0.82752 0.60465 0.90916 0.0
H1582 H 0.73813 0.57204 0.89171 0.0
C1583 C 0.84428 0.62481 0.88625 0.0
C1584 C 0.82314 0.62685 0.86538 0.0
H1585 H 0.84484 0.6048 0.92511 0.0
H1586 H 0.87399 0.63925 0.88507 0.0
C1587 C 0.78465 0.60695 0.86762 0.0
C1588 C 0.40595 0.1616 0.89647 0.0
C1589 C 0.41054 0.18603 0.91647 0.0
H1590 H 0.38106 0.13813 0.85928 0.0
C1591 C 0.39187 0.20516 0.9142 0.0
H1592 H 0.42031 0.14676 0.89746 0.0
C1593 C 0.36959 0.20039 0.89222 0.0
C1594 C 0.36564 0.17653 0.87194 0.0
H1595 H 0.39473 0.22405 0.92934 0.0
H1596 H 0.35617 0.21607 0.8908 0.0
C1597 C 0.38383 0.15697 0.87443 0.0
C1598 C 0.81587 0.21222 0.89017 0.0
C1599 C 0.83929 0.2244 0.91234 0.0
H1600 H 0.80661 0.19056 0.85084 0.0
C1601 C 0.87229 0.22358 0.91126 0.0
H1602 H 0.79047 0.21291 0.89009 0.0
C1603 C 0.88194 0.21155 0.8885 0.0
C1604 C 0.85872 0.19963 0.86621 0.0
H1605 H 0.89086 0.23241 0.928 0.0
H1606 H 0.90803 0.2122 0.88828 0.0
C1607 C 0.82543 0.19994 0.86742 0.0
C1608 C 0.30974 0.14943 0.46465 0.0
C1609 C 0.28221 0.11376 0.46266 0.0
H1610 H 0.35394 0.1886 0.48811 0.0
C1611 C 0.27687 0.09022 0.48361 0.0
H1612 H 0.31422 0.16794 0.44866 0.0
C1613 C 0.29899 0.10196 0.50609 0.0
C1614 C 0.32721 0.13738 0.5079 0.0
H1615 H 0.2556 0.06261 0.48249 0.0
H1616 H 0.2946 0.08313 0.52181 0.0
C1617 C 0.33241 0.1611 0.48705 0.0
C1618 C 0.93359 0.18864 0.47452 0.0
C1619 C 0.91205 0.16652 0.45374 0.0
H1620 H 0.93434 0.21095 0.51272 0.0
C1621 C 0.87361 0.14929 0.45615 0.0
H1622 H 0.96328 0.20196 0.47339 0.0
C1623 C 0.85708 0.15439 0.47865 0.0
C1624 C 0.87858 0.17663 0.49939 0.0
H1625 H 0.85628 0.13219 0.44045 0.0
H1626 H 0.82738 0.14071 0.47989 0.0
C1627 C 0.91703 0.19351 0.49716 0.0
C1628 C 0.85343 0.76497 0.47971 0.0
C1629 C 0.87134 0.7609 0.45735 0.0
H1630 H 0.83081 0.74623 0.51874 0.0
C1631 C 0.88311 0.73588 0.45861 0.0
H1632 H 0.84429 0.78425 0.47942 0.0
C1633 C 0.87518 0.71398 0.48106 0.0
C1634 C 0.85572 0.7169 0.50292 0.0
H1635 H 0.89683 0.73201 0.44171 0.0
H1636 H 0.88341 0.69403 0.48104 0.0
C1637 C 0.84592 0.74338 0.50231 0.0
loop_
_geom_bond_atom_site_label_1
_geom_bond_atom_site_label_2
_geom_bond_distance
_geom_bond_site_symmetry_2
_ccdc_geom_bond_type
H0 C1 0.949 . S
C1 H0 0.949 . S
C1 C2 1.395 . S
C1 C3 1.391 . S
C2 C1 1.395 . S
C2 C5 1.390 . S
C3 C1 1.391 . S
C3 C7 1.387 . S
C3 C8 1.491 . S
H4 C5 0.950 . S
C5 C2 1.390 . S
C5 H4 0.950 . S
C5 C6 1.378 . S
C6 C5 1.378 . S
C6 C7 1.409 . S
C7 C3 1.387 . S
C7 C6 1.409 . S
C7 H9 0.951 . S
C8 C3 1.491 . S
C8 C10 1.382 . S
C8 C12 1.404 . S
H9 C7 0.951 . S
C10 C8 1.382 . S
C10 C11 1.390 . S
C10 H15 0.949 . S
C11 C10 1.390 . S
C11 C16 1.399 . S
C12 C8 1.404 . S
C12 H13 0.950 . S
C12 C14 1.375 . S
H13 C12 0.950 . S
C14 C12 1.375 . S
C14 C16 1.382 . S
C14 H18 0.950 . S
H15 C10 0.949 . S
C16 C11 1.399 . S
C16 C14 1.382 . S
C16 H17 0.952 . S
H17 C16 0.952 . S
H18 C14 0.950 . S
H19 C20 0.949 . S
C20 H19 0.949 . S
C20 C21 1.395 . S
C20 C22 1.391 . S
C21 C20 1.395 . S
C21 C24 1.390 . S
C22 C20 1.391 . S
C22 C26 1.387 . S
C22 C27 1.491 . S
H23 C24 0.950 . S
C24 C21 1.390 . S
C24 H23 0.950 . S
C24 C25 1.378 . S
C25 C24 1.378 . S
C25 C26 1.409 . S
C26 C22 1.387 . S
C26 C25 1.409 . S
C26 H28 0.951 . S
C27 C22 1.491 . S
C27 C29 1.382 . S
C27 C31 1.404 . S
H28 C26 0.951 . S
C29 C27 1.382 . S
C29 C30 1.390 1_545 S
C29 H34 0.949 . S
C30 C29 1.390 1_565 S
C30 C35 1.399 . S
C31 C27 1.404 . S
C31 H32 0.950 . S
C31 C33 1.375 . S
H32 C31 0.950 . S
C33 C31 1.375 . S
C33 C35 1.382 1_545 S
C33 H37 0.950 . S
H34 C29 0.949 . S
C35 C30 1.399 . S
C35 C33 1.382 1_565 S
C35 H36 0.952 . S
H36 C35 0.952 . S
H37 C33 0.950 . S
H38 C39 0.949 . S
C39 H38 0.949 . S
C39 C40 1.395 . S
C39 C41 1.391 . S
C40 C39 1.395 . S
C40 C43 1.390 . S
C41 C39 1.391 . S
C41 C45 1.387 . S
C41 C46 1.491 . S
H42 C43 0.950 . S
C43 C40 1.390 . S
C43 H42 0.950 . S
C43 C44 1.378 . S
C44 C43 1.378 . S
C44 C45 1.409 . S
C45 C41 1.387 . S
C45 C44 1.409 . S
C45 H47 0.951 . S
C46 C41 1.491 . S
C46 C48 1.382 . S
C46 C50 1.404 . S
H47 C45 0.951 . S
C48 C46 1.382 . S
C48 C49 1.390 1_655 S
C48 H53 0.949 . S
C49 C48 1.390 1_455 S
C49 C54 1.399 . S
C50 C46 1.404 . S
C50 H51 0.950 . S
C50 C52 1.375 1_655 S
H51 C50 0.950 . S
C52 C50 1.375 1_455 S
C52 C54 1.382 . S
C52 H56 0.950 . S
H53 C48 0.949 . S
C54 C49 1.399 . S
C54 C52 1.382 . S
C54 H55 0.952 . S
H55 C54 0.952 . S
H56 C52 0.950 . S
H57 C58 0.949 . S
C58 H57 0.949 . S
C58 C59 1.395 . S
C58 C60 1.391 . S
C59 C58 1.395 . S
C59 C62 1.390 . S
C60 C58 1.391 . S
C60 C64 1.387 . S
C60 C65 1.491 . S
H61 C62 0.950 . S
C62 C59 1.390 . S
C62 H61 0.950 . S
C62 C63 1.378 . S
C63 C62 1.378 . S
C63 C64 1.409 . S
C64 C60 1.387 . S
C64 C63 1.409 . S
C64 H66 0.951 . S
C65 C60 1.491 . S
C65 C67 1.382 . S
C65 C69 1.404 . S
H66 C64 0.951 . S
C67 C65 1.382 . S
C67 C68 1.390 . S
C67 H72 0.949 . S
C68 C67 1.390 . S
C68 C73 1.399 . S
C69 C65 1.404 . S
C69 H70 0.950 . S
C69 C71 1.375 . S
H70 C69 0.950 . S
C71 C69 1.375 . S
C71 C73 1.382 . S
C71 H75 0.950 . S
H72 C67 0.949 . S
C73 C68 1.399 . S
C73 C71 1.382 . S
C73 H74 0.952 . S
H74 C73 0.952 . S
H75 C71 0.950 . S
H76 C77 0.949 . S
C77 H76 0.949 . S
C77 C78 1.395 . S
C77 C79 1.391 . S
C78 C77 1.395 . S
C78 C81 1.390 . S
C79 C77 1.391 . S
C79 C83 1.387 . S
C79 C84 1.491 . S
H80 C81 0.950 . S
C81 C78 1.390 . S
C81 H80 0.950 . S
C81 C82 1.378 . S
C82 C81 1.378 . S
C82 C83 1.409 . S
C83 C79 1.387 . S
C83 C82 1.409 . S
C83 H85 0.951 . S
C84 C79 1.491 . S
C84 C86 1.382 . S
C84 C88 1.404 . S
H85 C83 0.951 . S
C86 C84 1.382 . S
C86 C87 1.390 1_565 S
C86 H91 0.949 . S
C87 C86 1.390 1_545 S
C87 C92 1.399 . S
C88 C84 1.404 . S
C88 H89 0.950 . S
C88 C90 1.375 . S
H89 C88 0.950 . S
C90 C88 1.375 . S
C90 C92 1.382 1_565 S
C90 H94 0.950 1_565 S
H91 C86 0.949 . S
C92 C87 1.399 . S
C92 C90 1.382 1_545 S
C92 H93 0.952 . S
H93 C92 0.952 . S
H94 C90 0.950 1_545 S
H95 C96 0.949 . S
C96 H95 0.949 . S
C96 C97 1.395 . S
C96 C98 1.391 . S
C97 C96 1.395 . S
C97 C100 1.390 . S
C98 C96 1.391 . S
C98 C102 1.387 . S
C98 C103 1.491 . S
H99 C100 0.950 . S
C100 C97 1.390 . S
C100 H99 0.950 . S
C100 C101 1.378 . S
C101 C100 1.378 . S
C101 C102 1.409 . S
C102 C98 1.387 . S
C102 C101 1.409 . S
C102 H104 0.951 . S
C103 C98 1.491 . S
C103 C105 1.382 . S
C103 C107 1.404 . S
H104 C102 0.951 . S
C105 C103 1.382 . S
C105 C106 1.390 1_455 S
C105 H110 0.949 . S
C106 C105 1.390 1_655 S
C106 C111 1.399 . S
C107 C103 1.404 . S
C107 H108 0.950 . S
C107 C109 1.381 . S
H108 C107 0.950 . S
C109 C107 1.381 . S
C109 C111 1.381 1_455 S
C109 H113 0.944 1_455 S
H110 C105 0.949 . S
C111 C106 1.399 . S
C111 C109 1.381 1_655 S
C111 H112 0.952 . S
H112 C111 0.952 . S
H113 C109 0.944 1_655 S
H114 C115 0.949 . S
C115 H114 0.949 . S
C115 C116 1.395 . S
C115 C117 1.391 . S
C116 C115 1.395 . S
C116 C119 1.390 . S
C117 C115 1.391 . S
C117 C121 1.387 . S
C117 C122 1.491 . S
H118 C119 0.950 . S
C119 C116 1.390 . S
C119 H118 0.950 . S
C119 C120 1.378 . S
C120 C119 1.378 . S
C120 C121 1.409 . S
C121 C117 1.387 . S
C121 C120 1.409 . S
C121 H123 0.951 . S
C122 C117 1.491 . S
C122 C124 1.382 . S
C122 C126 1.404 . S
H123 C121 0.951 . S
C124 C122 1.382 . S
C124 C125 1.390 . S
C124 H129 0.949 . S
C125 C124 1.390 . S
C125 C130 1.399 . S
C126 C122 1.404 . S
C126 H127 0.950 . S
C126 C128 1.375 . S
H127 C126 0.950 . S
C128 C126 1.375 . S
C128 C130 1.382 . S
C128 H132 0.950 . S
H129 C124 0.949 . S
C130 C125 1.399 . S
C130 C128 1.382 . S
C130 H131 0.952 . S
H131 C130 0.952 . S
H132 C128 0.950 . S
H133 C134 0.949 . S
C134 H133 0.949 . S
C134 C135 1.395 . S
C134 C136 1.391 . S
C135 C134 1.395 . S
C135 C138 1.390 . S
C136 C134 1.391 . S
C136 C140 1.387 . S
C136 C141 1.491 . S
H137 C138 0.950 . S
C138 C135 1.390 . S
C138 H137 0.950 . S
C138 C139 1.378 . S
C139 C138 1.378 . S
C139 C140 1.409 . S
C140 C136 1.387 . S
C140 C139 1.409 . S
C140 H142 0.951 . S
C141 C136 1.491 . S
C141 C143 1.382 . S
C141 C145 1.404 . S
H142 C140 0.951 . S
C143 C141 1.382 . S
C143 C144 1.390 . S
C143 H148 0.949 . S
C144 C143 1.390 . S
C144 C149 1.399 . S
C145 C141 1.404 . S
C145 H146 0.950 . S
C145 C147 1.375 . S
H146 C145 0.950 . S
C147 C145 1.375 . S
C147 C149 1.382 . S
C147 H151 0.950 . S
H148 C143 0.949 . S
C149 C144 1.399 . S
C149 C147 1.382 . S
C149 H150 0.952 . S
H150 C149 0.952 . S
H151 C147 0.950 . S
H152 C153 0.949 . S
C153 H152 0.949 . S
C153 C154 1.395 . S
C153 C155 1.391 . S
C154 C153 1.395 . S
C154 C157 1.390 . S
C155 C153 1.391 . S
C155 C159 1.387 . S
C155 C160 1.491 . S
H156 C157 0.950 . S
C157 C154 1.390 . S
C157 H156 0.950 . S
C157 C158 1.378 . S
C158 C157 1.378 . S
C158 C159 1.409 . S
C159 C155 1.387 . S
C159 C158 1.409 . S
C159 H161 0.951 . S
C160 C155 1.491 . S
C160 C162 1.382 . S
C160 C164 1.404 . S
H161 C159 0.951 . S
C162 C160 1.382 . S
C162 C163 1.390 . S
C162 H167 0.949 . S
C163 C162 1.390 . S
C163 C168 1.399 . S
C164 C160 1.404 . S
C164 H165 0.950 . S
C164 C166 1.375 . S
H165 C164 0.950 . S
C166 C164 1.375 . S
C166 C168 1.382 . S
C166 H170 0.950 . S
H167 C162 0.949 . S
C168 C163 1.399 . S
C168 C166 1.382 . S
C168 H169 0.952 . S
H169 C168 0.952 . S
H170 C166 0.950 . S
H171 C172 0.949 . S
C172 H171 0.949 . S
C172 C173 1.395 . S
C172 C174 1.391 . S
C173 C172 1.395 . S
C173 C176 1.390 . S
C174 C172 1.391 . S
C174 C178 1.387 . S
C174 C179 1.491 . S
H175 C176 0.950 . S
C176 C173 1.390 . S
C176 H175 0.950 . S
C176 C177 1.378 . S
C177 C176 1.378 . S
C177 C178 1.409 . S
C178 C174 1.387 . S
C178 C177 1.409 . S
C178 H180 0.951 . S
C179 C174 1.491 . S
C179 C181 1.382 . S
C179 C183 1.404 . S
H180 C178 0.951 . S
C181 C179 1.382 . S
C181 C182 1.390 . S
C181 H186 0.949 . S
C182 C181 1.390 . S
C182 C187 1.399 . S
C183 C179 1.404 . S
C183 H184 0.950 . S
C183 C185 1.375 . S
H184 C183 0.950 . S
C185 C183 1.375 . S
C185 C187 1.382 . S
C185 H189 0.950 1_556 S
H186 C181 0.949 . S
C187 C182 1.399 . S
C187 C185 1.382 . S
C187 H188 0.952 1_556 S
H188 C187 0.952 1_554 S
H189 C185 0.950 1_554 S
H190 C191 0.949 . S
C191 H190 0.949 . S
C191 C192 1.395 . S
C191 C193 1.391 . S
C192 C191 1.395 . S
C192 C195 1.390 . S
C193 C191 1.391 . S
C193 C197 1.387 . S
C193 C198 1.491 . S
H194 C195 0.950 . S
C195 C192 1.390 . S
C195 H194 0.950 . S
C195 C196 1.378 . S
C196 C195 1.378 . S
C196 C197 1.409 . S
C197 C193 1.387 . S
C197 C196 1.409 . S
C197 H199 0.974 . S
C198 C193 1.491 . S
C198 C200 1.382 . S
C198 C202 1.404 . S
H199 C197 0.974 . S
C200 C198 1.382 . S
C200 C201 1.390 . S
C200 H205 0.949 . S
C201 C200 1.390 . S
C201 C206 1.399 1_556 S
C202 C198 1.404 . S
C202 H203 0.954 . S
C202 C204 1.375 1_556 S
H203 C202 0.954 . S
C204 C202 1.375 1_554 S
C204 C206 1.382 . S
C204 H208 0.950 . S
H205 C200 0.949 . S
C206 C201 1.399 1_554 S
C206 C204 1.382 . S
C206 H207 0.952 . S
H207 C206 0.952 . S
H208 C204 0.950 . S
H209 C210 0.949 . S
C210 H209 0.949 . S
C210 C211 1.395 . S
C210 C212 1.391 . S
C211 C210 1.395 . S
C211 C214 1.390 . S
C212 C210 1.391 . S
C212 C216 1.387 . S
C212 C217 1.491 . S
H213 C214 0.950 . S
C214 C211 1.390 . S
C214 H213 0.950 . S
C214 C215 1.378 . S
C215 C214 1.378 . S
C215 C216 1.409 . S
C216 C212 1.387 . S
C216 C215 1.409 . S
C216 H218 0.951 . S
C217 C212 1.491 . S
C217 C219 1.382 . S
C217 C221 1.404 . S
H218 C216 0.951 . S
C219 C217 1.382 . S
C219 C220 1.390 . S
C219 H224 0.949 . S
C220 C219 1.390 . S
C220 C225 1.389 1_556 S
C221 C217 1.404 . S
C221 H222 0.950 . S
C221 C223 1.375 1_556 S
H222 C221 0.950 . S
C223 C221 1.375 1_554 S
C223 C225 1.384 . S
C223 H227 0.950 . S
H224 C219 0.949 . S
C225 C220 1.389 1_554 S
C225 C223 1.384 . S
C225 H226 0.960 . S
H226 C225 0.960 . S
H227 C223 0.950 . S
H228 C229 0.949 . S
C229 H228 0.949 . S
C229 C230 1.395 . S
C229 C231 1.391 . S
C230 C229 1.395 . S
C230 C233 1.390 . S
C231 C229 1.391 . S
C231 C235 1.387 . S
C231 C236 1.491 . S
H232 C233 0.950 . S
C233 C230 1.390 . S
C233 H232 0.950 . S
C233 C234 1.378 . S
C234 C233 1.378 . S
C234 C235 1.409 . S
C235 C231 1.387 . S
C235 C234 1.409 . S
C235 H237 0.951 . S
C236 C231 1.491 . S
C236 C238 1.382 . S
C236 C240 1.404 . S
H237 C235 0.951 . S
C238 C236 1.382 . S
C238 C239 1.390 . S
C238 H243 0.949 . S
C239 C238 1.390 . S
C239 C244 1.399 . S
C240 C236 1.404 . S
C240 H241 0.950 . S
C240 C242 1.375 . S
H241 C240 0.950 . S
C242 C240 1.375 . S
C242 C244 1.382 . S
C242 H246 0.950 . S
H243 C238 0.949 . S
C244 C239 1.399 . S
C244 C242 1.382 . S
C244 H245 0.952 . S
H245 C244 0.952 . S
H246 C242 0.950 . S
H247 C248 0.949 . S
C248 H247 0.949 . S
C248 C249 1.395 . S
C248 C250 1.391 . S
C249 C248 1.395 . S
C249 C252 1.390 . S
C250 C248 1.391 . S
C250 C254 1.387 . S
C250 C255 1.491 . S
H251 C252 0.950 . S
C252 C249 1.390 . S
C252 H251 0.950 . S
C252 C253 1.378 . S
C253 C252 1.378 . S
C253 C254 1.409 . S
C254 C250 1.387 . S
C254 C253 1.409 . S
C254 H256 0.951 . S
C255 C250 1.491 . S
C255 C257 1.382 . S
C255 C259 1.404 . S
H256 C254 0.951 . S
C257 C255 1.382 . S
C257 C258 1.390 . S
C257 H262 0.949 . S
C258 C257 1.390 . S
C258 C263 1.399 . S
C259 C255 1.404 . S
C259 H260 0.950 . S
C259 C261 1.375 . S
H260 C259 0.950 . S
C261 C259 1.375 . S
C261 C263 1.382 . S
C261 H265 0.950 . S
H262 C257 0.949 . S
C263 C258 1.399 . S
C263 C261 1.382 . S
C263 H264 0.952 . S
H264 C263 0.952 . S
H265 C261 0.950 . S
H266 C267 0.949 . S
C267 H266 0.949 . S
C267 C268 1.395 . S
C267 C269 1.391 . S
C268 C267 1.395 . S
C268 C271 1.390 . S
C269 C267 1.391 . S
C269 C273 1.387 . S
C269 C274 1.491 . S
H270 C271 0.950 . S
C271 C268 1.390 . S
C271 H270 0.950 . S
C271 C272 1.378 . S
C272 C271 1.378 . S
C272 C273 1.409 . S
C273 C269 1.387 . S
C273 C272 1.409 . S
C273 H275 0.951 . S
C274 C269 1.491 . S
C274 C276 1.382 . S
C274 C278 1.404 . S
H275 C273 0.951 . S
C276 C274 1.382 . S
C276 C277 1.390 . S
C276 H281 0.949 . S
C277 C276 1.390 . S
C277 C282 1.399 . S
C278 C274 1.404 . S
C278 H279 0.950 . S
C278 C280 1.375 . S
H279 C278 0.950 . S
C280 C278 1.375 . S
C280 C282 1.382 . S
C280 H284 0.950 . S
H281 C276 0.949 . S
C282 C277 1.399 . S
C282 C280 1.382 . S
C282 H283 0.952 . S
H283 C282 0.952 . S
H284 C280 0.950 . S
H285 C286 0.949 . S
C286 H285 0.949 . S
C286 C287 1.395 . S
C286 C288 1.391 . S
C287 C286 1.395 . S
C287 C290 1.390 . S
C288 C286 1.391 . S
C288 C292 1.387 . S
C288 C293 1.491 . S
H289 C290 0.950 . S
C290 C287 1.390 . S
C290 H289 0.950 . S
C290 C291 1.378 . S
C291 C290 1.378 . S
C291 C292 1.409 . S
C292 C288 1.387 . S
C292 C291 1.409 . S
C292 H294 0.951 . S
C293 C288 1.491 . S
C293 C295 1.382 . S
C293 C297 1.404 . S
H294 C292 0.951 . S
C295 C293 1.382 . S
C295 C296 1.390 . S
C295 H300 0.949 . S
C296 C295 1.390 . S
C296 C301 1.399 . S
C297 C293 1.404 . S
C297 H298 0.950 . S
C297 C299 1.375 . S
H298 C297 0.950 . S
C299 C297 1.375 . S
C299 C301 1.382 . S
C299 H303 0.950 . S
H300 C295 0.949 . S
C301 C296 1.399 . S
C301 C299 1.382 . S
C301 H302 0.952 . S
H302 C301 0.952 . S
H303 C299 0.950 . S
H304 C305 0.949 . S
C305 H304 0.949 . S
C305 C306 1.395 . S
C305 C307 1.391 . S
C306 C305 1.395 . S
C306 C309 1.390 . S
C307 C305 1.391 . S
C307 C311 1.387 . S
C307 C312 1.491 . S
H308 C309 0.950 . S
C309 C306 1.390 . S
C309 H308 0.950 . S
C309 C310 1.378 . S
C310 C309 1.378 . S
C310 C311 1.409 . S
C311 C307 1.387 . S
C311 C310 1.409 . S
C311 H313 0.951 . S
C312 C307 1.491 . S
C312 C314 1.382 . S
C312 C316 1.404 . S
H313 C311 0.951 . S
C314 C312 1.382 . S
C314 C315 1.390 . S
C314 H319 0.949 . S
C315 C314 1.390 . S
C315 C320 1.399 . S
C316 C312 1.404 . S
C316 H317 0.950 . S
C316 C318 1.375 . S
H317 C316 0.950 . S
C318 C316 1.375 . S
C318 C320 1.382 . S
C318 H322 0.950 . S
H319 C314 0.949 . S
C320 C315 1.399 . S
C320 C318 1.382 . S
C320 H321 0.952 . S
H321 C320 0.952 . S
H322 C318 0.950 . S
H323 C324 0.949 . S
C324 H323 0.949 . S
C324 C325 1.395 . S
C324 C326 1.391 . S
C325 C324 1.395 . S
C325 C328 1.390 . S
C326 C324 1.391 . S
C326 C330 1.387 . S
C326 C331 1.491 . S
H327 C328 0.950 . S
C328 C325 1.390 . S
C328 H327 0.950 . S
C328 C329 1.378 . S
C329 C328 1.378 . S
C329 C330 1.409 . S
C330 C326 1.387 . S
C330 C329 1.409 . S
C330 H332 0.951 . S
C331 C326 1.491 . S
C331 C333 1.382 . S
C331 C335 1.404 . S
H332 C330 0.951 . S
C333 C331 1.382 . S
C333 C334 1.390 . S
C333 H338 0.949 . S
C334 C333 1.390 . S
C334 C339 1.399 . S
C335 C331 1.404 . S
C335 H336 0.950 . S
C335 C337 1.375 . S
H336 C335 0.950 . S
C337 C335 1.375 . S
C337 C339 1.382 . S
C337 H341 0.950 . S
H338 C333 0.949 . S
C339 C334 1.399 . S
C339 C337 1.382 . S
C339 H340 0.952 . S
H340 C339 0.952 . S
H341 C337 0.950 . S
Eu342 N373 2.657 . S
Eu342 N380 2.609 . S
Eu342 O386 2.558 . S
Eu342 O387 2.612 1_566 S
Eu342 O389 2.339 1_565 S
Eu342 O390 2.563 1_565 S
Eu342 O391 2.419 1_565 S
Eu342 O393 2.380 1_556 S
Eu342 O394 2.432 . S
Eu342 C406 2.848 1_565 S
C343 C346 1.429 . S
C343 C347 1.411 . S
C343 N350 1.377 . S
C344 C346 1.420 . S
C344 C348 1.423 . S
C344 C356 1.392 . S
C345 C347 1.420 . S
C345 C348 1.351 . S
C345 H368 0.931 . S
C346 C343 1.429 . S
C346 C344 1.420 . S
C346 N354 1.362 . S
C347 C343 1.411 . S
C347 C345 1.420 . S
C347 C352 1.395 . S
C348 C344 1.423 . S
C348 C345 1.351 . S
C348 H360 0.930 . S
C349 C351 1.400 . S
C349 C352 1.386 . S
C349 H361 0.930 . S
N350 C343 1.377 . S
N350 C351 1.321 . S
N350 Eu353 2.609 . S
C351 C349 1.400 . S
C351 N350 1.321 . S
C351 H358 0.930 . S
C352 C347 1.395 . S
C352 C349 1.386 . S
C352 H371 0.930 . S
Eu353 N350 2.609 . S
Eu353 N354 2.657 . S
Eu353 O387 2.380 . S
Eu353 O388 2.432 . S
Eu353 O392 2.558 . S
Eu353 O393 2.612 1_545 S
Eu353 O395 2.339 1_545 S
Eu353 O396 2.563 1_545 S
Eu353 O397 2.419 1_545 S
Eu353 C417 2.847 1_545 S
N354 C346 1.362 . S
N354 Eu353 2.657 . S
N354 C355 1.334 . S
C355 N354 1.334 . S
C355 C357 1.413 . S
C355 H362 0.929 . S
C356 C344 1.392 . S
C356 C357 1.367 . S
C356 H364 0.930 . S
C357 C355 1.413 . S
C357 C356 1.367 . S
C357 H359 0.930 . S
H358 C351 0.930 . S
H359 C357 0.930 . S
H360 C348 0.930 . S
H361 C349 0.930 . S
H362 C355 0.929 . S
H363 C377 0.930 . S
H364 C356 0.930 . S
H365 C383 0.930 . S
H366 C374 0.929 . S
H367 C381 0.930 . S
H368 C345 0.931 . S
H369 C375 0.930 . S
H370 C408 0.930 . S
H371 C352 0.930 . S
H372 C407 0.931 . S
N373 Eu342 2.657 . S
N373 C374 1.334 . S
N373 C378 1.362 . S
C374 H366 0.929 . S
C374 N373 1.334 . S
C374 C377 1.413 . S
C375 H369 0.930 . S
C375 C376 1.392 . S
C375 C377 1.367 . S
C376 C375 1.392 . S
C376 C378 1.420 . S
C376 C408 1.423 . S
C377 H363 0.930 . S
C377 C374 1.413 . S
C377 C375 1.367 . S
C378 N373 1.362 . S
C378 C376 1.420 . S
C378 C382 1.429 . S
H379 C384 0.930 . S
N380 Eu342 2.609 . S
N380 C382 1.377 . S
N380 C383 1.321 . S
C381 H367 0.930 . S
C381 C383 1.400 . S
C381 C384 1.386 . S
C382 C378 1.429 . S
C382 N380 1.377 . S
C382 C385 1.411 . S
C383 H365 0.930 . S
C383 N380 1.321 . S
C383 C381 1.400 . S
C384 H379 0.930 . S
C384 C381 1.386 . S
C384 C385 1.395 . S
C385 C382 1.411 . S
C385 C384 1.395 . S
C385 C407 1.420 . S
O386 Eu342 2.558 . S
O386 C406 1.257 1_565 S
O387 Eu342 2.612 1_544 S
O387 Eu353 2.380 . S
O387 C398 1.276 1_554 S
O388 Eu353 2.432 . S
O388 C405 1.264 . S
O389 Eu342 2.339 1_545 S
O389 C405 1.254 1_556 S
O390 Eu342 2.563 1_545 S
O390 C398 1.235 . S
O391 Eu342 2.419 1_545 S
O391 C406 1.249 . S
O392 Eu353 2.558 . S
O392 C417 1.251 1_545 S
O393 Eu342 2.380 1_554 S
O393 Eu353 2.612 1_565 S
O393 C409 1.276 . S
O394 Eu342 2.432 . S
O394 C416 1.264 1_556 S
O395 Eu353 2.339 1_565 S
O395 C416 1.254 . S
O396 Eu353 2.563 1_565 S
O396 C409 1.235 . S
O397 Eu353 2.419 1_565 S
O397 C417 1.254 . S
C398 O387 1.276 1_556 S
C398 O390 1.235 . S
C399 C401 1.393 . S
C399 C403 1.395 1_545 S
C399 C406 1.492 . S
C400 C401 1.392 . S
C400 C402 1.386 . S
C401 C399 1.393 . S
C401 C400 1.392 . S
C401 H418 0.930 . S
C402 C400 1.386 . S
C402 C404 1.395 . S
C402 H419 0.930 . S
C403 C399 1.395 1_565 S
C403 C404 1.379 1_565 S
C403 H420 0.930 . S
C404 C402 1.395 . S
C404 C403 1.379 1_545 S
C404 H421 0.930 1_545 S
C405 O388 1.264 . S
C405 O389 1.254 1_554 S
C406 Eu342 2.848 1_545 S
C406 O386 1.257 1_545 S
C406 O391 1.249 . S
C406 C399 1.492 . S
C407 H372 0.931 . S
C407 C385 1.420 . S
C407 C408 1.351 . S
C408 H370 0.930 . S
C408 C376 1.423 . S
C408 C407 1.351 . S
C409 O393 1.276 . S
C409 O396 1.235 . S
C410 C411 1.393 . S
C410 C414 1.395 1_565 S
C410 C417 1.493 . S
C411 C410 1.393 . S
C411 C412 1.392 . S
C411 H422 0.930 . S
C412 C411 1.392 . S
C412 C413 1.386 . S
C413 C412 1.386 . S
C413 C415 1.425 . S
C413 H423 0.930 . S
C414 C410 1.395 1_545 S
C414 C415 1.372 1_545 S
C414 H424 0.930 . S
C415 C413 1.425 . S
C415 C414 1.372 1_565 S
C415 H425 0.906 1_565 S
C416 O394 1.264 1_554 S
C416 O395 1.254 . S
C417 Eu353 2.847 1_565 S
C417 O392 1.251 1_565 S
C417 O397 1.254 . S
C417 C410 1.493 . S
H418 C401 0.930 . S
H419 C402 0.930 . S
H420 C403 0.930 . S
H421 C404 0.930 1_565 S
H422 C411 0.930 . S
H423 C413 0.930 . S
H424 C414 0.930 . S
H425 C415 0.906 1_545 S
Eu426 N457 2.657 . S
Eu426 N464 2.609 . S
Eu426 O470 2.558 . S
Eu426 O471 2.612 1_456 S
Eu426 O473 2.339 1_455 S
Eu426 O474 2.563 1_455 S
Eu426 O475 2.419 1_455 S
Eu426 O477 2.380 1_556 S
Eu426 O478 2.432 . S
Eu426 C490 2.848 . S
C427 C430 1.429 . S
C427 C431 1.411 . S
C427 N434 1.377 . S
C428 C430 1.420 . S
C428 C432 1.423 . S
C428 C440 1.392 . S
C429 C431 1.420 . S
C429 C432 1.351 . S
C429 H452 0.931 . S
C430 C427 1.429 . S
C430 C428 1.420 . S
C430 N438 1.362 . S
C431 C427 1.411 . S
C431 C429 1.420 . S
C431 C436 1.395 . S
C432 C428 1.423 . S
C432 C429 1.351 . S
C432 H444 0.930 . S
C433 C435 1.400 . S
C433 C436 1.386 . S
C433 H445 0.930 . S
N434 C427 1.377 . S
N434 C435 1.321 . S
N434 Eu437 2.609 . S
C435 C433 1.400 . S
C435 N434 1.321 . S
C435 H442 0.930 . S
C436 C431 1.395 . S
C436 C433 1.386 . S
C436 H455 0.930 . S
Eu437 N434 2.609 . S
Eu437 N438 2.657 . S
Eu437 O471 2.380 . S
Eu437 O472 2.432 . S
Eu437 O476 2.558 . S
Eu437 O477 2.612 1_655 S
Eu437 O479 2.339 1_655 S
Eu437 O480 2.563 1_655 S
Eu437 O481 2.419 1_655 S
Eu437 C501 2.848 1_655 S
N438 C430 1.362 . S
N438 Eu437 2.657 . S
N438 C439 1.334 . S
C439 N438 1.334 . S
C439 C441 1.413 . S
C439 H446 0.929 . S
C440 C428 1.392 . S
C440 C441 1.367 . S
C440 H448 0.930 . S
C441 C439 1.413 . S
C441 C440 1.367 . S
C441 H443 0.930 . S
H442 C435 0.930 . S
H443 C441 0.930 . S
H444 C432 0.930 . S
H445 C433 0.930 . S
H446 C439 0.929 . S
H447 C461 0.930 . S
H448 C440 0.930 . S
H449 C467 0.930 . S
H450 C458 0.929 . S
H451 C465 0.930 . S
H452 C429 0.931 . S
H453 C459 0.930 . S
H454 C492 0.930 . S
H455 C436 0.930 . S
H456 C491 0.931 . S
N457 Eu426 2.657 . S
N457 C458 1.334 . S
N457 C462 1.362 . S
C458 H450 0.929 . S
C458 N457 1.334 . S
C458 C461 1.413 . S
C459 H453 0.930 . S
C459 C460 1.392 . S
C459 C461 1.367 . S
C460 C459 1.392 . S
C460 C462 1.420 . S
C460 C492 1.423 . S
C461 H447 0.930 . S
C461 C458 1.413 . S
C461 C459 1.367 . S
C462 N457 1.362 . S
C462 C460 1.420 . S
C462 C466 1.429 . S
H463 C468 0.930 . S
N464 Eu426 2.609 . S
N464 C466 1.377 . S
N464 C467 1.321 . S
C465 H451 0.930 . S
C465 C467 1.400 . S
C465 C468 1.386 . S
C466 C462 1.429 . S
C466 N464 1.377 . S
C466 C469 1.411 . S
C467 H449 0.930 . S
C467 N464 1.321 . S
C467 C465 1.400 . S
C468 H463 0.930 . S
C468 C465 1.386 . S
C468 C469 1.395 . S
C469 C466 1.411 . S
C469 C468 1.395 . S
C469 C491 1.420 . S
O470 Eu426 2.558 . S
O470 C490 1.257 . S
O471 Eu426 2.612 1_654 S
O471 Eu437 2.380 . S
O471 C482 1.276 1_554 S
O472 Eu437 2.432 . S
O472 C489 1.255 1_554 S
O473 Eu426 2.339 1_655 S
O473 C489 1.260 . S
O474 Eu426 2.563 1_655 S
O474 C482 1.235 . S
O475 Eu426 2.419 1_655 S
O475 C490 1.249 1_655 S
O476 Eu437 2.558 . S
O476 C501 1.257 1_655 S
O477 Eu426 2.380 1_554 S
O477 Eu437 2.612 1_455 S
O477 C493 1.276 . S
O478 Eu426 2.432 . S
O478 C500 1.264 1_556 S
O479 Eu437 2.339 1_455 S
O479 C500 1.254 . S
O480 Eu437 2.563 1_455 S
O480 C493 1.235 . S
O481 Eu437 2.419 1_455 S
O481 C501 1.249 . S
C482 O471 1.276 1_556 S
C482 O474 1.235 . S
C483 C485 1.393 . S
C483 C487 1.395 1_655 S
C483 C490 1.492 1_655 S
C484 C485 1.392 . S
C484 C486 1.386 . S
C485 C483 1.393 . S
C485 C484 1.392 . S
C485 H502 0.930 . S
C486 C484 1.386 . S
C486 C488 1.395 1_655 S
C486 H503 0.930 . S
C487 C483 1.395 1_455 S
C487 C488 1.379 . S
C487 H504 0.930 . S
C488 C486 1.395 1_455 S
C488 C487 1.379 . S
C488 H505 0.930 . S
C489 O472 1.255 1_556 S
C489 O473 1.260 . S
C490 Eu426 2.848 . S
C490 O470 1.257 . S
C490 O475 1.249 1_455 S
C490 C483 1.492 1_455 S
C491 H456 0.931 . S
C491 C469 1.420 . S
C491 C492 1.351 . S
C492 H454 0.930 . S
C492 C460 1.423 . S
C492 C491 1.351 . S
C493 O477 1.276 . S
C493 O480 1.235 . S
C494 C495 1.393 . S
C494 C498 1.395 1_455 S
C494 C501 1.492 . S
C495 C494 1.393 . S
C495 C496 1.392 . S
C495 H506 0.930 . S
C496 C495 1.392 . S
C496 C497 1.386 . S
C497 C496 1.386 . S
C497 C499 1.395 . S
C497 H507 0.930 . S
C498 C494 1.395 1_655 S
C498 C499 1.379 1_655 S
C498 H508 0.930 . S
C499 C497 1.395 . S
C499 C498 1.379 1_455 S
C499 H509 0.930 1_455 S
C500 O478 1.264 1_554 S
C500 O479 1.254 . S
C501 Eu437 2.848 1_455 S
C501 O476 1.257 1_455 S
C501 O481 1.249 . S
C501 C494 1.492 . S
H502 C485 0.930 . S
H503 C486 0.930 . S
H504 C487 0.930 . S
H505 C488 0.930 . S
H506 C495 0.930 . S
H507 C497 0.930 . S
H508 C498 0.930 . S
H509 C499 0.930 1_655 S
Eu510 N541 2.657 . S
Eu510 N548 2.609 . S
Eu510 O554 2.558 . S
Eu510 O555 2.612 . S
Eu510 O557 2.339 . S
Eu510 O558 2.563 . S
Eu510 O559 2.419 . S
Eu510 O561 2.380 . S
Eu510 O562 2.432 . S
Eu510 C574 2.848 . S
C511 C514 1.429 . S
C511 C515 1.411 . S
C511 N518 1.377 . S
C512 C514 1.420 . S
C512 C516 1.423 . S
C512 C524 1.392 . S
C513 C515 1.420 . S
C513 C516 1.351 . S
C513 H536 0.931 . S
C514 C511 1.429 . S
C514 C512 1.420 . S
C514 N522 1.362 . S
C515 C511 1.411 . S
C515 C513 1.420 . S
C515 C520 1.395 . S
C516 C512 1.423 . S
C516 C513 1.351 . S
C516 H528 0.930 . S
C517 C519 1.400 . S
C517 C520 1.386 . S
C517 H529 0.930 . S
N518 C511 1.377 . S
N518 C519 1.321 . S
N518 Eu521 2.609 . S
C519 C517 1.400 . S
C519 N518 1.321 . S
C519 H526 0.930 . S
C520 C515 1.395 . S
C520 C517 1.386 . S
C520 H539 0.930 . S
Eu521 N518 2.609 . S
Eu521 N522 2.657 . S
Eu521 O555 2.380 1_556 S
Eu521 O556 2.432 . S
Eu521 O560 2.558 . S
Eu521 O561 2.612 1_556 S
Eu521 O563 2.339 . S
Eu521 O564 2.563 . S
Eu521 O565 2.419 . S
Eu521 C585 2.848 . S
N522 C514 1.362 . S
N522 Eu521 2.657 . S
N522 C523 1.334 . S
C523 N522 1.334 . S
C523 C525 1.413 . S
C523 H530 0.929 . S
C524 C512 1.392 . S
C524 C525 1.367 . S
C524 H532 0.930 . S
C525 C523 1.413 . S
C525 C524 1.367 . S
C525 H527 0.930 . S
H526 C519 0.930 . S
H527 C525 0.930 . S
H528 C516 0.930 . S
H529 C517 0.930 . S
H530 C523 0.929 . S
H531 C545 0.930 . S
H532 C524 0.930 . S
H533 C551 0.930 . S
H534 C542 0.929 . S
H535 C549 0.930 . S
H536 C513 0.931 . S
H537 C543 0.930 . S
H538 C576 0.930 . S
H539 C520 0.930 . S
H540 C575 0.931 . S
N541 Eu510 2.657 . S
N541 C542 1.334 . S
N541 C546 1.362 . S
C542 H534 0.929 . S
C542 N541 1.334 . S
C542 C545 1.413 . S
C543 H537 0.930 . S
C543 C544 1.392 . S
C543 C545 1.367 . S
C544 C543 1.392 . S
C544 C546 1.420 . S
C544 C576 1.423 . S
C545 H531 0.930 . S
C545 C542 1.413 . S
C545 C543 1.367 . S
C546 N541 1.362 . S
C546 C544 1.420 . S
C546 C550 1.429 . S
H547 C552 0.930 . S
N548 Eu510 2.609 . S
N548 C550 1.377 . S
N548 C551 1.321 . S
C549 H535 0.930 . S
C549 C551 1.400 . S
C549 C552 1.386 . S
C550 C546 1.429 . S
C550 N548 1.377 . S
C550 C553 1.411 . S
C551 H533 0.930 . S
C551 N548 1.321 . S
C551 C549 1.400 . S
C552 H547 0.930 . S
C552 C549 1.386 . S
C552 C553 1.395 . S
C553 C550 1.411 . S
C553 C552 1.395 . S
C553 C575 1.420 . S
O554 Eu510 2.558 . S
O554 C574 1.257 . S
O555 Eu510 2.612 . S
O555 Eu521 2.380 1_554 S
O555 C566 1.276 . S
O556 Eu521 2.432 . S
O556 C573 1.264 1_556 S
O557 Eu510 2.339 . S
O557 C573 1.254 . S
O558 Eu510 2.563 . S
O558 C566 1.235 . S
O559 Eu510 2.419 . S
O559 C574 1.249 . S
O560 Eu521 2.558 . S
O560 C585 1.257 . S
O561 Eu510 2.380 . S
O561 Eu521 2.612 1_554 S
O561 C577 1.276 1_554 S
O562 Eu510 2.432 . S
O562 C584 1.264 . S
O563 Eu521 2.339 . S
O563 C584 1.254 1_556 S
O564 Eu521 2.563 . S
O564 C577 1.235 . S
O565 Eu521 2.419 . S
O565 C585 1.249 . S
C566 O555 1.276 . S
C566 O558 1.235 . S
C567 C569 1.393 . S
C567 C571 1.395 . S
C567 C574 1.492 . S
C568 C569 1.392 . S
C568 C570 1.386 . S
C569 C567 1.393 . S
C569 C568 1.392 . S
C569 H586 0.930 . S
C570 C568 1.386 . S
C570 C572 1.395 . S
C570 H587 0.930 . S
C571 C567 1.395 . S
C571 C572 1.379 . S
C571 H588 0.930 . S
C572 C570 1.395 . S
C572 C571 1.379 . S
C572 H589 0.930 . S
C573 O556 1.264 1_554 S
C573 O557 1.254 . S
C574 Eu510 2.848 . S
C574 O554 1.257 . S
C574 O559 1.249 . S
C574 C567 1.492 . S
C575 H540 0.931 . S
C575 C553 1.420 . S
C575 C576 1.351 . S
C576 H538 0.930 . S
C576 C544 1.423 . S
C576 C575 1.351 . S
C577 O561 1.276 1_556 S
C577 O564 1.235 . S
C578 C579 1.393 . S
C578 C582 1.395 . S
C578 C585 1.492 . S
C579 C578 1.393 . S
C579 C580 1.392 . S
C579 H590 0.930 . S
C580 C579 1.392 . S
C580 C581 1.386 . S
C581 C580 1.386 . S
C581 C583 1.395 . S
C581 H591 0.930 . S
C582 C578 1.395 . S
C582 C583 1.379 . S
C582 H592 0.930 . S
C583 C581 1.395 . S
C583 C582 1.379 . S
C583 H593 0.930 . S
C584 O562 1.264 . S
C584 O563 1.254 1_554 S
C585 Eu521 2.848 . S
C585 O560 1.257 . S
C585 O565 1.249 . S
C585 C578 1.492 . S
H586 C569 0.930 . S
H587 C570 0.930 . S
H588 C571 0.930 . S
H589 C572 0.930 . S
H590 C579 0.930 . S
H591 C581 0.930 . S
H592 C582 0.930 . S
H593 C583 0.930 . S
Eu594 N625 2.657 . S
Eu594 N632 2.609 . S
Eu594 O638 2.558 . S
Eu594 O639 2.612 . S
Eu594 O641 2.339 . S
Eu594 O642 2.563 . S
Eu594 O643 2.419 . S
Eu594 O645 2.380 . S
Eu594 O646 2.432 . S
Eu594 C658 2.848 . S
C595 C598 1.429 . S
C595 C599 1.411 . S
C595 N602 1.377 . S
C596 C598 1.420 . S
C596 C600 1.423 . S
C596 C608 1.392 . S
C597 C599 1.420 . S
C597 C600 1.351 . S
C597 H620 0.931 . S
C598 C595 1.429 . S
C598 C596 1.420 . S
C598 N606 1.362 . S
C599 C595 1.411 . S
C599 C597 1.420 . S
C599 C604 1.395 . S
C600 C596 1.423 . S
C600 C597 1.351 . S
C600 H612 0.930 . S
C601 C603 1.400 . S
C601 C604 1.386 . S
C601 H613 0.930 . S
N602 C595 1.377 . S
N602 C603 1.321 . S
N602 Eu605 2.609 . S
C603 C601 1.400 . S
C603 N602 1.321 . S
C603 H610 0.930 . S
C604 C599 1.395 . S
C604 C601 1.386 . S
C604 H623 0.930 . S
Eu605 N602 2.609 . S
Eu605 N606 2.657 . S
Eu605 O639 2.380 . S
Eu605 O640 2.432 . S
Eu605 O644 2.558 . S
Eu605 O645 2.612 . S
Eu605 O647 2.339 . S
Eu605 O648 2.563 . S
Eu605 O649 2.419 . S
Eu605 C669 2.848 . S
N606 C598 1.362 . S
N606 Eu605 2.657 . S
N606 C607 1.334 . S
C607 N606 1.334 . S
C607 C609 1.413 . S
C607 H614 0.929 . S
C608 C596 1.392 . S
C608 C609 1.367 . S
C608 H616 0.930 . S
C609 C607 1.413 . S
C609 C608 1.367 . S
C609 H611 0.930 . S
H610 C603 0.930 . S
H611 C609 0.930 . S
H612 C600 0.930 . S
H613 C601 0.930 . S
H614 C607 0.929 . S
H615 C629 0.930 . S
H616 C608 0.930 . S
H617 C635 0.930 . S
H618 C626 0.929 . S
H619 C633 0.930 . S
H620 C597 0.931 . S
H621 C627 0.930 . S
H622 C660 0.930 . S
H623 C604 0.930 . S
H624 C659 0.931 . S
N625 Eu594 2.657 . S
N625 C626 1.334 . S
N625 C630 1.362 . S
C626 H618 0.929 . S
C626 N625 1.334 . S
C626 C629 1.413 1_455 S
C627 H621 0.930 . S
C627 C628 1.392 . S
C627 C629 1.367 . S
C628 C627 1.392 . S
C628 C630 1.420 1_655 S
C628 C660 1.423 . S
C629 H615 0.930 . S
C629 C626 1.413 1_655 S
C629 C627 1.367 . S
C630 N625 1.362 . S
C630 C628 1.420 1_455 S
C630 C634 1.429 . S
H631 C636 0.930 . S
N632 Eu594 2.609 . S
N632 C634 1.377 . S
N632 C635 1.321 . S
C633 H619 0.930 . S
C633 C635 1.400 . S
C633 C636 1.386 . S
C634 C630 1.429 . S
C634 N632 1.377 . S
C634 C637 1.411 . S
C635 H617 0.930 . S
C635 N632 1.321 . S
C635 C633 1.400 . S
C636 H631 0.930 . S
C636 C633 1.386 . S
C636 C637 1.395 . S
C637 C634 1.411 . S
C637 C636 1.395 . S
C637 C659 1.420 1_455 S
O638 Eu594 2.558 . S
O638 C658 1.257 . S
O639 Eu594 2.612 . S
O639 Eu605 2.380 . S
O639 C650 1.276 . S
O640 Eu605 2.432 . S
O640 C657 1.264 . S
O641 Eu594 2.339 . S
O641 C657 1.254 . S
O642 Eu594 2.563 . S
O642 C650 1.235 . S
O643 Eu594 2.419 . S
O643 C658 1.249 . S
O644 Eu605 2.558 . S
O644 C669 1.257 . S
O645 Eu594 2.380 . S
O645 Eu605 2.612 . S
O645 C661 1.276 . S
O646 Eu594 2.432 . S
O646 C668 1.264 . S
O647 Eu605 2.339 . S
O647 C668 1.254 . S
O648 Eu605 2.563 . S
O648 C661 1.235 . S
O649 Eu605 2.419 . S
O649 C669 1.249 . S
C650 O639 1.276 . S
C650 O642 1.235 . S
C651 C653 1.393 . S
C651 C655 1.395 . S
C651 C658 1.492 . S
C652 C653 1.392 . S
C652 C654 1.386 . S
C653 C651 1.393 . S
C653 C652 1.392 . S
C653 H670 0.930 . S
C654 C652 1.386 . S
C654 C656 1.395 . S
C654 H671 0.930 . S
C655 C651 1.395 . S
C655 C656 1.379 . S
C655 H672 0.930 . S
C656 C654 1.395 . S
C656 C655 1.379 . S
C656 H673 0.930 . S
C657 O640 1.264 . S
C657 O641 1.254 . S
C658 Eu594 2.848 . S
C658 O638 1.257 . S
C658 O643 1.249 . S
C658 C651 1.492 . S
C659 H624 0.931 . S
C659 C637 1.420 1_655 S
C659 C660 1.351 . S
C660 H622 0.930 . S
C660 C628 1.423 . S
C660 C659 1.351 . S
C661 O645 1.276 . S
C661 O648 1.235 . S
C662 C663 1.393 . S
C662 C666 1.395 . S
C662 C669 1.492 . S
C663 C662 1.393 . S
C663 C664 1.392 . S
C663 H674 0.930 . S
C664 C663 1.392 . S
C664 C665 1.386 . S
C665 C664 1.386 . S
C665 C667 1.395 . S
C665 H675 0.930 . S
C666 C662 1.395 . S
C666 C667 1.379 . S
C666 H676 0.930 . S
C667 C665 1.395 . S
C667 C666 1.379 . S
C667 H677 0.930 . S
C668 O646 1.264 . S
C668 O647 1.254 . S
C669 Eu605 2.848 . S
C669 O644 1.257 . S
C669 O649 1.249 . S
C669 C662 1.492 . S
H670 C653 0.930 . S
H671 C654 0.930 . S
H672 C655 0.930 . S
H673 C656 0.930 . S
H674 C663 0.930 . S
H675 C665 0.930 . S
H676 C666 0.930 . S
H677 C667 0.930 . S
Eu678 N709 2.657 . S
Eu678 N716 2.609 . S
Eu678 O722 2.558 . S
Eu678 O723 2.612 . S
Eu678 O725 2.339 . S
Eu678 O726 2.563 . S
Eu678 O727 2.419 . S
Eu678 O729 2.380 . S
Eu678 O730 2.432 . S
Eu678 C742 2.848 . S
C679 C682 1.429 . S
C679 C683 1.411 . S
C679 N686 1.377 . S
C680 C682 1.420 . S
C680 C684 1.423 . S
C680 C692 1.392 . S
C681 C683 1.420 . S
C681 C684 1.351 . S
C681 H704 0.931 . S
C682 C679 1.429 . S
C682 C680 1.420 . S
C682 N690 1.362 . S
C683 C679 1.411 . S
C683 C681 1.420 . S
C683 C688 1.395 . S
C684 C680 1.423 . S
C684 C681 1.351 . S
C684 H696 0.930 . S
C685 C687 1.400 . S
C685 C688 1.386 . S
C685 H697 0.930 . S
N686 C679 1.377 . S
N686 C687 1.321 . S
N686 Eu689 2.609 . S
C687 C685 1.400 . S
C687 N686 1.321 . S
C687 H694 0.930 . S
C688 C683 1.395 . S
C688 C685 1.386 . S
C688 H707 0.930 . S
Eu689 N686 2.609 . S
Eu689 N690 2.657 . S
Eu689 O723 2.380 . S
Eu689 O724 2.432 . S
Eu689 O728 2.558 . S
Eu689 O729 2.612 . S
Eu689 O731 2.339 . S
Eu689 O732 2.563 . S
Eu689 O733 2.419 . S
Eu689 C753 2.848 . S
N690 C682 1.362 . S
N690 Eu689 2.657 . S
N690 C691 1.334 . S
C691 N690 1.334 . S
C691 C693 1.413 . S
C691 H698 0.929 . S
C692 C680 1.392 . S
C692 C693 1.367 . S
C692 H700 0.930 . S
C693 C691 1.413 . S
C693 C692 1.367 . S
C693 H695 0.930 . S
H694 C687 0.930 . S
H695 C693 0.930 . S
H696 C684 0.930 . S
H697 C685 0.930 . S
H698 C691 0.929 . S
H699 C713 0.930 . S
H700 C692 0.930 . S
H701 C719 0.930 . S
H702 C710 0.929 . S
H703 C717 0.930 . S
H704 C681 0.931 . S
H705 C711 0.930 . S
H706 C744 0.930 . S
H707 C688 0.930 . S
H708 C743 0.931 . S
N709 Eu678 2.657 . S
N709 C710 1.334 . S
N709 C714 1.362 . S
C710 H702 0.929 . S
C710 N709 1.334 . S
C710 C713 1.413 . S
C711 H705 0.930 . S
C711 C712 1.392 . S
C711 C713 1.367 . S
C712 C711 1.392 . S
C712 C714 1.420 . S
C712 C744 1.423 . S
C713 H699 0.930 . S
C713 C710 1.413 . S
C713 C711 1.367 . S
C714 N709 1.362 . S
C714 C712 1.420 . S
C714 C718 1.429 . S
H715 C720 0.930 . S
N716 Eu678 2.609 . S
N716 C718 1.377 . S
N716 C719 1.321 . S
C717 H703 0.930 . S
C717 C719 1.400 . S
C717 C720 1.386 . S
C718 C714 1.429 . S
C718 N716 1.377 . S
C718 C721 1.411 . S
C719 H701 0.930 . S
C719 N716 1.321 . S
C719 C717 1.400 . S
C720 H715 0.930 . S
C720 C717 1.386 . S
C720 C721 1.395 . S
C721 C718 1.411 . S
C721 C720 1.395 . S
C721 C743 1.420 . S
O722 Eu678 2.558 . S
O722 C742 1.257 . S
O723 Eu678 2.612 . S
O723 Eu689 2.380 . S
O723 C734 1.276 . S
O724 Eu689 2.432 . S
O724 C741 1.264 . S
O725 Eu678 2.339 . S
O725 C741 1.254 . S
O726 Eu678 2.563 . S
O726 C734 1.235 . S
O727 Eu678 2.419 . S
O727 C742 1.249 . S
O728 Eu689 2.558 . S
O728 C753 1.257 . S
O729 Eu678 2.380 . S
O729 Eu689 2.612 . S
O729 C745 1.276 . S
O730 Eu678 2.432 . S
O730 C752 1.264 . S
O731 Eu689 2.339 . S
O731 C752 1.254 . S
O732 Eu689 2.563 . S
O732 C745 1.235 . S
O733 Eu689 2.419 . S
O733 C753 1.249 . S
C734 O723 1.276 . S
C734 O726 1.235 . S
C735 C737 1.393 . S
C735 C739 1.395 . S
C735 C742 1.492 . S
C736 C737 1.392 . S
C736 C738 1.386 . S
C737 C735 1.393 . S
C737 C736 1.392 . S
C737 H754 0.930 . S
C738 C736 1.386 . S
C738 C740 1.395 . S
C738 H755 0.930 . S
C739 C735 1.395 . S
C739 C740 1.379 . S
C739 H756 0.930 . S
C740 C738 1.395 . S
C740 C739 1.379 . S
C740 H757 0.930 . S
C741 O724 1.264 . S
C741 O725 1.254 . S
C742 Eu678 2.848 . S
C742 O722 1.257 . S
C742 O727 1.249 . S
C742 C735 1.492 . S
C743 H708 0.931 . S
C743 C721 1.420 . S
C743 C744 1.351 . S
C744 H706 0.930 . S
C744 C712 1.423 . S
C744 C743 1.351 . S
C745 O729 1.276 . S
C745 O732 1.235 . S
C746 C747 1.393 . S
C746 C750 1.395 . S
C746 C753 1.492 . S
C747 C746 1.393 . S
C747 C748 1.392 . S
C747 H758 0.930 . S
C748 C747 1.392 . S
C748 C749 1.386 . S
C749 C748 1.386 . S
C749 C751 1.395 . S
C749 H759 0.930 . S
C750 C746 1.395 . S
C750 C751 1.379 . S
C750 H760 0.930 . S
C751 C749 1.395 . S
C751 C750 1.379 . S
C751 H761 0.930 . S
C752 O730 1.264 . S
C752 O731 1.254 . S
C753 Eu689 2.848 . S
C753 O728 1.257 . S
C753 O733 1.249 . S
C753 C746 1.492 . S
H754 C737 0.930 . S
H755 C738 0.930 . S
H756 C739 0.930 . S
H757 C740 0.930 . S
H758 C747 0.930 . S
H759 C749 0.930 . S
H760 C750 0.930 . S
H761 C751 0.930 . S
Eu762 N793 2.657 . S
Eu762 N800 2.609 . S
Eu762 O806 2.558 . S
Eu762 O807 2.612 . S
Eu762 O809 2.339 . S
Eu762 O810 2.563 . S
Eu762 O811 2.419 . S
Eu762 O813 2.380 . S
Eu762 O814 2.432 . S
Eu762 C826 2.848 . S
C763 C766 1.429 . S
C763 C767 1.411 . S
C763 N770 1.377 . S
C764 C766 1.420 . S
C764 C768 1.423 . S
C764 C776 1.392 . S
C765 C767 1.420 . S
C765 C768 1.351 . S
C765 H788 0.931 . S
C766 C763 1.429 . S
C766 C764 1.420 . S
C766 N774 1.362 . S
C767 C763 1.411 . S
C767 C765 1.420 . S
C767 C772 1.395 . S
C768 C764 1.423 . S
C768 C765 1.351 . S
C768 H780 0.930 . S
C769 C771 1.400 . S
C769 C772 1.386 . S
C769 H781 0.924 1_565 S
N770 C763 1.377 . S
N770 C771 1.321 . S
N770 Eu773 2.609 . S
C771 C769 1.400 . S
C771 N770 1.321 . S
C771 H778 0.930 . S
C772 C767 1.395 . S
C772 C769 1.386 . S
C772 H791 0.930 . S
Eu773 N770 2.609 . S
Eu773 N774 2.657 . S
Eu773 O807 2.380 . S
Eu773 O808 2.432 . S
Eu773 O812 2.558 . S
Eu773 O813 2.612 . S
Eu773 O815 2.339 . S
Eu773 O816 2.563 . S
Eu773 O817 2.419 . S
Eu773 C837 2.848 . S
N774 C766 1.362 . S
N774 Eu773 2.657 . S
N774 C775 1.334 . S
C775 N774 1.334 . S
C775 C777 1.413 . S
C775 H782 0.929 . S
C776 C764 1.392 . S
C776 C777 1.367 . S
C776 H784 0.930 . S
C777 C775 1.413 . S
C777 C776 1.367 . S
C777 H779 0.930 . S
H778 C771 0.930 . S
H779 C777 0.930 . S
H780 C768 0.930 . S
H781 C769 0.924 1_545 S
H782 C775 0.929 . S
H783 C797 0.930 . S
H784 C776 0.930 . S
H785 C803 0.930 . S
H786 C794 0.929 . S
H787 C801 0.930 . S
H788 C765 0.931 . S
H789 C795 0.930 . S
H790 C828 0.930 . S
H791 C772 0.930 . S
H792 C827 0.931 . S
N793 Eu762 2.657 . S
N793 C794 1.334 . S
N793 C798 1.362 . S
C794 H786 0.929 . S
C794 N793 1.334 . S
C794 C797 1.413 . S
C795 H789 0.930 . S
C795 C796 1.392 . S
C795 C797 1.367 . S
C796 C795 1.392 . S
C796 C798 1.420 . S
C796 C828 1.423 . S
C797 H783 0.930 . S
C797 C794 1.413 . S
C797 C795 1.367 . S
C798 N793 1.362 . S
C798 C796 1.420 . S
C798 C802 1.429 . S
H799 C804 0.930 . S
N800 Eu762 2.609 . S
N800 C802 1.377 . S
N800 C803 1.321 . S
C801 H787 0.930 . S
C801 C803 1.400 . S
C801 C804 1.386 . S
C802 C798 1.429 . S
C802 N800 1.377 . S
C802 C805 1.411 . S
C803 H785 0.930 . S
C803 N800 1.321 . S
C803 C801 1.400 . S
C804 H799 0.930 . S
C804 C801 1.386 . S
C804 C805 1.395 . S
C805 C802 1.411 . S
C805 C804 1.395 . S
C805 C827 1.420 . S
O806 Eu762 2.558 . S
O806 C826 1.257 . S
O807 Eu762 2.612 . S
O807 Eu773 2.380 . S
O807 C818 1.276 . S
O808 Eu773 2.432 . S
O808 C825 1.264 . S
O809 Eu762 2.339 . S
O809 C825 1.254 . S
O810 Eu762 2.563 . S
O810 C818 1.235 . S
O811 Eu762 2.419 . S
O811 C826 1.249 . S
O812 Eu773 2.558 . S
O812 C837 1.257 . S
O813 Eu762 2.380 . S
O813 Eu773 2.612 . S
O813 C829 1.276 . S
O814 Eu762 2.432 . S
O814 C836 1.264 . S
O815 Eu773 2.339 . S
O815 C836 1.254 . S
O816 Eu773 2.563 . S
O816 C829 1.235 . S
O817 Eu773 2.419 . S
O817 C837 1.249 . S
C818 O807 1.276 . S
C818 O810 1.235 . S
C819 C821 1.393 . S
C819 C823 1.395 . S
C819 C826 1.492 . S
C820 C821 1.392 . S
C820 C822 1.386 . S
C821 C819 1.393 . S
C821 C820 1.392 . S
C821 H838 0.930 . S
C822 C820 1.386 . S
C822 C824 1.395 . S
C822 H839 0.930 . S
C823 C819 1.395 . S
C823 C824 1.379 . S
C823 H840 0.930 . S
C824 C822 1.395 . S
C824 C823 1.379 . S
C824 H841 0.930 . S
C825 O808 1.264 . S
C825 O809 1.254 . S
C826 Eu762 2.848 . S
C826 O806 1.257 . S
C826 O811 1.249 . S
C826 C819 1.492 . S
C827 H792 0.931 . S
C827 C805 1.420 . S
C827 C828 1.351 . S
C828 H790 0.930 . S
C828 C796 1.423 . S
C828 C827 1.351 . S
C829 O813 1.276 . S
C829 O816 1.235 . S
C830 C831 1.393 . S
C830 C834 1.395 . S
C830 C837 1.492 . S
C831 C830 1.393 . S
C831 C832 1.392 . S
C831 H842 0.930 . S
C832 C831 1.392 . S
C832 C833 1.386 . S
C833 C832 1.386 . S
C833 C835 1.395 . S
C833 H843 0.930 . S
C834 C830 1.395 . S
C834 C835 1.379 . S
C834 H844 0.930 . S
C835 C833 1.395 . S
C835 C834 1.379 . S
C835 H845 0.930 . S
C836 O814 1.264 . S
C836 O815 1.254 . S
C837 Eu773 2.848 . S
C837 O812 1.257 . S
C837 O817 1.249 . S
C837 C830 1.492 . S
H838 C821 0.930 . S
H839 C822 0.930 . S
H840 C823 0.930 . S
H841 C824 0.930 . S
H842 C831 0.930 . S
H843 C833 0.930 . S
H844 C834 0.930 . S
H845 C835 0.930 . S
Eu846 N877 2.657 . S
Eu846 N884 2.609 . S
Eu846 O890 2.558 . S
Eu846 O891 2.612 . S
Eu846 O893 2.339 . S
Eu846 O894 2.563 . S
Eu846 O895 2.419 . S
Eu846 O897 2.380 . S
Eu846 O898 2.432 . S
Eu846 C910 2.848 . S
C847 C850 1.429 . S
C847 C851 1.411 . S
C847 N854 1.377 . S
C848 C850 1.420 . S
C848 C852 1.423 . S
C848 C860 1.392 . S
C849 C851 1.420 . S
C849 C852 1.351 . S
C849 H872 0.931 . S
C850 C847 1.429 . S
C850 C848 1.420 . S
C850 N858 1.362 . S
C851 C847 1.411 . S
C851 C849 1.420 . S
C851 C856 1.395 . S
C852 C848 1.423 . S
C852 C849 1.351 . S
C852 H864 0.930 . S
C853 C855 1.400 . S
C853 C856 1.386 . S
C853 H865 0.930 . S
N854 C847 1.377 . S
N854 C855 1.321 . S
N854 Eu857 2.609 . S
C855 C853 1.400 . S
C855 N854 1.321 . S
C855 H862 0.930 . S
C856 C851 1.395 . S
C856 C853 1.386 . S
C856 H875 0.930 . S
Eu857 N854 2.609 . S
Eu857 N858 2.657 . S
Eu857 O891 2.380 . S
Eu857 O892 2.432 . S
Eu857 O896 2.558 . S
Eu857 O897 2.612 . S
Eu857 O899 2.339 . S
Eu857 O900 2.563 . S
Eu857 O901 2.419 . S
Eu857 C921 2.848 . S
N858 C850 1.362 . S
N858 Eu857 2.657 . S
N858 C859 1.334 . S
C859 N858 1.334 . S
C859 C861 1.413 . S
C859 H866 0.929 . S
C860 C848 1.392 . S
C860 C861 1.367 . S
C860 H868 0.930 . S
C861 C859 1.413 . S
C861 C860 1.367 . S
C861 H863 0.930 . S
H862 C855 0.930 . S
H863 C861 0.930 . S
H864 C852 0.930 . S
H865 C853 0.930 . S
H866 C859 0.929 . S
H867 C881 0.930 . S
H868 C860 0.930 . S
H869 C887 0.930 . S
H870 C878 0.929 . S
H871 C885 0.930 . S
H872 C849 0.931 . S
H873 C879 0.930 . S
H874 C912 0.930 . S
H875 C856 0.930 . S
H876 C911 0.931 . S
N877 Eu846 2.657 . S
N877 C878 1.334 . S
N877 C882 1.362 . S
C878 H870 0.929 . S
C878 N877 1.334 . S
C878 C881 1.413 . S
C879 H873 0.930 . S
C879 C880 1.392 . S
C879 C881 1.367 . S
C880 C879 1.392 . S
C880 C882 1.420 . S
C880 C912 1.423 . S
C881 H867 0.930 . S
C881 C878 1.413 . S
C881 C879 1.367 . S
C882 N877 1.362 . S
C882 C880 1.420 . S
C882 C886 1.429 . S
H883 C888 0.930 . S
N884 Eu846 2.609 . S
N884 C886 1.377 . S
N884 C887 1.321 . S
C885 H871 0.930 . S
C885 C887 1.400 . S
C885 C888 1.386 . S
C886 C882 1.429 . S
C886 N884 1.377 . S
C886 C889 1.411 . S
C887 H869 0.930 . S
C887 N884 1.321 . S
C887 C885 1.400 . S
C888 H883 0.930 . S
C888 C885 1.386 . S
C888 C889 1.395 . S
C889 C886 1.411 . S
C889 C888 1.395 . S
C889 C911 1.420 . S
O890 Eu846 2.558 . S
O890 C910 1.257 . S
O891 Eu846 2.612 . S
O891 Eu857 2.380 . S
O891 C902 1.276 . S
O892 Eu857 2.432 . S
O892 C909 1.264 . S
O893 Eu846 2.339 . S
O893 C909 1.254 . S
O894 Eu846 2.563 . S
O894 C902 1.235 . S
O895 Eu846 2.419 . S
O895 C910 1.249 . S
O896 Eu857 2.558 . S
O896 C921 1.257 . S
O897 Eu846 2.380 . S
O897 Eu857 2.612 . S
O897 C913 1.276 . S
O898 Eu846 2.432 . S
O898 C920 1.264 . S
O899 Eu857 2.339 . S
O899 C920 1.254 . S
O900 Eu857 2.563 . S
O900 C913 1.235 . S
O901 Eu857 2.419 . S
O901 C921 1.249 . S
C902 O891 1.276 . S
C902 O894 1.235 . S
C903 C905 1.393 . S
C903 C907 1.395 . S
C903 C910 1.492 . S
C904 C905 1.392 . S
C904 C906 1.386 . S
C905 C903 1.393 . S
C905 C904 1.392 . S
C905 H922 0.930 . S
C906 C904 1.386 . S
C906 C908 1.395 . S
C906 H923 0.930 . S
C907 C903 1.395 . S
C907 C908 1.379 . S
C907 H924 0.930 . S
C908 C906 1.395 . S
C908 C907 1.379 . S
C908 H925 0.930 . S
C909 O892 1.264 . S
C909 O893 1.254 . S
C910 Eu846 2.848 . S
C910 O890 1.257 . S
C910 O895 1.249 . S
C910 C903 1.492 . S
C911 H876 0.931 . S
C911 C889 1.420 . S
C911 C912 1.351 . S
C912 H874 0.930 . S
C912 C880 1.423 . S
C912 C911 1.351 . S
C913 O897 1.276 . S
C913 O900 1.235 . S
C914 C915 1.393 . S
C914 C918 1.395 . S
C914 C921 1.492 . S
C915 C914 1.393 . S
C915 C916 1.392 . S
C915 H926 0.930 . S
C916 C915 1.392 . S
C916 C917 1.386 . S
C917 C916 1.386 . S
C917 C919 1.395 . S
C917 H927 0.930 . S
C918 C914 1.395 . S
C918 C919 1.379 . S
C918 H928 0.930 . S
C919 C917 1.395 . S
C919 C918 1.379 . S
C919 H929 0.930 . S
C920 O898 1.264 . S
C920 O899 1.254 . S
C921 Eu857 2.848 . S
C921 O896 1.257 . S
C921 O901 1.249 . S
C921 C914 1.492 . S
H922 C905 0.930 . S
H923 C906 0.930 . S
H924 C907 0.930 . S
H925 C908 0.930 . S
H926 C915 0.930 . S
H927 C917 0.930 . S
H928 C918 0.930 . S
H929 C919 0.930 . S
Eu930 N961 2.657 . S
Eu930 N968 2.609 . S
Eu930 O974 2.558 . S
Eu930 O975 2.612 . S
Eu930 O977 2.339 . S
Eu930 O978 2.563 . S
Eu930 O979 2.419 . S
Eu930 O981 2.380 . S
Eu930 O982 2.432 . S
Eu930 C994 2.848 . S
C931 C934 1.429 . S
C931 C935 1.411 . S
C931 N938 1.377 . S
C932 C934 1.420 . S
C932 C936 1.423 . S
C932 C944 1.392 . S
C933 C935 1.420 . S
C933 C936 1.351 . S
C933 H956 0.931 . S
C934 C931 1.429 . S
C934 C932 1.420 . S
C934 N942 1.362 . S
C935 C931 1.411 . S
C935 C933 1.420 . S
C935 C940 1.395 . S
C936 C932 1.423 . S
C936 C933 1.351 . S
C936 H948 0.930 . S
C937 C939 1.400 . S
C937 C940 1.386 . S
C937 H949 0.930 . S
N938 C931 1.377 . S
N938 C939 1.321 . S
N938 Eu941 2.609 . S
C939 C937 1.400 . S
C939 N938 1.321 . S
C939 H946 0.930 . S
C940 C935 1.395 . S
C940 C937 1.386 . S
C940 H959 0.930 . S
Eu941 N938 2.609 . S
Eu941 N942 2.657 . S
Eu941 O975 2.380 . S
Eu941 O976 2.432 . S
Eu941 O980 2.558 . S
Eu941 O981 2.612 . S
Eu941 O983 2.339 . S
Eu941 O984 2.563 . S
Eu941 O985 2.419 . S
Eu941 C1005 2.848 . S
N942 C934 1.362 . S
N942 Eu941 2.657 . S
N942 C943 1.334 . S
C943 N942 1.334 . S
C943 C945 1.413 . S
C943 H950 0.929 . S
C944 C932 1.392 . S
C944 C945 1.367 . S
C944 H952 0.930 . S
C945 C943 1.413 . S
C945 C944 1.367 . S
C945 H947 0.930 . S
H946 C939 0.930 . S
H947 C945 0.930 . S
H948 C936 0.930 . S
H949 C937 0.930 . S
H950 C943 0.929 . S
H951 C965 0.930 . S
H952 C944 0.930 . S
H953 C971 0.930 . S
H954 C962 0.929 . S
H955 C969 0.930 . S
H956 C933 0.931 . S
H957 C963 0.930 . S
H958 C996 0.930 . S
H959 C940 0.930 . S
H960 C995 0.931 . S
N961 Eu930 2.657 . S
N961 C962 1.334 . S
N961 C966 1.362 . S
C962 H954 0.929 . S
C962 N961 1.334 . S
C962 C965 1.413 . S
C963 H957 0.930 . S
C963 C964 1.392 . S
C963 C965 1.367 . S
C964 C963 1.392 . S
C964 C966 1.420 . S
C964 C996 1.423 . S
C965 H951 0.930 . S
C965 C962 1.413 . S
C965 C963 1.367 . S
C966 N961 1.362 . S
C966 C964 1.420 . S
C966 C970 1.429 . S
H967 C972 0.930 . S
N968 Eu930 2.609 . S
N968 C970 1.377 . S
N968 C971 1.321 . S
C969 H955 0.930 . S
C969 C971 1.400 . S
C969 C972 1.386 . S
C970 C966 1.429 . S
C970 N968 1.377 . S
C970 C973 1.411 . S
C971 H953 0.930 . S
C971 N968 1.321 . S
C971 C969 1.400 . S
C972 H967 0.930 . S
C972 C969 1.386 . S
C972 C973 1.395 . S
C973 C970 1.411 . S
C973 C972 1.395 . S
C973 C995 1.420 . S
O974 Eu930 2.558 . S
O974 C994 1.257 . S
O975 Eu930 2.612 . S
O975 Eu941 2.380 . S
O975 C986 1.276 . S
O976 Eu941 2.432 . S
O976 C993 1.264 . S
O977 Eu930 2.339 . S
O977 C993 1.254 . S
O978 Eu930 2.563 . S
O978 C986 1.235 . S
O979 Eu930 2.419 . S
O979 C994 1.249 . S
O980 Eu941 2.558 . S
O980 C1005 1.257 . S
O981 Eu930 2.380 . S
O981 Eu941 2.612 . S
O981 C997 1.276 . S
O982 Eu930 2.432 . S
O982 C1004 1.264 . S
O983 Eu941 2.339 . S
O983 C1004 1.254 . S
O984 Eu941 2.563 . S
O984 C997 1.235 . S
O985 Eu941 2.419 . S
O985 C1005 1.249 . S
C986 O975 1.276 . S
C986 O978 1.235 . S
C987 C989 1.393 . S
C987 C991 1.395 . S
C987 C994 1.492 . S
C988 C989 1.392 . S
C988 C990 1.386 . S
C989 C987 1.393 . S
C989 C988 1.392 . S
C989 H1006 0.930 . S
C990 C988 1.386 . S
C990 C992 1.395 . S
C990 H1007 0.930 . S
C991 C987 1.395 . S
C991 C992 1.379 . S
C991 H1008 0.930 . S
C992 C990 1.395 . S
C992 C991 1.379 . S
C992 H1009 0.930 . S
C993 O976 1.264 . S
C993 O977 1.254 . S
C994 Eu930 2.848 . S
C994 O974 1.257 . S
C994 O979 1.249 . S
C994 C987 1.492 . S
C995 H960 0.931 . S
C995 C973 1.420 . S
C995 C996 1.351 . S
C996 H958 0.930 . S
C996 C964 1.423 . S
C996 C995 1.351 . S
C997 O981 1.276 . S
C997 O984 1.235 . S
C998 C999 1.393 . S
C998 C1002 1.395 . S
C998 C1005 1.492 . S
C999 C998 1.393 . S
C999 C1000 1.392 . S
C999 H1010 0.930 . S
C1000 C999 1.392 . S
C1000 C1001 1.386 . S
C1001 C1000 1.386 . S
C1001 C1003 1.395 . S
C1001 H1011 0.930 . S
C1002 C998 1.395 . S
C1002 C1003 1.379 . S
C1002 H1012 0.930 . S
C1003 C1001 1.395 . S
C1003 C1002 1.379 . S
C1003 H1013 0.930 . S
C1004 O982 1.264 . S
C1004 O983 1.254 . S
C1005 Eu941 2.848 . S
C1005 O980 1.257 . S
C1005 O985 1.249 . S
C1005 C998 1.492 . S
H1006 C989 0.930 . S
H1007 C990 0.930 . S
H1008 C991 0.930 . S
H1009 C992 0.930 . S
H1010 C999 0.930 . S
H1011 C1001 0.930 . S
H1012 C1002 0.930 . S
H1013 C1003 0.930 . S
Eu1014 N1045 2.657 . S
Eu1014 N1052 2.609 . S
Eu1014 O1058 2.558 . S
Eu1014 O1059 2.612 . S
Eu1014 O1061 2.339 . S
Eu1014 O1062 2.563 . S
Eu1014 O1063 2.419 . S
Eu1014 O1065 2.380 . S
Eu1014 O1066 2.432 . S
Eu1014 C1078 2.848 . S
C1015 C1018 1.429 . S
C1015 C1019 1.411 . S
C1015 N1022 1.377 . S
C1016 C1018 1.420 . S
C1016 C1020 1.423 . S
C1016 C1028 1.392 . S
C1017 C1019 1.420 . S
C1017 C1020 1.351 . S
C1017 H1040 0.931 . S
C1018 C1015 1.429 . S
C1018 C1016 1.420 . S
C1018 N1026 1.362 . S
C1019 C1015 1.411 . S
C1019 C1017 1.420 . S
C1019 C1024 1.395 . S
C1020 C1016 1.423 . S
C1020 C1017 1.351 . S
C1020 H1032 0.930 . S
C1021 C1023 1.400 . S
C1021 C1024 1.386 . S
C1021 H1033 0.930 . S
N1022 C1015 1.377 . S
N1022 C1023 1.321 . S
N1022 Eu1025 2.609 . S
C1023 C1021 1.400 . S
C1023 N1022 1.321 . S
C1023 H1030 0.930 . S
C1024 C1019 1.395 . S
C1024 C1021 1.386 . S
C1024 H1043 0.930 . S
Eu1025 N1022 2.609 . S
Eu1025 N1026 2.657 . S
Eu1025 O1059 2.380 . S
Eu1025 O1060 2.432 . S
Eu1025 O1064 2.558 . S
Eu1025 O1065 2.612 . S
Eu1025 O1067 2.339 . S
Eu1025 O1068 2.563 . S
Eu1025 O1069 2.419 . S
Eu1025 C1089 2.848 . S
N1026 C1018 1.362 . S
N1026 Eu1025 2.657 . S
N1026 C1027 1.334 . S
C1027 N1026 1.334 . S
C1027 C1029 1.413 . S
C1027 H1034 0.929 . S
C1028 C1016 1.392 . S
C1028 C1029 1.367 . S
C1028 H1036 0.930 . S
C1029 C1027 1.413 . S
C1029 C1028 1.367 . S
C1029 H1031 0.930 . S
H1030 C1023 0.930 . S
H1031 C1029 0.930 . S
H1032 C1020 0.930 . S
H1033 C1021 0.930 . S
H1034 C1027 0.929 . S
H1035 C1049 0.930 . S
H1036 C1028 0.930 . S
H1037 C1055 0.930 . S
H1038 C1046 0.929 . S
H1039 C1053 0.930 . S
H1040 C1017 0.931 . S
H1041 C1047 0.930 . S
H1042 C1080 0.930 . S
H1043 C1024 0.930 . S
H1044 C1079 0.931 . S
N1045 Eu1014 2.657 . S
N1045 C1046 1.334 . S
N1045 C1050 1.362 . S
C1046 H1038 0.929 . S
C1046 N1045 1.334 . S
C1046 C1049 1.413 1_655 S
C1047 H1041 0.930 . S
C1047 C1048 1.392 . S
C1047 C1049 1.367 . S
C1048 C1047 1.392 . S
C1048 C1050 1.420 1_455 S
C1048 C1080 1.423 . S
C1049 H1035 0.930 . S
C1049 C1046 1.413 1_455 S
C1049 C1047 1.367 . S
C1050 N1045 1.362 . S
C1050 C1048 1.420 1_655 S
C1050 C1054 1.429 . S
H1051 C1056 0.930 . S
N1052 Eu1014 2.609 . S
N1052 C1054 1.377 . S
N1052 C1055 1.321 . S
C1053 H1039 0.930 . S
C1053 C1055 1.400 . S
C1053 C1056 1.386 . S
C1054 C1050 1.429 . S
C1054 N1052 1.377 . S
C1054 C1057 1.411 . S
C1055 H1037 0.930 . S
C1055 N1052 1.321 . S
C1055 C1053 1.400 . S
C1056 H1051 0.930 . S
C1056 C1053 1.386 . S
C1056 C1057 1.395 . S
C1057 C1054 1.411 . S
C1057 C1056 1.395 . S
C1057 C1079 1.420 1_655 S
O1058 Eu1014 2.558 . S
O1058 C1078 1.257 . S
O1059 Eu1014 2.612 . S
O1059 Eu1025 2.380 . S
O1059 C1070 1.276 . S
O1060 Eu1025 2.432 . S
O1060 C1077 1.264 . S
O1061 Eu1014 2.339 . S
O1061 C1077 1.254 . S
O1062 Eu1014 2.563 . S
O1062 C1070 1.235 . S
O1063 Eu1014 2.419 . S
O1063 C1078 1.249 . S
O1064 Eu1025 2.558 . S
O1064 C1089 1.257 . S
O1065 Eu1014 2.380 . S
O1065 Eu1025 2.612 . S
O1065 C1081 1.276 . S
O1066 Eu1014 2.432 . S
O1066 C1088 1.264 . S
O1067 Eu1025 2.339 . S
O1067 C1088 1.254 . S
O1068 Eu1025 2.563 . S
O1068 C1081 1.235 . S
O1069 Eu1025 2.419 . S
O1069 C1089 1.249 . S
C1070 O1059 1.276 . S
C1070 O1062 1.235 . S
C1071 C1073 1.393 . S
C1071 C1075 1.395 . S
C1071 C1078 1.492 . S
C1072 C1073 1.392 . S
C1072 C1074 1.386 . S
C1073 C1071 1.393 . S
C1073 C1072 1.392 . S
C1073 H1090 0.930 . S
C1074 C1072 1.386 . S
C1074 C1076 1.395 . S
C1074 H1091 0.930 . S
C1075 C1071 1.395 . S
C1075 C1076 1.379 . S
C1075 H1092 0.930 . S
C1076 C1074 1.395 . S
C1076 C1075 1.379 . S
C1076 H1093 0.930 . S
C1077 O1060 1.264 . S
C1077 O1061 1.254 . S
C1078 Eu1014 2.848 . S
C1078 O1058 1.257 . S
C1078 O1063 1.249 . S
C1078 C1071 1.492 . S
C1079 H1044 0.931 . S
C1079 C1057 1.420 1_455 S
C1079 C1080 1.351 . S
C1080 H1042 0.930 . S
C1080 C1048 1.423 . S
C1080 C1079 1.351 . S
C1081 O1065 1.276 . S
C1081 O1068 1.235 . S
C1082 C1083 1.393 . S
C1082 C1086 1.395 . S
C1082 C1089 1.492 . S
C1083 C1082 1.393 . S
C1083 C1084 1.392 . S
C1083 H1094 0.930 . S
C1084 C1083 1.392 . S
C1084 C1085 1.386 . S
C1085 C1084 1.386 . S
C1085 C1087 1.395 . S
C1085 H1095 0.930 . S
C1086 C1082 1.395 . S
C1086 C1087 1.379 . S
C1086 H1096 0.930 . S
C1087 C1085 1.395 . S
C1087 C1086 1.379 . S
C1087 H1097 0.930 . S
C1088 O1066 1.264 . S
C1088 O1067 1.254 . S
C1089 Eu1025 2.848 . S
C1089 O1064 1.257 . S
C1089 O1069 1.249 . S
C1089 C1082 1.492 . S
H1090 C1073 0.930 . S
H1091 C1074 0.930 . S
H1092 C1075 0.930 . S
H1093 C1076 0.930 . S
H1094 C1083 0.930 . S
H1095 C1085 0.930 . S
H1096 C1086 0.930 . S
H1097 C1087 0.930 . S
C1098 C1099 1.387 . S
C1098 H1102 0.950 . S
C1098 C1107 1.390 . S
C1099 C1098 1.387 . S
C1099 C1101 1.387 . S
H1100 C1107 0.950 . S
C1101 C1099 1.387 . S
C1101 C1103 1.390 . S
C1101 H1105 0.950 . S
H1102 C1098 0.950 . S
C1103 C1101 1.390 . S
C1103 C1104 1.387 . S
C1103 H1106 0.950 . S
C1104 C1103 1.387 . S
C1104 C1107 1.387 . S
H1105 C1101 0.950 . S
H1106 C1103 0.950 . S
C1107 C1098 1.390 . S
C1107 H1100 0.950 . S
C1107 C1104 1.387 . S
C1108 C1109 1.387 . S
C1108 H1112 0.950 . S
C1108 C1117 1.390 . S
C1109 C1108 1.387 . S
C1109 C1111 1.387 . S
H1110 C1117 0.950 . S
C1111 C1109 1.387 . S
C1111 C1113 1.390 . S
C1111 H1115 0.950 . S
H1112 C1108 0.950 . S
C1113 C1111 1.390 . S
C1113 C1114 1.387 . S
C1113 H1116 0.950 . S
C1114 C1113 1.387 . S
C1114 C1117 1.387 . S
H1115 C1111 0.950 . S
H1116 C1113 0.950 . S
C1117 C1108 1.390 . S
C1117 H1110 0.950 . S
C1117 C1114 1.387 . S
C1118 C1119 1.387 . S
C1118 H1122 0.950 . S
C1118 C1127 1.390 . S
C1119 C1118 1.387 . S
C1119 C1121 1.387 . S
H1120 C1127 0.950 . S
C1121 C1119 1.387 . S
C1121 C1123 1.390 . S
C1121 H1125 0.950 . S
H1122 C1118 0.950 . S
C1123 C1121 1.390 . S
C1123 C1124 1.387 . S
C1123 H1126 0.950 1_554 S
C1124 C1123 1.387 . S
C1124 C1127 1.387 . S
H1125 C1121 0.950 . S
H1126 C1123 0.950 1_556 S
C1127 C1118 1.390 . S
C1127 H1120 0.950 . S
C1127 C1124 1.387 . S
C1128 C1129 1.387 . S
C1128 H1132 0.950 . S
C1128 C1137 1.390 . S
C1129 C1128 1.387 . S
C1129 C1131 1.387 1_556 S
H1130 C1137 0.950 . S
C1131 C1129 1.387 1_554 S
C1131 C1133 1.390 . S
C1131 H1135 0.950 . S
H1132 C1128 0.950 . S
C1133 C1131 1.390 . S
C1133 C1134 1.387 1_554 S
C1133 H1136 0.950 . S
C1134 C1133 1.387 1_556 S
C1134 C1137 1.387 . S
H1135 C1131 0.950 . S
H1136 C1133 0.950 . S
C1137 C1128 1.390 . S
C1137 H1130 0.950 . S
C1137 C1134 1.387 . S
C1138 C1139 1.387 . S
C1138 H1142 0.950 . S
C1138 C1147 1.390 . S
C1139 C1138 1.387 . S
C1139 C1141 1.387 . S
H1140 C1147 0.950 . S
C1141 C1139 1.387 . S
C1141 C1143 1.390 . S
C1141 H1145 0.950 . S
H1142 C1138 0.950 . S
C1143 C1141 1.390 . S
C1143 C1144 1.387 . S
C1143 H1146 0.950 . S
C1144 C1143 1.387 . S
C1144 C1147 1.387 . S
H1145 C1141 0.950 . S
H1146 C1143 0.950 . S
C1147 C1138 1.390 . S
C1147 H1140 0.950 . S
C1147 C1144 1.387 . S
C1148 C1149 1.387 . S
C1148 H1152 0.950 . S
C1148 C1157 1.390 . S
C1149 C1148 1.387 . S
C1149 C1151 1.387 1_556 S
H1150 C1157 0.950 . S
C1151 C1149 1.387 1_554 S
C1151 C1153 1.390 . S
C1151 H1155 0.950 . S
H1152 C1148 0.950 . S
C1153 C1151 1.390 . S
C1153 C1154 1.387 1_554 S
C1153 H1156 0.950 . S
C1154 C1153 1.387 1_556 S
C1154 C1157 1.387 . S
H1155 C1151 0.950 . S
H1156 C1153 0.950 . S
C1157 C1148 1.390 . S
C1157 H1150 0.950 . S
C1157 C1154 1.387 . S
C1158 C1159 1.387 1_554 S
C1158 H1162 0.950 . S
C1158 C1167 1.390 . S
C1159 C1158 1.387 1_556 S
C1159 C1161 1.387 . S
H1160 C1167 0.950 . S
C1161 C1159 1.387 . S
C1161 C1163 1.390 . S
C1161 H1165 0.950 . S
H1162 C1158 0.950 . S
C1163 C1161 1.390 . S
C1163 C1164 1.387 . S
C1163 H1166 0.950 . S
C1164 C1163 1.387 . S
C1164 C1167 1.387 1_556 S
H1165 C1161 0.950 . S
H1166 C1163 0.950 . S
C1167 C1158 1.390 . S
C1167 H1160 0.950 . S
C1167 C1164 1.387 1_554 S
C1168 C1169 1.387 . S
C1168 H1172 0.950 . S
C1168 C1177 1.390 . S
C1169 C1168 1.387 . S
C1169 C1171 1.387 1_556 S
H1170 C1177 0.950 . S
C1171 C1169 1.387 1_554 S
C1171 C1173 1.390 . S
C1171 H1175 0.950 . S
H1172 C1168 0.950 . S
C1173 C1171 1.390 . S
C1173 C1174 1.387 1_554 S
C1173 H1176 0.950 . S
C1174 C1173 1.387 1_556 S
C1174 C1177 1.387 . S
H1175 C1171 0.950 . S
H1176 C1173 0.950 . S
C1177 C1168 1.390 . S
C1177 H1170 0.950 . S
C1177 C1174 1.387 . S
C1178 C1179 1.387 1_554 S
C1178 H1182 0.950 . S
C1178 C1187 1.390 . S
C1179 C1178 1.387 1_556 S
C1179 C1181 1.387 . S
H1180 C1187 0.950 . S
C1181 C1179 1.387 . S
C1181 C1183 1.390 . S
C1181 H1185 0.950 . S
H1182 C1178 0.950 . S
C1183 C1181 1.390 . S
C1183 C1184 1.387 . S
C1183 H1186 0.950 . S
C1184 C1183 1.387 . S
C1184 C1187 1.387 1_556 S
H1185 C1181 0.950 . S
H1186 C1183 0.950 . S
C1187 C1178 1.390 . S
C1187 H1180 0.950 . S
C1187 C1184 1.387 1_554 S
C1188 C1189 1.387 . S
C1188 H1192 0.950 . S
C1188 C1197 1.390 . S
C1189 C1188 1.387 . S
C1189 C1191 1.387 . S
H1190 C1197 0.950 . S
C1191 C1189 1.387 . S
C1191 C1193 1.390 . S
C1191 H1195 0.950 . S
H1192 C1188 0.950 . S
C1193 C1191 1.390 . S
C1193 C1194 1.387 . S
C1193 H1196 0.950 . S
C1194 C1193 1.387 . S
C1194 C1197 1.387 . S
H1195 C1191 0.950 . S
H1196 C1193 0.950 . S
C1197 C1188 1.390 . S
C1197 H1190 0.950 . S
C1197 C1194 1.387 . S
C1198 C1199 1.387 . S
C1198 H1202 0.950 . S
C1198 C1207 1.390 . S
C1199 C1198 1.387 . S
C1199 C1201 1.387 . S
H1200 C1207 0.950 . S
C1201 C1199 1.387 . S
C1201 C1203 1.390 . S
C1201 H1205 0.950 . S
H1202 C1198 0.950 . S
C1203 C1201 1.390 . S
C1203 C1204 1.387 . S
C1203 H1206 0.950 . S
C1204 C1203 1.387 . S
C1204 C1207 1.387 . S
H1205 C1201 0.950 . S
H1206 C1203 0.950 . S
C1207 C1198 1.390 . S
C1207 H1200 0.950 . S
C1207 C1204 1.387 . S
C1208 C1209 1.387 . S
C1208 H1212 0.950 1_554 S
C1208 C1217 1.390 . S
C1209 C1208 1.387 . S
C1209 C1211 1.387 . S
H1210 C1217 0.950 1_556 S
C1211 C1209 1.387 . S
C1211 C1213 1.390 . S
C1211 H1215 0.950 . S
H1212 C1208 0.950 1_556 S
C1213 C1211 1.390 . S
C1213 C1214 1.387 . S
C1213 H1216 0.950 . S
C1214 C1213 1.387 . S
C1214 C1217 1.387 . S
H1215 C1211 0.950 . S
H1216 C1213 0.950 . S
C1217 C1208 1.390 . S
C1217 H1210 0.950 1_554 S
C1217 C1214 1.387 . S
C1218 C1219 1.387 . S
C1218 H1222 0.950 . S
C1218 C1227 1.390 1_655 S
C1219 C1218 1.387 . S
C1219 C1221 1.387 . S
H1220 C1227 0.950 . S
C1221 C1219 1.387 . S
C1221 C1223 1.390 1_655 S
C1221 H1225 0.950 . S
H1222 C1218 0.950 . S
C1223 C1221 1.390 1_455 S
C1223 C1224 1.387 . S
C1223 H1226 0.950 . S
C1224 C1223 1.387 . S
C1224 C1227 1.387 . S
H1225 C1221 0.950 . S
H1226 C1223 0.950 . S
C1227 C1218 1.390 1_455 S
C1227 H1220 0.950 . S
C1227 C1224 1.387 . S
C1228 C1229 1.387 . S
C1228 H1232 0.950 . S
C1228 C1237 1.390 . S
C1229 C1228 1.387 . S
C1229 C1231 1.387 . S
H1230 C1237 0.950 . S
C1231 C1229 1.387 . S
C1231 C1233 1.390 . S
C1231 H1235 0.950 . S
H1232 C1228 0.950 . S
C1233 C1231 1.390 . S
C1233 C1234 1.387 . S
C1233 H1236 0.950 . S
C1234 C1233 1.387 . S
C1234 C1237 1.387 . S
H1235 C1231 0.950 . S
H1236 C1233 0.950 . S
C1237 C1228 1.390 . S
C1237 H1230 0.950 . S
C1237 C1234 1.387 . S
C1238 C1239 1.387 . S
C1238 H1242 0.950 . S
C1238 C1247 1.390 1_545 S
C1239 C1238 1.387 . S
C1239 C1241 1.387 . S
H1240 C1247 0.950 . S
C1241 C1239 1.387 . S
C1241 C1243 1.390 . S
C1241 H1245 0.950 . S
H1242 C1238 0.950 . S
C1243 C1241 1.390 . S
C1243 C1244 1.387 1_545 S
C1243 H1246 0.950 1_545 S
C1244 C1243 1.387 1_565 S
C1244 C1247 1.387 . S
H1245 C1241 0.950 . S
H1246 C1243 0.950 1_565 S
C1247 C1238 1.390 1_565 S
C1247 H1240 0.950 . S
C1247 C1244 1.387 . S
C1248 C1249 1.387 . S
C1248 H1252 0.950 . S
C1248 C1257 1.390 . S
C1249 C1248 1.387 . S
C1249 C1251 1.387 . S
H1250 C1257 0.950 . S
C1251 C1249 1.387 . S
C1251 C1253 1.390 . S
C1251 H1255 0.950 . S
H1252 C1248 0.950 . S
C1253 C1251 1.390 . S
C1253 C1254 1.387 . S
C1253 H1256 0.950 . S
C1254 C1253 1.387 . S
C1254 C1257 1.387 . S
H1255 C1251 0.950 . S
H1256 C1253 0.950 . S
C1257 C1248 1.390 . S
C1257 H1250 0.950 . S
C1257 C1254 1.387 . S
C1258 C1259 1.387 . S
C1258 H1262 0.950 . S
C1258 C1267 1.390 . S
C1259 C1258 1.387 . S
C1259 C1261 1.387 . S
H1260 C1267 0.950 . S
C1261 C1259 1.387 . S
C1261 C1263 1.390 . S
C1261 H1265 0.950 . S
H1262 C1258 0.950 . S
C1263 C1261 1.390 . S
C1263 C1264 1.387 . S
C1263 H1266 0.950 . S
C1264 C1263 1.387 . S
C1264 C1267 1.387 . S
H1265 C1261 0.950 . S
H1266 C1263 0.950 . S
C1267 C1258 1.390 . S
C1267 H1260 0.950 . S
C1267 C1264 1.387 . S
C1268 C1269 1.387 . S
C1268 H1272 0.950 . S
C1268 C1277 1.390 . S
C1269 C1268 1.387 . S
C1269 C1271 1.387 . S
H1270 C1277 0.950 . S
C1271 C1269 1.387 . S
C1271 C1273 1.390 . S
C1271 H1275 0.950 . S
H1272 C1268 0.950 . S
C1273 C1271 1.390 . S
C1273 C1274 1.387 . S
C1273 H1276 0.950 . S
C1274 C1273 1.387 . S
C1274 C1277 1.387 . S
H1275 C1271 0.950 . S
H1276 C1273 0.950 . S
C1277 C1268 1.390 . S
C1277 H1270 0.950 . S
C1277 C1274 1.387 . S
C1278 C1279 1.387 . S
C1278 H1282 0.950 . S
C1278 C1287 1.390 . S
C1279 C1278 1.387 . S
C1279 C1281 1.387 . S
H1280 C1287 0.950 . S
C1281 C1279 1.387 . S
C1281 C1283 1.390 . S
C1281 H1285 0.950 . S
H1282 C1278 0.950 . S
C1283 C1281 1.390 . S
C1283 C1284 1.387 . S
C1283 H1286 0.950 . S
C1284 C1283 1.387 . S
C1284 C1287 1.387 . S
H1285 C1281 0.950 . S
H1286 C1283 0.950 . S
C1287 C1278 1.390 . S
C1287 H1280 0.950 . S
C1287 C1284 1.387 . S
C1288 C1289 1.387 . S
C1288 H1292 0.950 . S
C1288 C1297 1.390 . S
C1289 C1288 1.387 . S
C1289 C1291 1.387 . S
H1290 C1297 0.950 . S
C1291 C1289 1.387 . S
C1291 C1293 1.390 . S
C1291 H1295 0.950 . S
H1292 C1288 0.950 . S
C1293 C1291 1.390 . S
C1293 C1294 1.387 . S
C1293 H1296 0.950 . S
C1294 C1293 1.387 . S
C1294 C1297 1.387 . S
H1295 C1291 0.950 . S
H1296 C1293 0.950 . S
C1297 C1288 1.390 . S
C1297 H1290 0.950 . S
C1297 C1294 1.387 . S
C1298 C1299 1.387 . S
C1298 H1302 0.950 . S
C1298 C1307 1.390 . S
C1299 C1298 1.387 . S
C1299 C1301 1.387 . S
H1300 C1307 0.950 . S
C1301 C1299 1.387 . S
C1301 C1303 1.390 . S
C1301 H1305 0.950 . S
H1302 C1298 0.950 . S
C1303 C1301 1.390 . S
C1303 C1304 1.387 . S
C1303 H1306 0.950 . S
C1304 C1303 1.387 . S
C1304 C1307 1.387 . S
H1305 C1301 0.950 . S
H1306 C1303 0.950 . S
C1307 C1298 1.390 . S
C1307 H1300 0.950 . S
C1307 C1304 1.387 . S
C1308 C1309 1.387 . S
C1308 H1312 0.950 . S
C1308 C1317 1.390 . S
C1309 C1308 1.387 . S
C1309 C1311 1.387 . S
H1310 C1317 0.950 . S
C1311 C1309 1.387 . S
C1311 C1313 1.390 . S
C1311 H1315 0.950 . S
H1312 C1308 0.950 . S
C1313 C1311 1.390 . S
C1313 C1314 1.387 . S
C1313 H1316 0.950 . S
C1314 C1313 1.387 . S
C1314 C1317 1.387 . S
H1315 C1311 0.950 . S
H1316 C1313 0.950 . S
C1317 C1308 1.390 . S
C1317 H1310 0.950 . S
C1317 C1314 1.387 . S
C1318 C1319 1.387 . S
C1318 H1322 0.950 . S
C1318 C1327 1.390 . S
C1319 C1318 1.387 . S
C1319 C1321 1.387 . S
H1320 C1327 0.950 . S
C1321 C1319 1.387 . S
C1321 C1323 1.390 . S
C1321 H1325 0.950 . S
H1322 C1318 0.950 . S
C1323 C1321 1.390 . S
C1323 C1324 1.387 . S
C1323 H1326 0.950 . S
C1324 C1323 1.387 . S
C1324 C1327 1.387 . S
H1325 C1321 0.950 . S
H1326 C1323 0.950 . S
C1327 C1318 1.390 . S
C1327 H1320 0.950 . S
C1327 C1324 1.387 . S
C1328 C1329 1.387 . S
C1328 H1332 0.950 . S
C1328 C1337 1.390 . S
C1329 C1328 1.387 . S
C1329 C1331 1.387 . S
H1330 C1337 0.950 . S
C1331 C1329 1.387 . S
C1331 C1333 1.390 . S
C1331 H1335 0.950 . S
H1332 C1328 0.950 . S
C1333 C1331 1.390 . S
C1333 C1334 1.387 . S
C1333 H1336 0.950 . S
C1334 C1333 1.387 . S
C1334 C1337 1.387 . S
H1335 C1331 0.950 . S
H1336 C1333 0.950 . S
C1337 C1328 1.390 . S
C1337 H1330 0.950 . S
C1337 C1334 1.387 . S
C1338 C1339 1.387 . S
C1338 H1342 0.950 . S
C1338 C1347 1.390 . S
C1339 C1338 1.387 . S
C1339 C1341 1.387 . S
H1340 C1347 0.950 . S
C1341 C1339 1.387 . S
C1341 C1343 1.390 . S
C1341 H1345 0.950 . S
H1342 C1338 0.950 . S
C1343 C1341 1.390 . S
C1343 C1344 1.387 . S
C1343 H1346 0.950 . S
C1344 C1343 1.387 . S
C1344 C1347 1.387 . S
H1345 C1341 0.950 . S
H1346 C1343 0.950 . S
C1347 C1338 1.390 . S
C1347 H1340 0.950 . S
C1347 C1344 1.387 . S
C1348 C1349 1.387 . S
C1348 H1352 0.950 . S
C1348 C1357 1.390 . S
C1349 C1348 1.387 . S
C1349 C1351 1.387 . S
H1350 C1357 0.950 . S
C1351 C1349 1.387 . S
C1351 C1353 1.390 . S
C1351 H1355 0.950 . S
H1352 C1348 0.950 . S
C1353 C1351 1.390 . S
C1353 C1354 1.387 . S
C1353 H1356 0.950 . S
C1354 C1353 1.387 . S
C1354 C1357 1.387 . S
H1355 C1351 0.950 . S
H1356 C1353 0.950 . S
C1357 C1348 1.390 . S
C1357 H1350 0.950 . S
C1357 C1354 1.387 . S
C1358 C1359 1.387 . S
C1358 H1362 0.950 . S
C1358 C1367 1.390 . S
C1359 C1358 1.387 . S
C1359 C1361 1.387 . S
H1360 C1367 0.950 . S
C1361 C1359 1.387 . S
C1361 C1363 1.390 . S
C1361 H1365 0.950 . S
H1362 C1358 0.950 . S
C1363 C1361 1.390 . S
C1363 C1364 1.387 . S
C1363 H1366 0.950 . S
C1364 C1363 1.387 . S
C1364 C1367 1.387 . S
H1365 C1361 0.950 . S
H1366 C1363 0.950 . S
C1367 C1358 1.390 . S
C1367 H1360 0.950 . S
C1367 C1364 1.387 . S
C1368 C1369 1.387 . S
C1368 H1372 0.950 . S
C1368 C1377 1.390 . S
C1369 C1368 1.387 . S
C1369 C1371 1.387 1_565 S
H1370 C1377 0.950 . S
C1371 C1369 1.387 1_545 S
C1371 C1373 1.390 . S
C1371 H1375 0.950 . S
H1372 C1368 0.950 . S
C1373 C1371 1.390 . S
C1373 C1374 1.387 . S
C1373 H1376 0.950 . S
C1374 C1373 1.387 . S
C1374 C1377 1.387 1_545 S
H1375 C1371 0.950 . S
H1376 C1373 0.950 . S
C1377 C1368 1.390 . S
C1377 H1370 0.950 . S
C1377 C1374 1.387 1_565 S
C1378 C1379 1.387 . S
C1378 H1382 0.950 . S
C1378 C1387 1.390 . S
C1379 C1378 1.387 . S
C1379 C1381 1.387 . S
H1380 C1387 0.950 . S
C1381 C1379 1.387 . S
C1381 C1383 1.390 1_455 S
C1381 H1385 0.950 . S
H1382 C1378 0.950 . S
C1383 C1381 1.390 1_655 S
C1383 C1384 1.387 . S
C1383 H1386 0.950 . S
C1384 C1383 1.387 . S
C1384 C1387 1.387 1_655 S
H1385 C1381 0.950 . S
H1386 C1383 0.950 . S
C1387 C1378 1.390 . S
C1387 H1380 0.950 . S
C1387 C1384 1.387 1_455 S
C1388 C1389 1.387 . S
C1388 H1392 0.950 . S
C1388 C1397 1.390 . S
C1389 C1388 1.387 . S
C1389 C1391 1.387 . S
H1390 C1397 0.950 . S
C1391 C1389 1.387 . S
C1391 C1393 1.390 . S
C1391 H1395 0.950 . S
H1392 C1388 0.950 . S
C1393 C1391 1.390 . S
C1393 C1394 1.387 . S
C1393 H1396 0.950 . S
C1394 C1393 1.387 . S
C1394 C1397 1.387 . S
H1395 C1391 0.950 . S
H1396 C1393 0.950 . S
C1397 C1388 1.390 . S
C1397 H1390 0.950 . S
C1397 C1394 1.387 . S
C1398 C1399 1.387 . S
C1398 H1402 0.950 . S
C1398 C1407 1.390 . S
C1399 C1398 1.387 . S
C1399 C1401 1.387 . S
H1400 C1407 0.950 . S
C1401 C1399 1.387 . S
C1401 C1403 1.390 . S
C1401 H1405 0.950 . S
H1402 C1398 0.950 . S
C1403 C1401 1.390 . S
C1403 C1404 1.387 . S
C1403 H1406 0.950 . S
C1404 C1403 1.387 . S
C1404 C1407 1.387 . S
H1405 C1401 0.950 . S
H1406 C1403 0.950 . S
C1407 C1398 1.390 . S
C1407 H1400 0.950 . S
C1407 C1404 1.387 . S
C1408 C1409 1.387 . S
C1408 H1412 0.950 . S
C1408 C1417 1.390 . S
C1409 C1408 1.387 . S
C1409 C1411 1.387 . S
H1410 C1417 0.950 . S
C1411 C1409 1.387 . S
C1411 C1413 1.390 . S
C1411 H1415 0.950 . S
H1412 C1408 0.950 . S
C1413 C1411 1.390 . S
C1413 C1414 1.387 . S
C1413 H1416 0.950 . S
C1414 C1413 1.387 . S
C1414 C1417 1.387 . S
H1415 C1411 0.950 . S
H1416 C1413 0.950 . S
C1417 C1408 1.390 . S
C1417 H1410 0.950 . S
C1417 C1414 1.387 . S
C1418 C1419 1.387 . S
C1418 H1422 0.950 . S
C1418 C1427 1.390 . S
C1419 C1418 1.387 . S
C1419 C1421 1.387 . S
H1420 C1427 0.950 . S
C1421 C1419 1.387 . S
C1421 C1423 1.390 . S
C1421 H1425 0.950 . S
H1422 C1418 0.950 . S
C1423 C1421 1.390 . S
C1423 C1424 1.387 . S
C1423 H1426 0.950 . S
C1424 C1423 1.387 . S
C1424 C1427 1.387 . S
H1425 C1421 0.950 . S
H1426 C1423 0.950 . S
C1427 C1418 1.390 . S
C1427 H1420 0.950 . S
C1427 C1424 1.387 . S
C1428 C1429 1.387 . S
C1428 H1432 0.950 . S
C1428 C1437 1.390 . S
C1429 C1428 1.387 . S
C1429 C1431 1.387 . S
H1430 C1437 0.950 . S
C1431 C1429 1.387 . S
C1431 C1433 1.390 . S
C1431 H1435 0.950 . S
H1432 C1428 0.950 . S
C1433 C1431 1.390 . S
C1433 C1434 1.387 . S
C1433 H1436 0.950 . S
C1434 C1433 1.387 . S
C1434 C1437 1.387 . S
H1435 C1431 0.950 . S
H1436 C1433 0.950 . S
C1437 C1428 1.390 . S
C1437 H1430 0.950 . S
C1437 C1434 1.387 . S
C1438 C1439 1.387 . S
C1438 H1442 0.950 . S
C1438 C1447 1.390 . S
C1439 C1438 1.387 . S
C1439 C1441 1.387 . S
H1440 C1447 0.950 . S
C1441 C1439 1.387 . S
C1441 C1443 1.390 . S
C1441 H1445 0.950 . S
H1442 C1438 0.950 . S
C1443 C1441 1.390 . S
C1443 C1444 1.387 . S
C1443 H1446 0.950 . S
C1444 C1443 1.387 . S
C1444 C1447 1.387 . S
H1445 C1441 0.950 . S
H1446 C1443 0.950 . S
C1447 C1438 1.390 . S
C1447 H1440 0.950 . S
C1447 C1444 1.387 . S
C1448 C1449 1.387 . S
C1448 H1452 0.950 . S
C1448 C1457 1.390 . S
C1449 C1448 1.387 . S
C1449 C1451 1.387 . S
H1450 C1457 0.950 . S
C1451 C1449 1.387 . S
C1451 C1453 1.390 . S
C1451 H1455 0.950 . S
H1452 C1448 0.950 . S
C1453 C1451 1.390 . S
C1453 C1454 1.387 . S
C1453 H1456 0.950 . S
C1454 C1453 1.387 . S
C1454 C1457 1.387 . S
H1455 C1451 0.950 . S
H1456 C1453 0.950 . S
C1457 C1448 1.390 . S
C1457 H1450 0.950 . S
C1457 C1454 1.387 . S
C1458 C1459 1.387 . S
C1458 H1462 0.950 . S
C1458 C1467 1.390 . S
C1459 C1458 1.387 . S
C1459 C1461 1.387 . S
H1460 C1467 0.950 . S
C1461 C1459 1.387 . S
C1461 C1463 1.390 . S
C1461 H1465 0.950 . S
H1462 C1458 0.950 . S
C1463 C1461 1.390 . S
C1463 C1464 1.387 . S
C1463 H1466 0.950 . S
C1464 C1463 1.387 . S
C1464 C1467 1.387 . S
H1465 C1461 0.950 . S
H1466 C1463 0.950 . S
C1467 C1458 1.390 . S
C1467 H1460 0.950 . S
C1467 C1464 1.387 . S
C1468 C1469 1.387 . S
C1468 H1472 0.950 . S
C1468 C1477 1.390 . S
C1469 C1468 1.387 . S
C1469 C1471 1.387 . S
H1470 C1477 0.950 . S
C1471 C1469 1.387 . S
C1471 C1473 1.390 . S
C1471 H1475 0.950 . S
H1472 C1468 0.950 . S
C1473 C1471 1.390 . S
C1473 C1474 1.387 . S
C1473 H1476 0.950 . S
C1474 C1473 1.387 . S
C1474 C1477 1.387 . S
H1475 C1471 0.950 . S
H1476 C1473 0.950 . S
C1477 C1468 1.390 . S
C1477 H1470 0.950 . S
C1477 C1474 1.387 . S
C1478 C1479 1.387 . S
C1478 H1482 0.950 . S
C1478 C1487 1.390 . S
C1479 C1478 1.387 . S
C1479 C1481 1.387 . S
H1480 C1487 0.950 . S
C1481 C1479 1.387 . S
C1481 C1483 1.390 . S
C1481 H1485 0.950 . S
H1482 C1478 0.950 . S
C1483 C1481 1.390 . S
C1483 C1484 1.387 . S
C1483 H1486 0.950 . S
C1484 C1483 1.387 . S
C1484 C1487 1.387 . S
H1485 C1481 0.950 . S
H1486 C1483 0.950 . S
C1487 C1478 1.390 . S
C1487 H1480 0.950 . S
C1487 C1484 1.387 . S
C1488 C1489 1.387 . S
C1488 H1492 0.950 . S
C1488 C1497 1.390 . S
C1489 C1488 1.387 . S
C1489 C1491 1.387 . S
H1490 C1497 0.950 . S
C1491 C1489 1.387 . S
C1491 C1493 1.390 . S
C1491 H1495 0.950 . S
H1492 C1488 0.950 . S
C1493 C1491 1.390 . S
C1493 C1494 1.387 . S
C1493 H1496 0.950 . S
C1494 C1493 1.387 . S
C1494 C1497 1.387 . S
H1495 C1491 0.950 . S
H1496 C1493 0.950 . S
C1497 C1488 1.390 . S
C1497 H1490 0.950 . S
C1497 C1494 1.387 . S
C1498 C1499 1.387 . S
C1498 H1502 0.950 . S
C1498 C1507 1.390 . S
C1499 C1498 1.387 . S
C1499 C1501 1.387 . S
H1500 C1507 0.950 . S
C1501 C1499 1.387 . S
C1501 C1503 1.390 . S
C1501 H1505 0.950 . S
H1502 C1498 0.950 . S
C1503 C1501 1.390 . S
C1503 C1504 1.387 . S
C1503 H1506 0.950 . S
C1504 C1503 1.387 . S
C1504 C1507 1.387 . S
H1505 C1501 0.950 . S
H1506 C1503 0.950 . S
C1507 C1498 1.390 . S
C1507 H1500 0.950 . S
C1507 C1504 1.387 . S
C1508 C1509 1.387 . S
C1508 H1512 0.950 . S
C1508 C1517 1.390 . S
C1509 C1508 1.387 . S
C1509 C1511 1.387 . S
H1510 C1517 0.950 . S
C1511 C1509 1.387 . S
C1511 C1513 1.390 . S
C1511 H1515 0.950 . S
H1512 C1508 0.950 . S
C1513 C1511 1.390 . S
C1513 C1514 1.387 . S
C1513 H1516 0.950 . S
C1514 C1513 1.387 . S
C1514 C1517 1.387 . S
H1515 C1511 0.950 . S
H1516 C1513 0.950 . S
C1517 C1508 1.390 . S
C1517 H1510 0.950 . S
C1517 C1514 1.387 . S
C1518 C1519 1.387 . S
C1518 H1522 0.950 . S
C1518 C1527 1.390 . S
C1519 C1518 1.387 . S
C1519 C1521 1.387 . S
H1520 C1527 0.950 . S
C1521 C1519 1.387 . S
C1521 C1523 1.390 . S
C1521 H1525 0.950 . S
H1522 C1518 0.950 . S
C1523 C1521 1.390 . S
C1523 C1524 1.387 . S
C1523 H1526 0.950 . S
C1524 C1523 1.387 . S
C1524 C1527 1.387 . S
H1525 C1521 0.950 . S
H1526 C1523 0.950 . S
C1527 C1518 1.390 . S
C1527 H1520 0.950 . S
C1527 C1524 1.387 . S
C1528 C1529 1.387 . S
C1528 H1532 0.950 . S
C1528 C1537 1.390 . S
C1529 C1528 1.387 . S
C1529 C1531 1.387 . S
H1530 C1537 0.950 . S
C1531 C1529 1.387 . S
C1531 C1533 1.390 . S
C1531 H1535 0.950 . S
H1532 C1528 0.950 . S
C1533 C1531 1.390 . S
C1533 C1534 1.387 . S
C1533 H1536 0.950 . S
C1534 C1533 1.387 . S
C1534 C1537 1.387 . S
H1535 C1531 0.950 . S
H1536 C1533 0.950 . S
C1537 C1528 1.390 . S
C1537 H1530 0.950 . S
C1537 C1534 1.387 . S
C1538 C1539 1.387 . S
C1538 H1542 0.950 . S
C1538 C1547 1.390 . S
C1539 C1538 1.387 . S
C1539 C1541 1.387 . S
H1540 C1547 0.950 . S
C1541 C1539 1.387 . S
C1541 C1543 1.390 . S
C1541 H1545 0.950 . S
H1542 C1538 0.950 . S
C1543 C1541 1.390 . S
C1543 C1544 1.387 . S
C1543 H1546 0.950 . S
C1544 C1543 1.387 . S
C1544 C1547 1.387 . S
H1545 C1541 0.950 . S
H1546 C1543 0.950 . S
C1547 C1538 1.390 . S
C1547 H1540 0.950 . S
C1547 C1544 1.387 . S
C1548 C1549 1.387 . S
C1548 H1552 0.950 . S
C1548 C1557 1.390 . S
C1549 C1548 1.387 . S
C1549 C1551 1.387 . S
H1550 C1557 0.950 . S
C1551 C1549 1.387 . S
C1551 C1553 1.390 . S
C1551 H1555 0.950 . S
H1552 C1548 0.950 . S
C1553 C1551 1.390 . S
C1553 C1554 1.387 . S
C1553 H1556 0.950 . S
C1554 C1553 1.387 . S
C1554 C1557 1.387 . S
H1555 C1551 0.950 . S
H1556 C1553 0.950 . S
C1557 C1548 1.390 . S
C1557 H1550 0.950 . S
C1557 C1554 1.387 . S
C1558 C1559 1.387 . S
C1558 H1562 0.950 . S
C1558 C1567 1.390 . S
C1559 C1558 1.387 . S
C1559 C1561 1.387 . S
H1560 C1567 0.950 . S
C1561 C1559 1.387 . S
C1561 C1563 1.390 . S
C1561 H1565 0.950 . S
H1562 C1558 0.950 . S
C1563 C1561 1.390 . S
C1563 C1564 1.387 . S
C1563 H1566 0.950 . S
C1564 C1563 1.387 . S
C1564 C1567 1.387 . S
H1565 C1561 0.950 . S
H1566 C1563 0.950 . S
C1567 C1558 1.390 . S
C1567 H1560 0.950 . S
C1567 C1564 1.387 . S
C1568 C1569 1.387 . S
C1568 H1572 0.950 . S
C1568 C1577 1.390 . S
C1569 C1568 1.387 . S
C1569 C1571 1.387 . S
H1570 C1577 0.950 . S
C1571 C1569 1.387 . S
C1571 C1573 1.390 . S
C1571 H1575 0.950 . S
H1572 C1568 0.950 . S
C1573 C1571 1.390 . S
C1573 C1574 1.387 . S
C1573 H1576 0.950 . S
C1574 C1573 1.387 . S
C1574 C1577 1.387 . S
H1575 C1571 0.950 . S
H1576 C1573 0.950 . S
C1577 C1568 1.390 . S
C1577 H1570 0.950 . S
C1577 C1574 1.387 . S
C1578 C1579 1.387 . S
C1578 H1582 0.950 . S
C1578 C1587 1.390 . S
C1579 C1578 1.387 . S
C1579 C1581 1.387 . S
H1580 C1587 0.950 . S
C1581 C1579 1.387 . S
C1581 C1583 1.390 . S
C1581 H1585 0.950 . S
H1582 C1578 0.950 . S
C1583 C1581 1.390 . S
C1583 C1584 1.387 . S
C1583 H1586 0.950 . S
C1584 C1583 1.387 . S
C1584 C1587 1.387 . S
H1585 C1581 0.950 . S
H1586 C1583 0.950 . S
C1587 C1578 1.390 . S
C1587 H1580 0.950 . S
C1587 C1584 1.387 . S
C1588 C1589 1.387 . S
C1588 H1592 0.950 . S
C1588 C1597 1.390 . S
C1589 C1588 1.387 . S
C1589 C1591 1.387 . S
H1590 C1597 0.950 . S
C1591 C1589 1.387 . S
C1591 C1593 1.390 . S
C1591 H1595 0.950 . S
H1592 C1588 0.950 . S
C1593 C1591 1.390 . S
C1593 C1594 1.387 . S
C1593 H1596 0.950 . S
C1594 C1593 1.387 . S
C1594 C1597 1.387 . S
H1595 C1591 0.950 . S
H1596 C1593 0.950 . S
C1597 C1588 1.390 . S
C1597 H1590 0.950 . S
C1597 C1594 1.387 . S
C1598 C1599 1.387 . S
C1598 H1602 0.950 . S
C1598 C1607 1.390 . S
C1599 C1598 1.387 . S
C1599 C1601 1.387 . S
H1600 C1607 0.950 . S
C1601 C1599 1.387 . S
C1601 C1603 1.390 . S
C1601 H1605 0.950 . S
H1602 C1598 0.950 . S
C1603 C1601 1.390 . S
C1603 C1604 1.387 . S
C1603 H1606 0.950 . S
C1604 C1603 1.387 . S
C1604 C1607 1.387 . S
H1605 C1601 0.950 . S
H1606 C1603 0.950 . S
C1607 C1598 1.390 . S
C1607 H1600 0.950 . S
C1607 C1604 1.387 . S
C1608 C1609 1.387 . S
C1608 H1612 0.950 . S
C1608 C1617 1.390 . S
C1609 C1608 1.387 . S
C1609 C1611 1.387 . S
H1610 C1617 0.950 . S
C1611 C1609 1.387 . S
C1611 C1613 1.390 . S
C1611 H1615 0.950 . S
H1612 C1608 0.950 . S
C1613 C1611 1.390 . S
C1613 C1614 1.387 . S
C1613 H1616 0.950 . S
C1614 C1613 1.387 . S
C1614 C1617 1.387 . S
H1615 C1611 0.950 . S
H1616 C1613 0.950 . S
C1617 C1608 1.390 . S
C1617 H1610 0.950 . S
C1617 C1614 1.387 . S
C1618 C1619 1.387 . S
C1618 H1622 0.950 . S
C1618 C1627 1.390 . S
C1619 C1618 1.387 . S
C1619 C1621 1.387 . S
H1620 C1627 0.950 . S
C1621 C1619 1.387 . S
C1621 C1623 1.390 . S
C1621 H1625 0.950 . S
H1622 C1618 0.950 . S
C1623 C1621 1.390 . S
C1623 C1624 1.387 . S
C1623 H1626 0.950 . S
C1624 C1623 1.387 . S
C1624 C1627 1.387 . S
H1625 C1621 0.950 . S
H1626 C1623 0.950 . S
C1627 C1618 1.390 . S
C1627 H1620 0.950 . S
C1627 C1624 1.387 . S
C1628 C1629 1.387 . S
C1628 H1632 0.950 . S
C1628 C1637 1.390 . S
C1629 C1628 1.387 . S
C1629 C1631 1.387 . S
H1630 C1637 0.950 . S
C1631 C1629 1.387 . S
C1631 C1633 1.390 . S
C1631 H1635 0.950 . S
H1632 C1628 0.950 . S
C1633 C1631 1.390 . S
C1633 C1634 1.387 . S
C1633 H1636 0.950 . S
C1634 C1633 1.387 . S
C1634 C1637 1.387 . S
H1635 C1631 0.950 . S
H1636 C1633 0.950 . S
C1637 C1628 1.390 . S
C1637 H1630 0.950 . S
C1637 C1634 1.387 . S
C1099 C253 1.505 . S
C1104 C409 1.445 . S
C1109 C272 1.540 . S
C1114 C493 1.482 . S
C1119 C234 1.494 . S
C1124 C573 1.508 . S
C1129 C215 1.496 . S
C1134 C489 1.514 . S
C1144 C577 1.448 . S
C1139 C177 1.511 . S
C1149 C196 1.465 . S
C1154 C405 1.478 1_556 S
C1164 C398 1.505 . S
C1159 C220 1.470 . S
C1174 C482 1.525 . S
C1169 C182 1.493 . S
C1179 C201 1.479 . S
C1184 C584 1.511 1_556 S
C1189 C258 1.457 . S
C1194 C500 1.488 . S
C1199 C277 1.454 . S
C1204 C566 1.483 . S
C1214 C416 1.471 . S
C1209 C239 1.437 . S
C1224 C661 1.447 . S
C1219 C25 1.505 . S
C1229 C44 1.541 . S
C1234 C745 1.483 . S
C1239 C6 1.495 . S
C1244 C825 1.508 . S
C1249 C329 1.498 . S
C1254 C741 1.512 . S
C1259 C291 1.511 . S
C1264 C829 1.447 . S
C1269 C310 1.465 . S
C1274 C657 1.478 . S
C1279 C334 1.467 . S
C1284 C650 1.503 . S
C1289 C296 1.497 . S
C1294 C734 1.528 . S
C1304 C836 1.508 . S
C1299 C315 1.475 . S
C1309 C30 1.455 . S
C1314 C752 1.485 . S
C1324 C818 1.482 . S
C1319 C49 1.454 . S
C1329 C11 1.437 . S
C1334 C668 1.471 . S
C1344 C913 1.447 . S
C1339 C139 1.504 . S
C1349 C158 1.539 . S
C1354 C997 1.483 . S
C1364 C1077 1.508 . S
C1359 C120 1.496 . S
C1374 C993 1.511 . S
C1369 C101 1.497 . S
C1384 C1081 1.444 . S
C1379 C63 1.511 . S
C1389 C82 1.467 . S
C1394 C909 1.478 . S
C1399 C106 1.471 . S
C1404 C902 1.505 . S
C1409 C68 1.493 . S
C1414 C986 1.526 . S
C1424 C1088 1.507 . S
C1419 C87 1.475 . S
C1429 C144 1.455 . S
C1434 C1004 1.485 . S
C1439 C163 1.450 . S
C1444 C1070 1.479 . S
C1449 C125 1.437 . S
C1454 C920 1.471 . S
C1459 C287 1.659 . S
C1464 C412 1.569 . S
C1474 C496 1.583 . S
C1469 C306 1.710 . S
C1479 C325 1.654 . S
C1484 C568 1.444 . S
C1489 C116 1.665 . S
C1494 C484 1.437 . S
C1499 C135 1.668 . S
C1504 C580 1.550 . S
C1514 C400 1.428 . S
C1509 C154 1.616 . S
C1519 C59 1.658 . S
C1524 C664 1.566 . S
C1529 C78 1.710 . S
C1534 C748 1.583 . S
C1539 C97 1.653 . S
C1544 C820 1.448 . S
C1549 C230 1.666 . S
C1554 C736 1.438 . S
C1564 C832 1.549 . S
C1559 C249 1.668 . S
C1569 C268 1.615 . S
C1574 C652 1.430 . S
C1579 C173 1.659 . S
C1584 C916 1.566 . S
C1589 C192 1.710 . S
C1594 C1000 1.583 . S
C1604 C1072 1.448 . S
C1599 C211 1.655 . S
C1609 C2 1.665 . S
C1614 C988 1.441 . S
C1619 C21 1.668 . S
C1624 C1084 1.550 . S
C1629 C40 1.616 . S
C1634 C904 1.428 . S
