# Generated by pormake.
# Topology nom, (4,4)-cn, num edge types: 1
# Building blocks:
#     Node 0, Type 0, BuildingBlock: NAWXER_clean_linker_0, # of connection points: 4
#     Node 1, Type 0, BuildingBlock: NAWXER_clean_linker_0, # of connection points: 4
#     Node 2, Type 0, BuildingBlock: NAWXER_clean_linker_0, # of connection points: 4
#     Node 3, Type 0, BuildingBlock: NAWXER_clean_linker_0, # of connection points: 4
#     Node 4, Type 0, BuildingBlock: NAWXER_clean_linker_0, # of connection points: 4
#     Node 5, Type 0, BuildingBlock: NAWXER_clean_linker_0, # of connection points: 4
#     Node 6, Type 1, BuildingBlock: NAHDIM_clean_sbu_0, # of connection points: 4
#     Node 7, Type 1, BuildingBlock: NAHDIM_clean_sbu_0, # of connection points: 4
#     Node 8, Type 1, BuildingBlock: NAHDIM_clean_sbu_0, # of connection points: 4
#     Node 9, Type 1, BuildingBlock: NAHDIM_clean_sbu_0, # of connection points: 4
#     Node 10, Type 1, BuildingBlock: NAHDIM_clean_sbu_0, # of connection points: 4
#     Node 11, Type 1, BuildingBlock: NAHDIM_clean_sbu_0, # of connection points: 4
#     Edge 12, Type (0, 1), BuildingBlock: OJICUG_clean_linker_0, # of connection points: 2
#     Edge 13, Type (0, 1), BuildingBlock: OJICUG_clean_linker_0, # of connection points: 2
#     Edge 14, Type (0, 1), BuildingBlock: OJICUG_clean_linker_0, # of connection points: 2
#     Edge 15, Type (0, 1), BuildingBlock: OJICUG_clean_linker_0, # of connection points: 2
#     Edge 16, Type (0, 1), BuildingBlock: OJICUG_clean_linker_0, # of connection points: 2
#     Edge 17, Type (0, 1), BuildingBlock: OJICUG_clean_linker_0, # of connection points: 2
#     Edge 18, Type (0, 1), BuildingBlock: OJICUG_clean_linker_0, # of connection points: 2
#     Edge 19, Type (0, 1), BuildingBlock: OJICUG_clean_linker_0, # of connection points: 2
#     Edge 20, Type (0, 1), BuildingBlock: OJICUG_clean_linker_0, # of connection points: 2
#     Edge 21, Type (0, 1), BuildingBlock: OJICUG_clean_linker_0, # of connection points: 2
#     Edge 22, Type (0, 1), BuildingBlock: OJICUG_clean_linker_0, # of connection points: 2
#     Edge 23, Type (0, 1), BuildingBlock: OJICUG_clean_linker_0, # of connection points: 2
#     Edge 24, Type (0, 1), BuildingBlock: OJICUG_clean_linker_0, # of connection points: 2
#     Edge 25, Type (0, 1), BuildingBlock: OJICUG_clean_linker_0, # of connection points: 2
#     Edge 26, Type (0, 1), BuildingBlock: OJICUG_clean_linker_0, # of connection points: 2
#     Edge 27, Type (0, 1), BuildingBlock: OJICUG_clean_linker_0, # of connection points: 2
#     Edge 28, Type (0, 1), BuildingBlock: OJICUG_clean_linker_0, # of connection points: 2
#     Edge 29, Type (0, 1), BuildingBlock: OJICUG_clean_linker_0, # of connection points: 2
#     Edge 30, Type (0, 1), BuildingBlock: OJICUG_clean_linker_0, # of connection points: 2
#     Edge 31, Type (0, 1), BuildingBlock: OJICUG_clean_linker_0, # of connection points: 2
#     Edge 32, Type (0, 1), BuildingBlock: OJICUG_clean_linker_0, # of connection points: 2
#     Edge 33, Type (0, 1), BuildingBlock: OJICUG_clean_linker_0, # of connection points: 2
#     Edge 34, Type (0, 1), BuildingBlock: OJICUG_clean_linker_0, # of connection points: 2
#     Edge 35, Type (0, 1), BuildingBlock: OJICUG_clean_linker_0, # of connection points: 2
# Relax obj value: 0.024
# Max RMSD: 0.118
# Mean RMSD: 0.110
data_MOF--net-nom--node1-NAHDIM_clean_sbu_0--node2-NAWXER_clean_linker_0--edge1-OJICUG_clean_linker_0
_symmetry_space_group_name_H-M    P1
_symmetry_Int_Tables_number       1
_symmetry_cell_setting            triclinic
loop_
_symmetry_equiv_pos_as_xyz
'x, y, z'
_cell_length_a     40.418645
_cell_length_b     41.691471
_cell_length_c     44.719284
_cell_angle_alpha  89.853472
_cell_angle_beta   90.870758
_cell_angle_gamma 121.10851
loop_
_atom_site_label
_atom_site_type_symbol
_atom_site_fract_x
_atom_site_fract_y
_atom_site_fract_z
_atom_type_partial_charge
C0 C 0.8605 0.47972 0.3357 0.0
C1 C 0.84389 0.45179 0.35767 0.0
C2 C 0.89736 0.49163 0.32517 0.0
C3 C 0.91841 0.47581 0.33627 0.0
C4 C 0.86495 0.43579 0.3686 0.0
C5 C 0.90201 0.44793 0.35816 0.0
C6 C 0.95899 0.4914 0.32755 0.0
C7 C 0.89238 0.43471 0.24279 0.0
C8 C 0.89885 0.459 0.21872 0.0
C9 C 0.91495 0.448 0.26896 0.0
C10 C 0.94438 0.48582 0.27157 0.0
C11 C 0.92775 0.49703 0.22181 0.0
C12 C 0.95046 0.51018 0.24781 0.0
C13 C 0.97118 0.49952 0.2977 0.0
C14 C 0.14508 0.57428 0.30572 0.0
C15 C 0.15345 0.60224 0.28441 0.0
C16 C 0.1073 0.55143 0.31586 0.0
C17 C 0.07767 0.55701 0.30545 0.0
C18 C 0.12371 0.60735 0.27377 0.0
C19 C 0.08628 0.58505 0.28422 0.0
C20 C 0.03702 0.53276 0.31453 0.0
C21 C 0.10287 0.58192 0.40207 0.0
C22 C 0.09588 0.55509 0.4241 0.0
C23 C 0.08043 0.57158 0.37575 0.0
C24 C 0.05129 0.53405 0.3707 0.0
C25 C 0.06678 0.51763 0.41897 0.0
C26 C 0.04474 0.50725 0.39256 0.0
C27 C 0.02486 0.52264 0.34438 0.0
H28 H 0.84552 0.49326 0.32726 0.0
H29 H 0.90993 0.5142 0.3091 0.0
H30 H 0.85284 0.41391 0.38526 0.0
H31 H 0.91798 0.43572 0.36731 0.0
H32 H 0.87073 0.40518 0.24107 0.0
H33 H 0.91029 0.42843 0.28671 0.0
H34 H 0.93302 0.51673 0.20404 0.0
H35 H 0.97302 0.53946 0.24931 0.0
H36 H 0.16757 0.56962 0.314 0.0
H37 H 0.10124 0.52919 0.33144 0.0
H38 H 0.12951 0.62892 0.25754 0.0
H39 H 0.06392 0.58977 0.27567 0.0
H40 H 0.12473 0.61111 0.40569 0.0
H41 H 0.08519 0.59308 0.35979 0.0
H42 H 0.06091 0.49635 0.43549 0.0
H43 H 0.02216 0.47821 0.38934 0.0
N44 N 0.98626 0.5026 0.34963 0.0
N45 N 0.00962 0.52035 0.29246 0.0
C46 C 0.39235 0.87848 0.49687 0.0
C47 C 0.40153 0.86178 0.52023 0.0
C48 C 0.41773 0.91578 0.48945 0.0
C49 C 0.4534 0.93685 0.50464 0.0
C50 C 0.43645 0.88316 0.53629 0.0
C51 C 0.46222 0.92046 0.52852 0.0
C52 C 0.48001 0.97662 0.49688 0.0
C53 C 0.47191 0.90956 0.41656 0.0
C54 C 0.45425 0.91495 0.39129 0.0
C55 C 0.48333 0.93403 0.44101 0.0
C56 C 0.47678 0.96403 0.44085 0.0
C57 C 0.44923 0.94592 0.39073 0.0
C58 C 0.46045 0.97022 0.41523 0.0
C59 C 0.4873 0.98939 0.46704 0.0
C60 C 0.57714 0.15849 0.47887 0.0
C61 C 0.55398 0.1655 0.45932 0.0
C62 C 0.56566 0.12179 0.48704 0.0
C63 C 0.53053 0.09163 0.47615 0.0
C64 C 0.51935 0.13513 0.44797 0.0
C65 C 0.50785 0.09863 0.45624 0.0
C66 C 0.51673 0.05244 0.4845 0.0
C67 C 0.52754 0.11309 0.57166 0.0
C68 C 0.55234 0.11039 0.5926 0.0
C69 C 0.51487 0.09049 0.54599 0.0
C70 C 0.52715 0.06512 0.54065 0.0
C71 C 0.56424 0.08467 0.58723 0.0
C72 C 0.55159 0.06215 0.56159 0.0
C73 C 0.51311 0.03988 0.51434 0.0
H74 H 0.36522 0.8628 0.48459 0.0
H75 H 0.40923 0.92819 0.47194 0.0
H76 H 0.44408 0.87082 0.55445 0.0
H77 H 0.48919 0.9364 0.54097 0.0
H78 H 0.47614 0.88597 0.41776 0.0
H79 H 0.49698 0.92928 0.46014 0.0
H80 H 0.43653 0.95138 0.37135 0.0
H81 H 0.45563 0.99347 0.41435 0.0
H82 H 0.60428 0.18136 0.48762 0.0
H83 H 0.58417 0.117 0.50178 0.0
H84 H 0.50066 0.13961 0.43318 0.0
H85 H 0.48069 0.07578 0.44745 0.0
H86 H 0.518 0.13275 0.57505 0.0
H87 H 0.49522 0.0926 0.5305 0.0
H88 H 0.58273 0.08139 0.60314 0.0
H89 H 0.56091 0.04232 0.5581 0.0
N90 N 0.49434 0.00238 0.51938 0.0
N91 N 0.50433 0.02671 0.46206 0.0
C92 C 0.58151 0.48134 0.57302 0.0
C93 C 0.56022 0.46745 0.54614 0.0
C94 C 0.56574 0.48956 0.59735 0.0
C95 C 0.5283 0.48381 0.59529 0.0
C96 C 0.52304 0.46233 0.54404 0.0
C97 C 0.50734 0.47055 0.56831 0.0
C98 C 0.51139 0.49324 0.6205 0.0
C99 C 0.51721 0.39536 0.65326 0.0
C100 C 0.54127 0.40165 0.67831 0.0
C101 C 0.5091 0.42255 0.64401 0.0
C102 C 0.52528 0.45694 0.65929 0.0
C103 C 0.55698 0.43582 0.69396 0.0
C104 C 0.5489 0.46317 0.68459 0.0
C105 C 0.51414 0.48443 0.65061 0.0
C106 C 0.41595 0.52647 0.7187 0.0
C107 C 0.44247 0.55162 0.74016 0.0
C108 C 0.42872 0.5148 0.6945 0.0
C109 C 0.46826 0.52845 0.69115 0.0
C110 C 0.482 0.56473 0.7369 0.0
C111 C 0.49471 0.55305 0.7127 0.0
C112 C 0.48242 0.51646 0.66584 0.0
C113 C 0.42587 0.57772 0.62914 0.0
C114 C 0.39797 0.55736 0.60662 0.0
C115 C 0.45242 0.5674 0.6381 0.0
C116 C 0.45079 0.53584 0.62537 0.0
C117 C 0.39808 0.52719 0.59278 0.0
C118 C 0.424 0.5165 0.60214 0.0
C119 C 0.47623 0.52195 0.63552 0.0
H120 H 0.61017 0.48548 0.57535 0.0
H121 H 0.58295 0.50072 0.61764 0.0
H122 H 0.50617 0.45229 0.52349 0.0
H123 H 0.47861 0.46628 0.56602 0.0
H124 H 0.50387 0.369 0.64117 0.0
H125 H 0.48932 0.4162 0.62528 0.0
H126 H 0.57573 0.44151 0.71329 0.0
H127 H 0.56108 0.48919 0.69708 0.0
H128 H 0.38533 0.51601 0.72049 0.0
H129 H 0.40777 0.49523 0.67836 0.0
H130 H 0.50306 0.58355 0.75331 0.0
H131 H 0.52531 0.56345 0.71068 0.0
H132 H 0.42676 0.60113 0.64035 0.0
H133 H 0.47377 0.5838 0.65523 0.0
H134 H 0.37799 0.51157 0.57472 0.0
H135 H 0.42252 0.49244 0.59152 0.0
N136 N 0.49169 0.51075 0.61415 0.0
N137 N 0.50066 0.49745 0.6722 0.0
C138 C 0.84871 0.37849 0.79888 0.0
C139 C 0.83162 0.39269 0.77955 0.0
C140 C 0.88674 0.40134 0.80901 0.0
C141 C 0.90849 0.43891 0.80013 0.0
C142 C 0.85372 0.43022 0.77028 0.0
C143 C 0.89195 0.45305 0.78032 0.0
C144 C 0.94907 0.46264 0.81032 0.0
C145 C 0.87826 0.44403 0.8924 0.0
C146 C 0.88476 0.42531 0.91586 0.0
C147 C 0.90234 0.45647 0.86761 0.0
C148 C 0.93313 0.45006 0.86567 0.0
C149 C 0.91567 0.41906 0.91385 0.0
C150 C 0.93962 0.4314 0.88907 0.0
C151 C 0.96053 0.46505 0.84061 0.0
C152 C 0.134 0.56548 0.83871 0.0
C153 C 0.14356 0.54429 0.85758 0.0
C154 C 0.09599 0.5508 0.82845 0.0
C155 C 0.06709 0.51451 0.83659 0.0
C156 C 0.11437 0.50827 0.86607 0.0
C157 C 0.07651 0.49361 0.85576 0.0
C158 C 0.02658 0.49817 0.8264 0.0
C159 C 0.0956 0.51491 0.74377 0.0
C160 C 0.0942 0.53962 0.72301 0.0
C161 C 0.07006 0.50116 0.76761 0.0
C162 C 0.04296 0.51223 0.77142 0.0
C163 C 0.06677 0.55037 0.72675 0.0
C164 C 0.04123 0.53659 0.75064 0.0
C165 C 0.01524 0.49724 0.79621 0.0
H166 H 0.8329 0.34951 0.80588 0.0
H167 H 0.89934 0.38946 0.82351 0.0
H168 H 0.84136 0.44213 0.75559 0.0
H169 H 0.90845 0.48187 0.77294 0.0
H170 H 0.85457 0.44911 0.89321 0.0
H171 H 0.89734 0.47175 0.85029 0.0
H172 H 0.92192 0.40533 0.93175 0.0
H173 H 0.96346 0.42652 0.88828 0.0
H174 H 0.15581 0.59357 0.83219 0.0
H175 H 0.08917 0.56786 0.81438 0.0
H176 H 0.1209 0.49111 0.88028 0.0
H177 H 0.05459 0.46562 0.86245 0.0
H178 H 0.11652 0.50624 0.74163 0.0
H179 H 0.0713 0.48162 0.78292 0.0
H180 H 0.06453 0.56885 0.71089 0.0
H181 H 0.02016 0.54506 0.75296 0.0
N182 N 0.97684 0.47937 0.7893 0.0
N183 N -0.00121 0.48227 0.84735 0.0
C184 C 0.45631 0.86381 0.98505 0.0
C185 C 0.4319 0.84718 0.96005 0.0
C186 C 0.46583 0.89934 0.99473 0.0
C187 C 0.45028 0.91867 0.98017 0.0
C188 C 0.41713 0.8668 0.94487 0.0
C189 C 0.42627 0.90231 0.95487 0.0
C190 C 0.46244 0.95735 0.98953 0.0
C191 C 0.40031 0.88664 0.0692 0.0
C192 C 0.42367 0.89383 0.0949 0.0
C193 C 0.41435 0.91063 0.0446 0.0
C194 C 0.45204 0.9421 0.04525 0.0
C195 C 0.4611 0.92566 0.09559 0.0
C196 C 0.47505 0.94955 0.0711 0.0
C197 C 0.46734 0.96855 0.01987 0.0
C198 C 0.55176 0.13772 0.01664 0.0
C199 C 0.58219 0.1443 0.03635 0.0
C200 C 0.5255 0.10145 0.00625 0.0
C201 C 0.52962 0.07139 0.01518 0.0
C202 C 0.58579 0.11399 0.04544 0.0
C203 C 0.55971 0.07796 0.03506 0.0
C204 C 0.5027 0.03257 0.00508 0.0
C205 C 0.55918 0.09866 0.92139 0.0
C206 C 0.53218 0.09727 0.90038 0.0
C207 C 0.547 0.07429 0.94575 0.0
C208 C 0.50756 0.04832 0.94972 0.0
C209 C 0.4927 0.07113 0.90443 0.0
C210 C 0.48057 0.04673 0.92876 0.0
C211 C 0.49421 0.0215 0.97476 0.0
H212 H 0.46879 0.84965 0.99672 0.0
H213 H 0.48611 0.91198 0.01327 0.0
H214 H 0.39826 0.85453 0.92549 0.0
H215 H 0.41465 0.91701 0.94285 0.0
H216 H 0.37138 0.86228 0.06799 0.0
H217 H 0.39564 0.90475 0.02522 0.0
H218 H 0.47957 0.93236 0.11524 0.0
H219 H 0.50406 0.97383 0.07232 0.0
H220 H 0.54801 0.16052 0.00956 0.0
H221 H 0.50196 0.09688 0.99146 0.0
H222 H 0.60921 0.11817 0.0602 0.0
H223 H 0.5634 0.05514 0.04227 0.0
H224 H 0.58978 0.11859 0.919 0.0
H225 H 0.56843 0.07548 0.96129 0.0
H226 H 0.47125 0.06894 0.88841 0.0
H227 H 0.45003 0.02655 0.93124 0.0
N228 N 0.4749 0.98424 0.96811 0.0
N229 N 0.48819 0.00568 0.02636 0.0
C230 C 0.4751 0.61816 0.15069 0.0
C231 C 0.44823 0.60905 0.17351 0.0
C232 C 0.48526 0.59248 0.14157 0.0
C233 C 0.46813 0.55683 0.15464 0.0
C234 C 0.4314 0.57358 0.18686 0.0
C235 C 0.44134 0.54771 0.17753 0.0
C236 C 0.48138 0.53085 0.14694 0.0
C237 C 0.42855 0.54142 0.0603 0.0
C238 C 0.45523 0.55885 0.03714 0.0
C239 C 0.43933 0.5309 0.08674 0.0
C240 C 0.47698 0.53765 0.0905 0.0
C241 C 0.49303 0.56599 0.0413 0.0
C242 C 0.50363 0.5552 0.06754 0.0
C243 C 0.48837 0.52452 0.1173 0.0
C244 C 0.5543 0.42379 0.13379 0.0
C245 C 0.5844 0.44136 0.11311 0.0
C246 C 0.53206 0.43944 0.14091 0.0
C247 C 0.54018 0.47348 0.12807 0.0
C248 C 0.59139 0.47466 0.09948 0.0
C249 C 0.56956 0.49054 0.10693 0.0
C250 C 0.5181 0.49153 0.13572 0.0
C251 C 0.57384 0.48586 0.22192 0.0
C252 C 0.54687 0.46217 0.24314 0.0
C253 C 0.5618 0.49699 0.19658 0.0
C254 C 0.52253 0.48442 0.19186 0.0
C255 C 0.50758 0.44985 0.23845 0.0
C256 C 0.49558 0.46116 0.21314 0.0
C257 C 0.50965 0.49645 0.1653 0.0
H258 H 0.48911 0.64558 0.14044 0.0
H259 H 0.5074 0.60102 0.12492 0.0
H260 H 0.41046 0.5658 0.20442 0.0
H261 H 0.4283 0.52065 0.18831 0.0
H262 H 0.39907 0.53503 0.05773 0.0
H263 H 0.41802 0.51668 0.10391 0.0
H264 H 0.5146 0.58006 0.02428 0.0
H265 H 0.53284 0.56071 0.06996 0.0
H266 H 0.54818 0.39819 0.14483 0.0
H267 H 0.50867 0.42498 0.15649 0.0
H268 H 0.61362 0.48846 0.0829 0.0
H269 H 0.57601 0.51653 0.09636 0.0
H270 H 0.60428 0.49565 0.22482 0.0
H271 H 0.58318 0.51553 0.18071 0.0
H272 H 0.48623 0.43202 0.25461 0.0
H273 H 0.4652 0.45154 0.21004 0.0
N274 N 0.4917 0.516 0.16976 0.0
N275 N 0.50687 0.50555 0.11295 0.0
C276 C 0.59285 0.31579 0.42879 0.0
O277 O 0.6057 0.34167 0.44977 0.0
O278 O 0.66655 0.40396 0.38504 0.0
Zn279 Zn 0.60988 0.37916 0.39364 0.0
O280 O 0.59804 0.40075 0.42918 0.0
C281 C 0.59989 0.42035 0.34895 0.0
O282 O 0.62943 0.44643 0.36448 0.0
O283 O 0.59047 0.32473 0.40195 0.0
C284 C 0.62059 0.43036 0.44393 0.0
O285 O 0.65673 0.45152 0.43586 0.0
C286 C 0.69199 0.4048 0.4026 0.0
O287 O 0.68228 0.39105 0.42965 0.0
O288 O 0.58449 0.38645 0.35726 0.0
C289 C 0.29589 0.70599 0.5468 0.0
O290 O 0.29133 0.68039 0.52735 0.0
O291 O 0.28573 0.62411 0.58321 0.0
Zn292 Zn 0.24687 0.63988 0.5767 0.0
O293 O 0.21545 0.61707 0.53866 0.0
C294 C 0.19627 0.59162 0.62163 0.0
O295 O 0.2021 0.56785 0.60685 0.0
O296 O 0.27811 0.6956 0.57141 0.0
C297 C 0.17889 0.60162 0.53732 0.0
O298 O 0.15997 0.59884 0.56174 0.0
C299 C 0.28171 0.59345 0.57416 0.0
O300 O 0.25024 0.56949 0.55923 0.0
O301 O 0.21259 0.6254 0.61284 0.0
C302 C 0.57198 0.28574 0.71382 0.0
O303 O 0.58171 0.26988 0.6932 0.0
O304 O 0.64824 0.27269 0.758 0.0
Zn305 Zn 0.59094 0.24121 0.74988 0.0
O306 O 0.57808 0.20663 0.71438 0.0
C307 C 0.58309 0.19182 0.79546 0.0
O308 O 0.61221 0.19504 0.78023 0.0
O309 O 0.57209 0.27686 0.74106 0.0
C310 C 0.60175 0.2006 0.70078 0.0
O311 O 0.63766 0.21657 0.71056 0.0
C312 C 0.67244 0.29748 0.74046 0.0
O313 O 0.66055 0.30252 0.71435 0.0
O314 O 0.56708 0.2097 0.78662 0.0
C315 C 0.39608 0.69988 0.92292 0.0
O316 O 0.37638 0.67157 0.94101 0.0
O317 O 0.32805 0.61671 0.87879 0.0
Zn318 Zn 0.38428 0.63909 0.88845 0.0
O319 O 0.39218 0.61506 0.92508 0.0
C320 C 0.39019 0.5967 0.84285 0.0
O321 O 0.35946 0.57148 0.85714 0.0
O322 O 0.40509 0.69363 0.89737 0.0
C323 C 0.41796 0.60629 0.92631 0.0
O324 O 0.43936 0.61178 0.90283 0.0
C325 C 0.30085 0.59978 0.89723 0.0
O326 O 0.30891 0.59531 0.92494 0.0
O327 O 0.40798 0.63037 0.85236 0.0
C328 C 0.67876 0.37841 0.08606 0.0
O329 O 0.66581 0.34313 0.09227 0.0
O330 O 0.70819 0.32037 0.05923 0.0
Zn331 Zn 0.74429 0.37477 0.06885 0.0
O332 O 0.77621 0.38303 0.10638 0.0
C333 C 0.79158 0.37773 0.02214 0.0
O334 O 0.78372 0.34641 0.03532 0.0
O335 O 0.71236 0.39838 0.07533 0.0
C336 C 0.81103 0.41016 0.1075 0.0
O337 O 0.82594 0.43092 0.08365 0.0
C338 C 0.69702 0.29314 0.07712 0.0
O339 O 0.71009 0.29956 0.10487 0.0
O340 O 0.77816 0.39678 0.033 0.0
C341 C 0.40846 0.71718 0.21115 0.0
O342 O 0.39427 0.73015 0.19115 0.0
O343 O 0.33302 0.72508 0.25868 0.0
Zn344 Zn 0.38863 0.75936 0.2481 0.0
O345 O 0.3961 0.79185 0.21239 0.0
C346 C 0.39775 0.81021 0.29191 0.0
O347 O 0.36635 0.80372 0.27738 0.0
O348 O 0.41045 0.72675 0.23842 0.0
C349 C 0.37224 0.79845 0.19912 0.0
O350 O 0.33699 0.7837 0.20922 0.0
C351 C 0.30702 0.70188 0.24075 0.0
O352 O 0.31554 0.70079 0.21269 0.0
O353 O 0.41485 0.79346 0.28342 0.0
C354 C 0.19952 0.6318 0.24233 0.0
C355 C 0.19305 0.62635 0.27321 0.0
H356 H 0.24078 0.65979 0.2078 0.0
C357 C 0.22432 0.64535 0.2933 0.0
H358 H 0.17581 0.61726 0.22641 0.0
C359 C 0.26134 0.67004 0.28271 0.0
C360 C 0.26783 0.67571 0.25181 0.0
H361 H 0.21995 0.64179 0.31721 0.0
H362 H 0.28487 0.68463 0.29876 0.0
C363 C 0.23664 0.65604 0.23171 0.0
C364 C 0.57922 0.2325 0.47319 0.0
C365 C 0.56516 0.2043 0.45121 0.0
H366 H 0.59859 0.28964 0.48341 0.0
C367 C 0.56044 0.21308 0.42166 0.0
H368 H 0.58268 0.22648 0.49622 0.0
C369 C 0.56933 0.24925 0.4143 0.0
C370 C 0.58303 0.27735 0.43637 0.0
H371 H 0.55003 0.19199 0.40416 0.0
H372 H 0.56543 0.25513 0.39134 0.0
C373 C 0.588 0.26861 0.46587 0.0
C374 C 0.37736 0.60428 0.59762 0.0
C375 C 0.36836 0.56688 0.59785 0.0
H376 H 0.35703 0.64197 0.58998 0.0
C377 C 0.33057 0.5384 0.58974 0.0
H378 H 0.40623 0.62703 0.60319 0.0
C379 C 0.30267 0.54709 0.58145 0.0
C380 C 0.31164 0.58437 0.58163 0.0
H381 H 0.32218 0.50919 0.59028 0.0
H382 H 0.27382 0.52449 0.57556 0.0
C383 C 0.34923 0.6129 0.58982 0.0
C384 C 0.77954 0.37012 0.73974 0.0
C385 C 0.79084 0.36831 0.76929 0.0
H386 H 0.73331 0.34905 0.70736 0.0
C387 C 0.76288 0.34278 0.78909 0.0
H388 H 0.80045 0.38911 0.7238 0.0
C389 C 0.72462 0.31952 0.77957 0.0
C390 C 0.71329 0.32142 0.75008 0.0
H391 H 0.77041 0.34107 0.81214 0.0
H392 H 0.70384 0.30034 0.7955 0.0
C393 C 0.74113 0.34697 0.73025 0.0
C394 C 0.42568 0.80225 0.91996 0.0
C395 C 0.42219 0.80944 0.95007 0.0
H396 H 0.42082 0.76196 0.88772 0.0
C397 C 0.41042 0.78056 0.97102 0.0
H398 H 0.43504 0.82419 0.90344 0.0
C399 C 0.40219 0.74513 0.9621 0.0
C400 C 0.40595 0.73788 0.93206 0.0
H401 H 0.40728 0.78532 0.99434 0.0
H402 H 0.39299 0.72344 0.97883 0.0
C403 C 0.41789 0.76681 0.91105 0.0
C404 C 0.64839 0.44872 0.10075 0.0
C405 C 0.60857 0.42521 0.10578 0.0
H406 H 0.70175 0.4524 0.09031 0.0
C407 C 0.59209 0.38621 0.10378 0.0
H408 H 0.66221 0.47887 0.10263 0.0
C409 C 0.61495 0.37109 0.09728 0.0
C410 C 0.65466 0.39463 0.09224 0.0
H411 H 0.56144 0.36727 0.10695 0.0
H412 H 0.6014 0.34091 0.09599 0.0
C413 C 0.67114 0.43359 0.09383 0.0
C414 C 0.36278 0.81074 0.55688 0.0
C415 C 0.37469 0.82196 0.5274 0.0
H416 H 0.32778 0.7651 0.58615 0.0
C417 C 0.36026 0.79496 0.50446 0.0
H418 H 0.37336 0.83116 0.5749 0.0
C419 C 0.33457 0.75734 0.51085 0.0
C420 C 0.32237 0.74602 0.54027 0.0
H421 H 0.3692 0.80293 0.48157 0.0
H422 H 0.32416 0.73714 0.49268 0.0
C423 C 0.33655 0.77308 0.56324 0.0
C424 C 0.54922 0.36332 0.71823 0.0
C425 C 0.54961 0.37237 0.68786 0.0
H426 H 0.55556 0.32848 0.75036 0.0
C427 C 0.5572 0.3526 0.66635 0.0
H428 H 0.54307 0.37781 0.73529 0.0
C429 C 0.56402 0.32432 0.6749 0.0
C430 C 0.56349 0.31507 0.70521 0.0
H431 H 0.55822 0.35923 0.64282 0.0
H432 H 0.56991 0.30984 0.65765 0.0
C433 C 0.55603 0.33487 0.72683 0.0
C434 C 0.19196 0.55407 0.89777 0.0
C435 C 0.18391 0.55932 0.86806 0.0
H436 H 0.23522 0.56277 0.93036 0.0
C437 C 0.2146 0.57818 0.84817 0.0
H438 H 0.1689 0.53999 0.91369 0.0
C439 C 0.25252 0.59127 0.85771 0.0
C440 C 0.26059 0.58584 0.88736 0.0
H441 H 0.20926 0.5822 0.82505 0.0
H442 H 0.27548 0.60549 0.84172 0.0
C443 C 0.22994 0.56723 0.90734 0.0
C444 C 0.62404 0.18893 0.077 0.0
C445 C 0.61072 0.18263 0.0471 0.0
H446 H 0.66186 0.22872 0.10995 0.0
C447 C 0.62591 0.21295 0.02729 0.0
H448 H 0.61252 0.16616 0.0929 0.0
C449 C 0.65407 0.24875 0.03707 0.0
C450 C 0.66763 0.25502 0.0669 0.0
H451 H 0.61664 0.2089 0.00404 0.0
H452 H 0.66531 0.27147 0.02114 0.0
C453 C 0.65225 0.22476 0.0868 0.0
C454 C 0.43059 0.6571 0.16222 0.0
C455 C 0.43821 0.63679 0.18343 0.0
H456 H 0.41533 0.69841 0.15436 0.0
C457 C 0.43673 0.64356 0.21402 0.0
H458 H 0.43123 0.65224 0.1385 0.0
C459 C 0.42779 0.67021 0.22319 0.0
C460 C 0.41982 0.69028 0.2019 0.0
H461 H 0.44291 0.62854 0.23084 0.0
H462 H 0.42669 0.67478 0.24689 0.0
C463 C 0.42137 0.68347 0.17134 0.0
C464 C 0.77572 0.43686 0.35011 0.0
C465 C 0.80505 0.44001 0.36941 0.0
H466 H 0.71735 0.42372 0.34547 0.0
C467 C 0.7971 0.43232 0.39998 0.0
H468 H 0.78063 0.44203 0.32638 0.0
C469 C 0.76054 0.42139 0.41092 0.0
C470 C 0.73127 0.41815 0.39155 0.0
H471 H 0.81922 0.43511 0.41556 0.0
H472 H 0.75524 0.41543 0.43453 0.0
C473 C 0.73935 0.42623 0.36107 0.0
C474 C 0.09759 0.55408 0.48004 0.0
C475 C 0.11751 0.56632 0.45298 0.0
H476 H 0.10133 0.55577 0.52785 0.0
C477 C 0.15794 0.58961 0.45381 0.0
H478 H 0.06638 0.53638 0.48006 0.0
C479 C 0.17804 0.60045 0.4812 0.0
C480 C 0.15801 0.58867 0.50828 0.0
H481 H 0.174 0.59925 0.43327 0.0
H482 H 0.20919 0.61858 0.48116 0.0
C483 C 0.11759 0.56532 0.50739 0.0
C484 C 0.60338 0.14983 0.63108 0.0
C485 C 0.56514 0.13367 0.62028 0.0
H486 H 0.64495 0.18357 0.66494 0.0
C487 C 0.53904 0.13945 0.63635 0.0
H488 H 0.62432 0.14625 0.61905 0.0
C489 C 0.55088 0.16091 0.66258 0.0
C490 C 0.58912 0.17713 0.67336 0.0
H491 H 0.50925 0.12694 0.6289 0.0
H492 H 0.52998 0.16479 0.67438 0.0
C493 C 0.61524 0.17133 0.65733 0.0
C494 C 0.39563 0.53737 0.78144 0.0
C495 C 0.42894 0.56353 0.76621 0.0
H496 H 0.35746 0.52728 0.81752 0.0
C497 C 0.44943 0.60094 0.77632 0.0
H498 H 0.3795 0.50825 0.7745 0.0
C499 C 0.4369 0.61188 0.80116 0.0
C500 C 0.40366 0.58561 0.81643 0.0
H501 H 0.47498 0.62185 0.76485 0.0
H502 H 0.45327 0.64088 0.80839 0.0
C503 C 0.38316 0.54827 0.80625 0.0
C504 C 0.84807 0.43586 0.95567 0.0
C505 C 0.85999 0.41287 0.94267 0.0
H506 H 0.81727 0.44295 0.99109 0.0
C507 C 0.84886 0.37818 0.95588 0.0
H508 H 0.85658 0.46297 0.94626 0.0
C509 C 0.82673 0.36692 0.98169 0.0
C510 C 0.81506 0.38999 0.99482 0.0
H511 H 0.85705 0.35955 0.94618 0.0
H512 H 0.8187 0.34 0.99126 0.0
C513 C 0.82579 0.42452 0.98148 0.0
C514 C 0.37188 0.85381 0.13163 0.0
C515 C 0.40953 0.8683 0.12097 0.0
H516 H 0.3305 0.82051 0.16488 0.0
C517 C 0.43425 0.85897 0.13584 0.0
H518 H 0.35227 0.86074 0.12075 0.0
C519 C 0.42196 0.83626 0.16108 0.0
C520 C 0.38456 0.8222 0.1721 0.0
H521 H 0.46318 0.86913 0.1279 0.0
H522 H 0.44194 0.8298 0.17195 0.0
C523 C 0.35951 0.83099 0.157 0.0
C524 C 0.59296 0.47794 0.28634 0.0
C525 C 0.55995 0.45115 0.27039 0.0
H526 H 0.63121 0.48928 0.32359 0.0
C527 C 0.53974 0.41398 0.28064 0.0
H528 H 0.60884 0.50689 0.27925 0.0
C529 C 0.55258 0.40379 0.30617 0.0
C530 C 0.58571 0.43065 0.32204 0.0
H531 H 0.51434 0.39268 0.26866 0.0
H532 H 0.5366 0.37491 0.31342 0.0
C533 C 0.60563 0.46784 0.31189 0.0
C534 C 0.40459 0.87732 0.35175 0.0
C535 C 0.4401 0.88791 0.3659 0.0
H536 H 0.36352 0.84464 0.3175 0.0
C537 C 0.46155 0.87229 0.35571 0.0
H538 H 0.38694 0.88819 0.35938 0.0
C539 C 0.44785 0.84685 0.33176 0.0
C540 C 0.41249 0.83663 0.31751 0.0
H541 H 0.48919 0.88012 0.36596 0.0
H542 H 0.4651 0.83546 0.32428 0.0
C543 C 0.39102 0.8521 0.32782 0.0
C544 C 0.55274 0.42522 0.50362 0.0
C545 C 0.57635 0.45796 0.52035 0.0
H546 H 0.5481 0.3909 0.46659 0.0
C547 C 0.61503 0.48156 0.51199 0.0
H548 H 0.52301 0.40614 0.50977 0.0
C549 C 0.62961 0.47274 0.48716 0.0
C550 C 0.60577 0.44012 0.4703 0.0
H551 H 0.63385 0.50717 0.52431 0.0
H552 H 0.65943 0.49156 0.48112 0.0
C553 C 0.56724 0.41642 0.47892 0.0
C554 C 0.1282 0.52873 0.68141 0.0
C555 C 0.12062 0.5533 0.69715 0.0
H556 H 0.15783 0.5215 0.64533 0.0
C557 C 0.13822 0.5908 0.68787 0.0
H558 H 0.11465 0.49955 0.68767 0.0
C559 C 0.16293 0.60342 0.6634 0.0
C560 C 0.17043 0.57875 0.64769 0.0
H561 H 0.13326 0.61051 0.69973 0.0
H562 H 0.17611 0.63246 0.65683 0.0
C563 C 0.1528 0.54129 0.65698 0.0
C564 C 0.52531 0.13953 0.8637 0.0
C565 C 0.54527 0.12203 0.87377 0.0
H566 H 0.52164 0.17551 0.83116 0.0
C567 C 0.57763 0.12783 0.85791 0.0
H568 H 0.50044 0.13584 0.87559 0.0
C569 C 0.58972 0.15046 0.83256 0.0
C570 C 0.56984 0.16798 0.82245 0.0
H571 H 0.5933 0.11435 0.86478 0.0
H572 H 0.6147 0.15411 0.82086 0.0
C573 C 0.53754 0.16236 0.83834 0.0
C574 C 0.4192 0.58376 0.00838 0.0
C575 C 0.44387 0.56929 0.00858 0.0
H576 H 0.39148 0.60663 0.98223 0.0
C577 C 0.45835 0.56553 0.98124 0.0
H578 H 0.40781 0.5874 0.02902 0.0
C579 C 0.44945 0.57704 0.95453 0.0
C580 C 0.42546 0.59217 0.95443 0.0
H581 H 0.47666 0.55367 0.9804 0.0
H582 H 0.46152 0.57418 0.93395 0.0
C583 C 0.40997 0.59494 0.98157 0.0
C584 C 0.83671 0.41752 0.19013 0.0
C585 C 0.87638 0.44479 0.19019 0.0
H586 H 0.78492 0.38492 0.16395 0.0
C587 C 0.89456 0.45886 0.16265 0.0
H588 H 0.8217 0.40628 0.21092 0.0
C589 C 0.87343 0.44696 0.13584 0.0
C590 C 0.83366 0.42039 0.13583 0.0
H591 H 0.92524 0.47916 0.16174 0.0
H592 H 0.8883 0.45884 0.11511 0.0
C593 C 0.81559 0.40534 0.16322 0.0
loop_
_geom_bond_atom_site_label_1
_geom_bond_atom_site_label_2
_geom_bond_distance
_geom_bond_site_symmetry_2
_ccdc_geom_bond_type
C0 C1 1.384 . S
C0 C2 1.384 . S
C0 H28 0.931 . S
C1 C0 1.384 . S
C1 C4 1.382 . S
C2 C0 1.384 . S
C2 C3 1.381 . S
C2 H29 0.930 . S
C3 C2 1.381 . S
C3 C5 1.381 . S
C3 C6 1.487 . S
C4 C1 1.382 . S
C4 C5 1.387 . S
C4 H30 0.930 . S
C5 C3 1.381 . S
C5 C4 1.387 . S
C5 H31 0.931 . S
C6 C3 1.487 . S
C6 C13 1.399 . S
C6 N44 1.343 . S
C7 C8 1.384 . S
C7 C9 1.384 . S
C7 H32 0.931 . S
C8 C7 1.384 . S
C8 C11 1.382 . S
C9 C7 1.384 . S
C9 C10 1.381 . S
C9 H33 0.930 . S
C10 C9 1.381 . S
C10 C12 1.381 . S
C10 C13 1.487 . S
C11 C8 1.382 . S
C11 C12 1.387 . S
C11 H34 0.930 . S
C12 C10 1.381 . S
C12 C11 1.387 . S
C12 H35 0.931 . S
C13 C6 1.399 . S
C13 C10 1.487 . S
C13 N45 1.343 1_655 S
C14 C15 1.384 . S
C14 C16 1.384 . S
C14 H36 0.931 . S
C15 C14 1.384 . S
C15 C18 1.382 . S
C16 C14 1.384 . S
C16 C17 1.381 . S
C16 H37 0.930 . S
C17 C16 1.381 . S
C17 C19 1.381 . S
C17 C20 1.487 . S
C18 C15 1.382 . S
C18 C19 1.387 . S
C18 H38 0.930 . S
C19 C17 1.381 . S
C19 C18 1.387 . S
C19 H39 0.931 . S
C20 C17 1.487 . S
C20 C27 1.399 . S
C20 N45 1.343 . S
C21 C22 1.384 . S
C21 C23 1.384 . S
C21 H40 0.931 . S
C22 C21 1.384 . S
C22 C25 1.382 . S
C23 C21 1.384 . S
C23 C24 1.381 . S
C23 H41 0.930 . S
C24 C23 1.381 . S
C24 C26 1.381 . S
C24 C27 1.487 . S
C25 C22 1.382 . S
C25 C26 1.387 . S
C25 H42 0.930 . S
C26 C24 1.381 . S
C26 C25 1.387 . S
C26 H43 0.931 . S
C27 C20 1.399 . S
C27 C24 1.487 . S
C27 N44 1.343 1_455 S
H28 C0 0.931 . S
H29 C2 0.930 . S
H30 C4 0.930 . S
H31 C5 0.931 . S
H32 C7 0.931 . S
H33 C9 0.930 . S
H34 C11 0.930 . S
H35 C12 0.931 . S
H36 C14 0.931 . S
H37 C16 0.930 . S
H38 C18 0.930 . S
H39 C19 0.931 . S
H40 C21 0.931 . S
H41 C23 0.930 . S
H42 C25 0.930 . S
H43 C26 0.931 . S
N44 C6 1.343 . S
N44 C27 1.343 1_655 S
N45 C13 1.343 1_455 S
N45 C20 1.343 . S
C46 C47 1.384 . S
C46 C48 1.384 . S
C46 H74 0.931 . S
C47 C46 1.384 . S
C47 C50 1.382 . S
C48 C46 1.384 . S
C48 C49 1.381 . S
C48 H75 0.930 . S
C49 C48 1.381 . S
C49 C51 1.381 . S
C49 C52 1.487 . S
C50 C47 1.382 . S
C50 C51 1.387 . S
C50 H76 0.930 . S
C51 C49 1.381 . S
C51 C50 1.387 . S
C51 H77 0.931 . S
C52 C49 1.487 . S
C52 C59 1.399 . S
C52 N90 1.341 1_565 S
C53 C54 1.384 . S
C53 C55 1.384 . S
C53 H78 0.931 . S
C54 C53 1.384 . S
C54 C57 1.382 . S
C55 C53 1.384 . S
C55 C56 1.381 . S
C55 H79 0.930 . S
C56 C55 1.381 . S
C56 C58 1.381 . S
C56 C59 1.487 . S
C57 C54 1.382 . S
C57 C58 1.387 . S
C57 H80 0.930 . S
C58 C56 1.381 . S
C58 C57 1.387 . S
C58 H81 0.931 . S
C59 C52 1.399 . S
C59 C56 1.487 . S
C59 N91 1.343 1_565 S
C60 C61 1.384 . S
C60 C62 1.384 . S
C60 H82 0.931 . S
C61 C60 1.384 . S
C61 C64 1.382 . S
C62 C60 1.384 . S
C62 C63 1.381 . S
C62 H83 0.930 . S
C63 C62 1.381 . S
C63 C65 1.381 . S
C63 C66 1.487 . S
C64 C61 1.382 . S
C64 C65 1.387 . S
C64 H84 0.930 . S
C65 C63 1.381 . S
C65 C64 1.387 . S
C65 H85 0.931 . S
C66 C63 1.487 . S
C66 C73 1.399 . S
C66 N91 1.343 . S
C67 C68 1.384 . S
C67 C69 1.384 . S
C67 H86 0.931 . S
C68 C67 1.384 . S
C68 C71 1.382 . S
C69 C67 1.384 . S
C69 C70 1.381 . S
C69 H87 0.930 . S
C70 C69 1.381 . S
C70 C72 1.381 . S
C70 C73 1.487 . S
C71 C68 1.382 . S
C71 C72 1.387 . S
C71 H88 0.930 . S
C72 C70 1.381 . S
C72 C71 1.387 . S
C72 H89 0.931 . S
C73 C66 1.399 . S
C73 C70 1.487 . S
C73 N90 1.347 . S
H74 C46 0.931 . S
H75 C48 0.930 . S
H76 C50 0.930 . S
H77 C51 0.931 . S
H78 C53 0.931 . S
H79 C55 0.930 . S
H80 C57 0.930 . S
H81 C58 0.931 . S
H82 C60 0.931 . S
H83 C62 0.930 . S
H84 C64 0.930 . S
H85 C65 0.931 . S
H86 C67 0.931 . S
H87 C69 0.930 . S
H88 C71 0.930 . S
H89 C72 0.931 . S
N90 C52 1.341 1_545 S
N90 C73 1.347 . S
N91 C59 1.343 1_545 S
N91 C66 1.343 . S
C92 C93 1.384 . S
C92 C94 1.384 . S
C92 H120 0.931 . S
C93 C92 1.384 . S
C93 C96 1.382 . S
C94 C92 1.384 . S
C94 C95 1.381 . S
C94 H121 0.930 . S
C95 C94 1.381 . S
C95 C97 1.381 . S
C95 C98 1.487 . S
C96 C93 1.382 . S
C96 C97 1.387 . S
C96 H122 0.930 . S
C97 C95 1.381 . S
C97 C96 1.387 . S
C97 H123 0.931 . S
C98 C95 1.487 . S
C98 C105 1.399 . S
C98 N136 1.343 . S
C99 C100 1.384 . S
C99 C101 1.384 . S
C99 H124 0.931 . S
C100 C99 1.384 . S
C100 C103 1.382 . S
C101 C99 1.384 . S
C101 C102 1.381 . S
C101 H125 0.930 . S
C102 C101 1.381 . S
C102 C104 1.381 . S
C102 C105 1.487 . S
C103 C100 1.382 . S
C103 C104 1.387 . S
C103 H126 0.930 . S
C104 C102 1.381 . S
C104 C103 1.387 . S
C104 H127 0.931 . S
C105 C98 1.399 . S
C105 C102 1.487 . S
C105 N137 1.343 . S
C106 C107 1.384 . S
C106 C108 1.384 . S
C106 H128 0.931 . S
C107 C106 1.384 . S
C107 C110 1.382 . S
C108 C106 1.384 . S
C108 C109 1.381 . S
C108 H129 0.930 . S
C109 C108 1.381 . S
C109 C111 1.381 . S
C109 C112 1.487 . S
C110 C107 1.382 . S
C110 C111 1.387 . S
C110 H130 0.930 . S
C111 C109 1.381 . S
C111 C110 1.387 . S
C111 H131 0.931 . S
C112 C109 1.487 . S
C112 C119 1.399 . S
C112 N137 1.343 . S
C113 C114 1.384 . S
C113 C115 1.384 . S
C113 H132 0.931 . S
C114 C113 1.384 . S
C114 C117 1.382 . S
C115 C113 1.384 . S
C115 C116 1.381 . S
C115 H133 0.930 . S
C116 C115 1.381 . S
C116 C118 1.381 . S
C116 C119 1.487 . S
C117 C114 1.382 . S
C117 C118 1.387 . S
C117 H134 0.930 . S
C118 C116 1.381 . S
C118 C117 1.387 . S
C118 H135 0.931 . S
C119 C112 1.399 . S
C119 C116 1.487 . S
C119 N136 1.343 . S
H120 C92 0.931 . S
H121 C94 0.930 . S
H122 C96 0.930 . S
H123 C97 0.931 . S
H124 C99 0.931 . S
H125 C101 0.930 . S
H126 C103 0.930 . S
H127 C104 0.931 . S
H128 C106 0.931 . S
H129 C108 0.930 . S
H130 C110 0.930 . S
H131 C111 0.931 . S
H132 C113 0.931 . S
H133 C115 0.930 . S
H134 C117 0.930 . S
H135 C118 0.931 . S
N136 C98 1.343 . S
N136 C119 1.343 . S
N137 C105 1.343 . S
N137 C112 1.343 . S
C138 C139 1.384 . S
C138 C140 1.384 . S
C138 H166 0.931 . S
C139 C138 1.384 . S
C139 C142 1.382 . S
C140 C138 1.384 . S
C140 C141 1.381 . S
C140 H167 0.930 . S
C141 C140 1.381 . S
C141 C143 1.381 . S
C141 C144 1.487 . S
C142 C139 1.382 . S
C142 C143 1.387 . S
C142 H168 0.930 . S
C143 C141 1.381 . S
C143 C142 1.387 . S
C143 H169 0.931 . S
C144 C141 1.487 . S
C144 C151 1.399 . S
C144 N182 1.343 . S
C145 C146 1.384 . S
C145 C147 1.384 . S
C145 H170 0.931 . S
C146 C145 1.384 . S
C146 C149 1.382 . S
C147 C145 1.384 . S
C147 C148 1.381 . S
C147 H171 0.930 . S
C148 C147 1.381 . S
C148 C150 1.381 . S
C148 C151 1.487 . S
C149 C146 1.382 . S
C149 C150 1.387 . S
C149 H172 0.930 . S
C150 C148 1.381 . S
C150 C149 1.387 . S
C150 H173 0.931 . S
C151 C144 1.399 . S
C151 C148 1.487 . S
C151 N183 1.343 1_655 S
C152 C153 1.384 . S
C152 C154 1.384 . S
C152 H174 0.931 . S
C153 C152 1.384 . S
C153 C156 1.382 . S
C154 C152 1.384 . S
C154 C155 1.381 . S
C154 H175 0.930 . S
C155 C154 1.381 . S
C155 C157 1.381 . S
C155 C158 1.487 . S
C156 C153 1.382 . S
C156 C157 1.387 . S
C156 H176 0.930 . S
C157 C155 1.381 . S
C157 C156 1.387 . S
C157 H177 0.931 . S
C158 C155 1.487 . S
C158 C165 1.399 . S
C158 N183 1.343 . S
C159 C160 1.384 . S
C159 C161 1.384 . S
C159 H178 0.931 . S
C160 C159 1.384 . S
C160 C163 1.382 . S
C161 C159 1.384 . S
C161 C162 1.381 . S
C161 H179 0.930 . S
C162 C161 1.381 . S
C162 C164 1.381 . S
C162 C165 1.487 . S
C163 C160 1.382 . S
C163 C164 1.387 . S
C163 H180 0.930 . S
C164 C162 1.381 . S
C164 C163 1.387 . S
C164 H181 0.931 . S
C165 C158 1.399 . S
C165 C162 1.487 . S
C165 N182 1.343 1_455 S
H166 C138 0.931 . S
H167 C140 0.930 . S
H168 C142 0.930 . S
H169 C143 0.931 . S
H170 C145 0.931 . S
H171 C147 0.930 . S
H172 C149 0.930 . S
H173 C150 0.931 . S
H174 C152 0.931 . S
H175 C154 0.930 . S
H176 C156 0.930 . S
H177 C157 0.931 . S
H178 C159 0.931 . S
H179 C161 0.930 . S
H180 C163 0.930 . S
H181 C164 0.931 . S
N182 C144 1.343 . S
N182 C165 1.343 1_655 S
N183 C151 1.343 1_455 S
N183 C158 1.343 . S
C184 C185 1.384 . S
C184 C186 1.384 . S
C184 H212 0.931 . S
C185 C184 1.384 . S
C185 C188 1.382 . S
C186 C184 1.384 . S
C186 C187 1.381 . S
C186 H213 0.930 1_556 S
C187 C186 1.381 . S
C187 C189 1.381 . S
C187 C190 1.487 . S
C188 C185 1.382 . S
C188 C189 1.387 . S
C188 H214 0.930 . S
C189 C187 1.381 . S
C189 C188 1.387 . S
C189 H215 0.931 . S
C190 C187 1.487 . S
C190 C197 1.399 1_556 S
C190 N228 1.343 . S
C191 C192 1.384 . S
C191 C193 1.384 . S
C191 H216 0.931 . S
C192 C191 1.384 . S
C192 C195 1.382 . S
C193 C191 1.384 . S
C193 C194 1.381 . S
C193 H217 0.930 . S
C194 C193 1.381 . S
C194 C196 1.381 . S
C194 C197 1.487 . S
C195 C192 1.382 . S
C195 C196 1.387 . S
C195 H218 0.930 . S
C196 C194 1.381 . S
C196 C195 1.387 . S
C196 H219 0.931 . S
C197 C190 1.399 1_554 S
C197 C194 1.487 . S
C197 N229 1.343 1_565 S
C198 C199 1.384 . S
C198 C200 1.384 1_554 S
C198 H220 0.935 . S
C199 C198 1.384 . S
C199 C202 1.382 . S
C200 C198 1.384 1_556 S
C200 C201 1.381 1_556 S
C200 H221 0.930 . S
C201 C200 1.381 1_554 S
C201 C203 1.381 . S
C201 C204 1.487 1_554 S
C202 C199 1.382 . S
C202 C203 1.387 . S
C202 H222 0.930 . S
C203 C201 1.381 . S
C203 C202 1.387 . S
C203 H223 0.931 . S
C204 C201 1.487 1_556 S
C204 C211 1.399 . S
C204 N229 1.343 1_556 S
C205 C206 1.384 . S
C205 C207 1.384 . S
C205 H224 0.931 . S
C206 C205 1.384 . S
C206 C209 1.382 . S
C207 C205 1.384 . S
C207 C208 1.381 . S
C207 H225 0.930 . S
C208 C207 1.381 . S
C208 C210 1.381 . S
C208 C211 1.487 . S
C209 C206 1.382 . S
C209 C210 1.387 . S
C209 H226 0.930 . S
C210 C208 1.381 . S
C210 C209 1.387 . S
C210 H227 0.931 . S
C211 C204 1.399 . S
C211 C208 1.487 . S
C211 N228 1.343 1_545 S
H212 C184 0.931 . S
H213 C186 0.930 1_554 S
H214 C188 0.930 . S
H215 C189 0.931 . S
H216 C191 0.931 . S
H217 C193 0.930 . S
H218 C195 0.930 . S
H219 C196 0.931 . S
H220 C198 0.935 . S
H221 C200 0.930 . S
H222 C202 0.930 . S
H223 C203 0.931 . S
H224 C205 0.931 . S
H225 C207 0.930 . S
H226 C209 0.930 . S
H227 C210 0.931 . S
N228 C190 1.343 . S
N228 C211 1.343 1_565 S
N229 C197 1.343 1_545 S
N229 C204 1.343 1_554 S
C230 C231 1.384 . S
C230 C232 1.384 . S
C230 H258 0.931 . S
C231 C230 1.384 . S
C231 C234 1.382 . S
C232 C230 1.384 . S
C232 C233 1.381 . S
C232 H259 0.930 . S
C233 C232 1.381 . S
C233 C235 1.381 . S
C233 C236 1.487 . S
C234 C231 1.382 . S
C234 C235 1.387 . S
C234 H260 0.930 . S
C235 C233 1.381 . S
C235 C234 1.387 . S
C235 H261 0.931 . S
C236 C233 1.487 . S
C236 C243 1.399 . S
C236 N274 1.343 . S
C237 C238 1.384 . S
C237 C239 1.384 . S
C237 H262 0.931 . S
C238 C237 1.384 . S
C238 C241 1.382 . S
C239 C237 1.384 . S
C239 C240 1.381 . S
C239 H263 0.930 . S
C240 C239 1.381 . S
C240 C242 1.381 . S
C240 C243 1.487 . S
C241 C238 1.382 . S
C241 C242 1.387 . S
C241 H264 0.930 . S
C242 C240 1.381 . S
C242 C241 1.387 . S
C242 H265 0.931 . S
C243 C236 1.399 . S
C243 C240 1.487 . S
C243 N275 1.343 . S
C244 C245 1.384 . S
C244 C246 1.384 . S
C244 H266 0.931 . S
C245 C244 1.384 . S
C245 C248 1.382 . S
C246 C244 1.384 . S
C246 C247 1.381 . S
C246 H267 0.930 . S
C247 C246 1.381 . S
C247 C249 1.381 . S
C247 C250 1.487 . S
C248 C245 1.382 . S
C248 C249 1.387 . S
C248 H268 0.930 . S
C249 C247 1.381 . S
C249 C248 1.387 . S
C249 H269 0.931 . S
C250 C247 1.487 . S
C250 C257 1.399 . S
C250 N275 1.343 . S
C251 C252 1.384 . S
C251 C253 1.384 . S
C251 H270 0.931 . S
C252 C251 1.384 . S
C252 C255 1.382 . S
C253 C251 1.384 . S
C253 C254 1.381 . S
C253 H271 0.930 . S
C254 C253 1.381 . S
C254 C256 1.381 . S
C254 C257 1.487 . S
C255 C252 1.382 . S
C255 C256 1.387 . S
C255 H272 0.930 . S
C256 C254 1.381 . S
C256 C255 1.387 . S
C256 H273 0.931 . S
C257 C250 1.399 . S
C257 C254 1.487 . S
C257 N274 1.343 . S
H258 C230 0.931 . S
H259 C232 0.930 . S
H260 C234 0.930 . S
H261 C235 0.931 . S
H262 C237 0.931 . S
H263 C239 0.930 . S
H264 C241 0.930 . S
H265 C242 0.931 . S
H266 C244 0.931 . S
H267 C246 0.930 . S
H268 C248 0.930 . S
H269 C249 0.931 . S
H270 C251 0.931 . S
H271 C253 0.930 . S
H272 C255 0.930 . S
H273 C256 0.931 . S
N274 C236 1.343 . S
N274 C257 1.343 . S
N275 C243 1.343 . S
N275 C250 1.343 . S
C276 O277 1.160 . S
C276 O283 1.185 . S
O277 C276 1.160 . S
O278 Zn279 1.899 . S
O278 C286 1.284 . S
Zn279 O278 1.899 . S
Zn279 O280 2.032 . S
Zn279 O283 2.086 . S
Zn279 O288 1.977 . S
O280 Zn279 2.032 . S
O280 C284 1.278 . S
C281 O282 1.203 . S
C281 O288 1.267 . S
O282 C281 1.203 . S
O283 C276 1.185 . S
O283 Zn279 2.086 . S
C284 O280 1.278 . S
C284 O285 1.211 . S
O285 C284 1.211 . S
C286 O278 1.284 . S
C286 O287 1.273 . S
O287 C286 1.273 . S
O288 Zn279 1.977 . S
O288 C281 1.267 . S
C289 O290 1.160 . S
C289 O296 1.185 . S
O290 C289 1.160 . S
O291 Zn292 1.899 . S
O291 C299 1.284 . S
Zn292 O291 1.899 . S
Zn292 O293 2.032 . S
Zn292 O296 2.086 . S
Zn292 O301 1.977 . S
O293 Zn292 2.032 . S
O293 C297 1.278 . S
C294 O295 1.203 . S
C294 O301 1.267 . S
O295 C294 1.203 . S
O296 C289 1.185 . S
O296 Zn292 2.086 . S
C297 O293 1.278 . S
C297 O298 1.211 . S
O298 C297 1.211 . S
C299 O291 1.284 . S
C299 O300 1.273 . S
O300 C299 1.273 . S
O301 Zn292 1.977 . S
O301 C294 1.267 . S
C302 O303 1.160 . S
C302 O309 1.185 . S
O303 C302 1.160 . S
O304 Zn305 1.899 . S
O304 C312 1.284 . S
Zn305 O304 1.899 . S
Zn305 O306 2.032 . S
Zn305 O309 2.086 . S
Zn305 O314 1.977 . S
O306 Zn305 2.032 . S
O306 C310 1.278 . S
C307 O308 1.203 . S
C307 O314 1.267 . S
O308 C307 1.203 . S
O309 C302 1.185 . S
O309 Zn305 2.086 . S
C310 O306 1.278 . S
C310 O311 1.211 . S
O311 C310 1.211 . S
C312 O304 1.284 . S
C312 O313 1.273 . S
O313 C312 1.273 . S
O314 Zn305 1.977 . S
O314 C307 1.267 . S
C315 O316 1.160 . S
C315 O322 1.185 . S
O316 C315 1.160 . S
O317 Zn318 1.899 . S
O317 C325 1.284 . S
Zn318 O317 1.899 . S
Zn318 O319 2.032 . S
Zn318 O322 2.086 . S
Zn318 O327 1.977 . S
O319 Zn318 2.032 . S
O319 C323 1.278 . S
C320 O321 1.203 . S
C320 O327 1.267 . S
O321 C320 1.203 . S
O322 C315 1.185 . S
O322 Zn318 2.086 . S
C323 O319 1.278 . S
C323 O324 1.211 . S
O324 C323 1.211 . S
C325 O317 1.284 . S
C325 O326 1.273 . S
O326 C325 1.273 . S
O327 Zn318 1.977 . S
O327 C320 1.267 . S
C328 O329 1.160 . S
C328 O335 1.185 . S
O329 C328 1.160 . S
O330 Zn331 1.899 . S
O330 C338 1.284 . S
Zn331 O330 1.899 . S
Zn331 O332 2.032 . S
Zn331 O335 2.086 . S
Zn331 O340 1.977 . S
O332 Zn331 2.032 . S
O332 C336 1.278 . S
C333 O334 1.203 . S
C333 O340 1.267 . S
O334 C333 1.203 . S
O335 C328 1.185 . S
O335 Zn331 2.086 . S
C336 O332 1.278 . S
C336 O337 1.211 . S
O337 C336 1.211 . S
C338 O330 1.284 . S
C338 O339 1.273 . S
O339 C338 1.273 . S
O340 Zn331 1.977 . S
O340 C333 1.267 . S
C341 O342 1.160 . S
C341 O348 1.185 . S
O342 C341 1.160 . S
O343 Zn344 1.899 . S
O343 C351 1.284 . S
Zn344 O343 1.899 . S
Zn344 O345 2.032 . S
Zn344 O348 2.086 . S
Zn344 O353 1.977 . S
O345 Zn344 2.032 . S
O345 C349 1.278 . S
C346 O347 1.203 . S
C346 O353 1.267 . S
O347 C346 1.203 . S
O348 C341 1.185 . S
O348 Zn344 2.086 . S
C349 O345 1.278 . S
C349 O350 1.211 . S
O350 C349 1.211 . S
C351 O343 1.284 . S
C351 O352 1.273 . S
O352 C351 1.273 . S
O353 Zn344 1.977 . S
O353 C346 1.267 . S
C354 C355 1.387 . S
C354 H358 0.950 . S
C354 C363 1.390 . S
C355 C354 1.387 . S
C355 C357 1.387 . S
H356 C363 0.950 . S
C357 C355 1.387 . S
C357 C359 1.390 . S
C357 H361 0.950 . S
H358 C354 0.950 . S
C359 C357 1.390 . S
C359 C360 1.387 . S
C359 H362 0.950 . S
C360 C359 1.387 . S
C360 C363 1.387 . S
H361 C357 0.950 . S
H362 C359 0.950 . S
C363 C354 1.390 . S
C363 H356 0.950 . S
C363 C360 1.387 . S
C364 C365 1.387 . S
C364 H368 0.950 . S
C364 C373 1.390 . S
C365 C364 1.387 . S
C365 C367 1.387 . S
H366 C373 0.950 . S
C367 C365 1.387 . S
C367 C369 1.390 . S
C367 H371 0.950 . S
H368 C364 0.950 . S
C369 C367 1.390 . S
C369 C370 1.387 . S
C369 H372 0.950 . S
C370 C369 1.387 . S
C370 C373 1.387 . S
H371 C367 0.950 . S
H372 C369 0.950 . S
C373 C364 1.390 . S
C373 H366 0.950 . S
C373 C370 1.387 . S
C374 C375 1.387 . S
C374 H378 0.950 . S
C374 C383 1.390 . S
C375 C374 1.387 . S
C375 C377 1.387 . S
H376 C383 0.950 . S
C377 C375 1.387 . S
C377 C379 1.390 . S
C377 H381 0.950 . S
H378 C374 0.950 . S
C379 C377 1.390 . S
C379 C380 1.387 . S
C379 H382 0.950 . S
C380 C379 1.387 . S
C380 C383 1.387 . S
H381 C377 0.950 . S
H382 C379 0.950 . S
C383 C374 1.390 . S
C383 H376 0.950 . S
C383 C380 1.387 . S
C384 C385 1.387 . S
C384 H388 0.950 . S
C384 C393 1.390 . S
C385 C384 1.387 . S
C385 C387 1.387 . S
H386 C393 0.950 . S
C387 C385 1.387 . S
C387 C389 1.390 . S
C387 H391 0.950 . S
H388 C384 0.950 . S
C389 C387 1.390 . S
C389 C390 1.387 . S
C389 H392 0.950 . S
C390 C389 1.387 . S
C390 C393 1.387 . S
H391 C387 0.950 . S
H392 C389 0.950 . S
C393 C384 1.390 . S
C393 H386 0.950 . S
C393 C390 1.387 . S
C394 C395 1.387 . S
C394 H398 0.950 . S
C394 C403 1.390 . S
C395 C394 1.387 . S
C395 C397 1.387 . S
H396 C403 0.950 . S
C397 C395 1.387 . S
C397 C399 1.390 . S
C397 H401 0.950 . S
H398 C394 0.950 . S
C399 C397 1.390 . S
C399 C400 1.387 . S
C399 H402 0.950 . S
C400 C399 1.387 . S
C400 C403 1.387 . S
H401 C397 0.950 . S
H402 C399 0.950 . S
C403 C394 1.390 . S
C403 H396 0.950 . S
C403 C400 1.387 . S
C404 C405 1.387 . S
C404 H408 0.950 . S
C404 C413 1.390 . S
C405 C404 1.387 . S
C405 C407 1.387 . S
H406 C413 0.950 . S
C407 C405 1.387 . S
C407 C409 1.390 . S
C407 H411 0.950 . S
H408 C404 0.950 . S
C409 C407 1.390 . S
C409 C410 1.387 . S
C409 H412 0.950 . S
C410 C409 1.387 . S
C410 C413 1.387 . S
H411 C407 0.950 . S
H412 C409 0.950 . S
C413 C404 1.390 . S
C413 H406 0.950 . S
C413 C410 1.387 . S
C414 C415 1.387 . S
C414 H418 0.950 . S
C414 C423 1.390 . S
C415 C414 1.387 . S
C415 C417 1.387 . S
H416 C423 0.950 . S
C417 C415 1.387 . S
C417 C419 1.390 . S
C417 H421 0.950 . S
H418 C414 0.950 . S
C419 C417 1.390 . S
C419 C420 1.387 . S
C419 H422 0.950 . S
C420 C419 1.387 . S
C420 C423 1.387 . S
H421 C417 0.950 . S
H422 C419 0.950 . S
C423 C414 1.390 . S
C423 H416 0.950 . S
C423 C420 1.387 . S
C424 C425 1.387 . S
C424 H428 0.950 . S
C424 C433 1.390 . S
C425 C424 1.387 . S
C425 C427 1.387 . S
H426 C433 0.950 . S
C427 C425 1.387 . S
C427 C429 1.390 . S
C427 H431 0.950 . S
H428 C424 0.950 . S
C429 C427 1.390 . S
C429 C430 1.387 . S
C429 H432 0.950 . S
C430 C429 1.387 . S
C430 C433 1.387 . S
H431 C427 0.950 . S
H432 C429 0.950 . S
C433 C424 1.390 . S
C433 H426 0.950 . S
C433 C430 1.387 . S
C434 C435 1.387 . S
C434 H438 0.950 . S
C434 C443 1.390 . S
C435 C434 1.387 . S
C435 C437 1.387 . S
H436 C443 0.950 . S
C437 C435 1.387 . S
C437 C439 1.390 . S
C437 H441 0.950 . S
H438 C434 0.950 . S
C439 C437 1.390 . S
C439 C440 1.387 . S
C439 H442 0.950 . S
C440 C439 1.387 . S
C440 C443 1.387 . S
H441 C437 0.950 . S
H442 C439 0.950 . S
C443 C434 1.390 . S
C443 H436 0.950 . S
C443 C440 1.387 . S
C444 C445 1.387 . S
C444 H448 0.950 . S
C444 C453 1.390 . S
C445 C444 1.387 . S
C445 C447 1.387 . S
H446 C453 0.950 . S
C447 C445 1.387 . S
C447 C449 1.390 . S
C447 H451 0.950 1_554 S
H448 C444 0.950 . S
C449 C447 1.390 . S
C449 C450 1.387 . S
C449 H452 0.950 . S
C450 C449 1.387 . S
C450 C453 1.387 . S
H451 C447 0.950 1_556 S
H452 C449 0.950 . S
C453 C444 1.390 . S
C453 H446 0.950 . S
C453 C450 1.387 . S
C454 C455 1.387 . S
C454 H458 0.950 . S
C454 C463 1.390 . S
C455 C454 1.387 . S
C455 C457 1.387 . S
H456 C463 0.950 . S
C457 C455 1.387 . S
C457 C459 1.390 . S
C457 H461 0.950 . S
H458 C454 0.950 . S
C459 C457 1.390 . S
C459 C460 1.387 . S
C459 H462 0.950 . S
C460 C459 1.387 . S
C460 C463 1.387 . S
H461 C457 0.950 . S
H462 C459 0.950 . S
C463 C454 1.390 . S
C463 H456 0.950 . S
C463 C460 1.387 . S
C464 C465 1.387 . S
C464 H468 0.950 . S
C464 C473 1.390 . S
C465 C464 1.387 . S
C465 C467 1.387 . S
H466 C473 0.950 . S
C467 C465 1.387 . S
C467 C469 1.390 . S
C467 H471 0.950 . S
H468 C464 0.950 . S
C469 C467 1.390 . S
C469 C470 1.387 . S
C469 H472 0.950 . S
C470 C469 1.387 . S
C470 C473 1.387 . S
H471 C467 0.950 . S
H472 C469 0.950 . S
C473 C464 1.390 . S
C473 H466 0.950 . S
C473 C470 1.387 . S
C474 C475 1.387 . S
C474 H478 0.950 . S
C474 C483 1.390 . S
C475 C474 1.387 . S
C475 C477 1.387 . S
H476 C483 0.950 . S
C477 C475 1.387 . S
C477 C479 1.390 . S
C477 H481 0.950 . S
H478 C474 0.950 . S
C479 C477 1.390 . S
C479 C480 1.387 . S
C479 H482 0.950 . S
C480 C479 1.387 . S
C480 C483 1.387 . S
H481 C477 0.950 . S
H482 C479 0.950 . S
C483 C474 1.390 . S
C483 H476 0.950 . S
C483 C480 1.387 . S
C484 C485 1.387 . S
C484 H488 0.950 . S
C484 C493 1.390 . S
C485 C484 1.387 . S
C485 C487 1.387 . S
H486 C493 0.950 . S
C487 C485 1.387 . S
C487 C489 1.390 . S
C487 H491 0.950 . S
H488 C484 0.950 . S
C489 C487 1.390 . S
C489 C490 1.387 . S
C489 H492 0.950 . S
C490 C489 1.387 . S
C490 C493 1.387 . S
H491 C487 0.950 . S
H492 C489 0.950 . S
C493 C484 1.390 . S
C493 H486 0.950 . S
C493 C490 1.387 . S
C494 C495 1.387 . S
C494 H498 0.950 . S
C494 C503 1.390 . S
C495 C494 1.387 . S
C495 C497 1.387 . S
H496 C503 0.950 . S
C497 C495 1.387 . S
C497 C499 1.390 . S
C497 H501 0.950 . S
H498 C494 0.950 . S
C499 C497 1.390 . S
C499 C500 1.387 . S
C499 H502 0.950 . S
C500 C499 1.387 . S
C500 C503 1.387 . S
H501 C497 0.950 . S
H502 C499 0.950 . S
C503 C494 1.390 . S
C503 H496 0.950 . S
C503 C500 1.387 . S
C504 C505 1.387 . S
C504 H508 0.950 . S
C504 C513 1.390 . S
C505 C504 1.387 . S
C505 C507 1.387 . S
H506 C513 0.950 . S
C507 C505 1.387 . S
C507 C509 1.390 . S
C507 H511 0.950 . S
H508 C504 0.950 . S
C509 C507 1.390 . S
C509 C510 1.387 . S
C509 H512 0.950 . S
C510 C509 1.387 . S
C510 C513 1.387 . S
H511 C507 0.950 . S
H512 C509 0.950 . S
C513 C504 1.390 . S
C513 H506 0.950 . S
C513 C510 1.387 . S
C514 C515 1.387 . S
C514 H518 0.950 . S
C514 C523 1.390 . S
C515 C514 1.387 . S
C515 C517 1.387 . S
H516 C523 0.950 . S
C517 C515 1.387 . S
C517 C519 1.390 . S
C517 H521 0.950 . S
H518 C514 0.950 . S
C519 C517 1.390 . S
C519 C520 1.387 . S
C519 H522 0.950 . S
C520 C519 1.387 . S
C520 C523 1.387 . S
H521 C517 0.950 . S
H522 C519 0.950 . S
C523 C514 1.390 . S
C523 H516 0.950 . S
C523 C520 1.387 . S
C524 C525 1.387 . S
C524 H528 0.950 . S
C524 C533 1.390 . S
C525 C524 1.387 . S
C525 C527 1.387 . S
H526 C533 0.950 . S
C527 C525 1.387 . S
C527 C529 1.390 . S
C527 H531 0.950 . S
H528 C524 0.950 . S
C529 C527 1.390 . S
C529 C530 1.387 . S
C529 H532 0.950 . S
C530 C529 1.387 . S
C530 C533 1.387 . S
H531 C527 0.950 . S
H532 C529 0.950 . S
C533 C524 1.390 . S
C533 H526 0.950 . S
C533 C530 1.387 . S
C534 C535 1.387 . S
C534 H538 0.950 . S
C534 C543 1.390 . S
C535 C534 1.387 . S
C535 C537 1.387 . S
H536 C543 0.950 . S
C537 C535 1.387 . S
C537 C539 1.390 . S
C537 H541 0.950 . S
H538 C534 0.950 . S
C539 C537 1.390 . S
C539 C540 1.387 . S
C539 H542 0.950 . S
C540 C539 1.387 . S
C540 C543 1.387 . S
H541 C537 0.950 . S
H542 C539 0.950 . S
C543 C534 1.390 . S
C543 H536 0.950 . S
C543 C540 1.387 . S
C544 C545 1.387 . S
C544 H548 0.950 . S
C544 C553 1.390 . S
C545 C544 1.387 . S
C545 C547 1.387 . S
H546 C553 0.950 . S
C547 C545 1.387 . S
C547 C549 1.390 . S
C547 H551 0.950 . S
H548 C544 0.950 . S
C549 C547 1.390 . S
C549 C550 1.387 . S
C549 H552 0.950 . S
C550 C549 1.387 . S
C550 C553 1.387 . S
H551 C547 0.950 . S
H552 C549 0.950 . S
C553 C544 1.390 . S
C553 H546 0.950 . S
C553 C550 1.387 . S
C554 C555 1.387 . S
C554 H558 0.950 . S
C554 C563 1.390 . S
C555 C554 1.387 . S
C555 C557 1.387 . S
H556 C563 0.950 . S
C557 C555 1.387 . S
C557 C559 1.390 . S
C557 H561 0.950 . S
H558 C554 0.950 . S
C559 C557 1.390 . S
C559 C560 1.387 . S
C559 H562 0.950 . S
C560 C559 1.387 . S
C560 C563 1.387 . S
H561 C557 0.950 . S
H562 C559 0.950 . S
C563 C554 1.390 . S
C563 H556 0.950 . S
C563 C560 1.387 . S
C564 C565 1.387 . S
C564 H568 0.950 . S
C564 C573 1.390 . S
C565 C564 1.387 . S
C565 C567 1.387 . S
H566 C573 0.950 . S
C567 C565 1.387 . S
C567 C569 1.390 . S
C567 H571 0.950 . S
H568 C564 0.950 . S
C569 C567 1.390 . S
C569 C570 1.387 . S
C569 H572 0.950 . S
C570 C569 1.387 . S
C570 C573 1.387 . S
H571 C567 0.950 . S
H572 C569 0.950 . S
C573 C564 1.390 . S
C573 H566 0.950 . S
C573 C570 1.387 . S
C574 C575 1.387 . S
C574 H578 0.950 . S
C574 C583 1.390 1_554 S
C575 C574 1.387 . S
C575 C577 1.387 1_554 S
H576 C583 0.949 1_554 S
C577 C575 1.387 1_556 S
C577 C579 1.390 . S
C577 H581 0.950 . S
H578 C574 0.950 . S
C579 C577 1.390 . S
C579 C580 1.387 . S
C579 H582 0.950 . S
C580 C579 1.387 . S
C580 C583 1.387 . S
H581 C577 0.950 . S
H582 C579 0.950 . S
C583 C574 1.390 1_556 S
C583 H576 0.949 1_556 S
C583 C580 1.387 . S
C584 C585 1.387 . S
C584 H588 0.950 . S
C584 C593 1.390 . S
C585 C584 1.387 . S
C585 C587 1.387 . S
H586 C593 0.950 . S
C587 C585 1.387 . S
C587 C589 1.390 . S
C587 H591 0.950 . S
H588 C584 0.950 . S
C589 C587 1.390 . S
C589 C590 1.387 . S
C589 H592 0.950 . S
C590 C589 1.387 . S
C590 C593 1.387 . S
H591 C587 0.950 . S
H592 C589 0.950 . S
C593 C584 1.390 . S
C593 H586 0.950 . S
C593 C590 1.387 . S
C360 C351 1.669 . S
C355 C15 1.619 . S
C365 C61 1.588 . S
C370 C276 1.516 . S
C375 C114 1.636 . S
C380 C299 1.698 . S
C385 C139 1.492 . S
C390 C312 1.506 . S
C400 C315 1.563 . S
C395 C185 1.651 . S
C405 C245 1.524 . S
C410 C328 1.467 . S
C415 C47 1.544 . S
C420 C289 1.469 . S
C425 C100 1.651 . S
C430 C302 1.563 . S
C435 C153 1.478 . S
C440 C325 1.506 . S
C450 C338 1.699 . S
C445 C199 1.638 . S
C460 C341 1.516 . S
C455 C231 1.609 . S
C470 C286 1.668 . S
C465 C1 1.638 . S
C475 C22 1.487 . S
C480 C297 1.456 . S
C485 C68 1.456 . S
C490 C310 1.427 . S
C500 C320 1.439 . S
C495 C107 1.488 . S
C505 C146 1.484 . S
C510 C333 1.423 1_556 S
C520 C349 1.462 . S
C515 C192 1.501 . S
C530 C281 1.411 . S
C525 C252 1.454 . S
C540 C346 1.407 . S
C535 C54 1.457 . S
C545 C93 1.500 . S
C550 C284 1.459 . S
C560 C294 1.422 . S
C555 C160 1.474 . S
C565 C206 1.489 . S
C570 C307 1.440 . S
C575 C238 1.458 . S
C580 C323 1.425 . S
C585 C8 1.492 . S
C590 C336 1.456 . S
