# Generated by pormake.
# Topology zzz, (3,6)-cn, num edge types: 1
# Building blocks:
#     Node 0, Type 0, BuildingBlock: ESEHIV_clean_linker_0, # of connection points: 3
#     Node 1, Type 0, BuildingBlock: ESEHIV_clean_linker_0, # of connection points: 3
#     Node 2, Type 0, BuildingBlock: ESEHIV_clean_linker_0, # of connection points: 3
#     Node 3, Type 0, BuildingBlock: ESEHIV_clean_linker_0, # of connection points: 3
#     Node 4, Type 0, BuildingBlock: ESEHIV_clean_linker_0, # of connection points: 3
#     Node 5, Type 0, BuildingBlock: ESEHIV_clean_linker_0, # of connection points: 3
#     Node 6, Type 0, BuildingBlock: ESEHIV_clean_linker_0, # of connection points: 3
#     Node 7, Type 0, BuildingBlock: ESEHIV_clean_linker_0, # of connection points: 3
#     Node 8, Type 1, BuildingBlock: CUWYAW_clean_sbu_0, # of connection points: 6
#     Node 9, Type 1, BuildingBlock: CUWYAW_clean_sbu_0, # of connection points: 6
#     Node 10, Type 1, BuildingBlock: CUWYAW_clean_sbu_0, # of connection points: 6
#     Node 11, Type 1, BuildingBlock: CUWYAW_clean_sbu_0, # of connection points: 6
#     Edge 12, Type (0, 1), BuildingBlock: EZIPEK_clean_linker_0, # of connection points: 2
#     Edge 13, Type (0, 1), BuildingBlock: EZIPEK_clean_linker_0, # of connection points: 2
#     Edge 14, Type (0, 1), BuildingBlock: EZIPEK_clean_linker_0, # of connection points: 2
#     Edge 15, Type (0, 1), BuildingBlock: EZIPEK_clean_linker_0, # of connection points: 2
#     Edge 16, Type (0, 1), BuildingBlock: EZIPEK_clean_linker_0, # of connection points: 2
#     Edge 17, Type (0, 1), BuildingBlock: EZIPEK_clean_linker_0, # of connection points: 2
#     Edge 18, Type (0, 1), BuildingBlock: EZIPEK_clean_linker_0, # of connection points: 2
#     Edge 19, Type (0, 1), BuildingBlock: EZIPEK_clean_linker_0, # of connection points: 2
#     Edge 20, Type (0, 1), BuildingBlock: EZIPEK_clean_linker_0, # of connection points: 2
#     Edge 21, Type (0, 1), BuildingBlock: EZIPEK_clean_linker_0, # of connection points: 2
#     Edge 22, Type (0, 1), BuildingBlock: EZIPEK_clean_linker_0, # of connection points: 2
#     Edge 23, Type (0, 1), BuildingBlock: EZIPEK_clean_linker_0, # of connection points: 2
#     Edge 24, Type (0, 1), BuildingBlock: EZIPEK_clean_linker_0, # of connection points: 2
#     Edge 25, Type (0, 1), BuildingBlock: EZIPEK_clean_linker_0, # of connection points: 2
#     Edge 26, Type (0, 1), BuildingBlock: EZIPEK_clean_linker_0, # of connection points: 2
#     Edge 27, Type (0, 1), BuildingBlock: EZIPEK_clean_linker_0, # of connection points: 2
#     Edge 28, Type (0, 1), BuildingBlock: EZIPEK_clean_linker_0, # of connection points: 2
#     Edge 29, Type (0, 1), BuildingBlock: EZIPEK_clean_linker_0, # of connection points: 2
#     Edge 30, Type (0, 1), BuildingBlock: EZIPEK_clean_linker_0, # of connection points: 2
#     Edge 31, Type (0, 1), BuildingBlock: EZIPEK_clean_linker_0, # of connection points: 2
#     Edge 32, Type (0, 1), BuildingBlock: EZIPEK_clean_linker_0, # of connection points: 2
#     Edge 33, Type (0, 1), BuildingBlock: EZIPEK_clean_linker_0, # of connection points: 2
#     Edge 34, Type (0, 1), BuildingBlock: EZIPEK_clean_linker_0, # of connection points: 2
#     Edge 35, Type (0, 1), BuildingBlock: EZIPEK_clean_linker_0, # of connection points: 2
# Relax obj value: 0.620
# Max RMSD: 0.245
# Mean RMSD: 0.232
data_MOF--net-zzz--node1-CUWYAW_clean_sbu_0--node2-ESEHIV_clean_linker_0--edge1-EZIPEK_clean_linker_0
_symmetry_space_group_name_H-M    P1
_symmetry_Int_Tables_number       1
_symmetry_cell_setting            triclinic
loop_
_symmetry_equiv_pos_as_xyz
'x, y, z'
_cell_length_a     32.244016
_cell_length_b     32.306368
_cell_length_c     11.0734
_cell_angle_alpha  89.681087
_cell_angle_beta   89.68959
_cell_angle_gamma 89.927941
loop_
_atom_site_label
_atom_site_type_symbol
_atom_site_fract_x
_atom_site_fract_y
_atom_site_fract_z
_atom_type_partial_charge
H0 H 0.82441 0.46861 0.2921 0.0
H1 H 0.70748 0.47127 0.11558 0.0
H2 H 0.73241 0.55937 0.39917 0.0
C3 C 0.79444 0.48346 0.28143 0.0
C4 C 0.78315 0.51584 0.35906 0.0
C5 C 0.76655 0.46698 0.19811 0.0
C6 C 0.72809 0.48497 0.18155 0.0
C7 C 0.71508 0.5192 0.24789 0.0
C8 C 0.74257 0.53447 0.34113 0.0
H9 H 0.05155 0.81319 0.30124 0.0
H10 H 0.03354 0.7056 0.08802 0.0
H11 H 0.96747 0.71803 0.42852 0.0
C12 C 0.03665 0.78324 0.29208 0.0
C13 C 1.00906 0.76982 0.3818 0.0
C14 C 0.0451 0.76018 0.18847 0.0
C15 C 0.02674 0.72219 0.17089 0.0
C16 C 0.99846 0.70602 0.25427 0.0
C17 C 0.98924 0.72997 0.36236 0.0
H18 H 0.71233 0.06388 0.27996 0.0
H19 H 0.82776 0.05045 0.09572 0.0
H20 H 0.80003 0.97081 0.40117 0.0
C21 C 0.74147 0.04727 0.27141 0.0
C22 C 0.75108 0.01543 0.35387 0.0
C23 C 0.7696 0.0601 0.1824 0.0
C24 C 0.80687 0.0396 0.16642 0.0
C25 C 0.81871 1.00683 0.24106 0.0
C26 C 0.7908 0.99484 0.33835 0.0
H27 H 0.46484 0.7101 0.29723 0.0
H28 H 0.56284 0.79384 0.40104 0.0
H29 H 0.46766 0.83267 0.15166 0.0
C30 C 0.47989 0.74009 0.29246 0.0
C31 C 0.46337 0.77069 0.21615 0.0
C32 C 0.51368 0.74825 0.36836 0.0
C33 C 0.53509 0.7872 0.35024 0.0
C34 C 0.51942 0.81742 0.26478 0.0
C35 C 0.48159 0.80939 0.20993 0.0
H36 H 0.21128 0.57612 0.22268 0.0
H37 H 0.32731 0.57688 0.40801 0.0
H38 H 0.2941 0.47183 0.18776 0.0
C39 C 0.2402 0.56065 0.24436 0.0
C40 C 0.2489 0.52234 0.19202 0.0
C41 C 0.26843 0.58028 0.32044 0.0
C42 C 0.30583 0.56102 0.34906 0.0
C43 C 0.3154 0.52126 0.30702 0.0
C44 C 0.28697 0.50199 0.22457 0.0
H45 H 0.96768 0.20194 0.26373 0.0
H46 H 0.97573 0.31725 0.44636 0.0
H47 H 0.05999 0.29153 0.15036 0.0
C48 C 0.98342 0.23136 0.27418 0.0
C49 C 0.01584 0.24181 0.19462 0.0
C50 C 0.96862 0.25906 0.36109 0.0
C51 C 0.9882 0.29661 0.37807 0.0
C52 C 0.02183 0.3092 0.30695 0.0
C53 C 0.03553 0.28175 0.21135 0.0
H54 H 0.31337 0.95568 0.23507 0.0
H55 H 0.19115 0.95915 0.38535 0.0
H56 H 0.2336 0.05994 0.15753 0.0
C57 C 0.2839 0.97168 0.244 0.0
C58 C 0.27715 1.00798 0.17693 0.0
C59 C 0.25305 0.95439 0.31837 0.0
C60 C 0.21479 0.97373 0.32935 0.0
C61 C 0.20815 1.01341 0.28291 0.0
C62 C 0.23908 0.03039 0.20109 0.0
H63 H 0.57228 0.30087 0.15428 0.0
H64 H 0.4589 0.23291 0.19015 0.0
H65 H 0.56618 0.20064 0.40182 0.0
C66 C 0.55389 0.27891 0.2045 0.0
C67 C 0.56903 0.25954 0.30912 0.0
C68 C 0.51341 0.27257 0.16489 0.0
C69 C 0.49069 0.23837 0.21642 0.0
C70 C 0.51058 0.21118 0.30202 0.0
C71 C 0.5505 0.22163 0.34065 0.0
C72 C 0.91641 0.04428 0.62381 0.0
Eu73 Eu 0.98334 0.01616 0.72802 0.0
C74 C 0.89975 0.08503 0.592 0.0
C75 C 0.86237 0.09924 0.64352 0.0
C76 C 0.84868 0.1397 0.62084 0.0
C77 C 0.87153 0.16542 0.54313 0.0
C78 C 0.90748 0.14982 0.48666 0.0
C79 C 0.92215 0.11083 0.51409 0.0
C80 C 0.96597 0.98185 0.95217 0.0
C81 C 0.0224 0.09054 0.89057 0.0
C82 C 0.12563 0.97906 0.91728 0.0
Eu83 Eu 0.05393 1.00115 0.82625 0.0
C84 C 0.15575 0.9459 0.8937 0.0
C85 C 0.17962 0.93132 0.99077 0.0
C86 C 0.18085 0.88876 1.01394 0.0
C87 C 0.15849 0.8623 0.93887 0.0
C88 C 0.14752 0.87619 0.82328 0.0
C89 C 0.14647 0.91864 0.80016 0.0
C90 C 0.06967 0.03877 0.60678 0.0
C91 C 1.01097 0.92383 0.67333 0.0
O92 O 0.94935 0.03198 0.56508 0.0
O93 O 0.91894 0.03655 0.7387 0.0
O94 O 0.95337 0.96777 0.84956 0.0
O95 O 0.99324 1.00944 0.92914 0.0
O96 O 1.00238 0.08295 0.78832 0.0
O97 O 0.04157 0.05872 0.93964 0.0
O98 O 0.08949 0.96648 0.9564 0.0
O99 O 0.12173 1.0075 0.8351 0.0
O100 O 0.08109 0.05222 0.71073 0.0
O101 O 0.04426 1.00921 0.62674 0.0
O102 O 0.0388 0.93401 0.75678 0.0
O103 O 0.98594 0.95329 0.63646 0.0
H104 H 0.84477 0.07968 0.70479 0.0
H105 H 0.82133 0.15133 0.66648 0.0
H106 H 0.92606 0.16851 0.42633 0.0
H107 H 0.95132 0.10113 0.47415 0.0
H108 H 0.18956 0.95197 0.06123 0.0
H109 H 0.18964 0.87828 0.10316 0.0
H110 H 0.13196 0.85548 0.76194 0.0
H111 H 0.13079 0.93003 0.72085 0.0
C112 C 0.47665 0.91777 0.60377 0.0
Eu113 Eu 0.50761 0.97974 0.72288 0.0
C114 C 0.43503 0.90232 0.57811 0.0
C115 C 0.42398 0.86154 0.60988 0.0
C116 C 0.38377 0.8472 0.58828 0.0
C117 C 0.35478 0.87361 0.53459 0.0
C118 C 0.36646 0.91394 0.5003 0.0
C119 C 0.40598 0.92829 0.52283 0.0
C120 C 0.54334 0.95455 0.9393 0.0
C121 C 0.43368 0.01772 0.8912 0.0
C122 C 0.559 0.10125 0.97921 0.0
Eu123 Eu 0.52664 0.04424 0.84581 0.0
C124 C 0.59624 0.12641 0.98778 0.0
C125 C 0.61301 0.14748 0.88792 0.0
C126 C 0.65285 0.1641 0.89488 0.0
C127 C 0.67602 0.16011 1.00131 0.0
C128 C 0.65679 0.14253 0.10436 0.0
C129 C 0.61756 0.12559 0.09699 0.0
C130 C 0.4905 0.07258 0.6352 0.0
C131 C 0.59955 1.00762 0.66408 0.0
O132 O 0.48795 0.91527 0.71587 0.0
O133 O 0.48721 0.95294 0.55393 0.0
O134 O 0.55603 0.94447 0.8323 0.0
O135 O 0.51494 0.98142 0.92542 0.0
O136 O 0.4415 1.00059 0.78476 0.0
O137 O 0.46576 0.03341 0.9476 0.0
O138 O 0.56417 0.06171 0.9986 0.0
O139 O 0.53284 0.10933 0.89319 0.0
O140 O 0.48022 0.08337 0.74359 0.0
O141 O 0.51761 0.04386 0.64417 0.0
O142 O 0.59186 0.02959 0.76272 0.0
O143 O 0.56861 0.98619 0.62006 0.0
H144 H 0.44633 0.84105 0.65196 0.0
H145 H 0.37523 0.8159 0.61296 0.0
H146 H 0.34481 0.93471 0.45655 0.0
H147 H 0.41361 0.95976 0.49681 0.0
H148 H 0.59671 0.14863 0.80267 0.0
H149 H 0.6668 0.17674 0.81442 0.0
H150 H 0.67325 0.13783 0.18824 0.0
H151 H 0.60525 0.10909 0.17474 0.0
C152 C 0.60466 0.46434 0.59497 0.0
Eu153 Eu 0.54631 0.50103 0.71838 0.0
C154 C 0.62801 0.42556 0.6117 0.0
C155 C 0.66966 0.42238 0.5757 0.0
C156 C 0.68786 0.3833 0.56108 0.0
C157 C 0.66452 0.34718 0.58317 0.0
C158 C 0.62592 0.35156 0.64295 0.0
C159 C 0.60758 0.39018 0.65417 0.0
C160 C 0.57298 0.53312 0.93465 0.0
C161 C 0.50243 0.42924 0.89404 0.0
C162 C 0.41811 0.55509 0.95581 0.0
Eu163 Eu 0.47971 0.52225 0.83734 0.0
C164 C 0.40444 0.59769 0.97077 0.0
C165 C 0.36273 0.60863 0.95301 0.0
C166 C 0.35068 0.65023 0.95715 0.0
C167 C 0.38041 0.68091 0.97835 0.0
C168 C 0.42214 0.66917 0.99601 0.0
C169 C 0.43395 0.62825 0.99178 0.0
C170 C 0.45587 0.48879 0.61901 0.0
C171 C 0.52075 0.59431 0.66709 0.0
O172 O 0.5651 0.46023 0.57268 0.0
O173 O 0.61202 0.49386 0.67132 0.0
O174 O 0.58582 0.54456 0.82865 0.0
O175 O 0.54226 0.50859 0.92133 0.0
O176 O 0.5295 0.43709 0.80614 0.0
O177 O 0.47857 0.45974 0.92909 0.0
O178 O 0.45344 0.54516 1.00556 0.0
O179 O 0.41509 0.54144 0.8462 0.0
O180 O 0.44413 0.47605 0.72467 0.0
O181 O 0.48423 0.5155 0.63543 0.0
O182 O 0.50222 0.58733 0.77258 0.0
O183 O 0.53757 0.56187 0.61432 0.0
H184 H 0.68716 0.44972 0.55096 0.0
H185 H 0.71858 0.38132 0.52221 0.0
H186 H 0.60702 0.32517 0.66755 0.0
H187 H 0.57601 0.39167 0.68662 0.0
H188 H 0.33975 0.5851 0.93483 0.0
H189 H 0.31843 0.65843 0.94438 0.0
H190 H 0.44623 0.6912 1.01547 0.0
H191 H 0.46643 0.62071 1.00406 0.0
C192 C 0.07068 0.59994 0.59578 0.0
Eu193 Eu 0.02827 0.5456 0.71433 0.0
C194 C 0.09472 0.6308 0.52871 0.0
C195 C 0.1035 0.66925 0.58099 0.0
C196 C 0.13746 0.69234 0.53957 0.0
C197 C 0.16223 0.67716 0.44495 0.0
C198 C 0.14834 0.6424 0.38016 0.0
C199 C 0.11572 0.61873 0.42409 0.0
C200 C 0.99069 0.57014 0.92622 0.0
C201 C 0.09862 0.50443 0.89632 0.0
C202 C 0.97957 0.41106 0.9188 0.0
Eu203 Eu 1.0088 0.47784 0.8163 0.0
C204 C 0.93967 0.39492 0.95839 0.0
C205 C 0.92453 0.35765 0.91055 0.0
C206 C 0.8843 0.34456 0.93846 0.0
C207 C 0.85995 0.368 1.01762 0.0
C208 C 0.87665 0.40373 0.07095 0.0
C209 C 0.91535 0.41783 0.03814 0.0
C210 C 0.04285 0.45711 0.59559 0.0
C211 C 0.93544 0.52163 0.65866 0.0
O212 O 0.08094 0.56077 0.59797 0.0
O213 O 0.03603 0.60924 0.6509 0.0
O214 O 0.98388 0.5855 0.81975 0.0
O215 O 0.01566 0.53934 0.91539 0.0
O216 O 0.08864 0.53584 0.82527 0.0
O217 O 0.07151 0.47461 0.90688 0.0
O218 O 0.99473 0.44226 0.97864 0.0
O219 O 0.98337 0.41584 0.80281 0.0
O220 O 0.05726 0.44565 0.69914 0.0
O221 O 0.01653 0.48559 0.61611 0.0
O222 O 0.94283 0.50029 0.75926 0.0
O223 O 0.96771 0.54015 0.60857 0.0
H224 H 0.08717 0.67917 0.66158 0.0
H225 H 0.14672 0.71956 0.58908 0.0
H226 H 0.16606 0.62997 0.30551 0.0
H227 H 0.10944 0.58912 0.38259 0.0
H228 H 0.94308 0.33983 0.8476 0.0
H229 H 0.87174 0.31735 0.89538 0.0
H230 H 0.85886 0.42264 0.1324 0.0
H231 H 0.92601 0.44689 0.07525 0.0
C232 C 0.12987 0.01572 0.30824 0.0
C233 C 0.16894 0.03418 0.33293 0.0
C234 C 0.1347 0.06947 0.50449 0.0
C235 C 0.09939 0.04265 0.498 0.0
N236 N 0.0617 0.99356 0.37719 0.0
N237 N 0.20834 0.07822 0.46342 0.0
C238 C 0.09639 0.0169 0.39449 0.0
C239 C 0.1711 0.0614 0.43281 0.0
N240 N 0.12475 0.99771 0.19909 0.0
N241 N 0.13301 0.10387 0.57531 0.0
H242 H 0.23504 0.07425 0.41111 0.0
H243 H 0.213 0.09399 0.54408 0.0
H244 H 0.10569 0.11348 0.6176 0.0
H245 H 0.15665 0.12581 0.57757 0.0
H246 H 0.09672 0.98563 0.17004 0.0
H247 H 0.14788 1.00023 0.13368 0.0
H248 H 0.06054 0.96877 0.31752 0.0
H249 H 0.03385 0.99906 0.4223 0.0
C250 C 0.46695 0.17525 0.46763 0.0
C251 C 0.49221 0.1726 0.36263 0.0
C252 C 0.50899 0.09981 0.41965 0.0
C253 C 0.48556 0.10312 0.52866 0.0
N254 N 0.42664 0.13783 0.61846 0.0
N255 N 0.52355 0.12729 0.2202 0.0
C256 C 0.4597 0.139 0.54108 0.0
C257 C 0.50911 0.13335 0.3338 0.0
N258 N 0.45076 0.21263 0.49991 0.0
N259 N 0.53155 0.06495 0.39646 0.0
H260 H 0.52395 0.15093 0.15547 0.0
H261 H 0.52916 0.09759 0.18868 0.0
H262 H 0.52622 0.03679 0.43973 0.0
H263 H 0.55528 0.06405 0.33214 0.0
H264 H 0.43606 0.21762 0.58262 0.0
H265 H 0.45417 0.23908 0.4463 0.0
H266 H 0.40499 0.16171 0.6247 0.0
H267 H 0.4176 0.11075 0.663 0.0
C268 C 0.354 0.47099 0.44688 0.0
C269 C 0.35545 0.50244 0.35642 0.0
C270 C 0.42938 0.51521 0.4112 0.0
C271 C 0.42568 0.48785 0.51198 0.0
N272 N 0.39216 0.42558 0.58213 0.0
N273 N 0.39563 0.55328 0.2482 0.0
C274 C 0.39027 0.46141 0.51639 0.0
C275 C 0.3939 0.52354 0.33618 0.0
N276 N 0.31714 0.45212 0.47323 0.0
N277 N 0.46741 0.53111 0.38236 0.0
H278 H 0.37159 0.55776 0.18679 0.0
H279 H 0.41965 0.57455 0.23899 0.0
H280 H 0.49439 0.52164 0.42584 0.0
H281 H 0.47338 0.54935 0.30656 0.0
H282 H 0.31263 0.43341 0.54907 0.0
H283 H 0.29019 0.45732 0.42391 0.0
H284 H 0.36894 0.40319 0.58148 0.0
H285 H 0.41938 0.41558 0.62366 0.0
C286 C 1.00519 0.38475 0.33405 0.0
C287 C 0.03615 0.3534 0.33557 0.0
C288 C 0.07682 0.39944 0.46968 0.0
C289 C 0.04177 0.42595 0.49002 0.0
N290 N 0.96916 0.43871 0.44164 0.0
N291 N 0.10215 0.33117 0.41057 0.0
C292 C 1.00525 0.41769 0.42069 0.0
C293 C 0.07251 0.3612 0.4036 0.0
N294 N 0.97384 0.38145 0.25264 0.0
N295 N 0.11465 0.41102 0.51255 0.0
H296 H 0.10046 0.304 0.36034 0.0
H297 H 0.127 0.33237 0.47019 0.0
H298 H 0.1193 0.43909 0.55664 0.0
H299 H 0.14197 0.39515 0.49272 0.0
H300 H 0.95092 0.40379 0.24332 0.0
H301 H 0.97306 0.35792 0.18836 0.0
H302 H 0.94032 0.42808 0.41337 0.0
H303 H 0.96665 0.46547 0.4917 0.0
C304 C 0.89591 0.01956 0.21906 0.0
C305 C 0.86247 0.99074 0.21242 0.0
C306 C 0.90611 0.9488 0.07336 0.0
C307 C 0.93587 0.98141 0.06165 0.0
N308 N 0.96381 0.04342 0.14947 0.0
N309 N 0.83613 0.92749 0.13089 0.0
C310 C 0.93227 0.01539 0.14319 0.0
C311 C 0.86818 0.95478 0.14084 0.0
N312 N 0.89162 0.05212 0.29612 0.0
N313 N 0.9148 0.91135 0.02253 0.0
H314 H 0.80905 0.93016 0.18231 0.0
H315 H 0.83556 0.90362 0.06812 0.0
H316 H 0.94295 0.90536 0.979 0.0
H317 H 0.89657 0.88511 0.03544 0.0
H318 H 0.91196 0.07682 0.30049 0.0
H319 H 0.86684 0.05427 0.35693 0.0
H320 H 0.9618 0.07229 0.18996 0.0
H321 H 0.99371 0.03647 0.12041 0.0
C322 C 0.56955 0.85591 0.12489 0.0
C323 C 0.53949 0.8576 0.21949 0.0
C324 C 0.52354 0.93015 0.15541 0.0
C325 C 0.54816 0.92551 0.04931 0.0
N326 N 0.60965 0.89252 0.97117 0.0
N327 N 0.48739 0.89715 0.32288 0.0
C328 C 0.57577 0.8909 0.04555 0.0
C329 C 0.51739 0.89558 0.23591 0.0
N330 N 0.59006 0.8196 0.1046 0.0
N331 N 0.5079 0.96822 0.18357 0.0
H332 H 0.48353 0.87338 0.3861 0.0
H333 H 0.46491 0.92026 0.32645 0.0
H334 H 0.51546 0.99478 0.13447 0.0
H335 H 0.49241 0.97462 0.2641 0.0
H336 H 0.60751 0.81387 0.02705 0.0
H337 H 0.58781 0.79429 0.16309 0.0
H338 H 0.63281 0.87005 0.97036 0.0
H339 H 0.6176 0.91911 0.9226 0.0
C340 C 0.66537 0.56772 0.1337 0.0
C341 C 0.67127 0.5336 0.21329 0.0
C342 C 0.60946 0.50025 0.1228 0.0
C343 C 0.60279 0.53464 0.04309 0.0
N344 N 0.61835 0.60659 1.00416 0.0
N345 N 0.63969 0.47512 0.31001 0.0
C346 C 0.62877 0.57016 0.05924 0.0
C347 C 0.63922 0.50334 0.21826 0.0
N348 N 0.69578 0.59686 0.12426 0.0
N349 N 0.59126 0.46288 0.10145 0.0
H350 H 0.66207 0.4766 0.37729 0.0
H351 H 0.61603 0.45372 0.32507 0.0
H352 H 0.57323 0.45668 0.02655 0.0
H353 H 0.59841 0.43613 0.15006 0.0
H354 H 0.69616 0.61972 0.05754 0.0
H355 H 0.72165 0.5967 0.18047 0.0
H356 H 0.63386 0.63429 0.01995 0.0
H357 H 0.59145 0.61 0.95308 0.0
C358 C 0.95324 0.66411 0.11241 0.0
C359 C 0.98048 0.66468 0.21289 0.0
C360 C 1.00865 0.59695 0.14489 0.0
C361 C 0.98315 0.5974 0.03915 0.0
N362 N 0.91892 0.62378 0.95763 0.0
N363 N 0.01977 0.62308 0.34798 0.0
C364 C 0.95149 0.62857 0.03454 0.0
C365 C 1.00343 0.62822 0.23618 0.0
N366 N 0.93036 0.69865 0.08775 0.0
N367 N 0.03934 0.56826 0.15796 0.0
H368 H 0.0162 0.64561 0.41454 0.0
H369 H 0.03127 0.59463 0.37723 0.0
H370 H 0.04285 0.54279 0.10258 0.0
H371 H 0.06236 0.57067 0.22318 0.0
H372 H 0.914 0.70281 1.00768 0.0
H373 H 0.9296 0.72393 0.14616 0.0
H374 H 0.89346 0.64365 0.9562 0.0
H375 H 0.91494 0.59711 0.90628 0.0
C376 C 0.89315 0.2428 0.35748 0.0
C377 C 0.92933 0.25063 0.42623 0.0
C378 C 0.89075 0.23253 0.60834 0.0
C379 C 0.86355 0.21034 0.53509 0.0
N380 N 0.82117 0.21903 0.36279 0.0
N381 N 0.96193 0.2546 0.62374 0.0
C382 C 0.85836 0.22484 0.41678 0.0
C383 C 0.92766 0.24786 0.55477 0.0
N384 N 0.8947 0.24923 0.23598 0.0
N385 N 0.88327 0.23443 0.72893 0.0
H386 H 0.99077 0.26236 0.58755 0.0
H387 H 0.96237 0.24894 0.7165 0.0
H388 H 0.85719 0.22014 0.76695 0.0
H389 H 0.90032 0.25352 0.78554 0.0
H390 H 0.87161 0.24019 0.17616 0.0
H391 H 0.87161 0.24019 0.17616 0.0
H392 H 0.81409 0.2298 0.27663 0.0
H393 H 0.79663 0.20601 0.41187 0.0
C394 C 0.27876 0.88133 0.32535 0.0
C395 C 0.262 0.91607 0.38763 0.0
C396 C 0.28261 0.88342 0.57745 0.0
C397 C 0.31181 0.86077 0.51128 0.0
N398 N 0.32535 0.8232 0.33142 0.0
N399 N 0.24741 0.94906 0.58188 0.0
C400 C 0.30384 0.85333 0.38924 0.0
C401 C 0.26168 0.91602 0.51714 0.0
N402 N 0.27476 0.87642 0.2041 0.0
N403 N 0.2803 0.87766 0.69907 0.0
H404 H 0.2356 0.97598 0.54356 0.0
H405 H 0.25071 0.95127 0.67516 0.0
H406 H 0.29899 0.85562 0.74189 0.0
H407 H 0.25773 0.89166 0.7529 0.0
H408 H 0.25796 0.89661 0.14919 0.0
H409 H 0.25796 0.89661 0.14919 0.0
H410 H 0.32262 0.81762 0.239 0.0
H411 H 0.34535 0.80429 0.38039 0.0
C412 C 0.62916 0.31076 0.33821 0.0
C413 C 0.60402 0.27774 0.38361 0.0
C414 C 0.65257 0.27314 0.555 0.0
C415 C 0.67253 0.30869 0.51135 0.0
N416 N 0.69982 0.33335 0.32341 0.0
N417 N 0.58406 0.24461 0.57344 0.0
C418 C 0.66862 0.31573 0.38743 0.0
C419 C 0.6141 0.26178 0.50163 0.0
N420 N 0.61266 0.3438 0.27842 0.0
N421 N 0.66633 0.25579 0.65918 0.0
H422 H 0.55265 0.24679 0.5524 0.0
H423 H 0.5892 0.23495 0.66201 0.0
H424 H 0.69273 0.26714 0.70222 0.0
H425 H 0.65338 0.22893 0.69472 0.0
H426 H 0.63086 0.36892 0.25101 0.0
H427 H 0.5808 0.34962 0.27921 0.0
H428 H 0.6968 0.34087 0.23197 0.0
H429 H 0.72914 0.33515 0.36157 0.0
C430 C 0.2489 0.65438 0.28384 0.0
C431 C 0.25817 0.62197 0.36728 0.0
C432 C 0.22975 0.66492 0.52797 0.0
C433 C 0.20726 0.68667 0.43941 0.0
N434 N 0.21214 0.71834 0.2451 0.0
N435 N 0.25891 0.59805 0.57604 0.0
C436 C 0.22431 0.68802 0.32269 0.0
C437 C 0.25062 0.62824 0.49278 0.0
N438 N 0.25996 0.65213 0.16543 0.0
N439 N 0.22741 0.67715 0.64521 0.0
H440 H 0.2721 0.56962 0.55446 0.0
H441 H 0.24975 0.60019 0.66611 0.0
H442 H 0.2113 0.70392 0.6694 0.0
H443 H 0.24461 0.66335 0.714 0.0
H444 H 0.2784 0.62856 0.1297 0.0
H445 H 0.2784 0.62856 0.1297 0.0
H446 H 0.22247 0.71971 0.15568 0.0
H447 H 0.19226 0.74198 0.27367 0.0
C448 C 0.10995 0.76316 0.06315 0.0
C449 C 0.07047 0.77919 0.09282 0.0
C450 C 0.09042 0.8473 0.03397 0.0
C451 C 0.13004 0.83245 0.99695 0.0
N452 N 0.17559 0.77487 0.95702 0.0
N453 N 0.01815 0.8305 0.05428 0.0
C454 C 0.13925 0.78955 1.00384 0.0
C455 C 0.05887 0.81894 0.05587 0.0
N456 N 0.11856 0.72355 0.09703 0.0
N457 N 0.084 0.88763 0.06379 0.0
H458 H 0.99433 0.8095 0.0732 0.0
H459 H 1.00854 0.85938 0.02223 0.0
H460 H 0.10833 0.90772 0.07904 0.0
H461 H 0.05573 0.89864 0.09687 0.0
H462 H 0.14699 0.70891 0.08349 0.0
H463 H 0.14699 0.70891 0.08349 0.0
H464 H 0.18269 0.74354 0.95049 0.0
H465 H 0.19776 0.79441 0.91814 0.0
C466 C 0.75389 0.09559 0.98537 0.0
C467 C 0.76163 0.09788 0.11118 0.0
C468 C 0.74066 0.17051 0.10973 0.0
C469 C 0.72204 0.1629 0.99763 0.0
N470 N 0.74278 0.13661 0.80482 0.0
N471 N 0.77537 0.14275 0.28229 0.0
C472 C 0.74021 0.13188 0.92645 0.0
C473 C 0.76031 0.1371 0.16928 0.0
N474 N 0.75658 0.05907 0.92442 0.0
N475 N 0.73249 0.20668 0.16743 0.0
H476 H 0.79114 0.11991 0.33087 0.0
H477 H 0.79114 0.11991 0.33087 0.0
H478 H 0.71581 0.23028 0.12463 0.0
H479 H 0.74165 0.21211 0.25611 0.0
H480 H 0.74736 0.05623 0.83469 0.0
H481 H 0.76515 0.03127 0.96546 0.0
H482 H 0.75908 0.11569 0.75122 0.0
H483 H 0.73313 0.1639 0.76252 0.0
C484 C 0.38973 0.74664 0.19478 0.0
C485 C 0.42666 0.76246 0.14034 0.0
C486 C 0.39491 0.75301 0.94228 0.0
C487 C 0.36827 0.72454 0.99788 0.0
N488 N 0.31887 0.72491 0.15705 0.0
N489 N 0.46383 0.7813 0.95448 0.0
C490 C 0.35817 0.73208 0.11829 0.0
C491 C 0.42839 0.76833 1.01154 0.0
N492 N 0.38566 0.74362 0.31708 0.0
N493 N 0.39161 0.75941 0.8214 0.0
H494 H 0.4917 0.78665 0.99851 0.0
H495 H 0.46705 0.78241 0.86091 0.0
H496 H 0.36842 0.74467 0.77197 0.0
H497 H 0.40937 0.78113 0.77459 0.0
H498 H 0.36162 0.72725 0.35869 0.0
H499 H 0.40612 0.75784 0.37635 0.0
H500 H 0.30858 0.73162 0.24418 0.0
H501 H 0.29625 0.71648 0.09481 0.0
C502 C 0.78445 0.39164 0.2081 0.0
C503 C 0.77559 0.42745 0.13688 0.0
C504 C 0.79268 0.38827 0.95621 0.0
C505 C 0.81508 0.36111 0.03015 0.0
N506 N 0.81052 0.32074 0.20897 0.0
N507 N 0.77102 0.45947 0.93778 0.0
C508 C 0.80223 0.35683 0.15037 0.0
C509 C 0.7778 0.42534 1.00835 0.0
N510 N 0.77913 0.3924 0.33022 0.0
N511 N 0.79078 0.38085 0.8357 0.0
H512 H 0.76345 0.4884 0.97264 0.0
H513 H 0.77652 0.45978 0.84495 0.0
H514 H 0.80493 0.35469 0.79854 0.0
H515 H 0.77197 0.39807 0.77799 0.0
H516 H 0.79187 0.37045 0.38847 0.0
H517 H 0.76152 0.41519 0.37262 0.0
H518 H 0.80126 0.31429 0.29731 0.0
H519 H 0.82437 0.29638 0.16229 0.0
C520 C 0.05869 0.18352 0.09054 0.0
C521 C 0.02349 0.21019 0.09229 0.0
C522 C 0.98737 0.15939 0.95946 0.0
C523 C 0.02336 0.13357 0.95212 0.0
N524 N 0.09718 0.12934 0.98665 0.0
N525 N 0.95854 0.22775 1.00036 0.0
C526 C 0.06014 0.14819 1.01065 0.0
C527 C 0.98953 0.19946 1.01629 0.0
N528 N 0.09031 0.19076 0.16894 0.0
N529 N 0.95004 0.14475 0.92055 0.0
H530 H 0.95977 0.25738 0.03738 0.0
H531 H 0.93385 0.22327 0.94206 0.0
H532 H 0.94597 0.11516 0.88596 0.0
H533 H 0.92205 0.16009 0.93501 0.0
H534 H 0.11438 0.16981 0.18372 0.0
H535 H 0.09092 0.2166 0.22497 0.0
H536 H 0.12545 0.14048 1.0178 0.0
H537 H 0.10028 0.10552 0.9241 0.0
C538 C 0.32078 0.98772 0.993 0.0
C539 C 0.31119 0.01809 0.08226 0.0
C540 C 0.37652 0.0537 0.02006 0.0
C541 C 0.38985 0.01898 0.94927 0.0
N542 N 0.37429 0.94876 0.88901 0.0
N543 N 0.33388 0.07889 0.18693 0.0
C544 C 0.3616 0.98508 0.94008 0.0
C545 C 0.34011 0.05094 0.09677 0.0
N546 N 0.29054 0.96075 0.9592 0.0
N547 N 0.39757 0.09022 1.01066 0.0
H548 H 0.30755 0.07844 0.24201 0.0
H549 H 0.35611 0.10058 0.2118 0.0
H550 H 0.42214 0.0946 0.95037 0.0
H551 H 0.38748 0.11745 0.05147 0.0
H552 H 0.29395 0.94031 0.88747 0.0
H553 H 0.26057 0.96235 0.99452 0.0
H554 H 0.35643 0.9219 0.89092 0.0
H555 H 0.40427 0.94362 0.85738 0.0
C556 C 0.50689 0.30998 0.96022 0.0
C557 C 0.4968 0.3078 0.08562 0.0
C558 C 0.49236 0.38449 0.08633 0.0
C559 C 0.49975 0.38692 0.95869 0.0
N560 N 0.50279 0.34883 0.77164 0.0
N561 N 0.4693 0.34315 0.25832 0.0
C562 C 0.5037 0.34868 0.89488 0.0
C563 C 0.48542 0.34517 0.14421 0.0
N564 N 0.52091 0.27517 0.9039 0.0
N565 N 0.49542 0.41921 0.15576 0.0
H566 H 0.46447 0.31504 0.30308 0.0
H567 H 0.45675 0.3687 0.30254 0.0
H568 H 0.50413 0.44805 0.12206 0.0
H569 H 0.49454 0.41848 0.24981 0.0
H570 H 0.5338 0.27545 0.81737 0.0
H571 H 0.5216 0.2464 0.94727 0.0
H572 H 0.5022 0.32188 0.72046 0.0
H573 H 0.49804 0.37568 0.72095 0.0
C574 C 0.21375 0.52423 0.98569 0.0
C575 C 0.21621 0.50677 0.10388 0.0
C576 C 0.14198 0.48738 0.08786 0.0
C577 C 0.13976 0.50323 0.96651 0.0
N578 N 0.17897 0.52592 0.79164 0.0
N579 N 0.18508 0.46303 0.25421 0.0
C580 C 0.17729 0.5185 0.91317 0.0
C581 C 0.18114 0.48521 0.14957 0.0
N582 N 0.246 0.54765 0.94361 0.0
N583 N 0.1065 0.47721 0.14923 0.0
H584 H 0.21299 0.46146 0.30134 0.0
H585 H 0.16231 0.44297 0.28686 0.0
H586 H 0.07692 0.47981 0.11338 0.0
H587 H 0.10586 0.47022 0.24116 0.0
H588 H 0.24414 0.56608 0.86636 0.0
H589 H 0.27383 0.55046 0.9905 0.0
H590 H 0.20624 0.53367 0.74603 0.0
H591 H 0.1544 0.51959 0.7339 0.0
C592 C 0.96814 0.82462 0.50962 0.0
C593 C 1.00468 0.80059 0.48869 0.0
C594 C 0.04468 0.85743 0.5846 0.0
C595 C 1.00832 0.87996 0.61645 0.0
N596 N 0.93359 0.87721 0.6316 0.0
N597 N 0.07581 0.79032 0.54675 0.0
C598 C 0.96947 0.86108 0.5859 0.0
C599 C 0.04192 0.81554 0.54247 0.0
N600 N 0.93238 0.81406 0.45248 0.0
N601 N 0.08181 0.87737 0.5793 0.0
H602 H 0.07472 0.75978 0.51654 0.0
H603 H 0.10301 0.79863 0.59104 0.0
H604 H 0.08402 0.90928 0.58997 0.0
H605 H 0.10873 0.86344 0.54618 0.0
H606 H 0.90613 0.83291 0.45198 0.0
H607 H 0.93002 0.78766 0.39928 0.0
H608 H 0.90482 0.86308 0.62088 0.0
H609 H 0.93323 0.90201 0.69139 0.0
C610 C 0.7053 0.04417 0.52364 0.0
C611 C 0.71885 1.00886 0.4567 0.0
C612 C 0.65967 0.97049 0.55072 0.0
C613 C 0.64225 1.00772 0.59959 0.0
N614 N 0.64711 0.08227 0.60882 0.0
N615 N 0.70428 0.93875 0.39853 0.0
C616 C 0.66496 0.04514 0.58047 0.0
C617 C 0.69488 0.972 0.46899 0.0
N618 N 0.73119 0.07743 0.53109 0.0
N619 N 0.64355 0.93318 0.58539 0.0
H620 H 0.72969 0.93836 0.33998 0.0
H621 H 0.68518 0.91287 0.39198 0.0
H622 H 0.61962 0.93046 0.64862 0.0
H623 H 0.65696 0.90496 0.56209 0.0
H624 H 0.72396 0.10428 0.57793 0.0
H625 H 0.76163 0.07645 0.49872 0.0
H626 H 0.66007 0.11075 0.58571 0.0
H627 H 0.61709 0.08507 0.64283 0.0
C628 C 0.48966 0.70532 0.54995 0.0
C629 C 0.52212 0.71513 0.46655 0.0
C630 C 0.55776 0.65083 0.53753 0.0
C631 C 0.522 0.63756 0.60529 0.0
N632 N 0.45089 0.65549 0.66254 0.0
N633 N 0.58588 0.69329 0.37342 0.0
C634 C 0.48758 0.66571 0.60884 0.0
C635 C 0.55599 0.68688 0.45914 0.0
N636 N 0.45883 0.73354 0.56949 0.0
N637 N 0.59442 0.63025 0.55213 0.0
H638 H 0.58624 0.71946 0.31783 0.0
H639 H 0.60851 0.67141 0.35232 0.0
H640 H 0.59809 0.60606 0.61382 0.0
H641 H 0.62229 0.64035 0.51424 0.0
H642 H 0.43347 0.72744 0.62565 0.0
H643 H 0.45995 0.76354 0.5341 0.0
H644 H 0.44401 0.62669 0.70033 0.0
H645 H 0.44401 0.62669 0.70033 0.0
C646 C 0.84161 0.55901 0.46062 0.0
C647 C 0.81457 0.52418 0.46145 0.0
C648 C 0.86561 0.48781 0.59388 0.0
C649 C 0.89209 0.5233 0.59826 0.0
N650 N 0.89679 0.59688 0.56112 0.0
N651 N 0.79594 0.46104 0.56244 0.0
C652 C 0.87747 0.56014 0.53906 0.0
C653 C 0.82506 0.49072 0.54017 0.0
N654 N 0.83399 0.59068 0.38187 0.0
N655 N 0.87987 0.45016 0.63242 0.0
H656 H 0.76578 0.46356 0.52939 0.0
H657 H 0.80031 0.43684 0.62332 0.0
H658 H 0.9098 0.44522 0.66388 0.0
H659 H 0.86366 0.42267 0.61961 0.0
H660 H 0.85491 0.61467 0.36575 0.0
H661 H 0.80766 0.59145 0.32755 0.0
H662 H 0.88568 0.62522 0.52965 0.0
H663 H 0.92105 0.59962 0.6224 0.0
loop_
_geom_bond_atom_site_label_1
_geom_bond_atom_site_label_2
_geom_bond_distance
_geom_bond_site_symmetry_2
_ccdc_geom_bond_type
H0 C3 0.931 . S
H1 C6 0.928 . S
H2 C8 0.930 . S
C3 H0 0.931 . S
C3 C4 1.413 . S
C3 C5 1.360 . S
C4 C3 1.413 . S
C4 C8 1.429 . S
C5 C3 1.360 . S
C5 C6 1.372 . S
C6 H1 0.928 . S
C6 C5 1.372 . S
C6 C7 1.404 . S
C7 C6 1.404 . S
C7 C8 1.391 . S
C8 H2 0.930 . S
C8 C4 1.429 . S
C8 C7 1.391 . S
H9 C12 0.931 . S
H10 C15 0.928 . S
H11 C17 0.930 . S
C12 H9 0.931 . S
C12 C13 1.413 . S
C12 C14 1.360 . S
C13 C12 1.413 . S
C13 C17 1.429 1_655 S
C14 C12 1.360 . S
C14 C15 1.372 . S
C15 H10 0.928 . S
C15 C14 1.372 . S
C15 C16 1.404 . S
C16 C15 1.404 . S
C16 C17 1.390 1_655 S
C17 H11 0.930 . S
C17 C13 1.429 1_455 S
C17 C16 1.390 1_455 S
H18 C21 0.931 . S
H19 C24 0.928 . S
H20 C26 0.930 . S
C21 H18 0.931 . S
C21 C22 1.413 . S
C21 C23 1.360 . S
C22 C21 1.413 . S
C22 C26 1.429 1_565 S
C23 C21 1.360 . S
C23 C24 1.372 . S
C24 H19 0.928 . S
C24 C23 1.372 . S
C24 C25 1.404 . S
C25 C24 1.404 . S
C25 C26 1.390 1_565 S
C26 H20 0.930 . S
C26 C22 1.429 1_545 S
C26 C25 1.390 1_545 S
H27 C30 0.931 . S
H28 C33 0.928 . S
H29 C35 0.930 . S
C30 H27 0.931 . S
C30 C31 1.413 . S
C30 C32 1.360 . S
C31 C30 1.413 . S
C31 C35 1.429 . S
C32 C30 1.360 . S
C32 C33 1.372 . S
C33 H28 0.928 . S
C33 C32 1.372 . S
C33 C34 1.404 . S
C34 C33 1.404 . S
C34 C35 1.391 . S
C35 H29 0.930 . S
C35 C31 1.429 . S
C35 C34 1.391 . S
H36 C39 0.931 1_556 S
H37 C42 0.928 . S
H38 C44 0.930 . S
C39 H36 0.931 1_554 S
C39 C40 1.413 1_554 S
C39 C41 1.360 . S
C40 C39 1.413 1_556 S
C40 C44 1.429 . S
C41 C39 1.360 . S
C41 C42 1.372 . S
C42 H37 0.928 . S
C42 C41 1.372 . S
C42 C43 1.404 . S
C43 C42 1.404 . S
C43 C44 1.391 1_554 S
C44 H38 0.930 . S
C44 C40 1.429 . S
C44 C43 1.391 1_556 S
H45 C48 0.931 1_556 S
H46 C51 0.928 . S
H47 C53 0.930 . S
C48 H45 0.931 1_554 S
C48 C49 1.413 1_554 S
C48 C50 1.360 . S
C49 C48 1.413 1_556 S
C49 C53 1.429 1_655 S
C50 C48 1.360 . S
C50 C51 1.372 . S
C51 H46 0.928 . S
C51 C50 1.372 . S
C51 C52 1.404 . S
C52 C51 1.404 . S
C52 C53 1.391 1_654 S
C53 H47 0.930 . S
C53 C49 1.429 1_455 S
C53 C52 1.391 1_456 S
H54 C57 0.931 1_556 S
H55 C60 0.928 . S
H56 C62 0.930 . S
C57 H54 0.931 1_554 S
C57 C58 1.413 1_554 S
C57 C59 1.360 . S
C58 C57 1.413 1_556 S
C58 C62 1.429 1_565 S
C59 C57 1.360 . S
C59 C60 1.372 . S
C60 H55 0.928 . S
C60 C59 1.372 . S
C60 C61 1.404 . S
C61 C60 1.404 . S
C61 C62 1.391 1_564 S
C62 H56 0.930 . S
C62 C58 1.429 1_545 S
C62 C61 1.391 1_546 S
H63 C66 0.929 1_556 S
H64 C69 0.928 . S
H65 C71 0.930 . S
C66 H63 0.929 1_554 S
C66 C67 1.422 . S
C66 C68 1.353 1_554 S
C67 C66 1.422 . S
C67 C71 1.429 . S
C68 C66 1.353 1_556 S
C68 C69 1.372 . S
C69 H64 0.928 . S
C69 C68 1.372 . S
C69 C70 1.404 1_556 S
C70 C69 1.404 1_554 S
C70 C71 1.391 . S
C71 H65 0.930 . S
C71 C67 1.429 . S
C71 C70 1.391 . S
C72 Eu73 2.835 . S
C72 C74 1.500 . S
C72 O92 1.257 . S
C72 O93 1.260 . S
Eu73 C72 2.835 . S
Eu73 O92 2.473 . S
Eu73 O93 2.480 . S
Eu73 O94 2.430 . S
Eu73 O95 2.670 1_545 S
Eu73 O96 2.394 . S
Eu73 O101 2.355 1_655 S
Eu73 O103 2.374 1_545 S
C74 C72 1.500 . S
C74 C75 1.377 . S
C74 C79 1.377 . S
C75 C74 1.377 . S
C75 C76 1.395 . S
C75 H104 0.931 . S
C76 C75 1.395 . S
C76 C77 1.383 . S
C76 H105 0.931 . S
C77 C76 1.383 . S
C77 C78 1.394 . S
C78 C77 1.394 . S
C78 C79 1.378 . S
C78 H106 0.931 . S
C79 C74 1.377 . S
C79 C78 1.378 . S
C79 H107 0.907 1_655 S
C80 O94 1.259 . S
C80 O95 1.270 1_545 S
C81 O96 1.251 1_455 S
C81 O97 1.251 . S
C82 Eu83 2.835 . S
C82 C84 1.500 1_556 S
C82 O98 1.257 . S
C82 O99 1.260 . S
Eu83 C82 2.835 . S
Eu83 O95 2.355 1_455 S
Eu83 O97 2.374 1_565 S
Eu83 O98 2.473 . S
Eu83 O99 2.480 . S
Eu83 O100 2.430 . S
Eu83 O101 2.670 1_565 S
Eu83 O102 2.394 . S
C84 C82 1.500 1_554 S
C84 C85 1.377 . S
C84 C89 1.377 . S
C85 C84 1.377 . S
C85 C86 1.395 . S
C85 H108 0.931 1_554 S
C86 C85 1.395 . S
C86 C87 1.383 . S
C86 H109 0.931 . S
C87 C86 1.383 . S
C87 C88 1.394 . S
C88 C87 1.394 . S
C88 C89 1.378 . S
C88 H110 0.931 . S
C89 C84 1.377 . S
C89 C88 1.378 . S
C89 H111 0.913 1_455 S
C90 O100 1.259 . S
C90 O101 1.270 1_565 S
C91 O102 1.251 1_655 S
C91 O103 1.251 . S
O92 C72 1.257 . S
O92 Eu73 2.473 . S
O93 C72 1.260 . S
O93 Eu73 2.480 . S
O94 Eu73 2.430 . S
O94 C80 1.259 . S
O95 Eu73 2.670 1_565 S
O95 C80 1.270 1_565 S
O95 Eu83 2.355 1_655 S
O96 Eu73 2.394 . S
O96 C81 1.251 1_655 S
O97 C81 1.251 . S
O97 Eu83 2.374 1_545 S
O98 C82 1.257 . S
O98 Eu83 2.473 . S
O99 C82 1.260 . S
O99 Eu83 2.480 . S
O100 Eu83 2.430 . S
O100 C90 1.259 . S
O101 Eu73 2.355 1_455 S
O101 Eu83 2.670 1_545 S
O101 C90 1.270 1_545 S
O102 Eu83 2.394 . S
O102 C91 1.251 1_455 S
O103 Eu73 2.374 1_565 S
O103 C91 1.251 . S
H104 C75 0.931 . S
H105 C76 0.931 . S
H106 C78 0.931 . S
H107 C79 0.907 1_455 S
H108 C85 0.931 1_556 S
H109 C86 0.931 . S
H110 C88 0.931 . S
H111 C89 0.913 1_655 S
C112 Eu113 2.835 . S
C112 C114 1.500 . S
C112 O132 1.257 . S
C112 O133 1.260 . S
Eu113 C112 2.835 . S
Eu113 O132 2.473 . S
Eu113 O133 2.480 . S
Eu113 O134 2.430 . S
Eu113 O135 2.670 . S
Eu113 O136 2.394 . S
Eu113 O141 2.355 1_565 S
Eu113 O143 2.374 . S
C114 C112 1.500 . S
C114 C115 1.377 . S
C114 C119 1.377 . S
C115 C114 1.377 . S
C115 C116 1.395 . S
C115 H144 0.931 . S
C116 C115 1.395 . S
C116 C117 1.383 . S
C116 H145 0.931 . S
C117 C116 1.383 . S
C117 C118 1.394 . S
C118 C117 1.394 . S
C118 C119 1.378 . S
C118 H146 0.931 . S
C119 C114 1.377 . S
C119 C118 1.378 . S
C119 H147 0.931 1_565 S
C120 O134 1.259 . S
C120 O135 1.270 . S
C121 O136 1.251 1_545 S
C121 O137 1.251 . S
C122 Eu123 2.835 . S
C122 C124 1.500 1_556 S
C122 O138 1.257 . S
C122 O139 1.260 . S
Eu123 C122 2.835 . S
Eu123 O135 2.355 1_545 S
Eu123 O137 2.374 . S
Eu123 O138 2.473 . S
Eu123 O139 2.480 . S
Eu123 O140 2.430 . S
Eu123 O141 2.670 . S
Eu123 O142 2.394 . S
C124 C122 1.500 1_554 S
C124 C125 1.377 . S
C124 C129 1.377 . S
C125 C124 1.377 . S
C125 C126 1.395 . S
C125 H148 0.931 1_554 S
C126 C125 1.395 . S
C126 C127 1.383 . S
C126 H149 0.931 . S
C127 C126 1.383 . S
C127 C128 1.394 . S
C128 C127 1.394 . S
C128 C129 1.378 . S
C128 H150 0.931 . S
C129 C124 1.377 . S
C129 C128 1.378 . S
C129 H151 0.931 1_545 S
C130 O140 1.259 . S
C130 O141 1.270 . S
C131 O142 1.251 1_565 S
C131 O143 1.251 . S
O132 C112 1.257 . S
O132 Eu113 2.473 . S
O133 C112 1.260 . S
O133 Eu113 2.480 . S
O134 Eu113 2.430 . S
O134 C120 1.259 . S
O135 Eu113 2.670 . S
O135 C120 1.270 . S
O135 Eu123 2.355 1_565 S
O136 Eu113 2.394 . S
O136 C121 1.251 1_565 S
O137 C121 1.251 . S
O137 Eu123 2.374 . S
O138 C122 1.257 . S
O138 Eu123 2.473 . S
O139 C122 1.260 . S
O139 Eu123 2.480 . S
O140 Eu123 2.430 . S
O140 C130 1.259 . S
O141 Eu113 2.355 1_545 S
O141 Eu123 2.670 . S
O141 C130 1.270 . S
O142 Eu123 2.394 . S
O142 C131 1.251 1_545 S
O143 Eu113 2.374 . S
O143 C131 1.251 . S
H144 C115 0.931 . S
H145 C116 0.931 . S
H146 C118 0.931 . S
H147 C119 0.931 1_545 S
H148 C125 0.931 1_556 S
H149 C126 0.931 . S
H150 C128 0.931 . S
H151 C129 0.931 1_565 S
C152 Eu153 2.835 . S
C152 C154 1.500 . S
C152 O172 1.257 . S
C152 O173 1.260 . S
Eu153 C152 2.835 . S
Eu153 O172 2.473 . S
Eu153 O173 2.480 . S
Eu153 O174 2.430 . S
Eu153 O175 2.670 . S
Eu153 O176 2.394 . S
Eu153 O181 2.355 . S
Eu153 O183 2.374 . S
C154 C152 1.500 . S
C154 C155 1.377 . S
C154 C159 1.377 . S
C155 C154 1.377 . S
C155 C156 1.395 . S
C155 H184 0.931 . S
C156 C155 1.395 . S
C156 C157 1.383 . S
C156 H185 0.931 . S
C157 C156 1.383 . S
C157 C158 1.394 . S
C158 C157 1.394 . S
C158 C159 1.378 . S
C158 H186 0.931 . S
C159 C154 1.377 . S
C159 C158 1.378 . S
C159 H187 0.931 . S
C160 O174 1.259 . S
C160 O175 1.270 . S
C161 O176 1.251 . S
C161 O177 1.251 . S
C162 Eu163 2.835 . S
C162 C164 1.500 1_556 S
C162 O178 1.257 . S
C162 O179 1.260 . S
Eu163 C162 2.835 . S
Eu163 O175 2.355 . S
Eu163 O177 2.374 . S
Eu163 O178 2.473 . S
Eu163 O179 2.480 . S
Eu163 O180 2.430 . S
Eu163 O181 2.670 . S
Eu163 O182 2.394 . S
C164 C162 1.500 1_554 S
C164 C165 1.377 . S
C164 C169 1.377 . S
C165 C164 1.377 . S
C165 C166 1.395 . S
C165 H188 0.931 1_554 S
C166 C165 1.395 . S
C166 C167 1.383 . S
C166 H189 0.931 . S
C167 C166 1.383 . S
C167 C168 1.394 . S
C168 C167 1.394 . S
C168 C169 1.378 . S
C168 H190 0.931 . S
C169 C164 1.377 . S
C169 C168 1.378 . S
C169 H191 0.931 . S
C170 O180 1.259 . S
C170 O181 1.270 . S
C171 O182 1.251 . S
C171 O183 1.251 . S
O172 C152 1.257 . S
O172 Eu153 2.473 . S
O173 C152 1.260 . S
O173 Eu153 2.480 . S
O174 Eu153 2.430 . S
O174 C160 1.259 . S
O175 Eu153 2.670 . S
O175 C160 1.270 . S
O175 Eu163 2.355 . S
O176 Eu153 2.394 . S
O176 C161 1.251 . S
O177 C161 1.251 . S
O177 Eu163 2.374 . S
O178 C162 1.257 . S
O178 Eu163 2.473 . S
O179 C162 1.260 . S
O179 Eu163 2.480 . S
O180 Eu163 2.430 . S
O180 C170 1.259 . S
O181 Eu153 2.355 . S
O181 Eu163 2.670 . S
O181 C170 1.270 . S
O182 Eu163 2.394 . S
O182 C171 1.251 . S
O183 Eu153 2.374 . S
O183 C171 1.251 . S
H184 C155 0.931 . S
H185 C156 0.931 . S
H186 C158 0.931 . S
H187 C159 0.931 . S
H188 C165 0.931 1_556 S
H189 C166 0.931 . S
H190 C168 0.931 . S
H191 C169 0.931 . S
C192 Eu193 2.835 . S
C192 C194 1.500 . S
C192 O212 1.257 . S
C192 O213 1.260 . S
Eu193 C192 2.835 . S
Eu193 O212 2.473 . S
Eu193 O213 2.480 . S
Eu193 O214 2.430 . S
Eu193 O215 2.670 1_455 S
Eu193 O216 2.394 . S
Eu193 O221 2.355 . S
Eu193 O223 2.374 1_455 S
C194 C192 1.500 . S
C194 C195 1.377 . S
C194 C199 1.377 . S
C195 C194 1.377 . S
C195 C196 1.395 . S
C195 H224 0.931 . S
C196 C195 1.395 . S
C196 C197 1.383 . S
C196 H225 0.931 . S
C197 C196 1.383 . S
C197 C198 1.394 . S
C198 C197 1.394 . S
C198 C199 1.378 . S
C198 H226 0.931 . S
C199 C194 1.377 . S
C199 C198 1.378 . S
C199 H227 0.931 . S
C200 O214 1.257 1_655 S
C200 O215 1.271 . S
C201 O216 1.251 . S
C201 O217 1.251 . S
C202 Eu203 2.835 . S
C202 C204 1.500 1_556 S
C202 O218 1.257 . S
C202 O219 1.260 . S
Eu203 C202 2.835 . S
Eu203 O215 2.355 . S
Eu203 O217 2.374 1_655 S
Eu203 O218 2.473 . S
Eu203 O219 2.480 . S
Eu203 O220 2.430 . S
Eu203 O221 2.670 1_655 S
Eu203 O222 2.394 . S
C204 C202 1.500 1_554 S
C204 C205 1.377 . S
C204 C209 1.377 . S
C205 C204 1.377 . S
C205 C206 1.395 . S
C205 H228 0.931 1_554 S
C206 C205 1.395 . S
C206 C207 1.383 . S
C206 H229 0.931 . S
C207 C206 1.383 . S
C207 C208 1.394 . S
C208 C207 1.394 . S
C208 C209 1.378 . S
C208 H230 0.931 . S
C209 C204 1.377 . S
C209 C208 1.378 . S
C209 H231 0.931 . S
C210 O220 1.255 1_455 S
C210 O221 1.273 . S
C211 O222 1.251 . S
C211 O223 1.251 . S
O212 C192 1.257 . S
O212 Eu193 2.473 . S
O213 C192 1.260 . S
O213 Eu193 2.480 . S
O214 Eu193 2.430 . S
O214 C200 1.257 1_455 S
O215 Eu193 2.670 1_655 S
O215 C200 1.271 . S
O215 Eu203 2.355 . S
O216 Eu193 2.394 . S
O216 C201 1.251 . S
O217 C201 1.251 . S
O217 Eu203 2.374 1_455 S
O218 C202 1.257 . S
O218 Eu203 2.473 . S
O219 C202 1.260 . S
O219 Eu203 2.480 . S
O220 Eu203 2.430 . S
O220 C210 1.255 1_655 S
O221 Eu193 2.355 . S
O221 Eu203 2.670 1_455 S
O221 C210 1.273 . S
O222 Eu203 2.394 . S
O222 C211 1.251 . S
O223 Eu193 2.374 1_655 S
O223 C211 1.251 . S
H224 C195 0.931 . S
H225 C196 0.931 . S
H226 C198 0.931 . S
H227 C199 0.931 . S
H228 C205 0.931 1_556 S
H229 C206 0.931 . S
H230 C208 0.931 . S
H231 C209 0.931 . S
C232 C233 1.367 . S
C232 C238 1.379 . S
C232 N240 1.356 . S
C233 C232 1.367 . S
C233 C239 1.359 1_565 S
C234 C235 1.345 1_545 S
C234 C239 1.379 . S
C234 N241 1.356 . S
C235 C234 1.345 1_565 S
C235 C238 1.382 . S
N236 C238 1.356 . S
N236 H248 0.984 . S
N236 H249 0.985 . S
N237 C239 1.356 . S
N237 H242 0.984 . S
N237 H243 0.985 . S
C238 C232 1.379 . S
C238 C235 1.382 . S
C238 N236 1.356 . S
C239 C233 1.359 1_545 S
C239 C234 1.379 . S
C239 N237 1.356 . S
N240 C232 1.356 . S
N240 H246 0.984 . S
N240 H247 0.984 . S
N241 C234 1.356 . S
N241 H244 0.984 . S
N241 H245 0.985 . S
H242 N237 0.984 . S
H243 N237 0.985 . S
H244 N241 0.984 . S
H245 N241 0.985 . S
H246 N240 0.984 . S
H247 N240 0.984 . S
H248 N236 0.984 . S
H249 N236 0.985 . S
C250 C251 1.363 . S
C250 C256 1.379 . S
C250 N258 1.356 . S
C251 C250 1.363 . S
C251 C257 1.363 . S
C252 C253 1.363 . S
C252 C257 1.379 . S
C252 N259 1.356 . S
C253 C252 1.363 . S
C253 C256 1.363 . S
N254 C256 1.356 . S
N254 H266 0.984 . S
N254 H267 0.985 . S
N255 C257 1.356 . S
N255 H260 0.984 . S
N255 H261 0.985 . S
C256 C250 1.379 . S
C256 C253 1.363 . S
C256 N254 1.356 . S
C257 C251 1.363 . S
C257 C252 1.379 . S
C257 N255 1.356 . S
N258 C250 1.356 . S
N258 H264 0.984 . S
N258 H265 0.984 . S
N259 C252 1.356 . S
N259 H262 0.984 . S
N259 H263 0.985 . S
H260 N255 0.984 . S
H261 N255 0.985 . S
H262 N259 0.984 . S
H263 N259 0.985 . S
H264 N258 0.984 . S
H265 N258 0.984 . S
H266 N254 0.984 . S
H267 N254 0.985 . S
C268 C269 1.363 . S
C268 C274 1.379 . S
C268 N276 1.356 . S
C269 C268 1.363 . S
C269 C275 1.363 . S
C270 C271 1.363 . S
C270 C275 1.379 . S
C270 N277 1.356 . S
C271 C270 1.363 . S
C271 C274 1.363 . S
N272 C274 1.356 . S
N272 H284 0.984 . S
N272 H285 0.985 . S
N273 C275 1.356 . S
N273 H278 0.984 . S
N273 H279 0.985 . S
C274 C268 1.379 . S
C274 C271 1.363 . S
C274 N272 1.356 . S
C275 C269 1.363 . S
C275 C270 1.379 . S
C275 N273 1.356 . S
N276 C268 1.356 . S
N276 H282 0.984 . S
N276 H283 0.984 . S
N277 C270 1.356 . S
N277 H280 0.984 . S
N277 H281 0.985 . S
H278 N273 0.984 . S
H279 N273 0.985 . S
H280 N277 0.984 . S
H281 N277 0.985 . S
H282 N276 0.984 . S
H283 N276 0.984 . S
H284 N272 0.984 . S
H285 N272 0.985 . S
C286 C287 1.355 1_655 S
C286 C292 1.379 . S
C286 N294 1.356 . S
C287 C286 1.355 1_455 S
C287 C293 1.371 . S
C288 C289 1.363 . S
C288 C293 1.379 . S
C288 N295 1.356 . S
C289 C288 1.363 . S
C289 C292 1.363 1_455 S
N290 C292 1.356 . S
N290 H302 0.984 . S
N290 H303 0.985 . S
N291 C293 1.356 . S
N291 H296 0.984 . S
N291 H297 0.985 . S
C292 C286 1.379 . S
C292 C289 1.363 1_655 S
C292 N290 1.356 . S
C293 C287 1.371 . S
C293 C288 1.379 . S
C293 N291 1.356 . S
N294 C286 1.356 . S
N294 H300 0.984 . S
N294 H301 0.984 . S
N295 C288 1.356 . S
N295 H298 0.984 . S
N295 H299 0.985 . S
H296 N291 0.984 . S
H297 N291 0.985 . S
H298 N295 0.984 . S
H299 N295 0.985 . S
H300 N294 0.984 . S
H301 N294 0.984 . S
H302 N290 0.984 . S
H303 N290 0.985 . S
C304 C305 1.371 . S
C304 C310 1.379 . S
C304 N312 1.356 . S
C305 C304 1.371 . S
C305 C311 1.355 1_545 S
C306 C307 1.363 1_565 S
C306 C311 1.379 . S
C306 N313 1.356 . S
C307 C306 1.363 1_545 S
C307 C310 1.363 . S
N308 C310 1.356 . S
N308 H320 0.984 . S
N308 H321 0.985 1_554 S
N309 C311 1.356 . S
N309 H314 0.984 . S
N309 H315 0.985 . S
C310 C304 1.379 . S
C310 C307 1.363 . S
C310 N308 1.356 . S
C311 C305 1.355 1_565 S
C311 C306 1.379 . S
C311 N309 1.356 . S
N312 C304 1.356 . S
N312 H318 0.984 . S
N312 H319 0.984 . S
N313 C306 1.356 . S
N313 H316 0.984 1_554 S
N313 H317 0.985 . S
H314 N309 0.984 . S
H315 N309 0.985 . S
H316 N313 0.984 1_556 S
H317 N313 0.985 . S
H318 N312 0.984 . S
H319 N312 0.984 . S
H320 N308 0.984 . S
H321 N308 0.985 1_556 S
C322 C323 1.363 . S
C322 C328 1.379 . S
C322 N330 1.356 . S
C323 C322 1.363 . S
C323 C329 1.363 . S
C324 C325 1.363 . S
C324 C329 1.379 . S
C324 N331 1.356 . S
C325 C324 1.363 . S
C325 C328 1.363 . S
N326 C328 1.356 . S
N326 H338 0.984 . S
N326 H339 0.985 1_554 S
N327 C329 1.356 . S
N327 H332 0.984 . S
N327 H333 0.985 . S
C328 C322 1.379 . S
C328 C325 1.363 . S
C328 N326 1.356 . S
C329 C323 1.363 . S
C329 C324 1.379 . S
C329 N327 1.356 . S
N330 C322 1.356 . S
N330 H336 0.984 . S
N330 H337 0.984 . S
N331 C324 1.356 . S
N331 H334 0.984 1_554 S
N331 H335 0.985 . S
H332 N327 0.984 . S
H333 N327 0.985 . S
H334 N331 0.984 1_556 S
H335 N331 0.985 . S
H336 N330 0.984 . S
H337 N330 0.984 . S
H338 N326 0.984 . S
H339 N326 0.985 1_556 S
C340 C341 1.363 . S
C340 C346 1.379 . S
C340 N348 1.356 . S
C341 C340 1.363 . S
C341 C347 1.363 . S
C342 C343 1.363 . S
C342 C347 1.379 . S
C342 N349 1.356 1_554 S
C343 C342 1.363 . S
C343 C346 1.363 . S
N344 C346 1.356 . S
N344 H356 0.984 . S
N344 H357 0.985 . S
N345 C347 1.356 . S
N345 H350 0.984 . S
N345 H351 0.985 . S
C346 C340 1.379 . S
C346 C343 1.363 . S
C346 N344 1.356 . S
C347 C341 1.363 . S
C347 C342 1.379 . S
C347 N345 1.356 . S
N348 C340 1.356 . S
N348 H354 0.984 . S
N348 H355 0.984 . S
N349 C342 1.356 1_556 S
N349 H352 0.984 . S
N349 H353 0.985 . S
H350 N345 0.984 . S
H351 N345 0.985 . S
H352 N349 0.984 . S
H353 N349 0.985 . S
H354 N348 0.984 . S
H355 N348 0.984 . S
H356 N344 0.984 . S
H357 N344 0.985 . S
C358 C359 1.374 . S
C358 C364 1.379 . S
C358 N366 1.356 . S
C359 C358 1.374 . S
C359 C365 1.352 1_655 S
C360 C361 1.363 1_455 S
C360 C365 1.379 . S
C360 N367 1.356 . S
C361 C360 1.363 1_655 S
C361 C364 1.363 . S
N362 C364 1.364 . S
N362 H374 0.985 . S
N362 H375 0.976 1_554 S
N363 C365 1.356 . S
N363 H368 0.984 . S
N363 H369 0.985 . S
C364 C358 1.379 . S
C364 C361 1.363 . S
C364 N362 1.364 . S
C365 C359 1.352 1_455 S
C365 C360 1.379 . S
C365 N363 1.356 . S
N366 C358 1.356 . S
N366 H372 0.984 . S
N366 H373 0.984 . S
N367 C360 1.356 . S
N367 H370 0.984 1_554 S
N367 H371 0.985 . S
H368 N363 0.984 . S
H369 N363 0.985 . S
H370 N367 0.984 1_556 S
H371 N367 0.985 . S
H372 N366 0.984 . S
H373 N366 0.984 . S
H374 N362 0.985 . S
H375 N362 0.976 1_556 S
C376 C377 1.363 . S
C376 C382 1.379 . S
C376 N384 1.356 . S
C377 C376 1.363 . S
C377 C383 1.363 . S
C378 C379 1.363 . S
C378 C383 1.379 . S
C378 N385 1.356 . S
C379 C378 1.363 . S
C379 C382 1.363 . S
N380 C382 1.356 . S
N380 H392 0.984 . S
N380 H393 0.985 . S
N381 C383 1.356 1_455 S
N381 H386 0.984 . S
N381 H387 0.985 . S
C382 C376 1.379 . S
C382 C379 1.363 . S
C382 N380 1.356 . S
C383 C377 1.363 . S
C383 C378 1.379 . S
C383 N381 1.356 1_655 S
N384 C376 1.356 . S
N384 H390 0.984 1_554 S
N384 H391 0.984 1_654 S
N385 C378 1.356 . S
N385 H388 0.984 . S
N385 H389 0.985 . S
H386 N381 0.984 . S
H387 N381 0.985 . S
H388 N385 0.984 . S
H389 N385 0.985 . S
H390 N384 0.984 1_556 S
H391 N384 0.984 1_456 S
H392 N380 0.984 . S
H393 N380 0.985 . S
C394 C395 1.363 . S
C394 C400 1.379 . S
C394 N402 1.356 . S
C395 C394 1.363 . S
C395 C401 1.363 1_565 S
C396 C397 1.363 . S
C396 C401 1.379 1_565 S
C396 N403 1.356 . S
C397 C396 1.363 . S
C397 C400 1.363 . S
N398 C400 1.356 . S
N398 H410 0.984 . S
N398 H411 0.985 . S
N399 C401 1.356 . S
N399 H404 0.984 . S
N399 H405 0.985 . S
C400 C394 1.379 . S
C400 C397 1.363 . S
C400 N398 1.356 . S
C401 C395 1.363 1_545 S
C401 C396 1.379 1_545 S
C401 N399 1.356 . S
N402 C394 1.356 . S
N402 H408 0.984 . S
N402 H409 0.984 . S
N403 C396 1.356 . S
N403 H406 0.984 . S
N403 H407 0.985 . S
H404 N399 0.984 . S
H405 N399 0.985 . S
H406 N403 0.984 . S
H407 N403 0.985 . S
H408 N402 0.984 . S
H409 N402 0.984 . S
H410 N398 0.984 . S
H411 N398 0.985 . S
C412 C413 1.363 . S
C412 C418 1.379 . S
C412 N420 1.356 . S
C413 C412 1.363 . S
C413 C419 1.363 . S
C414 C415 1.363 . S
C414 C419 1.379 . S
C414 N421 1.356 . S
C415 C414 1.363 . S
C415 C418 1.363 . S
N416 C418 1.356 . S
N416 H428 0.984 . S
N416 H429 0.985 . S
N417 C419 1.356 . S
N417 H422 0.984 . S
N417 H423 0.985 . S
C418 C412 1.379 . S
C418 C415 1.363 . S
C418 N416 1.356 . S
C419 C413 1.363 . S
C419 C414 1.379 . S
C419 N417 1.356 . S
N420 C412 1.356 . S
N420 H426 0.984 1_554 S
N420 H427 0.984 1_554 S
N421 C414 1.356 . S
N421 H424 0.984 . S
N421 H425 0.985 . S
H422 N417 0.984 . S
H423 N417 0.985 . S
H424 N421 0.984 . S
H425 N421 0.985 . S
H426 N420 0.984 1_556 S
H427 N420 0.984 1_556 S
H428 N416 0.984 . S
H429 N416 0.985 . S
C430 C431 1.363 . S
C430 C436 1.379 . S
C430 N438 1.356 . S
C431 C430 1.363 . S
C431 C437 1.363 . S
C432 C433 1.363 . S
C432 C437 1.379 . S
C432 N439 1.356 . S
C433 C432 1.363 . S
C433 C436 1.363 . S
N434 C436 1.356 . S
N434 H446 0.984 . S
N434 H447 0.985 . S
N435 C437 1.356 . S
N435 H440 0.984 . S
N435 H441 0.985 . S
C436 C430 1.379 . S
C436 C433 1.363 . S
C436 N434 1.356 . S
C437 C431 1.363 . S
C437 C432 1.379 . S
C437 N435 1.356 . S
N438 C430 1.356 . S
N438 H444 0.984 . S
N438 H445 0.984 . S
N439 C432 1.356 . S
N439 H442 0.984 . S
N439 H443 0.985 . S
H440 N435 0.984 . S
H441 N435 0.985 . S
H442 N439 0.984 . S
H443 N439 0.985 . S
H444 N438 0.984 . S
H445 N438 0.984 . S
H446 N434 0.984 . S
H447 N434 0.985 . S
C448 C449 1.363 . S
C448 C454 1.379 . S
C448 N456 1.356 . S
C449 C448 1.363 . S
C449 C455 1.363 . S
C450 C451 1.363 . S
C450 C455 1.379 . S
C450 N457 1.356 . S
C451 C450 1.363 . S
C451 C454 1.363 . S
N452 C454 1.356 . S
N452 H464 0.984 . S
N452 H465 0.985 . S
N453 C455 1.356 1_655 S
N453 H458 0.984 . S
N453 H459 0.985 . S
C454 C448 1.379 . S
C454 C451 1.363 . S
C454 N452 1.356 . S
C455 C449 1.363 . S
C455 C450 1.379 . S
C455 N453 1.356 1_455 S
N456 C448 1.356 . S
N456 H462 0.984 . S
N456 H463 0.986 . S
N457 C450 1.356 . S
N457 H460 0.984 . S
N457 H461 0.985 . S
H458 N453 0.984 . S
H459 N453 0.985 . S
H460 N457 0.984 . S
H461 N457 0.985 . S
H462 N456 0.984 . S
H463 N456 0.986 . S
H464 N452 0.984 . S
H465 N452 0.985 . S
C466 C467 1.363 1_565 S
C466 C472 1.379 1_565 S
C466 N474 1.356 . S
C467 C466 1.363 1_545 S
C467 C473 1.363 . S
C468 C469 1.363 . S
C468 C473 1.379 . S
C468 N475 1.356 . S
C469 C468 1.363 . S
C469 C472 1.363 . S
N470 C472 1.356 . S
N470 H482 0.984 . S
N470 H483 0.985 . S
N471 C473 1.356 . S
N471 H476 0.984 . S
N471 H477 0.985 . S
C472 C466 1.379 1_545 S
C472 C469 1.363 . S
C472 N470 1.356 . S
C473 C467 1.363 . S
C473 C468 1.379 . S
C473 N471 1.356 . S
N474 C466 1.356 . S
N474 H480 0.984 . S
N474 H481 0.984 . S
N475 C468 1.356 . S
N475 H478 0.984 . S
N475 H479 0.985 . S
H476 N471 0.984 . S
H477 N471 0.985 . S
H478 N475 0.984 . S
H479 N475 0.985 . S
H480 N474 0.984 . S
H481 N474 0.984 . S
H482 N470 0.984 . S
H483 N470 0.985 . S
C484 C485 1.363 . S
C484 C490 1.379 . S
C484 N492 1.356 . S
C485 C484 1.363 . S
C485 C491 1.363 . S
C486 C487 1.363 . S
C486 C491 1.379 . S
C486 N493 1.356 . S
C487 C486 1.363 . S
C487 C490 1.363 . S
N488 C490 1.356 . S
N488 H500 0.984 . S
N488 H501 0.985 . S
N489 C491 1.356 . S
N489 H494 0.984 . S
N489 H495 0.985 . S
C490 C484 1.379 . S
C490 C487 1.363 . S
C490 N488 1.356 . S
C491 C485 1.363 . S
C491 C486 1.379 . S
C491 N489 1.356 . S
N492 C484 1.356 . S
N492 H498 0.984 . S
N492 H499 0.984 . S
N493 C486 1.356 . S
N493 H496 0.984 . S
N493 H497 0.985 . S
H494 N489 0.984 . S
H495 N489 0.985 . S
H496 N493 0.984 . S
H497 N493 0.985 . S
H498 N492 0.984 . S
H499 N492 0.984 . S
H500 N488 0.984 . S
H501 N488 0.985 . S
C502 C503 1.363 . S
C502 C508 1.379 . S
C502 N510 1.356 . S
C503 C502 1.363 . S
C503 C509 1.363 . S
C504 C505 1.363 . S
C504 C509 1.379 . S
C504 N511 1.356 . S
C505 C504 1.363 . S
C505 C508 1.363 . S
N506 C508 1.356 . S
N506 H518 0.984 . S
N506 H519 0.985 . S
N507 C509 1.356 . S
N507 H512 0.984 . S
N507 H513 0.985 . S
C508 C502 1.379 . S
C508 C505 1.363 . S
C508 N506 1.356 . S
C509 C503 1.363 . S
C509 C504 1.379 . S
C509 N507 1.356 . S
N510 C502 1.356 . S
N510 H516 0.984 . S
N510 H517 0.984 . S
N511 C504 1.356 . S
N511 H514 0.984 . S
N511 H515 0.985 . S
H512 N507 0.984 . S
H513 N507 0.985 . S
H514 N511 0.984 . S
H515 N511 0.985 . S
H516 N510 0.984 . S
H517 N510 0.984 . S
H518 N506 0.984 . S
H519 N506 0.985 . S
C520 C521 1.363 . S
C520 C526 1.379 . S
C520 N528 1.361 . S
C521 C520 1.363 . S
C521 C527 1.363 1_455 S
C522 C523 1.363 1_655 S
C522 C527 1.379 . S
C522 N529 1.356 . S
C523 C522 1.363 1_455 S
C523 C526 1.363 . S
N524 C526 1.356 . S
N524 H536 0.984 1_556 S
N524 H537 0.985 . S
N525 C527 1.356 . S
N525 H530 0.984 . S
N525 H531 0.985 . S
C526 C520 1.379 . S
C526 C523 1.363 . S
C526 N524 1.356 . S
C527 C521 1.363 1_655 S
C527 C522 1.379 . S
C527 N525 1.356 . S
N528 C520 1.361 . S
N528 H534 0.979 1_556 S
N528 H535 0.986 . S
N529 C522 1.356 . S
N529 H532 0.984 . S
N529 H533 0.985 . S
H530 N525 0.984 . S
H531 N525 0.985 . S
H532 N529 0.984 . S
H533 N529 0.985 . S
H534 N528 0.979 1_554 S
H535 N528 0.986 . S
H536 N524 0.984 1_554 S
H537 N524 0.985 . S
C538 C539 1.363 1_565 S
C538 C544 1.379 . S
C538 N546 1.356 . S
C539 C538 1.363 1_545 S
C539 C545 1.363 . S
C540 C541 1.363 . S
C540 C545 1.379 . S
C540 N547 1.356 . S
C541 C540 1.363 . S
C541 C544 1.363 1_545 S
N542 C544 1.356 . S
N542 H554 0.984 . S
N542 H555 0.985 . S
N543 C545 1.356 . S
N543 H548 0.984 . S
N543 H549 0.985 . S
C544 C538 1.379 . S
C544 C541 1.363 1_565 S
C544 N542 1.356 . S
C545 C539 1.363 . S
C545 C540 1.379 . S
C545 N543 1.356 . S
N546 C538 1.356 . S
N546 H552 0.984 . S
N546 H553 0.984 . S
N547 C540 1.356 . S
N547 H550 0.984 . S
N547 H551 0.985 . S
H548 N543 0.984 . S
H549 N543 0.985 . S
H550 N547 0.984 . S
H551 N547 0.985 . S
H552 N546 0.984 . S
H553 N546 0.984 . S
H554 N542 0.984 . S
H555 N542 0.985 . S
C556 C557 1.363 . S
C556 C562 1.379 . S
C556 N564 1.356 . S
C557 C556 1.363 . S
C557 C563 1.363 . S
C558 C559 1.363 . S
C558 C563 1.379 . S
C558 N565 1.356 . S
C559 C558 1.363 . S
C559 C562 1.363 . S
N560 C562 1.356 . S
N560 H572 0.984 . S
N560 H573 0.985 . S
N561 C563 1.356 1_554 S
N561 H566 0.984 1_554 S
N561 H567 0.985 . S
C562 C556 1.379 . S
C562 C559 1.363 . S
C562 N560 1.356 . S
C563 C557 1.363 . S
C563 C558 1.379 . S
C563 N561 1.356 1_556 S
N564 C556 1.356 . S
N564 H570 0.984 . S
N564 H571 0.984 . S
N565 C558 1.356 . S
N565 H568 0.984 . S
N565 H569 0.985 1_556 S
H566 N561 0.984 1_556 S
H567 N561 0.985 . S
H568 N565 0.984 . S
H569 N565 0.985 1_554 S
H570 N564 0.984 . S
H571 N564 0.984 . S
H572 N560 0.984 . S
H573 N560 0.985 . S
C574 C575 1.363 . S
C574 C580 1.379 . S
C574 N582 1.356 . S
C575 C574 1.363 . S
C575 C581 1.363 . S
C576 C577 1.363 . S
C576 C581 1.379 . S
C576 N583 1.356 . S
C577 C576 1.363 . S
C577 C580 1.363 . S
N578 C580 1.356 . S
N578 H590 0.984 . S
N578 H591 0.985 . S
N579 C581 1.356 . S
N579 H584 0.984 . S
N579 H585 0.985 1_556 S
C580 C574 1.379 . S
C580 C577 1.363 . S
C580 N578 1.356 . S
C581 C575 1.363 . S
C581 C576 1.379 . S
C581 N579 1.356 . S
N582 C574 1.356 . S
N582 H588 0.984 . S
N582 H589 0.984 . S
N583 C576 1.356 . S
N583 H586 0.984 . S
N583 H587 0.985 . S
H584 N579 0.984 . S
H585 N579 0.985 1_554 S
H586 N583 0.984 . S
H587 N583 0.985 . S
H588 N582 0.984 . S
H589 N582 0.984 . S
H590 N578 0.984 . S
H591 N578 0.985 . S
C592 C593 1.363 . S
C592 C598 1.379 . S
C592 N600 1.356 . S
C593 C592 1.363 . S
C593 C599 1.363 1_655 S
C594 C595 1.363 1_455 S
C594 C599 1.379 . S
C594 N601 1.356 . S
C595 C594 1.363 1_655 S
C595 C598 1.363 . S
N596 C598 1.356 . S
N596 H608 0.984 . S
N596 H609 0.985 . S
N597 C599 1.356 . S
N597 H602 0.984 . S
N597 H603 0.985 . S
C598 C592 1.379 . S
C598 C595 1.363 . S
C598 N596 1.356 . S
C599 C593 1.363 1_455 S
C599 C594 1.379 . S
C599 N597 1.356 . S
N600 C592 1.356 . S
N600 H606 0.984 . S
N600 H607 0.984 . S
N601 C594 1.356 . S
N601 H604 0.984 . S
N601 H605 0.985 . S
H602 N597 0.984 . S
H603 N597 0.985 . S
H604 N601 0.984 . S
H605 N601 0.985 . S
H606 N600 0.984 . S
H607 N600 0.984 . S
H608 N596 0.984 . S
H609 N596 0.985 . S
C610 C611 1.363 1_545 S
C610 C616 1.379 . S
C610 N618 1.356 . S
C611 C610 1.363 1_565 S
C611 C617 1.363 . S
C612 C613 1.363 . S
C612 C617 1.379 . S
C612 N619 1.356 . S
C613 C612 1.363 . S
C613 C616 1.363 1_565 S
N614 C616 1.356 . S
N614 H626 0.984 . S
N614 H627 0.985 . S
N615 C617 1.356 . S
N615 H620 0.984 . S
N615 H621 0.985 . S
C616 C610 1.379 . S
C616 C613 1.363 1_545 S
C616 N614 1.356 . S
C617 C611 1.363 . S
C617 C612 1.379 . S
C617 N615 1.356 . S
N618 C610 1.356 . S
N618 H624 0.984 . S
N618 H625 0.984 . S
N619 C612 1.356 . S
N619 H622 0.984 . S
N619 H623 0.985 . S
H620 N615 0.984 . S
H621 N615 0.985 . S
H622 N619 0.984 . S
H623 N619 0.985 . S
H624 N618 0.984 . S
H625 N618 0.984 . S
H626 N614 0.984 . S
H627 N614 0.985 . S
C628 C629 1.363 . S
C628 C634 1.379 . S
C628 N636 1.356 . S
C629 C628 1.363 . S
C629 C635 1.363 . S
C630 C631 1.363 . S
C630 C635 1.379 . S
C630 N637 1.356 . S
C631 C630 1.363 . S
C631 C634 1.363 . S
N632 C634 1.356 . S
N632 H644 0.984 . S
N632 H645 0.985 . S
N633 C635 1.356 . S
N633 H638 0.984 . S
N633 H639 0.985 . S
C634 C628 1.379 . S
C634 C631 1.363 . S
C634 N632 1.356 . S
C635 C629 1.363 . S
C635 C630 1.379 . S
C635 N633 1.356 . S
N636 C628 1.356 . S
N636 H642 0.984 . S
N636 H643 0.984 . S
N637 C630 1.356 . S
N637 H640 0.984 . S
N637 H641 0.985 . S
H638 N633 0.984 . S
H639 N633 0.985 . S
H640 N637 0.984 . S
H641 N637 0.985 . S
H642 N636 0.984 . S
H643 N636 0.984 . S
H644 N632 0.984 . S
H645 N632 0.985 . S
C646 C647 1.363 . S
C646 C652 1.379 . S
C646 N654 1.356 . S
C647 C646 1.363 . S
C647 C653 1.363 . S
C648 C649 1.363 . S
C648 C653 1.379 . S
C648 N655 1.356 . S
C649 C648 1.363 . S
C649 C652 1.363 . S
N650 C652 1.356 . S
N650 H662 0.984 . S
N650 H663 0.985 . S
N651 C653 1.356 . S
N651 H656 0.984 . S
N651 H657 0.985 . S
C652 C646 1.379 . S
C652 C649 1.363 . S
C652 N650 1.356 . S
C653 C647 1.363 . S
C653 C648 1.379 . S
C653 N651 1.356 . S
N654 C646 1.356 . S
N654 H660 0.984 . S
N654 H661 0.984 . S
N655 C648 1.356 . S
N655 H658 0.984 . S
N655 H659 0.985 . S
H656 N651 0.984 . S
H657 N651 0.985 . S
H658 N655 0.984 . S
H659 N655 0.985 . S
H660 N654 0.984 . S
H661 N654 0.984 . S
H662 N650 0.984 . S
H663 N650 0.985 . S
C233 C61 2.007 . S
C235 C90 2.291 . S
C253 C130 2.317 . S
C251 C70 2.051 . S
C271 C170 2.328 . S
C269 C43 2.051 . S
C289 C210 2.307 . S
C287 C52 2.027 1_455 S
C307 C80 2.291 1_554 S
C305 C25 2.010 1_545 S
C323 C34 2.055 . S
C325 C120 2.318 1_554 S
C341 C7 2.049 . S
C343 C160 2.329 1_554 S
C359 C16 2.027 . S
C361 C200 2.307 1_554 S
C379 C77 0.853 . S
C377 C50 0.879 . S
C397 C117 0.836 . S
C395 C59 0.855 . S
C415 C157 0.818 . S
C413 C67 0.838 . S
C431 C41 0.854 . S
C433 C197 0.828 . S
C449 C14 0.883 1_455 S
C451 C87 0.855 . S
C469 C127 0.836 . S
C467 C23 0.857 1_545 S
C487 C167 0.818 . S
C485 C31 0.836 . S
C503 C5 0.859 . S
C505 C207 0.833 . S
C521 C49 2.295 1_455 S
C523 C81 2.597 . S
C539 C58 2.239 1_545 S
C541 C121 2.539 . S
C559 C161 2.522 . S
C557 C68 2.222 . S
C577 C201 2.580 . S
C575 C40 2.276 . S
C593 C13 2.294 . S
C595 C91 2.603 . S
C613 C131 2.539 . S
C611 C22 2.238 . S
C631 C171 2.522 . S
C629 C32 2.229 . S
C647 C4 2.275 . S
C649 C211 2.583 . S
