# Generated by pormake.
# Topology apo, (3,6)-cn, num edge types: 1
# Building blocks:
#     Node 0, Type 0, BuildingBlock: VETTIZ_charged_linker_0, # of connection points: 3
#     Node 1, Type 0, BuildingBlock: VETTIZ_charged_linker_0, # of connection points: 3
#     Node 2, Type 0, BuildingBlock: VETTIZ_charged_linker_0, # of connection points: 3
#     Node 3, Type 0, BuildingBlock: VETTIZ_charged_linker_0, # of connection points: 3
#     Node 4, Type 0, BuildingBlock: VETTIZ_charged_linker_0, # of connection points: 3
#     Node 5, Type 0, BuildingBlock: VETTIZ_charged_linker_0, # of connection points: 3
#     Node 6, Type 0, BuildingBlock: VETTIZ_charged_linker_0, # of connection points: 3
#     Node 7, Type 0, BuildingBlock: VETTIZ_charged_linker_0, # of connection points: 3
#     Node 8, Type 1, BuildingBlock: KUMBOL_clean_sbu_1, # of connection points: 6
#     Node 9, Type 1, BuildingBlock: KUMBOL_clean_sbu_1, # of connection points: 6
#     Node 10, Type 1, BuildingBlock: KUMBOL_clean_sbu_1, # of connection points: 6
#     Node 11, Type 1, BuildingBlock: KUMBOL_clean_sbu_1, # of connection points: 6
#     Edge 12, Type (0, 1), BuildingBlock: EZIPEK_clean_linker_0, # of connection points: 2
#     Edge 13, Type (0, 1), BuildingBlock: EZIPEK_clean_linker_0, # of connection points: 2
#     Edge 14, Type (0, 1), BuildingBlock: EZIPEK_clean_linker_0, # of connection points: 2
#     Edge 15, Type (0, 1), BuildingBlock: EZIPEK_clean_linker_0, # of connection points: 2
#     Edge 16, Type (0, 1), BuildingBlock: EZIPEK_clean_linker_0, # of connection points: 2
#     Edge 17, Type (0, 1), BuildingBlock: EZIPEK_clean_linker_0, # of connection points: 2
#     Edge 18, Type (0, 1), BuildingBlock: EZIPEK_clean_linker_0, # of connection points: 2
#     Edge 19, Type (0, 1), BuildingBlock: EZIPEK_clean_linker_0, # of connection points: 2
#     Edge 20, Type (0, 1), BuildingBlock: EZIPEK_clean_linker_0, # of connection points: 2
#     Edge 21, Type (0, 1), BuildingBlock: EZIPEK_clean_linker_0, # of connection points: 2
#     Edge 22, Type (0, 1), BuildingBlock: EZIPEK_clean_linker_0, # of connection points: 2
#     Edge 23, Type (0, 1), BuildingBlock: EZIPEK_clean_linker_0, # of connection points: 2
#     Edge 24, Type (0, 1), BuildingBlock: EZIPEK_clean_linker_0, # of connection points: 2
#     Edge 25, Type (0, 1), BuildingBlock: EZIPEK_clean_linker_0, # of connection points: 2
#     Edge 26, Type (0, 1), BuildingBlock: EZIPEK_clean_linker_0, # of connection points: 2
#     Edge 27, Type (0, 1), BuildingBlock: EZIPEK_clean_linker_0, # of connection points: 2
#     Edge 28, Type (0, 1), BuildingBlock: EZIPEK_clean_linker_0, # of connection points: 2
#     Edge 29, Type (0, 1), BuildingBlock: EZIPEK_clean_linker_0, # of connection points: 2
#     Edge 30, Type (0, 1), BuildingBlock: EZIPEK_clean_linker_0, # of connection points: 2
#     Edge 31, Type (0, 1), BuildingBlock: EZIPEK_clean_linker_0, # of connection points: 2
#     Edge 32, Type (0, 1), BuildingBlock: EZIPEK_clean_linker_0, # of connection points: 2
#     Edge 33, Type (0, 1), BuildingBlock: EZIPEK_clean_linker_0, # of connection points: 2
#     Edge 34, Type (0, 1), BuildingBlock: EZIPEK_clean_linker_0, # of connection points: 2
#     Edge 35, Type (0, 1), BuildingBlock: EZIPEK_clean_linker_0, # of connection points: 2
# Relax obj value: 0.009
# Max RMSD: 0.111
# Mean RMSD: 0.087
data_MOF--net-apo--node1-KUMBOL_clean_sbu_1--node2-VETTIZ_charged_linker_0--edge1-EZIPEK_clean_linker_0
_symmetry_space_group_name_H-M    P1
_symmetry_Int_Tables_number       1
_symmetry_cell_setting            triclinic
loop_
_symmetry_equiv_pos_as_xyz
'x, y, z'
_cell_length_a     22.882445
_cell_length_b     40.251432
_cell_length_c     51.695777
_cell_angle_alpha  89.980675
_cell_angle_beta   89.89927
_cell_angle_gamma 90.616207
loop_
_atom_site_label
_atom_site_type_symbol
_atom_site_fract_x
_atom_site_fract_y
_atom_site_fract_z
_atom_type_partial_charge
C0 C 0.30138 0.35771 0.49264 0.0
C1 C 0.33411 0.38074 0.50774 0.0
C2 C 0.3687 0.40392 0.49353 0.0
C3 C 0.31657 0.39112 0.45417 0.0
C4 C 0.29137 0.36411 0.46634 0.0
C5 C 0.25314 0.34411 0.44826 0.0
H6 H 0.1674 0.316 0.32481 0.0
C7 C 0.29488 0.39227 0.42738 0.0
C8 C 0.25805 0.36456 0.42359 0.0
H9 H 0.12012 0.25867 0.39243 0.0
H10 H 0.17056 0.29854 0.4199 0.0
H11 H 0.12435 0.38081 0.35071 0.0
H12 H 0.29715 0.34275 0.33964 0.0
H13 H 0.29536 0.38475 0.32964 0.0
H14 H 0.24838 0.35491 0.31419 0.0
H15 H 0.1651 0.39001 0.32195 0.0
H16 H 0.17019 0.41607 0.35038 0.0
C17 C 0.19003 0.34361 0.45913 0.0
C18 C 0.28035 0.30932 0.44526 0.0
C19 C 0.35395 0.48847 0.36875 0.0
C20 C 0.34005 0.49607 0.34301 0.0
C21 C 0.30031 0.4758 0.32939 0.0
C22 C 0.27642 0.44728 0.34094 0.0
C23 C 0.29229 0.43913 0.3664 0.0
C24 C 0.32905 0.46008 0.38015 0.0
C25 C 0.34032 0.44753 0.40709 0.0
C26 C 0.30377 0.41575 0.40723 0.0
C27 C 0.27679 0.41076 0.38322 0.0
C28 C 0.31667 0.47345 0.42644 0.0
C29 C 0.40665 0.44059 0.4099 0.0
C30 C 0.16826 0.31198 0.34553 0.0
C31 C 0.14173 0.28367 0.35644 0.0
C32 C 0.14171 0.27991 0.38359 0.0
C33 C 0.1709 0.30303 0.39944 0.0
C34 C 0.19866 0.33075 0.38807 0.0
C35 C 0.19457 0.33556 0.36167 0.0
C36 C 0.21877 0.36865 0.35331 0.0
C37 C 0.24329 0.38154 0.37865 0.0
C38 C 0.23248 0.35898 0.3989 0.0
C39 C 0.16733 0.39007 0.34341 0.0
C40 C 0.26739 0.3627 0.33302 0.0
H41 H 0.38342 0.42968 0.45837 0.0
H42 H 0.284 0.3348 0.50027 0.0
H43 H 0.32837 0.31149 0.44217 0.0
H44 H 0.26338 0.29542 0.42849 0.0
H45 H 0.27283 0.2941 0.46291 0.0
H46 H 0.17978 0.3675 0.46887 0.0
H47 H 0.18397 0.32339 0.47355 0.0
H48 H 0.15664 0.34094 0.44384 0.0
H49 H 0.38476 0.50377 0.37944 0.0
H50 H 0.28958 0.48143 0.30946 0.0
H51 H 0.24792 0.43219 0.32935 0.0
H52 H 0.27147 0.48072 0.42113 0.0
H53 H 0.34444 0.49627 0.42633 0.0
H54 H 0.31424 0.46407 0.44646 0.0
H55 H 0.42854 0.43795 0.39079 0.0
H56 H 0.41502 0.41678 0.41993 0.0
H57 H 0.42936 0.46103 0.42041 0.0
H58 H 0.40337 0.41813 0.50258 0.0
C59 C 0.35848 0.41013 0.46731 0.0
C60 C 0.33461 0.19218 0.84653 0.0
C61 C 0.35579 0.22202 0.85719 0.0
C62 C 0.35157 0.22707 0.8841 0.0
C63 C 0.30127 0.17401 0.88888 0.0
C64 C 0.30851 0.16843 0.86269 0.0
C65 C 0.28561 0.13496 0.85446 0.0
H66 H 0.1269 0.99674 0.88189 0.0
C67 C 0.26854 0.14531 0.89973 0.0
C68 C 0.25987 0.12221 0.87966 0.0
H69 H 0.21541 0.02175 0.81062 0.0
H70 H 0.25535 0.07165 0.83008 0.0
H71 H 0.23845 0.02308 0.92297 0.0
H72 H 0.07815 0.06096 0.89233 0.0
H73 H 0.09006 0.08372 0.92082 0.0
H74 H 0.07922 0.0392 0.92253 0.0
H75 H 0.16663 0.0059 0.92841 0.0
H76 H 0.1944 0.03905 0.9482 0.0
C77 C 0.33809 0.11383 0.84535 0.0
C78 C 0.23801 0.14025 0.83364 0.0
C79 C 0.20001 0.14518 0.99366 0.0
C80 C 0.16768 0.12179 0.00867 0.0
C81 C 0.13454 0.0981 0.99438 0.0
C82 C 0.14589 0.09188 0.9683 0.0
C83 C 0.18709 0.1115 0.95524 0.0
C84 C 0.2108 0.1389 0.96739 0.0
C85 C 0.24705 0.15987 0.94912 0.0
C86 C 0.24316 0.13938 0.92444 0.0
C87 C 0.20846 0.11085 0.92841 0.0
C88 C 0.31031 0.16181 0.95961 0.0
C89 C 0.21709 0.19398 0.94633 0.0
C90 C 0.15632 0.0126 0.87088 0.0
C91 C 0.16891 0.00546 0.84493 0.0
C92 C 0.20603 0.02686 0.83078 0.0
C93 C 0.2288 0.05582 0.84207 0.0
C94 C 0.21411 0.06347 0.86778 0.0
C95 C 0.1795 0.04167 0.88191 0.0
C96 C 0.16722 0.05437 0.90869 0.0
C97 C 0.20128 0.08702 0.90843 0.0
C98 C 0.22786 0.0924 0.88434 0.0
C99 C 0.19272 0.02934 0.92827 0.0
C100 C 0.10032 0.05972 0.91144 0.0
H101 H 0.32136 0.20866 0.9203 0.0
H102 H 0.33852 0.18743 0.82597 0.0
H103 H 0.20928 0.16127 0.83908 0.0
H104 H 0.20848 0.11864 0.8313 0.0
H105 H 0.258 0.14617 0.81457 0.0
H106 H 0.37942 0.12183 0.85493 0.0
H107 H 0.34489 0.11605 0.82414 0.0
H108 H 0.33314 0.08728 0.85056 0.0
H109 H 0.21643 0.16822 1.00153 0.0
H110 H 0.09941 0.08383 1.00302 0.0
H111 H 0.12195 0.07201 0.95936 0.0
H112 H 0.32348 0.13751 0.96792 0.0
H113 H 0.31434 0.18079 0.97512 0.0
H114 H 0.3429 0.16728 0.94438 0.0
H115 H 0.16872 0.19091 0.94575 0.0
H116 H 0.22851 0.20694 0.92821 0.0
H117 H 0.22797 0.21043 0.96293 0.0
H118 H 0.36878 0.24969 0.89269 0.0
C119 C 0.32403 0.2033 0.9 0.0
C120 C 0.82191 0.15389 0.5228 0.0
C121 C 0.83798 0.12938 0.50472 0.0
C122 C 0.8411 0.09606 0.5133 0.0
C123 C 0.81245 0.11241 0.5566 0.0
C124 C 0.8048 0.14442 0.54777 0.0
C125 C 0.76779 0.1645 0.56597 0.0
H126 H 0.68789 0.1931 0.68872 0.0
C127 C 0.79051 0.1107 0.58344 0.0
C128 C 0.76288 0.14095 0.58885 0.0
H129 H 0.63139 0.24713 0.62116 0.0
H130 H 0.67945 0.20706 0.59348 0.0
H131 H 0.63767 0.12891 0.6667 0.0
H132 H 0.81594 0.16315 0.66956 0.0
H133 H 0.81042 0.12205 0.68161 0.0
H134 H 0.77029 0.1544 0.69713 0.0
H135 H 0.68332 0.11943 0.69376 0.0
H136 H 0.6797 0.09269 0.66568 0.0
C137 C 0.70741 0.17004 0.55307 0.0
C138 C 0.80068 0.19705 0.57274 0.0
C139 C 0.85872 0.0176 0.64286 0.0
C140 C 0.84795 0.01079 0.66917 0.0
C141 C 0.8104 0.03174 0.68318 0.0
C142 C 0.78618 0.05981 0.6717 0.0
C143 C 0.79847 0.06689 0.64568 0.0
C144 C 0.83251 0.04542 0.63138 0.0
C145 C 0.83448 0.0551 0.60319 0.0
C146 C 0.79954 0.08717 0.60353 0.0
C147 C 0.77929 0.09401 0.62861 0.0
C148 C 0.80351 0.02747 0.58723 0.0
C149 C 0.89888 0.06106 0.5953 0.0
C150 C 0.68615 0.19647 0.66794 0.0
C151 C 0.65804 0.22418 0.65715 0.0
C152 C 0.65448 0.22669 0.62997 0.0
C153 C 0.68196 0.20333 0.61397 0.0
C154 C 0.71099 0.1763 0.6252 0.0
C155 C 0.7098 0.17228 0.65168 0.0
C156 C 0.73226 0.1389 0.65989 0.0
C157 C 0.75069 0.12443 0.63399 0.0
C158 C 0.74029 0.1471 0.61395 0.0
C159 C 0.68098 0.11888 0.6723 0.0
C160 C 0.78496 0.14469 0.67811 0.0
H161 H 0.83387 0.06206 0.54472 0.0
H162 H 0.81751 0.17955 0.51691 0.0
H163 H 0.84478 0.19154 0.58055 0.0
H164 H 0.77769 0.21195 0.58737 0.0
H165 H 0.80622 0.2129 0.5553 0.0
H166 H 0.69824 0.1514 0.53767 0.0
H167 H 0.70492 0.19503 0.54404 0.0
H168 H 0.67075 0.16674 0.56688 0.0
H169 H 0.8864 1.00148 0.63154 0.0
H170 H 0.80095 0.02671 0.70337 0.0
H171 H 0.75922 0.07511 0.68361 0.0
H172 H 0.7726 0.01258 0.59932 0.0
H173 H 0.83556 0.01 0.57877 0.0
H174 H 0.77611 0.03777 0.57159 0.0
H175 H 0.91958 0.08002 0.60808 0.0
H176 H 0.90356 0.06991 0.57522 0.0
H177 H 0.92421 0.03777 0.59696 0.0
H178 H 0.8513 0.07636 0.49981 0.0
C179 C 0.83024 0.08766 0.53926 0.0
C180 C 0.83815 0.3161 0.16556 0.0
C181 C 0.84451 0.28289 0.15766 0.0
C182 C 0.82163 0.27304 0.13349 0.0
C183 C 0.7865 0.32879 0.12589 0.0
C184 C 0.8071 0.33809 0.14994 0.0
C185 C 0.78672 0.37204 0.15769 0.0
H186 H 0.62384 0.50681 0.13089 0.0
C187 C 0.75609 0.35759 0.11464 0.0
C188 C 0.75625 0.38307 0.13315 0.0
H189 H 0.709 0.48126 0.2025 0.0
H190 H 0.75454 0.43421 0.18198 0.0
H191 H 0.73719 0.4941 0.09672 0.0
H192 H 0.58646 0.43072 0.10885 0.0
H193 H 0.60208 0.4385 0.07551 0.0
H194 H 0.58539 0.47244 0.09631 0.0
H195 H 0.67509 0.49576 0.07575 0.0
H196 H 0.73356 0.46672 0.07026 0.0
C197 C 0.8408 0.39402 0.16398 0.0
C198 C 0.74308 0.36747 0.1805 0.0
C199 C 0.67614 0.35101 0.02324 0.0
C200 C 0.66453 0.37573 1.00469 0.0
C201 C 0.66402 0.40928 0.01289 0.0
C202 C 0.67362 0.41777 0.03892 0.0
C203 C 0.68748 0.39277 0.05674 0.0
C204 C 0.69192 0.36033 0.04837 0.0
C205 C 0.72229 0.33874 0.0678 0.0
C206 C 0.73052 0.36294 0.09003 0.0
C207 C 0.70812 0.39427 0.08377 0.0
C208 C 0.78175 0.32841 0.05602 0.0
C209 C 0.68134 0.30924 0.07495 0.0
C210 C 0.65228 0.49085 0.14193 0.0
C211 C 0.6623 0.49703 0.16835 0.0
C212 C 0.7005 0.47652 0.18221 0.0
C213 C 0.72634 0.44913 0.17032 0.0
C214 C 0.7136 0.44204 0.14431 0.0
C215 C 0.67858 0.46324 0.13025 0.0
C216 C 0.67357 0.45262 0.1023 0.0
C217 C 0.70523 0.41951 0.10295 0.0
C218 C 0.72907 0.41379 0.12754 0.0
C219 C 0.70613 0.4786 0.08525 0.0
C220 C 0.60835 0.44831 0.09525 0.0
H221 H 0.77743 0.28692 0.09921 0.0
H222 H 0.85419 0.3243 0.18423 0.0
H223 H 0.71834 0.3436 0.17881 0.0
H224 H 0.7088 0.38654 0.18099 0.0
H225 H 0.76616 0.36719 0.19938 0.0
H226 H 0.87774 0.38823 0.15077 0.0
H227 H 0.85591 0.38985 0.18412 0.0
H228 H 0.83265 0.4208 0.16121 0.0
H229 H 0.67788 0.32508 0.01775 0.0
H230 H 0.65681 0.42903 0.99906 0.0
H231 H 0.67198 0.44353 0.04412 0.0
H232 H 0.80296 0.3498 0.04591 0.0
H233 H 0.77586 0.30815 0.04164 0.0
H234 H 0.81376 0.32048 0.07062 0.0
H235 H 0.63462 0.31636 0.07347 0.0
H236 H 0.6868 0.30099 0.09519 0.0
H237 H 0.68828 0.28779 0.06182 0.0
H238 H 0.825 0.24747 0.12717 0.0
C239 C 0.79373 0.29593 0.11737 0.0
C240 C 0.67663 0.53189 0.66711 0.0
C241 C 0.64802 0.5034 0.65734 0.0
C242 C 0.64234 0.50011 0.63025 0.0
C243 C 0.68926 0.55394 0.62367 0.0
C244 C 0.69871 0.55599 0.65001 0.0
C245 C 0.73792 0.58484 0.65704 0.0
H246 H 0.83581 0.73839 0.62923 0.0
C247 C 0.71521 0.58409 0.61151 0.0
C248 C 0.74444 0.60203 0.63096 0.0
H249 H 0.87921 0.6777 0.69541 0.0
H250 H 0.82918 0.63091 0.6763 0.0
H251 H 0.87966 0.67473 0.59069 0.0
H252 H 0.71167 0.71226 0.61376 0.0
H253 H 0.70853 0.70253 0.5806 0.0
H254 H 0.7588 0.73421 0.59164 0.0
H255 H 0.85179 0.71324 0.57865 0.0
H256 H 0.83387 0.67406 0.56349 0.0
C257 C 0.79692 0.5709 0.66692 0.0
C258 C 0.706 0.60675 0.67703 0.0
C259 C 0.67498 0.61034 0.51683 0.0
C260 C 0.68819 0.63794 0.50113 0.0
C261 C 0.71574 0.66596 0.51218 0.0
C262 C 0.73186 0.66604 0.53837 0.0
C263 C 0.71985 0.6379 0.55374 0.0
C264 C 0.69098 0.61087 0.54301 0.0
C265 C 0.6809 0.58341 0.56238 0.0
C266 C 0.71012 0.59793 0.58627 0.0
C267 C 0.7329 0.62989 0.58108 0.0
C268 C 0.71215 0.55179 0.55274 0.0
C269 C 0.61413 0.57906 0.56599 0.0
C270 C 0.8349 0.71493 0.63949 0.0
C271 C 0.85928 0.71223 0.66446 0.0
C272 C 0.85909 0.6808 0.67661 0.0
C273 C 0.83009 0.6536 0.66554 0.0
C274 C 0.80315 0.65718 0.64142 0.0
C275 C 0.80928 0.68665 0.62797 0.0
C276 C 0.78722 0.68332 0.60059 0.0
C277 C 0.76259 0.64796 0.60082 0.0
C278 C 0.77061 0.63332 0.62516 0.0
C279 C 0.8405 0.68672 0.5822 0.0
C280 C 0.73923 0.7095 0.59616 0.0
H281 H 0.65503 0.52173 0.5931 0.0
H282 H 0.68342 0.5348 0.68771 0.0
H283 H 0.66205 0.61364 0.66975 0.0
H284 H 0.72975 0.6301 0.68124 0.0
H285 H 0.70017 0.59331 0.69564 0.0
H286 H 0.80149 0.54388 0.66292 0.0
H287 H 0.80158 0.57419 0.68816 0.0
H288 H 0.83491 0.58275 0.65708 0.0
H289 H 0.6536 0.58858 0.50873 0.0
H290 H 0.7259 0.68746 0.50033 0.0
H291 H 0.75329 0.68795 0.54562 0.0
H292 H 0.7527 0.55833 0.54188 0.0
H293 H 0.68354 0.53702 0.53964 0.0
H294 H 0.72695 0.53579 0.56877 0.0
H295 H 0.59297 0.60365 0.56824 0.0
H296 H 0.60215 0.56479 0.58342 0.0
H297 H 0.59429 0.56657 0.54892 0.0
H298 H 0.62225 0.47801 0.62208 0.0
C299 C 0.66167 0.52545 0.61345 0.0
C300 C 0.65876 0.81449 0.16463 0.0
C301 C 0.64343 0.7829 0.1551 0.0
C302 C 0.65488 0.7755 0.12892 0.0
C303 C 0.69915 0.83007 0.12281 0.0
C304 C 0.6879 0.83716 0.14849 0.0
C305 C 0.71642 0.86909 0.15704 0.0
H306 H 0.85223 0.01401 0.12704 0.0
C307 C 0.7315 0.85879 0.11166 0.0
C308 C 0.741 0.88188 0.13158 0.0
H309 H 0.82673 0.96922 0.20238 0.0
H310 H 0.77775 0.92274 0.183 0.0
H311 H 0.90381 0.93997 0.10434 0.0
H312 H 0.73847 0.99018 0.09739 0.0
H313 H 0.75242 0.96949 0.06811 0.0
H314 H 0.80084 0.00265 0.07849 0.0
H315 H 0.8962 0.9804 0.09004 0.0
H316 H 0.88305 0.94357 0.07158 0.0
C317 C 0.7655 0.86044 0.17664 0.0
C318 C 0.66889 0.89221 0.16803 0.0
C319 C 0.80187 0.85734 0.01832 0.0
C320 C 0.82164 0.88257 1.00148 0.0
C321 C 0.82516 0.91552 0.01074 0.0
C322 C 0.81145 0.92306 0.03646 0.0
C323 C 0.79298 0.89752 0.05312 0.0
C324 C 0.78511 0.86571 0.04358 0.0
C325 C 0.75435 0.84343 0.06276 0.0
C326 C 0.75152 0.86604 0.08624 0.0
C327 C 0.77549 0.89756 0.08059 0.0
C328 C 0.79259 0.8126 0.06762 0.0
C329 C 0.69266 0.8353 0.052 0.0
C330 C 0.83664 0.99395 0.13929 0.0
C331 C 0.84237 0.99586 0.16642 0.0
C332 C 0.822 0.96889 0.18153 0.0
C333 C 0.79415 0.94154 0.17023 0.0
C334 C 0.78972 0.93967 0.14327 0.0
C335 C 0.81276 0.96493 0.12814 0.0
C336 C 0.81269 0.95572 0.09985 0.0
C337 C 0.78471 0.92112 0.10073 0.0
C338 C 0.76964 0.91258 0.12619 0.0
C339 C 0.87714 0.95491 0.09073 0.0
C340 C 0.77452 0.98083 0.08499 0.0
H341 H 0.68984 0.79188 0.09297 0.0
H342 H 0.65147 0.82064 0.18477 0.0
H343 H 0.63144 0.89379 0.15441 0.0
H344 H 0.68488 0.91788 0.17106 0.0
H345 H 0.65206 0.88265 0.18681 0.0
H346 H 0.77637 0.83356 0.1765 0.0
H347 H 0.75261 0.86676 0.19676 0.0
H348 H 0.8074 0.87318 0.17191 0.0
H349 H 0.79755 0.83193 0.01165 0.0
H350 H 0.83905 0.93548 0.99799 0.0
H351 H 0.81522 0.94852 0.04238 0.0
H352 H 0.83948 0.81992 0.06908 0.0
H353 H 0.78817 0.79443 0.05155 0.0
H354 H 0.78217 0.79988 0.08598 0.0
H355 H 0.67474 0.85684 0.04121 0.0
H356 H 0.66021 0.83018 0.06736 0.0
H357 H 0.69387 0.81388 0.03847 0.0
H358 H 0.64386 0.7512 0.12122 0.0
C359 C 0.68178 0.79909 0.11263 0.0
C360 C 0.16794 0.96874 0.34174 0.0
C361 C 0.13845 0.99632 0.35139 0.0
C362 C 0.12815 0.99924 0.37811 0.0
C363 C 0.17476 0.9462 0.38513 0.0
C364 C 0.18564 0.94406 0.35889 0.0
C365 C 0.21488 0.91232 0.35149 0.0
H366 H 0.36401 0.77662 0.38597 0.0
C367 C 0.19766 0.91583 0.39734 0.0
C368 C 0.22166 0.89611 0.3778 0.0
H369 H 0.3097 0.80744 0.30959 0.0
H370 H 0.25731 0.85286 0.32781 0.0
H371 H 0.37745 0.84819 0.41674 0.0
H372 H 0.22621 0.78452 0.40558 0.0
H373 H 0.22472 0.80015 0.43722 0.0
H374 H 0.28381 0.77362 0.4274 0.0
H375 H 0.37208 0.80703 0.4301 0.0
H376 H 0.34021 0.84192 0.44641 0.0
C377 C 0.27468 0.92131 0.33911 0.0
C378 C 0.17281 0.89237 0.33354 0.0
C379 C 0.16615 0.89619 0.49311 0.0
C380 C 0.18333 0.87082 0.50993 0.0
C381 C 0.2198 0.84542 0.50075 0.0
C382 C 0.23817 0.84492 0.47484 0.0
C383 C 0.21936 0.86996 0.45795 0.0
C384 C 0.18494 0.89538 0.46734 0.0
C385 C 0.17081 0.92053 0.44692 0.0
C386 C 0.19895 0.9049 0.42339 0.0
C387 C 0.22765 0.87528 0.42986 0.0
C388 C 0.20088 0.95388 0.45438 0.0
C389 C 0.10346 0.92231 0.4443 0.0
C390 C 0.34071 0.79332 0.37331 0.0
C391 C 0.34261 0.78916 0.34616 0.0
C392 C 0.31007 0.81061 0.33041 0.0
C393 C 0.27943 0.83698 0.34104 0.0
C394 C 0.27901 0.84145 0.3679 0.0
C395 C 0.30659 0.81895 0.38377 0.0
C396 C 0.29119 0.82459 0.4119 0.0
C397 C 0.25438 0.85592 0.4101 0.0
C398 C 0.24914 0.86586 0.38421 0.0
C399 C 0.34811 0.83061 0.4273 0.0
C400 C 0.25492 0.79418 0.42128 0.0
H401 H 0.1365 0.97747 0.41526 0.0
H402 H 0.17588 0.96615 0.32116 0.0
H403 H 0.12732 0.90184 0.33422 0.0
H404 H 0.16868 0.86596 0.33947 0.0
H405 H 0.18733 0.89362 0.31305 0.0
H406 H 0.29871 0.93964 0.35133 0.0
H407 H 0.26869 0.93252 0.31967 0.0
H408 H 0.30384 0.89986 0.33703 0.0
H409 H 0.13856 0.91608 0.49992 0.0
H410 H 0.23369 0.82585 0.51368 0.0
H411 H 0.2662 0.82512 0.46894 0.0
H412 H 0.24191 0.94966 0.46538 0.0
H413 H 0.17191 0.96921 0.46671 0.0
H414 H 0.21483 0.96857 0.43734 0.0
H415 H 0.0834 0.89706 0.44568 0.0
H416 H 0.08915 0.93211 0.42545 0.0
H417 H 0.08435 0.93778 0.45989 0.0
H418 H 0.10537 0.02061 0.38567 0.0
C419 C 0.14626 0.97425 0.39511 0.0
C420 C 0.16414 0.68953 0.84849 0.0
C421 C 0.15247 0.72178 0.8572 0.0
C422 C 0.16722 0.73034 0.88291 0.0
C423 C 0.20729 0.67547 0.88992 0.0
C424 C 0.19404 0.66764 0.86455 0.0
C425 C 0.2225 0.63626 0.85577 0.0
H426 H 0.37015 0.49715 0.88355 0.0
C427 C 0.24122 0.64762 0.90081 0.0
C428 C 0.25084 0.62494 0.88065 0.0
H429 H 0.32066 0.5343 0.80838 0.0
H430 H 0.27787 0.58248 0.82823 0.0
H431 H 0.42422 0.56713 0.90064 0.0
H432 H 0.25834 0.5202 0.91667 0.0
H433 H 0.28314 0.53843 0.94561 0.0
H434 H 0.3257 0.50633 0.93052 0.0
H435 H 0.41662 0.53428 0.92389 0.0
H436 H 0.40657 0.57726 0.93267 0.0
C437 C 0.26867 0.64547 0.83476 0.0
C438 C 0.1742 0.61181 0.84658 0.0
C439 C 0.29533 0.64446 0.99648 0.0
C440 C 0.32646 0.62141 0.01141 0.0
C441 C 0.34708 0.59223 0.99975 0.0
C442 C 0.33691 0.58599 0.97348 0.0
C443 C 0.30638 0.60937 0.95862 0.0
C444 C 0.28582 0.63798 0.97013 0.0
C445 C 0.25645 0.66056 0.95093 0.0
C446 C 0.26193 0.64047 0.92615 0.0
C447 C 0.29143 0.61059 0.93085 0.0
C448 C 0.29156 0.69364 0.94954 0.0
C449 C 0.19201 0.66474 0.95916 0.0
C450 C 0.35028 0.51588 0.87146 0.0
C451 C 0.34763 0.51183 0.84445 0.0
C452 C 0.32259 0.5369 0.82923 0.0
C453 C 0.29819 0.56493 0.84081 0.0
C454 C 0.30113 0.56869 0.86781 0.0
C455 C 0.32829 0.54486 0.8826 0.0
C456 C 0.33253 0.55473 0.91062 0.0
C457 C 0.30198 0.58805 0.91027 0.0
C458 C 0.28278 0.59562 0.88525 0.0
C459 C 0.39821 0.55838 0.91758 0.0
C460 C 0.2986 0.52859 0.92691 0.0
H461 H 0.20282 0.71487 0.9189 0.0
H462 H 0.15417 0.68231 0.82878 0.0
H463 H 0.13741 0.61106 0.86067 0.0
H464 H 0.1895 0.586 0.84486 0.0
H465 H 0.15641 0.61957 0.82756 0.0
H466 H 0.28168 0.67217 0.83558 0.0
H467 H 0.25172 0.64058 0.81499 0.0
H468 H 0.31031 0.63212 0.83744 0.0
H469 H 0.27967 0.66724 1.00508 0.0
H470 H 0.37121 0.57435 0.01104 0.0
H471 H 0.35371 0.56331 0.96571 0.0
H472 H 0.33867 0.68968 0.95371 0.0
H473 H 0.27501 0.7119 0.96382 0.0
H474 H 0.29105 0.70487 0.93003 0.0
H475 H 0.17146 0.64011 0.96323 0.0
H476 H 0.1652 0.67645 0.94405 0.0
H477 H 0.18888 0.68 0.97701 0.0
H478 H 0.15908 0.75516 0.89006 0.0
C479 C 0.19312 0.70707 0.89952 0.0
C480 C 0.7999 0.12073 0.2772 0.0
C481 C 0.79267 0.06618 0.29679 0.0
C482 C 0.82594 0.09458 0.28995 0.0
C483 C 0.73374 0.06383 0.28937 0.0
C484 C 0.74008 0.1191 0.27065 0.0
C485 C 0.70756 0.0902 0.27624 0.0
N486 N 0.83225 0.14852 0.27253 0.0
C487 C 0.80632 0.17638 0.26302 0.0
C488 C 0.71429 0.14693 0.25939 0.0
C489 C 0.74741 0.17589 0.25594 0.0
Gd490 Gd 0.07554 0.1422 0.2337 0.0
Gd491 Gd 0.93212 0.14611 0.28333 0.0
N492 N 0.88349 0.09716 0.29617 0.0
C493 C 0.81976 0.04092 0.31081 0.0
C494 C 0.90903 0.07356 0.3112 0.0
C495 C 0.878 0.04485 0.31833 0.0
H496 H 0.95314 0.07681 0.31801 0.0
H497 H 0.89892 0.02588 0.32978 0.0
H498 H 0.05472 0.22276 0.21771 0.0
H499 H 0.83042 0.19934 0.26135 0.0
H500 H 0.11066 0.27502 0.21799 0.0
H501 H 0.79586 0.01862 0.3163 0.0
H502 H 0.70784 0.04193 0.29401 0.0
H503 H 0.16735 0.08365 0.25485 0.0
H504 H 0.6685 0.14668 0.25409 0.0
H505 H 0.72745 0.19799 0.24814 0.0
H506 H 0.29842 0.24508 0.25108 0.0
H507 H 0.66177 0.08834 0.27105 0.0
H508 H 0.33112 0.13092 0.27215 0.0
H509 H 0.26947 0.08015 0.26992 0.0
N510 N 0.17054 0.13607 0.24971 0.0
C511 C 0.20389 0.16421 0.25036 0.0
C512 C 0.19358 0.10605 0.25624 0.0
C513 C 0.28615 0.13267 0.2658 0.0
C514 C 0.2515 0.10395 0.26458 0.0
C515 C 0.26266 0.16324 0.2585 0.0
H516 H 0.34153 0.19233 0.26498 0.0
N517 N 0.12259 0.19431 0.23473 0.0
C518 C 0.17938 0.1941 0.24258 0.0
C519 C 0.18788 0.25302 0.23406 0.0
C520 C 0.21333 0.22357 0.24266 0.0
C521 C 0.09846 0.2227 0.22529 0.0
C522 C 0.13035 0.2525 0.22517 0.0
O523 O 0.9175 0.11413 0.24743 0.0
O524 O 0.00911 0.09996 0.23134 0.0
O525 O 0.08243 0.15222 0.19177 0.0
O526 O 0.13151 0.11229 0.2102 0.0
O527 O 0.01277 0.1168 0.29455 0.0
O528 O 0.05873 0.09679 0.25779 0.0
O529 O 0.08669 0.16758 0.27271 0.0
O530 O 0.99516 0.18729 0.27512 0.0
O531 O 0.9488 0.14806 0.3248 0.0
O532 O 0.88875 0.18252 0.30736 0.0
O533 O -0.00034 0.17222 0.21924 0.0
O534 O 0.92701 0.18193 0.25001 0.0
C535 C 0.95147 0.09843 0.2307 0.0
C536 C 0.04827 0.09619 0.28273 0.0
C537 C 0.14827 0.11889 0.16462 0.0
C538 C 0.15729 0.12092 0.11776 0.0
C539 C 0.22311 0.08679 0.1429 0.0
C540 C 0.19534 0.09669 0.16549 0.0
C541 C 0.20437 0.09884 0.1192 0.0
C542 C 0.12906 0.1311 0.14055 0.0
C543 C 0.11993 0.12828 0.18908 0.0
C544 C 0.27172 0.22268 0.25093 0.0
C545 C 0.29629 0.19263 0.25883 0.0
H546 H 0.21255 0.27615 0.23379 0.0
C547 C 0.0482 0.18657 0.28403 0.0
C548 C 0.95103 0.18642 0.22704 0.0
C549 C 0.86543 0.16226 0.3492 0.0
C550 C 0.84063 0.15129 0.39446 0.0
C551 C 0.76592 0.14718 0.3612 0.0
C552 C 0.80686 0.156 0.34243 0.0
C553 C 0.78264 0.14462 0.38697 0.0
C554 C 0.88219 0.16018 0.37542 0.0
C555 C 0.90888 0.1703 0.32889 0.0
H556 H 0.25913 0.06962 0.14375 0.0
H557 H 0.21092 0.08688 0.18371 0.0
H558 H 0.22626 0.0906 0.10176 0.0
H559 H 0.09238 0.14785 0.13949 0.0
H560 H 0.72094 0.14246 0.35576 0.0
H561 H 0.79237 0.158 0.32263 0.0
H562 H 0.74987 0.13797 0.40127 0.0
H563 H 0.92696 0.16555 0.38098 0.0
C564 C 0.70732 0.37657 0.77567 0.0
C565 C 0.72205 0.43115 0.79465 0.0
C566 C 0.68491 0.40422 0.78805 0.0
C567 C 0.7818 0.42981 0.7886 0.0
C568 C 0.76732 0.37519 0.7695 0.0
C569 C 0.80433 0.40197 0.77596 0.0
N570 N 0.67066 0.35084 0.76998 0.0
C571 C 0.6915 0.32262 0.75881 0.0
C572 C 0.7885 0.34678 0.7572 0.0
C573 C 0.75042 0.32034 0.75193 0.0
Gd574 Gd 0.43423 0.36235 0.73224 0.0
Gd575 Gd 0.57328 0.35677 0.7833 0.0
N576 N 0.6265 0.40539 0.79277 0.0
C577 C 0.69778 0.459 0.80657 0.0
C578 C 0.60259 0.43282 0.80386 0.0
C579 C 0.6377 0.45989 0.81106 0.0
H580 H 0.55642 0.43477 0.8061 0.0
H581 H 0.6182 0.48166 0.81964 0.0
H582 H 0.46837 0.2825 0.71865 0.0
H583 H 0.66334 0.30141 0.75579 0.0
H584 H 0.42207 0.22733 0.72125 0.0
H585 H 0.72479 0.4802 0.81184 0.0
H586 H 0.81086 0.45032 0.79339 0.0
H587 H 0.32619 0.41747 0.73881 0.0
H588 H 0.83426 0.34482 0.75207 0.0
H589 H 0.7666 0.29796 0.74293 0.0
H590 H 0.22419 0.24971 0.74583 0.0
H591 H 0.85052 0.40134 0.77134 0.0
H592 H 0.16642 0.36349 0.75147 0.0
H593 H 0.21947 0.41693 0.74617 0.0
N594 N 0.33304 0.36482 0.73912 0.0
C595 C 0.30438 0.33517 0.74093 0.0
C596 C 0.30322 0.39396 0.74049 0.0
C597 C 0.21308 0.36355 0.74785 0.0
C598 C 0.24284 0.39376 0.74479 0.0
C599 C 0.2437 0.33374 0.74578 0.0
H600 H 0.16892 0.30117 0.752 0.0
N601 N 0.39374 0.30831 0.73186 0.0
C602 C 0.33554 0.3061 0.73725 0.0
C603 C 0.3388 0.2463 0.73344 0.0
C604 C 0.30676 0.27496 0.7386 0.0
C605 C 0.4239 0.28067 0.72498 0.0
C606 C 0.39733 0.24925 0.7261 0.0
O607 O 0.59164 0.38839 0.74724 0.0
O608 O 0.49912 0.40549 0.73658 0.0
O609 O 0.42389 0.35003 0.69131 0.0
O610 O 0.40048 0.399 0.70571 0.0
O611 O 0.49598 0.38823 0.79535 0.0
O612 O 0.42417 0.40002 0.76452 0.0
O613 O 0.41567 0.33644 0.77063 0.0
O614 O 0.50647 0.31658 0.77663 0.0
O615 O 0.55947 0.35571 0.82494 0.0
O616 O 0.62078 0.32216 0.80734 0.0
O617 O 0.51923 0.33912 0.71834 0.0
O618 O 0.55945 0.31586 0.75443 0.0
C619 C 0.55613 0.40596 0.73253 0.0
C620 C 0.44707 0.40271 0.78802 0.0
C621 C 0.36123 0.38311 0.66463 0.0
C622 C 0.34305 0.38202 0.61823 0.0
C623 C 0.27418 0.40864 0.64721 0.0
C624 C 0.30909 0.4006 0.66832 0.0
C625 C 0.29109 0.39954 0.62232 0.0
C626 C 0.37797 0.37361 0.63946 0.0
C627 C 0.4032 0.37923 0.68582 0.0
C628 C 0.24685 0.27343 0.74448 0.0
C629 C 0.21537 0.30274 0.74799 0.0
H630 H 0.31836 0.22192 0.73432 0.0
C631 C 0.45206 0.31842 0.78414 0.0
C632 C 0.55763 0.3194 0.72925 0.0
C633 C 0.64357 0.34245 0.84917 0.0
C634 C 0.66754 0.35324 0.89448 0.0
C635 C 0.74339 0.356 0.86154 0.0
C636 C 0.7026 0.34774 0.84261 0.0
C637 C 0.72604 0.35893 0.88724 0.0
C638 C 0.62619 0.34491 0.8753 0.0
C639 C 0.6004 0.33411 0.82892 0.0
H640 H 0.23455 0.42262 0.65006 0.0
H641 H 0.29615 0.40897 0.68733 0.0
H642 H 0.2641 0.4067 0.60608 0.0
H643 H 0.41905 0.36104 0.63629 0.0
H644 H 0.78875 0.35993 0.85629 0.0
H645 H 0.71757 0.34526 0.82289 0.0
H646 H 0.75867 0.36509 0.90168 0.0
H647 H 0.58106 0.34016 0.8807 0.0
C648 C 0.803 0.83768 0.76405 0.0
C649 C 0.78498 0.78264 0.78168 0.0
C650 C 0.8221 0.81054 0.77818 0.0
C651 C 0.72986 0.78179 0.76979 0.0
C652 C 0.74653 0.8375 0.7531 0.0
C653 C 0.71069 0.80915 0.75553 0.0
N654 N 0.83833 0.86492 0.76219 0.0
C655 C 0.81767 0.89374 0.75197 0.0
C656 C 0.72693 0.86627 0.74079 0.0
C657 C 0.76233 0.89471 0.74064 0.0
Gd658 Gd 0.07349 0.86308 0.73118 0.0
Gd659 Gd 0.93122 0.86055 0.78101 0.0
N660 N 0.87563 0.81207 0.78955 0.0
C661 C 0.80367 0.75674 0.79759 0.0
C662 C 0.89255 0.78761 0.80626 0.0
C663 C 0.85734 0.75946 0.8102 0.0
H664 H 0.93315 0.78959 0.81675 0.0
H665 H 0.87156 0.73993 0.82306 0.0
H666 H 0.04866 0.93861 0.70646 0.0
H667 H 0.84288 0.91636 0.75319 0.0
H668 H 0.09689 0.9938 0.70506 0.0
H669 H 0.77645 0.73491 0.80072 0.0
H670 H 0.70113 0.76041 0.77204 0.0
H671 H 0.17876 0.80963 0.74906 0.0
H672 H 0.68376 0.86718 0.73226 0.0
H673 H 0.74662 0.91756 0.73221 0.0
H674 H 0.28213 0.97661 0.74614 0.0
H675 H 0.6674 0.80849 0.74707 0.0
H676 H 0.33081 0.8655 0.77039 0.0
H677 H 0.27916 0.81151 0.76601 0.0
N678 N 0.17082 0.86198 0.74632 0.0
C679 C 0.19975 0.89161 0.74696 0.0
C680 C 0.19969 0.83335 0.75199 0.0
C681 C 0.28608 0.86482 0.76353 0.0
C682 C 0.25709 0.83432 0.76116 0.0
C683 C 0.25794 0.8939 0.75589 0.0
H684 H 0.33137 0.92709 0.76298 0.0
N685 N 0.11748 0.91599 0.72743 0.0
C686 C 0.17244 0.91942 0.73708 0.0
C687 C 0.17382 0.97748 0.72518 0.0
C688 C 0.20194 0.95034 0.7364 0.0
C689 C 0.0912 0.94189 0.71512 0.0
C690 C 0.11849 0.97313 0.71424 0.0
O691 O 0.91869 0.8362 0.74167 0.0
O692 O 0.01213 0.81889 0.7334 0.0
O693 O 0.08021 0.87133 0.68915 0.0
O694 O 0.12215 0.82892 0.70755 0.0
O695 O 0.99447 0.81895 0.78656 0.0
O696 O 0.08502 0.83167 0.76767 0.0
O697 O 0.06351 0.90535 0.7587 0.0
O698 O 0.01978 0.88094 0.79412 0.0
O699 O 0.91445 0.85526 0.82234 0.0
O700 O 0.88828 0.90041 0.8019 0.0
O701 O 0.98791 0.88575 0.71784 0.0
O702 O 0.94919 0.9051 0.75586 0.0
C703 C 0.95618 0.8188 0.72794 0.0
C704 C 0.05137 0.81568 0.78459 0.0
C705 C 0.13671 0.83384 0.66137 0.0
C706 C 0.15168 0.84022 0.61489 0.0
C707 C 0.19952 0.79574 0.63806 0.0
C708 C 0.17392 0.80625 0.66105 0.0
C709 C 0.1887 0.81267 0.61513 0.0
C710 C 0.12496 0.85063 0.63804 0.0
C711 C 0.11278 0.84526 0.68633 0.0
C712 C 0.25886 0.95302 0.74637 0.0
C713 C 0.28686 0.92485 0.75603 0.0
H714 H 0.19498 1.00167 0.72435 0.0
C715 C 0.05338 0.90402 0.78356 0.0
C716 C 0.95218 0.90556 0.73052 0.0
C717 C 0.86577 0.8975 0.84799 0.0
C718 C 0.8513 0.89464 0.89472 0.0
C719 C 0.80542 0.9382 0.86971 0.0
C720 C 0.8302 0.9257 0.84714 0.0
C721 C 0.81583 0.92279 0.89335 0.0
C722 C 0.87647 0.88194 0.87198 0.0
C723 C 0.88956 0.88406 0.82367 0.0
H724 H 0.22823 0.77454 0.63805 0.0
H725 H 0.18385 0.79287 0.67867 0.0
H726 H 0.20933 0.80429 0.59744 0.0
H727 H 0.09625 0.87187 0.63786 0.0
H728 H 0.77772 0.9598 0.86887 0.0
H729 H 0.8209 0.93791 0.82895 0.0
H730 H 0.79586 0.93273 0.91069 0.0
H731 H 0.90355 0.86004 0.87302 0.0
C732 C 0.70437 0.6607 0.26787 0.0
C733 C 0.72538 0.71443 0.28725 0.0
C734 C 0.68631 0.68779 0.28232 0.0
C735 C 0.78207 0.71384 0.27685 0.0
C736 C 0.76205 0.65952 0.25821 0.0
C737 C 0.80038 0.68645 0.2624 0.0
N738 N 0.66651 0.6349 0.26423 0.0
C739 C 0.685 0.6062 0.25292 0.0
C740 C 0.78003 0.63092 0.24519 0.0
C741 C 0.74155 0.60398 0.24286 0.0
Gd742 Gd 0.42714 0.64223 0.23211 0.0
Gd743 Gd 0.57187 0.64185 0.2809 0.0
N744 N 0.63118 0.68774 0.29212 0.0
C745 C 0.70655 0.74074 0.30273 0.0
C746 C 0.6137 0.71261 0.30836 0.0
C747 C 0.65067 0.73965 0.31353 0.0
H748 H 0.57126 0.71177 0.31753 0.0
H749 H 0.63615 0.75953 0.32601 0.0
H750 H 0.43962 0.56825 0.20398 0.0
H751 H 0.65701 0.58456 0.25203 0.0
H752 H 0.38444 0.51507 0.20151 0.0
H753 H 0.73517 0.76169 0.30685 0.0
H754 H 0.81244 0.73421 0.28026 0.0
H755 H 0.33109 0.69933 0.25434 0.0
H756 H 0.824 0.62901 0.23756 0.0
H757 H 0.75563 0.5813 0.2336 0.0
H758 H 0.2074 0.53646 0.24833 0.0
H759 H 0.84468 0.68604 0.25497 0.0
H760 H 0.1748 0.64778 0.27703 0.0
H761 H 0.23205 0.69999 0.27313 0.0
N762 N 0.33208 0.6467 0.24952 0.0
C763 C 0.29992 0.6181 0.25002 0.0
C764 C 0.30726 0.67614 0.2566 0.0
C765 C 0.21872 0.6472 0.26917 0.0
C766 C 0.25089 0.67672 0.26702 0.0
C767 C 0.24258 0.61752 0.26012 0.0
H768 H 0.16622 0.58675 0.2679 0.0
N769 N 0.3771 0.59143 0.22817 0.0
C770 C 0.32296 0.5897 0.23891 0.0
C771 C 0.31272 0.53275 0.22464 0.0
C772 C 0.28955 0.56009 0.23773 0.0
C773 C 0.39821 0.56568 0.21388 0.0
C774 C 0.36692 0.53573 0.21233 0.0
O775 O 0.58531 0.66778 0.24213 0.0
O776 O 0.49179 0.68543 0.2324 0.0
O777 O 0.41511 0.63341 0.19051 0.0
O778 O 0.37895 0.6775 0.20894 0.0
O779 O 0.51401 0.68649 0.28411 0.0
O780 O 0.42071 0.67278 0.2692 0.0
O781 O 0.43787 0.59764 0.25811 0.0
O782 O 0.48108 0.62435 0.29182 0.0
O783 O 0.57765 0.64534 0.32308 0.0
O784 O 0.6091 0.60115 0.30273 0.0
O785 O 0.51148 0.62032 0.21722 0.0
O786 O 0.55601 0.59855 0.2536 0.0
C787 C 0.54862 0.68554 0.22811 0.0
C788 C 0.45695 0.68943 0.28442 0.0
C789 C 0.35954 0.67129 0.16296 0.0
C790 C 0.3431 0.66427 0.11655 0.0
C791 C 0.29739 0.70962 0.13962 0.0
C792 C 0.32326 0.69924 0.16258 0.0
C793 C 0.30705 0.69223 0.11676 0.0
C794 C 0.36999 0.65395 0.13969 0.0
C795 C 0.3846 0.66026 0.18784 0.0
C796 C 0.23356 0.55905 0.24887 0.0
C797 C 0.21013 0.58769 0.26004 0.0
H798 H 0.28835 0.50958 0.22327 0.0
C799 C 0.45427 0.59827 0.28235 0.0
C800 C 0.54645 0.59897 0.22846 0.0
C801 C 0.61824 0.60099 0.34972 0.0
C802 C 0.63983 0.60458 0.39599 0.0
C803 C 0.64279 0.55136 0.37397 0.0
C804 C 0.62773 0.5666 0.35075 0.0
C805 C 0.64888 0.57018 0.39642 0.0
C806 C 0.62414 0.62007 0.37255 0.0
C807 C 0.60136 0.61619 0.32482 0.0
H808 H 0.26943 0.73114 0.13957 0.0
H809 H 0.31439 0.71303 0.18012 0.0
H810 H 0.28632 0.70058 0.09912 0.0
H811 H 0.39805 0.63243 0.13953 0.0
H812 H 0.64997 0.52484 0.37455 0.0
H813 H 0.62309 0.55135 0.33359 0.0
H814 H 0.66119 0.55791 0.41424 0.0
H815 H 0.61737 0.64668 0.37211 0.0
C816 C 0.06544 0.01503 0.31875 0.0
C817 C 0.11688 0.02161 0.33318 0.0
C818 C 0.12588 0.07658 0.31345 0.0
C819 C 0.07525 0.06966 0.2984 0.0
N820 N 0.00672 0.02931 0.28155 0.0
N821 N 0.20338 0.05495 0.34041 0.0
C822 C 0.04817 0.03787 0.2994 0.0
C823 C 0.14935 0.05134 0.3294 0.0
N824 N 0.03214 0.98745 0.32408 0.0
N825 N 0.15137 0.10734 0.31266 0.0
H826 H 0.22153 0.0371 0.35252 0.0
H827 H 0.23227 0.07428 0.33594 0.0
H828 H 0.13788 0.12566 0.29991 0.0
H829 H 0.18391 0.11528 0.32534 0.0
H830 H 0.99082 0.98331 0.31624 0.0
H831 H 0.04362 0.96995 0.33802 0.0
H832 H 0.98924 0.00542 0.27978 0.0
H833 H 0.99366 0.04537 0.26691 0.0
C834 C 0.3325 0.45974 0.81786 0.0
C835 C 0.37042 0.48116 0.83218 0.0
C836 C 0.44765 0.44055 0.8277 0.0
C837 C 0.4167 0.42479 0.80738 0.0
N838 N 0.32006 0.40656 0.79638 0.0
N839 N 0.46832 0.49298 0.84788 0.0
C840 C 0.35594 0.43089 0.8058 0.0
C841 C 0.42924 0.4719 0.8363 0.0
N842 N 0.2744 0.46683 0.81584 0.0
N843 N 0.48784 0.42369 0.84179 0.0
H844 H 0.45794 0.51713 0.85339 0.0
H845 H 0.51255 0.48723 0.84946 0.0
H846 H 0.49245 0.39815 0.83996 0.0
H847 H 0.5086 0.43397 0.85791 0.0
H848 H 0.24641 0.45524 0.80271 0.0
H849 H 0.25415 0.48502 0.82695 0.0
H850 H 0.27468 0.40713 0.79749 0.0
H851 H 0.33615 0.38369 0.79041 0.0
C852 C 0.66124 0.46566 0.6962 0.0
C853 C 0.62585 0.47692 0.67552 0.0
C854 C 0.55332 0.43522 0.68862 0.0
C855 C 0.58149 0.43016 0.71269 0.0
N856 N 0.656 0.45176 0.74108 0.0
N857 N 0.52846 0.47648 0.6569 0.0
C858 C 0.63442 0.4481 0.71691 0.0
C859 C 0.56876 0.46307 0.67314 0.0
N860 N 0.72014 0.47122 0.69625 0.0
N861 N 0.51666 0.41171 0.67898 0.0
H862 H 0.53586 0.49852 0.64677 0.0
H863 H 0.48553 0.46748 0.65606 0.0
H864 H 0.51403 0.38845 0.68766 0.0
H865 H 0.49806 0.41356 0.66061 0.0
H866 H 0.74719 0.4615 0.71055 0.0
H867 H 0.74217 0.4819 0.68058 0.0
H868 H 0.69319 0.46603 0.74518 0.0
H869 H 0.62948 0.44621 0.75669 0.0
C870 C 0.92441 0.03902 0.17328 0.0
C871 C 0.86851 0.02551 0.17987 0.0
C872 C 0.87408 0.05476 0.22081 0.0
C873 C 0.92389 0.07315 0.21283 0.0
N874 N 0.98778 0.08717 0.17687 0.0
N875 N 0.7824 0.03186 0.20667 0.0
C876 C 0.94652 0.06675 0.18759 0.0
C877 C 0.84043 0.03761 0.20232 0.0
N878 N 0.95823 0.02459 0.15473 0.0
N879 N 0.8634 0.04923 0.24624 0.0
H880 H 0.7553 0.02074 0.19287 0.0
H881 H 0.76104 0.04148 0.22285 0.0
H882 H 0.89448 0.05541 0.26007 0.0
H883 H 0.83 0.03325 0.25246 0.0
H884 H 0.0011 0.03229 0.15104 0.0
H885 H 0.94633 0.00277 0.14521 0.0
H886 H 0.00205 0.08469 0.1578 0.0
H887 H 0.00226 0.10872 0.18594 0.0
C888 C 0.86656 0.94918 0.6764 0.0
C889 C 0.87715 0.98297 0.68306 0.0
C890 C 0.9186 0.96527 0.72409 0.0
C891 C 0.91966 0.93161 0.71559 0.0
N892 N 0.88942 0.89121 0.68355 0.0
N893 N 0.9292 0.02204 0.71019 0.0
C894 C 0.8928 0.92353 0.69146 0.0
C895 C 0.90878 0.99054 0.70579 0.0
N896 N 0.82858 0.94145 0.65688 0.0
N897 N 0.9212 0.97369 0.74963 0.0
H898 H 0.92459 0.04121 0.69677 0.0
H899 H 0.95619 0.02783 0.72585 0.0
H900 H 0.91964 0.95675 0.76475 0.0
H901 H 0.91617 0.99811 0.75596 0.0
H902 H 0.81435 0.91734 0.65289 0.0
H903 H 0.80717 0.95937 0.64599 0.0
H904 H 0.87851 0.88425 0.66475 0.0
H905 H 0.89813 0.87131 0.69578 0.0
C906 C 0.64805 0.55727 0.17972 0.0
C907 C 0.63024 0.52357 0.1823 0.0
C908 C 0.55802 0.53902 0.21525 0.0
C909 C 0.57427 0.57302 0.21208 0.0
N910 N 0.63033 0.61523 0.1896 0.0
N911 N 0.56396 0.48223 0.19954 0.0
C912 C 0.61774 0.58235 0.19366 0.0
C913 C 0.58402 0.51442 0.19929 0.0
N914 N 0.69574 0.56503 0.16481 0.0
N915 N 0.51748 0.53026 0.23351 0.0
H916 H 0.58149 0.46364 0.18792 0.0
H917 H 0.52738 0.47402 0.20975 0.0
H918 H 0.49389 0.5476 0.24394 0.0
H919 H 0.50818 0.50597 0.23916 0.0
H920 H 0.71559 0.58839 0.1643 0.0
H921 H 0.71831 0.54742 0.15402 0.0
H922 H 0.65634 0.62406 0.17452 0.0
H923 H 0.61219 0.63423 0.20052 0.0
C924 C 0.42188 0.51556 0.31457 0.0
C925 C 0.37149 0.52317 0.32929 0.0
C926 C 0.37587 0.58072 0.31398 0.0
C927 C 0.42797 0.57341 0.3002 0.0
N928 N 0.50953 0.5368 0.2942 0.0
N929 N 0.30743 0.56406 0.34762 0.0
C930 C 0.4536 0.54166 0.30244 0.0
C931 C 0.35071 0.55616 0.33051 0.0
N932 N 0.43913 0.48333 0.31183 0.0
N933 N 0.3493 0.61062 0.31061 0.0
H934 H 0.28713 0.54645 0.35952 0.0
H935 H 0.29506 0.58837 0.35152 0.0
H936 H 0.36685 0.62934 0.29899 0.0
H937 H 0.30801 0.61605 0.31786 0.0
H938 H 0.47088 0.47606 0.29857 0.0
H939 H 0.41892 0.46347 0.32139 0.0
H940 H 0.53247 0.515 0.29753 0.0
H941 H 0.53511 0.55585 0.28647 0.0
C942 C 0.15415 0.94491 0.83363 0.0
C943 C 0.13693 0.97851 0.83126 0.0
C944 C 0.07004 0.96366 0.79637 0.0
C945 C 0.08246 0.92946 0.80015 0.0
N946 N 0.13533 0.88698 0.82305 0.0
N947 N 0.06827 0.01852 0.81522 0.0
C948 C 0.12384 0.91986 0.81922 0.0
C949 C 0.09166 0.98741 0.81415 0.0
N950 N 0.20095 0.93723 0.84882 0.0
N951 N 0.03966 0.97401 0.77523 0.0
H952 H 0.08261 0.03672 0.82818 0.0
H953 H 0.03072 0.0251 0.80515 0.0
H954 H 0.02353 0.95792 0.76127 0.0
H955 H 0.03583 0.99893 0.77009 0.0
H956 H 0.22012 0.91391 0.8493 0.0
H957 H 0.2232 0.95494 0.8599 0.0
H958 H 0.15946 0.87807 0.83857 0.0
H959 H 0.11875 0.86822 0.81121 0.0
C960 C 0.19354 0.14796 0.05322 0.0
C961 C 0.16431 0.12299 0.03824 0.0
C962 C 0.11035 0.10603 0.0772 0.0
C963 C 0.13842 0.13104 0.09157 0.0
N964 N 0.1932 0.18186 0.09206 0.0
N965 N 0.1324 0.06604 0.04478 0.0
C966 C 0.1743 0.15451 0.07885 0.0
C967 C 0.13154 0.09854 0.05226 0.0
N968 N 0.24718 0.15961 0.04579 0.0
N969 N 0.06751 0.08719 0.08846 0.0
H970 H 0.16051 0.05774 0.03029 0.0
H971 H 0.113 0.04699 0.05559 0.0
H972 H 0.05283 0.09204 0.10722 0.0
H973 H 0.04367 0.06934 0.07817 0.0
H974 H 0.27189 0.17629 0.05677 0.0
H975 H 0.27138 0.14775 0.03145 0.0
H976 H 0.21632 0.20126 0.08324 0.0
H977 H 0.18016 0.18622 0.11113 0.0
C978 C 0.36322 0.40706 0.55125 0.0
C979 C 0.33594 0.38037 0.53741 0.0
C980 C 0.33059 0.34915 0.57834 0.0
C981 C 0.36038 0.37507 0.59112 0.0
N982 N 0.42118 0.42368 0.58823 0.0
N983 N 0.25964 0.33946 0.54538 0.0
C984 C 0.38302 0.40196 0.57683 0.0
C985 C 0.31104 0.35408 0.5526 0.0
N986 N 0.35935 0.43887 0.5423 0.0
N987 N 0.31777 0.32059 0.59144 0.0
H988 H 0.23249 0.35062 0.5318 0.0
H989 H 0.23842 0.32123 0.55635 0.0
H990 H 0.33119 0.31705 0.61055 0.0
H991 H 0.29963 0.29972 0.58245 0.0
H992 H 0.3745 0.45942 0.55269 0.0
H993 H 0.33278 0.445 0.52667 0.0
H994 H 0.44246 0.44254 0.57791 0.0
H995 H 0.43569 0.4203 0.60719 0.0
C996 C 0.69569 0.34337 0.96475 0.0
C997 C 0.65778 0.36684 0.97655 0.0
C998 C 0.61791 0.37938 0.9335 0.0
C999 C 0.65285 0.35405 0.9226 0.0
N1000 N 0.7054 0.30352 0.93015 0.0
N1001 N 0.5685 0.39819 0.97217 0.0
C1002 C 0.68433 0.33291 0.93916 0.0
C1003 C 0.61421 0.38209 0.96096 0.0
N1004 N 0.74591 0.33347 0.97657 0.0
N1005 N 0.59037 0.40169 0.91797 0.0
H1006 H 0.56183 0.39847 0.99213 0.0
H1007 H 0.53384 0.40773 0.96153 0.0
H1008 H 0.592 0.40057 0.89784 0.0
H1009 H 0.56964 0.42267 0.92523 0.0
H1010 H 0.77585 0.31786 0.96758 0.0
H1011 H 0.76186 0.34435 0.99345 0.0
H1012 H 0.72525 0.28623 0.94224 0.0
H1013 H 0.69695 0.2952 0.91137 0.0
C1014 C 0.80764 0.16072 0.46419 0.0
C1015 C 0.84614 0.13812 0.47658 0.0
C1016 C 0.88963 0.12622 0.43405 0.0
C1017 C 0.85419 0.15096 0.42267 0.0
N1018 N 0.79856 0.20056 0.42959 0.0
N1019 N 0.93769 0.10858 0.47332 0.0
C1020 C 0.82056 0.17155 0.43884 0.0
C1021 C 0.8917 0.12369 0.46155 0.0
N1022 N 0.75552 0.16924 0.4751 0.0
N1023 N 0.91919 0.10429 0.41891 0.0
H1024 H 0.94326 0.10866 0.49334 0.0
H1025 H 0.97349 0.09962 0.46307 0.0
H1026 H 0.91874 0.10533 0.39876 0.0
H1027 H 0.94045 0.08368 0.42649 0.0
H1028 H 0.72545 0.18427 0.46564 0.0
H1029 H 0.73859 0.15761 0.49151 0.0
H1030 H 0.77679 0.21739 0.44144 0.0
H1031 H 0.80801 0.20911 0.41094 0.0
C1032 C 0.89332 0.88733 0.96475 0.0
C1033 C 0.8383 0.87555 0.97405 0.0
C1034 C 0.8135 0.85858 0.92988 0.0
C1035 C 0.85927 0.87894 0.92044 0.0
N1036 N 0.9467 0.91086 0.92837 0.0
N1037 N 0.7432 0.85126 0.96419 0.0
C1038 C 0.90121 0.89221 0.93774 0.0
C1039 C 0.79809 0.86056 0.95642 0.0
N1040 N 0.93758 0.89388 0.98176 0.0
N1041 N 0.78342 0.83856 0.91317 0.0
H1042 H 0.7272 0.85496 0.9828 0.0
H1043 H 0.71116 0.84298 0.95136 0.0
H1044 H 0.79437 0.83725 0.89358 0.0
H1045 H 0.75274 0.8209 0.91929 0.0
H1046 H 0.97981 0.90037 0.97598 0.0
H1047 H 0.93336 0.88948 1.00159 0.0
H1048 H 0.97477 0.92468 0.94012 0.0
H1049 H 0.95458 0.91343 0.90857 0.0
C1050 C 0.61657 0.6375 0.46415 0.0
C1051 C 0.67538 0.63667 0.47287 0.0
C1052 C 0.70865 0.62919 0.42815 0.0
C1053 C 0.65016 0.62346 0.42038 0.0
N1054 N 0.54734 0.62351 0.43009 0.0
N1055 N 0.77798 0.62967 0.46344 0.0
C1056 C 0.60363 0.62857 0.43805 0.0
C1057 C 0.72175 0.63258 0.45488 0.0
N1058 N 0.57345 0.64701 0.48082 0.0
N1059 N 0.75164 0.63106 0.40982 0.0
H1060 H 0.78965 0.63149 0.48287 0.0
H1061 H 0.81256 0.62283 0.45153 0.0
H1062 H 0.7428 0.6287 0.3901 0.0
H1063 H 0.79449 0.63827 0.41389 0.0
H1064 H 0.53041 0.65097 0.47523 0.0
H1065 H 0.58185 0.65367 0.49997 0.0
H1066 H 0.51157 0.62301 0.44255 0.0
H1067 H 0.53671 0.61848 0.41086 0.0
C1068 C 0.30626 0.61118 0.05864 0.0
C1069 C 0.33878 0.62819 0.03919 0.0
C1070 C 0.3878 0.66218 0.07233 0.0
C1071 C 0.35193 0.6469 0.09143 0.0
N1072 N 0.29015 0.60118 0.10448 0.0
N1073 N 0.41681 0.66571 0.027 0.0
C1074 C 0.31564 0.61937 0.0851 0.0
C1075 C 0.38195 0.65231 0.04595 0.0
N1076 N 0.26387 0.58869 0.05168 0.0
N1077 N 0.42679 0.68636 0.07972 0.0
H1078 H 0.41407 0.65849 0.00766 0.0
H1079 H 0.44994 0.68307 0.03015 0.0
H1080 H 0.43384 0.69243 0.0991 0.0
H1081 H 0.45263 0.7003 0.06713 0.0
H1082 H 0.23412 0.57812 0.0646 0.0
H1083 H 0.25562 0.582 0.03254 0.0
H1084 H 0.26808 0.57877 0.10151 0.0
H1085 H 0.29556 0.60696 0.12398 0.0
C1086 C 0.19127 0.88981 0.55612 0.0
C1087 C 0.16246 0.87014 0.53713 0.0
C1088 C 0.10747 0.84049 0.57087 0.0
C1089 C 0.14197 0.85703 0.58971 0.0
N1090 N 0.20159 0.90401 0.60164 0.0
N1091 N 0.0843 0.83269 0.52527 0.0
C1092 C 0.17857 0.88416 0.58272 0.0
C1093 C 0.11709 0.84756 0.5442 0.0
N1094 N 0.2332 0.91236 0.54871 0.0
N1095 N 0.06711 0.81734 0.57881 0.0
H1096 H 0.09021 0.83793 0.50566 0.0
H1097 H 0.04962 0.81639 0.52867 0.0
H1098 H 0.05789 0.81329 0.59836 0.0
H1099 H 0.04243 0.80238 0.56652 0.0
H1100 H 0.26036 0.92508 0.56152 0.0
H1101 H 0.24283 0.91752 0.52939 0.0
H1102 H 0.22476 0.92591 0.59808 0.0
H1103 H 0.19306 0.90002 0.62122 0.0
C1104 C 0.07252 0.26832 0.32032 0.0
C1105 C 0.11384 0.25838 0.33922 0.0
C1106 C 0.09866 0.20085 0.32581 0.0
C1107 C 0.06776 0.21143 0.30362 0.0
N1108 N 0.03362 0.25755 0.27781 0.0
N1109 N 0.17588 0.2147 0.35557 0.0
C1110 C 0.05675 0.24585 0.30031 0.0
C1111 C 0.12978 0.22449 0.34077 0.0
N1112 N 0.04685 0.29874 0.32188 0.0
N1113 N 0.09525 0.16868 0.33377 0.0
H1114 H 0.2027 0.23133 0.3656 0.0
H1115 H 0.19118 0.19038 0.35541 0.0
H1116 H 0.06768 0.15155 0.32483 0.0
H1117 H 0.11342 0.16047 0.3511 0.0
H1118 H 0.01289 0.30587 0.30974 0.0
H1119 H 0.05473 0.31518 0.3371 0.0
H1120 H 0.03059 0.28283 0.2737 0.0
H1121 H 0.02305 0.24232 0.26226 0.0
C1122 C 0.35772 0.27961 0.83764 0.0
C1123 C 0.38259 0.24761 0.83992 0.0
C1124 C 0.44717 0.26035 0.80352 0.0
C1125 C 0.42822 0.29392 0.80343 0.0
N1126 N 0.37635 0.33682 0.82635 0.0
N1127 N 0.4623 0.21121 0.82936 0.0
C1128 C 0.38645 0.30397 0.82218 0.0
C1129 C 0.43109 0.2392 0.8243 0.0
N1130 N 0.3058 0.2866 0.8494 0.0
N1131 N 0.47671 0.24763 0.78297 0.0
H1132 H 0.45288 0.19553 0.84493 0.0
H1133 H 0.50115 0.2057 0.81978 0.0
H1134 H 0.48349 0.26103 0.76609 0.0
H1135 H 0.48691 0.22254 0.78131 0.0
H1136 H 0.28346 0.30864 0.84614 0.0
H1137 H 0.2822 0.2692 0.86025 0.0
H1138 H 0.34967 0.34546 0.84121 0.0
H1139 H 0.40067 0.35528 0.8172 0.0
C1140 C 0.59635 0.23888 0.69568 0.0
C1141 C 0.63128 0.24964 0.67459 0.0
C1142 C 0.61775 0.30729 0.68913 0.0
C1143 C 0.5897 0.29561 0.71208 0.0
N1144 N 0.57912 0.24776 0.74073 0.0
N1145 N 0.68679 0.2947 0.65508 0.0
C1146 C 0.58696 0.26072 0.71659 0.0
C1147 C 0.64496 0.28411 0.67217 0.0
N1148 N 0.57125 0.20794 0.69577 0.0
N1149 N 0.6207 0.34052 0.68394 0.0
H1150 H 0.71126 0.27858 0.64375 0.0
H1151 H 0.70185 0.31919 0.65419 0.0
H1152 H 0.60925 0.35861 0.69736 0.0
H1153 H 0.63288 0.34994 0.66591 0.0
H1154 H 0.54205 0.20025 0.71016 0.0
H1155 H 0.57411 0.19177 0.68006 0.0
H1156 H 0.58007 0.22225 0.74428 0.0
H1157 H 0.58188 0.26171 0.75755 0.0
C1158 C 0.91524 0.23608 0.16614 0.0
C1159 C 0.87194 0.25814 0.1753 0.0
C1160 C 0.8899 0.23803 0.219 0.0
C1161 C 0.92361 0.21121 0.20922 0.0
N1162 N 0.95013 0.18032 0.17058 0.0
N1163 N 0.80495 0.27078 0.21025 0.0
C1164 C 0.93132 0.20888 0.1819 0.0
C1165 C 0.85501 0.25627 0.20166 0.0
N1166 N 0.94223 0.24125 0.14291 0.0
N1167 N 0.89327 0.24796 0.24419 0.0
H1168 H 0.7752 0.28204 0.19785 0.0
H1169 H 0.78999 0.26778 0.2292 0.0
H1170 H 0.92267 0.23823 0.2574 0.0
H1171 H 0.87155 0.2689 0.25097 0.0
H1172 H 0.97708 0.22675 0.1367 0.0
H1173 H 0.93453 0.26214 0.13153 0.0
H1174 H 0.95348 0.17766 0.15056 0.0
H1175 H 0.95329 0.15806 0.18068 0.0
C1176 C 0.92564 0.7637 0.66875 0.0
C1177 C 0.88213 0.7418 0.67909 0.0
C1178 C 0.89787 0.76652 0.72154 0.0
C1179 C 0.9327 0.79207 0.71076 0.0
N1180 N 0.973 0.81769 0.67241 0.0
N1181 N 0.81425 0.73131 0.7143 0.0
C1182 C 0.94452 0.79159 0.68377 0.0
C1183 C 0.86399 0.74618 0.70512 0.0
N1184 N 0.95149 0.75707 0.64553 0.0
N1185 N 0.90132 0.75936 0.74718 0.0
H1186 H 0.78547 0.71809 0.70241 0.0
H1187 H 0.79883 0.73556 0.73301 0.0
H1188 H 0.93218 0.77096 0.759 0.0
H1189 H 0.88022 0.73872 0.75526 0.0
H1190 H 0.98694 0.77077 0.63841 0.0
H1191 H 0.94185 0.73587 0.63472 0.0
H1192 H 0.97836 0.81989 0.65246 0.0
H1193 H 0.9862 0.8385 0.68288 0.0
C1194 C 0.64906 0.75012 0.19661 0.0
C1195 C 0.61945 0.75709 0.17314 0.0
C1196 C 0.54903 0.71298 0.1838 0.0
C1197 C 0.57287 0.71024 0.20908 0.0
N1198 N 0.6327 0.73701 0.24134 0.0
N1199 N 0.53111 0.75002 0.14795 0.0
C1200 C 0.61962 0.7317 0.21604 0.0
C1201 C 0.56626 0.74001 0.16773 0.0
N1202 N 0.70547 0.76035 0.20036 0.0
N1203 N 0.51263 0.68891 0.17447 0.0
H1204 H 0.5407 0.77072 0.13651 0.0
H1205 H 0.48958 0.73985 0.14489 0.0
H1206 H 0.50487 0.6671 0.18469 0.0
H1207 H 0.49725 0.6887 0.15549 0.0
H1208 H 0.72924 0.75361 0.21671 0.0
H1209 H 0.7302 0.77203 0.18596 0.0
H1210 H 0.6641 0.75438 0.24724 0.0
H1211 H 0.60555 0.72805 0.25597 0.0
C1212 C 0.37121 0.729 0.33898 0.0
C1213 C 0.37874 0.7633 0.33326 0.0
C1214 C 0.43707 0.74895 0.29508 0.0
C1215 C 0.43237 0.71496 0.30176 0.0
N1216 N 0.41355 0.67454 0.33534 0.0
N1217 N 0.43544 0.80542 0.31087 0.0
C1218 C 0.40524 0.70549 0.32536 0.0
C1219 C 0.41701 0.77312 0.31285 0.0
N1220 N 0.32964 0.71844 0.3562 0.0
N1221 N 0.45931 0.75825 0.27161 0.0
H1222 H 0.42424 0.82347 0.32444 0.0
H1223 H 0.46689 0.81333 0.29755 0.0
H1224 H 0.47525 0.74127 0.25818 0.0
H1225 H 0.45744 0.78254 0.2647 0.0
H1226 H 0.31954 0.69338 0.35906 0.0
H1227 H 0.30111 0.73441 0.36559 0.0
H1228 H 0.39894 0.66753 0.35368 0.0
H1229 H 0.44104 0.65742 0.32667 0.0
C1230 C 0.15124 0.7504 0.81351 0.0
C1231 C 0.12761 0.74668 0.83887 0.0
C1232 C 0.06222 0.79273 0.8298 0.0
C1233 C 0.07867 0.79225 0.80322 0.0
N1234 N 0.12518 0.76103 0.76918 0.0
N1235 N 0.04679 0.75867 0.86758 0.0
C1236 C 0.11937 0.76836 0.79479 0.0
C1237 C 0.07895 0.76617 0.84605 0.0
N1238 N 0.20481 0.73805 0.80738 0.0
N1239 N 0.03265 0.81891 0.83997 0.0
H1240 H 0.0547 0.73788 0.87904 0.0
H1241 H 0.00807 0.77085 0.87209 0.0
H1242 H 0.02352 0.84015 0.82938 0.0
H1243 H 0.02375 0.82105 0.85969 0.0
H1244 H 0.22445 0.74228 0.78943 0.0
H1245 H 0.2322 0.72736 0.82109 0.0
H1246 H 0.15156 0.7418 0.76261 0.0
H1247 H 0.09906 0.77177 0.75499 0.0
loop_
_geom_bond_atom_site_label_1
_geom_bond_atom_site_label_2
_geom_bond_distance
_geom_bond_site_symmetry_2
_ccdc_geom_bond_type
C0 C1 1.391 . S
C0 C4 1.391 . S
C0 H42 0.948 . S
C1 C0 1.391 . S
C1 C2 1.391 . S
C2 C1 1.391 . S
C2 H58 0.947 . S
C2 C59 1.392 . S
C3 C4 1.391 . S
C3 C7 1.397 . S
C3 C59 1.419 . S
C4 C0 1.391 . S
C4 C3 1.391 . S
C4 C5 1.399 . S
C5 C4 1.399 . S
C5 C8 1.396 . S
C5 C17 1.453 . S
C5 C18 1.684 . S
H6 C30 0.948 . S
C7 C3 1.397 . S
C7 C8 1.394 . S
C7 C26 1.723 . S
C8 C5 1.396 . S
C8 C7 1.394 . S
C8 C38 1.723 . S
H9 C32 0.947 . S
H10 C33 0.948 . S
H11 C39 0.982 . S
H12 C40 0.979 . S
H13 C40 0.980 . S
H14 C40 0.983 . S
H15 C39 0.979 . S
H16 C39 0.977 . S
C17 C5 1.453 . S
C17 H46 0.982 . S
C17 H47 0.979 . S
C17 H48 0.977 . S
C18 C5 1.684 . S
C18 H43 0.979 . S
C18 H44 0.980 . S
C18 H45 0.983 . S
C19 C20 1.391 . S
C19 C24 1.391 . S
C19 H49 0.948 . S
C20 C19 1.391 . S
C20 C21 1.391 . S
C21 C20 1.391 . S
C21 C22 1.392 . S
C21 H50 0.947 . S
C22 C21 1.392 . S
C22 C23 1.419 . S
C22 H51 0.948 . S
C23 C22 1.419 . S
C23 C24 1.391 . S
C23 C27 1.397 . S
C24 C19 1.391 . S
C24 C23 1.391 . S
C24 C25 1.399 . S
C25 C24 1.399 . S
C25 C26 1.396 . S
C25 C28 1.453 . S
C25 C29 1.684 . S
C26 C7 1.723 . S
C26 C25 1.396 . S
C26 C27 1.394 . S
C27 C23 1.397 . S
C27 C26 1.394 . S
C27 C37 1.723 . S
C28 C25 1.453 . S
C28 H52 0.982 . S
C28 H53 0.979 . S
C28 H54 0.977 . S
C29 C25 1.684 . S
C29 H55 0.979 . S
C29 H56 0.980 . S
C29 H57 0.983 . S
C30 H6 0.948 . S
C30 C31 1.391 . S
C30 C35 1.391 . S
C31 C30 1.391 . S
C31 C32 1.391 . S
C32 H9 0.947 . S
C32 C31 1.391 . S
C32 C33 1.392 . S
C33 H10 0.948 . S
C33 C32 1.392 . S
C33 C34 1.419 . S
C34 C33 1.419 . S
C34 C35 1.391 . S
C34 C38 1.397 . S
C35 C30 1.391 . S
C35 C34 1.391 . S
C35 C36 1.399 . S
C36 C35 1.399 . S
C36 C37 1.396 . S
C36 C39 1.453 . S
C36 C40 1.684 . S
C37 C27 1.723 . S
C37 C36 1.396 . S
C37 C38 1.394 . S
C38 C8 1.723 . S
C38 C34 1.397 . S
C38 C37 1.394 . S
C39 H11 0.982 . S
C39 H15 0.979 . S
C39 H16 0.977 . S
C39 C36 1.453 . S
C40 H12 0.979 . S
C40 H13 0.980 . S
C40 H14 0.983 . S
C40 C36 1.684 . S
H41 C59 0.948 . S
H42 C0 0.948 . S
H43 C18 0.979 . S
H44 C18 0.980 . S
H45 C18 0.983 . S
H46 C17 0.982 . S
H47 C17 0.979 . S
H48 C17 0.977 . S
H49 C19 0.948 . S
H50 C21 0.947 . S
H51 C22 0.948 . S
H52 C28 0.982 . S
H53 C28 0.979 . S
H54 C28 0.977 . S
H55 C29 0.979 . S
H56 C29 0.980 . S
H57 C29 0.983 . S
H58 C2 0.947 . S
C59 C2 1.392 . S
C59 C3 1.419 . S
C59 H41 0.948 . S
C60 C61 1.391 . S
C60 C64 1.391 . S
C60 H102 0.948 . S
C61 C60 1.391 . S
C61 C62 1.391 . S
C62 C61 1.391 . S
C62 H118 0.947 . S
C62 C119 1.392 . S
C63 C64 1.391 . S
C63 C67 1.397 . S
C63 C119 1.419 . S
C64 C60 1.391 . S
C64 C63 1.391 . S
C64 C65 1.399 . S
C65 C64 1.399 . S
C65 C68 1.396 . S
C65 C77 1.453 . S
C65 C78 1.684 . S
H66 C90 0.948 1_565 S
C67 C63 1.397 . S
C67 C68 1.394 . S
C67 C86 1.723 . S
C68 C65 1.396 . S
C68 C67 1.394 . S
C68 C98 1.723 . S
H69 C92 0.947 . S
H70 C93 0.948 . S
H71 C99 0.982 . S
H72 C100 0.979 . S
H73 C100 0.980 . S
H74 C100 0.983 . S
H75 C99 0.979 . S
H76 C99 0.977 . S
C77 C65 1.453 . S
C77 H106 0.982 . S
C77 H107 0.979 . S
C77 H108 0.977 . S
C78 C65 1.684 . S
C78 H103 0.979 . S
C78 H104 0.980 . S
C78 H105 0.983 . S
C79 C80 1.391 1_556 S
C79 C84 1.391 . S
C79 H109 0.948 . S
C80 C79 1.391 1_554 S
C80 C81 1.391 1_554 S
C81 C80 1.391 1_556 S
C81 C82 1.392 . S
C81 H110 0.947 1_556 S
C82 C81 1.392 . S
C82 C83 1.419 . S
C82 H111 0.948 . S
C83 C82 1.419 . S
C83 C84 1.391 . S
C83 C87 1.397 . S
C84 C79 1.391 . S
C84 C83 1.391 . S
C84 C85 1.399 . S
C85 C84 1.399 . S
C85 C86 1.396 . S
C85 C88 1.453 . S
C85 C89 1.684 . S
C86 C67 1.723 . S
C86 C85 1.396 . S
C86 C87 1.394 . S
C87 C83 1.397 . S
C87 C86 1.394 . S
C87 C97 1.723 . S
C88 C85 1.453 . S
C88 H112 0.982 . S
C88 H113 0.979 . S
C88 H114 0.977 . S
C89 C85 1.684 . S
C89 H115 0.979 . S
C89 H116 0.980 . S
C89 H117 0.983 . S
C90 H66 0.948 1_545 S
C90 C91 1.391 . S
C90 C95 1.391 . S
C91 C90 1.391 . S
C91 C92 1.391 . S
C92 H69 0.947 . S
C92 C91 1.391 . S
C92 C93 1.392 . S
C93 H70 0.948 . S
C93 C92 1.392 . S
C93 C94 1.419 . S
C94 C93 1.419 . S
C94 C95 1.391 . S
C94 C98 1.397 . S
C95 C90 1.391 . S
C95 C94 1.391 . S
C95 C96 1.399 . S
C96 C95 1.399 . S
C96 C97 1.396 . S
C96 C99 1.453 . S
C96 C100 1.684 . S
C97 C87 1.723 . S
C97 C96 1.396 . S
C97 C98 1.394 . S
C98 C68 1.723 . S
C98 C94 1.397 . S
C98 C97 1.394 . S
C99 H71 0.982 . S
C99 H75 0.979 . S
C99 H76 0.977 . S
C99 C96 1.453 . S
C100 H72 0.979 . S
C100 H73 0.980 . S
C100 H74 0.983 . S
C100 C96 1.684 . S
H101 C119 0.948 . S
H102 C60 0.948 . S
H103 C78 0.979 . S
H104 C78 0.980 . S
H105 C78 0.983 . S
H106 C77 0.982 . S
H107 C77 0.979 . S
H108 C77 0.977 . S
H109 C79 0.948 . S
H110 C81 0.947 1_554 S
H111 C82 0.948 . S
H112 C88 0.982 . S
H113 C88 0.979 . S
H114 C88 0.977 . S
H115 C89 0.979 . S
H116 C89 0.980 . S
H117 C89 0.983 . S
H118 C62 0.947 . S
C119 C62 1.392 . S
C119 C63 1.419 . S
C119 H101 0.948 . S
C120 C121 1.391 . S
C120 C124 1.391 . S
C120 H162 0.948 . S
C121 C120 1.391 . S
C121 C122 1.391 . S
C122 C121 1.391 . S
C122 H178 0.947 . S
C122 C179 1.392 . S
C123 C124 1.391 . S
C123 C127 1.397 . S
C123 C179 1.419 . S
C124 C120 1.391 . S
C124 C123 1.391 . S
C124 C125 1.399 . S
C125 C124 1.399 . S
C125 C128 1.396 . S
C125 C137 1.453 . S
C125 C138 1.684 . S
H126 C150 0.948 . S
C127 C123 1.397 . S
C127 C128 1.394 . S
C127 C146 1.723 . S
C128 C125 1.396 . S
C128 C127 1.394 . S
C128 C158 1.723 . S
H129 C152 0.947 . S
H130 C153 0.948 . S
H131 C159 0.982 . S
H132 C160 0.979 . S
H133 C160 0.980 . S
H134 C160 0.983 . S
H135 C159 0.979 . S
H136 C159 0.977 . S
C137 C125 1.453 . S
C137 H166 0.982 . S
C137 H167 0.979 . S
C137 H168 0.977 . S
C138 C125 1.684 . S
C138 H163 0.979 . S
C138 H164 0.980 . S
C138 H165 0.983 . S
C139 C140 1.391 . S
C139 C144 1.391 . S
C139 H169 0.948 1_545 S
C140 C139 1.391 . S
C140 C141 1.391 . S
C141 C140 1.391 . S
C141 C142 1.392 . S
C141 H170 0.947 . S
C142 C141 1.392 . S
C142 C143 1.419 . S
C142 H171 0.948 . S
C143 C142 1.419 . S
C143 C144 1.391 . S
C143 C147 1.397 . S
C144 C139 1.391 . S
C144 C143 1.391 . S
C144 C145 1.399 . S
C145 C144 1.399 . S
C145 C146 1.396 . S
C145 C148 1.453 . S
C145 C149 1.684 . S
C146 C127 1.723 . S
C146 C145 1.396 . S
C146 C147 1.394 . S
C147 C143 1.397 . S
C147 C146 1.394 . S
C147 C157 1.723 . S
C148 C145 1.453 . S
C148 H172 0.982 . S
C148 H173 0.979 . S
C148 H174 0.977 . S
C149 C145 1.684 . S
C149 H175 0.979 . S
C149 H176 0.980 . S
C149 H177 0.983 . S
C150 H126 0.948 . S
C150 C151 1.391 . S
C150 C155 1.391 . S
C151 C150 1.391 . S
C151 C152 1.391 . S
C152 H129 0.947 . S
C152 C151 1.391 . S
C152 C153 1.392 . S
C153 H130 0.948 . S
C153 C152 1.392 . S
C153 C154 1.419 . S
C154 C153 1.419 . S
C154 C155 1.391 . S
C154 C158 1.397 . S
C155 C150 1.391 . S
C155 C154 1.391 . S
C155 C156 1.399 . S
C156 C155 1.399 . S
C156 C157 1.396 . S
C156 C159 1.453 . S
C156 C160 1.684 . S
C157 C147 1.723 . S
C157 C156 1.396 . S
C157 C158 1.394 . S
C158 C128 1.723 . S
C158 C154 1.397 . S
C158 C157 1.394 . S
C159 H131 0.982 . S
C159 H135 0.979 . S
C159 H136 0.977 . S
C159 C156 1.453 . S
C160 H132 0.979 . S
C160 H133 0.980 . S
C160 H134 0.983 . S
C160 C156 1.684 . S
H161 C179 0.948 . S
H162 C120 0.948 . S
H163 C138 0.979 . S
H164 C138 0.980 . S
H165 C138 0.983 . S
H166 C137 0.982 . S
H167 C137 0.979 . S
H168 C137 0.977 . S
H169 C139 0.948 1_565 S
H170 C141 0.947 . S
H171 C142 0.948 . S
H172 C148 0.982 . S
H173 C148 0.979 . S
H174 C148 0.977 . S
H175 C149 0.979 . S
H176 C149 0.980 . S
H177 C149 0.983 . S
H178 C122 0.947 . S
C179 C122 1.392 . S
C179 C123 1.419 . S
C179 H161 0.948 . S
C180 C181 1.391 . S
C180 C184 1.391 . S
C180 H222 0.948 . S
C181 C180 1.391 . S
C181 C182 1.391 . S
C182 C181 1.391 . S
C182 H238 0.947 . S
C182 C239 1.392 . S
C183 C184 1.391 . S
C183 C187 1.397 . S
C183 C239 1.419 . S
C184 C180 1.391 . S
C184 C183 1.391 . S
C184 C185 1.399 . S
C185 C184 1.399 . S
C185 C188 1.396 . S
C185 C197 1.453 . S
C185 C198 1.684 . S
H186 C210 0.948 . S
C187 C183 1.397 . S
C187 C188 1.394 . S
C187 C206 1.723 . S
C188 C185 1.396 . S
C188 C187 1.394 . S
C188 C218 1.723 . S
H189 C212 0.947 . S
H190 C213 0.948 . S
H191 C219 0.982 . S
H192 C220 0.979 . S
H193 C220 0.980 . S
H194 C220 0.983 . S
H195 C219 0.979 . S
H196 C219 0.977 . S
C197 C185 1.453 . S
C197 H226 0.982 . S
C197 H227 0.979 . S
C197 H228 0.977 . S
C198 C185 1.684 . S
C198 H223 0.979 . S
C198 H224 0.980 . S
C198 H225 0.983 . S
C199 C200 1.380 1_554 S
C199 C204 1.391 . S
C199 H229 0.948 . S
C200 C199 1.380 1_556 S
C200 C201 1.382 1_556 S
C201 C200 1.382 1_554 S
C201 C202 1.392 . S
C201 H230 0.947 . S
C202 C201 1.392 . S
C202 C203 1.419 . S
C202 H231 0.948 . S
C203 C202 1.419 . S
C203 C204 1.391 . S
C203 C207 1.397 . S
C204 C199 1.391 . S
C204 C203 1.391 . S
C204 C205 1.399 . S
C205 C204 1.399 . S
C205 C206 1.396 . S
C205 C208 1.453 . S
C205 C209 1.684 . S
C206 C187 1.723 . S
C206 C205 1.396 . S
C206 C207 1.394 . S
C207 C203 1.397 . S
C207 C206 1.394 . S
C207 C217 1.723 . S
C208 C205 1.453 . S
C208 H232 0.982 . S
C208 H233 0.979 . S
C208 H234 0.977 . S
C209 C205 1.684 . S
C209 H235 0.979 . S
C209 H236 0.980 . S
C209 H237 0.983 . S
C210 H186 0.948 . S
C210 C211 1.391 . S
C210 C215 1.391 . S
C211 C210 1.391 . S
C211 C212 1.391 . S
C212 H189 0.947 . S
C212 C211 1.391 . S
C212 C213 1.392 . S
C213 H190 0.948 . S
C213 C212 1.392 . S
C213 C214 1.419 . S
C214 C213 1.419 . S
C214 C215 1.391 . S
C214 C218 1.397 . S
C215 C210 1.391 . S
C215 C214 1.391 . S
C215 C216 1.399 . S
C216 C215 1.399 . S
C216 C217 1.396 . S
C216 C219 1.453 . S
C216 C220 1.684 . S
C217 C207 1.723 . S
C217 C216 1.396 . S
C217 C218 1.394 . S
C218 C188 1.723 . S
C218 C214 1.397 . S
C218 C217 1.394 . S
C219 H191 0.982 . S
C219 H195 0.979 . S
C219 H196 0.977 . S
C219 C216 1.453 . S
C220 H192 0.979 . S
C220 H193 0.980 . S
C220 H194 0.983 . S
C220 C216 1.684 . S
H221 C239 0.948 . S
H222 C180 0.948 . S
H223 C198 0.979 . S
H224 C198 0.980 . S
H225 C198 0.983 . S
H226 C197 0.982 . S
H227 C197 0.979 . S
H228 C197 0.977 . S
H229 C199 0.948 . S
H230 C201 0.947 . S
H231 C202 0.948 . S
H232 C208 0.982 . S
H233 C208 0.979 . S
H234 C208 0.977 . S
H235 C209 0.979 . S
H236 C209 0.980 . S
H237 C209 0.983 . S
H238 C182 0.947 . S
C239 C182 1.392 . S
C239 C183 1.419 . S
C239 H221 0.948 . S
C240 C241 1.391 . S
C240 C244 1.391 . S
C240 H282 0.948 . S
C241 C240 1.391 . S
C241 C242 1.391 . S
C242 C241 1.391 . S
C242 H298 0.947 . S
C242 C299 1.392 . S
C243 C244 1.391 . S
C243 C247 1.397 . S
C243 C299 1.419 . S
C244 C240 1.391 . S
C244 C243 1.391 . S
C244 C245 1.399 . S
C245 C244 1.399 . S
C245 C248 1.396 . S
C245 C257 1.453 . S
C245 C258 1.684 . S
H246 C270 0.948 . S
C247 C243 1.397 . S
C247 C248 1.394 . S
C247 C266 1.723 . S
C248 C245 1.396 . S
C248 C247 1.394 . S
C248 C278 1.723 . S
H249 C272 0.947 . S
H250 C273 0.948 . S
H251 C279 0.982 . S
H252 C280 0.979 . S
H253 C280 0.980 . S
H254 C280 0.983 . S
H255 C279 0.979 . S
H256 C279 0.977 . S
C257 C245 1.453 . S
C257 H286 0.982 . S
C257 H287 0.979 . S
C257 H288 0.977 . S
C258 C245 1.684 . S
C258 H283 0.979 . S
C258 H284 0.980 . S
C258 H285 0.983 . S
C259 C260 1.391 . S
C259 C264 1.391 . S
C259 H289 0.948 . S
C260 C259 1.391 . S
C260 C261 1.391 . S
C261 C260 1.391 . S
C261 C262 1.392 . S
C261 H290 0.947 . S
C262 C261 1.392 . S
C262 C263 1.419 . S
C262 H291 0.948 . S
C263 C262 1.419 . S
C263 C264 1.391 . S
C263 C267 1.397 . S
C264 C259 1.391 . S
C264 C263 1.391 . S
C264 C265 1.399 . S
C265 C264 1.399 . S
C265 C266 1.396 . S
C265 C268 1.453 . S
C265 C269 1.684 . S
C266 C247 1.723 . S
C266 C265 1.396 . S
C266 C267 1.394 . S
C267 C263 1.397 . S
C267 C266 1.394 . S
C267 C277 1.723 . S
C268 C265 1.453 . S
C268 H292 0.982 . S
C268 H293 0.979 . S
C268 H294 0.977 . S
C269 C265 1.684 . S
C269 H295 0.979 . S
C269 H296 0.980 . S
C269 H297 0.983 . S
C270 H246 0.948 . S
C270 C271 1.391 . S
C270 C275 1.391 . S
C271 C270 1.391 . S
C271 C272 1.391 . S
C272 H249 0.947 . S
C272 C271 1.391 . S
C272 C273 1.392 . S
C273 H250 0.948 . S
C273 C272 1.392 . S
C273 C274 1.419 . S
C274 C273 1.419 . S
C274 C275 1.391 . S
C274 C278 1.397 . S
C275 C270 1.391 . S
C275 C274 1.391 . S
C275 C276 1.399 . S
C276 C275 1.399 . S
C276 C277 1.396 . S
C276 C279 1.453 . S
C276 C280 1.684 . S
C277 C267 1.723 . S
C277 C276 1.396 . S
C277 C278 1.394 . S
C278 C248 1.723 . S
C278 C274 1.397 . S
C278 C277 1.394 . S
C279 H251 0.982 . S
C279 H255 0.979 . S
C279 H256 0.977 . S
C279 C276 1.453 . S
C280 H252 0.979 . S
C280 H253 0.980 . S
C280 H254 0.983 . S
C280 C276 1.684 . S
H281 C299 0.948 . S
H282 C240 0.948 . S
H283 C258 0.979 . S
H284 C258 0.980 . S
H285 C258 0.983 . S
H286 C257 0.982 . S
H287 C257 0.979 . S
H288 C257 0.977 . S
H289 C259 0.948 . S
H290 C261 0.947 . S
H291 C262 0.948 . S
H292 C268 0.982 . S
H293 C268 0.979 . S
H294 C268 0.977 . S
H295 C269 0.979 . S
H296 C269 0.980 . S
H297 C269 0.983 . S
H298 C242 0.947 . S
C299 C242 1.392 . S
C299 C243 1.419 . S
C299 H281 0.948 . S
C300 C301 1.391 . S
C300 C304 1.391 . S
C300 H342 0.948 . S
C301 C300 1.391 . S
C301 C302 1.391 . S
C302 C301 1.391 . S
C302 H358 0.947 . S
C302 C359 1.392 . S
C303 C304 1.391 . S
C303 C307 1.397 . S
C303 C359 1.419 . S
C304 C300 1.391 . S
C304 C303 1.391 . S
C304 C305 1.399 . S
C305 C304 1.399 . S
C305 C308 1.396 . S
C305 C317 1.453 . S
C305 C318 1.684 . S
H306 C330 0.948 1_545 S
C307 C303 1.397 . S
C307 C308 1.394 . S
C307 C326 1.723 . S
C308 C305 1.396 . S
C308 C307 1.394 . S
C308 C338 1.723 . S
H309 C332 0.947 . S
H310 C333 0.948 . S
H311 C339 0.982 . S
H312 C340 0.979 . S
H313 C340 0.980 . S
H314 C340 0.967 1_545 S
H315 C339 0.979 . S
H316 C339 0.977 . S
C317 C305 1.453 . S
C317 H346 0.982 . S
C317 H347 0.979 . S
C317 H348 0.977 . S
C318 C305 1.684 . S
C318 H343 0.979 . S
C318 H344 0.980 . S
C318 H345 0.983 . S
C319 C320 1.391 1_554 S
C319 C324 1.391 . S
C319 H349 0.954 . S
C320 C319 1.391 1_556 S
C320 C321 1.391 1_556 S
C321 C320 1.391 1_554 S
C321 C322 1.392 . S
C321 H350 0.947 1_554 S
C322 C321 1.392 . S
C322 C323 1.419 . S
C322 H351 0.948 . S
C323 C322 1.419 . S
C323 C324 1.391 . S
C323 C327 1.397 . S
C324 C319 1.391 . S
C324 C323 1.391 . S
C324 C325 1.399 . S
C325 C324 1.399 . S
C325 C326 1.396 . S
C325 C328 1.453 . S
C325 C329 1.684 . S
C326 C307 1.723 . S
C326 C325 1.396 . S
C326 C327 1.394 . S
C327 C323 1.397 . S
C327 C326 1.394 . S
C327 C337 1.723 . S
C328 C325 1.453 . S
C328 H352 0.982 . S
C328 H353 0.979 . S
C328 H354 0.977 . S
C329 C325 1.684 . S
C329 H355 0.979 . S
C329 H356 0.980 . S
C329 H357 0.983 . S
C330 H306 0.948 1_565 S
C330 C331 1.391 . S
C330 C335 1.391 . S
C331 C330 1.391 . S
C331 C332 1.391 . S
C332 H309 0.947 . S
C332 C331 1.391 . S
C332 C333 1.392 . S
C333 H310 0.948 . S
C333 C332 1.392 . S
C333 C334 1.419 . S
C334 C333 1.419 . S
C334 C335 1.391 . S
C334 C338 1.397 . S
C335 C330 1.391 . S
C335 C334 1.391 . S
C335 C336 1.399 . S
C336 C335 1.399 . S
C336 C337 1.396 . S
C336 C339 1.453 . S
C336 C340 1.684 . S
C337 C327 1.723 . S
C337 C336 1.396 . S
C337 C338 1.394 . S
C338 C308 1.723 . S
C338 C334 1.397 . S
C338 C337 1.394 . S
C339 H311 0.982 . S
C339 H315 0.979 . S
C339 H316 0.977 . S
C339 C336 1.453 . S
C340 H312 0.979 . S
C340 H313 0.980 . S
C340 H314 0.967 1_565 S
C340 C336 1.684 . S
H341 C359 0.948 . S
H342 C300 0.948 . S
H343 C318 0.979 . S
H344 C318 0.980 . S
H345 C318 0.983 . S
H346 C317 0.982 . S
H347 C317 0.979 . S
H348 C317 0.977 . S
H349 C319 0.954 . S
H350 C321 0.947 1_556 S
H351 C322 0.948 . S
H352 C328 0.982 . S
H353 C328 0.979 . S
H354 C328 0.977 . S
H355 C329 0.979 . S
H356 C329 0.980 . S
H357 C329 0.983 . S
H358 C302 0.947 . S
C359 C302 1.392 . S
C359 C303 1.419 . S
C359 H341 0.948 . S
C360 C361 1.391 . S
C360 C364 1.391 . S
C360 H402 0.948 . S
C361 C360 1.391 . S
C361 C362 1.391 . S
C362 C361 1.391 . S
C362 H418 0.947 1_565 S
C362 C419 1.392 . S
C363 C364 1.391 . S
C363 C367 1.397 . S
C363 C419 1.419 . S
C364 C360 1.391 . S
C364 C363 1.391 . S
C364 C365 1.399 . S
C365 C364 1.399 . S
C365 C368 1.396 . S
C365 C377 1.453 . S
C365 C378 1.684 . S
H366 C390 0.948 . S
C367 C363 1.397 . S
C367 C368 1.394 . S
C367 C386 1.723 . S
C368 C365 1.396 . S
C368 C367 1.394 . S
C368 C398 1.723 . S
H369 C392 0.947 . S
H370 C393 0.948 . S
H371 C399 0.982 . S
H372 C400 0.979 . S
H373 C400 0.980 . S
H374 C400 0.983 . S
H375 C399 0.979 . S
H376 C399 0.977 . S
C377 C365 1.453 . S
C377 H406 0.982 . S
C377 H407 0.979 . S
C377 H408 0.977 . S
C378 C365 1.684 . S
C378 H403 0.979 . S
C378 H404 0.980 . S
C378 H405 0.983 . S
C379 C380 1.391 . S
C379 C384 1.391 . S
C379 H409 0.948 . S
C380 C379 1.391 . S
C380 C381 1.391 . S
C381 C380 1.391 . S
C381 C382 1.392 . S
C381 H410 0.947 . S
C382 C381 1.392 . S
C382 C383 1.419 . S
C382 H411 0.948 . S
C383 C382 1.419 . S
C383 C384 1.391 . S
C383 C387 1.397 . S
C384 C379 1.391 . S
C384 C383 1.391 . S
C384 C385 1.399 . S
C385 C384 1.399 . S
C385 C386 1.396 . S
C385 C388 1.453 . S
C385 C389 1.684 . S
C386 C367 1.723 . S
C386 C385 1.396 . S
C386 C387 1.394 . S
C387 C383 1.397 . S
C387 C386 1.394 . S
C387 C397 1.723 . S
C388 C385 1.453 . S
C388 H412 0.982 . S
C388 H413 0.979 . S
C388 H414 0.977 . S
C389 C385 1.684 . S
C389 H415 0.979 . S
C389 H416 0.980 . S
C389 H417 0.983 . S
C390 H366 0.948 . S
C390 C391 1.391 . S
C390 C395 1.391 . S
C391 C390 1.391 . S
C391 C392 1.391 . S
C392 H369 0.947 . S
C392 C391 1.391 . S
C392 C393 1.392 . S
C393 H370 0.948 . S
C393 C392 1.392 . S
C393 C394 1.419 . S
C394 C393 1.419 . S
C394 C395 1.391 . S
C394 C398 1.397 . S
C395 C390 1.391 . S
C395 C394 1.391 . S
C395 C396 1.399 . S
C396 C395 1.399 . S
C396 C397 1.396 . S
C396 C399 1.453 . S
C396 C400 1.684 . S
C397 C387 1.723 . S
C397 C396 1.396 . S
C397 C398 1.394 . S
C398 C368 1.723 . S
C398 C394 1.397 . S
C398 C397 1.394 . S
C399 H371 0.982 . S
C399 H375 0.979 . S
C399 H376 0.977 . S
C399 C396 1.453 . S
C400 H372 0.979 . S
C400 H373 0.980 . S
C400 H374 0.983 . S
C400 C396 1.684 . S
H401 C419 0.948 . S
H402 C360 0.948 . S
H403 C378 0.979 . S
H404 C378 0.980 . S
H405 C378 0.983 . S
H406 C377 0.982 . S
H407 C377 0.979 . S
H408 C377 0.977 . S
H409 C379 0.948 . S
H410 C381 0.947 . S
H411 C382 0.948 . S
H412 C388 0.982 . S
H413 C388 0.979 . S
H414 C388 0.977 . S
H415 C389 0.979 . S
H416 C389 0.980 . S
H417 C389 0.983 . S
H418 C362 0.947 1_545 S
C419 C362 1.392 . S
C419 C363 1.419 . S
C419 H401 0.948 . S
C420 C421 1.391 . S
C420 C424 1.391 . S
C420 H462 0.948 . S
C421 C420 1.391 . S
C421 C422 1.391 . S
C422 C421 1.391 . S
C422 H478 0.947 . S
C422 C479 1.392 . S
C423 C424 1.391 . S
C423 C427 1.397 . S
C423 C479 1.419 . S
C424 C420 1.391 . S
C424 C423 1.391 . S
C424 C425 1.399 . S
C425 C424 1.399 . S
C425 C428 1.396 . S
C425 C437 1.453 . S
C425 C438 1.684 . S
H426 C450 0.948 . S
C427 C423 1.397 . S
C427 C428 1.394 . S
C427 C446 1.723 . S
C428 C425 1.396 . S
C428 C427 1.394 . S
C428 C458 1.723 . S
H429 C452 0.947 . S
H430 C453 0.948 . S
H431 C459 0.982 . S
H432 C460 0.979 . S
H433 C460 0.980 . S
H434 C460 0.983 . S
H435 C459 0.979 . S
H436 C459 0.977 . S
C437 C425 1.453 . S
C437 H466 0.982 . S
C437 H467 0.979 . S
C437 H468 0.977 . S
C438 C425 1.684 . S
C438 H463 0.979 . S
C438 H464 0.980 . S
C438 H465 0.983 . S
C439 C440 1.391 1_556 S
C439 C444 1.391 . S
C439 H469 0.948 . S
C440 C439 1.391 1_554 S
C440 C441 1.391 1_554 S
C441 C440 1.391 1_556 S
C441 C442 1.392 . S
C441 H470 0.968 . S
C442 C441 1.392 . S
C442 C443 1.419 . S
C442 H471 0.948 . S
C443 C442 1.419 . S
C443 C444 1.391 . S
C443 C447 1.397 . S
C444 C439 1.391 . S
C444 C443 1.391 . S
C444 C445 1.399 . S
C445 C444 1.399 . S
C445 C446 1.396 . S
C445 C448 1.453 . S
C445 C449 1.684 . S
C446 C427 1.723 . S
C446 C445 1.396 . S
C446 C447 1.394 . S
C447 C443 1.397 . S
C447 C446 1.394 . S
C447 C457 1.723 . S
C448 C445 1.453 . S
C448 H472 0.982 . S
C448 H473 0.979 . S
C448 H474 0.977 . S
C449 C445 1.684 . S
C449 H475 0.979 . S
C449 H476 0.980 . S
C449 H477 0.983 . S
C450 H426 0.948 . S
C450 C451 1.391 . S
C450 C455 1.391 . S
C451 C450 1.391 . S
C451 C452 1.391 . S
C452 H429 0.947 . S
C452 C451 1.391 . S
C452 C453 1.392 . S
C453 H430 0.948 . S
C453 C452 1.392 . S
C453 C454 1.419 . S
C454 C453 1.419 . S
C454 C455 1.391 . S
C454 C458 1.397 . S
C455 C450 1.391 . S
C455 C454 1.391 . S
C455 C456 1.399 . S
C456 C455 1.399 . S
C456 C457 1.396 . S
C456 C459 1.453 . S
C456 C460 1.684 . S
C457 C447 1.723 . S
C457 C456 1.396 . S
C457 C458 1.394 . S
C458 C428 1.723 . S
C458 C454 1.397 . S
C458 C457 1.394 . S
C459 H431 0.982 . S
C459 H435 0.979 . S
C459 H436 0.977 . S
C459 C456 1.453 . S
C460 H432 0.979 . S
C460 H433 0.980 . S
C460 H434 0.983 . S
C460 C456 1.684 . S
H461 C479 0.948 . S
H462 C420 0.948 . S
H463 C438 0.979 . S
H464 C438 0.980 . S
H465 C438 0.983 . S
H466 C437 0.982 . S
H467 C437 0.979 . S
H468 C437 0.977 . S
H469 C439 0.948 . S
H470 C441 0.968 . S
H471 C442 0.948 . S
H472 C448 0.982 . S
H473 C448 0.979 . S
H474 C448 0.977 . S
H475 C449 0.979 . S
H476 C449 0.980 . S
H477 C449 0.983 . S
H478 C422 0.947 . S
C479 C422 1.392 . S
C479 C423 1.419 . S
C479 H461 0.948 . S
C480 C482 1.422 . S
C480 C484 1.415 . S
C480 N486 1.369 . S
C481 C482 1.421 . S
C481 C483 1.417 . S
C481 C493 1.422 . S
C482 C480 1.422 . S
C482 C481 1.421 . S
C482 N492 1.359 . S
C483 C481 1.417 . S
C483 C485 1.329 . S
C483 H502 0.930 . S
C484 C480 1.415 . S
C484 C485 1.437 . S
C484 C488 1.413 . S
C485 C483 1.329 . S
C485 C484 1.437 . S
C485 H507 0.929 . S
N486 C480 1.369 . S
N486 C487 1.338 . S
N486 Gd491 2.622 . S
C487 N486 1.338 . S
C487 C489 1.378 . S
C487 H499 0.929 . S
C488 C484 1.413 . S
C488 C489 1.348 . S
C488 H504 0.931 . S
C489 C487 1.378 . S
C489 C488 1.348 . S
C489 H505 0.930 . S
Gd490 N510 2.622 . S
Gd490 N517 2.570 . S
Gd490 O524 2.361 . S
Gd490 O525 2.468 . S
Gd490 O526 2.427 . S
Gd490 O528 2.388 . S
Gd490 O529 2.386 . S
Gd490 O533 2.298 1_455 S
Gd490 C543 2.805 . S
Gd491 N486 2.622 . S
Gd491 N492 2.570 . S
Gd491 O523 2.386 . S
Gd491 O527 2.307 1_655 S
Gd491 O530 2.353 1_655 S
Gd491 O531 2.468 . S
Gd491 O532 2.427 . S
Gd491 O534 2.388 . S
Gd491 C555 2.805 . S
N492 C482 1.359 . S
N492 Gd491 2.570 . S
N492 C494 1.343 . S
C493 C481 1.422 . S
C493 C495 1.321 . S
C493 H501 0.931 . S
C494 N492 1.343 . S
C494 C495 1.390 . S
C494 H496 0.931 . S
C495 C493 1.321 . S
C495 C494 1.390 . S
C495 H497 0.930 . S
H496 C494 0.931 . S
H497 C495 0.930 . S
H498 C521 0.931 . S
H499 C487 0.929 . S
H500 C522 0.930 . S
H501 C493 0.931 . S
H502 C483 0.930 . S
H503 C512 0.929 . S
H504 C488 0.931 . S
H505 C489 0.930 . S
H506 C544 0.930 . S
H507 C485 0.929 . S
H508 C513 0.931 . S
H509 C514 0.930 . S
N510 Gd490 2.622 . S
N510 C511 1.369 . S
N510 C512 1.338 . S
C511 N510 1.369 . S
C511 C515 1.415 . S
C511 C518 1.422 . S
C512 H503 0.929 . S
C512 N510 1.338 . S
C512 C514 1.378 . S
C513 H508 0.931 . S
C513 C514 1.348 . S
C513 C515 1.413 . S
C514 H509 0.930 . S
C514 C512 1.378 . S
C514 C513 1.348 . S
C515 C511 1.415 . S
C515 C513 1.413 . S
C515 C545 1.437 . S
H516 C545 0.929 . S
N517 Gd490 2.570 . S
N517 C518 1.359 . S
N517 C521 1.343 . S
C518 C511 1.422 . S
C518 N517 1.359 . S
C518 C520 1.421 . S
C519 C520 1.422 . S
C519 C522 1.321 . S
C519 H546 0.931 . S
C520 C518 1.421 . S
C520 C519 1.422 . S
C520 C544 1.417 . S
C521 H498 0.931 . S
C521 N517 1.343 . S
C521 C522 1.390 . S
C522 H500 0.930 . S
C522 C519 1.321 . S
C522 C521 1.390 . S
O523 Gd491 2.386 . S
O523 C535 1.265 . S
O524 Gd490 2.361 . S
O524 C535 1.231 1_455 S
O525 Gd490 2.468 . S
O525 C543 1.263 . S
O526 Gd490 2.427 . S
O526 C543 1.252 . S
O527 Gd491 2.307 1_455 S
O527 C536 1.261 . S
O528 Gd490 2.388 . S
O528 C536 1.252 . S
O529 Gd490 2.386 . S
O529 C547 1.265 . S
O530 Gd491 2.353 1_455 S
O530 C547 1.242 . S
O531 Gd491 2.468 . S
O531 C555 1.263 . S
O532 Gd491 2.427 . S
O532 C555 1.252 . S
O533 Gd490 2.298 1_655 S
O533 C548 1.271 . S
O534 Gd491 2.388 . S
O534 C548 1.252 . S
C535 O523 1.265 . S
C535 O524 1.231 1_655 S
C536 O527 1.261 . S
C536 O528 1.252 . S
C537 C540 1.394 . S
C537 C542 1.370 . S
C537 C543 1.500 . S
C538 C541 1.383 . S
C538 C542 1.395 . S
C539 C540 1.396 . S
C539 C541 1.365 . S
C539 H556 0.929 . S
C540 C537 1.394 . S
C540 C539 1.396 . S
C540 H557 0.930 . S
C541 C538 1.383 . S
C541 C539 1.365 . S
C541 H558 0.931 . S
C542 C537 1.370 . S
C542 C538 1.395 . S
C542 H559 0.930 . S
C543 Gd490 2.805 . S
C543 O525 1.263 . S
C543 O526 1.252 . S
C543 C537 1.500 . S
C544 H506 0.930 . S
C544 C520 1.417 . S
C544 C545 1.329 . S
C545 C515 1.437 . S
C545 H516 0.929 . S
C545 C544 1.329 . S
H546 C519 0.931 . S
C547 O529 1.265 . S
C547 O530 1.242 . S
C548 O533 1.271 . S
C548 O534 1.252 . S
C549 C552 1.394 . S
C549 C554 1.370 . S
C549 C555 1.500 . S
C550 C553 1.383 . S
C550 C554 1.395 . S
C551 C552 1.396 . S
C551 C553 1.365 . S
C551 H560 0.929 . S
C552 C549 1.394 . S
C552 C551 1.396 . S
C552 H561 0.930 . S
C553 C550 1.383 . S
C553 C551 1.365 . S
C553 H562 0.931 . S
C554 C549 1.370 . S
C554 C550 1.395 . S
C554 H563 0.930 . S
C555 Gd491 2.805 . S
C555 O531 1.263 . S
C555 O532 1.252 . S
C555 C549 1.500 . S
H556 C539 0.929 . S
H557 C540 0.930 . S
H558 C541 0.931 . S
H559 C542 0.930 . S
H560 C551 0.929 . S
H561 C552 0.930 . S
H562 C553 0.931 . S
H563 C554 0.930 . S
C564 C566 1.422 . S
C564 C568 1.415 . S
C564 N570 1.369 . S
C565 C566 1.421 . S
C565 C567 1.417 . S
C565 C577 1.422 . S
C566 C564 1.422 . S
C566 C565 1.421 . S
C566 N576 1.359 . S
C567 C565 1.417 . S
C567 C569 1.329 . S
C567 H586 0.930 . S
C568 C564 1.415 . S
C568 C569 1.437 . S
C568 C572 1.413 . S
C569 C567 1.329 . S
C569 C568 1.437 . S
C569 H591 0.929 . S
N570 C564 1.369 . S
N570 C571 1.338 . S
N570 Gd575 2.622 . S
C571 N570 1.338 . S
C571 C573 1.378 . S
C571 H583 0.929 . S
C572 C568 1.413 . S
C572 C573 1.348 . S
C572 H588 0.931 . S
C573 C571 1.378 . S
C573 C572 1.348 . S
C573 H589 0.930 . S
Gd574 N594 2.622 . S
Gd574 N601 2.570 . S
Gd574 O608 2.353 . S
Gd574 O609 2.468 . S
Gd574 O610 2.427 . S
Gd574 O612 2.388 . S
Gd574 O613 2.386 . S
Gd574 O617 2.307 . S
Gd574 C627 2.805 . S
Gd575 N570 2.622 . S
Gd575 N576 2.570 . S
Gd575 O607 2.386 . S
Gd575 O611 2.307 . S
Gd575 O614 2.353 . S
Gd575 O615 2.468 . S
Gd575 O616 2.427 . S
Gd575 O618 2.388 . S
Gd575 C639 2.805 . S
N576 C566 1.359 . S
N576 Gd575 2.570 . S
N576 C578 1.343 . S
C577 C565 1.422 . S
C577 C579 1.321 . S
C577 H585 0.931 . S
C578 N576 1.343 . S
C578 C579 1.390 . S
C578 H580 0.931 . S
C579 C577 1.321 . S
C579 C578 1.390 . S
C579 H581 0.930 . S
H580 C578 0.931 . S
H581 C579 0.930 . S
H582 C605 0.931 . S
H583 C571 0.929 . S
H584 C606 0.930 . S
H585 C577 0.931 . S
H586 C567 0.930 . S
H587 C596 0.929 . S
H588 C572 0.931 . S
H589 C573 0.930 . S
H590 C628 0.930 . S
H591 C569 0.929 . S
H592 C597 0.931 . S
H593 C598 0.930 . S
N594 Gd574 2.622 . S
N594 C595 1.369 . S
N594 C596 1.338 . S
C595 N594 1.369 . S
C595 C599 1.415 . S
C595 C602 1.422 . S
C596 H587 0.929 . S
C596 N594 1.338 . S
C596 C598 1.378 . S
C597 H592 0.931 . S
C597 C598 1.348 . S
C597 C599 1.413 . S
C598 H593 0.930 . S
C598 C596 1.378 . S
C598 C597 1.348 . S
C599 C595 1.415 . S
C599 C597 1.413 . S
C599 C629 1.437 . S
H600 C629 0.929 . S
N601 Gd574 2.570 . S
N601 C602 1.359 . S
N601 C605 1.343 . S
C602 C595 1.422 . S
C602 N601 1.359 . S
C602 C604 1.421 . S
C603 C604 1.422 . S
C603 C606 1.321 . S
C603 H630 0.931 . S
C604 C602 1.421 . S
C604 C603 1.422 . S
C604 C628 1.417 . S
C605 H582 0.931 . S
C605 N601 1.343 . S
C605 C606 1.390 . S
C606 H584 0.930 . S
C606 C603 1.321 . S
C606 C605 1.390 . S
O607 Gd575 2.386 . S
O607 C619 1.265 . S
O608 Gd574 2.353 . S
O608 C619 1.242 . S
O609 Gd574 2.468 . S
O609 C627 1.263 . S
O610 Gd574 2.427 . S
O610 C627 1.252 . S
O611 Gd575 2.307 . S
O611 C620 1.261 . S
O612 Gd574 2.388 . S
O612 C620 1.252 . S
O613 Gd574 2.386 . S
O613 C631 1.265 . S
O614 Gd575 2.353 . S
O614 C631 1.242 . S
O615 Gd575 2.468 . S
O615 C639 1.263 . S
O616 Gd575 2.427 . S
O616 C639 1.252 . S
O617 Gd574 2.307 . S
O617 C632 1.261 . S
O618 Gd575 2.388 . S
O618 C632 1.252 . S
C619 O607 1.265 . S
C619 O608 1.242 . S
C620 O611 1.261 . S
C620 O612 1.252 . S
C621 C624 1.394 . S
C621 C626 1.370 . S
C621 C627 1.500 . S
C622 C625 1.383 . S
C622 C626 1.395 . S
C623 C624 1.396 . S
C623 C625 1.365 . S
C623 H640 0.929 . S
C624 C621 1.394 . S
C624 C623 1.396 . S
C624 H641 0.930 . S
C625 C622 1.383 . S
C625 C623 1.365 . S
C625 H642 0.931 . S
C626 C621 1.370 . S
C626 C622 1.395 . S
C626 H643 0.930 . S
C627 Gd574 2.805 . S
C627 O609 1.263 . S
C627 O610 1.252 . S
C627 C621 1.500 . S
C628 H590 0.930 . S
C628 C604 1.417 . S
C628 C629 1.329 . S
C629 C599 1.437 . S
C629 H600 0.929 . S
C629 C628 1.329 . S
H630 C603 0.931 . S
C631 O613 1.265 . S
C631 O614 1.242 . S
C632 O617 1.261 . S
C632 O618 1.252 . S
C633 C636 1.394 . S
C633 C638 1.370 . S
C633 C639 1.500 . S
C634 C637 1.383 . S
C634 C638 1.395 . S
C635 C636 1.396 . S
C635 C637 1.365 . S
C635 H644 0.929 . S
C636 C633 1.394 . S
C636 C635 1.396 . S
C636 H645 0.930 . S
C637 C634 1.383 . S
C637 C635 1.365 . S
C637 H646 0.931 . S
C638 C633 1.370 . S
C638 C634 1.395 . S
C638 H647 0.930 . S
C639 Gd575 2.805 . S
C639 O615 1.263 . S
C639 O616 1.252 . S
C639 C633 1.500 . S
H640 C623 0.929 . S
H641 C624 0.930 . S
H642 C625 0.931 . S
H643 C626 0.930 . S
H644 C635 0.929 . S
H645 C636 0.930 . S
H646 C637 0.931 . S
H647 C638 0.930 . S
C648 C650 1.422 . S
C648 C652 1.415 . S
C648 N654 1.369 . S
C649 C650 1.421 . S
C649 C651 1.417 . S
C649 C661 1.422 . S
C650 C648 1.422 . S
C650 C649 1.421 . S
C650 N660 1.359 . S
C651 C649 1.417 . S
C651 C653 1.329 . S
C651 H670 0.930 . S
C652 C648 1.415 . S
C652 C653 1.437 . S
C652 C656 1.413 . S
C653 C651 1.329 . S
C653 C652 1.437 . S
C653 H675 0.929 . S
N654 C648 1.369 . S
N654 C655 1.338 . S
N654 Gd659 2.622 . S
C655 N654 1.338 . S
C655 C657 1.378 . S
C655 H667 0.929 . S
C656 C652 1.413 . S
C656 C657 1.348 . S
C656 H672 0.931 . S
C657 C655 1.378 . S
C657 C656 1.348 . S
C657 H673 0.930 . S
Gd658 N678 2.622 . S
Gd658 N685 2.570 . S
Gd658 O692 2.353 . S
Gd658 O693 2.468 . S
Gd658 O694 2.427 . S
Gd658 O696 2.388 . S
Gd658 O697 2.386 . S
Gd658 O701 2.307 . S
Gd658 C711 2.805 . S
Gd659 N654 2.622 . S
Gd659 N660 2.570 . S
Gd659 O691 2.386 . S
Gd659 O695 2.307 1_655 S
Gd659 O698 2.353 1_655 S
Gd659 O699 2.468 . S
Gd659 O700 2.427 . S
Gd659 O702 2.388 . S
Gd659 C723 2.805 . S
N660 C650 1.359 . S
N660 Gd659 2.570 . S
N660 C662 1.343 . S
C661 C649 1.422 . S
C661 C663 1.321 . S
C661 H669 0.931 . S
C662 N660 1.343 . S
C662 C663 1.390 . S
C662 H664 0.931 . S
C663 C661 1.321 . S
C663 C662 1.390 . S
C663 H665 0.930 . S
H664 C662 0.931 . S
H665 C663 0.930 . S
H666 C689 0.931 . S
H667 C655 0.929 . S
H668 C690 0.930 . S
H669 C661 0.931 . S
H670 C651 0.930 . S
H671 C680 0.929 . S
H672 C656 0.931 . S
H673 C657 0.930 . S
H674 C712 0.930 . S
H675 C653 0.929 . S
H676 C681 0.931 . S
H677 C682 0.930 . S
N678 Gd658 2.622 . S
N678 C679 1.369 . S
N678 C680 1.338 . S
C679 N678 1.369 . S
C679 C683 1.415 . S
C679 C686 1.422 . S
C680 H671 0.929 . S
C680 N678 1.338 . S
C680 C682 1.378 . S
C681 H676 0.931 . S
C681 C682 1.348 . S
C681 C683 1.413 . S
C682 H677 0.930 . S
C682 C680 1.378 . S
C682 C681 1.348 . S
C683 C679 1.415 . S
C683 C681 1.413 . S
C683 C713 1.437 . S
H684 C713 0.929 . S
N685 Gd658 2.570 . S
N685 C686 1.359 . S
N685 C689 1.343 . S
C686 C679 1.422 . S
C686 N685 1.359 . S
C686 C688 1.421 . S
C687 C688 1.422 . S
C687 C690 1.321 . S
C687 H714 0.931 . S
C688 C686 1.421 . S
C688 C687 1.422 . S
C688 C712 1.417 . S
C689 H666 0.931 . S
C689 N685 1.343 . S
C689 C690 1.390 . S
C690 H668 0.930 . S
C690 C687 1.321 . S
C690 C689 1.390 . S
O691 Gd659 2.386 . S
O691 C703 1.265 . S
O692 Gd658 2.353 . S
O692 C703 1.242 1_455 S
O693 Gd658 2.468 . S
O693 C711 1.263 . S
O694 Gd658 2.427 . S
O694 C711 1.252 . S
O695 Gd659 2.307 1_455 S
O695 C704 1.261 . S
O696 Gd658 2.388 . S
O696 C704 1.252 . S
O697 Gd658 2.386 . S
O697 C715 1.265 . S
O698 Gd659 2.353 1_455 S
O698 C715 1.242 . S
O699 Gd659 2.468 . S
O699 C723 1.263 . S
O700 Gd659 2.427 . S
O700 C723 1.252 . S
O701 Gd658 2.307 . S
O701 C716 1.261 1_455 S
O702 Gd659 2.388 . S
O702 C716 1.252 . S
C703 O691 1.265 . S
C703 O692 1.242 1_655 S
C704 O695 1.261 . S
C704 O696 1.252 . S
C705 C708 1.394 . S
C705 C710 1.370 . S
C705 C711 1.500 . S
C706 C709 1.383 . S
C706 C710 1.395 . S
C707 C708 1.396 . S
C707 C709 1.365 . S
C707 H724 0.929 . S
C708 C705 1.394 . S
C708 C707 1.396 . S
C708 H725 0.930 . S
C709 C706 1.383 . S
C709 C707 1.365 . S
C709 H726 0.931 . S
C710 C705 1.370 . S
C710 C706 1.395 . S
C710 H727 0.930 . S
C711 Gd658 2.805 . S
C711 O693 1.263 . S
C711 O694 1.252 . S
C711 C705 1.500 . S
C712 H674 0.930 . S
C712 C688 1.417 . S
C712 C713 1.329 . S
C713 C683 1.437 . S
C713 H684 0.929 . S
C713 C712 1.329 . S
H714 C687 0.931 . S
C715 O697 1.265 . S
C715 O698 1.242 . S
C716 O701 1.261 1_655 S
C716 O702 1.252 . S
C717 C720 1.394 . S
C717 C722 1.370 . S
C717 C723 1.500 . S
C718 C721 1.383 . S
C718 C722 1.395 . S
C719 C720 1.396 . S
C719 C721 1.365 . S
C719 H728 0.929 . S
C720 C717 1.394 . S
C720 C719 1.396 . S
C720 H729 0.930 . S
C721 C718 1.383 . S
C721 C719 1.365 . S
C721 H730 0.931 . S
C722 C717 1.370 . S
C722 C718 1.395 . S
C722 H731 0.930 . S
C723 Gd659 2.805 . S
C723 O699 1.263 . S
C723 O700 1.252 . S
C723 C717 1.500 . S
H724 C707 0.929 . S
H725 C708 0.930 . S
H726 C709 0.931 . S
H727 C710 0.930 . S
H728 C719 0.929 . S
H729 C720 0.930 . S
H730 C721 0.931 . S
H731 C722 0.930 . S
C732 C734 1.422 . S
C732 C736 1.415 . S
C732 N738 1.369 . S
C733 C734 1.421 . S
C733 C735 1.417 . S
C733 C745 1.422 . S
C734 C732 1.422 . S
C734 C733 1.421 . S
C734 N744 1.359 . S
C735 C733 1.417 . S
C735 C737 1.329 . S
C735 H754 0.930 . S
C736 C732 1.415 . S
C736 C737 1.437 . S
C736 C740 1.413 . S
C737 C735 1.329 . S
C737 C736 1.437 . S
C737 H759 0.929 . S
N738 C732 1.369 . S
N738 C739 1.338 . S
N738 Gd743 2.622 . S
C739 N738 1.338 . S
C739 C741 1.378 . S
C739 H751 0.929 . S
C740 C736 1.413 . S
C740 C741 1.348 . S
C740 H756 0.931 . S
C741 C739 1.378 . S
C741 C740 1.348 . S
C741 H757 0.930 . S
Gd742 N762 2.622 . S
Gd742 N769 2.570 . S
Gd742 O776 2.353 . S
Gd742 O777 2.468 . S
Gd742 O778 2.427 . S
Gd742 O780 2.388 . S
Gd742 O781 2.386 . S
Gd742 O785 2.307 . S
Gd742 C795 2.805 . S
Gd743 N738 2.622 . S
Gd743 N744 2.570 . S
Gd743 O775 2.386 . S
Gd743 O779 2.307 . S
Gd743 O782 2.353 . S
Gd743 O783 2.468 . S
Gd743 O784 2.427 . S
Gd743 O786 2.388 . S
Gd743 C807 2.805 . S
N744 C734 1.359 . S
N744 Gd743 2.570 . S
N744 C746 1.343 . S
C745 C733 1.422 . S
C745 C747 1.321 . S
C745 H753 0.931 . S
C746 N744 1.343 . S
C746 C747 1.390 . S
C746 H748 0.931 . S
C747 C745 1.321 . S
C747 C746 1.390 . S
C747 H749 0.930 . S
H748 C746 0.931 . S
H749 C747 0.930 . S
H750 C773 0.931 . S
H751 C739 0.929 . S
H752 C774 0.930 . S
H753 C745 0.931 . S
H754 C735 0.930 . S
H755 C764 0.929 . S
H756 C740 0.931 . S
H757 C741 0.930 . S
H758 C796 0.930 . S
H759 C737 0.929 . S
H760 C765 0.931 . S
H761 C766 0.930 . S
N762 Gd742 2.622 . S
N762 C763 1.369 . S
N762 C764 1.338 . S
C763 N762 1.369 . S
C763 C767 1.415 . S
C763 C770 1.422 . S
C764 H755 0.929 . S
C764 N762 1.338 . S
C764 C766 1.378 . S
C765 H760 0.931 . S
C765 C766 1.348 . S
C765 C767 1.413 . S
C766 H761 0.930 . S
C766 C764 1.378 . S
C766 C765 1.348 . S
C767 C763 1.415 . S
C767 C765 1.413 . S
C767 C797 1.437 . S
H768 C797 0.929 . S
N769 Gd742 2.570 . S
N769 C770 1.359 . S
N769 C773 1.343 . S
C770 C763 1.422 . S
C770 N769 1.359 . S
C770 C772 1.421 . S
C771 C772 1.422 . S
C771 C774 1.321 . S
C771 H798 0.931 . S
C772 C770 1.421 . S
C772 C771 1.422 . S
C772 C796 1.417 . S
C773 H750 0.931 . S
C773 N769 1.343 . S
C773 C774 1.390 . S
C774 H752 0.930 . S
C774 C771 1.321 . S
C774 C773 1.390 . S
O775 Gd743 2.386 . S
O775 C787 1.265 . S
O776 Gd742 2.353 . S
O776 C787 1.242 . S
O777 Gd742 2.468 . S
O777 C795 1.263 . S
O778 Gd742 2.427 . S
O778 C795 1.252 . S
O779 Gd743 2.307 . S
O779 C788 1.261 . S
O780 Gd742 2.388 . S
O780 C788 1.252 . S
O781 Gd742 2.386 . S
O781 C799 1.265 . S
O782 Gd743 2.353 . S
O782 C799 1.242 . S
O783 Gd743 2.468 . S
O783 C807 1.263 . S
O784 Gd743 2.427 . S
O784 C807 1.252 . S
O785 Gd742 2.307 . S
O785 C800 1.261 . S
O786 Gd743 2.388 . S
O786 C800 1.252 . S
C787 O775 1.265 . S
C787 O776 1.242 . S
C788 O779 1.261 . S
C788 O780 1.252 . S
C789 C792 1.394 . S
C789 C794 1.370 . S
C789 C795 1.500 . S
C790 C793 1.383 . S
C790 C794 1.395 . S
C791 C792 1.396 . S
C791 C793 1.365 . S
C791 H808 0.929 . S
C792 C789 1.394 . S
C792 C791 1.396 . S
C792 H809 0.930 . S
C793 C790 1.383 . S
C793 C791 1.365 . S
C793 H810 0.931 . S
C794 C789 1.370 . S
C794 C790 1.395 . S
C794 H811 0.930 . S
C795 Gd742 2.805 . S
C795 O777 1.263 . S
C795 O778 1.252 . S
C795 C789 1.500 . S
C796 H758 0.930 . S
C796 C772 1.417 . S
C796 C797 1.329 . S
C797 C767 1.437 . S
C797 H768 0.929 . S
C797 C796 1.329 . S
H798 C771 0.931 . S
C799 O781 1.265 . S
C799 O782 1.242 . S
C800 O785 1.261 . S
C800 O786 1.252 . S
C801 C804 1.394 . S
C801 C806 1.370 . S
C801 C807 1.500 . S
C802 C805 1.383 . S
C802 C806 1.395 . S
C803 C804 1.396 . S
C803 C805 1.365 . S
C803 H812 0.929 . S
C804 C801 1.394 . S
C804 C803 1.396 . S
C804 H813 0.930 . S
C805 C802 1.383 . S
C805 C803 1.365 . S
C805 H814 0.931 . S
C806 C801 1.370 . S
C806 C802 1.395 . S
C806 H815 0.930 . S
C807 Gd743 2.805 . S
C807 O783 1.263 . S
C807 O784 1.252 . S
C807 C801 1.500 . S
H808 C791 0.929 . S
H809 C792 0.930 . S
H810 C793 0.931 . S
H811 C794 0.930 . S
H812 C803 0.929 . S
H813 C804 0.930 . S
H814 C805 0.931 . S
H815 C806 0.930 . S
C816 C817 1.363 . S
C816 C822 1.379 . S
C816 N824 1.356 1_545 S
C817 C816 1.363 . S
C817 C823 1.363 . S
C818 C819 1.363 . S
C818 C823 1.379 . S
C818 N825 1.356 . S
C819 C818 1.363 . S
C819 C822 1.363 . S
N820 C822 1.342 1_655 S
N820 H832 0.996 . S
N820 H833 0.988 . S
N821 C823 1.356 . S
N821 H826 0.984 . S
N821 H827 0.985 . S
C822 C816 1.379 . S
C822 C819 1.363 . S
C822 N820 1.342 1_455 S
C823 C817 1.363 . S
C823 C818 1.379 . S
C823 N821 1.356 . S
N824 C816 1.356 1_565 S
N824 H830 0.984 . S
N824 H831 0.984 . S
N825 C818 1.356 . S
N825 H828 0.984 . S
N825 H829 0.985 . S
H826 N821 0.984 . S
H827 N821 0.985 . S
H828 N825 0.984 . S
H829 N825 0.985 . S
H830 N824 0.984 . S
H831 N824 0.984 . S
H832 N820 0.996 . S
H833 N820 0.988 . S
C834 C835 1.363 . S
C834 C840 1.379 . S
C834 N842 1.356 . S
C835 C834 1.363 . S
C835 C841 1.363 . S
C836 C837 1.363 . S
C836 C841 1.379 . S
C836 N843 1.356 . S
C837 C836 1.363 . S
C837 C840 1.363 . S
N838 C840 1.356 . S
N838 H850 0.984 . S
N838 H851 0.985 . S
N839 C841 1.356 . S
N839 H844 0.984 . S
N839 H845 0.985 . S
C840 C834 1.379 . S
C840 C837 1.363 . S
C840 N838 1.356 . S
C841 C835 1.363 . S
C841 C836 1.379 . S
C841 N839 1.356 . S
N842 C834 1.356 . S
N842 H848 0.984 . S
N842 H849 0.984 . S
N843 C836 1.356 . S
N843 H846 0.984 . S
N843 H847 0.985 . S
H844 N839 0.984 . S
H845 N839 0.985 . S
H846 N843 0.984 . S
H847 N843 0.985 . S
H848 N842 0.984 . S
H849 N842 0.984 . S
H850 N838 0.984 . S
H851 N838 0.985 . S
C852 C853 1.363 . S
C852 C858 1.379 . S
C852 N860 1.356 . S
C853 C852 1.363 . S
C853 C859 1.363 . S
C854 C855 1.363 . S
C854 C859 1.379 . S
C854 N861 1.356 . S
C855 C854 1.363 . S
C855 C858 1.363 . S
N856 C858 1.356 . S
N856 H868 0.984 . S
N856 H869 0.985 . S
N857 C859 1.356 . S
N857 H862 0.984 . S
N857 H863 0.985 . S
C858 C852 1.379 . S
C858 C855 1.363 . S
C858 N856 1.356 . S
C859 C853 1.363 . S
C859 C854 1.379 . S
C859 N857 1.356 . S
N860 C852 1.356 . S
N860 H866 0.984 . S
N860 H867 0.984 . S
N861 C854 1.356 . S
N861 H864 0.984 . S
N861 H865 0.985 . S
H862 N857 0.984 . S
H863 N857 0.985 . S
H864 N861 0.984 . S
H865 N861 0.985 . S
H866 N860 0.984 . S
H867 N860 0.984 . S
H868 N856 0.984 . S
H869 N856 0.985 . S
C870 C871 1.363 . S
C870 C876 1.379 . S
C870 N878 1.356 . S
C871 C870 1.363 . S
C871 C877 1.363 . S
C872 C873 1.363 . S
C872 C877 1.379 . S
C872 N879 1.356 . S
C873 C872 1.363 . S
C873 C876 1.363 . S
N874 C876 1.356 . S
N874 H886 0.984 1_655 S
N874 H887 0.982 1_655 S
N875 C877 1.356 . S
N875 H880 0.984 1_545 S
N875 H881 0.985 . S
C876 C870 1.379 . S
C876 C873 1.363 . S
C876 N874 1.356 . S
C877 C871 1.363 . S
C877 C872 1.379 . S
C877 N875 1.356 . S
N878 C870 1.356 . S
N878 H884 0.984 . S
N878 H885 0.984 . S
N879 C872 1.356 . S
N879 H882 0.984 . S
N879 H883 0.985 . S
H880 N875 0.984 1_565 S
H881 N875 0.985 . S
H882 N879 0.984 . S
H883 N879 0.985 . S
H884 N878 0.984 . S
H885 N878 0.984 . S
H886 N874 0.984 1_455 S
H887 N874 0.982 1_455 S
C888 C889 1.363 . S
C888 C894 1.379 . S
C888 N896 1.356 . S
C889 C888 1.363 . S
C889 C895 1.363 . S
C890 C891 1.363 . S
C890 C895 1.379 . S
C890 N897 1.356 . S
C891 C890 1.363 . S
C891 C894 1.363 . S
N892 C894 1.356 . S
N892 H904 0.984 . S
N892 H905 0.985 . S
N893 C895 1.356 1_545 S
N893 H898 0.984 . S
N893 H899 0.985 . S
C894 C888 1.379 . S
C894 C891 1.363 . S
C894 N892 1.356 . S
C895 C889 1.363 . S
C895 C890 1.379 . S
C895 N893 1.356 1_565 S
N896 C888 1.356 . S
N896 H902 0.984 . S
N896 H903 0.984 . S
N897 C890 1.356 . S
N897 H900 0.984 . S
N897 H901 0.985 . S
H898 N893 0.984 . S
H899 N893 0.985 . S
H900 N897 0.984 . S
H901 N897 0.985 . S
H902 N896 0.984 . S
H903 N896 0.984 . S
H904 N892 0.984 . S
H905 N892 0.985 . S
C906 C907 1.363 . S
C906 C912 1.379 . S
C906 N914 1.356 . S
C907 C906 1.363 . S
C907 C913 1.363 . S
C908 C909 1.363 . S
C908 C913 1.379 . S
C908 N915 1.356 . S
C909 C908 1.363 . S
C909 C912 1.363 . S
N910 C912 1.356 . S
N910 H922 0.984 . S
N910 H923 0.985 . S
N911 C913 1.356 . S
N911 H916 0.984 . S
N911 H917 0.985 . S
C912 C906 1.379 . S
C912 C909 1.363 . S
C912 N910 1.356 . S
C913 C907 1.363 . S
C913 C908 1.379 . S
C913 N911 1.356 . S
N914 C906 1.356 . S
N914 H920 0.984 . S
N914 H921 0.984 . S
N915 C908 1.356 . S
N915 H918 0.984 . S
N915 H919 0.985 . S
H916 N911 0.984 . S
H917 N911 0.985 . S
H918 N915 0.984 . S
H919 N915 0.985 . S
H920 N914 0.984 . S
H921 N914 0.984 . S
H922 N910 0.984 . S
H923 N910 0.985 . S
C924 C925 1.363 . S
C924 C930 1.379 . S
C924 N932 1.356 . S
C925 C924 1.363 . S
C925 C931 1.363 . S
C926 C927 1.363 . S
C926 C931 1.379 . S
C926 N933 1.356 . S
C927 C926 1.363 . S
C927 C930 1.363 . S
N928 C930 1.356 . S
N928 H940 0.984 . S
N928 H941 0.985 . S
N929 C931 1.356 . S
N929 H934 0.984 . S
N929 H935 0.985 . S
C930 C924 1.379 . S
C930 C927 1.363 . S
C930 N928 1.356 . S
C931 C925 1.363 . S
C931 C926 1.379 . S
C931 N929 1.356 . S
N932 C924 1.356 . S
N932 H938 0.984 . S
N932 H939 0.984 . S
N933 C926 1.356 . S
N933 H936 0.984 . S
N933 H937 0.985 . S
H934 N929 0.984 . S
H935 N929 0.985 . S
H936 N933 0.984 . S
H937 N933 0.985 . S
H938 N932 0.984 . S
H939 N932 0.984 . S
H940 N928 0.984 . S
H941 N928 0.985 . S
C942 C943 1.363 . S
C942 C948 1.379 . S
C942 N950 1.356 . S
C943 C942 1.363 . S
C943 C949 1.363 . S
C944 C945 1.363 . S
C944 C949 1.379 . S
C944 N951 1.356 . S
C945 C944 1.363 . S
C945 C948 1.363 . S
N946 C948 1.356 . S
N946 H958 0.984 . S
N946 H959 0.985 . S
N947 C949 1.356 1_545 S
N947 H952 0.984 . S
N947 H953 0.985 . S
C948 C942 1.379 . S
C948 C945 1.363 . S
C948 N946 1.356 . S
C949 C943 1.363 . S
C949 C944 1.379 . S
C949 N947 1.356 1_565 S
N950 C942 1.356 . S
N950 H956 0.984 . S
N950 H957 0.984 . S
N951 C944 1.356 . S
N951 H954 0.984 . S
N951 H955 0.985 . S
H952 N947 0.984 . S
H953 N947 0.985 . S
H954 N951 0.984 . S
H955 N951 0.985 . S
H956 N950 0.984 . S
H957 N950 0.984 . S
H958 N946 0.984 . S
H959 N946 0.985 . S
C960 C961 1.363 . S
C960 C966 1.379 . S
C960 N968 1.356 . S
C961 C960 1.363 . S
C961 C967 1.363 . S
C962 C963 1.363 . S
C962 C967 1.379 . S
C962 N969 1.356 . S
C963 C962 1.363 . S
C963 C966 1.363 . S
N964 C966 1.356 . S
N964 H976 0.984 . S
N964 H977 0.985 . S
N965 C967 1.356 . S
N965 H970 0.984 . S
N965 H971 0.985 . S
C966 C960 1.379 . S
C966 C963 1.363 . S
C966 N964 1.356 . S
C967 C961 1.363 . S
C967 C962 1.379 . S
C967 N965 1.356 . S
N968 C960 1.356 . S
N968 H974 0.984 . S
N968 H975 0.984 . S
N969 C962 1.356 . S
N969 H972 0.984 . S
N969 H973 0.985 . S
H970 N965 0.984 . S
H971 N965 0.985 . S
H972 N969 0.984 . S
H973 N969 0.985 . S
H974 N968 0.984 . S
H975 N968 0.984 . S
H976 N964 0.984 . S
H977 N964 0.985 . S
C978 C979 1.363 . S
C978 C984 1.379 . S
C978 N986 1.356 . S
C979 C978 1.363 . S
C979 C985 1.363 . S
C980 C981 1.363 . S
C980 C985 1.379 . S
C980 N987 1.356 . S
C981 C980 1.363 . S
C981 C984 1.363 . S
N982 C984 1.356 . S
N982 H994 0.984 . S
N982 H995 0.985 . S
N983 C985 1.356 . S
N983 H988 0.984 . S
N983 H989 0.985 . S
C984 C978 1.379 . S
C984 C981 1.363 . S
C984 N982 1.356 . S
C985 C979 1.363 . S
C985 C980 1.379 . S
C985 N983 1.356 . S
N986 C978 1.356 . S
N986 H992 0.984 . S
N986 H993 0.984 . S
N987 C980 1.356 . S
N987 H990 0.984 . S
N987 H991 0.985 . S
H988 N983 0.984 . S
H989 N983 0.985 . S
H990 N987 0.984 . S
H991 N987 0.985 . S
H992 N986 0.984 . S
H993 N986 0.984 . S
H994 N982 0.984 . S
H995 N982 0.985 . S
C996 C997 1.363 . S
C996 C1002 1.379 . S
C996 N1004 1.356 . S
C997 C996 1.363 . S
C997 C1003 1.363 . S
C998 C999 1.363 . S
C998 C1003 1.379 . S
C998 N1005 1.356 . S
C999 C998 1.363 . S
C999 C1002 1.363 . S
N1000 C1002 1.356 . S
N1000 H1012 0.984 . S
N1000 H1013 0.985 . S
N1001 C1003 1.356 . S
N1001 H1006 0.984 . S
N1001 H1007 0.985 . S
C1002 C996 1.379 . S
C1002 C999 1.363 . S
C1002 N1000 1.356 . S
C1003 C997 1.363 . S
C1003 C998 1.379 . S
C1003 N1001 1.356 . S
N1004 C996 1.356 . S
N1004 H1010 0.984 . S
N1004 H1011 0.984 . S
N1005 C998 1.356 . S
N1005 H1008 0.984 . S
N1005 H1009 0.985 . S
H1006 N1001 0.984 . S
H1007 N1001 0.985 . S
H1008 N1005 0.984 . S
H1009 N1005 0.985 . S
H1010 N1004 0.984 . S
H1011 N1004 0.984 . S
H1012 N1000 0.984 . S
H1013 N1000 0.985 . S
C1014 C1015 1.363 . S
C1014 C1020 1.379 . S
C1014 N1022 1.356 . S
C1015 C1014 1.363 . S
C1015 C1021 1.363 . S
C1016 C1017 1.363 . S
C1016 C1021 1.379 . S
C1016 N1023 1.356 . S
C1017 C1016 1.363 . S
C1017 C1020 1.363 . S
N1018 C1020 1.356 . S
N1018 H1030 0.984 . S
N1018 H1031 0.985 . S
N1019 C1021 1.356 . S
N1019 H1024 0.984 . S
N1019 H1025 0.985 . S
C1020 C1014 1.379 . S
C1020 C1017 1.363 . S
C1020 N1018 1.356 . S
C1021 C1015 1.363 . S
C1021 C1016 1.379 . S
C1021 N1019 1.356 . S
N1022 C1014 1.356 . S
N1022 H1028 0.984 . S
N1022 H1029 0.984 . S
N1023 C1016 1.356 . S
N1023 H1026 0.984 . S
N1023 H1027 0.985 . S
H1024 N1019 0.984 . S
H1025 N1019 0.985 . S
H1026 N1023 0.984 . S
H1027 N1023 0.985 . S
H1028 N1022 0.984 . S
H1029 N1022 0.984 . S
H1030 N1018 0.984 . S
H1031 N1018 0.985 . S
C1032 C1033 1.363 . S
C1032 C1038 1.379 . S
C1032 N1040 1.356 . S
C1033 C1032 1.363 . S
C1033 C1039 1.363 . S
C1034 C1035 1.363 . S
C1034 C1039 1.379 . S
C1034 N1041 1.356 . S
C1035 C1034 1.363 . S
C1035 C1038 1.363 . S
N1036 C1038 1.356 . S
N1036 H1048 0.984 . S
N1036 H1049 0.985 . S
N1037 C1039 1.356 . S
N1037 H1042 0.984 . S
N1037 H1043 0.985 . S
C1038 C1032 1.379 . S
C1038 C1035 1.363 . S
C1038 N1036 1.356 . S
C1039 C1033 1.363 . S
C1039 C1034 1.379 . S
C1039 N1037 1.356 . S
N1040 C1032 1.356 . S
N1040 H1046 0.984 . S
N1040 H1047 0.984 . S
N1041 C1034 1.356 . S
N1041 H1044 0.984 . S
N1041 H1045 0.985 . S
H1042 N1037 0.984 . S
H1043 N1037 0.985 . S
H1044 N1041 0.984 . S
H1045 N1041 0.985 . S
H1046 N1040 0.984 . S
H1047 N1040 0.984 . S
H1048 N1036 0.984 . S
H1049 N1036 0.985 . S
C1050 C1051 1.363 . S
C1050 C1056 1.379 . S
C1050 N1058 1.356 . S
C1051 C1050 1.363 . S
C1051 C1057 1.363 . S
C1052 C1053 1.363 . S
C1052 C1057 1.379 . S
C1052 N1059 1.356 . S
C1053 C1052 1.363 . S
C1053 C1056 1.363 . S
N1054 C1056 1.356 . S
N1054 H1066 0.984 . S
N1054 H1067 0.985 . S
N1055 C1057 1.356 . S
N1055 H1060 0.984 . S
N1055 H1061 0.985 . S
C1056 C1050 1.379 . S
C1056 C1053 1.363 . S
C1056 N1054 1.356 . S
C1057 C1051 1.363 . S
C1057 C1052 1.379 . S
C1057 N1055 1.356 . S
N1058 C1050 1.356 . S
N1058 H1064 0.984 . S
N1058 H1065 0.984 . S
N1059 C1052 1.356 . S
N1059 H1062 0.984 . S
N1059 H1063 0.985 . S
H1060 N1055 0.984 . S
H1061 N1055 0.985 . S
H1062 N1059 0.984 . S
H1063 N1059 0.985 . S
H1064 N1058 0.984 . S
H1065 N1058 0.984 . S
H1066 N1054 0.984 . S
H1067 N1054 0.985 . S
C1068 C1069 1.363 . S
C1068 C1074 1.379 . S
C1068 N1076 1.356 . S
C1069 C1068 1.363 . S
C1069 C1075 1.363 . S
C1070 C1071 1.363 . S
C1070 C1075 1.379 . S
C1070 N1077 1.356 . S
C1071 C1070 1.363 . S
C1071 C1074 1.363 . S
N1072 C1074 1.356 . S
N1072 H1084 0.984 . S
N1072 H1085 0.985 . S
N1073 C1075 1.356 . S
N1073 H1078 0.984 1_554 S
N1073 H1079 0.985 . S
C1074 C1068 1.379 . S
C1074 C1071 1.363 . S
C1074 N1072 1.356 . S
C1075 C1069 1.363 . S
C1075 C1070 1.379 . S
C1075 N1073 1.356 . S
N1076 C1068 1.356 . S
N1076 H1082 0.984 . S
N1076 H1083 0.984 . S
N1077 C1070 1.356 . S
N1077 H1080 0.984 . S
N1077 H1081 0.985 . S
H1078 N1073 0.984 1_556 S
H1079 N1073 0.985 . S
H1080 N1077 0.984 . S
H1081 N1077 0.985 . S
H1082 N1076 0.984 . S
H1083 N1076 0.984 . S
H1084 N1072 0.984 . S
H1085 N1072 0.985 . S
C1086 C1087 1.363 . S
C1086 C1092 1.379 . S
C1086 N1094 1.356 . S
C1087 C1086 1.363 . S
C1087 C1093 1.363 . S
C1088 C1089 1.363 . S
C1088 C1093 1.379 . S
C1088 N1095 1.356 . S
C1089 C1088 1.363 . S
C1089 C1092 1.363 . S
N1090 C1092 1.356 . S
N1090 H1102 0.984 . S
N1090 H1103 0.985 . S
N1091 C1093 1.356 . S
N1091 H1096 0.984 . S
N1091 H1097 0.985 . S
C1092 C1086 1.379 . S
C1092 C1089 1.363 . S
C1092 N1090 1.356 . S
C1093 C1087 1.363 . S
C1093 C1088 1.379 . S
C1093 N1091 1.356 . S
N1094 C1086 1.356 . S
N1094 H1100 0.984 . S
N1094 H1101 0.984 . S
N1095 C1088 1.356 . S
N1095 H1098 0.984 . S
N1095 H1099 0.985 . S
H1096 N1091 0.984 . S
H1097 N1091 0.985 . S
H1098 N1095 0.984 . S
H1099 N1095 0.985 . S
H1100 N1094 0.984 . S
H1101 N1094 0.984 . S
H1102 N1090 0.984 . S
H1103 N1090 0.985 . S
C1104 C1105 1.363 . S
C1104 C1110 1.379 . S
C1104 N1112 1.356 . S
C1105 C1104 1.363 . S
C1105 C1111 1.363 . S
C1106 C1107 1.363 . S
C1106 C1111 1.379 . S
C1106 N1113 1.356 . S
C1107 C1106 1.363 . S
C1107 C1110 1.363 . S
N1108 C1110 1.356 . S
N1108 H1120 0.984 . S
N1108 H1121 0.985 . S
N1109 C1111 1.356 . S
N1109 H1114 0.984 . S
N1109 H1115 0.985 . S
C1110 C1104 1.379 . S
C1110 C1107 1.363 . S
C1110 N1108 1.356 . S
C1111 C1105 1.363 . S
C1111 C1106 1.379 . S
C1111 N1109 1.356 . S
N1112 C1104 1.356 . S
N1112 H1118 0.984 . S
N1112 H1119 0.984 . S
N1113 C1106 1.356 . S
N1113 H1116 0.984 . S
N1113 H1117 0.985 . S
H1114 N1109 0.984 . S
H1115 N1109 0.985 . S
H1116 N1113 0.984 . S
H1117 N1113 0.985 . S
H1118 N1112 0.984 . S
H1119 N1112 0.984 . S
H1120 N1108 0.984 . S
H1121 N1108 0.985 . S
C1122 C1123 1.363 . S
C1122 C1128 1.379 . S
C1122 N1130 1.356 . S
C1123 C1122 1.363 . S
C1123 C1129 1.363 . S
C1124 C1125 1.363 . S
C1124 C1129 1.379 . S
C1124 N1131 1.356 . S
C1125 C1124 1.363 . S
C1125 C1128 1.363 . S
N1126 C1128 1.356 . S
N1126 H1138 0.984 . S
N1126 H1139 0.985 . S
N1127 C1129 1.356 . S
N1127 H1132 0.984 . S
N1127 H1133 0.985 . S
C1128 C1122 1.379 . S
C1128 C1125 1.363 . S
C1128 N1126 1.356 . S
C1129 C1123 1.363 . S
C1129 C1124 1.379 . S
C1129 N1127 1.356 . S
N1130 C1122 1.356 . S
N1130 H1136 0.984 . S
N1130 H1137 0.984 . S
N1131 C1124 1.356 . S
N1131 H1134 0.984 . S
N1131 H1135 0.985 . S
H1132 N1127 0.984 . S
H1133 N1127 0.985 . S
H1134 N1131 0.984 . S
H1135 N1131 0.985 . S
H1136 N1130 0.984 . S
H1137 N1130 0.984 . S
H1138 N1126 0.984 . S
H1139 N1126 0.985 . S
C1140 C1141 1.363 . S
C1140 C1146 1.379 . S
C1140 N1148 1.356 . S
C1141 C1140 1.363 . S
C1141 C1147 1.363 . S
C1142 C1143 1.363 . S
C1142 C1147 1.379 . S
C1142 N1149 1.356 . S
C1143 C1142 1.363 . S
C1143 C1146 1.363 . S
N1144 C1146 1.356 . S
N1144 H1156 0.984 . S
N1144 H1157 0.985 . S
N1145 C1147 1.356 . S
N1145 H1150 0.984 . S
N1145 H1151 0.985 . S
C1146 C1140 1.379 . S
C1146 C1143 1.363 . S
C1146 N1144 1.356 . S
C1147 C1141 1.363 . S
C1147 C1142 1.379 . S
C1147 N1145 1.356 . S
N1148 C1140 1.356 . S
N1148 H1154 0.984 . S
N1148 H1155 0.984 . S
N1149 C1142 1.356 . S
N1149 H1152 0.984 . S
N1149 H1153 0.985 . S
H1150 N1145 0.984 . S
H1151 N1145 0.985 . S
H1152 N1149 0.984 . S
H1153 N1149 0.985 . S
H1154 N1148 0.984 . S
H1155 N1148 0.984 . S
H1156 N1144 0.984 . S
H1157 N1144 0.985 . S
C1158 C1159 1.363 . S
C1158 C1164 1.379 . S
C1158 N1166 1.356 . S
C1159 C1158 1.363 . S
C1159 C1165 1.363 . S
C1160 C1161 1.363 . S
C1160 C1165 1.379 . S
C1160 N1167 1.356 . S
C1161 C1160 1.363 . S
C1161 C1164 1.363 . S
N1162 C1164 1.356 . S
N1162 H1174 0.984 1_655 S
N1162 H1175 0.985 . S
N1163 C1165 1.356 . S
N1163 H1168 0.984 . S
N1163 H1169 0.985 . S
C1164 C1158 1.379 . S
C1164 C1161 1.363 . S
C1164 N1162 1.356 . S
C1165 C1159 1.363 . S
C1165 C1160 1.379 . S
C1165 N1163 1.356 . S
N1166 C1158 1.356 . S
N1166 H1172 0.984 . S
N1166 H1173 0.984 . S
N1167 C1160 1.356 . S
N1167 H1170 0.984 . S
N1167 H1171 0.985 . S
H1168 N1163 0.984 . S
H1169 N1163 0.985 . S
H1170 N1167 0.984 . S
H1171 N1167 0.985 . S
H1172 N1166 0.984 . S
H1173 N1166 0.984 . S
H1174 N1162 0.984 1_455 S
H1175 N1162 0.985 . S
C1176 C1177 1.363 . S
C1176 C1182 1.379 . S
C1176 N1184 1.356 . S
C1177 C1176 1.363 . S
C1177 C1183 1.363 . S
C1178 C1179 1.363 . S
C1178 C1183 1.379 . S
C1178 N1185 1.356 . S
C1179 C1178 1.363 . S
C1179 C1182 1.363 . S
N1180 C1182 1.356 . S
N1180 H1192 0.984 . S
N1180 H1193 0.985 . S
N1181 C1183 1.356 . S
N1181 H1186 0.984 . S
N1181 H1187 0.985 . S
C1182 C1176 1.379 . S
C1182 C1179 1.363 . S
C1182 N1180 1.356 . S
C1183 C1177 1.363 . S
C1183 C1178 1.379 . S
C1183 N1181 1.356 . S
N1184 C1176 1.356 . S
N1184 H1190 0.984 . S
N1184 H1191 0.984 . S
N1185 C1178 1.356 . S
N1185 H1188 0.984 . S
N1185 H1189 0.985 . S
H1186 N1181 0.984 . S
H1187 N1181 0.985 . S
H1188 N1185 0.984 . S
H1189 N1185 0.985 . S
H1190 N1184 0.984 . S
H1191 N1184 0.984 . S
H1192 N1180 0.984 . S
H1193 N1180 0.985 . S
C1194 C1195 1.363 . S
C1194 C1200 1.379 . S
C1194 N1202 1.356 . S
C1195 C1194 1.363 . S
C1195 C1201 1.363 . S
C1196 C1197 1.363 . S
C1196 C1201 1.379 . S
C1196 N1203 1.356 . S
C1197 C1196 1.363 . S
C1197 C1200 1.363 . S
N1198 C1200 1.356 . S
N1198 H1210 0.984 . S
N1198 H1211 0.985 . S
N1199 C1201 1.356 . S
N1199 H1204 0.984 . S
N1199 H1205 0.985 . S
C1200 C1194 1.379 . S
C1200 C1197 1.363 . S
C1200 N1198 1.356 . S
C1201 C1195 1.363 . S
C1201 C1196 1.379 . S
C1201 N1199 1.356 . S
N1202 C1194 1.356 . S
N1202 H1208 0.984 . S
N1202 H1209 0.984 . S
N1203 C1196 1.356 . S
N1203 H1206 0.984 . S
N1203 H1207 0.985 . S
H1204 N1199 0.984 . S
H1205 N1199 0.985 . S
H1206 N1203 0.984 . S
H1207 N1203 0.985 . S
H1208 N1202 0.984 . S
H1209 N1202 0.984 . S
H1210 N1198 0.984 . S
H1211 N1198 0.985 . S
C1212 C1213 1.363 . S
C1212 C1218 1.379 . S
C1212 N1220 1.356 . S
C1213 C1212 1.363 . S
C1213 C1219 1.363 . S
C1214 C1215 1.363 . S
C1214 C1219 1.379 . S
C1214 N1221 1.356 . S
C1215 C1214 1.363 . S
C1215 C1218 1.363 . S
N1216 C1218 1.356 . S
N1216 H1228 0.984 . S
N1216 H1229 0.985 . S
N1217 C1219 1.356 . S
N1217 H1222 0.984 . S
N1217 H1223 0.985 . S
C1218 C1212 1.379 . S
C1218 C1215 1.363 . S
C1218 N1216 1.356 . S
C1219 C1213 1.363 . S
C1219 C1214 1.379 . S
C1219 N1217 1.356 . S
N1220 C1212 1.356 . S
N1220 H1226 0.984 . S
N1220 H1227 0.984 . S
N1221 C1214 1.356 . S
N1221 H1224 0.984 . S
N1221 H1225 0.985 . S
H1222 N1217 0.984 . S
H1223 N1217 0.985 . S
H1224 N1221 0.984 . S
H1225 N1221 0.985 . S
H1226 N1220 0.984 . S
H1227 N1220 0.984 . S
H1228 N1216 0.984 . S
H1229 N1216 0.985 . S
C1230 C1231 1.363 . S
C1230 C1236 1.379 . S
C1230 N1238 1.356 . S
C1231 C1230 1.363 . S
C1231 C1237 1.363 . S
C1232 C1233 1.363 . S
C1232 C1237 1.379 . S
C1232 N1239 1.356 . S
C1233 C1232 1.363 . S
C1233 C1236 1.363 . S
N1234 C1236 1.356 . S
N1234 H1246 0.984 . S
N1234 H1247 0.985 . S
N1235 C1237 1.356 . S
N1235 H1240 0.984 . S
N1235 H1241 0.985 . S
C1236 C1230 1.379 . S
C1236 C1233 1.363 . S
C1236 N1234 1.356 . S
C1237 C1231 1.363 . S
C1237 C1232 1.379 . S
C1237 N1235 1.356 . S
N1238 C1230 1.356 . S
N1238 H1244 0.984 . S
N1238 H1245 0.984 . S
N1239 C1232 1.356 . S
N1239 H1242 0.984 . S
N1239 H1243 0.985 1_455 S
H1240 N1235 0.984 . S
H1241 N1235 0.985 . S
H1242 N1239 0.984 . S
H1243 N1239 0.985 1_655 S
H1244 N1238 0.984 . S
H1245 N1238 0.984 . S
H1246 N1234 0.984 . S
H1247 N1234 0.985 . S
C817 C361 1.448 1_545 S
C819 C536 1.465 . S
C837 C620 1.465 . S
C835 C451 1.462 . S
C855 C619 1.474 . S
C853 C241 1.444 . S
C871 C331 1.457 1_545 S
C873 C535 1.473 . S
C891 C716 1.465 . S
C889 C140 1.440 1_565 S
C909 C800 1.465 . S
C907 C211 1.440 . S
C925 C20 1.429 . S
C927 C799 1.474 . S
C943 C91 1.429 1_565 S
C945 C715 1.473 . S
C963 C538 1.317 . S
C961 C80 1.476 . S
C981 C622 1.317 . S
C979 C1 1.476 . S
C999 C634 1.404 . S
C997 C200 1.519 . S
C1017 C550 1.404 . S
C1015 C121 1.498 . S
C1035 C718 1.317 . S
C1033 C320 1.508 . S
C1051 C260 1.486 . S
C1053 C802 1.317 . S
C1071 C790 1.404 . S
C1069 C440 1.525 . S
C1087 C380 1.504 . S
C1089 C706 1.404 . S
C1107 C547 1.581 . S
C1105 C31 1.555 . S
C1125 C631 1.581 . S
C1123 C61 1.554 . S
C1141 C151 1.545 . S
C1143 C632 1.564 . S
C1161 C548 1.564 . S
C1159 C181 1.545 . S
C1179 C703 1.581 . S
C1177 C271 1.502 . S
C1195 C301 1.589 . S
C1197 C787 1.581 . S
C1213 C391 1.493 . S
C1215 C788 1.564 . S
C1231 C421 1.572 . S
C1233 C704 1.564 . S
