# Generated by pormake.
# Topology pto, (3,4)-cn, num edge types: 1
# Building blocks:
#     Node 0, Type 0, BuildingBlock: MIDCAF_clean_linker_0, # of connection points: 3
#     Node 1, Type 0, BuildingBlock: MIDCAF_clean_linker_0, # of connection points: 3
#     Node 2, Type 0, BuildingBlock: MIDCAF_clean_linker_0, # of connection points: 3
#     Node 3, Type 0, BuildingBlock: MIDCAF_clean_linker_0, # of connection points: 3
#     Node 4, Type 0, BuildingBlock: MIDCAF_clean_linker_0, # of connection points: 3
#     Node 5, Type 0, BuildingBlock: MIDCAF_clean_linker_0, # of connection points: 3
#     Node 6, Type 0, BuildingBlock: MIDCAF_clean_linker_0, # of connection points: 3
#     Node 7, Type 0, BuildingBlock: MIDCAF_clean_linker_0, # of connection points: 3
#     Node 8, Type 1, BuildingBlock: KOZSID_clean_sbu_0, # of connection points: 4
#     Node 9, Type 1, BuildingBlock: KOZSID_clean_sbu_0, # of connection points: 4
#     Node 10, Type 1, BuildingBlock: KOZSID_clean_sbu_0, # of connection points: 4
#     Node 11, Type 1, BuildingBlock: KOZSID_clean_sbu_0, # of connection points: 4
#     Node 12, Type 1, BuildingBlock: KOZSID_clean_sbu_0, # of connection points: 4
#     Node 13, Type 1, BuildingBlock: KOZSID_clean_sbu_0, # of connection points: 4
#     Edge 14, Type (0, 1), BuildingBlock: XIVTED_clean_linker_0, # of connection points: 2
#     Edge 15, Type (0, 1), BuildingBlock: XIVTED_clean_linker_0, # of connection points: 2
#     Edge 16, Type (0, 1), BuildingBlock: XIVTED_clean_linker_0, # of connection points: 2
#     Edge 17, Type (0, 1), BuildingBlock: XIVTED_clean_linker_0, # of connection points: 2
#     Edge 18, Type (0, 1), BuildingBlock: XIVTED_clean_linker_0, # of connection points: 2
#     Edge 19, Type (0, 1), BuildingBlock: XIVTED_clean_linker_0, # of connection points: 2
#     Edge 20, Type (0, 1), BuildingBlock: XIVTED_clean_linker_0, # of connection points: 2
#     Edge 21, Type (0, 1), BuildingBlock: XIVTED_clean_linker_0, # of connection points: 2
#     Edge 22, Type (0, 1), BuildingBlock: XIVTED_clean_linker_0, # of connection points: 2
#     Edge 23, Type (0, 1), BuildingBlock: XIVTED_clean_linker_0, # of connection points: 2
#     Edge 24, Type (0, 1), BuildingBlock: XIVTED_clean_linker_0, # of connection points: 2
#     Edge 25, Type (0, 1), BuildingBlock: XIVTED_clean_linker_0, # of connection points: 2
#     Edge 26, Type (0, 1), BuildingBlock: XIVTED_clean_linker_0, # of connection points: 2
#     Edge 27, Type (0, 1), BuildingBlock: XIVTED_clean_linker_0, # of connection points: 2
#     Edge 28, Type (0, 1), BuildingBlock: XIVTED_clean_linker_0, # of connection points: 2
#     Edge 29, Type (0, 1), BuildingBlock: XIVTED_clean_linker_0, # of connection points: 2
#     Edge 30, Type (0, 1), BuildingBlock: XIVTED_clean_linker_0, # of connection points: 2
#     Edge 31, Type (0, 1), BuildingBlock: XIVTED_clean_linker_0, # of connection points: 2
#     Edge 32, Type (0, 1), BuildingBlock: XIVTED_clean_linker_0, # of connection points: 2
#     Edge 33, Type (0, 1), BuildingBlock: XIVTED_clean_linker_0, # of connection points: 2
#     Edge 34, Type (0, 1), BuildingBlock: XIVTED_clean_linker_0, # of connection points: 2
#     Edge 35, Type (0, 1), BuildingBlock: XIVTED_clean_linker_0, # of connection points: 2
#     Edge 36, Type (0, 1), BuildingBlock: XIVTED_clean_linker_0, # of connection points: 2
#     Edge 37, Type (0, 1), BuildingBlock: XIVTED_clean_linker_0, # of connection points: 2
# Relax obj value: 0.000
# Max RMSD: 0.022
# Mean RMSD: 0.009
data_MOF--net-pto--node1-KOZSID_clean_sbu_0--node2-MIDCAF_clean_linker_0--edge1-XIVTED_clean_linker_0
_symmetry_space_group_name_H-M    P1
_symmetry_Int_Tables_number       1
_symmetry_cell_setting            triclinic
loop_
_symmetry_equiv_pos_as_xyz
'x, y, z'
_cell_length_a     46.707237
_cell_length_b     63.244495
_cell_length_c     55.075941
_cell_angle_alpha  87.520874
_cell_angle_beta   87.482684
_cell_angle_gamma 92.784264
loop_
_atom_site_label
_atom_site_type_symbol
_atom_site_fract_x
_atom_site_fract_y
_atom_site_fract_z
_atom_type_partial_charge
C0 C 0.33534 0.24068 0.23928 0.0
C1 C 0.34704 0.25967 0.22795 0.0
C2 C 0.34208 0.2789 0.23886 0.0
C3 C 0.32543 0.27917 0.26055 0.0
H4 H 0.26903 0.31666 0.29672 0.0
H5 H 0.24115 0.34723 0.30507 0.0
H6 H 0.20694 0.31617 0.37222 0.0
H7 H 0.23494 0.28547 0.36407 0.0
H8 H 0.25549 0.23676 0.37712 0.0
H9 H 0.24489 0.20355 0.40055 0.0
H10 H 0.26231 0.16879 0.33604 0.0
H11 H 0.27423 0.2019 0.31304 0.0
H12 H 0.31028 0.22596 0.26932 0.0
H13 H 0.33909 0.22561 0.23138 0.0
H14 H 0.35071 0.29378 0.23041 0.0
H15 H 0.32186 0.29427 0.26842 0.0
N16 N 0.28488 0.27862 0.30217 0.0
N17 N 0.26218 0.26043 0.3363 0.0
N18 N 0.28963 0.2421 0.30827 0.0
C19 C 0.26796 0.27881 0.32288 0.0
C20 C 0.27296 0.24203 0.32909 0.0
C21 C 0.29589 0.26035 0.29481 0.0
C22 C 0.25395 0.29842 0.32954 0.0
C23 C 0.25591 0.31636 0.31345 0.0
C24 C 0.23984 0.33389 0.31816 0.0
C25 C 0.22163 0.33395 0.33913 0.0
C26 C 0.22088 0.31657 0.35594 0.0
C27 C 0.23681 0.29893 0.35116 0.0
C28 C 0.26589 0.22195 0.34328 0.0
C29 C 0.25705 0.222 0.36798 0.0
C30 C 0.25077 0.20293 0.38137 0.0
C31 C 0.25276 0.18339 0.37025 0.0
C32 C 0.26113 0.18345 0.3454 0.0
C33 C 0.26785 0.20248 0.33214 0.0
C34 C 0.31373 0.26015 0.27193 0.0
C35 C 0.31901 0.2409 0.2611 0.0
C36 C 0.20992 0.68954 0.73153 0.0
C37 C 0.19933 0.68569 0.70859 0.0
C38 C 0.20637 0.70027 0.68905 0.0
C39 C 0.22302 0.71875 0.69259 0.0
H40 H 0.22558 0.78318 0.67094 0.0
H41 H 0.21737 0.81537 0.64688 0.0
H42 H 0.28093 0.84977 0.68651 0.0
H43 H 0.28878 0.81784 0.71088 0.0
H44 H 0.31027 0.79812 0.7585 0.0
H45 H 0.33818 0.80136 0.79447 0.0
H46 H 0.31982 0.73496 0.81357 0.0
H47 H 0.29131 0.73173 0.77785 0.0
H48 H 0.23453 0.71045 0.75297 0.0
H49 H 0.20491 0.67843 0.74682 0.0
H50 H 0.19832 0.69766 0.67122 0.0
H51 H 0.22769 0.72992 0.67729 0.0
N52 N 0.24742 0.76006 0.70455 0.0
N53 N 0.2781 0.77998 0.72832 0.0
N54 N 0.26637 0.74432 0.7393 0.0
C55 C 0.2615 0.77875 0.70876 0.0
C56 C 0.28074 0.76287 0.74364 0.0
C57 C 0.24978 0.74278 0.71973 0.0
C58 C 0.25772 0.7979 0.69299 0.0
C59 C 0.23792 0.79757 0.67447 0.0
C60 C 0.23327 0.81601 0.66059 0.0
C61 C 0.24832 0.83516 0.66492 0.0
C62 C 0.26856 0.83537 0.68305 0.0
C63 C 0.27319 0.81698 0.69693 0.0
C64 C 0.29842 0.76466 0.76523 0.0
C65 C 0.31216 0.78416 0.7703 0.0
C66 C 0.32833 0.78602 0.79089 0.0
C67 C 0.33121 0.76844 0.80691 0.0
C68 C 0.31768 0.7489 0.80178 0.0
C69 C 0.30146 0.74702 0.78119 0.0
C70 C 0.23334 0.72277 0.71563 0.0
C71 C 0.22698 0.70781 0.73498 0.0
C72 C 0.70437 0.74449 0.24266 0.0
C73 C 0.69228 0.76362 0.23571 0.0
C74 C 0.69772 0.78155 0.2493 0.0
C75 C 0.71516 0.78045 0.26924 0.0
H76 H 0.73886 0.81222 0.33039 0.0
H77 H 0.7469 0.84301 0.35456 0.0
H78 H 0.82347 0.81637 0.38166 0.0
H79 H 0.81484 0.78519 0.35815 0.0
H80 H 0.82819 0.73773 0.3456 0.0
H81 H 0.85476 0.70605 0.35239 0.0
H82 H 0.79268 0.67 0.31282 0.0
H83 H 0.76676 0.70186 0.30523 0.0
H84 H 0.73112 0.72844 0.26716 0.0
H85 H 0.70082 0.73044 0.2324 0.0
H86 H 0.68839 0.79644 0.24459 0.0
H87 H 0.71903 0.79464 0.27918 0.0
N88 N 0.7522 0.77774 0.30977 0.0
N89 N 0.78488 0.75931 0.33268 0.0
N90 N 0.76117 0.74257 0.30155 0.0
C91 C 0.77093 0.77728 0.32794 0.0
C92 C 0.78 0.74185 0.31964 0.0
C93 C 0.74725 0.76048 0.29643 0.0
C94 C 0.77616 0.79619 0.34235 0.0
C95 C 0.75745 0.81292 0.34147 0.0
C96 C 0.76217 0.83068 0.35524 0.0
C97 C 0.78589 0.83225 0.37005 0.0
C98 C 0.80473 0.81557 0.37078 0.0
C99 C 0.79985 0.79771 0.35718 0.0
C100 C 0.79544 0.72238 0.32474 0.0
C101 C 0.82014 0.72303 0.33842 0.0
C102 C 0.83531 0.7048 0.34245 0.0
C103 C 0.82596 0.68542 0.33311 0.0
C104 C 0.80087 0.68471 0.31988 0.0
C105 C 0.7859 0.70299 0.31562 0.0
C106 C 0.72767 0.7614 0.27598 0.0
C107 C 0.72189 0.74339 0.26254 0.0
C108 C 0.80516 0.21758 0.68016 0.0
C109 C 0.78777 0.19877 0.6829 0.0
C110 C 0.76366 0.19804 0.69919 0.0
C111 C 0.75735 0.21553 0.7127 0.0
H112 H 0.72396 0.22921 0.78141 0.0
H113 H 0.69264 0.22431 0.81805 0.0
H114 H 0.68988 0.29216 0.82261 0.0
H115 H 0.72118 0.29719 0.786 0.0
H116 H 0.78765 0.3199 0.76506 0.0
H117 H 0.81691 0.35272 0.75706 0.0
H118 H 0.83155 0.33665 0.68233 0.0
H119 H 0.80262 0.30359 0.69029 0.0
H120 H 0.81275 0.2493 0.69115 0.0
H121 H 0.82409 0.21864 0.66802 0.0
H122 H 0.74942 0.18399 0.70139 0.0
H123 H 0.73865 0.21434 0.72513 0.0
N124 N 0.75003 0.2501 0.74469 0.0
N125 N 0.75855 0.28575 0.75336 0.0
N126 N 0.78206 0.27183 0.71957 0.0
C127 C 0.74484 0.26662 0.75894 0.0
C128 C 0.77712 0.28849 0.73367 0.0
C129 C 0.76859 0.25258 0.72497 0.0
C130 C 0.72515 0.2636 0.78077 0.0
C131 C 0.7166 0.24311 0.79013 0.0
C132 C 0.6988 0.24027 0.81119 0.0
C133 C 0.68888 0.25785 0.82315 0.0
C134 C 0.69703 0.27833 0.81362 0.0
C135 C 0.7151 0.28118 0.79273 0.0
C136 C 0.79297 0.30909 0.72834 0.0
C137 C 0.79686 0.32343 0.74686 0.0
C138 C 0.81369 0.34215 0.74234 0.0
C139 C 0.82648 0.34709 0.71913 0.0
C140 C 0.82177 0.33319 0.70036 0.0
C141 C 0.80537 0.31425 0.70497 0.0
C142 C 0.77484 0.23428 0.71008 0.0
C143 C 0.7987 0.23516 0.69352 0.0
C144 C 0.67708 0.77884 0.79717 0.0
C145 C 0.68397 0.76772 0.8187 0.0
C146 C 0.70833 0.75544 0.81813 0.0
C147 C 0.72509 0.75414 0.79671 0.0
H148 H 0.7579 0.70669 0.74854 0.0
H149 H 0.78357 0.67494 0.74092 0.0
H150 H 0.84379 0.71149 0.69194 0.0
H151 H 0.8175 0.7431 0.69889 0.0
H152 H 0.80962 0.79385 0.6921 0.0
H153 H 0.81987 0.82625 0.66671 0.0
H154 H 0.73436 0.84605 0.68325 0.0
H155 H 0.72416 0.81387 0.70917 0.0
H156 H 0.68866 0.78681 0.75965 0.0
H157 H 0.65823 0.78811 0.7966 0.0
H158 H 0.71495 0.74709 0.83434 0.0
H159 H 0.7438 0.74467 0.797 0.0
N160 N 0.75162 0.74723 0.74884 0.0
N161 N 0.77469 0.76441 0.7143 0.0
N162 N 0.74136 0.78224 0.73794 0.0
C163 C 0.7702 0.74681 0.72923 0.0
C164 C 0.76027 0.78212 0.71848 0.0
C165 C 0.73716 0.76487 0.75329 0.0
C166 C 0.7857 0.72747 0.72441 0.0
C167 C 0.7766 0.70796 0.73611 0.0
C168 C 0.7914 0.68975 0.73181 0.0
C169 C 0.81586 0.69064 0.71589 0.0
C170 C 0.8248 0.71013 0.70402 0.0
C171 C 0.80981 0.72831 0.70814 0.0
C172 C 0.76608 0.80136 0.70259 0.0
C173 C 0.79297 0.80508 0.69027 0.0
C174 C 0.79892 0.82361 0.67588 0.0
C175 C 0.77788 0.83851 0.67314 0.0
C176 C 0.75085 0.83469 0.68509 0.0
C177 C 0.74509 0.81637 0.69994 0.0
C178 C 0.71842 0.76554 0.77546 0.0
C179 C 0.69435 0.77797 0.77587 0.0
C180 C 0.80784 0.20673 0.383 0.0
C181 C 0.79425 0.18707 0.3785 0.0
C182 C 0.7752 0.18589 0.3595 0.0
C183 C 0.7697 0.204 0.3454 0.0
H184 H 0.72705 0.22372 0.28624 0.0
H185 H 0.69835 0.22086 0.25065 0.0
H186 H 0.70718 0.28877 0.23761 0.0
H187 H 0.73644 0.29168 0.27288 0.0
H188 H 0.76877 0.31981 0.31494 0.0
H189 H 0.79448 0.35322 0.32231 0.0
H190 H 0.8622 0.3186 0.35428 0.0
H191 H 0.83578 0.2855 0.34811 0.0
H192 H 0.81326 0.2397 0.37292 0.0
H193 H 0.8229 0.2081 0.39732 0.0
H194 H 0.76411 0.17101 0.35579 0.0
H195 H 0.75475 0.20251 0.33102 0.0
N196 N 0.7588 0.2419 0.31681 0.0
N197 N 0.76644 0.27841 0.30806 0.0
N198 N 0.79032 0.26193 0.33971 0.0
C199 C 0.75331 0.25952 0.30315 0.0
C200 C 0.785 0.2797 0.32631 0.0
C201 C 0.77719 0.24299 0.33519 0.0
C202 C 0.73427 0.25793 0.2824 0.0
C203 C 0.7228 0.2381 0.27589 0.0
C204 C 0.70619 0.23644 0.25552 0.0
C205 C 0.70061 0.25457 0.2412 0.0
C206 C 0.71151 0.27445 0.24801 0.0
C207 C 0.72817 0.27612 0.26835 0.0
C208 C 0.80022 0.30004 0.33099 0.0
C209 C 0.78908 0.31942 0.32367 0.0
C210 C 0.80394 0.33857 0.32779 0.0
C211 C 0.83051 0.33873 0.33893 0.0
C212 C 0.84153 0.31925 0.3462 0.0
C213 C 0.82645 0.30018 0.34249 0.0
C214 C 0.78316 0.22371 0.34997 0.0
C215 C 0.80238 0.22483 0.3689 0.0
C216 C 0.25859 0.19316 0.69801 0.0
C217 C 0.24698 0.1957 0.67503 0.0
C218 C 0.24096 0.21609 0.66623 0.0
C219 C 0.2464 0.23364 0.68015 0.0
H220 H 0.2141 0.29213 0.69435 0.0
H221 H 0.18982 0.32461 0.68631 0.0
H222 H 0.24581 0.35752 0.73424 0.0
H223 H 0.26947 0.32479 0.74299 0.0
H224 H 0.28622 0.29076 0.78991 0.0
H225 H 0.31422 0.28733 0.82587 0.0
H226 H 0.35372 0.23284 0.79662 0.0
H227 H 0.32464 0.23574 0.76115 0.0
H228 H 0.2734 0.20827 0.72944 0.0
H229 H 0.26369 0.17762 0.7051 0.0
H230 H 0.23182 0.21844 0.64863 0.0
H231 H 0.24148 0.24914 0.67281 0.0
N232 N 0.25236 0.26852 0.712 0.0
N233 N 0.27367 0.28393 0.74513 0.0
N234 N 0.28064 0.24834 0.73735 0.0
C235 C 0.2571 0.28566 0.72556 0.0
C236 C 0.28555 0.26534 0.75111 0.0
C237 C 0.26404 0.24982 0.71777 0.0
C238 C 0.24359 0.30579 0.71949 0.0
C239 C 0.22139 0.3063 0.70309 0.0
C240 C 0.20756 0.32501 0.69832 0.0
C241 C 0.21577 0.34371 0.70967 0.0
C242 C 0.23856 0.34332 0.72553 0.0
C243 C 0.25222 0.32456 0.73047 0.0
C244 C 0.30318 0.26351 0.77268 0.0
C245 C 0.30091 0.27806 0.79113 0.0
C246 C 0.31713 0.27615 0.81173 0.0
C247 C 0.33637 0.25983 0.81422 0.0
C248 C 0.33878 0.24538 0.7956 0.0
C249 C 0.32222 0.24711 0.77516 0.0
C250 C 0.25828 0.23118 0.70306 0.0
C251 C 0.26434 0.21075 0.71183 0.0
C252 C 0.21598 0.68111 0.30941 0.0
C253 C 0.19719 0.67928 0.33012 0.0
C254 C 0.19437 0.69689 0.34458 0.0
C255 C 0.20974 0.71597 0.33833 0.0
H256 H 0.21288 0.77955 0.35312 0.0
H257 H 0.20726 0.80993 0.37846 0.0
H258 H 0.28372 0.84072 0.34356 0.0
H259 H 0.28948 0.81045 0.31818 0.0
H260 H 0.3124 0.7929 0.26867 0.0
H261 H 0.34296 0.79686 0.23169 0.0
H262 H 0.3156 0.73381 0.21241 0.0
H263 H 0.28464 0.72983 0.24925 0.0
H264 H 0.24543 0.70107 0.28693 0.0
H265 H 0.21836 0.6679 0.29772 0.0
H266 H 0.18035 0.69591 0.36083 0.0
H267 H 0.20692 0.72921 0.34989 0.0
N268 N 0.24087 0.75534 0.32447 0.0
N269 N 0.27332 0.7757 0.29834 0.0
N270 N 0.26212 0.74021 0.29045 0.0
C271 C 0.25538 0.77408 0.31846 0.0
C272 C 0.27676 0.75888 0.28418 0.0
C273 C 0.2442 0.73829 0.31062 0.0
C274 C 0.25168 0.79254 0.33366 0.0
C275 C 0.22851 0.79278 0.35083 0.0
C276 C 0.22515 0.81022 0.36523 0.0
C277 C 0.24508 0.8276 0.36296 0.0
C278 C 0.26819 0.82741 0.3458 0.0
C279 C 0.27137 0.81012 0.33119 0.0
C280 C 0.29595 0.76105 0.26197 0.0
C281 C 0.31284 0.77983 0.25661 0.0
C282 C 0.33052 0.78209 0.23546 0.0
C283 C 0.33165 0.76567 0.21913 0.0
C284 C 0.31491 0.74685 0.22451 0.0
C285 C 0.29731 0.74453 0.24572 0.0
C286 C 0.2283 0.7179 0.31745 0.0
C287 C 0.23136 0.7002 0.30313 0.0
C288 C 0.06068 0.53642 0.37586 0.0
C289 C 0.06996 0.54209 0.39839 0.0
C290 C 0.05381 0.52994 0.41543 0.0
C291 C 0.03578 0.51755 0.40238 0.0
N292 N 0.03951 0.52095 0.37801 0.0
Co293 Co 0.01806 0.50626 0.35225 0.0
N294 N 0.99276 0.48962 0.37738 0.0
C295 C 0.99315 0.49095 0.40183 0.0
C296 C 0.97247 0.47824 0.41438 0.0
C297 C 0.95805 0.46807 0.39695 0.0
C298 C 0.97104 0.47504 0.37466 0.0
N299 N 0.99701 0.49125 0.32647 0.0
C300 C 0.97583 0.47574 0.3286 0.0
C301 C 0.96861 0.46868 0.306 0.0
C302 C 0.98547 0.48032 0.28902 0.0
C303 C 0.00219 0.4936 0.3021 0.0
N304 N 0.04292 0.5233 0.32709 0.0
C305 C 0.04183 0.52262 0.30261 0.0
C306 C 0.06074 0.53676 0.29005 0.0
C307 C 0.0746 0.5473 0.3075 0.0
C308 C 0.06339 0.53883 0.32982 0.0
N309 N 0.04604 0.48359 0.3527 0.0
C310 C 0.08398 0.45023 0.35251 0.0
C311 C 0.07823 0.46145 0.33104 0.0
C312 C 0.05936 0.47781 0.33153 0.0
C313 C 0.07096 0.45636 0.37425 0.0
C314 C 0.05225 0.47299 0.37394 0.0
N315 N 0.99011 0.52888 0.35178 0.0
C316 C 0.96169 0.55315 0.32925 0.0
C317 C 0.95105 0.56148 0.35073 0.0
C318 C 0.96029 0.55313 0.37279 0.0
C319 C 0.97973 0.53701 0.37289 0.0
C320 C 0.98086 0.53696 0.33019 0.0
H321 H 0.98609 0.53141 0.39026 0.0
H322 H 0.98804 0.53135 0.31317 0.0
H323 H 0.05584 0.48543 0.31446 0.0
H324 H 0.04287 0.47682 0.39106 0.0
C325 C 0.01378 0.50377 0.41249 0.0
C326 C 0.0722 0.54655 0.35303 0.0
C327 C 0.9624 0.46693 0.35153 0.0
C328 C 0.02286 0.50846 0.29196 0.0
H329 H 0.08643 0.554 0.4021 0.0
H330 H 0.05466 0.53043 0.43501 0.0
H331 H 0.96851 0.47645 0.43389 0.0
H332 H 0.94013 0.45666 0.4003 0.0
H333 H 0.953 0.45626 0.30205 0.0
H334 H 0.98569 0.4791 0.26947 0.0
H335 H 0.06387 0.53925 0.27052 0.0
H336 H 0.09089 0.55996 0.30413 0.0
H337 H 0.0883 0.4577 0.31376 0.0
H338 H 0.07466 0.44812 0.39139 0.0
H339 H 0.95568 0.55929 0.31164 0.0
H340 H 0.95245 0.55883 0.38998 0.0
C341 C 0.05793 0.54691 0.71778 0.0
C342 C 0.06916 0.55201 0.73986 0.0
C343 C 0.054 0.5398 0.75745 0.0
C344 C 0.03472 0.52781 0.74517 0.0
N345 N 0.03671 0.53153 0.72076 0.0
Co346 Co 0.01428 0.51643 0.69593 0.0
N347 N 0.99041 0.49978 0.72196 0.0
C348 C 0.99117 0.50194 0.74627 0.0
C349 C 0.97107 0.48926 0.75956 0.0
C350 C 0.95666 0.47825 0.74277 0.0
C351 C 0.96914 0.48469 0.72011 0.0
N352 N 0.99277 0.5005 0.67114 0.0
C353 C 0.97274 0.48422 0.67414 0.0
C354 C 0.96504 0.47655 0.65195 0.0
C355 C 0.98056 0.48849 0.63434 0.0
C356 C 0.99701 0.50255 0.64668 0.0
N357 N 0.0372 0.53392 0.66995 0.0
C358 C 0.03441 0.53329 0.64565 0.0
C359 C 0.05149 0.54819 0.63237 0.0
C360 C 0.06587 0.55919 0.64919 0.0
C361 C 0.05691 0.55016 0.67186 0.0
N362 N 0.04318 0.49448 0.69568 0.0
C363 C 0.08537 0.46413 0.69598 0.0
C364 C 0.07887 0.47485 0.67436 0.0
C365 C 0.0578 0.48981 0.6746 0.0
C366 C 0.07003 0.46861 0.71732 0.0
C367 C 0.04929 0.48369 0.71677 0.0
N368 N 0.98543 0.53839 0.69627 0.0
C369 C 0.95177 0.55993 0.67564 0.0
C370 C 0.94428 0.56948 0.69727 0.0
C371 C 0.95793 0.5633 0.71829 0.0
C372 C 0.97815 0.54787 0.71741 0.0
C373 C 0.97228 0.54456 0.67554 0.0
H374 H 0.98769 0.54397 0.7341 0.0
H375 H 0.97711 0.53789 0.65849 0.0
H376 H 0.05383 0.49743 0.65754 0.0
H377 H 0.03851 0.48629 0.7337 0.0
C378 C 0.01268 0.51453 0.75614 0.0
C379 C 0.06722 0.55782 0.69469 0.0
C380 C 0.96091 0.47529 0.69755 0.0
C381 C 0.01602 0.51822 0.63584 0.0
H382 H 0.08616 0.56368 0.74299 0.0
H383 H 0.05624 0.54005 0.77691 0.0
H384 H 0.96776 0.48781 0.77915 0.0
H385 H 0.93931 0.46649 0.7468 0.0
H386 H 0.94995 0.46357 0.64874 0.0
H387 H 0.98003 0.48702 0.61485 0.0
H388 H 0.05313 0.55084 0.6128 0.0
H389 H 0.08103 0.57248 0.64513 0.0
H390 H 0.09023 0.47198 0.65734 0.0
H391 H 0.07374 0.46036 0.73445 0.0
H392 H 0.94167 0.5641 0.65888 0.0
H393 H 0.95338 0.57055 0.73541 0.0
C394 C 0.25349 0.97979 0.5572 0.0
C395 C 0.27991 0.97337 0.5645 0.0
C396 C 0.30029 0.98547 0.55107 0.0
C397 C 0.28522 0.99848 0.53636 0.0
N398 N 0.25639 0.99569 0.53984 0.0
Co399 Co 0.22633 0.01026 0.52134 0.0
N400 N 0.25638 0.02718 0.50051 0.0
C401 C 0.28522 0.02679 0.50208 0.0
C402 C 0.30033 0.04107 0.48646 0.0
C403 C 0.28001 0.05139 0.47429 0.0
C404 C 0.25349 0.04262 0.48308 0.0
N405 N 0.1963 0.02448 0.5025 0.0
C406 C 0.19913 0.03971 0.48435 0.0
C407 C 0.17269 0.04501 0.47597 0.0
C408 C 0.15239 0.03302 0.48963 0.0
C409 C 0.16751 0.02102 0.5054 0.0
N410 N 0.19633 0.99368 0.5425 0.0
C411 C 0.16753 0.99491 0.54194 0.0
C412 C 0.1525 0.98129 0.55844 0.0
C413 C 0.17289 0.97051 0.57008 0.0
C414 C 0.19925 0.97821 0.55987 0.0
N415 N 0.22626 0.03333 0.54462 0.0
C416 C 0.227 0.06852 0.5741 0.0
C417 C 0.20106 0.05911 0.56742 0.0
C418 C 0.20118 0.04168 0.55266 0.0
C419 C 0.25242 0.05956 0.56668 0.0
C420 C 0.25155 0.04201 0.55228 0.0
N421 N 0.22647 0.98722 0.49805 0.0
C422 C 0.20172 0.95896 0.47788 0.0
C423 C 0.22764 0.95256 0.46766 0.0
C424 C 0.25277 0.96428 0.47227 0.0
C425 C 0.25172 0.9813 0.48743 0.0
C426 C 0.20162 0.97629 0.49278 0.0
H427 H 0.27171 0.98925 0.49047 0.0
H428 H 0.18123 0.98032 0.50012 0.0
H429 H 0.18079 0.03548 0.54765 0.0
H430 H 0.27169 0.03599 0.54733 0.0
C431 C 0.2975 0.0131 0.51877 0.0
C432 C 0.22632 0.96962 0.56643 0.0
C433 C 0.2262 0.05005 0.47498 0.0
C434 C 0.15526 0.00749 0.52414 0.0
H435 H 0.28403 0.96094 0.57783 0.0
H436 H 0.32335 0.9846 0.5516 0.0
H437 H 0.32337 0.04392 0.48448 0.0
H438 H 0.28439 0.06421 0.46081 0.0
H439 H 0.16851 0.05662 0.46171 0.0
H440 H 0.12933 0.03336 0.48858 0.0
H441 H 0.12944 0.97893 0.56109 0.0
H442 H 0.16885 0.95802 0.58404 0.0
H443 H 0.18083 0.06557 0.5729 0.0
H444 H 0.273 0.06612 0.57191 0.0
H445 H 0.18164 0.95038 0.47492 0.0
H446 H 0.27333 0.96037 0.46427 0.0
C447 C 0.46892 0.79583 0.05496 0.0
C448 C 0.45964 0.81546 0.0613 0.0
C449 C 0.47633 0.83032 0.04781 0.0
C450 C 0.49462 0.81896 0.03396 0.0
N451 N 0.49054 0.79772 0.03767 0.0
Co452 Co 0.51191 0.77532 0.02089 0.0
N453 N 0.53779 0.79721 0.0024 0.0
C454 C 0.53843 0.81842 0.00481 0.0
C455 C 0.55907 0.82934 0.99015 0.0
C456 C 0.57221 0.81424 0.9774 0.0
C457 C 0.55853 0.79491 0.98487 0.0
N458 N 0.53254 0.75295 0.00334 0.0
C459 C 0.55246 0.75492 0.98459 0.0
C460 C 0.55886 0.73527 0.97595 0.0
C461 C 0.5427 0.72043 0.98982 0.0
C462 C 0.52709 0.73173 0.00585 0.0
N463 N 0.48671 0.7534 0.04008 0.0
C464 C 0.48802 0.7321 0.03949 0.0
C465 C 0.46919 0.72109 0.05571 0.0
C466 C 0.45518 0.73625 0.06765 0.0
C467 C 0.4662 0.75572 0.05782 0.0
N468 N 0.4843 0.77614 0.99458 0.0
C469 C 0.44726 0.77676 0.95562 0.0
C470 C 0.45172 0.75791 0.96872 0.0
C471 C 0.47016 0.75796 0.98794 0.0
C472 C 0.46125 0.79539 0.96262 0.0
C473 C 0.47942 0.79475 0.98209 0.0
N474 N 0.53953 0.77448 0.04728 0.0
C475 C 0.56762 0.75448 0.07515 0.0
C476 C 0.57541 0.77278 0.08709 0.0
C477 C 0.56563 0.79205 0.07828 0.0
C478 C 0.54796 0.79253 0.05849 0.0
C479 C 0.54988 0.75568 0.05546 0.0
H480 H 0.54105 0.80769 0.05287 0.0
H481 H 0.54463 0.74113 0.04734 0.0
H482 H 0.4729 0.74301 0.99693 0.0
H483 H 0.48946 0.80947 0.98657 0.0
C484 C 0.51751 0.82774 0.01908 0.0
C485 C 0.45718 0.77592 0.06648 0.0
C486 C 0.56504 0.77501 0.97391 0.0
C487 C 0.50671 0.72289 0.0231 0.0
H488 H 0.44291 0.81869 0.07465 0.0
H489 H 0.47575 0.84737 0.04854 0.0
H490 H 0.5634 0.84632 0.98835 0.0
H491 H 0.58941 0.81718 0.96368 0.0
H492 H 0.57322 0.73187 0.96086 0.0
H493 H 0.54189 0.70343 0.98804 0.0
H494 H 0.46615 0.70408 0.05863 0.0
H495 H 0.43893 0.73324 0.08215 0.0
H496 H 0.44159 0.74302 0.96381 0.0
H497 H 0.45813 0.81043 0.9532 0.0
H498 H 0.57516 0.73922 0.08094 0.0
H499 H 0.57094 0.80668 0.08697 0.0
C500 C 0.83602 0.98379 0.56427 0.0
C501 C 0.86217 0.97728 0.57216 0.0
C502 C 0.88299 0.98958 0.55947 0.0
C503 C 0.86851 0.00279 0.54453 0.0
N504 N 0.83963 -0.0002 0.54705 0.0
Co505 Co 0.81043 0.01507 0.52828 0.0
N506 N 0.84117 0.03083 0.50712 0.0
C507 C 0.86981 0.02869 0.50768 0.0
C508 C 0.88552 0.04157 0.49085 0.0
C509 C 0.86575 0.05271 0.47887 0.0
C510 C 0.83904 0.04595 0.4892 0.0
N511 N 0.78121 0.0309 0.51017 0.0
C512 C 0.78489 0.0465 0.49253 0.0
C513 C 0.75886 0.05388 0.48546 0.0
C514 C 0.73796 0.04275 0.49939 0.0
C515 C 0.75236 0.02928 0.51408 0.0
N516 N 0.77963 -0.00133 0.54872 0.0
C517 C 0.75091 0.00015 0.54752 0.0
C518 C 0.73518 0.98652 0.56352 0.0
C519 C 0.75499 0.9753 0.5753 0.0
C520 C 0.78177 0.98272 0.56563 0.0
N521 N 0.81167 0.03786 0.552 0.0
C522 C 0.8127 0.07131 0.5841 0.0
C523 C 0.78714 0.06 0.58001 0.0
C524 C 0.78707 0.04359 0.56393 0.0
C525 C 0.83786 0.0655 0.57213 0.0
C526 C 0.83692 0.04869 0.55647 0.0
N527 N 0.80917 0.99235 0.50462 0.0
C528 C 0.78219 0.96928 0.47914 0.0
C529 C 0.80687 0.95892 0.47257 0.0
C530 C 0.83281 0.96572 0.48201 0.0
C531 C 0.83352 0.98245 0.49774 0.0
C532 C 0.78378 0.98575 0.49515 0.0
H533 H 0.85396 0.987 0.50422 0.0
H534 H 0.76411 0.99271 0.49982 0.0
H535 H 0.76673 0.03602 0.56129 0.0
H536 H 0.85688 0.0449 0.54809 0.0
C537 C 0.88137 0.01594 0.52572 0.0
C538 C 0.80844 0.97346 0.57239 0.0
C539 C 0.81248 0.05519 0.48233 0.0
C540 C 0.73937 0.01468 0.53137 0.0
H541 H 0.86597 0.96449 0.58509 0.0
H542 H 0.90597 0.98831 0.56017 0.0
H543 H 0.90863 0.04317 0.48815 0.0
H544 H 0.87047 0.06482 0.46457 0.0
H545 H 0.75538 0.06618 0.47177 0.0
H546 H 0.71502 0.04434 0.49893 0.0
H547 H 0.71206 0.98481 0.56614 0.0
H548 H 0.75025 0.96283 0.58918 0.0
H549 H 0.76705 0.06415 0.58871 0.0
H550 H 0.85821 0.07378 0.57497 0.0
H551 H 0.76156 0.96438 0.47243 0.0
H552 H 0.85253 0.95826 0.47717 0.0
C553 C 0.47777 0.27089 0.06017 0.0
C554 C 0.46928 0.29096 0.06556 0.0
C555 C 0.4867 0.30508 0.05167 0.0
C556 C 0.50458 0.29288 0.03849 0.0
N557 N 0.49944 0.27179 0.04294 0.0
Co558 Co 0.51976 0.24835 0.02724 0.0
N559 N 0.54715 0.26914 0.00863 0.0
C560 C 0.54888 0.29045 0.01029 0.0
C561 C 0.57017 0.30045 0.99548 0.0
C562 C 0.58254 0.28463 0.98337 0.0
C563 C 0.5678 0.26585 0.99139 0.0
N564 N 0.53952 0.22497 0.01082 0.0
C565 C 0.55993 0.22599 0.99245 0.0
C566 C 0.56609 0.20598 0.9849 0.0
C567 C 0.54888 0.19181 0.9989 0.0
C568 C 0.53311 0.20392 0.01399 0.0
N569 N 0.49296 0.22755 0.04657 0.0
C570 C 0.49281 0.20615 0.04634 0.0
C571 C 0.47334 0.19602 0.06274 0.0
C572 C 0.46051 0.21186 0.07443 0.0
C573 C 0.47279 0.23085 0.06428 0.0
N574 N 0.49288 0.24949 0.00037 0.0
C575 C 0.45603 0.2511 0.96119 0.0
C576 C 0.4591 0.23218 0.97469 0.0
C577 C 0.47758 0.23171 0.99396 0.0
C578 C 0.47165 0.26919 0.96779 0.0
C579 C 0.48957 0.26807 0.98733 0.0
N580 N 0.54664 0.24725 0.05413 0.0
C581 C 0.57304 0.22733 0.08338 0.0
C582 C 0.58314 0.24599 0.09347 0.0
C583 C 0.57488 0.26525 0.08342 0.0
C584 C 0.55676 0.26552 0.064 0.0
C585 C 0.55507 0.22832 0.06377 0.0
H586 H 0.55099 0.28072 0.05751 0.0
H587 H 0.54816 0.21357 0.05685 0.0
H588 H 0.4792 0.21675 0.00332 0.0
H589 H 0.50073 0.28247 0.99134 0.0
C590 C 0.52815 0.30074 0.02376 0.0
C591 C 0.46552 0.25156 0.07275 0.0
C592 C 0.57286 0.24555 0.98086 0.0
C593 C 0.51153 0.19604 0.03075 0.0
H594 H 0.45268 0.29499 0.07865 0.0
H595 H 0.48694 0.32219 0.05178 0.0
H596 H 0.57532 0.31731 0.99304 0.0
H597 H 0.5998 0.28673 0.96958 0.0
H598 H 0.58097 0.20198 0.97042 0.0
H599 H 0.54748 0.17475 0.99776 0.0
H600 H 0.46936 0.17912 0.06612 0.0
H601 H 0.44434 0.20957 0.0891 0.0
H602 H 0.44719 0.21775 0.97059 0.0
H603 H 0.47055 0.28419 0.95771 0.0
H604 H 0.57913 0.21202 0.09044 0.0
H605 H 0.58183 0.28013 0.09085 0.0
H606 H 0.20952 0.35553 0.38039 0.0
H607 H 0.08715 0.42017 0.31845 0.0
H608 H 0.18815 0.35141 0.30526 0.0
H609 H 0.12426 0.43888 0.38518 0.0
H610 H 0.12053 0.39193 0.31594 0.0
H611 H 0.1751 0.38345 0.38495 0.0
C612 C 0.19761 0.36053 0.36489 0.0
C613 C 0.20181 0.35129 0.34236 0.0
C614 C 0.12144 0.40221 0.33114 0.0
C615 C 0.16242 0.38288 0.34749 0.0
C616 C 0.10244 0.41843 0.33254 0.0
C617 C 0.10315 0.43218 0.35187 0.0
C618 C 0.14127 0.3995 0.34928 0.0
C619 C 0.12288 0.42864 0.36999 0.0
C620 C 0.1781 0.37646 0.36748 0.0
C621 C 0.18592 0.35833 0.32284 0.0
N622 N 0.14125 0.41266 0.36822 0.0
N623 N 0.16688 0.37362 0.32589 0.0
H624 H 0.20348 0.6563 0.67369 0.0
H625 H 0.05455 0.59516 0.71416 0.0
H626 H 0.15129 0.67264 0.73598 0.0
H627 H 0.12237 0.56455 0.67601 0.0
H628 H 0.08662 0.62678 0.71681 0.0
H629 H 0.1708 0.62526 0.66886 0.0
C630 C 0.18509 0.65335 0.68627 0.0
C631 C 0.18005 0.6669 0.70533 0.0
C632 C 0.09445 0.61318 0.70776 0.0
C633 C 0.14266 0.63184 0.69977 0.0
C634 C 0.07618 0.59526 0.70619 0.0
C635 C 0.08598 0.57743 0.69482 0.0
C636 C 0.12256 0.61331 0.69761 0.0
C637 C 0.11412 0.57815 0.68477 0.0
C638 C 0.16659 0.63566 0.68358 0.0
C639 C 0.15604 0.66242 0.72122 0.0
N640 N 0.13149 0.59588 0.68632 0.0
N641 N 0.13812 0.64532 0.71801 0.0
H642 H 0.8355 0.65439 0.30079 0.0
H643 H 0.94836 0.59552 0.38009 0.0
H644 H 0.85501 0.67256 0.37319 0.0
H645 H 0.90758 0.56739 0.31953 0.0
H646 H 0.91631 0.62483 0.37708 0.0
H647 H 0.86393 0.62341 0.30634 0.0
C648 C 0.84546 0.65179 0.31797 0.0
C649 C 0.84273 0.66619 0.33656 0.0
C650 C 0.91432 0.61216 0.36455 0.0
C651 C 0.87597 0.63087 0.34278 0.0
C652 C 0.93251 0.59534 0.36632 0.0
C653 C 0.93085 0.57895 0.34994 0.0
C654 C 0.8945 0.61272 0.34613 0.0
C655 C 0.91013 0.57985 0.33223 0.0
C656 C 0.86186 0.63412 0.32106 0.0
C657 C 0.85683 0.66214 0.35819 0.0
N658 N 0.89293 0.5965 0.3307 0.0
N659 N 0.87295 0.64492 0.36065 0.0
H660 H 0.82523 0.37817 0.68303 0.0
H661 H 0.97179 0.43667 0.71757 0.0
H662 H 0.87199 0.35902 0.74541 0.0
H663 H 0.90677 0.47002 0.68081 0.0
H664 H 0.939 0.40512 0.72217 0.0
H665 H 0.85846 0.40947 0.67635 0.0
C666 C 0.84252 0.38059 0.69525 0.0
C667 C 0.8459 0.36616 0.71486 0.0
C668 C 0.93196 0.41931 0.713 0.0
C669 C 0.88394 0.40146 0.70717 0.0
C670 C 0.95063 0.4372 0.71032 0.0
C671 C 0.94181 0.45579 0.69879 0.0
C672 C 0.90446 0.41998 0.70379 0.0
C673 C 0.91427 0.45585 0.68967 0.0
C674 C 0.86133 0.3984 0.6915 0.0
C675 C 0.86854 0.36993 0.73025 0.0
N676 N 0.8965 0.43814 0.69228 0.0
N677 N 0.88684 0.38715 0.72598 0.0
H678 H 0.27943 0.14589 0.36564 0.0
H679 H 0.20717 0.0888 0.48527 0.0
H680 H 0.21236 0.17429 0.40773 0.0
H681 H 0.24503 0.0543 0.42733 0.0
H682 H 0.21095 0.1211 0.45865 0.0
H683 H 0.26962 0.11283 0.38953 0.0
C684 C 0.26241 0.14518 0.37968 0.0
C685 C 0.24668 0.16303 0.38456 0.0
C686 C 0.21818 0.10643 0.45169 0.0
C687 C 0.2359 0.12521 0.41244 0.0
C688 C 0.21601 0.08809 0.46682 0.0
C689 C 0.22606 0.06912 0.45838 0.0
C690 C 0.23086 0.10572 0.42816 0.0
C691 C 0.23732 0.06879 0.43442 0.0
C692 C 0.25693 0.12628 0.3934 0.0
C693 C 0.22541 0.16114 0.40352 0.0
N694 N 0.23978 0.08692 0.4202 0.0
N695 N 0.22079 0.14261 0.41688 0.0
H696 H 0.38248 0.7907 0.81133 0.0
H697 H 0.39536 0.75542 0.95157 0.0
H698 H 0.31845 0.75098 0.85278 0.0
H699 H 0.45712 0.79795 0.91137 0.0
H700 H 0.36661 0.75395 0.91565 0.0
H701 H 0.4098 0.79399 0.84789 0.0
C702 C 0.37407 0.78277 0.82815 0.0
C703 C 0.34812 0.77052 0.82896 0.0
C704 C 0.38639 0.76367 0.91469 0.0
C705 C 0.37947 0.77405 0.87086 0.0
C706 C 0.40287 0.76445 0.93516 0.0
C707 C 0.42874 0.77676 0.93443 0.0
C708 C 0.39588 0.77521 0.89324 0.0
C709 C 0.43719 0.78841 0.91281 0.0
C710 C 0.38975 0.78458 0.84901 0.0
C711 C 0.33853 0.76033 0.8512 0.0
N712 N 0.42088 0.78726 0.89304 0.0
N713 N 0.35421 0.76232 0.87124 0.0
H714 H 0.80599 0.8337 0.41616 0.0
H715 H 0.77908 0.95613 0.43007 0.0
H716 H 0.77681 0.87391 0.35782 0.0
H717 H 0.83099 0.9206 0.47847 0.0
H718 H 0.77517 0.92552 0.40449 0.0
H719 H 0.81294 0.86482 0.44034 0.0
C720 C 0.80128 0.84906 0.4083 0.0
C721 C 0.79074 0.85111 0.38485 0.0
C722 C 0.78755 0.92446 0.42063 0.0
C723 C 0.79814 0.88677 0.41273 0.0
C724 C 0.78966 0.94187 0.43527 0.0
C725 C 0.80535 0.94085 0.45639 0.0
C726 C 0.80093 0.90581 0.42734 0.0
C727 C 0.81888 0.92208 0.46221 0.0
C728 C 0.80513 0.86681 0.4222 0.0
C729 C 0.78448 0.87144 0.37593 0.0
N730 N 0.81619 0.90523 0.44785 0.0
N731 N 0.78815 0.88845 0.38991 0.0
H732 H 0.63975 0.27766 0.83492 0.0
H733 H 0.62544 0.22961 0.97155 0.0
H734 H 0.69632 0.2314 0.86276 0.0
H735 H 0.55753 0.26146 0.93701 0.0
H736 H 0.65309 0.23129 0.93246 0.0
H737 H 0.61058 0.27344 0.87297 0.0
C738 C 0.64601 0.26663 0.84908 0.0
C739 C 0.67048 0.25489 0.84575 0.0
C740 C 0.63204 0.23775 0.93338 0.0
C741 C 0.6373 0.24998 0.88928 0.0
C742 C 0.61633 0.23674 0.95559 0.0
C743 C 0.58923 0.24524 0.95721 0.0
C744 C 0.62067 0.24765 0.91285 0.0
C745 C 0.57837 0.25466 0.93629 0.0
C746 C 0.62929 0.26413 0.87071 0.0
C747 C 0.67748 0.24063 0.86455 0.0
N748 N 0.5942 0.25572 0.91495 0.0
N749 N 0.66108 0.23868 0.8856 0.0
H750 H 0.2441 0.87505 0.68175 0.0
H751 H 0.22068 0.92966 0.55064 0.0
H752 H 0.2397 0.8404 0.61606 0.0
H753 H 0.2324 0.96448 0.61522 0.0
H754 H 0.22381 0.89637 0.57482 0.0
H755 H 0.2365 0.90768 0.65818 0.0
C756 C 0.24166 0.87431 0.66233 0.0
C757 C 0.24278 0.85497 0.65083 0.0
C758 C 0.22556 0.91126 0.58377 0.0
C759 C 0.23369 0.89228 0.62376 0.0
C760 C 0.2237 0.93014 0.57001 0.0
C761 C 0.22634 0.94955 0.58116 0.0
C762 C 0.2301 0.91193 0.6088 0.0
C763 C 0.23029 0.94967 0.60617 0.0
C764 C 0.23714 0.89294 0.64891 0.0
C765 C 0.2388 0.85492 0.62571 0.0
N766 N 0.23215 0.93109 0.6192 0.0
N767 N 0.23455 0.87331 0.613 0.0
H768 H 0.65091 0.73487 0.22202 0.0
H769 H 0.61876 0.80063 0.09953 0.0
H770 H 0.69321 0.7953 0.2001 0.0
H771 H 0.57219 0.74251 0.12438 0.0
H772 H 0.64683 0.79872 0.13589 0.0
H773 H 0.62264 0.737 0.18579 0.0
C774 C 0.65431 0.74856 0.20954 0.0
C775 C 0.67447 0.76493 0.21409 0.0
C776 C 0.63048 0.78638 0.13337 0.0
C777 C 0.64206 0.76755 0.17264 0.0
C778 C 0.61435 0.78751 0.11266 0.0
C779 C 0.59308 0.7717 0.10884 0.0
C780 C 0.62534 0.76931 0.15042 0.0
C781 C 0.58864 0.7549 0.12634 0.0
C782 C 0.63806 0.74982 0.18892 0.0
C783 C 0.67768 0.78244 0.19746 0.0
N784 N 0.60461 0.75415 0.14635 0.0
N785 N 0.6617 0.78326 0.17745 0.0
H786 H 0.80903 0.19776 0.6356 0.0
H787 H 0.7874 0.07266 0.62957 0.0
H788 H 0.7823 0.1568 0.69812 0.0
H789 H 0.83753 0.11108 0.57505 0.0
H790 H 0.78397 0.10356 0.65454 0.0
H791 H 0.81862 0.16649 0.61262 0.0
C792 C 0.80543 0.18223 0.64461 0.0
C793 C 0.79463 0.17997 0.66885 0.0
C794 C 0.79594 0.10521 0.63722 0.0
C795 C 0.80513 0.1441 0.64243 0.0
C796 C 0.79781 0.08762 0.62295 0.0
C797 C 0.81267 0.0894 0.60023 0.0
C798 C 0.80868 0.12481 0.62853 0.0
C799 C 0.826 0.10906 0.59255 0.0
C800 C 0.81082 0.16439 0.63142 0.0
C801 C 0.78999 0.15937 0.67935 0.0
N802 N 0.82344 0.12609 0.60657 0.0
N803 N 0.79507 0.14226 0.66604 0.0
H804 H 0.3987 0.28057 0.21587 0.0
H805 H 0.40838 0.2406 0.08008 0.0
H806 H 0.33468 0.23804 0.18748 0.0
H807 H 0.48144 0.26639 0.11602 0.0
H808 H 0.37886 0.24308 0.11778 0.0
H809 H 0.42731 0.27928 0.17766 0.0
C810 C 0.39062 0.27106 0.20152 0.0
C811 C 0.36436 0.25935 0.20481 0.0
C812 C 0.40136 0.24816 0.11744 0.0
C813 C 0.39687 0.25779 0.16117 0.0
C814 C 0.41809 0.24674 0.09601 0.0
C815 C 0.44726 0.2531 0.09525 0.0
C816 C 0.41388 0.2563 0.13805 0.0
C817 C 0.45898 0.26123 0.1161 0.0
C818 C 0.407 0.27023 0.17981 0.0
C819 C 0.35497 0.24713 0.18575 0.0
N820 N 0.44223 0.26264 0.1367 0.0
N821 N 0.37118 0.24672 0.1647 0.0
H822 H 0.82725 0.65959 0.74989 0.0
H823 H 0.9363 0.60157 0.66331 0.0
H824 H 0.84269 0.67802 0.67382 0.0
H825 H 0.9032 0.57509 0.73312 0.0
H826 H 0.9028 0.62996 0.6666 0.0
H827 H 0.8558 0.62888 0.7441 0.0
C828 C 0.83634 0.65708 0.73188 0.0
C829 C 0.83249 0.67148 0.71231 0.0
C830 C 0.90278 0.61784 0.68111 0.0
C831 C 0.86584 0.63645 0.7057 0.0
C832 C 0.92179 0.60156 0.67919 0.0
C833 C 0.92279 0.58601 0.69808 0.0
C834 C 0.88477 0.61863 0.70212 0.0
C835 C 0.90367 0.58698 0.71836 0.0
C836 C 0.8528 0.63956 0.72863 0.0
C837 C 0.84543 0.66756 0.68953 0.0
N838 N 0.88563 0.60309 0.71991 0.0
N839 N 0.86166 0.65048 0.68688 0.0
H840 H 0.83426 0.37508 0.30923 0.0
H841 H 0.96808 0.42695 0.37039 0.0
H842 H 0.86511 0.3488 0.3764 0.0
H843 H 0.90921 0.46551 0.33255 0.0
H844 H 0.93371 0.39645 0.36924 0.0
H845 H 0.8642 0.40723 0.31407 0.0
C846 C 0.84697 0.37607 0.32515 0.0
C847 C 0.8472 0.35898 0.34234 0.0
C848 C 0.92826 0.41162 0.36132 0.0
C849 C 0.88215 0.39556 0.34746 0.0
C850 C 0.94781 0.42893 0.36194 0.0
C851 C 0.94133 0.44859 0.35146 0.0
C852 C 0.90238 0.41396 0.34969 0.0
C853 C 0.91491 0.45048 0.34064 0.0
C854 C 0.86417 0.39442 0.32778 0.0
C855 C 0.86469 0.36123 0.36231 0.0
N856 N 0.89645 0.43327 0.33975 0.0
N857 N 0.8817 0.37905 0.36416 0.0
H858 H 0.19316 0.35924 0.66754 0.0
H859 H 0.12453 0.45755 0.73076 0.0
H860 H 0.2014 0.37262 0.74324 0.0
H861 H 0.09736 0.43453 0.66233 0.0
H862 H 0.15872 0.42969 0.73293 0.0
H863 H 0.16366 0.38992 0.66281 0.0
C864 C 0.18883 0.3686 0.68317 0.0
C865 C 0.19969 0.3632 0.70588 0.0
C866 C 0.14534 0.43078 0.7174 0.0
C867 C 0.16633 0.39851 0.70043 0.0
C868 C 0.1257 0.44662 0.71619 0.0
C869 C 0.10773 0.44823 0.69648 0.0
C870 C 0.14722 0.41645 0.69871 0.0
C871 C 0.11084 0.43396 0.67781 0.0
C872 C 0.1721 0.38616 0.6804 0.0
C873 C 0.19385 0.37625 0.72531 0.0
N874 N 0.1301 0.41858 0.67944 0.0
N875 N 0.17751 0.39323 0.72215 0.0
H876 H 0.21437 0.63849 0.32804 0.0
H877 H 0.05761 0.58628 0.36345 0.0
H878 H 0.14079 0.67451 0.34604 0.0
H879 H 0.12995 0.55018 0.34296 0.0
H880 H 0.08886 0.61867 0.36056 0.0
H881 H 0.18484 0.60578 0.33632 0.0
C882 C 0.192 0.63952 0.33373 0.0
C883 C 0.18 0.65927 0.33623 0.0
C884 C 0.09802 0.60368 0.35685 0.0
C885 C 0.14614 0.62192 0.34592 0.0
C886 C 0.08022 0.58528 0.35856 0.0
C887 C 0.09143 0.56581 0.3533 0.0
C888 C 0.12716 0.60249 0.34975 0.0
C889 C 0.12072 0.56506 0.34704 0.0
C890 C 0.17519 0.62084 0.33858 0.0
C891 C 0.15103 0.65964 0.34408 0.0
N892 N 0.13762 0.58321 0.34528 0.0
N893 N 0.13507 0.64126 0.34852 0.0
H894 H 0.82175 0.86804 0.67691 0.0
H895 H 0.78721 0.93568 0.55759 0.0
H896 H 0.74832 0.85312 0.63487 0.0
H897 H 0.82552 0.96469 0.61852 0.0
H898 H 0.78084 0.90208 0.58172 0.0
H899 H 0.8314 0.9008 0.65159 0.0
C900 C 0.8078 0.87167 0.66225 0.0
C901 C 0.78418 0.85805 0.65789 0.0
C902 C 0.79084 0.91577 0.58971 0.0
C903 C 0.79523 0.895 0.62891 0.0
C904 C 0.79457 0.9348 0.57598 0.0
C905 C 0.80704 0.95275 0.58617 0.0
C906 C 0.80005 0.91468 0.61361 0.0
C907 C 0.81612 0.95104 0.61005 0.0
C908 C 0.81322 0.8903 0.64795 0.0
C909 C 0.76661 0.86337 0.63882 0.0
N910 N 0.81256 0.93224 0.62301 0.0
N911 N 0.77259 0.88141 0.62488 0.0
H912 H 0.71109 0.27576 0.19706 0.0
H913 H 0.57762 0.21969 0.13448 0.0
H914 H 0.65261 0.229 0.23445 0.0
H915 H 0.63084 0.27137 0.10057 0.0
H916 H 0.60703 0.22077 0.17016 0.0
H917 H 0.68359 0.27271 0.16065 0.0
C918 C 0.69234 0.26495 0.19768 0.0
C919 C 0.68405 0.25272 0.21892 0.0
C920 C 0.61231 0.23183 0.15488 0.0
C921 C 0.65267 0.24889 0.17709 0.0
C922 C 0.59567 0.23112 0.13445 0.0
C923 C 0.60172 0.24554 0.11459 0.0
C924 C 0.63524 0.24701 0.15538 0.0
C925 C 0.62516 0.26017 0.11563 0.0
C926 C 0.67675 0.2631 0.17681 0.0
C927 C 0.65994 0.2386 0.21843 0.0
N928 N 0.64101 0.26055 0.13569 0.0
N929 N 0.64506 0.23711 0.19786 0.0
H930 H 0.22075 0.15717 0.68907 0.0
H931 H 0.25991 0.1047 0.56392 0.0
H932 H 0.26163 0.19217 0.62694 0.0
H933 H 0.19627 0.07625 0.61606 0.0
H934 H 0.26316 0.13615 0.58808 0.0
H935 H 0.21384 0.12641 0.66396 0.0
C936 C 0.22825 0.15835 0.67014 0.0
C937 C 0.24181 0.17718 0.66002 0.0
C938 C 0.24836 0.12309 0.5942 0.0
C939 C 0.23407 0.1422 0.63134 0.0
C940 C 0.24662 0.10513 0.5805 0.0
C941 C 0.22792 0.08789 0.58814 0.0
C942 C 0.23154 0.12372 0.61588 0.0
C943 C 0.21089 0.08929 0.60957 0.0
C944 C 0.22415 0.14088 0.65582 0.0
C945 C 0.25088 0.17799 0.63538 0.0
N946 N 0.21329 0.10686 0.62286 0.0
N947 N 0.24704 0.16069 0.62192 0.0
H948 H 0.38669 0.78274 0.2135 0.0
H949 H 0.39987 0.76525 0.07027 0.0
H950 H 0.31858 0.75451 0.17327 0.0
H951 H 0.47053 0.78705 0.11189 0.0
H952 H 0.36852 0.76369 0.10733 0.0
H953 H 0.4167 0.78686 0.17596 0.0
C954 C 0.378 0.77751 0.19673 0.0
C955 C 0.35011 0.76823 0.19651 0.0
C956 C 0.39084 0.76889 0.10839 0.0
C957 C 0.38439 0.77279 0.15351 0.0
C958 C 0.40859 0.76982 0.08729 0.0
C959 C 0.43761 0.77618 0.08833 0.0
C960 C 0.40229 0.77446 0.13056 0.0
C961 C 0.44817 0.78203 0.11058 0.0
C962 C 0.39519 0.77978 0.17533 0.0
C963 C 0.34009 0.7615 0.17432 0.0
N964 N 0.43051 0.78097 0.13091 0.0
N965 N 0.35721 0.76392 0.15371 0.0
H966 H 0.79835 0.18391 0.42794 0.0
H967 H 0.81723 0.05859 0.43284 0.0
H968 H 0.80203 0.14669 0.3641 0.0
H969 H 0.8092 0.09558 0.49636 0.0
H970 H 0.81516 0.09108 0.40698 0.0
H971 H 0.80583 0.15212 0.45308 0.0
C972 C 0.80099 0.16908 0.41918 0.0
C973 C 0.79951 0.16795 0.39387 0.0
C974 C 0.81403 0.09214 0.42657 0.0
C975 C 0.80775 0.13141 0.4226 0.0
C976 C 0.8153 0.07367 0.4412 0.0
C977 C 0.81343 0.0747 0.46653 0.0
C978 C 0.8108 0.11164 0.43748 0.0
C979 C 0.81076 0.09438 0.4768 0.0
C980 C 0.80509 0.1509 0.43357 0.0
C981 C 0.80264 0.14823 0.38357 0.0
N982 N 0.80943 0.11213 0.46221 0.0
N983 N 0.80656 0.13072 0.39798 0.0
H984 H 0.35227 0.22352 0.83841 0.0
H985 H 0.42289 0.28362 0.94654 0.0
H986 H 0.36033 0.29179 0.84021 0.0
H987 H 0.44562 0.22072 0.92788 0.0
H988 H 0.39384 0.28558 0.91088 0.0
H989 H 0.38099 0.22096 0.87435 0.0
C990 C 0.36018 0.23798 0.84619 0.0
C991 C 0.35378 0.25792 0.83613 0.0
C992 C 0.40522 0.27136 0.91463 0.0
C993 C 0.38604 0.255 0.87767 0.0
C994 C 0.42195 0.27024 0.93493 0.0
C995 C 0.43704 0.25204 0.94021 0.0
C996 C 0.40316 0.25407 0.8996 0.0
C997 C 0.43418 0.23499 0.92478 0.0
C998 C 0.37643 0.23647 0.8668 0.0
C999 C 0.36417 0.27606 0.84747 0.0
N1000 N 0.41756 0.23642 0.90518 0.0
N1001 N 0.37967 0.27416 0.86767 0.0
H1002 H 0.28663 0.84714 0.38849 0.0
H1003 H 0.18916 0.93873 0.43455 0.0
H1004 H 0.19695 0.84922 0.37331 0.0
H1005 H 0.26863 0.92306 0.46663 0.0
H1006 H 0.1925 0.9078 0.40954 0.0
H1007 H 0.28172 0.87729 0.41437 0.0
C1008 C 0.26592 0.85403 0.39056 0.0
C1009 C 0.24217 0.84576 0.37876 0.0
C1010 C 0.20913 0.91117 0.42212 0.0
C1011 C 0.23634 0.88017 0.40833 0.0
C1012 C 0.2072 0.92875 0.43648 0.0
C1013 C 0.22877 0.93365 0.45262 0.0
C1014 C 0.2329 0.89851 0.42378 0.0
C1015 C 0.25183 0.92026 0.45407 0.0
C1016 C 0.26308 0.87113 0.40544 0.0
C1017 C 0.21573 0.85509 0.38226 0.0
N1018 N 0.25334 0.9034 0.43976 0.0
N1019 N 0.21354 0.87192 0.39665 0.0
H1020 H 0.6733 0.73709 0.8556 0.0
H1021 H 0.55445 0.79356 0.92984 0.0
H1022 H 0.65349 0.80127 0.83463 0.0
H1023 H 0.61696 0.75752 0.96655 0.0
H1024 H 0.58399 0.79283 0.89179 0.0
H1025 H 0.64587 0.74016 0.89383 0.0
C1026 C 0.66348 0.7519 0.85895 0.0
C1027 C 0.66615 0.76903 0.8417 0.0
C1028 C 0.59118 0.78515 0.90823 0.0
C1029 C 0.63371 0.77216 0.88521 0.0
C1030 C 0.57444 0.78555 0.9298 0.0
C1031 C 0.58327 0.77535 0.9511 0.0
C1032 C 0.61647 0.77407 0.90798 0.0
C1033 C 0.60932 0.76525 0.95033 0.0
C1034 C 0.64767 0.75352 0.88077 0.0
C1035 C 0.65183 0.78749 0.84702 0.0
N1036 N 0.62486 0.76457 0.92897 0.0
N1037 N 0.63605 0.7885 0.86824 0.0
loop_
_geom_bond_atom_site_label_1
_geom_bond_atom_site_label_2
_geom_bond_distance
_geom_bond_site_symmetry_2
_ccdc_geom_bond_type
C0 C1 1.384 . S
C0 H13 0.947 . S
C0 C35 1.382 . S
C1 C0 1.384 . S
C1 C2 1.378 . S
C2 C1 1.378 . S
C2 C3 1.378 . S
C2 H14 0.952 . S
C3 C2 1.378 . S
C3 H15 0.950 . S
C3 C34 1.383 . S
H4 C23 0.947 . S
H5 C24 0.946 . S
H6 C26 0.953 . S
H7 C27 0.945 . S
H8 C29 0.952 . S
H9 C30 0.949 . S
H10 C32 0.950 . S
H11 C33 0.948 . S
H12 C35 0.951 . S
H13 C0 0.947 . S
H14 C2 0.952 . S
H15 C3 0.950 . S
N16 C19 1.382 . S
N16 C21 1.363 . S
N17 C19 1.371 . S
N17 C20 1.372 . S
N18 C20 1.361 . S
N18 C21 1.377 . S
C19 N16 1.382 . S
C19 N17 1.371 . S
C19 C22 1.480 . S
C20 N17 1.372 . S
C20 N18 1.361 . S
C20 C28 1.457 . S
C21 N16 1.363 . S
C21 N18 1.377 . S
C21 C34 1.479 . S
C22 C19 1.480 . S
C22 C23 1.383 . S
C22 C27 1.385 . S
C23 H4 0.947 . S
C23 C22 1.383 . S
C23 C24 1.388 . S
C24 H5 0.946 . S
C24 C23 1.388 . S
C24 C25 1.384 . S
C25 C24 1.384 . S
C25 C26 1.377 . S
C26 H6 0.953 . S
C26 C25 1.377 . S
C26 C27 1.369 . S
C27 H7 0.945 . S
C27 C22 1.385 . S
C27 C26 1.369 . S
C28 C20 1.457 . S
C28 C29 1.372 . S
C28 C33 1.364 . S
C29 H8 0.952 . S
C29 C28 1.372 . S
C29 C30 1.389 . S
C30 H9 0.949 . S
C30 C29 1.389 . S
C30 C31 1.387 . S
C31 C30 1.387 . S
C31 C32 1.372 . S
C32 H10 0.950 . S
C32 C31 1.372 . S
C32 C33 1.379 . S
C33 H11 0.948 . S
C33 C28 1.364 . S
C33 C32 1.379 . S
C34 C3 1.383 . S
C34 C21 1.479 . S
C34 C35 1.398 . S
C35 C0 1.382 . S
C35 H12 0.951 . S
C35 C34 1.398 . S
C36 C37 1.384 . S
C36 H49 0.947 . S
C36 C71 1.382 . S
C37 C36 1.384 . S
C37 C38 1.378 . S
C38 C37 1.378 . S
C38 C39 1.378 . S
C38 H50 0.952 . S
C39 C38 1.378 . S
C39 H51 0.950 . S
C39 C70 1.383 . S
H40 C59 0.947 . S
H41 C60 0.946 . S
H42 C62 0.953 . S
H43 C63 0.945 . S
H44 C65 0.952 . S
H45 C66 0.949 . S
H46 C68 0.950 . S
H47 C69 0.948 . S
H48 C71 0.951 . S
H49 C36 0.947 . S
H50 C38 0.952 . S
H51 C39 0.950 . S
N52 C55 1.382 . S
N52 C57 1.363 . S
N53 C55 1.371 . S
N53 C56 1.372 . S
N54 C56 1.361 . S
N54 C57 1.377 . S
C55 N52 1.382 . S
C55 N53 1.371 . S
C55 C58 1.480 . S
C56 N53 1.372 . S
C56 N54 1.361 . S
C56 C64 1.457 . S
C57 N52 1.363 . S
C57 N54 1.377 . S
C57 C70 1.479 . S
C58 C55 1.480 . S
C58 C59 1.383 . S
C58 C63 1.385 . S
C59 H40 0.947 . S
C59 C58 1.383 . S
C59 C60 1.388 . S
C60 H41 0.946 . S
C60 C59 1.388 . S
C60 C61 1.384 . S
C61 C60 1.384 . S
C61 C62 1.377 . S
C62 H42 0.953 . S
C62 C61 1.377 . S
C62 C63 1.369 . S
C63 H43 0.945 . S
C63 C58 1.385 . S
C63 C62 1.369 . S
C64 C56 1.457 . S
C64 C65 1.372 . S
C64 C69 1.364 . S
C65 H44 0.952 . S
C65 C64 1.372 . S
C65 C66 1.389 . S
C66 H45 0.949 . S
C66 C65 1.389 . S
C66 C67 1.387 . S
C67 C66 1.387 . S
C67 C68 1.372 . S
C68 H46 0.950 . S
C68 C67 1.372 . S
C68 C69 1.379 . S
C69 H47 0.948 . S
C69 C64 1.364 . S
C69 C68 1.379 . S
C70 C39 1.383 . S
C70 C57 1.479 . S
C70 C71 1.398 . S
C71 C36 1.382 . S
C71 H48 0.951 . S
C71 C70 1.398 . S
C72 C73 1.384 . S
C72 H85 0.947 . S
C72 C107 1.382 . S
C73 C72 1.384 . S
C73 C74 1.378 . S
C74 C73 1.378 . S
C74 C75 1.378 . S
C74 H86 0.952 . S
C75 C74 1.378 . S
C75 H87 0.950 . S
C75 C106 1.383 . S
H76 C95 0.947 . S
H77 C96 0.946 . S
H78 C98 0.953 . S
H79 C99 0.945 . S
H80 C101 0.952 . S
H81 C102 0.949 . S
H82 C104 0.950 . S
H83 C105 0.948 . S
H84 C107 0.951 . S
H85 C72 0.947 . S
H86 C74 0.952 . S
H87 C75 0.950 . S
N88 C91 1.382 . S
N88 C93 1.363 . S
N89 C91 1.371 . S
N89 C92 1.372 . S
N90 C92 1.361 . S
N90 C93 1.377 . S
C91 N88 1.382 . S
C91 N89 1.371 . S
C91 C94 1.480 . S
C92 N89 1.372 . S
C92 N90 1.361 . S
C92 C100 1.457 . S
C93 N88 1.363 . S
C93 N90 1.377 . S
C93 C106 1.479 . S
C94 C91 1.480 . S
C94 C95 1.383 . S
C94 C99 1.385 . S
C95 H76 0.947 . S
C95 C94 1.383 . S
C95 C96 1.388 . S
C96 H77 0.946 . S
C96 C95 1.388 . S
C96 C97 1.384 . S
C97 C96 1.384 . S
C97 C98 1.377 . S
C98 H78 0.953 . S
C98 C97 1.377 . S
C98 C99 1.369 . S
C99 H79 0.945 . S
C99 C94 1.385 . S
C99 C98 1.369 . S
C100 C92 1.457 . S
C100 C101 1.372 . S
C100 C105 1.364 . S
C101 H80 0.952 . S
C101 C100 1.372 . S
C101 C102 1.389 . S
C102 H81 0.949 . S
C102 C101 1.389 . S
C102 C103 1.387 . S
C103 C102 1.387 . S
C103 C104 1.372 . S
C104 H82 0.950 . S
C104 C103 1.372 . S
C104 C105 1.379 . S
C105 H83 0.948 . S
C105 C100 1.364 . S
C105 C104 1.379 . S
C106 C75 1.383 . S
C106 C93 1.479 . S
C106 C107 1.398 . S
C107 C72 1.382 . S
C107 H84 0.951 . S
C107 C106 1.398 . S
C108 C109 1.384 . S
C108 H121 0.947 . S
C108 C143 1.382 . S
C109 C108 1.384 . S
C109 C110 1.378 . S
C110 C109 1.378 . S
C110 C111 1.378 . S
C110 H122 0.952 . S
C111 C110 1.378 . S
C111 H123 0.950 . S
C111 C142 1.383 . S
H112 C131 0.947 . S
H113 C132 0.946 . S
H114 C134 0.953 . S
H115 C135 0.945 . S
H116 C137 0.952 . S
H117 C138 0.949 . S
H118 C140 0.950 . S
H119 C141 0.948 . S
H120 C143 0.951 . S
H121 C108 0.947 . S
H122 C110 0.952 . S
H123 C111 0.950 . S
N124 C127 1.382 . S
N124 C129 1.363 . S
N125 C127 1.371 . S
N125 C128 1.372 . S
N126 C128 1.361 . S
N126 C129 1.377 . S
C127 N124 1.382 . S
C127 N125 1.371 . S
C127 C130 1.480 . S
C128 N125 1.372 . S
C128 N126 1.361 . S
C128 C136 1.457 . S
C129 N124 1.363 . S
C129 N126 1.377 . S
C129 C142 1.479 . S
C130 C127 1.480 . S
C130 C131 1.383 . S
C130 C135 1.385 . S
C131 H112 0.947 . S
C131 C130 1.383 . S
C131 C132 1.388 . S
C132 H113 0.946 . S
C132 C131 1.388 . S
C132 C133 1.384 . S
C133 C132 1.384 . S
C133 C134 1.377 . S
C134 H114 0.953 . S
C134 C133 1.377 . S
C134 C135 1.369 . S
C135 H115 0.945 . S
C135 C130 1.385 . S
C135 C134 1.369 . S
C136 C128 1.457 . S
C136 C137 1.372 . S
C136 C141 1.364 . S
C137 H116 0.952 . S
C137 C136 1.372 . S
C137 C138 1.389 . S
C138 H117 0.949 . S
C138 C137 1.389 . S
C138 C139 1.387 . S
C139 C138 1.387 . S
C139 C140 1.372 . S
C140 H118 0.950 . S
C140 C139 1.372 . S
C140 C141 1.379 . S
C141 H119 0.948 . S
C141 C136 1.364 . S
C141 C140 1.379 . S
C142 C111 1.383 . S
C142 C129 1.479 . S
C142 C143 1.398 . S
C143 C108 1.382 . S
C143 H120 0.951 . S
C143 C142 1.398 . S
C144 C145 1.384 . S
C144 H157 0.947 . S
C144 C179 1.382 . S
C145 C144 1.384 . S
C145 C146 1.378 . S
C146 C145 1.378 . S
C146 C147 1.378 . S
C146 H158 0.952 . S
C147 C146 1.378 . S
C147 H159 0.950 . S
C147 C178 1.383 . S
H148 C167 0.947 . S
H149 C168 0.946 . S
H150 C170 0.953 . S
H151 C171 0.945 . S
H152 C173 0.952 . S
H153 C174 0.949 . S
H154 C176 0.950 . S
H155 C177 0.948 . S
H156 C179 0.951 . S
H157 C144 0.947 . S
H158 C146 0.952 . S
H159 C147 0.950 . S
N160 C163 1.382 . S
N160 C165 1.363 . S
N161 C163 1.371 . S
N161 C164 1.372 . S
N162 C164 1.361 . S
N162 C165 1.377 . S
C163 N160 1.382 . S
C163 N161 1.371 . S
C163 C166 1.480 . S
C164 N161 1.372 . S
C164 N162 1.361 . S
C164 C172 1.457 . S
C165 N160 1.363 . S
C165 N162 1.377 . S
C165 C178 1.479 . S
C166 C163 1.480 . S
C166 C167 1.383 . S
C166 C171 1.385 . S
C167 H148 0.947 . S
C167 C166 1.383 . S
C167 C168 1.388 . S
C168 H149 0.946 . S
C168 C167 1.388 . S
C168 C169 1.384 . S
C169 C168 1.384 . S
C169 C170 1.377 . S
C170 H150 0.953 . S
C170 C169 1.377 . S
C170 C171 1.369 . S
C171 H151 0.945 . S
C171 C166 1.385 . S
C171 C170 1.369 . S
C172 C164 1.457 . S
C172 C173 1.372 . S
C172 C177 1.364 . S
C173 H152 0.952 . S
C173 C172 1.372 . S
C173 C174 1.389 . S
C174 H153 0.949 . S
C174 C173 1.389 . S
C174 C175 1.387 . S
C175 C174 1.387 . S
C175 C176 1.372 . S
C176 H154 0.950 . S
C176 C175 1.372 . S
C176 C177 1.379 . S
C177 H155 0.948 . S
C177 C172 1.364 . S
C177 C176 1.379 . S
C178 C147 1.383 . S
C178 C165 1.479 . S
C178 C179 1.398 . S
C179 C144 1.382 . S
C179 H156 0.951 . S
C179 C178 1.398 . S
C180 C181 1.384 . S
C180 H193 0.947 . S
C180 C215 1.382 . S
C181 C180 1.384 . S
C181 C182 1.378 . S
C182 C181 1.378 . S
C182 C183 1.378 . S
C182 H194 0.952 . S
C183 C182 1.378 . S
C183 H195 0.950 . S
C183 C214 1.383 . S
H184 C203 0.947 . S
H185 C204 0.946 . S
H186 C206 0.953 . S
H187 C207 0.945 . S
H188 C209 0.952 . S
H189 C210 0.949 . S
H190 C212 0.950 . S
H191 C213 0.948 . S
H192 C215 0.951 . S
H193 C180 0.947 . S
H194 C182 0.952 . S
H195 C183 0.950 . S
N196 C199 1.382 . S
N196 C201 1.363 . S
N197 C199 1.371 . S
N197 C200 1.372 . S
N198 C200 1.361 . S
N198 C201 1.377 . S
C199 N196 1.382 . S
C199 N197 1.371 . S
C199 C202 1.480 . S
C200 N197 1.372 . S
C200 N198 1.361 . S
C200 C208 1.457 . S
C201 N196 1.363 . S
C201 N198 1.377 . S
C201 C214 1.479 . S
C202 C199 1.480 . S
C202 C203 1.383 . S
C202 C207 1.385 . S
C203 H184 0.947 . S
C203 C202 1.383 . S
C203 C204 1.388 . S
C204 H185 0.946 . S
C204 C203 1.388 . S
C204 C205 1.384 . S
C205 C204 1.384 . S
C205 C206 1.377 . S
C206 H186 0.953 . S
C206 C205 1.377 . S
C206 C207 1.369 . S
C207 H187 0.945 . S
C207 C202 1.385 . S
C207 C206 1.369 . S
C208 C200 1.457 . S
C208 C209 1.372 . S
C208 C213 1.364 . S
C209 H188 0.952 . S
C209 C208 1.372 . S
C209 C210 1.389 . S
C210 H189 0.949 . S
C210 C209 1.389 . S
C210 C211 1.387 . S
C211 C210 1.387 . S
C211 C212 1.372 . S
C212 H190 0.950 . S
C212 C211 1.372 . S
C212 C213 1.379 . S
C213 H191 0.948 . S
C213 C208 1.364 . S
C213 C212 1.379 . S
C214 C183 1.383 . S
C214 C201 1.479 . S
C214 C215 1.398 . S
C215 C180 1.382 . S
C215 H192 0.951 . S
C215 C214 1.398 . S
C216 C217 1.384 . S
C216 H229 0.947 . S
C216 C251 1.382 . S
C217 C216 1.384 . S
C217 C218 1.378 . S
C218 C217 1.378 . S
C218 C219 1.378 . S
C218 H230 0.952 . S
C219 C218 1.378 . S
C219 H231 0.950 . S
C219 C250 1.383 . S
H220 C239 0.947 . S
H221 C240 0.946 . S
H222 C242 0.953 . S
H223 C243 0.945 . S
H224 C245 0.952 . S
H225 C246 0.949 . S
H226 C248 0.950 . S
H227 C249 0.948 . S
H228 C251 0.951 . S
H229 C216 0.947 . S
H230 C218 0.952 . S
H231 C219 0.950 . S
N232 C235 1.382 . S
N232 C237 1.363 . S
N233 C235 1.371 . S
N233 C236 1.372 . S
N234 C236 1.361 . S
N234 C237 1.377 . S
C235 N232 1.382 . S
C235 N233 1.371 . S
C235 C238 1.480 . S
C236 N233 1.372 . S
C236 N234 1.361 . S
C236 C244 1.457 . S
C237 N232 1.363 . S
C237 N234 1.377 . S
C237 C250 1.479 . S
C238 C235 1.480 . S
C238 C239 1.383 . S
C238 C243 1.385 . S
C239 H220 0.947 . S
C239 C238 1.383 . S
C239 C240 1.388 . S
C240 H221 0.946 . S
C240 C239 1.388 . S
C240 C241 1.384 . S
C241 C240 1.384 . S
C241 C242 1.377 . S
C242 H222 0.953 . S
C242 C241 1.377 . S
C242 C243 1.369 . S
C243 H223 0.945 . S
C243 C238 1.385 . S
C243 C242 1.369 . S
C244 C236 1.457 . S
C244 C245 1.372 . S
C244 C249 1.364 . S
C245 H224 0.952 . S
C245 C244 1.372 . S
C245 C246 1.389 . S
C246 H225 0.949 . S
C246 C245 1.389 . S
C246 C247 1.387 . S
C247 C246 1.387 . S
C247 C248 1.372 . S
C248 H226 0.950 . S
C248 C247 1.372 . S
C248 C249 1.379 . S
C249 H227 0.948 . S
C249 C244 1.364 . S
C249 C248 1.379 . S
C250 C219 1.383 . S
C250 C237 1.479 . S
C250 C251 1.398 . S
C251 C216 1.382 . S
C251 H228 0.951 . S
C251 C250 1.398 . S
C252 C253 1.384 . S
C252 H265 0.947 . S
C252 C287 1.382 . S
C253 C252 1.384 . S
C253 C254 1.378 . S
C254 C253 1.378 . S
C254 C255 1.378 . S
C254 H266 0.952 . S
C255 C254 1.378 . S
C255 H267 0.950 . S
C255 C286 1.383 . S
H256 C275 0.947 . S
H257 C276 0.946 . S
H258 C278 0.953 . S
H259 C279 0.945 . S
H260 C281 0.952 . S
H261 C282 0.949 . S
H262 C284 0.950 . S
H263 C285 0.948 . S
H264 C287 0.951 . S
H265 C252 0.947 . S
H266 C254 0.952 . S
H267 C255 0.950 . S
N268 C271 1.382 . S
N268 C273 1.363 . S
N269 C271 1.371 . S
N269 C272 1.372 . S
N270 C272 1.361 . S
N270 C273 1.377 . S
C271 N268 1.382 . S
C271 N269 1.371 . S
C271 C274 1.480 . S
C272 N269 1.372 . S
C272 N270 1.361 . S
C272 C280 1.457 . S
C273 N268 1.363 . S
C273 N270 1.377 . S
C273 C286 1.479 . S
C274 C271 1.480 . S
C274 C275 1.383 . S
C274 C279 1.385 . S
C275 H256 0.947 . S
C275 C274 1.383 . S
C275 C276 1.388 . S
C276 H257 0.946 . S
C276 C275 1.388 . S
C276 C277 1.384 . S
C277 C276 1.384 . S
C277 C278 1.377 . S
C278 H258 0.953 . S
C278 C277 1.377 . S
C278 C279 1.369 . S
C279 H259 0.945 . S
C279 C274 1.385 . S
C279 C278 1.369 . S
C280 C272 1.457 . S
C280 C281 1.372 . S
C280 C285 1.364 . S
C281 H260 0.952 . S
C281 C280 1.372 . S
C281 C282 1.389 . S
C282 H261 0.949 . S
C282 C281 1.389 . S
C282 C283 1.387 . S
C283 C282 1.387 . S
C283 C284 1.372 . S
C284 H262 0.950 . S
C284 C283 1.372 . S
C284 C285 1.379 . S
C285 H263 0.948 . S
C285 C280 1.364 . S
C285 C284 1.379 . S
C286 C255 1.383 . S
C286 C273 1.479 . S
C286 C287 1.398 . S
C287 C252 1.382 . S
C287 H264 0.951 . S
C287 C286 1.398 . S
C288 C289 1.443 . S
C288 N292 1.376 . S
C288 C326 1.389 . S
C289 C288 1.443 . S
C289 C290 1.340 . S
C289 H329 0.951 . S
C290 C289 1.340 . S
C290 C291 1.439 . S
C290 H330 0.950 . S
C291 C290 1.439 . S
C291 N292 1.374 . S
C291 C325 1.395 . S
N292 C288 1.376 . S
N292 C291 1.374 . S
N292 Co293 2.008 . S
Co293 N292 2.008 . S
Co293 N294 1.995 1_455 S
Co293 N299 2.008 . S
Co293 N304 1.995 . S
Co293 N309 2.282 . S
Co293 N315 2.282 1_455 S
N294 Co293 1.995 1_655 S
N294 C295 1.376 . S
N294 C298 1.383 . S
C295 N294 1.376 . S
C295 C296 1.446 . S
C295 C325 1.391 1_655 S
C296 C295 1.446 . S
C296 C297 1.339 . S
C296 H331 0.949 . S
C297 C296 1.339 . S
C297 C298 1.439 . S
C297 H332 0.950 . S
C298 N294 1.383 . S
C298 C297 1.439 . S
C298 C327 1.392 . S
N299 Co293 2.008 . S
N299 C300 1.376 1_455 S
N299 C303 1.374 . S
C300 N299 1.376 1_655 S
C300 C301 1.443 . S
C300 C327 1.389 . S
C301 C300 1.443 . S
C301 C302 1.340 . S
C301 H333 0.951 . S
C302 C301 1.340 . S
C302 C303 1.439 1_655 S
C302 H334 0.950 . S
C303 N299 1.374 . S
C303 C302 1.439 1_455 S
C303 C328 1.395 . S
N304 Co293 1.995 . S
N304 C305 1.376 . S
N304 C308 1.383 . S
C305 N304 1.376 . S
C305 C306 1.446 . S
C305 C328 1.391 . S
C306 C305 1.446 . S
C306 C307 1.339 . S
C306 H335 0.949 . S
C307 C306 1.339 . S
C307 C308 1.439 . S
C307 H336 0.950 . S
C308 N304 1.383 . S
C308 C307 1.439 . S
C308 C326 1.392 . S
N309 Co293 2.282 . S
N309 C312 1.332 . S
N309 C314 1.332 . S
C310 C311 1.386 . S
C310 C313 1.388 . S
C311 C310 1.386 . S
C311 C312 1.382 . S
C311 H337 0.950 . S
C312 N309 1.332 . S
C312 C311 1.382 . S
C312 H323 0.952 . S
C313 C310 1.388 . S
C313 C314 1.382 . S
C313 H338 0.950 . S
C314 N309 1.332 . S
C314 C313 1.382 . S
C314 H324 0.948 . S
N315 Co293 2.282 1_655 S
N315 C319 1.332 . S
N315 C320 1.332 . S
C316 C317 1.388 . S
C316 C320 1.382 . S
C316 H339 0.950 . S
C317 C316 1.388 . S
C317 C318 1.386 . S
C318 C317 1.386 . S
C318 C319 1.382 . S
C318 H340 0.950 . S
C319 N315 1.332 . S
C319 C318 1.382 . S
C319 H321 0.952 . S
C320 N315 1.332 . S
C320 C316 1.382 . S
C320 H322 0.948 . S
H321 C319 0.952 . S
H322 C320 0.948 . S
H323 C312 0.952 . S
H324 C314 0.948 . S
C325 C291 1.395 . S
C325 C295 1.391 1_455 S
C326 C288 1.389 . S
C326 C308 1.392 . S
C327 C298 1.392 . S
C327 C300 1.389 . S
C328 C303 1.395 . S
C328 C305 1.391 . S
H329 C289 0.951 . S
H330 C290 0.950 . S
H331 C296 0.949 . S
H332 C297 0.950 . S
H333 C301 0.951 . S
H334 C302 0.950 . S
H335 C306 0.949 . S
H336 C307 0.950 . S
H337 C311 0.950 . S
H338 C313 0.950 . S
H339 C316 0.950 . S
H340 C318 0.950 . S
C341 C342 1.443 . S
C341 N345 1.376 . S
C341 C379 1.389 . S
C342 C341 1.443 . S
C342 C343 1.340 . S
C342 H382 0.951 . S
C343 C342 1.340 . S
C343 C344 1.439 . S
C343 H383 0.950 . S
C344 C343 1.439 . S
C344 N345 1.374 . S
C344 C378 1.395 . S
N345 C341 1.376 . S
N345 C344 1.374 . S
N345 Co346 2.008 . S
Co346 N345 2.008 . S
Co346 N347 1.995 1_455 S
Co346 N352 2.008 1_455 S
Co346 N357 1.995 . S
Co346 N362 2.282 . S
Co346 N368 2.282 1_455 S
N347 Co346 1.995 1_655 S
N347 C348 1.376 . S
N347 C351 1.383 . S
C348 N347 1.376 . S
C348 C349 1.446 . S
C348 C378 1.391 1_655 S
C349 C348 1.446 . S
C349 C350 1.339 . S
C349 H384 0.949 . S
C350 C349 1.339 . S
C350 C351 1.439 . S
C350 H385 0.950 . S
C351 N347 1.383 . S
C351 C350 1.439 . S
C351 C380 1.392 . S
N352 Co346 2.008 1_655 S
N352 C353 1.376 . S
N352 C356 1.368 1_655 S
C353 N352 1.376 . S
C353 C354 1.443 . S
C353 C380 1.389 . S
C354 C353 1.443 . S
C354 C355 1.340 . S
C354 H386 0.951 . S
C355 C354 1.340 . S
C355 C356 1.422 1_655 S
C355 H387 0.950 . S
C356 N352 1.368 1_455 S
C356 C355 1.422 1_455 S
C356 C381 1.418 . S
N357 Co346 1.995 . S
N357 C358 1.376 . S
N357 C361 1.383 . S
C358 N357 1.376 . S
C358 C359 1.446 . S
C358 C381 1.391 . S
C359 C358 1.446 . S
C359 C360 1.339 . S
C359 H388 0.949 . S
C360 C359 1.339 . S
C360 C361 1.439 . S
C360 H389 0.950 . S
C361 N357 1.383 . S
C361 C360 1.439 . S
C361 C379 1.392 . S
N362 Co346 2.282 . S
N362 C365 1.332 . S
N362 C367 1.332 . S
C363 C364 1.386 . S
C363 C366 1.388 . S
C364 C363 1.386 . S
C364 C365 1.382 . S
C364 H390 0.950 . S
C365 N362 1.332 . S
C365 C364 1.382 . S
C365 H376 0.952 . S
C366 C363 1.388 . S
C366 C367 1.382 . S
C366 H391 0.950 . S
C367 N362 1.332 . S
C367 C366 1.382 . S
C367 H377 0.948 . S
N368 Co346 2.282 1_655 S
N368 C372 1.332 . S
N368 C373 1.332 . S
C369 C370 1.388 . S
C369 C373 1.382 . S
C369 H392 0.950 . S
C370 C369 1.388 . S
C370 C371 1.386 . S
C371 C370 1.386 . S
C371 C372 1.382 . S
C371 H393 0.950 . S
C372 N368 1.332 . S
C372 C371 1.382 . S
C372 H374 0.952 . S
C373 N368 1.332 . S
C373 C369 1.382 . S
C373 H375 0.948 . S
H374 C372 0.952 . S
H375 C373 0.948 . S
H376 C365 0.952 . S
H377 C367 0.948 . S
C378 C344 1.395 . S
C378 C348 1.391 1_455 S
C379 C341 1.389 . S
C379 C361 1.392 . S
C380 C351 1.392 . S
C380 C353 1.389 . S
C381 C356 1.418 . S
C381 C358 1.391 . S
H382 C342 0.951 . S
H383 C343 0.950 . S
H384 C349 0.949 . S
H385 C350 0.950 . S
H386 C354 0.951 . S
H387 C355 0.950 . S
H388 C359 0.949 . S
H389 C360 0.950 . S
H390 C364 0.950 . S
H391 C366 0.950 . S
H392 C369 0.950 . S
H393 C371 0.950 . S
C394 C395 1.443 . S
C394 N398 1.376 . S
C394 C432 1.389 . S
C395 C394 1.443 . S
C395 C396 1.340 . S
C395 H435 0.951 . S
C396 C395 1.340 . S
C396 C397 1.439 . S
C396 H436 0.950 . S
C397 C396 1.439 . S
C397 N398 1.374 . S
C397 C431 1.395 1_565 S
N398 C394 1.376 . S
N398 C397 1.374 . S
N398 Co399 2.008 1_565 S
Co399 N398 2.008 1_545 S
Co399 N400 1.995 . S
Co399 N405 2.008 . S
Co399 N410 1.995 1_545 S
Co399 N415 2.282 . S
Co399 N421 2.282 1_545 S
N400 Co399 1.995 . S
N400 C401 1.376 . S
N400 C404 1.383 . S
C401 N400 1.376 . S
C401 C402 1.446 . S
C401 C431 1.391 . S
C402 C401 1.446 . S
C402 C403 1.339 . S
C402 H437 0.949 . S
C403 C402 1.339 . S
C403 C404 1.439 . S
C403 H438 0.950 . S
C404 N400 1.383 . S
C404 C403 1.439 . S
C404 C433 1.392 . S
N405 Co399 2.008 . S
N405 C406 1.376 . S
N405 C409 1.374 . S
C406 N405 1.376 . S
C406 C407 1.443 . S
C406 C433 1.389 . S
C407 C406 1.443 . S
C407 C408 1.340 . S
C407 H439 0.951 . S
C408 C407 1.340 . S
C408 C409 1.439 . S
C408 H440 0.950 . S
C409 N405 1.374 . S
C409 C408 1.439 . S
C409 C434 1.395 . S
N410 Co399 1.995 1_565 S
N410 C411 1.376 . S
N410 C414 1.383 . S
C411 N410 1.376 . S
C411 C412 1.446 . S
C411 C434 1.391 1_565 S
C412 C411 1.446 . S
C412 C413 1.339 . S
C412 H441 0.949 . S
C413 C412 1.339 . S
C413 C414 1.439 . S
C413 H442 0.950 . S
C414 N410 1.383 . S
C414 C413 1.439 . S
C414 C432 1.392 . S
N415 Co399 2.282 . S
N415 C418 1.332 . S
N415 C420 1.332 . S
C416 C417 1.386 . S
C416 C419 1.388 . S
C417 C416 1.386 . S
C417 C418 1.382 . S
C417 H443 0.950 . S
C418 N415 1.332 . S
C418 C417 1.382 . S
C418 H429 0.952 . S
C419 C416 1.388 . S
C419 C420 1.382 . S
C419 H444 0.950 . S
C420 N415 1.332 . S
C420 C419 1.382 . S
C420 H430 0.948 . S
N421 Co399 2.282 1_565 S
N421 C425 1.332 . S
N421 C426 1.332 . S
C422 C423 1.388 . S
C422 C426 1.382 . S
C422 H445 0.950 . S
C423 C422 1.388 . S
C423 C424 1.386 . S
C424 C423 1.386 . S
C424 C425 1.382 . S
C424 H446 0.950 . S
C425 N421 1.332 . S
C425 C424 1.382 . S
C425 H427 0.952 . S
C426 N421 1.332 . S
C426 C422 1.382 . S
C426 H428 0.948 . S
H427 C425 0.952 . S
H428 C426 0.948 . S
H429 C418 0.952 . S
H430 C420 0.948 . S
C431 C397 1.395 1_545 S
C431 C401 1.391 . S
C432 C394 1.389 . S
C432 C414 1.392 . S
C433 C404 1.392 . S
C433 C406 1.389 . S
C434 C409 1.395 . S
C434 C411 1.391 1_545 S
H435 C395 0.951 . S
H436 C396 0.950 . S
H437 C402 0.949 . S
H438 C403 0.950 . S
H439 C407 0.951 . S
H440 C408 0.950 . S
H441 C412 0.949 . S
H442 C413 0.950 . S
H443 C417 0.950 . S
H444 C419 0.950 . S
H445 C422 0.950 . S
H446 C424 0.950 . S
C447 C448 1.443 . S
C447 N451 1.376 . S
C447 C485 1.389 . S
C448 C447 1.443 . S
C448 C449 1.340 . S
C448 H488 0.951 . S
C449 C448 1.340 . S
C449 C450 1.439 . S
C449 H489 0.950 . S
C450 C449 1.439 . S
C450 N451 1.374 . S
C450 C484 1.395 . S
N451 C447 1.376 . S
N451 C450 1.374 . S
N451 Co452 2.008 . S
Co452 N451 2.008 . S
Co452 N453 2.009 . S
Co452 N458 1.989 1_554 S
Co452 N463 1.995 . S
Co452 N468 2.282 1_554 S
Co452 N474 2.282 . S
N453 Co452 2.009 . S
N453 C454 1.381 . S
N453 C457 1.358 1_554 S
C454 N453 1.381 . S
C454 C455 1.446 1_554 S
C454 C484 1.391 . S
C455 C454 1.446 1_556 S
C455 C456 1.339 . S
C455 H490 0.949 . S
C456 C455 1.339 . S
C456 C457 1.439 . S
C456 H491 0.950 . S
C457 N453 1.358 1_556 S
C457 C456 1.439 . S
C457 C486 1.392 . S
N458 Co452 1.989 1_556 S
N458 C459 1.404 . S
N458 C462 1.375 1_556 S
C459 N458 1.404 . S
C459 C460 1.443 . S
C459 C486 1.389 . S
C460 C459 1.443 . S
C460 C461 1.340 . S
C460 H492 0.951 . S
C461 C460 1.340 . S
C461 C462 1.420 1_556 S
C461 H493 0.950 . S
C462 N458 1.375 1_554 S
C462 C461 1.420 1_554 S
C462 C487 1.411 . S
N463 Co452 1.995 . S
N463 C464 1.376 . S
N463 C467 1.383 . S
C464 N463 1.376 . S
C464 C465 1.446 . S
C464 C487 1.391 . S
C465 C464 1.446 . S
C465 C466 1.339 . S
C465 H494 0.949 . S
C466 C465 1.339 . S
C466 C467 1.439 . S
C466 H495 0.950 . S
C467 N463 1.383 . S
C467 C466 1.439 . S
C467 C485 1.392 . S
N468 Co452 2.282 1_556 S
N468 C471 1.332 . S
N468 C473 1.332 . S
C469 C470 1.386 . S
C469 C472 1.388 . S
C470 C469 1.386 . S
C470 C471 1.382 . S
C470 H496 0.950 . S
C471 N468 1.332 . S
C471 C470 1.382 . S
C471 H482 0.952 . S
C472 C469 1.388 . S
C472 C473 1.382 . S
C472 H497 0.950 . S
C473 N468 1.332 . S
C473 C472 1.382 . S
C473 H483 0.948 . S
N474 Co452 2.282 . S
N474 C478 1.332 . S
N474 C479 1.332 . S
C475 C476 1.388 . S
C475 C479 1.382 . S
C475 H498 0.950 . S
C476 C475 1.388 . S
C476 C477 1.386 . S
C477 C476 1.386 . S
C477 C478 1.382 . S
C477 H499 0.950 . S
C478 N474 1.332 . S
C478 C477 1.382 . S
C478 H480 0.952 . S
C479 N474 1.332 . S
C479 C475 1.382 . S
C479 H481 0.948 . S
H480 C478 0.952 . S
H481 C479 0.948 . S
H482 C471 0.952 . S
H483 C473 0.948 . S
C484 C450 1.395 . S
C484 C454 1.391 . S
C485 C447 1.389 . S
C485 C467 1.392 . S
C486 C457 1.392 . S
C486 C459 1.389 . S
C487 C462 1.411 . S
C487 C464 1.391 . S
H488 C448 0.951 . S
H489 C449 0.950 . S
H490 C455 0.949 . S
H491 C456 0.950 . S
H492 C460 0.951 . S
H493 C461 0.950 . S
H494 C465 0.949 . S
H495 C466 0.950 . S
H496 C470 0.950 . S
H497 C472 0.950 . S
H498 C475 0.950 . S
H499 C477 0.950 . S
C500 C501 1.443 . S
C500 N504 1.348 1_565 S
C500 C538 1.389 . S
C501 C500 1.443 . S
C501 C502 1.340 . S
C501 H541 0.951 . S
C502 C501 1.340 . S
C502 C503 1.439 1_565 S
C502 H542 0.950 . S
C503 C502 1.439 1_545 S
C503 N504 1.374 . S
C503 C537 1.395 . S
N504 C500 1.348 1_545 S
N504 C503 1.374 . S
N504 Co505 2.029 . S
Co505 N504 2.029 . S
Co505 N506 1.995 . S
Co505 N511 2.008 . S
Co505 N516 1.995 . S
Co505 N521 2.282 . S
Co505 N527 2.282 1_545 S
N506 Co505 1.995 . S
N506 C507 1.376 . S
N506 C510 1.383 . S
C507 N506 1.376 . S
C507 C508 1.446 . S
C507 C537 1.391 . S
C508 C507 1.446 . S
C508 C509 1.339 . S
C508 H543 0.949 . S
C509 C508 1.339 . S
C509 C510 1.439 . S
C509 H544 0.950 . S
C510 N506 1.383 . S
C510 C509 1.439 . S
C510 C539 1.392 . S
N511 Co505 2.008 . S
N511 C512 1.376 . S
N511 C515 1.374 . S
C512 N511 1.376 . S
C512 C513 1.443 . S
C512 C539 1.389 . S
C513 C512 1.443 . S
C513 C514 1.340 . S
C513 H545 0.951 . S
C514 C513 1.340 . S
C514 C515 1.439 . S
C514 H546 0.950 . S
C515 N511 1.374 . S
C515 C514 1.439 . S
C515 C540 1.395 . S
N516 Co505 1.995 . S
N516 C517 1.376 . S
N516 C520 1.383 1_545 S
C517 N516 1.376 . S
C517 C518 1.446 1_545 S
C517 C540 1.391 . S
C518 C517 1.446 1_565 S
C518 C519 1.339 . S
C518 H547 0.949 . S
C519 C518 1.339 . S
C519 C520 1.439 . S
C519 H548 0.950 . S
C520 N516 1.383 1_565 S
C520 C519 1.439 . S
C520 C538 1.392 . S
N521 Co505 2.282 . S
N521 C524 1.332 . S
N521 C526 1.332 . S
C522 C523 1.386 . S
C522 C525 1.388 . S
C523 C522 1.386 . S
C523 C524 1.382 . S
C523 H549 0.950 . S
C524 N521 1.332 . S
C524 C523 1.382 . S
C524 H535 0.952 . S
C525 C522 1.388 . S
C525 C526 1.382 . S
C525 H550 0.950 . S
C526 N521 1.332 . S
C526 C525 1.382 . S
C526 H536 0.948 . S
N527 Co505 2.282 1_565 S
N527 C531 1.332 . S
N527 C532 1.332 . S
C528 C529 1.388 . S
C528 C532 1.382 . S
C528 H551 0.950 . S
C529 C528 1.388 . S
C529 C530 1.386 . S
C530 C529 1.386 . S
C530 C531 1.382 . S
C530 H552 0.950 . S
C531 N527 1.332 . S
C531 C530 1.382 . S
C531 H533 0.952 . S
C532 N527 1.332 . S
C532 C528 1.382 . S
C532 H534 0.948 . S
H533 C531 0.952 . S
H534 C532 0.948 . S
H535 C524 0.952 . S
H536 C526 0.948 . S
C537 C503 1.395 . S
C537 C507 1.391 . S
C538 C500 1.389 . S
C538 C520 1.392 . S
C539 C510 1.392 . S
C539 C512 1.389 . S
C540 C515 1.395 . S
C540 C517 1.391 . S
H541 C501 0.951 . S
H542 C502 0.950 . S
H543 C508 0.949 . S
H544 C509 0.950 . S
H545 C513 0.951 . S
H546 C514 0.950 . S
H547 C518 0.949 . S
H548 C519 0.950 . S
H549 C523 0.950 . S
H550 C525 0.950 . S
H551 C528 0.950 . S
H552 C530 0.950 . S
C553 C554 1.443 . S
C553 N557 1.376 . S
C553 C591 1.389 . S
C554 C553 1.443 . S
C554 C555 1.340 . S
C554 H594 0.951 . S
C555 C554 1.340 . S
C555 C556 1.439 . S
C555 H595 0.950 . S
C556 C555 1.439 . S
C556 N557 1.374 . S
C556 C590 1.395 . S
N557 C553 1.376 . S
N557 C556 1.374 . S
N557 Co558 2.008 . S
Co558 N557 2.008 . S
Co558 N559 1.995 . S
Co558 N564 2.008 . S
Co558 N569 1.995 . S
Co558 N574 2.281 . S
Co558 N580 2.282 . S
N559 Co558 1.995 . S
N559 C560 1.376 . S
N559 C563 1.383 1_554 S
C560 N559 1.376 . S
C560 C561 1.446 1_554 S
C560 C590 1.391 . S
C561 C560 1.446 1_556 S
C561 C562 1.339 . S
C561 H596 0.949 . S
C562 C561 1.339 . S
C562 C563 1.439 . S
C562 H597 0.950 . S
C563 N559 1.383 1_556 S
C563 C562 1.439 . S
C563 C592 1.392 . S
N564 Co558 2.008 . S
N564 C565 1.376 1_554 S
N564 C568 1.374 . S
C565 N564 1.376 1_556 S
C565 C566 1.443 . S
C565 C592 1.389 . S
C566 C565 1.443 . S
C566 C567 1.340 . S
C566 H598 0.951 . S
C567 C566 1.340 . S
C567 C568 1.439 1_556 S
C567 H599 0.950 . S
C568 N564 1.374 . S
C568 C567 1.439 1_554 S
C568 C593 1.395 . S
N569 Co558 1.995 . S
N569 C570 1.376 . S
N569 C573 1.383 . S
C570 N569 1.376 . S
C570 C571 1.446 . S
C570 C593 1.391 . S
C571 C570 1.446 . S
C571 C572 1.339 . S
C571 H600 0.949 . S
C572 C571 1.339 . S
C572 C573 1.439 . S
C572 H601 0.950 . S
C573 N569 1.383 . S
C573 C572 1.439 . S
C573 C591 1.392 . S
N574 Co558 2.281 . S
N574 C577 1.333 1_554 S
N574 C579 1.333 1_554 S
C575 C576 1.386 . S
C575 C578 1.388 . S
C576 C575 1.386 . S
C576 C577 1.382 . S
C576 H602 0.950 . S
C577 N574 1.333 1_556 S
C577 C576 1.382 . S
C577 H588 0.952 1_556 S
C578 C575 1.388 . S
C578 C579 1.382 . S
C578 H603 0.950 . S
C579 N574 1.333 1_556 S
C579 C578 1.382 . S
C579 H589 0.948 . S
N580 Co558 2.282 . S
N580 C584 1.332 . S
N580 C585 1.332 . S
C581 C582 1.388 . S
C581 C585 1.382 . S
C581 H604 0.950 . S
C582 C581 1.388 . S
C582 C583 1.386 . S
C583 C582 1.386 . S
C583 C584 1.382 . S
C583 H605 0.950 . S
C584 N580 1.332 . S
C584 C583 1.382 . S
C584 H586 0.952 . S
C585 N580 1.332 . S
C585 C581 1.382 . S
C585 H587 0.948 . S
H586 C584 0.952 . S
H587 C585 0.948 . S
H588 C577 0.952 1_554 S
H589 C579 0.948 . S
C590 C556 1.395 . S
C590 C560 1.391 . S
C591 C553 1.389 . S
C591 C573 1.392 . S
C592 C563 1.392 . S
C592 C565 1.389 . S
C593 C568 1.395 . S
C593 C570 1.391 . S
H594 C554 0.951 . S
H595 C555 0.950 . S
H596 C561 0.949 . S
H597 C562 0.950 . S
H598 C566 0.951 . S
H599 C567 0.950 . S
H600 C571 0.949 . S
H601 C572 0.950 . S
H602 C576 0.950 . S
H603 C578 0.950 . S
H604 C581 0.950 . S
H605 C583 0.950 . S
H606 C612 0.930 . S
H607 C616 0.930 . S
H608 C621 0.929 . S
H609 C619 0.929 . S
H610 C614 0.929 . S
H611 C620 0.929 . S
C612 H606 0.930 . S
C612 C613 1.367 . S
C612 C620 1.378 . S
C613 C612 1.367 . S
C613 C621 1.433 . S
C614 H610 0.929 . S
C614 C616 1.378 . S
C614 C618 1.350 . S
C615 C618 1.463 . S
C615 C620 1.350 . S
C615 N623 1.427 . S
C616 H607 0.930 . S
C616 C614 1.378 . S
C616 C617 1.367 . S
C617 C616 1.367 . S
C617 C619 1.433 . S
C618 C614 1.350 . S
C618 C615 1.463 . S
C618 N622 1.427 . S
C619 H609 0.929 . S
C619 C617 1.433 . S
C619 N622 1.384 . S
C620 H611 0.929 . S
C620 C612 1.378 . S
C620 C615 1.350 . S
C621 H608 0.929 . S
C621 C613 1.433 . S
C621 N623 1.384 . S
N622 C618 1.427 . S
N622 C619 1.384 . S
N623 C615 1.427 . S
N623 C621 1.384 . S
H624 C630 0.930 . S
H625 C634 0.930 . S
H626 C639 0.929 . S
H627 C637 0.929 . S
H628 C632 0.929 . S
H629 C638 0.929 . S
C630 H624 0.930 . S
C630 C631 1.367 . S
C630 C638 1.378 . S
C631 C630 1.367 . S
C631 C639 1.433 . S
C632 H628 0.929 . S
C632 C634 1.378 . S
C632 C636 1.350 . S
C633 C636 1.463 . S
C633 C638 1.350 . S
C633 N641 1.427 . S
C634 H625 0.930 . S
C634 C632 1.378 . S
C634 C635 1.367 . S
C635 C634 1.367 . S
C635 C637 1.433 . S
C636 C632 1.350 . S
C636 C633 1.463 . S
C636 N640 1.427 . S
C637 H627 0.929 . S
C637 C635 1.433 . S
C637 N640 1.384 . S
C638 H629 0.929 . S
C638 C630 1.378 . S
C638 C633 1.350 . S
C639 H626 0.929 . S
C639 C631 1.433 . S
C639 N641 1.384 . S
N640 C636 1.427 . S
N640 C637 1.384 . S
N641 C633 1.427 . S
N641 C639 1.384 . S
H642 C648 0.930 . S
H643 C652 0.930 . S
H644 C657 0.929 . S
H645 C655 0.929 . S
H646 C650 0.929 . S
H647 C656 0.929 . S
C648 H642 0.930 . S
C648 C649 1.367 . S
C648 C656 1.378 . S
C649 C648 1.367 . S
C649 C657 1.433 . S
C650 H646 0.929 . S
C650 C652 1.378 . S
C650 C654 1.350 . S
C651 C654 1.463 . S
C651 C656 1.350 . S
C651 N659 1.427 . S
C652 H643 0.930 . S
C652 C650 1.378 . S
C652 C653 1.367 . S
C653 C652 1.367 . S
C653 C655 1.433 . S
C654 C650 1.350 . S
C654 C651 1.463 . S
C654 N658 1.427 . S
C655 H645 0.929 . S
C655 C653 1.433 . S
C655 N658 1.384 . S
C656 H647 0.929 . S
C656 C648 1.378 . S
C656 C651 1.350 . S
C657 H644 0.929 . S
C657 C649 1.433 . S
C657 N659 1.384 . S
N658 C654 1.427 . S
N658 C655 1.384 . S
N659 C651 1.427 . S
N659 C657 1.384 . S
H660 C666 0.930 . S
H661 C670 0.930 . S
H662 C675 0.929 . S
H663 C673 0.929 . S
H664 C668 0.929 . S
H665 C674 0.929 . S
C666 H660 0.930 . S
C666 C667 1.367 . S
C666 C674 1.378 . S
C667 C666 1.367 . S
C667 C675 1.433 . S
C668 H664 0.929 . S
C668 C670 1.378 . S
C668 C672 1.350 . S
C669 C672 1.463 . S
C669 C674 1.350 . S
C669 N677 1.427 . S
C670 H661 0.930 . S
C670 C668 1.378 . S
C670 C671 1.367 . S
C671 C670 1.367 . S
C671 C673 1.433 . S
C672 C668 1.350 . S
C672 C669 1.463 . S
C672 N676 1.427 . S
C673 H663 0.929 . S
C673 C671 1.433 . S
C673 N676 1.384 . S
C674 H665 0.929 . S
C674 C666 1.378 . S
C674 C669 1.350 . S
C675 H662 0.929 . S
C675 C667 1.433 . S
C675 N677 1.384 . S
N676 C672 1.427 . S
N676 C673 1.384 . S
N677 C669 1.427 . S
N677 C675 1.384 . S
H678 C684 0.930 . S
H679 C688 0.930 . S
H680 C693 0.929 . S
H681 C691 0.929 . S
H682 C686 0.929 . S
H683 C692 0.929 . S
C684 H678 0.930 . S
C684 C685 1.367 . S
C684 C692 1.378 . S
C685 C684 1.367 . S
C685 C693 1.433 . S
C686 H682 0.929 . S
C686 C688 1.378 . S
C686 C690 1.350 . S
C687 C690 1.463 . S
C687 C692 1.350 . S
C687 N695 1.427 . S
C688 H679 0.930 . S
C688 C686 1.378 . S
C688 C689 1.367 . S
C689 C688 1.367 . S
C689 C691 1.433 . S
C690 C686 1.350 . S
C690 C687 1.463 . S
C690 N694 1.427 . S
C691 H681 0.929 . S
C691 C689 1.433 . S
C691 N694 1.384 . S
C692 H683 0.929 . S
C692 C684 1.378 . S
C692 C687 1.350 . S
C693 H680 0.929 . S
C693 C685 1.433 . S
C693 N695 1.384 . S
N694 C690 1.427 . S
N694 C691 1.384 . S
N695 C687 1.427 . S
N695 C693 1.384 . S
H696 C702 0.930 . S
H697 C706 0.930 . S
H698 C711 0.929 . S
H699 C709 0.929 . S
H700 C704 0.929 . S
H701 C710 0.929 . S
C702 H696 0.930 . S
C702 C703 1.367 . S
C702 C710 1.378 . S
C703 C702 1.367 . S
C703 C711 1.433 . S
C704 H700 0.929 . S
C704 C706 1.378 . S
C704 C708 1.350 . S
C705 C708 1.463 . S
C705 C710 1.350 . S
C705 N713 1.427 . S
C706 H697 0.930 . S
C706 C704 1.378 . S
C706 C707 1.367 . S
C707 C706 1.367 . S
C707 C709 1.433 . S
C708 C704 1.350 . S
C708 C705 1.463 . S
C708 N712 1.427 . S
C709 H699 0.929 . S
C709 C707 1.433 . S
C709 N712 1.384 . S
C710 H701 0.929 . S
C710 C702 1.378 . S
C710 C705 1.350 . S
C711 H698 0.929 . S
C711 C703 1.433 . S
C711 N713 1.384 . S
N712 C708 1.427 . S
N712 C709 1.384 . S
N713 C705 1.427 . S
N713 C711 1.384 . S
H714 C720 0.930 . S
H715 C724 0.930 . S
H716 C729 0.929 . S
H717 C727 0.929 . S
H718 C722 0.929 . S
H719 C728 0.929 . S
C720 H714 0.930 . S
C720 C721 1.367 . S
C720 C728 1.378 . S
C721 C720 1.367 . S
C721 C729 1.433 . S
C722 H718 0.929 . S
C722 C724 1.378 . S
C722 C726 1.350 . S
C723 C726 1.463 . S
C723 C728 1.350 . S
C723 N731 1.427 . S
C724 H715 0.930 . S
C724 C722 1.378 . S
C724 C725 1.367 . S
C725 C724 1.367 . S
C725 C727 1.433 . S
C726 C722 1.350 . S
C726 C723 1.463 . S
C726 N730 1.427 . S
C727 H717 0.929 . S
C727 C725 1.433 . S
C727 N730 1.384 . S
C728 H719 0.929 . S
C728 C720 1.378 . S
C728 C723 1.350 . S
C729 H716 0.929 . S
C729 C721 1.433 . S
C729 N731 1.384 . S
N730 C726 1.427 . S
N730 C727 1.384 . S
N731 C723 1.427 . S
N731 C729 1.384 . S
H732 C738 0.930 . S
H733 C742 0.930 . S
H734 C747 0.929 . S
H735 C745 0.929 . S
H736 C740 0.929 . S
H737 C746 0.929 . S
C738 H732 0.930 . S
C738 C739 1.367 . S
C738 C746 1.378 . S
C739 C738 1.367 . S
C739 C747 1.433 . S
C740 H736 0.929 . S
C740 C742 1.378 . S
C740 C744 1.350 . S
C741 C744 1.463 . S
C741 C746 1.350 . S
C741 N749 1.427 . S
C742 H733 0.930 . S
C742 C740 1.378 . S
C742 C743 1.367 . S
C743 C742 1.367 . S
C743 C745 1.433 . S
C744 C740 1.350 . S
C744 C741 1.463 . S
C744 N748 1.427 . S
C745 H735 0.929 . S
C745 C743 1.433 . S
C745 N748 1.384 . S
C746 H737 0.929 . S
C746 C738 1.378 . S
C746 C741 1.350 . S
C747 H734 0.929 . S
C747 C739 1.433 . S
C747 N749 1.384 . S
N748 C744 1.427 . S
N748 C745 1.384 . S
N749 C741 1.427 . S
N749 C747 1.384 . S
H750 C756 0.930 . S
H751 C760 0.930 . S
H752 C765 0.929 . S
H753 C763 0.929 . S
H754 C758 0.929 . S
H755 C764 0.929 . S
C756 H750 0.930 . S
C756 C757 1.367 . S
C756 C764 1.378 . S
C757 C756 1.367 . S
C757 C765 1.433 . S
C758 H754 0.929 . S
C758 C760 1.378 . S
C758 C762 1.350 . S
C759 C762 1.463 . S
C759 C764 1.350 . S
C759 N767 1.427 . S
C760 H751 0.930 . S
C760 C758 1.378 . S
C760 C761 1.367 . S
C761 C760 1.367 . S
C761 C763 1.433 . S
C762 C758 1.350 . S
C762 C759 1.463 . S
C762 N766 1.427 . S
C763 H753 0.929 . S
C763 C761 1.433 . S
C763 N766 1.384 . S
C764 H755 0.929 . S
C764 C756 1.378 . S
C764 C759 1.350 . S
C765 H752 0.929 . S
C765 C757 1.433 . S
C765 N767 1.384 . S
N766 C762 1.427 . S
N766 C763 1.384 . S
N767 C759 1.427 . S
N767 C765 1.384 . S
H768 C774 0.930 . S
H769 C778 0.930 . S
H770 C783 0.929 . S
H771 C781 0.929 . S
H772 C776 0.929 . S
H773 C782 0.929 . S
C774 H768 0.930 . S
C774 C775 1.367 . S
C774 C782 1.378 . S
C775 C774 1.367 . S
C775 C783 1.433 . S
C776 H772 0.929 . S
C776 C778 1.378 . S
C776 C780 1.350 . S
C777 C780 1.463 . S
C777 C782 1.350 . S
C777 N785 1.427 . S
C778 H769 0.930 . S
C778 C776 1.378 . S
C778 C779 1.367 . S
C779 C778 1.367 . S
C779 C781 1.433 . S
C780 C776 1.350 . S
C780 C777 1.463 . S
C780 N784 1.427 . S
C781 H771 0.929 . S
C781 C779 1.433 . S
C781 N784 1.384 . S
C782 H773 0.929 . S
C782 C774 1.378 . S
C782 C777 1.350 . S
C783 H770 0.929 . S
C783 C775 1.433 . S
C783 N785 1.384 . S
N784 C780 1.427 . S
N784 C781 1.384 . S
N785 C777 1.427 . S
N785 C783 1.384 . S
H786 C792 0.930 . S
H787 C796 0.930 . S
H788 C801 0.929 . S
H789 C799 0.929 . S
H790 C794 0.929 . S
H791 C800 0.929 . S
C792 H786 0.930 . S
C792 C793 1.367 . S
C792 C800 1.378 . S
C793 C792 1.367 . S
C793 C801 1.433 . S
C794 H790 0.929 . S
C794 C796 1.378 . S
C794 C798 1.350 . S
C795 C798 1.463 . S
C795 C800 1.350 . S
C795 N803 1.427 . S
C796 H787 0.930 . S
C796 C794 1.378 . S
C796 C797 1.367 . S
C797 C796 1.367 . S
C797 C799 1.433 . S
C798 C794 1.350 . S
C798 C795 1.463 . S
C798 N802 1.427 . S
C799 H789 0.929 . S
C799 C797 1.433 . S
C799 N802 1.384 . S
C800 H791 0.929 . S
C800 C792 1.378 . S
C800 C795 1.350 . S
C801 H788 0.929 . S
C801 C793 1.433 . S
C801 N803 1.384 . S
N802 C798 1.427 . S
N802 C799 1.384 . S
N803 C795 1.427 . S
N803 C801 1.384 . S
H804 C810 0.930 . S
H805 C814 0.930 . S
H806 C819 0.929 . S
H807 C817 0.929 . S
H808 C812 0.929 . S
H809 C818 0.929 . S
C810 H804 0.930 . S
C810 C811 1.367 . S
C810 C818 1.378 . S
C811 C810 1.367 . S
C811 C819 1.433 . S
C812 H808 0.929 . S
C812 C814 1.378 . S
C812 C816 1.350 . S
C813 C816 1.463 . S
C813 C818 1.350 . S
C813 N821 1.427 . S
C814 H805 0.930 . S
C814 C812 1.378 . S
C814 C815 1.367 . S
C815 C814 1.367 . S
C815 C817 1.433 . S
C816 C812 1.350 . S
C816 C813 1.463 . S
C816 N820 1.427 . S
C817 H807 0.929 . S
C817 C815 1.433 . S
C817 N820 1.384 . S
C818 H809 0.929 . S
C818 C810 1.378 . S
C818 C813 1.350 . S
C819 H806 0.929 . S
C819 C811 1.433 . S
C819 N821 1.384 . S
N820 C816 1.427 . S
N820 C817 1.384 . S
N821 C813 1.427 . S
N821 C819 1.384 . S
H822 C828 0.930 . S
H823 C832 0.930 . S
H824 C837 0.929 . S
H825 C835 0.929 . S
H826 C830 0.929 . S
H827 C836 0.929 . S
C828 H822 0.930 . S
C828 C829 1.367 . S
C828 C836 1.378 . S
C829 C828 1.367 . S
C829 C837 1.433 . S
C830 H826 0.929 . S
C830 C832 1.378 . S
C830 C834 1.350 . S
C831 C834 1.463 . S
C831 C836 1.350 . S
C831 N839 1.427 . S
C832 H823 0.930 . S
C832 C830 1.378 . S
C832 C833 1.367 . S
C833 C832 1.367 . S
C833 C835 1.433 . S
C834 C830 1.350 . S
C834 C831 1.463 . S
C834 N838 1.427 . S
C835 H825 0.929 . S
C835 C833 1.433 . S
C835 N838 1.384 . S
C836 H827 0.929 . S
C836 C828 1.378 . S
C836 C831 1.350 . S
C837 H824 0.929 . S
C837 C829 1.433 . S
C837 N839 1.384 . S
N838 C834 1.427 . S
N838 C835 1.384 . S
N839 C831 1.427 . S
N839 C837 1.384 . S
H840 C846 0.930 . S
H841 C850 0.930 . S
H842 C855 0.929 . S
H843 C853 0.929 . S
H844 C848 0.929 . S
H845 C854 0.929 . S
C846 H840 0.930 . S
C846 C847 1.367 . S
C846 C854 1.378 . S
C847 C846 1.367 . S
C847 C855 1.433 . S
C848 H844 0.929 . S
C848 C850 1.378 . S
C848 C852 1.350 . S
C849 C852 1.463 . S
C849 C854 1.350 . S
C849 N857 1.427 . S
C850 H841 0.930 . S
C850 C848 1.378 . S
C850 C851 1.367 . S
C851 C850 1.367 . S
C851 C853 1.433 . S
C852 C848 1.350 . S
C852 C849 1.463 . S
C852 N856 1.427 . S
C853 H843 0.929 . S
C853 C851 1.433 . S
C853 N856 1.384 . S
C854 H845 0.929 . S
C854 C846 1.378 . S
C854 C849 1.350 . S
C855 H842 0.929 . S
C855 C847 1.433 . S
C855 N857 1.384 . S
N856 C852 1.427 . S
N856 C853 1.384 . S
N857 C849 1.427 . S
N857 C855 1.384 . S
H858 C864 0.930 . S
H859 C868 0.930 . S
H860 C873 0.929 . S
H861 C871 0.929 . S
H862 C866 0.929 . S
H863 C872 0.929 . S
C864 H858 0.930 . S
C864 C865 1.367 . S
C864 C872 1.378 . S
C865 C864 1.367 . S
C865 C873 1.433 . S
C866 H862 0.929 . S
C866 C868 1.378 . S
C866 C870 1.350 . S
C867 C870 1.463 . S
C867 C872 1.350 . S
C867 N875 1.427 . S
C868 H859 0.930 . S
C868 C866 1.378 . S
C868 C869 1.367 . S
C869 C868 1.367 . S
C869 C871 1.433 . S
C870 C866 1.350 . S
C870 C867 1.463 . S
C870 N874 1.427 . S
C871 H861 0.929 . S
C871 C869 1.433 . S
C871 N874 1.384 . S
C872 H863 0.929 . S
C872 C864 1.378 . S
C872 C867 1.350 . S
C873 H860 0.929 . S
C873 C865 1.433 . S
C873 N875 1.384 . S
N874 C870 1.427 . S
N874 C871 1.384 . S
N875 C867 1.427 . S
N875 C873 1.384 . S
H876 C882 0.930 . S
H877 C886 0.930 . S
H878 C891 0.929 . S
H879 C889 0.929 . S
H880 C884 0.929 . S
H881 C890 0.929 . S
C882 H876 0.930 . S
C882 C883 1.367 . S
C882 C890 1.378 . S
C883 C882 1.367 . S
C883 C891 1.433 . S
C884 H880 0.929 . S
C884 C886 1.378 . S
C884 C888 1.350 . S
C885 C888 1.463 . S
C885 C890 1.350 . S
C885 N893 1.427 . S
C886 H877 0.930 . S
C886 C884 1.378 . S
C886 C887 1.367 . S
C887 C886 1.367 . S
C887 C889 1.433 . S
C888 C884 1.350 . S
C888 C885 1.463 . S
C888 N892 1.427 . S
C889 H879 0.929 . S
C889 C887 1.433 . S
C889 N892 1.384 . S
C890 H881 0.929 . S
C890 C882 1.378 . S
C890 C885 1.350 . S
C891 H878 0.929 . S
C891 C883 1.433 . S
C891 N893 1.384 . S
N892 C888 1.427 . S
N892 C889 1.384 . S
N893 C885 1.427 . S
N893 C891 1.384 . S
H894 C900 0.930 . S
H895 C904 0.930 . S
H896 C909 0.929 . S
H897 C907 0.929 . S
H898 C902 0.929 . S
H899 C908 0.929 . S
C900 H894 0.930 . S
C900 C901 1.367 . S
C900 C908 1.378 . S
C901 C900 1.367 . S
C901 C909 1.433 . S
C902 H898 0.929 . S
C902 C904 1.378 . S
C902 C906 1.350 . S
C903 C906 1.463 . S
C903 C908 1.350 . S
C903 N911 1.427 . S
C904 H895 0.930 . S
C904 C902 1.378 . S
C904 C905 1.367 . S
C905 C904 1.367 . S
C905 C907 1.433 . S
C906 C902 1.350 . S
C906 C903 1.463 . S
C906 N910 1.427 . S
C907 H897 0.929 . S
C907 C905 1.433 . S
C907 N910 1.384 . S
C908 H899 0.929 . S
C908 C900 1.378 . S
C908 C903 1.350 . S
C909 H896 0.929 . S
C909 C901 1.433 . S
C909 N911 1.384 . S
N910 C906 1.427 . S
N910 C907 1.384 . S
N911 C903 1.427 . S
N911 C909 1.384 . S
H912 C918 0.930 . S
H913 C922 0.930 . S
H914 C927 0.929 . S
H915 C925 0.929 . S
H916 C920 0.929 . S
H917 C926 0.929 . S
C918 H912 0.930 . S
C918 C919 1.367 . S
C918 C926 1.378 . S
C919 C918 1.367 . S
C919 C927 1.433 . S
C920 H916 0.929 . S
C920 C922 1.378 . S
C920 C924 1.350 . S
C921 C924 1.463 . S
C921 C926 1.350 . S
C921 N929 1.427 . S
C922 H913 0.930 . S
C922 C920 1.378 . S
C922 C923 1.367 . S
C923 C922 1.367 . S
C923 C925 1.433 . S
C924 C920 1.350 . S
C924 C921 1.463 . S
C924 N928 1.427 . S
C925 H915 0.929 . S
C925 C923 1.433 . S
C925 N928 1.384 . S
C926 H917 0.929 . S
C926 C918 1.378 . S
C926 C921 1.350 . S
C927 H914 0.929 . S
C927 C919 1.433 . S
C927 N929 1.384 . S
N928 C924 1.427 . S
N928 C925 1.384 . S
N929 C921 1.427 . S
N929 C927 1.384 . S
H930 C936 0.930 . S
H931 C940 0.930 . S
H932 C945 0.929 . S
H933 C943 0.929 . S
H934 C938 0.929 . S
H935 C944 0.929 . S
C936 H930 0.930 . S
C936 C937 1.367 . S
C936 C944 1.378 . S
C937 C936 1.367 . S
C937 C945 1.433 . S
C938 H934 0.929 . S
C938 C940 1.378 . S
C938 C942 1.350 . S
C939 C942 1.463 . S
C939 C944 1.350 . S
C939 N947 1.427 . S
C940 H931 0.930 . S
C940 C938 1.378 . S
C940 C941 1.367 . S
C941 C940 1.367 . S
C941 C943 1.433 . S
C942 C938 1.350 . S
C942 C939 1.463 . S
C942 N946 1.427 . S
C943 H933 0.929 . S
C943 C941 1.433 . S
C943 N946 1.384 . S
C944 H935 0.929 . S
C944 C936 1.378 . S
C944 C939 1.350 . S
C945 H932 0.929 . S
C945 C937 1.433 . S
C945 N947 1.384 . S
N946 C942 1.427 . S
N946 C943 1.384 . S
N947 C939 1.427 . S
N947 C945 1.384 . S
H948 C954 0.930 . S
H949 C958 0.930 . S
H950 C963 0.929 . S
H951 C961 0.929 . S
H952 C956 0.929 . S
H953 C962 0.929 . S
C954 H948 0.930 . S
C954 C955 1.367 . S
C954 C962 1.378 . S
C955 C954 1.367 . S
C955 C963 1.433 . S
C956 H952 0.929 . S
C956 C958 1.378 . S
C956 C960 1.350 . S
C957 C960 1.463 . S
C957 C962 1.350 . S
C957 N965 1.427 . S
C958 H949 0.930 . S
C958 C956 1.378 . S
C958 C959 1.367 . S
C959 C958 1.367 . S
C959 C961 1.433 . S
C960 C956 1.350 . S
C960 C957 1.463 . S
C960 N964 1.427 . S
C961 H951 0.929 . S
C961 C959 1.433 . S
C961 N964 1.384 . S
C962 H953 0.929 . S
C962 C954 1.378 . S
C962 C957 1.350 . S
C963 H950 0.929 . S
C963 C955 1.433 . S
C963 N965 1.384 . S
N964 C960 1.427 . S
N964 C961 1.384 . S
N965 C957 1.427 . S
N965 C963 1.384 . S
H966 C972 0.930 . S
H967 C976 0.930 . S
H968 C981 0.929 . S
H969 C979 0.929 . S
H970 C974 0.929 . S
H971 C980 0.929 . S
C972 H966 0.930 . S
C972 C973 1.367 . S
C972 C980 1.378 . S
C973 C972 1.367 . S
C973 C981 1.433 . S
C974 H970 0.929 . S
C974 C976 1.378 . S
C974 C978 1.350 . S
C975 C978 1.463 . S
C975 C980 1.350 . S
C975 N983 1.427 . S
C976 H967 0.930 . S
C976 C974 1.378 . S
C976 C977 1.367 . S
C977 C976 1.367 . S
C977 C979 1.433 . S
C978 C974 1.350 . S
C978 C975 1.463 . S
C978 N982 1.427 . S
C979 H969 0.929 . S
C979 C977 1.433 . S
C979 N982 1.384 . S
C980 H971 0.929 . S
C980 C972 1.378 . S
C980 C975 1.350 . S
C981 H968 0.929 . S
C981 C973 1.433 . S
C981 N983 1.384 . S
N982 C978 1.427 . S
N982 C979 1.384 . S
N983 C975 1.427 . S
N983 C981 1.384 . S
H984 C990 0.930 . S
H985 C994 0.930 . S
H986 C999 0.929 . S
H987 C997 0.929 . S
H988 C992 0.929 . S
H989 C998 0.929 . S
C990 H984 0.930 . S
C990 C991 1.367 . S
C990 C998 1.378 . S
C991 C990 1.367 . S
C991 C999 1.433 . S
C992 H988 0.929 . S
C992 C994 1.378 . S
C992 C996 1.350 . S
C993 C996 1.463 . S
C993 C998 1.350 . S
C993 N1001 1.427 . S
C994 H985 0.930 . S
C994 C992 1.378 . S
C994 C995 1.367 . S
C995 C994 1.367 . S
C995 C997 1.433 . S
C996 C992 1.350 . S
C996 C993 1.463 . S
C996 N1000 1.427 . S
C997 H987 0.929 . S
C997 C995 1.433 . S
C997 N1000 1.384 . S
C998 H989 0.929 . S
C998 C990 1.378 . S
C998 C993 1.350 . S
C999 H986 0.929 . S
C999 C991 1.433 . S
C999 N1001 1.384 . S
N1000 C996 1.427 . S
N1000 C997 1.384 . S
N1001 C993 1.427 . S
N1001 C999 1.384 . S
H1002 C1008 0.930 . S
H1003 C1012 0.930 . S
H1004 C1017 0.929 . S
H1005 C1015 0.929 . S
H1006 C1010 0.929 . S
H1007 C1016 0.929 . S
C1008 H1002 0.930 . S
C1008 C1009 1.367 . S
C1008 C1016 1.378 . S
C1009 C1008 1.367 . S
C1009 C1017 1.433 . S
C1010 H1006 0.929 . S
C1010 C1012 1.378 . S
C1010 C1014 1.350 . S
C1011 C1014 1.463 . S
C1011 C1016 1.350 . S
C1011 N1019 1.427 . S
C1012 H1003 0.930 . S
C1012 C1010 1.378 . S
C1012 C1013 1.367 . S
C1013 C1012 1.367 . S
C1013 C1015 1.433 . S
C1014 C1010 1.350 . S
C1014 C1011 1.463 . S
C1014 N1018 1.427 . S
C1015 H1005 0.929 . S
C1015 C1013 1.433 . S
C1015 N1018 1.384 . S
C1016 H1007 0.929 . S
C1016 C1008 1.378 . S
C1016 C1011 1.350 . S
C1017 H1004 0.929 . S
C1017 C1009 1.433 . S
C1017 N1019 1.384 . S
N1018 C1014 1.427 . S
N1018 C1015 1.384 . S
N1019 C1011 1.427 . S
N1019 C1017 1.384 . S
H1020 C1026 0.930 . S
H1021 C1030 0.930 . S
H1022 C1035 0.929 . S
H1023 C1033 0.929 . S
H1024 C1028 0.929 . S
H1025 C1034 0.929 . S
C1026 H1020 0.930 . S
C1026 C1027 1.367 . S
C1026 C1034 1.378 . S
C1027 C1026 1.367 . S
C1027 C1035 1.433 . S
C1028 H1024 0.929 . S
C1028 C1030 1.378 . S
C1028 C1032 1.350 . S
C1029 C1032 1.463 . S
C1029 C1034 1.350 . S
C1029 N1037 1.427 . S
C1030 H1021 0.930 . S
C1030 C1028 1.378 . S
C1030 C1031 1.367 . S
C1031 C1030 1.367 . S
C1031 C1033 1.433 . S
C1032 C1028 1.350 . S
C1032 C1029 1.463 . S
C1032 N1036 1.427 . S
C1033 H1023 0.929 . S
C1033 C1031 1.433 . S
C1033 N1036 1.384 . S
C1034 H1025 0.929 . S
C1034 C1026 1.378 . S
C1034 C1029 1.350 . S
C1035 H1022 0.929 . S
C1035 C1027 1.433 . S
C1035 N1037 1.384 . S
N1036 C1032 1.427 . S
N1036 C1033 1.384 . S
N1037 C1029 1.427 . S
N1037 C1035 1.384 . S
C617 C310 1.552 . S
C613 C25 1.552 . S
C635 C379 1.541 . S
C631 C37 1.546 . S
C653 C317 1.564 . S
C649 C103 1.561 . S
C671 C380 1.550 . S
C667 C139 1.551 . S
C689 C433 1.548 . S
C685 C31 1.550 . S
C707 C469 1.524 . S
C703 C67 1.525 . S
C721 C97 1.558 . S
C725 C529 1.565 . S
C743 C592 1.517 . S
C739 C133 1.516 . S
C761 C432 1.539 . S
C757 C61 1.544 . S
C775 C73 1.524 . S
C779 C476 1.531 . S
C797 C522 1.555 . S
C793 C109 1.564 . S
C815 C591 1.522 . S
C811 C1 1.525 . S
C829 C169 1.550 . S
C833 C370 1.555 . S
C851 C327 1.552 . S
C847 C211 1.549 . S
C865 C241 1.548 . S
C869 C363 1.539 . S
C883 C253 1.547 . S
C887 C326 1.547 . S
C905 C538 1.563 . S
C901 C175 1.554 . S
C923 C582 1.523 . S
C919 C205 1.510 . S
C941 C416 1.542 . S
C937 C217 1.550 . S
C955 C283 1.521 . S
C959 C485 1.528 . S
C977 C539 1.557 . S
C973 C181 1.558 . S
C995 C575 1.523 . S
C991 C247 1.525 . S
C1013 C423 1.550 . S
C1009 C277 1.543 . S
C1027 C145 1.525 . S
C1031 C486 1.534 . S
