# Generated by pormake.
# Topology llj, (12,3)-cn, num edge types: 1
# Building blocks:
#     Node 0, Type 0, BuildingBlock: QEWDON_clean_sbu_0, # of connection points: 12
#     Node 1, Type 0, BuildingBlock: QEWDON_clean_sbu_0, # of connection points: 12
#     Node 2, Type 1, BuildingBlock: CUQRIR_clean_linker_1, # of connection points: 3
#     Node 3, Type 1, BuildingBlock: CUQRIR_clean_linker_1, # of connection points: 3
#     Node 4, Type 1, BuildingBlock: CUQRIR_clean_linker_1, # of connection points: 3
#     Node 5, Type 1, BuildingBlock: CUQRIR_clean_linker_1, # of connection points: 3
#     Node 6, Type 1, BuildingBlock: CUQRIR_clean_linker_1, # of connection points: 3
#     Node 7, Type 1, BuildingBlock: CUQRIR_clean_linker_1, # of connection points: 3
#     Node 8, Type 1, BuildingBlock: CUQRIR_clean_linker_1, # of connection points: 3
#     Node 9, Type 1, BuildingBlock: CUQRIR_clean_linker_1, # of connection points: 3
#     Edge 10, Type (0, 1), BuildingBlock: MIFKUJ_clean_linker_0, # of connection points: 2
#     Edge 11, Type (0, 1), BuildingBlock: MIFKUJ_clean_linker_0, # of connection points: 2
#     Edge 12, Type (0, 1), BuildingBlock: MIFKUJ_clean_linker_0, # of connection points: 2
#     Edge 13, Type (0, 1), BuildingBlock: MIFKUJ_clean_linker_0, # of connection points: 2
#     Edge 14, Type (0, 1), BuildingBlock: MIFKUJ_clean_linker_0, # of connection points: 2
#     Edge 15, Type (0, 1), BuildingBlock: MIFKUJ_clean_linker_0, # of connection points: 2
#     Edge 16, Type (0, 1), BuildingBlock: MIFKUJ_clean_linker_0, # of connection points: 2
#     Edge 17, Type (0, 1), BuildingBlock: MIFKUJ_clean_linker_0, # of connection points: 2
#     Edge 18, Type (0, 1), BuildingBlock: MIFKUJ_clean_linker_0, # of connection points: 2
#     Edge 19, Type (0, 1), BuildingBlock: MIFKUJ_clean_linker_0, # of connection points: 2
#     Edge 20, Type (0, 1), BuildingBlock: MIFKUJ_clean_linker_0, # of connection points: 2
#     Edge 21, Type (0, 1), BuildingBlock: MIFKUJ_clean_linker_0, # of connection points: 2
#     Edge 22, Type (0, 1), BuildingBlock: MIFKUJ_clean_linker_0, # of connection points: 2
#     Edge 23, Type (0, 1), BuildingBlock: MIFKUJ_clean_linker_0, # of connection points: 2
#     Edge 24, Type (0, 1), BuildingBlock: MIFKUJ_clean_linker_0, # of connection points: 2
#     Edge 25, Type (0, 1), BuildingBlock: MIFKUJ_clean_linker_0, # of connection points: 2
#     Edge 26, Type (0, 1), BuildingBlock: MIFKUJ_clean_linker_0, # of connection points: 2
#     Edge 27, Type (0, 1), BuildingBlock: MIFKUJ_clean_linker_0, # of connection points: 2
#     Edge 28, Type (0, 1), BuildingBlock: MIFKUJ_clean_linker_0, # of connection points: 2
#     Edge 29, Type (0, 1), BuildingBlock: MIFKUJ_clean_linker_0, # of connection points: 2
#     Edge 30, Type (0, 1), BuildingBlock: MIFKUJ_clean_linker_0, # of connection points: 2
#     Edge 31, Type (0, 1), BuildingBlock: MIFKUJ_clean_linker_0, # of connection points: 2
#     Edge 32, Type (0, 1), BuildingBlock: MIFKUJ_clean_linker_0, # of connection points: 2
#     Edge 33, Type (0, 1), BuildingBlock: MIFKUJ_clean_linker_0, # of connection points: 2
# Relax obj value: 0.011
# Max RMSD: 0.121
# Mean RMSD: 0.104
data_MOF--net-llj--node1-QEWDON_clean_sbu_0--node2-CUQRIR_clean_linker_1--edge1-MIFKUJ_clean_linker_0
_symmetry_space_group_name_H-M    P1
_symmetry_Int_Tables_number       1
_symmetry_cell_setting            triclinic
loop_
_symmetry_equiv_pos_as_xyz
'x, y, z'
_cell_length_a     47.311767
_cell_length_b     47.340862
_cell_length_c     29.554271
_cell_angle_alpha  89.987052
_cell_angle_beta   90.015084
_cell_angle_gamma 90.115392
loop_
_atom_site_label
_atom_site_type_symbol
_atom_site_fract_x
_atom_site_fract_y
_atom_site_fract_z
_atom_type_partial_charge
Zn0 Zn 0.94044 0.06442 0.95741 0.0
Zn1 Zn 0.95314 0.06211 0.06103 0.0
O2 O 0.97303 0.06451 0.00201 0.0
H3 H 0.99227 0.05897 0.99564 0.0
C4 C 0.92725 0.99661 0.89131 0.0
O5 O 0.91414 0.00406 0.92863 0.0
Zn6 Zn 0.05024 0.93785 0.06156 0.0
Zn7 Zn 0.06105 0.93161 0.95591 0.0
O8 O 0.0301 0.93838 0.00238 0.0
H9 H 0.01191 0.94682 0.99633 0.0
Zn10 Zn 0.95184 0.95791 0.95616 0.0
O11 O 0.96109 0.98364 0.00959 0.0
Zn12 Zn 0.95243 0.95992 0.06435 0.0
H13 H 0.97527 0.99833 0.00804 0.0
Zn14 Zn 0.05852 0.04153 0.95691 0.0
O15 O 0.04477 0.01835 0.01002 0.0
H16 H 0.03139 0.00295 0.00796 0.0
Zn17 Zn 0.05153 0.04271 0.06392 0.0
C18 C 0.07851 0.99784 0.89445 0.0
O19 O 0.09002 0.98806 0.93175 0.0
O20 O 0.90379 0.08053 0.98429 0.0
O21 O 0.9143 0.08014 0.05771 0.0
O22 O 0.09765 0.91421 0.98252 0.0
O23 O 0.08746 0.9163 0.05598 0.0
O24 O 0.92509 0.92514 0.97356 0.0
O25 O 0.92186 0.93142 0.04815 0.0
C26 C 0.00291 0.07585 0.11021 0.0
O27 O 0.08234 0.07662 0.97389 0.0
O28 O 0.07921 0.07472 0.04906 0.0
O29 O 0.04745 0.92 0.89165 0.0
C30 C 0.89731 0.08572 0.02534 0.0
O31 O 0.95172 0.07378 0.89147 0.0
C32 C 0.99939 0.92555 0.11105 0.0
O33 O 0.94534 0.97682 0.8932 0.0
C34 C 0.10389 0.90916 0.02374 0.0
O35 O 0.06457 0.02072 0.89598 0.0
C36 C 0.94222 0.01073 0.11412 0.0
O37 O 0.97661 0.0811 0.1083 0.0
O38 O 0.01329 0.0592 0.08069 0.0
C39 C 0.91442 0.91881 0.01186 0.0
O40 O 0.02542 0.91944 0.10889 0.0
O41 O 0.98904 0.94061 0.07951 0.0
C42 C 0.06729 0.99161 0.1142 0.0
O43 O 0.94081 0.98406 0.11803 0.0
O44 O 0.94953 0.02123 0.07646 0.0
C45 C 0.08878 0.08611 0.01295 0.0
O46 O 0.06721 0.01845 0.11437 0.0
O47 O 0.05726 0.97883 0.07971 0.0
C48 C 0.02938 0.93587 0.8726 0.0
O49 O 0.02087 0.95871 0.89383 0.0
C50 C 0.9724 0.05903 0.87786 0.0
O51 O 0.98241 0.03932 0.90475 0.0
Zn52 Zn 0.45229 0.55776 0.46012 0.0
Zn53 Zn 0.45198 0.55333 0.56758 0.0
O54 O 0.4769 0.5487 0.51403 0.0
H55 H 0.49251 0.53565 0.51245 0.0
C56 C 0.45119 0.48119 0.3813 0.0
O57 O 0.4739 0.48856 0.40407 0.0
Zn58 Zn 0.54297 0.44038 0.56815 0.0
Zn59 Zn 0.54571 0.43745 0.46239 0.0
O60 O 0.51809 0.44214 0.5139 0.0
H61 H 0.50111 0.45331 0.51137 0.0
Zn62 Zn 0.44062 0.44706 0.46291 0.0
O63 O 0.44838 0.47451 0.51405 0.0
Zn64 Zn 0.44352 0.45145 0.57024 0.0
H65 H 0.46026 0.491 0.51094 0.0
Zn66 Zn 0.56148 0.53999 0.4652 0.0
O67 O 0.5462 0.51754 0.51731 0.0
H68 H 0.53188 0.50318 0.51337 0.0
Zn69 Zn 0.55253 0.54127 0.57276 0.0
C70 C 0.57792 0.49767 0.39946 0.0
O71 O 0.58933 0.48699 0.43622 0.0
O72 O 0.41611 0.57945 0.47654 0.0
O73 O 0.41733 0.57715 0.55173 0.0
O74 O 0.5804 0.41355 0.48006 0.0
O75 O 0.57848 0.41752 0.55525 0.0
O76 O 0.41734 0.41222 0.48261 0.0
O77 O 0.41906 0.41694 0.55749 0.0
C78 C 0.50104 0.56795 0.62134 0.0
O79 O 0.58947 0.57092 0.48474 0.0
O80 O 0.58133 0.57292 0.55905 0.0
O81 O 0.52811 0.43579 0.39808 0.0
C82 C 0.40564 0.58543 0.51509 0.0
O83 O 0.47272 0.56775 0.40041 0.0
C84 C 0.49487 0.42695 0.62293 0.0
O85 O 0.43384 0.46386 0.39896 0.0
C86 C 0.59032 0.4083 0.51933 0.0
O87 O 0.5644 0.5207 0.40233 0.0
C88 C 0.42685 0.50212 0.61803 0.0
O89 O 0.47443 0.571 0.6186 0.0
O90 O 0.51363 0.55576 0.58872 0.0
C91 C 0.41065 0.40382 0.5222 0.0
O92 O 0.52152 0.42382 0.6209 0.0
O93 O 0.48272 0.43931 0.58996 0.0
C94 C 0.56298 0.48974 0.6194 0.0
O95 O 0.42494 0.47539 0.61818 0.0
O96 O 0.44022 0.51379 0.58562 0.0
C97 C 0.59429 0.5816 0.52362 0.0
O98 O 0.56617 0.51621 0.62413 0.0
O99 O 0.55283 0.48033 0.58277 0.0
C100 C 0.50363 0.42474 0.39679 0.0
O101 O 0.49273 0.4147 0.4344 0.0
C102 C 0.49951 0.56979 0.40038 0.0
O103 O 0.5134 0.56533 0.43815 0.0
C104 C 0.30648 0.3198 0.98536 0.0
N105 N 0.32794 0.33736 0.99675 0.0
N106 N 0.29336 0.30986 0.02298 0.0
C107 C 0.30035 0.31009 0.93783 0.0
C108 C 0.3079 0.32191 0.05755 0.0
N109 N 0.32906 0.33841 0.04155 0.0
C110 C 0.30044 0.31899 0.10681 0.0
H111 H 0.28393 0.32396 0.92292 0.0
H112 H 0.2924 0.28803 0.93758 0.0
H113 H 0.31951 0.31141 0.91626 0.0
H114 H 0.31271 0.30131 0.12161 0.0
H115 H 0.27759 0.31444 0.1111 0.0
H116 H 0.30592 0.33856 0.12558 0.0
C117 C 0.68163 0.30629 0.98692 0.0
N118 N 0.667 0.33073 0.99018 0.0
N119 N 0.69305 0.29942 0.02737 0.0
C120 C 0.68522 0.28938 0.94421 0.0
C121 C 0.68516 0.32056 0.05527 0.0
N122 N 0.66959 0.33989 0.03249 0.0
C123 C 0.69208 0.32177 0.10495 0.0
H124 H 0.68649 0.30355 0.91436 0.0
H125 H 0.66659 0.27537 0.93993 0.0
H126 H 0.70437 0.27595 0.9456 0.0
H127 H 0.71151 0.33457 0.10974 0.0
H128 H 0.69601 0.30039 0.11887 0.0
H129 H 0.67466 0.33181 0.12416 0.0
C130 C 0.67178 0.70908 0.04775 0.0
N131 N 0.65162 0.69074 0.03366 0.0
N132 N 0.68587 0.72005 0.0119 0.0
C133 C 0.67915 0.71451 0.09653 0.0
C134 C 0.67358 0.70768 0.97556 0.0
N135 N 0.65298 0.68957 0.98881 0.0
C136 C 0.67979 0.71541 0.92713 0.0
H137 H 0.66637 0.73248 0.10912 0.0
H138 H 0.70186 0.71994 0.10029 0.0
H139 H 0.67431 0.69575 0.11767 0.0
H140 H 0.69621 0.70098 0.91367 0.0
H141 H 0.6878 0.7374 0.92462 0.0
H142 H 0.66057 0.71331 0.90585 0.0
C143 C 0.32136 0.67527 0.06676 0.0
N144 N 0.33605 0.65454 0.0459 0.0
N145 N 0.31027 0.69328 0.03588 0.0
C146 C 0.31936 0.67886 0.11721 0.0
C147 C 0.31877 0.68266 0.99551 0.0
N148 N 0.33469 0.65929 0.00174 0.0
C149 C 0.30932 0.6935 0.95007 0.0
H150 H 0.30095 0.66663 0.12984 0.0
H151 H 0.31641 0.70139 0.12636 0.0
H152 H 0.33863 0.67068 0.13412 0.0
H153 H 0.3249 0.70924 0.93771 0.0
H154 H 0.28835 0.70385 0.95248 0.0
H155 H 0.30807 0.6761 0.92499 0.0
C156 C 0.82662 0.7989 0.48609 0.0
N157 N 0.84836 0.81691 0.49467 0.0
N158 N 0.81693 0.78723 0.52489 0.0
C159 C 0.81651 0.79029 0.43976 0.0
C160 C 0.83368 0.79829 0.55744 0.0
N161 N 0.85283 0.81625 0.53915 0.0
C162 C 0.83061 0.79238 0.60718 0.0
H163 H 0.79943 0.80479 0.42884 0.0
H164 H 0.80776 0.76853 0.4403 0.0
H165 H 0.83396 0.79121 0.41474 0.0
H166 H 0.80869 0.78582 0.61555 0.0
H167 H 0.8364 0.81125 0.62745 0.0
H168 H 0.84512 0.77495 0.61654 0.0
C169 C 0.17508 0.80826 0.55017 0.0
N170 N 0.15996 0.82936 0.53121 0.0
N171 N 0.18554 0.79094 0.51783 0.0
C172 C 0.17899 0.80418 0.60022 0.0
C173 C 0.17628 0.80239 0.4785 0.0
N174 N 0.16052 0.82562 0.48677 0.0
C175 C 0.18483 0.79243 0.43215 0.0
H176 H 0.19753 0.8167 0.61153 0.0
H177 H 0.18278 0.78162 0.60839 0.0
H178 H 0.16019 0.81176 0.619 0.0
H179 H 0.16993 0.77568 0.42106 0.0
H180 H 0.20644 0.78337 0.43275 0.0
H181 H 0.18411 0.80988 0.40712 0.0
C182 C 0.17546 0.18582 0.55798 0.0
N183 N 0.1535 0.1711 0.54036 0.0
N184 N 0.18919 0.20025 0.52501 0.0
C185 C 0.1821 0.18791 0.60765 0.0
C186 C 0.17472 0.19386 0.48682 0.0
N187 N 0.15296 0.17634 0.49629 0.0
C188 C 0.18228 0.20401 0.44011 0.0
H189 H 0.19283 0.20817 0.61567 0.0
H190 H 0.19636 0.17031 0.61715 0.0
H191 H 0.16256 0.18613 0.62819 0.0
H192 H 0.2052 0.20875 0.43757 0.0
H193 H 0.17029 0.2236 0.43281 0.0
H194 H 0.17646 0.18807 0.41418 0.0
C195 C 0.82592 0.19122 0.5487 0.0
N196 N 0.8428 0.17156 0.52931 0.0
N197 N 0.81503 0.20869 0.51685 0.0
C198 C 0.81906 0.19284 0.59837 0.0
C199 C 0.82583 0.19885 0.47747 0.0
N200 N 0.84275 0.17639 0.48507 0.0
C201 C 0.82015 0.21135 0.43156 0.0
H202 H 0.8264 0.17404 0.6173 0.0
H203 H 0.79593 0.19538 0.60306 0.0
H204 H 0.82955 0.21171 0.61301 0.0
H205 H 0.81466 0.23406 0.4343 0.0
H206 H 0.80216 0.19998 0.41575 0.0
H207 H 0.83885 0.20888 0.40923 0.0
H208 H 0.12326 0.10053 0.08352 0.0
H209 H 0.15648 0.14002 0.08746 0.0
H210 H 0.1296 0.16775 0.95506 0.0
H211 H 0.09766 0.12731 0.94997 0.0
H212 H 0.18195 0.17218 0.95687 0.0
H213 H 0.11088 0.20187 0.06062 0.0
H214 H 0.07843 0.19928 0.12578 0.0
H215 H 0.14901 0.19095 0.21608 0.0
H216 H 0.18191 0.1931 0.15141 0.0
H217 H 0.24405 0.31027 0.97687 0.0
H218 H 0.20744 0.27336 0.97718 0.0
H219 H 0.25499 0.22658 0.07644 0.0
H220 H 0.29229 0.26263 0.07428 0.0
H221 H 0.1918 0.2337 0.09185 0.0
H222 H 0.26195 0.20421 0.98134 0.0
H223 H 0.29165 0.21171 0.91385 0.0
H224 H 0.21741 0.22477 0.83293 0.0
H225 H 0.18728 0.21794 0.90021 0.0
C226 C 0.12439 0.11513 0.05536 0.0
C227 C 0.10791 0.11079 0.0164 0.0
C228 C 0.14326 0.13788 0.05775 0.0
C229 C 0.14535 0.15731 0.02186 0.0
C230 C 0.12854 0.15312 0.9832 0.0
C231 C 0.11021 0.13 0.98034 0.0
C232 C 0.16584 0.18127 0.02366 0.0
C233 C 0.18365 0.18583 0.98624 0.0
C234 C 0.16858 0.19906 0.06208 0.0
C235 C 0.14886 0.19739 0.10107 0.0
C236 C 0.11948 0.19923 0.09432 0.0
C237 C 0.10101 0.19789 0.13118 0.0
C238 C 0.11166 0.19493 0.17501 0.0
C239 C 0.1408 0.19324 0.1821 0.0
C240 C 0.15937 0.19454 0.14536 0.0
C241 C 0.24665 0.29203 0.99855 0.0
C242 C 0.27094 0.28924 0.02552 0.0
C243 C 0.22573 0.27113 0.99895 0.0
C244 C 0.22858 0.24735 0.02691 0.0
C245 C 0.25236 0.24492 0.05494 0.0
C246 C 0.27354 0.26554 0.05385 0.0
C247 C 0.20743 0.2243 0.02526 0.0
C248 C 0.18972 0.21998 0.06264 0.0
C249 C 0.20426 0.20716 0.98647 0.0
C250 C 0.22238 0.21091 0.94593 0.0
C251 C 0.25197 0.20898 0.94927 0.0
C252 C 0.26888 0.21307 0.91103 0.0
C253 C 0.25643 0.21881 0.86916 0.0
C254 C 0.22703 0.22039 0.86541 0.0
C255 C 0.21003 0.21642 0.90359 0.0
H256 H 0.26956 0.22196 0.83959 0.0
H257 H 0.09733 0.19408 0.20344 0.0
H258 H 0.85858 0.10489 0.9644 0.0
H259 H 0.81884 0.136 0.97882 0.0
H260 H 0.83491 0.1313 0.12239 0.0
H261 H 0.87546 0.10051 0.10816 0.0
H262 H 0.7706 0.13617 0.02292 0.0
H263 H 0.82397 0.19873 0.16568 0.0
H264 H 0.87161 0.20653 0.19777 0.0
H265 H 0.90872 0.19155 0.06747 0.0
H266 H 0.86136 0.18401 0.03462 0.0
H267 H 0.67897 0.25185 0.07142 0.0
H268 H 0.70999 0.21111 0.08614 0.0
H269 H 0.77878 0.25471 0.01997 0.0
H270 H 0.74775 0.29535 0.0062 0.0
H271 H 0.79708 0.22738 0.09421 0.0
H272 H 0.73904 0.20738 0.96335 0.0
H273 H 0.69379 0.20148 0.923 0.0
H274 H 0.67004 0.13502 0.0144 0.0
H275 H 0.71502 0.14086 0.05576 0.0
C276 C 0.85351 0.11007 0.99916 0.0
C277 C 0.87058 0.10067 0.03505 0.0
C278 C 0.8306 0.12775 0.00737 0.0
C279 C 0.82418 0.13633 0.05159 0.0
C280 C 0.8398 0.12528 0.08791 0.0
C281 C 0.86296 0.10769 0.0797 0.0
C282 C 0.80318 0.1591 0.05837 0.0
C283 C 0.77621 0.15595 0.0392 0.0
C284 C 0.81065 0.18506 0.07901 0.0
C285 C 0.83919 0.19029 0.09801 0.0
C286 C 0.84233 0.19709 0.14399 0.0
C287 C 0.86925 0.20147 0.16228 0.0
C288 C 0.89316 0.19933 0.13477 0.0
C289 C 0.89019 0.19304 0.08881 0.0
C290 C 0.86333 0.18871 0.07036 0.0
C291 C 0.70082 0.25253 0.06057 0.0
C292 C 0.71126 0.27621 0.03754 0.0
C293 C 0.71845 0.22946 0.0689 0.0
C294 C 0.74662 0.22987 0.0539 0.0
C295 C 0.75717 0.25403 0.03202 0.0
C296 C 0.73956 0.27704 0.02387 0.0
C297 C 0.76477 0.20459 0.05797 0.0
C298 C 0.79116 0.2073 0.07919 0.0
C299 C 0.7571 0.17851 0.03803 0.0
C300 C 0.73021 0.17478 0.01296 0.0
C301 C 0.72407 0.19165 0.97504 0.0
C302 C 0.69849 0.18831 0.95196 0.0
C303 C 0.67901 0.16794 0.9662 0.0
C304 C 0.68512 0.15082 0.00347 0.0
C305 C 0.71065 0.15414 0.02675 0.0
H306 H 0.65922 0.16537 0.94829 0.0
H307 H 0.91398 0.20267 0.14901 0.0
H308 H 0.90844 0.87286 0.95728 0.0
H309 H 0.8708 0.83747 0.95921 0.0
H310 H 0.83215 0.88091 0.07174 0.0
H311 H 0.87083 0.91524 0.07173 0.0
H312 H 0.82667 0.82817 0.08492 0.0
H313 H 0.80953 0.88783 0.95641 0.0
H314 H 0.823 0.91195 0.8856 0.0
H315 H 0.83636 0.83178 0.82126 0.0
H316 H 0.82344 0.80717 0.89193 0.0
H317 H 0.6882 0.77011 0.05537 0.0
H318 H 0.72805 0.80347 0.05625 0.0
H319 H 0.77518 0.74804 0.96851 0.0
H320 H 0.7357 0.71432 0.96891 0.0
H321 H 0.77577 0.80643 0.9422 0.0
H322 H 0.79139 0.74773 0.0736 0.0
H323 H 0.77741 0.72536 0.14556 0.0
H324 H 0.76435 0.80706 0.20499 0.0
H325 H 0.77778 0.82992 0.13307 0.0
C326 C 0.89196 0.87472 0.98253 0.0
C327 C 0.89233 0.89689 0.01406 0.0
C328 C 0.87037 0.8546 0.98349 0.0
C329 C 0.84814 0.85693 0.01482 0.0
C330 C 0.84895 0.8787 0.0471 0.0
C331 C 0.87099 0.89835 0.04699 0.0
C332 C 0.8238 0.83705 0.01347 0.0
C333 C 0.81534 0.82377 0.05377 0.0
C334 C 0.80915 0.83093 0.97274 0.0
C335 C 0.81573 0.84566 0.9296 0.0
C336 C 0.81539 0.87534 0.92718 0.0
C337 C 0.82297 0.8891 0.8871 0.0
C338 C 0.83061 0.87341 0.849 0.0
C339 C 0.83048 0.84391 0.85082 0.0
C340 C 0.82301 0.83004 0.89087 0.0
C341 C 0.70721 0.76505 0.03671 0.0
C342 C 0.70906 0.73975 0.01217 0.0
C343 C 0.72981 0.78408 0.037 0.0
C344 C 0.7545 0.77812 0.01247 0.0
C345 C 0.75622 0.75303 0.98743 0.0
C346 C 0.73375 0.73388 0.98759 0.0
C347 C 0.77877 0.79784 0.01357 0.0
C348 C 0.78714 0.81103 0.97324 0.0
C349 C 0.79301 0.80426 0.05435 0.0
C350 C 0.78532 0.79053 0.0978 0.0
C351 C 0.78532 0.76092 0.10189 0.0
C352 C 0.77752 0.74815 0.14268 0.0
C353 C 0.76992 0.76477 0.17978 0.0
C354 C 0.7702 0.79421 0.1762 0.0
C355 C 0.77792 0.80708 0.13543 0.0
H356 H 0.76388 0.75485 0.21134 0.0
H357 H 0.83659 0.88411 0.81806 0.0
H358 H 0.1141 0.87599 0.09755 0.0
H359 H 0.15327 0.84333 0.10838 0.0
H360 H 0.19216 0.87406 0.98563 0.0
H361 H 0.15201 0.90546 0.97324 0.0
H362 H 0.19047 0.82179 0.98025 0.0
H363 H 0.2333 0.87874 0.10263 0.0
H364 H 0.23464 0.90603 0.17378 0.0
H365 H 0.18879 0.84012 0.24167 0.0
H366 H 0.18852 0.81183 0.17137 0.0
H367 H 0.31805 0.74543 0.00179 0.0
H368 H 0.28567 0.78567 0.00818 0.0
H369 H 0.23124 0.73656 0.095 0.0
H370 H 0.26311 0.69591 0.08713 0.0
H371 H 0.24191 0.7975 0.12122 0.0
H372 H 0.21145 0.73771 0.99717 0.0
H373 H 0.21977 0.71072 0.92711 0.0
H374 H 0.24617 0.78655 0.85934 0.0
H375 H 0.23852 0.8139 0.92934 0.0
C376 C 0.13125 0.8761 0.07327 0.0
C377 C 0.12979 0.89294 0.03414 0.0
C378 C 0.15391 0.85761 0.07981 0.0
C379 C 0.17596 0.85619 0.04801 0.0
C380 C 0.17536 0.8745 0.01053 0.0
C381 C 0.15239 0.89246 0.00341 0.0
C382 C 0.19739 0.8332 0.0502 0.0
C383 C 0.20203 0.817 0.011 0.0
C384 C 0.21202 0.82601 0.09042 0.0
C385 C 0.21049 0.84347 0.13176 0.0
C386 C 0.22335 0.87021 0.1327 0.0
C387 C 0.22421 0.88567 0.17297 0.0
C388 C 0.21158 0.87494 0.21213 0.0
C389 C 0.19848 0.84846 0.21129 0.0
C390 C 0.19825 0.83257 0.17141 0.0
C391 C 0.2992 0.74336 0.0223 0.0
C392 C 0.29283 0.71765 0.04365 0.0
C393 C 0.2809 0.7663 0.0262 0.0
C394 C 0.25612 0.76395 0.05197 0.0
C395 C 0.25039 0.73875 0.07521 0.0
C396 C 0.26854 0.71564 0.07077 0.0
C397 C 0.23509 0.78696 0.05126 0.0
C398 C 0.23037 0.80273 0.09062 0.0
C399 C 0.22072 0.7941 0.011 0.0
C400 C 0.22468 0.77779 0.96861 0.0
C401 C 0.21924 0.74858 0.96744 0.0
C402 C 0.22381 0.73322 0.92773 0.0
C403 C 0.23356 0.74689 0.88882 0.0
C404 C 0.23866 0.77598 0.88952 0.0
C405 C 0.2342 0.79142 0.9292 0.0
H406 H 0.2371 0.73496 0.85812 0.0
H407 H 0.21197 0.88713 0.24311 0.0
H408 H 0.60149 0.62028 0.59199 0.0
H409 H 0.63702 0.65801 0.59622 0.0
H410 H 0.67262 0.62998 0.46954 0.0
H411 H 0.63663 0.59335 0.46414 0.0
H412 H 0.69118 0.65999 0.6026 0.0
H413 H 0.69949 0.68211 0.40917 0.0
H414 H 0.6687 0.68052 0.34181 0.0
H415 H 0.59563 0.69241 0.42574 0.0
H416 H 0.62598 0.69443 0.49351 0.0
H417 H 0.81842 0.73357 0.55483 0.0
H418 H 0.77848 0.7004 0.55898 0.0
H419 H 0.72243 0.766 0.51158 0.0
H420 H 0.76277 0.79846 0.50557 0.0
H421 H 0.70985 0.7214 0.46985 0.0
H422 H 0.72433 0.74177 0.6257 0.0
H423 H 0.75106 0.747 0.69685 0.0
H424 H 0.77091 0.65855 0.69521 0.0
H425 H 0.74465 0.65286 0.62366 0.0
C426 C 0.61684 0.62231 0.56497 0.0
C427 C 0.61601 0.60407 0.52744 0.0
C428 C 0.63718 0.64382 0.56747 0.0
C429 C 0.65721 0.64727 0.53275 0.0
C430 C 0.65692 0.62839 0.4961 0.0
C431 C 0.63636 0.60732 0.49316 0.0
C432 C 0.67855 0.67041 0.53459 0.0
C433 C 0.69518 0.67351 0.57365 0.0
C434 C 0.68338 0.6886 0.49727 0.0
C435 C 0.66502 0.68818 0.45648 0.0
C436 C 0.67687 0.68457 0.41322 0.0
C437 C 0.65948 0.68355 0.37497 0.0
C438 C 0.63022 0.68627 0.37952 0.0
C439 C 0.61829 0.6902 0.42229 0.0
C440 C 0.63557 0.69126 0.46063 0.0
C441 C 0.79745 0.74071 0.54572 0.0
C442 C 0.79335 0.76834 0.53006 0.0
C443 C 0.77463 0.72193 0.54826 0.0
C444 C 0.74723 0.73073 0.5362 0.0
C445 C 0.74326 0.7586 0.52103 0.0
C446 C 0.76617 0.77716 0.51775 0.0
C447 C 0.72293 0.71066 0.53759 0.0
C448 C 0.70575 0.70809 0.49901 0.0
C449 C 0.717 0.69366 0.57593 0.0
C450 C 0.7327 0.69694 0.61911 0.0
C451 C 0.73455 0.72347 0.64035 0.0
C452 C 0.7496 0.72651 0.68077 0.0
C453 C 0.76272 0.70313 0.70049 0.0
C454 C 0.76076 0.67664 0.67987 0.0
C455 C 0.74577 0.67349 0.6394 0.0
H456 H 0.77436 0.70553 0.73179 0.0
H457 H 0.61677 0.68535 0.34994 0.0
H458 H 0.37517 0.60084 0.59022 0.0
H459 H 0.33465 0.63287 0.59328 0.0
H460 H 0.33752 0.64214 0.44814 0.0
H461 H 0.37797 0.6105 0.4447 0.0
H462 H 0.33519 0.69226 0.48865 0.0
H463 H 0.28561 0.60433 0.49729 0.0
H464 H 0.27303 0.55726 0.52686 0.0
H465 H 0.2515 0.59384 0.65519 0.0
H466 H 0.26433 0.64114 0.62658 0.0
H467 H 0.17939 0.73795 0.48639 0.0
H468 H 0.21463 0.69987 0.48979 0.0
H469 H 0.27052 0.75443 0.56537 0.0
H470 H 0.23553 0.79251 0.56102 0.0
H471 H 0.24213 0.67135 0.55862 0.0
H472 H 0.33706 0.74512 0.52297 0.0
H473 H 0.34674 0.79096 0.48626 0.0
H474 H 0.2746 0.77962 0.39989 0.0
H475 H 0.2648 0.73353 0.43552 0.0
C476 C 0.36706 0.60955 0.55891 0.0
C477 C 0.37997 0.60323 0.51722 0.0
C478 C 0.34382 0.62774 0.56073 0.0
C479 C 0.33309 0.63985 0.52092 0.0
C480 C 0.34554 0.63309 0.47927 0.0
C481 C 0.36866 0.61491 0.47739 0.0
C482 C 0.30991 0.66081 0.52259 0.0
C483 C 0.31488 0.68766 0.50407 0.0
C484 C 0.2833 0.65472 0.54223 0.0
C485 C 0.27618 0.62625 0.5599 0.0
C486 C 0.27848 0.60231 0.53197 0.0
C487 C 0.27121 0.57561 0.54851 0.0
C488 C 0.26141 0.57258 0.59283 0.0
C489 C 0.25899 0.59624 0.62081 0.0
C490 C 0.26628 0.623 0.60446 0.0
C491 C 0.19916 0.74153 0.50395 0.0
C492 C 0.20498 0.76794 0.52336 0.0
C493 C 0.21911 0.71985 0.50619 0.0
C494 C 0.24521 0.72444 0.52756 0.0
C495 C 0.25056 0.75054 0.54848 0.0
C496 C 0.23061 0.77217 0.54623 0.0
C497 C 0.26764 0.70275 0.52516 0.0
C498 C 0.26255 0.67589 0.54356 0.0
C499 C 0.29401 0.70858 0.5046 0.0
C500 C 0.30004 0.73603 0.48229 0.0
C501 C 0.32335 0.75237 0.496 0.0
C502 C 0.32886 0.77839 0.47539 0.0
C503 C 0.31125 0.78824 0.44087 0.0
C504 C 0.28817 0.77202 0.42673 0.0
C505 C 0.28263 0.74595 0.44715 0.0
H506 H 0.31552 0.80841 0.42501 0.0
H507 H 0.25571 0.55189 0.6055 0.0
H508 H 0.39068 0.38036 0.60075 0.0
H509 H 0.3567 0.3417 0.60859 0.0
H510 H 0.35304 0.33322 0.46337 0.0
H511 H 0.38721 0.3715 0.45515 0.0
H512 H 0.30346 0.3397 0.58048 0.0
H513 H 0.33965 0.2655 0.43475 0.0
H514 H 0.38399 0.25057 0.39804 0.0
H515 H 0.43027 0.27006 0.51911 0.0
H516 H 0.38618 0.28472 0.55676 0.0
H517 H 0.19222 0.25458 0.49913 0.0
H518 H 0.23316 0.28618 0.50604 0.0
H519 H 0.28076 0.21909 0.56889 0.0
H520 H 0.23975 0.18739 0.56118 0.0
H521 H 0.31162 0.24652 0.50474 0.0
H522 H 0.25617 0.27101 0.63313 0.0
H523 H 0.21294 0.28439 0.67437 0.0
H524 H 0.20794 0.36138 0.59798 0.0
H525 H 0.25091 0.34825 0.55575 0.0
C526 C 0.38289 0.37008 0.57046 0.0
C527 C 0.39163 0.37911 0.52728 0.0
C528 C 0.36342 0.34803 0.57504 0.0
C529 C 0.35247 0.33446 0.53661 0.0
C530 C 0.36154 0.34308 0.49354 0.0
C531 C 0.381 0.3651 0.4889 0.0
C532 C 0.33036 0.3124 0.54121 0.0
C533 C 0.30533 0.31927 0.56415 0.0
C534 C 0.333 0.28554 0.52064 0.0
C535 C 0.3596 0.27642 0.49844 0.0
C536 C 0.35926 0.26647 0.45362 0.0
C537 C 0.38436 0.25808 0.43263 0.0
C538 C 0.40994 0.25944 0.45619 0.0
C539 C 0.41046 0.26911 0.50084 0.0
C540 C 0.38542 0.2775 0.522 0.0
C541 C 0.21152 0.24671 0.51421 0.0
C542 C 0.21309 0.21875 0.52963 0.0
C543 C 0.23476 0.26471 0.51845 0.0
C544 C 0.2599 0.25502 0.53836 0.0
C545 C 0.26154 0.22697 0.55352 0.0
C546 C 0.23821 0.20899 0.54938 0.0
C547 C 0.2845 0.27423 0.54275 0.0
C548 C 0.30993 0.26685 0.52145 0.0
C549 C 0.28242 0.30043 0.5655 0.0
C550 C 0.25667 0.30854 0.59104 0.0
C551 C 0.24574 0.2907 0.62489 0.0
C552 C 0.2213 0.29826 0.64848 0.0
C553 C 0.20767 0.3237 0.63875 0.0
C554 C 0.21851 0.34167 0.60547 0.0
C555 C 0.24293 0.3342 0.58172 0.0
H556 H 0.18875 0.32951 0.65705 0.0
H557 H 0.42934 0.25295 0.43986 0.0
H558 H 0.63116 0.40932 0.58488 0.0
H559 H 0.6719 0.37745 0.59199 0.0
H560 H 0.64553 0.33339 0.47143 0.0
H561 H 0.60559 0.36569 0.4631 0.0
H562 H 0.65671 0.29851 0.55194 0.0
H563 H 0.69747 0.374 0.46015 0.0
H564 H 0.71062 0.42364 0.4458 0.0
H565 H 0.76135 0.42436 0.5663 0.0
H566 H 0.74816 0.37481 0.58169 0.0
H567 H 0.76452 0.21038 0.47552 0.0
H568 H 0.72785 0.24627 0.48445 0.0
H569 H 0.77987 0.28989 0.58218 0.0
H570 H 0.81724 0.25449 0.57126 0.0
H571 H 0.7566 0.32673 0.52723 0.0
H572 H 0.72191 0.2508 0.61551 0.0
H573 H 0.70885 0.20173 0.63415 0.0
H574 H 0.64652 0.20203 0.52853 0.0
H575 H 0.6595 0.25098 0.50875 0.0
C576 C 0.63428 0.39298 0.55972 0.0
C577 C 0.61533 0.38995 0.52336 0.0
C578 C 0.65748 0.37487 0.56381 0.0
C579 C 0.6615 0.35306 0.53236 0.0
C580 C 0.64263 0.35006 0.49611 0.0
C581 C 0.61995 0.36857 0.4913 0.0
C582 C 0.68506 0.33286 0.53719 0.0
C583 C 0.67857 0.30454 0.5463 0.0
C584 C 0.71356 0.34114 0.53176 0.0
C585 C 0.72156 0.37084 0.52236 0.0
C586 C 0.71121 0.38484 0.48382 0.0
C587 C 0.71872 0.41293 0.47544 0.0
C588 C 0.73673 0.42718 0.5052 0.0
C589 C 0.74735 0.41332 0.54332 0.0
C590 C 0.73988 0.38523 0.55188 0.0
C591 C 0.76813 0.2278 0.49854 0.0
C592 C 0.79355 0.22981 0.52271 0.0
C593 C 0.7471 0.24809 0.5041 0.0
C594 C 0.75086 0.27052 0.53465 0.0
C595 C 0.77641 0.27267 0.55867 0.0
C596 C 0.7976 0.25242 0.55275 0.0
C597 C 0.72825 0.29193 0.54038 0.0
C598 C 0.73486 0.32056 0.53352 0.0
C599 C 0.69982 0.28399 0.54862 0.0
C600 C 0.69183 0.25454 0.56045 0.0
C601 C 0.70556 0.24035 0.59603 0.0
C602 C 0.69814 0.21256 0.60683 0.0
C603 C 0.6769 0.19876 0.58249 0.0
C604 C 0.66298 0.21275 0.54735 0.0
C605 C 0.67034 0.24053 0.53636 0.0
H606 H 0.67118 0.17724 0.59092 0.0
H607 H 0.74253 0.44893 0.49865 0.0
H608 H 0.05907 0.0673 0.13139 0.0
H609 H 0.0837 0.08213 0.20003 0.0
H610 H 0.01052 0.12996 0.24034 0.0
H611 H 0.98504 0.11338 0.17372 0.0
H612 H 0.07116 0.15635 0.24239 0.0
H613 H 0.01446 0.07377 0.27677 0.0
H614 H 0.00159 0.02383 0.26825 0.0
H615 H 0.08071 0.99922 0.32686 0.0
H616 H 0.09586 0.04892 0.32982 0.0
H617 H 0.10637 0.19937 0.46056 0.0
H618 H 0.07837 0.18038 0.39748 0.0
H619 H 0.132 0.10666 0.39401 0.0
H620 H 0.15882 0.12527 0.4588 0.0
H621 H 0.08116 0.09139 0.37311 0.0
H622 H 0.14321 0.16423 0.32372 0.0
H623 H 0.16544 0.21136 0.32256 0.0
H624 H 0.08538 0.24916 0.29118 0.0
H625 H 0.06253 0.20227 0.29308 0.0
C626 C 0.04802 0.08038 0.15508 0.0
C627 C 0.01976 0.08808 0.14768 0.0
C628 C 0.06223 0.08915 0.19409 0.0
C629 C 0.0486 0.10659 0.22545 0.0
C630 C 0.02118 0.11616 0.21661 0.0
C631 C 0.00671 0.10664 0.17846 0.0
C632 C 0.06265 0.11473 0.26795 0.0
C633 C 0.07323 0.14227 0.27114 0.0
C634 C 0.06602 0.09567 0.30456 0.0
C635 C 0.05675 0.0655 0.30211 0.0
C636 C 0.0298 0.05789 0.28578 0.0
C637 C 0.02213 0.02946 0.28169 0.0
C638 C 0.04046 0.00833 0.29646 0.0
C639 C 0.06668 0.01559 0.31475 0.0
C640 C 0.07504 0.04391 0.31683 0.0
C641 C 0.11147 0.1788 0.44682 0.0
C642 C 0.13436 0.16353 0.46402 0.0
C643 C 0.09578 0.16807 0.4107 0.0
C644 C 0.10349 0.14237 0.39029 0.0
C645 C 0.12566 0.12652 0.40909 0.0
C646 C 0.14096 0.13705 0.44587 0.0
C647 C 0.08984 0.1331 0.34755 0.0
C648 C 0.07926 0.10541 0.34426 0.0
C649 C 0.08752 0.15147 0.3099 0.0
C650 C 0.10111 0.17976 0.309 0.0
C651 C 0.13029 0.18262 0.31699 0.0
C652 C 0.14301 0.20929 0.31618 0.0
C653 C 0.12682 0.23325 0.30689 0.0
C654 C 0.09787 0.23059 0.29845 0.0
C655 C 0.08502 0.20397 0.29947 0.0
H656 H 0.13672 0.25387 0.30614 0.0
H657 H 0.03425 0.98636 0.29415 0.0
H658 H 0.97778 0.03252 0.17757 0.0
H659 H 0.96518 0.06263 0.24216 0.0
H660 H 0.8774 0.05833 0.2023 0.0
H661 H 0.89038 0.02973 0.13662 0.0
H662 H 0.88712 0.10805 0.2241 0.0
H663 H 0.90838 0.01982 0.3051 0.0
H664 H 0.93572 0.97986 0.33646 0.0
H665 H -0.00019 0.03715 0.38275 0.0
H666 H 0.97287 0.07737 0.35193 0.0
H667 H 0.81543 0.14387 0.42519 0.0
H668 H 0.8364 0.11772 0.36179 0.0
H669 H 0.91951 0.14451 0.40441 0.0
H670 H 0.89825 0.17081 0.46757 0.0
H671 H 0.91762 0.08857 0.38151 0.0
H672 H 0.88791 0.17616 0.31819 0.0
H673 H 0.85383 0.21427 0.30292 0.0
H674 H 0.80145 0.15657 0.22838 0.0
H675 H 0.8348 0.11787 0.24425 0.0
C676 C 0.95586 0.03828 0.18275 0.0
C677 C 0.93495 0.02905 0.15244 0.0
C678 C 0.9486 0.05511 0.21996 0.0
C679 C 0.92022 0.0624 0.22791 0.0
C680 C 0.89945 0.05312 0.19714 0.0
C681 C 0.90678 0.03675 0.15964 0.0
C682 C 0.91192 0.08063 0.26685 0.0
C683 C 0.89359 0.10345 0.25853 0.0
C684 C 0.92121 0.07572 0.31183 0.0
C685 C 0.93904 0.05143 0.32499 0.0
C686 C 0.92871 0.02374 0.32075 0.0
C687 C 0.94404 0.00109 0.33866 0.0
C688 C 0.96972 0.00589 0.3607 0.0
C689 C 0.98002 0.0334 0.36536 0.0
C690 C 0.9648 0.05611 0.34755 0.0
C691 C 0.83817 0.14379 0.421 0.0
C692 C 0.8554 0.15885 0.45111 0.0
C693 C 0.8501 0.12912 0.38482 0.0
C694 C 0.87948 0.12954 0.37806 0.0
C695 C 0.8968 0.14399 0.40901 0.0
C696 C 0.88478 0.15872 0.44518 0.0
C697 C 0.89201 0.11476 0.33871 0.0
C698 C 0.91137 0.09307 0.34691 0.0
C699 C 0.88342 0.1205 0.2938 0.0
C700 C 0.86376 0.14399 0.28291 0.0
C701 C 0.86901 0.1715 0.29889 0.0
C702 C 0.84978 0.19321 0.29021 0.0
C703 C 0.82538 0.18779 0.265 0.0
C704 C 0.82027 0.16068 0.24816 0.0
C705 C 0.83934 0.13885 0.25699 0.0
H706 H 0.81056 0.20465 0.2582 0.0
H707 H 0.9815 0.98833 0.37457 0.0
H708 H 0.94235 0.91507 0.11892 0.0
H709 H 0.91684 0.8988 0.18614 0.0
H710 H 0.99474 0.90002 0.26215 0.0
H711 H 0.02018 0.91558 0.19489 0.0
H712 H 0.96617 0.85295 0.27868 0.0
H713 H 0.94311 0.95195 0.26507 0.0
H714 H 0.92322 0.99386 0.22822 0.0
H715 H 0.84103 0.9553 0.22695 0.0
H716 H 0.86056 0.91276 0.26341 0.0
H717 H 0.90556 0.82317 0.48972 0.0
H718 H 0.93213 0.84735 0.43068 0.0
H719 H 0.85398 0.86701 0.3619 0.0
H720 H 0.82754 0.84741 0.42509 0.0
H721 H 0.8845 0.90495 0.34227 0.0
H722 H 0.90455 0.80453 0.33878 0.0
H723 H 0.92102 0.75927 0.37067 0.0
H724 H 0.00294 0.7954 0.39524 0.0
H725 H 0.98689 0.84089 0.36368 0.0
C726 C 0.95387 0.9122 0.14998 0.0
C727 C 0.98314 0.91682 0.15151 0.0
C728 C 0.93935 0.90279 0.18845 0.0
C729 C 0.95383 0.89843 0.22943 0.0
C730 C 0.98309 0.90313 0.23097 0.0
C731 C 0.99758 0.91211 0.19246 0.0
C732 C 0.93878 0.88888 0.27089 0.0
C733 C 0.9484 0.86442 0.2928 0.0
C734 C 0.91509 0.90335 0.28861 0.0
C735 C 0.90339 0.92905 0.26682 0.0
C736 C 0.92085 0.95224 0.25659 0.0
C737 C 0.90961 0.97613 0.23564 0.0
C738 C 0.88087 0.97728 0.22501 0.0
C739 C 0.8633 0.95442 0.23522 0.0
C740 C 0.87445 0.9304 0.25607 0.0
C741 C 0.89404 0.83362 0.46295 0.0
C742 C 0.86436 0.83291 0.46173 0.0
C743 C 0.90932 0.84681 0.42831 0.0
C744 C 0.89533 0.85794 0.39021 0.0
C745 C 0.86561 0.85836 0.39025 0.0
C746 C 0.85038 0.84664 0.42608 0.0
C747 C 0.91124 0.86836 0.34971 0.0
C748 C 0.90204 0.89318 0.3281 0.0
C749 C 0.93463 0.8536 0.33115 0.0
C750 C 0.94444 0.82613 0.34927 0.0
C751 C 0.92605 0.8028 0.35106 0.0
C752 C 0.93531 0.77712 0.36907 0.0
C753 C 0.96299 0.77448 0.38505 0.0
C754 C 0.98151 0.79748 0.38287 0.0
C755 C 0.97236 0.82319 0.36487 0.0
H756 H 0.9701 0.7546 0.39905 0.0
H757 H 0.87213 0.99587 0.20905 0.0
H758 H 0.09003 0.01475 0.19087 0.0
H759 H 0.10734 0.98999 0.25802 0.0
H760 H 0.08413 0.91028 0.19859 0.0
H761 H 0.07112 0.93435 0.12942 0.0
H762 H 0.0655 0.93561 0.30695 0.0
H763 H 0.13699 0.9018 0.19213 0.0
H764 H 0.16771 0.91755 0.12954 0.0
H765 H 0.20877 0.97659 0.21829 0.0
H766 H 0.17747 0.9619 0.28096 0.0
H767 H 0.11863 0.81703 0.42722 0.0
H768 H 0.10279 0.84997 0.36797 0.0
H769 H 0.16475 0.91091 0.41262 0.0
H770 H 0.18006 0.87802 0.4724 0.0
H771 H 0.16442 0.90107 0.31691 0.0
H772 H 0.10284 0.9251 0.4369 0.0
H773 H 0.06896 0.91777 0.49907 0.0
H774 H 0.00821 0.88426 0.40535 0.0
H775 H 0.04204 0.89069 0.34258 0.0
C776 C 0.08868 0.99191 0.19184 0.0
C777 C 0.07795 0.97651 0.15475 0.0
C778 C 0.09814 0.97793 0.23062 0.0
C779 C 0.09584 0.94853 0.23373 0.0
C780 C 0.08534 0.93313 0.19709 0.0
C781 C 0.07737 0.94697 0.15756 0.0
C782 C 0.10599 0.93347 0.27407 0.0
C783 C 0.087 0.92781 0.30925 0.0
C784 C 0.13423 0.92425 0.27714 0.0
C785 C 0.1548 0.93097 0.241 0.0
C786 C 0.15246 0.91826 0.19818 0.0
C787 C 0.1698 0.92714 0.16262 0.0
C788 C 0.19 0.94825 0.16983 0.0
C789 C 0.19303 0.96035 0.21271 0.0
C790 C 0.17545 0.95181 0.24822 0.0
C791 C 0.12849 0.83761 0.42437 0.0
C792 C 0.15026 0.84537 0.45395 0.0
C793 C 0.11958 0.85631 0.39077 0.0
C794 C 0.13265 0.88281 0.3861 0.0
C795 C 0.15448 0.89054 0.41576 0.0
C796 C 0.16305 0.87198 0.44984 0.0
C797 C 0.12361 0.90218 0.3497 0.0
C798 C 0.14287 0.90879 0.31507 0.0
C799 C 0.09556 0.91244 0.34745 0.0
C800 C 0.07516 0.90809 0.38505 0.0
C801 C 0.08242 0.91579 0.42956 0.0
C802 C 0.0632 0.91186 0.4649 0.0
C803 C 0.03648 0.90054 0.45613 0.0
C804 C 0.02896 0.89298 0.41203 0.0
C805 C 0.04816 0.89676 0.37655 0.0
H806 H 0.02159 0.89783 0.48352 0.0
H807 H 0.20349 0.95502 0.14231 0.0
H808 H 0.11225 0.95242 0.87642 0.0
H809 H 0.1159 0.9262 0.80539 0.0
H810 H 0.05256 0.97989 0.74544 0.0
H811 H 0.04911 0.00621 0.81591 0.0
H812 H 0.07725 0.8962 0.75451 0.0
H813 H 0.06837 0.9883 0.63678 0.0
H814 H 0.07154 0.0404 0.6383 0.0
H815 H 0.13774 0.03577 0.73741 0.0
H816 H 0.13497 0.98366 0.73638 0.0
H817 H 0.10388 0.83806 0.53503 0.0
H818 H 0.07934 0.87142 0.58562 0.0
H819 H 0.16 0.90395 0.63001 0.0
H820 H 0.18421 0.87033 0.58017 0.0
H821 H 0.11497 0.94642 0.61982 0.0
H822 H 0.1343 0.85167 0.68605 0.0
H823 H 0.12801 0.79989 0.68689 0.0
H824 H 0.0379 0.81024 0.69139 0.0
H825 H 0.04373 0.86206 0.69038 0.0
C826 C 0.09918 0.95873 0.84808 0.0
C827 C 0.0808 0.98188 0.85157 0.0
C828 C 0.10111 0.94358 0.80764 0.0
C829 C 0.08472 0.95132 0.77002 0.0
C830 C 0.06578 0.97389 0.77377 0.0
C831 C 0.06398 0.9891 0.81408 0.0
C832 C 0.08883 0.93659 0.72639 0.0
C833 C 0.08511 0.90723 0.72486 0.0
C834 C 0.09842 0.95105 0.68736 0.0
C835 C 0.10144 0.98219 0.68648 0.0
C836 C 0.08377 0.99844 0.65855 0.0
C837 C 0.08542 0.02793 0.65947 0.0
C838 C 0.10484 0.04134 0.68793 0.0
C839 C 0.12272 0.02532 0.71541 0.0
C840 C 0.12112 0.99582 0.71468 0.0
C841 C 0.1161 0.8529 0.55495 0.0
C842 C 0.14572 0.85176 0.55454 0.0
C843 C 0.1022 0.87186 0.5836 0.0
C844 C 0.11793 0.89004 0.61153 0.0
C845 C 0.14753 0.89021 0.60849 0.0
C846 C 0.16134 0.87101 0.58043 0.0
C847 C 0.10437 0.90594 0.64863 0.0
C848 C 0.10625 0.93552 0.64895 0.0
C849 C 0.09271 0.89174 0.68641 0.0
C850 C 0.08941 0.86065 0.68752 0.0
C851 C 0.11316 0.84287 0.68689 0.0
C852 C 0.10969 0.81353 0.68747 0.0
C853 C 0.08258 0.80178 0.68893 0.0
C854 C 0.05888 0.81935 0.6901 0.0
C855 C 0.06225 0.84869 0.68957 0.0
H856 H 0.07993 0.77907 0.68933 0.0
H857 H 0.10607 0.06412 0.68869 0.0
H858 H 0.95562 0.09485 0.80969 0.0
H859 H 0.98378 0.10972 0.74393 0.0
H860 H 0.0513 0.05474 0.78605 0.0
H861 H 0.02322 0.0399 0.8513 0.0
H862 H 0.06849 0.10945 0.77244 0.0
H863 H 0.0155 0.03787 0.69608 0.0
H864 H 0.97316 0.01271 0.66863 0.0
H865 H 0.94753 0.08633 0.59468 0.0
H866 H 0.98924 0.11232 0.62274 0.0
H867 H 0.1636 0.12598 0.593 0.0
H868 H 0.12969 0.10237 0.64328 0.0
H869 H 0.06341 0.15686 0.59406 0.0
H870 H 0.09749 0.18032 0.5438 0.0
H871 H 0.04432 0.10219 0.60947 0.0
H872 H 0.0974 0.174 0.68857 0.0
H873 H 0.14091 0.19785 0.71433 0.0
H874 H 0.16693 0.12233 0.78307 0.0
H875 H 0.12374 0.09789 0.75717 0.0
C876 C 0.97621 0.08554 0.80428 0.0
C877 C 0.98731 0.06604 0.83541 0.0
C878 C 0.99221 0.09397 0.76673 0.0
C879 C 0.01953 0.08317 0.7601 0.0
C880 C 0.03021 0.06318 0.79049 0.0
C881 C 0.01417 0.05462 0.82756 0.0
C882 C 0.03808 0.09428 0.7239 0.0
C883 C 0.06332 0.1076 0.73678 0.0
C884 C 0.031 0.09234 0.67754 0.0
C885 C 0.00536 0.07715 0.66191 0.0
C886 C 0.00059 0.04888 0.6746 0.0
C887 C 0.97671 0.03448 0.6589 0.0
C888 C 0.95764 0.04801 0.63011 0.0
C889 C 0.96226 0.07601 0.61722 0.0
C890 C 0.986 0.09059 0.63301 0.0
C891 C 0.14166 0.13244 0.59259 0.0
C892 C 0.13296 0.15484 0.56494 0.0
C893 C 0.12234 0.11905 0.62116 0.0
C894 C 0.0941 0.12815 0.62281 0.0
C895 C 0.08507 0.1495 0.59324 0.0
C896 C 0.10443 0.16282 0.56455 0.0
C897 C 0.07475 0.11718 0.65811 0.0
C898 C 0.04936 0.10407 0.64515 0.0
C899 C 0.08161 0.1193 0.7046 0.0
C900 C 0.10745 0.13405 0.72061 0.0
C901 C 0.11248 0.16242 0.70894 0.0
C902 C 0.13707 0.17606 0.7236 0.0
C903 C 0.1567 0.16159 0.75024 0.0
C904 C 0.15173 0.13349 0.76239 0.0
C905 C 0.12718 0.11974 0.74776 0.0
H906 H 0.17573 0.17218 0.76154 0.0
H907 H 0.93942 0.03677 0.61741 0.0
H908 H 0.8924 0.04167 0.87828 0.0
H909 H 0.88233 0.06637 0.80772 0.0
H910 H 0.93762 0.00973 0.7357 0.0
H911 H 0.94809 0.98503 0.80672 0.0
H912 H 0.91862 0.09452 0.75287 0.0
H913 H 0.90396 0.00205 0.6251 0.0
H914 H 0.88691 0.95289 0.62292 0.0
H915 H 0.83765 0.9673 0.74265 0.0
H916 H 0.85443 0.01659 0.74559 0.0
H917 H 0.89781 0.16451 0.54872 0.0
H918 H 0.91802 0.12821 0.59808 0.0
H919 H 0.8354 0.09032 0.61283 0.0
H920 H 0.81579 0.12591 0.56131 0.0
H921 H 0.87285 0.05034 0.61945 0.0
H922 H 0.8604 0.142 0.68909 0.0
H923 H 0.86711 0.19361 0.69431 0.0
H924 H 0.95712 0.1823 0.6994 0.0
H925 H 0.95085 0.13065 0.69327 0.0
C926 C 0.90244 0.03437 0.8475 0.0
C927 C 0.9211 0.01133 0.84813 0.0
C928 C 0.8967 0.04858 0.80717 0.0
C929 C 0.90914 0.03985 0.76641 0.0
C930 C 0.92767 0.01674 0.7667 0.0
C931 C 0.93374 0.00273 0.80731 0.0
C932 C 0.90305 0.05568 0.7242 0.0
C933 C 0.90906 0.08469 0.72347 0.0
C934 C 0.88996 0.04303 0.68613 0.0
C935 C 0.88091 0.01297 0.68599 0.0
C936 C 0.8897 0.99473 0.6512 0.0
C937 C 0.87995 0.96684 0.64968 0.0
C938 C 0.8611 0.957 0.68249 0.0
C939 C 0.8522 0.97496 0.71718 0.0
C940 C 0.86201 0.00283 0.71898 0.0
C941 C 0.88438 0.14769 0.56113 0.0
C942 C 0.85542 0.14771 0.55147 0.0
C943 C 0.89578 0.12709 0.58963 0.0
C944 C 0.87816 0.10674 0.60999 0.0
C945 C 0.84949 0.1057 0.59765 0.0
C946 C 0.83824 0.12602 0.56848 0.0
C947 C 0.88848 0.08913 0.64832 0.0
C948 C 0.88325 0.05989 0.64838 0.0
C949 C 0.90142 0.10161 0.68663 0.0
C950 C 0.9052 0.13256 0.69081 0.0
C951 C 0.88161 0.15057 0.6913 0.0
C952 C 0.88532 0.17981 0.6943 0.0
C953 C 0.91253 0.19123 0.69726 0.0
C954 C 0.93606 0.17342 0.69721 0.0
C955 C 0.93245 0.14417 0.69404 0.0
H956 H 0.91537 0.21387 0.69958 0.0
H957 H 0.85357 0.93541 0.68124 0.0
H958 H 0.99616 0.96843 0.8184 0.0
H959 H 0.9704 0.95368 0.7505 0.0
H960 H 0.00845 0.87119 0.75905 0.0
H961 H 0.03464 0.8859 0.82655 0.0
H962 H 0.00188 0.88999 0.66955 0.0
H963 H 0.94032 0.87351 0.80114 0.0
H964 H 0.91757 0.88759 0.87292 0.0
H965 H 0.88405 0.96173 0.80884 0.0
H966 H 0.90764 0.94848 0.73728 0.0
H967 H 0.8969 0.79538 0.58508 0.0
H968 H 0.93107 0.82204 0.63103 0.0
H969 H 0.88883 0.89968 0.59574 0.0
H970 H 0.85504 0.87279 0.54878 0.0
H971 H 0.89788 0.88993 0.69178 0.0
H972 H 0.94821 0.88962 0.55205 0.0
H973 H 0.96935 0.86855 0.48384 0.0
H974 H 0.02632 0.8204 0.56641 0.0
H975 H 0.00482 0.84037 0.63524 0.0
C976 C 0.99914 0.94719 0.80568 0.0
C977 C 0.01677 0.92805 0.82853 0.0
C978 C 0.98449 0.93885 0.76688 0.0
C979 C 0.987 0.91116 0.75049 0.0
C980 C 0.00607 0.89261 0.77136 0.0
C981 C 0.0209 0.901 0.81007 0.0
C982 C 0.9678 0.90083 0.71445 0.0
C983 C 0.97917 0.88975 0.67437 0.0
C984 C 0.93817 0.90111 0.72047 0.0
C985 C 0.92518 0.90983 0.76382 0.0
C986 C 0.92817 0.89286 0.80253 0.0
C987 C 0.91527 0.90074 0.84319 0.0
C988 C 0.89927 0.92548 0.8454 0.0
C989 C 0.89631 0.94249 0.80703 0.0
C990 C 0.9094 0.93481 0.76644 0.0
C991 C 0.89528 0.81816 0.5869 0.0
C992 C 0.87366 0.83223 0.56367 0.0
C993 C 0.91472 0.83335 0.61286 0.0
C994 C 0.91254 0.86283 0.6165 0.0
C995 C 0.89092 0.87696 0.5931 0.0
C996 C 0.87177 0.86174 0.56638 0.0
C997 C 0.93192 0.87841 0.64703 0.0
C998 C 0.92056 0.89049 0.68634 0.0
C999 C 0.96159 0.87836 0.64052 0.0
C1000 C 0.97466 0.86634 0.59901 0.0
C1001 C 0.96496 0.87424 0.55579 0.0
C1002 C 0.97696 0.86242 0.51695 0.0
C1003 C 0.99904 0.84302 0.52077 0.0
C1004 C 0.00915 0.83537 0.56347 0.0
C1005 C 0.99701 0.84689 0.60244 0.0
H1006 H 0.00842 0.83405 0.49063 0.0
H1007 H 0.88924 0.93151 0.87686 0.0
H1008 H 0.55829 0.57181 0.63748 0.0
H1009 H 0.58159 0.58786 0.70668 0.0
H1010 H 0.50029 0.60119 0.76904 0.0
H1011 H 0.4769 0.5851 0.70021 0.0
H1012 H 0.5357 0.64683 0.77813 0.0
H1013 H 0.54074 0.54559 0.80364 0.0
H1014 H 0.553 0.49642 0.7847 0.0
H1015 H 0.64009 0.52012 0.7686 0.0
H1016 H 0.62835 0.56944 0.78766 0.0
H1017 H 0.59589 0.68635 0.98774 0.0
H1018 H 0.56677 0.66047 0.93279 0.0
H1019 H 0.64253 0.62998 0.86764 0.0
H1020 H 0.67126 0.65409 0.9245 0.0
H1021 H 0.60595 0.59087 0.86448 0.0
H1022 H 0.60417 0.69007 0.83098 0.0
H1023 H 0.59589 0.74056 0.84643 0.0
H1024 H 0.50777 0.72375 0.86884 0.0
H1025 H 0.51561 0.67309 0.85408 0.0
C1026 C 0.54539 0.57781 0.66595 0.0
C1027 C 0.51578 0.5771 0.6631 0.0
C1028 C 0.55872 0.58695 0.70559 0.0
C1029 C 0.54264 0.59548 0.74311 0.0
C1030 C 0.51309 0.59468 0.74049 0.0
C1031 C 0.49979 0.58551 0.70099 0.0
C1032 C 0.55657 0.60663 0.7843 0.0
C1033 C 0.55071 0.63446 0.79755 0.0
C1034 C 0.57671 0.59075 0.80874 0.0
C1035 C 0.58363 0.5612 0.79675 0.0
C1036 C 0.56246 0.54034 0.79573 0.0
C1037 C 0.56935 0.51243 0.78506 0.0
C1038 C 0.59731 0.50519 0.77521 0.0
C1039 C 0.61845 0.52579 0.77619 0.0
C1040 C 0.61171 0.55368 0.78707 0.0
C1041 C 0.60612 0.67349 0.96231 0.0
C1042 C 0.6357 0.67235 0.95975 0.0
C1043 C 0.58957 0.65903 0.93062 0.0
C1044 C 0.60245 0.64384 0.89531 0.0
C1045 C 0.63204 0.64166 0.89429 0.0
C1046 C 0.64847 0.65561 0.92643 0.0
C1047 C 0.58551 0.63133 0.85802 0.0
C1048 C 0.59072 0.60322 0.84548 0.0
C1049 C 0.56536 0.64724 0.83341 0.0
C1050 C 0.56055 0.67772 0.84206 0.0
C1051 C 0.58306 0.69711 0.83954 0.0
C1052 C 0.57845 0.72577 0.84812 0.0
C1053 C 0.55134 0.73535 0.85877 0.0
C1054 C 0.52877 0.71629 0.86071 0.0
C1055 C 0.53329 0.6876 0.85225 0.0
H1056 H 0.5478 0.75754 0.86538 0.0
H1057 H 0.60274 0.48366 0.76697 0.0
H1058 H 0.39975 0.48094 0.69211 0.0
H1059 H 0.38266 0.50675 0.75807 0.0
H1060 H 0.41109 0.58501 0.69906 0.0
H1061 H 0.42522 0.5598 0.63104 0.0
H1062 H 0.43157 0.56916 0.79473 0.0
H1063 H 0.34971 0.58124 0.6994 0.0
H1064 H 0.31184 0.56376 0.64961 0.0
H1065 H 0.27862 0.51336 0.75821 0.0
H1066 H 0.31693 0.52996 0.80838 0.0
H1067 H 0.37135 0.67457 0.93683 0.0
H1068 H 0.38847 0.64503 0.87425 0.0
H1069 H 0.34079 0.5744 0.92667 0.0
H1070 H 0.32366 0.60416 0.98905 0.0
H1071 H 0.33107 0.58345 0.83668 0.0
H1072 H 0.40895 0.57501 0.93516 0.0
H1073 H 0.44835 0.5886 0.98507 0.0
H1074 H 0.49064 0.62828 0.87325 0.0
H1075 H 0.45103 0.61579 0.82291 0.0
C1076 C 0.40215 0.5037 0.69276 0.0
C1077 C 0.41501 0.51824 0.65657 0.0
C1078 C 0.39257 0.51833 0.73071 0.0
C1079 C 0.39649 0.54757 0.7338 0.0
C1080 C 0.40854 0.56228 0.69755 0.0
C1081 C 0.41704 0.54778 0.65882 0.0
C1082 C 0.38827 0.56279 0.77518 0.0
C1083 C 0.40966 0.57277 0.80383 0.0
C1084 C 0.35966 0.56628 0.78731 0.0
C1085 C 0.33639 0.55656 0.75747 0.0
C1086 C 0.33453 0.56619 0.71255 0.0
C1087 C 0.31293 0.55649 0.68427 0.0
C1088 C 0.2928 0.53745 0.70071 0.0
C1089 C 0.29425 0.52809 0.74551 0.0
C1090 C 0.31593 0.5376 0.77387 0.0
C1091 C 0.36485 0.65266 0.93491 0.0
C1092 C 0.34629 0.64143 0.96721 0.0
C1093 C 0.37467 0.63581 0.89953 0.0
C1094 C 0.36594 0.60753 0.896 0.0
C1095 C 0.34776 0.59617 0.92888 0.0
C1096 C 0.33813 0.61301 0.96444 0.0
C1097 C 0.37442 0.59044 0.85642 0.0
C1098 C 0.35306 0.57997 0.82795 0.0
C1099 C 0.40316 0.58631 0.84475 0.0
C1100 C 0.4267 0.59477 0.8753 0.0
C1101 C 0.42638 0.58706 0.9213 0.0
C1102 C 0.44881 0.59454 0.9497 0.0
C1103 C 0.47192 0.60945 0.9324 0.0
C1104 C 0.47263 0.61692 0.88668 0.0
C1105 C 0.45015 0.60968 0.85821 0.0
H1106 H 0.48934 0.61511 0.95438 0.0
H1107 H 0.27606 0.52996 0.6788 0.0
H1108 H 0.4375 0.4275 0.63973 0.0
H1109 H 0.41355 0.41637 0.71077 0.0
H1110 H 0.49274 0.38946 0.76822 0.0
H1111 H 0.51709 0.40297 0.69867 0.0
H1112 H 0.43448 0.35134 0.76679 0.0
H1113 H 0.48323 0.43544 0.81154 0.0
H1114 H 0.49855 0.48507 0.80892 0.0
H1115 H 0.41286 0.51213 0.82798 0.0
H1116 H 0.39666 0.46266 0.82694 0.0
H1117 H 0.38318 0.32517 0.98957 0.0
H1118 H 0.41597 0.34291 0.93137 0.0
H1119 H 0.34979 0.39569 0.8774 0.0
H1120 H 0.31704 0.37749 0.93523 0.0
H1121 H 0.40604 0.42188 0.88231 0.0
H1122 H 0.35786 0.3375 0.82928 0.0
H1123 H 0.34305 0.28771 0.83576 0.0
H1124 H 0.42995 0.26179 0.83978 0.0
H1125 H 0.44527 0.31155 0.83415 0.0
C1126 C 0.44998 0.42029 0.66781 0.0
C1127 C 0.47941 0.41742 0.66391 0.0
C1128 C 0.43623 0.41358 0.7083 0.0
C1129 C 0.45159 0.40293 0.74504 0.0
C1130 C 0.48067 0.39835 0.74052 0.0
C1131 C 0.4945 0.40594 0.70061 0.0
C1132 C 0.43686 0.39495 0.78715 0.0
C1133 C 0.42862 0.36669 0.79239 0.0
C1134 C 0.4291 0.41517 0.82015 0.0
C1135 C 0.43859 0.44513 0.81776 0.0
C1136 C 0.46745 0.45189 0.81332 0.0
C1137 C 0.47632 0.48008 0.81259 0.0
C1138 C 0.45663 0.5018 0.81754 0.0
C1139 C 0.42804 0.49533 0.82323 0.0
C1140 C 0.41897 0.4672 0.8229 0.0
C1141 C 0.37601 0.34092 0.96565 0.0
C1142 C 0.34787 0.3501 0.96633 0.0
C1143 C 0.39458 0.35099 0.93257 0.0
C1144 C 0.3852 0.37054 0.90014 0.0
C1145 C 0.3574 0.38072 0.9023 0.0
C1146 C 0.33877 0.37034 0.93497 0.0
C1147 C 0.40346 0.37842 0.86152 0.0
C1148 C 0.41218 0.4066 0.85681 0.0
C1149 C 0.4119 0.35818 0.82908 0.0
C1150 C 0.4027 0.32826 0.83183 0.0
C1151 C 0.37381 0.32121 0.83195 0.0
C1152 C 0.36532 0.29299 0.83541 0.0
C1153 C 0.38555 0.2716 0.83831 0.0
C1154 C 0.4143 0.27839 0.83762 0.0
C1155 C 0.4229 0.30659 0.83429 0.0
H1156 H 0.37894 0.24977 0.84098 0.0
H1157 H 0.46355 0.52361 0.8175 0.0
H1158 H 0.61074 0.45922 0.62992 0.0
H1159 H 0.62246 0.42754 0.69274 0.0
H1160 H 0.54089 0.44395 0.75291 0.0
H1161 H 0.52993 0.47673 0.69107 0.0
H1162 H 0.57752 0.44762 0.81428 0.0
H1163 H 0.55978 0.37884 0.70147 0.0
H1164 H 0.56283 0.35447 0.62796 0.0
H1165 H 0.65092 0.33818 0.65073 0.0
H1166 H 0.64863 0.3635 0.72352 0.0
H1167 H 0.62545 0.30958 0.93805 0.0
H1168 H 0.60164 0.33344 0.87486 0.0
H1169 H 0.65227 0.40793 0.89874 0.0
H1170 H 0.67596 0.38392 0.96184 0.0
H1171 H 0.62258 0.35374 0.79735 0.0
H1172 H 0.6127 0.46647 0.87437 0.0
H1173 H 0.60743 0.48821 0.94972 0.0
H1174 H 0.56892 0.41224 0.99998 0.0
H1175 H 0.57345 0.39021 0.92479 0.0
C1176 C 0.59545 0.45593 0.65671 0.0
C1177 C 0.56966 0.47037 0.65639 0.0
C1178 C 0.60192 0.43759 0.69222 0.0
C1179 C 0.58237 0.43294 0.72732 0.0
C1180 C 0.55629 0.44711 0.72625 0.0
C1181 C 0.55006 0.46585 0.69115 0.0
C1182 C 0.59019 0.41531 0.76696 0.0
C1183 C 0.5873 0.42708 0.81038 0.0
C1184 C 0.60232 0.38811 0.76226 0.0
C1185 C 0.60402 0.37338 0.71787 0.0
C1186 C 0.57988 0.37049 0.69048 0.0
C1187 C 0.58148 0.35646 0.64895 0.0
C1188 C 0.60705 0.34476 0.6347 0.0
C1189 C 0.63112 0.34725 0.66183 0.0
C1190 C 0.62969 0.36155 0.70316 0.0
C1191 C 0.6314 0.33102 0.92948 0.0
C1192 C 0.65244 0.34505 0.95428 0.0
C1193 C 0.61786 0.3446 0.89362 0.0
C1194 C 0.62508 0.37249 0.88232 0.0
C1195 C 0.6461 0.38655 0.90732 0.0
C1196 C 0.65959 0.37294 0.9432 0.0
C1197 C 0.61108 0.38677 0.84382 0.0
C1198 C 0.61272 0.37429 0.80085 0.0
C1199 C 0.59747 0.41313 0.84891 0.0
C1200 C 0.59372 0.42657 0.89396 0.0
C1201 C 0.60294 0.45445 0.9014 0.0
C1202 C 0.6001 0.46682 0.94413 0.0
C1203 C 0.58798 0.45156 0.97968 0.0
C1204 C 0.57844 0.42398 0.97249 0.0
C1205 C 0.58114 0.41154 0.92981 0.0
H1206 H 0.58592 0.46113 0.01278 0.0
H1207 H 0.60825 0.33382 0.6026 0.0
H1208 H 0.61441 0.4552 0.37959 0.0
H1209 H 0.62355 0.43385 0.30627 0.0
H1210 H 0.55934 0.48632 0.24567 0.0
H1211 H 0.55087 0.50881 0.31915 0.0
H1212 H 0.59615 0.40336 0.2535 0.0
H1213 H 0.57899 0.49866 0.12935 0.0
H1214 H 0.58419 0.5505 0.12762 0.0
H1215 H 0.63995 0.54704 0.24207 0.0
H1216 H 0.63611 0.49516 0.24332 0.0
H1217 H 0.61431 0.35382 0.02841 0.0
H1218 H 0.59068 0.38939 0.07555 0.0
H1219 H 0.67146 0.41561 0.12856 0.0
H1220 H 0.69515 0.38138 0.07937 0.0
H1221 H 0.61868 0.45974 0.11658 0.0
H1222 H 0.65103 0.37651 0.23257 0.0
H1223 H 0.66218 0.32561 0.23537 0.0
H1224 H 0.59368 0.30814 0.14417 0.0
H1225 H 0.58187 0.35878 0.14156 0.0
C1226 C 0.60217 0.46222 0.35074 0.0
C1227 C 0.58208 0.48381 0.35514 0.0
C1228 C 0.60733 0.4499 0.30874 0.0
C1229 C 0.59227 0.45857 0.27019 0.0
C1230 C 0.57156 0.47962 0.27469 0.0
C1231 C 0.56668 0.49235 0.31674 0.0
C1232 C 0.59877 0.44546 0.22565 0.0
C1233 C 0.60066 0.41587 0.22359 0.0
C1234 C 0.60508 0.46161 0.18637 0.0
C1235 C 0.60675 0.49296 0.18699 0.0
C1236 C 0.59235 0.50895 0.15418 0.0
C1237 C 0.59524 0.53835 0.15308 0.0
C1238 C 0.61228 0.55206 0.18487 0.0
C1239 C 0.62661 0.5364 0.21765 0.0
C1240 C 0.62414 0.50697 0.21849 0.0
C1241 C 0.627 0.36808 0.04863 0.0
C1242 C 0.6564 0.36455 0.05144 0.0
C1243 C 0.61354 0.3883 0.07551 0.0
C1244 C 0.62937 0.40458 0.10606 0.0
C1245 C 0.65894 0.4031 0.10527 0.0
C1246 C 0.67239 0.38338 0.07772 0.0
C1247 C 0.61557 0.41814 0.14512 0.0
C1248 C 0.61282 0.44757 0.14626 0.0
C1249 C 0.60962 0.40213 0.18428 0.0
C1250 C 0.61576 0.37145 0.18654 0.0
C1251 C 0.63828 0.36175 0.21332 0.0
C1252 C 0.6447 0.33295 0.21491 0.0
C1253 C 0.62869 0.31365 0.18989 0.0
C1254 C 0.60614 0.32311 0.16342 0.0
C1255 C 0.59961 0.35187 0.16182 0.0
H1256 H 0.63376 0.29138 0.19102 0.0
H1257 H 0.61455 0.57479 0.18399 0.0
H1258 H 0.47693 0.58498 0.31959 0.0
H1259 H 0.50154 0.60157 0.25222 0.0
H1260 H 0.58156 0.58682 0.31859 0.0
H1261 H 0.55667 0.57361 0.3876 0.0
H1262 H 0.58559 0.63248 0.28042 0.0
H1263 H 0.55082 0.54361 0.22851 0.0
H1264 H 0.51522 0.50666 0.2135 0.0
H1265 H 0.47063 0.5628 0.1247 0.0
H1266 H 0.50588 0.6002 0.13921 0.0
H1267 H 0.64631 0.63409 0.04031 0.0
H1268 H 0.61787 0.60824 0.09676 0.0
H1269 H 0.58528 0.68739 0.14668 0.0
H1270 H 0.61385 0.71293 0.0908 0.0
H1271 H 0.56042 0.60475 0.12355 0.0
H1272 H 0.59168 0.68735 0.25862 0.0
H1273 H 0.63047 0.7209 0.27418 0.0
H1274 H 0.68803 0.66863 0.19955 0.0
H1275 H 0.64964 0.63466 0.18393 0.0
C1276 C 0.49971 0.58557 0.31977 0.0
C1277 C 0.51476 0.57791 0.35875 0.0
C1278 C 0.51387 0.59455 0.28095 0.0
C1279 C 0.54355 0.59493 0.2797 0.0
C1280 C 0.55866 0.58669 0.31847 0.0
C1281 C 0.54441 0.57877 0.35783 0.0
C1282 C 0.55885 0.60582 0.23934 0.0
C1283 C 0.58012 0.62609 0.24627 0.0
C1284 C 0.55201 0.59747 0.19451 0.0
C1285 C 0.53106 0.57477 0.18497 0.0
C1286 C 0.53344 0.54812 0.20577 0.0
C1287 C 0.51337 0.52706 0.19725 0.0
C1288 C 0.49081 0.53234 0.16799 0.0
C1289 C 0.48824 0.5587 0.14715 0.0
C1290 C 0.50833 0.57981 0.15536 0.0
C1291 C 0.63257 0.6457 0.06289 0.0
C1292 C 0.63232 0.67534 0.06203 0.0
C1293 C 0.61633 0.63104 0.09486 0.0
C1294 C 0.59976 0.64596 0.12618 0.0
C1295 C 0.59817 0.67552 0.12314 0.0
C1296 C 0.61445 0.69008 0.09148 0.0
C1297 C 0.58667 0.63132 0.16522 0.0
C1298 C 0.56582 0.61067 0.15793 0.0
C1299 C 0.59442 0.63851 0.20996 0.0
C1300 C 0.61772 0.65863 0.21977 0.0
C1301 C 0.61263 0.683 0.24564 0.0
C1302 C 0.63453 0.70211 0.25439 0.0
C1303 C 0.66167 0.69696 0.2377 0.0
C1304 C 0.66698 0.67264 0.21234 0.0
C1305 C 0.64515 0.65349 0.20343 0.0
H1306 H 0.67859 0.71177 0.24454 0.0
H1307 H 0.47528 0.51601 0.16156 0.0
H1308 H 0.48268 0.52026 0.33494 0.0
H1309 H 0.46921 0.54532 0.26565 0.0
H1310 H 0.39318 0.49545 0.25673 0.0
H1311 H 0.40628 0.4703 0.32577 0.0
H1312 H 0.41781 0.5066 0.17199 0.0
H1313 H 0.3916 0.5532 0.30824 0.0
H1314 H 0.39615 0.57685 0.38191 0.0
H1315 H 0.44467 0.64332 0.32057 0.0
H1316 H 0.44171 0.61928 0.24675 0.0
H1317 H 0.31443 0.61305 0.09711 0.0
H1318 H 0.34114 0.57758 0.14026 0.0
H1319 H 0.41914 0.61101 0.08677 0.0
H1320 H 0.39218 0.64604 0.04262 0.0
H1321 H 0.39862 0.60843 0.19664 0.0
H1322 H 0.42703 0.5576 0.06026 0.0
H1323 H 0.4177 0.53429 0.98706 0.0
H1324 H 0.35735 0.47929 0.05072 0.0
H1325 H 0.36614 0.50256 0.12413 0.0
C1326 C 0.46318 0.51448 0.31809 0.0
C1327 C 0.44512 0.49387 0.33657 0.0
C1328 C 0.45561 0.52878 0.27852 0.0
C1329 C 0.42998 0.52263 0.25679 0.0
C1330 C 0.41299 0.5006 0.27319 0.0
C1331 C 0.42042 0.48642 0.31288 0.0
C1332 C 0.41946 0.54094 0.21988 0.0
C1333 C 0.41377 0.52889 0.17738 0.0
C1334 C 0.41417 0.5701 0.22696 0.0
C1335 C 0.41711 0.58392 0.27196 0.0
C1336 C 0.40394 0.57242 0.31053 0.0
C1337 C 0.40612 0.586 0.35238 0.0
C1338 C 0.42082 0.61151 0.35602 0.0
C1339 C 0.43333 0.62352 0.31775 0.0
C1340 C 0.43158 0.6098 0.27592 0.0
C1341 C 0.33722 0.61229 0.09405 0.0
C1342 C 0.35147 0.6321 0.06721 0.0
C1343 C 0.35239 0.59204 0.11824 0.0
C1344 C 0.382 0.59161 0.11618 0.0
C1345 C 0.39625 0.61083 0.08812 0.0
C1346 C 0.38099 0.63079 0.06326 0.0
C1347 C 0.39769 0.57423 0.149 0.0
C1348 C 0.40372 0.58635 0.19106 0.0
C1349 C 0.403 0.5453 0.14176 0.0
C1350 C 0.39718 0.5318 0.09758 0.0
C1351 C 0.41157 0.54072 0.05851 0.0
C1352 C 0.40641 0.52752 0.01699 0.0
C1353 C 0.38686 0.50542 0.01417 0.0
C1354 C 0.37248 0.49642 0.0529 0.0
C1355 C 0.37761 0.50954 0.09449 0.0
H1356 H 0.38292 0.49521 0.982 0.0
H1357 H 0.42241 0.62202 0.38844 0.0
H1358 H 0.4521 0.4005 0.38398 0.0
H1359 H 0.42477 0.39782 0.31429 0.0
H1360 H 0.48964 0.44445 0.24383 0.0
H1361 H 0.51739 0.44725 0.31388 0.0
H1362 H 0.40289 0.4377 0.25179 0.0
H1363 H 0.49887 0.41269 0.15095 0.0
H1364 H 0.54797 0.39761 0.16534 0.0
H1365 H 0.51932 0.34279 0.27183 0.0
H1366 H 0.47009 0.35766 0.25795 0.0
H1367 H 0.34127 0.39416 0.04016 0.0
H1368 H 0.37519 0.41905 0.08953 0.0
H1369 H 0.39808 0.33952 0.15079 0.0
H1370 H 0.36453 0.31497 0.10134 0.0
H1371 H 0.44443 0.37322 0.13744 0.0
H1372 H 0.34794 0.38133 0.19468 0.0
H1373 H 0.29829 0.39693 0.19129 0.0
H1374 H 0.32542 0.48336 0.18169 0.0
H1375 H 0.37528 0.46815 0.18436 0.0
C1376 C 0.4606 0.41031 0.35378 0.0
C1377 C 0.48712 0.42373 0.35432 0.0
C1378 C 0.44474 0.40907 0.3141 0.0
C1379 C 0.45517 0.42093 0.27399 0.0
C1380 C 0.48128 0.43511 0.2745 0.0
C1381 C 0.49718 0.43648 0.3144 0.0
C1382 C 0.44009 0.41511 0.23109 0.0
C1383 C 0.41213 0.42426 0.22607 0.0
C1384 C 0.45202 0.39722 0.19805 0.0
C1385 C 0.48099 0.38615 0.2033 0.0
C1386 C 0.50309 0.39711 0.17692 0.0
C1387 C 0.53093 0.38872 0.1852 0.0
C1388 C 0.53676 0.36926 0.21957 0.0
C1389 C 0.51476 0.35785 0.24527 0.0
C1390 C 0.48692 0.36622 0.23719 0.0
C1391 C 0.35393 0.38218 0.06387 0.0
C1392 C 0.35023 0.35285 0.06776 0.0
C1393 C 0.37319 0.3963 0.09194 0.0
C1394 C 0.38902 0.38113 0.12402 0.0
C1395 C 0.38615 0.35163 0.12626 0.0
C1396 C 0.36686 0.33765 0.09846 0.0
C1397 C 0.40691 0.39566 0.15805 0.0
C1398 C 0.43546 0.38786 0.16172 0.0
C1399 C 0.3953 0.41466 0.19008 0.0
C1400 C 0.36531 0.4236 0.18866 0.0
C1401 C 0.34332 0.40363 0.19127 0.0
C1402 C 0.31514 0.4124 0.18962 0.0
C1403 C 0.3087 0.44111 0.18599 0.0
C1404 C 0.33043 0.46112 0.18424 0.0
C1405 C 0.35863 0.45244 0.18575 0.0
H1406 H 0.28687 0.44786 0.18476 0.0
H1407 H 0.55828 0.36307 0.22661 0.0
loop_
_geom_bond_atom_site_label_1
_geom_bond_atom_site_label_2
_geom_bond_distance
_geom_bond_site_symmetry_2
_ccdc_geom_bond_type
Zn0 O2 1.933 1_556 S
Zn0 O20 1.985 . S
Zn0 O31 1.955 . S
Zn1 O2 1.911 . S
Zn1 O21 1.970 . S
Zn1 O37 1.945 . S
Zn1 O44 1.981 . S
O2 Zn0 1.933 1_554 S
O2 Zn1 1.911 . S
O2 H3 0.841 1_655 S
H3 O2 0.841 1_455 S
C4 O5 1.246 . S
C4 O33 1.276 1_545 S
O5 C4 1.246 . S
Zn6 O8 1.911 . S
Zn6 O23 1.970 . S
Zn6 O40 1.945 . S
Zn6 O47 1.981 . S
Zn7 O8 1.933 1_556 S
Zn7 O22 1.985 . S
Zn7 O29 1.955 . S
O8 Zn6 1.911 . S
O8 Zn7 1.933 1_554 S
O8 H9 0.841 1_455 S
H9 O8 0.841 1_655 S
Zn10 O11 1.933 1_556 S
Zn10 O24 1.985 . S
Zn10 O33 1.955 . S
O11 Zn10 1.933 1_554 S
O11 Zn12 1.911 . S
O11 H13 0.841 1_565 S
Zn12 O11 1.911 . S
Zn12 O25 1.970 . S
Zn12 O41 1.981 . S
Zn12 O43 1.945 . S
H13 O11 0.841 1_545 S
Zn14 O15 1.933 1_556 S
Zn14 O27 1.985 . S
Zn14 O35 1.955 . S
O15 Zn14 1.933 1_554 S
O15 H16 0.841 1_545 S
O15 Zn17 1.911 . S
H16 O15 0.841 1_565 S
Zn17 O15 1.911 . S
Zn17 O28 1.970 . S
Zn17 O38 1.981 . S
Zn17 O46 1.945 . S
C18 O19 1.246 . S
C18 O35 1.276 1_565 S
O19 C18 1.246 . S
O20 Zn0 1.985 . S
O20 C30 1.245 1_556 S
O21 Zn1 1.970 . S
O21 C30 1.263 . S
O22 Zn7 1.985 . S
O22 C34 1.245 1_556 S
O23 Zn6 1.970 . S
O23 C34 1.263 . S
O24 Zn10 1.985 . S
O24 C39 1.245 1_556 S
O25 Zn12 1.970 . S
O25 C39 1.263 . S
C26 O37 1.262 1_455 S
C26 O38 1.245 . S
O27 Zn14 1.985 . S
O27 C45 1.245 1_556 S
O28 Zn17 1.970 . S
O28 C45 1.263 . S
O29 Zn7 1.955 . S
O29 C48 1.276 1_455 S
C30 O20 1.245 1_554 S
C30 O21 1.263 . S
O31 Zn0 1.955 . S
O31 C50 1.276 1_655 S
C32 O40 1.262 1_655 S
C32 O41 1.245 . S
O33 C4 1.276 1_565 S
O33 Zn10 1.955 . S
C34 O22 1.245 1_554 S
C34 O23 1.263 . S
O35 Zn14 1.955 . S
O35 C18 1.276 1_545 S
C36 O43 1.262 1_545 S
C36 O44 1.245 . S
O37 Zn1 1.945 . S
O37 C26 1.262 1_655 S
O38 Zn17 1.981 . S
O38 C26 1.245 . S
C39 O24 1.245 1_554 S
C39 O25 1.263 . S
O40 Zn6 1.945 . S
O40 C32 1.262 1_455 S
O41 Zn12 1.981 . S
O41 C32 1.245 . S
C42 O46 1.262 1_565 S
C42 O47 1.245 . S
O43 Zn12 1.945 . S
O43 C36 1.262 1_565 S
O44 Zn1 1.981 . S
O44 C36 1.245 . S
C45 O27 1.245 1_554 S
C45 O28 1.263 . S
O46 Zn17 1.945 . S
O46 C42 1.262 1_545 S
O47 Zn6 1.981 . S
O47 C42 1.245 . S
C48 O29 1.276 1_655 S
C48 O49 1.246 . S
O49 C48 1.246 . S
C50 O31 1.276 1_455 S
C50 O51 1.246 . S
O51 C50 1.246 . S
Zn52 O54 1.933 . S
Zn52 O72 1.985 . S
Zn52 O83 1.955 . S
Zn53 O54 1.911 . S
Zn53 O73 1.970 . S
Zn53 O89 1.945 . S
Zn53 O96 1.981 . S
O54 Zn52 1.933 . S
O54 Zn53 1.911 . S
O54 H55 0.841 . S
H55 O54 0.841 . S
C56 O57 1.246 . S
C56 O85 1.276 . S
O57 C56 1.246 . S
Zn58 O60 1.911 . S
Zn58 O75 1.970 . S
Zn58 O92 1.945 . S
Zn58 O99 1.981 . S
Zn59 O60 1.933 . S
Zn59 O74 1.985 . S
Zn59 O81 1.955 . S
O60 Zn58 1.911 . S
O60 Zn59 1.933 . S
O60 H61 0.841 . S
H61 O60 0.841 . S
Zn62 O63 1.933 . S
Zn62 O76 1.985 . S
Zn62 O85 1.955 . S
O63 Zn62 1.933 . S
O63 Zn64 1.911 . S
O63 H65 0.841 . S
Zn64 O63 1.911 . S
Zn64 O77 1.970 . S
Zn64 O93 1.981 . S
Zn64 O95 1.945 . S
H65 O63 0.841 . S
Zn66 O67 1.933 . S
Zn66 O79 1.985 . S
Zn66 O87 1.955 . S
O67 Zn66 1.933 . S
O67 H68 0.841 . S
O67 Zn69 1.911 . S
H68 O67 0.841 . S
Zn69 O67 1.911 . S
Zn69 O80 1.970 . S
Zn69 O90 1.981 . S
Zn69 O98 1.945 . S
C70 O71 1.246 . S
C70 O87 1.276 . S
O71 C70 1.246 . S
O72 Zn52 1.985 . S
O72 C82 1.245 . S
O73 Zn53 1.970 . S
O73 C82 1.263 . S
O74 Zn59 1.985 . S
O74 C86 1.245 . S
O75 Zn58 1.970 . S
O75 C86 1.263 . S
O76 Zn62 1.985 . S
O76 C91 1.245 . S
O77 Zn64 1.970 . S
O77 C91 1.263 . S
C78 O89 1.262 . S
C78 O90 1.245 . S
O79 Zn66 1.985 . S
O79 C97 1.245 . S
O80 Zn69 1.970 . S
O80 C97 1.263 . S
O81 Zn59 1.955 . S
O81 C100 1.276 . S
C82 O72 1.245 . S
C82 O73 1.263 . S
O83 Zn52 1.955 . S
O83 C102 1.276 . S
C84 O92 1.262 . S
C84 O93 1.245 . S
O85 C56 1.276 . S
O85 Zn62 1.955 . S
C86 O74 1.245 . S
C86 O75 1.263 . S
O87 Zn66 1.955 . S
O87 C70 1.276 . S
C88 O95 1.262 . S
C88 O96 1.245 . S
O89 Zn53 1.945 . S
O89 C78 1.262 . S
O90 Zn69 1.981 . S
O90 C78 1.245 . S
C91 O76 1.245 . S
C91 O77 1.263 . S
O92 Zn58 1.945 . S
O92 C84 1.262 . S
O93 Zn64 1.981 . S
O93 C84 1.245 . S
C94 O98 1.262 . S
C94 O99 1.245 . S
O95 Zn64 1.945 . S
O95 C88 1.262 . S
O96 Zn53 1.981 . S
O96 C88 1.245 . S
C97 O79 1.245 . S
C97 O80 1.263 . S
O98 Zn69 1.945 . S
O98 C94 1.262 . S
O99 Zn58 1.981 . S
O99 C94 1.245 . S
C100 O81 1.276 . S
C100 O101 1.246 . S
O101 C100 1.246 . S
C102 O83 1.276 . S
C102 O103 1.246 . S
O103 C102 1.246 . S
C104 N105 1.317 . S
C104 N106 1.348 1_556 S
C104 C107 1.485 . S
N105 C104 1.317 . S
N105 N109 1.370 1_556 S
N106 C104 1.348 1_554 S
N106 C108 1.346 . S
C107 C104 1.485 . S
C107 H111 0.960 . S
C107 H112 0.961 . S
C107 H113 0.960 . S
C108 N106 1.346 . S
C108 N109 1.307 . S
C108 C110 1.486 . S
N109 N105 1.370 1_554 S
N109 C108 1.307 . S
C110 C108 1.486 . S
C110 H114 0.960 . S
C110 H115 0.960 . S
C110 H116 0.959 . S
H111 C107 0.960 . S
H112 C107 0.961 . S
H113 C107 0.960 . S
H114 C110 0.960 . S
H115 C110 0.960 . S
H116 C110 0.959 . S
C117 N118 1.317 . S
C117 N119 1.348 1_556 S
C117 C120 1.485 . S
N118 C117 1.317 . S
N118 N122 1.370 1_556 S
N119 C117 1.348 1_554 S
N119 C121 1.346 . S
C120 C117 1.485 . S
C120 H124 0.960 . S
C120 H125 0.961 . S
C120 H126 0.960 . S
C121 N119 1.346 . S
C121 N122 1.307 . S
C121 C123 1.486 . S
N122 N118 1.370 1_554 S
N122 C121 1.307 . S
C123 C121 1.486 . S
C123 H127 0.960 . S
C123 H128 0.960 . S
C123 H129 0.959 . S
H124 C120 0.960 . S
H125 C120 0.961 . S
H126 C120 0.960 . S
H127 C123 0.960 . S
H128 C123 0.960 . S
H129 C123 0.959 . S
C130 N131 1.317 . S
C130 N132 1.348 . S
C130 C133 1.485 . S
N131 C130 1.317 . S
N131 N135 1.370 1_554 S
N132 C130 1.348 . S
N132 C134 1.346 1_554 S
C133 C130 1.485 . S
C133 H137 0.960 . S
C133 H138 0.961 . S
C133 H139 0.960 . S
C134 N132 1.346 1_556 S
C134 N135 1.307 . S
C134 C136 1.486 . S
N135 N131 1.370 1_556 S
N135 C134 1.307 . S
C136 C134 1.486 . S
C136 H140 0.960 . S
C136 H141 0.960 . S
C136 H142 0.959 . S
H137 C133 0.960 . S
H138 C133 0.961 . S
H139 C133 0.960 . S
H140 C136 0.960 . S
H141 C136 0.960 . S
H142 C136 0.959 . S
C143 N144 1.317 . S
C143 N145 1.348 . S
C143 C146 1.485 . S
N144 C143 1.317 . S
N144 N148 1.370 1_554 S
N145 C143 1.348 . S
N145 C147 1.346 1_554 S
C146 C143 1.485 . S
C146 H150 0.960 . S
C146 H151 0.961 . S
C146 H152 0.960 . S
C147 N145 1.346 1_556 S
C147 N148 1.307 . S
C147 C149 1.486 . S
N148 N144 1.370 1_556 S
N148 C147 1.307 . S
C149 C147 1.486 . S
C149 H153 0.960 . S
C149 H154 0.960 . S
C149 H155 0.959 . S
H150 C146 0.960 . S
H151 C146 0.961 . S
H152 C146 0.960 . S
H153 C149 0.960 . S
H154 C149 0.960 . S
H155 C149 0.959 . S
C156 N157 1.317 . S
C156 N158 1.348 . S
C156 C159 1.485 . S
N157 C156 1.317 . S
N157 N161 1.370 . S
N158 C156 1.348 . S
N158 C160 1.346 . S
C159 C156 1.485 . S
C159 H163 0.960 . S
C159 H164 0.961 . S
C159 H165 0.960 . S
C160 N158 1.346 . S
C160 N161 1.307 . S
C160 C162 1.486 . S
N161 N157 1.370 . S
N161 C160 1.307 . S
C162 C160 1.486 . S
C162 H166 0.960 . S
C162 H167 0.960 . S
C162 H168 0.959 . S
H163 C159 0.960 . S
H164 C159 0.961 . S
H165 C159 0.960 . S
H166 C162 0.960 . S
H167 C162 0.960 . S
H168 C162 0.959 . S
C169 N170 1.317 . S
C169 N171 1.348 . S
C169 C172 1.485 . S
N170 C169 1.317 . S
N170 N174 1.370 . S
N171 C169 1.348 . S
N171 C173 1.346 . S
C172 C169 1.485 . S
C172 H176 0.960 . S
C172 H177 0.961 . S
C172 H178 0.960 . S
C173 N171 1.346 . S
C173 N174 1.307 . S
C173 C175 1.486 . S
N174 N170 1.370 . S
N174 C173 1.307 . S
C175 C173 1.486 . S
C175 H179 0.960 . S
C175 H180 0.960 . S
C175 H181 0.959 . S
H176 C172 0.960 . S
H177 C172 0.961 . S
H178 C172 0.960 . S
H179 C175 0.960 . S
H180 C175 0.960 . S
H181 C175 0.959 . S
C182 N183 1.317 . S
C182 N184 1.348 . S
C182 C185 1.485 . S
N183 C182 1.317 . S
N183 N187 1.370 . S
N184 C182 1.348 . S
N184 C186 1.346 . S
C185 C182 1.485 . S
C185 H189 0.960 . S
C185 H190 0.961 . S
C185 H191 0.960 . S
C186 N184 1.346 . S
C186 N187 1.307 . S
C186 C188 1.486 . S
N187 N183 1.370 . S
N187 C186 1.307 . S
C188 C186 1.486 . S
C188 H192 0.960 . S
C188 H193 0.960 . S
C188 H194 0.959 . S
H189 C185 0.960 . S
H190 C185 0.961 . S
H191 C185 0.960 . S
H192 C188 0.960 . S
H193 C188 0.960 . S
H194 C188 0.959 . S
C195 N196 1.317 . S
C195 N197 1.348 . S
C195 C198 1.485 . S
N196 C195 1.317 . S
N196 N200 1.370 . S
N197 C195 1.348 . S
N197 C199 1.346 . S
C198 C195 1.485 . S
C198 H202 0.960 . S
C198 H203 0.961 . S
C198 H204 0.960 . S
C199 N197 1.346 . S
C199 N200 1.307 . S
C199 C201 1.486 . S
N200 N196 1.370 . S
N200 C199 1.307 . S
C201 C199 1.486 . S
C201 H205 0.960 . S
C201 H206 0.960 . S
C201 H207 0.959 . S
H202 C198 0.960 . S
H203 C198 0.961 . S
H204 C198 0.960 . S
H205 C201 0.960 . S
H206 C201 0.960 . S
H207 C201 0.959 . S
H208 C226 0.951 . S
H209 C228 0.951 . S
H210 C230 0.950 . S
H211 C231 0.950 . S
H212 C233 0.950 . S
H213 C236 0.950 . S
H214 C237 0.950 . S
H215 C239 0.950 . S
H216 C240 0.950 . S
H217 C241 0.951 . S
H218 C243 0.951 . S
H219 C245 0.950 . S
H220 C246 0.950 . S
H221 C248 0.950 . S
H222 C251 0.950 1_554 S
H223 C252 0.950 . S
H224 C254 0.950 . S
H225 C255 0.950 . S
C226 H208 0.951 . S
C226 C227 1.366 . S
C226 C228 1.388 . S
C227 C226 1.366 . S
C227 C231 1.385 1_554 S
C228 H209 0.951 . S
C228 C226 1.388 . S
C228 C229 1.366 . S
C229 C228 1.366 . S
C229 C230 1.414 1_554 S
C229 C232 1.499 . S
C230 H210 0.950 . S
C230 C229 1.414 1_556 S
C230 C231 1.374 . S
C231 H211 0.950 . S
C231 C227 1.385 1_556 S
C231 C230 1.374 . S
C232 C229 1.499 . S
C232 C233 1.373 1_554 S
C232 C234 1.389 . S
C233 H212 0.950 . S
C233 C232 1.373 1_556 S
C233 C249 1.377 . S
C234 C232 1.389 . S
C234 C235 1.524 . S
C234 C248 1.377 . S
C235 C234 1.524 . S
C235 C236 1.397 . S
C235 C240 1.363 . S
C236 H213 0.950 . S
C236 C235 1.397 . S
C236 C237 1.334 . S
C237 H214 0.950 . S
C237 C236 1.334 . S
C237 C238 1.287 . S
C238 C237 1.287 . S
C238 C239 1.524 . S
C238 H257 0.913 . S
C239 H215 0.950 . S
C239 C238 1.524 . S
C239 C240 1.415 . S
C240 H216 0.950 . S
C240 C235 1.363 . S
C240 C239 1.415 . S
C241 H217 0.951 . S
C241 C242 1.366 1_556 S
C241 C243 1.388 . S
C242 C241 1.366 1_554 S
C242 C246 1.385 . S
C243 H218 0.951 . S
C243 C241 1.388 . S
C243 C244 1.366 1_556 S
C244 C243 1.366 1_554 S
C244 C245 1.414 . S
C244 C247 1.499 . S
C245 H219 0.950 . S
C245 C244 1.414 . S
C245 C246 1.374 . S
C246 H220 0.950 . S
C246 C242 1.385 . S
C246 C245 1.374 . S
C247 C244 1.499 . S
C247 C248 1.373 . S
C247 C249 1.389 1_554 S
C248 H221 0.950 . S
C248 C234 1.377 . S
C248 C247 1.373 . S
C249 C233 1.377 . S
C249 C247 1.389 1_556 S
C249 C250 1.524 . S
C250 C249 1.524 . S
C250 C251 1.397 . S
C250 C255 1.363 . S
C251 H222 0.950 1_556 S
C251 C250 1.397 . S
C251 C252 1.334 . S
C252 H223 0.950 . S
C252 C251 1.334 . S
C252 C253 1.287 . S
C253 C252 1.287 . S
C253 C254 1.524 . S
C253 H256 0.999 . S
C254 H224 0.950 . S
C254 C253 1.524 . S
C254 C255 1.415 . S
C255 H225 0.950 . S
C255 C250 1.363 . S
C255 C254 1.415 . S
H256 C253 0.999 . S
H257 C238 0.913 . S
H258 C276 0.951 . S
H259 C278 0.951 . S
H260 C280 0.950 . S
H261 C281 0.950 . S
H262 C283 0.950 . S
H263 C286 0.950 . S
H264 C287 0.950 . S
H265 C289 0.950 . S
H266 C290 0.950 1_556 S
H267 C291 0.951 . S
H268 C293 0.951 . S
H269 C295 0.950 . S
H270 C296 0.950 . S
H271 C298 0.950 . S
H272 C301 0.950 . S
H273 C302 0.950 . S
H274 C304 0.950 1_554 S
H275 C305 0.950 . S
C276 H258 0.951 . S
C276 C277 1.366 1_556 S
C276 C278 1.388 . S
C277 C276 1.366 1_554 S
C277 C281 1.385 . S
C278 H259 0.951 . S
C278 C276 1.388 . S
C278 C279 1.366 1_556 S
C279 C278 1.366 1_554 S
C279 C280 1.414 . S
C279 C282 1.499 . S
C280 H260 0.950 . S
C280 C279 1.414 . S
C280 C281 1.374 . S
C281 H261 0.950 . S
C281 C277 1.385 . S
C281 C280 1.374 . S
C282 C279 1.499 . S
C282 C283 1.373 . S
C282 C284 1.389 . S
C283 H262 0.950 . S
C283 C282 1.373 . S
C283 C299 1.377 . S
C284 C282 1.389 . S
C284 C285 1.524 . S
C284 C298 1.377 . S
C285 C284 1.524 . S
C285 C286 1.397 . S
C285 C290 1.363 . S
C286 H263 0.950 . S
C286 C285 1.397 . S
C286 C287 1.334 . S
C287 H264 0.950 . S
C287 C286 1.334 . S
C287 C288 1.287 . S
C288 C287 1.287 . S
C288 C289 1.524 . S
C288 H307 0.913 . S
C289 H265 0.950 . S
C289 C288 1.524 . S
C289 C290 1.415 . S
C290 H266 0.950 1_554 S
C290 C285 1.363 . S
C290 C289 1.415 . S
C291 H267 0.951 . S
C291 C292 1.366 . S
C291 C293 1.388 . S
C292 C291 1.366 . S
C292 C296 1.385 1_554 S
C293 H268 0.951 . S
C293 C291 1.388 . S
C293 C294 1.366 . S
C294 C293 1.366 . S
C294 C295 1.414 1_554 S
C294 C297 1.499 . S
C295 H269 0.950 . S
C295 C294 1.414 1_556 S
C295 C296 1.374 . S
C296 H270 0.950 . S
C296 C292 1.385 1_556 S
C296 C295 1.374 . S
C297 C294 1.499 . S
C297 C298 1.373 . S
C297 C299 1.389 . S
C298 H271 0.950 . S
C298 C284 1.377 . S
C298 C297 1.373 . S
C299 C283 1.377 . S
C299 C297 1.389 . S
C299 C300 1.524 1_554 S
C300 C299 1.524 1_556 S
C300 C301 1.397 . S
C300 C305 1.363 1_556 S
C301 H272 0.950 . S
C301 C300 1.397 . S
C301 C302 1.334 . S
C302 H273 0.950 . S
C302 C301 1.334 . S
C302 C303 1.287 . S
C303 C302 1.287 . S
C303 C304 1.524 . S
C303 H306 0.999 . S
C304 H274 0.950 1_556 S
C304 C303 1.524 . S
C304 C305 1.415 1_556 S
C305 H275 0.950 . S
C305 C300 1.363 1_554 S
C305 C304 1.415 1_554 S
H306 C303 0.999 . S
H307 C288 0.913 . S
H308 C326 0.951 . S
H309 C328 0.951 . S
H310 C330 0.950 . S
H311 C331 0.950 . S
H312 C333 0.950 . S
H313 C336 0.950 . S
H314 C337 0.950 . S
H315 C339 0.950 . S
H316 C340 0.950 . S
H317 C341 0.951 . S
H318 C343 0.951 . S
H319 C345 0.950 . S
H320 C346 0.950 . S
H321 C348 0.950 . S
H322 C351 0.950 . S
H323 C352 0.950 . S
H324 C354 0.950 . S
H325 C355 0.950 . S
C326 H308 0.951 . S
C326 C327 1.366 1_556 S
C326 C328 1.388 . S
C327 C326 1.366 1_554 S
C327 C331 1.385 . S
C328 H309 0.951 . S
C328 C326 1.388 . S
C328 C329 1.366 1_556 S
C329 C328 1.366 1_554 S
C329 C330 1.414 . S
C329 C332 1.499 . S
C330 H310 0.950 . S
C330 C329 1.414 . S
C330 C331 1.374 . S
C331 H311 0.950 . S
C331 C327 1.385 . S
C331 C330 1.374 . S
C332 C329 1.499 . S
C332 C333 1.373 . S
C332 C334 1.389 1_554 S
C333 H312 0.950 . S
C333 C332 1.373 . S
C333 C349 1.377 . S
C334 C332 1.389 1_556 S
C334 C335 1.524 . S
C334 C348 1.377 . S
C335 C334 1.524 . S
C335 C336 1.397 . S
C335 C340 1.363 . S
C336 H313 0.950 . S
C336 C335 1.397 . S
C336 C337 1.334 . S
C337 H314 0.950 . S
C337 C336 1.334 . S
C337 C338 1.287 . S
C338 C337 1.287 . S
C338 C339 1.524 . S
C338 H357 0.913 . S
C339 H315 0.950 . S
C339 C338 1.524 . S
C339 C340 1.415 . S
C340 H316 0.950 . S
C340 C335 1.363 . S
C340 C339 1.415 . S
C341 H317 0.951 . S
C341 C342 1.366 . S
C341 C343 1.388 . S
C342 C341 1.366 . S
C342 C346 1.385 1_554 S
C343 H318 0.951 . S
C343 C341 1.388 . S
C343 C344 1.366 . S
C344 C343 1.366 . S
C344 C345 1.414 1_554 S
C344 C347 1.499 . S
C345 H319 0.950 . S
C345 C344 1.414 1_556 S
C345 C346 1.374 . S
C346 H320 0.950 . S
C346 C342 1.385 1_556 S
C346 C345 1.374 . S
C347 C344 1.499 . S
C347 C348 1.373 1_554 S
C347 C349 1.389 . S
C348 H321 0.950 . S
C348 C334 1.377 . S
C348 C347 1.373 1_556 S
C349 C333 1.377 . S
C349 C347 1.389 . S
C349 C350 1.524 . S
C350 C349 1.524 . S
C350 C351 1.397 . S
C350 C355 1.363 . S
C351 H322 0.950 . S
C351 C350 1.397 . S
C351 C352 1.334 . S
C352 H323 0.950 . S
C352 C351 1.334 . S
C352 C353 1.287 . S
C353 C352 1.287 . S
C353 C354 1.524 . S
C353 H356 0.999 . S
C354 H324 0.950 . S
C354 C353 1.524 . S
C354 C355 1.415 . S
C355 H325 0.950 . S
C355 C350 1.363 . S
C355 C354 1.415 . S
H356 C353 0.999 . S
H357 C338 0.913 . S
H358 C376 0.951 . S
H359 C378 0.951 . S
H360 C380 0.950 . S
H361 C381 0.950 . S
H362 C383 0.950 . S
H363 C386 0.950 . S
H364 C387 0.950 . S
H365 C389 0.950 . S
H366 C390 0.950 . S
H367 C391 0.951 . S
H368 C393 0.951 . S
H369 C395 0.950 . S
H370 C396 0.950 . S
H371 C398 0.950 . S
H372 C401 0.950 . S
H373 C402 0.950 . S
H374 C404 0.950 . S
H375 C405 0.950 . S
C376 H358 0.951 . S
C376 C377 1.366 . S
C376 C378 1.388 . S
C377 C376 1.366 . S
C377 C381 1.385 1_554 S
C378 H359 0.951 . S
C378 C376 1.388 . S
C378 C379 1.366 . S
C379 C378 1.366 . S
C379 C380 1.414 1_554 S
C379 C382 1.499 . S
C380 H360 0.950 . S
C380 C379 1.414 1_556 S
C380 C381 1.374 . S
C381 H361 0.950 . S
C381 C377 1.385 1_556 S
C381 C380 1.374 . S
C382 C379 1.499 . S
C382 C383 1.373 1_554 S
C382 C384 1.389 . S
C383 H362 0.950 . S
C383 C382 1.373 1_556 S
C383 C399 1.377 . S
C384 C382 1.389 . S
C384 C385 1.524 . S
C384 C398 1.377 . S
C385 C384 1.524 . S
C385 C386 1.397 . S
C385 C390 1.363 . S
C386 H363 0.950 . S
C386 C385 1.397 . S
C386 C387 1.334 . S
C387 H364 0.950 . S
C387 C386 1.334 . S
C387 C388 1.287 . S
C388 C387 1.287 . S
C388 C389 1.524 . S
C388 H407 0.913 . S
C389 H365 0.950 . S
C389 C388 1.524 . S
C389 C390 1.415 . S
C390 H366 0.950 . S
C390 C385 1.363 . S
C390 C389 1.415 . S
C391 H367 0.951 . S
C391 C392 1.366 1_556 S
C391 C393 1.388 . S
C392 C391 1.366 1_554 S
C392 C396 1.385 . S
C393 H368 0.951 . S
C393 C391 1.388 . S
C393 C394 1.366 1_556 S
C394 C393 1.366 1_554 S
C394 C395 1.414 . S
C394 C397 1.499 . S
C395 H369 0.950 . S
C395 C394 1.414 . S
C395 C396 1.374 . S
C396 H370 0.950 . S
C396 C392 1.385 . S
C396 C395 1.374 . S
C397 C394 1.499 . S
C397 C398 1.373 . S
C397 C399 1.389 1_554 S
C398 H371 0.950 . S
C398 C384 1.377 . S
C398 C397 1.373 . S
C399 C383 1.377 . S
C399 C397 1.389 1_556 S
C399 C400 1.524 . S
C400 C399 1.524 . S
C400 C401 1.397 . S
C400 C405 1.363 . S
C401 H372 0.950 . S
C401 C400 1.397 . S
C401 C402 1.334 . S
C402 H373 0.950 . S
C402 C401 1.334 . S
C402 C403 1.287 . S
C403 C402 1.287 . S
C403 C404 1.524 . S
C403 H406 0.999 . S
C404 H374 0.950 . S
C404 C403 1.524 . S
C404 C405 1.415 . S
C405 H375 0.950 . S
C405 C400 1.363 . S
C405 C404 1.415 . S
H406 C403 0.999 . S
H407 C388 0.913 . S
H408 C426 0.951 . S
H409 C428 0.951 . S
H410 C430 0.950 . S
H411 C431 0.950 . S
H412 C433 0.950 . S
H413 C436 0.950 . S
H414 C437 0.950 . S
H415 C439 0.950 . S
H416 C440 0.950 . S
H417 C441 0.951 . S
H418 C443 0.951 . S
H419 C445 0.950 . S
H420 C446 0.950 . S
H421 C448 0.950 . S
H422 C451 0.950 . S
H423 C452 0.950 . S
H424 C454 0.950 . S
H425 C455 0.950 . S
C426 H408 0.951 . S
C426 C427 1.366 . S
C426 C428 1.388 . S
C427 C426 1.366 . S
C427 C431 1.385 . S
C428 H409 0.951 . S
C428 C426 1.388 . S
C428 C429 1.366 . S
C429 C428 1.366 . S
C429 C430 1.414 . S
C429 C432 1.499 . S
C430 H410 0.950 . S
C430 C429 1.414 . S
C430 C431 1.374 . S
C431 H411 0.950 . S
C431 C427 1.385 . S
C431 C430 1.374 . S
C432 C429 1.499 . S
C432 C433 1.373 . S
C432 C434 1.389 . S
C433 H412 0.950 . S
C433 C432 1.373 . S
C433 C449 1.377 . S
C434 C432 1.389 . S
C434 C435 1.524 . S
C434 C448 1.377 . S
C435 C434 1.524 . S
C435 C436 1.397 . S
C435 C440 1.363 . S
C436 H413 0.950 . S
C436 C435 1.397 . S
C436 C437 1.334 . S
C437 H414 0.950 . S
C437 C436 1.334 . S
C437 C438 1.287 . S
C438 C437 1.287 . S
C438 C439 1.524 . S
C438 H457 0.913 . S
C439 H415 0.950 . S
C439 C438 1.524 . S
C439 C440 1.415 . S
C440 H416 0.950 . S
C440 C435 1.363 . S
C440 C439 1.415 . S
C441 H417 0.951 . S
C441 C442 1.366 . S
C441 C443 1.388 . S
C442 C441 1.366 . S
C442 C446 1.385 . S
C443 H418 0.951 . S
C443 C441 1.388 . S
C443 C444 1.366 . S
C444 C443 1.366 . S
C444 C445 1.414 . S
C444 C447 1.499 . S
C445 H419 0.950 . S
C445 C444 1.414 . S
C445 C446 1.374 . S
C446 H420 0.950 . S
C446 C442 1.385 . S
C446 C445 1.374 . S
C447 C444 1.499 . S
C447 C448 1.373 . S
C447 C449 1.389 . S
C448 H421 0.950 . S
C448 C434 1.377 . S
C448 C447 1.373 . S
C449 C433 1.377 . S
C449 C447 1.389 . S
C449 C450 1.524 . S
C450 C449 1.524 . S
C450 C451 1.397 . S
C450 C455 1.363 . S
C451 H422 0.950 . S
C451 C450 1.397 . S
C451 C452 1.334 . S
C452 H423 0.950 . S
C452 C451 1.334 . S
C452 C453 1.287 . S
C453 C452 1.287 . S
C453 C454 1.524 . S
C453 H456 0.999 . S
C454 H424 0.950 . S
C454 C453 1.524 . S
C454 C455 1.415 . S
C455 H425 0.950 . S
C455 C450 1.363 . S
C455 C454 1.415 . S
H456 C453 0.999 . S
H457 C438 0.913 . S
H458 C476 0.951 . S
H459 C478 0.951 . S
H460 C480 0.950 . S
H461 C481 0.950 . S
H462 C483 0.950 . S
H463 C486 0.950 . S
H464 C487 0.950 . S
H465 C489 0.950 . S
H466 C490 0.950 . S
H467 C491 0.951 . S
H468 C493 0.951 . S
H469 C495 0.950 . S
H470 C496 0.950 . S
H471 C498 0.950 . S
H472 C501 0.950 . S
H473 C502 0.950 . S
H474 C504 0.950 . S
H475 C505 0.950 . S
C476 H458 0.951 . S
C476 C477 1.366 . S
C476 C478 1.388 . S
C477 C476 1.366 . S
C477 C481 1.385 . S
C478 H459 0.951 . S
C478 C476 1.388 . S
C478 C479 1.366 . S
C479 C478 1.366 . S
C479 C480 1.414 . S
C479 C482 1.499 . S
C480 H460 0.950 . S
C480 C479 1.414 . S
C480 C481 1.374 . S
C481 H461 0.950 . S
C481 C477 1.385 . S
C481 C480 1.374 . S
C482 C479 1.499 . S
C482 C483 1.373 . S
C482 C484 1.389 . S
C483 H462 0.950 . S
C483 C482 1.373 . S
C483 C499 1.377 . S
C484 C482 1.389 . S
C484 C485 1.524 . S
C484 C498 1.377 . S
C485 C484 1.524 . S
C485 C486 1.397 . S
C485 C490 1.363 . S
C486 H463 0.950 . S
C486 C485 1.397 . S
C486 C487 1.334 . S
C487 H464 0.950 . S
C487 C486 1.334 . S
C487 C488 1.287 . S
C488 C487 1.287 . S
C488 C489 1.524 . S
C488 H507 0.913 . S
C489 H465 0.950 . S
C489 C488 1.524 . S
C489 C490 1.415 . S
C490 H466 0.950 . S
C490 C485 1.363 . S
C490 C489 1.415 . S
C491 H467 0.951 . S
C491 C492 1.366 . S
C491 C493 1.388 . S
C492 C491 1.366 . S
C492 C496 1.385 . S
C493 H468 0.951 . S
C493 C491 1.388 . S
C493 C494 1.366 . S
C494 C493 1.366 . S
C494 C495 1.414 . S
C494 C497 1.499 . S
C495 H469 0.950 . S
C495 C494 1.414 . S
C495 C496 1.374 . S
C496 H470 0.950 . S
C496 C492 1.385 . S
C496 C495 1.374 . S
C497 C494 1.499 . S
C497 C498 1.373 . S
C497 C499 1.389 . S
C498 H471 0.950 . S
C498 C484 1.377 . S
C498 C497 1.373 . S
C499 C483 1.377 . S
C499 C497 1.389 . S
C499 C500 1.524 . S
C500 C499 1.524 . S
C500 C501 1.397 . S
C500 C505 1.363 . S
C501 H472 0.950 . S
C501 C500 1.397 . S
C501 C502 1.334 . S
C502 H473 0.950 . S
C502 C501 1.334 . S
C502 C503 1.287 . S
C503 C502 1.287 . S
C503 C504 1.524 . S
C503 H506 0.999 . S
C504 H474 0.950 . S
C504 C503 1.524 . S
C504 C505 1.415 . S
C505 H475 0.950 . S
C505 C500 1.363 . S
C505 C504 1.415 . S
H506 C503 0.999 . S
H507 C488 0.913 . S
H508 C526 0.951 . S
H509 C528 0.951 . S
H510 C530 0.950 . S
H511 C531 0.950 . S
H512 C533 0.950 . S
H513 C536 0.950 . S
H514 C537 0.950 . S
H515 C539 0.950 . S
H516 C540 0.950 . S
H517 C541 0.951 . S
H518 C543 0.951 . S
H519 C545 0.950 . S
H520 C546 0.950 . S
H521 C548 0.950 . S
H522 C551 0.950 . S
H523 C552 0.950 . S
H524 C554 0.950 . S
H525 C555 0.950 . S
C526 H508 0.951 . S
C526 C527 1.366 . S
C526 C528 1.388 . S
C527 C526 1.366 . S
C527 C531 1.385 . S
C528 H509 0.951 . S
C528 C526 1.388 . S
C528 C529 1.366 . S
C529 C528 1.366 . S
C529 C530 1.414 . S
C529 C532 1.499 . S
C530 H510 0.950 . S
C530 C529 1.414 . S
C530 C531 1.374 . S
C531 H511 0.950 . S
C531 C527 1.385 . S
C531 C530 1.374 . S
C532 C529 1.499 . S
C532 C533 1.373 . S
C532 C534 1.389 . S
C533 H512 0.950 . S
C533 C532 1.373 . S
C533 C549 1.377 . S
C534 C532 1.389 . S
C534 C535 1.524 . S
C534 C548 1.377 . S
C535 C534 1.524 . S
C535 C536 1.397 . S
C535 C540 1.363 . S
C536 H513 0.950 . S
C536 C535 1.397 . S
C536 C537 1.334 . S
C537 H514 0.950 . S
C537 C536 1.334 . S
C537 C538 1.287 . S
C538 C537 1.287 . S
C538 C539 1.524 . S
C538 H557 0.913 . S
C539 H515 0.950 . S
C539 C538 1.524 . S
C539 C540 1.415 . S
C540 H516 0.950 . S
C540 C535 1.363 . S
C540 C539 1.415 . S
C541 H517 0.951 . S
C541 C542 1.366 . S
C541 C543 1.388 . S
C542 C541 1.366 . S
C542 C546 1.385 . S
C543 H518 0.951 . S
C543 C541 1.388 . S
C543 C544 1.366 . S
C544 C543 1.366 . S
C544 C545 1.414 . S
C544 C547 1.499 . S
C545 H519 0.950 . S
C545 C544 1.414 . S
C545 C546 1.374 . S
C546 H520 0.950 . S
C546 C542 1.385 . S
C546 C545 1.374 . S
C547 C544 1.499 . S
C547 C548 1.373 . S
C547 C549 1.389 . S
C548 H521 0.950 . S
C548 C534 1.377 . S
C548 C547 1.373 . S
C549 C533 1.377 . S
C549 C547 1.389 . S
C549 C550 1.524 . S
C550 C549 1.524 . S
C550 C551 1.397 . S
C550 C555 1.363 . S
C551 H522 0.950 . S
C551 C550 1.397 . S
C551 C552 1.334 . S
C552 H523 0.950 . S
C552 C551 1.334 . S
C552 C553 1.287 . S
C553 C552 1.287 . S
C553 C554 1.524 . S
C553 H556 0.999 . S
C554 H524 0.950 . S
C554 C553 1.524 . S
C554 C555 1.415 . S
C555 H525 0.950 . S
C555 C550 1.363 . S
C555 C554 1.415 . S
H556 C553 0.999 . S
H557 C538 0.913 . S
H558 C576 0.951 . S
H559 C578 0.951 . S
H560 C580 0.950 . S
H561 C581 0.950 . S
H562 C583 0.950 . S
H563 C586 0.950 . S
H564 C587 0.950 . S
H565 C589 0.950 . S
H566 C590 0.950 . S
H567 C591 0.951 . S
H568 C593 0.951 . S
H569 C595 0.950 . S
H570 C596 0.950 . S
H571 C598 0.950 . S
H572 C601 0.950 . S
H573 C602 0.950 . S
H574 C604 0.950 . S
H575 C605 0.950 . S
C576 H558 0.951 . S
C576 C577 1.366 . S
C576 C578 1.388 . S
C577 C576 1.366 . S
C577 C581 1.385 . S
C578 H559 0.951 . S
C578 C576 1.388 . S
C578 C579 1.366 . S
C579 C578 1.366 . S
C579 C580 1.414 . S
C579 C582 1.499 . S
C580 H560 0.950 . S
C580 C579 1.414 . S
C580 C581 1.374 . S
C581 H561 0.950 . S
C581 C577 1.385 . S
C581 C580 1.374 . S
C582 C579 1.499 . S
C582 C583 1.373 . S
C582 C584 1.389 . S
C583 H562 0.950 . S
C583 C582 1.373 . S
C583 C599 1.377 . S
C584 C582 1.389 . S
C584 C585 1.524 . S
C584 C598 1.377 . S
C585 C584 1.524 . S
C585 C586 1.397 . S
C585 C590 1.363 . S
C586 H563 0.950 . S
C586 C585 1.397 . S
C586 C587 1.334 . S
C587 H564 0.950 . S
C587 C586 1.334 . S
C587 C588 1.287 . S
C588 C587 1.287 . S
C588 C589 1.524 . S
C588 H607 0.913 . S
C589 H565 0.950 . S
C589 C588 1.524 . S
C589 C590 1.415 . S
C590 H566 0.950 . S
C590 C585 1.363 . S
C590 C589 1.415 . S
C591 H567 0.951 . S
C591 C592 1.366 . S
C591 C593 1.388 . S
C592 C591 1.366 . S
C592 C596 1.385 . S
C593 H568 0.951 . S
C593 C591 1.388 . S
C593 C594 1.366 . S
C594 C593 1.366 . S
C594 C595 1.414 . S
C594 C597 1.499 . S
C595 H569 0.950 . S
C595 C594 1.414 . S
C595 C596 1.374 . S
C596 H570 0.950 . S
C596 C592 1.385 . S
C596 C595 1.374 . S
C597 C594 1.499 . S
C597 C598 1.373 . S
C597 C599 1.389 . S
C598 H571 0.950 . S
C598 C584 1.377 . S
C598 C597 1.373 . S
C599 C583 1.377 . S
C599 C597 1.389 . S
C599 C600 1.524 . S
C600 C599 1.524 . S
C600 C601 1.397 . S
C600 C605 1.363 . S
C601 H572 0.950 . S
C601 C600 1.397 . S
C601 C602 1.334 . S
C602 H573 0.950 . S
C602 C601 1.334 . S
C602 C603 1.287 . S
C603 C602 1.287 . S
C603 C604 1.524 . S
C603 H606 0.999 . S
C604 H574 0.950 . S
C604 C603 1.524 . S
C604 C605 1.415 . S
C605 H575 0.950 . S
C605 C600 1.363 . S
C605 C604 1.415 . S
H606 C603 0.999 . S
H607 C588 0.913 . S
H608 C626 0.951 . S
H609 C628 0.951 . S
H610 C630 0.950 . S
H611 C631 0.950 . S
H612 C633 0.950 . S
H613 C636 0.950 . S
H614 C637 0.950 . S
H615 C639 0.951 . S
H616 C640 0.950 . S
H617 C641 0.951 . S
H618 C643 0.951 . S
H619 C645 0.950 . S
H620 C646 0.950 . S
H621 C648 0.950 . S
H622 C651 0.950 . S
H623 C652 0.950 . S
H624 C654 0.950 . S
H625 C655 0.950 . S
C626 H608 0.951 . S
C626 C627 1.366 . S
C626 C628 1.388 . S
C627 C626 1.366 . S
C627 C631 1.385 . S
C628 H609 0.951 . S
C628 C626 1.388 . S
C628 C629 1.366 . S
C629 C628 1.366 . S
C629 C630 1.414 . S
C629 C632 1.499 . S
C630 H610 0.950 . S
C630 C629 1.414 . S
C630 C631 1.374 . S
C631 H611 0.950 . S
C631 C627 1.385 . S
C631 C630 1.374 . S
C632 C629 1.499 . S
C632 C633 1.373 . S
C632 C634 1.389 . S
C633 H612 0.950 . S
C633 C632 1.373 . S
C633 C649 1.377 . S
C634 C632 1.389 . S
C634 C635 1.524 . S
C634 C648 1.377 . S
C635 C634 1.524 . S
C635 C636 1.397 1_455 S
C635 C640 1.363 . S
C636 H613 0.950 . S
C636 C635 1.397 1_655 S
C636 C637 1.334 . S
C637 H614 0.950 . S
C637 C636 1.334 . S
C637 C638 1.287 . S
C638 C637 1.287 . S
C638 C639 1.549 . S
C638 H657 0.913 . S
C639 H615 0.951 . S
C639 C638 1.549 . S
C639 C640 1.389 1_655 S
C640 H616 0.950 . S
C640 C635 1.363 . S
C640 C639 1.389 1_455 S
C641 H617 0.951 . S
C641 C642 1.366 . S
C641 C643 1.388 . S
C642 C641 1.366 . S
C642 C646 1.385 . S
C643 H618 0.951 . S
C643 C641 1.388 . S
C643 C644 1.366 . S
C644 C643 1.366 . S
C644 C645 1.414 . S
C644 C647 1.499 . S
C645 H619 0.950 . S
C645 C644 1.414 . S
C645 C646 1.374 . S
C646 H620 0.950 . S
C646 C642 1.385 . S
C646 C645 1.374 . S
C647 C644 1.499 . S
C647 C648 1.373 . S
C647 C649 1.389 . S
C648 H621 0.950 . S
C648 C634 1.377 . S
C648 C647 1.373 . S
C649 C633 1.377 . S
C649 C647 1.389 . S
C649 C650 1.524 . S
C650 C649 1.524 . S
C650 C651 1.397 . S
C650 C655 1.363 . S
C651 H622 0.950 . S
C651 C650 1.397 . S
C651 C652 1.334 . S
C652 H623 0.950 . S
C652 C651 1.334 . S
C652 C653 1.287 . S
C653 C652 1.287 . S
C653 C654 1.524 . S
C653 H656 0.999 . S
C654 H624 0.950 . S
C654 C653 1.524 . S
C654 C655 1.415 . S
C655 H625 0.950 . S
C655 C650 1.363 . S
C655 C654 1.415 . S
H656 C653 0.999 . S
H657 C638 0.913 . S
H658 C676 0.951 . S
H659 C678 0.951 . S
H660 C680 0.950 . S
H661 C681 0.950 . S
H662 C683 0.950 . S
H663 C686 0.950 . S
H664 C687 0.950 . S
H665 C689 0.950 . S
H666 C690 0.950 . S
H667 C691 0.951 . S
H668 C693 0.951 . S
H669 C695 0.950 . S
H670 C696 0.950 . S
H671 C698 0.950 . S
H672 C701 0.950 . S
H673 C702 0.950 . S
H674 C704 0.950 . S
H675 C705 0.950 . S
C676 H658 0.951 . S
C676 C677 1.366 . S
C676 C678 1.388 . S
C677 C676 1.366 . S
C677 C681 1.385 . S
C678 H659 0.951 . S
C678 C676 1.388 . S
C678 C679 1.366 . S
C679 C678 1.366 . S
C679 C680 1.414 . S
C679 C682 1.499 . S
C680 H660 0.950 . S
C680 C679 1.414 . S
C680 C681 1.374 . S
C681 H661 0.950 . S
C681 C677 1.385 . S
C681 C680 1.374 . S
C682 C679 1.499 . S
C682 C683 1.373 . S
C682 C684 1.389 . S
C683 H662 0.950 . S
C683 C682 1.373 . S
C683 C699 1.377 . S
C684 C682 1.389 . S
C684 C685 1.524 . S
C684 C698 1.377 . S
C685 C684 1.524 . S
C685 C686 1.397 . S
C685 C690 1.363 . S
C686 H663 0.950 . S
C686 C685 1.397 . S
C686 C687 1.334 1_545 S
C687 H664 0.950 . S
C687 C686 1.334 1_565 S
C687 C688 1.287 1_565 S
C688 C687 1.287 1_545 S
C688 C689 1.524 . S
C688 H707 0.913 1_545 S
C689 H665 0.950 . S
C689 C688 1.524 . S
C689 C690 1.415 . S
C690 H666 0.950 . S
C690 C685 1.363 . S
C690 C689 1.415 . S
C691 H667 0.951 . S
C691 C692 1.366 . S
C691 C693 1.388 . S
C692 C691 1.366 . S
C692 C696 1.385 . S
C693 H668 0.951 . S
C693 C691 1.388 . S
C693 C694 1.366 . S
C694 C693 1.366 . S
C694 C695 1.414 . S
C694 C697 1.499 . S
C695 H669 0.950 . S
C695 C694 1.414 . S
C695 C696 1.374 . S
C696 H670 0.950 . S
C696 C692 1.385 . S
C696 C695 1.374 . S
C697 C694 1.499 . S
C697 C698 1.373 . S
C697 C699 1.389 . S
C698 H671 0.950 . S
C698 C684 1.377 . S
C698 C697 1.373 . S
C699 C683 1.377 . S
C699 C697 1.389 . S
C699 C700 1.524 . S
C700 C699 1.524 . S
C700 C701 1.397 . S
C700 C705 1.363 . S
C701 H672 0.950 . S
C701 C700 1.397 . S
C701 C702 1.334 . S
C702 H673 0.950 . S
C702 C701 1.334 . S
C702 C703 1.287 . S
C703 C702 1.287 . S
C703 C704 1.524 . S
C703 H706 0.999 . S
C704 H674 0.950 . S
C704 C703 1.524 . S
C704 C705 1.415 . S
C705 H675 0.950 . S
C705 C700 1.363 . S
C705 C704 1.415 . S
H706 C703 0.999 . S
H707 C688 0.913 1_565 S
H708 C726 0.951 . S
H709 C728 0.951 . S
H710 C730 0.950 . S
H711 C731 0.950 1_455 S
H712 C733 0.950 . S
H713 C736 0.950 . S
H714 C737 0.950 . S
H715 C739 0.950 . S
H716 C740 0.950 . S
H717 C741 0.951 . S
H718 C743 0.951 . S
H719 C745 0.950 . S
H720 C746 0.950 . S
H721 C748 0.950 . S
H722 C751 0.950 . S
H723 C752 0.950 . S
H724 C754 0.950 . S
H725 C755 0.950 1_455 S
C726 H708 0.951 . S
C726 C727 1.366 . S
C726 C728 1.388 . S
C727 C726 1.366 . S
C727 C731 1.385 . S
C728 H709 0.951 . S
C728 C726 1.388 . S
C728 C729 1.366 . S
C729 C728 1.366 . S
C729 C730 1.414 . S
C729 C732 1.499 . S
C730 H710 0.950 . S
C730 C729 1.414 . S
C730 C731 1.374 . S
C731 H711 0.950 1_655 S
C731 C727 1.385 . S
C731 C730 1.374 . S
C732 C729 1.499 . S
C732 C733 1.373 . S
C732 C734 1.389 . S
C733 H712 0.950 . S
C733 C732 1.373 . S
C733 C749 1.377 . S
C734 C732 1.389 . S
C734 C735 1.524 . S
C734 C748 1.377 . S
C735 C734 1.524 . S
C735 C736 1.397 . S
C735 C740 1.363 . S
C736 H713 0.950 . S
C736 C735 1.397 . S
C736 C737 1.334 . S
C737 H714 0.950 . S
C737 C736 1.334 . S
C737 C738 1.287 . S
C738 C737 1.287 . S
C738 C739 1.524 . S
C738 H757 0.913 . S
C739 H715 0.950 . S
C739 C738 1.524 . S
C739 C740 1.415 . S
C740 H716 0.950 . S
C740 C735 1.363 . S
C740 C739 1.415 . S
C741 H717 0.951 . S
C741 C742 1.366 . S
C741 C743 1.388 . S
C742 C741 1.366 . S
C742 C746 1.385 . S
C743 H718 0.951 . S
C743 C741 1.388 . S
C743 C744 1.366 . S
C744 C743 1.366 . S
C744 C745 1.414 . S
C744 C747 1.499 . S
C745 H719 0.950 . S
C745 C744 1.414 . S
C745 C746 1.374 . S
C746 H720 0.950 . S
C746 C742 1.385 . S
C746 C745 1.374 . S
C747 C744 1.499 . S
C747 C748 1.373 . S
C747 C749 1.389 . S
C748 H721 0.950 . S
C748 C734 1.377 . S
C748 C747 1.373 . S
C749 C733 1.377 . S
C749 C747 1.389 . S
C749 C750 1.524 . S
C750 C749 1.524 . S
C750 C751 1.397 . S
C750 C755 1.363 . S
C751 H722 0.950 . S
C751 C750 1.397 . S
C751 C752 1.334 . S
C752 H723 0.950 . S
C752 C751 1.334 . S
C752 C753 1.289 1_655 S
C753 C752 1.289 1_455 S
C753 C754 1.523 . S
C753 H756 0.998 . S
C754 H724 0.950 . S
C754 C753 1.523 . S
C754 C755 1.415 1_455 S
C755 H725 0.950 1_655 S
C755 C750 1.363 . S
C755 C754 1.415 1_655 S
H756 C753 0.998 . S
H757 C738 0.913 . S
H758 C776 0.951 . S
H759 C778 0.951 . S
H760 C780 0.950 . S
H761 C781 0.950 . S
H762 C783 0.950 . S
H763 C786 0.950 . S
H764 C787 0.950 . S
H765 C789 0.950 . S
H766 C790 0.950 . S
H767 C791 0.951 . S
H768 C793 0.951 . S
H769 C795 0.950 . S
H770 C796 0.950 . S
H771 C798 0.950 . S
H772 C801 0.950 . S
H773 C802 0.950 . S
H774 C804 0.950 . S
H775 C805 0.950 . S
C776 H758 0.951 . S
C776 C777 1.366 . S
C776 C778 1.388 . S
C777 C776 1.366 . S
C777 C781 1.385 . S
C778 H759 0.951 . S
C778 C776 1.388 . S
C778 C779 1.366 . S
C779 C778 1.366 . S
C779 C780 1.414 . S
C779 C782 1.499 . S
C780 H760 0.950 . S
C780 C779 1.414 . S
C780 C781 1.374 . S
C781 H761 0.950 . S
C781 C777 1.385 . S
C781 C780 1.374 . S
C782 C779 1.499 . S
C782 C783 1.373 . S
C782 C784 1.389 . S
C783 H762 0.950 . S
C783 C782 1.373 . S
C783 C799 1.377 . S
C784 C782 1.389 . S
C784 C785 1.524 . S
C784 C798 1.377 . S
C785 C784 1.524 . S
C785 C786 1.397 . S
C785 C790 1.363 . S
C786 H763 0.950 . S
C786 C785 1.397 . S
C786 C787 1.334 . S
C787 H764 0.950 . S
C787 C786 1.334 . S
C787 C788 1.287 . S
C788 C787 1.287 . S
C788 C789 1.524 . S
C788 H807 0.913 . S
C789 H765 0.950 . S
C789 C788 1.524 . S
C789 C790 1.415 . S
C790 H766 0.950 . S
C790 C785 1.363 . S
C790 C789 1.415 . S
C791 H767 0.951 . S
C791 C792 1.366 . S
C791 C793 1.388 . S
C792 C791 1.366 . S
C792 C796 1.385 . S
C793 H768 0.951 . S
C793 C791 1.388 . S
C793 C794 1.366 . S
C794 C793 1.366 . S
C794 C795 1.414 . S
C794 C797 1.499 . S
C795 H769 0.950 . S
C795 C794 1.414 . S
C795 C796 1.374 . S
C796 H770 0.950 . S
C796 C792 1.385 . S
C796 C795 1.374 . S
C797 C794 1.499 . S
C797 C798 1.373 . S
C797 C799 1.389 . S
C798 H771 0.950 . S
C798 C784 1.377 . S
C798 C797 1.373 . S
C799 C783 1.377 . S
C799 C797 1.389 . S
C799 C800 1.524 . S
C800 C799 1.524 . S
C800 C801 1.397 . S
C800 C805 1.363 . S
C801 H772 0.950 . S
C801 C800 1.397 . S
C801 C802 1.334 . S
C802 H773 0.950 . S
C802 C801 1.334 . S
C802 C803 1.287 . S
C803 C802 1.287 . S
C803 C804 1.524 . S
C803 H806 0.999 . S
C804 H774 0.950 . S
C804 C803 1.524 . S
C804 C805 1.415 . S
C805 H775 0.950 . S
C805 C800 1.363 . S
C805 C804 1.415 . S
H806 C803 0.999 . S
H807 C788 0.913 . S
H808 C826 0.951 . S
H809 C828 0.951 . S
H810 C830 0.950 . S
H811 C831 0.950 . S
H812 C833 0.950 . S
H813 C836 0.941 1_565 S
H814 C837 0.950 . S
H815 C839 0.950 . S
H816 C840 0.950 . S
H817 C841 0.951 . S
H818 C843 0.951 . S
H819 C845 0.950 . S
H820 C846 0.950 . S
H821 C848 0.950 . S
H822 C851 0.950 . S
H823 C852 0.950 . S
H824 C854 0.950 . S
H825 C855 0.950 . S
C826 H808 0.951 . S
C826 C827 1.366 . S
C826 C828 1.388 . S
C827 C826 1.366 . S
C827 C831 1.385 . S
C828 H809 0.951 . S
C828 C826 1.388 . S
C828 C829 1.366 . S
C829 C828 1.366 . S
C829 C830 1.414 . S
C829 C832 1.499 . S
C830 H810 0.950 . S
C830 C829 1.414 . S
C830 C831 1.374 . S
C831 H811 0.950 . S
C831 C827 1.385 . S
C831 C830 1.374 . S
C832 C829 1.499 . S
C832 C833 1.373 . S
C832 C834 1.389 . S
C833 H812 0.950 . S
C833 C832 1.373 . S
C833 C849 1.377 . S
C834 C832 1.389 . S
C834 C835 1.524 . S
C834 C848 1.377 . S
C835 C834 1.524 . S
C835 C836 1.397 1_565 S
C835 C840 1.363 . S
C836 H813 0.941 1_545 S
C836 C835 1.397 1_545 S
C836 C837 1.334 . S
C837 H814 0.950 . S
C837 C836 1.334 . S
C837 C838 1.287 . S
C838 C837 1.287 . S
C838 C839 1.524 . S
C838 H857 0.913 . S
C839 H815 0.950 . S
C839 C838 1.524 . S
C839 C840 1.415 1_545 S
C840 H816 0.950 . S
C840 C835 1.363 . S
C840 C839 1.415 1_565 S
C841 H817 0.951 . S
C841 C842 1.366 . S
C841 C843 1.388 . S
C842 C841 1.366 . S
C842 C846 1.385 . S
C843 H818 0.951 . S
C843 C841 1.388 . S
C843 C844 1.366 . S
C844 C843 1.366 . S
C844 C845 1.414 . S
C844 C847 1.499 . S
C845 H819 0.950 . S
C845 C844 1.414 . S
C845 C846 1.374 . S
C846 H820 0.950 . S
C846 C842 1.385 . S
C846 C845 1.374 . S
C847 C844 1.499 . S
C847 C848 1.373 . S
C847 C849 1.389 . S
C848 H821 0.950 . S
C848 C834 1.377 . S
C848 C847 1.373 . S
C849 C833 1.377 . S
C849 C847 1.389 . S
C849 C850 1.524 . S
C850 C849 1.524 . S
C850 C851 1.397 . S
C850 C855 1.363 . S
C851 H822 0.950 . S
C851 C850 1.397 . S
C851 C852 1.334 . S
C852 H823 0.950 . S
C852 C851 1.334 . S
C852 C853 1.287 . S
C853 C852 1.287 . S
C853 C854 1.524 . S
C853 H856 0.999 . S
C854 H824 0.950 . S
C854 C853 1.524 . S
C854 C855 1.415 . S
C855 H825 0.950 . S
C855 C850 1.363 . S
C855 C854 1.415 . S
H856 C853 0.999 . S
H857 C838 0.913 . S
H858 C876 0.951 . S
H859 C878 0.951 . S
H860 C880 0.950 . S
H861 C881 0.950 . S
H862 C883 0.950 . S
H863 C886 0.950 . S
H864 C887 0.950 . S
H865 C889 0.950 . S
H866 C890 0.950 . S
H867 C891 0.951 . S
H868 C893 0.951 . S
H869 C895 0.950 . S
H870 C896 0.950 . S
H871 C898 0.950 . S
H872 C901 0.950 . S
H873 C902 0.950 . S
H874 C904 0.950 . S
H875 C905 0.950 . S
C876 H858 0.951 . S
C876 C877 1.366 . S
C876 C878 1.388 . S
C877 C876 1.366 . S
C877 C881 1.385 . S
C878 H859 0.951 . S
C878 C876 1.388 . S
C878 C879 1.366 . S
C879 C878 1.366 . S
C879 C880 1.414 . S
C879 C882 1.499 . S
C880 H860 0.950 . S
C880 C879 1.414 . S
C880 C881 1.374 . S
C881 H861 0.950 . S
C881 C877 1.385 . S
C881 C880 1.374 . S
C882 C879 1.499 . S
C882 C883 1.373 . S
C882 C884 1.389 . S
C883 H862 0.950 . S
C883 C882 1.373 . S
C883 C899 1.377 . S
C884 C882 1.389 . S
C884 C885 1.524 . S
C884 C898 1.377 . S
C885 C884 1.524 . S
C885 C886 1.397 . S
C885 C890 1.363 1_455 S
C886 H863 0.950 . S
C886 C885 1.397 . S
C886 C887 1.334 1_455 S
C887 H864 0.950 . S
C887 C886 1.334 1_655 S
C887 C888 1.287 . S
C888 C887 1.287 . S
C888 C889 1.524 . S
C888 H907 0.913 . S
C889 H865 0.950 . S
C889 C888 1.524 . S
C889 C890 1.415 . S
C890 H866 0.950 . S
C890 C885 1.363 1_655 S
C890 C889 1.415 . S
C891 H867 0.951 . S
C891 C892 1.366 . S
C891 C893 1.388 . S
C892 C891 1.366 . S
C892 C896 1.385 . S
C893 H868 0.951 . S
C893 C891 1.388 . S
C893 C894 1.366 . S
C894 C893 1.366 . S
C894 C895 1.414 . S
C894 C897 1.499 . S
C895 H869 0.950 . S
C895 C894 1.414 . S
C895 C896 1.374 . S
C896 H870 0.950 . S
C896 C892 1.385 . S
C896 C895 1.374 . S
C897 C894 1.499 . S
C897 C898 1.373 . S
C897 C899 1.389 . S
C898 H871 0.950 . S
C898 C884 1.377 . S
C898 C897 1.373 . S
C899 C883 1.377 . S
C899 C897 1.389 . S
C899 C900 1.524 . S
C900 C899 1.524 . S
C900 C901 1.397 . S
C900 C905 1.363 . S
C901 H872 0.950 . S
C901 C900 1.397 . S
C901 C902 1.334 . S
C902 H873 0.950 . S
C902 C901 1.334 . S
C902 C903 1.287 . S
C903 C902 1.287 . S
C903 C904 1.524 . S
C903 H906 0.999 . S
C904 H874 0.950 . S
C904 C903 1.524 . S
C904 C905 1.415 . S
C905 H875 0.950 . S
C905 C900 1.363 . S
C905 C904 1.415 . S
H906 C903 0.999 . S
H907 C888 0.913 . S
H908 C926 0.951 . S
H909 C928 0.951 . S
H910 C930 0.950 . S
H911 C931 0.950 . S
H912 C933 0.950 . S
H913 C936 0.950 . S
H914 C937 0.950 . S
H915 C939 0.950 . S
H916 C940 0.950 . S
H917 C941 0.951 . S
H918 C943 0.951 . S
H919 C945 0.950 . S
H920 C946 0.950 . S
H921 C948 0.950 . S
H922 C951 0.950 . S
H923 C952 0.950 . S
H924 C954 0.950 . S
H925 C955 0.950 . S
C926 H908 0.951 . S
C926 C927 1.366 . S
C926 C928 1.388 . S
C927 C926 1.366 . S
C927 C931 1.385 . S
C928 H909 0.951 . S
C928 C926 1.388 . S
C928 C929 1.366 . S
C929 C928 1.366 . S
C929 C930 1.414 . S
C929 C932 1.499 . S
C930 H910 0.950 . S
C930 C929 1.414 . S
C930 C931 1.374 . S
C931 H911 0.950 . S
C931 C927 1.385 . S
C931 C930 1.374 . S
C932 C929 1.499 . S
C932 C933 1.373 . S
C932 C934 1.389 . S
C933 H912 0.950 . S
C933 C932 1.373 . S
C933 C949 1.377 . S
C934 C932 1.389 . S
C934 C935 1.524 . S
C934 C948 1.377 . S
C935 C934 1.524 . S
C935 C936 1.397 1_545 S
C935 C940 1.363 . S
C936 H913 0.950 . S
C936 C935 1.397 1_565 S
C936 C937 1.334 . S
C937 H914 0.950 . S
C937 C936 1.334 . S
C937 C938 1.287 . S
C938 C937 1.287 . S
C938 C939 1.524 . S
C938 H957 0.913 . S
C939 H915 0.950 . S
C939 C938 1.524 . S
C939 C940 1.415 1_565 S
C940 H916 0.950 . S
C940 C935 1.363 . S
C940 C939 1.415 1_545 S
C941 H917 0.951 . S
C941 C942 1.366 . S
C941 C943 1.388 . S
C942 C941 1.366 . S
C942 C946 1.385 . S
C943 H918 0.951 . S
C943 C941 1.388 . S
C943 C944 1.366 . S
C944 C943 1.366 . S
C944 C945 1.414 . S
C944 C947 1.499 . S
C945 H919 0.950 . S
C945 C944 1.414 . S
C945 C946 1.374 . S
C946 H920 0.950 . S
C946 C942 1.385 . S
C946 C945 1.374 . S
C947 C944 1.499 . S
C947 C948 1.373 . S
C947 C949 1.389 . S
C948 H921 0.950 . S
C948 C934 1.377 . S
C948 C947 1.373 . S
C949 C933 1.377 . S
C949 C947 1.389 . S
C949 C950 1.524 . S
C950 C949 1.524 . S
C950 C951 1.397 . S
C950 C955 1.363 . S
C951 H922 0.950 . S
C951 C950 1.397 . S
C951 C952 1.334 . S
C952 H923 0.950 . S
C952 C951 1.334 . S
C952 C953 1.287 . S
C953 C952 1.287 . S
C953 C954 1.524 . S
C953 H956 0.999 . S
C954 H924 0.950 . S
C954 C953 1.524 . S
C954 C955 1.415 . S
C955 H925 0.950 . S
C955 C950 1.363 . S
C955 C954 1.415 . S
H956 C953 0.999 . S
H957 C938 0.913 . S
H958 C976 0.951 . S
H959 C978 0.951 . S
H960 C980 0.950 . S
H961 C981 0.950 1_455 S
H962 C983 0.950 . S
H963 C986 0.950 . S
H964 C987 0.950 . S
H965 C989 0.950 . S
H966 C990 0.950 . S
H967 C991 0.951 . S
H968 C993 0.951 . S
H969 C995 0.950 . S
H970 C996 0.950 . S
H971 C998 0.950 . S
H972 C1001 0.950 . S
H973 C1002 0.950 . S
H974 C1004 0.950 1_455 S
H975 C1005 0.950 . S
C976 H958 0.951 . S
C976 C977 1.366 . S
C976 C978 1.388 . S
C977 C976 1.366 . S
C977 C981 1.385 . S
C978 H959 0.951 . S
C978 C976 1.388 . S
C978 C979 1.366 . S
C979 C978 1.366 . S
C979 C980 1.414 . S
C979 C982 1.499 . S
C980 H960 0.950 . S
C980 C979 1.414 . S
C980 C981 1.374 . S
C981 H961 0.950 1_655 S
C981 C977 1.385 . S
C981 C980 1.374 . S
C982 C979 1.499 . S
C982 C983 1.373 . S
C982 C984 1.389 . S
C983 H962 0.950 . S
C983 C982 1.373 . S
C983 C999 1.377 . S
C984 C982 1.389 . S
C984 C985 1.524 . S
C984 C998 1.377 . S
C985 C984 1.524 . S
C985 C986 1.397 . S
C985 C990 1.363 . S
C986 H963 0.950 . S
C986 C985 1.397 . S
C986 C987 1.334 . S
C987 H964 0.950 . S
C987 C986 1.334 . S
C987 C988 1.287 . S
C988 C987 1.287 . S
C988 C989 1.524 . S
C988 H1007 0.913 . S
C989 H965 0.950 . S
C989 C988 1.524 . S
C989 C990 1.415 . S
C990 H966 0.950 . S
C990 C985 1.363 . S
C990 C989 1.415 . S
C991 H967 0.951 . S
C991 C992 1.366 . S
C991 C993 1.388 . S
C992 C991 1.366 . S
C992 C996 1.385 . S
C993 H968 0.951 . S
C993 C991 1.388 . S
C993 C994 1.366 . S
C994 C993 1.366 . S
C994 C995 1.414 . S
C994 C997 1.499 . S
C995 H969 0.950 . S
C995 C994 1.414 . S
C995 C996 1.374 . S
C996 H970 0.950 . S
C996 C992 1.385 . S
C996 C995 1.374 . S
C997 C994 1.499 . S
C997 C998 1.373 . S
C997 C999 1.389 . S
C998 H971 0.950 . S
C998 C984 1.377 . S
C998 C997 1.373 . S
C999 C983 1.377 . S
C999 C997 1.389 . S
C999 C1000 1.524 . S
C1000 C999 1.524 . S
C1000 C1001 1.397 . S
C1000 C1005 1.363 . S
C1001 H972 0.950 . S
C1001 C1000 1.397 . S
C1001 C1002 1.334 . S
C1002 H973 0.950 . S
C1002 C1001 1.334 . S
C1002 C1003 1.287 . S
C1003 C1002 1.287 . S
C1003 C1004 1.524 . S
C1003 H1006 0.999 . S
C1004 H974 0.950 1_655 S
C1004 C1003 1.524 . S
C1004 C1005 1.415 . S
C1005 H975 0.950 . S
C1005 C1000 1.363 . S
C1005 C1004 1.415 . S
H1006 C1003 0.999 . S
H1007 C988 0.913 . S
H1008 C1026 0.951 . S
H1009 C1028 0.951 . S
H1010 C1030 0.950 . S
H1011 C1031 0.950 . S
H1012 C1033 0.950 . S
H1013 C1036 0.950 . S
H1014 C1037 0.950 . S
H1015 C1039 0.950 . S
H1016 C1040 0.950 . S
H1017 C1041 0.951 . S
H1018 C1043 0.951 . S
H1019 C1045 0.950 . S
H1020 C1046 0.950 . S
H1021 C1048 0.950 . S
H1022 C1051 0.950 . S
H1023 C1052 0.950 . S
H1024 C1054 0.950 . S
H1025 C1055 0.950 . S
C1026 H1008 0.951 . S
C1026 C1027 1.366 . S
C1026 C1028 1.388 . S
C1027 C1026 1.366 . S
C1027 C1031 1.385 . S
C1028 H1009 0.951 . S
C1028 C1026 1.388 . S
C1028 C1029 1.366 . S
C1029 C1028 1.366 . S
C1029 C1030 1.414 . S
C1029 C1032 1.499 . S
C1030 H1010 0.950 . S
C1030 C1029 1.414 . S
C1030 C1031 1.374 . S
C1031 H1011 0.950 . S
C1031 C1027 1.385 . S
C1031 C1030 1.374 . S
C1032 C1029 1.499 . S
C1032 C1033 1.373 . S
C1032 C1034 1.389 . S
C1033 H1012 0.950 . S
C1033 C1032 1.373 . S
C1033 C1049 1.377 . S
C1034 C1032 1.389 . S
C1034 C1035 1.524 . S
C1034 C1048 1.377 . S
C1035 C1034 1.524 . S
C1035 C1036 1.397 . S
C1035 C1040 1.363 . S
C1036 H1013 0.950 . S
C1036 C1035 1.397 . S
C1036 C1037 1.334 . S
C1037 H1014 0.950 . S
C1037 C1036 1.334 . S
C1037 C1038 1.287 . S
C1038 C1037 1.287 . S
C1038 C1039 1.524 . S
C1038 H1057 0.913 . S
C1039 H1015 0.950 . S
C1039 C1038 1.524 . S
C1039 C1040 1.415 . S
C1040 H1016 0.950 . S
C1040 C1035 1.363 . S
C1040 C1039 1.415 . S
C1041 H1017 0.951 . S
C1041 C1042 1.366 . S
C1041 C1043 1.388 . S
C1042 C1041 1.366 . S
C1042 C1046 1.385 . S
C1043 H1018 0.951 . S
C1043 C1041 1.388 . S
C1043 C1044 1.366 . S
C1044 C1043 1.366 . S
C1044 C1045 1.414 . S
C1044 C1047 1.499 . S
C1045 H1019 0.950 . S
C1045 C1044 1.414 . S
C1045 C1046 1.374 . S
C1046 H1020 0.950 . S
C1046 C1042 1.385 . S
C1046 C1045 1.374 . S
C1047 C1044 1.499 . S
C1047 C1048 1.373 . S
C1047 C1049 1.389 . S
C1048 H1021 0.950 . S
C1048 C1034 1.377 . S
C1048 C1047 1.373 . S
C1049 C1033 1.377 . S
C1049 C1047 1.389 . S
C1049 C1050 1.524 . S
C1050 C1049 1.524 . S
C1050 C1051 1.397 . S
C1050 C1055 1.363 . S
C1051 H1022 0.950 . S
C1051 C1050 1.397 . S
C1051 C1052 1.334 . S
C1052 H1023 0.950 . S
C1052 C1051 1.334 . S
C1052 C1053 1.287 . S
C1053 C1052 1.287 . S
C1053 C1054 1.524 . S
C1053 H1056 0.999 . S
C1054 H1024 0.950 . S
C1054 C1053 1.524 . S
C1054 C1055 1.415 . S
C1055 H1025 0.950 . S
C1055 C1050 1.363 . S
C1055 C1054 1.415 . S
H1056 C1053 0.999 . S
H1057 C1038 0.913 . S
H1058 C1076 0.951 . S
H1059 C1078 0.951 . S
H1060 C1080 0.950 . S
H1061 C1081 0.950 . S
H1062 C1083 0.950 . S
H1063 C1086 0.950 . S
H1064 C1087 0.950 . S
H1065 C1089 0.950 . S
H1066 C1090 0.950 . S
H1067 C1091 0.951 . S
H1068 C1093 0.951 . S
H1069 C1095 0.950 . S
H1070 C1096 0.950 . S
H1071 C1098 0.950 . S
H1072 C1101 0.950 . S
H1073 C1102 0.950 . S
H1074 C1104 0.950 . S
H1075 C1105 0.950 . S
C1076 H1058 0.951 . S
C1076 C1077 1.366 . S
C1076 C1078 1.388 . S
C1077 C1076 1.366 . S
C1077 C1081 1.385 . S
C1078 H1059 0.951 . S
C1078 C1076 1.388 . S
C1078 C1079 1.366 . S
C1079 C1078 1.366 . S
C1079 C1080 1.414 . S
C1079 C1082 1.499 . S
C1080 H1060 0.950 . S
C1080 C1079 1.414 . S
C1080 C1081 1.374 . S
C1081 H1061 0.950 . S
C1081 C1077 1.385 . S
C1081 C1080 1.374 . S
C1082 C1079 1.499 . S
C1082 C1083 1.373 . S
C1082 C1084 1.389 . S
C1083 H1062 0.950 . S
C1083 C1082 1.373 . S
C1083 C1099 1.377 . S
C1084 C1082 1.389 . S
C1084 C1085 1.524 . S
C1084 C1098 1.377 . S
C1085 C1084 1.524 . S
C1085 C1086 1.397 . S
C1085 C1090 1.363 . S
C1086 H1063 0.950 . S
C1086 C1085 1.397 . S
C1086 C1087 1.334 . S
C1087 H1064 0.950 . S
C1087 C1086 1.334 . S
C1087 C1088 1.287 . S
C1088 C1087 1.287 . S
C1088 C1089 1.524 . S
C1088 H1107 0.913 . S
C1089 H1065 0.950 . S
C1089 C1088 1.524 . S
C1089 C1090 1.415 . S
C1090 H1066 0.950 . S
C1090 C1085 1.363 . S
C1090 C1089 1.415 . S
C1091 H1067 0.951 . S
C1091 C1092 1.366 . S
C1091 C1093 1.388 . S
C1092 C1091 1.366 . S
C1092 C1096 1.385 . S
C1093 H1068 0.951 . S
C1093 C1091 1.388 . S
C1093 C1094 1.366 . S
C1094 C1093 1.366 . S
C1094 C1095 1.414 . S
C1094 C1097 1.499 . S
C1095 H1069 0.950 . S
C1095 C1094 1.414 . S
C1095 C1096 1.374 . S
C1096 H1070 0.950 . S
C1096 C1092 1.385 . S
C1096 C1095 1.374 . S
C1097 C1094 1.499 . S
C1097 C1098 1.373 . S
C1097 C1099 1.389 . S
C1098 H1071 0.950 . S
C1098 C1084 1.377 . S
C1098 C1097 1.373 . S
C1099 C1083 1.377 . S
C1099 C1097 1.389 . S
C1099 C1100 1.524 . S
C1100 C1099 1.524 . S
C1100 C1101 1.397 . S
C1100 C1105 1.363 . S
C1101 H1072 0.950 . S
C1101 C1100 1.397 . S
C1101 C1102 1.334 . S
C1102 H1073 0.950 . S
C1102 C1101 1.334 . S
C1102 C1103 1.287 . S
C1103 C1102 1.287 . S
C1103 C1104 1.524 . S
C1103 H1106 0.999 1_556 S
C1104 H1074 0.950 . S
C1104 C1103 1.524 . S
C1104 C1105 1.415 . S
C1105 H1075 0.950 . S
C1105 C1100 1.363 . S
C1105 C1104 1.415 . S
H1106 C1103 0.999 1_554 S
H1107 C1088 0.913 . S
H1108 C1126 0.951 . S
H1109 C1128 0.951 . S
H1110 C1130 0.950 . S
H1111 C1131 0.950 . S
H1112 C1133 0.950 . S
H1113 C1136 0.950 . S
H1114 C1137 0.950 . S
H1115 C1139 0.950 . S
H1116 C1140 0.950 . S
H1117 C1141 0.951 . S
H1118 C1143 0.951 . S
H1119 C1145 0.950 . S
H1120 C1146 0.950 . S
H1121 C1148 0.950 . S
H1122 C1151 0.950 . S
H1123 C1152 0.950 . S
H1124 C1154 0.950 . S
H1125 C1155 0.950 . S
C1126 H1108 0.951 . S
C1126 C1127 1.366 . S
C1126 C1128 1.388 . S
C1127 C1126 1.366 . S
C1127 C1131 1.385 . S
C1128 H1109 0.951 . S
C1128 C1126 1.388 . S
C1128 C1129 1.366 . S
C1129 C1128 1.366 . S
C1129 C1130 1.414 . S
C1129 C1132 1.499 . S
C1130 H1110 0.950 . S
C1130 C1129 1.414 . S
C1130 C1131 1.374 . S
C1131 H1111 0.950 . S
C1131 C1127 1.385 . S
C1131 C1130 1.374 . S
C1132 C1129 1.499 . S
C1132 C1133 1.373 . S
C1132 C1134 1.389 . S
C1133 H1112 0.950 . S
C1133 C1132 1.373 . S
C1133 C1149 1.377 . S
C1134 C1132 1.389 . S
C1134 C1135 1.524 . S
C1134 C1148 1.377 . S
C1135 C1134 1.524 . S
C1135 C1136 1.397 . S
C1135 C1140 1.363 . S
C1136 H1113 0.950 . S
C1136 C1135 1.397 . S
C1136 C1137 1.334 . S
C1137 H1114 0.950 . S
C1137 C1136 1.334 . S
C1137 C1138 1.287 . S
C1138 C1137 1.287 . S
C1138 C1139 1.524 . S
C1138 H1157 0.913 . S
C1139 H1115 0.950 . S
C1139 C1138 1.524 . S
C1139 C1140 1.415 . S
C1140 H1116 0.950 . S
C1140 C1135 1.363 . S
C1140 C1139 1.415 . S
C1141 H1117 0.951 . S
C1141 C1142 1.366 . S
C1141 C1143 1.388 . S
C1142 C1141 1.366 . S
C1142 C1146 1.385 . S
C1143 H1118 0.951 . S
C1143 C1141 1.388 . S
C1143 C1144 1.366 . S
C1144 C1143 1.366 . S
C1144 C1145 1.414 . S
C1144 C1147 1.499 . S
C1145 H1119 0.950 . S
C1145 C1144 1.414 . S
C1145 C1146 1.374 . S
C1146 H1120 0.950 . S
C1146 C1142 1.385 . S
C1146 C1145 1.374 . S
C1147 C1144 1.499 . S
C1147 C1148 1.373 . S
C1147 C1149 1.389 . S
C1148 H1121 0.950 . S
C1148 C1134 1.377 . S
C1148 C1147 1.373 . S
C1149 C1133 1.377 . S
C1149 C1147 1.389 . S
C1149 C1150 1.524 . S
C1150 C1149 1.524 . S
C1150 C1151 1.397 . S
C1150 C1155 1.363 . S
C1151 H1122 0.950 . S
C1151 C1150 1.397 . S
C1151 C1152 1.334 . S
C1152 H1123 0.950 . S
C1152 C1151 1.334 . S
C1152 C1153 1.287 . S
C1153 C1152 1.287 . S
C1153 C1154 1.524 . S
C1153 H1156 0.999 . S
C1154 H1124 0.950 . S
C1154 C1153 1.524 . S
C1154 C1155 1.415 . S
C1155 H1125 0.950 . S
C1155 C1150 1.363 . S
C1155 C1154 1.415 . S
H1156 C1153 0.999 . S
H1157 C1138 0.913 . S
H1158 C1176 0.951 . S
H1159 C1178 0.951 . S
H1160 C1180 0.950 . S
H1161 C1181 0.950 . S
H1162 C1183 0.950 . S
H1163 C1186 0.950 . S
H1164 C1187 0.950 . S
H1165 C1189 0.950 . S
H1166 C1190 0.950 . S
H1167 C1191 0.951 . S
H1168 C1193 0.951 . S
H1169 C1195 0.950 . S
H1170 C1196 0.950 . S
H1171 C1198 0.950 . S
H1172 C1201 0.950 . S
H1173 C1202 0.950 . S
H1174 C1204 0.950 . S
H1175 C1205 0.950 . S
C1176 H1158 0.951 . S
C1176 C1177 1.366 . S
C1176 C1178 1.388 . S
C1177 C1176 1.366 . S
C1177 C1181 1.385 . S
C1178 H1159 0.951 . S
C1178 C1176 1.388 . S
C1178 C1179 1.366 . S
C1179 C1178 1.366 . S
C1179 C1180 1.414 . S
C1179 C1182 1.499 . S
C1180 H1160 0.950 . S
C1180 C1179 1.414 . S
C1180 C1181 1.374 . S
C1181 H1161 0.950 . S
C1181 C1177 1.385 . S
C1181 C1180 1.374 . S
C1182 C1179 1.499 . S
C1182 C1183 1.373 . S
C1182 C1184 1.389 . S
C1183 H1162 0.950 . S
C1183 C1182 1.373 . S
C1183 C1199 1.377 . S
C1184 C1182 1.389 . S
C1184 C1185 1.524 . S
C1184 C1198 1.377 . S
C1185 C1184 1.524 . S
C1185 C1186 1.397 . S
C1185 C1190 1.363 . S
C1186 H1163 0.950 . S
C1186 C1185 1.397 . S
C1186 C1187 1.334 . S
C1187 H1164 0.950 . S
C1187 C1186 1.334 . S
C1187 C1188 1.287 . S
C1188 C1187 1.287 . S
C1188 C1189 1.524 . S
C1188 H1207 0.913 . S
C1189 H1165 0.950 . S
C1189 C1188 1.524 . S
C1189 C1190 1.415 . S
C1190 H1166 0.950 . S
C1190 C1185 1.363 . S
C1190 C1189 1.415 . S
C1191 H1167 0.951 . S
C1191 C1192 1.366 . S
C1191 C1193 1.388 . S
C1192 C1191 1.366 . S
C1192 C1196 1.385 . S
C1193 H1168 0.951 . S
C1193 C1191 1.388 . S
C1193 C1194 1.366 . S
C1194 C1193 1.366 . S
C1194 C1195 1.414 . S
C1194 C1197 1.499 . S
C1195 H1169 0.950 . S
C1195 C1194 1.414 . S
C1195 C1196 1.374 . S
C1196 H1170 0.950 . S
C1196 C1192 1.385 . S
C1196 C1195 1.374 . S
C1197 C1194 1.499 . S
C1197 C1198 1.373 . S
C1197 C1199 1.389 . S
C1198 H1171 0.950 . S
C1198 C1184 1.377 . S
C1198 C1197 1.373 . S
C1199 C1183 1.377 . S
C1199 C1197 1.389 . S
C1199 C1200 1.524 . S
C1200 C1199 1.524 . S
C1200 C1201 1.397 . S
C1200 C1205 1.363 . S
C1201 H1172 0.950 . S
C1201 C1200 1.397 . S
C1201 C1202 1.334 . S
C1202 H1173 0.950 . S
C1202 C1201 1.334 . S
C1202 C1203 1.287 . S
C1203 C1202 1.287 . S
C1203 C1204 1.524 . S
C1203 H1206 0.999 . S
C1204 H1174 0.950 . S
C1204 C1203 1.524 . S
C1204 C1205 1.415 . S
C1205 H1175 0.950 . S
C1205 C1200 1.363 . S
C1205 C1204 1.415 . S
H1206 C1203 0.999 . S
H1207 C1188 0.913 . S
H1208 C1226 0.951 . S
H1209 C1228 0.951 . S
H1210 C1230 0.950 . S
H1211 C1231 0.950 . S
H1212 C1233 0.950 . S
H1213 C1236 0.950 . S
H1214 C1237 0.950 . S
H1215 C1239 0.950 . S
H1216 C1240 0.950 . S
H1217 C1241 0.951 . S
H1218 C1243 0.951 . S
H1219 C1245 0.950 . S
H1220 C1246 0.950 . S
H1221 C1248 0.950 . S
H1222 C1251 0.950 . S
H1223 C1252 0.950 . S
H1224 C1254 0.950 . S
H1225 C1255 0.950 . S
C1226 H1208 0.951 . S
C1226 C1227 1.366 . S
C1226 C1228 1.388 . S
C1227 C1226 1.366 . S
C1227 C1231 1.385 . S
C1228 H1209 0.951 . S
C1228 C1226 1.388 . S
C1228 C1229 1.366 . S
C1229 C1228 1.366 . S
C1229 C1230 1.414 . S
C1229 C1232 1.499 . S
C1230 H1210 0.950 . S
C1230 C1229 1.414 . S
C1230 C1231 1.374 . S
C1231 H1211 0.950 . S
C1231 C1227 1.385 . S
C1231 C1230 1.374 . S
C1232 C1229 1.499 . S
C1232 C1233 1.373 . S
C1232 C1234 1.389 . S
C1233 H1212 0.950 . S
C1233 C1232 1.373 . S
C1233 C1249 1.377 . S
C1234 C1232 1.389 . S
C1234 C1235 1.524 . S
C1234 C1248 1.377 . S
C1235 C1234 1.524 . S
C1235 C1236 1.397 . S
C1235 C1240 1.363 . S
C1236 H1213 0.950 . S
C1236 C1235 1.397 . S
C1236 C1237 1.334 . S
C1237 H1214 0.950 . S
C1237 C1236 1.334 . S
C1237 C1238 1.287 . S
C1238 C1237 1.287 . S
C1238 C1239 1.524 . S
C1238 H1257 0.913 . S
C1239 H1215 0.950 . S
C1239 C1238 1.524 . S
C1239 C1240 1.415 . S
C1240 H1216 0.950 . S
C1240 C1235 1.363 . S
C1240 C1239 1.415 . S
C1241 H1217 0.951 . S
C1241 C1242 1.366 . S
C1241 C1243 1.388 . S
C1242 C1241 1.366 . S
C1242 C1246 1.385 . S
C1243 H1218 0.951 . S
C1243 C1241 1.388 . S
C1243 C1244 1.366 . S
C1244 C1243 1.366 . S
C1244 C1245 1.414 . S
C1244 C1247 1.499 . S
C1245 H1219 0.950 . S
C1245 C1244 1.414 . S
C1245 C1246 1.374 . S
C1246 H1220 0.950 . S
C1246 C1242 1.385 . S
C1246 C1245 1.374 . S
C1247 C1244 1.499 . S
C1247 C1248 1.373 . S
C1247 C1249 1.389 . S
C1248 H1221 0.950 . S
C1248 C1234 1.377 . S
C1248 C1247 1.373 . S
C1249 C1233 1.377 . S
C1249 C1247 1.389 . S
C1249 C1250 1.524 . S
C1250 C1249 1.524 . S
C1250 C1251 1.397 . S
C1250 C1255 1.363 . S
C1251 H1222 0.950 . S
C1251 C1250 1.397 . S
C1251 C1252 1.334 . S
C1252 H1223 0.950 . S
C1252 C1251 1.334 . S
C1252 C1253 1.287 . S
C1253 C1252 1.287 . S
C1253 C1254 1.524 . S
C1253 H1256 0.999 . S
C1254 H1224 0.950 . S
C1254 C1253 1.524 . S
C1254 C1255 1.415 . S
C1255 H1225 0.950 . S
C1255 C1250 1.363 . S
C1255 C1254 1.415 . S
H1256 C1253 0.999 . S
H1257 C1238 0.913 . S
H1258 C1276 0.951 . S
H1259 C1278 0.951 . S
H1260 C1280 0.950 . S
H1261 C1281 0.950 . S
H1262 C1283 0.950 . S
H1263 C1286 0.950 . S
H1264 C1287 0.950 . S
H1265 C1289 0.950 . S
H1266 C1290 0.950 . S
H1267 C1291 0.951 . S
H1268 C1293 0.951 . S
H1269 C1295 0.950 . S
H1270 C1296 0.950 . S
H1271 C1298 0.950 . S
H1272 C1301 0.950 . S
H1273 C1302 0.950 . S
H1274 C1304 0.950 . S
H1275 C1305 0.950 . S
C1276 H1258 0.951 . S
C1276 C1277 1.366 . S
C1276 C1278 1.388 . S
C1277 C1276 1.366 . S
C1277 C1281 1.385 . S
C1278 H1259 0.951 . S
C1278 C1276 1.388 . S
C1278 C1279 1.366 . S
C1279 C1278 1.366 . S
C1279 C1280 1.414 . S
C1279 C1282 1.499 . S
C1280 H1260 0.950 . S
C1280 C1279 1.414 . S
C1280 C1281 1.374 . S
C1281 H1261 0.950 . S
C1281 C1277 1.385 . S
C1281 C1280 1.374 . S
C1282 C1279 1.499 . S
C1282 C1283 1.373 . S
C1282 C1284 1.389 . S
C1283 H1262 0.950 . S
C1283 C1282 1.373 . S
C1283 C1299 1.377 . S
C1284 C1282 1.389 . S
C1284 C1285 1.524 . S
C1284 C1298 1.377 . S
C1285 C1284 1.524 . S
C1285 C1286 1.397 . S
C1285 C1290 1.363 . S
C1286 H1263 0.950 . S
C1286 C1285 1.397 . S
C1286 C1287 1.334 . S
C1287 H1264 0.950 . S
C1287 C1286 1.334 . S
C1287 C1288 1.287 . S
C1288 C1287 1.287 . S
C1288 C1289 1.524 . S
C1288 H1307 0.913 . S
C1289 H1265 0.950 . S
C1289 C1288 1.524 . S
C1289 C1290 1.415 . S
C1290 H1266 0.950 . S
C1290 C1285 1.363 . S
C1290 C1289 1.415 . S
C1291 H1267 0.951 . S
C1291 C1292 1.366 . S
C1291 C1293 1.388 . S
C1292 C1291 1.366 . S
C1292 C1296 1.385 . S
C1293 H1268 0.951 . S
C1293 C1291 1.388 . S
C1293 C1294 1.366 . S
C1294 C1293 1.366 . S
C1294 C1295 1.414 . S
C1294 C1297 1.499 . S
C1295 H1269 0.950 . S
C1295 C1294 1.414 . S
C1295 C1296 1.374 . S
C1296 H1270 0.950 . S
C1296 C1292 1.385 . S
C1296 C1295 1.374 . S
C1297 C1294 1.499 . S
C1297 C1298 1.373 . S
C1297 C1299 1.389 . S
C1298 H1271 0.950 . S
C1298 C1284 1.377 . S
C1298 C1297 1.373 . S
C1299 C1283 1.377 . S
C1299 C1297 1.389 . S
C1299 C1300 1.524 . S
C1300 C1299 1.524 . S
C1300 C1301 1.397 . S
C1300 C1305 1.363 . S
C1301 H1272 0.950 . S
C1301 C1300 1.397 . S
C1301 C1302 1.334 . S
C1302 H1273 0.950 . S
C1302 C1301 1.334 . S
C1302 C1303 1.287 . S
C1303 C1302 1.287 . S
C1303 C1304 1.524 . S
C1303 H1306 0.999 . S
C1304 H1274 0.950 . S
C1304 C1303 1.524 . S
C1304 C1305 1.415 . S
C1305 H1275 0.950 . S
C1305 C1300 1.363 . S
C1305 C1304 1.415 . S
H1306 C1303 0.999 . S
H1307 C1288 0.913 . S
H1308 C1326 0.951 . S
H1309 C1328 0.951 . S
H1310 C1330 0.950 . S
H1311 C1331 0.950 . S
H1312 C1333 0.950 . S
H1313 C1336 0.950 . S
H1314 C1337 0.950 . S
H1315 C1339 0.950 . S
H1316 C1340 0.950 . S
H1317 C1341 0.951 . S
H1318 C1343 0.951 . S
H1319 C1345 0.950 . S
H1320 C1346 0.950 . S
H1321 C1348 0.950 . S
H1322 C1351 0.950 . S
H1323 C1352 0.950 . S
H1324 C1354 0.950 . S
H1325 C1355 0.950 . S
C1326 H1308 0.951 . S
C1326 C1327 1.366 . S
C1326 C1328 1.388 . S
C1327 C1326 1.366 . S
C1327 C1331 1.385 . S
C1328 H1309 0.951 . S
C1328 C1326 1.388 . S
C1328 C1329 1.366 . S
C1329 C1328 1.366 . S
C1329 C1330 1.414 . S
C1329 C1332 1.499 . S
C1330 H1310 0.950 . S
C1330 C1329 1.414 . S
C1330 C1331 1.374 . S
C1331 H1311 0.950 . S
C1331 C1327 1.385 . S
C1331 C1330 1.374 . S
C1332 C1329 1.499 . S
C1332 C1333 1.373 . S
C1332 C1334 1.389 . S
C1333 H1312 0.950 . S
C1333 C1332 1.373 . S
C1333 C1349 1.377 . S
C1334 C1332 1.389 . S
C1334 C1335 1.524 . S
C1334 C1348 1.377 . S
C1335 C1334 1.524 . S
C1335 C1336 1.397 . S
C1335 C1340 1.363 . S
C1336 H1313 0.950 . S
C1336 C1335 1.397 . S
C1336 C1337 1.334 . S
C1337 H1314 0.950 . S
C1337 C1336 1.334 . S
C1337 C1338 1.287 . S
C1338 C1337 1.287 . S
C1338 C1339 1.524 . S
C1338 H1357 0.913 . S
C1339 H1315 0.950 . S
C1339 C1338 1.524 . S
C1339 C1340 1.415 . S
C1340 H1316 0.950 . S
C1340 C1335 1.363 . S
C1340 C1339 1.415 . S
C1341 H1317 0.951 . S
C1341 C1342 1.366 . S
C1341 C1343 1.388 . S
C1342 C1341 1.366 . S
C1342 C1346 1.385 . S
C1343 H1318 0.951 . S
C1343 C1341 1.388 . S
C1343 C1344 1.366 . S
C1344 C1343 1.366 . S
C1344 C1345 1.414 . S
C1344 C1347 1.499 . S
C1345 H1319 0.950 . S
C1345 C1344 1.414 . S
C1345 C1346 1.374 . S
C1346 H1320 0.950 . S
C1346 C1342 1.385 . S
C1346 C1345 1.374 . S
C1347 C1344 1.499 . S
C1347 C1348 1.373 . S
C1347 C1349 1.389 . S
C1348 H1321 0.950 . S
C1348 C1334 1.377 . S
C1348 C1347 1.373 . S
C1349 C1333 1.377 . S
C1349 C1347 1.389 . S
C1349 C1350 1.524 . S
C1350 C1349 1.524 . S
C1350 C1351 1.397 . S
C1350 C1355 1.363 . S
C1351 H1322 0.950 . S
C1351 C1350 1.397 . S
C1351 C1352 1.334 . S
C1352 H1323 0.950 . S
C1352 C1351 1.334 . S
C1352 C1353 1.287 . S
C1353 C1352 1.287 . S
C1353 C1354 1.524 . S
C1353 H1356 0.999 . S
C1354 H1324 0.950 . S
C1354 C1353 1.524 . S
C1354 C1355 1.415 . S
C1355 H1325 0.950 . S
C1355 C1350 1.363 . S
C1355 C1354 1.415 . S
H1356 C1353 0.999 . S
H1357 C1338 0.913 . S
H1358 C1376 0.951 . S
H1359 C1378 0.951 . S
H1360 C1380 0.950 . S
H1361 C1381 0.950 . S
H1362 C1383 0.950 . S
H1363 C1386 0.950 . S
H1364 C1387 0.950 . S
H1365 C1389 0.950 . S
H1366 C1390 0.950 . S
H1367 C1391 0.951 . S
H1368 C1393 0.951 . S
H1369 C1395 0.950 . S
H1370 C1396 0.950 . S
H1371 C1398 0.950 . S
H1372 C1401 0.950 . S
H1373 C1402 0.950 . S
H1374 C1404 0.950 . S
H1375 C1405 0.950 . S
C1376 H1358 0.951 . S
C1376 C1377 1.366 . S
C1376 C1378 1.388 . S
C1377 C1376 1.366 . S
C1377 C1381 1.385 . S
C1378 H1359 0.951 . S
C1378 C1376 1.388 . S
C1378 C1379 1.366 . S
C1379 C1378 1.366 . S
C1379 C1380 1.414 . S
C1379 C1382 1.499 . S
C1380 H1360 0.950 . S
C1380 C1379 1.414 . S
C1380 C1381 1.374 . S
C1381 H1361 0.950 . S
C1381 C1377 1.385 . S
C1381 C1380 1.374 . S
C1382 C1379 1.499 . S
C1382 C1383 1.373 . S
C1382 C1384 1.389 . S
C1383 H1362 0.950 . S
C1383 C1382 1.373 . S
C1383 C1399 1.377 . S
C1384 C1382 1.389 . S
C1384 C1385 1.524 . S
C1384 C1398 1.377 . S
C1385 C1384 1.524 . S
C1385 C1386 1.397 . S
C1385 C1390 1.363 . S
C1386 H1363 0.950 . S
C1386 C1385 1.397 . S
C1386 C1387 1.334 . S
C1387 H1364 0.950 . S
C1387 C1386 1.334 . S
C1387 C1388 1.287 . S
C1388 C1387 1.287 . S
C1388 C1389 1.524 . S
C1388 H1407 0.913 . S
C1389 H1365 0.950 . S
C1389 C1388 1.524 . S
C1389 C1390 1.415 . S
C1390 H1366 0.950 . S
C1390 C1385 1.363 . S
C1390 C1389 1.415 . S
C1391 H1367 0.951 . S
C1391 C1392 1.366 . S
C1391 C1393 1.388 . S
C1392 C1391 1.366 . S
C1392 C1396 1.385 . S
C1393 H1368 0.951 . S
C1393 C1391 1.388 . S
C1393 C1394 1.366 . S
C1394 C1393 1.366 . S
C1394 C1395 1.414 . S
C1394 C1397 1.499 . S
C1395 H1369 0.950 . S
C1395 C1394 1.414 . S
C1395 C1396 1.374 . S
C1396 H1370 0.950 . S
C1396 C1392 1.385 . S
C1396 C1395 1.374 . S
C1397 C1394 1.499 . S
C1397 C1398 1.373 . S
C1397 C1399 1.389 . S
C1398 H1371 0.950 . S
C1398 C1384 1.377 . S
C1398 C1397 1.373 . S
C1399 C1383 1.377 . S
C1399 C1397 1.389 . S
C1399 C1400 1.524 . S
C1400 C1399 1.524 . S
C1400 C1401 1.397 . S
C1400 C1405 1.363 . S
C1401 H1372 0.950 . S
C1401 C1400 1.397 . S
C1401 C1402 1.334 . S
C1402 H1373 0.950 . S
C1402 C1401 1.334 . S
C1402 C1403 1.287 . S
C1403 C1402 1.287 . S
C1403 C1404 1.524 . S
C1403 H1406 0.999 . S
C1404 H1374 0.950 . S
C1404 C1403 1.524 . S
C1404 C1405 1.415 . S
C1405 H1375 0.950 . S
C1405 C1400 1.363 . S
C1405 C1404 1.415 . S
H1406 C1403 0.999 . S
H1407 C1388 0.913 . S
C227 C45 1.559 . S
C242 N106 1.569 . S
C277 C30 1.560 . S
C292 N119 1.570 . S
C327 C39 1.560 . S
C342 N132 1.560 . S
C392 N145 1.560 . S
C377 C34 1.559 . S
C427 C97 1.559 . S
C442 N158 1.569 . S
C492 N171 1.560 . S
C477 C82 1.559 . S
C542 N184 1.560 . S
C527 C91 1.559 . S
C592 N197 1.560 . S
C577 C86 1.559 . S
C642 N187 1.539 . S
C627 C26 1.505 . S
C692 N200 1.540 . S
C677 C36 1.506 . S
C742 N157 1.547 . S
C727 C32 1.505 . S
C792 N174 1.541 . S
C777 C42 1.508 . S
C827 C18 1.576 . S
C842 N170 1.615 . S
C892 N183 1.617 . S
C877 C50 1.578 . S
C927 C4 1.578 . S
C942 N196 1.616 . S
C977 C48 1.579 . S
C992 N161 1.630 . S
C1042 N135 1.539 . S
C1027 C78 1.506 . S
C1077 C88 1.507 . S
C1092 N148 1.540 . S
C1142 N105 1.548 . S
C1127 C84 1.505 . S
C1192 N118 1.547 . S
C1177 C94 1.505 . S
C1242 N122 1.630 . S
C1227 C70 1.579 . S
C1292 N131 1.616 . S
C1277 C102 1.577 . S
C1327 C56 1.577 . S
C1342 N144 1.615 . S
C1377 C100 1.578 . S
C1392 N109 1.630 . S
