# Generated by pormake.
# Topology anh, (6,3)-cn, num edge types: 1
# Building blocks:
#     Node 0, Type 0, BuildingBlock: BETFAJ_clean_sbu_0, # of connection points: 6
#     Node 1, Type 0, BuildingBlock: BETFAJ_clean_sbu_0, # of connection points: 6
#     Node 2, Type 0, BuildingBlock: BETFAJ_clean_sbu_0, # of connection points: 6
#     Node 3, Type 1, BuildingBlock: BETDAH_clean_linker_0, # of connection points: 3
#     Node 4, Type 1, BuildingBlock: BETDAH_clean_linker_0, # of connection points: 3
#     Node 5, Type 1, BuildingBlock: BETDAH_clean_linker_0, # of connection points: 3
#     Node 6, Type 1, BuildingBlock: BETDAH_clean_linker_0, # of connection points: 3
#     Node 7, Type 1, BuildingBlock: BETDAH_clean_linker_0, # of connection points: 3
#     Node 8, Type 1, BuildingBlock: BETDAH_clean_linker_0, # of connection points: 3
#     Edge 9, Type (0, 1), BuildingBlock: TEMPAE_clean_linker_10, # of connection points: 2
#     Edge 10, Type (0, 1), BuildingBlock: TEMPAE_clean_linker_10, # of connection points: 2
#     Edge 11, Type (0, 1), BuildingBlock: TEMPAE_clean_linker_10, # of connection points: 2
#     Edge 12, Type (0, 1), BuildingBlock: TEMPAE_clean_linker_10, # of connection points: 2
#     Edge 13, Type (0, 1), BuildingBlock: TEMPAE_clean_linker_10, # of connection points: 2
#     Edge 14, Type (0, 1), BuildingBlock: TEMPAE_clean_linker_10, # of connection points: 2
#     Edge 15, Type (0, 1), BuildingBlock: TEMPAE_clean_linker_10, # of connection points: 2
#     Edge 16, Type (0, 1), BuildingBlock: TEMPAE_clean_linker_10, # of connection points: 2
#     Edge 17, Type (0, 1), BuildingBlock: TEMPAE_clean_linker_10, # of connection points: 2
#     Edge 18, Type (0, 1), BuildingBlock: TEMPAE_clean_linker_10, # of connection points: 2
#     Edge 19, Type (0, 1), BuildingBlock: TEMPAE_clean_linker_10, # of connection points: 2
#     Edge 20, Type (0, 1), BuildingBlock: TEMPAE_clean_linker_10, # of connection points: 2
#     Edge 21, Type (0, 1), BuildingBlock: TEMPAE_clean_linker_10, # of connection points: 2
#     Edge 22, Type (0, 1), BuildingBlock: TEMPAE_clean_linker_10, # of connection points: 2
#     Edge 23, Type (0, 1), BuildingBlock: TEMPAE_clean_linker_10, # of connection points: 2
#     Edge 24, Type (0, 1), BuildingBlock: TEMPAE_clean_linker_10, # of connection points: 2
#     Edge 25, Type (0, 1), BuildingBlock: TEMPAE_clean_linker_10, # of connection points: 2
#     Edge 26, Type (0, 1), BuildingBlock: TEMPAE_clean_linker_10, # of connection points: 2
# Relax obj value: 0.149
# Max RMSD: 0.183
# Mean RMSD: 0.111
data_MOF--net-anh--node1-BETFAJ_clean_sbu_0--node2-BETDAH_clean_linker_0--edge1-TEMPAE_clean_linker_10
_symmetry_space_group_name_H-M    P1
_symmetry_Int_Tables_number       1
_symmetry_cell_setting            triclinic
loop_
_symmetry_equiv_pos_as_xyz
'x, y, z'
_cell_length_a     32.161792
_cell_length_b     38.766473
_cell_length_c     49.753743
_cell_angle_alpha  94.447825
_cell_angle_beta   90.578241
_cell_angle_gamma 129.71873
loop_
_atom_site_label
_atom_site_type_symbol
_atom_site_fract_x
_atom_site_fract_y
_atom_site_fract_z
_atom_type_partial_charge
Sm0 Sm 0.16129 0.56379 0.14538 0.0
Sm1 Sm 0.09766 0.59045 0.16874 0.0
C2 C 0.22064 0.5511 0.11717 0.0
C3 C 0.22098 0.51393 0.1099 0.0
C4 C 0.24765 0.51523 0.08744 0.0
C5 C 0.25013 0.48092 0.08088 0.0
C6 C 0.22609 0.44491 0.09678 0.0
C7 C 0.19825 0.44323 0.11893 0.0
C8 C 0.19551 0.47741 0.12538 0.0
C9 C 0.15675 0.56438 0.20039 0.0
C10 C 0.22074 0.67192 0.15953 0.0
C11 C 1.03239 0.597 0.19615 0.0
C12 C 0.97315 0.56532 0.19732 0.0
C13 C 0.94416 0.58099 0.19826 0.0
C14 C 0.88753 0.55044 0.19406 0.0
C15 C 0.85921 0.5038 0.18833 0.0
C16 C 0.88851 0.48831 0.18925 0.0
C17 C 0.94471 0.51876 0.19387 0.0
C18 C 0.09864 0.58617 0.11316 0.0
C19 C 1.03872 0.48114 0.15685 0.0
O20 O 0.23242 0.56708 0.14272 0.0
O21 O 0.18021 0.54678 0.10623 0.0
O22 O 0.16446 0.59399 0.18686 0.0
O23 O 0.15393 0.53409 0.18512 0.0
O24 O 0.21695 0.64142 0.14293 0.0
O25 O 0.18217 0.65962 0.17573 0.0
O26 O 1.05867 0.58521 0.20655 0.0
O27 O 1.04907 0.61278 0.17286 0.0
O28 O 0.09271 0.55822 0.12758 0.0
O29 O 0.10168 0.61693 0.1279 0.0
O30 O 1.03922 0.51263 0.16968 0.0
O31 O 0.07948 0.49185 0.14284 0.0
H32 H 0.26731 0.54315 0.07525 0.0
H33 H 0.27231 0.48331 0.06387 0.0
H34 H 0.17892 0.41562 0.13135 0.0
H35 H 0.17418 0.47569 0.14264 0.0
H36 H 0.96538 0.61686 0.20101 0.0
H37 H 0.86623 0.56355 0.19415 0.0
H38 H 0.8687 0.45291 0.18466 0.0
H39 H 0.96615 0.50596 0.19327 0.0
Sm40 Sm 0.68845 0.085 0.4797 0.0
Sm41 Sm 0.6162 0.10623 0.46793 0.0
C42 C 0.73451 0.05271 0.49746 0.0
C43 C 0.71773 0.01062 0.50676 0.0
C44 C 0.66525 0.9779 0.51473 0.0
C45 C 0.64938 0.93718 0.52235 0.0
C46 C 0.68589 0.92866 0.52225 0.0
C47 C 0.73863 0.96194 0.51455 0.0
C48 C 0.75431 1.00246 0.50685 0.0
C49 C 0.68053 0.09555 0.42633 0.0
C50 C 0.55727 1.00213 0.46728 0.0
C51 C 0.56962 0.13892 0.45206 0.0
C52 C 0.57262 0.17714 0.46249 0.0
C53 C 0.56193 0.19765 0.44493 0.0
C54 C 0.56483 0.23404 0.45478 0.0
C55 C 0.57821 0.25033 0.48242 0.0
C56 C 0.58926 0.22981 0.4999 0.0
C57 C 0.58676 0.19373 0.49001 0.0
C58 C 0.6251 0.09767 0.52167 0.0
C59 C 0.75011 0.19016 0.47687 0.0
O60 O 0.72603 0.07602 0.51313 0.0
O61 O 0.72285 0.05077 0.47188 0.0
O62 O 0.64121 0.07411 0.44102 0.0
O63 O 0.72547 0.11093 0.43935 0.0
O64 O 0.6013 0.01749 0.48226 0.0
O65 O 0.55634 0.03007 0.45426 0.0
O66 O 0.6134 0.1493 0.44213 0.0
O67 O 0.54694 0.10582 0.46717 0.0
O68 O 0.66394 0.11776 0.50665 0.0
O69 O 0.58097 0.08428 0.50899 0.0
O70 O 0.70212 0.17589 0.46773 0.0
O71 O 0.75569 0.16204 0.48586 0.0
H72 H 0.63653 0.98374 0.5149 0.0
H73 H 0.60863 0.91244 0.52836 0.0
H74 H 0.76747 0.95621 0.51381 0.0
H75 H 0.79488 0.02724 0.50062 0.0
H76 H 0.55119 0.18544 0.42361 0.0
H77 H 0.5558 0.24898 0.44086 0.0
H78 H 0.60044 0.242 0.5212 0.0
H79 H 0.59586 0.17873 0.50387 0.0
Sm80 Sm 0.61099 0.5852 0.84879 0.0
Sm81 Sm 0.52831 0.47783 0.84247 0.0
C82 C 0.66653 0.67167 0.84308 0.0
C83 C 0.65874 0.70207 0.83291 0.0
C84 C 0.62332 0.68861 0.81014 0.0
C85 C 0.61711 0.71847 0.80095 0.0
C86 C 0.64589 0.76213 0.81448 0.0
C87 C 0.68132 0.7753 0.83721 0.0
C88 C 0.68765 0.74558 0.8463 0.0
C89 C 0.58781 0.54412 0.89519 0.0
C90 C 0.47448 0.52928 0.84605 0.0
C91 C 0.47574 0.39433 0.85385 0.0
C92 C 0.47739 0.35835 0.84418 0.0
C93 C 0.47376 0.33099 0.86254 0.0
C94 C 0.4814 0.30013 0.85434 0.0
C95 C 0.49267 0.29604 0.82757 0.0
C96 C 0.49524 0.32296 0.80912 0.0
C97 C 0.48799 0.35398 0.81737 0.0
C98 C 0.55543 0.50739 0.79185 0.0
C99 C 0.66537 0.53469 0.84582 0.0
O100 O 0.66361 0.64344 0.82515 0.0
O101 O 0.64365 0.65397 0.86523 0.0
O102 O 0.555 0.53205 0.87539 0.0
O103 O 0.63587 0.58133 0.89169 0.0
O104 O 0.5251 0.56788 0.84451 0.0
O105 O 0.46563 0.49065 0.84724 0.0
O106 O 0.51991 0.42945 0.86782 0.0
O107 O 0.45555 0.40515 0.8366 0.0
O108 O 0.5723 0.53128 0.81428 0.0
O109 O 0.52172 0.46509 0.7958 0.0
O110 O 0.61457 0.49588 0.84597 0.0
O111 O 0.67452 0.57345 0.84527 0.0
H112 H 0.60039 0.65505 0.79954 0.0
H113 H 0.58915 0.70717 0.78353 0.0
H114 H 0.70463 0.80885 0.84787 0.0
H115 H 0.71531 0.75665 0.86382 0.0
H116 H 0.46625 0.33425 0.8834 0.0
H117 H 0.47884 0.27968 0.86898 0.0
H118 H 0.50468 0.32112 0.78849 0.0
H119 H 0.49208 0.37538 0.80297 0.0
H120 H 0.5547 0.9909 0.22945 0.0
H121 H 0.68292 0.12663 0.21215 0.0
H122 H 0.57293 0.02333 0.14743 0.0
C123 C 0.57653 0.01511 0.21484 0.0
C124 C 0.55864 1.0011 0.18734 0.0
C125 C 0.62124 0.06006 0.22399 0.0
C126 C 0.64827 0.09198 0.2052 0.0
C127 C 0.63091 0.0788 0.17746 0.0
C128 C 0.58594 0.03345 0.16878 0.0
N129 N 0.65762 0.10981 0.15767 0.0
C130 C 0.70416 0.15515 0.16254 0.0
H131 H 0.61074 0.50422 0.59945 0.0
H132 H 0.59743 0.60628 0.58923 0.0
H133 H 0.5793 0.52286 0.52001 0.0
C134 C 0.6058 0.52266 0.58636 0.0
C135 C 0.59599 0.50982 0.55836 0.0
C136 C 0.60593 0.55713 0.59776 0.0
C137 C 0.59763 0.57985 0.58064 0.0
C138 C 0.58828 0.56751 0.5525 0.0
C139 C 0.58684 0.53228 0.54168 0.0
N140 N 0.57836 0.58852 0.53441 0.0
C141 C 0.59201 0.6305 0.54001 0.0
H142 H 0.99097 0.55311 0.91244 0.0
H143 H 0.11353 0.54173 0.89919 0.0
H144 H 1.01519 0.52512 0.83113 0.0
C145 C 1.01045 0.54581 0.89831 0.0
C146 C 0.99376 0.53648 0.87053 0.0
C147 C 1.05192 0.54652 0.90879 0.0
C148 C 0.08179 0.54124 0.89104 0.0
C149 C 0.07043 0.53438 0.86293 0.0
C150 C 1.02557 0.53163 0.85271 0.0
N151 N 0.10238 0.52935 0.84492 0.0
C152 C 0.14766 0.53098 0.85088 0.0
H153 H 0.24556 0.67181 0.39621 0.0
H154 H 0.10868 0.5405 0.41583 0.0
H155 H 0.20865 0.65031 0.47911 0.0
C156 C 0.22105 0.64952 0.41132 0.0
C157 C 0.23365 0.66686 0.43867 0.0
C158 C 0.1766 0.60415 0.40291 0.0
C159 C 0.14298 0.57551 0.42226 0.0
C160 C 0.15444 0.59212 0.44987 0.0
C161 C 0.19963 0.63778 0.45784 0.0
N162 N 0.1221 0.5642 0.47026 0.0
C163 C 0.07722 0.51813 0.46628 0.0
H164 H 0.5986 0.12546 0.7203 0.0
H165 H 0.62759 0.03252 0.72951 0.0
H166 H 0.58033 0.07434 0.79657 0.0
C167 C 0.60144 0.10527 0.73281 0.0
C168 C 0.58874 0.10368 0.75979 0.0
C169 C 0.61601 0.08014 0.72157 0.0
C170 C 0.61631 0.05196 0.73776 0.0
C171 C 0.60297 0.04971 0.76484 0.0
C172 C 0.58965 0.07574 0.7756 0.0
N173 N 0.60294 0.0223 0.78221 0.0
C174 C 0.61026 0.99125 0.77484 0.0
H175 H 0.57066 0.3676 0.04933 0.0
H176 H 0.40256 0.29386 0.02561 0.0
H177 H 0.44755 0.25969 0.09403 0.0
C178 C 0.52834 0.33963 0.05164 0.0
C179 C 0.51403 0.31377 0.07337 0.0
C180 C 0.48826 0.33247 0.03441 0.0
C181 C 0.43353 0.29852 0.03849 0.0
C182 C 0.4187 0.27166 0.05975 0.0
C183 C 0.45902 0.27901 0.0769 0.0
N184 N 0.3639 0.24102 0.06602 0.0
C185 C 0.3328 0.2543 0.06604 0.0
C186 C 0.24929 0.39894 0.11228 0.0
C187 C 0.23287 0.41073 0.09116 0.0
C188 C 0.26079 0.36986 0.10712 0.0
C189 C 0.25536 0.35193 0.08019 0.0
C190 C 0.23675 0.3623 0.05889 0.0
C191 C 0.22598 0.39181 0.06462 0.0
C192 C 0.28109 0.35998 0.13035 0.0
C193 C 0.23001 0.34344 0.02998 0.0
C194 C 0.3464 0.32365 0.06574 0.0
C195 C 0.31111 0.27721 0.06735 0.0
C196 C 0.32827 0.34818 0.0691 0.0
C197 C 0.27347 0.32543 0.07422 0.0
C198 C 0.23727 0.27807 0.07511 0.0
C199 C 0.25672 0.25437 0.07174 0.0
C200 C 0.36822 0.39862 0.06806 0.0
C201 C 0.17856 0.25275 0.08033 0.0
H202 H 0.25527 0.41392 0.13278 0.0
H203 H 0.21271 0.40053 0.0483 0.0
H204 H 0.25657 0.32304 0.13045 0.0
H205 H 0.3236 0.37454 0.12784 0.0
H206 H 0.27968 0.37419 0.15025 0.0
H207 H 0.2106 0.35149 0.01615 0.0
H208 H 0.27026 0.35758 0.02293 0.0
H209 H 0.20514 0.30627 0.02853 0.0
H210 H 0.38863 0.34104 0.06248 0.0
H211 H 0.22978 0.21831 0.07303 0.0
H212 H 0.37321 0.41615 0.08807 0.0
H213 H 0.35274 0.40852 0.05311 0.0
H214 H 0.40867 0.41067 0.06259 0.0
H215 H 0.17584 0.26377 0.10102 0.0
H216 H 0.15489 0.21566 0.07841 0.0
H217 H 0.15961 0.26051 0.06597 0.0
C218 C 0.85123 0.2547 0.48284 0.0
C219 C 0.7987 0.23861 0.47579 0.0
C220 C 0.89726 0.29998 0.48085 0.0
C221 C 0.89092 0.33022 0.47162 0.0
C222 C 0.83802 0.31421 0.46458 0.0
C223 C 0.79278 0.26883 0.46672 0.0
C224 C 0.95279 0.3155 0.48862 0.0
C225 C 0.8291 0.3451 0.45477 0.0
C226 C 1.0032 0.45691 0.49076 0.0
C227 C 1.03013 0.47086 0.46702 0.0
C228 C 0.95811 0.41136 0.49254 0.0
C229 C 0.93938 0.37882 0.46997 0.0
C230 C 0.96665 0.39296 0.44585 0.0
C231 C 1.0118 0.43889 0.44467 0.0
C232 C 0.93047 0.39809 0.51861 0.0
C233 C 0.94813 0.35957 0.42131 0.0
H234 H 0.85654 0.23182 0.48976 0.0
H235 H 0.75258 0.25704 0.46116 0.0
H236 H 0.97834 0.32907 0.47125 0.0
H237 H 0.97312 0.34326 0.50537 0.0
H238 H 0.95108 0.28786 0.4951 0.0
H239 H 0.78552 0.32745 0.44985 0.0
H240 H 0.8456 0.37378 0.47047 0.0
H241 H 0.85122 0.35946 0.43647 0.0
H242 H 1.01758 0.48174 0.50807 0.0
H243 H 1.0328 0.44975 0.42632 0.0
H244 H 0.93107 0.37246 0.5266 0.0
H245 H 0.88734 0.38252 0.51484 0.0
H246 H 0.95011 0.42735 0.53434 0.0
H247 H 0.94923 0.33283 0.42651 0.0
H248 H 0.97368 0.37578 0.40418 0.0
H249 H 0.90551 0.34281 0.41462 0.0
C250 C 0.63796 0.79927 0.77775 0.0
C251 C 0.63886 0.79391 0.80528 0.0
C252 C 0.63318 0.83042 0.76913 0.0
C253 C 0.62893 0.85663 0.78848 0.0
C254 C 0.62907 0.85085 0.81624 0.0
C255 C 0.63404 0.81966 0.82427 0.0
C256 C 0.63335 0.8357 0.73938 0.0
C257 C 0.62417 0.8778 0.83755 0.0
C258 C 0.66664 0.96894 0.77652 0.0
C259 C 0.61549 0.95683 0.77288 0.0
C260 C 0.67179 0.93613 0.78 0.0
C261 C 0.62454 0.89037 0.78005 0.0
C262 C 0.57284 0.87791 0.7749 0.0
C263 C 0.56896 0.91143 0.77145 0.0
C264 C 0.72763 0.95085 0.78529 0.0
C265 C 0.52149 0.82962 0.77476 0.0
H266 H 0.64214 0.77977 0.76298 0.0
H267 H 0.63381 0.81519 0.84552 0.0
H268 H 0.59607 0.82964 0.73245 0.0
H269 H 0.66836 0.87076 0.73587 0.0
H270 H 0.63578 0.81213 0.72684 0.0
H271 H 0.62448 0.86901 0.85824 0.0
H272 H 0.65819 0.91438 0.83709 0.0
H273 H 0.58599 0.87184 0.83328 0.0
H274 H 0.70251 0.00428 0.7779 0.0
H275 H 0.52941 0.90238 0.76891 0.0
H276 H 0.73213 0.92893 0.77237 0.0
H277 H 0.73341 0.94744 0.80666 0.0
H278 H 0.76014 0.98646 0.7815 0.0
H279 H 0.52424 0.80664 0.76179 0.0
H280 H 0.4851 0.82471 0.76746 0.0
H281 H 0.51597 0.8196 0.79557 0.0
C282 C 0.76696 0.42656 0.18294 0.0
C283 C 0.80109 0.47206 0.17792 0.0
C284 C 0.71556 0.39467 0.16905 0.0
C285 C 0.69747 0.40881 0.15016 0.0
C286 C 0.73001 0.45509 0.14645 0.0
C287 C 0.78153 0.48602 0.16015 0.0
C288 C 0.68215 0.34559 0.17344 0.0
C289 C 0.71172 0.47168 0.1268 0.0
C290 C 0.60406 0.33697 0.08758 0.0
C291 C 0.55648 0.32853 0.09457 0.0
C292 C 0.64911 0.35987 0.10641 0.0
C293 C 0.64664 0.37543 0.13258 0.0
C294 C 0.5974 0.36421 0.14029 0.0
C295 C 0.55268 0.3406 0.12117 0.0
C296 C 0.70056 0.37029 0.09764 0.0
C297 C 0.59326 0.38041 0.16792 0.0
H298 H 0.78113 0.4155 0.19704 0.0
H299 H 0.80752 0.52076 0.15569 0.0
H300 H 0.63932 0.3301 0.17587 0.0
H301 H 0.68246 0.32699 0.15544 0.0
H302 H 0.69817 0.34098 0.19146 0.0
H303 H 0.73943 0.5091 0.12818 0.0
H304 H 0.70997 0.45853 0.10583 0.0
H305 H 0.67035 0.45899 0.13062 0.0
H306 H 0.60676 0.32741 0.06701 0.0
H307 H 0.516 0.33447 0.12649 0.0
H308 H 0.71795 0.36282 0.11323 0.0
H309 H 0.73111 0.40676 0.09524 0.0
H310 H 0.69367 0.35072 0.07812 0.0
H311 H 0.61231 0.37509 0.18393 0.0
H312 H 0.55049 0.36303 0.17218 0.0
H313 H 0.61539 0.41719 0.1691 0.0
C314 C 0.46458 0.93449 0.44651 0.0
C315 C 0.50895 0.95309 0.46515 0.0
C316 C 0.41948 0.88801 0.4439 0.0
C317 C 0.41825 0.85923 0.46047 0.0
C318 C 0.46247 0.87795 0.47967 0.0
C319 C 0.50719 0.92445 0.4817 0.0
C320 C 0.37359 0.86952 0.42295 0.0
C321 C 0.46296 0.84876 0.49785 0.0
C322 C 0.28056 0.74293 0.46556 0.0
C323 C 0.28242 0.71535 0.4465 0.0
C324 C 0.32483 0.78958 0.47082 0.0
C325 C 0.3721 0.80928 0.45663 0.0
C326 C 0.37479 0.78131 0.43804 0.0
C327 C 0.33033 0.7349 0.43339 0.0
C328 C 0.32049 0.81801 0.49107 0.0
C329 C 0.42421 0.80059 0.42246 0.0
H330 H 0.46538 0.95615 0.4336 0.0
H331 H 0.5409 0.93833 0.49633 0.0
H332 H 0.36967 0.84482 0.40782 0.0
H333 H 0.33471 0.85132 0.43263 0.0
H334 H 0.3798 0.89641 0.41223 0.0
H335 H 0.49902 0.86877 0.51267 0.0
H336 H 0.42585 0.82976 0.50905 0.0
H337 H 0.4628 0.8236 0.48548 0.0
H338 H 0.24382 0.72839 0.47572 0.0
H339 H 0.33287 0.71387 0.41908 0.0
H340 H 0.32123 0.84265 0.48063 0.0
H341 H 0.35576 0.8376 0.50631 0.0
H342 H 0.28268 0.79732 0.5017 0.0
H343 H 0.43069 0.82576 0.40978 0.0
H344 H 0.42042 0.77421 0.40914 0.0
H345 H 0.46085 0.81841 0.43663 0.0
C346 C 0.5384 0.26377 0.83546 0.0
C347 C 0.50382 0.26515 0.81908 0.0
C348 C 0.55174 0.23669 0.82699 0.0
C349 C 0.52978 0.21017 0.80159 0.0
C350 C 0.49395 0.21072 0.78522 0.0
C351 C 0.48154 0.23827 0.79412 0.0
C352 C 0.59037 0.23728 0.84495 0.0
C353 C 0.46939 0.18271 0.75809 0.0
C354 C 0.60466 0.17623 0.76596 0.0
C355 C 0.57443 0.13122 0.77129 0.0
C356 C 0.59093 0.20239 0.77596 0.0
C357 C 0.54574 0.18311 0.79165 0.0
C358 C 0.51539 0.13785 0.79737 0.0
C359 C 0.53016 0.11247 0.78717 0.0
C360 C 0.62459 0.25062 0.76957 0.0
C361 C 0.46683 0.11604 0.81393 0.0
H362 H 0.5563 0.28489 0.85461 0.0
H363 H 0.45431 0.23882 0.78152 0.0
H364 H 0.57161 0.20247 0.84903 0.0
H365 H 0.62758 0.2507 0.83452 0.0
H366 H 0.60221 0.25832 0.86456 0.0
H367 H 0.44066 0.18556 0.74828 0.0
H368 H 0.50196 0.19363 0.74442 0.0
H369 H 0.44757 0.14669 0.76045 0.0
H370 H 0.63938 0.19111 0.75403 0.0
H371 H 0.50632 0.07759 0.79114 0.0
H372 H 0.64076 0.27375 0.78857 0.0
H373 H 0.59889 0.25504 0.758 0.0
H374 H 0.65914 0.26084 0.75758 0.0
H375 H 0.47879 0.13598 0.83395 0.0
H376 H 0.44827 0.08088 0.8171 0.0
H377 H 0.4357 0.11562 0.80366 0.0
C378 C 0.61843 0.84402 0.51888 0.0
C379 C 0.66887 0.88474 0.52914 0.0
C380 C 0.60407 0.80226 0.52306 0.0
C381 C 0.64098 0.80115 0.53789 0.0
C382 C 0.69093 0.84209 0.54928 0.0
C383 C 0.70427 0.88334 0.54475 0.0
C384 C 0.55043 0.7594 0.51054 0.0
C385 C 0.73125 0.8424 0.56536 0.0
C386 C 0.59011 0.68935 0.56121 0.0
C387 C 0.60643 0.6743 0.54083 0.0
C388 C 0.60151 0.73093 0.56077 0.0
C389 C 0.62954 0.75754 0.53936 0.0
C390 C 0.64644 0.74227 0.51892 0.0
C391 C 0.63464 0.70078 0.51994 0.0
C392 C 0.583 0.74611 0.58293 0.0
C393 C 0.67635 0.76947 0.49574 0.0
H394 H 0.591 0.84475 0.50662 0.0
H395 H 0.7429 0.91464 0.55315 0.0
H396 H 0.55764 0.74291 0.49427 0.0
H397 H 0.52823 0.73532 0.52584 0.0
H398 H 0.52429 0.76579 0.50175 0.0
H399 H 0.76606 0.87673 0.57483 0.0
H400 H 0.71123 0.81961 0.58147 0.0
H401 H 0.74707 0.8296 0.55191 0.0
H402 H 0.56797 0.66843 0.57726 0.0
H403 H 0.64684 0.68867 0.50414 0.0
H404 H 0.55386 0.74928 0.57417 0.0
H405 H 0.61803 0.77991 0.59283 0.0
H406 H 0.56323 0.72226 0.59856 0.0
H407 H 0.65092 0.77416 0.48414 0.0
H408 H 0.6872 0.75307 0.48169 0.0
H409 H 0.71408 0.8035 0.50362 0.0
C410 C 0.76688 0.5732 0.85649 0.0
C411 C 0.71365 0.53455 0.84671 0.0
C412 C 0.81135 0.573 0.85846 0.0
C413 C 0.80471 0.53363 0.84965 0.0
C414 C 0.75133 0.49487 0.83904 0.0
C415 C 0.70718 0.49556 0.83817 0.0
C416 C 0.86566 0.6151 0.8708 0.0
C417 C 0.74051 0.45209 0.82846 0.0
C418 C 0.93625 0.54662 0.83893 0.0
C419 C 0.94293 0.53188 0.86253 0.0
C420 C 0.89169 0.54642 0.83411 0.0
C421 C 0.85196 0.53209 0.85337 0.0
C422 C 0.85796 0.51629 0.87677 0.0
C423 C 0.90134 0.51538 0.88059 0.0
C424 C 0.88751 0.56215 0.80826 0.0
C425 C 0.81888 0.50111 0.89852 0.0
H426 H 0.77373 0.60377 0.86343 0.0
H427 H 0.6672 0.46519 0.83038 0.0
H428 H 0.87803 0.60758 0.88886 0.0
H429 H 0.89692 0.62671 0.85618 0.0
H430 H 0.8651 0.64296 0.87692 0.0
H431 H 0.69969 0.42695 0.81761 0.0
H432 H 0.77154 0.45968 0.81454 0.0
H433 H 0.74333 0.43668 0.84549 0.0
H434 H 0.96655 0.55938 0.82437 0.0
H435 H 0.90275 0.50184 0.89847 0.0
H436 H 0.89622 0.59476 0.81283 0.0
H437 H 0.84567 0.53751 0.79846 0.0
H438 H 0.91637 0.56677 0.79377 0.0
H439 H 0.81737 0.5282 0.90541 0.0
H440 H 0.83022 0.49229 0.91632 0.0
H441 H 0.77742 0.47119 0.89031 0.0
C442 C 0.27678 0.75254 0.17998 0.0
C443 C 0.2696 0.72061 0.16045 0.0
C444 C 0.32364 0.79828 0.18199 0.0
C445 C 0.36455 0.81286 0.16395 0.0
C446 C 0.35701 0.78107 0.14374 0.0
C447 C 0.30982 0.73539 0.14229 0.0
C448 C 0.32998 0.83084 0.20394 0.0
C449 C 0.39935 0.79514 0.12399 0.0
C450 C 0.46915 0.94022 0.16042 0.0
C451 C 0.51133 0.9526 0.17868 0.0
C452 C 0.42183 0.89472 0.15468 0.0
C453 C 0.41649 0.86074 0.16748 0.0
C454 C 0.45992 0.87292 0.18503 0.0
C455 C 0.50666 0.91846 0.1903 0.0
C456 C 0.37672 0.88321 0.13568 0.0
C457 C 0.45631 0.83799 0.19906 0.0
H458 H 0.24613 0.7417 0.19413 0.0
H459 H 0.30472 0.71119 0.12703 0.0
H460 H 0.36544 0.84471 0.21815 0.0
H461 H 0.33782 0.8597 0.19502 0.0
H462 H 0.29354 0.81467 0.2156 0.0
H463 H 0.38589 0.76713 0.10835 0.0
H464 H 0.40925 0.82379 0.11379 0.0
H465 H 0.43726 0.80694 0.135 0.0
H466 H 0.47218 0.96627 0.15143 0.0
H467 H 0.53944 0.92752 0.20401 0.0
H468 H 0.341 0.87119 0.14712 0.0
H469 H 0.36381 0.85543 0.12003 0.0
H470 H 0.38891 0.91265 0.12551 0.0
H471 H 0.42308 0.82242 0.21284 0.0
H472 H 0.4946 0.8526 0.21105 0.0
H473 H 0.4465 0.81062 0.18401 0.0
C474 C 0.60692 0.32721 0.47953 0.0
C475 C 0.58051 0.2885 0.49309 0.0
C476 C 0.6101 0.36376 0.48969 0.0
C477 C 0.58585 0.36138 0.51385 0.0
C478 C 0.55872 0.32222 0.52749 0.0
C479 C 0.55659 0.28637 0.51701 0.0
C480 C 0.63982 0.40507 0.47469 0.0
C481 C 0.53181 0.31812 0.55314 0.0
C482 C 0.63383 0.46979 0.55467 0.0
C483 C 0.59384 0.47215 0.54667 0.0
C484 C 0.63206 0.43421 0.54394 0.0
C485 C 0.58894 0.39989 0.52495 0.0
C486 C 0.54841 0.40208 0.51682 0.0
C487 C 0.55148 0.43827 0.52768 0.0
C488 C 0.67634 0.43335 0.55293 0.0
C489 C 0.50144 0.3659 0.49687 0.0
H490 H 0.62597 0.32923 0.46119 0.0
H491 H 0.53555 0.25631 0.5274 0.0
H492 H 0.61209 0.41144 0.46876 0.0
H493 H 0.67366 0.43512 0.4881 0.0
H494 H 0.65654 0.40165 0.45621 0.0
H495 H 0.5118 0.28521 0.56112 0.0
H496 H 0.56228 0.34554 0.56892 0.0
H497 H 0.50096 0.32196 0.54936 0.0
H498 H 0.66692 0.49611 0.56915 0.0
H499 H 0.5201 0.43963 0.52168 0.0
H500 H 0.69637 0.43259 0.53514 0.0
H501 H 0.65865 0.40227 0.56268 0.0
H502 H 0.70761 0.46304 0.56744 0.0
H503 H 0.51671 0.36325 0.47759 0.0
H504 H 0.47343 0.37267 0.49253 0.0
H505 H 0.47819 0.3327 0.5049 0.0
C506 C 0.43347 0.56951 0.84564 0.0
C507 C 0.4263 0.52963 0.84702 0.0
C508 C 0.38949 0.57039 0.84673 0.0
C509 C 0.33515 0.53051 0.84934 0.0
C510 C 0.32768 0.49019 0.85078 0.0
C511 C 0.37237 0.49023 0.84962 0.0
C512 C 0.40147 0.61459 0.845 0.0
C513 C 0.27184 0.4464 0.85354 0.0
C514 C 0.22527 0.53872 0.87497 0.0
C515 C 0.19505 0.53101 0.85107 0.0
C516 C 0.27003 0.53869 0.87475 0.0
C517 C 0.28659 0.53078 0.85006 0.0
C518 C 0.25601 0.52303 0.82593 0.0
C519 C 0.21155 0.52324 0.82673 0.0
C520 C 0.29985 0.54722 0.90126 0.0
C521 C 0.27031 0.51439 0.79889 0.0
H522 H 0.47398 0.60059 0.84367 0.0
H523 H 0.36474 0.45885 0.85081 0.0
H524 H 0.37782 0.61163 0.82725 0.0
H525 H 0.38868 0.62296 0.86324 0.0
H526 H 0.4452 0.64283 0.84321 0.0
H527 H 0.27183 0.4179 0.85473 0.0
H528 H 0.25521 0.44993 0.87199 0.0
H529 H 0.24412 0.43804 0.83601 0.0
H530 H 0.21395 0.54485 0.89407 0.0
H531 H 0.18941 0.51721 0.80795 0.0
H532 H 0.34332 0.57722 0.90105 0.0
H533 H 0.29781 0.51807 0.90408 0.0
H534 H 0.28295 0.55285 0.91877 0.0
H535 H 0.31288 0.54339 0.79561 0.0
H536 H 0.24342 0.50896 0.78188 0.0
H537 H 0.26732 0.48422 0.79859 0.0
C538 C 0.95563 0.4208 0.1791 0.0
C539 C 0.99087 0.43278 0.15852 0.0
C540 C 0.90898 0.37578 0.18057 0.0
C541 C 0.8973 0.34133 0.16121 0.0
C542 C 0.93332 0.35297 0.14069 0.0
C543 C 0.97963 0.39847 0.13961 0.0
C544 C 0.87198 0.36517 0.20281 0.0
C545 C 0.92249 0.31739 0.11962 0.0
C546 C 0.80047 0.21894 0.17769 0.0
C547 C 0.75209 0.20244 0.16361 0.0
C548 C 0.84799 0.26412 0.17723 0.0
C549 C 0.84701 0.29331 0.16221 0.0
C550 C 0.79772 0.27659 0.14822 0.0
C551 C 0.75091 0.23134 0.14908 0.0
C552 C 0.89938 0.28052 0.19261 0.0
C553 C 0.79453 0.3064 0.13213 0.0
H554 H 0.96472 0.44664 0.19438 0.0
H555 H 1.00658 0.40722 0.12367 0.0
H556 H 0.83083 0.34927 0.19391 0.0
H557 H 0.86801 0.34063 0.21509 0.0
H558 H 0.88695 0.39576 0.2164 0.0
H559 H 0.9549 0.33166 0.10537 0.0
H560 H 0.91904 0.29109 0.12956 0.0
H561 H 0.88328 0.30051 0.10788 0.0
H562 H 0.8013 0.19638 0.18881 0.0
H563 H 0.7134 0.21835 0.13806 0.0
H564 H 0.9145 0.30988 0.20742 0.0
H565 H 0.93139 0.29207 0.17845 0.0
H566 H 0.89334 0.2539 0.20358 0.0
H567 H 0.8064 0.33618 0.14546 0.0
H568 H 0.7532 0.28837 0.12247 0.0
H569 H 0.82345 0.31919 0.11613 0.0
C570 C 0.09873 0.61234 0.06874 0.0
C571 C 0.09669 0.58176 0.08324 0.0
C572 C 0.09486 0.60758 0.04031 0.0
C573 C 0.08952 0.5717 0.02602 0.0
C574 C 0.089 0.54148 0.04062 0.0
C575 C 0.09201 0.5466 0.06904 0.0
C576 C 0.09486 0.64018 0.02556 0.0
C577 C 0.08407 0.50313 0.02624 0.0
C578 C 1.0187 0.52963 0.95526 0.0
C579 C 1.06242 0.55167 0.93878 0.0
C580 C 1.02707 0.53575 0.98354 0.0
C581 C 0.08055 0.56393 -0.00411 0.0
C582 C 0.12494 0.58517 0.97946 0.0
C583 C 0.11539 0.57899 0.95112 0.0
C584 C 0.97853 0.51256 0.00023 0.0
C585 C 0.18253 0.61494 0.99186 0.0
H586 H 0.10237 0.63959 0.07962 0.0
H587 H 0.09009 0.52269 0.08013 0.0
H588 H 0.12691 0.6559 0.01111 0.0
H589 H 1.05545 0.62173 0.01362 0.0
H590 H 0.10159 0.66734 0.03958 0.0
H591 H 0.08935 0.48524 0.04046 0.0
H592 H 1.04357 0.47846 0.01507 0.0
H593 H 0.11478 0.5159 0.01116 0.0
H594 H 0.97756 0.50752 0.946 0.0
H595 H 0.14947 0.59635 0.93866 0.0
H596 H 0.98109 0.53809 0.01377 0.0
H597 H 0.97822 0.49046 0.01326 0.0
H598 H 0.93957 0.49178 0.98751 0.0
H599 H 0.19222 0.64474 0.00411 0.0
H600 H 0.21236 0.62689 0.97633 0.0
H601 H 0.18728 0.59636 0.0057 0.0
C602 C 0.62391 0.07369 0.38346 0.0
C603 C 0.67511 0.09709 0.397 0.0
C604 C 0.61813 0.0723 0.35527 0.0
C605 C 0.66472 0.09507 0.34035 0.0
C606 C 0.7167 0.1203 0.35413 0.0
C607 C 0.72125 0.12092 0.3823 0.0
C608 C 0.56198 0.04499 0.34135 0.0
C609 C 0.76736 0.14527 0.33901 0.0
C610 C 0.64194 0.04474 0.26786 0.0
C611 C 0.63862 0.07263 0.25336 0.0
C612 C 0.65167 0.0524 0.29606 0.0
C613 C 0.65856 0.08905 0.31023 0.0
C614 C 0.65756 0.11853 0.29564 0.0
C615 C 0.64763 0.10998 0.2673 0.0
C616 C 0.65284 0.02033 0.31077 0.0
C617 C 0.66506 0.1581 0.31002 0.0
H618 H 0.58818 0.05547 0.3948 0.0
H619 H 0.76099 0.13942 0.39275 0.0
H620 H 0.56005 0.06575 0.32811 0.0
H621 H 0.55244 0.01588 0.32826 0.0
H622 H 0.53036 0.032 0.35597 0.0
H623 H 0.80487 0.16668 0.35287 0.0
H624 H 0.76763 0.1207 0.32618 0.0
H625 H 0.76806 0.16693 0.32537 0.0
H626 H 0.63581 0.01621 0.2571 0.0
H627 H 0.64481 0.13147 0.25619 0.0
H628 H 0.61923 1.00281 0.32432 0.0
H629 H 0.69132 0.03928 0.32363 0.0
H630 H 0.64879 0.99449 0.29668 0.0
H631 H 0.63055 0.14567 0.32258 0.0
H632 H 0.66748 0.17982 0.29569 0.0
H633 H 0.7025 0.17895 0.32386 0.0
C634 C 0.54671 0.49133 0.74202 0.0
C635 C 0.56882 0.52332 0.76475 0.0
C636 C 0.55771 0.50439 0.71585 0.0
C637 C 0.59189 0.55079 0.71219 0.0
C638 C 0.61429 0.58343 0.73507 0.0
C639 C 0.60245 0.56925 0.76117 0.0
C640 C 0.53273 0.46834 0.69209 0.0
C641 C 0.65091 0.63317 0.73199 0.0
C642 C 0.64844 0.56873 0.64365 0.0
C643 C 0.61009 0.56605 0.62769 0.0
C644 C 0.64606 0.56801 0.67178 0.0
C645 C 0.60401 0.56414 0.68421 0.0
C646 C 0.56793 0.56518 0.66847 0.0
C647 C 0.57147 0.56622 0.64037 0.0
C648 C 0.68581 0.56759 0.68781 0.0
C649 C 0.52253 0.56114 0.68088 0.0
H650 H 0.52061 0.45573 0.74466 0.0
H651 H 0.61932 0.594 0.77869 0.0
H652 H 0.50811 0.47112 0.67813 0.0
H653 H 0.56511 0.47306 0.68057 0.0
H654 H 0.50637 0.43374 0.69843 0.0
H655 H 0.66287 0.65409 0.75167 0.0
H656 H 0.68812 0.64363 0.72269 0.0
H657 H 0.63041 0.64026 0.71822 0.0
H658 H 0.6789 0.5693 0.63396 0.0
H659 H 0.54159 0.56398 0.62813 0.0
H660 H 0.66505 0.53296 0.69314 0.0
H661 H 0.70104 0.59021 0.70697 0.0
H662 H 0.72092 0.57814 0.67622 0.0
H663 H 0.49053 0.52586 0.68534 0.0
H664 H 0.50398 0.57004 0.66713 0.0
H665 H 0.5373 0.5832 0.70026 0.0
C666 C 0.58636 0.08104 0.5664 0.0
C667 C 0.62965 0.09465 0.55084 0.0
C668 C 0.58919 0.07817 0.59417 0.0
C669 C 0.63593 0.08794 0.60664 0.0
C670 C 0.6793 0.10056 0.59088 0.0
C671 C 0.67606 0.1046 0.56321 0.0
C672 C 0.54251 0.06563 0.61028 0.0
C673 C 0.72914 0.11002 0.60326 0.0
C674 C 0.65713 0.12442 0.68177 0.0
C675 C 0.62922 0.08311 0.69272 0.0
C676 C 0.66198 0.12687 0.65388 0.0
C677 C 0.63994 0.08729 0.63644 0.0
C678 C 0.61596 0.04624 0.64753 0.0
C679 C 0.61035 0.04449 0.67552 0.0
C680 C 0.68728 0.17126 0.64297 0.0
C681 C 0.59345 0.00358 0.62967 0.0
H682 H 0.5504 0.07339 0.55695 0.0
H683 H 0.70968 0.11534 0.55128 0.0
H684 H 0.52576 0.03487 0.62016 0.0
H685 H 0.55705 0.09316 0.62653 0.0
H686 H 0.50925 0.05933 0.59753 0.0
H687 H 0.75653 0.1147 0.58776 0.0
H688 H 0.75198 0.14098 0.61777 0.0
H689 H 0.71731 0.08189 0.61475 0.0
H690 H 0.67349 0.15479 0.69496 0.0
H691 H 0.58883 0.01241 0.68367 0.0
H692 H 0.65568 0.16855 0.63114 0.0
H693 H 0.71857 0.17951 0.62909 0.0
H694 H 0.70621 0.19958 0.65931 0.0
H695 H 0.55521 0.9907 0.61848 0.0
H696 H 0.58473 0.97676 0.64155 0.0
H697 H 0.62226 0.01039 0.61449 0.0
C698 C 0.52083 0.47617 0.91836 0.0
C699 C 0.5743 0.51597 0.91729 0.0
C700 C 0.50741 0.44653 0.93754 0.0
C701 C 0.5481 0.4578 0.95681 0.0
C702 C 0.60181 0.49892 0.95655 0.0
C703 C 0.61442 0.52741 0.93658 0.0
C704 C 0.44996 0.40258 0.93671 0.0
C705 C 0.64599 0.51251 0.97717 0.0
C706 C 0.49828 0.39711 0.01997 0.0
C707 C 0.50368 0.36426 0.01447 0.0
C708 C 0.51383 0.42852 0.00165 0.0
C709 C 0.53421 0.42627 0.97706 0.0
C710 C 0.53939 0.3928 0.97141 0.0
C711 C 0.52461 0.36243 0.99041 0.0
C712 C 0.5083 0.46398 0.00856 0.0
C713 C 0.55978 0.38871 0.94514 0.0
H714 H 0.48956 0.46745 0.90362 0.0
H715 H 0.65573 0.55834 0.9359 0.0
H716 H 0.44976 0.37383 0.93348 0.0
H717 H 0.43262 0.40022 0.95631 0.0
H718 H 0.42319 0.39888 0.92034 0.0
H719 H 0.685 0.54651 0.975 0.0
H720 H 0.63355 0.51247 -0.0021 0.0
H721 H 0.65261 0.48768 0.97502 0.0
H722 H 0.48237 0.39844 0.03878 0.0
H723 H 0.52871 0.33687 0.98638 0.0
H724 H 0.47904 0.45958 0.99359 0.0
H725 H 0.54785 0.49809 0.00753 0.0
H726 H 0.49415 0.4624 0.02906 0.0
H727 H 0.53379 0.38365 0.9278 0.0
H728 H 0.56025 0.36021 0.94361 0.0
H729 H 0.60146 0.42036 0.94324 0.0
C730 C 0.1394 0.52827 0.24294 0.0
C731 C 0.15245 0.56453 0.22992 0.0
C732 C 0.13703 0.52867 0.27114 0.0
C733 C 0.14844 0.56643 0.28663 0.0
C734 C 0.16008 0.60254 0.27344 0.0
C735 C 0.16178 0.60108 0.24522 0.0
C736 C 0.12393 0.48933 0.2844 0.0
C737 C 0.17264 0.64349 0.28921 0.0
C738 C 0.11533 0.56486 0.36006 0.0
C739 C 0.16646 0.58792 0.37366 0.0
C740 C 0.10809 0.55584 0.33169 0.0
C741 C 0.15305 0.57026 0.31673 0.0
C742 C 0.20396 0.59132 0.33056 0.0
C743 C 0.20995 0.59972 0.3588 0.0
C744 C 1.05306 0.53288 0.31767 0.0
C745 C 0.25289 0.60701 0.31546 0.0
H746 H 0.13159 0.4997 0.23111 0.0
H747 H 0.17154 0.62904 0.23518 0.0
H748 H 0.16016 0.50035 0.29682 0.0
H749 H 0.09122 0.47712 0.2982 0.0
H750 H 0.11104 0.4608 0.26937 0.0
H751 H 0.17765 0.66738 0.27582 0.0
H752 H 0.13977 0.6331 0.30254 0.0
H753 H 0.21058 0.6615 0.30241 0.0
H754 H 0.08168 0.55582 0.37148 0.0
H755 H 0.24935 0.61695 0.36932 0.0
H756 H 1.04147 0.50493 0.30254 0.0
H757 H 1.05455 0.55739 0.30662 0.0
H758 H 1.0211 0.51918 0.33215 0.0
H759 H 0.24355 0.57884 0.3014 0.0
H760 H 0.2887 0.62038 0.32929 0.0
H761 H 0.26375 0.63399 0.30309 0.0
loop_
_geom_bond_atom_site_label_1
_geom_bond_atom_site_label_2
_geom_bond_distance
_geom_bond_site_symmetry_2
_ccdc_geom_bond_type
Sm0 C2 2.846 . S
Sm0 O20 2.543 . S
Sm0 O21 2.450 . S
Sm0 O22 2.681 . S
Sm0 O23 2.464 . S
Sm0 O24 2.396 . S
Sm0 O28 2.386 . S
Sm0 O31 2.408 1_455 S
Sm1 C11 2.846 1_455 S
Sm1 O22 2.386 . S
Sm1 O25 2.408 . S
Sm1 O26 2.543 1_455 S
Sm1 O27 2.450 1_455 S
Sm1 O28 2.681 . S
Sm1 O29 2.464 . S
Sm1 O30 2.396 1_455 S
C2 Sm0 2.846 . S
C2 C3 1.506 . S
C2 O20 1.261 . S
C2 O21 1.242 . S
C3 C2 1.506 . S
C3 C4 1.358 . S
C3 C8 1.382 . S
C4 C3 1.358 . S
C4 C5 1.385 . S
C4 H32 0.930 . S
C5 C4 1.385 . S
C5 C6 1.395 . S
C5 H33 0.929 . S
C6 C5 1.395 . S
C6 C7 1.335 . S
C7 C6 1.335 . S
C7 C8 1.398 . S
C7 H34 0.930 . S
C8 C3 1.382 . S
C8 C7 1.398 . S
C8 H35 0.929 . S
C9 O22 1.271 . S
C9 O23 1.251 . S
C10 O24 1.252 . S
C10 O25 1.272 . S
C11 Sm1 2.846 1_655 S
C11 C12 1.506 . S
C11 O26 1.261 . S
C11 O27 1.242 . S
C12 C11 1.506 . S
C12 C13 1.358 . S
C12 C17 1.382 . S
C13 C12 1.358 . S
C13 C14 1.385 . S
C13 H36 0.930 . S
C14 C13 1.385 . S
C14 C15 1.395 . S
C14 H37 0.929 . S
C15 C14 1.395 . S
C15 C16 1.335 . S
C16 C15 1.335 . S
C16 C17 1.398 . S
C16 H38 0.930 . S
C17 C12 1.382 . S
C17 C16 1.398 . S
C17 H39 0.929 . S
C18 O28 1.271 . S
C18 O29 1.251 . S
C19 O30 1.252 . S
C19 O31 1.272 . S
O20 Sm0 2.543 . S
O20 C2 1.261 . S
O21 Sm0 2.450 . S
O21 C2 1.242 . S
O22 Sm0 2.681 . S
O22 Sm1 2.386 . S
O22 C9 1.271 . S
O23 Sm0 2.464 . S
O23 C9 1.251 . S
O24 Sm0 2.396 . S
O24 C10 1.252 . S
O25 Sm1 2.408 . S
O25 C10 1.272 . S
O26 Sm1 2.543 1_655 S
O26 C11 1.261 . S
O27 Sm1 2.450 1_655 S
O27 C11 1.242 . S
O28 Sm0 2.386 . S
O28 Sm1 2.681 . S
O28 C18 1.271 . S
O29 Sm1 2.464 . S
O29 C18 1.251 . S
O30 Sm1 2.396 1_655 S
O30 C19 1.252 . S
O31 Sm0 2.408 1_655 S
O31 C19 1.272 . S
H32 C4 0.930 . S
H33 C5 0.929 . S
H34 C7 0.930 . S
H35 C8 0.929 . S
H36 C13 0.930 . S
H37 C14 0.929 . S
H38 C16 0.930 . S
H39 C17 0.929 . S
Sm40 C42 2.846 1_545 S
Sm40 O60 2.543 1_545 S
Sm40 O61 2.450 1_545 S
Sm40 O62 2.681 . S
Sm40 O63 2.464 . S
Sm40 O64 2.396 1_545 S
Sm40 O68 2.386 . S
Sm40 O71 2.408 . S
Sm41 C51 2.846 . S
Sm41 O62 2.386 . S
Sm41 O65 2.408 1_545 S
Sm41 O66 2.543 . S
Sm41 O67 2.450 . S
Sm41 O68 2.681 . S
Sm41 O69 2.464 . S
Sm41 O70 2.396 . S
C42 Sm40 2.846 1_565 S
C42 C43 1.506 . S
C42 O60 1.261 . S
C42 O61 1.242 . S
C43 C42 1.506 . S
C43 C44 1.358 . S
C43 C48 1.382 . S
C44 C43 1.358 . S
C44 C45 1.385 . S
C44 H72 0.930 . S
C45 C44 1.385 . S
C45 C46 1.395 . S
C45 H73 0.929 . S
C46 C45 1.395 . S
C46 C47 1.335 . S
C47 C46 1.335 . S
C47 C48 1.398 . S
C47 H74 0.930 . S
C48 C43 1.382 . S
C48 C47 1.398 . S
C48 H75 0.929 . S
C49 O62 1.271 . S
C49 O63 1.251 . S
C50 O64 1.252 . S
C50 O65 1.272 . S
C51 Sm41 2.846 . S
C51 C52 1.506 . S
C51 O66 1.261 . S
C51 O67 1.242 . S
C52 C51 1.506 . S
C52 C53 1.358 . S
C52 C57 1.382 . S
C53 C52 1.358 . S
C53 C54 1.385 . S
C53 H76 0.930 . S
C54 C53 1.385 . S
C54 C55 1.395 . S
C54 H77 0.929 . S
C55 C54 1.395 . S
C55 C56 1.335 . S
C56 C55 1.335 . S
C56 C57 1.398 . S
C56 H78 0.930 . S
C57 C52 1.382 . S
C57 C56 1.398 . S
C57 H79 0.929 . S
C58 O68 1.271 . S
C58 O69 1.251 . S
C59 O70 1.252 . S
C59 O71 1.272 . S
O60 Sm40 2.543 1_565 S
O60 C42 1.261 . S
O61 Sm40 2.450 1_565 S
O61 C42 1.242 . S
O62 Sm40 2.681 . S
O62 Sm41 2.386 . S
O62 C49 1.271 . S
O63 Sm40 2.464 . S
O63 C49 1.251 . S
O64 Sm40 2.396 1_565 S
O64 C50 1.252 . S
O65 Sm41 2.408 1_565 S
O65 C50 1.272 . S
O66 Sm41 2.543 . S
O66 C51 1.261 . S
O67 Sm41 2.450 . S
O67 C51 1.242 . S
O68 Sm40 2.386 . S
O68 Sm41 2.681 . S
O68 C58 1.271 . S
O69 Sm41 2.464 . S
O69 C58 1.251 . S
O70 Sm41 2.396 . S
O70 C59 1.252 . S
O71 Sm40 2.408 . S
O71 C59 1.272 . S
H72 C44 0.930 . S
H73 C45 0.929 . S
H74 C47 0.930 . S
H75 C48 0.929 . S
H76 C53 0.930 . S
H77 C54 0.929 . S
H78 C56 0.930 . S
H79 C57 0.929 . S
Sm80 C82 2.846 . S
Sm80 O100 2.543 . S
Sm80 O101 2.450 . S
Sm80 O102 2.681 . S
Sm80 O103 2.464 . S
Sm80 O104 2.396 . S
Sm80 O108 2.386 . S
Sm80 O111 2.408 . S
Sm81 C91 2.846 . S
Sm81 O102 2.386 . S
Sm81 O105 2.408 . S
Sm81 O106 2.543 . S
Sm81 O107 2.450 . S
Sm81 O108 2.681 . S
Sm81 O109 2.464 . S
Sm81 O110 2.396 . S
C82 Sm80 2.846 . S
C82 C83 1.506 . S
C82 O100 1.261 . S
C82 O101 1.242 . S
C83 C82 1.506 . S
C83 C84 1.358 . S
C83 C88 1.382 . S
C84 C83 1.358 . S
C84 C85 1.385 . S
C84 H112 0.930 . S
C85 C84 1.385 . S
C85 C86 1.395 . S
C85 H113 0.929 . S
C86 C85 1.395 . S
C86 C87 1.335 . S
C87 C86 1.335 . S
C87 C88 1.398 . S
C87 H114 0.930 . S
C88 C83 1.382 . S
C88 C87 1.398 . S
C88 H115 0.929 . S
C89 O102 1.271 . S
C89 O103 1.251 . S
C90 O104 1.252 . S
C90 O105 1.272 . S
C91 Sm81 2.846 . S
C91 C92 1.506 . S
C91 O106 1.261 . S
C91 O107 1.242 . S
C92 C91 1.506 . S
C92 C93 1.358 . S
C92 C97 1.382 . S
C93 C92 1.358 . S
C93 C94 1.385 . S
C93 H116 0.930 . S
C94 C93 1.385 . S
C94 C95 1.395 . S
C94 H117 0.929 . S
C95 C94 1.395 . S
C95 C96 1.335 . S
C96 C95 1.335 . S
C96 C97 1.398 . S
C96 H118 0.930 . S
C97 C92 1.382 . S
C97 C96 1.398 . S
C97 H119 0.929 . S
C98 O108 1.271 . S
C98 O109 1.251 . S
C99 O110 1.252 . S
C99 O111 1.272 . S
O100 Sm80 2.543 . S
O100 C82 1.261 . S
O101 Sm80 2.450 . S
O101 C82 1.242 . S
O102 Sm80 2.681 . S
O102 Sm81 2.386 . S
O102 C89 1.271 . S
O103 Sm80 2.464 . S
O103 C89 1.251 . S
O104 Sm80 2.396 . S
O104 C90 1.252 . S
O105 Sm81 2.408 . S
O105 C90 1.272 . S
O106 Sm81 2.543 . S
O106 C91 1.261 . S
O107 Sm81 2.450 . S
O107 C91 1.242 . S
O108 Sm80 2.386 . S
O108 Sm81 2.681 . S
O108 C98 1.271 . S
O109 Sm81 2.464 . S
O109 C98 1.251 . S
O110 Sm81 2.396 . S
O110 C99 1.252 . S
O111 Sm80 2.408 . S
O111 C99 1.272 . S
H112 C84 0.930 . S
H113 C85 0.929 . S
H114 C87 0.930 . S
H115 C88 0.929 . S
H116 C93 0.930 . S
H117 C94 0.929 . S
H118 C96 0.930 . S
H119 C97 0.929 . S
H120 C123 0.929 . S
H121 C126 0.929 . S
H122 C128 0.930 . S
C123 H120 0.929 . S
C123 C124 1.398 . S
C123 C125 1.396 1_565 S
C124 C123 1.398 . S
C124 C128 1.407 1_565 S
C125 C123 1.396 1_545 S
C125 C126 1.394 . S
C126 H121 0.929 . S
C126 C125 1.394 . S
C126 C127 1.382 . S
C127 C126 1.382 . S
C127 C128 1.392 . S
C127 N129 1.420 . S
C128 H122 0.930 . S
C128 C124 1.407 1_545 S
C128 C127 1.392 . S
N129 C127 1.420 . S
N129 C130 1.244 . S
C130 N129 1.244 . S
H131 C134 0.929 . S
H132 C137 0.929 . S
H133 C139 0.930 . S
C134 H131 0.929 . S
C134 C135 1.398 . S
C134 C136 1.396 . S
C135 C134 1.398 . S
C135 C139 1.407 . S
C136 C134 1.396 . S
C136 C137 1.394 . S
C137 H132 0.929 . S
C137 C136 1.394 . S
C137 C138 1.382 . S
C138 C137 1.382 . S
C138 C139 1.392 . S
C138 N140 1.420 . S
C139 H133 0.930 . S
C139 C135 1.407 . S
C139 C138 1.392 . S
N140 C138 1.420 . S
N140 C141 1.244 . S
C141 N140 1.244 . S
H142 C145 0.929 . S
H143 C148 0.929 . S
H144 C150 0.930 . S
C145 H142 0.929 . S
C145 C146 1.398 . S
C145 C147 1.396 . S
C146 C145 1.398 . S
C146 C150 1.407 . S
C147 C145 1.396 . S
C147 C148 1.394 . S
C148 H143 0.929 . S
C148 C147 1.394 . S
C148 C149 1.382 . S
C149 C148 1.382 . S
C149 C150 1.392 . S
C149 N151 1.420 . S
C150 H144 0.930 . S
C150 C146 1.407 . S
C150 C149 1.392 . S
N151 C149 1.420 . S
N151 C152 1.244 . S
C152 N151 1.244 . S
H153 C156 0.929 . S
H154 C159 0.929 . S
H155 C161 0.930 . S
C156 H153 0.929 . S
C156 C157 1.398 . S
C156 C158 1.396 . S
C157 C156 1.398 . S
C157 C161 1.407 . S
C158 C156 1.396 . S
C158 C159 1.394 1_455 S
C159 H154 0.929 . S
C159 C158 1.394 1_655 S
C159 C160 1.382 . S
C160 C159 1.382 . S
C160 C161 1.392 1_655 S
C160 N162 1.420 . S
C161 H155 0.930 . S
C161 C157 1.407 . S
C161 C160 1.392 1_455 S
N162 C160 1.420 . S
N162 C163 1.244 . S
C163 N162 1.244 . S
H164 C167 0.929 . S
H165 C170 0.929 1_565 S
H166 C172 0.930 . S
C167 H164 0.929 . S
C167 C168 1.398 . S
C167 C169 1.396 . S
C168 C167 1.398 . S
C168 C172 1.407 . S
C169 C167 1.396 . S
C169 C170 1.394 . S
C170 H165 0.929 1_545 S
C170 C169 1.394 . S
C170 C171 1.382 . S
C171 C170 1.382 . S
C171 C172 1.392 . S
C171 N173 1.420 . S
C172 H166 0.930 . S
C172 C168 1.407 . S
C172 C171 1.392 . S
N173 C171 1.420 . S
N173 C174 1.244 1_545 S
C174 N173 1.244 1_565 S
H175 C178 0.929 . S
H176 C181 0.929 . S
H177 C183 0.930 . S
C178 H175 0.929 . S
C178 C179 1.398 . S
C178 C180 1.396 . S
C179 C178 1.398 . S
C179 C183 1.407 . S
C180 C178 1.396 . S
C180 C181 1.394 . S
C181 H176 0.929 . S
C181 C180 1.394 . S
C181 C182 1.382 . S
C182 C181 1.382 . S
C182 C183 1.392 . S
C182 N184 1.420 . S
C183 H177 0.930 . S
C183 C179 1.407 . S
C183 C182 1.392 . S
N184 C182 1.420 . S
N184 C185 1.244 . S
C185 N184 1.244 . S
C186 C187 1.391 . S
C186 C188 1.394 . S
C186 H202 0.931 . S
C187 C186 1.391 . S
C187 C191 1.376 . S
C188 C186 1.394 . S
C188 C189 1.369 . S
C188 C192 1.531 . S
C189 C188 1.369 . S
C189 C190 1.410 . S
C189 C197 1.503 . S
C190 C189 1.410 . S
C190 C191 1.392 . S
C190 C193 1.511 . S
C191 C187 1.376 . S
C191 C190 1.392 . S
C191 H203 0.929 . S
C192 C188 1.531 . S
C192 H204 0.960 . S
C192 H205 0.962 . S
C192 H206 0.960 . S
C193 C190 1.511 . S
C193 H207 0.961 . S
C193 H208 0.961 . S
C193 H209 0.961 . S
C194 C195 1.370 . S
C194 C196 1.363 . S
C194 H210 0.931 . S
C195 C194 1.370 . S
C195 C199 1.408 . S
C196 C194 1.363 . S
C196 C197 1.370 . S
C196 C200 1.524 . S
C197 C189 1.503 . S
C197 C196 1.370 . S
C197 C198 1.403 . S
C198 C197 1.403 . S
C198 C199 1.404 . S
C198 C201 1.539 . S
C199 C195 1.408 . S
C199 C198 1.404 . S
C199 H211 0.930 . S
C200 C196 1.524 . S
C200 H212 0.956 . S
C200 H213 0.961 . S
C200 H214 0.961 . S
C201 C198 1.539 . S
C201 H215 0.958 . S
C201 H216 0.961 . S
C201 H217 0.960 . S
H202 C186 0.931 . S
H203 C191 0.929 . S
H204 C192 0.960 . S
H205 C192 0.962 . S
H206 C192 0.960 . S
H207 C193 0.961 . S
H208 C193 0.961 . S
H209 C193 0.961 . S
H210 C194 0.931 . S
H211 C199 0.930 . S
H212 C200 0.956 . S
H213 C200 0.961 . S
H214 C200 0.961 . S
H215 C201 0.958 . S
H216 C201 0.961 . S
H217 C201 0.960 . S
C218 C219 1.391 . S
C218 C220 1.394 . S
C218 H234 0.931 . S
C219 C218 1.391 . S
C219 C223 1.376 . S
C220 C218 1.394 . S
C220 C221 1.369 . S
C220 C224 1.531 . S
C221 C220 1.369 . S
C221 C222 1.410 . S
C221 C229 1.503 . S
C222 C221 1.410 . S
C222 C223 1.392 . S
C222 C225 1.511 . S
C223 C219 1.376 . S
C223 C222 1.392 . S
C223 H235 0.929 . S
C224 C220 1.531 . S
C224 H236 0.960 . S
C224 H237 0.962 . S
C224 H238 0.960 . S
C225 C222 1.511 . S
C225 H239 0.961 . S
C225 H240 0.961 . S
C225 H241 0.961 . S
C226 C227 1.370 . S
C226 C228 1.363 . S
C226 H242 0.931 . S
C227 C226 1.370 . S
C227 C231 1.408 . S
C228 C226 1.363 . S
C228 C229 1.370 . S
C228 C232 1.524 . S
C229 C221 1.503 . S
C229 C228 1.370 . S
C229 C230 1.403 . S
C230 C229 1.403 . S
C230 C231 1.404 . S
C230 C233 1.539 . S
C231 C227 1.408 . S
C231 C230 1.404 . S
C231 H243 0.930 . S
C232 C228 1.524 . S
C232 H244 0.956 . S
C232 H245 0.961 . S
C232 H246 0.961 . S
C233 C230 1.539 . S
C233 H247 0.958 . S
C233 H248 0.961 . S
C233 H249 0.960 . S
H234 C218 0.931 . S
H235 C223 0.929 . S
H236 C224 0.960 . S
H237 C224 0.962 . S
H238 C224 0.960 . S
H239 C225 0.961 . S
H240 C225 0.961 . S
H241 C225 0.961 . S
H242 C226 0.931 . S
H243 C231 0.930 . S
H244 C232 0.956 . S
H245 C232 0.961 . S
H246 C232 0.961 . S
H247 C233 0.958 . S
H248 C233 0.961 . S
H249 C233 0.960 . S
C250 C251 1.391 . S
C250 C252 1.394 . S
C250 H266 0.931 . S
C251 C250 1.391 . S
C251 C255 1.376 . S
C252 C250 1.394 . S
C252 C253 1.369 . S
C252 C256 1.531 . S
C253 C252 1.369 . S
C253 C254 1.410 . S
C253 C261 1.503 . S
C254 C253 1.410 . S
C254 C255 1.392 . S
C254 C257 1.511 . S
C255 C251 1.376 . S
C255 C254 1.392 . S
C255 H267 0.929 . S
C256 C252 1.531 . S
C256 H268 0.960 . S
C256 H269 0.962 . S
C256 H270 0.960 . S
C257 C254 1.511 . S
C257 H271 0.961 . S
C257 H272 0.961 . S
C257 H273 0.961 . S
C258 C259 1.370 . S
C258 C260 1.363 . S
C258 H274 0.931 . S
C259 C258 1.370 . S
C259 C263 1.408 . S
C260 C258 1.363 . S
C260 C261 1.370 . S
C260 C264 1.524 . S
C261 C253 1.503 . S
C261 C260 1.370 . S
C261 C262 1.403 . S
C262 C261 1.403 . S
C262 C263 1.404 . S
C262 C265 1.539 . S
C263 C259 1.408 . S
C263 C262 1.404 . S
C263 H275 0.930 . S
C264 C260 1.524 . S
C264 H276 0.956 . S
C264 H277 0.961 . S
C264 H278 0.961 . S
C265 C262 1.539 . S
C265 H279 0.958 . S
C265 H280 0.961 . S
C265 H281 0.960 . S
H266 C250 0.931 . S
H267 C255 0.929 . S
H268 C256 0.960 . S
H269 C256 0.962 . S
H270 C256 0.960 . S
H271 C257 0.961 . S
H272 C257 0.961 . S
H273 C257 0.961 . S
H274 C258 0.931 . S
H275 C263 0.930 . S
H276 C264 0.956 . S
H277 C264 0.961 . S
H278 C264 0.961 . S
H279 C265 0.958 . S
H280 C265 0.961 . S
H281 C265 0.960 . S
C282 C283 1.391 . S
C282 C284 1.394 . S
C282 H298 0.931 . S
C283 C282 1.391 . S
C283 C287 1.376 . S
C284 C282 1.394 . S
C284 C285 1.369 . S
C284 C288 1.531 . S
C285 C284 1.369 . S
C285 C286 1.410 . S
C285 C293 1.503 . S
C286 C285 1.410 . S
C286 C287 1.392 . S
C286 C289 1.511 . S
C287 C283 1.376 . S
C287 C286 1.392 . S
C287 H299 0.929 . S
C288 C284 1.531 . S
C288 H300 0.960 . S
C288 H301 0.962 . S
C288 H302 0.960 . S
C289 C286 1.511 . S
C289 H303 0.961 . S
C289 H304 0.961 . S
C289 H305 0.961 . S
C290 C291 1.370 . S
C290 C292 1.363 . S
C290 H306 0.931 . S
C291 C290 1.370 . S
C291 C295 1.408 . S
C292 C290 1.363 . S
C292 C293 1.370 . S
C292 C296 1.524 . S
C293 C285 1.503 . S
C293 C292 1.370 . S
C293 C294 1.403 . S
C294 C293 1.403 . S
C294 C295 1.404 . S
C294 C297 1.539 . S
C295 C291 1.408 . S
C295 C294 1.404 . S
C295 H307 0.930 . S
C296 C292 1.524 . S
C296 H308 0.956 . S
C296 H309 0.961 . S
C296 H310 0.961 . S
C297 C294 1.539 . S
C297 H311 0.958 . S
C297 H312 0.961 . S
C297 H313 0.960 . S
H298 C282 0.931 . S
H299 C287 0.929 . S
H300 C288 0.960 . S
H301 C288 0.962 . S
H302 C288 0.960 . S
H303 C289 0.961 . S
H304 C289 0.961 . S
H305 C289 0.961 . S
H306 C290 0.931 . S
H307 C295 0.930 . S
H308 C296 0.956 . S
H309 C296 0.961 . S
H310 C296 0.961 . S
H311 C297 0.958 . S
H312 C297 0.961 . S
H313 C297 0.960 . S
C314 C315 1.391 . S
C314 C316 1.394 . S
C314 H330 0.931 . S
C315 C314 1.391 . S
C315 C319 1.376 . S
C316 C314 1.394 . S
C316 C317 1.369 . S
C316 C320 1.531 . S
C317 C316 1.369 . S
C317 C318 1.410 . S
C317 C325 1.503 . S
C318 C317 1.410 . S
C318 C319 1.392 . S
C318 C321 1.511 . S
C319 C315 1.376 . S
C319 C318 1.392 . S
C319 H331 0.929 . S
C320 C316 1.531 . S
C320 H332 0.960 . S
C320 H333 0.962 . S
C320 H334 0.960 . S
C321 C318 1.511 . S
C321 H335 0.961 . S
C321 H336 0.961 . S
C321 H337 0.961 . S
C322 C323 1.370 . S
C322 C324 1.363 . S
C322 H338 0.931 . S
C323 C322 1.370 . S
C323 C327 1.408 . S
C324 C322 1.363 . S
C324 C325 1.370 . S
C324 C328 1.524 . S
C325 C317 1.503 . S
C325 C324 1.370 . S
C325 C326 1.403 . S
C326 C325 1.403 . S
C326 C327 1.404 . S
C326 C329 1.539 . S
C327 C323 1.408 . S
C327 C326 1.404 . S
C327 H339 0.930 . S
C328 C324 1.524 . S
C328 H340 0.956 . S
C328 H341 0.961 . S
C328 H342 0.961 . S
C329 C326 1.539 . S
C329 H343 0.958 . S
C329 H344 0.961 . S
C329 H345 0.960 . S
H330 C314 0.931 . S
H331 C319 0.929 . S
H332 C320 0.960 . S
H333 C320 0.962 . S
H334 C320 0.960 . S
H335 C321 0.961 . S
H336 C321 0.961 . S
H337 C321 0.961 . S
H338 C322 0.931 . S
H339 C327 0.930 . S
H340 C328 0.956 . S
H341 C328 0.961 . S
H342 C328 0.961 . S
H343 C329 0.958 . S
H344 C329 0.961 . S
H345 C329 0.960 . S
C346 C347 1.391 . S
C346 C348 1.394 . S
C346 H362 0.931 . S
C347 C346 1.391 . S
C347 C351 1.376 . S
C348 C346 1.394 . S
C348 C349 1.369 . S
C348 C352 1.531 . S
C349 C348 1.369 . S
C349 C350 1.410 . S
C349 C357 1.503 . S
C350 C349 1.410 . S
C350 C351 1.392 . S
C350 C353 1.511 . S
C351 C347 1.376 . S
C351 C350 1.392 . S
C351 H363 0.929 . S
C352 C348 1.531 . S
C352 H364 0.960 . S
C352 H365 0.962 . S
C352 H366 0.960 . S
C353 C350 1.511 . S
C353 H367 0.961 . S
C353 H368 0.961 . S
C353 H369 0.961 . S
C354 C355 1.370 . S
C354 C356 1.363 . S
C354 H370 0.931 . S
C355 C354 1.370 . S
C355 C359 1.408 . S
C356 C354 1.363 . S
C356 C357 1.370 . S
C356 C360 1.524 . S
C357 C349 1.503 . S
C357 C356 1.370 . S
C357 C358 1.403 . S
C358 C357 1.403 . S
C358 C359 1.404 . S
C358 C361 1.539 . S
C359 C355 1.408 . S
C359 C358 1.404 . S
C359 H371 0.930 . S
C360 C356 1.524 . S
C360 H372 0.956 . S
C360 H373 0.961 . S
C360 H374 0.961 . S
C361 C358 1.539 . S
C361 H375 0.958 . S
C361 H376 0.961 . S
C361 H377 0.960 . S
H362 C346 0.931 . S
H363 C351 0.929 . S
H364 C352 0.960 . S
H365 C352 0.962 . S
H366 C352 0.960 . S
H367 C353 0.961 . S
H368 C353 0.961 . S
H369 C353 0.961 . S
H370 C354 0.931 . S
H371 C359 0.930 . S
H372 C360 0.956 . S
H373 C360 0.961 . S
H374 C360 0.961 . S
H375 C361 0.958 . S
H376 C361 0.961 . S
H377 C361 0.960 . S
C378 C379 1.391 . S
C378 C380 1.394 . S
C378 H394 0.931 . S
C379 C378 1.391 . S
C379 C383 1.376 . S
C380 C378 1.394 . S
C380 C381 1.369 . S
C380 C384 1.531 . S
C381 C380 1.369 . S
C381 C382 1.410 . S
C381 C389 1.503 . S
C382 C381 1.410 . S
C382 C383 1.392 . S
C382 C385 1.511 . S
C383 C379 1.376 . S
C383 C382 1.392 . S
C383 H395 0.929 . S
C384 C380 1.531 . S
C384 H396 0.960 . S
C384 H397 0.962 . S
C384 H398 0.960 . S
C385 C382 1.511 . S
C385 H399 0.961 . S
C385 H400 0.961 . S
C385 H401 0.961 . S
C386 C387 1.370 . S
C386 C388 1.363 . S
C386 H402 0.931 . S
C387 C386 1.370 . S
C387 C391 1.408 . S
C388 C386 1.363 . S
C388 C389 1.370 . S
C388 C392 1.524 . S
C389 C381 1.503 . S
C389 C388 1.370 . S
C389 C390 1.403 . S
C390 C389 1.403 . S
C390 C391 1.404 . S
C390 C393 1.539 . S
C391 C387 1.408 . S
C391 C390 1.404 . S
C391 H403 0.930 . S
C392 C388 1.524 . S
C392 H404 0.956 . S
C392 H405 0.961 . S
C392 H406 0.961 . S
C393 C390 1.539 . S
C393 H407 0.958 . S
C393 H408 0.961 . S
C393 H409 0.960 . S
H394 C378 0.931 . S
H395 C383 0.929 . S
H396 C384 0.960 . S
H397 C384 0.962 . S
H398 C384 0.960 . S
H399 C385 0.961 . S
H400 C385 0.961 . S
H401 C385 0.961 . S
H402 C386 0.931 . S
H403 C391 0.930 . S
H404 C392 0.956 . S
H405 C392 0.961 . S
H406 C392 0.961 . S
H407 C393 0.958 . S
H408 C393 0.961 . S
H409 C393 0.960 . S
C410 C411 1.391 . S
C410 C412 1.394 . S
C410 H426 0.931 . S
C411 C410 1.391 . S
C411 C415 1.376 . S
C412 C410 1.394 . S
C412 C413 1.369 . S
C412 C416 1.531 . S
C413 C412 1.369 . S
C413 C414 1.410 . S
C413 C421 1.503 . S
C414 C413 1.410 . S
C414 C415 1.392 . S
C414 C417 1.511 . S
C415 C411 1.376 . S
C415 C414 1.392 . S
C415 H427 0.929 . S
C416 C412 1.531 . S
C416 H428 0.960 . S
C416 H429 0.962 . S
C416 H430 0.960 . S
C417 C414 1.511 . S
C417 H431 0.961 . S
C417 H432 0.961 . S
C417 H433 0.961 . S
C418 C419 1.370 . S
C418 C420 1.363 . S
C418 H434 0.931 . S
C419 C418 1.370 . S
C419 C423 1.408 . S
C420 C418 1.363 . S
C420 C421 1.370 . S
C420 C424 1.524 . S
C421 C413 1.503 . S
C421 C420 1.370 . S
C421 C422 1.403 . S
C422 C421 1.403 . S
C422 C423 1.404 . S
C422 C425 1.539 . S
C423 C419 1.408 . S
C423 C422 1.404 . S
C423 H435 0.930 . S
C424 C420 1.524 . S
C424 H436 0.956 . S
C424 H437 0.961 . S
C424 H438 0.961 . S
C425 C422 1.539 . S
C425 H439 0.958 . S
C425 H440 0.961 . S
C425 H441 0.960 . S
H426 C410 0.931 . S
H427 C415 0.929 . S
H428 C416 0.960 . S
H429 C416 0.962 . S
H430 C416 0.960 . S
H431 C417 0.961 . S
H432 C417 0.961 . S
H433 C417 0.961 . S
H434 C418 0.931 . S
H435 C423 0.930 . S
H436 C424 0.956 . S
H437 C424 0.961 . S
H438 C424 0.961 . S
H439 C425 0.958 . S
H440 C425 0.961 . S
H441 C425 0.960 . S
C442 C443 1.391 . S
C442 C444 1.394 . S
C442 H458 0.931 . S
C443 C442 1.391 . S
C443 C447 1.376 . S
C444 C442 1.394 . S
C444 C445 1.369 . S
C444 C448 1.531 . S
C445 C444 1.369 . S
C445 C446 1.410 . S
C445 C453 1.503 . S
C446 C445 1.410 . S
C446 C447 1.392 . S
C446 C449 1.511 . S
C447 C443 1.376 . S
C447 C446 1.392 . S
C447 H459 0.929 . S
C448 C444 1.531 . S
C448 H460 0.960 . S
C448 H461 0.962 . S
C448 H462 0.960 . S
C449 C446 1.511 . S
C449 H463 0.961 . S
C449 H464 0.961 . S
C449 H465 0.961 . S
C450 C451 1.370 . S
C450 C452 1.363 . S
C450 H466 0.931 . S
C451 C450 1.370 . S
C451 C455 1.408 . S
C452 C450 1.363 . S
C452 C453 1.370 . S
C452 C456 1.524 . S
C453 C445 1.503 . S
C453 C452 1.370 . S
C453 C454 1.403 . S
C454 C453 1.403 . S
C454 C455 1.404 . S
C454 C457 1.539 . S
C455 C451 1.408 . S
C455 C454 1.404 . S
C455 H467 0.930 . S
C456 C452 1.524 . S
C456 H468 0.956 . S
C456 H469 0.961 . S
C456 H470 0.961 . S
C457 C454 1.539 . S
C457 H471 0.958 . S
C457 H472 0.961 . S
C457 H473 0.960 . S
H458 C442 0.931 . S
H459 C447 0.929 . S
H460 C448 0.960 . S
H461 C448 0.962 . S
H462 C448 0.960 . S
H463 C449 0.961 . S
H464 C449 0.961 . S
H465 C449 0.961 . S
H466 C450 0.931 . S
H467 C455 0.930 . S
H468 C456 0.956 . S
H469 C456 0.961 . S
H470 C456 0.961 . S
H471 C457 0.958 . S
H472 C457 0.961 . S
H473 C457 0.960 . S
C474 C475 1.391 . S
C474 C476 1.394 . S
C474 H490 0.931 . S
C475 C474 1.391 . S
C475 C479 1.376 . S
C476 C474 1.394 . S
C476 C477 1.369 . S
C476 C480 1.531 . S
C477 C476 1.369 . S
C477 C478 1.410 . S
C477 C485 1.503 . S
C478 C477 1.410 . S
C478 C479 1.392 . S
C478 C481 1.511 . S
C479 C475 1.376 . S
C479 C478 1.392 . S
C479 H491 0.929 . S
C480 C476 1.531 . S
C480 H492 0.960 . S
C480 H493 0.962 . S
C480 H494 0.960 . S
C481 C478 1.511 . S
C481 H495 0.961 . S
C481 H496 0.961 . S
C481 H497 0.961 . S
C482 C483 1.370 . S
C482 C484 1.363 . S
C482 H498 0.931 . S
C483 C482 1.370 . S
C483 C487 1.408 . S
C484 C482 1.363 . S
C484 C485 1.370 . S
C484 C488 1.524 . S
C485 C477 1.503 . S
C485 C484 1.370 . S
C485 C486 1.403 . S
C486 C485 1.403 . S
C486 C487 1.404 . S
C486 C489 1.539 . S
C487 C483 1.408 . S
C487 C486 1.404 . S
C487 H499 0.930 . S
C488 C484 1.524 . S
C488 H500 0.956 . S
C488 H501 0.961 . S
C488 H502 0.961 . S
C489 C486 1.539 . S
C489 H503 0.958 . S
C489 H504 0.961 . S
C489 H505 0.960 . S
H490 C474 0.931 . S
H491 C479 0.929 . S
H492 C480 0.960 . S
H493 C480 0.962 . S
H494 C480 0.960 . S
H495 C481 0.961 . S
H496 C481 0.961 . S
H497 C481 0.961 . S
H498 C482 0.931 . S
H499 C487 0.930 . S
H500 C488 0.956 . S
H501 C488 0.961 . S
H502 C488 0.961 . S
H503 C489 0.958 . S
H504 C489 0.961 . S
H505 C489 0.960 . S
C506 C507 1.391 . S
C506 C508 1.394 . S
C506 H522 0.931 . S
C507 C506 1.391 . S
C507 C511 1.376 . S
C508 C506 1.394 . S
C508 C509 1.369 . S
C508 C512 1.531 . S
C509 C508 1.369 . S
C509 C510 1.410 . S
C509 C517 1.503 . S
C510 C509 1.410 . S
C510 C511 1.392 . S
C510 C513 1.511 . S
C511 C507 1.376 . S
C511 C510 1.392 . S
C511 H523 0.929 . S
C512 C508 1.531 . S
C512 H524 0.960 . S
C512 H525 0.962 . S
C512 H526 0.960 . S
C513 C510 1.511 . S
C513 H527 0.961 . S
C513 H528 0.961 . S
C513 H529 0.961 . S
C514 C515 1.370 . S
C514 C516 1.363 . S
C514 H530 0.931 . S
C515 C514 1.370 . S
C515 C519 1.408 . S
C516 C514 1.363 . S
C516 C517 1.370 . S
C516 C520 1.524 . S
C517 C509 1.503 . S
C517 C516 1.370 . S
C517 C518 1.403 . S
C518 C517 1.403 . S
C518 C519 1.404 . S
C518 C521 1.539 . S
C519 C515 1.408 . S
C519 C518 1.404 . S
C519 H531 0.930 . S
C520 C516 1.524 . S
C520 H532 0.956 . S
C520 H533 0.961 . S
C520 H534 0.961 . S
C521 C518 1.539 . S
C521 H535 0.958 . S
C521 H536 0.961 . S
C521 H537 0.960 . S
H522 C506 0.931 . S
H523 C511 0.929 . S
H524 C512 0.960 . S
H525 C512 0.962 . S
H526 C512 0.960 . S
H527 C513 0.961 . S
H528 C513 0.961 . S
H529 C513 0.961 . S
H530 C514 0.931 . S
H531 C519 0.930 . S
H532 C520 0.956 . S
H533 C520 0.961 . S
H534 C520 0.961 . S
H535 C521 0.958 . S
H536 C521 0.961 . S
H537 C521 0.960 . S
C538 C539 1.391 . S
C538 C540 1.394 . S
C538 H554 0.931 . S
C539 C538 1.391 . S
C539 C543 1.376 . S
C540 C538 1.394 . S
C540 C541 1.369 . S
C540 C544 1.531 . S
C541 C540 1.369 . S
C541 C542 1.410 . S
C541 C549 1.503 . S
C542 C541 1.410 . S
C542 C543 1.392 . S
C542 C545 1.511 . S
C543 C539 1.376 . S
C543 C542 1.392 . S
C543 H555 0.929 . S
C544 C540 1.531 . S
C544 H556 0.960 . S
C544 H557 0.962 . S
C544 H558 0.960 . S
C545 C542 1.511 . S
C545 H559 0.961 . S
C545 H560 0.961 . S
C545 H561 0.961 . S
C546 C547 1.370 . S
C546 C548 1.363 . S
C546 H562 0.931 . S
C547 C546 1.370 . S
C547 C551 1.408 . S
C548 C546 1.363 . S
C548 C549 1.370 . S
C548 C552 1.524 . S
C549 C541 1.503 . S
C549 C548 1.370 . S
C549 C550 1.403 . S
C550 C549 1.403 . S
C550 C551 1.404 . S
C550 C553 1.539 . S
C551 C547 1.408 . S
C551 C550 1.404 . S
C551 H563 0.930 . S
C552 C548 1.524 . S
C552 H564 0.956 . S
C552 H565 0.961 . S
C552 H566 0.961 . S
C553 C550 1.539 . S
C553 H567 0.958 . S
C553 H568 0.961 . S
C553 H569 0.960 . S
H554 C538 0.931 . S
H555 C543 0.929 . S
H556 C544 0.960 . S
H557 C544 0.962 . S
H558 C544 0.960 . S
H559 C545 0.961 . S
H560 C545 0.961 . S
H561 C545 0.961 . S
H562 C546 0.931 . S
H563 C551 0.930 . S
H564 C552 0.956 . S
H565 C552 0.961 . S
H566 C552 0.961 . S
H567 C553 0.958 . S
H568 C553 0.961 . S
H569 C553 0.960 . S
C570 C571 1.391 . S
C570 C572 1.394 . S
C570 H586 0.931 . S
C571 C570 1.391 . S
C571 C575 1.376 . S
C572 C570 1.394 . S
C572 C573 1.369 . S
C572 C576 1.531 . S
C573 C572 1.369 . S
C573 C574 1.410 . S
C573 C581 1.503 1_554 S
C574 C573 1.410 . S
C574 C575 1.392 . S
C574 C577 1.511 . S
C575 C571 1.376 . S
C575 C574 1.392 . S
C575 H587 0.929 . S
C576 C572 1.531 . S
C576 H588 0.960 . S
C576 H589 0.962 1_455 S
C576 H590 0.960 . S
C577 C574 1.511 . S
C577 H591 0.961 . S
C577 H592 0.961 . S
C577 H593 0.961 . S
C578 C579 1.370 . S
C578 C580 1.363 . S
C578 H594 0.931 1_455 S
C579 C578 1.370 . S
C579 C583 1.408 . S
C580 C578 1.363 . S
C580 C581 1.370 . S
C580 C584 1.524 1_455 S
C581 C573 1.503 1_556 S
C581 C580 1.370 . S
C581 C582 1.403 . S
C582 C581 1.403 . S
C582 C583 1.404 . S
C582 C585 1.522 1_556 S
C583 C579 1.408 . S
C583 C582 1.404 . S
C583 H595 0.930 . S
C584 C580 1.524 1_655 S
C584 H596 0.942 1_556 S
C584 H597 0.961 1_556 S
C584 H598 0.961 . S
C585 C582 1.522 1_554 S
C585 H599 0.960 . S
C585 H600 0.939 1_554 S
C585 H601 1.000 . S
H586 C570 0.931 . S
H587 C575 0.929 . S
H588 C576 0.960 . S
H589 C576 0.962 1_655 S
H590 C576 0.960 . S
H591 C577 0.961 . S
H592 C577 0.961 . S
H593 C577 0.961 . S
H594 C578 0.931 1_655 S
H595 C583 0.930 . S
H596 C584 0.942 1_554 S
H597 C584 0.961 1_554 S
H598 C584 0.961 . S
H599 C585 0.960 . S
H600 C585 0.939 1_556 S
H601 C585 1.000 . S
C602 C603 1.395 . S
C602 C604 1.396 . S
C602 H618 0.925 1_545 S
C603 C602 1.395 . S
C603 C607 1.376 . S
C604 C602 1.396 . S
C604 C605 1.369 . S
C604 C608 1.531 1_545 S
C605 C604 1.369 . S
C605 C606 1.410 . S
C605 C613 1.503 . S
C606 C605 1.410 . S
C606 C607 1.392 . S
C606 C609 1.511 . S
C607 C603 1.376 . S
C607 C606 1.392 . S
C607 H619 0.929 . S
C608 C604 1.531 1_565 S
C608 H620 0.960 . S
C608 H621 0.962 . S
C608 H622 0.960 . S
C609 C606 1.511 . S
C609 H623 0.961 . S
C609 H624 0.961 . S
C609 H625 0.961 . S
C610 C611 1.370 . S
C610 C612 1.363 . S
C610 H626 0.931 . S
C611 C610 1.370 . S
C611 C615 1.408 . S
C612 C610 1.363 . S
C612 C613 1.370 . S
C612 C616 1.516 1_545 S
C613 C605 1.503 . S
C613 C612 1.370 . S
C613 C614 1.403 . S
C614 C613 1.403 . S
C614 C615 1.404 . S
C614 C617 1.539 . S
C615 C611 1.408 . S
C615 C614 1.404 . S
C615 H627 0.930 . S
C616 C612 1.516 1_565 S
C616 H628 0.960 . S
C616 H629 0.958 1_565 S
C616 H630 0.967 . S
C617 C614 1.539 . S
C617 H631 0.958 . S
C617 H632 0.961 . S
C617 H633 0.960 . S
H618 C602 0.925 1_565 S
H619 C607 0.929 . S
H620 C608 0.960 . S
H621 C608 0.962 . S
H622 C608 0.960 . S
H623 C609 0.961 . S
H624 C609 0.961 . S
H625 C609 0.961 . S
H626 C610 0.931 . S
H627 C615 0.930 . S
H628 C616 0.960 . S
H629 C616 0.958 1_545 S
H630 C616 0.967 . S
H631 C617 0.958 . S
H632 C617 0.961 . S
H633 C617 0.960 . S
C634 C635 1.391 . S
C634 C636 1.394 . S
C634 H650 0.931 . S
C635 C634 1.391 . S
C635 C639 1.376 . S
C636 C634 1.394 . S
C636 C637 1.369 . S
C636 C640 1.531 . S
C637 C636 1.369 . S
C637 C638 1.410 . S
C637 C645 1.503 . S
C638 C637 1.410 . S
C638 C639 1.392 . S
C638 C641 1.511 . S
C639 C635 1.376 . S
C639 C638 1.392 . S
C639 H651 0.929 . S
C640 C636 1.531 . S
C640 H652 0.960 . S
C640 H653 0.962 . S
C640 H654 0.960 . S
C641 C638 1.511 . S
C641 H655 0.961 . S
C641 H656 0.961 . S
C641 H657 0.961 . S
C642 C643 1.370 . S
C642 C644 1.363 . S
C642 H658 0.931 . S
C643 C642 1.370 . S
C643 C647 1.408 . S
C644 C642 1.363 . S
C644 C645 1.370 . S
C644 C648 1.524 . S
C645 C637 1.503 . S
C645 C644 1.370 . S
C645 C646 1.403 . S
C646 C645 1.403 . S
C646 C647 1.404 . S
C646 C649 1.539 . S
C647 C643 1.408 . S
C647 C646 1.404 . S
C647 H659 0.930 . S
C648 C644 1.524 . S
C648 H660 0.956 . S
C648 H661 0.961 . S
C648 H662 0.961 . S
C649 C646 1.539 . S
C649 H663 0.958 . S
C649 H664 0.961 . S
C649 H665 0.960 . S
H650 C634 0.931 . S
H651 C639 0.929 . S
H652 C640 0.960 . S
H653 C640 0.962 . S
H654 C640 0.960 . S
H655 C641 0.961 . S
H656 C641 0.961 . S
H657 C641 0.961 . S
H658 C642 0.931 . S
H659 C647 0.930 . S
H660 C648 0.956 . S
H661 C648 0.961 . S
H662 C648 0.961 . S
H663 C649 0.958 . S
H664 C649 0.961 . S
H665 C649 0.960 . S
C666 C667 1.391 1_565 S
C666 C668 1.394 . S
C666 H682 0.931 . S
C667 C666 1.391 1_545 S
C667 C671 1.376 . S
C668 C666 1.394 . S
C668 C669 1.369 1_565 S
C668 C672 1.531 . S
C669 C668 1.369 1_545 S
C669 C670 1.410 . S
C669 C677 1.503 . S
C670 C669 1.410 . S
C670 C671 1.392 . S
C670 C673 1.511 . S
C671 C667 1.376 . S
C671 C670 1.392 . S
C671 H683 0.929 . S
C672 C668 1.531 . S
C672 H684 0.960 . S
C672 H685 0.962 . S
C672 H686 0.960 . S
C673 C670 1.511 . S
C673 H687 0.961 . S
C673 H688 0.961 . S
C673 H689 0.961 . S
C674 C675 1.370 . S
C674 C676 1.363 . S
C674 H690 0.931 . S
C675 C674 1.370 . S
C675 C679 1.408 . S
C676 C674 1.363 . S
C676 C677 1.370 . S
C676 C680 1.524 . S
C677 C669 1.503 . S
C677 C676 1.370 . S
C677 C678 1.403 . S
C678 C677 1.403 . S
C678 C679 1.404 . S
C678 C681 1.539 1_545 S
C679 C675 1.408 . S
C679 C678 1.404 . S
C679 H691 0.930 1_545 S
C680 C676 1.524 . S
C680 H692 0.956 . S
C680 H693 0.961 . S
C680 H694 0.961 . S
C681 C678 1.539 1_565 S
C681 H695 0.958 . S
C681 H696 0.961 . S
C681 H697 0.960 . S
H682 C666 0.931 . S
H683 C671 0.929 . S
H684 C672 0.960 . S
H685 C672 0.962 . S
H686 C672 0.960 . S
H687 C673 0.961 . S
H688 C673 0.961 . S
H689 C673 0.961 . S
H690 C674 0.931 . S
H691 C679 0.930 1_565 S
H692 C680 0.956 . S
H693 C680 0.961 . S
H694 C680 0.961 . S
H695 C681 0.958 . S
H696 C681 0.961 . S
H697 C681 0.960 . S
C698 C699 1.391 . S
C698 C700 1.394 . S
C698 H714 0.931 . S
C699 C698 1.391 . S
C699 C703 1.376 . S
C700 C698 1.394 . S
C700 C701 1.369 . S
C700 C704 1.531 . S
C701 C700 1.369 . S
C701 C702 1.410 . S
C701 C709 1.503 . S
C702 C701 1.410 . S
C702 C703 1.392 . S
C702 C705 1.511 . S
C703 C699 1.376 . S
C703 C702 1.392 . S
C703 H715 0.929 . S
C704 C700 1.531 . S
C704 H716 0.960 . S
C704 H717 0.962 . S
C704 H718 0.960 . S
C705 C702 1.511 . S
C705 H719 0.961 . S
C705 H720 0.961 . S
C705 H721 0.961 . S
C706 C707 1.370 . S
C706 C708 1.363 1_554 S
C706 H722 0.931 . S
C707 C706 1.370 . S
C707 C711 1.408 . S
C708 C706 1.363 1_556 S
C708 C709 1.370 . S
C708 C712 1.524 . S
C709 C701 1.503 . S
C709 C708 1.370 . S
C709 C710 1.403 1_556 S
C710 C709 1.403 1_554 S
C710 C711 1.404 . S
C710 C713 1.539 . S
C711 C707 1.408 . S
C711 C710 1.404 . S
C711 H723 0.930 . S
C712 C708 1.524 . S
C712 H724 0.956 . S
C712 H725 0.961 . S
C712 H726 0.961 . S
C713 C710 1.539 . S
C713 H727 0.960 . S
C713 H728 0.961 . S
C713 H729 0.960 1_554 S
H714 C698 0.931 . S
H715 C703 0.929 . S
H716 C704 0.960 . S
H717 C704 0.962 . S
H718 C704 0.960 . S
H719 C705 0.961 . S
H720 C705 0.961 . S
H721 C705 0.961 . S
H722 C706 0.931 . S
H723 C711 0.930 . S
H724 C712 0.956 . S
H725 C712 0.961 . S
H726 C712 0.961 . S
H727 C713 0.960 . S
H728 C713 0.961 . S
H729 C713 0.960 1_556 S
C730 C731 1.391 1_655 S
C730 C732 1.394 . S
C730 H746 0.931 . S
C731 C730 1.391 1_455 S
C731 C735 1.376 . S
C732 C730 1.394 . S
C732 C733 1.369 1_655 S
C732 C736 1.531 . S
C733 C732 1.369 1_455 S
C733 C734 1.410 . S
C733 C741 1.503 . S
C734 C733 1.410 . S
C734 C735 1.392 . S
C734 C737 1.511 . S
C735 C731 1.376 . S
C735 C734 1.392 . S
C735 H747 0.929 . S
C736 C732 1.531 . S
C736 H748 0.960 . S
C736 H749 0.962 . S
C736 H750 0.960 . S
C737 C734 1.511 . S
C737 H751 0.961 . S
C737 H752 0.961 . S
C737 H753 0.961 . S
C738 C739 1.370 . S
C738 C740 1.363 . S
C738 H754 0.931 1_455 S
C739 C738 1.370 . S
C739 C743 1.408 . S
C740 C738 1.363 . S
C740 C741 1.370 . S
C740 C744 1.524 . S
C741 C733 1.503 . S
C741 C740 1.370 . S
C741 C742 1.403 . S
C742 C741 1.403 . S
C742 C743 1.404 . S
C742 C745 1.539 . S
C743 C739 1.408 . S
C743 C742 1.404 . S
C743 H755 0.930 . S
C744 C740 1.524 . S
C744 H756 0.956 1_455 S
C744 H757 0.961 . S
C744 H758 0.961 1_455 S
C745 C742 1.539 . S
C745 H759 0.958 . S
C745 H760 0.961 . S
C745 H761 0.960 . S
H746 C730 0.931 . S
H747 C735 0.929 . S
H748 C736 0.960 . S
H749 C736 0.962 . S
H750 C736 0.960 . S
H751 C737 0.961 . S
H752 C737 0.961 . S
H753 C737 0.961 . S
H754 C738 0.931 1_655 S
H755 C743 0.930 . S
H756 C744 0.956 1_655 S
H757 C744 0.961 . S
H758 C744 0.961 1_655 S
H759 C745 0.958 . S
H760 C745 0.961 . S
H761 C745 0.960 . S
C187 C6 0.715 . S
C195 C185 0.758 . S
C219 C59 1.948 . S
C227 C163 1.887 . S
C251 C86 1.263 . S
C259 C174 1.278 . S
C283 C15 0.409 . S
C291 C179 0.251 . S
C323 C157 1.832 . S
C315 C50 1.857 . S
C355 C168 1.173 . S
C347 C95 1.182 . S
C379 C46 1.316 . S
C387 C141 1.314 . S
C411 C99 3.030 . S
C419 C146 2.985 1_655 S
C443 C10 1.876 . S
C451 C124 1.863 . S
C483 C135 1.159 . S
C475 C55 1.158 . S
C515 C152 3.011 . S
C507 C90 3.048 . S
C539 C19 1.935 . S
C547 C130 1.923 . S
C579 C147 1.731 . S
C571 C18 1.686 . S
C603 C49 1.439 . S
C611 C125 1.472 . S
C635 C98 1.490 . S
C643 C136 1.543 . S
C675 C169 1.524 . S
C667 C58 1.520 . S
C707 C180 1.254 . S
C699 C89 1.245 . S
C731 C9 1.350 . S
C739 C158 1.436 . S
