# Generated by pormake.
# Topology ssb, (4,4)-cn, num edge types: 1
# Building blocks:
#     Node 0, Type 0, BuildingBlock: AZAVOO_clean_linker_0, # of connection points: 4
#     Node 1, Type 0, BuildingBlock: AZAVOO_clean_linker_0, # of connection points: 4
#     Node 2, Type 0, BuildingBlock: AZAVOO_clean_linker_0, # of connection points: 4
#     Node 3, Type 0, BuildingBlock: AZAVOO_clean_linker_0, # of connection points: 4
#     Node 4, Type 0, BuildingBlock: AZAVOO_clean_linker_0, # of connection points: 4
#     Node 5, Type 0, BuildingBlock: AZAVOO_clean_linker_0, # of connection points: 4
#     Node 6, Type 0, BuildingBlock: AZAVOO_clean_linker_0, # of connection points: 4
#     Node 7, Type 0, BuildingBlock: AZAVOO_clean_linker_0, # of connection points: 4
#     Node 8, Type 1, BuildingBlock: KOZSID_clean_sbu_0, # of connection points: 4
#     Node 9, Type 1, BuildingBlock: KOZSID_clean_sbu_0, # of connection points: 4
#     Node 10, Type 1, BuildingBlock: KOZSID_clean_sbu_0, # of connection points: 4
#     Node 11, Type 1, BuildingBlock: KOZSID_clean_sbu_0, # of connection points: 4
#     Node 12, Type 1, BuildingBlock: KOZSID_clean_sbu_0, # of connection points: 4
#     Node 13, Type 1, BuildingBlock: KOZSID_clean_sbu_0, # of connection points: 4
#     Node 14, Type 1, BuildingBlock: KOZSID_clean_sbu_0, # of connection points: 4
#     Node 15, Type 1, BuildingBlock: KOZSID_clean_sbu_0, # of connection points: 4
#     Edge 16, Type (0, 1), BuildingBlock: OJICUG_clean_linker_0, # of connection points: 2
#     Edge 17, Type (0, 1), BuildingBlock: OJICUG_clean_linker_0, # of connection points: 2
#     Edge 18, Type (0, 1), BuildingBlock: OJICUG_clean_linker_0, # of connection points: 2
#     Edge 19, Type (0, 1), BuildingBlock: OJICUG_clean_linker_0, # of connection points: 2
#     Edge 20, Type (0, 1), BuildingBlock: OJICUG_clean_linker_0, # of connection points: 2
#     Edge 21, Type (0, 1), BuildingBlock: OJICUG_clean_linker_0, # of connection points: 2
#     Edge 22, Type (0, 1), BuildingBlock: OJICUG_clean_linker_0, # of connection points: 2
#     Edge 23, Type (0, 1), BuildingBlock: OJICUG_clean_linker_0, # of connection points: 2
#     Edge 24, Type (0, 1), BuildingBlock: OJICUG_clean_linker_0, # of connection points: 2
#     Edge 25, Type (0, 1), BuildingBlock: OJICUG_clean_linker_0, # of connection points: 2
#     Edge 26, Type (0, 1), BuildingBlock: OJICUG_clean_linker_0, # of connection points: 2
#     Edge 27, Type (0, 1), BuildingBlock: OJICUG_clean_linker_0, # of connection points: 2
#     Edge 28, Type (0, 1), BuildingBlock: OJICUG_clean_linker_0, # of connection points: 2
#     Edge 29, Type (0, 1), BuildingBlock: OJICUG_clean_linker_0, # of connection points: 2
#     Edge 30, Type (0, 1), BuildingBlock: OJICUG_clean_linker_0, # of connection points: 2
#     Edge 31, Type (0, 1), BuildingBlock: OJICUG_clean_linker_0, # of connection points: 2
#     Edge 32, Type (0, 1), BuildingBlock: OJICUG_clean_linker_0, # of connection points: 2
#     Edge 33, Type (0, 1), BuildingBlock: OJICUG_clean_linker_0, # of connection points: 2
#     Edge 34, Type (0, 1), BuildingBlock: OJICUG_clean_linker_0, # of connection points: 2
#     Edge 35, Type (0, 1), BuildingBlock: OJICUG_clean_linker_0, # of connection points: 2
#     Edge 36, Type (0, 1), BuildingBlock: OJICUG_clean_linker_0, # of connection points: 2
#     Edge 37, Type (0, 1), BuildingBlock: OJICUG_clean_linker_0, # of connection points: 2
#     Edge 38, Type (0, 1), BuildingBlock: OJICUG_clean_linker_0, # of connection points: 2
#     Edge 39, Type (0, 1), BuildingBlock: OJICUG_clean_linker_0, # of connection points: 2
#     Edge 40, Type (0, 1), BuildingBlock: OJICUG_clean_linker_0, # of connection points: 2
#     Edge 41, Type (0, 1), BuildingBlock: OJICUG_clean_linker_0, # of connection points: 2
#     Edge 42, Type (0, 1), BuildingBlock: OJICUG_clean_linker_0, # of connection points: 2
#     Edge 43, Type (0, 1), BuildingBlock: OJICUG_clean_linker_0, # of connection points: 2
#     Edge 44, Type (0, 1), BuildingBlock: OJICUG_clean_linker_0, # of connection points: 2
#     Edge 45, Type (0, 1), BuildingBlock: OJICUG_clean_linker_0, # of connection points: 2
#     Edge 46, Type (0, 1), BuildingBlock: OJICUG_clean_linker_0, # of connection points: 2
#     Edge 47, Type (0, 1), BuildingBlock: OJICUG_clean_linker_0, # of connection points: 2
# Relax obj value: 0.053
# Max RMSD: 0.301
# Mean RMSD: 0.113
data_MOF--net-ssb--node1-KOZSID_clean_sbu_0--node2-AZAVOO_clean_linker_0--edge1-OJICUG_clean_linker_0
_symmetry_space_group_name_H-M    P1
_symmetry_Int_Tables_number       1
_symmetry_cell_setting            triclinic
loop_
_symmetry_equiv_pos_as_xyz
'x, y, z'
_cell_length_a     47.667632
_cell_length_b     48.897931
_cell_length_c     35.080239
_cell_angle_alpha  96.060098
_cell_angle_beta   95.973778
_cell_angle_gamma 90.338895
loop_
_atom_site_label
_atom_site_type_symbol
_atom_site_fract_x
_atom_site_fract_y
_atom_site_fract_z
_atom_type_partial_charge
H0 H 0.13897 0.53453 0.28724 0.0
H1 H 0.37337 0.39176 0.06235 0.0
H2 H 0.23449 0.4196 0.34261 0.0
H3 H 0.19491 0.42044 0.38155 0.0
H4 H 0.14783 0.36506 0.29287 0.0
H5 H 0.18841 0.36312 0.25544 0.0
H6 H 0.24024 0.46757 0.28583 0.0
H7 H 0.20305 0.50153 0.29259 0.0
H8 H 0.14328 0.44442 0.22445 0.0
H9 H 0.18075 0.41077 0.21767 0.0
H10 H 0.29263 0.46354 0.23121 0.0
H11 H 0.2921 0.50216 0.19206 0.0
H12 H 0.21743 0.4676 0.12309 0.0
H13 H 0.21843 0.42872 0.1621 0.0
H14 H 0.33052 0.42426 0.23643 0.0
H15 H 0.36694 0.42585 0.19237 0.0
H16 H 0.31062 0.38215 0.10119 0.0
H17 H 0.27431 0.38097 0.14553 0.0
H18 H 0.32873 0.38491 0.29096 0.0
H19 H 0.37437 0.36695 0.27461 0.0
H20 H 0.33201 0.31397 0.17956 0.0
H21 H 0.28653 0.33259 0.19533 0.0
H22 H 0.26822 0.37664 0.34829 0.0
H23 H 0.26911 0.33856 0.38825 0.0
H24 H 0.25454 0.28113 0.28543 0.0
H25 H 0.25214 0.31956 0.246 0.0
O26 O 0.15339 0.52088 0.28398 0.0
O27 O 0.12351 0.49078 0.24877 0.0
O28 O 0.3872 0.41452 0.12798 0.0
O29 O 0.35908 0.3921 0.08008 0.0
C30 C 0.23661 0.39375 0.27097 0.0
C31 C 0.23564 0.4161 0.24812 0.0
C32 C 0.25651 0.41931 0.22315 0.0
C33 C 0.27839 0.40007 0.22136 0.0
C34 C 0.27969 0.37804 0.24482 0.0
C35 C 0.25871 0.37457 0.26962 0.0
C36 C 0.2143 0.39107 0.29657 0.0
C37 C 0.21584 0.40714 0.33219 0.0
C38 C 0.19298 0.40795 0.354 0.0
C39 C 0.1679 0.39317 0.34011 0.0
C40 C 0.16683 0.37647 0.30472 0.0
C41 C 0.18996 0.37529 0.28326 0.0
C42 C 0.21311 0.43675 0.2514 0.0
C43 C 0.21911 0.46251 0.2723 0.0
C44 C 0.19782 0.48183 0.27616 0.0
C45 C 0.17017 0.47566 0.25914 0.0
C46 C 0.16433 0.44981 0.23799 0.0
C47 C 0.18565 0.43055 0.23411 0.0
C48 C 0.25576 0.44305 0.19939 0.0
C49 C 0.27632 0.46413 0.20741 0.0
C50 C 0.27596 0.48622 0.18498 0.0
C51 C 0.25479 0.48798 0.15425 0.0
C52 C 0.23392 0.46703 0.14666 0.0
C53 C 0.2345 0.44475 0.16887 0.0
C54 C 0.29985 0.40252 0.19408 0.0
C55 C 0.32605 0.41525 0.20684 0.0
C56 C 0.34681 0.41607 0.18164 0.0
C57 C 0.34176 0.40396 0.14329 0.0
C58 C 0.31525 0.39159 0.13053 0.0
C59 C 0.29445 0.39094 0.15573 0.0
C60 C 0.30442 0.35998 0.24434 0.0
C61 C 0.32921 0.36845 0.26781 0.0
C62 C 0.3552 0.35836 0.25832 0.0
C63 C 0.35651 0.33926 0.22579 0.0
C64 C 0.3314 0.3285 0.205 0.0
C65 C 0.30545 0.33898 0.21407 0.0
C66 C 0.25994 0.3511 0.29405 0.0
C67 C 0.26493 0.35586 0.33439 0.0
C68 C 0.26577 0.33389 0.35725 0.0
C69 C 0.26193 0.30645 0.34037 0.0
C70 C 0.25715 0.30183 0.29981 0.0
C71 C 0.25608 0.32384 0.27703 0.0
C72 C 0.14755 0.49615 0.26354 0.0
C73 C 0.36409 0.40394 0.11677 0.0
H74 H 0.61536 0.12551 0.30027 0.0
H75 H 0.8415 0.25444 0.60998 0.0
H76 H 0.71232 0.23477 0.28313 0.0
H77 H 0.67628 0.23873 0.22908 0.0
H78 H 0.64344 0.31026 0.2919 0.0
H79 H 0.67906 0.30556 0.34628 0.0
H80 H 0.71974 0.19032 0.34076 0.0
H81 H 0.68121 0.15699 0.3203 0.0
H82 H 0.62128 0.21769 0.35724 0.0
H83 H 0.66006 0.25071 0.37797 0.0
H84 H 0.77308 0.19797 0.40776 0.0
H85 H 0.77165 0.15804 0.44428 0.0
H86 H 0.69211 0.18467 0.48261 0.0
H87 H 0.69421 0.22545 0.44743 0.0
H88 H 0.8135 0.24403 0.4185 0.0
H89 H 0.84687 0.24015 0.47553 0.0
H90 H 0.78072 0.26091 0.54853 0.0
H91 H 0.74763 0.26499 0.49126 0.0
H92 H 0.80517 0.28432 0.35233 0.0
H93 H 0.85081 0.30737 0.37195 0.0
H94 H 0.82074 0.34078 0.47901 0.0
H95 H 0.77506 0.31755 0.45906 0.0
H96 H 0.75286 0.28561 0.28913 0.0
H97 H 0.75744 0.32575 0.25388 0.0
H98 H 0.74126 0.37911 0.35525 0.0
H99 H 0.73658 0.3388 0.39024 0.0
O100 O 0.63028 0.13896 0.30874 0.0
O101 O 0.60034 0.17093 0.3281 0.0
O102 O 0.8609 0.24118 0.54813 0.0
O103 O 0.82865 0.25542 0.5869 0.0
C104 C 0.71886 0.26613 0.35232 0.0
C105 C 0.71612 0.24315 0.37295 0.0
C106 C 0.7358 0.23939 0.40483 0.0
C107 C 0.75817 0.25853 0.41625 0.0
C108 C 0.76134 0.28115 0.39505 0.0
C109 C 0.74146 0.28514 0.36343 0.0
C110 C 0.69822 0.26984 0.31861 0.0
C111 C 0.69734 0.25131 0.28512 0.0
C112 C 0.67684 0.25368 0.25424 0.0
C113 C 0.65689 0.27472 0.25627 0.0
C114 C 0.65819 0.29355 0.28969 0.0
C115 C 0.67868 0.2911 0.32059 0.0
C116 C 0.69268 0.22288 0.36089 0.0
C117 C 0.69829 0.19631 0.34458 0.0
C118 C 0.67623 0.17735 0.33284 0.0
C119 C 0.64815 0.18468 0.33712 0.0
C120 C 0.64265 0.21138 0.35352 0.0
C121 C 0.66474 0.23028 0.36534 0.0
C122 C 0.73389 0.21466 0.42534 0.0
C123 C 0.75543 0.19529 0.42423 0.0
C124 C 0.75457 0.17256 0.44483 0.0
C125 C 0.73179 0.16861 0.466 0.0
C126 C 0.70976 0.18747 0.46621 0.0
C127 C 0.71095 0.2106 0.44625 0.0
C128 C 0.77821 0.25499 0.45078 0.0
C129 C 0.80628 0.24775 0.44684 0.0
C130 C 0.82527 0.24549 0.47945 0.0
C131 C 0.81649 0.25037 0.51662 0.0
C132 C 0.78821 0.25717 0.52037 0.0
C133 C 0.76925 0.25943 0.48772 0.0
C134 C 0.78686 0.29919 0.40431 0.0
C135 C 0.80821 0.29719 0.37958 0.0
C136 C 0.83429 0.31034 0.39089 0.0
C137 C 0.83948 0.32568 0.42722 0.0
C138 C 0.81752 0.32875 0.45112 0.0
C139 C 0.79137 0.31571 0.43967 0.0
C140 C 0.74429 0.30937 0.34211 0.0
C141 C 0.75012 0.30597 0.30357 0.0
C142 C 0.75264 0.32886 0.28352 0.0
C143 C 0.7496 0.3555 0.30186 0.0
C144 C 0.74391 0.35882 0.34055 0.0
C145 C 0.74119 0.33589 0.3605 0.0
C146 C 0.62475 0.16453 0.32444 0.0
C147 C 0.83674 0.24862 0.55139 0.0
H148 H 0.64225 0.93824 0.34386 0.0
H149 H 0.7097 0.63734 0.13429 0.0
H150 H 0.78198 0.84518 0.3564 0.0
H151 H 0.78357 0.88306 0.40852 0.0
H152 H 0.71589 0.84372 0.45654 0.0
H153 H 0.71495 0.80594 0.40508 0.0
H154 H 0.73042 0.85928 0.31048 0.0
H155 H 0.69915 0.89808 0.32212 0.0
H156 H 0.63436 0.84199 0.3462 0.0
H157 H 0.66603 0.8034 0.33497 0.0
H158 H 0.71376 0.8253 0.23469 0.0
H159 H 0.67613 0.83549 0.18578 0.0
H160 H 0.62625 0.76782 0.21426 0.0
H161 H 0.66396 0.75823 0.26405 0.0
H162 H 0.74019 0.76774 0.20343 0.0
H163 H 0.73503 0.73182 0.14886 0.0
H164 H 0.70482 0.67502 0.22249 0.0
H165 H 0.70959 0.71126 0.27657 0.0
H166 H 0.79305 0.7494 0.25085 0.0
H167 H 0.80916 0.70406 0.22709 0.0
H168 H 0.77073 0.66865 0.3173 0.0
H169 H 0.75565 0.71429 0.34155 0.0
H170 H 0.81303 0.78372 0.30791 0.0
H171 H 0.85955 0.78798 0.34335 0.0
H172 H 0.8221 0.78564 0.45021 0.0
H173 H 0.77559 0.7785 0.41369 0.0
O174 O 0.65425 0.92258 0.3393 0.0
O175 O 0.62152 0.89286 0.35099 0.0
O176 O 0.72357 0.6829 0.11713 0.0
O177 O 0.71066 0.65228 0.15484 0.0
C178 C 0.74379 0.80233 0.34246 0.0
C179 C 0.71979 0.80511 0.31593 0.0
C180 C 0.71427 0.78589 0.28306 0.0
C181 C 0.73156 0.76285 0.27787 0.0
C182 C 0.75576 0.76004 0.30411 0.0
C183 C 0.76259 0.7804 0.33563 0.0
C184 C 0.7485 0.82272 0.37716 0.0
C185 C 0.76804 0.84449 0.37879 0.0
C186 C 0.76863 0.86626 0.40826 0.0
C187 C 0.74972 0.86655 0.4366 0.0
C188 C 0.73098 0.84408 0.43555 0.0
C189 C 0.7304 0.82242 0.40616 0.0
C190 C 0.70054 0.82859 0.32217 0.0
C191 C 0.70951 0.85546 0.31846 0.0
C192 C 0.69158 0.87756 0.32502 0.0
C193 C 0.66427 0.87315 0.33518 0.0
C194 C 0.65527 0.84611 0.33849 0.0
C195 C 0.67327 0.82404 0.33202 0.0
C196 C 0.69149 0.79108 0.25282 0.0
C197 C 0.69469 0.8127 0.23033 0.0
C198 C 0.67327 0.81835 0.20226 0.0
C199 C 0.64827 0.80239 0.19609 0.0
C200 C 0.64518 0.78062 0.21863 0.0
C201 C 0.66669 0.77498 0.2468 0.0
C202 C 0.72525 0.74207 0.24389 0.0
C203 C 0.73197 0.74767 0.20749 0.0
C204 C 0.72918 0.72706 0.17647 0.0
C205 C 0.71971 0.70047 0.1814 0.0
C206 C 0.71228 0.69521 0.21773 0.0
C207 C 0.71489 0.71589 0.24863 0.0
C208 C 0.77323 0.73517 0.298 0.0
C209 C 0.78926 0.73203 0.26651 0.0
C210 C 0.798 0.70598 0.25257 0.0
C211 C 0.79068 0.68253 0.26968 0.0
C212 C 0.77689 0.68618 0.30344 0.0
C213 C 0.76834 0.71232 0.31754 0.0
C214 C 0.7908 0.78069 0.35806 0.0
C215 C 0.81488 0.78328 0.33887 0.0
C216 C 0.84152 0.78634 0.35939 0.0
C217 C 0.84472 0.78782 0.39989 0.0
C218 C 0.82058 0.78446 0.41908 0.0
C219 C 0.79389 0.78064 0.39829 0.0
C220 C 0.64531 0.8967 0.34231 0.0
C221 C 0.71805 0.67813 0.14907 0.0
H222 H 0.33774 0.03941 0.29947 0.0
H223 H 0.27243 0.75916 0.03105 0.0
H224 H 0.24415 0.91442 0.33534 0.0
H225 H 0.23806 0.95992 0.3698 0.0
H226 H 0.20153 0.98889 0.26387 0.0
H227 H 0.20705 0.94322 0.22981 0.0
H228 H 0.29368 0.92758 0.29968 0.0
H229 H 0.31618 0.97323 0.31015 0.0
H230 H 0.28318 0.98869 0.19498 0.0
H231 H 0.26046 0.94309 0.18511 0.0
H232 H 0.32328 0.88249 0.24037 0.0
H233 H 0.36511 0.88004 0.20508 0.0
H234 H 0.31239 0.88839 0.09924 0.0
H235 H 0.27064 0.89085 0.13484 0.0
H236 H 0.29984 0.82604 0.20669 0.0
H237 H 0.31388 0.79326 0.15466 0.0
H238 H 0.23692 0.80909 0.08437 0.0
H239 H 0.22359 0.84251 0.13605 0.0
H240 H 0.25131 0.80647 0.25164 0.0
H241 H 0.2392 0.7612 0.21813 0.0
H242 H 0.16656 0.79509 0.15643 0.0
H243 H 0.17972 0.84066 0.18898 0.0
H244 H 0.23179 0.86101 0.32648 0.0
H245 H 0.19672 0.85257 0.37037 0.0
H246 H 0.12999 0.86947 0.28339 0.0
H247 H 0.16542 0.8784 0.23976 0.0
O248 O 0.32906 0.02126 0.29447 0.0
O249 O 0.31234 0.0279 0.23462 0.0
O250 O 0.30998 0.7724 0.08378 0.0
O251 O 0.26691 0.77139 0.05239 0.0
C252 C 0.23662 0.90143 0.2573 0.0
C253 C 0.26008 0.90522 0.23656 0.0
C254 C 0.26857 0.88367 0.21065 0.0
C255 C 0.25342 0.85845 0.20515 0.0
C256 C 0.23108 0.8541 0.22765 0.0
C257 C 0.22283 0.87552 0.25412 0.0
C258 C 0.22588 0.92554 0.28018 0.0
C259 C 0.23359 0.93018 0.32001 0.0
C260 C 0.23028 0.9562 0.33954 0.0
C261 C 0.2196 0.97786 0.31928 0.0
C262 C 0.20998 0.97253 0.27999 0.0
C263 C 0.21289 0.94647 0.26066 0.0
C264 C 0.27545 0.93208 0.24167 0.0
C265 C 0.29144 0.94083 0.27671 0.0
C266 C 0.30424 0.96692 0.28262 0.0
C267 C 0.30141 0.98466 0.25344 0.0
C268 C 0.28576 0.97556 0.21806 0.0
C269 C 0.27289 0.94949 0.21226 0.0
C270 C 0.29397 0.88685 0.19016 0.0
C271 C 0.32087 0.88437 0.20971 0.0
C272 C 0.34465 0.8827 0.18947 0.0
C273 C 0.34198 0.88377 0.14935 0.0
C274 C 0.31512 0.88766 0.13015 0.0
C275 C 0.29129 0.88908 0.15039 0.0
C276 C 0.26078 0.83672 0.17505 0.0
C277 C 0.28604 0.82236 0.18005 0.0
C278 C 0.294 0.80369 0.15032 0.0
C279 C 0.27659 0.79877 0.1153 0.0
C280 C 0.25081 0.81247 0.11095 0.0
C281 C 0.2431 0.83147 0.14047 0.0
C282 C 0.21666 0.82687 0.22226 0.0
C283 C 0.23193 0.80385 0.23245 0.0
C284 C 0.22492 0.7779 0.21315 0.0
C285 C 0.20237 0.77471 0.18371 0.0
C286 C 0.18445 0.79707 0.17832 0.0
C287 C 0.19169 0.82309 0.19731 0.0
C288 C 0.20114 0.87037 0.28003 0.0
C289 C 0.2096 0.86301 0.31698 0.0
C290 C 0.18957 0.85827 0.342 0.0
C291 C 0.16061 0.86044 0.33035 0.0
C292 C 0.15214 0.86749 0.29304 0.0
C293 C 0.17229 0.87263 0.26817 0.0
C294 C 0.31457 0.01257 0.2601 0.0
C295 C 0.28556 0.77998 0.08303 0.0
H296 H 0.43385 0.01539 0.71788 0.0
H297 H 0.11925 0.96497 0.596 0.0
H298 H 0.34828 0.89105 0.73434 0.0
H299 H 0.39139 0.88013 0.77346 0.0
H300 H 0.35447 0.91152 0.87657 0.0
H301 H 0.31107 0.92146 0.83703 0.0
H302 H 0.33638 0.94045 0.68164 0.0
H303 H 0.3789 0.96936 0.68583 0.0
H304 H 0.36563 1.00047 0.80252 0.0
H305 H 0.32299 0.97166 0.79778 0.0
H306 H 0.27623 0.94082 0.63355 0.0
H307 H 0.27629 0.97975 0.59505 0.0
H308 H 0.27764 0.03591 0.699 0.0
H309 H 0.27797 0.99678 0.7372 0.0
H310 H 0.23393 0.89294 0.64258 0.0
H311 H 0.19149 0.89917 0.59902 0.0
H312 H 0.17348 0.97337 0.67021 0.0
H313 H 0.21579 0.96663 0.7139 0.0
H314 H 0.24877 0.84913 0.69963 0.0
H315 H 0.20565 0.82191 0.67897 0.0
H316 H 0.15661 0.88725 0.73046 0.0
H317 H 0.19996 0.91381 0.75235 0.0
H318 H 0.30347 0.84758 0.74729 0.0
H319 H 0.30154 0.80835 0.78526 0.0
H320 H 0.24588 0.85342 0.85773 0.0
H321 H 0.24797 0.89251 0.81961 0.0
O322 O 0.41691 0.0042 0.7168 0.0
O323 O 0.40917 0.0195 0.77671 0.0
O324 O 0.14644 0.92378 0.57713 0.0
O325 O 0.13634 0.96221 0.6125 0.0
C326 C 0.30076 0.91364 0.75886 0.0
C327 C 0.30091 0.93635 0.73679 0.0
C328 C 0.27687 0.94194 0.7118 0.0
C329 C 0.25279 0.9245 0.70892 0.0
C330 C 0.25247 0.90215 0.73172 0.0
C331 C 0.27642 0.89668 0.75684 0.0
C332 C 0.32667 0.90699 0.78294 0.0
C333 C 0.34957 0.89549 0.7654 0.0
C334 C 0.37424 0.88948 0.7878 0.0
C335 C 0.37648 0.89507 0.8282 0.0
C336 C 0.35335 0.90662 0.84561 0.0
C337 C 0.3286 0.91244 0.82314 0.0
C338 C 0.32662 0.95401 0.73938 0.0
C339 C 0.34265 0.95362 0.70801 0.0
C340 C 0.36695 0.97011 0.71052 0.0
C341 C 0.37568 0.98722 0.74452 0.0
C342 C 0.35952 0.98752 0.77592 0.0
C343 C 0.33519 0.97106 0.77333 0.0
C344 C 0.27703 0.96583 0.6883 0.0
C345 C 0.27647 0.96153 0.648 0.0
C346 C 0.27639 0.98389 0.62599 0.0
C347 C 0.27691 0.01116 0.64374 0.0
C348 C 0.27762 0.01532 0.68422 0.0
C349 C 0.27767 0.99294 0.70618 0.0
C350 C 0.22786 0.92928 0.68143 0.0
C351 C 0.2208 0.91053 0.64868 0.0
C352 C 0.19656 0.91415 0.62385 0.0
C353 C 0.17903 0.93674 0.6312 0.0
C354 C 0.18647 0.95573 0.66374 0.0
C355 C 0.21067 0.95201 0.68866 0.0
C356 C 0.22741 0.88352 0.72714 0.0
C357 C 0.22881 0.85709 0.70771 0.0
C358 C 0.20415 0.84169 0.69565 0.0
C359 C 0.1777 0.85262 0.70255 0.0
C360 C 0.17663 0.87815 0.72492 0.0
C361 C 0.20135 0.89344 0.73723 0.0
C362 C 0.27595 0.87304 0.78068 0.0
C363 C 0.29098 0.84903 0.77149 0.0
C364 C 0.28969 0.82655 0.79308 0.0
C365 C 0.27354 0.82765 0.82463 0.0
C366 C 0.25875 0.8519 0.83394 0.0
C367 C 0.25983 0.87424 0.81209 0.0
C368 C 0.40156 0.00465 0.74713 0.0
C369 C 0.15301 0.94043 0.60521 0.0
H370 H 0.20915 0.56353 0.81848 0.0
H371 H 0.19611 0.25638 0.63815 0.0
H372 H 0.32639 0.44621 0.82412 0.0
H373 H 0.33696 0.49231 0.85643 0.0
H374 H 0.27852 0.47832 0.93907 0.0
H375 H 0.26959 0.43166 0.90792 0.0
H376 H 0.26772 0.46157 0.77744 0.0
H377 H 0.24802 0.50759 0.78722 0.0
H378 H 0.199 0.48031 0.87358 0.0
H379 H 0.21893 0.43436 0.86346 0.0
H380 H 0.23785 0.40622 0.7109 0.0
H381 H 0.19303 0.40871 0.67118 0.0
H382 H 0.14851 0.40193 0.77126 0.0
H383 H 0.19364 0.39769 0.81015 0.0
H384 H 0.28209 0.36182 0.70937 0.0
H385 H 0.26733 0.32557 0.65757 0.0
H386 H 0.20037 0.30133 0.7219 0.0
H387 H 0.21573 0.33739 0.7739 0.0
H388 H 0.33546 0.36434 0.76733 0.0
H389 H 0.35083 0.32426 0.72807 0.0
H390 H 0.28576 0.27505 0.76673 0.0
H391 H 0.27227 0.3147 0.80815 0.0
H392 H 0.35246 0.4015 0.82347 0.0
H393 H 0.39489 0.38773 0.862 0.0
H394 H 0.34266 0.34487 0.93085 0.0
H395 H 0.30043 0.35905 0.89245 0.0
O396 O 0.21672 0.54522 0.81516 0.0
O397 O 0.19458 0.53113 0.86253 0.0
O398 O 0.23733 0.28405 0.62665 0.0
O399 O 0.20197 0.27127 0.65786 0.0
C400 C 0.28386 0.41276 0.83686 0.0
C401 C 0.25795 0.41738 0.81495 0.0
C402 C 0.24616 0.39698 0.7863 0.0
C403 C 0.2609 0.37246 0.77832 0.0
C404 C 0.28659 0.36767 0.80065 0.0
C405 C 0.2978 0.38762 0.83037 0.0
C406 C 0.29718 0.43568 0.86366 0.0
C407 C 0.31711 0.45258 0.85047 0.0
C408 C 0.3227 0.47912 0.86858 0.0
C409 C 0.30797 0.48933 0.89966 0.0
C410 C 0.29033 0.4712 0.91531 0.0
C411 C 0.28515 0.44447 0.89754 0.0
C412 C 0.24459 0.44469 0.81958 0.0
C413 C 0.25253 0.46555 0.79819 0.0
C414 C 0.24131 0.49182 0.80394 0.0
C415 C 0.22193 0.49764 0.83119 0.0
C416 C 0.21388 0.47652 0.85238 0.0
C417 C 0.2251 0.45025 0.84654 0.0
C418 C 0.21898 0.40168 0.76334 0.0
C419 C 0.21839 0.40542 0.72422 0.0
C420 C 0.19268 0.40711 0.70166 0.0
C421 C 0.16698 0.40554 0.71792 0.0
C422 C 0.16779 0.40279 0.75758 0.0
C423 C 0.19356 0.4007 0.77999 0.0
C424 C 0.25009 0.35209 0.74547 0.0
C425 C 0.26417 0.34872 0.71214 0.0
C426 C 0.2557 0.328 0.68261 0.0
C427 C 0.23276 0.31043 0.68569 0.0
C428 C 0.21818 0.31442 0.71868 0.0
C429 C 0.2268 0.33508 0.74833 0.0
C430 C 0.30247 0.34248 0.79012 0.0
C431 C 0.32573 0.34451 0.76916 0.0
C432 C 0.33409 0.32164 0.74607 0.0
C433 C 0.31882 0.29664 0.74295 0.0
C434 C 0.29806 0.29387 0.76815 0.0
C435 C 0.29021 0.3166 0.79195 0.0
C436 C 0.32343 0.38146 0.85545 0.0
C437 C 0.35023 0.3895 0.84725 0.0
C438 C 0.37441 0.38137 0.86901 0.0
C439 C 0.37213 0.36512 0.8994 0.0
C440 C 0.34513 0.35762 0.90794 0.0
C441 C 0.32101 0.36565 0.88604 0.0
C442 C 0.21022 0.52563 0.83738 0.0
C443 C 0.22422 0.28786 0.65486 0.0
H444 H 0.92732 0.41137 0.89377 0.0
H445 H 0.79853 0.19149 0.57668 0.0
H446 H 0.82109 0.3061 0.91201 0.0
H447 H 0.81908 0.3422 0.96566 0.0
H448 H 0.7472 0.37688 0.90352 0.0
H449 H 0.74942 0.34068 0.84993 0.0
H450 H 0.86704 0.30665 0.84744 0.0
H451 H 0.8991 0.34574 0.8693 0.0
H452 H 0.83142 0.40157 0.84337 0.0
H453 H 0.79972 0.3623 0.82109 0.0
H454 H 0.86313 0.26479 0.76664 0.0
H455 H 0.89688 0.27935 0.72448 0.0
H456 H 0.84774 0.35207 0.70765 0.0
H457 H 0.81332 0.33631 0.7475 0.0
H458 H 0.82121 0.21608 0.76834 0.0
H459 H 0.82457 0.18531 0.7093 0.0
H460 H 0.78759 0.24762 0.64185 0.0
H461 H 0.78412 0.27806 0.70112 0.0
H462 H 0.78125 0.21573 0.83677 0.0
H463 H 0.76637 0.1687 0.81209 0.0
H464 H 0.72319 0.19857 0.71052 0.0
H465 H 0.73818 0.24564 0.73559 0.0
H466 H 0.76788 0.26725 0.90448 0.0
H467 H 0.72539 0.26938 0.93841 0.0
H468 H 0.67538 0.28437 0.83287 0.0
H469 H 0.71798 0.28297 0.79958 0.0
O470 O 0.91432 0.39622 0.8848 0.0
O471 O 0.87878 0.42404 0.87117 0.0
O472 O 0.8176 0.17233 0.63631 0.0
O473 O 0.79769 0.2033 0.60046 0.0
C474 C 0.78972 0.3018 0.8423 0.0
C475 C 0.81168 0.30774 0.82017 0.0
C476 C 0.81526 0.29103 0.78573 0.0
C477 C 0.79837 0.26711 0.77494 0.0
C478 C 0.77687 0.26062 0.79766 0.0
C479 C 0.77179 0.27861 0.83042 0.0
C480 C 0.78536 0.32074 0.87716 0.0
C481 C 0.80453 0.32115 0.91041 0.0
C482 C 0.80335 0.34177 0.94097 0.0
C483 C 0.78312 0.36251 0.93865 0.0
C484 C 0.76322 0.36137 0.90591 0.0
C485 C 0.76426 0.34058 0.8755 0.0
C486 C 0.83104 0.33165 0.833 0.0
C487 C 0.85922 0.32735 0.84645 0.0
C488 C 0.87746 0.34971 0.85896 0.0
C489 C 0.8678 0.37679 0.85821 0.0
C490 C 0.83953 0.38099 0.84445 0.0
C491 C 0.82134 0.35861 0.83185 0.0
C492 C 0.83583 0.29951 0.76011 0.0
C493 C 0.85958 0.28368 0.7534 0.0
C494 C 0.87897 0.29222 0.72966 0.0
C495 C 0.87512 0.31697 0.71269 0.0
C496 C 0.85121 0.3327 0.71961 0.0
C497 C 0.83165 0.32391 0.74277 0.0
C498 C 0.80243 0.24927 0.73897 0.0
C499 C 0.81402 0.22309 0.74076 0.0
C500 C 0.81588 0.20556 0.707 0.0
C501 C 0.80628 0.21399 0.67083 0.0
C502 C 0.79515 0.24047 0.66919 0.0
C503 C 0.79326 0.25795 0.70297 0.0
C504 C 0.76101 0.23408 0.78787 0.0
C505 C 0.76769 0.21224 0.80988 0.0
C506 C 0.75925 0.18534 0.79561 0.0
C507 C 0.74399 0.17983 0.75901 0.0
C508 C 0.73536 0.20208 0.73849 0.0
C509 C 0.74364 0.229 0.75293 0.0
C510 C 0.74599 0.27507 0.84965 0.0
C511 C 0.74766 0.27058 0.88865 0.0
C512 C 0.72338 0.27172 0.90789 0.0
C513 C 0.6971 0.27736 0.88836 0.0
C514 C 0.69539 0.28047 0.84883 0.0
C515 C 0.71963 0.27935 0.82967 0.0
C516 C 0.8872 0.4005 0.87173 0.0
C517 C 0.80761 0.19522 0.63493 0.0
H518 H 0.99087 0.66996 0.83716 0.0
H519 H 0.72911 0.6652 0.02698 0.0
H520 H 0.89346 0.78074 0.84639 0.0
H521 H 0.92239 0.79174 0.79622 0.0
H522 H 0.85292 0.76793 0.70947 0.0
H523 H 0.82458 0.75602 0.75981 0.0
H524 H 0.89961 0.73338 0.90067 0.0
H525 H 0.94232 0.70924 0.88444 0.0
H526 H 0.89999 0.67981 0.77242 0.0
H527 H 0.85734 0.70382 0.78918 0.0
H528 H 0.8554 0.7278 0.95906 0.0
H529 H 0.85677 0.68934 0.9985 0.0
H530 H 0.83369 0.63325 0.89627 0.0
H531 H 0.83215 0.6719 0.85701 0.0
H532 H 0.80162 0.76507 0.96304 0.0
H533 H 0.7772 0.74801 0.01406 0.0
H534 H 0.75441 0.67321 0.93976 0.0
H535 H 0.7784 0.69076 0.88874 0.0
H536 H 0.78824 0.81178 0.90985 0.0
H537 H 0.74242 0.83055 0.92363 0.0
H538 H 0.70136 0.75571 0.86733 0.0
H539 H 0.74704 0.73788 0.85208 0.0
H540 H 0.83734 0.82226 0.86697 0.0
H541 H 0.82055 0.86532 0.84393 0.0
H542 H 0.75794 0.81959 0.76324 0.0
H543 H 0.77406 0.7769 0.78807 0.0
O544 O 0.97373 0.6793 0.84301 0.0
O545 O 0.95106 0.66482 0.78572 0.0
O546 O 0.74902 0.71225 0.04317 0.0
O547 O 0.73823 0.67275 0.00693 0.0
C548 C 0.84044 0.75801 0.83687 0.0
C549 C 0.84957 0.73506 0.85596 0.0
C550 C 0.83388 0.72602 0.88432 0.0
C551 C 0.80832 0.73886 0.89239 0.0
C552 C 0.79881 0.76131 0.87282 0.0
C553 C 0.81534 0.77133 0.84595 0.0
C554 C 0.8569 0.76757 0.80681 0.0
C555 C 0.88445 0.7781 0.81656 0.0
C556 C 0.90089 0.7845 0.78782 0.0
C557 C 0.89006 0.78061 0.74868 0.0
C558 C 0.86212 0.77078 0.73919 0.0
C559 C 0.84574 0.76429 0.76796 0.0
C560 C 0.87542 0.72033 0.8461 0.0
C561 C 0.89959 0.72161 0.87271 0.0
C562 C 0.92396 0.70785 0.86333 0.0
C563 C 0.92458 0.6926 0.82712 0.0
C564 C 0.90025 0.69138 0.80054 0.0
C565 C 0.87588 0.70509 0.81 0.0
C566 C 0.84336 0.70255 0.90538 0.0
C567 C 0.85169 0.70708 0.94507 0.0
C568 C 0.85226 0.6852 0.9675 0.0
C569 C 0.84485 0.65853 0.95037 0.0
C570 C 0.83953 0.65365 0.91007 0.0
C571 C 0.83873 0.67563 0.88764 0.0
C572 C 0.79185 0.72911 0.92227 0.0
C573 C 0.79105 0.74515 0.95771 0.0
C574 C 0.77721 0.7353 0.98684 0.0
C575 C 0.76397 0.70917 0.98106 0.0
C576 C 0.76445 0.69337 0.94523 0.0
C577 C 0.77814 0.70333 0.91604 0.0
C578 C 0.77098 0.77354 0.87972 0.0
C579 C 0.76927 0.79971 0.8999 0.0
C580 C 0.74305 0.81024 0.90815 0.0
C581 C 0.71805 0.79466 0.89671 0.0
C582 C 0.71998 0.76855 0.87606 0.0
C583 C 0.74612 0.75819 0.86755 0.0
C584 C 0.80693 0.79667 0.82894 0.0
C585 C 0.82012 0.82168 0.84412 0.0
C586 C 0.81049 0.84619 0.83093 0.0
C587 C 0.78776 0.84596 0.80192 0.0
C588 C 0.77504 0.82062 0.78624 0.0
C589 C 0.78443 0.79617 0.79989 0.0
C590 C 0.95052 0.67804 0.81722 0.0
C591 C 0.74995 0.69827 0.01231 0.0
C592 C 0.04888 0.41798 0.5976 0.0
C593 C 0.05203 0.44505 0.61422 0.0
C594 C 0.03563 0.46073 0.5908 0.0
C595 C 0.02313 0.44246 0.56149 0.0
N596 N 0.03037 0.41622 0.56537 0.0
Co597 Co 0.01652 0.38346 0.53017 0.0
N598 N 0.98482 0.40412 0.50669 0.0
C599 C 0.98298 0.4316 0.50769 0.0
C600 C 0.95789 0.43964 0.48955 0.0
C601 C 0.94313 0.41567 0.47649 0.0
C602 C 0.96019 0.39435 0.48741 0.0
N603 N 0.00231 0.35077 0.49529 0.0
C604 C 0.97602 0.34546 0.47761 0.0
C605 C 0.97443 0.31992 0.45612 0.0
C606 C 0.00092 0.30895 0.46078 0.0
C607 C 0.01706 0.32841 0.48474 0.0
N608 N 0.04852 0.36271 0.55274 0.0
C609 C 0.05876 0.33923 0.53617 0.0
C610 C 0.08209 0.33026 0.55725 0.0
C611 C 0.08703 0.34943 0.58872 0.0
C612 C 0.06624 0.36915 0.58521 0.0
N613 N 0.99315 0.37272 0.5686 0.0
C614 C 0.95633 0.3556 0.61839 0.0
C615 C 0.97542 0.33726 0.60255 0.0
C616 C 0.9935 0.34617 0.5775 0.0
C617 C 0.9565 0.38289 0.60975 0.0
C618 C 0.97536 0.39113 0.58514 0.0
N619 N 0.04001 0.39386 0.49152 0.0
C620 C 0.04871 0.39217 0.42505 0.0
C621 C 0.07681 0.40017 0.43631 0.0
C622 C 0.08571 0.40657 0.47545 0.0
C623 C 0.06706 0.40309 0.50259 0.0
C624 C 0.03045 0.38964 0.45318 0.0
H625 H 0.07506 0.40665 0.53255 0.0
H626 H 0.00894 0.38309 0.44396 0.0
H627 H 0.00727 0.33135 0.56456 0.0
H628 H 0.97513 0.41223 0.57881 0.0
C629 C 0.00178 0.44859 0.5332 0.0
C630 C 0.06603 0.3951 0.61061 0.0
C631 C 0.95298 0.36506 0.47899 0.0
C632 C 0.04378 0.32443 0.50385 0.0
H633 H 0.06521 0.45278 0.64015 0.0
H634 H 0.03263 0.48271 0.59522 0.0
H635 H 0.95041 0.4604 0.48816 0.0
H636 H 0.92212 0.41412 0.46138 0.0
H637 H 0.95611 0.3103 0.43898 0.0
H638 H 0.00722 0.2887 0.44957 0.0
H639 H 0.09384 0.31175 0.55091 0.0
H640 H 0.10442 0.3492 0.61109 0.0
H641 H 0.97572 0.31595 0.60847 0.0
H642 H 0.94213 0.39768 0.62185 0.0
H643 H 0.04114 0.38731 0.39487 0.0
H644 H 0.10738 0.41271 0.48512 0.0
C645 C 0.71212 0.04893 0.6841 0.0
C646 C 0.68632 0.05526 0.69751 0.0
C647 C 0.66856 0.03322 0.68463 0.0
C648 C 0.68443 0.0148 0.66404 0.0
N649 N 0.71099 0.02395 0.6633 0.0
Co650 Co 0.74072 0.00481 0.63575 0.0
N651 N 0.71252 0.98114 0.60163 0.0
C652 C 0.68556 0.97685 0.60813 0.0
C653 C 0.6711 0.95907 0.57985 0.0
C654 C 0.69026 0.95142 0.5543 0.0
C655 C 0.71551 0.96492 0.56855 0.0
N656 N 0.77077 0.98553 0.60893 0.0
C657 C 0.76896 0.96882 0.5754 0.0
C658 C 0.79534 0.95886 0.56807 0.0
C659 C 0.81409 0.96938 0.59842 0.0
C660 C 0.79827 0.98516 0.62253 0.0
N661 N 0.76873 0.02866 0.66969 0.0
C662 C 0.79635 0.02374 0.67725 0.0
C663 C 0.81032 0.04452 0.70148 0.0
C664 C 0.79013 0.0636 0.70953 0.0
C665 C 0.76497 0.05333 0.6896 0.0
N666 N 0.74332 0.97768 0.67272 0.0
C667 C 0.75183 0.93885 0.72486 0.0
C668 C 0.7503 0.96667 0.73817 0.0
C669 C 0.74557 0.98583 0.71147 0.0
C670 C 0.74818 0.93063 0.68539 0.0
C671 C 0.74416 0.95037 0.65978 0.0
N672 N 0.7382 0.03191 0.59899 0.0
C673 C 0.76115 0.06445 0.56561 0.0
C674 C 0.735 0.07511 0.55296 0.0
C675 C 0.71042 0.06279 0.56248 0.0
C676 C 0.71249 0.04103 0.58518 0.0
C677 C 0.76229 0.04303 0.58878 0.0
H678 H 0.69329 0.03217 0.59257 0.0
H679 H 0.78272 0.03594 0.59924 0.0
H680 H 0.7445 0.00728 0.72212 0.0
H681 H 0.74257 0.94346 0.6295 0.0
C682 C 0.67383 0.99233 0.63835 0.0
C683 C 0.73757 0.06646 0.69183 0.0
C684 C 0.74249 0.95922 0.55254 0.0
C685 C 0.80895 0.00264 0.65517 0.0
H686 H 0.68075 0.07392 0.71423 0.0
H687 H 0.64629 0.03164 0.68789 0.0
H688 H 0.64913 0.95278 0.57766 0.0
H689 H 0.6863 0.93701 0.52864 0.0
H690 H 0.8004 0.94487 0.54383 0.0
H691 H 0.83664 0.96629 0.60205 0.0
H692 H 0.83271 0.04628 0.71065 0.0
H693 H 0.7935 0.08284 0.72782 0.0
H694 H 0.75318 0.97351 0.76873 0.0
H695 H 0.74957 0.90918 0.67438 0.0
H696 H 0.78071 0.07277 0.55812 0.0
H697 H 0.68973 0.07038 0.55357 0.0
C698 C 0.06031 0.84611 0.59992 0.0
C699 C 0.0694 0.8724 0.61558 0.0
C700 C 0.05557 0.89052 0.59337 0.0
C701 C 0.03885 0.87447 0.56545 0.0
N702 N 0.04104 0.84736 0.56899 0.0
Co703 Co 0.02152 0.81735 0.53349 0.0
N704 N 0.99351 0.84302 0.51214 0.0
C705 C 0.99616 0.87058 0.51481 0.0
C706 C 0.97251 0.88286 0.49912 0.0
C707 C 0.95393 0.86167 0.48564 0.0
C708 C 0.9675 0.8375 0.49343 0.0
N709 N 0.00209 0.78753 0.49771 0.0
C710 C 0.97572 0.78672 0.47927 0.0
C711 C 0.97047 0.76199 0.45617 0.0
C712 C 0.99447 0.74681 0.46075 0.0
C713 C 0.01299 0.76311 0.48612 0.0
N714 N 0.04939 0.79145 0.55468 0.0
C715 C 0.0548 0.76616 0.53813 0.0
C716 C 0.07507 0.75285 0.55957 0.0
C717 C 0.08322 0.77106 0.59126 0.0
C718 C 0.06756 0.79466 0.58721 0.0
N719 N 0.99687 0.81044 0.57281 0.0
C720 C 0.96166 0.8008 0.62952 0.0
C721 C 0.97413 0.77892 0.6086 0.0
C722 C 0.9916 0.78416 0.58045 0.0
C723 C 0.96719 0.8276 0.62117 0.0
C724 C 0.98479 0.83196 0.59286 0.0
N725 N 0.0463 0.82442 0.49419 0.0
C726 C 0.09276 0.834 0.47728 0.0
C727 C 0.08202 0.83661 0.4391 0.0
C728 C 0.0529 0.83244 0.42902 0.0
C729 C 0.03548 0.82627 0.45688 0.0
C730 C 0.07466 0.82809 0.50422 0.0
H731 H 0.01318 0.82329 0.44831 0.0
H732 H 0.08376 0.82666 0.53331 0.0
H733 H 0.00093 0.76694 0.56493 0.0
H734 H 0.98858 0.8528 0.58715 0.0
C735 C 0.01823 0.88413 0.53903 0.0
C736 C 0.07332 0.82072 0.61187 0.0
C737 C 0.95602 0.80961 0.48129 0.0
C738 C 0.03797 0.75436 0.50537 0.0
H739 H 0.08501 0.878 0.63986 0.0
H740 H 0.05715 0.91275 0.59754 0.0
H741 H 0.96856 0.90466 0.49948 0.0
H742 H 0.93276 0.86396 0.4721 0.0
H743 H 0.95133 0.75557 0.43798 0.0
H744 H 0.9975 0.72593 0.44846 0.0
H745 H 0.08262 0.7322 0.55334 0.0
H746 H 0.09944 0.76767 0.61418 0.0
H747 H 0.97081 0.75786 0.61428 0.0
H748 H 0.95773 0.84517 0.63606 0.0
H749 H 0.11512 0.83633 0.48649 0.0
H750 H 0.04347 0.8344 0.40003 0.0
C751 C 0.29912 0.11277 0.5348 0.0
C752 C 0.32456 0.09912 0.53851 0.0
C753 C 0.34235 0.11155 0.51735 0.0
C754 C 0.32686 0.13195 0.50181 0.0
N755 N 0.30021 0.1334 0.51179 0.0
Co756 Co 0.27049 0.15977 0.49448 0.0
N757 N 0.2965 0.17744 0.46216 0.0
C758 C 0.32342 0.17033 0.45748 0.0
C759 C 0.33599 0.18562 0.43325 0.0
C760 C 0.31601 0.20374 0.42181 0.0
C761 C 0.2923 0.19861 0.44003 0.0
N762 N 0.24083 0.18625 0.47731 0.0
C763 C 0.24189 0.20688 0.45422 0.0
C764 C 0.21664 0.22091 0.45126 0.0
C765 C 0.19896 0.20864 0.47274 0.0
C766 C 0.21433 0.18801 0.48784 0.0
N767 N 0.2444 0.14199 0.52656 0.0
C768 C 0.21738 0.14889 0.53096 0.0
C769 C 0.20461 0.13314 0.55444 0.0
C770 C 0.22455 0.11487 0.56558 0.0
C771 C 0.24844 0.12047 0.54801 0.0
N772 N 0.28373 0.18639 0.53951 0.0
C773 C 0.30265 0.22043 0.60683 0.0
C774 C 0.27406 0.21443 0.59742 0.0
C775 C 0.26508 0.19777 0.56361 0.0
C776 C 0.3217 0.21 0.58175 0.0
C777 C 0.31185 0.19293 0.5485 0.0
N778 N 0.25731 0.13268 0.45002 0.0
C779 C 0.22035 0.10208 0.41745 0.0
C780 C 0.24001 0.08644 0.39833 0.0
C781 C 0.26805 0.09562 0.40293 0.0
C782 C 0.27618 0.11867 0.42871 0.0
C783 C 0.22934 0.1253 0.44245 0.0
H784 H 0.29801 0.12407 0.43201 0.0
H785 H 0.21342 0.13636 0.45633 0.0
H786 H 0.24297 0.1943 0.55779 0.0
H787 H 0.32739 0.18512 0.53076 0.0
C788 C 0.33641 0.14935 0.4766 0.0
C789 C 0.27437 0.10477 0.55279 0.0
C790 C 0.26637 0.21441 0.43519 0.0
C791 C 0.20459 0.17028 0.5125 0.0
H792 H 0.32966 0.0817 0.55442 0.0
H793 H 0.36389 0.10608 0.51326 0.0
H794 H 0.3572 0.18383 0.42493 0.0
H795 H 0.31864 0.21899 0.40221 0.0
H796 H 0.21154 0.23841 0.43553 0.0
H797 H 0.17753 0.2143 0.47718 0.0
H798 H 0.18331 0.1347 0.56245 0.0
H799 H 0.22179 0.09919 0.5845 0.0
H800 H 0.25865 0.22279 0.61593 0.0
H801 H 0.34405 0.21468 0.58803 0.0
H802 H 0.19824 0.09607 0.41378 0.0
H803 H 0.28397 0.08424 0.3883 0.0
C804 C 0.55813 0.85957 0.07485 0.0
C805 C 0.57125 0.88087 0.09978 0.0
C806 C 0.56602 0.90444 0.08281 0.0
C807 C 0.54997 0.89622 0.04877 0.0
N808 N 0.54442 0.86883 0.04311 0.0
Co809 Co 0.52173 0.8481 0.99776 0.0
N810 N 0.51559 0.88246 0.97163 0.0
C811 C 0.52687 0.90774 0.98366 0.0
C812 C 0.51772 0.92745 0.96047 0.0
C813 C 0.49908 0.9141 0.93236 0.0
C814 C 0.49802 0.88686 0.94003 0.0
N815 N 0.49815 0.82759 0.95305 0.0
C816 C 0.482 0.83742 0.92365 0.0
C817 C 0.46747 0.8165 0.8996 0.0
C818 C 0.47403 0.79259 0.91505 0.0
C819 C 0.49213 0.8003 0.94743 0.0
N820 N 0.52847 0.81355 0.02328 0.0
C821 C 0.51952 0.78777 0.00925 0.0
C822 C 0.52856 0.76805 0.03247 0.0
C823 C 0.54463 0.78196 0.0629 0.0
C824 C 0.54434 0.8095 0.05647 0.0
N825 N 0.48707 0.85511 0.02393 0.0
C826 C 0.43871 0.86484 0.06304 0.0
C827 C 0.44534 0.83826 0.04834 0.0
C828 C 0.46929 0.83391 0.02879 0.0
C829 C 0.45641 0.88653 0.05718 0.0
C830 C 0.48034 0.88124 0.03786 0.0
N831 N 0.55673 0.84104 0.97186 0.0
C832 C 0.58647 0.80979 0.93651 0.0
C833 C 0.6088 0.82889 0.94252 0.0
C834 C 0.60425 0.85458 0.9621 0.0
C835 C 0.57822 0.86027 0.97603 0.0
C836 C 0.56089 0.8162 0.95132 0.0
H837 H 0.57625 0.88024 0.99064 0.0
H838 H 0.5451 0.80044 0.94642 0.0
H839 H 0.47304 0.81322 0.01791 0.0
H840 H 0.49319 0.89861 0.03476 0.0
C841 C 0.54202 0.91319 0.02 0.0
C842 C 0.56065 0.83077 0.08161 0.0
C843 C 0.47826 0.86642 0.91891 0.0
C844 C 0.50263 0.78273 0.97419 0.0
H845 H 0.58389 0.87938 0.12694 0.0
H846 H 0.57376 0.92498 0.09344 0.0
H847 H 0.52258 0.94928 0.96488 0.0
H848 H 0.48678 0.92367 0.9099 0.0
H849 H 0.45294 0.8185 0.87423 0.0
H850 H 0.46582 0.77217 0.90468 0.0
H851 H 0.52431 0.74612 0.02758 0.0
H852 H 0.55571 0.7728 0.08677 0.0
H853 H 0.43198 0.82085 0.05164 0.0
H854 H 0.45221 0.90747 0.06823 0.0
H855 H 0.58897 0.78955 0.92155 0.0
H856 H 0.62075 0.87027 0.96681 0.0
C857 C 0.20993 0.68056 0.03111 0.0
C858 C 0.18097 0.68409 0.02504 0.0
C859 C 0.17277 0.67437 0.98738 0.0
C860 C 0.19702 0.6653 0.97261 0.0
N861 N 0.21987 0.66846 0.99884 0.0
Co862 Co 0.25886 0.6582 0.98966 0.0
N863 N 0.24541 0.6338 0.94279 0.0
C864 C 0.22021 0.63448 0.92185 0.0
C865 C 0.21684 0.61372 0.89201 0.0
C866 C 0.24145 0.59921 0.89464 0.0
C867 C 0.25851 0.61209 0.92592 0.0
N868 N 0.2977 0.64776 0.98027 0.0
C869 C 0.30628 0.6247 0.96056 0.0
C870 C 0.33541 0.62423 0.96182 0.0
C871 C 0.34528 0.64808 0.98357 0.0
C872 C 0.32162 0.66165 0.99418 0.0
N873 N 0.2726 0.68274 0.0363 0.0
C874 C 0.29913 0.69279 0.04528 0.0
C875 C 0.30249 0.70892 0.0799 0.0
C876 C 0.27636 0.70957 0.093 0.0
C877 C 0.2584 0.69347 0.06565 0.0
N878 N 0.25667 0.62732 0.02094 0.0
C879 C 0.25517 0.58168 0.06363 0.0
C880 C 0.27808 0.60036 0.06957 0.0
C881 C 0.27846 0.62284 0.04801 0.0
C882 C 0.2328 0.58676 0.03603 0.0
C883 C 0.23391 0.60964 0.01519 0.0
N884 N 0.26122 0.68916 0.95832 0.0
C885 C 0.27588 0.70791 0.90237 0.0
C886 C 0.26543 0.73391 0.91428 0.0
C887 C 0.25257 0.73669 0.94872 0.0
C888 C 0.25084 0.71429 0.97024 0.0
C889 C 0.27345 0.68591 0.92456 0.0
H890 H 0.24108 0.71741 0.99669 0.0
H891 H 0.28168 0.66624 0.91449 0.0
H892 H 0.29659 0.63649 0.05309 0.0
H893 H 0.21649 0.61282 0.99402 0.0
C894 C 0.19849 0.65015 0.93661 0.0
C895 C 0.22764 0.69139 0.06637 0.0
C896 C 0.28697 0.60379 0.93945 0.0
C897 C 0.32105 0.68311 0.02389 0.0
H898 H 0.16727 0.69314 0.04549 0.0
H899 H 0.15154 0.67331 0.97291 0.0
H900 H 0.19806 0.60854 0.87238 0.0
H901 H 0.24595 0.581 0.87619 0.0
H902 H 0.34806 0.60823 0.94881 0.0
H903 H 0.3671 0.6539 0.99256 0.0
H904 H 0.32178 0.71848 0.09446 0.0
H905 H 0.27112 0.72103 0.11934 0.0
H906 H 0.29568 0.59785 0.09098 0.0
H907 H 0.21472 0.57291 0.02992 0.0
H908 H 0.28633 0.70453 0.87636 0.0
H909 H 0.24359 0.75601 0.95905 0.0
C910 C 0.4915 0.34918 0.00676 0.0
C911 C 0.48926 0.37693 0.00193 0.0
C912 C 0.50984 0.39035 0.02703 0.0
C913 C 0.52337 0.37011 0.04564 0.0
N914 N 0.51309 0.34448 0.03345 0.0
Co915 Co 0.52509 0.30935 0.05469 0.0
N916 N 0.55383 0.32942 0.09374 0.0
C917 C 0.56064 0.35654 0.09727 0.0
C918 C 0.58179 0.36426 0.12595 0.0
C919 C 0.58909 0.34063 0.14163 0.0
C920 C 0.57179 0.31981 0.12154 0.0
N921 N 0.53614 0.2744 0.07712 0.0
C922 C 0.55507 0.27017 0.10747 0.0
C923 C 0.55563 0.24274 0.11433 0.0
C924 C 0.53637 0.22911 0.0873 0.0
C925 C 0.52513 0.24893 0.06565 0.0
N926 N 0.49712 0.28925 0.01451 0.0
C927 C 0.49266 0.26172 0.00789 0.0
C928 C 0.4718 0.25408 0.9787 0.0
C929 C 0.46216 0.27815 0.96617 0.0
C930 C 0.47775 0.29917 0.98858 0.0
N931 N 0.55456 0.30391 0.01859 0.0
C932 C 0.59971 0.29522 0.97307 0.0
C933 C 0.58302 0.27327 0.98048 0.0
C934 C 0.56071 0.27804 0.0029 0.0
C935 C 0.59278 0.32175 0.98762 0.0
C936 C 0.57027 0.32559 0.01004 0.0
N937 N 0.49587 0.31456 0.09088 0.0
C938 C 0.45428 0.29817 0.11591 0.0
C939 C 0.45384 0.32188 0.14187 0.0
C940 C 0.47516 0.34174 0.142 0.0
C941 C 0.49553 0.33788 0.11614 0.0
C942 C 0.47545 0.2948 0.09134 0.0
H943 H 0.51074 0.35409 0.11702 0.0
H944 H 0.47466 0.27611 0.0727 0.0
H945 H 0.54903 0.26034 0.00745 0.0
H946 H 0.56633 0.34626 0.02058 0.0
C947 C 0.54556 0.37454 0.07488 0.0
C948 C 0.47216 0.32824 0.98604 0.0
C949 C 0.57316 0.29134 0.1302 0.0
C950 C 0.50554 0.24406 0.03304 0.0
H951 H 0.47406 0.3865 0.98262 0.0
H952 H 0.51413 0.41228 0.03162 0.0
H953 H 0.59058 0.38468 0.13476 0.0
H954 H 0.60522 0.33896 0.16534 0.0
H955 H 0.56878 0.23353 0.13641 0.0
H956 H 0.53144 0.20729 0.08353 0.0
H957 H 0.46362 0.23355 0.96898 0.0
H958 H 0.44495 0.28007 0.94399 0.0
H959 H 0.58714 0.25239 0.96902 0.0
H960 H 0.60512 0.33945 0.98264 0.0
H961 H 0.43807 0.28233 0.11375 0.0
H962 H 0.47628 0.36031 0.16187 0.0
C963 C 0.76646 0.56132 0.1744 0.0
C964 C 0.74127 0.57448 0.18019 0.0
C965 C 0.72066 0.56011 0.15626 0.0
C966 C 0.73431 0.53894 0.13758 0.0
N967 N 0.76237 0.53872 0.14843 0.0
Co968 Co 0.79009 0.5113 0.12901 0.0
N969 N 0.76062 0.49281 0.08941 0.0
C970 C 0.73331 0.50006 0.08298 0.0
C971 C 0.71811 0.48371 0.05385 0.0
C972 C 0.73681 0.46492 0.04068 0.0
C973 C 0.76252 0.47097 0.06257 0.0
N974 N 0.81757 0.48321 0.11055 0.0
C975 C 0.81393 0.46176 0.08249 0.0
C976 C 0.83861 0.44708 0.07949 0.0
C977 C 0.85839 0.45944 0.10689 0.0
C978 C 0.84482 0.48093 0.12494 0.0
N979 N 0.81983 0.53071 0.16746 0.0
C980 C 0.84729 0.52391 0.17337 0.0
C981 C 0.86318 0.54226 0.19919 0.0
C982 C 0.84492 0.56231 0.20996 0.0
C983 C 0.81877 0.55486 0.19024 0.0
N984 N 0.78027 0.48664 0.16729 0.0
C985 C 0.76743 0.44735 0.21622 0.0
C986 C 0.7949 0.4575 0.217 0.0
C987 C 0.80079 0.47699 0.19257 0.0
C988 C 0.74625 0.45806 0.19187 0.0
C989 C 0.75305 0.47767 0.16806 0.0
N990 N 0.79999 0.53576 0.09094 0.0
C991 C 0.83516 0.55711 0.05847 0.0
C992 C 0.81485 0.57382 0.04172 0.0
C993 C 0.78681 0.5705 0.04878 0.0
C994 C 0.77985 0.5513 0.07308 0.0
C995 C 0.82734 0.53838 0.08291 0.0
H996 H 0.75813 0.54965 0.07749 0.0
H997 H 0.84387 0.52666 0.09554 0.0
H998 H 0.82223 0.48341 0.1942 0.0
H999 H 0.73592 0.48485 0.15014 0.0
C1000 C 0.72208 0.52111 0.10655 0.0
C1001 C 0.79382 0.57191 0.19273 0.0
C1002 C 0.7878 0.4548 0.05754 0.0
C1003 C 0.85762 0.50049 0.15346 0.0
H1004 H 0.73824 0.59303 0.19895 0.0
H1005 H 0.69856 0.56515 0.15187 0.0
H1006 H 0.69593 0.48493 0.04393 0.0
H1007 H 0.73188 0.44835 0.01793 0.0
H1008 H 0.8421 0.42944 0.05931 0.0
H1009 H 0.88023 0.45376 0.11248 0.0
H1010 H 0.88553 0.5415 0.20836 0.0
H1011 H 0.85046 0.5806 0.2295 0.0
H1012 H 0.81206 0.44973 0.23538 0.0
H1013 H 0.72452 0.45116 0.19092 0.0
H1014 H 0.85716 0.55911 0.0538 0.0
H1015 H 0.77033 0.58276 0.03577 0.0
C1016 C 0.13713 0.42067 0.38333 0.0
C1017 C 0.14294 0.39556 0.3623 0.0
H1018 H 0.11146 0.44177 0.42334 0.0
C1019 C 0.12506 0.37271 0.36336 0.0
H1020 H 0.14991 0.43892 0.38238 0.0
C1021 C 0.1025 0.37472 0.38585 0.0
C1022 C 0.09768 0.39945 0.40812 0.0
H1023 H 0.12902 0.35298 0.34796 0.0
H1024 H 0.08964 0.35658 0.3873 0.0
C1025 C 0.11493 0.42249 0.40638 0.0
C1026 C 0.71069 0.12474 0.48066 0.0
C1027 C 0.73174 0.14524 0.4889 0.0
H1028 H 0.69572 0.08584 0.49359 0.0
C1029 C 0.7534 0.14306 0.51852 0.0
H1030 H 0.69392 0.12615 0.45764 0.0
C1031 C 0.75414 0.12052 0.53969 0.0
C1032 C 0.73356 0.09941 0.53098 0.0
H1033 H 0.76966 0.15891 0.52536 0.0
H1034 H 0.77081 0.11975 0.563 0.0
C1035 C 0.71172 0.10184 0.50134 0.0
C1036 C 0.88108 0.7824 0.45629 0.0
C1037 C 0.87301 0.79386 0.42168 0.0
H1038 H 0.91374 0.77884 0.50252 0.0
C1039 C 0.89239 0.81118 0.40767 0.0
H1040 H 0.86701 0.76861 0.46767 0.0
C1041 C 0.91921 0.81633 0.42708 0.0
C1042 C 0.92699 0.80521 0.46177 0.0
H1043 H 0.88692 0.82089 0.38163 0.0
H1044 H 0.93399 0.82892 0.41483 0.0
C1045 C 0.90782 0.7881 0.47618 0.0
C1046 C 0.21219 0.01347 0.37389 0.0
C1047 C 0.2219 0.00645 0.33779 0.0
H1048 H 0.20997 0.0447 0.4211 0.0
C1049 C 0.23597 0.02645 0.32052 0.0
H1050 H 0.20139 0.99833 0.38775 0.0
C1051 C 0.2411 0.05279 0.33962 0.0
C1052 C 0.23193 0.05968 0.3761 0.0
H1053 H 0.24402 0.02138 0.29291 0.0
H1054 H 0.25271 0.06762 0.32624 0.0
C1055 C 0.21695 0.03997 0.39275 0.0
C1056 C 0.12622 0.83948 0.69896 0.0
C1057 C 0.15151 0.83978 0.68154 0.0
H1058 H 0.08127 0.83264 0.69028 0.0
C1059 C 0.151 0.83076 0.64207 0.0
H1060 H 0.126 0.84629 0.72932 0.0
C1061 C 0.12566 0.82301 0.62009 0.0
C1062 C 0.10031 0.82388 0.63712 0.0
H1063 H 0.16993 0.83132 0.62752 0.0
H1064 H 0.12564 0.81769 0.5893 0.0
C1065 C 0.10075 0.83154 0.67684 0.0
C1066 C 0.32341 0.28444 0.67269 0.0
C1067 C 0.32051 0.27579 0.7092 0.0
H1068 H 0.32031 0.27332 0.6116 0.0
C1069 C 0.31502 0.24775 0.7117 0.0
H1070 H 0.32692 0.3059 0.66928 0.0
C1071 C 0.31048 0.22932 0.67832 0.0
C1072 C 0.31202 0.23849 0.64206 0.0
H1073 H 0.31303 0.24026 0.73927 0.0
H1074 H 0.3048 0.20812 0.68067 0.0
C1075 C 0.31938 0.2659 0.63948 0.0
C1076 C 0.88716 0.34037 0.65592 0.0
C1077 C 0.89604 0.3266 0.68824 0.0
H1078 H 0.89945 0.36054 0.60875 0.0
C1079 C 0.92507 0.32254 0.69733 0.0
H1080 H 0.86498 0.34335 0.64751 0.0
C1081 C 0.94469 0.33195 0.6746 0.0
C1082 C 0.93571 0.34599 0.64277 0.0
H1083 H 0.93273 0.31248 0.72234 0.0
H1084 H 0.96693 0.32861 0.68218 0.0
C1085 C 0.90683 0.35016 0.63362 0.0
C1086 C 0.7973 0.89264 0.78223 0.0
C1087 C 0.77783 0.87189 0.78715 0.0
H1088 H 0.80382 0.93076 0.75911 0.0
C1089 C 0.74901 0.87546 0.77576 0.0
H1090 H 0.81967 0.89044 0.79019 0.0
C1091 C 0.74013 0.89833 0.75744 0.0
C1092 C 0.75985 0.91825 0.75115 0.0
H1093 H 0.73339 0.86019 0.77995 0.0
H1094 H 0.71809 0.89999 0.7469 0.0
C1095 C 0.78832 0.91572 0.76451 0.0
C1096 C 0.9269 0.80875 0.72294 0.0
C1097 C 0.90807 0.78608 0.7179 0.0
H1098 H 0.9587 0.83095 0.69953 0.0
C1099 C 0.90694 0.76837 0.68341 0.0
H1100 H 0.92817 0.82297 0.74893 0.0
C1101 C 0.92421 0.77316 0.65481 0.0
C1102 C 0.94312 0.79576 0.65991 0.0
H1103 H 0.89298 0.75051 0.67869 0.0
H1104 H 0.92255 0.75922 0.62852 0.0
C1105 C 0.94419 0.81351 0.69435 0.0
C1106 C 0.26028 0.03406 0.58409 0.0
C1107 C 0.27656 0.03511 0.62018 0.0
H1108 H 0.24693 0.05518 0.5347 0.0
C1109 C 0.29236 0.05933 0.63359 0.0
H1110 H 0.24752 0.01603 0.57293 0.0
C1111 C 0.29176 0.0818 0.61171 0.0
C1112 C 0.27545 0.08061 0.57585 0.0
H1113 H 0.30545 0.06088 0.66089 0.0
H1114 H 0.30403 0.10017 0.62283 0.0
C1115 C 0.25976 0.05653 0.56223 0.0
C1116 C 0.13654 0.42095 0.6614 0.0
C1117 C 0.13961 0.4054 0.69308 0.0
H1118 H 0.11097 0.42951 0.61027 0.0
C1119 C 0.11694 0.38833 0.69926 0.0
H1120 H 0.15325 0.43467 0.65603 0.0
C1121 C 0.09231 0.38615 0.67361 0.0
C1122 C 0.08995 0.40081 0.64121 0.0
H1123 H 0.11864 0.37569 0.72291 0.0
H1124 H 0.07558 0.37212 0.67811 0.0
C1125 C 0.11214 0.41839 0.6355 0.0
C1126 C 0.73228 0.12991 0.76264 0.0
C1127 C 0.73957 0.15099 0.74091 0.0
H1128 H 0.72586 0.0865 0.76395 0.0
C1129 C 0.74479 0.144 0.70232 0.0
H1130 H 0.72813 0.1346 0.79237 0.0
C1131 C 0.74334 0.11656 0.68617 0.0
C1132 C 0.73642 0.09563 0.70811 0.0
H1133 H 0.75106 0.15962 0.68503 0.0
H1134 H 0.7482 0.11158 0.65675 0.0
C1135 C 0.73077 0.10247 0.74638 0.0
C1136 C 0.88011 0.33438 0.47878 0.0
C1137 C 0.86818 0.33699 0.44092 0.0
H1138 H 0.91659 0.34124 0.52026 0.0
C1139 C 0.88437 0.34931 0.41585 0.0
H1140 H 0.86839 0.32455 0.49857 0.0
C1141 C 0.91191 0.35862 0.42828 0.0
C1142 C 0.92367 0.35583 0.46595 0.0
H1143 H 0.87573 0.35174 0.38662 0.0
H1144 H 0.92413 0.36787 0.40847 0.0
C1145 C 0.90767 0.34367 0.49113 0.0
C1146 C 0.7445 0.88637 0.50453 0.0
C1147 C 0.74863 0.89049 0.4664 0.0
H1148 H 0.7392 0.90505 0.56142 0.0
C1149 C 0.75064 0.91764 0.45677 0.0
H1150 H 0.74327 0.8658 0.51312 0.0
C1151 C 0.74834 0.94008 0.48456 0.0
C1152 C 0.74385 0.93572 0.52232 0.0
H1153 H 0.75349 0.92156 0.42759 0.0
H1154 H 0.74999 0.9608 0.47663 0.0
C1155 C 0.74216 0.90875 0.53217 0.0
C1156 C 0.14348 0.86726 0.39579 0.0
C1157 C 0.13951 0.85542 0.35734 0.0
H1158 H 0.12817 0.87146 0.45115 0.0
C1159 C 0.11582 0.83822 0.34534 0.0
H1160 H 0.16128 0.88098 0.40572 0.0
C1161 C 0.09696 0.83232 0.37161 0.0
C1162 C 0.10123 0.84373 0.4104 0.0
H1163 H 0.11234 0.82865 0.31591 0.0
H1164 H 0.07949 0.81822 0.36169 0.0
C1165 C 0.12452 0.86165 0.42189 0.0
C1166 C 0.24575 0.25912 0.35397 0.0
C1167 C 0.26294 0.28284 0.36486 0.0
H1168 H 0.23351 0.21909 0.36735 0.0
C1169 C 0.28113 0.28371 0.39939 0.0
H1170 H 0.23111 0.25764 0.32808 0.0
C1171 C 0.28205 0.26172 0.42219 0.0
C1172 C 0.265 0.23811 0.41104 0.0
H1173 H 0.29507 0.30124 0.40867 0.0
H1174 H 0.29627 0.26305 0.44853 0.0
C1175 C 0.24688 0.23705 0.37665 0.0
C1176 C 0.66541 0.79922 0.88221 0.0
C1177 C 0.6902 0.805 0.90741 0.0
H1178 H 0.62041 0.80236 0.87334 0.0
C1179 C 0.68796 0.8198 0.9436 0.0
H1180 H 0.66629 0.78837 0.85383 0.0
C1181 C 0.66165 0.82811 0.95454 0.0
C1182 C 0.63687 0.82165 0.92973 0.0
H1183 H 0.70644 0.82426 0.96408 0.0
H1184 H 0.66063 0.83882 0.983 0.0
C1185 C 0.63908 0.80732 0.89331 0.0
C1186 C 0.27343 0.80745 0.88803 0.0
C1187 C 0.2719 0.8036 0.84755 0.0
H1188 H 0.2735 0.78892 0.94063 0.0
C1189 C 0.26854 0.7766 0.82917 0.0
H1190 H 0.27643 0.82789 0.90323 0.0
C1191 C 0.26644 0.75413 0.85062 0.0
C1192 C 0.2679 0.75792 0.8912 0.0
H1193 H 0.26692 0.77286 0.79803 0.0
H1194 H 0.26311 0.73382 0.83519 0.0
C1195 C 0.27161 0.78499 0.90951 0.0
C1196 C 0.42085 0.34557 0.90258 0.0
C1197 C 0.39778 0.35551 0.9216 0.0
H1198 H 0.46249 0.32884 0.90831 0.0
C1199 C 0.39928 0.35589 0.96193 0.0
H1200 H 0.42021 0.3447 0.87152 0.0
C1201 C 0.42336 0.34668 0.98274 0.0
C1202 C 0.44623 0.33679 0.96359 0.0
H1203 H 0.38201 0.36369 0.97746 0.0
H1204 H 0.42425 0.34745 0.01383 0.0
C1205 C 0.44488 0.33628 0.92343 0.0
C1206 C 0.78745 0.38172 0.0085 0.0
C1207 C 0.78379 0.38604 0.96929 0.0
H1208 H 0.79128 0.40024 0.0672 0.0
C1209 C 0.78164 0.41315 0.9594 0.0
H1210 H 0.78903 0.36107 0.01698 0.0
C1211 C 0.78323 0.43543 0.98806 0.0
C1212 C 0.78674 0.43104 0.02713 0.0
H1213 H 0.77925 0.41716 0.92946 0.0
H1214 H 0.78171 0.45614 0.97978 0.0
C1215 C 0.78874 0.40403 0.03717 0.0
C1216 C 0.60703 0.28379 0.23057 0.0
C1217 C 0.63485 0.2771 0.22364 0.0
H1218 H 0.56551 0.29322 0.20593 0.0
C1219 C 0.64159 0.27327 0.18533 0.0
H1220 H 0.60106 0.28647 0.25967 0.0
C1221 C 0.62115 0.27681 0.15477 0.0
C1222 C 0.5937 0.28414 0.16202 0.0
H1223 H 0.66287 0.26841 0.17904 0.0
H1224 H 0.62694 0.27465 0.12555 0.0
C1225 C 0.58663 0.28734 0.19997 0.0
C1226 C 0.80113 0.63202 0.27131 0.0
C1227 C 0.79444 0.65441 0.25005 0.0
H1228 H 0.8061 0.58826 0.26975 0.0
C1229 C 0.78915 0.6494 0.20963 0.0
H1230 H 0.80546 0.6351 0.3024 0.0
C1231 C 0.79001 0.62273 0.1911 0.0
C1232 C 0.79599 0.60043 0.21249 0.0
H1233 H 0.78322 0.66592 0.1923 0.0
H1234 H 0.78518 0.61938 0.16007 0.0
C1235 C 0.80175 0.60527 0.2527 0.0
C1236 C 0.37223 0.89625 0.09891 0.0
C1237 C 0.36687 0.8793 0.12739 0.0
H1238 H 0.39921 0.90503 0.05629 0.0
C1239 C 0.3852 0.85755 0.13436 0.0
H1240 H 0.3585 0.9132 0.09298 0.0
C1241 C 0.40833 0.85278 0.11328 0.0
C1242 C 0.41385 0.86982 0.08498 0.0
H1243 H 0.38141 0.84393 0.15579 0.0
H1244 H 0.42212 0.83592 0.11947 0.0
C1245 C 0.3956 0.89168 0.0781 0.0
C1246 C 0.27984 0.52109 0.1183 0.0
C1247 C 0.25462 0.51154 0.13025 0.0
H1248 H 0.29974 0.5498 0.08729 0.0
C1249 C 0.22941 0.52486 0.11938 0.0
H1250 H 0.29958 0.51105 0.12553 0.0
C1251 C 0.2295 0.54742 0.09772 0.0
C1252 C 0.2548 0.55718 0.08604 0.0
H1253 H 0.20963 0.51824 0.12839 0.0
H1254 H 0.20977 0.55755 0.09087 0.0
C1255 C 0.27992 0.54346 0.0964 0.0
C1256 C 0.39781 0.35711 0.19805 0.0
C1257 C 0.38345 0.33464 0.20916 0.0
H1258 H 0.43025 0.37081 0.16692 0.0
C1259 C 0.39326 0.30802 0.20036 0.0
H1260 H 0.39032 0.37781 0.20411 0.0
C1261 C 0.41692 0.30392 0.18011 0.0
C1262 C 0.43061 0.32633 0.16715 0.0
H1263 H 0.38239 0.29041 0.20868 0.0
H1264 H 0.42411 0.28311 0.17414 0.0
C1265 C 0.42088 0.35302 0.17689 0.0
C1266 C 0.76928 0.40255 0.29804 0.0
C1267 C 0.75285 0.37974 0.28076 0.0
H1268 H 0.78658 0.44202 0.29121 0.0
C1269 C 0.74015 0.37992 0.24283 0.0
H1270 H 0.77946 0.40285 0.32717 0.0
C1271 C 0.74427 0.40226 0.22227 0.0
C1272 C 0.76129 0.42477 0.23919 0.0
H1273 H 0.72714 0.36271 0.22899 0.0
H1274 H 0.73481 0.40153 0.19273 0.0
C1275 C 0.77354 0.42483 0.27739 0.0
C1276 C 0.59715 0.80868 0.174 0.0
C1277 C 0.62554 0.80872 0.16636 0.0
H1278 H 0.55418 0.81587 0.1528 0.0
C1279 C 0.63222 0.81561 0.13039 0.0
H1280 H 0.59141 0.80377 0.2016 0.0
C1281 C 0.61101 0.82264 0.10286 0.0
C1282 C 0.58283 0.82282 0.11079 0.0
H1283 H 0.65384 0.81547 0.12346 0.0
H1284 H 0.61656 0.828 0.07536 0.0
C1285 C 0.57592 0.81572 0.14636 0.0
C1286 C 0.19917 0.75606 0.1145 0.0
C1287 C 0.20202 0.75102 0.15347 0.0
H1288 H 0.20529 0.74095 0.05655 0.0
C1289 C 0.20961 0.72455 0.16278 0.0
H1290 H 0.19408 0.77632 0.10623 0.0
C1291 C 0.2161 0.70423 0.13398 0.0
C1292 C 0.21495 0.71011 0.0956 0.0
H1293 H 0.21198 0.72004 0.1925 0.0
H1294 H 0.22352 0.68449 0.14189 0.0
C1295 C 0.20571 0.73587 0.08593 0.0
C1296 C 0.42937 0.89263 0.83921 0.0
C1297 C 0.40276 0.88858 0.852 0.0
H1298 H 0.47421 0.88852 0.85036 0.0
C1299 C 0.40143 0.87779 0.88741 0.0
H1300 H 0.4312 0.90122 0.81234 0.0
C1301 C 0.42607 0.87111 0.90935 0.0
C1302 C 0.45246 0.87501 0.89629 0.0
H1303 H 0.38133 0.87394 0.89784 0.0
H1304 H 0.42455 0.86258 0.93637 0.0
C1305 C 0.45399 0.8857 0.86105 0.0
C1306 C 0.30577 0.53784 0.883 0.0
C1307 C 0.30726 0.5194 0.91139 0.0
H1308 H 0.29868 0.57925 0.86999 0.0
C1309 C 0.3047 0.52974 0.94985 0.0
H1310 H 0.30707 0.53065 0.85298 0.0
C1311 C 0.29924 0.55757 0.95923 0.0
C1312 C 0.29634 0.57539 0.93036 0.0
H1313 H 0.30604 0.51619 0.97245 0.0
H1314 H 0.29621 0.56497 0.98872 0.0
C1315 C 0.30059 0.56561 0.89251 0.0
C1316 C 0.65363 0.30336 0.90272 0.0
C1317 C 0.67181 0.28144 0.90949 0.0
H1318 H 0.61653 0.32477 0.91723 0.0
C1319 C 0.666 0.26399 0.93713 0.0
H1320 H 0.65777 0.3174 0.88199 0.0
C1321 C 0.64251 0.26837 0.95755 0.0
C1322 C 0.62439 0.29037 0.95089 0.0
H1323 H 0.67955 0.24687 0.94284 0.0
H1324 H 0.63877 0.25477 0.97902 0.0
C1325 C 0.6302 0.30779 0.92323 0.0
C1326 C 0.84888 0.61021 0.96779 0.0
C1327 C 0.8386 0.63691 0.97467 0.0
H1328 H 0.8494 0.5691 0.98391 0.0
C1329 C 0.82054 0.64268 0.00356 0.0
H1330 H 0.8627 0.6053 0.94547 0.0
C1331 C 0.81276 0.6221 0.02513 0.0
C1332 C 0.82302 0.59538 0.01837 0.0
H1333 H 0.81189 0.66301 0.00891 0.0
H1334 H 0.79884 0.62713 0.04729 0.0
C1335 C 0.84133 0.58962 0.98973 0.0
loop_
_geom_bond_atom_site_label_1
_geom_bond_atom_site_label_2
_geom_bond_distance
_geom_bond_site_symmetry_2
_ccdc_geom_bond_type
H0 O26 0.856 . S
H1 O29 0.854 . S
H2 C37 0.930 . S
H3 C38 0.930 . S
H4 C40 0.930 . S
H5 C41 0.930 . S
H6 C43 0.931 . S
H7 C44 0.930 . S
H8 C46 0.930 . S
H9 C47 0.929 . S
H10 C49 0.930 . S
H11 C50 0.931 . S
H12 C52 0.930 . S
H13 C53 0.929 . S
H14 C55 0.931 . S
H15 C56 0.930 . S
H16 C58 0.930 . S
H17 C59 0.932 . S
H18 C61 0.930 . S
H19 C62 0.929 . S
H20 C64 0.931 . S
H21 C65 0.930 . S
H22 C67 0.929 . S
H23 C68 0.931 . S
H24 C70 0.930 . S
H25 C71 0.929 . S
O26 H0 0.856 . S
O26 C72 1.300 . S
O27 C72 1.209 . S
O28 C73 1.199 . S
O29 H1 0.854 . S
O29 C73 1.297 . S
C30 C31 1.404 . S
C30 C35 1.397 . S
C30 C36 1.492 . S
C31 C30 1.404 . S
C31 C32 1.396 . S
C31 C42 1.492 . S
C32 C31 1.396 . S
C32 C33 1.397 . S
C32 C48 1.509 . S
C33 C32 1.397 . S
C33 C34 1.412 . S
C33 C54 1.485 . S
C34 C33 1.412 . S
C34 C35 1.388 . S
C34 C60 1.490 . S
C35 C30 1.397 . S
C35 C34 1.388 . S
C35 C66 1.519 . S
C36 C30 1.492 . S
C36 C37 1.363 . S
C36 C41 1.390 . S
C37 H2 0.930 . S
C37 C36 1.363 . S
C37 C38 1.372 . S
C38 H3 0.930 . S
C38 C37 1.372 . S
C38 C39 1.383 . S
C39 C38 1.383 . S
C39 C40 1.395 . S
C40 H4 0.930 . S
C40 C39 1.395 . S
C40 C41 1.362 . S
C41 H5 0.930 . S
C41 C36 1.390 . S
C41 C40 1.362 . S
C42 C31 1.492 . S
C42 C43 1.377 . S
C42 C47 1.397 . S
C43 H6 0.931 . S
C43 C42 1.377 . S
C43 C44 1.376 . S
C44 H7 0.930 . S
C44 C43 1.376 . S
C44 C45 1.376 . S
C45 C44 1.376 . S
C45 C46 1.378 . S
C45 C72 1.486 . S
C46 H8 0.930 . S
C46 C45 1.378 . S
C46 C47 1.376 . S
C47 H9 0.929 . S
C47 C42 1.397 . S
C47 C46 1.376 . S
C48 C32 1.509 . S
C48 C49 1.391 . S
C48 C53 1.386 . S
C49 H10 0.930 . S
C49 C48 1.391 . S
C49 C50 1.375 . S
C50 H11 0.931 . S
C50 C49 1.375 . S
C50 C51 1.375 . S
C51 C50 1.375 . S
C51 C52 1.361 . S
C52 H12 0.930 . S
C52 C51 1.361 . S
C52 C53 1.399 . S
C53 H13 0.929 . S
C53 C48 1.386 . S
C53 C52 1.399 . S
C54 C33 1.485 . S
C54 C55 1.394 . S
C54 C59 1.360 . S
C55 H14 0.931 . S
C55 C54 1.394 . S
C55 C56 1.372 . S
C56 H15 0.930 . S
C56 C55 1.372 . S
C56 C57 1.397 . S
C57 C56 1.397 . S
C57 C58 1.390 . S
C57 C73 1.476 . S
C58 H16 0.930 . S
C58 C57 1.390 . S
C58 C59 1.366 . S
C59 H17 0.932 . S
C59 C54 1.360 . S
C59 C58 1.366 . S
C60 C34 1.490 . S
C60 C61 1.380 . S
C60 C65 1.386 . S
C61 H18 0.930 . S
C61 C60 1.380 . S
C61 C62 1.381 . S
C62 H19 0.929 . S
C62 C61 1.381 . S
C62 C63 1.371 . S
C63 C62 1.371 . S
C63 C64 1.380 . S
C64 H20 0.931 . S
C64 C63 1.380 . S
C64 C65 1.387 . S
C65 H21 0.930 . S
C65 C60 1.386 . S
C65 C64 1.387 . S
C66 C35 1.519 . S
C66 C67 1.377 . S
C66 C71 1.361 . S
C67 H22 0.929 . S
C67 C66 1.377 . S
C67 C68 1.386 . S
C68 H23 0.931 . S
C68 C67 1.386 . S
C68 C69 1.363 . S
C69 C68 1.363 . S
C69 C70 1.385 . S
C70 H24 0.930 . S
C70 C69 1.385 . S
C70 C71 1.396 . S
C71 H25 0.929 . S
C71 C66 1.361 . S
C71 C70 1.396 . S
C72 O26 1.300 . S
C72 O27 1.209 . S
C72 C45 1.486 . S
C73 O28 1.199 . S
C73 O29 1.297 . S
C73 C57 1.476 . S
H74 O100 0.856 . S
H75 O103 0.854 . S
H76 C111 0.930 . S
H77 C112 0.930 . S
H78 C114 0.930 . S
H79 C115 0.930 . S
H80 C117 0.931 . S
H81 C118 0.930 . S
H82 C120 0.930 . S
H83 C121 0.929 . S
H84 C123 0.930 . S
H85 C124 0.931 . S
H86 C126 0.930 . S
H87 C127 0.929 . S
H88 C129 0.931 . S
H89 C130 0.930 . S
H90 C132 0.930 . S
H91 C133 0.932 . S
H92 C135 0.930 . S
H93 C136 0.929 . S
H94 C138 0.931 . S
H95 C139 0.930 . S
H96 C141 0.929 . S
H97 C142 0.931 . S
H98 C144 0.930 . S
H99 C145 0.929 . S
O100 H74 0.856 . S
O100 C146 1.300 . S
O101 C146 1.209 . S
O102 C147 1.199 . S
O103 H75 0.854 . S
O103 C147 1.297 . S
C104 C105 1.404 . S
C104 C109 1.397 . S
C104 C110 1.492 . S
C105 C104 1.404 . S
C105 C106 1.396 . S
C105 C116 1.492 . S
C106 C105 1.396 . S
C106 C107 1.397 . S
C106 C122 1.509 . S
C107 C106 1.397 . S
C107 C108 1.412 . S
C107 C128 1.485 . S
C108 C107 1.412 . S
C108 C109 1.388 . S
C108 C134 1.490 . S
C109 C104 1.397 . S
C109 C108 1.388 . S
C109 C140 1.519 . S
C110 C104 1.492 . S
C110 C111 1.363 . S
C110 C115 1.390 . S
C111 H76 0.930 . S
C111 C110 1.363 . S
C111 C112 1.372 . S
C112 H77 0.930 . S
C112 C111 1.372 . S
C112 C113 1.383 . S
C113 C112 1.383 . S
C113 C114 1.395 . S
C114 H78 0.930 . S
C114 C113 1.395 . S
C114 C115 1.362 . S
C115 H79 0.930 . S
C115 C110 1.390 . S
C115 C114 1.362 . S
C116 C105 1.492 . S
C116 C117 1.377 . S
C116 C121 1.397 . S
C117 H80 0.931 . S
C117 C116 1.377 . S
C117 C118 1.376 . S
C118 H81 0.930 . S
C118 C117 1.376 . S
C118 C119 1.376 . S
C119 C118 1.376 . S
C119 C120 1.378 . S
C119 C146 1.486 . S
C120 H82 0.930 . S
C120 C119 1.378 . S
C120 C121 1.376 . S
C121 H83 0.929 . S
C121 C116 1.397 . S
C121 C120 1.376 . S
C122 C106 1.509 . S
C122 C123 1.391 . S
C122 C127 1.386 . S
C123 H84 0.930 . S
C123 C122 1.391 . S
C123 C124 1.375 . S
C124 H85 0.931 . S
C124 C123 1.375 . S
C124 C125 1.375 . S
C125 C124 1.375 . S
C125 C126 1.361 . S
C126 H86 0.930 . S
C126 C125 1.361 . S
C126 C127 1.399 . S
C127 H87 0.929 . S
C127 C122 1.386 . S
C127 C126 1.399 . S
C128 C107 1.485 . S
C128 C129 1.394 . S
C128 C133 1.360 . S
C129 H88 0.931 . S
C129 C128 1.394 . S
C129 C130 1.372 . S
C130 H89 0.930 . S
C130 C129 1.372 . S
C130 C131 1.397 . S
C131 C130 1.397 . S
C131 C132 1.390 . S
C131 C147 1.476 . S
C132 H90 0.930 . S
C132 C131 1.390 . S
C132 C133 1.366 . S
C133 H91 0.932 . S
C133 C128 1.360 . S
C133 C132 1.366 . S
C134 C108 1.490 . S
C134 C135 1.380 . S
C134 C139 1.386 . S
C135 H92 0.930 . S
C135 C134 1.380 . S
C135 C136 1.381 . S
C136 H93 0.929 . S
C136 C135 1.381 . S
C136 C137 1.371 . S
C137 C136 1.371 . S
C137 C138 1.380 . S
C138 H94 0.931 . S
C138 C137 1.380 . S
C138 C139 1.387 . S
C139 H95 0.930 . S
C139 C134 1.386 . S
C139 C138 1.387 . S
C140 C109 1.519 . S
C140 C141 1.377 . S
C140 C145 1.361 . S
C141 H96 0.929 . S
C141 C140 1.377 . S
C141 C142 1.386 . S
C142 H97 0.931 . S
C142 C141 1.386 . S
C142 C143 1.363 . S
C143 C142 1.363 . S
C143 C144 1.385 . S
C144 H98 0.930 . S
C144 C143 1.385 . S
C144 C145 1.396 . S
C145 H99 0.929 . S
C145 C140 1.361 . S
C145 C144 1.396 . S
C146 O100 1.300 . S
C146 O101 1.209 . S
C146 C119 1.486 . S
C147 O102 1.199 . S
C147 O103 1.297 . S
C147 C131 1.476 . S
H148 O174 0.856 . S
H149 O177 0.854 . S
H150 C185 0.930 . S
H151 C186 0.930 . S
H152 C188 0.930 . S
H153 C189 0.930 . S
H154 C191 0.931 . S
H155 C192 0.930 . S
H156 C194 0.930 . S
H157 C195 0.929 . S
H158 C197 0.930 . S
H159 C198 0.931 . S
H160 C200 0.930 . S
H161 C201 0.929 . S
H162 C203 0.931 . S
H163 C204 0.930 . S
H164 C206 0.930 . S
H165 C207 0.932 . S
H166 C209 0.930 . S
H167 C210 0.929 . S
H168 C212 0.931 . S
H169 C213 0.930 . S
H170 C215 0.929 . S
H171 C216 0.931 . S
H172 C218 0.930 . S
H173 C219 0.929 . S
O174 H148 0.856 . S
O174 C220 1.300 . S
O175 C220 1.209 . S
O176 C221 1.199 . S
O177 H149 0.854 . S
O177 C221 1.297 . S
C178 C179 1.404 . S
C178 C183 1.397 . S
C178 C184 1.492 . S
C179 C178 1.404 . S
C179 C180 1.396 . S
C179 C190 1.492 . S
C180 C179 1.396 . S
C180 C181 1.397 . S
C180 C196 1.509 . S
C181 C180 1.397 . S
C181 C182 1.412 . S
C181 C202 1.485 . S
C182 C181 1.412 . S
C182 C183 1.388 . S
C182 C208 1.490 . S
C183 C178 1.397 . S
C183 C182 1.388 . S
C183 C214 1.519 . S
C184 C178 1.492 . S
C184 C185 1.363 . S
C184 C189 1.390 . S
C185 H150 0.930 . S
C185 C184 1.363 . S
C185 C186 1.372 . S
C186 H151 0.930 . S
C186 C185 1.372 . S
C186 C187 1.383 . S
C187 C186 1.383 . S
C187 C188 1.395 . S
C188 H152 0.930 . S
C188 C187 1.395 . S
C188 C189 1.362 . S
C189 H153 0.930 . S
C189 C184 1.390 . S
C189 C188 1.362 . S
C190 C179 1.492 . S
C190 C191 1.377 . S
C190 C195 1.397 . S
C191 H154 0.931 . S
C191 C190 1.377 . S
C191 C192 1.376 . S
C192 H155 0.930 . S
C192 C191 1.376 . S
C192 C193 1.376 . S
C193 C192 1.376 . S
C193 C194 1.378 . S
C193 C220 1.486 . S
C194 H156 0.930 . S
C194 C193 1.378 . S
C194 C195 1.376 . S
C195 H157 0.929 . S
C195 C190 1.397 . S
C195 C194 1.376 . S
C196 C180 1.509 . S
C196 C197 1.391 . S
C196 C201 1.386 . S
C197 H158 0.930 . S
C197 C196 1.391 . S
C197 C198 1.375 . S
C198 H159 0.931 . S
C198 C197 1.375 . S
C198 C199 1.375 . S
C199 C198 1.375 . S
C199 C200 1.361 . S
C200 H160 0.930 . S
C200 C199 1.361 . S
C200 C201 1.399 . S
C201 H161 0.929 . S
C201 C196 1.386 . S
C201 C200 1.399 . S
C202 C181 1.485 . S
C202 C203 1.394 . S
C202 C207 1.360 . S
C203 H162 0.931 . S
C203 C202 1.394 . S
C203 C204 1.372 . S
C204 H163 0.930 . S
C204 C203 1.372 . S
C204 C205 1.397 . S
C205 C204 1.397 . S
C205 C206 1.390 . S
C205 C221 1.476 . S
C206 H164 0.930 . S
C206 C205 1.390 . S
C206 C207 1.366 . S
C207 H165 0.932 . S
C207 C202 1.360 . S
C207 C206 1.366 . S
C208 C182 1.490 . S
C208 C209 1.380 . S
C208 C213 1.386 . S
C209 H166 0.930 . S
C209 C208 1.380 . S
C209 C210 1.381 . S
C210 H167 0.929 . S
C210 C209 1.381 . S
C210 C211 1.371 . S
C211 C210 1.371 . S
C211 C212 1.380 . S
C212 H168 0.931 . S
C212 C211 1.380 . S
C212 C213 1.387 . S
C213 H169 0.930 . S
C213 C208 1.386 . S
C213 C212 1.387 . S
C214 C183 1.519 . S
C214 C215 1.377 . S
C214 C219 1.361 . S
C215 H170 0.929 . S
C215 C214 1.377 . S
C215 C216 1.386 . S
C216 H171 0.931 . S
C216 C215 1.386 . S
C216 C217 1.363 . S
C217 C216 1.363 . S
C217 C218 1.385 . S
C218 H172 0.930 . S
C218 C217 1.385 . S
C218 C219 1.396 . S
C219 H173 0.929 . S
C219 C214 1.361 . S
C219 C218 1.396 . S
C220 O174 1.300 . S
C220 O175 1.209 . S
C220 C193 1.486 . S
C221 O176 1.199 . S
C221 O177 1.297 . S
C221 C205 1.476 . S
H222 O248 0.856 . S
H223 O251 0.854 1_556 S
H224 C259 0.930 . S
H225 C260 0.930 . S
H226 C262 0.930 . S
H227 C263 0.930 . S
H228 C265 0.931 . S
H229 C266 0.930 . S
H230 C268 0.930 1_545 S
H231 C269 0.929 . S
H232 C271 0.930 . S
H233 C272 0.931 . S
H234 C274 0.930 . S
H235 C275 0.929 . S
H236 C277 0.931 . S
H237 C278 0.930 . S
H238 C280 0.930 . S
H239 C281 0.932 . S
H240 C283 0.930 . S
H241 C284 0.929 . S
H242 C286 0.931 . S
H243 C287 0.930 . S
H244 C289 0.929 . S
H245 C290 0.931 . S
H246 C292 0.930 . S
H247 C293 0.929 . S
O248 H222 0.856 . S
O248 C294 1.300 . S
O249 C294 1.209 . S
O250 C295 1.199 . S
O251 H223 0.854 1_554 S
O251 C295 1.297 . S
C252 C253 1.404 . S
C252 C257 1.397 . S
C252 C258 1.492 . S
C253 C252 1.404 . S
C253 C254 1.396 . S
C253 C264 1.492 . S
C254 C253 1.396 . S
C254 C255 1.397 . S
C254 C270 1.509 . S
C255 C254 1.397 . S
C255 C256 1.412 . S
C255 C276 1.485 . S
C256 C255 1.412 . S
C256 C257 1.388 . S
C256 C282 1.490 . S
C257 C252 1.397 . S
C257 C256 1.388 . S
C257 C288 1.519 . S
C258 C252 1.492 . S
C258 C259 1.363 . S
C258 C263 1.390 . S
C259 H224 0.930 . S
C259 C258 1.363 . S
C259 C260 1.372 . S
C260 H225 0.930 . S
C260 C259 1.372 . S
C260 C261 1.383 . S
C261 C260 1.383 . S
C261 C262 1.395 . S
C262 H226 0.930 . S
C262 C261 1.395 . S
C262 C263 1.362 . S
C263 H227 0.930 . S
C263 C258 1.390 . S
C263 C262 1.362 . S
C264 C253 1.492 . S
C264 C265 1.377 . S
C264 C269 1.397 . S
C265 H228 0.931 . S
C265 C264 1.377 . S
C265 C266 1.376 . S
C266 H229 0.930 . S
C266 C265 1.376 . S
C266 C267 1.376 . S
C267 C266 1.376 . S
C267 C268 1.378 . S
C267 C294 1.486 1_565 S
C268 H230 0.930 1_565 S
C268 C267 1.378 . S
C268 C269 1.376 . S
C269 H231 0.929 . S
C269 C264 1.397 . S
C269 C268 1.376 . S
C270 C254 1.509 . S
C270 C271 1.391 . S
C270 C275 1.386 . S
C271 H232 0.930 . S
C271 C270 1.391 . S
C271 C272 1.375 . S
C272 H233 0.931 . S
C272 C271 1.375 . S
C272 C273 1.375 . S
C273 C272 1.375 . S
C273 C274 1.361 . S
C274 H234 0.930 . S
C274 C273 1.361 . S
C274 C275 1.399 . S
C275 H235 0.929 . S
C275 C270 1.386 . S
C275 C274 1.399 . S
C276 C255 1.485 . S
C276 C277 1.394 . S
C276 C281 1.360 . S
C277 H236 0.931 . S
C277 C276 1.394 . S
C277 C278 1.372 . S
C278 H237 0.930 . S
C278 C277 1.372 . S
C278 C279 1.397 . S
C279 C278 1.397 . S
C279 C280 1.390 . S
C279 C295 1.476 . S
C280 H238 0.930 . S
C280 C279 1.390 . S
C280 C281 1.366 . S
C281 H239 0.932 . S
C281 C276 1.360 . S
C281 C280 1.366 . S
C282 C256 1.490 . S
C282 C283 1.380 . S
C282 C287 1.386 . S
C283 H240 0.930 . S
C283 C282 1.380 . S
C283 C284 1.381 . S
C284 H241 0.929 . S
C284 C283 1.381 . S
C284 C285 1.371 . S
C285 C284 1.371 . S
C285 C286 1.380 . S
C286 H242 0.931 . S
C286 C285 1.380 . S
C286 C287 1.387 . S
C287 H243 0.930 . S
C287 C282 1.386 . S
C287 C286 1.387 . S
C288 C257 1.519 . S
C288 C289 1.377 . S
C288 C293 1.361 . S
C289 H244 0.929 . S
C289 C288 1.377 . S
C289 C290 1.386 . S
C290 H245 0.931 . S
C290 C289 1.386 . S
C290 C291 1.363 . S
C291 C290 1.363 . S
C291 C292 1.385 . S
C292 H246 0.930 . S
C292 C291 1.385 . S
C292 C293 1.396 . S
C293 H247 0.929 . S
C293 C288 1.361 . S
C293 C292 1.396 . S
C294 O248 1.300 . S
C294 O249 1.209 . S
C294 C267 1.486 1_545 S
C295 O250 1.199 . S
C295 O251 1.297 . S
C295 C279 1.476 . S
H296 O322 0.856 1_545 S
H297 O325 0.854 . S
H298 C333 0.930 . S
H299 C334 0.930 . S
H300 C336 0.930 . S
H301 C337 0.930 . S
H302 C339 0.931 . S
H303 C340 0.930 . S
H304 C342 0.930 . S
H305 C343 0.929 . S
H306 C345 0.930 . S
H307 C346 0.931 . S
H308 C348 0.930 . S
H309 C349 0.929 . S
H310 C351 0.931 . S
H311 C352 0.930 . S
H312 C354 0.930 . S
H313 C355 0.932 . S
H314 C357 0.930 . S
H315 C358 0.929 . S
H316 C360 0.931 . S
H317 C361 0.930 . S
H318 C363 0.929 . S
H319 C364 0.931 . S
H320 C366 0.930 . S
H321 C367 0.929 . S
O322 H296 0.856 1_565 S
O322 C368 1.300 . S
O323 C368 1.209 1_545 S
O324 C369 1.199 . S
O325 H297 0.854 . S
O325 C369 1.297 . S
C326 C327 1.404 . S
C326 C331 1.397 . S
C326 C332 1.492 . S
C327 C326 1.404 . S
C327 C328 1.396 . S
C327 C338 1.492 . S
C328 C327 1.396 . S
C328 C329 1.397 . S
C328 C344 1.509 . S
C329 C328 1.397 . S
C329 C330 1.412 . S
C329 C350 1.485 . S
C330 C329 1.412 . S
C330 C331 1.388 . S
C330 C356 1.490 . S
C331 C326 1.397 . S
C331 C330 1.388 . S
C331 C362 1.519 . S
C332 C326 1.492 . S
C332 C333 1.363 . S
C332 C337 1.390 . S
C333 H298 0.930 . S
C333 C332 1.363 . S
C333 C334 1.372 . S
C334 H299 0.930 . S
C334 C333 1.372 . S
C334 C335 1.383 . S
C335 C334 1.383 . S
C335 C336 1.395 . S
C336 H300 0.930 . S
C336 C335 1.395 . S
C336 C337 1.362 . S
C337 H301 0.930 . S
C337 C332 1.390 . S
C337 C336 1.362 . S
C338 C327 1.492 . S
C338 C339 1.377 . S
C338 C343 1.397 . S
C339 H302 0.931 . S
C339 C338 1.377 . S
C339 C340 1.376 . S
C340 H303 0.930 . S
C340 C339 1.376 . S
C340 C341 1.376 . S
C341 C340 1.376 . S
C341 C342 1.378 . S
C341 C368 1.486 . S
C342 H304 0.930 . S
C342 C341 1.378 . S
C342 C343 1.376 . S
C343 H305 0.929 . S
C343 C338 1.397 . S
C343 C342 1.376 . S
C344 C328 1.509 . S
C344 C345 1.391 . S
C344 C349 1.386 . S
C345 H306 0.930 . S
C345 C344 1.391 . S
C345 C346 1.375 . S
C346 H307 0.931 . S
C346 C345 1.375 . S
C346 C347 1.375 1_565 S
C347 C346 1.375 1_545 S
C347 C348 1.361 . S
C348 H308 0.930 . S
C348 C347 1.361 . S
C348 C349 1.399 1_545 S
C349 H309 0.929 . S
C349 C344 1.386 . S
C349 C348 1.399 1_565 S
C350 C329 1.485 . S
C350 C351 1.394 . S
C350 C355 1.360 . S
C351 H310 0.931 . S
C351 C350 1.394 . S
C351 C352 1.372 . S
C352 H311 0.930 . S
C352 C351 1.372 . S
C352 C353 1.397 . S
C353 C352 1.397 . S
C353 C354 1.390 . S
C353 C369 1.476 . S
C354 H312 0.930 . S
C354 C353 1.390 . S
C354 C355 1.366 . S
C355 H313 0.932 . S
C355 C350 1.360 . S
C355 C354 1.366 . S
C356 C330 1.490 . S
C356 C357 1.380 . S
C356 C361 1.386 . S
C357 H314 0.930 . S
C357 C356 1.380 . S
C357 C358 1.381 . S
C358 H315 0.929 . S
C358 C357 1.381 . S
C358 C359 1.371 . S
C359 C358 1.371 . S
C359 C360 1.380 . S
C360 H316 0.931 . S
C360 C359 1.380 . S
C360 C361 1.387 . S
C361 H317 0.930 . S
C361 C356 1.386 . S
C361 C360 1.387 . S
C362 C331 1.519 . S
C362 C363 1.377 . S
C362 C367 1.361 . S
C363 H318 0.929 . S
C363 C362 1.377 . S
C363 C364 1.386 . S
C364 H319 0.931 . S
C364 C363 1.386 . S
C364 C365 1.363 . S
C365 C364 1.363 . S
C365 C366 1.385 . S
C366 H320 0.930 . S
C366 C365 1.385 . S
C366 C367 1.396 . S
C367 H321 0.929 . S
C367 C362 1.361 . S
C367 C366 1.396 . S
C368 O322 1.300 . S
C368 O323 1.209 1_565 S
C368 C341 1.486 . S
C369 O324 1.199 . S
C369 O325 1.297 . S
C369 C353 1.476 . S
H370 O396 0.856 . S
H371 O399 0.854 . S
H372 C407 0.930 . S
H373 C408 0.930 . S
H374 C410 0.930 . S
H375 C411 0.930 . S
H376 C413 0.931 . S
H377 C414 0.930 . S
H378 C416 0.930 . S
H379 C417 0.929 . S
H380 C419 0.930 . S
H381 C420 0.931 . S
H382 C422 0.930 . S
H383 C423 0.929 . S
H384 C425 0.931 . S
H385 C426 0.930 . S
H386 C428 0.930 . S
H387 C429 0.932 . S
H388 C431 0.930 . S
H389 C432 0.929 . S
H390 C434 0.931 . S
H391 C435 0.930 . S
H392 C437 0.929 . S
H393 C438 0.931 . S
H394 C440 0.930 . S
H395 C441 0.929 . S
O396 H370 0.856 . S
O396 C442 1.300 . S
O397 C442 1.209 . S
O398 C443 1.199 . S
O399 H371 0.854 . S
O399 C443 1.297 . S
C400 C401 1.404 . S
C400 C405 1.397 . S
C400 C406 1.492 . S
C401 C400 1.404 . S
C401 C402 1.396 . S
C401 C412 1.492 . S
C402 C401 1.396 . S
C402 C403 1.397 . S
C402 C418 1.509 . S
C403 C402 1.397 . S
C403 C404 1.412 . S
C403 C424 1.485 . S
C404 C403 1.412 . S
C404 C405 1.388 . S
C404 C430 1.490 . S
C405 C400 1.397 . S
C405 C404 1.388 . S
C405 C436 1.519 . S
C406 C400 1.492 . S
C406 C407 1.363 . S
C406 C411 1.390 . S
C407 H372 0.930 . S
C407 C406 1.363 . S
C407 C408 1.372 . S
C408 H373 0.930 . S
C408 C407 1.372 . S
C408 C409 1.383 . S
C409 C408 1.383 . S
C409 C410 1.395 . S
C410 H374 0.930 . S
C410 C409 1.395 . S
C410 C411 1.362 . S
C411 H375 0.930 . S
C411 C406 1.390 . S
C411 C410 1.362 . S
C412 C401 1.492 . S
C412 C413 1.377 . S
C412 C417 1.397 . S
C413 H376 0.931 . S
C413 C412 1.377 . S
C413 C414 1.376 . S
C414 H377 0.930 . S
C414 C413 1.376 . S
C414 C415 1.376 . S
C415 C414 1.376 . S
C415 C416 1.378 . S
C415 C442 1.486 . S
C416 H378 0.930 . S
C416 C415 1.378 . S
C416 C417 1.376 . S
C417 H379 0.929 . S
C417 C412 1.397 . S
C417 C416 1.376 . S
C418 C402 1.509 . S
C418 C419 1.391 . S
C418 C423 1.386 . S
C419 H380 0.930 . S
C419 C418 1.391 . S
C419 C420 1.375 . S
C420 H381 0.931 . S
C420 C419 1.375 . S
C420 C421 1.375 . S
C421 C420 1.375 . S
C421 C422 1.361 . S
C422 H382 0.930 . S
C422 C421 1.361 . S
C422 C423 1.399 . S
C423 H383 0.929 . S
C423 C418 1.386 . S
C423 C422 1.399 . S
C424 C403 1.485 . S
C424 C425 1.394 . S
C424 C429 1.360 . S
C425 H384 0.931 . S
C425 C424 1.394 . S
C425 C426 1.372 . S
C426 H385 0.930 . S
C426 C425 1.372 . S
C426 C427 1.397 . S
C427 C426 1.397 . S
C427 C428 1.390 . S
C427 C443 1.476 . S
C428 H386 0.930 . S
C428 C427 1.390 . S
C428 C429 1.366 . S
C429 H387 0.932 . S
C429 C424 1.360 . S
C429 C428 1.366 . S
C430 C404 1.490 . S
C430 C431 1.380 . S
C430 C435 1.386 . S
C431 H388 0.930 . S
C431 C430 1.380 . S
C431 C432 1.381 . S
C432 H389 0.929 . S
C432 C431 1.381 . S
C432 C433 1.371 . S
C433 C432 1.371 . S
C433 C434 1.380 . S
C434 H390 0.931 . S
C434 C433 1.380 . S
C434 C435 1.387 . S
C435 H391 0.930 . S
C435 C430 1.386 . S
C435 C434 1.387 . S
C436 C405 1.519 . S
C436 C437 1.377 . S
C436 C441 1.361 . S
C437 H392 0.929 . S
C437 C436 1.377 . S
C437 C438 1.386 . S
C438 H393 0.931 . S
C438 C437 1.386 . S
C438 C439 1.363 . S
C439 C438 1.363 . S
C439 C440 1.385 . S
C440 H394 0.930 . S
C440 C439 1.385 . S
C440 C441 1.396 . S
C441 H395 0.929 . S
C441 C436 1.361 . S
C441 C440 1.396 . S
C442 O396 1.300 . S
C442 O397 1.209 . S
C442 C415 1.486 . S
C443 O398 1.199 . S
C443 O399 1.297 . S
C443 C427 1.476 . S
H444 O470 0.856 . S
H445 O473 0.854 . S
H446 C481 0.930 . S
H447 C482 0.930 . S
H448 C484 0.930 . S
H449 C485 0.930 . S
H450 C487 0.931 . S
H451 C488 0.930 . S
H452 C490 0.930 . S
H453 C491 0.929 . S
H454 C493 0.930 . S
H455 C494 0.931 . S
H456 C496 0.930 . S
H457 C497 0.929 . S
H458 C499 0.931 . S
H459 C500 0.930 . S
H460 C502 0.930 . S
H461 C503 0.932 . S
H462 C505 0.930 . S
H463 C506 0.929 . S
H464 C508 0.931 . S
H465 C509 0.930 . S
H466 C511 0.929 . S
H467 C512 0.931 . S
H468 C514 0.930 . S
H469 C515 0.929 . S
O470 H444 0.856 . S
O470 C516 1.300 . S
O471 C516 1.209 . S
O472 C517 1.199 . S
O473 H445 0.854 . S
O473 C517 1.297 . S
C474 C475 1.404 . S
C474 C479 1.397 . S
C474 C480 1.492 . S
C475 C474 1.404 . S
C475 C476 1.396 . S
C475 C486 1.492 . S
C476 C475 1.396 . S
C476 C477 1.397 . S
C476 C492 1.509 . S
C477 C476 1.397 . S
C477 C478 1.412 . S
C477 C498 1.485 . S
C478 C477 1.412 . S
C478 C479 1.388 . S
C478 C504 1.490 . S
C479 C474 1.397 . S
C479 C478 1.388 . S
C479 C510 1.519 . S
C480 C474 1.492 . S
C480 C481 1.363 . S
C480 C485 1.390 . S
C481 H446 0.930 . S
C481 C480 1.363 . S
C481 C482 1.372 . S
C482 H447 0.930 . S
C482 C481 1.372 . S
C482 C483 1.383 . S
C483 C482 1.383 . S
C483 C484 1.395 . S
C484 H448 0.930 . S
C484 C483 1.395 . S
C484 C485 1.362 . S
C485 H449 0.930 . S
C485 C480 1.390 . S
C485 C484 1.362 . S
C486 C475 1.492 . S
C486 C487 1.377 . S
C486 C491 1.397 . S
C487 H450 0.931 . S
C487 C486 1.377 . S
C487 C488 1.376 . S
C488 H451 0.930 . S
C488 C487 1.376 . S
C488 C489 1.376 . S
C489 C488 1.376 . S
C489 C490 1.378 . S
C489 C516 1.486 . S
C490 H452 0.930 . S
C490 C489 1.378 . S
C490 C491 1.376 . S
C491 H453 0.929 . S
C491 C486 1.397 . S
C491 C490 1.376 . S
C492 C476 1.509 . S
C492 C493 1.391 . S
C492 C497 1.386 . S
C493 H454 0.930 . S
C493 C492 1.391 . S
C493 C494 1.375 . S
C494 H455 0.931 . S
C494 C493 1.375 . S
C494 C495 1.375 . S
C495 C494 1.375 . S
C495 C496 1.361 . S
C496 H456 0.930 . S
C496 C495 1.361 . S
C496 C497 1.399 . S
C497 H457 0.929 . S
C497 C492 1.386 . S
C497 C496 1.399 . S
C498 C477 1.485 . S
C498 C499 1.394 . S
C498 C503 1.360 . S
C499 H458 0.931 . S
C499 C498 1.394 . S
C499 C500 1.372 . S
C500 H459 0.930 . S
C500 C499 1.372 . S
C500 C501 1.397 . S
C501 C500 1.397 . S
C501 C502 1.390 . S
C501 C517 1.476 . S
C502 H460 0.930 . S
C502 C501 1.390 . S
C502 C503 1.366 . S
C503 H461 0.932 . S
C503 C498 1.360 . S
C503 C502 1.366 . S
C504 C478 1.490 . S
C504 C505 1.380 . S
C504 C509 1.386 . S
C505 H462 0.930 . S
C505 C504 1.380 . S
C505 C506 1.381 . S
C506 H463 0.929 . S
C506 C505 1.381 . S
C506 C507 1.371 . S
C507 C506 1.371 . S
C507 C508 1.380 . S
C508 H464 0.931 . S
C508 C507 1.380 . S
C508 C509 1.387 . S
C509 H465 0.930 . S
C509 C504 1.386 . S
C509 C508 1.387 . S
C510 C479 1.519 . S
C510 C511 1.377 . S
C510 C515 1.361 . S
C511 H466 0.929 . S
C511 C510 1.377 . S
C511 C512 1.386 . S
C512 H467 0.931 . S
C512 C511 1.386 . S
C512 C513 1.363 . S
C513 C512 1.363 . S
C513 C514 1.385 . S
C514 H468 0.930 . S
C514 C513 1.385 . S
C514 C515 1.396 . S
C515 H469 0.929 . S
C515 C510 1.361 . S
C515 C514 1.396 . S
C516 O470 1.300 . S
C516 O471 1.209 . S
C516 C489 1.486 . S
C517 O472 1.199 . S
C517 O473 1.297 . S
C517 C501 1.476 . S
H518 O544 0.856 . S
H519 O547 0.848 1_554 S
H520 C555 0.930 . S
H521 C556 0.930 . S
H522 C558 0.930 . S
H523 C559 0.930 . S
H524 C561 0.931 . S
H525 C562 0.930 . S
H526 C564 0.930 . S
H527 C565 0.929 . S
H528 C567 0.930 . S
H529 C568 0.931 . S
H530 C570 0.930 . S
H531 C571 0.929 . S
H532 C573 0.931 . S
H533 C574 0.917 1_554 S
H534 C576 0.930 . S
H535 C577 0.932 . S
H536 C579 0.930 . S
H537 C580 0.929 . S
H538 C582 0.931 . S
H539 C583 0.930 . S
H540 C585 0.929 . S
H541 C586 0.931 . S
H542 C588 0.930 . S
H543 C589 0.929 . S
O544 H518 0.856 . S
O544 C590 1.300 . S
O545 C590 1.209 . S
O546 C591 1.199 . S
O547 H519 0.848 1_556 S
O547 C591 1.297 1_556 S
C548 C549 1.404 . S
C548 C553 1.397 . S
C548 C554 1.492 . S
C549 C548 1.404 . S
C549 C550 1.396 . S
C549 C560 1.492 . S
C550 C549 1.396 . S
C550 C551 1.397 . S
C550 C566 1.509 . S
C551 C550 1.397 . S
C551 C552 1.412 . S
C551 C572 1.485 . S
C552 C551 1.412 . S
C552 C553 1.388 . S
C552 C578 1.490 . S
C553 C548 1.397 . S
C553 C552 1.388 . S
C553 C584 1.519 . S
C554 C548 1.492 . S
C554 C555 1.363 . S
C554 C559 1.390 . S
C555 H520 0.930 . S
C555 C554 1.363 . S
C555 C556 1.372 . S
C556 H521 0.930 . S
C556 C555 1.372 . S
C556 C557 1.383 . S
C557 C556 1.383 . S
C557 C558 1.395 . S
C558 H522 0.930 . S
C558 C557 1.395 . S
C558 C559 1.362 . S
C559 H523 0.930 . S
C559 C554 1.390 . S
C559 C558 1.362 . S
C560 C549 1.492 . S
C560 C561 1.377 . S
C560 C565 1.397 . S
C561 H524 0.931 . S
C561 C560 1.377 . S
C561 C562 1.376 . S
C562 H525 0.930 . S
C562 C561 1.376 . S
C562 C563 1.376 . S
C563 C562 1.376 . S
C563 C564 1.378 . S
C563 C590 1.486 . S
C564 H526 0.930 . S
C564 C563 1.378 . S
C564 C565 1.376 . S
C565 H527 0.929 . S
C565 C560 1.397 . S
C565 C564 1.376 . S
C566 C550 1.509 . S
C566 C567 1.391 . S
C566 C571 1.386 . S
C567 H528 0.930 . S
C567 C566 1.391 . S
C567 C568 1.375 . S
C568 H529 0.931 . S
C568 C567 1.375 . S
C568 C569 1.375 . S
C569 C568 1.375 . S
C569 C570 1.361 . S
C570 H530 0.930 . S
C570 C569 1.361 . S
C570 C571 1.399 . S
C571 H531 0.929 . S
C571 C566 1.386 . S
C571 C570 1.399 . S
C572 C551 1.485 . S
C572 C573 1.394 . S
C572 C577 1.360 . S
C573 H532 0.931 . S
C573 C572 1.394 . S
C573 C574 1.372 . S
C574 H533 0.917 1_556 S
C574 C573 1.372 . S
C574 C575 1.397 . S
C575 C574 1.397 . S
C575 C576 1.390 . S
C575 C591 1.476 1_556 S
C576 H534 0.930 . S
C576 C575 1.390 . S
C576 C577 1.366 . S
C577 H535 0.932 . S
C577 C572 1.360 . S
C577 C576 1.366 . S
C578 C552 1.490 . S
C578 C579 1.380 . S
C578 C583 1.386 . S
C579 H536 0.930 . S
C579 C578 1.380 . S
C579 C580 1.381 . S
C580 H537 0.929 . S
C580 C579 1.381 . S
C580 C581 1.371 . S
C581 C580 1.371 . S
C581 C582 1.380 . S
C582 H538 0.931 . S
C582 C581 1.380 . S
C582 C583 1.387 . S
C583 H539 0.930 . S
C583 C578 1.386 . S
C583 C582 1.387 . S
C584 C553 1.519 . S
C584 C585 1.377 . S
C584 C589 1.361 . S
C585 H540 0.929 . S
C585 C584 1.377 . S
C585 C586 1.386 . S
C586 H541 0.931 . S
C586 C585 1.386 . S
C586 C587 1.363 . S
C587 C586 1.363 . S
C587 C588 1.385 . S
C588 H542 0.930 . S
C588 C587 1.385 . S
C588 C589 1.396 . S
C589 H543 0.929 . S
C589 C584 1.361 . S
C589 C588 1.396 . S
C590 O544 1.300 . S
C590 O545 1.209 . S
C590 C563 1.486 . S
C591 O546 1.199 . S
C591 O547 1.297 1_554 S
C591 C575 1.476 1_554 S
C592 C593 1.443 . S
C592 N596 1.376 . S
C592 C630 1.389 . S
C593 C592 1.443 . S
C593 C594 1.340 . S
C593 H633 0.951 . S
C594 C593 1.340 . S
C594 C595 1.439 . S
C594 H634 0.950 . S
C595 C594 1.439 . S
C595 N596 1.374 . S
C595 C629 1.395 1_455 S
N596 C592 1.376 . S
N596 C595 1.374 . S
N596 Co597 2.025 . S
Co597 N596 2.025 . S
Co597 N598 1.969 1_455 S
Co597 N603 1.992 1_455 S
Co597 N608 2.021 . S
Co597 N613 2.256 1_455 S
Co597 N619 2.309 . S
N598 Co597 1.969 1_655 S
N598 C599 1.376 . S
N598 C602 1.383 . S
C599 N598 1.376 . S
C599 C600 1.446 . S
C599 C629 1.391 . S
C600 C599 1.446 . S
C600 C601 1.339 . S
C600 H635 0.949 . S
C601 C600 1.339 . S
C601 C602 1.439 . S
C601 H636 0.950 . S
C602 N598 1.383 . S
C602 C601 1.439 . S
C602 C631 1.392 . S
N603 Co597 1.992 1_655 S
N603 C604 1.376 . S
N603 C607 1.374 . S
C604 N603 1.376 . S
C604 C605 1.443 . S
C604 C631 1.389 . S
C605 C604 1.443 . S
C605 C606 1.340 . S
C605 H637 0.951 . S
C606 C605 1.340 . S
C606 C607 1.439 . S
C606 H638 0.950 . S
C607 N603 1.374 . S
C607 C606 1.439 . S
C607 C632 1.395 1_655 S
N608 Co597 2.021 . S
N608 C609 1.376 . S
N608 C612 1.383 . S
C609 N608 1.376 . S
C609 C610 1.446 . S
C609 C632 1.391 . S
C610 C609 1.446 . S
C610 C611 1.339 . S
C610 H639 0.949 . S
C611 C610 1.339 . S
C611 C612 1.439 . S
C611 H640 0.950 . S
C612 N608 1.383 . S
C612 C611 1.439 . S
C612 C630 1.392 . S
N613 Co597 2.256 1_655 S
N613 C616 1.332 . S
N613 C618 1.332 . S
C614 C615 1.386 . S
C614 C617 1.388 . S
C615 C614 1.386 . S
C615 C616 1.382 . S
C615 H641 0.950 . S
C616 N613 1.332 . S
C616 C615 1.382 . S
C616 H627 0.952 . S
C617 C614 1.388 . S
C617 C618 1.382 . S
C617 H642 0.950 . S
C618 N613 1.332 . S
C618 C617 1.382 . S
C618 H628 0.948 . S
N619 Co597 2.309 . S
N619 C623 1.332 . S
N619 C624 1.332 . S
C620 C621 1.388 . S
C620 C624 1.382 . S
C620 H643 0.950 . S
C621 C620 1.388 . S
C621 C622 1.386 . S
C622 C621 1.386 . S
C622 C623 1.382 . S
C622 H644 0.950 . S
C623 N619 1.332 . S
C623 C622 1.382 . S
C623 H625 0.952 . S
C624 N619 1.332 . S
C624 C620 1.382 . S
C624 H626 0.948 . S
H625 C623 0.952 . S
H626 C624 0.948 . S
H627 C616 0.952 . S
H628 C618 0.948 . S
C629 C595 1.395 1_655 S
C629 C599 1.391 . S
C630 C592 1.389 . S
C630 C612 1.392 . S
C631 C602 1.392 . S
C631 C604 1.389 . S
C632 C607 1.395 1_455 S
C632 C609 1.391 . S
H633 C593 0.951 . S
H634 C594 0.950 . S
H635 C600 0.949 . S
H636 C601 0.950 . S
H637 C605 0.951 . S
H638 C606 0.950 . S
H639 C610 0.949 . S
H640 C611 0.950 . S
H641 C615 0.950 . S
H642 C617 0.950 . S
H643 C620 0.950 . S
H644 C622 0.950 . S
C645 C646 1.443 . S
C645 N649 1.376 . S
C645 C683 1.389 . S
C646 C645 1.443 . S
C646 C647 1.340 . S
C646 H686 0.951 . S
C647 C646 1.340 . S
C647 C648 1.439 . S
C647 H687 0.950 . S
C648 C647 1.439 . S
C648 N649 1.374 . S
C648 C682 1.395 . S
N649 C645 1.376 . S
N649 C648 1.374 . S
N649 Co650 2.008 . S
Co650 N649 2.008 . S
Co650 N651 1.995 1_545 S
Co650 N656 2.008 1_545 S
Co650 N661 1.995 . S
Co650 N666 2.282 1_545 S
Co650 N672 2.282 . S
N651 Co650 1.995 1_565 S
N651 C652 1.376 . S
N651 C655 1.383 . S
C652 N651 1.376 . S
C652 C653 1.446 . S
C652 C682 1.391 1_565 S
C653 C652 1.446 . S
C653 C654 1.339 . S
C653 H688 0.949 . S
C654 C653 1.339 . S
C654 C655 1.439 . S
C654 H689 0.950 . S
C655 N651 1.383 . S
C655 C654 1.439 . S
C655 C684 1.392 . S
N656 Co650 2.008 1_565 S
N656 C657 1.376 . S
N656 C660 1.374 . S
C657 N656 1.376 . S
C657 C658 1.443 . S
C657 C684 1.389 . S
C658 C657 1.443 . S
C658 C659 1.340 . S
C658 H690 0.951 . S
C659 C658 1.340 . S
C659 C660 1.439 . S
C659 H691 0.950 . S
C660 N656 1.374 . S
C660 C659 1.439 . S
C660 C685 1.395 1_565 S
N661 Co650 1.995 . S
N661 C662 1.376 . S
N661 C665 1.383 . S
C662 N661 1.376 . S
C662 C663 1.446 . S
C662 C685 1.391 . S
C663 C662 1.446 . S
C663 C664 1.339 . S
C663 H692 0.949 . S
C664 C663 1.339 . S
C664 C665 1.439 . S
C664 H693 0.950 . S
C665 N661 1.383 . S
C665 C664 1.439 . S
C665 C683 1.392 . S
N666 Co650 2.282 1_565 S
N666 C669 1.332 . S
N666 C671 1.332 . S
C667 C668 1.386 . S
C667 C670 1.388 . S
C668 C667 1.386 . S
C668 C669 1.382 . S
C668 H694 0.950 . S
C669 N666 1.332 . S
C669 C668 1.382 . S
C669 H680 0.952 . S
C670 C667 1.388 . S
C670 C671 1.382 . S
C670 H695 0.950 . S
C671 N666 1.332 . S
C671 C670 1.382 . S
C671 H681 0.948 . S
N672 Co650 2.282 . S
N672 C676 1.332 . S
N672 C677 1.332 . S
C673 C674 1.388 . S
C673 C677 1.382 . S
C673 H696 0.950 . S
C674 C673 1.388 . S
C674 C675 1.386 . S
C675 C674 1.386 . S
C675 C676 1.382 . S
C675 H697 0.950 . S
C676 N672 1.332 . S
C676 C675 1.382 . S
C676 H678 0.952 . S
C677 N672 1.332 . S
C677 C673 1.382 . S
C677 H679 0.948 . S
H678 C676 0.952 . S
H679 C677 0.948 . S
H680 C669 0.952 . S
H681 C671 0.948 . S
C682 C648 1.395 . S
C682 C652 1.391 1_545 S
C683 C645 1.389 . S
C683 C665 1.392 . S
C684 C655 1.392 . S
C684 C657 1.389 . S
C685 C660 1.395 1_545 S
C685 C662 1.391 . S
H686 C646 0.951 . S
H687 C647 0.950 . S
H688 C653 0.949 . S
H689 C654 0.950 . S
H690 C658 0.951 . S
H691 C659 0.950 . S
H692 C663 0.949 . S
H693 C664 0.950 . S
H694 C668 0.950 . S
H695 C670 0.950 . S
H696 C673 0.950 . S
H697 C675 0.950 . S
C698 C699 1.443 . S
C698 N702 1.376 . S
C698 C736 1.389 . S
C699 C698 1.443 . S
C699 C700 1.340 . S
C699 H739 0.951 . S
C700 C699 1.340 . S
C700 C701 1.439 . S
C700 H740 0.950 . S
C701 C700 1.439 . S
C701 N702 1.374 . S
C701 C735 1.395 . S
N702 C698 1.376 . S
N702 C701 1.374 . S
N702 Co703 2.008 . S
Co703 N702 2.008 . S
Co703 N704 1.995 . S
Co703 N709 2.008 . S
Co703 N714 1.995 . S
Co703 N719 2.282 . S
Co703 N725 2.282 . S
N704 Co703 1.995 . S
N704 C705 1.376 . S
N704 C708 1.383 1_455 S
C705 N704 1.376 . S
C705 C706 1.446 1_455 S
C705 C735 1.391 . S
C706 C705 1.446 1_655 S
C706 C707 1.339 . S
C706 H741 0.949 . S
C707 C706 1.339 . S
C707 C708 1.439 . S
C707 H742 0.950 . S
C708 N704 1.383 1_655 S
C708 C707 1.439 . S
C708 C737 1.392 . S
N709 Co703 2.008 . S
N709 C710 1.376 1_455 S
N709 C713 1.374 . S
C710 N709 1.376 1_655 S
C710 C711 1.443 . S
C710 C737 1.389 . S
C711 C710 1.443 . S
C711 C712 1.340 . S
C711 H743 0.951 . S
C712 C711 1.340 . S
C712 C713 1.439 1_655 S
C712 H744 0.950 . S
C713 N709 1.374 . S
C713 C712 1.439 1_455 S
C713 C738 1.395 . S
N714 Co703 1.995 . S
N714 C715 1.376 . S
N714 C718 1.383 . S
C715 N714 1.376 . S
C715 C716 1.446 . S
C715 C738 1.391 . S
C716 C715 1.446 . S
C716 C717 1.339 . S
C716 H745 0.949 . S
C717 C716 1.339 . S
C717 C718 1.439 . S
C717 H746 0.950 . S
C718 N714 1.383 . S
C718 C717 1.439 . S
C718 C736 1.392 . S
N719 Co703 2.282 . S
N719 C722 1.332 . S
N719 C724 1.332 1_455 S
C720 C721 1.386 . S
C720 C723 1.388 . S
C721 C720 1.386 . S
C721 C722 1.382 1_655 S
C721 H747 0.950 . S
C722 N719 1.332 . S
C722 C721 1.382 1_455 S
C722 H733 0.952 . S
C723 C720 1.388 . S
C723 C724 1.382 . S
C723 H748 0.950 . S
C724 N719 1.332 1_655 S
C724 C723 1.382 . S
C724 H734 0.948 . S
N725 Co703 2.282 . S
N725 C729 1.332 . S
N725 C730 1.332 . S
C726 C727 1.388 . S
C726 C730 1.382 . S
C726 H749 0.950 . S
C727 C726 1.388 . S
C727 C728 1.386 . S
C728 C727 1.386 . S
C728 C729 1.382 . S
C728 H750 0.950 . S
C729 N725 1.332 . S
C729 C728 1.382 . S
C729 H731 0.952 . S
C730 N725 1.332 . S
C730 C726 1.382 . S
C730 H732 0.948 . S
H731 C729 0.952 . S
H732 C730 0.948 . S
H733 C722 0.952 . S
H734 C724 0.948 . S
C735 C701 1.395 . S
C735 C705 1.391 . S
C736 C698 1.389 . S
C736 C718 1.392 . S
C737 C708 1.392 . S
C737 C710 1.389 . S
C738 C713 1.395 . S
C738 C715 1.391 . S
H739 C699 0.951 . S
H740 C700 0.950 . S
H741 C706 0.949 . S
H742 C707 0.950 . S
H743 C711 0.951 . S
H744 C712 0.950 . S
H745 C716 0.949 . S
H746 C717 0.950 . S
H747 C721 0.950 . S
H748 C723 0.950 . S
H749 C726 0.950 . S
H750 C728 0.950 . S
C751 C752 1.443 . S
C751 N755 1.376 . S
C751 C789 1.389 . S
C752 C751 1.443 . S
C752 C753 1.340 . S
C752 H792 0.951 . S
C753 C752 1.340 . S
C753 C754 1.439 . S
C753 H793 0.950 . S
C754 C753 1.439 . S
C754 N755 1.374 . S
C754 C788 1.395 . S
N755 C751 1.376 . S
N755 C754 1.374 . S
N755 Co756 2.008 . S
Co756 N755 2.008 . S
Co756 N757 1.995 . S
Co756 N762 2.008 . S
Co756 N767 1.995 . S
Co756 N772 2.282 . S
Co756 N778 2.282 . S
N757 Co756 1.995 . S
N757 C758 1.376 . S
N757 C761 1.383 . S
C758 N757 1.376 . S
C758 C759 1.446 . S
C758 C788 1.391 . S
C759 C758 1.446 . S
C759 C760 1.339 . S
C759 H794 0.949 . S
C760 C759 1.339 . S
C760 C761 1.439 . S
C760 H795 0.950 . S
C761 N757 1.383 . S
C761 C760 1.439 . S
C761 C790 1.392 . S
N762 Co756 2.008 . S
N762 C763 1.376 . S
N762 C766 1.374 . S
C763 N762 1.376 . S
C763 C764 1.443 . S
C763 C790 1.389 . S
C764 C763 1.443 . S
C764 C765 1.340 . S
C764 H796 0.951 . S
C765 C764 1.340 . S
C765 C766 1.439 . S
C765 H797 0.950 . S
C766 N762 1.374 . S
C766 C765 1.439 . S
C766 C791 1.395 . S
N767 Co756 1.995 . S
N767 C768 1.376 . S
N767 C771 1.383 . S
C768 N767 1.376 . S
C768 C769 1.446 . S
C768 C791 1.391 . S
C769 C768 1.446 . S
C769 C770 1.339 . S
C769 H798 0.949 . S
C770 C769 1.339 . S
C770 C771 1.439 . S
C770 H799 0.950 . S
C771 N767 1.383 . S
C771 C770 1.439 . S
C771 C789 1.392 . S
N772 Co756 2.282 . S
N772 C775 1.332 . S
N772 C777 1.332 . S
C773 C774 1.386 . S
C773 C776 1.388 . S
C774 C773 1.386 . S
C774 C775 1.382 . S
C774 H800 0.950 . S
C775 N772 1.332 . S
C775 C774 1.382 . S
C775 H786 0.952 . S
C776 C773 1.388 . S
C776 C777 1.382 . S
C776 H801 0.950 . S
C777 N772 1.332 . S
C777 C776 1.382 . S
C777 H787 0.948 . S
N778 Co756 2.282 . S
N778 C782 1.332 . S
N778 C783 1.332 . S
C779 C780 1.388 . S
C779 C783 1.382 . S
C779 H802 0.950 . S
C780 C779 1.388 . S
C780 C781 1.386 . S
C781 C780 1.386 . S
C781 C782 1.382 . S
C781 H803 0.950 . S
C782 N778 1.332 . S
C782 C781 1.382 . S
C782 H784 0.952 . S
C783 N778 1.332 . S
C783 C779 1.382 . S
C783 H785 0.948 . S
H784 C782 0.952 . S
H785 C783 0.948 . S
H786 C775 0.952 . S
H787 C777 0.948 . S
C788 C754 1.395 . S
C788 C758 1.391 . S
C789 C751 1.389 . S
C789 C771 1.392 . S
C790 C761 1.392 . S
C790 C763 1.389 . S
C791 C766 1.395 . S
C791 C768 1.391 . S
H792 C752 0.951 . S
H793 C753 0.950 . S
H794 C759 0.949 . S
H795 C760 0.950 . S
H796 C764 0.951 . S
H797 C765 0.950 . S
H798 C769 0.949 . S
H799 C770 0.950 . S
H800 C774 0.950 . S
H801 C776 0.950 . S
H802 C779 0.950 . S
H803 C781 0.950 . S
C804 C805 1.443 . S
C804 N808 1.376 . S
C804 C842 1.389 . S
C805 C804 1.443 . S
C805 C806 1.340 . S
C805 H845 0.951 . S
C806 C805 1.340 . S
C806 C807 1.439 . S
C806 H846 0.950 . S
C807 C806 1.439 . S
C807 N808 1.374 . S
C807 C841 1.395 . S
N808 C804 1.376 . S
N808 C807 1.374 . S
N808 Co809 2.008 . S
Co809 N808 2.008 . S
Co809 N810 1.995 1_554 S
Co809 N815 2.008 1_554 S
Co809 N820 1.995 . S
Co809 N825 2.282 . S
Co809 N831 2.282 1_554 S
N810 Co809 1.995 1_556 S
N810 C811 1.376 . S
N810 C814 1.383 . S
C811 N810 1.376 . S
C811 C812 1.446 . S
C811 C841 1.391 1_556 S
C812 C811 1.446 . S
C812 C813 1.339 . S
C812 H847 0.949 . S
C813 C812 1.339 . S
C813 C814 1.439 . S
C813 H848 0.950 . S
C814 N810 1.383 . S
C814 C813 1.439 . S
C814 C843 1.392 . S
N815 Co809 2.008 1_556 S
N815 C816 1.376 . S
N815 C819 1.374 . S
C816 N815 1.376 . S
C816 C817 1.443 . S
C816 C843 1.389 . S
C817 C816 1.443 . S
C817 C818 1.340 . S
C817 H849 0.951 . S
C818 C817 1.340 . S
C818 C819 1.439 . S
C818 H850 0.950 . S
C819 N815 1.374 . S
C819 C818 1.439 . S
C819 C844 1.395 . S
N820 Co809 1.995 . S
N820 C821 1.376 . S
N820 C824 1.383 . S
C821 N820 1.376 . S
C821 C822 1.446 . S
C821 C844 1.391 1_554 S
C822 C821 1.446 . S
C822 C823 1.339 . S
C822 H851 0.949 . S
C823 C822 1.339 . S
C823 C824 1.439 . S
C823 H852 0.950 . S
C824 N820 1.383 . S
C824 C823 1.439 . S
C824 C842 1.392 . S
N825 Co809 2.282 . S
N825 C828 1.332 . S
N825 C830 1.332 . S
C826 C827 1.386 . S
C826 C829 1.388 . S
C827 C826 1.386 . S
C827 C828 1.382 . S
C827 H853 0.950 . S
C828 N825 1.332 . S
C828 C827 1.382 . S
C828 H839 0.952 . S
C829 C826 1.388 . S
C829 C830 1.382 . S
C829 H854 0.950 . S
C830 N825 1.332 . S
C830 C829 1.382 . S
C830 H840 0.948 . S
N831 Co809 2.282 1_556 S
N831 C835 1.332 . S
N831 C836 1.332 . S
C832 C833 1.388 . S
C832 C836 1.382 . S
C832 H855 0.950 . S
C833 C832 1.388 . S
C833 C834 1.386 . S
C834 C833 1.386 . S
C834 C835 1.382 . S
C834 H856 0.950 . S
C835 N831 1.332 . S
C835 C834 1.382 . S
C835 H837 0.952 . S
C836 N831 1.332 . S
C836 C832 1.382 . S
C836 H838 0.948 . S
H837 C835 0.952 . S
H838 C836 0.948 . S
H839 C828 0.952 . S
H840 C830 0.948 . S
C841 C807 1.395 . S
C841 C811 1.391 1_554 S
C842 C804 1.389 . S
C842 C824 1.392 . S
C843 C814 1.392 . S
C843 C816 1.389 . S
C844 C819 1.395 . S
C844 C821 1.391 1_556 S
H845 C805 0.951 . S
H846 C806 0.950 . S
H847 C812 0.949 . S
H848 C813 0.950 . S
H849 C817 0.951 . S
H850 C818 0.950 . S
H851 C822 0.949 . S
H852 C823 0.950 . S
H853 C827 0.950 . S
H854 C829 0.950 . S
H855 C832 0.950 . S
H856 C834 0.950 . S
C857 C858 1.443 . S
C857 N861 1.376 . S
C857 C895 1.389 . S
C858 C857 1.443 . S
C858 C859 1.340 . S
C858 H898 0.951 . S
C859 C858 1.340 . S
C859 C860 1.439 . S
C859 H899 0.950 . S
C860 C859 1.439 . S
C860 N861 1.374 . S
C860 C894 1.395 1_554 S
N861 C857 1.376 . S
N861 C860 1.374 . S
N861 Co862 2.008 . S
Co862 N861 2.008 . S
Co862 N863 1.995 1_554 S
Co862 N868 2.003 1_554 S
Co862 N873 1.995 . S
Co862 N878 2.282 . S
Co862 N884 2.282 1_554 S
N863 Co862 1.995 1_556 S
N863 C864 1.376 . S
N863 C867 1.383 . S
C864 N863 1.376 . S
C864 C865 1.446 . S
C864 C894 1.391 . S
C865 C864 1.446 . S
C865 C866 1.339 . S
C865 H900 0.949 . S
C866 C865 1.339 . S
C866 C867 1.439 . S
C866 H901 0.950 . S
C867 N863 1.383 . S
C867 C866 1.439 . S
C867 C896 1.392 . S
N868 Co862 2.003 1_556 S
N868 C869 1.387 . S
N868 C872 1.367 1_556 S
C869 N868 1.387 . S
C869 C870 1.443 . S
C869 C896 1.389 . S
C870 C869 1.443 . S
C870 C871 1.340 1_556 S
C870 H902 0.951 . S
C871 C870 1.340 1_554 S
C871 C872 1.439 . S
C871 H903 0.950 . S
C872 N868 1.367 1_554 S
C872 C871 1.439 . S
C872 C897 1.395 . S
N873 Co862 1.995 . S
N873 C874 1.376 . S
N873 C877 1.383 . S
C874 N873 1.376 . S
C874 C875 1.446 . S
C874 C897 1.391 . S
C875 C874 1.446 . S
C875 C876 1.339 . S
C875 H904 0.949 . S
C876 C875 1.339 . S
C876 C877 1.439 . S
C876 H905 0.950 . S
C877 N873 1.383 . S
C877 C876 1.439 . S
C877 C895 1.392 . S
N878 Co862 2.282 . S
N878 C881 1.332 . S
N878 C883 1.332 . S
C879 C880 1.386 . S
C879 C882 1.388 . S
C880 C879 1.386 . S
C880 C881 1.382 . S
C880 H906 0.950 . S
C881 N878 1.332 . S
C881 C880 1.382 . S
C881 H892 0.952 . S
C882 C879 1.388 . S
C882 C883 1.382 . S
C882 H907 0.950 . S
C883 N878 1.332 . S
C883 C882 1.382 . S
C883 H893 0.948 . S
N884 Co862 2.282 1_556 S
N884 C888 1.332 . S
N884 C889 1.332 . S
C885 C886 1.388 . S
C885 C889 1.382 . S
C885 H908 0.950 . S
C886 C885 1.388 . S
C886 C887 1.386 . S
C887 C886 1.386 . S
C887 C888 1.382 . S
C887 H909 0.950 . S
C888 N884 1.332 . S
C888 C887 1.382 . S
C888 H890 0.952 . S
C889 N884 1.332 . S
C889 C885 1.382 . S
C889 H891 0.948 . S
H890 C888 0.952 . S
H891 C889 0.948 . S
H892 C881 0.952 . S
H893 C883 0.948 . S
C894 C860 1.395 1_556 S
C894 C864 1.391 . S
C895 C857 1.389 . S
C895 C877 1.392 . S
C896 C867 1.392 . S
C896 C869 1.389 . S
C897 C872 1.395 . S
C897 C874 1.391 . S
H898 C858 0.951 . S
H899 C859 0.950 . S
H900 C865 0.949 . S
H901 C866 0.950 . S
H902 C870 0.951 . S
H903 C871 0.950 . S
H904 C875 0.949 . S
H905 C876 0.950 . S
H906 C880 0.950 . S
H907 C882 0.950 . S
H908 C885 0.950 . S
H909 C887 0.950 . S
C910 C911 1.443 . S
C910 N914 1.376 . S
C910 C948 1.389 1_554 S
C911 C910 1.443 . S
C911 C912 1.340 . S
C911 H951 0.951 1_554 S
C912 C911 1.340 . S
C912 C913 1.439 . S
C912 H952 0.950 . S
C913 C912 1.439 . S
C913 N914 1.374 . S
C913 C947 1.395 . S
N914 C910 1.376 . S
N914 C913 1.374 . S
N914 Co915 2.008 . S
Co915 N914 2.008 . S
Co915 N916 1.995 . S
Co915 N921 2.008 . S
Co915 N926 1.995 . S
Co915 N931 2.282 . S
Co915 N937 2.282 . S
N916 Co915 1.995 . S
N916 C917 1.376 . S
N916 C920 1.383 . S
C917 N916 1.376 . S
C917 C918 1.446 . S
C917 C947 1.391 . S
C918 C917 1.446 . S
C918 C919 1.339 . S
C918 H953 0.949 . S
C919 C918 1.339 . S
C919 C920 1.439 . S
C919 H954 0.950 . S
C920 N916 1.383 . S
C920 C919 1.439 . S
C920 C949 1.392 . S
N921 Co915 2.008 . S
N921 C922 1.376 . S
N921 C925 1.374 . S
C922 N921 1.376 . S
C922 C923 1.443 . S
C922 C949 1.389 . S
C923 C922 1.443 . S
C923 C924 1.340 . S
C923 H955 0.951 . S
C924 C923 1.340 . S
C924 C925 1.439 . S
C924 H956 0.950 . S
C925 N921 1.374 . S
C925 C924 1.439 . S
C925 C950 1.395 . S
N926 Co915 1.995 . S
N926 C927 1.376 . S
N926 C930 1.383 1_554 S
C927 N926 1.376 . S
C927 C928 1.446 1_554 S
C927 C950 1.391 . S
C928 C927 1.446 1_556 S
C928 C929 1.339 . S
C928 H957 0.949 . S
C929 C928 1.339 . S
C929 C930 1.439 . S
C929 H958 0.950 . S
C930 N926 1.383 1_556 S
C930 C929 1.439 . S
C930 C948 1.392 . S
N931 Co915 2.282 . S
N931 C934 1.332 1_554 S
N931 C936 1.332 . S
C932 C933 1.386 . S
C932 C935 1.388 1_556 S
C933 C932 1.386 . S
C933 C934 1.382 . S
C933 H959 0.950 . S
C934 N931 1.332 1_556 S
C934 C933 1.382 . S
C934 H945 0.952 . S
C935 C932 1.388 1_554 S
C935 C936 1.382 . S
C935 H960 0.950 . S
C936 N931 1.332 . S
C936 C935 1.382 . S
C936 H946 0.948 . S
N937 Co915 2.282 . S
N937 C941 1.332 . S
N937 C942 1.332 . S
C938 C939 1.388 . S
C938 C942 1.382 . S
C938 H961 0.950 . S
C939 C938 1.388 . S
C939 C940 1.386 . S
C940 C939 1.386 . S
C940 C941 1.382 . S
C940 H962 0.950 . S
C941 N937 1.332 . S
C941 C940 1.382 . S
C941 H943 0.952 . S
C942 N937 1.332 . S
C942 C938 1.382 . S
C942 H944 0.948 . S
H943 C941 0.952 . S
H944 C942 0.948 . S
H945 C934 0.952 . S
H946 C936 0.948 . S
C947 C913 1.395 . S
C947 C917 1.391 . S
C948 C910 1.389 1_556 S
C948 C930 1.392 . S
C949 C920 1.392 . S
C949 C922 1.389 . S
C950 C925 1.395 . S
C950 C927 1.391 . S
H951 C911 0.951 1_556 S
H952 C912 0.950 . S
H953 C918 0.949 . S
H954 C919 0.950 . S
H955 C923 0.951 . S
H956 C924 0.950 . S
H957 C928 0.949 . S
H958 C929 0.950 . S
H959 C933 0.950 . S
H960 C935 0.950 . S
H961 C938 0.950 . S
H962 C940 0.950 . S
C963 C964 1.443 . S
C963 N967 1.376 . S
C963 C1001 1.389 . S
C964 C963 1.443 . S
C964 C965 1.340 . S
C964 H1004 0.951 . S
C965 C964 1.340 . S
C965 C966 1.439 . S
C965 H1005 0.950 . S
C966 C965 1.439 . S
C966 N967 1.374 . S
C966 C1000 1.395 . S
N967 C963 1.376 . S
N967 C966 1.374 . S
N967 Co968 2.008 . S
Co968 N967 2.008 . S
Co968 N969 1.995 . S
Co968 N974 2.008 . S
Co968 N979 1.995 . S
Co968 N984 2.282 . S
Co968 N990 2.282 . S
N969 Co968 1.995 . S
N969 C970 1.376 . S
N969 C973 1.383 . S
C970 N969 1.376 . S
C970 C971 1.446 . S
C970 C1000 1.391 . S
C971 C970 1.446 . S
C971 C972 1.339 . S
C971 H1006 0.949 . S
C972 C971 1.339 . S
C972 C973 1.439 . S
C972 H1007 0.950 . S
C973 N969 1.383 . S
C973 C972 1.439 . S
C973 C1002 1.392 . S
N974 Co968 2.008 . S
N974 C975 1.376 . S
N974 C978 1.374 . S
C975 N974 1.376 . S
C975 C976 1.443 . S
C975 C1002 1.389 . S
C976 C975 1.443 . S
C976 C977 1.340 . S
C976 H1008 0.951 . S
C977 C976 1.340 . S
C977 C978 1.439 . S
C977 H1009 0.950 . S
C978 N974 1.374 . S
C978 C977 1.439 . S
C978 C1003 1.395 . S
N979 Co968 1.995 . S
N979 C980 1.376 . S
N979 C983 1.383 . S
C980 N979 1.376 . S
C980 C981 1.446 . S
C980 C1003 1.391 . S
C981 C980 1.446 . S
C981 C982 1.339 . S
C981 H1010 0.949 . S
C982 C981 1.339 . S
C982 C983 1.439 . S
C982 H1011 0.950 . S
C983 N979 1.383 . S
C983 C982 1.439 . S
C983 C1001 1.392 . S
N984 Co968 2.282 . S
N984 C987 1.332 . S
N984 C989 1.332 . S
C985 C986 1.386 . S
C985 C988 1.388 . S
C986 C985 1.386 . S
C986 C987 1.382 . S
C986 H1012 0.950 . S
C987 N984 1.332 . S
C987 C986 1.382 . S
C987 H998 0.952 . S
C988 C985 1.388 . S
C988 C989 1.382 . S
C988 H1013 0.950 . S
C989 N984 1.332 . S
C989 C988 1.382 . S
C989 H999 0.948 . S
N990 Co968 2.282 . S
N990 C994 1.332 . S
N990 C995 1.332 . S
C991 C992 1.388 . S
C991 C995 1.382 . S
C991 H1014 0.950 . S
C992 C991 1.388 . S
C992 C993 1.386 . S
C993 C992 1.386 . S
C993 C994 1.382 . S
C993 H1015 0.950 . S
C994 N990 1.332 . S
C994 C993 1.382 . S
C994 H996 0.952 . S
C995 N990 1.332 . S
C995 C991 1.382 . S
C995 H997 0.948 . S
H996 C994 0.952 . S
H997 C995 0.948 . S
H998 C987 0.952 . S
H999 C989 0.948 . S
C1000 C966 1.395 . S
C1000 C970 1.391 . S
C1001 C963 1.389 . S
C1001 C983 1.392 . S
C1002 C973 1.392 . S
C1002 C975 1.389 . S
C1003 C978 1.395 . S
C1003 C980 1.391 . S
H1004 C964 0.951 . S
H1005 C965 0.950 . S
H1006 C971 0.949 . S
H1007 C972 0.950 . S
H1008 C976 0.951 . S
H1009 C977 0.950 . S
H1010 C981 0.949 . S
H1011 C982 0.950 . S
H1012 C986 0.950 . S
H1013 C988 0.950 . S
H1014 C991 0.950 . S
H1015 C993 0.950 . S
C1016 C1017 1.387 . S
C1016 H1020 0.950 . S
C1016 C1025 1.390 . S
C1017 C1016 1.387 . S
C1017 C1019 1.387 . S
H1018 C1025 0.950 . S
C1019 C1017 1.387 . S
C1019 C1021 1.390 . S
C1019 H1023 0.950 . S
H1020 C1016 0.950 . S
C1021 C1019 1.390 . S
C1021 C1022 1.387 . S
C1021 H1024 0.950 . S
C1022 C1021 1.387 . S
C1022 C1025 1.387 . S
H1023 C1019 0.950 . S
H1024 C1021 0.950 . S
C1025 C1016 1.390 . S
C1025 H1018 0.950 . S
C1025 C1022 1.387 . S
C1026 C1027 1.387 . S
C1026 H1030 0.950 . S
C1026 C1035 1.390 . S
C1027 C1026 1.387 . S
C1027 C1029 1.387 . S
H1028 C1035 0.950 . S
C1029 C1027 1.387 . S
C1029 C1031 1.390 . S
C1029 H1033 0.950 . S
H1030 C1026 0.950 . S
C1031 C1029 1.390 . S
C1031 C1032 1.387 . S
C1031 H1034 0.950 . S
C1032 C1031 1.387 . S
C1032 C1035 1.387 . S
H1033 C1029 0.950 . S
H1034 C1031 0.950 . S
C1035 C1026 1.390 . S
C1035 H1028 0.950 . S
C1035 C1032 1.387 . S
C1036 C1037 1.387 . S
C1036 H1040 0.950 . S
C1036 C1045 1.390 . S
C1037 C1036 1.387 . S
C1037 C1039 1.387 . S
H1038 C1045 0.950 . S
C1039 C1037 1.387 . S
C1039 C1041 1.390 . S
C1039 H1043 0.950 . S
H1040 C1036 0.950 . S
C1041 C1039 1.390 . S
C1041 C1042 1.387 . S
C1041 H1044 0.950 . S
C1042 C1041 1.387 . S
C1042 C1045 1.387 . S
H1043 C1039 0.950 . S
H1044 C1041 0.950 . S
C1045 C1036 1.390 . S
C1045 H1038 0.950 . S
C1045 C1042 1.387 . S
C1046 C1047 1.387 . S
C1046 H1050 0.950 . S
C1046 C1055 1.390 1_565 S
C1047 C1046 1.387 . S
C1047 C1049 1.387 1_565 S
H1048 C1055 0.950 . S
C1049 C1047 1.387 1_545 S
C1049 C1051 1.390 . S
C1049 H1053 0.950 . S
H1050 C1046 0.950 . S
C1051 C1049 1.390 . S
C1051 C1052 1.387 . S
C1051 H1054 0.950 . S
C1052 C1051 1.387 . S
C1052 C1055 1.387 . S
H1053 C1049 0.950 . S
H1054 C1051 0.950 . S
C1055 C1046 1.390 1_545 S
C1055 H1048 0.950 . S
C1055 C1052 1.387 . S
C1056 C1057 1.387 . S
C1056 H1060 0.950 . S
C1056 C1065 1.390 . S
C1057 C1056 1.387 . S
C1057 C1059 1.387 . S
H1058 C1065 0.950 . S
C1059 C1057 1.387 . S
C1059 C1061 1.390 . S
C1059 H1063 0.950 . S
H1060 C1056 0.950 . S
C1061 C1059 1.390 . S
C1061 C1062 1.387 . S
C1061 H1064 0.950 . S
C1062 C1061 1.387 . S
C1062 C1065 1.387 . S
H1063 C1059 0.950 . S
H1064 C1061 0.950 . S
C1065 C1056 1.390 . S
C1065 H1058 0.950 . S
C1065 C1062 1.387 . S
C1066 C1067 1.387 . S
C1066 H1070 0.950 . S
C1066 C1075 1.390 . S
C1067 C1066 1.387 . S
C1067 C1069 1.387 . S
H1068 C1075 0.950 . S
C1069 C1067 1.387 . S
C1069 C1071 1.390 . S
C1069 H1073 0.950 . S
H1070 C1066 0.950 . S
C1071 C1069 1.390 . S
C1071 C1072 1.387 . S
C1071 H1074 0.950 . S
C1072 C1071 1.387 . S
C1072 C1075 1.387 . S
H1073 C1069 0.950 . S
H1074 C1071 0.950 . S
C1075 C1066 1.390 . S
C1075 H1068 0.950 . S
C1075 C1072 1.387 . S
C1076 C1077 1.387 . S
C1076 H1080 0.950 . S
C1076 C1085 1.390 . S
C1077 C1076 1.387 . S
C1077 C1079 1.387 . S
H1078 C1085 0.950 . S
C1079 C1077 1.387 . S
C1079 C1081 1.390 . S
C1079 H1083 0.950 . S
H1080 C1076 0.950 . S
C1081 C1079 1.390 . S
C1081 C1082 1.387 . S
C1081 H1084 0.950 . S
C1082 C1081 1.387 . S
C1082 C1085 1.387 . S
H1083 C1079 0.950 . S
H1084 C1081 0.950 . S
C1085 C1076 1.390 . S
C1085 H1078 0.950 . S
C1085 C1082 1.387 . S
C1086 C1087 1.387 . S
C1086 H1090 0.950 . S
C1086 C1095 1.390 . S
C1087 C1086 1.387 . S
C1087 C1089 1.387 . S
H1088 C1095 0.950 . S
C1089 C1087 1.387 . S
C1089 C1091 1.390 . S
C1089 H1093 0.950 . S
H1090 C1086 0.950 . S
C1091 C1089 1.390 . S
C1091 C1092 1.387 . S
C1091 H1094 0.950 . S
C1092 C1091 1.387 . S
C1092 C1095 1.387 . S
H1093 C1089 0.950 . S
H1094 C1091 0.950 . S
C1095 C1086 1.390 . S
C1095 H1088 0.950 . S
C1095 C1092 1.387 . S
C1096 C1097 1.387 . S
C1096 H1100 0.950 . S
C1096 C1105 1.390 . S
C1097 C1096 1.387 . S
C1097 C1099 1.387 . S
H1098 C1105 0.950 . S
C1099 C1097 1.387 . S
C1099 C1101 1.390 . S
C1099 H1103 0.950 . S
H1100 C1096 0.950 . S
C1101 C1099 1.390 . S
C1101 C1102 1.387 . S
C1101 H1104 0.950 . S
C1102 C1101 1.387 . S
C1102 C1105 1.387 . S
H1103 C1099 0.950 . S
H1104 C1101 0.950 . S
C1105 C1096 1.390 . S
C1105 H1098 0.950 . S
C1105 C1102 1.387 . S
C1106 C1107 1.387 . S
C1106 H1110 0.950 . S
C1106 C1115 1.390 . S
C1107 C1106 1.387 . S
C1107 C1109 1.387 . S
H1108 C1115 0.950 . S
C1109 C1107 1.387 . S
C1109 C1111 1.390 . S
C1109 H1113 0.950 . S
H1110 C1106 0.950 . S
C1111 C1109 1.390 . S
C1111 C1112 1.387 . S
C1111 H1114 0.950 . S
C1112 C1111 1.387 . S
C1112 C1115 1.387 . S
H1113 C1109 0.950 . S
H1114 C1111 0.950 . S
C1115 C1106 1.390 . S
C1115 H1108 0.950 . S
C1115 C1112 1.387 . S
C1116 C1117 1.387 . S
C1116 H1120 0.950 . S
C1116 C1125 1.390 . S
C1117 C1116 1.387 . S
C1117 C1119 1.387 . S
H1118 C1125 0.950 . S
C1119 C1117 1.387 . S
C1119 C1121 1.390 . S
C1119 H1123 0.950 . S
H1120 C1116 0.950 . S
C1121 C1119 1.390 . S
C1121 C1122 1.387 . S
C1121 H1124 0.950 . S
C1122 C1121 1.387 . S
C1122 C1125 1.387 . S
H1123 C1119 0.950 . S
H1124 C1121 0.950 . S
C1125 C1116 1.390 . S
C1125 H1118 0.950 . S
C1125 C1122 1.387 . S
C1126 C1127 1.387 . S
C1126 H1130 0.950 . S
C1126 C1135 1.390 . S
C1127 C1126 1.387 . S
C1127 C1129 1.387 . S
H1128 C1135 0.950 . S
C1129 C1127 1.387 . S
C1129 C1131 1.390 . S
C1129 H1133 0.950 . S
H1130 C1126 0.950 . S
C1131 C1129 1.390 . S
C1131 C1132 1.387 . S
C1131 H1134 0.950 . S
C1132 C1131 1.387 . S
C1132 C1135 1.387 . S
H1133 C1129 0.950 . S
H1134 C1131 0.950 . S
C1135 C1126 1.390 . S
C1135 H1128 0.950 . S
C1135 C1132 1.387 . S
C1136 C1137 1.387 . S
C1136 H1140 0.950 . S
C1136 C1145 1.390 . S
C1137 C1136 1.387 . S
C1137 C1139 1.387 . S
H1138 C1145 0.950 . S
C1139 C1137 1.387 . S
C1139 C1141 1.390 . S
C1139 H1143 0.950 . S
H1140 C1136 0.950 . S
C1141 C1139 1.390 . S
C1141 C1142 1.387 . S
C1141 H1144 0.950 . S
C1142 C1141 1.387 . S
C1142 C1145 1.387 . S
H1143 C1139 0.950 . S
H1144 C1141 0.950 . S
C1145 C1136 1.390 . S
C1145 H1138 0.950 . S
C1145 C1142 1.387 . S
C1146 C1147 1.387 . S
C1146 H1150 0.950 . S
C1146 C1155 1.390 . S
C1147 C1146 1.387 . S
C1147 C1149 1.387 . S
H1148 C1155 0.950 . S
C1149 C1147 1.387 . S
C1149 C1151 1.390 . S
C1149 H1153 0.950 . S
H1150 C1146 0.950 . S
C1151 C1149 1.390 . S
C1151 C1152 1.387 . S
C1151 H1154 0.950 . S
C1152 C1151 1.387 . S
C1152 C1155 1.387 . S
H1153 C1149 0.950 . S
H1154 C1151 0.950 . S
C1155 C1146 1.390 . S
C1155 H1148 0.950 . S
C1155 C1152 1.387 . S
C1156 C1157 1.387 . S
C1156 H1160 0.950 . S
C1156 C1165 1.390 . S
C1157 C1156 1.387 . S
C1157 C1159 1.387 . S
H1158 C1165 0.950 . S
C1159 C1157 1.387 . S
C1159 C1161 1.390 . S
C1159 H1163 0.950 . S
H1160 C1156 0.950 . S
C1161 C1159 1.390 . S
C1161 C1162 1.387 . S
C1161 H1164 0.950 . S
C1162 C1161 1.387 . S
C1162 C1165 1.387 . S
H1163 C1159 0.950 . S
H1164 C1161 0.950 . S
C1165 C1156 1.390 . S
C1165 H1158 0.950 . S
C1165 C1162 1.387 . S
C1166 C1167 1.387 . S
C1166 H1170 0.950 . S
C1166 C1175 1.390 . S
C1167 C1166 1.387 . S
C1167 C1169 1.387 . S
H1168 C1175 0.950 . S
C1169 C1167 1.387 . S
C1169 C1171 1.390 . S
C1169 H1173 0.950 . S
H1170 C1166 0.950 . S
C1171 C1169 1.390 . S
C1171 C1172 1.387 . S
C1171 H1174 0.950 . S
C1172 C1171 1.387 . S
C1172 C1175 1.387 . S
H1173 C1169 0.950 . S
H1174 C1171 0.950 . S
C1175 C1166 1.390 . S
C1175 H1168 0.950 . S
C1175 C1172 1.387 . S
C1176 C1177 1.387 . S
C1176 H1180 0.950 . S
C1176 C1185 1.390 . S
C1177 C1176 1.387 . S
C1177 C1179 1.387 . S
H1178 C1185 0.950 . S
C1179 C1177 1.387 . S
C1179 C1181 1.390 . S
C1179 H1183 0.950 . S
H1180 C1176 0.950 . S
C1181 C1179 1.390 . S
C1181 C1182 1.387 . S
C1181 H1184 0.950 . S
C1182 C1181 1.387 . S
C1182 C1185 1.387 . S
H1183 C1179 0.950 . S
H1184 C1181 0.950 . S
C1185 C1176 1.390 . S
C1185 H1178 0.950 . S
C1185 C1182 1.387 . S
C1186 C1187 1.387 . S
C1186 H1190 0.950 . S
C1186 C1195 1.390 . S
C1187 C1186 1.387 . S
C1187 C1189 1.387 . S
H1188 C1195 0.950 . S
C1189 C1187 1.387 . S
C1189 C1191 1.390 . S
C1189 H1193 0.950 . S
H1190 C1186 0.950 . S
C1191 C1189 1.390 . S
C1191 C1192 1.387 . S
C1191 H1194 0.950 . S
C1192 C1191 1.387 . S
C1192 C1195 1.387 . S
H1193 C1189 0.950 . S
H1194 C1191 0.950 . S
C1195 C1186 1.390 . S
C1195 H1188 0.950 . S
C1195 C1192 1.387 . S
C1196 C1197 1.387 . S
C1196 H1200 0.950 . S
C1196 C1205 1.390 . S
C1197 C1196 1.387 . S
C1197 C1199 1.387 . S
H1198 C1205 0.950 . S
C1199 C1197 1.387 . S
C1199 C1201 1.390 . S
C1199 H1203 0.950 . S
H1200 C1196 0.950 . S
C1201 C1199 1.390 . S
C1201 C1202 1.387 . S
C1201 H1204 0.950 . S
C1202 C1201 1.387 . S
C1202 C1205 1.387 . S
H1203 C1199 0.950 . S
H1204 C1201 0.950 . S
C1205 C1196 1.390 . S
C1205 H1198 0.950 . S
C1205 C1202 1.387 . S
C1206 C1207 1.387 . S
C1206 H1210 0.950 . S
C1206 C1215 1.390 . S
C1207 C1206 1.387 . S
C1207 C1209 1.387 . S
H1208 C1215 0.950 . S
C1209 C1207 1.387 . S
C1209 C1211 1.390 . S
C1209 H1213 0.950 1_554 S
H1210 C1206 0.950 . S
C1211 C1209 1.390 . S
C1211 C1212 1.387 . S
C1211 H1214 0.950 . S
C1212 C1211 1.387 . S
C1212 C1215 1.387 . S
H1213 C1209 0.950 1_556 S
H1214 C1211 0.950 . S
C1215 C1206 1.390 . S
C1215 H1208 0.950 . S
C1215 C1212 1.387 . S
C1216 C1217 1.387 . S
C1216 H1220 0.950 . S
C1216 C1225 1.390 . S
C1217 C1216 1.387 . S
C1217 C1219 1.387 . S
H1218 C1225 0.950 . S
C1219 C1217 1.387 . S
C1219 C1221 1.390 . S
C1219 H1223 0.950 . S
H1220 C1216 0.950 . S
C1221 C1219 1.390 . S
C1221 C1222 1.387 . S
C1221 H1224 0.950 . S
C1222 C1221 1.387 . S
C1222 C1225 1.387 . S
H1223 C1219 0.950 . S
H1224 C1221 0.950 . S
C1225 C1216 1.390 . S
C1225 H1218 0.950 . S
C1225 C1222 1.387 . S
C1226 C1227 1.387 . S
C1226 H1230 0.950 . S
C1226 C1235 1.390 . S
C1227 C1226 1.387 . S
C1227 C1229 1.387 . S
H1228 C1235 0.950 . S
C1229 C1227 1.387 . S
C1229 C1231 1.390 . S
C1229 H1233 0.950 . S
H1230 C1226 0.950 . S
C1231 C1229 1.390 . S
C1231 C1232 1.387 . S
C1231 H1234 0.950 . S
C1232 C1231 1.387 . S
C1232 C1235 1.387 . S
H1233 C1229 0.950 . S
H1234 C1231 0.950 . S
C1235 C1226 1.390 . S
C1235 H1228 0.950 . S
C1235 C1232 1.387 . S
C1236 C1237 1.387 . S
C1236 H1240 0.950 . S
C1236 C1245 1.390 . S
C1237 C1236 1.387 . S
C1237 C1239 1.387 . S
H1238 C1245 0.950 . S
C1239 C1237 1.387 . S
C1239 C1241 1.390 . S
C1239 H1243 0.950 . S
H1240 C1236 0.950 . S
C1241 C1239 1.390 . S
C1241 C1242 1.387 . S
C1241 H1244 0.950 . S
C1242 C1241 1.387 . S
C1242 C1245 1.387 . S
H1243 C1239 0.950 . S
H1244 C1241 0.950 . S
C1245 C1236 1.390 . S
C1245 H1238 0.950 . S
C1245 C1242 1.387 . S
C1246 C1247 1.387 . S
C1246 H1250 0.950 . S
C1246 C1255 1.390 . S
C1247 C1246 1.387 . S
C1247 C1249 1.387 . S
H1248 C1255 0.950 . S
C1249 C1247 1.387 . S
C1249 C1251 1.390 . S
C1249 H1253 0.950 . S
H1250 C1246 0.950 . S
C1251 C1249 1.390 . S
C1251 C1252 1.387 . S
C1251 H1254 0.950 . S
C1252 C1251 1.387 . S
C1252 C1255 1.387 . S
H1253 C1249 0.950 . S
H1254 C1251 0.950 . S
C1255 C1246 1.390 . S
C1255 H1248 0.950 . S
C1255 C1252 1.387 . S
C1256 C1257 1.387 . S
C1256 H1260 0.950 . S
C1256 C1265 1.390 . S
C1257 C1256 1.387 . S
C1257 C1259 1.387 . S
H1258 C1265 0.950 . S
C1259 C1257 1.387 . S
C1259 C1261 1.390 . S
C1259 H1263 0.950 . S
H1260 C1256 0.950 . S
C1261 C1259 1.390 . S
C1261 C1262 1.387 . S
C1261 H1264 0.950 . S
C1262 C1261 1.387 . S
C1262 C1265 1.387 . S
H1263 C1259 0.950 . S
H1264 C1261 0.950 . S
C1265 C1256 1.390 . S
C1265 H1258 0.950 . S
C1265 C1262 1.387 . S
C1266 C1267 1.387 . S
C1266 H1270 0.950 . S
C1266 C1275 1.390 . S
C1267 C1266 1.387 . S
C1267 C1269 1.387 . S
H1268 C1275 0.950 . S
C1269 C1267 1.387 . S
C1269 C1271 1.390 . S
C1269 H1273 0.950 . S
H1270 C1266 0.950 . S
C1271 C1269 1.390 . S
C1271 C1272 1.387 . S
C1271 H1274 0.950 . S
C1272 C1271 1.387 . S
C1272 C1275 1.387 . S
H1273 C1269 0.950 . S
H1274 C1271 0.950 . S
C1275 C1266 1.390 . S
C1275 H1268 0.950 . S
C1275 C1272 1.387 . S
C1276 C1277 1.387 . S
C1276 H1280 0.950 . S
C1276 C1285 1.390 . S
C1277 C1276 1.387 . S
C1277 C1279 1.387 . S
H1278 C1285 0.950 . S
C1279 C1277 1.387 . S
C1279 C1281 1.390 . S
C1279 H1283 0.950 . S
H1280 C1276 0.950 . S
C1281 C1279 1.390 . S
C1281 C1282 1.387 . S
C1281 H1284 0.950 . S
C1282 C1281 1.387 . S
C1282 C1285 1.387 . S
H1283 C1279 0.950 . S
H1284 C1281 0.950 . S
C1285 C1276 1.390 . S
C1285 H1278 0.950 . S
C1285 C1282 1.387 . S
C1286 C1287 1.387 . S
C1286 H1290 0.950 . S
C1286 C1295 1.390 . S
C1287 C1286 1.387 . S
C1287 C1289 1.387 . S
H1288 C1295 0.950 . S
C1289 C1287 1.387 . S
C1289 C1291 1.390 . S
C1289 H1293 0.950 . S
H1290 C1286 0.950 . S
C1291 C1289 1.390 . S
C1291 C1292 1.387 . S
C1291 H1294 0.950 . S
C1292 C1291 1.387 . S
C1292 C1295 1.387 . S
H1293 C1289 0.950 . S
H1294 C1291 0.950 . S
C1295 C1286 1.390 . S
C1295 H1288 0.950 . S
C1295 C1292 1.387 . S
C1296 C1297 1.387 . S
C1296 H1300 0.950 . S
C1296 C1305 1.390 . S
C1297 C1296 1.387 . S
C1297 C1299 1.387 . S
H1298 C1305 0.950 . S
C1299 C1297 1.387 . S
C1299 C1301 1.390 . S
C1299 H1303 0.950 . S
H1300 C1296 0.950 . S
C1301 C1299 1.390 . S
C1301 C1302 1.387 . S
C1301 H1304 0.950 . S
C1302 C1301 1.387 . S
C1302 C1305 1.387 . S
H1303 C1299 0.950 . S
H1304 C1301 0.950 . S
C1305 C1296 1.390 . S
C1305 H1298 0.950 . S
C1305 C1302 1.387 . S
C1306 C1307 1.387 . S
C1306 H1310 0.950 . S
C1306 C1315 1.390 . S
C1307 C1306 1.387 . S
C1307 C1309 1.387 . S
H1308 C1315 0.950 . S
C1309 C1307 1.387 . S
C1309 C1311 1.390 . S
C1309 H1313 0.950 . S
H1310 C1306 0.950 . S
C1311 C1309 1.390 . S
C1311 C1312 1.387 . S
C1311 H1314 0.950 . S
C1312 C1311 1.387 . S
C1312 C1315 1.387 . S
H1313 C1309 0.950 . S
H1314 C1311 0.950 . S
C1315 C1306 1.390 . S
C1315 H1308 0.950 . S
C1315 C1312 1.387 . S
C1316 C1317 1.387 . S
C1316 H1320 0.950 . S
C1316 C1325 1.390 . S
C1317 C1316 1.387 . S
C1317 C1319 1.387 . S
H1318 C1325 0.950 . S
C1319 C1317 1.387 . S
C1319 C1321 1.390 . S
C1319 H1323 0.950 . S
H1320 C1316 0.950 . S
C1321 C1319 1.390 . S
C1321 C1322 1.387 . S
C1321 H1324 0.950 . S
C1322 C1321 1.387 . S
C1322 C1325 1.387 . S
H1323 C1319 0.950 . S
H1324 C1321 0.950 . S
C1325 C1316 1.390 . S
C1325 H1318 0.950 . S
C1325 C1322 1.387 . S
C1326 C1327 1.387 . S
C1326 H1330 0.950 . S
C1326 C1335 1.390 1_556 S
C1327 C1326 1.387 . S
C1327 C1329 1.387 . S
H1328 C1335 0.950 . S
C1329 C1327 1.387 . S
C1329 C1331 1.390 1_556 S
C1329 H1333 0.950 . S
H1330 C1326 0.950 . S
C1331 C1329 1.390 1_554 S
C1331 C1332 1.387 . S
C1331 H1334 0.950 . S
C1332 C1331 1.387 . S
C1332 C1335 1.387 . S
H1333 C1329 0.950 . S
H1334 C1331 0.950 . S
C1335 C1326 1.390 1_554 S
C1335 H1328 0.950 . S
C1335 C1332 1.387 . S
C1022 C621 1.774 . S
C1017 C39 1.713 . S
C1032 C674 1.438 . S
C1027 C125 1.436 . S
C1042 C737 2.253 . S
C1037 C217 2.126 . S
C1052 C780 1.840 . S
C1047 C261 1.712 . S
C1057 C359 1.490 . S
C1062 C736 1.508 . S
C1072 C773 1.379 . S
C1067 C433 1.259 . S
C1082 C614 1.601 . S
C1077 C495 1.634 . S
C1092 C667 1.505 . S
C1087 C587 1.510 . S
C1102 C720 1.743 . S
C1097 C557 1.725 . S
C1112 C789 1.440 . S
C1107 C347 1.447 . S
C1122 C630 1.214 . S
C1117 C421 1.201 . S
C1132 C683 1.855 . S
C1127 C507 1.795 . S
C1142 C631 1.518 . S
C1137 C137 1.526 . S
C1152 C684 2.042 . S
C1147 C187 1.957 . S
C1162 C727 2.535 . S
C1157 C291 2.454 . S
C1172 C790 2.215 . S
C1167 C69 2.220 . S
C1182 C833 1.415 . S
C1177 C581 1.434 . S
C1187 C365 2.172 . S
C1192 C886 2.142 . S
C1197 C439 2.578 . S
C1202 C948 2.576 . S
C1207 C483 1.696 1_554 S
C1212 C1002 1.764 . S
C1217 C113 1.752 . S
C1222 C949 1.777 . S
C1227 C211 1.876 . S
C1232 C1001 1.928 . S
C1237 C273 1.428 . S
C1242 C826 1.511 . S
C1252 C879 1.306 . S
C1247 C51 1.304 . S
C1262 C939 1.541 . S
C1257 C63 1.461 . S
C1267 C143 1.619 . S
C1272 C985 1.626 . S
C1277 C199 2.039 . S
C1282 C842 2.081 . S
C1287 C285 1.230 . S
C1292 C895 1.353 . S
C1302 C843 1.672 . S
C1297 C335 1.644 . S
C1312 C896 2.178 . S
C1307 C409 1.958 . S
C1317 C513 1.909 . S
C1322 C932 1.916 . S
C1332 C992 1.443 . S
C1327 C569 1.431 . S
