# Generated by pormake.
# Topology nom, (4,4)-cn, num edge types: 1
# Building blocks:
#     Node 0, Type 0, BuildingBlock: MIFKUJ_clean_linker_1, # of connection points: 4
#     Node 1, Type 0, BuildingBlock: MIFKUJ_clean_linker_1, # of connection points: 4
#     Node 2, Type 0, BuildingBlock: MIFKUJ_clean_linker_1, # of connection points: 4
#     Node 3, Type 0, BuildingBlock: MIFKUJ_clean_linker_1, # of connection points: 4
#     Node 4, Type 0, BuildingBlock: MIFKUJ_clean_linker_1, # of connection points: 4
#     Node 5, Type 0, BuildingBlock: MIFKUJ_clean_linker_1, # of connection points: 4
#     Node 6, Type 1, BuildingBlock: KUFVIS_clean_sbu_0, # of connection points: 4
#     Node 7, Type 1, BuildingBlock: KUFVIS_clean_sbu_0, # of connection points: 4
#     Node 8, Type 1, BuildingBlock: KUFVIS_clean_sbu_0, # of connection points: 4
#     Node 9, Type 1, BuildingBlock: KUFVIS_clean_sbu_0, # of connection points: 4
#     Node 10, Type 1, BuildingBlock: KUFVIS_clean_sbu_0, # of connection points: 4
#     Node 11, Type 1, BuildingBlock: KUFVIS_clean_sbu_0, # of connection points: 4
#     Edge 12, Type (0, 1), BuildingBlock: TEMPAE_clean_linker_10, # of connection points: 2
#     Edge 13, Type (0, 1), BuildingBlock: TEMPAE_clean_linker_10, # of connection points: 2
#     Edge 14, Type (0, 1), BuildingBlock: TEMPAE_clean_linker_10, # of connection points: 2
#     Edge 15, Type (0, 1), BuildingBlock: TEMPAE_clean_linker_10, # of connection points: 2
#     Edge 16, Type (0, 1), BuildingBlock: TEMPAE_clean_linker_10, # of connection points: 2
#     Edge 17, Type (0, 1), BuildingBlock: TEMPAE_clean_linker_10, # of connection points: 2
#     Edge 18, Type (0, 1), BuildingBlock: TEMPAE_clean_linker_10, # of connection points: 2
#     Edge 19, Type (0, 1), BuildingBlock: TEMPAE_clean_linker_10, # of connection points: 2
#     Edge 20, Type (0, 1), BuildingBlock: TEMPAE_clean_linker_10, # of connection points: 2
#     Edge 21, Type (0, 1), BuildingBlock: TEMPAE_clean_linker_10, # of connection points: 2
#     Edge 22, Type (0, 1), BuildingBlock: TEMPAE_clean_linker_10, # of connection points: 2
#     Edge 23, Type (0, 1), BuildingBlock: TEMPAE_clean_linker_10, # of connection points: 2
#     Edge 24, Type (0, 1), BuildingBlock: TEMPAE_clean_linker_10, # of connection points: 2
#     Edge 25, Type (0, 1), BuildingBlock: TEMPAE_clean_linker_10, # of connection points: 2
#     Edge 26, Type (0, 1), BuildingBlock: TEMPAE_clean_linker_10, # of connection points: 2
#     Edge 27, Type (0, 1), BuildingBlock: TEMPAE_clean_linker_10, # of connection points: 2
#     Edge 28, Type (0, 1), BuildingBlock: TEMPAE_clean_linker_10, # of connection points: 2
#     Edge 29, Type (0, 1), BuildingBlock: TEMPAE_clean_linker_10, # of connection points: 2
#     Edge 30, Type (0, 1), BuildingBlock: TEMPAE_clean_linker_10, # of connection points: 2
#     Edge 31, Type (0, 1), BuildingBlock: TEMPAE_clean_linker_10, # of connection points: 2
#     Edge 32, Type (0, 1), BuildingBlock: TEMPAE_clean_linker_10, # of connection points: 2
#     Edge 33, Type (0, 1), BuildingBlock: TEMPAE_clean_linker_10, # of connection points: 2
#     Edge 34, Type (0, 1), BuildingBlock: TEMPAE_clean_linker_10, # of connection points: 2
#     Edge 35, Type (0, 1), BuildingBlock: TEMPAE_clean_linker_10, # of connection points: 2
# Relax obj value: 0.001
# Max RMSD: 0.099
# Mean RMSD: 0.062
data_MOF--net-nom--node1-KUFVIS_clean_sbu_0--node2-MIFKUJ_clean_linker_1--edge1-TEMPAE_clean_linker_10
_symmetry_space_group_name_H-M    P1
_symmetry_Int_Tables_number       1
_symmetry_cell_setting            triclinic
loop_
_symmetry_equiv_pos_as_xyz
'x, y, z'
_cell_length_a     53.296393
_cell_length_b     53.858792
_cell_length_c     57.029877
_cell_angle_alpha  90.619511
_cell_angle_beta   90.737998
_cell_angle_gamma 120.01769
loop_
_atom_site_label
_atom_site_type_symbol
_atom_site_fract_x
_atom_site_fract_y
_atom_site_fract_z
_atom_type_partial_charge
H0 H 0.99865 0.51039 0.2699 0.0
H1 H 0.96786 0.48917 0.23553 0.0
H2 H 0.91008 0.51787 0.26067 0.0
H3 H 0.94347 0.54272 0.29329 0.0
H4 H 0.0313 0.55943 0.28401 0.0
H5 H 0.94526 0.48123 0.32249 0.0
H6 H 0.89339 0.45483 0.33169 0.0
H7 H 0.8993 0.53373 0.35626 0.0
H8 H 0.95099 0.55983 0.3474 0.0
H9 H 0.0451 0.60792 0.37605 0.0
H10 H 0.07607 0.61978 0.41157 0.0
H11 H 0.09596 0.5538 0.39266 0.0
H12 H 0.06548 0.54235 0.35719 0.0
H13 H 0.99543 0.54858 0.3652 0.0
H14 H 0.07852 0.62625 0.3219 0.0
H15 H 0.12932 0.65344 0.31099 0.0
H16 H 0.12893 0.57391 0.29799 0.0
H17 H 0.07754 0.5471 0.30755 0.0
C18 C 0.97327 0.52776 0.28469 0.0
C19 C 0.97959 0.51255 0.26789 0.0
C20 C 0.96146 0.49983 0.24831 0.0
C21 C 0.93579 0.50099 0.2453 0.0
C22 C 0.9296 0.51649 0.26207 0.0
C23 C 0.94844 0.53023 0.28122 0.0
C24 C 0.99316 0.54128 0.3054 0.0
C25 C 0.02322 0.55664 0.30171 0.0
C26 C 0.98305 0.53872 0.32864 0.0
C27 C 0.95184 0.52248 0.33417 0.0
C28 C 0.93531 0.49276 0.32986 0.0
C29 C 0.9058 0.47774 0.33513 0.0
C30 C 0.89238 0.49233 0.34447 0.0
C31 C 0.90905 0.52205 0.34879 0.0
C32 C 0.93856 0.53693 0.34389 0.0
C33 C 0.0532 0.57439 0.36402 0.0
C34 C 0.05646 0.59632 0.37947 0.0
C35 C 0.07414 0.6031 0.39963 0.0
C36 C 0.08823 0.58759 0.40479 0.0
C37 C 0.08519 0.56594 0.3891 0.0
C38 C 0.06795 0.5595 0.36883 0.0
C39 C 0.03305 0.56554 0.34356 0.0
C40 C 1.00314 0.5512 0.34737 0.0
C41 C 0.04315 0.56859 0.32049 0.0
C42 C 0.07442 0.58477 0.31546 0.0
C43 C 0.08951 0.61479 0.31673 0.0
C44 C 0.11866 0.63026 0.31065 0.0
C45 C 0.13348 0.61598 0.30354 0.0
C46 C 0.11824 0.58575 0.30287 0.0
C47 C 0.08892 0.57033 0.30852 0.0
H48 H 0.40697 0.96134 0.51799 0.0
H49 H 0.38134 0.91121 0.52951 0.0
H50 H 0.44871 0.89937 0.49938 0.0
H51 H 0.47475 0.95 0.48847 0.0
H52 H 0.46114 0.00361 0.53189 0.0
H53 H 0.4148 0.94926 0.46019 0.0
H54 H 0.40714 0.91576 0.42831 0.0
H55 H 0.49356 0.97388 0.40401 0.0
H56 H 0.50243 0.00464 0.43779 0.0
H57 H 0.54489 0.08354 0.47521 0.0
H58 H 0.56956 0.13444 0.46571 0.0
H59 H 0.48887 0.13439 0.4737 0.0
H60 H 0.46512 0.08407 0.48462 0.0
H61 H 0.48523 0.03658 0.45017 0.0
H62 H 0.5378 0.07222 0.52318 0.0
H63 H 0.5575 0.10268 0.55846 0.0
H64 H 0.47139 0.08367 0.5767 0.0
H65 H 0.45164 0.05283 0.54132 0.0
C66 C 0.44261 0.95936 0.50213 0.0
C67 C 0.41625 0.94796 0.51387 0.0
C68 C 0.4015 0.91922 0.52029 0.0
C69 C 0.41283 0.90118 0.51521 0.0
C70 C 0.43946 0.91272 0.50367 0.0
C71 C 0.45425 0.94157 0.49725 0.0
C72 C 0.45802 0.99008 0.4957 0.0
C73 C 0.46598 0.01062 0.51392 0.0
C74 C 0.46555 0.9994 0.4723 0.0
C75 C 0.45955 0.97926 0.45204 0.0
C76 C 0.43246 0.9543 0.44847 0.0
C77 C 0.42786 0.93536 0.42973 0.0
C78 C 0.44979 0.94158 0.41338 0.0
C79 C 0.47636 0.96736 0.41648 0.0
C80 C 0.48133 0.98553 0.43571 0.0
C81 C 0.50328 0.08021 0.48066 0.0
C82 C 0.53269 0.09469 0.47504 0.0
C83 C 0.54666 0.12376 0.46942 0.0
C84 C 0.53131 0.13879 0.46882 0.0
C85 C 0.50169 0.12392 0.47441 0.0
C86 C 0.48792 0.09502 0.48046 0.0
C87 C 0.48831 0.04937 0.48629 0.0
C88 C 0.48012 0.02908 0.46799 0.0
C89 C 0.48162 0.04006 0.50951 0.0
C90 C 0.49333 0.06049 0.52963 0.0
C91 C 0.52321 0.07495 0.53458 0.0
C92 C 0.5344 0.09215 0.55477 0.0
C93 C 0.51591 0.09537 0.57026 0.0
C94 C 0.48606 0.08161 0.56492 0.0
C95 C 0.47479 0.06401 0.54483 0.0
H96 H 0.51334 0.54746 0.71085 0.0
H97 H 0.49862 0.56601 0.74402 0.0
H98 H 0.40911 0.51489 0.72093 0.0
H99 H 0.42411 0.49682 0.68757 0.0
H100 H 0.49751 0.49143 0.69994 0.0
H101 H 0.48602 0.56737 0.66635 0.0
H102 H 0.45922 0.59192 0.65617 0.0
H103 H 0.39892 0.51833 0.6141 0.0
H104 H 0.4252 0.49361 0.62475 0.0
H105 H 0.46575 0.44779 0.60515 0.0
H106 H 0.48486 0.43403 0.57145 0.0
H107 H 0.57209 0.49127 0.59694 0.0
H108 H 0.553 0.50449 0.6308 0.0
H109 H 0.47788 0.50421 0.61701 0.0
H110 H 0.48633 0.42832 0.64847 0.0
H111 H 0.50767 0.39921 0.65925 0.0
H112 H 0.56769 0.4668 0.70663 0.0
H113 H 0.54752 0.49668 0.69443 0.0
C114 C 0.46985 0.52091 0.69669 0.0
C115 C 0.49055 0.54029 0.71295 0.0
C116 C 0.48209 0.55081 0.73193 0.0
C117 C 0.45268 0.54194 0.73515 0.0
C118 C 0.43197 0.52251 0.71877 0.0
C119 C 0.44048 0.51206 0.69975 0.0
C120 C 0.47907 0.50965 0.67677 0.0
C121 C 0.49365 0.4946 0.68179 0.0
C122 C 0.47289 0.51285 0.65314 0.0
C123 C 0.45741 0.52842 0.64659 0.0
C124 C 0.46686 0.55639 0.65513 0.0
C125 C 0.45162 0.57046 0.64925 0.0
C126 C 0.42705 0.55706 0.63431 0.0
C127 C 0.41799 0.52933 0.62542 0.0
C128 C 0.43298 0.51516 0.63153 0.0
C129 C 0.508 0.4771 0.62043 0.0
C130 C 0.48897 0.45714 0.60355 0.0
C131 C 0.49984 0.44919 0.58446 0.0
C132 C 0.52987 0.46163 0.58174 0.0
C133 C 0.54884 0.48144 0.59873 0.0
C134 C 0.53799 0.48895 0.61801 0.0
C135 C 0.49671 0.48642 0.64021 0.0
C136 C 0.48181 0.50112 0.63517 0.0
C137 C 0.50225 0.48258 0.66383 0.0
C138 C 0.51561 0.46498 0.67028 0.0
C139 C 0.50454 0.4372 0.66076 0.0
C140 C 0.51647 0.42032 0.66729 0.0
C141 C 0.53938 0.43053 0.68393 0.0
C142 C 0.55037 0.45834 0.69353 0.0
C143 C 0.53865 0.47538 0.68673 0.0
H144 H 0.03175 0.56423 0.77553 0.0
H145 H 0.0653 0.58169 0.74288 0.0
H146 H 0.09814 0.52593 0.763 0.0
H147 H 0.06482 0.50889 0.79574 0.0
H148 H 0.98815 0.50888 0.78521 0.0
H149 H 0.08062 0.58063 0.82011 0.0
H150 H 0.13214 0.60166 0.83088 0.0
H151 H 0.11242 0.52588 0.8697 0.0
H152 H 0.06139 0.50448 0.85826 0.0
H153 H 0.97806 0.45869 0.87344 0.0
H154 H 0.94398 0.43843 0.90577 0.0
H155 H 0.91425 0.49835 0.89273 0.0
H156 H 0.94775 0.51802 0.85989 0.0
H157 H 0.02293 0.51782 0.86768 0.0
H158 H 0.94049 0.44259 0.83049 0.0
H159 H 0.88916 0.41236 0.82067 0.0
H160 H 0.88914 0.48374 0.78684 0.0
H161 H 0.94086 0.51419 0.79698 0.0
C162 C 0.04599 0.5355 0.78822 0.0
C163 C 0.04619 0.55578 0.77287 0.0
C164 C 0.06533 0.56568 0.75418 0.0
C165 C 0.08454 0.55532 0.75036 0.0
C166 C 0.08407 0.53478 0.76568 0.0
C167 C 0.06494 0.52492 0.78436 0.0
C168 C 0.02582 0.52524 0.80815 0.0
C169 C 0.99583 0.51139 0.80327 0.0
C170 C 0.03578 0.52738 0.83167 0.0
C171 C 0.06707 0.5408 0.83818 0.0
C172 C 0.08743 0.56838 0.83068 0.0
C173 C 0.11679 0.58045 0.83691 0.0
C174 C 0.12611 0.56543 0.85122 0.0
C175 C 0.10571 0.53805 0.85891 0.0
C176 C 0.07656 0.52583 0.85237 0.0
C177 C 0.96535 0.4898 0.86433 0.0
C178 C 0.96417 0.46741 0.87753 0.0
C179 C 0.94467 0.45579 0.89584 0.0
C180 C 0.92661 0.46688 0.90157 0.0
C181 C 0.92804 0.48952 0.88855 0.0
C182 C 0.94708 0.50071 0.86988 0.0
C183 C 0.98563 0.50165 0.84465 0.0
C184 C 0.01546 0.51581 0.8496 0.0
C185 C 0.97562 0.49892 0.82118 0.0
C186 C 0.9444 0.48082 0.81488 0.0
C187 C 0.92938 0.45192 0.8213 0.0
C188 C 0.9 0.43465 0.81569 0.0
C189 C 0.88499 0.44576 0.80324 0.0
C190 C 0.90014 0.47459 0.79644 0.0
C191 C 0.92964 0.49198 0.80222 0.0
H192 H 0.58718 0.07321 0.01267 0.0
H193 H 0.61714 0.12488 0.0206 0.0
H194 H 0.54667 0.137 0.99736 0.0
H195 H 0.51685 0.08516 0.98891 0.0
H196 H 0.52959 0.03323 0.03111 0.0
H197 H 0.58021 0.07137 0.95891 0.0
H198 H 0.59624 0.10453 0.9263 0.0
H199 H 0.50691 0.07358 0.90582 0.0
H200 H 0.49105 0.04021 0.93849 0.0
H201 H 0.45469 0.95099 0.95674 0.0
H202 H 0.43535 0.90055 0.9458 0.0
H203 H 0.49967 0.89793 0.99108 0.0
H204 H 0.52014 0.9486 1.00038 0.0
H205 H 0.50433 0.99618 0.94905 0.0
H206 H 0.45311 0.95727 0.02142 0.0
H207 H 0.4377 0.92541 0.05525 0.0
H208 H 0.52725 0.95787 0.07539 0.0
H209 H 0.54259 0.99019 0.04193 0.0
C210 C 0.54988 0.07548 1.00023 0.0
C211 C 0.57817 0.08699 0.00932 0.0
C212 C 0.59528 0.11643 0.01367 0.0
C213 C 0.58417 0.13478 0.00944 0.0
C214 C 0.55564 0.12321 1.00073 0.0
C215 C 0.53868 0.09374 0.99593 0.0
C216 C 0.5325 0.04441 0.99473 0.0
C217 C 0.52406 0.02506 0.01319 0.0
C218 C 0.52482 0.03391 0.97139 0.0
C219 C 0.53444 0.05357 0.95127 0.0
C220 C 0.56408 0.07188 0.9475 0.0
C221 C 0.5732 0.09089 0.92888 0.0
C222 C 0.55285 0.09188 0.91354 0.0
C223 C 0.52314 0.07321 0.9172 0.0
C224 C 0.51403 0.05418 0.93586 0.0
C225 C 0.48858 0.95359 0.97974 0.0
C226 C 0.46463 0.93953 0.96425 0.0
C227 C 0.45342 0.91056 0.95818 0.0
C228 C 0.46587 0.89501 0.96756 0.0
C229 C 0.48971 0.90918 0.98321 0.0
C230 C 0.50115 0.93816 0.98895 0.0
C231 C 0.50144 0.98468 0.98548 0.0
C232 C 0.50918 0.00417 0.96704 0.0
C233 C 0.50833 0.99536 0.00889 0.0
C234 C 0.49897 0.97602 0.0292 0.0
C235 C 0.46939 0.95753 0.03315 0.0
C236 C 0.46062 0.93944 0.05243 0.0
C237 C 0.48134 0.93922 0.06776 0.0
C238 C 0.51093 0.95758 0.06369 0.0
C239 C 0.51967 0.97609 0.04472 0.0
H240 H 0.51465 0.50146 0.21627 0.0
H241 H 0.53142 0.48628 0.24989 0.0
H242 H 0.61408 0.5159 0.21684 0.0
H243 H 0.59833 0.53451 0.18478 0.0
H244 H 0.52799 0.54937 0.20011 0.0
H245 H 0.53583 0.46815 0.16469 0.0
H246 H 0.56433 0.44541 0.15413 0.0
H247 H 0.62319 0.52103 0.11628 0.0
H248 H 0.59504 0.54367 0.12716 0.0
H249 H 0.54321 0.59884 0.12117 0.0
H250 H 0.52463 0.61178 0.08671 0.0
H251 H 0.45199 0.52501 0.08207 0.0
H252 H 0.47191 0.51209 0.1154 0.0
H253 H 0.53757 0.52615 0.11752 0.0
H254 H 0.54202 0.60342 0.18854 0.0
H255 H 0.51938 0.63183 0.19864 0.0
H256 H 0.44013 0.56897 0.16346 0.0
H257 H 0.46275 0.54032 0.15375 0.0
C258 C 0.5549 0.51869 0.19757 0.0
C259 C 0.53655 0.50504 0.21637 0.0
C260 C 0.54609 0.49581 0.23552 0.0
C261 C 0.57409 0.49922 0.23621 0.0
C262 C 0.5925 0.51302 0.21733 0.0
C263 C 0.58325 0.52319 0.19855 0.0
C264 C 0.54417 0.52845 0.17737 0.0
C265 C 0.53001 0.54407 0.18209 0.0
C266 C 0.54728 0.5223 0.15367 0.0
C267 C 0.56349 0.50769 0.14687 0.0
C268 C 0.55489 0.47976 0.15414 0.0
C269 C 0.57107 0.46677 0.14799 0.0
C270 C 0.59611 0.48154 0.13452 0.0
C271 C 0.60429 0.50928 0.12698 0.0
C272 C 0.58809 0.52216 0.13302 0.0
C273 C 0.50892 0.55453 0.12066 0.0
C274 C 0.52331 0.58272 0.11259 0.0
C275 C 0.51249 0.59009 0.093 0.0
C276 C 0.48684 0.56943 0.08135 0.0
C277 C 0.47218 0.54136 0.09006 0.0
C278 C 0.48336 0.53393 0.10927 0.0
C279 C 0.52092 0.54612 0.14053 0.0
C280 C 0.53542 0.53105 0.13564 0.0
C281 C 0.51842 0.55304 0.16399 0.0
C282 C 0.50427 0.56994 0.17009 0.0
C283 C 0.51973 0.59567 0.18309 0.0
C284 C 0.50674 0.61184 0.1889 0.0
C285 C 0.47797 0.60262 0.18182 0.0
C286 C 0.46244 0.57678 0.16889 0.0
C287 C 0.47539 0.56047 0.16325 0.0
Mn288 Mn 0.63218 0.39421 0.41656 0.0
Mn289 Mn 0.67209 0.46512 0.42932 0.0
C290 C 0.61493 0.41565 0.44242 0.0
C291 C 0.61933 0.34667 0.42364 0.0
C292 C 0.6366 0.44145 0.38431 0.0
O293 O 0.67206 0.40395 0.4049 0.0
O294 O 0.69634 0.45081 0.41504 0.0
C295 C 0.70897 0.46097 0.46661 0.0
N296 N 0.69084 0.4704 0.45922 0.0
C297 C 0.69749 0.49622 0.49557 0.0
C298 C 0.71647 0.48704 0.50351 0.0
C299 C 0.72204 0.46913 0.48903 0.0
C300 C 0.68474 0.48698 0.47323 0.0
H301 H 0.71341 0.44735 0.45547 0.0
C302 C 0.69525 0.4283 0.4063 0.0
O303 O 0.61433 0.35435 0.40341 0.0
O304 O 0.63248 0.36671 0.43952 0.0
N305 N 0.65239 0.48268 0.44353 0.0
C306 C 0.63218 0.48809 0.43384 0.0
C307 C 0.62443 0.50606 0.44584 0.0
C308 C 0.63771 0.51841 0.4676 0.0
C309 C 0.65775 0.51177 0.47761 0.0
C310 C 0.66478 0.49394 0.46472 0.0
H311 H 0.62221 0.4789 0.41703 0.0
O312 O 0.59738 0.39155 0.43178 0.0
O313 O 0.6423 0.42641 0.438 0.0
O314 O 0.62714 0.41503 0.38853 0.0
O315 O 0.65316 0.46192 0.39846 0.0
C316 C 0.67116 0.52227 0.49979 0.0
C317 C 0.69069 0.51416 0.50891 0.0
H318 H 0.72676 0.49348 0.52072 0.0
H319 H 0.73653 0.46182 0.49508 0.0
H320 H 0.60857 0.5107 0.43821 0.0
H321 H 0.63216 0.5328 0.47654 0.0
H322 H 0.66633 0.53629 0.51012 0.0
H323 H 0.70042 0.5219 0.52617 0.0
Mn324 Mn 0.2549 0.64948 0.57424 0.0
Mn325 Mn 0.21975 0.5778 0.56484 0.0
C326 C 0.21525 0.62805 0.54861 0.0
C327 C 0.29162 0.69577 0.56541 0.0
C328 C 0.21076 0.60555 0.6079 0.0
O329 O 0.28395 0.63859 0.58704 0.0
O330 O 0.25835 0.59106 0.57971 0.0
C331 C 0.25878 0.57669 0.52889 0.0
N332 N 0.23167 0.56974 0.53567 0.0
C333 C 0.21052 0.54352 0.4996 0.0
C334 C 0.2382 0.5503 0.49223 0.0
C335 C 0.26245 0.56711 0.50689 0.0
C336 C 0.20827 0.55405 0.52154 0.0
H337 H 0.27744 0.58938 0.54021 0.0
C338 C 0.28096 0.61357 0.58761 0.0
O339 O 0.27954 0.68989 0.58577 0.0
O340 O 0.28292 0.67458 0.55047 0.0
N341 N 0.18207 0.5613 0.55047 0.0
C342 C 0.15705 0.5575 0.5599 0.0
C343 C 0.13071 0.54099 0.54754 0.0
C344 C 0.13033 0.52818 0.52586 0.0
C345 C 0.15637 0.53258 0.51642 0.0
C346 C 0.18193 0.54922 0.52954 0.0
H347 H 0.15717 0.56672 0.57684 0.0
O348 O 0.22351 0.65305 0.55805 0.0
O349 O 0.23077 0.61637 0.5541 0.0
O350 O 0.22884 0.63143 0.60264 0.0
O351 O 0.20572 0.58401 0.59492 0.0
C352 C 0.15798 0.52093 0.49461 0.0
C353 C 0.18507 0.52671 0.48607 0.0
H354 H 0.24108 0.54276 0.47534 0.0
H355 H 0.28389 0.57248 0.50131 0.0
H356 H 0.1107 0.53777 0.55488 0.0
H357 H 0.10988 0.51496 0.51663 0.0
H358 H 0.13854 0.50767 0.48416 0.0
H359 H 0.18606 0.51803 0.4691 0.0
Mn360 Mn 0.62373 0.26137 0.73865 0.0
Mn361 Mn 0.66217 0.22815 0.72895 0.0
C362 C 0.60539 0.22197 0.71336 0.0
C363 C 0.61297 0.29731 0.73003 0.0
C364 C 0.62686 0.21913 0.77254 0.0
O365 O 0.664 0.29071 0.75099 0.0
O366 O 0.68771 0.26714 0.7426 0.0
C367 C 0.69961 0.26583 0.69168 0.0
N368 N 0.68033 0.23914 0.69925 0.0
C369 C 0.68411 0.21722 0.66353 0.0
C370 C 0.70409 0.24445 0.65536 0.0
C371 C 0.71174 0.26887 0.66945 0.0
C372 C 0.67244 0.21557 0.68568 0.0
H373 H 0.70574 0.28462 0.70256 0.0
C374 C 0.68706 0.28912 0.75056 0.0
O375 O 0.60768 0.28545 0.75044 0.0
O376 O 0.62494 0.28861 0.71482 0.0
N377 N 0.64088 0.19032 0.71555 0.0
C378 C 0.62038 0.16579 0.72561 0.0
C379 C 0.61024 0.13941 0.71376 0.0
C380 C 0.62165 0.13848 0.69191 0.0
C381 C 0.64261 0.16402 0.68184 0.0
C382 C 0.65181 0.18967 0.69444 0.0
H383 H 0.61203 0.16634 0.74265 0.0
O384 O 0.58838 0.22979 0.72286 0.0
O385 O 0.6329 0.23784 0.71854 0.0
O386 O 0.61751 0.23603 0.76708 0.0
O387 O 0.64387 0.21496 0.75964 0.0
C388 C 0.65487 0.16505 0.65986 0.0
C389 C 0.67532 0.19166 0.65058 0.0
H390 H 0.71364 0.24685 0.63828 0.0
H391 H 0.7271 0.28996 0.66325 0.0
H392 H 0.59398 0.11978 0.72158 0.0
H393 H 0.61416 0.11802 0.68304 0.0
H394 H 0.64854 0.14554 0.64983 0.0
H395 H 0.68418 0.1922 0.63348 0.0
Mn396 Mn 0.38693 0.64135 0.91589 0.0
Mn397 Mn 0.34773 0.56983 0.92358 0.0
C398 C 0.40422 0.61961 0.9411 0.0
C399 C 0.39746 0.68793 0.92499 0.0
C400 C 0.3842 0.59641 0.88089 0.0
O401 O 0.34716 0.63115 0.90284 0.0
O402 O 0.32273 0.58393 0.91009 0.0
C403 C 0.30924 0.56951 0.96069 0.0
N404 N 0.32862 0.56199 0.95292 0.0
C405 C 0.32292 0.5344 0.98736 0.0
C406 C 0.30283 0.54177 0.99574 0.0
C407 C 0.2961 0.55956 0.98241 0.0
C408 C 0.33562 0.54532 0.96578 0.0
H409 H 0.30379 0.5829 0.95034 0.0
C410 C 0.32401 0.60678 0.90241 0.0
O411 O 0.4034 0.68125 0.90469 0.0
O412 O 0.38519 0.66748 0.93997 0.0
N413 N 0.36848 0.55258 0.93649 0.0
C414 C 0.38927 0.54863 0.92637 0.0
C415 C 0.3985 0.53134 0.93742 0.0
C416 C 0.38595 0.51798 0.95853 0.0
C417 C 0.36488 0.52268 0.96878 0.0
C418 C 0.35649 0.54005 0.95693 0.0
H419 H 0.39844 0.55827 0.90984 0.0
O420 O 0.42162 0.64438 0.93223 0.0
O421 O 0.37687 0.60833 0.9353 0.0
O422 O 0.39393 0.6225 0.88718 0.0
O423 O 0.36668 0.57527 0.89314 0.0
C424 C 0.35172 0.5107 0.9902 0.0
C425 C 0.33095 0.51677 0.99959 0.0
H426 H 0.29251 0.53399 0.01241 0.0
H427 H 0.28066 0.56538 0.98878 0.0
H428 H 0.4149 0.52793 0.9295 0.0
H429 H 0.3927 0.50415 0.96671 0.0
H430 H 0.35761 0.49702 0.99973 0.0
H431 H 0.32136 0.50783 0.01626 0.0
Mn432 Mn 0.76251 0.39317 0.07919 0.0
Mn433 Mn 0.79467 0.35372 0.08824 0.0
C434 C 0.80219 0.40979 0.1047 0.0
C435 C 0.72672 0.4044 0.0883 0.0
C436 C 0.80389 0.38908 0.04474 0.0
O437 O 0.73247 0.35383 0.06605 0.0
O438 O 0.75479 0.32903 0.07534 0.0
C439 C 0.75725 0.31806 0.12639 0.0
N440 N 0.78412 0.33631 0.1182 0.0
C441 C 0.80696 0.33233 0.15347 0.0
C442 C 0.77955 0.31328 0.16224 0.0
C443 C 0.75458 0.30632 0.14871 0.0
C444 C 0.80821 0.34383 0.13134 0.0
H445 H 0.73804 0.31252 0.11597 0.0
C446 C 0.73317 0.33053 0.06702 0.0
O447 O 0.73892 0.41016 0.06798 0.0
O448 O 0.73503 0.39173 0.10315 0.0
N449 N 0.8333 0.37435 0.10096 0.0
C450 C 0.85798 0.39405 0.09041 0.0
C451 C 0.88492 0.40342 0.10163 0.0
C452 C 0.88622 0.39202 0.12334 0.0
C453 C 0.86051 0.3719 0.13393 0.0
C454 C 0.8343 0.36363 0.12205 0.0
H455 H 0.85714 0.40252 0.07355 0.0
O456 O 0.79493 0.42741 0.09577 0.0
O457 O 0.78567 0.38295 0.09886 0.0
O458 O 0.78792 0.3994 0.05076 0.0
O459 O 0.80748 0.37149 0.05724 0.0
C460 C 0.85984 0.3595 0.15571 0.0
C461 C 0.83308 0.34017 0.16569 0.0
H462 H 0.77743 0.30393 0.17933 0.0
H463 H 0.73334 0.29174 0.1554 0.0
H464 H 0.90465 0.41911 0.09342 0.0
H465 H 0.90709 0.39899 0.13177 0.0
H466 H 0.8798 0.36494 0.16507 0.0
H467 H 0.83286 0.3313 0.1827 0.0
Mn468 Mn 0.38802 0.7744 0.2452 0.0
Mn469 Mn 0.46029 0.80683 0.25459 0.0
C470 C 0.41087 0.81238 0.27183 0.0
C471 C 0.34069 0.73912 0.2533 0.0
C472 C 0.43342 0.81944 0.21284 0.0
O473 O 0.39746 0.74511 0.23129 0.0
O474 O 0.4458 0.76988 0.23719 0.0
C475 C 0.45886 0.76381 0.28728 0.0
N476 N 0.46693 0.79152 0.28253 0.0
C477 C 0.49208 0.80793 0.31974 0.0
C478 C 0.48413 0.77959 0.32502 0.0
C479 C 0.46728 0.75741 0.30877 0.0
C480 C 0.48252 0.81291 0.29826 0.0
H481 H 0.44615 0.74672 0.27476 0.0
C482 C 0.42257 0.74795 0.22935 0.0
O483 O 0.34717 0.7521 0.23336 0.0
O484 O 0.36182 0.74609 0.26827 0.0
N485 N 0.47801 0.84272 0.27138 0.0
C486 C 0.48384 0.86887 0.26359 0.0
C487 C 0.50102 0.89346 0.27754 0.0
C488 C 0.51253 0.89096 0.29909 0.0
C489 C 0.5062 0.86383 0.30677 0.0
C490 C 0.48882 0.84009 0.29218 0.0
H491 H 0.47553 0.87096 0.24683 0.0
O492 O 0.38588 0.80565 0.26252 0.0
O493 O 0.42165 0.79638 0.26564 0.0
O494 O 0.40725 0.80096 0.21744 0.0
O495 O 0.45508 0.82413 0.22591 0.0
C496 C 0.51684 0.85945 0.32816 0.0
C497 C 0.5094 0.83148 0.33482 0.0
H498 H 0.49088 0.77462 0.34146 0.0
H499 H 0.46102 0.73547 0.31272 0.0
H500 H 0.50576 0.91432 0.27153 0.0
H501 H 0.52641 0.91006 0.3095 0.0
H502 H 0.5306 0.87743 0.33971 0.0
H503 H 0.51737 0.82835 0.35145 0.0
C504 C 0.17456 0.62246 0.27806 0.0
C505 C 0.1644 0.63258 0.29637 0.0
C506 C 0.20339 0.63819 0.27077 0.0
C507 C 0.22244 0.66508 0.2816 0.0
C508 C 0.21245 0.67543 0.30007 0.0
C509 C 0.18373 0.65892 0.30742 0.0
C510 C 0.21338 0.62617 0.25129 0.0
C511 C 0.23198 0.70419 0.31188 0.0
C512 C 0.30425 0.69917 0.27745 0.0
C513 C 0.31036 0.71866 0.25934 0.0
C514 C 0.27562 0.6809 0.28437 0.0
C515 C 0.25267 0.68273 0.27331 0.0
C516 C 0.25872 0.70218 0.25483 0.0
C517 C 0.28747 0.71966 0.24787 0.0
C518 C 0.26997 0.65993 0.30372 0.0
C519 C 0.23495 0.70521 0.24292 0.0
H520 H 0.15985 0.60244 0.26905 0.0
H521 H 0.17647 0.66676 0.3219 0.0
H522 H 0.21928 0.64024 0.23586 0.0
H523 H 0.23307 0.62565 0.25704 0.0
H524 H 0.19646 0.60416 0.24573 0.0
H525 H 0.22076 0.70937 0.32574 0.0
H526 H 0.25119 0.70448 0.3199 0.0
H527 H 0.24002 0.72134 0.29867 0.0
H528 H 0.32189 0.69824 0.28627 0.0
H529 H 0.29213 0.73486 0.23398 0.0
H530 H 0.25349 0.63794 0.29779 0.0
H531 H 0.26112 0.6655 0.31911 0.0
H532 H 0.28992 0.6598 0.3094 0.0
H533 H 0.21806 0.68422 0.23549 0.0
H534 H 0.2432 0.72101 0.2286 0.0
H535 H 0.22433 0.71217 0.25598 0.0
C536 C 0.53793 0.18843 0.47245 0.0
C537 C 0.54592 0.16965 0.46214 0.0
C538 C 0.55063 0.21717 0.46572 0.0
C539 C 0.5725 0.22779 0.44867 0.0
C540 C 0.58123 0.20925 0.43858 0.0
C541 C 0.56762 0.18039 0.4452 0.0
C542 C 0.54042 0.23612 0.4767 0.0
C543 C 0.60483 0.21987 0.42066 0.0
C544 C 0.5859 0.29431 0.41578 0.0
C545 C 0.60891 0.31621 0.42891 0.0
C546 C 0.57401 0.26542 0.42189 0.0
C547 C 0.58589 0.2582 0.44124 0.0
C548 C 0.60985 0.28018 0.454 0.0
C549 C 0.62083 0.30895 0.44787 0.0
C550 C 0.54809 0.24272 0.40813 0.0
C551 C 0.62362 0.27334 0.47436 0.0
H552 H 0.52172 0.18074 0.48592 0.0
H553 H 0.57375 0.16616 0.43675 0.0
H554 H 0.55872 0.25455 0.48609 0.0
H555 H 0.53251 0.24499 0.46284 0.0
H556 H 0.52272 0.22442 0.48928 0.0
H557 H 0.61024 0.20319 0.41543 0.0
H558 H 0.59795 0.22675 0.40475 0.0
H559 H 0.62475 0.23887 0.42778 0.0
H560 H 0.57646 0.29983 0.40122 0.0
H561 H 0.63873 0.32581 0.45799 0.0
H562 H 0.52934 0.23173 0.41987 0.0
H563 H 0.55276 0.2262 0.4011 0.0
H564 H 0.5418 0.25179 0.39327 0.0
H565 H 0.60789 0.26392 0.4887 0.0
H566 H 0.64335 0.29264 0.48139 0.0
H567 H 0.62955 0.25714 0.46886 0.0
C568 C 0.4013 0.57113 0.60501 0.0
C569 C 0.41032 0.57146 0.62827 0.0
C570 C 0.38296 0.58194 0.59928 0.0
C571 C 0.37316 0.59313 0.61729 0.0
C572 C 0.3833 0.59478 0.64066 0.0
C573 C 0.40188 0.584 0.64586 0.0
C574 C 0.3729 0.58003 0.57411 0.0
C575 C 0.37323 0.60638 0.66036 0.0
C576 C 0.33357 0.6322 0.59785 0.0
C577 C 0.30469 0.60973 0.59737 0.0
C578 C 0.35621 0.62745 0.60497 0.0
C579 C 0.34969 0.59972 0.61198 0.0
C580 C 0.32046 0.57737 0.61251 0.0
C581 C 0.29842 0.58261 0.60511 0.0
C582 C 0.38712 0.65177 0.6041 0.0
C583 C 0.31247 0.54756 0.62014 0.0
H584 H 0.40817 0.56185 0.59132 0.0
H585 H 0.4087 0.58417 0.66388 0.0
H586 H 0.34946 0.56399 0.57246 0.0
H587 H 0.37571 0.60094 0.56858 0.0
H588 H 0.38485 0.57363 0.56191 0.0
H589 H 0.38577 0.60948 0.67692 0.0
H590 H 0.37514 0.62715 0.65554 0.0
H591 H 0.35001 0.5912 0.66362 0.0
H592 H 0.33859 0.65319 0.59185 0.0
H593 H 0.27613 0.56521 0.60511 0.0
H594 H 0.3987 0.64713 0.59022 0.0
H595 H 0.39867 0.65384 0.62097 0.0
H596 H 0.38844 0.67258 0.60033 0.0
H597 H 0.32116 0.53799 0.60759 0.0
H598 H 0.28865 0.53312 0.62105 0.0
H599 H 0.32232 0.5485 0.63762 0.0
C600 C 0.8438 0.42645 0.77386 0.0
C601 C 0.85391 0.42673 0.79674 0.0
C602 C 0.81537 0.40615 0.76675 0.0
C603 C 0.79664 0.38568 0.78292 0.0
C604 C 0.80625 0.38687 0.80638 0.0
C605 C 0.83476 0.40737 0.813 0.0
C606 C 0.80593 0.40559 0.74159 0.0
C607 C 0.78693 0.36555 0.8242 0.0
C608 C 0.71619 0.33922 0.76766 0.0
C609 C 0.71485 0.31398 0.75918 0.0
C610 C 0.74265 0.36284 0.77544 0.0
C611 C 0.76832 0.36116 0.77471 0.0
C612 C 0.76708 0.33579 0.76621 0.0
C613 C 0.74046 0.31259 0.75858 0.0
C614 C 0.74318 0.38957 0.78439 0.0
C615 C 0.79394 0.33309 0.76517 0.0
H616 H 0.85853 0.44124 0.76118 0.0
H617 H 0.84232 0.40784 0.83082 0.0
H618 H 0.80351 0.3862 0.73243 0.0
H619 H 0.78452 0.40433 0.74077 0.0
H620 H 0.82177 0.42479 0.73197 0.0
H621 H 0.79655 0.37121 0.84221 0.0
H622 H 0.76548 0.36423 0.82426 0.0
H623 H 0.78318 0.34392 0.81941 0.0
H624 H 0.69661 0.34059 0.76818 0.0
H625 H 0.73983 0.29331 0.75205 0.0
H626 H 0.75804 0.40818 0.77376 0.0
H627 H 0.75164 0.39438 0.80274 0.0
H628 H 0.72136 0.38748 0.78381 0.0
H629 H 0.81031 0.3501 0.75404 0.0
H630 H 0.7893 0.31191 0.75801 0.0
H631 H 0.80377 0.33609 0.78299 0.0
C632 C 0.42465 0.84546 0.95741 0.0
C633 C 0.45451 0.86432 0.96081 0.0
C634 C 0.41384 0.8165 0.95117 0.0
C635 C 0.43329 0.80599 0.94864 0.0
C636 C 0.4634 0.82484 0.95207 0.0
C637 C 0.47364 0.85376 0.95785 0.0
C638 C 0.3816 0.79711 0.94735 0.0
C639 C 0.48485 0.81443 0.94972 0.0
C640 C 0.40588 0.72626 0.95438 0.0
C641 C 0.40505 0.71772 0.93094 0.0
C642 C 0.41465 0.75486 0.96038 0.0
C643 C 0.42228 0.77527 0.94247 0.0
C644 C 0.42064 0.76656 0.91871 0.0
C645 C 0.4123 0.73794 0.91325 0.0
C646 C 0.41656 0.7634 0.98594 0.0
C647 C 0.42813 0.78758 0.89909 0.0
H648 H 0.40961 0.85322 0.95992 0.0
H649 H 0.49678 0.86818 0.95988 0.0
H650 H 0.3771 0.78706 0.92957 0.0
H651 H 0.37324 0.77952 0.96015 0.0
H652 H 0.36947 0.80881 0.94924 0.0
H653 H 0.5075 0.83168 0.95352 0.0
H654 H 0.47937 0.79659 0.96191 0.0
H655 H 0.48363 0.80594 0.93168 0.0
H656 H 0.4004 0.71073 0.96813 0.0
H657 H 0.41149 0.7314 0.89508 0.0
H658 H 0.40334 0.77372 0.98902 0.0
H659 H 0.43932 0.77938 0.99082 0.0
H660 H 0.40905 0.74479 0.99769 0.0
H661 H 0.41529 0.79858 0.90045 0.0
H662 H 0.424 0.77702 0.8815 0.0
H663 H 0.45134 0.80433 0.90056 0.0
C664 C 0.60091 0.43994 0.12001 0.0
C665 C 0.61396 0.46837 0.1284 0.0
C666 C 0.61778 0.42779 0.11329 0.0
C667 C 0.64839 0.44442 0.11518 0.0
C668 C 0.66163 0.47297 0.12401 0.0
C669 C 0.64426 0.48459 0.13047 0.0
C670 C 0.60291 0.39732 0.10387 0.0
C671 C 0.69418 0.49134 0.1265 0.0
C672 C 0.69427 0.40859 0.11744 0.0
C673 C 0.70515 0.41289 0.09466 0.0
C674 C 0.67522 0.41813 0.1242 0.0
C675 C 0.66675 0.43221 0.10777 0.0
C676 C 0.67704 0.43592 0.08457 0.0
C677 C 0.69617 0.42626 0.07831 0.0
C678 C 0.66479 0.41384 0.14912 0.0
C679 C 0.66841 0.45073 0.06652 0.0
H680 H 0.57751 0.42741 0.11819 0.0
H681 H 0.65444 0.50643 0.13728 0.0
H682 H 0.60975 0.39696 0.08564 0.0
H683 H 0.60942 0.38426 0.1145 0.0
H684 H 0.57891 0.38708 0.10392 0.0
H685 H 0.70103 0.51298 0.13401 0.0
H686 H 0.70282 0.48072 0.13798 0.0
H687 H 0.70421 0.49389 0.10912 0.0
H688 H 0.70109 0.39825 0.13018 0.0
H689 H 0.70441 0.42958 0.06065 0.0
H690 H 0.64077 0.40265 0.14925 0.0
H691 H 0.67291 0.43499 0.15802 0.0
H692 H 0.67221 0.40123 0.15941 0.0
H693 H 0.64445 0.44026 0.06511 0.0
H694 H 0.67694 0.45045 0.04891 0.0
H695 H 0.67672 0.47336 0.07208 0.0
C696 C 0.41149 0.85751 0.53203 0.0
C697 C 0.39681 0.87051 0.52205 0.0
C698 C 0.39633 0.8289 0.53935 0.0
C699 C 0.36576 0.8129 0.53664 0.0
C700 C 0.35089 0.82578 0.52629 0.0
C701 C 0.36657 0.85435 0.51911 0.0
C702 C 0.41296 0.81591 0.55028 0.0
C703 C 0.31834 0.80945 0.52296 0.0
C704 C 0.32466 0.73133 0.5364 0.0
C705 C 0.31287 0.72557 0.55889 0.0
C706 C 0.34271 0.75963 0.52919 0.0
C707 C 0.3491 0.78276 0.54481 0.0
C708 C 0.33807 0.77705 0.5678 0.0
C709 C 0.32011 0.74853 0.57456 0.0
C710 C 0.35412 0.76478 0.50457 0.0
C711 C 0.34442 0.8011 0.58499 0.0
H712 H 0.43481 0.86991 0.53459 0.0
H713 H 0.3551 0.86406 0.51106 0.0
H714 H 0.40591 0.80973 0.56856 0.0
H715 H 0.40826 0.79609 0.5405 0.0
H716 H 0.43674 0.83091 0.55053 0.0
H717 H 0.31008 0.82248 0.51443 0.0
H718 H 0.3116 0.78985 0.51205 0.0
H719 H 0.30787 0.80242 0.54019 0.0
H720 H 0.31925 0.71372 0.52419 0.0
H721 H 0.31113 0.74428 0.59198 0.0
H722 H 0.37798 0.77913 0.50495 0.0
H723 H 0.34464 0.77571 0.49445 0.0
H724 H 0.34885 0.74453 0.49514 0.0
H725 H 0.36813 0.81596 0.58671 0.0
H726 H 0.33579 0.79309 0.60265 0.0
H727 H 0.33458 0.81368 0.57839 0.0
C728 C 0.58117 0.42377 0.69601 0.0
C729 C 0.55134 0.41201 0.69149 0.0
C730 C 0.5926 0.40643 0.70305 0.0
C731 C 0.57385 0.37655 0.70528 0.0
C732 C 0.54377 0.36454 0.70079 0.0
C733 C 0.53287 0.38242 0.69416 0.0
C734 C 0.62477 0.42006 0.70792 0.0
C735 C 0.52308 0.33273 0.7028 0.0
C736 C 0.60428 0.32626 0.70051 0.0
C737 C 0.60463 0.31889 0.72398 0.0
C738 C 0.5947 0.34532 0.69423 0.0
C739 C 0.58565 0.35763 0.71187 0.0
C740 C 0.58675 0.35093 0.73567 0.0
C741 C 0.59602 0.33145 0.74143 0.0
C742 C 0.5935 0.35163 0.66863 0.0
C743 C 0.5777 0.36398 0.75502 0.0
H744 H 0.59571 0.44651 0.69373 0.0
H745 H 0.50974 0.37314 0.69123 0.0
H746 H 0.62874 0.41478 0.72584 0.0
H747 H 0.63434 0.41132 0.69544 0.0
H748 H 0.63623 0.44376 0.70636 0.0
H749 H 0.50032 0.32674 0.69849 0.0
H750 H 0.52955 0.32066 0.6908 0.0
H751 H 0.52401 0.32581 0.72088 0.0
H752 H 0.61081 0.31655 0.68692 0.0
H753 H 0.59639 0.32596 0.75961 0.0
H754 H 0.60614 0.37507 0.66583 0.0
H755 H 0.57075 0.34425 0.66314 0.0
H756 H 0.60209 0.34095 0.65712 0.0
H757 H 0.58984 0.38771 0.75395 0.0
H758 H 0.58146 0.35788 0.77271 0.0
H759 H 0.55433 0.35689 0.7529 0.0
C760 C 0.16487 0.57773 0.88158 0.0
C761 C 0.15704 0.57777 0.85805 0.0
C762 C 0.19351 0.58616 0.88814 0.0
C763 C 0.21473 0.59443 0.87067 0.0
C764 C 0.20721 0.59578 0.84698 0.0
C765 C 0.1784 0.58757 0.84096 0.0
C766 C 0.20071 0.58481 0.91363 0.0
C767 C 0.22915 0.60425 0.82784 0.0
C768 C 0.29339 0.62851 0.89159 0.0
C769 C 0.29693 0.60442 0.8928 0.0
C770 C 0.26694 0.62582 0.88389 0.0
C771 C 0.24374 0.59848 0.87696 0.0
C772 C 0.2476 0.57433 0.87734 0.0
C773 C 0.27403 0.57757 0.88539 0.0
C774 C 0.26351 0.65199 0.88391 0.0
C775 C 0.22353 0.54486 0.86981 0.0
H776 H 0.14837 0.57046 0.89483 0.0
H777 H 0.17229 0.58746 0.82274 0.0
H778 H 0.20556 0.5672 0.91594 0.0
H779 H 0.22031 0.60507 0.91932 0.0
H780 H 0.18261 0.58096 0.92528 0.0
H781 H 0.22077 0.60735 0.81084 0.0
H782 H 0.24937 0.62433 0.8328 0.0
H783 H 0.23491 0.58725 0.82538 0.0
H784 H 0.31097 0.64933 0.89734 0.0
H785 H 0.27668 0.5589 0.88598 0.0
H786 H 0.24727 0.64951 0.89705 0.0
H787 H 0.2553 0.65424 0.86656 0.0
H788 H 0.28421 0.67198 0.88817 0.0
H789 H 0.20513 0.53765 0.8819 0.0
H790 H 0.23067 0.52869 0.86969 0.0
H791 H 0.21534 0.54555 0.85198 0.0
C792 C 0.59326 0.17958 0.03043 0.0
C793 C 0.60245 0.16584 0.0146 0.0
C794 C 0.6121 0.20802 0.03796 0.0
C795 C 0.64053 0.22304 0.0291 0.0
C796 C 0.64913 0.20977 0.01191 0.0
C797 C 0.63007 0.1812 0.00506 0.0
C798 C 0.60224 0.22126 0.05652 0.0
C799 C 0.67905 0.22519 1.00171 0.0
C800 C 0.68957 0.3033 0.04033 0.0
C801 C 0.70788 0.30346 0.0583 0.0
C802 C 0.66706 0.27728 0.03085 0.0
C803 C 0.66251 0.25098 0.03991 0.0
C804 C 0.6802 0.25116 0.05871 0.0
C805 C 0.70279 0.27733 0.06749 0.0
C806 C 0.64889 0.27788 0.01059 0.0
C807 C 0.67577 0.22363 0.06921 0.0
H808 H 0.57189 0.16759 0.03785 0.0
H809 H 0.63699 0.17058 0.99262 0.0
H810 H 0.61384 0.2231 0.07332 0.0
H811 H 0.6076 0.24323 0.05163 0.0
H812 H 0.57856 0.20826 0.05942 0.0
H813 H 0.68102 0.21332 0.98645 0.0
H814 H 0.6845 0.24695 0.9961 0.0
H815 H 0.69532 0.2278 0.01532 0.0
H816 H 0.69351 0.32345 0.03312 0.0
H817 H 0.71665 0.27729 0.08154 0.0
H818 H 0.6255 0.26451 0.01433 0.0
H819 H 0.65307 0.26862 0.99466 0.0
H820 H 0.65369 0.3 0.00675 0.0
H821 H 0.65289 0.21001 0.07436 0.0
H822 H 0.69 0.22757 0.08486 0.0
H823 H 0.68043 0.21132 0.05596 0.0
C824 C 0.44909 0.62611 0.17081 0.0
C825 C 0.46449 0.62018 0.18786 0.0
C826 C 0.4384 0.64468 0.17587 0.0
C827 C 0.44313 0.65747 0.19852 0.0
C828 C 0.45753 0.65052 0.21606 0.0
C829 C 0.4681 0.63204 0.2105 0.0
C830 C 0.42329 0.65167 0.15667 0.0
C831 C 0.46283 0.6635 0.2405 0.0
C832 C 0.45187 0.73106 0.20803 0.0
C833 C 0.42567 0.72456 0.21851 0.0
C834 C 0.45712 0.70934 0.20031 0.0
C835 C 0.43579 0.68029 0.20341 0.0
C836 C 0.40872 0.67351 0.21298 0.0
C837 C 0.40388 0.69579 0.22029 0.0
C838 C 0.48611 0.71756 0.18986 0.0
C839 C 0.38551 0.6428 0.21664 0.0
H840 H 0.44637 0.6171 0.15325 0.0
H841 H 0.47955 0.62712 0.22383 0.0
H842 H 0.4027 0.64946 0.16304 0.0
H843 H 0.43721 0.67429 0.15149 0.0
H844 H 0.41851 0.63763 0.14088 0.0
H845 H 0.47214 0.65405 0.25261 0.0
H846 H 0.47806 0.68695 0.23982 0.0
H847 H 0.44229 0.66038 0.24784 0.0
H848 H 0.46866 0.75329 0.20634 0.0
H849 H 0.38364 0.69066 0.22846 0.0
H850 H 0.48302 0.70581 0.17299 0.0
H851 H 0.49855 0.71146 0.20191 0.0
H852 H 0.49925 0.74094 0.18671 0.0
H853 H 0.38187 0.62972 0.20046 0.0
H854 H 0.36462 0.641 0.22176 0.0
H855 H 0.39268 0.63349 0.23068 0.0
C856 C 0.84996 0.45301 0.36485 0.0
C857 C 0.86121 0.47683 0.35025 0.0
C858 C 0.82146 0.4406 0.37296 0.0
C859 C 0.8038 0.45212 0.36602 0.0
C860 C 0.81453 0.47498 0.35004 0.0
C861 C 0.84318 0.4872 0.34251 0.0
C862 C 0.81095 0.41645 0.39013 0.0
C863 C 0.7963 0.48763 0.34191 0.0
C864 C 0.72292 0.4151 0.37823 0.0
C865 C 0.72268 0.43152 0.39738 0.0
C866 C 0.74925 0.42084 0.36814 0.0
C867 C 0.77579 0.44316 0.37775 0.0
C868 C 0.77559 0.45869 0.39785 0.0
C869 C 0.7491 0.45286 0.40725 0.0
C870 C 0.74859 0.40402 0.34659 0.0
C871 C 0.80336 0.48231 0.40894 0.0
H872 H 0.86394 0.44503 0.3709 0.0
H873 H 0.85177 0.50539 0.33097 0.0
H874 H 0.80963 0.4245 0.40779 0.0
H875 H 0.78888 0.39897 0.38507 0.0
H876 H 0.82566 0.40744 0.39131 0.0
H877 H 0.80646 0.50283 0.32736 0.0
H878 H 0.7745 0.4704 0.33597 0.0
H879 H 0.79327 0.4993 0.35676 0.0
H880 H 0.70255 0.39867 0.37048 0.0
H881 H 0.7491 0.46545 0.42221 0.0
H882 H 0.76408 0.39609 0.34869 0.0
H883 H 0.75543 0.41824 0.33122 0.0
H884 H 0.72663 0.38545 0.3428 0.0
H885 H 0.81868 0.47445 0.41253 0.0
H886 H 0.79957 0.49064 0.42563 0.0
H887 H 0.814 0.50037 0.39666 0.0
C888 C 0.0984 0.56987 0.44181 0.0
C889 C 0.10493 0.5928 0.42702 0.0
C890 C 0.11434 0.57392 0.46264 0.0
C891 C 0.1379 0.60143 0.46857 0.0
C892 C 0.14429 0.62482 0.45382 0.0
C893 C 0.12753 0.62026 0.43328 0.0
C894 C 0.10631 0.54855 0.47795 0.0
C895 C 0.16914 0.65453 0.45953 0.0
C896 C 0.16861 0.61969 0.53101 0.0
C897 C 0.19364 0.61755 0.52918 0.0
C898 C 0.14977 0.61367 0.51162 0.0
C899 C 0.15636 0.60565 0.48982 0.0
C900 C 0.18136 0.60289 0.48807 0.0
C901 C 0.19993 0.6093 0.5077 0.0
C902 C 0.12332 0.61676 0.51428 0.0
C903 C 0.189 0.59403 0.46528 0.0
H904 H 0.08066 0.54868 0.43707 0.0
H905 H 0.13254 0.63799 0.42179 0.0
H906 H 0.12343 0.54273 0.47684 0.0
H907 H 0.10499 0.55408 0.4965 0.0
H908 H 0.08531 0.52955 0.4725 0.0
H909 H 0.17075 0.67055 0.44663 0.0
H910 H 0.16654 0.66153 0.47725 0.0
H911 H 0.18984 0.65428 0.4598 0.0
H912 H 0.16409 0.6266 0.54756 0.0
H913 H 0.21989 0.60877 0.50606 0.0
H914 H 0.1036 0.5968 0.50825 0.0
H915 H 0.12524 0.63434 0.5031 0.0
H916 H 0.12037 0.62152 0.53271 0.0
H917 H 0.17058 0.57331 0.45881 0.0
H918 H 0.2085 0.59169 0.46712 0.0
H919 H 0.19312 0.61023 0.45176 0.0
C920 C 0.52254 0.1341 0.5987 0.0
C921 C 0.52778 0.11191 0.59247 0.0
C922 C 0.5351 0.15072 0.61923 0.0
C923 C 0.5529 0.14462 0.63397 0.0
C924 C 0.5572 0.12144 0.62811 0.0
C925 C 0.5449 0.10561 0.60731 0.0
C926 C 0.52978 0.17512 0.62492 0.0
C927 C 0.57543 0.11377 0.64342 0.0
C928 C 0.60784 0.20661 0.67254 0.0
C929 C 0.59399 0.20038 0.69413 0.0
C930 C 0.59525 0.18801 0.65307 0.0
C931 C 0.56769 0.16308 0.65508 0.0
C932 C 0.55377 0.15657 0.67698 0.0
C933 C 0.56706 0.1754 0.69623 0.0
C934 C 0.61104 0.19553 0.63016 0.0
C935 C 0.52443 0.13022 0.67988 0.0
H936 H 0.50926 0.13893 0.58719 0.0
H937 H 0.54862 0.08816 0.60262 0.0
H938 H 0.52074 0.17257 0.64272 0.0
H939 H 0.5506 0.19573 0.62498 0.0
H940 H 0.5146 0.1764 0.61212 0.0
H941 H 0.57349 0.09296 0.63813 0.0
H942 H 0.59837 0.13073 0.64206 0.0
H943 H 0.56926 0.11272 0.66203 0.0
H944 H 0.62809 0.22654 0.67069 0.0
H945 H 0.55613 0.17093 0.71286 0.0
H946 H 0.59816 0.19925 0.61667 0.0
H947 H 0.61362 0.17742 0.62378 0.0
H948 H 0.63283 0.21502 0.6318 0.0
H949 H 0.50807 0.13187 0.6688 0.0
H950 H 0.51731 0.12736 0.69836 0.0
H951 H 0.52487 0.11078 0.67389 0.0
C952 C 0.42175 0.55951 0.75366 0.0
C953 C 0.44357 0.55228 0.75586 0.0
C954 C 0.41223 0.56822 0.77329 0.0
C955 C 0.42491 0.56985 0.79564 0.0
C956 C 0.44734 0.56317 0.7979 0.0
C957 C 0.45633 0.55439 0.77802 0.0
C958 C 0.38823 0.57516 0.7702 0.0
C959 C 0.46139 0.56462 0.82143 0.0
C960 C 0.41599 0.61202 0.84559 0.0
C961 C 0.39399 0.59002 0.85851 0.0
C962 C 0.42604 0.60585 0.8249 0.0
C963 C 0.41373 0.57704 0.81689 0.0
C964 C 0.39121 0.55483 0.82959 0.0
C965 C 0.38168 0.56156 0.85023 0.0
C966 C 0.45019 0.63008 0.81185 0.0
C967 C 0.37742 0.52384 0.82156 0.0
H968 H 0.41208 0.55836 0.73656 0.0
H969 H 0.47291 0.54847 0.77995 0.0
H970 H 0.36909 0.5599 0.78025 0.0
H971 H 0.39529 0.59699 0.77729 0.0
H972 H 0.38149 0.574 0.75152 0.0
H973 H 0.47963 0.56028 0.82001 0.0
H974 H 0.46968 0.5861 0.82975 0.0
H975 H 0.44509 0.54868 0.8333 0.0
H976 H 0.4257 0.63406 0.85181 0.0
H977 H 0.3646 0.54436 0.85995 0.0
H978 H 0.44337 0.62987 0.79336 0.0
H979 H 0.46938 0.62717 0.81157 0.0
H980 H 0.45677 0.65139 0.81992 0.0
H981 H 0.36877 0.5213 0.80336 0.0
H982 H 0.35949 0.50921 0.83301 0.0
H983 H 0.39396 0.51708 0.82145 0.0
C984 C 0.88531 0.42619 0.92149 0.0
C985 C 0.90677 0.45519 0.92147 0.0
C986 C 0.86689 0.41465 0.94063 0.0
C987 C 0.87065 0.43241 0.96041 0.0
C988 C 0.89231 0.46178 0.96037 0.0
C989 C 0.90989 0.47291 0.94074 0.0
C990 C 0.84359 0.38343 0.93975 0.0
C991 C 0.89745 0.48127 0.98132 0.0
C992 C 0.81115 0.41102 0.00503 0.0
C993 C 0.82004 0.39885 0.02259 0.0
C994 C 0.82696 0.42132 0.98439 0.0
C995 C 0.85267 0.4201 0.98152 0.0
C996 C 0.86166 0.4077 0.99911 0.0
C997 C 0.84501 0.39684 0.01924 0.0
C998 C 0.81626 0.43368 0.96574 0.0
C999 C 0.88926 0.40652 0.99694 0.0
H1000 H 0.88289 0.41261 0.90646 0.0
H1001 H 0.92668 0.4953 0.94068 0.0
H1002 H 0.84793 0.37163 0.95355 0.0
H1003 H 0.82219 0.3813 0.94336 0.0
H1004 H 0.84228 0.37306 0.92248 0.0
H1005 H 0.91509 0.5036 0.97844 0.0
H1006 H 0.87735 0.48165 0.98536 0.0
H1007 H 0.90323 0.47293 0.99695 0.0
H1008 H 0.79172 0.41239 0.00736 0.0
H1009 H 0.85206 0.38743 0.03264 0.0
H1010 H 0.81411 0.42274 0.94861 0.0
H1011 H 0.83222 0.45674 0.96359 0.0
H1012 H 0.795 0.43154 0.97004 0.0
H1013 H 0.88823 0.39424 0.98087 0.0
H1014 H 0.89336 0.39641 0.01228 0.0
H1015 H 0.90797 0.42854 0.99524 0.0
C1016 C 0.4541 0.92182 0.10492 0.0
C1017 C 0.47223 0.92015 0.08819 0.0
C1018 C 0.44663 0.90502 0.12508 0.0
C1019 C 0.45703 0.88565 0.12823 0.0
C1020 C 0.47464 0.8833 0.11095 0.0
C1021 C 0.48234 0.90087 0.09127 0.0
C1022 C 0.42835 0.90861 0.14332 0.0
C1023 C 0.48562 0.86246 0.11339 0.0
C1024 C 0.46446 0.8632 0.18965 0.0
C1025 C 0.43911 0.83645 0.19128 0.0
C1026 C 0.47022 0.87963 0.16942 0.0
C1027 C 0.45056 0.86874 0.15005 0.0
C1028 C 0.42504 0.84165 0.15146 0.0
C1029 C 0.41944 0.82597 0.17218 0.0
C1030 C 0.49737 0.9087 0.16881 0.0
C1031 C 0.4039 0.82903 0.13098 0.0
H1032 H 0.44648 0.93692 0.10255 0.0
H1033 H 0.49619 0.89949 0.07818 0.0
H1034 H 0.4087 0.8877 0.14659 0.0
H1035 H 0.44077 0.91617 0.16016 0.0
H1036 H 0.42154 0.92418 0.13801 0.0
H1037 H 0.49743 0.86188 0.09767 0.0
H1038 H 0.50044 0.86854 0.1289 0.0
H1039 H 0.46725 0.84054 0.1163 0.0
H1040 H 0.47973 0.87152 0.20432 0.0
H1041 H 0.39993 0.80521 0.17323 0.0
H1042 H 0.49169 0.9254 0.16464 0.0
H1043 H 0.51166 0.90889 0.15477 0.0
H1044 H 0.50975 0.91462 0.18573 0.0
H1045 H 0.39561 0.84355 0.12617 0.0
H1046 H 0.38518 0.80761 0.13483 0.0
H1047 H 0.41508 0.82691 0.11545 0.0
C1048 C 0.56402 0.46517 0.26955 0.0
C1049 C 0.58401 0.48887 0.25671 0.0
C1050 C 0.57255 0.45657 0.28986 0.0
C1051 C 0.60208 0.47107 0.29702 0.0
C1052 C 0.62267 0.49397 0.28356 0.0
C1053 C 0.61335 0.50298 0.26393 0.0
C1054 C 0.54976 0.43255 0.30407 0.0
C1055 C 0.65453 0.5094 0.29018 0.0
C1056 C 0.62206 0.47157 0.36125 0.0
C1057 C 0.62782 0.44888 0.36195 0.0
C1058 C 0.61309 0.47856 0.34035 0.0
C1059 C 0.61114 0.46339 0.31934 0.0
C1060 C 0.6177 0.44094 0.31978 0.0
C1061 C 0.62537 0.43355 0.3412 0.0
C1062 C 0.6053 0.50195 0.34084 0.0
C1063 C 0.61707 0.42507 0.2976 0.0
H1064 H 0.54148 0.45333 0.26394 0.0
H1065 H 0.62914 0.52155 0.25462 0.0
H1066 H 0.5548 0.41501 0.30571 0.0
H1067 H 0.54972 0.44055 0.32208 0.0
H1068 H 0.52767 0.42353 0.29618 0.0
H1069 H 0.6681 0.52426 0.27636 0.0
H1070 H 0.65828 0.52199 0.30667 0.0
H1071 H 0.66186 0.49372 0.2934 0.0
H1072 H 0.62397 0.48354 0.37717 0.0
H1073 H 0.63019 0.41624 0.34164 0.0
H1074 H 0.58302 0.49358 0.33359 0.0
H1075 H 0.6202 0.51987 0.32965 0.0
H1076 H 0.60644 0.51057 0.35885 0.0
H1077 H 0.59492 0.41397 0.28968 0.0
H1078 H 0.62385 0.40893 0.30079 0.0
H1079 H 0.63167 0.44051 0.28456 0.0
C1080 C 0.469 0.92072 0.38357 0.0
C1081 C 0.44529 0.92159 0.39318 0.0
C1082 C 0.46575 0.90382 0.36366 0.0
C1083 C 0.43788 0.8859 0.35363 0.0
C1084 C 0.41357 0.88545 0.36383 0.0
C1085 C 0.41761 0.90373 0.38308 0.0
C1086 C 0.49243 0.90615 0.35286 0.0
C1087 C 0.38326 0.86584 0.35426 0.0
C1088 C 0.42551 0.86003 0.28998 0.0
C1089 C 0.42206 0.83263 0.29196 0.0
C1090 C 0.4324 0.87824 0.30974 0.0
C1091 C 0.43413 0.8681 0.3322 0.0
C1092 C 0.43095 0.84045 0.33418 0.0
C1093 C 0.42532 0.82318 0.31394 0.0
C1094 C 0.43725 0.90811 0.30664 0.0
C1095 C 0.43214 0.82857 0.35775 0.0
H1096 H 0.49041 0.93342 0.39144 0.0
H1097 H 0.39899 0.90421 0.38987 0.0
H1098 H 0.4891 0.88457 0.34893 0.0
H1099 H 0.49634 0.91767 0.33612 0.0
H1100 H 0.51203 0.91797 0.36436 0.0
H1101 H 0.36647 0.86597 0.36551 0.0
H1102 H 0.38095 0.87255 0.33643 0.0
H1103 H 0.3791 0.84352 0.35271 0.0
H1104 H 0.42277 0.86716 0.27292 0.0
H1105 H 0.42203 0.8017 0.31545 0.0
H1106 H 0.45768 0.92406 0.31572 0.0
H1107 H 0.41932 0.90983 0.31466 0.0
H1108 H 0.4384 0.91379 0.28786 0.0
H1109 H 0.45299 0.84306 0.36697 0.0
H1110 H 0.42975 0.8069 0.35621 0.0
H1111 H 0.41457 0.82724 0.36885 0.0
C1112 C 0.53468 0.42738 0.55461 0.0
C1113 C 0.5416 0.45544 0.56053 0.0
C1114 C 0.54674 0.4218 0.53484 0.0
C1115 C 0.56562 0.44477 0.52047 0.0
C1116 C 0.57169 0.47294 0.52609 0.0
C1117 C 0.55999 0.47799 0.54622 0.0
C1118 C 0.53961 0.39143 0.5295 0.0
C1119 C 0.59103 0.49795 0.51118 0.0
C1120 C 0.61815 0.43333 0.48355 0.0
C1121 C 0.6041 0.4262 0.46156 0.0
C1122 C 0.60635 0.44034 0.50268 0.0
C1123 C 0.57941 0.43938 0.49989 0.0
C1124 C 0.56523 0.43233 0.47761 0.0
C1125 C 0.57768 0.42565 0.45874 0.0
C1126 C 0.62236 0.44806 0.52602 0.0
C1127 C 0.53663 0.43126 0.47381 0.0
H1128 H 0.52037 0.40996 0.56576 0.0
H1129 H 0.56505 0.49964 0.55072 0.0
H1130 H 0.53005 0.38487 0.51156 0.0
H1131 H 0.55976 0.39015 0.53 0.0
H1132 H 0.52419 0.37594 0.54215 0.0
H1133 H 0.59013 0.51757 0.51585 0.0
H1134 H 0.6136 0.50266 0.51377 0.0
H1135 H 0.58495 0.49263 0.49237 0.0
H1136 H 0.63799 0.43264 0.48595 0.0
H1137 H 0.56658 0.41963 0.44179 0.0
H1138 H 0.60893 0.43216 0.53927 0.0
H1139 H 0.62634 0.46933 0.53226 0.0
H1140 H 0.64351 0.44873 0.52507 0.0
H1141 H 0.51991 0.41444 0.48486 0.0
H1142 H 0.52902 0.42661 0.45521 0.0
H1143 H 0.53856 0.452 0.47925 0.0
C1144 C 0.13311 0.57081 0.73284 0.0
C1145 C 0.10457 0.56539 0.73021 0.0
C1146 C 0.15179 0.57903 0.71371 0.0
C1147 C 0.14173 0.582 0.6914 0.0
C1148 C 0.1132 0.57726 0.68874 0.0
C1149 C 0.09496 0.56896 0.70814 0.0
C1150 C 0.18206 0.58391 0.71727 0.0
C1151 C 0.10164 0.58018 0.66524 0.0
C1152 C 0.19569 0.62249 0.64356 0.0
C1153 C 0.19409 0.59991 0.62984 0.0
C1154 C 0.17901 0.61705 0.66379 0.0
C1155 C 0.16039 0.58838 0.67052 0.0
C1156 C 0.15902 0.56555 0.65698 0.0
C1157 C 0.17579 0.57156 0.63685 0.0
C1158 C 0.18097 0.64196 0.67775 0.0
C1159 C 0.13955 0.53467 0.66361 0.0
H1160 H 0.14088 0.56857 0.7499 0.0
H1161 H 0.07286 0.56451 0.70586 0.0
H1162 H 0.18462 0.56793 0.70669 0.0
H1163 H 0.19823 0.60546 0.71108 0.0
H1164 H 0.18705 0.58212 0.73594 0.0
H1165 H 0.07962 0.57747 0.6664 0.0
H1166 H 0.1164 0.60153 0.65789 0.0
H1167 H 0.10069 0.56382 0.65271 0.0
H1168 H 0.20967 0.64445 0.63834 0.0
H1169 H 0.17437 0.55389 0.62651 0.0
H1170 H 0.18702 0.64103 0.69628 0.0
H1171 H 0.15949 0.64058 0.67778 0.0
H1172 H 0.19709 0.663 0.6706 0.0
H1173 H 0.14489 0.53125 0.68172 0.0
H1174 H 0.14153 0.51942 0.65156 0.0
H1175 H 0.11662 0.52953 0.66335 0.0
C1176 C 0.54935 0.10293 0.87137 0.0
C1177 C 0.56271 0.112 0.8936 0.0
C1178 C 0.55927 0.12129 0.85217 0.0
C1179 C 0.58319 0.1494 0.85523 0.0
C1180 C 0.59642 0.1589 0.87771 0.0
C1181 C 0.586 0.14011 0.89662 0.0
C1182 C 0.54458 0.11035 0.82847 0.0
C1183 C 0.62193 0.18872 0.8817 0.0
C1184 C 0.62721 0.18437 0.80125 0.0
C1185 C 0.61666 0.20251 0.79445 0.0
C1186 C 0.61679 0.16734 0.82116 0.0
C1187 C 0.59521 0.16833 0.83466 0.0
C1188 C 0.58476 0.18688 0.82818 0.0
C1189 C 0.59562 0.20378 0.80819 0.0
C1190 C 0.6286 0.14793 0.82754 0.0
C1191 C 0.56172 0.18849 0.84215 0.0
H1192 H 0.53156 0.08116 0.86882 0.0
H1193 H 0.59614 0.14744 0.91382 0.0
H1194 H 0.53763 0.12507 0.82128 0.0
H1195 H 0.56011 0.10979 0.816 0.0
H1196 H 0.52534 0.08849 0.82927 0.0
H1197 H 0.62901 0.19321 0.90043 0.0
H1198 H 0.64046 0.19144 0.87115 0.0
H1199 H 0.61633 0.20494 0.87577 0.0
H1200 H 0.64348 0.18318 0.79087 0.0
H1201 H 0.58725 0.21764 0.80313 0.0
H1202 H 0.61086 0.12524 0.82688 0.0
H1203 H 0.63754 0.15273 0.84576 0.0
H1204 H 0.64591 0.15023 0.81559 0.0
H1205 H 0.54158 0.16726 0.84177 0.0
H1206 H 0.55656 0.20468 0.83526 0.0
H1207 H 0.56888 0.19396 0.86077 0.0
C1208 C 0.46211 0.5563 0.04171 0.0
C1209 C 0.47562 0.57671 0.05993 0.0
C1210 C 0.45044 0.56215 0.02179 0.0
C1211 C 0.45268 0.58933 0.01963 0.0
C1212 C 0.46723 0.61048 0.0375 0.0
C1213 C 0.47818 0.60382 0.05755 0.0
C1214 C 0.4347 0.5387 0.00358 0.0
C1215 C 0.47115 0.64015 0.03547 0.0
C1216 C 0.4428 0.61219 0.95887 0.0
C1217 C 0.41507 0.60889 0.96017 0.0
C1218 C 0.45528 0.60578 0.97803 0.0
C1219 C 0.43946 0.59551 0.9989 0.0
C1220 C 0.41125 0.59181 1.00015 0.0
C1221 C 0.39974 0.59928 0.98097 0.0
C1222 C 0.48566 0.61071 0.97616 0.0
C1223 C 0.39341 0.58032 0.02186 0.0
H1224 H 0.4606 0.53553 0.04295 0.0
H1225 H 0.48835 0.61977 0.0715 0.0
H1226 H 0.41112 0.52971 0.00574 0.0
H1227 H 0.44022 0.5471 0.9856 0.0
H1228 H 0.43954 0.52101 0.00549 0.0
H1229 H 0.48476 0.65475 0.05003 0.0
H1230 H 0.48138 0.64964 0.01858 0.0
H1231 H 0.44974 0.63889 0.03555 0.0
H1232 H 0.45499 0.62038 0.94298 0.0
H1233 H 0.379 0.59825 0.98245 0.0
H1234 H 0.48563 0.59035 0.97891 0.0
H1235 H 0.4998 0.62611 0.9901 0.0
H1236 H 0.49521 0.61924 0.95885 0.0
H1237 H 0.39093 0.55914 0.02605 0.0
H1238 H 0.37154 0.57791 0.01975 0.0
H1239 H 0.40463 0.59489 0.03708 0.0
C1240 C 0.91389 0.46102 0.21504 0.0
C1241 C 0.91575 0.48594 0.22482 0.0
C1242 C 0.89671 0.44748 0.19503 0.0
C1243 C 0.87924 0.45778 0.18519 0.0
C1244 C 0.87991 0.48216 0.1955 0.0
C1245 C 0.89861 0.49632 0.2148 0.0
C1246 C 0.89741 0.42208 0.18462 0.0
C1247 C 0.86082 0.49328 0.18617 0.0
C1248 C 0.85119 0.44273 0.12198 0.0
C1249 C 0.82323 0.41942 0.12444 0.0
C1250 C 0.87027 0.45428 0.14143 0.0
C1251 C 0.86044 0.44336 0.16405 0.0
C1252 C 0.83221 0.4195 0.16649 0.0
C1253 C 0.81409 0.40755 0.14656 0.0
C1254 C 0.90082 0.47835 0.13782 0.0
C1255 C 0.82071 0.40725 0.19021 0.0
H1256 H 0.92591 0.45184 0.22295 0.0
H1257 H 0.89989 0.51569 0.22179 0.0
H1258 H 0.87851 0.4022 0.19085 0.0
H1259 H 0.89635 0.42225 0.16525 0.0
H1260 H 0.91734 0.42171 0.19 0.0
H1261 H 0.86212 0.51097 0.1973 0.0
H1262 H 0.86727 0.50129 0.16816 0.0
H1263 H 0.83792 0.47565 0.18513 0.0
H1264 H 0.85812 0.45187 0.10481 0.0
H1265 H 0.79222 0.38974 0.14841 0.0
H1266 H 0.91652 0.47317 0.14622 0.0
H1267 H 0.90394 0.49837 0.14626 0.0
H1268 H 0.90593 0.48238 0.11894 0.0
H1269 H 0.83324 0.39771 0.1976 0.0
H1270 H 0.79747 0.39037 0.18929 0.0
H1271 H 0.82333 0.42453 0.20253 0.0
loop_
_geom_bond_atom_site_label_1
_geom_bond_atom_site_label_2
_geom_bond_distance
_geom_bond_site_symmetry_2
_ccdc_geom_bond_type
H0 C19 0.949 . S
H1 C20 0.950 . S
H2 C22 0.950 . S
H3 C23 0.950 . S
H4 C25 0.950 . S
H5 C28 0.950 . S
H6 C29 0.950 . S
H7 C31 0.951 . S
H8 C32 0.949 . S
H9 C34 0.949 . S
H10 C35 0.950 . S
H11 C37 0.950 . S
H12 C38 0.950 . S
H13 C40 0.950 . S
H14 C43 0.950 . S
H15 C44 0.950 . S
H16 C46 0.951 . S
H17 C47 0.949 . S
C18 C19 1.376 . S
C18 C23 1.386 . S
C18 C24 1.483 . S
C19 H0 0.949 . S
C19 C18 1.376 . S
C19 C20 1.397 . S
C20 H1 0.950 . S
C20 C19 1.397 . S
C20 C21 1.391 . S
C21 C20 1.391 . S
C21 C22 1.405 . S
C22 H2 0.950 . S
C22 C21 1.405 . S
C22 C23 1.367 . S
C23 H3 0.950 . S
C23 C18 1.386 . S
C23 C22 1.367 . S
C24 C18 1.483 . S
C24 C25 1.382 1_655 S
C24 C26 1.403 . S
C25 H4 0.950 . S
C25 C24 1.382 1_455 S
C25 C41 1.411 . S
C26 C24 1.403 . S
C26 C27 1.489 . S
C26 C40 1.411 . S
C27 C26 1.489 . S
C27 C28 1.383 . S
C27 C32 1.382 . S
C28 H5 0.950 . S
C28 C27 1.383 . S
C28 C29 1.395 . S
C29 H6 0.950 . S
C29 C28 1.395 . S
C29 C30 1.288 . S
C30 C29 1.288 . S
C30 C31 1.392 . S
C31 H7 0.951 . S
C31 C30 1.392 . S
C31 C32 1.392 . S
C32 H8 0.949 . S
C32 C27 1.382 . S
C32 C31 1.392 . S
C33 C34 1.376 . S
C33 C38 1.386 . S
C33 C39 1.483 . S
C34 H9 0.949 . S
C34 C33 1.376 . S
C34 C35 1.397 . S
C35 H10 0.950 . S
C35 C34 1.397 . S
C35 C36 1.391 . S
C36 C35 1.391 . S
C36 C37 1.405 . S
C37 H11 0.950 . S
C37 C36 1.405 . S
C37 C38 1.367 . S
C38 H12 0.950 . S
C38 C33 1.386 . S
C38 C37 1.367 . S
C39 C33 1.483 . S
C39 C40 1.382 1_455 S
C39 C41 1.403 . S
C40 H13 0.950 . S
C40 C26 1.411 . S
C40 C39 1.382 1_655 S
C41 C25 1.411 . S
C41 C39 1.403 . S
C41 C42 1.489 . S
C42 C41 1.489 . S
C42 C43 1.383 . S
C42 C47 1.382 . S
C43 H14 0.950 . S
C43 C42 1.383 . S
C43 C44 1.395 . S
C44 H15 0.950 . S
C44 C43 1.395 . S
C44 C45 1.288 . S
C45 C44 1.288 . S
C45 C46 1.392 . S
C46 H16 0.951 . S
C46 C45 1.392 . S
C46 C47 1.392 . S
C47 H17 0.949 . S
C47 C42 1.382 . S
C47 C46 1.392 . S
H48 C67 0.949 . S
H49 C68 0.950 . S
H50 C70 0.950 . S
H51 C71 0.950 . S
H52 C73 0.950 . S
H53 C76 0.950 . S
H54 C77 0.950 . S
H55 C79 0.951 . S
H56 C80 0.949 . S
H57 C82 0.949 . S
H58 C83 0.950 . S
H59 C85 0.950 . S
H60 C86 0.950 . S
H61 C88 0.950 . S
H62 C91 0.950 . S
H63 C92 0.950 . S
H64 C94 0.951 . S
H65 C95 0.949 . S
C66 C67 1.376 . S
C66 C71 1.386 . S
C66 C72 1.483 . S
C67 H48 0.949 . S
C67 C66 1.376 . S
C67 C68 1.397 . S
C68 H49 0.950 . S
C68 C67 1.397 . S
C68 C69 1.391 . S
C69 C68 1.391 . S
C69 C70 1.405 . S
C70 H50 0.950 . S
C70 C69 1.405 . S
C70 C71 1.367 . S
C71 H51 0.950 . S
C71 C66 1.386 . S
C71 C70 1.367 . S
C72 C66 1.483 . S
C72 C73 1.382 1_565 S
C72 C74 1.403 . S
C73 H52 0.950 . S
C73 C72 1.382 1_545 S
C73 C89 1.411 . S
C74 C72 1.403 . S
C74 C75 1.489 . S
C74 C88 1.411 1_565 S
C75 C74 1.489 . S
C75 C76 1.383 . S
C75 C80 1.382 . S
C76 H53 0.950 . S
C76 C75 1.383 . S
C76 C77 1.395 . S
C77 H54 0.950 . S
C77 C76 1.395 . S
C77 C78 1.288 . S
C78 C77 1.288 . S
C78 C79 1.392 . S
C79 H55 0.951 . S
C79 C78 1.392 . S
C79 C80 1.392 . S
C80 H56 0.949 . S
C80 C75 1.382 . S
C80 C79 1.392 . S
C81 C82 1.376 . S
C81 C86 1.386 . S
C81 C87 1.483 . S
C82 H57 0.949 . S
C82 C81 1.376 . S
C82 C83 1.397 . S
C83 H58 0.950 . S
C83 C82 1.397 . S
C83 C84 1.391 . S
C84 C83 1.391 . S
C84 C85 1.405 . S
C85 H59 0.950 . S
C85 C84 1.405 . S
C85 C86 1.367 . S
C86 H60 0.950 . S
C86 C81 1.386 . S
C86 C85 1.367 . S
C87 C81 1.483 . S
C87 C88 1.382 . S
C87 C89 1.403 . S
C88 H61 0.950 . S
C88 C74 1.411 1_545 S
C88 C87 1.382 . S
C89 C73 1.411 . S
C89 C87 1.403 . S
C89 C90 1.489 . S
C90 C89 1.489 . S
C90 C91 1.383 . S
C90 C95 1.382 . S
C91 H62 0.950 . S
C91 C90 1.383 . S
C91 C92 1.395 . S
C92 H63 0.950 . S
C92 C91 1.395 . S
C92 C93 1.288 . S
C93 C92 1.288 . S
C93 C94 1.392 . S
C94 H64 0.951 . S
C94 C93 1.392 . S
C94 C95 1.392 . S
C95 H65 0.949 . S
C95 C90 1.382 . S
C95 C94 1.392 . S
H96 C115 0.949 . S
H97 C116 0.950 . S
H98 C118 0.950 . S
H99 C119 0.950 . S
H100 C121 0.950 . S
H101 C124 0.950 . S
H102 C125 0.950 . S
H103 C127 0.951 . S
H104 C128 0.949 . S
H105 C130 0.949 . S
H106 C131 0.950 . S
H107 C133 0.950 . S
H108 C134 0.950 . S
H109 C136 0.950 . S
H110 C139 0.950 . S
H111 C140 0.950 . S
H112 C142 0.951 . S
H113 C143 0.949 . S
C114 C115 1.376 . S
C114 C119 1.386 . S
C114 C120 1.483 . S
C115 H96 0.949 . S
C115 C114 1.376 . S
C115 C116 1.397 . S
C116 H97 0.950 . S
C116 C115 1.397 . S
C116 C117 1.391 . S
C117 C116 1.391 . S
C117 C118 1.405 . S
C118 H98 0.950 . S
C118 C117 1.405 . S
C118 C119 1.367 . S
C119 H99 0.950 . S
C119 C114 1.386 . S
C119 C118 1.367 . S
C120 C114 1.483 . S
C120 C121 1.382 . S
C120 C122 1.403 . S
C121 H100 0.950 . S
C121 C120 1.382 . S
C121 C137 1.411 . S
C122 C120 1.403 . S
C122 C123 1.489 . S
C122 C136 1.411 . S
C123 C122 1.489 . S
C123 C124 1.383 . S
C123 C128 1.382 . S
C124 H101 0.950 . S
C124 C123 1.383 . S
C124 C125 1.395 . S
C125 H102 0.950 . S
C125 C124 1.395 . S
C125 C126 1.288 . S
C126 C125 1.288 . S
C126 C127 1.392 . S
C127 H103 0.951 . S
C127 C126 1.392 . S
C127 C128 1.392 . S
C128 H104 0.949 . S
C128 C123 1.382 . S
C128 C127 1.392 . S
C129 C130 1.376 . S
C129 C134 1.386 . S
C129 C135 1.483 . S
C130 H105 0.949 . S
C130 C129 1.376 . S
C130 C131 1.397 . S
C131 H106 0.950 . S
C131 C130 1.397 . S
C131 C132 1.391 . S
C132 C131 1.391 . S
C132 C133 1.405 . S
C133 H107 0.950 . S
C133 C132 1.405 . S
C133 C134 1.367 . S
C134 H108 0.950 . S
C134 C129 1.386 . S
C134 C133 1.367 . S
C135 C129 1.483 . S
C135 C136 1.382 . S
C135 C137 1.403 . S
C136 H109 0.950 . S
C136 C122 1.411 . S
C136 C135 1.382 . S
C137 C121 1.411 . S
C137 C135 1.403 . S
C137 C138 1.489 . S
C138 C137 1.489 . S
C138 C139 1.383 . S
C138 C143 1.382 . S
C139 H110 0.950 . S
C139 C138 1.383 . S
C139 C140 1.395 . S
C140 H111 0.950 . S
C140 C139 1.395 . S
C140 C141 1.288 . S
C141 C140 1.288 . S
C141 C142 1.392 . S
C142 H112 0.951 . S
C142 C141 1.392 . S
C142 C143 1.392 . S
C143 H113 0.949 . S
C143 C138 1.382 . S
C143 C142 1.392 . S
H144 C163 0.949 . S
H145 C164 0.950 . S
H146 C166 0.950 . S
H147 C167 0.950 . S
H148 C169 0.950 . S
H149 C172 0.950 . S
H150 C173 0.950 . S
H151 C175 0.951 . S
H152 C176 0.949 . S
H153 C178 0.949 . S
H154 C179 0.950 . S
H155 C181 0.950 . S
H156 C182 0.950 . S
H157 C184 0.950 . S
H158 C187 0.950 . S
H159 C188 0.950 . S
H160 C190 0.951 . S
H161 C191 0.949 . S
C162 C163 1.376 . S
C162 C167 1.386 . S
C162 C168 1.483 . S
C163 H144 0.949 . S
C163 C162 1.376 . S
C163 C164 1.397 . S
C164 H145 0.950 . S
C164 C163 1.397 . S
C164 C165 1.391 . S
C165 C164 1.391 . S
C165 C166 1.405 . S
C166 H146 0.950 . S
C166 C165 1.405 . S
C166 C167 1.367 . S
C167 H147 0.950 . S
C167 C162 1.386 . S
C167 C166 1.367 . S
C168 C162 1.483 . S
C168 C169 1.382 1_455 S
C168 C170 1.403 . S
C169 H148 0.950 . S
C169 C168 1.382 1_655 S
C169 C185 1.411 . S
C170 C168 1.403 . S
C170 C171 1.489 . S
C170 C184 1.411 . S
C171 C170 1.489 . S
C171 C172 1.383 . S
C171 C176 1.382 . S
C172 H149 0.950 . S
C172 C171 1.383 . S
C172 C173 1.395 . S
C173 H150 0.950 . S
C173 C172 1.395 . S
C173 C174 1.288 . S
C174 C173 1.288 . S
C174 C175 1.392 . S
C175 H151 0.951 . S
C175 C174 1.392 . S
C175 C176 1.392 . S
C176 H152 0.949 . S
C176 C171 1.382 . S
C176 C175 1.392 . S
C177 C178 1.376 . S
C177 C182 1.386 . S
C177 C183 1.483 . S
C178 H153 0.949 . S
C178 C177 1.376 . S
C178 C179 1.397 . S
C179 H154 0.950 . S
C179 C178 1.397 . S
C179 C180 1.391 . S
C180 C179 1.391 . S
C180 C181 1.405 . S
C181 H155 0.950 . S
C181 C180 1.405 . S
C181 C182 1.367 . S
C182 H156 0.950 . S
C182 C177 1.386 . S
C182 C181 1.367 . S
C183 C177 1.483 . S
C183 C184 1.382 1_655 S
C183 C185 1.403 . S
C184 H157 0.950 . S
C184 C170 1.411 . S
C184 C183 1.382 1_455 S
C185 C169 1.411 . S
C185 C183 1.403 . S
C185 C186 1.489 . S
C186 C185 1.489 . S
C186 C187 1.383 . S
C186 C191 1.382 . S
C187 H158 0.950 . S
C187 C186 1.383 . S
C187 C188 1.395 . S
C188 H159 0.950 . S
C188 C187 1.395 . S
C188 C189 1.288 . S
C189 C188 1.288 . S
C189 C190 1.392 . S
C190 H160 0.951 . S
C190 C189 1.392 . S
C190 C191 1.392 . S
C191 H161 0.949 . S
C191 C186 1.382 . S
C191 C190 1.392 . S
H192 C211 0.949 . S
H193 C212 0.950 . S
H194 C214 0.950 . S
H195 C215 0.956 . S
H196 C217 0.950 . S
H197 C220 0.950 . S
H198 C221 0.950 . S
H199 C223 0.951 . S
H200 C224 0.949 . S
H201 C226 0.949 . S
H202 C227 0.950 . S
H203 C229 0.950 . S
H204 C230 0.950 . S
H205 C232 0.950 . S
H206 C235 0.950 . S
H207 C236 0.950 . S
H208 C238 0.951 . S
H209 C239 0.956 . S
C210 C211 1.376 . S
C210 C215 1.384 1_554 S
C210 C216 1.483 1_554 S
C211 H192 0.949 . S
C211 C210 1.376 . S
C211 C212 1.397 . S
C212 H193 0.950 . S
C212 C211 1.397 . S
C212 C213 1.391 . S
C213 C212 1.391 . S
C213 C214 1.405 . S
C214 H194 0.950 . S
C214 C213 1.405 . S
C214 C215 1.364 1_554 S
C215 H195 0.956 . S
C215 C210 1.384 1_556 S
C215 C214 1.364 1_556 S
C216 C210 1.483 1_556 S
C216 C217 1.382 1_556 S
C216 C218 1.403 . S
C217 H196 0.950 . S
C217 C216 1.382 1_554 S
C217 C233 1.429 . S
C218 C216 1.403 . S
C218 C219 1.489 . S
C218 C232 1.411 . S
C219 C218 1.489 . S
C219 C220 1.383 . S
C219 C224 1.382 . S
C220 H197 0.950 . S
C220 C219 1.383 . S
C220 C221 1.395 . S
C221 H198 0.950 . S
C221 C220 1.395 . S
C221 C222 1.288 . S
C222 C221 1.288 . S
C222 C223 1.392 . S
C223 H199 0.951 . S
C223 C222 1.392 . S
C223 C224 1.392 . S
C224 H200 0.949 . S
C224 C219 1.382 . S
C224 C223 1.392 . S
C225 C226 1.376 . S
C225 C230 1.386 . S
C225 C231 1.483 . S
C226 H201 0.949 . S
C226 C225 1.376 . S
C226 C227 1.397 . S
C227 H202 0.950 . S
C227 C226 1.397 . S
C227 C228 1.391 . S
C228 C227 1.391 . S
C228 C229 1.405 . S
C229 H203 0.950 . S
C229 C228 1.405 . S
C229 C230 1.367 . S
C230 H204 0.950 . S
C230 C225 1.386 . S
C230 C229 1.367 . S
C231 C225 1.483 . S
C231 C232 1.382 1_565 S
C231 C233 1.398 1_566 S
C232 H205 0.950 . S
C232 C218 1.411 . S
C232 C231 1.382 1_545 S
C233 C217 1.429 . S
C233 C231 1.398 1_544 S
C233 C234 1.477 1_545 S
C234 C233 1.477 1_565 S
C234 C235 1.383 . S
C234 C239 1.382 . S
C235 H206 0.950 . S
C235 C234 1.383 . S
C235 C236 1.395 . S
C236 H207 0.950 . S
C236 C235 1.395 . S
C236 C237 1.288 . S
C237 C236 1.288 . S
C237 C238 1.392 . S
C238 H208 0.951 . S
C238 C237 1.392 . S
C238 C239 1.392 . S
C239 H209 0.956 . S
C239 C234 1.382 . S
C239 C238 1.392 . S
H240 C259 0.949 . S
H241 C260 0.950 . S
H242 C262 0.950 . S
H243 C263 0.950 . S
H244 C265 0.950 . S
H245 C268 0.950 . S
H246 C269 0.950 . S
H247 C271 0.951 . S
H248 C272 0.949 . S
H249 C274 0.949 . S
H250 C275 0.950 . S
H251 C277 0.950 . S
H252 C278 0.950 . S
H253 C280 0.950 . S
H254 C283 0.950 . S
H255 C284 0.950 . S
H256 C286 0.951 . S
H257 C287 0.949 . S
C258 C259 1.376 . S
C258 C263 1.386 . S
C258 C264 1.483 . S
C259 H240 0.949 . S
C259 C258 1.376 . S
C259 C260 1.397 . S
C260 H241 0.950 . S
C260 C259 1.397 . S
C260 C261 1.391 . S
C261 C260 1.391 . S
C261 C262 1.405 . S
C262 H242 0.950 . S
C262 C261 1.405 . S
C262 C263 1.367 . S
C263 H243 0.950 . S
C263 C258 1.386 . S
C263 C262 1.367 . S
C264 C258 1.483 . S
C264 C265 1.382 . S
C264 C266 1.403 . S
C265 H244 0.950 . S
C265 C264 1.382 . S
C265 C281 1.411 . S
C266 C264 1.403 . S
C266 C267 1.489 . S
C266 C280 1.411 . S
C267 C266 1.489 . S
C267 C268 1.383 . S
C267 C272 1.382 . S
C268 H245 0.950 . S
C268 C267 1.383 . S
C268 C269 1.395 . S
C269 H246 0.950 . S
C269 C268 1.395 . S
C269 C270 1.288 . S
C270 C269 1.288 . S
C270 C271 1.392 . S
C271 H247 0.951 . S
C271 C270 1.392 . S
C271 C272 1.392 . S
C272 H248 0.949 . S
C272 C267 1.382 . S
C272 C271 1.392 . S
C273 C274 1.376 . S
C273 C278 1.386 . S
C273 C279 1.483 . S
C274 H249 0.949 . S
C274 C273 1.376 . S
C274 C275 1.397 . S
C275 H250 0.950 . S
C275 C274 1.397 . S
C275 C276 1.391 . S
C276 C275 1.391 . S
C276 C277 1.405 . S
C277 H251 0.950 . S
C277 C276 1.405 . S
C277 C278 1.367 . S
C278 H252 0.950 . S
C278 C273 1.386 . S
C278 C277 1.367 . S
C279 C273 1.483 . S
C279 C280 1.382 . S
C279 C281 1.403 . S
C280 H253 0.950 . S
C280 C266 1.411 . S
C280 C279 1.382 . S
C281 C265 1.411 . S
C281 C279 1.403 . S
C281 C282 1.489 . S
C282 C281 1.489 . S
C282 C283 1.383 . S
C282 C287 1.382 . S
C283 H254 0.950 . S
C283 C282 1.383 . S
C283 C284 1.395 . S
C284 H255 0.950 . S
C284 C283 1.395 . S
C284 C285 1.288 . S
C285 C284 1.288 . S
C285 C286 1.392 . S
C286 H256 0.951 . S
C286 C285 1.392 . S
C286 C287 1.392 . S
C287 H257 0.949 . S
C287 C282 1.382 . S
C287 C286 1.392 . S
Mn288 O293 2.095 . S
Mn288 O303 2.162 . S
Mn288 O304 2.297 . S
Mn288 O312 2.385 . S
Mn288 O313 2.209 . S
Mn288 O314 2.094 . S
Mn289 O294 2.121 . S
Mn289 N296 2.257 . S
Mn289 N305 2.282 . S
Mn289 O313 2.215 . S
Mn289 O315 2.117 . S
C290 O312 1.234 . S
C290 O313 1.283 . S
C291 O303 1.281 . S
C291 O304 1.236 . S
C292 O314 1.240 . S
C292 O315 1.264 . S
O293 Mn288 2.095 . S
O293 C302 1.250 . S
O294 Mn289 2.121 . S
O294 C302 1.258 . S
C295 N296 1.326 . S
C295 C299 1.460 . S
C295 H301 0.929 . S
N296 Mn289 2.257 . S
N296 C295 1.326 . S
N296 C300 1.362 . S
C297 C298 1.258 . S
C297 C300 1.431 . S
C297 C317 1.449 . S
C298 C297 1.258 . S
C298 C299 1.477 . S
C298 H318 0.931 . S
C299 C295 1.460 . S
C299 C298 1.477 . S
C299 H319 0.930 . S
C300 N296 1.362 . S
C300 C297 1.431 . S
C300 C310 1.476 . S
H301 C295 0.929 . S
C302 O293 1.250 . S
C302 O294 1.258 . S
O303 Mn288 2.162 . S
O303 C291 1.281 . S
O304 Mn288 2.297 . S
O304 C291 1.236 . S
N305 Mn289 2.282 . S
N305 C306 1.328 . S
N305 C310 1.318 . S
C306 N305 1.328 . S
C306 C307 1.457 . S
C306 H311 0.929 . S
C307 C306 1.457 . S
C307 C308 1.291 . S
C307 H320 0.931 . S
C308 C307 1.291 . S
C308 C309 1.373 . S
C308 H321 0.929 . S
C309 C308 1.373 . S
C309 C310 1.396 . S
C309 C316 1.403 . S
C310 C300 1.476 . S
C310 N305 1.318 . S
C310 C309 1.396 . S
H311 C306 0.929 . S
O312 Mn288 2.385 . S
O312 C290 1.234 . S
O313 Mn288 2.209 . S
O313 Mn289 2.215 . S
O313 C290 1.283 . S
O314 Mn288 2.094 . S
O314 C292 1.240 . S
O315 Mn289 2.117 . S
O315 C292 1.264 . S
C316 C309 1.403 . S
C316 C317 1.399 . S
C316 H322 0.929 . S
C317 C297 1.449 . S
C317 C316 1.399 . S
C317 H323 0.930 . S
H318 C298 0.931 . S
H319 C299 0.930 . S
H320 C307 0.931 . S
H321 C308 0.929 . S
H322 C316 0.929 . S
H323 C317 0.930 . S
Mn324 O329 2.095 . S
Mn324 O339 2.162 . S
Mn324 O340 2.297 . S
Mn324 O348 2.385 . S
Mn324 O349 2.209 . S
Mn324 O350 2.094 . S
Mn325 O330 2.121 . S
Mn325 N332 2.257 . S
Mn325 N341 2.282 . S
Mn325 O349 2.215 . S
Mn325 O351 2.117 . S
C326 O348 1.234 . S
C326 O349 1.283 . S
C327 O339 1.281 . S
C327 O340 1.236 . S
C328 O350 1.240 . S
C328 O351 1.264 . S
O329 Mn324 2.095 . S
O329 C338 1.250 . S
O330 Mn325 2.121 . S
O330 C338 1.258 . S
C331 N332 1.326 . S
C331 C335 1.460 . S
C331 H337 0.929 . S
N332 Mn325 2.257 . S
N332 C331 1.326 . S
N332 C336 1.362 . S
C333 C334 1.258 . S
C333 C336 1.431 . S
C333 C353 1.449 . S
C334 C333 1.258 . S
C334 C335 1.477 . S
C334 H354 0.931 . S
C335 C331 1.460 . S
C335 C334 1.477 . S
C335 H355 0.930 . S
C336 N332 1.362 . S
C336 C333 1.431 . S
C336 C346 1.476 . S
H337 C331 0.929 . S
C338 O329 1.250 . S
C338 O330 1.258 . S
O339 Mn324 2.162 . S
O339 C327 1.281 . S
O340 Mn324 2.297 . S
O340 C327 1.236 . S
N341 Mn325 2.282 . S
N341 C342 1.328 . S
N341 C346 1.318 . S
C342 N341 1.328 . S
C342 C343 1.457 . S
C342 H347 0.929 . S
C343 C342 1.457 . S
C343 C344 1.291 . S
C343 H356 0.931 . S
C344 C343 1.291 . S
C344 C345 1.373 . S
C344 H357 0.929 . S
C345 C344 1.373 . S
C345 C346 1.396 . S
C345 C352 1.403 . S
C346 C336 1.476 . S
C346 N341 1.318 . S
C346 C345 1.396 . S
H347 C342 0.929 . S
O348 Mn324 2.385 . S
O348 C326 1.234 . S
O349 Mn324 2.209 . S
O349 Mn325 2.215 . S
O349 C326 1.283 . S
O350 Mn324 2.094 . S
O350 C328 1.240 . S
O351 Mn325 2.117 . S
O351 C328 1.264 . S
C352 C345 1.403 . S
C352 C353 1.399 . S
C352 H358 0.929 . S
C353 C333 1.449 . S
C353 C352 1.399 . S
C353 H359 0.930 . S
H354 C334 0.931 . S
H355 C335 0.930 . S
H356 C343 0.931 . S
H357 C344 0.929 . S
H358 C352 0.929 . S
H359 C353 0.930 . S
Mn360 O365 2.095 . S
Mn360 O375 2.162 . S
Mn360 O376 2.297 . S
Mn360 O384 2.385 . S
Mn360 O385 2.209 . S
Mn360 O386 2.094 . S
Mn361 O366 2.121 . S
Mn361 N368 2.257 . S
Mn361 N377 2.282 . S
Mn361 O385 2.215 . S
Mn361 O387 2.117 . S
C362 O384 1.234 . S
C362 O385 1.283 . S
C363 O375 1.281 . S
C363 O376 1.236 . S
C364 O386 1.240 . S
C364 O387 1.264 . S
O365 Mn360 2.095 . S
O365 C374 1.250 . S
O366 Mn361 2.121 . S
O366 C374 1.258 . S
C367 N368 1.326 . S
C367 C371 1.460 . S
C367 H373 0.929 . S
N368 Mn361 2.257 . S
N368 C367 1.326 . S
N368 C372 1.362 . S
C369 C370 1.258 . S
C369 C372 1.431 . S
C369 C389 1.449 . S
C370 C369 1.258 . S
C370 C371 1.477 . S
C370 H390 0.931 . S
C371 C367 1.460 . S
C371 C370 1.477 . S
C371 H391 0.930 . S
C372 N368 1.362 . S
C372 C369 1.431 . S
C372 C382 1.476 . S
H373 C367 0.929 . S
C374 O365 1.250 . S
C374 O366 1.258 . S
O375 Mn360 2.162 . S
O375 C363 1.281 . S
O376 Mn360 2.297 . S
O376 C363 1.236 . S
N377 Mn361 2.282 . S
N377 C378 1.328 . S
N377 C382 1.318 . S
C378 N377 1.328 . S
C378 C379 1.457 . S
C378 H383 0.929 . S
C379 C378 1.457 . S
C379 C380 1.291 . S
C379 H392 0.931 . S
C380 C379 1.291 . S
C380 C381 1.373 . S
C380 H393 0.929 . S
C381 C380 1.373 . S
C381 C382 1.396 . S
C381 C388 1.403 . S
C382 C372 1.476 . S
C382 N377 1.318 . S
C382 C381 1.396 . S
H383 C378 0.929 . S
O384 Mn360 2.385 . S
O384 C362 1.234 . S
O385 Mn360 2.209 . S
O385 Mn361 2.215 . S
O385 C362 1.283 . S
O386 Mn360 2.094 . S
O386 C364 1.240 . S
O387 Mn361 2.117 . S
O387 C364 1.264 . S
C388 C381 1.403 . S
C388 C389 1.399 . S
C388 H394 0.929 . S
C389 C369 1.449 . S
C389 C388 1.399 . S
C389 H395 0.930 . S
H390 C370 0.931 . S
H391 C371 0.930 . S
H392 C379 0.931 . S
H393 C380 0.929 . S
H394 C388 0.929 . S
H395 C389 0.930 . S
Mn396 O401 2.095 . S
Mn396 O411 2.162 . S
Mn396 O412 2.297 . S
Mn396 O420 2.385 . S
Mn396 O421 2.209 . S
Mn396 O422 2.094 . S
Mn397 O402 2.121 . S
Mn397 N404 2.257 . S
Mn397 N413 2.282 . S
Mn397 O421 2.215 . S
Mn397 O423 2.117 . S
C398 O420 1.234 . S
C398 O421 1.283 . S
C399 O411 1.281 . S
C399 O412 1.236 . S
C400 O422 1.240 . S
C400 O423 1.264 . S
O401 Mn396 2.095 . S
O401 C410 1.250 . S
O402 Mn397 2.121 . S
O402 C410 1.258 . S
C403 N404 1.326 . S
C403 C407 1.460 . S
C403 H409 0.929 . S
N404 Mn397 2.257 . S
N404 C403 1.326 . S
N404 C408 1.362 . S
C405 C406 1.258 . S
C405 C408 1.431 . S
C405 C425 1.449 . S
C406 C405 1.258 . S
C406 C407 1.477 . S
C406 H426 0.931 . S
C407 C403 1.460 . S
C407 C406 1.477 . S
C407 H427 0.930 . S
C408 N404 1.362 . S
C408 C405 1.431 . S
C408 C418 1.476 . S
H409 C403 0.929 . S
C410 O401 1.250 . S
C410 O402 1.258 . S
O411 Mn396 2.162 . S
O411 C399 1.281 . S
O412 Mn396 2.297 . S
O412 C399 1.236 . S
N413 Mn397 2.282 . S
N413 C414 1.328 . S
N413 C418 1.318 . S
C414 N413 1.328 . S
C414 C415 1.457 . S
C414 H419 0.929 . S
C415 C414 1.457 . S
C415 C416 1.291 . S
C415 H428 0.931 . S
C416 C415 1.291 . S
C416 C417 1.373 . S
C416 H429 0.929 . S
C417 C416 1.373 . S
C417 C418 1.396 . S
C417 C424 1.403 . S
C418 C408 1.476 . S
C418 N413 1.318 . S
C418 C417 1.396 . S
H419 C414 0.929 . S
O420 Mn396 2.385 . S
O420 C398 1.234 . S
O421 Mn396 2.209 . S
O421 Mn397 2.215 . S
O421 C398 1.283 . S
O422 Mn396 2.094 . S
O422 C400 1.240 . S
O423 Mn397 2.117 . S
O423 C400 1.264 . S
C424 C417 1.403 . S
C424 C425 1.399 . S
C424 H430 0.929 . S
C425 C405 1.449 . S
C425 C424 1.399 . S
C425 H431 0.930 . S
H426 C406 0.931 . S
H427 C407 0.930 . S
H428 C415 0.931 . S
H429 C416 0.929 . S
H430 C424 0.929 . S
H431 C425 0.930 . S
Mn432 O437 2.095 . S
Mn432 O447 2.162 . S
Mn432 O448 2.297 . S
Mn432 O456 2.385 . S
Mn432 O457 2.209 . S
Mn432 O458 2.094 . S
Mn433 O438 2.121 . S
Mn433 N440 2.257 . S
Mn433 N449 2.282 . S
Mn433 O457 2.215 . S
Mn433 O459 2.117 . S
C434 O456 1.234 . S
C434 O457 1.283 . S
C435 O447 1.281 . S
C435 O448 1.236 . S
C436 O458 1.240 . S
C436 O459 1.264 . S
O437 Mn432 2.095 . S
O437 C446 1.250 . S
O438 Mn433 2.121 . S
O438 C446 1.258 . S
C439 N440 1.326 . S
C439 C443 1.460 . S
C439 H445 0.929 . S
N440 Mn433 2.257 . S
N440 C439 1.326 . S
N440 C444 1.362 . S
C441 C442 1.258 . S
C441 C444 1.431 . S
C441 C461 1.449 . S
C442 C441 1.258 . S
C442 C443 1.477 . S
C442 H462 0.931 . S
C443 C439 1.460 . S
C443 C442 1.477 . S
C443 H463 0.930 . S
C444 N440 1.362 . S
C444 C441 1.431 . S
C444 C454 1.476 . S
H445 C439 0.929 . S
C446 O437 1.250 . S
C446 O438 1.258 . S
O447 Mn432 2.162 . S
O447 C435 1.281 . S
O448 Mn432 2.297 . S
O448 C435 1.236 . S
N449 Mn433 2.282 . S
N449 C450 1.328 . S
N449 C454 1.318 . S
C450 N449 1.328 . S
C450 C451 1.457 . S
C450 H455 0.929 . S
C451 C450 1.457 . S
C451 C452 1.291 . S
C451 H464 0.931 . S
C452 C451 1.291 . S
C452 C453 1.373 . S
C452 H465 0.929 . S
C453 C452 1.373 . S
C453 C454 1.396 . S
C453 C460 1.403 . S
C454 C444 1.476 . S
C454 N449 1.318 . S
C454 C453 1.396 . S
H455 C450 0.929 . S
O456 Mn432 2.385 . S
O456 C434 1.234 . S
O457 Mn432 2.209 . S
O457 Mn433 2.215 . S
O457 C434 1.283 . S
O458 Mn432 2.094 . S
O458 C436 1.240 . S
O459 Mn433 2.117 . S
O459 C436 1.264 . S
C460 C453 1.403 . S
C460 C461 1.399 . S
C460 H466 0.929 . S
C461 C441 1.449 . S
C461 C460 1.399 . S
C461 H467 0.930 . S
H462 C442 0.931 . S
H463 C443 0.930 . S
H464 C451 0.931 . S
H465 C452 0.929 . S
H466 C460 0.929 . S
H467 C461 0.930 . S
Mn468 O473 2.095 . S
Mn468 O483 2.162 . S
Mn468 O484 2.297 . S
Mn468 O492 2.385 . S
Mn468 O493 2.209 . S
Mn468 O494 2.094 . S
Mn469 O474 2.121 . S
Mn469 N476 2.257 . S
Mn469 N485 2.282 . S
Mn469 O493 2.215 . S
Mn469 O495 2.117 . S
C470 O492 1.234 . S
C470 O493 1.283 . S
C471 O483 1.281 . S
C471 O484 1.236 . S
C472 O494 1.240 . S
C472 O495 1.264 . S
O473 Mn468 2.095 . S
O473 C482 1.250 . S
O474 Mn469 2.121 . S
O474 C482 1.258 . S
C475 N476 1.326 . S
C475 C479 1.460 . S
C475 H481 0.929 . S
N476 Mn469 2.257 . S
N476 C475 1.326 . S
N476 C480 1.362 . S
C477 C478 1.258 . S
C477 C480 1.431 . S
C477 C497 1.449 . S
C478 C477 1.258 . S
C478 C479 1.477 . S
C478 H498 0.931 . S
C479 C475 1.460 . S
C479 C478 1.477 . S
C479 H499 0.930 . S
C480 N476 1.362 . S
C480 C477 1.431 . S
C480 C490 1.476 . S
H481 C475 0.929 . S
C482 O473 1.250 . S
C482 O474 1.258 . S
O483 Mn468 2.162 . S
O483 C471 1.281 . S
O484 Mn468 2.297 . S
O484 C471 1.236 . S
N485 Mn469 2.282 . S
N485 C486 1.328 . S
N485 C490 1.318 . S
C486 N485 1.328 . S
C486 C487 1.457 . S
C486 H491 0.929 . S
C487 C486 1.457 . S
C487 C488 1.291 . S
C487 H500 0.931 . S
C488 C487 1.291 . S
C488 C489 1.373 . S
C488 H501 0.929 . S
C489 C488 1.373 . S
C489 C490 1.396 . S
C489 C496 1.403 . S
C490 C480 1.476 . S
C490 N485 1.318 . S
C490 C489 1.396 . S
H491 C486 0.929 . S
O492 Mn468 2.385 . S
O492 C470 1.234 . S
O493 Mn468 2.209 . S
O493 Mn469 2.215 . S
O493 C470 1.283 . S
O494 Mn468 2.094 . S
O494 C472 1.240 . S
O495 Mn469 2.117 . S
O495 C472 1.264 . S
C496 C489 1.403 . S
C496 C497 1.399 . S
C496 H502 0.929 . S
C497 C477 1.449 . S
C497 C496 1.399 . S
C497 H503 0.930 . S
H498 C478 0.931 . S
H499 C479 0.930 . S
H500 C487 0.931 . S
H501 C488 0.929 . S
H502 C496 0.929 . S
H503 C497 0.930 . S
C504 C505 1.391 . S
C504 C506 1.394 . S
C504 H520 0.931 . S
C505 C504 1.391 . S
C505 C509 1.376 . S
C506 C504 1.394 . S
C506 C507 1.369 . S
C506 C510 1.531 . S
C507 C506 1.369 . S
C507 C508 1.410 . S
C507 C515 1.503 . S
C508 C507 1.410 . S
C508 C509 1.392 . S
C508 C511 1.511 . S
C509 C505 1.376 . S
C509 C508 1.392 . S
C509 H521 0.929 . S
C510 C506 1.531 . S
C510 H522 0.960 . S
C510 H523 0.962 . S
C510 H524 0.960 . S
C511 C508 1.511 . S
C511 H525 0.961 . S
C511 H526 0.961 . S
C511 H527 0.961 . S
C512 C513 1.370 . S
C512 C514 1.363 . S
C512 H528 0.931 . S
C513 C512 1.370 . S
C513 C517 1.408 . S
C514 C512 1.363 . S
C514 C515 1.370 . S
C514 C518 1.524 . S
C515 C507 1.503 . S
C515 C514 1.370 . S
C515 C516 1.403 . S
C516 C515 1.403 . S
C516 C517 1.404 . S
C516 C519 1.539 . S
C517 C513 1.408 . S
C517 C516 1.404 . S
C517 H529 0.930 . S
C518 C514 1.524 . S
C518 H530 0.956 . S
C518 H531 0.961 . S
C518 H532 0.961 . S
C519 C516 1.539 . S
C519 H533 0.958 . S
C519 H534 0.961 . S
C519 H535 0.960 . S
H520 C504 0.931 . S
H521 C509 0.929 . S
H522 C510 0.960 . S
H523 C510 0.962 . S
H524 C510 0.960 . S
H525 C511 0.961 . S
H526 C511 0.961 . S
H527 C511 0.961 . S
H528 C512 0.931 . S
H529 C517 0.930 . S
H530 C518 0.956 . S
H531 C518 0.961 . S
H532 C518 0.961 . S
H533 C519 0.958 . S
H534 C519 0.961 . S
H535 C519 0.960 . S
C536 C537 1.391 . S
C536 C538 1.394 . S
C536 H552 0.931 . S
C537 C536 1.391 . S
C537 C541 1.376 . S
C538 C536 1.394 . S
C538 C539 1.369 . S
C538 C542 1.531 . S
C539 C538 1.369 . S
C539 C540 1.410 . S
C539 C547 1.503 . S
C540 C539 1.410 . S
C540 C541 1.392 . S
C540 C543 1.511 . S
C541 C537 1.376 . S
C541 C540 1.392 . S
C541 H553 0.929 . S
C542 C538 1.531 . S
C542 H554 0.960 . S
C542 H555 0.962 . S
C542 H556 0.960 . S
C543 C540 1.511 . S
C543 H557 0.961 . S
C543 H558 0.961 . S
C543 H559 0.961 . S
C544 C545 1.370 . S
C544 C546 1.363 . S
C544 H560 0.931 . S
C545 C544 1.370 . S
C545 C549 1.408 . S
C546 C544 1.363 . S
C546 C547 1.370 . S
C546 C550 1.524 . S
C547 C539 1.503 . S
C547 C546 1.370 . S
C547 C548 1.403 . S
C548 C547 1.403 . S
C548 C549 1.404 . S
C548 C551 1.539 . S
C549 C545 1.408 . S
C549 C548 1.404 . S
C549 H561 0.930 . S
C550 C546 1.524 . S
C550 H562 0.956 . S
C550 H563 0.961 . S
C550 H564 0.961 . S
C551 C548 1.539 . S
C551 H565 0.958 . S
C551 H566 0.961 . S
C551 H567 0.960 . S
H552 C536 0.931 . S
H553 C541 0.929 . S
H554 C542 0.960 . S
H555 C542 0.962 . S
H556 C542 0.960 . S
H557 C543 0.961 . S
H558 C543 0.961 . S
H559 C543 0.961 . S
H560 C544 0.931 . S
H561 C549 0.930 . S
H562 C550 0.956 . S
H563 C550 0.961 . S
H564 C550 0.961 . S
H565 C551 0.958 . S
H566 C551 0.961 . S
H567 C551 0.960 . S
C568 C569 1.391 . S
C568 C570 1.394 . S
C568 H584 0.931 . S
C569 C568 1.391 . S
C569 C573 1.376 . S
C570 C568 1.394 . S
C570 C571 1.369 . S
C570 C574 1.531 . S
C571 C570 1.369 . S
C571 C572 1.410 . S
C571 C579 1.503 . S
C572 C571 1.410 . S
C572 C573 1.392 . S
C572 C575 1.511 . S
C573 C569 1.376 . S
C573 C572 1.392 . S
C573 H585 0.929 . S
C574 C570 1.531 . S
C574 H586 0.960 . S
C574 H587 0.962 . S
C574 H588 0.960 . S
C575 C572 1.511 . S
C575 H589 0.961 . S
C575 H590 0.961 . S
C575 H591 0.961 . S
C576 C577 1.370 . S
C576 C578 1.363 . S
C576 H592 0.931 . S
C577 C576 1.370 . S
C577 C581 1.408 . S
C578 C576 1.363 . S
C578 C579 1.370 . S
C578 C582 1.524 . S
C579 C571 1.503 . S
C579 C578 1.370 . S
C579 C580 1.403 . S
C580 C579 1.403 . S
C580 C581 1.404 . S
C580 C583 1.539 . S
C581 C577 1.408 . S
C581 C580 1.404 . S
C581 H593 0.930 . S
C582 C578 1.524 . S
C582 H594 0.956 . S
C582 H595 0.961 . S
C582 H596 0.961 . S
C583 C580 1.539 . S
C583 H597 0.958 . S
C583 H598 0.961 . S
C583 H599 0.960 . S
H584 C568 0.931 . S
H585 C573 0.929 . S
H586 C574 0.960 . S
H587 C574 0.962 . S
H588 C574 0.960 . S
H589 C575 0.961 . S
H590 C575 0.961 . S
H591 C575 0.961 . S
H592 C576 0.931 . S
H593 C581 0.930 . S
H594 C582 0.956 . S
H595 C582 0.961 . S
H596 C582 0.961 . S
H597 C583 0.958 . S
H598 C583 0.961 . S
H599 C583 0.960 . S
C600 C601 1.391 . S
C600 C602 1.394 . S
C600 H616 0.931 . S
C601 C600 1.391 . S
C601 C605 1.376 . S
C602 C600 1.394 . S
C602 C603 1.369 . S
C602 C606 1.531 . S
C603 C602 1.369 . S
C603 C604 1.410 . S
C603 C611 1.503 . S
C604 C603 1.410 . S
C604 C605 1.392 . S
C604 C607 1.511 . S
C605 C601 1.376 . S
C605 C604 1.392 . S
C605 H617 0.929 . S
C606 C602 1.531 . S
C606 H618 0.960 . S
C606 H619 0.962 . S
C606 H620 0.960 . S
C607 C604 1.511 . S
C607 H621 0.961 . S
C607 H622 0.961 . S
C607 H623 0.961 . S
C608 C609 1.370 . S
C608 C610 1.363 . S
C608 H624 0.931 . S
C609 C608 1.370 . S
C609 C613 1.408 . S
C610 C608 1.363 . S
C610 C611 1.370 . S
C610 C614 1.524 . S
C611 C603 1.503 . S
C611 C610 1.370 . S
C611 C612 1.403 . S
C612 C611 1.403 . S
C612 C613 1.404 . S
C612 C615 1.539 . S
C613 C609 1.408 . S
C613 C612 1.404 . S
C613 H625 0.930 . S
C614 C610 1.524 . S
C614 H626 0.956 . S
C614 H627 0.961 . S
C614 H628 0.961 . S
C615 C612 1.539 . S
C615 H629 0.958 . S
C615 H630 0.961 . S
C615 H631 0.960 . S
H616 C600 0.931 . S
H617 C605 0.929 . S
H618 C606 0.960 . S
H619 C606 0.962 . S
H620 C606 0.960 . S
H621 C607 0.961 . S
H622 C607 0.961 . S
H623 C607 0.961 . S
H624 C608 0.931 . S
H625 C613 0.930 . S
H626 C614 0.956 . S
H627 C614 0.961 . S
H628 C614 0.961 . S
H629 C615 0.958 . S
H630 C615 0.961 . S
H631 C615 0.960 . S
C632 C633 1.391 . S
C632 C634 1.394 . S
C632 H648 0.931 . S
C633 C632 1.391 . S
C633 C637 1.376 . S
C634 C632 1.394 . S
C634 C635 1.369 . S
C634 C638 1.531 . S
C635 C634 1.369 . S
C635 C636 1.410 . S
C635 C643 1.503 . S
C636 C635 1.410 . S
C636 C637 1.392 . S
C636 C639 1.511 . S
C637 C633 1.376 . S
C637 C636 1.392 . S
C637 H649 0.929 . S
C638 C634 1.531 . S
C638 H650 0.960 . S
C638 H651 0.962 . S
C638 H652 0.960 . S
C639 C636 1.511 . S
C639 H653 0.961 . S
C639 H654 0.961 . S
C639 H655 0.961 . S
C640 C641 1.370 . S
C640 C642 1.363 . S
C640 H656 0.931 . S
C641 C640 1.370 . S
C641 C645 1.408 . S
C642 C640 1.363 . S
C642 C643 1.370 . S
C642 C646 1.524 . S
C643 C635 1.503 . S
C643 C642 1.370 . S
C643 C644 1.403 . S
C644 C643 1.403 . S
C644 C645 1.404 . S
C644 C647 1.539 . S
C645 C641 1.408 . S
C645 C644 1.404 . S
C645 H657 0.930 . S
C646 C642 1.524 . S
C646 H658 0.956 . S
C646 H659 0.961 . S
C646 H660 0.961 . S
C647 C644 1.539 . S
C647 H661 0.958 . S
C647 H662 0.961 . S
C647 H663 0.960 . S
H648 C632 0.931 . S
H649 C637 0.929 . S
H650 C638 0.960 . S
H651 C638 0.962 . S
H652 C638 0.960 . S
H653 C639 0.961 . S
H654 C639 0.961 . S
H655 C639 0.961 . S
H656 C640 0.931 . S
H657 C645 0.930 . S
H658 C646 0.956 . S
H659 C646 0.961 . S
H660 C646 0.961 . S
H661 C647 0.958 . S
H662 C647 0.961 . S
H663 C647 0.960 . S
C664 C665 1.391 . S
C664 C666 1.394 . S
C664 H680 0.931 . S
C665 C664 1.391 . S
C665 C669 1.376 . S
C666 C664 1.394 . S
C666 C667 1.369 . S
C666 C670 1.531 . S
C667 C666 1.369 . S
C667 C668 1.410 . S
C667 C675 1.503 . S
C668 C667 1.410 . S
C668 C669 1.392 . S
C668 C671 1.511 . S
C669 C665 1.376 . S
C669 C668 1.392 . S
C669 H681 0.929 . S
C670 C666 1.531 . S
C670 H682 0.960 . S
C670 H683 0.962 . S
C670 H684 0.960 . S
C671 C668 1.511 . S
C671 H685 0.961 . S
C671 H686 0.961 . S
C671 H687 0.961 . S
C672 C673 1.370 . S
C672 C674 1.363 . S
C672 H688 0.931 . S
C673 C672 1.370 . S
C673 C677 1.408 . S
C674 C672 1.363 . S
C674 C675 1.370 . S
C674 C678 1.524 . S
C675 C667 1.503 . S
C675 C674 1.370 . S
C675 C676 1.403 . S
C676 C675 1.403 . S
C676 C677 1.404 . S
C676 C679 1.539 . S
C677 C673 1.408 . S
C677 C676 1.404 . S
C677 H689 0.930 . S
C678 C674 1.524 . S
C678 H690 0.956 . S
C678 H691 0.961 . S
C678 H692 0.961 . S
C679 C676 1.539 . S
C679 H693 0.958 . S
C679 H694 0.961 . S
C679 H695 0.960 . S
H680 C664 0.931 . S
H681 C669 0.929 . S
H682 C670 0.960 . S
H683 C670 0.962 . S
H684 C670 0.960 . S
H685 C671 0.961 . S
H686 C671 0.961 . S
H687 C671 0.961 . S
H688 C672 0.931 . S
H689 C677 0.930 . S
H690 C678 0.956 . S
H691 C678 0.961 . S
H692 C678 0.961 . S
H693 C679 0.958 . S
H694 C679 0.961 . S
H695 C679 0.960 . S
C696 C697 1.391 . S
C696 C698 1.394 . S
C696 H712 0.931 . S
C697 C696 1.391 . S
C697 C701 1.376 . S
C698 C696 1.394 . S
C698 C699 1.369 . S
C698 C702 1.531 . S
C699 C698 1.369 . S
C699 C700 1.410 . S
C699 C707 1.503 . S
C700 C699 1.410 . S
C700 C701 1.392 . S
C700 C703 1.511 . S
C701 C697 1.376 . S
C701 C700 1.392 . S
C701 H713 0.929 . S
C702 C698 1.531 . S
C702 H714 0.960 . S
C702 H715 0.962 . S
C702 H716 0.960 . S
C703 C700 1.511 . S
C703 H717 0.961 . S
C703 H718 0.961 . S
C703 H719 0.961 . S
C704 C705 1.370 . S
C704 C706 1.363 . S
C704 H720 0.931 . S
C705 C704 1.370 . S
C705 C709 1.408 . S
C706 C704 1.363 . S
C706 C707 1.370 . S
C706 C710 1.524 . S
C707 C699 1.503 . S
C707 C706 1.370 . S
C707 C708 1.403 . S
C708 C707 1.403 . S
C708 C709 1.404 . S
C708 C711 1.539 . S
C709 C705 1.408 . S
C709 C708 1.404 . S
C709 H721 0.930 . S
C710 C706 1.524 . S
C710 H722 0.956 . S
C710 H723 0.961 . S
C710 H724 0.961 . S
C711 C708 1.539 . S
C711 H725 0.958 . S
C711 H726 0.961 . S
C711 H727 0.960 . S
H712 C696 0.931 . S
H713 C701 0.929 . S
H714 C702 0.960 . S
H715 C702 0.962 . S
H716 C702 0.960 . S
H717 C703 0.961 . S
H718 C703 0.961 . S
H719 C703 0.961 . S
H720 C704 0.931 . S
H721 C709 0.930 . S
H722 C710 0.956 . S
H723 C710 0.961 . S
H724 C710 0.961 . S
H725 C711 0.958 . S
H726 C711 0.961 . S
H727 C711 0.960 . S
C728 C729 1.391 . S
C728 C730 1.394 . S
C728 H744 0.931 . S
C729 C728 1.391 . S
C729 C733 1.376 . S
C730 C728 1.394 . S
C730 C731 1.369 . S
C730 C734 1.531 . S
C731 C730 1.369 . S
C731 C732 1.410 . S
C731 C739 1.503 . S
C732 C731 1.410 . S
C732 C733 1.392 . S
C732 C735 1.511 . S
C733 C729 1.376 . S
C733 C732 1.392 . S
C733 H745 0.929 . S
C734 C730 1.531 . S
C734 H746 0.960 . S
C734 H747 0.962 . S
C734 H748 0.960 . S
C735 C732 1.511 . S
C735 H749 0.961 . S
C735 H750 0.961 . S
C735 H751 0.961 . S
C736 C737 1.370 . S
C736 C738 1.363 . S
C736 H752 0.931 . S
C737 C736 1.370 . S
C737 C741 1.408 . S
C738 C736 1.363 . S
C738 C739 1.370 . S
C738 C742 1.524 . S
C739 C731 1.503 . S
C739 C738 1.370 . S
C739 C740 1.403 . S
C740 C739 1.403 . S
C740 C741 1.404 . S
C740 C743 1.539 . S
C741 C737 1.408 . S
C741 C740 1.404 . S
C741 H753 0.930 . S
C742 C738 1.524 . S
C742 H754 0.956 . S
C742 H755 0.961 . S
C742 H756 0.961 . S
C743 C740 1.539 . S
C743 H757 0.958 . S
C743 H758 0.961 . S
C743 H759 0.960 . S
H744 C728 0.931 . S
H745 C733 0.929 . S
H746 C734 0.960 . S
H747 C734 0.962 . S
H748 C734 0.960 . S
H749 C735 0.961 . S
H750 C735 0.961 . S
H751 C735 0.961 . S
H752 C736 0.931 . S
H753 C741 0.930 . S
H754 C742 0.956 . S
H755 C742 0.961 . S
H756 C742 0.961 . S
H757 C743 0.958 . S
H758 C743 0.961 . S
H759 C743 0.960 . S
C760 C761 1.391 . S
C760 C762 1.394 . S
C760 H776 0.931 . S
C761 C760 1.391 . S
C761 C765 1.376 . S
C762 C760 1.394 . S
C762 C763 1.369 . S
C762 C766 1.531 . S
C763 C762 1.369 . S
C763 C764 1.410 . S
C763 C771 1.503 . S
C764 C763 1.410 . S
C764 C765 1.392 . S
C764 C767 1.511 . S
C765 C761 1.376 . S
C765 C764 1.392 . S
C765 H777 0.929 . S
C766 C762 1.531 . S
C766 H778 0.960 . S
C766 H779 0.962 . S
C766 H780 0.960 . S
C767 C764 1.511 . S
C767 H781 0.961 . S
C767 H782 0.961 . S
C767 H783 0.961 . S
C768 C769 1.370 . S
C768 C770 1.363 . S
C768 H784 0.931 . S
C769 C768 1.370 . S
C769 C773 1.408 . S
C770 C768 1.363 . S
C770 C771 1.370 . S
C770 C774 1.524 . S
C771 C763 1.503 . S
C771 C770 1.370 . S
C771 C772 1.403 . S
C772 C771 1.403 . S
C772 C773 1.404 . S
C772 C775 1.539 . S
C773 C769 1.408 . S
C773 C772 1.404 . S
C773 H785 0.930 . S
C774 C770 1.524 . S
C774 H786 0.956 . S
C774 H787 0.961 . S
C774 H788 0.961 . S
C775 C772 1.539 . S
C775 H789 0.958 . S
C775 H790 0.961 . S
C775 H791 0.960 . S
H776 C760 0.931 . S
H777 C765 0.929 . S
H778 C766 0.960 . S
H779 C766 0.962 . S
H780 C766 0.960 . S
H781 C767 0.961 . S
H782 C767 0.961 . S
H783 C767 0.961 . S
H784 C768 0.931 . S
H785 C773 0.930 . S
H786 C774 0.956 . S
H787 C774 0.961 . S
H788 C774 0.961 . S
H789 C775 0.958 . S
H790 C775 0.961 . S
H791 C775 0.960 . S
C792 C793 1.391 . S
C792 C794 1.394 . S
C792 H808 0.931 . S
C793 C792 1.391 . S
C793 C797 1.376 . S
C794 C792 1.394 . S
C794 C795 1.369 . S
C794 C798 1.531 . S
C795 C794 1.369 . S
C795 C796 1.410 . S
C795 C803 1.503 . S
C796 C795 1.410 . S
C796 C797 1.392 . S
C796 C799 1.511 . S
C797 C793 1.376 . S
C797 C796 1.392 . S
C797 H809 0.929 . S
C798 C794 1.531 . S
C798 H810 0.960 . S
C798 H811 0.962 . S
C798 H812 0.960 . S
C799 C796 1.511 . S
C799 H813 0.961 1_554 S
C799 H814 0.961 . S
C799 H815 0.961 . S
C800 C801 1.370 . S
C800 C802 1.363 . S
C800 H816 0.931 . S
C801 C800 1.370 . S
C801 C805 1.408 . S
C802 C800 1.363 . S
C802 C803 1.370 . S
C802 C806 1.524 . S
C803 C795 1.503 . S
C803 C802 1.370 . S
C803 C804 1.403 . S
C804 C803 1.403 . S
C804 C805 1.404 . S
C804 C807 1.539 . S
C805 C801 1.408 . S
C805 C804 1.404 . S
C805 H817 0.930 . S
C806 C802 1.524 . S
C806 H818 0.956 . S
C806 H819 0.961 . S
C806 H820 0.961 . S
C807 C804 1.539 . S
C807 H821 0.958 . S
C807 H822 0.961 . S
C807 H823 0.960 . S
H808 C792 0.931 . S
H809 C797 0.929 . S
H810 C798 0.960 . S
H811 C798 0.962 . S
H812 C798 0.960 . S
H813 C799 0.961 1_556 S
H814 C799 0.961 . S
H815 C799 0.961 . S
H816 C800 0.931 . S
H817 C805 0.930 . S
H818 C806 0.956 . S
H819 C806 0.961 . S
H820 C806 0.961 . S
H821 C807 0.958 . S
H822 C807 0.961 . S
H823 C807 0.960 . S
C824 C825 1.391 . S
C824 C826 1.394 . S
C824 H840 0.931 . S
C825 C824 1.391 . S
C825 C829 1.376 . S
C826 C824 1.394 . S
C826 C827 1.369 . S
C826 C830 1.531 . S
C827 C826 1.369 . S
C827 C828 1.410 . S
C827 C835 1.503 . S
C828 C827 1.410 . S
C828 C829 1.392 . S
C828 C831 1.511 . S
C829 C825 1.376 . S
C829 C828 1.392 . S
C829 H841 0.929 . S
C830 C826 1.531 . S
C830 H842 0.960 . S
C830 H843 0.962 . S
C830 H844 0.960 . S
C831 C828 1.511 . S
C831 H845 0.961 . S
C831 H846 0.961 . S
C831 H847 0.961 . S
C832 C833 1.370 . S
C832 C834 1.363 . S
C832 H848 0.931 . S
C833 C832 1.370 . S
C833 C837 1.408 . S
C834 C832 1.363 . S
C834 C835 1.370 . S
C834 C838 1.524 . S
C835 C827 1.503 . S
C835 C834 1.370 . S
C835 C836 1.403 . S
C836 C835 1.403 . S
C836 C837 1.404 . S
C836 C839 1.539 . S
C837 C833 1.408 . S
C837 C836 1.404 . S
C837 H849 0.930 . S
C838 C834 1.524 . S
C838 H850 0.956 . S
C838 H851 0.961 . S
C838 H852 0.961 . S
C839 C836 1.539 . S
C839 H853 0.958 . S
C839 H854 0.961 . S
C839 H855 0.960 . S
H840 C824 0.931 . S
H841 C829 0.929 . S
H842 C830 0.960 . S
H843 C830 0.962 . S
H844 C830 0.960 . S
H845 C831 0.961 . S
H846 C831 0.961 . S
H847 C831 0.961 . S
H848 C832 0.931 . S
H849 C837 0.930 . S
H850 C838 0.956 . S
H851 C838 0.961 . S
H852 C838 0.961 . S
H853 C839 0.958 . S
H854 C839 0.961 . S
H855 C839 0.960 . S
C856 C857 1.391 . S
C856 C858 1.394 . S
C856 H872 0.931 . S
C857 C856 1.391 . S
C857 C861 1.376 . S
C858 C856 1.394 . S
C858 C859 1.369 . S
C858 C862 1.531 . S
C859 C858 1.369 . S
C859 C860 1.410 . S
C859 C867 1.503 . S
C860 C859 1.410 . S
C860 C861 1.392 . S
C860 C863 1.511 . S
C861 C857 1.376 . S
C861 C860 1.392 . S
C861 H873 0.929 . S
C862 C858 1.531 . S
C862 H874 0.960 . S
C862 H875 0.962 . S
C862 H876 0.960 . S
C863 C860 1.511 . S
C863 H877 0.961 . S
C863 H878 0.961 . S
C863 H879 0.961 . S
C864 C865 1.370 . S
C864 C866 1.363 . S
C864 H880 0.931 . S
C865 C864 1.370 . S
C865 C869 1.408 . S
C866 C864 1.363 . S
C866 C867 1.370 . S
C866 C870 1.524 . S
C867 C859 1.503 . S
C867 C866 1.370 . S
C867 C868 1.403 . S
C868 C867 1.403 . S
C868 C869 1.404 . S
C868 C871 1.539 . S
C869 C865 1.408 . S
C869 C868 1.404 . S
C869 H881 0.930 . S
C870 C866 1.524 . S
C870 H882 0.956 . S
C870 H883 0.961 . S
C870 H884 0.961 . S
C871 C868 1.539 . S
C871 H885 0.958 . S
C871 H886 0.961 . S
C871 H887 0.960 . S
H872 C856 0.931 . S
H873 C861 0.929 . S
H874 C862 0.960 . S
H875 C862 0.962 . S
H876 C862 0.960 . S
H877 C863 0.961 . S
H878 C863 0.961 . S
H879 C863 0.961 . S
H880 C864 0.931 . S
H881 C869 0.930 . S
H882 C870 0.956 . S
H883 C870 0.961 . S
H884 C870 0.961 . S
H885 C871 0.958 . S
H886 C871 0.961 . S
H887 C871 0.960 . S
C888 C889 1.391 . S
C888 C890 1.394 . S
C888 H904 0.931 . S
C889 C888 1.391 . S
C889 C893 1.376 . S
C890 C888 1.394 . S
C890 C891 1.369 . S
C890 C894 1.531 . S
C891 C890 1.369 . S
C891 C892 1.410 . S
C891 C899 1.503 . S
C892 C891 1.410 . S
C892 C893 1.392 . S
C892 C895 1.511 . S
C893 C889 1.376 . S
C893 C892 1.392 . S
C893 H905 0.929 . S
C894 C890 1.531 . S
C894 H906 0.960 . S
C894 H907 0.962 . S
C894 H908 0.960 . S
C895 C892 1.511 . S
C895 H909 0.961 . S
C895 H910 0.961 . S
C895 H911 0.961 . S
C896 C897 1.370 . S
C896 C898 1.363 . S
C896 H912 0.931 . S
C897 C896 1.370 . S
C897 C901 1.408 . S
C898 C896 1.363 . S
C898 C899 1.370 . S
C898 C902 1.524 . S
C899 C891 1.503 . S
C899 C898 1.370 . S
C899 C900 1.403 . S
C900 C899 1.403 . S
C900 C901 1.404 . S
C900 C903 1.539 . S
C901 C897 1.408 . S
C901 C900 1.404 . S
C901 H913 0.930 . S
C902 C898 1.524 . S
C902 H914 0.956 . S
C902 H915 0.961 . S
C902 H916 0.961 . S
C903 C900 1.539 . S
C903 H917 0.958 . S
C903 H918 0.961 . S
C903 H919 0.960 . S
H904 C888 0.931 . S
H905 C893 0.929 . S
H906 C894 0.960 . S
H907 C894 0.962 . S
H908 C894 0.960 . S
H909 C895 0.961 . S
H910 C895 0.961 . S
H911 C895 0.961 . S
H912 C896 0.931 . S
H913 C901 0.930 . S
H914 C902 0.956 . S
H915 C902 0.961 . S
H916 C902 0.961 . S
H917 C903 0.958 . S
H918 C903 0.961 . S
H919 C903 0.960 . S
C920 C921 1.391 . S
C920 C922 1.394 . S
C920 H936 0.931 . S
C921 C920 1.391 . S
C921 C925 1.376 . S
C922 C920 1.394 . S
C922 C923 1.369 . S
C922 C926 1.531 . S
C923 C922 1.369 . S
C923 C924 1.410 . S
C923 C931 1.503 . S
C924 C923 1.410 . S
C924 C925 1.392 . S
C924 C927 1.511 . S
C925 C921 1.376 . S
C925 C924 1.392 . S
C925 H937 0.929 . S
C926 C922 1.531 . S
C926 H938 0.960 . S
C926 H939 0.962 . S
C926 H940 0.960 . S
C927 C924 1.511 . S
C927 H941 0.961 . S
C927 H942 0.961 . S
C927 H943 0.961 . S
C928 C929 1.370 . S
C928 C930 1.363 . S
C928 H944 0.931 . S
C929 C928 1.370 . S
C929 C933 1.408 . S
C930 C928 1.363 . S
C930 C931 1.370 . S
C930 C934 1.524 . S
C931 C923 1.503 . S
C931 C930 1.370 . S
C931 C932 1.403 . S
C932 C931 1.403 . S
C932 C933 1.404 . S
C932 C935 1.539 . S
C933 C929 1.408 . S
C933 C932 1.404 . S
C933 H945 0.930 . S
C934 C930 1.524 . S
C934 H946 0.956 . S
C934 H947 0.961 . S
C934 H948 0.961 . S
C935 C932 1.539 . S
C935 H949 0.958 . S
C935 H950 0.961 . S
C935 H951 0.960 . S
H936 C920 0.931 . S
H937 C925 0.929 . S
H938 C926 0.960 . S
H939 C926 0.962 . S
H940 C926 0.960 . S
H941 C927 0.961 . S
H942 C927 0.961 . S
H943 C927 0.961 . S
H944 C928 0.931 . S
H945 C933 0.930 . S
H946 C934 0.956 . S
H947 C934 0.961 . S
H948 C934 0.961 . S
H949 C935 0.958 . S
H950 C935 0.961 . S
H951 C935 0.960 . S
C952 C953 1.391 . S
C952 C954 1.394 . S
C952 H968 0.931 . S
C953 C952 1.391 . S
C953 C957 1.376 . S
C954 C952 1.394 . S
C954 C955 1.369 . S
C954 C958 1.531 . S
C955 C954 1.369 . S
C955 C956 1.410 . S
C955 C963 1.503 . S
C956 C955 1.410 . S
C956 C957 1.392 . S
C956 C959 1.511 . S
C957 C953 1.376 . S
C957 C956 1.392 . S
C957 H969 0.929 . S
C958 C954 1.531 . S
C958 H970 0.960 . S
C958 H971 0.962 . S
C958 H972 0.960 . S
C959 C956 1.511 . S
C959 H973 0.961 . S
C959 H974 0.961 . S
C959 H975 0.961 . S
C960 C961 1.370 . S
C960 C962 1.363 . S
C960 H976 0.931 . S
C961 C960 1.370 . S
C961 C965 1.408 . S
C962 C960 1.363 . S
C962 C963 1.370 . S
C962 C966 1.524 . S
C963 C955 1.503 . S
C963 C962 1.370 . S
C963 C964 1.403 . S
C964 C963 1.403 . S
C964 C965 1.404 . S
C964 C967 1.539 . S
C965 C961 1.408 . S
C965 C964 1.404 . S
C965 H977 0.930 . S
C966 C962 1.524 . S
C966 H978 0.956 . S
C966 H979 0.961 . S
C966 H980 0.961 . S
C967 C964 1.539 . S
C967 H981 0.958 . S
C967 H982 0.961 . S
C967 H983 0.960 . S
H968 C952 0.931 . S
H969 C957 0.929 . S
H970 C958 0.960 . S
H971 C958 0.962 . S
H972 C958 0.960 . S
H973 C959 0.961 . S
H974 C959 0.961 . S
H975 C959 0.961 . S
H976 C960 0.931 . S
H977 C965 0.930 . S
H978 C966 0.956 . S
H979 C966 0.961 . S
H980 C966 0.961 . S
H981 C967 0.958 . S
H982 C967 0.961 . S
H983 C967 0.960 . S
C984 C985 1.391 . S
C984 C986 1.394 . S
C984 H1000 0.931 . S
C985 C984 1.391 . S
C985 C989 1.376 . S
C986 C984 1.394 . S
C986 C987 1.369 . S
C986 C990 1.531 . S
C987 C986 1.369 . S
C987 C988 1.410 . S
C987 C995 1.503 . S
C988 C987 1.410 . S
C988 C989 1.392 . S
C988 C991 1.511 . S
C989 C985 1.376 . S
C989 C988 1.392 . S
C989 H1001 0.929 . S
C990 C986 1.531 . S
C990 H1002 0.960 . S
C990 H1003 0.962 . S
C990 H1004 0.960 . S
C991 C988 1.511 . S
C991 H1005 0.961 . S
C991 H1006 0.961 . S
C991 H1007 0.961 . S
C992 C993 1.370 1_556 S
C992 C994 1.363 . S
C992 H1008 0.931 . S
C993 C992 1.370 1_554 S
C993 C997 1.408 . S
C994 C992 1.363 . S
C994 C995 1.370 . S
C994 C998 1.524 . S
C995 C987 1.503 . S
C995 C994 1.370 . S
C995 C996 1.403 1_556 S
C996 C995 1.403 1_554 S
C996 C997 1.404 . S
C996 C999 1.539 . S
C997 C993 1.408 . S
C997 C996 1.404 . S
C997 H1009 0.930 . S
C998 C994 1.524 . S
C998 H1010 0.956 . S
C998 H1011 0.961 . S
C998 H1012 0.961 . S
C999 C996 1.539 . S
C999 H1013 0.958 . S
C999 H1014 0.961 . S
C999 H1015 0.960 1_554 S
H1000 C984 0.931 . S
H1001 C989 0.929 . S
H1002 C990 0.960 . S
H1003 C990 0.962 . S
H1004 C990 0.960 . S
H1005 C991 0.961 . S
H1006 C991 0.961 . S
H1007 C991 0.961 . S
H1008 C992 0.931 . S
H1009 C997 0.930 . S
H1010 C998 0.956 . S
H1011 C998 0.961 . S
H1012 C998 0.961 . S
H1013 C999 0.958 . S
H1014 C999 0.961 . S
H1015 C999 0.960 1_556 S
C1016 C1017 1.391 . S
C1016 C1018 1.394 . S
C1016 H1032 0.931 . S
C1017 C1016 1.391 . S
C1017 C1021 1.376 . S
C1018 C1016 1.394 . S
C1018 C1019 1.369 . S
C1018 C1022 1.531 . S
C1019 C1018 1.369 . S
C1019 C1020 1.410 . S
C1019 C1027 1.503 . S
C1020 C1019 1.410 . S
C1020 C1021 1.392 . S
C1020 C1023 1.511 . S
C1021 C1017 1.376 . S
C1021 C1020 1.392 . S
C1021 H1033 0.929 . S
C1022 C1018 1.531 . S
C1022 H1034 0.960 . S
C1022 H1035 0.962 . S
C1022 H1036 0.960 . S
C1023 C1020 1.511 . S
C1023 H1037 0.961 . S
C1023 H1038 0.961 . S
C1023 H1039 0.961 . S
C1024 C1025 1.370 . S
C1024 C1026 1.363 . S
C1024 H1040 0.931 . S
C1025 C1024 1.370 . S
C1025 C1029 1.408 . S
C1026 C1024 1.363 . S
C1026 C1027 1.370 . S
C1026 C1030 1.524 . S
C1027 C1019 1.503 . S
C1027 C1026 1.370 . S
C1027 C1028 1.403 . S
C1028 C1027 1.403 . S
C1028 C1029 1.404 . S
C1028 C1031 1.539 . S
C1029 C1025 1.408 . S
C1029 C1028 1.404 . S
C1029 H1041 0.930 . S
C1030 C1026 1.524 . S
C1030 H1042 0.956 . S
C1030 H1043 0.961 . S
C1030 H1044 0.961 . S
C1031 C1028 1.539 . S
C1031 H1045 0.958 . S
C1031 H1046 0.961 . S
C1031 H1047 0.960 . S
H1032 C1016 0.931 . S
H1033 C1021 0.929 . S
H1034 C1022 0.960 . S
H1035 C1022 0.962 . S
H1036 C1022 0.960 . S
H1037 C1023 0.961 . S
H1038 C1023 0.961 . S
H1039 C1023 0.961 . S
H1040 C1024 0.931 . S
H1041 C1029 0.930 . S
H1042 C1030 0.956 . S
H1043 C1030 0.961 . S
H1044 C1030 0.961 . S
H1045 C1031 0.958 . S
H1046 C1031 0.961 . S
H1047 C1031 0.960 . S
C1048 C1049 1.391 . S
C1048 C1050 1.394 . S
C1048 H1064 0.931 . S
C1049 C1048 1.391 . S
C1049 C1053 1.376 . S
C1050 C1048 1.394 . S
C1050 C1051 1.369 . S
C1050 C1054 1.531 . S
C1051 C1050 1.369 . S
C1051 C1052 1.410 . S
C1051 C1059 1.503 . S
C1052 C1051 1.410 . S
C1052 C1053 1.392 . S
C1052 C1055 1.511 . S
C1053 C1049 1.376 . S
C1053 C1052 1.392 . S
C1053 H1065 0.929 . S
C1054 C1050 1.531 . S
C1054 H1066 0.960 . S
C1054 H1067 0.962 . S
C1054 H1068 0.960 . S
C1055 C1052 1.511 . S
C1055 H1069 0.961 . S
C1055 H1070 0.961 . S
C1055 H1071 0.961 . S
C1056 C1057 1.370 . S
C1056 C1058 1.363 . S
C1056 H1072 0.931 . S
C1057 C1056 1.370 . S
C1057 C1061 1.408 . S
C1058 C1056 1.363 . S
C1058 C1059 1.370 . S
C1058 C1062 1.524 . S
C1059 C1051 1.503 . S
C1059 C1058 1.370 . S
C1059 C1060 1.403 . S
C1060 C1059 1.403 . S
C1060 C1061 1.404 . S
C1060 C1063 1.539 . S
C1061 C1057 1.408 . S
C1061 C1060 1.404 . S
C1061 H1073 0.930 . S
C1062 C1058 1.524 . S
C1062 H1074 0.956 . S
C1062 H1075 0.961 . S
C1062 H1076 0.961 . S
C1063 C1060 1.539 . S
C1063 H1077 0.958 . S
C1063 H1078 0.961 . S
C1063 H1079 0.960 . S
H1064 C1048 0.931 . S
H1065 C1053 0.929 . S
H1066 C1054 0.960 . S
H1067 C1054 0.962 . S
H1068 C1054 0.960 . S
H1069 C1055 0.961 . S
H1070 C1055 0.961 . S
H1071 C1055 0.961 . S
H1072 C1056 0.931 . S
H1073 C1061 0.930 . S
H1074 C1062 0.956 . S
H1075 C1062 0.961 . S
H1076 C1062 0.961 . S
H1077 C1063 0.958 . S
H1078 C1063 0.961 . S
H1079 C1063 0.960 . S
C1080 C1081 1.391 . S
C1080 C1082 1.394 . S
C1080 H1096 0.931 . S
C1081 C1080 1.391 . S
C1081 C1085 1.376 . S
C1082 C1080 1.394 . S
C1082 C1083 1.369 . S
C1082 C1086 1.531 . S
C1083 C1082 1.369 . S
C1083 C1084 1.410 . S
C1083 C1091 1.503 . S
C1084 C1083 1.410 . S
C1084 C1085 1.392 . S
C1084 C1087 1.511 . S
C1085 C1081 1.376 . S
C1085 C1084 1.392 . S
C1085 H1097 0.929 . S
C1086 C1082 1.531 . S
C1086 H1098 0.960 . S
C1086 H1099 0.962 . S
C1086 H1100 0.960 . S
C1087 C1084 1.511 . S
C1087 H1101 0.961 . S
C1087 H1102 0.961 . S
C1087 H1103 0.961 . S
C1088 C1089 1.370 . S
C1088 C1090 1.363 . S
C1088 H1104 0.931 . S
C1089 C1088 1.370 . S
C1089 C1093 1.408 . S
C1090 C1088 1.363 . S
C1090 C1091 1.370 . S
C1090 C1094 1.524 . S
C1091 C1083 1.503 . S
C1091 C1090 1.370 . S
C1091 C1092 1.403 . S
C1092 C1091 1.403 . S
C1092 C1093 1.404 . S
C1092 C1095 1.539 . S
C1093 C1089 1.408 . S
C1093 C1092 1.404 . S
C1093 H1105 0.930 . S
C1094 C1090 1.524 . S
C1094 H1106 0.956 . S
C1094 H1107 0.961 . S
C1094 H1108 0.961 . S
C1095 C1092 1.539 . S
C1095 H1109 0.958 . S
C1095 H1110 0.961 . S
C1095 H1111 0.960 . S
H1096 C1080 0.931 . S
H1097 C1085 0.929 . S
H1098 C1086 0.960 . S
H1099 C1086 0.962 . S
H1100 C1086 0.960 . S
H1101 C1087 0.961 . S
H1102 C1087 0.961 . S
H1103 C1087 0.961 . S
H1104 C1088 0.931 . S
H1105 C1093 0.930 . S
H1106 C1094 0.956 . S
H1107 C1094 0.961 . S
H1108 C1094 0.961 . S
H1109 C1095 0.958 . S
H1110 C1095 0.961 . S
H1111 C1095 0.960 . S
C1112 C1113 1.391 . S
C1112 C1114 1.394 . S
C1112 H1128 0.931 . S
C1113 C1112 1.391 . S
C1113 C1117 1.376 . S
C1114 C1112 1.394 . S
C1114 C1115 1.369 . S
C1114 C1118 1.531 . S
C1115 C1114 1.369 . S
C1115 C1116 1.410 . S
C1115 C1123 1.503 . S
C1116 C1115 1.410 . S
C1116 C1117 1.392 . S
C1116 C1119 1.511 . S
C1117 C1113 1.376 . S
C1117 C1116 1.392 . S
C1117 H1129 0.929 . S
C1118 C1114 1.531 . S
C1118 H1130 0.960 . S
C1118 H1131 0.962 . S
C1118 H1132 0.960 . S
C1119 C1116 1.511 . S
C1119 H1133 0.961 . S
C1119 H1134 0.961 . S
C1119 H1135 0.961 . S
C1120 C1121 1.370 . S
C1120 C1122 1.363 . S
C1120 H1136 0.931 . S
C1121 C1120 1.370 . S
C1121 C1125 1.408 . S
C1122 C1120 1.363 . S
C1122 C1123 1.370 . S
C1122 C1126 1.524 . S
C1123 C1115 1.503 . S
C1123 C1122 1.370 . S
C1123 C1124 1.403 . S
C1124 C1123 1.403 . S
C1124 C1125 1.404 . S
C1124 C1127 1.539 . S
C1125 C1121 1.408 . S
C1125 C1124 1.404 . S
C1125 H1137 0.930 . S
C1126 C1122 1.524 . S
C1126 H1138 0.956 . S
C1126 H1139 0.961 . S
C1126 H1140 0.961 . S
C1127 C1124 1.539 . S
C1127 H1141 0.958 . S
C1127 H1142 0.961 . S
C1127 H1143 0.960 . S
H1128 C1112 0.931 . S
H1129 C1117 0.929 . S
H1130 C1118 0.960 . S
H1131 C1118 0.962 . S
H1132 C1118 0.960 . S
H1133 C1119 0.961 . S
H1134 C1119 0.961 . S
H1135 C1119 0.961 . S
H1136 C1120 0.931 . S
H1137 C1125 0.930 . S
H1138 C1126 0.956 . S
H1139 C1126 0.961 . S
H1140 C1126 0.961 . S
H1141 C1127 0.958 . S
H1142 C1127 0.961 . S
H1143 C1127 0.960 . S
C1144 C1145 1.391 . S
C1144 C1146 1.394 . S
C1144 H1160 0.931 . S
C1145 C1144 1.391 . S
C1145 C1149 1.376 . S
C1146 C1144 1.394 . S
C1146 C1147 1.369 . S
C1146 C1150 1.531 . S
C1147 C1146 1.369 . S
C1147 C1148 1.410 . S
C1147 C1155 1.503 . S
C1148 C1147 1.410 . S
C1148 C1149 1.392 . S
C1148 C1151 1.511 . S
C1149 C1145 1.376 . S
C1149 C1148 1.392 . S
C1149 H1161 0.929 . S
C1150 C1146 1.531 . S
C1150 H1162 0.960 . S
C1150 H1163 0.962 . S
C1150 H1164 0.960 . S
C1151 C1148 1.511 . S
C1151 H1165 0.961 . S
C1151 H1166 0.961 . S
C1151 H1167 0.961 . S
C1152 C1153 1.370 . S
C1152 C1154 1.363 . S
C1152 H1168 0.931 . S
C1153 C1152 1.370 . S
C1153 C1157 1.408 . S
C1154 C1152 1.363 . S
C1154 C1155 1.370 . S
C1154 C1158 1.524 . S
C1155 C1147 1.503 . S
C1155 C1154 1.370 . S
C1155 C1156 1.403 . S
C1156 C1155 1.403 . S
C1156 C1157 1.404 . S
C1156 C1159 1.539 . S
C1157 C1153 1.408 . S
C1157 C1156 1.404 . S
C1157 H1169 0.930 . S
C1158 C1154 1.524 . S
C1158 H1170 0.956 . S
C1158 H1171 0.961 . S
C1158 H1172 0.961 . S
C1159 C1156 1.539 . S
C1159 H1173 0.958 . S
C1159 H1174 0.961 . S
C1159 H1175 0.960 . S
H1160 C1144 0.931 . S
H1161 C1149 0.929 . S
H1162 C1150 0.960 . S
H1163 C1150 0.962 . S
H1164 C1150 0.960 . S
H1165 C1151 0.961 . S
H1166 C1151 0.961 . S
H1167 C1151 0.961 . S
H1168 C1152 0.931 . S
H1169 C1157 0.930 . S
H1170 C1158 0.956 . S
H1171 C1158 0.961 . S
H1172 C1158 0.961 . S
H1173 C1159 0.958 . S
H1174 C1159 0.961 . S
H1175 C1159 0.960 . S
C1176 C1177 1.391 . S
C1176 C1178 1.394 . S
C1176 H1192 0.931 . S
C1177 C1176 1.391 . S
C1177 C1181 1.376 . S
C1178 C1176 1.394 . S
C1178 C1179 1.369 . S
C1178 C1182 1.531 . S
C1179 C1178 1.369 . S
C1179 C1180 1.410 . S
C1179 C1187 1.503 . S
C1180 C1179 1.410 . S
C1180 C1181 1.392 . S
C1180 C1183 1.511 . S
C1181 C1177 1.376 . S
C1181 C1180 1.392 . S
C1181 H1193 0.929 . S
C1182 C1178 1.531 . S
C1182 H1194 0.960 . S
C1182 H1195 0.962 . S
C1182 H1196 0.960 . S
C1183 C1180 1.511 . S
C1183 H1197 0.961 . S
C1183 H1198 0.961 . S
C1183 H1199 0.961 . S
C1184 C1185 1.370 . S
C1184 C1186 1.363 . S
C1184 H1200 0.931 . S
C1185 C1184 1.370 . S
C1185 C1189 1.408 . S
C1186 C1184 1.363 . S
C1186 C1187 1.370 . S
C1186 C1190 1.524 . S
C1187 C1179 1.503 . S
C1187 C1186 1.370 . S
C1187 C1188 1.403 . S
C1188 C1187 1.403 . S
C1188 C1189 1.404 . S
C1188 C1191 1.539 . S
C1189 C1185 1.408 . S
C1189 C1188 1.404 . S
C1189 H1201 0.930 . S
C1190 C1186 1.524 . S
C1190 H1202 0.956 . S
C1190 H1203 0.961 . S
C1190 H1204 0.961 . S
C1191 C1188 1.539 . S
C1191 H1205 0.958 . S
C1191 H1206 0.961 . S
C1191 H1207 0.960 . S
H1192 C1176 0.931 . S
H1193 C1181 0.929 . S
H1194 C1182 0.960 . S
H1195 C1182 0.962 . S
H1196 C1182 0.960 . S
H1197 C1183 0.961 . S
H1198 C1183 0.961 . S
H1199 C1183 0.961 . S
H1200 C1184 0.931 . S
H1201 C1189 0.930 . S
H1202 C1190 0.956 . S
H1203 C1190 0.961 . S
H1204 C1190 0.961 . S
H1205 C1191 0.958 . S
H1206 C1191 0.961 . S
H1207 C1191 0.960 . S
C1208 C1209 1.391 . S
C1208 C1210 1.394 . S
C1208 H1224 0.931 . S
C1209 C1208 1.391 . S
C1209 C1213 1.376 . S
C1210 C1208 1.394 . S
C1210 C1211 1.369 . S
C1210 C1214 1.531 1_554 S
C1211 C1210 1.369 . S
C1211 C1212 1.410 . S
C1211 C1219 1.480 1_554 S
C1212 C1211 1.410 . S
C1212 C1213 1.392 . S
C1212 C1215 1.511 . S
C1213 C1209 1.376 . S
C1213 C1212 1.392 . S
C1213 H1225 0.929 . S
C1214 C1210 1.531 1_556 S
C1214 H1226 0.960 . S
C1214 H1227 0.962 . S
C1214 H1228 0.960 . S
C1215 C1212 1.511 . S
C1215 H1229 0.961 . S
C1215 H1230 0.961 . S
C1215 H1231 0.961 . S
C1216 C1217 1.370 . S
C1216 C1218 1.363 . S
C1216 H1232 0.931 . S
C1217 C1216 1.370 . S
C1217 C1221 1.408 . S
C1218 C1216 1.363 . S
C1218 C1219 1.387 . S
C1218 C1222 1.524 . S
C1219 C1211 1.480 1_556 S
C1219 C1218 1.387 . S
C1219 C1220 1.410 . S
C1220 C1219 1.410 . S
C1220 C1221 1.404 . S
C1220 C1223 1.539 1_556 S
C1221 C1217 1.408 . S
C1221 C1220 1.404 . S
C1221 H1233 0.930 . S
C1222 C1218 1.524 . S
C1222 H1234 0.956 . S
C1222 H1235 0.961 1_556 S
C1222 H1236 0.961 . S
C1223 C1220 1.539 1_554 S
C1223 H1237 0.958 . S
C1223 H1238 0.961 . S
C1223 H1239 0.960 . S
H1224 C1208 0.931 . S
H1225 C1213 0.929 . S
H1226 C1214 0.960 . S
H1227 C1214 0.962 . S
H1228 C1214 0.960 . S
H1229 C1215 0.961 . S
H1230 C1215 0.961 . S
H1231 C1215 0.961 . S
H1232 C1216 0.931 . S
H1233 C1221 0.930 . S
H1234 C1222 0.956 . S
H1235 C1222 0.961 1_554 S
H1236 C1222 0.961 . S
H1237 C1223 0.958 . S
H1238 C1223 0.961 . S
H1239 C1223 0.960 . S
C1240 C1241 1.391 . S
C1240 C1242 1.394 . S
C1240 H1256 0.931 . S
C1241 C1240 1.391 . S
C1241 C1245 1.376 . S
C1242 C1240 1.394 . S
C1242 C1243 1.369 . S
C1242 C1246 1.531 . S
C1243 C1242 1.369 . S
C1243 C1244 1.410 . S
C1243 C1251 1.503 . S
C1244 C1243 1.410 . S
C1244 C1245 1.392 . S
C1244 C1247 1.511 . S
C1245 C1241 1.376 . S
C1245 C1244 1.392 . S
C1245 H1257 0.929 . S
C1246 C1242 1.531 . S
C1246 H1258 0.960 . S
C1246 H1259 0.962 . S
C1246 H1260 0.960 . S
C1247 C1244 1.511 . S
C1247 H1261 0.961 . S
C1247 H1262 0.961 . S
C1247 H1263 0.961 . S
C1248 C1249 1.370 . S
C1248 C1250 1.363 . S
C1248 H1264 0.931 . S
C1249 C1248 1.370 . S
C1249 C1253 1.408 . S
C1250 C1248 1.363 . S
C1250 C1251 1.370 . S
C1250 C1254 1.524 . S
C1251 C1243 1.503 . S
C1251 C1250 1.370 . S
C1251 C1252 1.403 . S
C1252 C1251 1.403 . S
C1252 C1253 1.404 . S
C1252 C1255 1.539 . S
C1253 C1249 1.408 . S
C1253 C1252 1.404 . S
C1253 H1265 0.930 . S
C1254 C1250 1.524 . S
C1254 H1266 0.956 . S
C1254 H1267 0.961 . S
C1254 H1268 0.961 . S
C1255 C1252 1.539 . S
C1255 H1269 0.958 . S
C1255 H1270 0.961 . S
C1255 H1271 0.960 . S
H1256 C1240 0.931 . S
H1257 C1245 0.929 . S
H1258 C1246 0.960 . S
H1259 C1246 0.962 . S
H1260 C1246 0.960 . S
H1261 C1247 0.961 . S
H1262 C1247 0.961 . S
H1263 C1247 0.961 . S
H1264 C1248 0.931 . S
H1265 C1253 0.930 . S
H1266 C1254 0.956 . S
H1267 C1254 0.961 . S
H1268 C1254 0.961 . S
H1269 C1255 0.958 . S
H1270 C1255 0.961 . S
H1271 C1255 0.960 . S
C513 C471 1.610 . S
C505 C45 1.597 . S
C537 C84 1.640 . S
C545 C291 1.646 . S
C569 C126 1.553 . S
C577 C338 1.589 . S
C601 C189 1.554 . S
C609 C374 1.530 . S
C641 C399 1.584 . S
C633 C228 1.591 . S
C665 C270 1.536 . S
C673 C435 1.597 . S
C697 C69 1.592 . S
C705 C327 1.641 . S
C729 C141 1.590 . S
C737 C363 1.584 . S
C761 C174 1.493 . S
C769 C410 1.517 . S
C801 C446 1.568 . S
C793 C213 1.560 . S
C833 C482 1.586 . S
C825 C285 1.603 . S
C865 C302 1.596 . S
C857 C30 1.569 . S
C889 C36 1.486 . S
C897 C326 1.486 . S
C921 C93 1.489 . S
C929 C362 1.486 . S
C961 C400 1.493 . S
C953 C117 1.504 . S
C985 C180 1.507 . S
C993 C436 1.498 . S
C1025 C472 1.468 . S
C1017 C237 1.466 . S
C1057 C292 1.458 . S
C1049 C261 1.449 . S
C1089 C470 1.473 . S
C1081 C78 1.477 . S
C1113 C132 1.483 . S
C1121 C290 1.467 . S
C1153 C328 1.475 . S
C1145 C165 1.489 . S
C1177 C222 1.475 . S
C1185 C364 1.495 . S
C1209 C276 1.526 . S
C1217 C398 1.526 . S
C1241 C21 1.505 . S
C1249 C434 1.502 . S
