# Generated by pormake.
# Topology pth, (4,4)-cn, num edge types: 1
# Building blocks:
#     Node 0, Type 0, BuildingBlock: AZAVOO_clean_sbu_0, # of connection points: 4
#     Node 1, Type 0, BuildingBlock: AZAVOO_clean_sbu_0, # of connection points: 4
#     Node 2, Type 0, BuildingBlock: AZAVOO_clean_sbu_0, # of connection points: 4
#     Node 3, Type 1, BuildingBlock: MIFKUJ_clean_linker_1, # of connection points: 4
#     Node 4, Type 1, BuildingBlock: MIFKUJ_clean_linker_1, # of connection points: 4
#     Node 5, Type 1, BuildingBlock: MIFKUJ_clean_linker_1, # of connection points: 4
#     Edge 6, Type (0, 1), BuildingBlock: FUNLAD_clean_linker_0, # of connection points: 2
#     Edge 7, Type (0, 1), BuildingBlock: FUNLAD_clean_linker_0, # of connection points: 2
#     Edge 8, Type (0, 1), BuildingBlock: FUNLAD_clean_linker_0, # of connection points: 2
#     Edge 9, Type (0, 1), BuildingBlock: FUNLAD_clean_linker_0, # of connection points: 2
#     Edge 10, Type (0, 1), BuildingBlock: FUNLAD_clean_linker_0, # of connection points: 2
#     Edge 11, Type (0, 1), BuildingBlock: FUNLAD_clean_linker_0, # of connection points: 2
#     Edge 12, Type (0, 1), BuildingBlock: FUNLAD_clean_linker_0, # of connection points: 2
#     Edge 13, Type (0, 1), BuildingBlock: FUNLAD_clean_linker_0, # of connection points: 2
#     Edge 14, Type (0, 1), BuildingBlock: FUNLAD_clean_linker_0, # of connection points: 2
#     Edge 15, Type (0, 1), BuildingBlock: FUNLAD_clean_linker_0, # of connection points: 2
#     Edge 16, Type (0, 1), BuildingBlock: FUNLAD_clean_linker_0, # of connection points: 2
#     Edge 17, Type (0, 1), BuildingBlock: FUNLAD_clean_linker_0, # of connection points: 2
# Relax obj value: 0.066
# Max RMSD: 0.211
# Mean RMSD: 0.113
data_MOF--net-pth--node1-AZAVOO_clean_sbu_0--node2-MIFKUJ_clean_linker_1--edge1-FUNLAD_clean_linker_0
_symmetry_space_group_name_H-M    P1
_symmetry_Int_Tables_number       1
_symmetry_cell_setting            triclinic
loop_
_symmetry_equiv_pos_as_xyz
'x, y, z'
_cell_length_a     33.306833
_cell_length_b     33.98704
_cell_length_c     71.45167
_cell_angle_alpha  90.857393
_cell_angle_beta   92.584889
_cell_angle_gamma 121.77214
loop_
_atom_site_label
_atom_site_type_symbol
_atom_site_fract_x
_atom_site_fract_y
_atom_site_fract_z
_atom_type_partial_charge
Mg0 Mg 0.07782 0.05344 0.04129 0.0
O1 O 0.01577 0.00196 0.02108 0.0
O2 O -0.00133 0.04246 0.0015 0.0
Mg3 Mg 0.04975 0.1194 0.00893 0.0
C4 C 0.99118 0.00396 0.00731 0.0
C5 C 0.07892 0.00417 0.07728 0.0
O6 O 0.10208 0.04761 0.08358 0.0
O7 O 0.02985 0.06899 0.05742 0.0
O8 O 0.01695 0.11145 0.03727 0.0
O9 O 0.12907 0.05748 0.02101 0.0
O10 O 0.1011 0.10367 0.02143 0.0
C11 C 0.01169 0.09293 0.05312 0.0
C12 C 0.12661 0.09077 0.01361 0.0
O13 O 0.06366 0.99472 0.06018 0.0
Mg14 Mg 0.94845 0.99342 0.36392 0.0
O15 O 0.0181 0.02184 0.38182 0.0
O16 O 0.03106 0.08379 0.39873 0.0
Mg17 Mg 0.97031 0.09502 0.39179 0.0
C18 C 0.04307 0.05527 0.39386 0.0
C19 C 0.9836 0.92714 0.3518 0.0
O20 O 0.99255 0.92816 0.36996 0.0
O21 O 0.98461 0.05306 0.34439 0.0
O22 O 0.994 0.11286 0.36177 0.0
O23 O 0.90679 0.94849 0.38701 0.0
O24 O 0.92539 0.02071 0.38384 0.0
C25 C -0.00209 0.09568 0.34643 0.0
C26 C 0.90663 0.98419 0.39351 0.0
O27 O 0.96564 0.94966 0.3455 0.0
Mg28 Mg 0.98454 0.98486 0.68699 0.0
O29 O 0.03852 0.03972 0.70871 0.0
O30 O -0.00089 0.04657 0.73172 0.0
Mg31 Mg 0.92013 0.99471 0.72507 0.0
C32 C 0.03778 0.05828 0.72425 0.0
C33 C 0.03098 -0.00243 0.64893 0.0
O34 O 0.98608 0.97179 0.6432 0.0
O35 O 0.96321 0.03462 0.67649 0.0
O36 O 0.92067 0.03562 0.6996 0.0
O37 O 0.987 0.92937 0.70235 0.0
O38 O 0.9371 0.95192 0.70763 0.0
C39 C 0.93737 0.04781 0.68349 0.0
C40 C 0.95358 0.92626 0.71205 0.0
O41 O 0.04193 0.00942 0.66624 0.0
H42 H 0.06191 0.48309 0.1595 0.0
H43 H 0.04765 0.41812 0.139 0.0
H44 H 0.92692 0.32487 0.16993 0.0
H45 H 0.94165 0.38987 0.19043 0.0
H46 H 0.00978 0.51988 0.16617 0.0
H47 H 0.08353 0.45823 0.20304 0.0
H48 H 0.09417 0.4003 0.21861 0.0
H49 H 0.97251 0.36179 0.25051 0.0
H50 H 0.96188 0.41955 0.23483 0.0
H51 H 0.95779 0.53893 0.23889 0.0
H52 H 0.96182 0.59644 0.26104 0.0
H53 H 0.09027 0.70259 0.23762 0.0
H54 H 0.08567 0.6447 0.21532 0.0
H55 H 0.02224 0.51302 0.23535 0.0
H56 H 0.9556 0.58474 0.19605 0.0
H57 H 0.95804 0.64984 0.18064 0.0
H58 H 0.08201 0.67647 0.15282 0.0
H59 H 0.07999 0.61221 0.16857 0.0
C60 C 0.00315 0.44126 0.17659 0.0
C61 C 0.03234 0.44865 0.16181 0.0
C62 C 0.02403 0.4115 0.15009 0.0
C63 C 0.98615 0.36628 0.15285 0.0
C64 C 0.95682 0.35909 0.16761 0.0
C65 C 0.96516 0.39624 0.17932 0.0
C66 C 0.01187 0.48049 0.18912 0.0
C67 C 0.01311 0.51869 0.18129 0.0
C68 C 0.01653 0.47915 0.2088 0.0
C69 C 0.02178 0.44296 0.21774 0.0
C70 C 0.0589 0.43695 0.21326 0.0
C71 C 0.0651 0.4041 0.22221 0.0
C72 C 0.03409 0.37652 0.2357 0.0
C73 C -0.00342 0.3822 0.23998 0.0
C74 C 0.99067 0.41536 0.23116 0.0
C75 C 0.02121 0.58759 0.22539 0.0
C76 C 0.9868 0.57461 0.23853 0.0
C77 C 0.98931 0.60749 0.25124 0.0
C78 C 0.02652 0.65407 0.25117 0.0
C79 C 0.06089 0.6671 0.23791 0.0
C80 C 0.05833 0.63409 0.22516 0.0
C81 C 0.01872 0.55182 0.21244 0.0
C82 C 0.01888 0.51425 0.22022 0.0
C83 C 0.01678 0.55458 0.19271 0.0
C84 C 0.01788 0.59395 0.18357 0.0
C85 C 0.98353 0.60492 0.18677 0.0
C86 C 0.98475 0.64186 0.17784 0.0
C87 C 0.02034 0.6684 0.16557 0.0
C88 C 0.05458 0.65717 0.16241 0.0
C89 C 0.05325 0.62023 0.17127 0.0
H90 H 0.61823 0.11886 0.49154 0.0
H91 H 0.67693 0.10714 0.47743 0.0
H92 H 0.64644 -0.00142 0.51558 0.0
H93 H 0.5869 0.00967 0.5293 0.0
H94 H 0.52416 0.06149 0.49379 0.0
H95 H 0.65915 0.14534 0.53588 0.0
H96 H 0.72693 0.15647 0.55539 0.0
H97 H 0.63172 0.05049 0.59146 0.0
H98 H 0.56406 0.03896 0.57176 0.0
H99 H 0.43523 0.02073 0.56238 0.0
H100 H 0.36963 0.01935 0.577 0.0
H101 H 0.39183 0.13493 0.5447 0.0
H102 H 0.45818 0.13659 0.53028 0.0
H103 H 0.52971 0.09021 0.56243 0.0
H104 H 0.3942 0.00644 0.5175 0.0
H105 H 0.32968 -0.00077 0.49703 0.0
H106 H 0.43144 0.11231 0.46512 0.0
H107 H 0.4955 0.12079 0.48623 0.0
C108 C 0.59856 0.06544 0.51156 0.0
C109 C 0.6241 0.09243 0.4968 0.0
C110 C 0.6579 0.08598 0.48888 0.0
C111 C 0.66653 0.05215 0.4955 0.0
C112 C 0.64041 0.02473 0.51013 0.0
C113 C 0.60667 0.03127 0.51806 0.0
C114 C 0.56333 0.07288 0.52019 0.0
C115 C 0.52571 0.06846 0.50876 0.0
C116 C 0.56549 0.08202 0.53971 0.0
C117 C 0.6065 0.09082 0.5522 0.0
C118 C 0.65286 0.12436 0.54795 0.0
C119 C 0.69156 0.13074 0.5591 0.0
C120 C 0.6846 0.10426 0.5749 0.0
C121 C 0.63815 0.07173 0.57947 0.0
C122 C 0.59947 0.06507 0.56822 0.0
C123 C 0.4513 0.07854 0.54517 0.0
C124 C 0.42613 0.04593 0.55852 0.0
C125 C 0.38841 0.04492 0.56673 0.0
C126 C 0.37534 0.07676 0.56186 0.0
C127 C 0.40122 0.11007 0.54875 0.0
C128 C 0.4389 0.11091 0.54045 0.0
C129 C 0.48997 0.07777 0.53607 0.0
C130 C 0.52836 0.0836 0.54744 0.0
C131 C 0.48893 0.07075 0.51643 0.0
C132 C 0.44962 0.06475 0.50361 0.0
C133 C 0.40254 0.02998 0.50621 0.0
C134 C 0.36572 0.02553 0.49434 0.0
C135 C 0.37532 0.05536 0.47947 0.0
C136 C 0.42267 0.08934 0.47663 0.0
C137 C 0.45939 0.09397 0.48858 0.0
H138 H 0.5087 0.40653 0.82619 0.0
H139 H 0.44007 0.35015 0.80588 0.0
H140 H 0.35409 0.39283 0.83244 0.0
H141 H 0.42289 0.45017 0.85195 0.0
H142 H 0.55431 0.49868 0.82897 0.0
H143 H 0.47797 0.37898 0.87298 0.0
H144 H 0.41607 0.32129 0.89186 0.0
H145 H 0.39127 0.42594 0.91321 0.0
H146 H 0.45404 0.48347 0.89477 0.0
H147 H 0.57472 0.60451 0.89408 0.0
H148 H 0.63461 0.6739 0.91243 0.0
H149 H 0.74171 0.64558 0.89782 0.0
H150 H 0.68136 0.57572 0.87958 0.0
H151 H 0.54613 0.51262 0.89774 0.0
H152 H 0.61463 0.62895 0.85146 0.0
H153 H 0.68027 0.6898 0.83517 0.0
H154 H 0.72023 0.59278 0.81855 0.0
H155 H 0.6537 0.53175 0.83469 0.0
C156 C 0.47082 0.43211 0.8408 0.0
C157 C 0.47503 0.40368 0.82759 0.0
C158 C 0.43571 0.37128 0.81609 0.0
C159 C 0.39155 0.36697 0.81752 0.0
C160 C 0.38762 0.39559 0.83077 0.0
C161 C 0.42685 0.42798 0.84216 0.0
C162 C 0.51248 0.46753 0.85271 0.0
C163 C 0.55291 0.50101 0.84406 0.0
C164 C 0.51061 0.47125 0.87236 0.0
C165 C 0.4707 0.43549 0.88259 0.0
C166 C 0.45883 0.38927 0.88162 0.0
C167 C 0.42332 0.35632 0.89237 0.0
C168 C 0.39899 0.36907 0.9042 0.0
C169 C 0.41002 0.41515 0.9046 0.0
C170 C 0.44572 0.44806 0.894 0.0
C171 C 0.62368 0.58515 0.88542 0.0
C172 C 0.61106 0.6131 0.89493 0.0
C173 C 0.64532 0.65288 0.90527 0.0
C174 C 0.69282 0.66522 0.90647 0.0
C175 C 0.70531 0.63672 0.89722 0.0
C176 C 0.671 0.59704 0.88673 0.0
C177 C 0.58709 0.54404 0.87394 0.0
C178 C 0.54777 0.50957 0.88269 0.0
C179 C 0.59003 0.53943 0.85444 0.0
C180 C 0.62964 0.57603 0.84439 0.0
C181 C 0.63773 0.62091 0.8444 0.0
C182 C 0.67546 0.6557 0.83517 0.0
C183 C 0.7058 0.64628 0.82568 0.0
C184 C 0.69733 0.6011 0.8256 0.0
C185 C 0.65944 0.56623 0.83482 0.0
C186 C 0.96039 0.12236 0.06225 0.0
C187 C 0.98916 0.1051 0.06758 0.0
C188 C 0.9475 0.14348 0.07557 0.0
C189 C 0.96394 0.14858 0.09447 0.0
C190 C 0.98877 0.12733 0.10005 0.0
C191 C 0.0013 0.10572 0.08672 0.0
C192 C 0.95935 0.17892 0.1083 0.0
C193 C 0.95831 0.21643 0.10313 0.0
C194 C 0.96279 0.25297 0.11635 0.0
C195 C 0.97443 0.29569 0.10911 0.0
C196 C 0.98161 0.3322 0.12091 0.0
C197 C 0.97715 0.32687 0.14029 0.0
H198 H 0.94691 0.21458 0.14189 0.0
C199 C 0.96423 0.28377 0.14754 0.0
C200 C 0.95697 0.24712 0.13571 0.0
H201 H 0.96056 0.27857 0.16244 0.0
H202 H 0.94953 0.12139 0.04764 0.0
H203 H 0.92616 0.15725 0.07085 0.0
H204 H 0.00112 0.12997 0.11457 0.0
H205 H 0.02321 0.09242 0.09129 0.0
H206 H 0.96289 0.17335 0.12303 0.0
H207 H 0.95863 0.22336 0.08833 0.0
H208 H 0.97873 0.30118 0.09425 0.0
H209 H 0.99053 0.36461 0.11481 0.0
C210 C 0.90288 0.02389 0.42233 0.0
C211 C 0.88473 0.98322 0.41108 0.0
C212 C 0.87792 0.02549 0.43717 0.0
C213 C 0.83372 0.98655 0.44082 0.0
C214 C 0.81758 0.94474 0.43056 0.0
C215 C 0.84295 0.94304 0.41579 0.0
C216 C 0.80253 0.98931 0.45433 0.0
C217 C 0.80305 0.02878 0.45762 0.0
C218 C 0.7688 0.03287 0.46885 0.0
C219 C 0.77874 0.07751 0.47362 0.0
C220 C 0.74602 0.08372 0.4826 0.0
C221 C 0.70237 0.04534 0.487 0.0
H222 H 0.71568 0.95929 0.46995 0.0
C223 C 0.69271 0.00057 0.4827 0.0
C224 C 0.72547 0.9943 0.47366 0.0
H225 H 0.65911 0.97032 0.48573 0.0
H226 H 0.93597 0.05482 0.41949 0.0
H227 H 0.89291 0.05764 0.44542 0.0
H228 H 0.78407 0.91399 0.43331 0.0
H229 H 0.82843 0.9111 0.40739 0.0
H230 H 0.77642 0.95738 0.46038 0.0
H231 H 0.8288 0.06004 0.45102 0.0
H232 H 0.81174 0.10788 0.4701 0.0
H233 H 0.7548 0.11865 0.48599 0.0
C234 C 0.89868 0.89206 0.73792 0.0
C235 C 0.93453 0.89417 0.72754 0.0
C236 C 0.87796 0.85956 0.75161 0.0
C237 C 0.89253 0.82823 0.75524 0.0
C238 C 0.92861 0.83049 0.74498 0.0
C239 C 0.94973 0.86341 0.73136 0.0
C240 C 0.86762 0.79042 0.76837 0.0
C241 C 0.84614 0.79444 0.78315 0.0
C242 C 0.81432 0.75508 0.79462 0.0
C243 C 0.80537 0.76457 0.81261 0.0
C244 C 0.77139 0.72906 0.82297 0.0
C245 C 0.74509 0.68324 0.81545 0.0
H246 H 0.79395 0.7004 0.77329 0.0
C247 C 0.75495 0.6735 0.79764 0.0
C248 C 0.78913 0.709 0.78731 0.0
H249 H 0.73483 0.63873 0.7913 0.0
H250 H 0.88549 0.91459 0.73515 0.0
H251 H 0.84914 0.8579 0.75874 0.0
H252 H 0.94006 0.80637 0.74735 0.0
H253 H 0.97705 0.86393 0.72351 0.0
H254 H 0.86663 0.75841 0.76559 0.0
H255 H 0.85134 0.82798 0.78693 0.0
H256 H 0.82411 0.79976 0.81854 0.0
H257 H 0.76522 0.73764 0.83677 0.0
C258 C 0.04637 0.9204 0.08319 0.0
C259 C 0.07204 0.967 0.08976 0.0
C260 C 0.04123 0.88548 0.09479 0.0
C261 C 0.06153 0.89642 0.11329 0.0
C262 C 0.08709 0.94297 0.11984 0.0
C263 C 0.09209 0.97787 0.10826 0.0
C264 C 0.05926 0.86071 0.12573 0.0
C265 C 0.02499 0.81548 0.12385 0.0
C266 C 0.02443 0.77945 0.13558 0.0
C267 C 0.98128 0.73776 0.13752 0.0
C268 C 0.97973 0.70209 0.14761 0.0
C269 C 0.02147 0.70718 0.15578 0.0
H270 H 0.10034 0.81566 0.14233 0.0
C271 C 0.06464 0.74898 0.15394 0.0
C272 C 0.06618 0.78468 0.14392 0.0
H273 H 0.09738 0.75403 0.16016 0.0
H274 H 0.03072 0.91087 0.06897 0.0
H275 H 0.02249 0.85024 0.089 0.0
H276 H 0.10346 0.95244 0.13396 0.0
H277 H 0.11221 0.01343 0.11376 0.0
H278 H 0.08629 0.87261 0.13713 0.0
H279 H 0.99541 0.80425 0.11364 0.0
H280 H 0.94867 0.73259 0.13108 0.0
H281 H 0.946 0.67006 0.14857 0.0
C282 C 0.10182 0.03041 0.3979 0.0
C283 C 0.08659 0.06042 0.40297 0.0
C284 C 0.14193 0.0344 0.40705 0.0
C285 C 0.1675 0.06835 0.42158 0.0
C286 C 0.15287 0.09894 0.42628 0.0
C287 C 0.1129 0.09501 0.41715 0.0
C288 C 0.20984 0.07368 0.43206 0.0
C289 C 0.21958 0.03994 0.4331 0.0
C290 C 0.26059 0.045 0.44458 0.0
C291 C 0.25907 0.00492 0.45032 0.0
C292 C 0.2963 0.00815 0.46151 0.0
C293 C 0.33613 0.05166 0.46717 0.0
H294 H 0.30459 0.12032 0.44523 0.0
C295 C 0.33812 0.09177 0.46108 0.0
C296 C 0.30103 0.08853 0.44983 0.0
H297 H 0.36812 0.12586 0.46524 0.0
H298 H 0.08273 0.0037 0.38689 0.0
H299 H 0.1528 0.01109 0.40251 0.0
H300 H 0.17208 0.12572 0.43727 0.0
H301 H 0.10242 0.11889 0.42139 0.0
H302 H 0.23208 0.10596 0.4402 0.0
H303 H 0.19515 0.00619 0.42631 0.0
H304 H 0.2287 0.97091 0.4463 0.0
H305 H 0.29398 0.97652 0.46564 0.0
C306 C 0.0835 0.11858 0.75016 0.0
C307 C 0.08317 0.09404 0.73407 0.0
C308 C 0.12618 0.15184 0.75959 0.0
C309 C 0.16961 0.16143 0.75313 0.0
C310 C 0.16932 0.13658 0.73721 0.0
C311 C 0.12662 0.1035 0.72768 0.0
C312 C 0.21554 0.19578 0.76311 0.0
C313 C 0.22211 0.23302 0.77298 0.0
C314 C 0.2673 0.26725 0.78345 0.0
C315 C 0.27667 0.31201 0.7873 0.0
C316 C 0.31743 0.34458 0.79797 0.0
C317 C 0.34958 0.33295 0.80529 0.0
H318 H 0.2931 0.2211 0.78833 0.0
C319 C 0.34046 0.28821 0.80131 0.0
C320 C 0.29972 0.25565 0.79053 0.0
H321 H 0.36406 0.27787 0.80699 0.0
H322 H 0.05075 0.11199 0.75556 0.0
H323 H 0.12486 0.1692 0.77216 0.0
H324 H 0.20225 0.14297 0.73205 0.0
H325 H 0.12773 0.08507 0.71541 0.0
H326 H 0.24512 0.19117 0.76158 0.0
H327 H 0.19372 0.23988 0.7729 0.0
H328 H 0.25227 0.32185 0.78206 0.0
H329 H 0.32369 0.37892 0.8005 0.0
C330 C 0.93077 0.07965 0.65279 0.0
C331 C 0.92206 0.07402 0.67194 0.0
C332 C 0.90969 0.09763 0.64128 0.0
C333 C 0.87934 0.11021 0.64872 0.0
C334 C 0.8737 0.10792 0.66809 0.0
C335 C 0.8946 0.08985 0.67956 0.0
C336 C 0.85043 0.12288 0.6368 0.0
C337 C 0.83735 0.10866 0.61863 0.0
C338 C 0.80051 0.11259 0.60785 0.0
C339 C 0.80013 0.1121 0.5882 0.0
C340 C 0.76326 0.11086 0.5775 0.0
C341 C 0.72557 0.10936 0.58627 0.0
H342 H 0.76135 0.111 0.63171 0.0
C343 C 0.72624 0.11054 0.60594 0.0
C344 C 0.76325 0.11212 0.61663 0.0
H345 H 0.69773 0.10958 0.61307 0.0
H346 H 0.9523 0.06844 0.6465 0.0
H347 H 0.91657 0.10062 0.62656 0.0
H348 H 0.8511 0.11799 0.67425 0.0
H349 H 0.88764 0.08667 0.6943 0.0
H350 H 0.83587 0.14084 0.64375 0.0
H351 H 0.852 0.09111 0.61145 0.0
H352 H 0.82802 0.11181 0.58107 0.0
H353 H 0.7634 0.1094 0.56235 0.0
C354 C 0.92339 0.96129 0.98328 0.0
C355 C 0.95391 0.96043 -0.00272 0.0
C356 C 0.88963 0.92077 0.97317 0.0
C357 C 0.88593 0.87833 0.97665 0.0
C358 C 0.91551 0.87726 0.99101 0.0
C359 C 0.94918 0.91781 0.0012 0.0
C360 C 0.85135 0.83447 0.9659 0.0
C361 C 0.83152 0.83305 0.94883 0.0
C362 C 0.79656 0.78933 0.93821 0.0
C363 C 0.76361 0.78976 0.9254 0.0
C364 C 0.73002 0.7495 0.91511 0.0
C365 C 0.72911 0.70801 0.91721 0.0
H366 H 0.82188 0.74659 0.94944 0.0
C367 C 0.76275 0.70771 0.9297 0.0
C368 C 0.79614 0.74795 0.94014 0.0
H369 H 0.76286 0.67619 0.93157 0.0
H370 H 0.92553 0.99337 0.98006 0.0
H371 H 0.8664 0.92312 0.96281 0.0
H372 H 0.91309 0.84503 0.99418 0.0
H373 H 0.97196 0.9158 0.01194 0.0
H374 H 0.84248 0.80229 0.97229 0.0
H375 H 0.84006 0.86498 0.94233 0.0
H376 H 0.76353 0.82128 0.92347 0.0
H377 H 0.70497 0.75092 0.90538 0.0
C378 C 0.01691 0.87748 0.34526 0.0
C379 C 0.99396 0.89988 0.33872 0.0
C380 C 0.02609 0.85129 0.33287 0.0
C381 C 0.01199 0.84657 0.31366 0.0
C382 C 0.98997 0.86982 0.30713 0.0
C383 C 0.98097 0.89608 0.31949 0.0
C384 C 0.01945 0.81799 0.29993 0.0
C385 C 0.02644 0.78376 0.30476 0.0
C386 C 0.0292 0.75239 0.29084 0.0
C387 C 0.01853 0.70864 0.29641 0.0
C388 C 0.01838 0.6771 0.28363 0.0
C389 C 0.0292 0.68867 0.26495 0.0
H390 H 0.05188 0.7986 0.26758 0.0
C391 C 0.04159 0.73307 0.2595 0.0
C392 C 0.04179 0.76469 0.27231 0.0
H393 H 0.05018 0.74308 0.24522 0.0
H394 H 0.02796 0.88025 0.35996 0.0
H395 H 0.0446 0.83535 0.33845 0.0
H396 H 0.97907 0.86718 0.29241 0.0
H397 H 0.96346 0.9131 0.31394 0.0
H398 H 0.01547 0.82337 0.2852 0.0
H399 H 0.0264 0.77567 0.31939 0.0
H400 H 0.00938 0.69843 0.31064 0.0
H401 H 0.00971 0.64355 0.28839 0.0
C402 C 0.11639 0.03828 0.6418 0.0
C403 C 0.0684 0.01013 0.63568 0.0
C404 C 0.15183 0.04756 0.62968 0.0
C405 C 0.14002 0.02898 0.6111 0.0
C406 C 0.09207 0.00152 0.60491 0.0
C407 C 0.05662 0.9924 0.61702 0.0
C408 C 0.17643 0.03412 0.59838 0.0
C409 C 0.22217 0.06885 0.60029 0.0
C410 C 0.25943 0.0705 0.58903 0.0
C411 C 0.30119 0.11333 0.58684 0.0
C412 C 0.33842 0.11563 0.57756 0.0
C413 C 0.33484 0.07499 0.57054 0.0
H414 H 0.22464 0.99609 0.58354 0.0
C415 C 0.29286 0.0322 0.57253 0.0
C416 C 0.2556 0.02991 0.5817 0.0
H417 H 0.28898 0.00032 0.56716 0.0
H418 H 0.12669 0.05236 0.65612 0.0
H419 H 0.18825 0.06777 0.63519 0.0
H420 H 0.08196 0.98647 0.59073 0.0
H421 H 0.01999 0.97053 0.61186 0.0
H422 H 0.16482 0.00813 0.58702 0.0
H423 H 0.23303 0.09738 0.6104 0.0
H424 H 0.30528 0.14505 0.59253 0.0
H425 H 0.37056 0.14905 0.5764 0.0
C426 C 0.15109 0.1518 0.99016 0.0
C427 C 0.15245 0.1139 -0.00307 0.0
C428 C 0.17862 0.17674 0.97557 0.0
C429 C 0.20873 0.16476 0.96755 0.0
C430 C 0.20835 0.12546 0.9736 0.0
C431 C 0.18062 0.10034 0.98826 0.0
C432 C 0.24178 0.19377 0.95333 0.0
C433 C 0.26202 0.24012 0.95395 0.0
C434 C 0.29724 0.27152 0.94089 0.0
C435 C 0.32859 0.31789 0.94692 0.0
C436 C 0.36165 0.34924 0.93506 0.0
C437 C 0.36371 0.33516 0.91672 0.0
H438 H 0.27472 0.22189 0.91728 0.0
C439 C 0.33215 0.28867 0.9106 0.0
C440 C 0.29919 0.2571 0.92257 0.0
H441 H 0.33234 0.27687 0.89646 0.0
H442 H 0.12973 0.16319 -0.00357 0.0
H443 H 0.17668 0.2058 0.97079 0.0
H444 H 0.23082 0.11521 0.96746 0.0
H445 H 0.18219 0.07109 0.99309 0.0
H446 H 0.25234 0.17721 0.94325 0.0
H447 H 0.25469 0.25653 0.96535 0.0
H448 H 0.32778 0.32991 0.96095 0.0
H449 H 0.38596 0.38449 0.94039 0.0
C450 C 0.03578 0.17362 0.33268 0.0
C451 C 0.01422 0.12541 0.33012 0.0
C452 C 0.04459 0.20125 0.31729 0.0
C453 C 0.03202 0.18124 0.29894 0.0
C454 C 0.01252 0.13337 0.29634 0.0
C455 C 0.00407 0.10572 0.31176 0.0
C456 C 0.03299 0.20824 0.28264 0.0
C457 C 0.06153 0.2546 0.28237 0.0
C458 C 0.05498 0.28282 0.26835 0.0
C459 C 0.09337 0.32715 0.26504 0.0
C460 C 0.08697 0.35696 0.25381 0.0
C461 C 0.04182 0.34325 0.24592 0.0
H462 H 0.9793 0.23518 0.26253 0.0
C463 C 0.0036 0.29852 0.24884 0.0
C464 C 0.01006 0.26855 0.25991 0.0
H465 H 0.96846 0.28704 0.24285 0.0
H466 H 0.04415 0.18991 0.34663 0.0
H467 H 0.05862 0.23778 0.31998 0.0
H468 H 0.00222 0.11705 0.28237 0.0
H469 H 0.98732 0.06866 0.3093 0.0
H470 H 0.00778 0.18932 0.27085 0.0
H471 H 0.0899 0.27305 0.2932 0.0
H472 H 0.12818 0.33918 0.27155 0.0
H473 H 0.11697 0.39145 0.25194 0.0
loop_
_geom_bond_atom_site_label_1
_geom_bond_atom_site_label_2
_geom_bond_distance
_geom_bond_site_symmetry_2
_ccdc_geom_bond_type
Mg0 O1 2.028 . S
Mg0 O7 1.986 . S
Mg0 O9 2.114 . S
Mg0 O10 2.251 . S
Mg0 O13 2.010 . S
O1 Mg0 2.028 . S
O1 C4 1.239 1_455 S
O2 Mg3 2.028 1_655 S
O2 C4 1.275 . S
Mg3 O2 2.028 1_455 S
Mg3 O8 2.032 . S
Mg3 O10 2.079 . S
C4 O1 1.239 1_655 S
C4 O2 1.275 . S
C5 O6 1.264 . S
C5 O13 1.249 1_565 S
O6 C5 1.264 . S
O7 Mg0 1.986 . S
O7 C11 1.246 . S
O8 Mg3 2.032 . S
O8 C11 1.259 . S
O9 Mg0 2.114 . S
O9 C12 1.252 . S
O10 Mg0 2.251 . S
O10 Mg3 2.079 . S
O10 C12 1.273 . S
C11 O7 1.246 . S
C11 O8 1.259 . S
C12 O9 1.252 . S
C12 O10 1.273 . S
O13 Mg0 2.010 . S
O13 C5 1.249 1_545 S
Mg14 O15 2.028 1_655 S
Mg14 O21 1.986 1_655 S
Mg14 O23 2.114 1_545 S
Mg14 O24 2.251 . S
Mg14 O27 2.010 1_545 S
O15 Mg14 2.028 1_455 S
O15 C18 1.250 . S
O16 Mg17 2.028 . S
O16 C18 1.248 . S
Mg17 O16 2.028 . S
Mg17 O22 2.032 . S
Mg17 O24 2.079 1_455 S
C18 O15 1.250 . S
C18 O16 1.248 . S
C19 O20 1.264 . S
C19 O27 1.249 . S
O20 C19 1.264 . S
O21 Mg14 1.986 1_455 S
O21 C25 1.246 . S
O22 Mg17 2.032 . S
O22 C25 1.259 . S
O23 Mg14 2.114 1_565 S
O23 C26 1.252 1_565 S
O24 Mg14 2.251 . S
O24 Mg17 2.079 1_655 S
O24 C26 1.273 . S
C25 O21 1.246 . S
C25 O22 1.259 . S
C26 O23 1.252 1_545 S
C26 O24 1.273 . S
O27 Mg14 2.010 1_565 S
O27 C19 1.249 . S
Mg28 O29 2.037 . S
Mg28 O35 1.999 1_455 S
Mg28 O37 2.102 1_545 S
Mg28 O38 2.254 1_445 S
Mg28 O41 2.002 1_545 S
O29 Mg28 2.037 . S
O29 C32 1.250 . S
O30 Mg31 2.028 1_455 S
O30 C32 1.248 . S
Mg31 O30 2.028 1_655 S
Mg31 O36 2.032 . S
Mg31 O38 2.079 1_545 S
C32 O29 1.250 . S
C32 O30 1.248 . S
C33 O34 1.264 . S
C33 O41 1.249 . S
O34 C33 1.264 . S
O35 Mg28 1.999 1_655 S
O35 C39 1.246 . S
O36 Mg31 2.032 . S
O36 C39 1.259 . S
O37 Mg28 2.102 1_565 S
O37 C40 1.252 1_455 S
O38 Mg28 2.254 1_665 S
O38 Mg31 2.079 1_565 S
O38 C40 1.273 . S
C39 O35 1.246 . S
C39 O36 1.259 . S
C40 O37 1.252 1_655 S
C40 O38 1.273 . S
O41 Mg28 2.002 1_565 S
O41 C33 1.249 . S
H42 C61 0.949 . S
H43 C62 0.950 . S
H44 C64 0.950 . S
H45 C65 0.950 . S
H46 C67 0.950 . S
H47 C70 0.950 . S
H48 C71 0.950 . S
H49 C73 0.951 . S
H50 C74 0.949 . S
H51 C76 0.949 . S
H52 C77 0.950 . S
H53 C79 0.950 . S
H54 C80 0.950 . S
H55 C82 0.950 . S
H56 C85 0.950 1_655 S
H57 C86 0.950 1_655 S
H58 C88 0.951 . S
H59 C89 0.949 . S
C60 C61 1.376 . S
C60 C65 1.386 1_455 S
C60 C66 1.483 . S
C61 H42 0.949 . S
C61 C60 1.376 . S
C61 C62 1.397 . S
C62 H43 0.950 . S
C62 C61 1.397 . S
C62 C63 1.391 . S
C63 C62 1.391 . S
C63 C64 1.405 1_455 S
C64 H44 0.950 . S
C64 C63 1.405 1_655 S
C64 C65 1.367 . S
C65 H45 0.950 . S
C65 C60 1.386 1_655 S
C65 C64 1.367 . S
C66 C60 1.483 . S
C66 C67 1.382 . S
C66 C68 1.403 . S
C67 H46 0.950 . S
C67 C66 1.382 . S
C67 C83 1.411 . S
C68 C66 1.403 . S
C68 C69 1.489 . S
C68 C82 1.411 . S
C69 C68 1.489 . S
C69 C70 1.383 . S
C69 C74 1.382 1_455 S
C70 H47 0.950 . S
C70 C69 1.383 . S
C70 C71 1.395 . S
C71 H48 0.950 . S
C71 C70 1.395 . S
C71 C72 1.288 . S
C72 C71 1.288 . S
C72 C73 1.392 1_455 S
C73 H49 0.951 . S
C73 C72 1.392 1_655 S
C73 C74 1.392 . S
C74 H50 0.949 . S
C74 C69 1.382 1_655 S
C74 C73 1.392 . S
C75 C76 1.376 1_455 S
C75 C80 1.386 . S
C75 C81 1.483 . S
C76 H51 0.949 . S
C76 C75 1.376 1_655 S
C76 C77 1.397 . S
C77 H52 0.950 . S
C77 C76 1.397 . S
C77 C78 1.391 1_655 S
C78 C77 1.391 1_455 S
C78 C79 1.405 . S
C79 H53 0.950 . S
C79 C78 1.405 . S
C79 C80 1.367 . S
C80 H54 0.950 . S
C80 C75 1.386 . S
C80 C79 1.367 . S
C81 C75 1.483 . S
C81 C82 1.382 . S
C81 C83 1.403 . S
C82 H55 0.950 . S
C82 C68 1.411 . S
C82 C81 1.382 . S
C83 C67 1.411 . S
C83 C81 1.403 . S
C83 C84 1.489 . S
C84 C83 1.489 . S
C84 C85 1.383 . S
C84 C89 1.382 . S
C85 H56 0.950 1_455 S
C85 C84 1.383 . S
C85 C86 1.395 . S
C86 H57 0.950 1_455 S
C86 C85 1.395 . S
C86 C87 1.288 . S
C87 C86 1.288 . S
C87 C88 1.392 . S
C88 H58 0.951 . S
C88 C87 1.392 . S
C88 C89 1.392 . S
C89 H59 0.949 . S
C89 C84 1.382 . S
C89 C88 1.392 . S
H90 C109 0.949 . S
H91 C110 0.950 . S
H92 C112 0.950 1_565 S
H93 C113 0.950 1_565 S
H94 C115 0.950 . S
H95 C118 0.950 . S
H96 C119 0.950 . S
H97 C121 0.951 1_565 S
H98 C122 0.949 1_565 S
H99 C124 0.949 1_565 S
H100 C125 0.950 1_565 S
H101 C127 0.950 . S
H102 C128 0.950 . S
H103 C130 0.950 . S
H104 C133 0.950 . S
H105 C134 0.950 . S
H106 C136 0.951 . S
H107 C137 0.949 . S
C108 C109 1.376 . S
C108 C113 1.386 . S
C108 C114 1.483 . S
C109 H90 0.949 . S
C109 C108 1.376 . S
C109 C110 1.397 . S
C110 H91 0.950 . S
C110 C109 1.397 . S
C110 C111 1.391 . S
C111 C110 1.391 . S
C111 C112 1.405 . S
C112 H92 0.950 1_545 S
C112 C111 1.405 . S
C112 C113 1.367 . S
C113 H93 0.950 1_545 S
C113 C108 1.386 . S
C113 C112 1.367 . S
C114 C108 1.483 . S
C114 C115 1.382 . S
C114 C116 1.403 . S
C115 H94 0.950 . S
C115 C114 1.382 . S
C115 C131 1.411 . S
C116 C114 1.403 . S
C116 C117 1.489 . S
C116 C130 1.411 . S
C117 C116 1.489 . S
C117 C118 1.383 . S
C117 C122 1.382 . S
C118 H95 0.950 . S
C118 C117 1.383 . S
C118 C119 1.395 . S
C119 H96 0.950 . S
C119 C118 1.395 . S
C119 C120 1.288 . S
C120 C119 1.288 . S
C120 C121 1.392 . S
C121 H97 0.951 1_545 S
C121 C120 1.392 . S
C121 C122 1.392 . S
C122 H98 0.949 1_545 S
C122 C117 1.382 . S
C122 C121 1.392 . S
C123 C124 1.376 . S
C123 C128 1.386 . S
C123 C129 1.483 . S
C124 H99 0.949 1_545 S
C124 C123 1.376 . S
C124 C125 1.397 . S
C125 H100 0.950 1_545 S
C125 C124 1.397 . S
C125 C126 1.391 . S
C126 C125 1.391 . S
C126 C127 1.405 . S
C127 H101 0.950 . S
C127 C126 1.405 . S
C127 C128 1.367 . S
C128 H102 0.950 . S
C128 C123 1.386 . S
C128 C127 1.367 . S
C129 C123 1.483 . S
C129 C130 1.382 . S
C129 C131 1.403 . S
C130 H103 0.950 . S
C130 C116 1.411 . S
C130 C129 1.382 . S
C131 C115 1.411 . S
C131 C129 1.403 . S
C131 C132 1.489 . S
C132 C131 1.489 . S
C132 C133 1.383 . S
C132 C137 1.382 . S
C133 H104 0.950 . S
C133 C132 1.383 . S
C133 C134 1.395 . S
C134 H105 0.950 . S
C134 C133 1.395 . S
C134 C135 1.288 . S
C135 C134 1.288 . S
C135 C136 1.392 . S
C136 H106 0.951 . S
C136 C135 1.392 . S
C136 C137 1.392 . S
C137 H107 0.949 . S
C137 C132 1.382 . S
C137 C136 1.392 . S
H138 C157 0.949 . S
H139 C158 0.950 . S
H140 C160 0.950 . S
H141 C161 0.950 . S
H142 C163 0.950 . S
H143 C166 0.950 . S
H144 C167 0.950 . S
H145 C169 0.951 . S
H146 C170 0.949 . S
H147 C172 0.949 . S
H148 C173 0.950 . S
H149 C175 0.950 . S
H150 C176 0.950 . S
H151 C178 0.950 . S
H152 C181 0.950 . S
H153 C182 0.950 . S
H154 C184 0.951 . S
H155 C185 0.949 . S
C156 C157 1.376 . S
C156 C161 1.386 . S
C156 C162 1.483 . S
C157 H138 0.949 . S
C157 C156 1.376 . S
C157 C158 1.397 . S
C158 H139 0.950 . S
C158 C157 1.397 . S
C158 C159 1.391 . S
C159 C158 1.391 . S
C159 C160 1.405 . S
C160 H140 0.950 . S
C160 C159 1.405 . S
C160 C161 1.367 . S
C161 H141 0.950 . S
C161 C156 1.386 . S
C161 C160 1.367 . S
C162 C156 1.483 . S
C162 C163 1.382 . S
C162 C164 1.403 . S
C163 H142 0.950 . S
C163 C162 1.382 . S
C163 C179 1.411 . S
C164 C162 1.403 . S
C164 C165 1.489 . S
C164 C178 1.411 . S
C165 C164 1.489 . S
C165 C166 1.383 . S
C165 C170 1.382 . S
C166 H143 0.950 . S
C166 C165 1.383 . S
C166 C167 1.395 . S
C167 H144 0.950 . S
C167 C166 1.395 . S
C167 C168 1.288 . S
C168 C167 1.288 . S
C168 C169 1.392 . S
C169 H145 0.951 . S
C169 C168 1.392 . S
C169 C170 1.392 . S
C170 H146 0.949 . S
C170 C165 1.382 . S
C170 C169 1.392 . S
C171 C172 1.376 . S
C171 C176 1.386 . S
C171 C177 1.483 . S
C172 H147 0.949 . S
C172 C171 1.376 . S
C172 C173 1.397 . S
C173 H148 0.950 . S
C173 C172 1.397 . S
C173 C174 1.391 . S
C174 C173 1.391 . S
C174 C175 1.405 . S
C175 H149 0.950 . S
C175 C174 1.405 . S
C175 C176 1.367 . S
C176 H150 0.950 . S
C176 C171 1.386 . S
C176 C175 1.367 . S
C177 C171 1.483 . S
C177 C178 1.382 . S
C177 C179 1.403 . S
C178 H151 0.950 . S
C178 C164 1.411 . S
C178 C177 1.382 . S
C179 C163 1.411 . S
C179 C177 1.403 . S
C179 C180 1.489 . S
C180 C179 1.489 . S
C180 C181 1.383 . S
C180 C185 1.382 . S
C181 H152 0.950 . S
C181 C180 1.383 . S
C181 C182 1.395 . S
C182 H153 0.950 . S
C182 C181 1.395 . S
C182 C183 1.288 . S
C183 C182 1.288 . S
C183 C184 1.392 . S
C184 H154 0.951 . S
C184 C183 1.392 . S
C184 C185 1.392 . S
C185 H155 0.949 . S
C185 C180 1.382 . S
C185 C184 1.392 . S
C186 C187 1.386 . S
C186 C188 1.383 . S
C186 H202 0.950 1_455 S
C187 C186 1.386 . S
C187 C191 1.383 . S
C188 C186 1.383 . S
C188 C189 1.402 . S
C188 H203 0.938 1_455 S
C189 C188 1.402 . S
C189 C190 1.375 . S
C189 C192 1.481 . S
C190 C189 1.375 . S
C190 C191 1.367 . S
C190 H204 0.951 . S
C191 C187 1.383 . S
C191 C190 1.367 . S
C191 H205 0.950 . S
C192 C189 1.481 . S
C192 C193 1.297 . S
C192 H206 0.950 . S
C193 C192 1.297 . S
C193 C194 1.479 . S
C193 H207 0.950 1_455 S
C194 C193 1.479 . S
C194 C195 1.375 . S
C194 C200 1.404 . S
C195 C194 1.375 . S
C195 C196 1.369 . S
C195 H208 0.950 1_455 S
C196 C195 1.369 . S
C196 C197 1.392 . S
C196 H209 0.951 . S
C197 C196 1.392 . S
C197 C199 1.384 . S
H198 C200 0.949 . S
C199 C197 1.384 . S
C199 C200 1.385 . S
C199 H201 0.950 . S
C200 C194 1.404 . S
C200 H198 0.949 . S
C200 C199 1.385 . S
H201 C199 0.950 . S
H202 C186 0.950 1_655 S
H203 C188 0.938 1_655 S
H204 C190 0.951 . S
H205 C191 0.950 . S
H206 C192 0.950 . S
H207 C193 0.950 1_655 S
H208 C195 0.950 1_655 S
H209 C196 0.951 . S
C210 C211 1.386 . S
C210 C212 1.383 . S
C210 H226 0.951 . S
C211 C210 1.386 . S
C211 C215 1.383 1_545 S
C212 C210 1.383 . S
C212 C213 1.402 . S
C212 H227 0.951 . S
C213 C212 1.402 . S
C213 C214 1.375 1_545 S
C213 C216 1.472 . S
C214 C213 1.375 1_565 S
C214 C215 1.367 . S
C214 H228 0.951 . S
C215 C211 1.383 1_565 S
C215 C214 1.367 . S
C215 H229 0.950 . S
C216 C213 1.472 . S
C216 C217 1.320 . S
C216 H230 0.935 1_545 S
C217 C216 1.320 . S
C217 C218 1.479 . S
C217 H231 0.950 . S
C218 C217 1.479 . S
C218 C219 1.375 . S
C218 C224 1.404 1_545 S
C219 C218 1.375 . S
C219 C220 1.369 . S
C219 H232 0.950 . S
C220 C219 1.369 . S
C220 C221 1.392 . S
C220 H233 0.951 . S
C221 C220 1.392 . S
C221 C223 1.384 . S
H222 C224 0.949 . S
C223 C221 1.384 . S
C223 C224 1.385 1_545 S
C223 H225 0.950 1_545 S
C224 C218 1.404 1_565 S
C224 H222 0.949 . S
C224 C223 1.385 1_565 S
H225 C223 0.950 1_565 S
H226 C210 0.951 . S
H227 C212 0.951 . S
H228 C214 0.951 . S
H229 C215 0.950 . S
H230 C216 0.935 1_565 S
H231 C217 0.950 . S
H232 C219 0.950 . S
H233 C220 0.951 . S
C234 C235 1.386 . S
C234 C236 1.383 . S
C234 H250 0.951 . S
C235 C234 1.386 . S
C235 C239 1.383 . S
C236 C234 1.383 . S
C236 C237 1.402 . S
C236 H251 0.951 . S
C237 C236 1.402 . S
C237 C238 1.375 . S
C237 C240 1.481 . S
C238 C237 1.375 . S
C238 C239 1.367 . S
C238 H252 0.951 . S
C239 C235 1.383 . S
C239 C238 1.367 . S
C239 H253 0.950 . S
C240 C237 1.481 . S
C240 C241 1.297 . S
C240 H254 0.950 . S
C241 C240 1.297 . S
C241 C242 1.479 . S
C241 H255 0.950 . S
C242 C241 1.479 . S
C242 C243 1.375 . S
C242 C248 1.404 . S
C243 C242 1.375 . S
C243 C244 1.369 . S
C243 H256 0.950 . S
C244 C243 1.369 . S
C244 C245 1.392 . S
C244 H257 0.951 . S
C245 C244 1.392 . S
C245 C247 1.384 . S
H246 C248 0.949 . S
C247 C245 1.384 . S
C247 C248 1.385 . S
C247 H249 0.950 . S
C248 C242 1.404 . S
C248 H246 0.949 . S
C248 C247 1.385 . S
H249 C247 0.950 . S
H250 C234 0.951 . S
H251 C236 0.951 . S
H252 C238 0.951 . S
H253 C239 0.950 . S
H254 C240 0.950 . S
H255 C241 0.950 . S
H256 C243 0.950 . S
H257 C244 0.951 . S
C258 C259 1.386 . S
C258 C260 1.383 . S
C258 H274 0.951 . S
C259 C258 1.386 . S
C259 C263 1.383 . S
C260 C258 1.383 . S
C260 C261 1.402 . S
C260 H275 0.951 . S
C261 C260 1.402 . S
C261 C262 1.375 . S
C261 C264 1.481 . S
C262 C261 1.375 . S
C262 C263 1.367 . S
C262 H276 0.951 . S
C263 C259 1.383 . S
C263 C262 1.367 . S
C263 H277 0.950 . S
C264 C261 1.481 . S
C264 C265 1.297 . S
C264 H278 0.950 . S
C265 C264 1.297 . S
C265 C266 1.479 . S
C265 H279 0.950 . S
C266 C265 1.479 . S
C266 C267 1.375 1_455 S
C266 C272 1.404 . S
C267 C266 1.375 1_655 S
C267 C268 1.369 . S
C267 H280 0.950 . S
C268 C267 1.369 . S
C268 C269 1.392 1_655 S
C268 H281 0.951 . S
C269 C268 1.392 1_455 S
C269 C271 1.384 . S
H270 C272 0.949 . S
C271 C269 1.384 . S
C271 C272 1.385 . S
C271 H273 0.950 . S
C272 C266 1.404 . S
C272 H270 0.949 . S
C272 C271 1.385 . S
H273 C271 0.950 . S
H274 C258 0.951 . S
H275 C260 0.951 . S
H276 C262 0.951 . S
H277 C263 0.950 . S
H278 C264 0.950 . S
H279 C265 0.950 . S
H280 C267 0.950 . S
H281 C268 0.951 . S
C282 C283 1.386 . S
C282 C284 1.383 . S
C282 H298 0.951 1_545 S
C283 C282 1.386 . S
C283 C287 1.383 . S
C284 C282 1.383 . S
C284 C285 1.402 . S
C284 H299 0.951 . S
C285 C284 1.402 . S
C285 C286 1.375 . S
C285 C288 1.481 . S
C286 C285 1.375 . S
C286 C287 1.367 . S
C286 H300 0.951 . S
C287 C283 1.383 . S
C287 C286 1.367 . S
C287 H301 0.950 . S
C288 C285 1.481 . S
C288 C289 1.297 . S
C288 H302 0.950 . S
C289 C288 1.297 . S
C289 C290 1.479 . S
C289 H303 0.950 . S
C290 C289 1.479 . S
C290 C291 1.375 . S
C290 C296 1.404 . S
C291 C290 1.375 . S
C291 C292 1.369 . S
C291 H304 0.950 1_545 S
C292 C291 1.369 . S
C292 C293 1.392 . S
C292 H305 0.951 1_545 S
C293 C292 1.392 . S
C293 C295 1.384 . S
H294 C296 0.949 . S
C295 C293 1.384 . S
C295 C296 1.385 . S
C295 H297 0.950 . S
C296 C290 1.404 . S
C296 H294 0.949 . S
C296 C295 1.385 . S
H297 C295 0.950 . S
H298 C282 0.951 1_565 S
H299 C284 0.951 . S
H300 C286 0.951 . S
H301 C287 0.950 . S
H302 C288 0.950 . S
H303 C289 0.950 . S
H304 C291 0.950 1_565 S
H305 C292 0.951 1_565 S
C306 C307 1.386 . S
C306 C308 1.383 . S
C306 H322 0.951 . S
C307 C306 1.386 . S
C307 C311 1.383 . S
C308 C306 1.383 . S
C308 C309 1.402 . S
C308 H323 0.951 . S
C309 C308 1.402 . S
C309 C310 1.375 . S
C309 C312 1.481 . S
C310 C309 1.375 . S
C310 C311 1.367 . S
C310 H324 0.951 . S
C311 C307 1.383 . S
C311 C310 1.367 . S
C311 H325 0.950 . S
C312 C309 1.481 . S
C312 C313 1.297 . S
C312 H326 0.950 . S
C313 C312 1.297 . S
C313 C314 1.479 . S
C313 H327 0.950 . S
C314 C313 1.479 . S
C314 C315 1.375 . S
C314 C320 1.404 . S
C315 C314 1.375 . S
C315 C316 1.369 . S
C315 H328 0.950 . S
C316 C315 1.369 . S
C316 C317 1.392 . S
C316 H329 0.951 . S
C317 C316 1.392 . S
C317 C319 1.384 . S
H318 C320 0.949 . S
C319 C317 1.384 . S
C319 C320 1.385 . S
C319 H321 0.950 . S
C320 C314 1.404 . S
C320 H318 0.949 . S
C320 C319 1.385 . S
H321 C319 0.950 . S
H322 C306 0.951 . S
H323 C308 0.951 . S
H324 C310 0.951 . S
H325 C311 0.950 . S
H326 C312 0.950 . S
H327 C313 0.950 . S
H328 C315 0.950 . S
H329 C316 0.951 . S
C330 C331 1.386 . S
C330 C332 1.383 . S
C330 H346 0.951 . S
C331 C330 1.386 . S
C331 C335 1.383 . S
C332 C330 1.383 . S
C332 C333 1.402 . S
C332 H347 0.951 . S
C333 C332 1.402 . S
C333 C334 1.375 . S
C333 C336 1.481 . S
C334 C333 1.375 . S
C334 C335 1.367 . S
C334 H348 0.951 1_545 S
C335 C331 1.383 . S
C335 C334 1.367 . S
C335 H349 0.950 . S
C336 C333 1.481 . S
C336 C337 1.297 . S
C336 H350 0.950 . S
C337 C336 1.297 . S
C337 C338 1.479 . S
C337 H351 0.950 . S
C338 C337 1.479 . S
C338 C339 1.375 . S
C338 C344 1.404 . S
C339 C338 1.375 . S
C339 C340 1.369 . S
C339 H352 0.950 . S
C340 C339 1.369 . S
C340 C341 1.392 . S
C340 H353 0.951 . S
C341 C340 1.392 . S
C341 C343 1.384 . S
H342 C344 0.949 1_565 S
C343 C341 1.384 . S
C343 C344 1.385 . S
C343 H345 0.950 1_545 S
C344 C338 1.404 . S
C344 H342 0.949 1_545 S
C344 C343 1.385 . S
H345 C343 0.950 1_565 S
H346 C330 0.951 . S
H347 C332 0.951 . S
H348 C334 0.951 1_565 S
H349 C335 0.950 . S
H350 C336 0.950 . S
H351 C337 0.950 . S
H352 C339 0.950 . S
H353 C340 0.951 . S
C354 C355 1.386 1_556 S
C354 C356 1.383 . S
C354 H370 0.951 1_556 S
C355 C354 1.386 1_554 S
C355 C359 1.383 . S
C356 C354 1.383 . S
C356 C357 1.402 . S
C356 H371 0.951 . S
C357 C356 1.402 . S
C357 C358 1.375 . S
C357 C360 1.481 . S
C358 C357 1.375 . S
C358 C359 1.367 1_556 S
C358 H372 0.951 . S
C359 C355 1.383 . S
C359 C358 1.367 1_554 S
C359 H373 0.950 . S
C360 C357 1.481 . S
C360 C361 1.297 . S
C360 H374 0.950 . S
C361 C360 1.297 . S
C361 C362 1.479 . S
C361 H375 0.950 . S
C362 C361 1.479 . S
C362 C363 1.375 . S
C362 C368 1.404 . S
C363 C362 1.375 . S
C363 C364 1.369 . S
C363 H376 0.950 . S
C364 C363 1.369 . S
C364 C365 1.392 . S
C364 H377 0.951 . S
C365 C364 1.392 . S
C365 C367 1.384 . S
H366 C368 0.949 . S
C367 C365 1.384 . S
C367 C368 1.385 . S
C367 H369 0.950 . S
C368 C362 1.404 . S
C368 H366 0.949 . S
C368 C367 1.385 . S
H369 C367 0.950 . S
H370 C354 0.951 1_554 S
H371 C356 0.951 . S
H372 C358 0.951 . S
H373 C359 0.950 . S
H374 C360 0.950 . S
H375 C361 0.950 . S
H376 C363 0.950 . S
H377 C364 0.951 . S
C378 C379 1.386 . S
C378 C380 1.383 . S
C378 H394 0.951 . S
C379 C378 1.386 . S
C379 C383 1.383 . S
C380 C378 1.383 . S
C380 C381 1.402 . S
C380 H395 0.951 . S
C381 C380 1.402 . S
C381 C382 1.375 . S
C381 C384 1.481 . S
C382 C381 1.375 . S
C382 C383 1.367 . S
C382 H396 0.951 . S
C383 C379 1.383 . S
C383 C382 1.367 . S
C383 H397 0.950 . S
C384 C381 1.481 . S
C384 C385 1.297 . S
C384 H398 0.950 . S
C385 C384 1.297 . S
C385 C386 1.479 . S
C385 H399 0.950 . S
C386 C385 1.479 . S
C386 C387 1.375 . S
C386 C392 1.404 . S
C387 C386 1.375 . S
C387 C388 1.369 1_655 S
C387 H400 0.950 . S
C388 C387 1.369 1_455 S
C388 C389 1.392 . S
C388 H401 0.951 . S
C389 C388 1.392 . S
C389 C391 1.384 . S
H390 C392 0.949 . S
C391 C389 1.384 . S
C391 C392 1.385 1_455 S
C391 H393 0.950 . S
C392 C386 1.404 . S
C392 H390 0.949 . S
C392 C391 1.385 1_655 S
H393 C391 0.950 . S
H394 C378 0.951 . S
H395 C380 0.951 . S
H396 C382 0.951 . S
H397 C383 0.950 . S
H398 C384 0.950 . S
H399 C385 0.950 . S
H400 C387 0.950 . S
H401 C388 0.951 . S
C402 C403 1.386 . S
C402 C404 1.383 . S
C402 H418 0.951 . S
C403 C402 1.386 . S
C403 C407 1.383 1_545 S
C404 C402 1.383 . S
C404 C405 1.402 . S
C404 H419 0.951 . S
C405 C404 1.402 . S
C405 C406 1.375 1_545 S
C405 C408 1.481 . S
C406 C405 1.375 1_565 S
C406 C407 1.367 . S
C406 H420 0.951 . S
C407 C403 1.383 1_565 S
C407 C406 1.367 . S
C407 H421 0.950 . S
C408 C405 1.481 . S
C408 C409 1.297 . S
C408 H422 0.950 1_545 S
C409 C408 1.297 . S
C409 C410 1.479 . S
C409 H423 0.950 . S
C410 C409 1.479 . S
C410 C411 1.375 . S
C410 C416 1.404 . S
C411 C410 1.375 . S
C411 C412 1.369 . S
C411 H424 0.950 . S
C412 C411 1.369 . S
C412 C413 1.392 . S
C412 H425 0.951 . S
C413 C412 1.392 . S
C413 C415 1.384 . S
H414 C416 0.949 1_565 S
C415 C413 1.384 . S
C415 C416 1.385 . S
C415 H417 0.950 1_545 S
C416 C410 1.404 . S
C416 H414 0.949 1_545 S
C416 C415 1.385 . S
H417 C415 0.950 1_565 S
H418 C402 0.951 . S
H419 C404 0.951 . S
H420 C406 0.951 . S
H421 C407 0.950 . S
H422 C408 0.950 1_565 S
H423 C409 0.950 . S
H424 C411 0.950 . S
H425 C412 0.951 . S
C426 C427 1.386 . S
C426 C428 1.383 1_554 S
C426 H442 0.951 . S
C427 C426 1.386 . S
C427 C431 1.383 1_554 S
C428 C426 1.383 1_556 S
C428 C429 1.402 . S
C428 H443 0.951 . S
C429 C428 1.402 . S
C429 C430 1.375 . S
C429 C432 1.481 . S
C430 C429 1.375 . S
C430 C431 1.367 . S
C430 H444 0.951 . S
C431 C427 1.383 1_556 S
C431 C430 1.367 . S
C431 H445 0.950 . S
C432 C429 1.481 . S
C432 C433 1.297 . S
C432 H446 0.950 . S
C433 C432 1.297 . S
C433 C434 1.479 . S
C433 H447 0.950 . S
C434 C433 1.479 . S
C434 C435 1.375 . S
C434 C440 1.404 . S
C435 C434 1.375 . S
C435 C436 1.369 . S
C435 H448 0.950 . S
C436 C435 1.369 . S
C436 C437 1.392 . S
C436 H449 0.951 . S
C437 C436 1.392 . S
C437 C439 1.384 . S
H438 C440 0.949 . S
C439 C437 1.384 . S
C439 C440 1.385 . S
C439 H441 0.950 . S
C440 C434 1.404 . S
C440 H438 0.949 . S
C440 C439 1.385 . S
H441 C439 0.950 . S
H442 C426 0.951 . S
H443 C428 0.951 . S
H444 C430 0.951 . S
H445 C431 0.950 . S
H446 C432 0.950 . S
H447 C433 0.950 . S
H448 C435 0.950 . S
H449 C436 0.951 . S
C450 C451 1.386 . S
C450 C452 1.383 . S
C450 H466 0.951 . S
C451 C450 1.386 . S
C451 C455 1.383 . S
C452 C450 1.383 . S
C452 C453 1.402 . S
C452 H467 0.951 . S
C453 C452 1.402 . S
C453 C454 1.373 1_455 S
C453 C456 1.481 . S
C454 C453 1.373 1_655 S
C454 C455 1.356 1_655 S
C454 H468 0.966 . S
C455 C451 1.383 . S
C455 C454 1.356 1_455 S
C455 H469 0.950 1_455 S
C456 C453 1.481 . S
C456 C457 1.297 . S
C456 H470 0.950 1_455 S
C457 C456 1.297 . S
C457 C458 1.479 . S
C457 H471 0.950 . S
C458 C457 1.479 . S
C458 C459 1.375 . S
C458 C464 1.404 . S
C459 C458 1.375 . S
C459 C460 1.369 . S
C459 H472 0.950 . S
C460 C459 1.369 . S
C460 C461 1.392 . S
C460 H473 0.951 . S
C461 C460 1.392 . S
C461 C463 1.384 . S
H462 C464 0.949 1_655 S
C463 C461 1.384 . S
C463 C464 1.385 . S
C463 H465 0.950 1_455 S
C464 C458 1.404 . S
C464 H462 0.949 1_455 S
C464 C463 1.385 . S
H465 C463 0.950 1_655 S
H466 C450 0.951 . S
H467 C452 0.951 . S
H468 C454 0.966 . S
H469 C455 0.950 1_655 S
H470 C456 0.950 1_655 S
H471 C457 0.950 . S
H472 C459 0.950 . S
H473 C460 0.951 . S
C197 C63 1.364 . S
C187 C11 1.371 . S
C211 C26 1.546 . S
C221 C111 1.540 . S
C235 C40 1.396 . S
C245 C183 1.425 . S
C259 C5 1.222 . S
C269 C87 1.359 . S
C293 C135 1.507 . S
C283 C18 1.511 . S
C307 C32 1.376 . S
C317 C159 1.395 . S
C341 C120 1.233 . S
C331 C39 1.222 . S
C355 C4 1.376 1_565 S
C365 C174 1.399 . S
C389 C78 1.359 . S
C379 C19 1.178 . S
C413 C126 1.261 . S
C403 C33 1.091 1_545 S
C437 C168 1.419 . S
C427 C12 1.431 . S
C451 C25 1.374 . S
C461 C72 1.383 . S
