# Generated by pormake.
# Topology pyr, (3,6)-cn, num edge types: 1
# Building blocks:
#     Node 0, Type 0, BuildingBlock: MIDCAF_clean_linker_0, # of connection points: 3
#     Node 1, Type 0, BuildingBlock: MIDCAF_clean_linker_0, # of connection points: 3
#     Node 2, Type 0, BuildingBlock: MIDCAF_clean_linker_0, # of connection points: 3
#     Node 3, Type 0, BuildingBlock: MIDCAF_clean_linker_0, # of connection points: 3
#     Node 4, Type 0, BuildingBlock: MIDCAF_clean_linker_0, # of connection points: 3
#     Node 5, Type 0, BuildingBlock: MIDCAF_clean_linker_0, # of connection points: 3
#     Node 6, Type 0, BuildingBlock: MIDCAF_clean_linker_0, # of connection points: 3
#     Node 7, Type 0, BuildingBlock: MIDCAF_clean_linker_0, # of connection points: 3
#     Node 8, Type 1, BuildingBlock: MIFKUJ_clean_sbu_0, # of connection points: 6
#     Node 9, Type 1, BuildingBlock: MIFKUJ_clean_sbu_0, # of connection points: 6
#     Node 10, Type 1, BuildingBlock: MIFKUJ_clean_sbu_0, # of connection points: 6
#     Node 11, Type 1, BuildingBlock: MIFKUJ_clean_sbu_0, # of connection points: 6
#     Edge 12, Type (0, 1), BuildingBlock: KIFKEQ_clean_linker_1, # of connection points: 2
#     Edge 13, Type (0, 1), BuildingBlock: KIFKEQ_clean_linker_1, # of connection points: 2
#     Edge 14, Type (0, 1), BuildingBlock: KIFKEQ_clean_linker_1, # of connection points: 2
#     Edge 15, Type (0, 1), BuildingBlock: KIFKEQ_clean_linker_1, # of connection points: 2
#     Edge 16, Type (0, 1), BuildingBlock: KIFKEQ_clean_linker_1, # of connection points: 2
#     Edge 17, Type (0, 1), BuildingBlock: KIFKEQ_clean_linker_1, # of connection points: 2
#     Edge 18, Type (0, 1), BuildingBlock: KIFKEQ_clean_linker_1, # of connection points: 2
#     Edge 19, Type (0, 1), BuildingBlock: KIFKEQ_clean_linker_1, # of connection points: 2
#     Edge 20, Type (0, 1), BuildingBlock: KIFKEQ_clean_linker_1, # of connection points: 2
#     Edge 21, Type (0, 1), BuildingBlock: KIFKEQ_clean_linker_1, # of connection points: 2
#     Edge 22, Type (0, 1), BuildingBlock: KIFKEQ_clean_linker_1, # of connection points: 2
#     Edge 23, Type (0, 1), BuildingBlock: KIFKEQ_clean_linker_1, # of connection points: 2
#     Edge 24, Type (0, 1), BuildingBlock: KIFKEQ_clean_linker_1, # of connection points: 2
#     Edge 25, Type (0, 1), BuildingBlock: KIFKEQ_clean_linker_1, # of connection points: 2
#     Edge 26, Type (0, 1), BuildingBlock: KIFKEQ_clean_linker_1, # of connection points: 2
#     Edge 27, Type (0, 1), BuildingBlock: KIFKEQ_clean_linker_1, # of connection points: 2
#     Edge 28, Type (0, 1), BuildingBlock: KIFKEQ_clean_linker_1, # of connection points: 2
#     Edge 29, Type (0, 1), BuildingBlock: KIFKEQ_clean_linker_1, # of connection points: 2
#     Edge 30, Type (0, 1), BuildingBlock: KIFKEQ_clean_linker_1, # of connection points: 2
#     Edge 31, Type (0, 1), BuildingBlock: KIFKEQ_clean_linker_1, # of connection points: 2
#     Edge 32, Type (0, 1), BuildingBlock: KIFKEQ_clean_linker_1, # of connection points: 2
#     Edge 33, Type (0, 1), BuildingBlock: KIFKEQ_clean_linker_1, # of connection points: 2
#     Edge 34, Type (0, 1), BuildingBlock: KIFKEQ_clean_linker_1, # of connection points: 2
#     Edge 35, Type (0, 1), BuildingBlock: KIFKEQ_clean_linker_1, # of connection points: 2
# Relax obj value: 0.027
# Max RMSD: 0.080
# Mean RMSD: 0.047
data_MOF--net-pyr--node1-MIFKUJ_clean_sbu_0--node2-MIDCAF_clean_linker_0--edge1-KIFKEQ_clean_linker_1
_symmetry_space_group_name_H-M    P1
_symmetry_Int_Tables_number       1
_symmetry_cell_setting            triclinic
loop_
_symmetry_equiv_pos_as_xyz
'x, y, z'
_cell_length_a     48.750775
_cell_length_b     43.898961
_cell_length_c     47.274957
_cell_angle_alpha  86.712214
_cell_angle_beta   88.076422
_cell_angle_gamma 95.593623
loop_
_atom_site_label
_atom_site_type_symbol
_atom_site_fract_x
_atom_site_fract_y
_atom_site_fract_z
_atom_type_partial_charge
C0 C 0.15153 0.15265 0.29963 0.0
C1 C 0.15573 0.12205 0.30689 0.0
C2 C 0.17437 0.10745 0.29034 0.0
C3 C 0.18826 0.12307 0.26668 0.0
H4 H 0.24489 0.11409 0.20091 0.0
H5 H 0.28262 0.09286 0.17593 0.0
H6 H 0.30614 0.18104 0.13224 0.0
H7 H 0.26815 0.20239 0.15691 0.0
H8 H 0.21415 0.24204 0.14707 0.0
H9 H 0.19064 0.28161 0.12256 0.0
H10 H 0.12717 0.27259 0.18934 0.0
H11 H 0.15086 0.23349 0.21425 0.0
H12 H 0.16107 0.19158 0.2705 0.0
H13 H 0.13709 0.16434 0.31193 0.0
H14 H 0.1781 0.08391 0.29565 0.0
H15 H 0.20223 0.11106 0.25411 0.0
N16 N 0.21852 0.15833 0.21973 0.0
N17 N 0.21948 0.19756 0.18377 0.0
N18 N 0.18616 0.19439 0.22096 0.0
C19 C 0.23018 0.17248 0.19533 0.0
C20 C 0.19738 0.2086 0.19642 0.0
C21 C 0.19665 0.16935 0.2328 0.0
C22 C 0.25353 0.15992 0.18085 0.0
C23 C 0.25814 0.12902 0.18606 0.0
C24 C 0.27959 0.11679 0.17167 0.0
C25 C 0.29712 0.13534 0.15217 0.0
C26 C 0.29289 0.16634 0.14727 0.0
C27 C 0.27112 0.17847 0.16129 0.0
C28 C 0.18434 0.23437 0.18258 0.0
C29 C 0.1953 0.24861 0.1567 0.0
C30 C 0.18173 0.27116 0.14252 0.0
C31 C 0.15689 0.27999 0.15387 0.0
C32 C 0.14636 0.26644 0.18014 0.0
C33 C 0.15993 0.24391 0.19435 0.0
C34 C 0.18346 0.15344 0.25891 0.0
C35 C 0.16514 0.16814 0.2758 0.0
C36 C 0.24813 0.89074 0.67235 0.0
C37 C 0.23935 0.88488 0.645 0.0
C38 C 0.25447 0.86656 0.62817 0.0
C39 C 0.27775 0.85414 0.63854 0.0
H40 H 0.32742 0.78574 0.62431 0.0
H41 H 0.34801 0.74637 0.59892 0.0
H42 H 0.41126 0.74377 0.66058 0.0
H43 H 0.39102 0.78342 0.68583 0.0
H44 H 0.37933 0.81322 0.74499 0.0
H45 H 0.40106 0.83018 0.78753 0.0
H46 H 0.36041 0.91339 0.78087 0.0
H47 H 0.33773 0.89576 0.73869 0.0
H48 H 0.27772 0.88351 0.70383 0.0
H49 H 0.23703 0.90503 0.6857 0.0
H50 H 0.24805 0.86142 0.60711 0.0
H51 H 0.28879 0.83999 0.62501 0.0
N52 N 0.32267 0.82454 0.66276 0.0
N53 N 0.35571 0.82112 0.69732 0.0
N54 N 0.32226 0.85571 0.70146 0.0
C55 C 0.34497 0.81175 0.67278 0.0
C56 C 0.34455 0.84308 0.71177 0.0
C57 C 0.31115 0.84648 0.67697 0.0
C58 C 0.35749 0.78782 0.65719 0.0
C59 C 0.34574 0.77686 0.63249 0.0
C60 C 0.35746 0.75416 0.61798 0.0
C61 C 0.38126 0.74193 0.62775 0.0
C62 C 0.39312 0.75298 0.65232 0.0
C63 C 0.38136 0.77561 0.66689 0.0
C64 C 0.35692 0.85321 0.73828 0.0
C65 C 0.37494 0.83512 0.75258 0.0
C66 C 0.38756 0.84496 0.77695 0.0
C67 C 0.38282 0.87338 0.78751 0.0
C68 C 0.36437 0.89126 0.77352 0.0
C69 C 0.35145 0.88121 0.74924 0.0
C70 C 0.28659 0.85997 0.66591 0.0
C71 C 0.27156 0.87854 0.68265 0.0
C72 C 0.62336 0.25586 0.88366 0.0
C73 C 0.60503 0.23654 0.86886 0.0
C74 C 0.6005 0.2442 0.84029 0.0
C75 C 0.61417 0.27074 0.82668 0.0
H76 H 0.60066 0.34535 0.77022 0.0
H77 H 0.58183 0.36747 0.7279 0.0
H78 H 0.66135 0.41649 0.70461 0.0
H79 H 0.6801 0.39506 0.74781 0.0
H80 H 0.72735 0.39438 0.79587 0.0
H81 H 0.77097 0.41452 0.81461 0.0
H82 H 0.74911 0.36399 0.89467 0.0
H83 H 0.70609 0.34312 0.87572 0.0
H84 H 0.65166 0.29643 0.8818 0.0
H85 H 0.6273 0.25027 0.90568 0.0
H86 H 0.58634 0.22968 0.82852 0.0
H87 H 0.61039 0.27596 0.80456 0.0
N88 N 0.63887 0.32975 0.80237 0.0
N89 N 0.6773 0.36653 0.79857 0.0
N90 N 0.6723 0.32955 0.83673 0.0
C91 C 0.6531 0.35452 0.78833 0.0
C92 C 0.68696 0.35414 0.82286 0.0
C93 C 0.64833 0.31714 0.82653 0.0
C94 C 0.64195 0.36829 0.76237 0.0
C95 C 0.61423 0.36079 0.75611 0.0
C96 C 0.60343 0.37338 0.73169 0.0
C97 C 0.62012 0.39353 0.71263 0.0
C98 C 0.64784 0.40127 0.71896 0.0
C99 C 0.65862 0.38887 0.74365 0.0
C100 C 0.71323 0.36707 0.83424 0.0
C101 C 0.73186 0.38759 0.81747 0.0
C102 C 0.75683 0.39924 0.82827 0.0
C103 C 0.76362 0.39083 0.85615 0.0
C104 C 0.74485 0.3705 0.87294 0.0
C105 C 0.72004 0.35867 0.86209 0.0
C106 C 0.63298 0.2898 0.84128 0.0
C107 C 0.63739 0.28213 0.86994 0.0
C108 C 0.74286 0.61686 0.36955 0.0
C109 C 0.72646 0.5957 0.35453 0.0
C110 C 0.73652 0.58771 0.32795 0.0
C111 C 0.76227 0.60064 0.31671 0.0
H112 H 0.82617 0.5868 0.25981 0.0
H113 H 0.84833 0.56547 0.21975 0.0
H114 H 0.91284 0.64055 0.21621 0.0
H115 H 0.89101 0.66162 0.2569 0.0
H116 H 0.89442 0.70649 0.31181 0.0
H117 H 0.91387 0.75176 0.33515 0.0
H118 H 0.83798 0.75141 0.38499 0.0
H119 H 0.81857 0.707 0.36188 0.0
H120 H 0.78038 0.64615 0.37054 0.0
H121 H 0.73616 0.62311 0.39031 0.0
H122 H 0.72433 0.57179 0.31559 0.0
H123 H 0.76928 0.59416 0.29612 0.0
N124 N 0.81822 0.62536 0.29715 0.0
N125 N 0.85511 0.66395 0.29865 0.0
N126 N 0.8178 0.66152 0.33156 0.0
C127 C 0.84306 0.63882 0.28646 0.0
C128 C 0.84247 0.67545 0.32127 0.0
C129 C 0.8055 0.63657 0.31976 0.0
C130 C 0.85673 0.62603 0.26174 0.0
C131 C 0.84508 0.59887 0.25058 0.0
C132 C 0.85773 0.58667 0.22739 0.0
C133 C 0.88237 0.60128 0.21458 0.0
C134 C 0.89407 0.62843 0.22572 0.0
C135 C 0.88144 0.64063 0.24901 0.0
C136 C 0.85488 0.703 0.33485 0.0
C137 C 0.88189 0.71617 0.32768 0.0
C138 C 0.89309 0.74199 0.34114 0.0
C139 C 0.87739 0.75531 0.36178 0.0
C140 C 0.85049 0.74208 0.36887 0.0
C141 C 0.83941 0.71635 0.35566 0.0
C142 C 0.77846 0.62207 0.33166 0.0
C143 C 0.76842 0.62995 0.35823 0.0
C144 C 0.71747 0.85856 0.81895 0.0
C145 C 0.71675 0.86113 0.84852 0.0
C146 C 0.73827 0.85044 0.8642 0.0
C147 C 0.75985 0.83753 0.85075 0.0
H148 H 0.80865 0.76032 0.86025 0.0
H149 H 0.83738 0.72791 0.88736 0.0
H150 H 0.9047 0.752 0.82574 0.0
H151 H 0.87561 0.78323 0.79809 0.0
H152 H 0.84978 0.79374 0.73291 0.0
H153 H 0.87113 0.81457 0.68786 0.0
H154 H 0.82116 0.89051 0.68917 0.0
H155 H 0.79929 0.86939 0.73434 0.0
H156 H 0.73941 0.84461 0.78262 0.0
H157 H 0.70105 0.866 0.80619 0.0
H158 H 0.73888 0.85262 0.88687 0.0
H159 H 0.77619 0.82985 0.86352 0.0
N160 N 0.79985 0.80421 0.82232 0.0
N161 N 0.82911 0.80154 0.7825 0.0
N162 N 0.79143 0.83077 0.77941 0.0
C163 C 0.82227 0.79346 0.81011 0.0
C164 C 0.81382 0.82004 0.76694 0.0
C165 C 0.78431 0.8228 0.80712 0.0
C166 C 0.83977 0.77417 0.82692 0.0
C167 C 0.82959 0.75868 0.85252 0.0
C168 C 0.84617 0.74027 0.86818 0.0
C169 C 0.87342 0.73729 0.85878 0.0
C170 C 0.88368 0.75324 0.83338 0.0
C171 C 0.86699 0.77128 0.81755 0.0
C172 C 0.8232 0.83023 0.73751 0.0
C173 C 0.843 0.81467 0.72349 0.0
C174 C 0.8553 0.82661 0.69767 0.0
C175 C 0.84819 0.85446 0.68529 0.0
C176 C 0.82701 0.86897 0.69822 0.0
C177 C 0.81456 0.85691 0.72413 0.0
C178 C 0.76078 0.83548 0.8212 0.0
C179 C 0.73938 0.84613 0.80541 0.0
C180 C 0.6554 0.1068 0.22449 0.0
C181 C 0.62887 0.11353 0.21699 0.0
C182 C 0.61356 0.12992 0.23553 0.0
C183 C 0.62467 0.13998 0.26056 0.0
H184 H 0.61136 0.19902 0.32099 0.0
H185 H 0.58791 0.23638 0.34619 0.0
H186 H 0.65506 0.24605 0.40338 0.0
H187 H 0.67833 0.20819 0.37862 0.0
H188 H 0.73139 0.17346 0.3671 0.0
H189 H 0.77364 0.15605 0.38517 0.0
H190 H 0.7663 0.08026 0.33053 0.0
H191 H 0.72453 0.0983 0.3117 0.0
H192 H 0.68715 0.11158 0.25462 0.0
H193 H 0.66784 0.09443 0.21059 0.0
H194 H 0.59283 0.13491 0.23078 0.0
H195 H 0.61223 0.15269 0.27415 0.0
N196 N 0.6504 0.16625 0.30853 0.0
N197 N 0.68524 0.16844 0.34146 0.0
N198 N 0.68736 0.13632 0.30359 0.0
C199 C 0.66117 0.17783 0.33223 0.0
C200 C 0.69844 0.14765 0.32733 0.0
C201 C 0.66332 0.14557 0.29404 0.0
C202 C 0.64681 0.20052 0.34771 0.0
C203 C 0.62118 0.20903 0.33896 0.0
C204 C 0.60774 0.2306 0.35333 0.0
C205 C 0.61959 0.24424 0.37679 0.0
C206 C 0.64515 0.23567 0.38563 0.0
C207 C 0.65859 0.21406 0.37129 0.0
C208 C 0.72447 0.13726 0.33796 0.0
C209 C 0.73879 0.1531 0.35886 0.0
C210 C 0.76299 0.143 0.36937 0.0
C211 C 0.7734 0.11663 0.35946 0.0
C212 C 0.75917 0.10092 0.33839 0.0
C213 C 0.73508 0.11118 0.32768 0.0
C214 C 0.65137 0.13375 0.26788 0.0
C215 C 0.66651 0.11675 0.24969 0.0
C216 C 0.25181 0.59805 0.17583 0.0
C217 C 0.23773 0.61755 0.15805 0.0
C218 C 0.24886 0.64813 0.15253 0.0
C219 C 0.27382 0.65875 0.16381 0.0
H220 H 0.33424 0.72838 0.1515 0.0
H221 H 0.35926 0.7725 0.12585 0.0
H222 H 0.43422 0.75194 0.16596 0.0
H223 H 0.40895 0.70798 0.19235 0.0
H224 H 0.39691 0.66447 0.25184 0.0
H225 H 0.41724 0.63762 0.29085 0.0
H226 H 0.35698 0.55957 0.28436 0.0
H227 H 0.33594 0.58694 0.24572 0.0
H228 H 0.28732 0.59303 0.20051 0.0
H229 H 0.24397 0.57426 0.18028 0.0
H230 H 0.23828 0.66396 0.13946 0.0
H231 H 0.28185 0.6824 0.15885 0.0
N232 N 0.32923 0.67629 0.17954 0.0
N233 N 0.36584 0.6708 0.20956 0.0
N234 N 0.32703 0.63444 0.21289 0.0
C235 C 0.35447 0.68668 0.18824 0.0
C236 C 0.35222 0.64473 0.22208 0.0
C237 C 0.31538 0.65026 0.19166 0.0
C238 C 0.36961 0.71446 0.17386 0.0
C239 C 0.35604 0.73322 0.15498 0.0
C240 C 0.37044 0.75847 0.1401 0.0
C241 C 0.39882 0.76551 0.14355 0.0
C242 C 0.41232 0.74723 0.16294 0.0
C243 C 0.39785 0.72198 0.178 0.0
C244 C 0.36477 0.62789 0.24558 0.0
C245 C 0.38798 0.64156 0.2586 0.0
C246 C 0.39979 0.62603 0.28093 0.0
C247 C 0.38889 0.59631 0.29067 0.0
C248 C 0.36571 0.58256 0.27761 0.0
C249 C 0.35373 0.59822 0.25536 0.0
C250 C 0.28819 0.63913 0.18112 0.0
C251 C 0.27673 0.60877 0.18734 0.0
C252 C 0.13847 0.25589 0.64208 0.0
C253 C 0.11345 0.24096 0.65359 0.0
C254 C 0.1025 0.25073 0.67905 0.0
C255 C 0.11609 0.27535 0.69237 0.0
H256 H 0.10989 0.3335 0.75889 0.0
H257 H 0.08907 0.35628 0.79904 0.0
H258 H 0.15411 0.43086 0.79221 0.0
H259 H 0.17539 0.4077 0.75254 0.0
H260 H 0.22107 0.4112 0.69899 0.0
H261 H 0.26554 0.43214 0.67668 0.0
H262 H 0.27425 0.34553 0.64021 0.0
H263 H 0.22997 0.32464 0.66216 0.0
H264 H 0.17129 0.29104 0.64567 0.0
H265 H 0.14774 0.24857 0.62278 0.0
H266 H 0.08322 0.23967 0.6884 0.0
H267 H 0.10701 0.28253 0.7118 0.0
N268 N 0.144 0.32978 0.71641 0.0
N269 N 0.18247 0.3665 0.71679 0.0
N270 N 0.1809 0.32891 0.68352 0.0
C271 C 0.15728 0.35462 0.72793 0.0
C272 C 0.19446 0.35361 0.69465 0.0
C273 C 0.15568 0.31687 0.69408 0.0
C274 C 0.14439 0.36868 0.75235 0.0
C275 C 0.11981 0.35476 0.76589 0.0
C276 C 0.10773 0.36795 0.78889 0.0
C277 C 0.11983 0.3955 0.79893 0.0
C278 C 0.1444 0.40942 0.78538 0.0
C279 C 0.15654 0.39618 0.76245 0.0
C280 C 0.22189 0.36627 0.68231 0.0
C281 C 0.23254 0.39659 0.68634 0.0
C282 C 0.2579 0.40864 0.67345 0.0
C283 C 0.27332 0.39045 0.65671 0.0
C284 C 0.26292 0.36001 0.65316 0.0
C285 C 0.23745 0.34813 0.66563 0.0
C286 C 0.14107 0.29042 0.68064 0.0
C287 C 0.1521 0.28019 0.65541 0.0
Zn288 Zn 0.03371 -0.00252 0.5308 0.0
Zn289 Zn 0.97125 0.99606 0.48091 0.0
C290 C 0.05494 0.05441 0.54812 0.0
O291 O 0.0739 0.04739 0.52985 0.0
C292 C 0.94002 0.93867 0.47168 0.0
O293 O 0.921 0.95124 0.48607 0.0
O294 O 0.06611 0.97631 0.5446 0.0
O295 O 0.0001 0.96774 0.53987 0.0
O296 O 0.9688 0.99614 0.52347 0.0
C297 C 0.07065 0.97499 0.57095 0.0
O298 O 0.05378 0.98693 0.58848 0.0
O299 O 0.03333 0.03584 0.5528 0.0
C300 C 0.94126 0.0304 0.44037 0.0
O301 O 0.96295 0.0277 0.4238 0.0
O302 O 0.94054 0.01926 0.46584 0.0
O303 O 0.007 0.01418 0.4617 0.0
O304 O 0.04238 0.01142 0.48997 0.0
O305 O 0.96389 0.95306 0.46789 0.0
C306 C 0.97498 0.97232 0.53729 0.0
C307 C 0.03268 0.01807 0.46602 0.0
Zn308 Zn 0.52652 0.97775 0.98717 0.0
Zn309 Zn 0.48557 0.01469 0.01597 0.0
C310 C 0.49119 0.93992 0.95512 0.0
O311 O 0.50455 0.91955 0.96896 0.0
C312 C 0.52657 0.05026 0.04516 0.0
O313 O 0.51695 0.07229 0.02958 0.0
O314 O 0.55818 0.95643 0.97221 0.0
O315 O 0.53886 0.02293 0.98286 0.0
O316 O 0.49674 0.0356 0.97796 0.0
C317 C 0.57063 0.96777 0.9494 0.0
O318 O 0.5631 0.99317 0.93733 0.0
O319 O 0.49633 0.96806 0.95994 0.0
C320 C 0.45101 0.03647 0.05858 0.0
O321 O 0.46809 0.02316 0.07502 0.0
O322 O 0.45409 0.0357 0.03183 0.0
O323 O 0.47256 0.9699 0.01844 0.0
O324 O 0.51438 0.9575 0.02556 0.0
O325 O 0.51685 0.02267 0.04252 0.0
C326 C 0.52249 0.04112 0.97265 0.0
C327 C 0.48845 0.95178 0.02959 0.0
Zn328 Zn 0.50922 0.46511 0.48534 0.0
Zn329 Zn 0.4889 0.51861 0.52071 0.0
C330 C 0.54589 0.49556 0.44307 0.0
O331 O 0.52909 0.47863 0.4278 0.0
C332 C 0.45305 0.48248 0.56109 0.0
O333 O 0.47239 0.49299 0.57773 0.0
O334 O 0.51637 0.42539 0.46835 0.0
O335 O 0.51259 0.45706 0.52728 0.0
O336 O 0.52319 0.50487 0.53786 0.0
C337 C 0.53949 0.41589 0.47416 0.0
O338 O 0.5557 0.4317 0.49086 0.0
O339 O 0.54117 0.495 0.46975 0.0
C340 C 0.45933 0.56934 0.52934 0.0
O341 O 0.44452 0.55527 0.51037 0.0
O342 O 0.48111 0.55822 0.53736 0.0
O343 O 0.48871 0.52654 0.47836 0.0
O344 O 0.47413 0.47907 0.47007 0.0
O345 O 0.45591 0.48921 0.53454 0.0
C346 C 0.52516 0.4764 0.54252 0.0
C347 C 0.47522 0.50762 0.46341 0.0
Zn348 Zn 0.97108 0.51169 0.97994 0.0
Zn349 Zn 0.03438 0.49167 0.0322 0.0
C350 C 0.93713 0.48403 0.94046 0.0
O351 O 0.95629 0.49999 0.92405 0.0
C352 C 0.06569 0.52721 0.06905 0.0
O353 O 0.04534 0.51474 0.08612 0.0
O354 O 0.96709 0.55196 0.95912 0.0
O355 O 0.96529 0.51717 0.02176 0.0
O356 O -0.00053 0.50582 0.04901 0.0
C357 C 0.96724 0.57792 0.9697 0.0
O358 O 0.97228 0.58035 0.99665 0.0
O359 O 0.939 0.48435 0.96721 0.0
C360 C 0.06555 0.44394 0.04576 0.0
O361 O 0.08069 0.46011 0.02565 0.0
O362 O 0.0423 0.45254 0.05299 0.0
O363 O 0.0392 0.48428 0.99063 0.0
O364 O 0.00483 0.49515 0.96357 0.0
O365 O 0.06541 0.52176 0.04293 0.0
C366 C 0.9757 0.51485 0.04598 0.0
C367 C 0.02836 0.4856 0.96659 0.0
H368 H 0.12751 0.06532 0.30755 0.0
H369 H 0.14773 0.14082 0.36029 0.0
H370 H 0.09872 0.03858 0.34641 0.0
H371 H 0.11881 0.11416 0.39911 0.0
H372 H 0.08629 0.04183 0.46975 0.0
H373 H 0.11746 0.0656 0.43154 0.0
H374 H 0.05373 0.04879 0.37149 0.0
H375 H 0.02243 0.02501 0.40961 0.0
C376 C 0.12602 0.076 0.32757 0.0
C377 C 0.13978 0.10511 0.33098 0.0
C378 C 0.1094 0.06084 0.34966 0.0
C379 C 0.10652 0.07438 0.37566 0.0
C380 C 0.12084 0.10315 0.37932 0.0
C381 C 0.1372 0.11846 0.35711 0.0
C382 C 0.07893 0.04305 0.44839 0.0
C383 C 0.05183 0.0316 0.44273 0.0
C384 C 0.09675 0.05679 0.42658 0.0
C385 C 0.08796 0.059 0.39864 0.0
C386 C 0.06108 0.04712 0.39285 0.0
C387 C 0.04313 0.03369 0.4147 0.0
H388 H 0.36327 0.90536 0.83114 0.0
H389 H 0.4362 0.86676 0.80065 0.0
H390 H 0.38786 0.92227 0.87265 0.0
H391 H 0.46018 0.88276 0.84239 0.0
H392 H 0.48243 0.88312 0.93487 0.0
H393 H 0.45491 0.86786 0.8951 0.0
H394 H 0.43013 0.95942 0.88413 0.0
H395 H 0.45788 0.97496 0.9241 0.0
C396 C 0.38452 0.90062 0.83314 0.0
C397 C 0.39763 0.88438 0.81262 0.0
C398 C 0.39853 0.91023 0.85696 0.0
C399 C 0.42579 0.9035 0.86085 0.0
C400 C 0.43898 0.88772 0.8402 0.0
C401 C 0.42516 0.87844 0.81632 0.0
C402 C 0.47097 0.90001 0.9242 0.0
C403 C 0.47251 0.93033 0.93253 0.0
C404 C 0.45532 0.89127 0.90132 0.0
C405 C 0.44062 0.91253 0.8864 0.0
C406 C 0.44123 0.94256 0.89534 0.0
C407 C 0.45718 0.95145 0.91812 0.0
H408 H 0.58373 0.36384 0.6783 0.0
H409 H 0.63006 0.45164 0.68717 0.0
H410 H 0.56204 0.38485 0.63722 0.0
H411 H 0.60967 0.47221 0.64463 0.0
H412 H 0.54249 0.50736 0.58837 0.0
H413 H 0.56709 0.4878 0.62857 0.0
H414 H 0.57006 0.40148 0.5894 0.0
H415 H 0.54442 0.42052 0.5501 0.0
C416 C 0.5894 0.38765 0.67143 0.0
C417 C 0.60845 0.40611 0.68628 0.0
C418 C 0.57725 0.3996 0.64751 0.0
C419 C 0.58411 0.43026 0.63748 0.0
C420 C 0.60363 0.44862 0.65195 0.0
C421 C 0.61561 0.43669 0.67613 0.0
C422 C 0.54851 0.48425 0.58838 0.0
C423 C 0.54133 0.46539 0.56622 0.0
C424 C 0.56277 0.47308 0.61132 0.0
C425 C 0.57044 0.44295 0.61237 0.0
C426 C 0.56395 0.42452 0.58968 0.0
C427 C 0.54937 0.43551 0.56702 0.0
H428 H 0.85745 0.57428 0.16981 0.0
H429 H 0.93764 0.59841 0.20302 0.0
H430 H 0.8791 0.5516 0.13004 0.0
H431 H 0.95937 0.57704 0.1625 0.0
H432 H 0.98873 0.50911 0.10192 0.0
H433 H 0.96589 0.52912 0.1425 0.0
H434 H 0.90638 0.56527 0.08734 0.0
H435 H 0.92884 0.54469 0.04687 0.0
C436 C 0.87971 0.57474 0.16868 0.0
C437 C 0.89575 0.58815 0.18978 0.0
C438 C 0.89217 0.56203 0.14563 0.0
C439 C 0.92103 0.56242 0.14296 0.0
C440 C 0.93708 0.57593 0.16399 0.0
C441 C 0.92461 0.5886 0.18708 0.0
C442 C 0.9707 0.52119 0.09843 0.0
C443 C 0.96072 0.52529 0.07103 0.0
C444 C 0.95768 0.53287 0.12172 0.0
C445 C 0.93435 0.54904 0.11827 0.0
C446 C 0.92408 0.55265 0.09093 0.0
C447 C 0.93705 0.54089 0.06765 0.0
H448 H 0.35143 0.15725 0.1478 0.0
H449 H 0.2936 0.08397 0.12241 0.0
H450 H 0.38916 0.1344 0.12395 0.0
H451 H 0.33125 0.06133 0.09831 0.0
H452 H 0.40405 0.05205 0.03385 0.0
H453 H 0.36665 0.0773 0.05551 0.0
H454 H 0.41051 0.08227 0.13318 0.0
H455 H 0.44767 0.05669 0.11182 0.0
C456 C 0.34683 0.13642 0.1369 0.0
C457 C 0.31973 0.12225 0.13695 0.0
C458 C 0.36834 0.12332 0.12342 0.0
C459 C 0.363 0.09618 0.10934 0.0
C460 C 0.33581 0.08239 0.10888 0.0
C461 C 0.31438 0.09518 0.12278 0.0
C462 C 0.40571 0.05861 0.05551 0.0
C463 C 0.42869 0.05232 0.0712 0.0
C464 C 0.38432 0.07292 0.06788 0.0
C465 C 0.38583 0.0817 0.09594 0.0
C466 C 0.40901 0.0759 0.11144 0.0
C467 C 0.43014 0.06111 0.09926 0.0
H468 H 0.23312 0.91276 0.59276 0.0
H469 H 0.18933 0.8859 0.67256 0.0
H470 H 0.19228 0.93413 0.57486 0.0
H471 H 0.14825 0.90663 0.65456 0.0
H472 H 0.08991 0.97574 0.62446 0.0
H473 H 0.13057 0.95408 0.6421 0.0
H474 H 0.14676 0.92014 0.55975 0.0
H475 H 0.10652 0.94276 0.54186 0.0
C476 C 0.21464 0.91117 0.60637 0.0
C477 C 0.21443 0.89773 0.63408 0.0
C478 C 0.19119 0.92333 0.59609 0.0
C479 C 0.16691 0.92212 0.61324 0.0
C480 C 0.16671 0.90847 0.64092 0.0
C481 C 0.19022 0.89653 0.65125 0.0
C482 C 0.10211 0.96361 0.61012 0.0
C483 C 0.09499 0.96101 0.58174 0.0
C484 C 0.12537 0.95101 0.62029 0.0
C485 C 0.14199 0.9353 0.60239 0.0
C486 C 0.1347 0.93249 0.57403 0.0
C487 C 0.11152 0.94529 0.5638 0.0
H488 H 0.78945 0.44909 0.84791 0.0
H489 H 0.79755 0.36104 0.89103 0.0
H490 H 0.8323 0.46988 0.86778 0.0
H491 H 0.84006 0.38222 0.91145 0.0
H492 H 0.89529 0.44582 0.9674 0.0
H493 H 0.85391 0.42209 0.94644 0.0
H494 H 0.88281 0.46253 0.86409 0.0
H495 H 0.92405 0.48624 0.88487 0.0
C496 C 0.80047 0.43407 0.86138 0.0
C497 C 0.79001 0.40338 0.86785 0.0
C498 C 0.82497 0.44603 0.87282 0.0
C499 C 0.83945 0.42765 0.89117 0.0
C500 C 0.82911 0.39698 0.89764 0.0
C501 C 0.80473 0.38493 0.88599 0.0
C502 C 0.89288 0.44946 0.9448 0.0
C503 C 0.91288 0.468 0.92782 0.0
C504 C 0.86927 0.43579 0.93281 0.0
C505 C 0.86512 0.44065 0.90369 0.0
C506 C 0.88534 0.45872 0.88666 0.0
C507 C 0.90902 0.47214 0.89857 0.0
H508 H 0.70261 0.5367 0.35167 0.0
H509 H 0.68816 0.62358 0.38517 0.0
H510 H 0.65828 0.51416 0.37242 0.0
H511 H 0.64418 0.60066 0.40652 0.0
H512 H 0.58404 0.53533 0.46714 0.0
H513 H 0.62717 0.56049 0.44516 0.0
H514 H 0.608 0.51912 0.3666 0.0
H515 H 0.56506 0.49404 0.38839 0.0
C516 C 0.68994 0.55111 0.3632 0.0
C517 C 0.6991 0.582 0.36672 0.0
C518 C 0.66455 0.53813 0.37518 0.0
C519 C 0.64778 0.55564 0.39115 0.0
C520 C 0.65682 0.5865 0.39465 0.0
C521 C 0.68209 0.59957 0.38245 0.0
C522 C 0.58895 0.5318 0.44513 0.0
C523 C 0.57114 0.5126 0.42956 0.0
C524 C 0.61359 0.54628 0.43252 0.0
C525 C 0.62103 0.5416 0.40421 0.0
C526 C 0.60299 0.52284 0.38856 0.0
C527 C 0.57829 0.50863 0.40103 0.0
H528 H 0.13087 0.32703 0.17474 0.0
H529 H 0.14823 0.28392 0.09709 0.0
H530 H 0.10647 0.36467 0.14823 0.0
H531 H 0.124 0.32159 0.07065 0.0
H532 H 0.11187 0.41755 0.03159 0.0
H533 H 0.13225 0.37675 0.05776 0.0
H534 H 0.06472 0.36967 0.12009 0.0
H535 H 0.04433 0.41104 0.09397 0.0
C536 C 0.12925 0.32542 0.15207 0.0
C537 C 0.14169 0.30267 0.13797 0.0
C538 C 0.11523 0.34692 0.13692 0.0
C539 C 0.11341 0.34611 0.10736 0.0
C540 C 0.12544 0.32306 0.09335 0.0
C541 C 0.1394 0.30157 0.10849 0.0
C542 C 0.10122 0.40721 0.05077 0.0
C543 C 0.07653 0.41759 0.06077 0.0
C544 C 0.11285 0.38368 0.06568 0.0
C545 C 0.1001 0.37003 0.09098 0.0
C546 C 0.07513 0.38001 0.10078 0.0
C547 C 0.06338 0.40351 0.08574 0.0
H548 H 0.57603 0.22991 0.91949 0.0
H549 H 0.60334 0.17898 0.85016 0.0
H550 H 0.55473 0.18217 0.94375 0.0
H551 H 0.58226 0.13124 0.87451 0.0
H552 H 0.57414 0.05462 0.94847 0.0
H553 H 0.59279 0.10198 0.92213 0.0
H554 H 0.51495 0.13956 0.93411 0.0
H555 H 0.49597 0.09196 0.96011 0.0
C556 C 0.57739 0.20849 0.90949 0.0
C557 C 0.59127 0.20799 0.88304 0.0
C558 C 0.56511 0.1813 0.92322 0.0
C559 C 0.56695 0.15317 0.91093 0.0
C560 C 0.58071 0.15269 0.88442 0.0
C561 C 0.59258 0.17992 0.87047 0.0
C562 C 0.56092 0.07287 0.94533 0.0
C563 C 0.53355 0.06953 0.95624 0.0
C564 C 0.57158 0.09989 0.93019 0.0
C565 C 0.55524 0.12426 0.92614 0.0
C566 C 0.52793 0.12106 0.9371 0.0
C567 C 0.51709 0.09381 0.95182 0.0
H568 H 0.9287 0.76696 0.38348 0.0
H569 H 0.85143 0.80586 0.37281 0.0
H570 H 0.9452 0.81024 0.41094 0.0
H571 H 0.86782 0.84894 0.39996 0.0
H572 H 0.89103 0.90253 0.4755 0.0
H573 H 0.87748 0.85811 0.44878 0.0
H574 H 0.95865 0.86568 0.4079 0.0
H575 H 0.97243 0.90992 0.43511 0.0
C576 C 0.9154 0.78494 0.38667 0.0
C577 C 0.88865 0.7828 0.37623 0.0
C578 C 0.92482 0.8097 0.40244 0.0
C579 C 0.90767 0.83284 0.40805 0.0
C580 C 0.88131 0.83114 0.39672 0.0
C581 C 0.87193 0.80648 0.38105 0.0
C582 C 0.9061 0.89462 0.46101 0.0
C583 C 0.93276 0.90994 0.45734 0.0
C584 C 0.89826 0.86925 0.4455 0.0
C585 C 0.91685 0.85857 0.42586 0.0
C586 C 0.94385 0.87322 0.42291 0.0
C587 C 0.95172 0.89864 0.43847 0.0
H588 H 0.43587 0.73672 0.61555 0.0
H589 H 0.35422 0.69169 0.60583 0.0
H590 H 0.4558 0.69624 0.59088 0.0
H591 H 0.37408 0.65119 0.58138 0.0
H592 H 0.41546 0.59996 0.51444 0.0
H593 H 0.39758 0.6426 0.53728 0.0
H594 H 0.46268 0.64219 0.59709 0.0
H595 H 0.481 0.59986 0.57376 0.0
C596 C 0.4222 0.71806 0.60831 0.0
C597 C 0.39346 0.71745 0.61258 0.0
C598 C 0.43362 0.69487 0.59419 0.0
C599 C 0.41655 0.67051 0.58407 0.0
C600 C 0.38781 0.66991 0.58841 0.0
C601 C 0.37641 0.69311 0.60245 0.0
C602 C 0.42609 0.60905 0.53236 0.0
C603 C 0.4496 0.59642 0.54235 0.0
C604 C 0.41572 0.63339 0.54558 0.0
C605 C 0.42853 0.64565 0.56918 0.0
C606 C 0.45244 0.63348 0.5788 0.0
C607 C 0.46288 0.60913 0.5655 0.0
H608 H 0.9039 0.86071 0.67856 0.0
H609 H 0.8303 0.88328 0.63706 0.0
H610 H 0.9322 0.88702 0.63987 0.0
H611 H 0.85887 0.90946 0.59757 0.0
H612 H 0.92314 0.98536 0.55365 0.0
H613 H 0.89058 0.95489 0.58694 0.0
H614 H 0.94564 0.88346 0.59161 0.0
H615 H 0.97852 0.9144 0.55938 0.0
C616 C 0.89375 0.8708 0.66081 0.0
C617 C 0.86487 0.86963 0.6607 0.0
C618 C 0.91 0.88586 0.63853 0.0
C619 C 0.89784 0.90007 0.61538 0.0
C620 C 0.86889 0.8989 0.61516 0.0
C621 C 0.85254 0.88389 0.63769 0.0
C622 C 0.92812 0.96302 0.56162 0.0
C623 C 0.95363 0.95253 0.55442 0.0
C624 C 0.90939 0.94546 0.58057 0.0
C625 C 0.91571 0.91695 0.59236 0.0
C626 C 0.94046 0.9057 0.58358 0.0
C627 C 0.95927 0.92337 0.56501 0.0
H628 H 0.63263 0.05925 0.19153 0.0
H629 H 0.59864 0.14629 0.18085 0.0
H630 H 0.61199 0.04341 0.14767 0.0
H631 H 0.57687 0.12994 0.13814 0.0
H632 H 0.55722 0.10471 0.05078 0.0
H633 H 0.5855 0.1194 0.09019 0.0
H634 H 0.5673 0.02832 0.13027 0.0
H635 H 0.53979 0.01336 0.09027 0.0
C636 C 0.62088 0.07506 0.17978 0.0
C637 C 0.61715 0.10397 0.18984 0.0
C638 C 0.60879 0.06585 0.1548 0.0
C639 C 0.5927 0.08535 0.13933 0.0
C640 C 0.58942 0.11444 0.1492 0.0
C641 C 0.60157 0.12366 0.17402 0.0
C642 C 0.55953 0.08772 0.06785 0.0
C643 C 0.54608 0.05797 0.06755 0.0
C644 C 0.57561 0.09618 0.09055 0.0
C645 C 0.57837 0.0752 0.11366 0.0
C646 C 0.56584 0.04502 0.11275 0.0
C647 C 0.54996 0.03646 0.08987 0.0
H648 H 0.36275 0.55978 0.33456 0.0
H649 H 0.44375 0.59606 0.3011 0.0
H650 H 0.38366 0.53607 0.37546 0.0
H651 H 0.46439 0.57311 0.34235 0.0
H652 H 0.48327 0.56488 0.43737 0.0
H653 H 0.46238 0.5839 0.39465 0.0
H654 H 0.41686 0.49534 0.38807 0.0
H655 H 0.43794 0.47602 0.43098 0.0
C656 C 0.38499 0.56238 0.3357 0.0
C657 C 0.40154 0.58011 0.31465 0.0
C658 C 0.39693 0.54886 0.35915 0.0
C659 C 0.42558 0.55303 0.36213 0.0
C660 C 0.44218 0.56997 0.34077 0.0
C661 C 0.43032 0.58321 0.31722 0.0
C662 C 0.46883 0.54939 0.42687 0.0
C663 C 0.46227 0.51892 0.43755 0.0
C664 C 0.45701 0.56026 0.40231 0.0
C665 C 0.43814 0.54103 0.38803 0.0
C666 C 0.4313 0.51064 0.39878 0.0
C667 C 0.44343 0.49959 0.42323 0.0
H668 H 0.06474 0.39873 0.81095 0.0
H669 H 0.1454 0.42442 0.84242 0.0
H670 H 0.04347 0.4208 0.85125 0.0
H671 H 0.12416 0.44794 0.88197 0.0
H672 H 0.07553 0.4562 0.96562 0.0
H673 H 0.09768 0.43505 0.92526 0.0
H674 H 0.0366 0.46866 0.87054 0.0
H675 H 0.01401 0.48906 0.91101 0.0
C676 C 0.07798 0.40908 0.82645 0.0
C677 C 0.10683 0.40965 0.82337 0.0
C678 C 0.06576 0.42216 0.84941 0.0
C679 C 0.08205 0.43631 0.86992 0.0
C680 C 0.11091 0.43698 0.8668 0.0
C681 C 0.12313 0.42381 0.84386 0.0
C682 C 0.06687 0.45924 0.94497 0.0
C683 C 0.04288 0.47429 0.94168 0.0
C684 C 0.07968 0.4472 0.92173 0.0
C685 C 0.06892 0.44999 0.89455 0.0
C686 C 0.04522 0.46555 0.8912 0.0
C687 C 0.03234 0.47747 0.91444 0.0
H688 H 0.68937 0.90926 0.8285 0.0
H689 H 0.69268 0.84585 0.90148 0.0
H690 H 0.65332 0.93348 0.8525 0.0
H691 H 0.65851 0.87191 0.92646 0.0
H692 H 0.57827 0.90703 0.95535 0.0
H693 H 0.61223 0.88032 0.93023 0.0
H694 H 0.64652 0.96648 0.88821 0.0
H695 H 0.61151 0.99265 0.91214 0.0
C696 C 0.68242 0.90038 0.84963 0.0
C697 C 0.69412 0.87556 0.86298 0.0
C698 C 0.66203 0.91471 0.86367 0.0
C699 C 0.65309 0.90498 0.89164 0.0
C700 C 0.66457 0.87994 0.90487 0.0
C701 C 0.68461 0.86526 0.89065 0.0
C702 C 0.59317 0.92018 0.94079 0.0
C703 C 0.59227 0.95187 0.93564 0.0
C704 C 0.61274 0.90492 0.92644 0.0
C705 C 0.63219 0.92114 0.90701 0.0
C706 C 0.63153 0.95302 0.90242 0.0
C707 C 0.61162 0.96813 0.91635 0.0
H708 H 0.7893 0.11632 0.41458 0.0
H709 H 0.81494 0.09117 0.33139 0.0
H710 H 0.83057 0.0979 0.43406 0.0
H711 H 0.85533 0.07093 0.35124 0.0
H712 H 0.9385 0.06308 0.38974 0.0
H713 H 0.89873 0.08545 0.37051 0.0
H714 H 0.84984 0.05149 0.44576 0.0
H715 H 0.88986 0.03013 0.46536 0.0
C716 C 0.80376 0.10695 0.40039 0.0
C717 C 0.79872 0.10531 0.37136 0.0
C718 C 0.82728 0.09595 0.41167 0.0
C719 C 0.84631 0.08277 0.39429 0.0
C720 C 0.84134 0.08125 0.36524 0.0
C721 C 0.81791 0.09247 0.3539 0.0
C722 C 0.91929 0.06054 0.40223 0.0
C723 C 0.91735 0.04483 0.42908 0.0
C724 C 0.89641 0.07319 0.39112 0.0
C725 C 0.87097 0.07021 0.40649 0.0
C726 C 0.86916 0.05469 0.43348 0.0
C727 C 0.8921 0.04227 0.44468 0.0
H728 H 0.19518 0.57785 0.1818 0.0
H729 H 0.22171 0.63095 0.10418 0.0
H730 H 0.15342 0.55791 0.15951 0.0
H731 H 0.17923 0.61244 0.08247 0.0
H732 H 0.1164 0.54365 0.04316 0.0
H733 H 0.15758 0.56665 0.0646 0.0
H734 H 0.11059 0.57274 0.14292 0.0
H735 H 0.06969 0.54884 0.12175 0.0
C736 C 0.19209 0.58534 0.16001 0.0
C737 C 0.21184 0.60598 0.1448 0.0
C738 C 0.16794 0.57425 0.14734 0.0
C739 C 0.16289 0.58367 0.11921 0.0
C740 C 0.18256 0.60447 0.10407 0.0
C741 C 0.20678 0.6154 0.11667 0.0
C742 C 0.11482 0.55021 0.06486 0.0
C743 C 0.08986 0.54427 0.08083 0.0
C744 C 0.13841 0.56348 0.07714 0.0
C745 C 0.13746 0.57132 0.10558 0.0
C746 C 0.1122 0.56638 0.12117 0.0
C747 C 0.08869 0.5529 0.10896 0.0
H748 H 0.32209 0.36466 0.65586 0.0
H749 H 0.2846 0.44477 0.62539 0.0
H750 H 0.36574 0.38498 0.63156 0.0
H751 H 0.32825 0.46509 0.60105 0.0
H752 H 0.40277 0.47393 0.537 0.0
H753 H 0.35924 0.4508 0.55979 0.0
H754 H 0.40142 0.43075 0.63646 0.0
H755 H 0.44483 0.45404 0.61389 0.0
C756 C 0.3232 0.38658 0.64391 0.0
C757 C 0.29998 0.40317 0.64255 0.0
C758 C 0.34818 0.39825 0.63013 0.0
C759 C 0.35035 0.42655 0.61433 0.0
C760 C 0.32709 0.44308 0.61284 0.0
C761 C 0.30222 0.43162 0.62699 0.0
C762 C 0.40279 0.46427 0.55861 0.0
C763 C 0.42722 0.46585 0.57367 0.0
C764 C 0.37785 0.45126 0.5717 0.0
C765 C 0.37694 0.43913 0.59994 0.0
C766 C 0.40153 0.43979 0.61465 0.0
C767 C 0.42636 0.4532 0.60173 0.0
H768 H 0.87583 0.72784 0.91655 0.0
H769 H 0.91049 0.70049 0.83765 0.0
H770 H 0.90155 0.69143 0.94265 0.0
H771 H 0.93768 0.66585 0.8638 0.0
H772 H 0.94887 0.57747 0.91598 0.0
H773 H 0.92901 0.61806 0.88937 0.0
H774 H 0.94571 0.67855 0.9571 0.0
H775 H 0.96477 0.63719 0.98442 0.0
C776 C 0.88907 0.71426 0.90475 0.0
C777 C 0.89081 0.71693 0.87494 0.0
C778 C 0.90421 0.69372 0.91977 0.0
C779 C 0.92163 0.67557 0.90535 0.0
C780 C 0.92413 0.67909 0.8756 0.0
C781 C 0.90878 0.69933 0.86059 0.0
C782 C 0.94862 0.5995 0.92516 0.0
C783 C 0.95826 0.60403 0.95243 0.0
C784 C 0.93735 0.62293 0.90975 0.0
C785 C 0.93569 0.65164 0.92107 0.0
C786 C 0.94627 0.65656 0.94795 0.0
C787 C 0.95738 0.63295 0.96352 0.0
H788 H 0.43918 0.80773 0.16079 0.0
H789 H 0.39331 0.78207 0.08768 0.0
H790 H 0.46252 0.85203 0.13295 0.0
H791 H 0.41622 0.82649 0.06022 0.0
H792 H 0.43448 0.92897 0.03493 0.0
H793 H 0.41452 0.88317 0.06244 0.0
H794 H 0.49538 0.86551 0.0899 0.0
H795 H 0.51557 0.91165 0.06229 0.0
C796 C 0.43429 0.81134 0.13875 0.0
C797 C 0.41414 0.79159 0.12655 0.0
C798 C 0.44763 0.83669 0.12285 0.0
C799 C 0.44095 0.8428 0.09455 0.0
C800 C 0.42139 0.82262 0.08216 0.0
C801 C 0.40821 0.79725 0.09794 0.0
C802 C 0.44807 0.91538 0.04681 0.0
C803 C 0.47662 0.92391 0.0464 0.0
C804 C 0.43663 0.88905 0.06243 0.0
C805 C 0.45344 0.87075 0.07816 0.0
C806 C 0.48196 0.87934 0.07804 0.0
C807 C 0.4935 0.90562 0.06215 0.0
H808 H 0.09007 0.18517 0.67663 0.0
H809 H 0.10485 0.23858 0.59707 0.0
H810 H 0.07221 0.14085 0.65115 0.0
H811 H 0.08698 0.1946 0.57173 0.0
H812 H 0.09558 0.10078 0.53699 0.0
H813 H 0.10571 0.14638 0.56287 0.0
H814 H 0.0356 0.1187 0.62003 0.0
H815 H 0.02548 0.07235 0.59402 0.0
C816 C 0.08901 0.18761 0.65378 0.0
C817 C 0.0993 0.2152 0.63882 0.0
C818 C 0.07876 0.16226 0.63919 0.0
C819 C 0.07858 0.16407 0.60938 0.0
C820 C 0.08742 0.19222 0.59464 0.0
C821 C 0.09767 0.21743 0.60916 0.0
C822 C 0.08215 0.10437 0.55496 0.0
C823 C 0.0597 0.08288 0.56342 0.0
C824 C 0.08788 0.13071 0.56972 0.0
C825 C 0.07137 0.13632 0.59343 0.0
C826 C 0.04876 0.11495 0.60191 0.0
C827 C 0.04288 0.08853 0.58693 0.0
H828 H 0.59246 0.29078 0.35347 0.0
H829 H 0.61496 0.2507 0.43398 0.0
H830 H 0.57098 0.33031 0.37791 0.0
H831 H 0.59361 0.29036 0.45837 0.0
H832 H 0.58588 0.38835 0.48563 0.0
H833 H 0.60336 0.3456 0.46267 0.0
H834 H 0.53218 0.3387 0.41054 0.0
H835 H 0.51476 0.38199 0.43333 0.0
C836 C 0.59251 0.29015 0.37641 0.0
C837 C 0.60556 0.26765 0.39176 0.0
C838 C 0.58017 0.3128 0.39041 0.0
C839 C 0.58066 0.31352 0.42007 0.0
C840 C 0.59326 0.2907 0.43546 0.0
C841 C 0.60555 0.26802 0.42147 0.0
C842 C 0.57383 0.37765 0.46939 0.0
C843 C 0.54896 0.38864 0.46125 0.0
C844 C 0.58379 0.35299 0.45635 0.0
C845 C 0.56917 0.33874 0.43479 0.0
C846 C 0.54406 0.34941 0.4269 0.0
C847 C 0.534 0.37407 0.44007 0.0
loop_
_geom_bond_atom_site_label_1
_geom_bond_atom_site_label_2
_geom_bond_distance
_geom_bond_site_symmetry_2
_ccdc_geom_bond_type
C0 C1 1.384 . S
C0 H13 0.947 . S
C0 C35 1.382 . S
C1 C0 1.384 . S
C1 C2 1.378 . S
C2 C1 1.378 . S
C2 C3 1.378 . S
C2 H14 0.952 . S
C3 C2 1.378 . S
C3 H15 0.950 . S
C3 C34 1.383 . S
H4 C23 0.947 . S
H5 C24 0.946 . S
H6 C26 0.953 . S
H7 C27 0.945 . S
H8 C29 0.952 . S
H9 C30 0.949 . S
H10 C32 0.950 . S
H11 C33 0.948 . S
H12 C35 0.951 . S
H13 C0 0.947 . S
H14 C2 0.952 . S
H15 C3 0.950 . S
N16 C19 1.382 . S
N16 C21 1.363 . S
N17 C19 1.371 . S
N17 C20 1.372 . S
N18 C20 1.361 . S
N18 C21 1.377 . S
C19 N16 1.382 . S
C19 N17 1.371 . S
C19 C22 1.480 . S
C20 N17 1.372 . S
C20 N18 1.361 . S
C20 C28 1.457 . S
C21 N16 1.363 . S
C21 N18 1.377 . S
C21 C34 1.479 . S
C22 C19 1.480 . S
C22 C23 1.383 . S
C22 C27 1.385 . S
C23 H4 0.947 . S
C23 C22 1.383 . S
C23 C24 1.388 . S
C24 H5 0.946 . S
C24 C23 1.388 . S
C24 C25 1.384 . S
C25 C24 1.384 . S
C25 C26 1.377 . S
C26 H6 0.953 . S
C26 C25 1.377 . S
C26 C27 1.369 . S
C27 H7 0.945 . S
C27 C22 1.385 . S
C27 C26 1.369 . S
C28 C20 1.457 . S
C28 C29 1.372 . S
C28 C33 1.364 . S
C29 H8 0.952 . S
C29 C28 1.372 . S
C29 C30 1.389 . S
C30 H9 0.949 . S
C30 C29 1.389 . S
C30 C31 1.387 . S
C31 C30 1.387 . S
C31 C32 1.372 . S
C32 H10 0.950 . S
C32 C31 1.372 . S
C32 C33 1.379 . S
C33 H11 0.948 . S
C33 C28 1.364 . S
C33 C32 1.379 . S
C34 C3 1.383 . S
C34 C21 1.479 . S
C34 C35 1.398 . S
C35 C0 1.382 . S
C35 H12 0.951 . S
C35 C34 1.398 . S
C36 C37 1.384 . S
C36 H49 0.947 . S
C36 C71 1.382 . S
C37 C36 1.384 . S
C37 C38 1.378 . S
C38 C37 1.378 . S
C38 C39 1.378 . S
C38 H50 0.952 . S
C39 C38 1.378 . S
C39 H51 0.950 . S
C39 C70 1.383 . S
H40 C59 0.947 . S
H41 C60 0.946 . S
H42 C62 0.953 . S
H43 C63 0.945 . S
H44 C65 0.952 . S
H45 C66 0.949 . S
H46 C68 0.950 . S
H47 C69 0.948 . S
H48 C71 0.951 . S
H49 C36 0.947 . S
H50 C38 0.952 . S
H51 C39 0.950 . S
N52 C55 1.382 . S
N52 C57 1.363 . S
N53 C55 1.371 . S
N53 C56 1.372 . S
N54 C56 1.361 . S
N54 C57 1.377 . S
C55 N52 1.382 . S
C55 N53 1.371 . S
C55 C58 1.480 . S
C56 N53 1.372 . S
C56 N54 1.361 . S
C56 C64 1.457 . S
C57 N52 1.363 . S
C57 N54 1.377 . S
C57 C70 1.479 . S
C58 C55 1.480 . S
C58 C59 1.383 . S
C58 C63 1.385 . S
C59 H40 0.947 . S
C59 C58 1.383 . S
C59 C60 1.388 . S
C60 H41 0.946 . S
C60 C59 1.388 . S
C60 C61 1.384 . S
C61 C60 1.384 . S
C61 C62 1.377 . S
C62 H42 0.953 . S
C62 C61 1.377 . S
C62 C63 1.369 . S
C63 H43 0.945 . S
C63 C58 1.385 . S
C63 C62 1.369 . S
C64 C56 1.457 . S
C64 C65 1.372 . S
C64 C69 1.364 . S
C65 H44 0.952 . S
C65 C64 1.372 . S
C65 C66 1.389 . S
C66 H45 0.949 . S
C66 C65 1.389 . S
C66 C67 1.387 . S
C67 C66 1.387 . S
C67 C68 1.372 . S
C68 H46 0.950 . S
C68 C67 1.372 . S
C68 C69 1.379 . S
C69 H47 0.948 . S
C69 C64 1.364 . S
C69 C68 1.379 . S
C70 C39 1.383 . S
C70 C57 1.479 . S
C70 C71 1.398 . S
C71 C36 1.382 . S
C71 H48 0.951 . S
C71 C70 1.398 . S
C72 C73 1.384 . S
C72 H85 0.947 . S
C72 C107 1.382 . S
C73 C72 1.384 . S
C73 C74 1.378 . S
C74 C73 1.378 . S
C74 C75 1.378 . S
C74 H86 0.952 . S
C75 C74 1.378 . S
C75 H87 0.950 . S
C75 C106 1.383 . S
H76 C95 0.947 . S
H77 C96 0.946 . S
H78 C98 0.953 . S
H79 C99 0.945 . S
H80 C101 0.952 . S
H81 C102 0.949 . S
H82 C104 0.950 . S
H83 C105 0.948 . S
H84 C107 0.951 . S
H85 C72 0.947 . S
H86 C74 0.952 . S
H87 C75 0.950 . S
N88 C91 1.382 . S
N88 C93 1.363 . S
N89 C91 1.371 . S
N89 C92 1.372 . S
N90 C92 1.361 . S
N90 C93 1.377 . S
C91 N88 1.382 . S
C91 N89 1.371 . S
C91 C94 1.480 . S
C92 N89 1.372 . S
C92 N90 1.361 . S
C92 C100 1.457 . S
C93 N88 1.363 . S
C93 N90 1.377 . S
C93 C106 1.479 . S
C94 C91 1.480 . S
C94 C95 1.383 . S
C94 C99 1.385 . S
C95 H76 0.947 . S
C95 C94 1.383 . S
C95 C96 1.388 . S
C96 H77 0.946 . S
C96 C95 1.388 . S
C96 C97 1.384 . S
C97 C96 1.384 . S
C97 C98 1.377 . S
C98 H78 0.953 . S
C98 C97 1.377 . S
C98 C99 1.369 . S
C99 H79 0.945 . S
C99 C94 1.385 . S
C99 C98 1.369 . S
C100 C92 1.457 . S
C100 C101 1.372 . S
C100 C105 1.364 . S
C101 H80 0.952 . S
C101 C100 1.372 . S
C101 C102 1.389 . S
C102 H81 0.949 . S
C102 C101 1.389 . S
C102 C103 1.387 . S
C103 C102 1.387 . S
C103 C104 1.372 . S
C104 H82 0.950 . S
C104 C103 1.372 . S
C104 C105 1.379 . S
C105 H83 0.948 . S
C105 C100 1.364 . S
C105 C104 1.379 . S
C106 C75 1.383 . S
C106 C93 1.479 . S
C106 C107 1.398 . S
C107 C72 1.382 . S
C107 H84 0.951 . S
C107 C106 1.398 . S
C108 C109 1.384 . S
C108 H121 0.947 . S
C108 C143 1.382 . S
C109 C108 1.384 . S
C109 C110 1.378 . S
C110 C109 1.378 . S
C110 C111 1.378 . S
C110 H122 0.952 . S
C111 C110 1.378 . S
C111 H123 0.950 . S
C111 C142 1.383 . S
H112 C131 0.947 . S
H113 C132 0.946 . S
H114 C134 0.953 . S
H115 C135 0.945 . S
H116 C137 0.952 . S
H117 C138 0.949 . S
H118 C140 0.950 . S
H119 C141 0.948 . S
H120 C143 0.951 . S
H121 C108 0.947 . S
H122 C110 0.952 . S
H123 C111 0.950 . S
N124 C127 1.382 . S
N124 C129 1.363 . S
N125 C127 1.371 . S
N125 C128 1.372 . S
N126 C128 1.361 . S
N126 C129 1.377 . S
C127 N124 1.382 . S
C127 N125 1.371 . S
C127 C130 1.480 . S
C128 N125 1.372 . S
C128 N126 1.361 . S
C128 C136 1.457 . S
C129 N124 1.363 . S
C129 N126 1.377 . S
C129 C142 1.479 . S
C130 C127 1.480 . S
C130 C131 1.383 . S
C130 C135 1.385 . S
C131 H112 0.947 . S
C131 C130 1.383 . S
C131 C132 1.388 . S
C132 H113 0.946 . S
C132 C131 1.388 . S
C132 C133 1.384 . S
C133 C132 1.384 . S
C133 C134 1.377 . S
C134 H114 0.953 . S
C134 C133 1.377 . S
C134 C135 1.369 . S
C135 H115 0.945 . S
C135 C130 1.385 . S
C135 C134 1.369 . S
C136 C128 1.457 . S
C136 C137 1.372 . S
C136 C141 1.364 . S
C137 H116 0.952 . S
C137 C136 1.372 . S
C137 C138 1.389 . S
C138 H117 0.949 . S
C138 C137 1.389 . S
C138 C139 1.387 . S
C139 C138 1.387 . S
C139 C140 1.372 . S
C140 H118 0.950 . S
C140 C139 1.372 . S
C140 C141 1.379 . S
C141 H119 0.948 . S
C141 C136 1.364 . S
C141 C140 1.379 . S
C142 C111 1.383 . S
C142 C129 1.479 . S
C142 C143 1.398 . S
C143 C108 1.382 . S
C143 H120 0.951 . S
C143 C142 1.398 . S
C144 C145 1.384 . S
C144 H157 0.947 . S
C144 C179 1.382 . S
C145 C144 1.384 . S
C145 C146 1.378 . S
C146 C145 1.378 . S
C146 C147 1.378 . S
C146 H158 0.952 . S
C147 C146 1.378 . S
C147 H159 0.950 . S
C147 C178 1.383 . S
H148 C167 0.947 . S
H149 C168 0.946 . S
H150 C170 0.953 . S
H151 C171 0.945 . S
H152 C173 0.952 . S
H153 C174 0.949 . S
H154 C176 0.950 . S
H155 C177 0.948 . S
H156 C179 0.951 . S
H157 C144 0.947 . S
H158 C146 0.952 . S
H159 C147 0.950 . S
N160 C163 1.382 . S
N160 C165 1.363 . S
N161 C163 1.371 . S
N161 C164 1.372 . S
N162 C164 1.361 . S
N162 C165 1.377 . S
C163 N160 1.382 . S
C163 N161 1.371 . S
C163 C166 1.480 . S
C164 N161 1.372 . S
C164 N162 1.361 . S
C164 C172 1.457 . S
C165 N160 1.363 . S
C165 N162 1.377 . S
C165 C178 1.479 . S
C166 C163 1.480 . S
C166 C167 1.383 . S
C166 C171 1.385 . S
C167 H148 0.947 . S
C167 C166 1.383 . S
C167 C168 1.388 . S
C168 H149 0.946 . S
C168 C167 1.388 . S
C168 C169 1.384 . S
C169 C168 1.384 . S
C169 C170 1.377 . S
C170 H150 0.953 . S
C170 C169 1.377 . S
C170 C171 1.369 . S
C171 H151 0.945 . S
C171 C166 1.385 . S
C171 C170 1.369 . S
C172 C164 1.457 . S
C172 C173 1.372 . S
C172 C177 1.364 . S
C173 H152 0.952 . S
C173 C172 1.372 . S
C173 C174 1.389 . S
C174 H153 0.949 . S
C174 C173 1.389 . S
C174 C175 1.387 . S
C175 C174 1.387 . S
C175 C176 1.372 . S
C176 H154 0.950 . S
C176 C175 1.372 . S
C176 C177 1.379 . S
C177 H155 0.948 . S
C177 C172 1.364 . S
C177 C176 1.379 . S
C178 C147 1.383 . S
C178 C165 1.479 . S
C178 C179 1.398 . S
C179 C144 1.382 . S
C179 H156 0.951 . S
C179 C178 1.398 . S
C180 C181 1.384 . S
C180 H193 0.947 . S
C180 C215 1.382 . S
C181 C180 1.384 . S
C181 C182 1.378 . S
C182 C181 1.378 . S
C182 C183 1.378 . S
C182 H194 0.952 . S
C183 C182 1.378 . S
C183 H195 0.950 . S
C183 C214 1.383 . S
H184 C203 0.947 . S
H185 C204 0.946 . S
H186 C206 0.953 . S
H187 C207 0.945 . S
H188 C209 0.952 . S
H189 C210 0.949 . S
H190 C212 0.950 . S
H191 C213 0.948 . S
H192 C215 0.951 . S
H193 C180 0.947 . S
H194 C182 0.952 . S
H195 C183 0.950 . S
N196 C199 1.382 . S
N196 C201 1.363 . S
N197 C199 1.371 . S
N197 C200 1.372 . S
N198 C200 1.361 . S
N198 C201 1.377 . S
C199 N196 1.382 . S
C199 N197 1.371 . S
C199 C202 1.480 . S
C200 N197 1.372 . S
C200 N198 1.361 . S
C200 C208 1.457 . S
C201 N196 1.363 . S
C201 N198 1.377 . S
C201 C214 1.479 . S
C202 C199 1.480 . S
C202 C203 1.383 . S
C202 C207 1.385 . S
C203 H184 0.947 . S
C203 C202 1.383 . S
C203 C204 1.388 . S
C204 H185 0.946 . S
C204 C203 1.388 . S
C204 C205 1.384 . S
C205 C204 1.384 . S
C205 C206 1.377 . S
C206 H186 0.953 . S
C206 C205 1.377 . S
C206 C207 1.369 . S
C207 H187 0.945 . S
C207 C202 1.385 . S
C207 C206 1.369 . S
C208 C200 1.457 . S
C208 C209 1.372 . S
C208 C213 1.364 . S
C209 H188 0.952 . S
C209 C208 1.372 . S
C209 C210 1.389 . S
C210 H189 0.949 . S
C210 C209 1.389 . S
C210 C211 1.387 . S
C211 C210 1.387 . S
C211 C212 1.372 . S
C212 H190 0.950 . S
C212 C211 1.372 . S
C212 C213 1.379 . S
C213 H191 0.948 . S
C213 C208 1.364 . S
C213 C212 1.379 . S
C214 C183 1.383 . S
C214 C201 1.479 . S
C214 C215 1.398 . S
C215 C180 1.382 . S
C215 H192 0.951 . S
C215 C214 1.398 . S
C216 C217 1.384 . S
C216 H229 0.947 . S
C216 C251 1.382 . S
C217 C216 1.384 . S
C217 C218 1.378 . S
C218 C217 1.378 . S
C218 C219 1.378 . S
C218 H230 0.952 . S
C219 C218 1.378 . S
C219 H231 0.950 . S
C219 C250 1.383 . S
H220 C239 0.947 . S
H221 C240 0.946 . S
H222 C242 0.953 . S
H223 C243 0.945 . S
H224 C245 0.952 . S
H225 C246 0.949 . S
H226 C248 0.950 . S
H227 C249 0.948 . S
H228 C251 0.951 . S
H229 C216 0.947 . S
H230 C218 0.952 . S
H231 C219 0.950 . S
N232 C235 1.382 . S
N232 C237 1.363 . S
N233 C235 1.371 . S
N233 C236 1.372 . S
N234 C236 1.361 . S
N234 C237 1.377 . S
C235 N232 1.382 . S
C235 N233 1.371 . S
C235 C238 1.480 . S
C236 N233 1.372 . S
C236 N234 1.361 . S
C236 C244 1.457 . S
C237 N232 1.363 . S
C237 N234 1.377 . S
C237 C250 1.479 . S
C238 C235 1.480 . S
C238 C239 1.383 . S
C238 C243 1.385 . S
C239 H220 0.947 . S
C239 C238 1.383 . S
C239 C240 1.388 . S
C240 H221 0.946 . S
C240 C239 1.388 . S
C240 C241 1.384 . S
C241 C240 1.384 . S
C241 C242 1.377 . S
C242 H222 0.953 . S
C242 C241 1.377 . S
C242 C243 1.369 . S
C243 H223 0.945 . S
C243 C238 1.385 . S
C243 C242 1.369 . S
C244 C236 1.457 . S
C244 C245 1.372 . S
C244 C249 1.364 . S
C245 H224 0.952 . S
C245 C244 1.372 . S
C245 C246 1.389 . S
C246 H225 0.949 . S
C246 C245 1.389 . S
C246 C247 1.387 . S
C247 C246 1.387 . S
C247 C248 1.372 . S
C248 H226 0.950 . S
C248 C247 1.372 . S
C248 C249 1.379 . S
C249 H227 0.948 . S
C249 C244 1.364 . S
C249 C248 1.379 . S
C250 C219 1.383 . S
C250 C237 1.479 . S
C250 C251 1.398 . S
C251 C216 1.382 . S
C251 H228 0.951 . S
C251 C250 1.398 . S
C252 C253 1.384 . S
C252 H265 0.947 . S
C252 C287 1.382 . S
C253 C252 1.384 . S
C253 C254 1.378 . S
C254 C253 1.378 . S
C254 C255 1.378 . S
C254 H266 0.952 . S
C255 C254 1.378 . S
C255 H267 0.950 . S
C255 C286 1.383 . S
H256 C275 0.947 . S
H257 C276 0.946 . S
H258 C278 0.953 . S
H259 C279 0.945 . S
H260 C281 0.952 . S
H261 C282 0.949 . S
H262 C284 0.950 . S
H263 C285 0.948 . S
H264 C287 0.951 . S
H265 C252 0.947 . S
H266 C254 0.952 . S
H267 C255 0.950 . S
N268 C271 1.382 . S
N268 C273 1.363 . S
N269 C271 1.371 . S
N269 C272 1.372 . S
N270 C272 1.361 . S
N270 C273 1.377 . S
C271 N268 1.382 . S
C271 N269 1.371 . S
C271 C274 1.480 . S
C272 N269 1.372 . S
C272 N270 1.361 . S
C272 C280 1.457 . S
C273 N268 1.363 . S
C273 N270 1.377 . S
C273 C286 1.479 . S
C274 C271 1.480 . S
C274 C275 1.383 . S
C274 C279 1.385 . S
C275 H256 0.947 . S
C275 C274 1.383 . S
C275 C276 1.388 . S
C276 H257 0.946 . S
C276 C275 1.388 . S
C276 C277 1.384 . S
C277 C276 1.384 . S
C277 C278 1.377 . S
C278 H258 0.953 . S
C278 C277 1.377 . S
C278 C279 1.369 . S
C279 H259 0.945 . S
C279 C274 1.385 . S
C279 C278 1.369 . S
C280 C272 1.457 . S
C280 C281 1.372 . S
C280 C285 1.364 . S
C281 H260 0.952 . S
C281 C280 1.372 . S
C281 C282 1.389 . S
C282 H261 0.949 . S
C282 C281 1.389 . S
C282 C283 1.387 . S
C283 C282 1.387 . S
C283 C284 1.372 . S
C284 H262 0.950 . S
C284 C283 1.372 . S
C284 C285 1.379 . S
C285 H263 0.948 . S
C285 C280 1.364 . S
C285 C284 1.379 . S
C286 C255 1.383 . S
C286 C273 1.479 . S
C286 C287 1.398 . S
C287 C252 1.382 . S
C287 H264 0.951 . S
C287 C286 1.398 . S
Zn288 O294 1.969 1_545 S
Zn288 O295 1.965 1_545 S
Zn288 O299 2.024 . S
Zn288 O304 1.969 . S
Zn289 O296 1.969 . S
Zn289 O302 1.969 1_565 S
Zn289 O303 1.954 1_665 S
Zn289 O305 2.024 . S
C290 O291 1.229 . S
C290 O299 1.058 . S
O291 C290 1.229 . S
C292 O293 1.229 . S
C292 O305 1.058 . S
O293 C292 1.229 . S
O294 Zn288 1.969 1_565 S
O294 C297 1.267 . S
O295 Zn288 1.965 1_565 S
O295 C306 1.260 1_455 S
O296 Zn289 1.969 . S
O296 C306 1.258 . S
C297 O294 1.267 . S
C297 O298 1.228 . S
O298 C297 1.228 . S
O299 Zn288 2.024 . S
O299 C290 1.058 . S
C300 O301 1.228 . S
C300 O302 1.267 . S
O301 C300 1.228 . S
O302 Zn289 1.969 1_545 S
O302 C300 1.267 . S
O303 Zn289 1.954 1_445 S
O303 C307 1.274 . S
O304 Zn288 1.969 . S
O304 C307 1.258 . S
O305 Zn289 2.024 . S
O305 C292 1.058 . S
C306 O295 1.260 1_655 S
C306 O296 1.258 . S
C307 O303 1.274 . S
C307 O304 1.258 . S
Zn308 O314 1.969 . S
Zn308 O315 1.965 1_565 S
Zn308 O319 2.024 . S
Zn308 O324 1.969 1_556 S
Zn309 O316 1.969 . S
Zn309 O322 1.969 . S
Zn309 O323 1.965 1_545 S
Zn309 O325 2.024 . S
C310 O311 1.229 . S
C310 O319 1.058 . S
O311 C310 1.229 . S
C312 O313 1.229 . S
C312 O325 1.058 . S
O313 C312 1.229 . S
O314 Zn308 1.969 . S
O314 C317 1.267 . S
O315 Zn308 1.965 1_545 S
O315 C326 1.260 . S
O316 Zn309 1.969 . S
O316 C326 1.258 1_554 S
C317 O314 1.267 . S
C317 O318 1.228 . S
O318 C317 1.228 . S
O319 Zn308 2.024 . S
O319 C310 1.058 . S
C320 O321 1.228 . S
C320 O322 1.267 . S
O321 C320 1.228 . S
O322 Zn309 1.969 . S
O322 C320 1.267 . S
O323 Zn309 1.965 1_565 S
O323 C327 1.260 . S
O324 Zn308 1.969 1_554 S
O324 C327 1.258 . S
O325 Zn309 2.024 . S
O325 C312 1.058 . S
C326 O315 1.260 . S
C326 O316 1.258 1_556 S
C327 O323 1.260 . S
C327 O324 1.258 . S
Zn328 O334 1.969 . S
Zn328 O335 1.965 . S
Zn328 O339 2.024 . S
Zn328 O344 1.969 . S
Zn329 O336 1.969 . S
Zn329 O342 1.969 . S
Zn329 O343 1.965 . S
Zn329 O345 2.024 . S
C330 O331 1.229 . S
C330 O339 1.058 . S
O331 C330 1.229 . S
C332 O333 1.229 . S
C332 O345 1.058 . S
O333 C332 1.229 . S
O334 Zn328 1.969 . S
O334 C337 1.267 . S
O335 Zn328 1.965 . S
O335 C346 1.260 . S
O336 Zn329 1.969 . S
O336 C346 1.258 . S
C337 O334 1.267 . S
C337 O338 1.228 . S
O338 C337 1.228 . S
O339 Zn328 2.024 . S
O339 C330 1.058 . S
C340 O341 1.228 . S
C340 O342 1.267 . S
O341 C340 1.228 . S
O342 Zn329 1.969 . S
O342 C340 1.267 . S
O343 Zn329 1.965 . S
O343 C347 1.260 . S
O344 Zn328 1.969 . S
O344 C347 1.258 . S
O345 Zn329 2.024 . S
O345 C332 1.058 . S
C346 O335 1.260 . S
C346 O336 1.258 . S
C347 O343 1.260 . S
C347 O344 1.258 . S
Zn348 O354 1.969 . S
Zn348 O355 1.965 1_556 S
Zn348 O359 2.024 . S
Zn348 O364 1.969 1_655 S
Zn349 O356 1.969 . S
Zn349 O362 1.969 . S
Zn349 O363 1.965 1_554 S
Zn349 O365 2.024 . S
C350 O351 1.229 . S
C350 O359 1.058 . S
O351 C350 1.229 . S
C352 O353 1.229 . S
C352 O365 1.058 . S
O353 C352 1.229 . S
O354 Zn348 1.969 . S
O354 C357 1.267 . S
O355 Zn348 1.965 1_554 S
O355 C366 1.260 . S
O356 Zn349 1.969 . S
O356 C366 1.258 1_455 S
C357 O354 1.267 . S
C357 O358 1.228 . S
O358 C357 1.228 . S
O359 Zn348 2.024 . S
O359 C350 1.058 . S
C360 O361 1.228 . S
C360 O362 1.267 . S
O361 C360 1.228 . S
O362 Zn349 1.969 . S
O362 C360 1.267 . S
O363 Zn349 1.965 1_556 S
O363 C367 1.260 . S
O364 Zn348 1.969 1_455 S
O364 C367 1.258 . S
O365 Zn349 2.024 . S
O365 C352 1.058 . S
C366 O355 1.260 . S
C366 O356 1.258 1_655 S
C367 O363 1.260 . S
C367 O364 1.258 . S
H368 C376 0.950 . S
H369 C381 0.950 . S
H370 C378 0.950 . S
H371 C380 0.950 . S
H372 C382 0.950 . S
H373 C384 0.950 . S
H374 C386 0.950 . S
H375 C387 0.950 . S
C376 H368 0.950 . S
C376 C377 1.386 . S
C376 C378 1.391 . S
C377 C376 1.386 . S
C377 C381 1.393 . S
C378 H370 0.950 . S
C378 C376 1.391 . S
C378 C379 1.400 . S
C379 C378 1.400 . S
C379 C380 1.398 . S
C379 C385 1.491 . S
C380 H371 0.950 . S
C380 C379 1.398 . S
C380 C381 1.391 . S
C381 H369 0.950 . S
C381 C377 1.393 . S
C381 C380 1.391 . S
C382 H372 0.950 . S
C382 C383 1.386 . S
C382 C384 1.391 . S
C383 C382 1.386 . S
C383 C387 1.393 . S
C384 H373 0.950 . S
C384 C382 1.391 . S
C384 C385 1.400 . S
C385 C379 1.491 . S
C385 C384 1.400 . S
C385 C386 1.398 . S
C386 H374 0.950 . S
C386 C385 1.398 . S
C386 C387 1.391 . S
C387 H375 0.950 . S
C387 C383 1.393 . S
C387 C386 1.391 . S
H388 C396 0.950 . S
H389 C401 0.950 . S
H390 C398 0.950 . S
H391 C400 0.950 . S
H392 C402 0.950 . S
H393 C404 0.950 . S
H394 C406 0.950 . S
H395 C407 0.950 . S
C396 H388 0.950 . S
C396 C397 1.386 . S
C396 C398 1.391 . S
C397 C396 1.386 . S
C397 C401 1.393 . S
C398 H390 0.950 . S
C398 C396 1.391 . S
C398 C399 1.400 . S
C399 C398 1.400 . S
C399 C400 1.398 . S
C399 C405 1.491 . S
C400 H391 0.950 . S
C400 C399 1.398 . S
C400 C401 1.391 . S
C401 H389 0.950 . S
C401 C397 1.393 . S
C401 C400 1.391 . S
C402 H392 0.950 . S
C402 C403 1.386 . S
C402 C404 1.391 . S
C403 C402 1.386 . S
C403 C407 1.393 . S
C404 H393 0.950 . S
C404 C402 1.391 . S
C404 C405 1.400 . S
C405 C399 1.491 . S
C405 C404 1.400 . S
C405 C406 1.398 . S
C406 H394 0.950 . S
C406 C405 1.398 . S
C406 C407 1.391 . S
C407 H395 0.950 . S
C407 C403 1.393 . S
C407 C406 1.391 . S
H408 C416 0.950 . S
H409 C421 0.950 . S
H410 C418 0.950 . S
H411 C420 0.950 . S
H412 C422 0.950 . S
H413 C424 0.950 . S
H414 C426 0.950 . S
H415 C427 0.950 . S
C416 H408 0.950 . S
C416 C417 1.386 . S
C416 C418 1.391 . S
C417 C416 1.386 . S
C417 C421 1.393 . S
C418 H410 0.950 . S
C418 C416 1.391 . S
C418 C419 1.400 . S
C419 C418 1.400 . S
C419 C420 1.398 . S
C419 C425 1.491 . S
C420 H411 0.950 . S
C420 C419 1.398 . S
C420 C421 1.391 . S
C421 H409 0.950 . S
C421 C417 1.393 . S
C421 C420 1.391 . S
C422 H412 0.950 . S
C422 C423 1.386 . S
C422 C424 1.391 . S
C423 C422 1.386 . S
C423 C427 1.393 . S
C424 H413 0.950 . S
C424 C422 1.391 . S
C424 C425 1.400 . S
C425 C419 1.491 . S
C425 C424 1.400 . S
C425 C426 1.398 . S
C426 H414 0.950 . S
C426 C425 1.398 . S
C426 C427 1.391 . S
C427 H415 0.950 . S
C427 C423 1.393 . S
C427 C426 1.391 . S
H428 C436 0.950 . S
H429 C441 0.950 . S
H430 C438 0.950 . S
H431 C440 0.950 . S
H432 C442 0.950 . S
H433 C444 0.950 . S
H434 C446 0.950 . S
H435 C447 0.950 . S
C436 H428 0.950 . S
C436 C437 1.386 . S
C436 C438 1.391 . S
C437 C436 1.386 . S
C437 C441 1.393 . S
C438 H430 0.950 . S
C438 C436 1.391 . S
C438 C439 1.400 . S
C439 C438 1.400 . S
C439 C440 1.398 . S
C439 C445 1.491 . S
C440 H431 0.950 . S
C440 C439 1.398 . S
C440 C441 1.391 . S
C441 H429 0.950 . S
C441 C437 1.393 . S
C441 C440 1.391 . S
C442 H432 0.950 . S
C442 C443 1.386 . S
C442 C444 1.391 . S
C443 C442 1.386 . S
C443 C447 1.393 . S
C444 H433 0.950 . S
C444 C442 1.391 . S
C444 C445 1.400 . S
C445 C439 1.491 . S
C445 C444 1.400 . S
C445 C446 1.398 . S
C446 H434 0.950 . S
C446 C445 1.398 . S
C446 C447 1.391 . S
C447 H435 0.950 . S
C447 C443 1.393 . S
C447 C446 1.391 . S
H448 C456 0.950 . S
H449 C461 0.950 . S
H450 C458 0.950 . S
H451 C460 0.950 . S
H452 C462 0.950 . S
H453 C464 0.950 . S
H454 C466 0.950 . S
H455 C467 0.950 . S
C456 H448 0.950 . S
C456 C457 1.386 . S
C456 C458 1.391 . S
C457 C456 1.386 . S
C457 C461 1.393 . S
C458 H450 0.950 . S
C458 C456 1.391 . S
C458 C459 1.400 . S
C459 C458 1.400 . S
C459 C460 1.398 . S
C459 C465 1.491 . S
C460 H451 0.950 . S
C460 C459 1.398 . S
C460 C461 1.391 . S
C461 H449 0.950 . S
C461 C457 1.393 . S
C461 C460 1.391 . S
C462 H452 0.950 . S
C462 C463 1.386 . S
C462 C464 1.391 . S
C463 C462 1.386 . S
C463 C467 1.393 . S
C464 H453 0.950 . S
C464 C462 1.391 . S
C464 C465 1.400 . S
C465 C459 1.491 . S
C465 C464 1.400 . S
C465 C466 1.398 . S
C466 H454 0.950 . S
C466 C465 1.398 . S
C466 C467 1.391 . S
C467 H455 0.950 . S
C467 C463 1.393 . S
C467 C466 1.391 . S
H468 C476 0.950 . S
H469 C481 0.950 . S
H470 C478 0.950 . S
H471 C480 0.950 . S
H472 C482 0.950 . S
H473 C484 0.950 . S
H474 C486 0.950 . S
H475 C487 0.950 . S
C476 H468 0.950 . S
C476 C477 1.386 . S
C476 C478 1.391 . S
C477 C476 1.386 . S
C477 C481 1.393 . S
C478 H470 0.950 . S
C478 C476 1.391 . S
C478 C479 1.400 . S
C479 C478 1.400 . S
C479 C480 1.398 . S
C479 C485 1.491 . S
C480 H471 0.950 . S
C480 C479 1.398 . S
C480 C481 1.391 . S
C481 H469 0.950 . S
C481 C477 1.393 . S
C481 C480 1.391 . S
C482 H472 0.950 . S
C482 C483 1.386 . S
C482 C484 1.391 . S
C483 C482 1.386 . S
C483 C487 1.393 . S
C484 H473 0.950 . S
C484 C482 1.391 . S
C484 C485 1.400 . S
C485 C479 1.491 . S
C485 C484 1.400 . S
C485 C486 1.398 . S
C486 H474 0.950 . S
C486 C485 1.398 . S
C486 C487 1.391 . S
C487 H475 0.950 . S
C487 C483 1.393 . S
C487 C486 1.391 . S
H488 C496 0.950 . S
H489 C501 0.950 . S
H490 C498 0.950 . S
H491 C500 0.950 . S
H492 C502 0.950 . S
H493 C504 0.950 . S
H494 C506 0.950 . S
H495 C507 0.950 . S
C496 H488 0.950 . S
C496 C497 1.386 . S
C496 C498 1.391 . S
C497 C496 1.386 . S
C497 C501 1.393 . S
C498 H490 0.950 . S
C498 C496 1.391 . S
C498 C499 1.400 . S
C499 C498 1.400 . S
C499 C500 1.398 . S
C499 C505 1.491 . S
C500 H491 0.950 . S
C500 C499 1.398 . S
C500 C501 1.391 . S
C501 H489 0.950 . S
C501 C497 1.393 . S
C501 C500 1.391 . S
C502 H492 0.950 . S
C502 C503 1.386 . S
C502 C504 1.391 . S
C503 C502 1.386 . S
C503 C507 1.393 . S
C504 H493 0.950 . S
C504 C502 1.391 . S
C504 C505 1.400 . S
C505 C499 1.491 . S
C505 C504 1.400 . S
C505 C506 1.398 . S
C506 H494 0.950 . S
C506 C505 1.398 . S
C506 C507 1.391 . S
C507 H495 0.950 . S
C507 C503 1.393 . S
C507 C506 1.391 . S
H508 C516 0.950 . S
H509 C521 0.950 . S
H510 C518 0.950 . S
H511 C520 0.950 . S
H512 C522 0.950 . S
H513 C524 0.950 . S
H514 C526 0.950 . S
H515 C527 0.950 . S
C516 H508 0.950 . S
C516 C517 1.386 . S
C516 C518 1.391 . S
C517 C516 1.386 . S
C517 C521 1.393 . S
C518 H510 0.950 . S
C518 C516 1.391 . S
C518 C519 1.400 . S
C519 C518 1.400 . S
C519 C520 1.398 . S
C519 C525 1.491 . S
C520 H511 0.950 . S
C520 C519 1.398 . S
C520 C521 1.391 . S
C521 H509 0.950 . S
C521 C517 1.393 . S
C521 C520 1.391 . S
C522 H512 0.950 . S
C522 C523 1.386 . S
C522 C524 1.391 . S
C523 C522 1.386 . S
C523 C527 1.393 . S
C524 H513 0.950 . S
C524 C522 1.391 . S
C524 C525 1.400 . S
C525 C519 1.491 . S
C525 C524 1.400 . S
C525 C526 1.398 . S
C526 H514 0.950 . S
C526 C525 1.398 . S
C526 C527 1.391 . S
C527 H515 0.950 . S
C527 C523 1.393 . S
C527 C526 1.391 . S
H528 C536 0.950 . S
H529 C541 0.950 . S
H530 C538 0.950 . S
H531 C540 0.950 . S
H532 C542 0.950 . S
H533 C544 0.950 . S
H534 C546 0.950 . S
H535 C547 0.950 . S
C536 H528 0.950 . S
C536 C537 1.386 . S
C536 C538 1.391 . S
C537 C536 1.386 . S
C537 C541 1.393 . S
C538 H530 0.950 . S
C538 C536 1.391 . S
C538 C539 1.400 . S
C539 C538 1.400 . S
C539 C540 1.398 . S
C539 C545 1.491 . S
C540 H531 0.950 . S
C540 C539 1.398 . S
C540 C541 1.391 . S
C541 H529 0.950 . S
C541 C537 1.393 . S
C541 C540 1.391 . S
C542 H532 0.950 . S
C542 C543 1.386 . S
C542 C544 1.391 . S
C543 C542 1.386 . S
C543 C547 1.393 . S
C544 H533 0.950 . S
C544 C542 1.391 . S
C544 C545 1.400 . S
C545 C539 1.491 . S
C545 C544 1.400 . S
C545 C546 1.398 . S
C546 H534 0.950 . S
C546 C545 1.398 . S
C546 C547 1.391 . S
C547 H535 0.950 . S
C547 C543 1.393 . S
C547 C546 1.391 . S
H548 C556 0.950 . S
H549 C561 0.950 . S
H550 C558 0.950 . S
H551 C560 0.950 . S
H552 C562 0.950 . S
H553 C564 0.950 . S
H554 C566 0.950 . S
H555 C567 0.950 . S
C556 H548 0.950 . S
C556 C557 1.386 . S
C556 C558 1.391 . S
C557 C556 1.386 . S
C557 C561 1.393 . S
C558 H550 0.950 . S
C558 C556 1.391 . S
C558 C559 1.400 . S
C559 C558 1.400 . S
C559 C560 1.398 . S
C559 C565 1.491 . S
C560 H551 0.950 . S
C560 C559 1.398 . S
C560 C561 1.391 . S
C561 H549 0.950 . S
C561 C557 1.393 . S
C561 C560 1.391 . S
C562 H552 0.950 . S
C562 C563 1.386 . S
C562 C564 1.391 . S
C563 C562 1.386 . S
C563 C567 1.393 . S
C564 H553 0.950 . S
C564 C562 1.391 . S
C564 C565 1.400 . S
C565 C559 1.491 . S
C565 C564 1.400 . S
C565 C566 1.398 . S
C566 H554 0.950 . S
C566 C565 1.398 . S
C566 C567 1.391 . S
C567 H555 0.950 . S
C567 C563 1.393 . S
C567 C566 1.391 . S
H568 C576 0.950 . S
H569 C581 0.950 . S
H570 C578 0.950 . S
H571 C580 0.950 . S
H572 C582 0.950 . S
H573 C584 0.950 . S
H574 C586 0.950 . S
H575 C587 0.950 . S
C576 H568 0.950 . S
C576 C577 1.386 . S
C576 C578 1.391 . S
C577 C576 1.386 . S
C577 C581 1.393 . S
C578 H570 0.950 . S
C578 C576 1.391 . S
C578 C579 1.400 . S
C579 C578 1.400 . S
C579 C580 1.398 . S
C579 C585 1.491 . S
C580 H571 0.950 . S
C580 C579 1.398 . S
C580 C581 1.391 . S
C581 H569 0.950 . S
C581 C577 1.393 . S
C581 C580 1.391 . S
C582 H572 0.950 . S
C582 C583 1.386 . S
C582 C584 1.391 . S
C583 C582 1.386 . S
C583 C587 1.393 . S
C584 H573 0.950 . S
C584 C582 1.391 . S
C584 C585 1.400 . S
C585 C579 1.491 . S
C585 C584 1.400 . S
C585 C586 1.398 . S
C586 H574 0.950 . S
C586 C585 1.398 . S
C586 C587 1.391 . S
C587 H575 0.950 . S
C587 C583 1.393 . S
C587 C586 1.391 . S
H588 C596 0.950 . S
H589 C601 0.950 . S
H590 C598 0.950 . S
H591 C600 0.950 . S
H592 C602 0.950 . S
H593 C604 0.950 . S
H594 C606 0.950 . S
H595 C607 0.950 . S
C596 H588 0.950 . S
C596 C597 1.386 . S
C596 C598 1.391 . S
C597 C596 1.386 . S
C597 C601 1.393 . S
C598 H590 0.950 . S
C598 C596 1.391 . S
C598 C599 1.400 . S
C599 C598 1.400 . S
C599 C600 1.398 . S
C599 C605 1.491 . S
C600 H591 0.950 . S
C600 C599 1.398 . S
C600 C601 1.391 . S
C601 H589 0.950 . S
C601 C597 1.393 . S
C601 C600 1.391 . S
C602 H592 0.950 . S
C602 C603 1.386 . S
C602 C604 1.391 . S
C603 C602 1.386 . S
C603 C607 1.393 . S
C604 H593 0.950 . S
C604 C602 1.391 . S
C604 C605 1.400 . S
C605 C599 1.491 . S
C605 C604 1.400 . S
C605 C606 1.398 . S
C606 H594 0.950 . S
C606 C605 1.398 . S
C606 C607 1.391 . S
C607 H595 0.950 . S
C607 C603 1.393 . S
C607 C606 1.391 . S
H608 C616 0.950 . S
H609 C621 0.950 . S
H610 C618 0.950 . S
H611 C620 0.950 . S
H612 C622 0.950 . S
H613 C624 0.950 . S
H614 C626 0.950 . S
H615 C627 0.950 . S
C616 H608 0.950 . S
C616 C617 1.386 . S
C616 C618 1.391 . S
C617 C616 1.386 . S
C617 C621 1.393 . S
C618 H610 0.950 . S
C618 C616 1.391 . S
C618 C619 1.400 . S
C619 C618 1.400 . S
C619 C620 1.398 . S
C619 C625 1.491 . S
C620 H611 0.950 . S
C620 C619 1.398 . S
C620 C621 1.391 . S
C621 H609 0.950 . S
C621 C617 1.393 . S
C621 C620 1.391 . S
C622 H612 0.950 . S
C622 C623 1.386 . S
C622 C624 1.391 . S
C623 C622 1.386 . S
C623 C627 1.393 . S
C624 H613 0.950 . S
C624 C622 1.391 . S
C624 C625 1.400 . S
C625 C619 1.491 . S
C625 C624 1.400 . S
C625 C626 1.398 . S
C626 H614 0.950 . S
C626 C625 1.398 . S
C626 C627 1.391 . S
C627 H615 0.950 . S
C627 C623 1.393 . S
C627 C626 1.391 . S
H628 C636 0.950 . S
H629 C641 0.950 . S
H630 C638 0.950 . S
H631 C640 0.950 . S
H632 C642 0.950 . S
H633 C644 0.950 . S
H634 C646 0.950 . S
H635 C647 0.950 . S
C636 H628 0.950 . S
C636 C637 1.386 . S
C636 C638 1.391 . S
C637 C636 1.386 . S
C637 C641 1.393 . S
C638 H630 0.950 . S
C638 C636 1.391 . S
C638 C639 1.400 . S
C639 C638 1.400 . S
C639 C640 1.398 . S
C639 C645 1.491 . S
C640 H631 0.950 . S
C640 C639 1.398 . S
C640 C641 1.391 . S
C641 H629 0.950 . S
C641 C637 1.393 . S
C641 C640 1.391 . S
C642 H632 0.950 . S
C642 C643 1.386 . S
C642 C644 1.391 . S
C643 C642 1.386 . S
C643 C647 1.393 . S
C644 H633 0.950 . S
C644 C642 1.391 . S
C644 C645 1.400 . S
C645 C639 1.491 . S
C645 C644 1.400 . S
C645 C646 1.398 . S
C646 H634 0.950 . S
C646 C645 1.398 . S
C646 C647 1.391 . S
C647 H635 0.950 . S
C647 C643 1.393 . S
C647 C646 1.391 . S
H648 C656 0.950 . S
H649 C661 0.950 . S
H650 C658 0.950 . S
H651 C660 0.950 . S
H652 C662 0.950 . S
H653 C664 0.950 . S
H654 C666 0.950 . S
H655 C667 0.950 . S
C656 H648 0.950 . S
C656 C657 1.386 . S
C656 C658 1.391 . S
C657 C656 1.386 . S
C657 C661 1.393 . S
C658 H650 0.950 . S
C658 C656 1.391 . S
C658 C659 1.400 . S
C659 C658 1.400 . S
C659 C660 1.398 . S
C659 C665 1.491 . S
C660 H651 0.950 . S
C660 C659 1.398 . S
C660 C661 1.391 . S
C661 H649 0.950 . S
C661 C657 1.393 . S
C661 C660 1.391 . S
C662 H652 0.950 . S
C662 C663 1.386 . S
C662 C664 1.391 . S
C663 C662 1.386 . S
C663 C667 1.393 . S
C664 H653 0.950 . S
C664 C662 1.391 . S
C664 C665 1.400 . S
C665 C659 1.491 . S
C665 C664 1.400 . S
C665 C666 1.398 . S
C666 H654 0.950 . S
C666 C665 1.398 . S
C666 C667 1.391 . S
C667 H655 0.950 . S
C667 C663 1.393 . S
C667 C666 1.391 . S
H668 C676 0.950 . S
H669 C681 0.950 . S
H670 C678 0.950 . S
H671 C680 0.950 . S
H672 C682 0.950 . S
H673 C684 0.950 . S
H674 C686 0.950 . S
H675 C687 0.950 . S
C676 H668 0.950 . S
C676 C677 1.386 . S
C676 C678 1.391 . S
C677 C676 1.386 . S
C677 C681 1.393 . S
C678 H670 0.950 . S
C678 C676 1.391 . S
C678 C679 1.400 . S
C679 C678 1.400 . S
C679 C680 1.398 . S
C679 C685 1.491 . S
C680 H671 0.950 . S
C680 C679 1.398 . S
C680 C681 1.391 . S
C681 H669 0.950 . S
C681 C677 1.393 . S
C681 C680 1.391 . S
C682 H672 0.950 . S
C682 C683 1.386 . S
C682 C684 1.391 . S
C683 C682 1.386 . S
C683 C687 1.393 . S
C684 H673 0.950 . S
C684 C682 1.391 . S
C684 C685 1.400 . S
C685 C679 1.491 . S
C685 C684 1.400 . S
C685 C686 1.398 . S
C686 H674 0.950 . S
C686 C685 1.398 . S
C686 C687 1.391 . S
C687 H675 0.950 . S
C687 C683 1.393 . S
C687 C686 1.391 . S
H688 C696 0.950 . S
H689 C701 0.950 . S
H690 C698 0.950 . S
H691 C700 0.950 . S
H692 C702 0.950 . S
H693 C704 0.950 . S
H694 C706 0.950 . S
H695 C707 0.950 . S
C696 H688 0.950 . S
C696 C697 1.386 . S
C696 C698 1.391 . S
C697 C696 1.386 . S
C697 C701 1.393 . S
C698 H690 0.950 . S
C698 C696 1.391 . S
C698 C699 1.400 . S
C699 C698 1.400 . S
C699 C700 1.398 . S
C699 C705 1.491 . S
C700 H691 0.950 . S
C700 C699 1.398 . S
C700 C701 1.391 . S
C701 H689 0.950 . S
C701 C697 1.393 . S
C701 C700 1.391 . S
C702 H692 0.950 . S
C702 C703 1.386 . S
C702 C704 1.391 . S
C703 C702 1.386 . S
C703 C707 1.393 . S
C704 H693 0.950 . S
C704 C702 1.391 . S
C704 C705 1.400 . S
C705 C699 1.491 . S
C705 C704 1.400 . S
C705 C706 1.398 . S
C706 H694 0.950 . S
C706 C705 1.398 . S
C706 C707 1.391 . S
C707 H695 0.950 . S
C707 C703 1.393 . S
C707 C706 1.391 . S
H708 C716 0.950 . S
H709 C721 0.950 . S
H710 C718 0.950 . S
H711 C720 0.950 . S
H712 C722 0.950 . S
H713 C724 0.950 . S
H714 C726 0.950 . S
H715 C727 0.950 . S
C716 H708 0.950 . S
C716 C717 1.386 . S
C716 C718 1.391 . S
C717 C716 1.386 . S
C717 C721 1.393 . S
C718 H710 0.950 . S
C718 C716 1.391 . S
C718 C719 1.400 . S
C719 C718 1.400 . S
C719 C720 1.398 . S
C719 C725 1.491 . S
C720 H711 0.950 . S
C720 C719 1.398 . S
C720 C721 1.391 . S
C721 H709 0.950 . S
C721 C717 1.393 . S
C721 C720 1.391 . S
C722 H712 0.950 . S
C722 C723 1.386 . S
C722 C724 1.391 . S
C723 C722 1.386 . S
C723 C727 1.393 . S
C724 H713 0.950 . S
C724 C722 1.391 . S
C724 C725 1.400 . S
C725 C719 1.491 . S
C725 C724 1.400 . S
C725 C726 1.398 . S
C726 H714 0.950 . S
C726 C725 1.398 . S
C726 C727 1.391 . S
C727 H715 0.950 . S
C727 C723 1.393 . S
C727 C726 1.391 . S
H728 C736 0.950 . S
H729 C741 0.950 . S
H730 C738 0.950 . S
H731 C740 0.950 . S
H732 C742 0.950 . S
H733 C744 0.950 . S
H734 C746 0.950 . S
H735 C747 0.950 . S
C736 H728 0.950 . S
C736 C737 1.386 . S
C736 C738 1.391 . S
C737 C736 1.386 . S
C737 C741 1.393 . S
C738 H730 0.950 . S
C738 C736 1.391 . S
C738 C739 1.400 . S
C739 C738 1.400 . S
C739 C740 1.398 . S
C739 C745 1.491 . S
C740 H731 0.950 . S
C740 C739 1.398 . S
C740 C741 1.391 . S
C741 H729 0.950 . S
C741 C737 1.393 . S
C741 C740 1.391 . S
C742 H732 0.950 . S
C742 C743 1.386 . S
C742 C744 1.391 . S
C743 C742 1.386 . S
C743 C747 1.393 . S
C744 H733 0.950 . S
C744 C742 1.391 . S
C744 C745 1.400 . S
C745 C739 1.491 . S
C745 C744 1.400 . S
C745 C746 1.398 . S
C746 H734 0.950 . S
C746 C745 1.398 . S
C746 C747 1.391 . S
C747 H735 0.950 . S
C747 C743 1.393 . S
C747 C746 1.391 . S
H748 C756 0.950 . S
H749 C761 0.950 . S
H750 C758 0.950 . S
H751 C760 0.950 . S
H752 C762 0.950 . S
H753 C764 0.950 . S
H754 C766 0.950 . S
H755 C767 0.950 . S
C756 H748 0.950 . S
C756 C757 1.386 . S
C756 C758 1.391 . S
C757 C756 1.386 . S
C757 C761 1.393 . S
C758 H750 0.950 . S
C758 C756 1.391 . S
C758 C759 1.400 . S
C759 C758 1.400 . S
C759 C760 1.398 . S
C759 C765 1.491 . S
C760 H751 0.950 . S
C760 C759 1.398 . S
C760 C761 1.391 . S
C761 H749 0.950 . S
C761 C757 1.393 . S
C761 C760 1.391 . S
C762 H752 0.950 . S
C762 C763 1.386 . S
C762 C764 1.391 . S
C763 C762 1.386 . S
C763 C767 1.393 . S
C764 H753 0.950 . S
C764 C762 1.391 . S
C764 C765 1.400 . S
C765 C759 1.491 . S
C765 C764 1.400 . S
C765 C766 1.398 . S
C766 H754 0.950 . S
C766 C765 1.398 . S
C766 C767 1.391 . S
C767 H755 0.950 . S
C767 C763 1.393 . S
C767 C766 1.391 . S
H768 C776 0.950 . S
H769 C781 0.950 . S
H770 C778 0.950 . S
H771 C780 0.950 . S
H772 C782 0.950 . S
H773 C784 0.950 . S
H774 C786 0.950 . S
H775 C787 0.950 . S
C776 H768 0.950 . S
C776 C777 1.386 . S
C776 C778 1.391 . S
C777 C776 1.386 . S
C777 C781 1.393 . S
C778 H770 0.950 . S
C778 C776 1.391 . S
C778 C779 1.400 . S
C779 C778 1.400 . S
C779 C780 1.398 . S
C779 C785 1.491 . S
C780 H771 0.950 . S
C780 C779 1.398 . S
C780 C781 1.391 . S
C781 H769 0.950 . S
C781 C777 1.393 . S
C781 C780 1.391 . S
C782 H772 0.950 . S
C782 C783 1.386 . S
C782 C784 1.391 . S
C783 C782 1.386 . S
C783 C787 1.393 . S
C784 H773 0.950 . S
C784 C782 1.391 . S
C784 C785 1.400 . S
C785 C779 1.491 . S
C785 C784 1.400 . S
C785 C786 1.398 . S
C786 H774 0.950 . S
C786 C785 1.398 . S
C786 C787 1.391 . S
C787 H775 0.950 . S
C787 C783 1.393 . S
C787 C786 1.391 . S
H788 C796 0.950 . S
H789 C801 0.950 . S
H790 C798 0.950 . S
H791 C800 0.950 . S
H792 C802 0.950 . S
H793 C804 0.950 . S
H794 C806 0.950 . S
H795 C807 0.950 . S
C796 H788 0.950 . S
C796 C797 1.386 . S
C796 C798 1.391 . S
C797 C796 1.386 . S
C797 C801 1.393 . S
C798 H790 0.950 . S
C798 C796 1.391 . S
C798 C799 1.400 . S
C799 C798 1.400 . S
C799 C800 1.398 . S
C799 C805 1.491 . S
C800 H791 0.950 . S
C800 C799 1.398 . S
C800 C801 1.391 . S
C801 H789 0.950 . S
C801 C797 1.393 . S
C801 C800 1.391 . S
C802 H792 0.950 . S
C802 C803 1.386 . S
C802 C804 1.391 . S
C803 C802 1.386 . S
C803 C807 1.393 . S
C804 H793 0.950 . S
C804 C802 1.391 . S
C804 C805 1.400 . S
C805 C799 1.491 . S
C805 C804 1.400 . S
C805 C806 1.398 . S
C806 H794 0.950 . S
C806 C805 1.398 . S
C806 C807 1.391 . S
C807 H795 0.950 . S
C807 C803 1.393 . S
C807 C806 1.391 . S
H808 C816 0.950 . S
H809 C821 0.950 . S
H810 C818 0.950 . S
H811 C820 0.950 . S
H812 C822 0.950 . S
H813 C824 0.950 . S
H814 C826 0.950 . S
H815 C827 0.950 . S
C816 H808 0.950 . S
C816 C817 1.386 . S
C816 C818 1.391 . S
C817 C816 1.386 . S
C817 C821 1.393 . S
C818 H810 0.950 . S
C818 C816 1.391 . S
C818 C819 1.400 . S
C819 C818 1.400 . S
C819 C820 1.398 . S
C819 C825 1.491 . S
C820 H811 0.950 . S
C820 C819 1.398 . S
C820 C821 1.391 . S
C821 H809 0.950 . S
C821 C817 1.393 . S
C821 C820 1.391 . S
C822 H812 0.950 . S
C822 C823 1.386 . S
C822 C824 1.391 . S
C823 C822 1.386 . S
C823 C827 1.393 . S
C824 H813 0.950 . S
C824 C822 1.391 . S
C824 C825 1.400 . S
C825 C819 1.491 . S
C825 C824 1.400 . S
C825 C826 1.398 . S
C826 H814 0.950 . S
C826 C825 1.398 . S
C826 C827 1.391 . S
C827 H815 0.950 . S
C827 C823 1.393 . S
C827 C826 1.391 . S
H828 C836 0.950 . S
H829 C841 0.950 . S
H830 C838 0.950 . S
H831 C840 0.950 . S
H832 C842 0.950 . S
H833 C844 0.950 . S
H834 C846 0.950 . S
H835 C847 0.950 . S
C836 H828 0.950 . S
C836 C837 1.386 . S
C836 C838 1.391 . S
C837 C836 1.386 . S
C837 C841 1.393 . S
C838 H830 0.950 . S
C838 C836 1.391 . S
C838 C839 1.400 . S
C839 C838 1.400 . S
C839 C840 1.398 . S
C839 C845 1.491 . S
C840 H831 0.950 . S
C840 C839 1.398 . S
C840 C841 1.391 . S
C841 H829 0.950 . S
C841 C837 1.393 . S
C841 C840 1.391 . S
C842 H832 0.950 . S
C842 C843 1.386 . S
C842 C844 1.391 . S
C843 C842 1.386 . S
C843 C847 1.393 . S
C844 H833 0.950 . S
C844 C842 1.391 . S
C844 C845 1.400 . S
C845 C839 1.491 . S
C845 C844 1.400 . S
C845 C846 1.398 . S
C846 H834 0.950 . S
C846 C845 1.398 . S
C846 C847 1.391 . S
C847 H835 0.950 . S
C847 C843 1.393 . S
C847 C846 1.391 . S
C377 C1 1.527 . S
C383 C307 1.486 . S
C397 C67 1.306 . S
C403 C310 1.269 . S
C423 C346 1.745 . S
C417 C97 1.764 . S
C437 C133 1.664 . S
C443 C366 1.657 . S
C463 C320 1.696 . S
C457 C25 1.731 . S
C483 C297 1.510 . S
C477 C37 1.532 . S
C503 C350 1.539 . S
C497 C103 1.669 . S
C523 C330 1.375 . S
C517 C109 1.453 . S
C537 C31 1.381 . S
C543 C360 1.333 . S
C563 C326 1.593 . S
C557 C73 1.623 . S
C577 C139 1.658 . S
C583 C292 1.612 . S
C597 C61 1.332 . S
C603 C340 1.315 . S
C623 C306 1.499 . S
C617 C175 1.512 . S
C637 C181 1.286 . S
C643 C312 1.253 . S
C657 C247 1.769 . S
C663 C347 1.758 . S
C677 C277 1.658 . S
C683 C367 1.651 . S
C697 C145 1.713 . S
C703 C317 1.696 . S
C723 C300 1.525 . S
C717 C211 1.538 . S
C743 C352 1.526 . S
C737 C217 1.645 . S
C763 C332 1.391 . S
C757 C283 1.457 . S
C777 C169 1.358 . S
C783 C357 1.329 . S
C803 C327 1.610 . S
C797 C241 1.616 . S
C823 C290 1.574 . S
C817 C253 1.643 . S
C837 C205 1.344 . S
C843 C337 1.302 . S
