# Generated by pormake.
# Topology rtl, (3,6)-cn, num edge types: 1
# Building blocks:
#     Node 0, Type 0, BuildingBlock: INOVEN_clean_linker_0, # of connection points: 3
#     Node 1, Type 0, BuildingBlock: INOVEN_clean_linker_0, # of connection points: 3
#     Node 2, Type 0, BuildingBlock: INOVEN_clean_linker_0, # of connection points: 3
#     Node 3, Type 0, BuildingBlock: INOVEN_clean_linker_0, # of connection points: 3
#     Node 4, Type 1, BuildingBlock: FUNLAD_clean_sbu_0, # of connection points: 6
#     Node 5, Type 1, BuildingBlock: FUNLAD_clean_sbu_0, # of connection points: 6
#     Edge 6, Type (0, 1), BuildingBlock: TEMPAE_clean_linker_10, # of connection points: 2
#     Edge 7, Type (0, 1), BuildingBlock: TEMPAE_clean_linker_10, # of connection points: 2
#     Edge 8, Type (0, 1), BuildingBlock: TEMPAE_clean_linker_10, # of connection points: 2
#     Edge 9, Type (0, 1), BuildingBlock: TEMPAE_clean_linker_10, # of connection points: 2
#     Edge 10, Type (0, 1), BuildingBlock: TEMPAE_clean_linker_10, # of connection points: 2
#     Edge 11, Type (0, 1), BuildingBlock: TEMPAE_clean_linker_10, # of connection points: 2
#     Edge 12, Type (0, 1), BuildingBlock: TEMPAE_clean_linker_10, # of connection points: 2
#     Edge 13, Type (0, 1), BuildingBlock: TEMPAE_clean_linker_10, # of connection points: 2
#     Edge 14, Type (0, 1), BuildingBlock: TEMPAE_clean_linker_10, # of connection points: 2
#     Edge 15, Type (0, 1), BuildingBlock: TEMPAE_clean_linker_10, # of connection points: 2
#     Edge 16, Type (0, 1), BuildingBlock: TEMPAE_clean_linker_10, # of connection points: 2
#     Edge 17, Type (0, 1), BuildingBlock: TEMPAE_clean_linker_10, # of connection points: 2
# Relax obj value: 0.003
# Max RMSD: 0.044
# Mean RMSD: 0.028
data_MOF--net-rtl--node1-FUNLAD_clean_sbu_0--node2-INOVEN_clean_linker_0--edge1-TEMPAE_clean_linker_10
_symmetry_space_group_name_H-M    P1
_symmetry_Int_Tables_number       1
_symmetry_cell_setting            triclinic
loop_
_symmetry_equiv_pos_as_xyz
'x, y, z'
_cell_length_a     40.665104
_cell_length_b     40.680424
_cell_length_c     21.410844
_cell_angle_alpha  91.288871
_cell_angle_beta   92.374415
_cell_angle_gamma 90.012049
loop_
_atom_site_label
_atom_site_type_symbol
_atom_site_fract_x
_atom_site_fract_y
_atom_site_fract_z
_atom_type_partial_charge
H0 H 0.18885 0.8228 0.90081 0.0
H1 H 0.12471 0.88697 0.00131 0.0
H2 H 0.18549 0.81776 0.10103 0.0
N3 N 0.21606 0.79427 -0.00124 0.0
N4 N 0.22454 0.77785 0.04523 0.0
C5 C 0.17908 0.83176 0.94432 0.0
C6 C 0.1543 0.8558 0.94387 0.0
C7 C 0.19078 0.8183 0.00075 0.0
C8 C 0.17719 0.82867 0.05748 0.0
C9 C 0.15262 0.85295 0.05767 0.0
C10 C 0.14234 0.867 0.00097 0.0
H11 H 0.6801 0.69188 0.63654 0.0
H12 H 0.62177 0.61996 0.53184 0.0
H13 H 0.68541 0.68435 0.43638 0.0
N14 N 0.71129 0.71473 0.54083 0.0
N15 N 0.72849 0.72056 0.49542 0.0
C16 C 0.67239 0.6801 0.59245 0.0
C17 C 0.64829 0.6553 0.59067 0.0
C18 C 0.68657 0.69 0.53721 0.0
C19 C 0.67564 0.67574 0.47936 0.0
C20 C 0.65138 0.65112 0.47692 0.0
C21 C 0.63897 0.64034 0.53303 0.0
H22 H 0.82549 0.18721 0.88874 0.0
H23 H 0.8833 0.11681 0.99178 0.0
H24 H 0.82085 0.18405 0.08896 0.0
N25 N 0.7953 0.2127 0.98447 0.0
N26 N 0.77792 0.22007 0.02934 0.0
C27 C 0.83316 0.17619 0.93259 0.0
C28 C 0.85681 0.15108 0.93368 0.0
C29 C 0.8194 0.18751 0.98808 0.0
C30 C 0.83031 0.17436 0.04574 0.0
C31 C 0.85438 0.14957 0.0475 0.0
C32 C 0.86628 0.13731 0.99104 0.0
H33 H 0.32409 0.31867 0.39486 0.0
H34 H 0.38356 0.38752 0.50499 0.0
H35 H 0.31164 0.32883 0.59292 0.0
N36 N 0.29024 0.29645 0.48701 0.0
N37 N 0.28049 0.28151 0.53301 0.0
C38 C 0.33096 0.33041 0.43943 0.0
C39 C 0.35605 0.35418 0.44341 0.0
C40 C 0.31521 0.32083 0.49315 0.0
C41 C 0.32416 0.33571 0.55149 0.0
C42 C 0.3486 0.36017 0.55593 0.0
C43 C 0.36445 0.36894 0.50174 0.0
C44 C 0.03746 0.96748 0.4052 0.0
N45 N 0.05693 0.05844 0.49624 0.0
C46 C 0.08927 0.05014 0.5028 0.0
C47 C 0.11357 0.07442 0.5055 0.0
C48 C 0.10468 0.10769 0.5004 0.0
C49 C 0.07106 0.11546 0.49275 0.0
C50 C 0.04752 0.0904 0.49125 0.0
Zn51 Zn 0.0221 0.02201 0.4953 0.0
C52 C 0.96674 0.03396 0.4047 0.0
N53 N 0.95039 0.94486 0.49372 0.0
C54 C 0.95947 0.91273 0.48947 0.0
C55 C 0.91826 0.95351 0.49848 0.0
C56 C 0.89385 0.92944 0.4997 0.0
C57 C 0.9024 0.89601 0.49515 0.0
C58 C 0.93579 0.88784 0.48974 0.0
Zn59 Zn 0.98531 0.98119 0.49398 0.0
O60 O 0.04761 0.99538 0.42588 0.0
C61 C 0.04041 0.96923 0.58485 0.0
O62 O 0.01102 0.95556 0.42484 0.0
H63 H 0.91151 0.97918 0.50173 0.0
H64 H 0.09629 0.0246 0.50653 0.0
H65 H 0.98515 0.90634 0.4858 0.0
O66 O 0.04949 0.99715 0.5664 0.0
O67 O 0.01382 0.95651 0.56247 0.0
H68 H 0.02169 0.09653 0.48621 0.0
O69 O 0.96047 0.00762 0.56466 0.0
O70 O 0.99618 0.04808 0.56327 0.0
O71 O 0.95724 0.00636 0.42408 0.0
O72 O 0.99382 0.04619 0.42577 0.0
C73 C 0.97025 0.03583 0.58426 0.0
H74 H 0.13903 0.06712 0.51253 0.0
H75 H 0.06292 0.14062 0.48755 0.0
H76 H 0.86858 0.93703 0.50498 0.0
H77 H 0.94359 0.86249 0.48513 0.0
C78 C 0.46659 0.4697 0.9237 0.0
N79 N 0.55806 0.44624 0.00853 0.0
C80 C 0.5488 0.41413 0.00985 0.0
C81 C 0.57244 0.38923 0.01048 0.0
C82 C 0.60601 0.39732 0.00899 0.0
C83 C 0.61475 0.4307 0.00635 0.0
C84 C 0.59033 0.45483 0.00656 0.0
Zn85 Zn 0.52301 0.48227 0.01251 0.0
C86 C 0.53593 0.53725 0.92771 0.0
N87 N 0.45011 0.55776 0.02367 0.0
C88 C 0.41819 0.54877 0.02965 0.0
C89 C 0.4588 0.58998 0.02083 0.0
C90 C 0.4349 0.61459 0.02356 0.0
C91 C 0.40171 0.60606 0.02998 0.0
C92 C 0.39358 0.57257 0.03331 0.0
Zn93 Zn 0.48535 0.52192 0.01887 0.0
O94 O 0.49485 0.45864 0.93972 0.0
C95 C 0.47256 0.4672 0.10432 0.0
O96 O 0.45614 0.49584 0.94979 0.0
H97 H 0.48431 0.59664 0.01615 0.0
H98 H 0.52302 0.40779 0.01134 0.0
H99 H 0.41175 0.52304 0.03174 0.0
O100 O 0.49764 0.45519 0.07877 0.0
O101 O 0.46249 0.49564 0.08947 0.0
H102 H 0.59721 0.48049 0.00565 0.0
O103 O 0.51495 0.54718 0.08687 0.0
O104 O 0.55082 0.50676 0.08589 0.0
O105 O 0.50919 0.54787 0.94926 0.0
O106 O 0.54754 0.50989 0.94579 0.0
C107 C 0.54182 0.53463 0.1071 0.0
H108 H 0.56444 0.36394 0.01344 0.0
H109 H 0.64021 0.43819 0.00402 0.0
H110 H 0.44238 0.63999 0.01983 0.0
H111 H 0.36848 0.56473 0.03932 0.0
C112 C 0.23372 0.25563 0.47369 0.0
C113 C 0.25509 0.25756 0.52684 0.0
C114 C 0.20861 0.2319 0.46868 0.0
C115 C 0.20527 0.20927 0.51734 0.0
C116 C 0.2269 0.21115 0.57089 0.0
C117 C 0.2513 0.23562 0.57523 0.0
C118 C 0.18556 0.23115 0.41152 0.0
C119 C 0.22453 0.18711 0.62323 0.0
C120 C 0.12415 0.16445 0.53334 0.0
C121 C 0.13027 0.13403 0.5037 0.0
C122 C 0.14814 0.18932 0.53725 0.0
C123 C 0.17929 0.18348 0.51209 0.0
C124 C 0.18574 0.15288 0.48232 0.0
C125 C 0.16108 0.1287 0.47789 0.0
C126 C 0.14018 0.22182 0.56859 0.0
C127 C 0.2188 0.14558 0.45554 0.0
H128 H 0.23636 0.2729 0.43643 0.0
H129 H 0.2679 0.23735 0.6161 0.0
H130 H 0.18746 0.20714 0.38637 0.0
H131 H 0.15974 0.23374 0.42573 0.0
H132 H 0.19092 0.25103 0.37867 0.0
H133 H 0.24355 0.19164 0.6612 0.0
H134 H 0.1999 0.18873 0.64347 0.0
H135 H 0.22739 0.16162 0.60469 0.0
H136 H 0.10074 0.16874 0.55443 0.0
H137 H 0.16596 0.10563 0.45379 0.0
H138 H 0.14433 0.24223 0.5363 0.0
H139 H 0.1568 0.22599 0.6104 0.0
H140 H 0.11432 0.22297 0.58334 0.0
H141 H 0.22397 0.16339 0.41871 0.0
H142 H 0.22011 0.12031 0.43502 0.0
H143 H 0.23853 0.14845 0.49264 0.0
C144 C 0.25425 0.73215 0.09155 0.0
C145 C 0.25023 0.75425 0.04287 0.0
C146 C 0.2789 0.70799 0.09073 0.0
C147 C 0.3004 0.70643 0.04036 0.0
C148 C 0.29682 0.72921 0.99148 0.0
C149 C 0.27161 0.75274 0.99304 0.0
C150 C 0.28165 0.68388 0.14328 0.0
C151 C 0.31961 0.72869 0.93753 0.0
C152 C 0.38205 0.66201 0.06429 0.0
C153 C 0.37572 0.63184 0.0329 0.0
C154 C 0.35784 0.68656 0.06687 0.0
C155 C 0.32633 0.68067 0.03823 0.0
C156 C 0.31964 0.65023 0.00698 0.0
C157 C 0.34445 0.62633 0.00423 0.0
C158 C 0.36601 0.71885 0.1001 0.0
C159 C 0.28625 0.64291 0.97628 0.0
H160 H 0.23766 0.73355 0.12987 0.0
H161 H 0.26879 0.77007 0.95551 0.0
H162 H 0.27843 0.65843 0.12425 0.0
H163 H 0.30652 0.68534 0.16649 0.0
H164 H 0.26303 0.68846 0.17899 0.0
H165 H 0.31414 0.74873 0.90425 0.0
H166 H 0.34552 0.73118 0.95535 0.0
H167 H 0.31748 0.70479 0.91172 0.0
H168 H 0.40588 0.66639 0.0875 0.0
H169 H 0.3394 0.60342 0.97887 0.0
H170 H 0.34936 0.72295 0.13926 0.0
H171 H 0.36206 0.73943 0.06747 0.0
H172 H 0.39186 0.71979 0.11902 0.0
H173 H 0.26688 0.64579 0.01101 0.0
H174 H 0.28468 0.61764 0.9556 0.0
H175 H 0.28075 0.66071 0.93878 0.0
C176 C 0.75588 0.76859 0.54742 0.0
C177 C 0.75304 0.74543 0.49788 0.0
C178 C 0.78005 0.79329 0.54807 0.0
C179 C 0.80203 0.79453 0.49852 0.0
C180 C 0.79932 0.771 0.44881 0.0
C181 C 0.77462 0.74691 0.44897 0.0
C182 C 0.78187 0.81825 0.60138 0.0
C183 C 0.8225 0.77124 0.39553 0.0
C184 C 0.84556 0.87471 0.46669 0.0
C185 C 0.87666 0.86994 0.49611 0.0
C186 C 0.82094 0.85057 0.46784 0.0
C187 C 0.82767 0.82063 0.49823 0.0
C188 C 0.85901 0.81549 0.52764 0.0
C189 C 0.88301 0.84027 0.52665 0.0
C190 C 0.78773 0.85708 0.43635 0.0
C191 C 0.86721 0.78374 0.56001 0.0
H192 H 0.73901 0.76765 0.5852 0.0
H193 H 0.7722 0.72892 0.41093 0.0
H194 H 0.80651 0.81749 0.62554 0.0
H195 H 0.77852 0.84337 0.583 0.0
H196 H 0.76291 0.81393 0.63618 0.0
H197 H 0.81754 0.75075 0.36125 0.0
H198 H 0.82028 0.79483 0.37072 0.0
H199 H 0.84832 0.76931 0.41397 0.0
H200 H 0.8405 0.89723 0.442 0.0
H201 H 0.90669 0.83647 0.55045 0.0
H202 H 0.76807 0.8544 0.4703 0.0
H203 H 0.78278 0.83874 0.398 0.0
H204 H 0.78608 0.88208 0.4166 0.0
H205 H 0.85017 0.77995 0.59834 0.0
H206 H 0.89288 0.7834 0.57988 0.0
H207 H 0.86386 0.76268 0.52651 0.0
C208 C 0.75314 0.26779 0.97617 0.0
C209 C 0.75405 0.24552 0.02537 0.0
C210 C 0.72938 0.29279 0.97311 0.0
C211 C 0.70577 0.29525 0.01979 0.0
C212 C 0.70661 0.27273 0.06935 0.0
C213 C 0.731 0.24832 0.07175 0.0
C214 C 0.72963 0.31667 0.92013 0.0
C215 C 0.6816 0.27427 0.11952 0.0
C216 C 0.66168 0.3765 0.04496 0.0
C217 C 0.63172 0.3712 0.01121 0.0
C218 C 0.68608 0.35212 0.04769 0.0
C219 C 0.68024 0.32143 0.01682 0.0
C220 C 0.65004 0.31576 0.98302 0.0
C221 C 0.62629 0.34078 0.98019 0.0
C222 C 0.71811 0.3592 0.08373 0.0
C223 C 0.6428 0.28323 0.94991 0.0
H224 H 0.77116 0.26588 0.94039 0.0
H225 H 0.73191 0.23101 0.10955 0.0
H226 H 0.70592 0.31534 0.89263 0.0
H227 H 0.73224 0.34218 0.93913 0.0
H228 H 0.74995 0.31169 0.88813 0.0
H229 H 0.68538 0.25463 0.15433 0.0
H230 H 0.68296 0.29848 0.14438 0.0
H231 H 0.6564 0.27184 0.09797 0.0
H232 H 0.66598 0.39962 0.07008 0.0
H233 H 0.60351 0.33654 0.95313 0.0
H234 H 0.73907 0.35568 0.0527 0.0
H235 H 0.72148 0.34169 0.12243 0.0
H236 H 0.71915 0.38463 0.10373 0.0
H237 H 0.66116 0.27844 0.91392 0.0
H238 H 0.61781 0.28248 0.92688 0.0
H239 H 0.64488 0.26299 0.98373 0.0
C240 C 0.10296 0.87066 0.11428 0.0
C241 C 0.13686 0.86399 0.11596 0.0
C242 C 0.08805 0.88576 0.16512 0.0
C243 C 0.10723 0.89335 0.22013 0.0
C244 C 0.14096 0.88455 0.22403 0.0
C245 C 0.15551 0.87023 0.17153 0.0
C246 C 0.05209 0.89501 0.15871 0.0
C247 C 0.16189 0.89135 0.28274 0.0
C248 C 0.07576 0.96482 0.31732 0.0
C249 C 0.05668 0.94857 0.35997 0.0
C250 C 0.09311 0.94705 0.27247 0.0
C251 C 0.09209 0.91223 0.2717 0.0
C252 C 0.07405 0.89571 0.31663 0.0
C253 C 0.05608 0.91411 0.35964 0.0
C254 C 0.11136 0.96557 0.22429 0.0
C255 C 0.07318 0.85864 0.31845 0.0
H256 H 0.08814 0.86497 0.07216 0.0
H257 H 0.18168 0.86511 0.17329 0.0
H258 H 0.03823 0.88394 0.1965 0.0
H259 H 0.04946 0.92209 0.16348 0.0
H260 H 0.04057 0.8869 0.11298 0.0
H261 H 0.18634 0.87926 0.28109 0.0
H262 H 0.16574 0.91823 0.28908 0.0
H263 H 0.14924 0.88272 0.3243 0.0
H264 H 0.07622 0.99148 0.31767 0.0
H265 H 0.04174 0.90153 0.39339 0.0
H266 H 0.10027 0.95999 0.177 0.0
H267 H 0.13742 0.95757 0.22425 0.0
H268 H 0.1107 0.99261 0.23273 0.0
H269 H 0.05939 0.84866 0.27644 0.0
H270 H 0.06125 0.84972 0.36065 0.0
H271 H 0.09852 0.84854 0.31765 0.0
C272 C 0.59854 0.63681 0.64475 0.0
C273 C 0.63225 0.64444 0.64788 0.0
C274 C 0.58363 0.62151 0.69413 0.0
C275 C 0.60259 0.61468 0.74914 0.0
C276 C 0.63601 0.62461 0.75471 0.0
C277 C 0.6506 0.63913 0.70365 0.0
C278 C 0.54801 0.61105 0.68594 0.0
C279 C 0.65668 0.61866 0.81353 0.0
C280 C 0.55174 0.59148 0.88604 0.0
C281 C 0.55392 0.55709 0.88358 0.0
C282 C 0.56891 0.61073 0.84464 0.0
C283 C 0.58778 0.59509 0.79853 0.0
C284 C 0.59026 0.56034 0.79629 0.0
C285 C 0.57368 0.54177 0.83955 0.0
C286 C 0.56648 0.64772 0.84966 0.0
C287 C 0.60944 0.54272 0.74677 0.0
H288 H 0.58394 0.64178 0.6025 0.0
H289 H 0.67661 0.64501 0.70653 0.0
H290 H 0.54628 0.58386 0.68776 0.0
H291 H 0.53356 0.62134 0.72456 0.0
H292 H 0.5365 0.61904 0.64084 0.0
H293 H 0.68063 0.63181 0.81374 0.0
H294 H 0.64331 0.62666 0.85536 0.0
H295 H 0.66161 0.59196 0.81765 0.0
H296 H 0.53687 0.60336 0.92085 0.0
H297 H 0.57537 0.51516 0.83773 0.0
H298 H 0.55277 0.65719 0.80799 0.0
H299 H 0.59141 0.65888 0.8508 0.0
H300 H 0.55373 0.65605 0.89209 0.0
H301 H 0.59854 0.54818 0.69976 0.0
H302 H 0.60958 0.51564 0.75243 0.0
H303 H 0.63525 0.5516 0.74833 0.0
C304 C 0.90223 0.12945 0.11263 0.0
C305 C 0.86847 0.13667 0.10732 0.0
C306 C 0.91586 0.11365 0.16486 0.0
C307 C 0.89555 0.10595 0.21452 0.0
C308 C 0.86187 0.11497 0.21152 0.0
C309 C 0.84859 0.12995 0.15751 0.0
C310 C 0.95184 0.10423 0.16582 0.0
C311 C 0.83978 0.10808 0.26461 0.0
C312 C 0.92726 0.03538 0.31257 0.0
C313 C 0.94619 0.05219 0.3591 0.0
C314 C 0.90946 0.05266 0.26636 0.0
C315 C 0.90983 0.0875 0.26822 0.0
C316 C 0.92732 0.10452 0.31749 0.0
C317 C 0.94581 0.08663 0.36176 0.0
C318 C 0.89184 0.03363 0.21364 0.0
C319 C 0.92746 0.14161 0.32222 0.0
H320 H 0.91804 0.13556 0.07504 0.0
H321 H 0.82253 0.1355 0.1539 0.0
H322 H 0.96511 0.11601 0.20672 0.0
H323 H 0.95438 0.07722 0.17057 0.0
H324 H 0.96406 0.11154 0.12279 0.0
H325 H 0.81525 0.11983 0.25805 0.0
H326 H 0.8362 0.08117 0.26822 0.0
H327 H 0.85137 0.11705 0.30964 0.0
H328 H 0.92756 0.00872 0.31071 0.0
H329 H 0.96001 0.09961 0.39855 0.0
H330 H 0.90383 0.03846 0.1691 0.0
H331 H 0.86592 0.04185 0.20808 0.0
H332 H 0.89212 0.00671 0.22125 0.0
H333 H 0.94223 0.15166 0.28463 0.0
H334 H 0.93809 0.1508 0.36796 0.0
H335 H 0.90209 0.15133 0.31572 0.0
C336 C 0.36629 0.41015 0.61878 0.0
C337 C 0.35861 0.37648 0.61664 0.0
C338 C 0.38112 0.42502 0.67241 0.0
C339 C 0.38749 0.40603 0.72608 0.0
C340 C 0.37739 0.3727 0.72606 0.0
C341 C 0.36333 0.35819 0.67105 0.0
C342 C 0.39178 0.46055 0.6702 0.0
C343 C 0.38292 0.35195 0.78309 0.0
C344 C 0.46101 0.43288 0.82934 0.0
C345 C 0.44613 0.45234 0.87494 0.0
C346 C 0.44209 0.41722 0.78121 0.0
C347 C 0.40737 0.4204 0.77972 0.0
C348 C 0.39212 0.43905 0.82701 0.0
C349 C 0.41175 0.45524 0.87363 0.0
C350 C 0.45934 0.39817 0.73082 0.0
C351 C 0.35516 0.44223 0.8279 0.0
H352 H 0.36179 0.42471 0.57752 0.0
H353 H 0.35748 0.33218 0.66989 0.0
H354 H 0.38196 0.47486 0.70995 0.0
H355 H 0.41904 0.46203 0.67465 0.0
H356 H 0.38348 0.47232 0.62597 0.0
H357 H 0.3694 0.32823 0.77865 0.0
H358 H 0.40956 0.3466 0.78996 0.0
H359 H 0.37505 0.3654 0.82558 0.0
H360 H 0.4876 0.43068 0.83021 0.0
H361 H 0.40018 0.46997 0.90939 0.0
H362 H 0.45383 0.40938 0.68477 0.0
H363 H 0.45016 0.37249 0.72776 0.0
H364 H 0.48647 0.39768 0.73936 0.0
H365 H 0.34594 0.45613 0.78679 0.0
H366 H 0.34708 0.4551 0.87093 0.0
H367 H 0.34351 0.41755 0.82457 0.0
C368 C 0.65818 0.62991 0.36654 0.0
C369 C 0.63785 0.63688 0.41656 0.0
C370 C 0.64541 0.61456 0.31122 0.0
C371 C 0.61179 0.60536 0.30663 0.0
C372 C 0.59109 0.61293 0.35639 0.0
C373 C 0.60421 0.62913 0.41002 0.0
C374 C 0.66792 0.60774 0.25817 0.0
C375 C 0.55515 0.60325 0.3537 0.0
C376 C 0.56286 0.58699 0.15582 0.0
C377 C 0.56237 0.55255 0.15472 0.0
C378 C 0.58093 0.60457 0.20267 0.0
C379 C 0.5979 0.58723 0.25064 0.0
C380 C 0.59823 0.55239 0.24867 0.0
C381 C 0.58083 0.53543 0.20001 0.0
C382 C 0.58083 0.64168 0.20211 0.0
C383 C 0.6153 0.53304 0.29987 0.0
H384 H 0.68418 0.63574 0.37109 0.0
H385 H 0.58802 0.63539 0.44745 0.0
H386 H 0.67098 0.58083 0.25136 0.0
H387 H 0.65693 0.61734 0.21392 0.0
H388 H 0.69263 0.61898 0.26693 0.0
H389 H 0.54268 0.61015 0.39729 0.0
H390 H 0.54205 0.61527 0.31393 0.0
H391 H 0.55273 0.57628 0.34583 0.0
H392 H 0.54898 0.60021 0.12007 0.0
H393 H 0.5804 0.50877 0.19904 0.0
H394 H 0.60617 0.65141 0.21039 0.0
H395 H 0.56577 0.65142 0.24037 0.0
H396 H 0.57055 0.6512 0.15715 0.0
H397 H 0.64114 0.54137 0.30755 0.0
H398 H 0.61522 0.50619 0.28913 0.0
H399 H 0.60274 0.5374 0.34435 0.0
C400 C 0.85385 0.13342 0.82013 0.0
C401 C 0.87245 0.13904 0.87598 0.0
C402 C 0.86821 0.11883 0.76773 0.0
C403 C 0.90169 0.10919 0.77193 0.0
C404 C 0.92081 0.11595 0.82738 0.0
C405 C 0.90611 0.13125 0.87823 0.0
C406 C 0.84735 0.11279 0.70864 0.0
C407 C 0.95653 0.10583 0.83399 0.0
C408 C 0.93201 0.03819 0.67226 0.0
C409 C 0.95131 0.05459 0.63013 0.0
C410 C 0.91498 0.05578 0.71779 0.0
C411 C 0.91663 0.09058 0.7199 0.0
C412 C 0.93494 0.10728 0.67562 0.0
C413 C 0.95249 0.08903 0.63177 0.0
C414 C 0.89635 0.03708 0.76519 0.0
C415 C 0.93655 0.14436 0.67541 0.0
H416 H 0.82786 0.13936 0.818 0.0
H417 H 0.9209 0.13643 0.9206 0.0
H418 H 0.86014 0.12188 0.66761 0.0
H419 H 0.84341 0.08599 0.70107 0.0
H420 H 0.82294 0.12495 0.71059 0.0
H421 H 0.96802 0.11323 0.88016 0.0
H422 H 0.95856 0.07873 0.82823 0.0
H423 H 0.97081 0.11697 0.79686 0.0
H424 H 0.9311 0.01155 0.67095 0.0
H425 H 0.96701 0.10175 0.59849 0.0
H426 H 0.87047 0.04561 0.76565 0.0
H427 H 0.90757 0.0419 0.81266 0.0
H428 H 0.89645 0.01013 0.75559 0.0
H429 H 0.91141 0.15492 0.67623 0.0
H430 H 0.94887 0.15355 0.63384 0.0
H431 H 0.95033 0.15359 0.71803 0.0
C432 C 0.40732 0.37124 0.39201 0.0
C433 C 0.37343 0.36449 0.38728 0.0
C434 C 0.42338 0.3857 0.34297 0.0
C435 C 0.40536 0.39269 0.28694 0.0
C436 C 0.37171 0.38381 0.28004 0.0
C437 C 0.35603 0.37007 0.33057 0.0
C438 C 0.45923 0.39505 0.35245 0.0
C439 C 0.35194 0.39013 0.2203 0.0
C440 C 0.436 0.46415 0.19459 0.0
C441 C 0.4549 0.44805 0.15008 0.0
C442 C 0.41949 0.44634 0.23904 0.0
C443 C 0.42126 0.41155 0.2378 0.0
C444 C 0.43956 0.39512 0.19179 0.0
C445 C 0.45657 0.41362 0.14894 0.0
C446 C 0.40082 0.46479 0.28827 0.0
C447 C 0.44131 0.35806 0.18807 0.0
H448 H 0.42118 0.36611 0.43502 0.0
H449 H 0.32985 0.36499 0.32647 0.0
H450 H 0.47375 0.38444 0.31421 0.0
H451 H 0.4618 0.42218 0.35103 0.0
H452 H 0.47005 0.3866 0.3978 0.0
H453 H 0.32743 0.37802 0.21945 0.0
H454 H 0.34821 0.41696 0.21526 0.0
H455 H 0.36542 0.38119 0.17923 0.0
H456 H 0.43473 0.49078 0.1956 0.0
H457 H 0.47085 0.4011 0.11398 0.0
H458 H 0.41133 0.45905 0.33544 0.0
H459 H 0.3747 0.45687 0.28642 0.0
H460 H 0.4017 0.49184 0.28246 0.0
H461 H 0.45391 0.34865 0.23098 0.0
H462 H 0.45473 0.34905 0.14691 0.0
H463 H 0.41612 0.34748 0.1854 0.0
C464 C 0.15934 0.876 0.8341 0.0
C465 C 0.13977 0.86899 0.88461 0.0
C466 C 0.14562 0.89067 0.78017 0.0
C467 C 0.11181 0.89913 0.77755 0.0
C468 C 0.09185 0.89132 0.82765 0.0
C469 C 0.10592 0.8758 0.87983 0.0
C470 C 0.16738 0.89774 0.72665 0.0
C471 C 0.05574 0.90022 0.82708 0.0
C472 C 0.07928 0.9687 0.67786 0.0
C473 C 0.06077 0.95141 0.63135 0.0
C474 C 0.09706 0.95192 0.72474 0.0
C475 C 0.09707 0.91708 0.72367 0.0
C476 C 0.07988 0.89957 0.67466 0.0
C477 C 0.06143 0.91697 0.62962 0.0
C478 C 0.11434 0.97145 0.77718 0.0
C479 C 0.08015 0.86246 0.67086 0.0
H480 H 0.18549 0.87084 0.83728 0.0
H481 H 0.09033 0.86946 0.91761 0.0
H482 H 0.15589 0.88812 0.68199 0.0
H483 H 0.17023 0.92468 0.72217 0.0
H484 H 0.19222 0.88668 0.73328 0.0
H485 H 0.04383 0.89294 0.87045 0.0
H486 H 0.05278 0.92716 0.82187 0.0
H487 H 0.04248 0.88807 0.78657 0.0
H488 H 0.07875 0.99536 0.67906 0.0
H489 H 0.04752 0.90363 0.59291 0.0
H490 H 0.14042 0.96372 0.7828 0.0
H491 H 0.10249 0.96657 0.82183 0.0
H492 H 0.11357 0.99833 0.76918 0.0
H493 H 0.10567 0.85308 0.67708 0.0
H494 H 0.06938 0.85283 0.62553 0.0
H495 H 0.06575 0.85249 0.70904 0.0
loop_
_geom_bond_atom_site_label_1
_geom_bond_atom_site_label_2
_geom_bond_distance
_geom_bond_site_symmetry_2
_ccdc_geom_bond_type
H0 C5 0.929 . S
H1 C10 0.931 . S
H2 C8 0.930 . S
N3 N4 1.234 1_556 S
N3 C7 1.453 1_556 S
N4 N3 1.234 1_554 S
C5 H0 0.929 . S
C5 C6 1.373 . S
C5 C7 1.368 1_556 S
C6 C5 1.373 . S
C6 C10 1.397 1_556 S
C7 N3 1.453 1_554 S
C7 C5 1.368 1_554 S
C7 C8 1.373 . S
C8 H2 0.930 . S
C8 C7 1.373 . S
C8 C9 1.371 . S
C9 C8 1.371 . S
C9 C10 1.383 . S
C10 H1 0.931 . S
C10 C6 1.397 1_554 S
C10 C9 1.383 . S
H11 C16 0.929 . S
H12 C21 0.931 . S
H13 C19 0.930 . S
N14 N15 1.234 . S
N14 C18 1.453 . S
N15 N14 1.234 . S
C16 H11 0.929 . S
C16 C17 1.373 . S
C16 C18 1.368 . S
C17 C16 1.373 . S
C17 C21 1.397 . S
C18 N14 1.453 . S
C18 C16 1.368 . S
C18 C19 1.373 . S
C19 H13 0.930 . S
C19 C18 1.373 . S
C19 C20 1.371 . S
C20 C19 1.371 . S
C20 C21 1.383 . S
C21 H12 0.931 . S
C21 C17 1.397 . S
C21 C20 1.383 . S
H22 C27 0.929 . S
H23 C32 0.931 . S
H24 C30 0.930 . S
N25 N26 1.234 1_556 S
N25 C29 1.453 . S
N26 N25 1.234 1_554 S
C27 H22 0.929 . S
C27 C28 1.373 . S
C27 C29 1.368 . S
C28 C27 1.373 . S
C28 C32 1.397 1_556 S
C29 N25 1.453 . S
C29 C27 1.368 . S
C29 C30 1.373 1_556 S
C30 H24 0.930 . S
C30 C29 1.373 1_554 S
C30 C31 1.371 . S
C31 C30 1.371 . S
C31 C32 1.383 . S
C32 H23 0.931 . S
C32 C28 1.397 1_554 S
C32 C31 1.383 . S
H33 C38 0.929 . S
H34 C43 0.931 . S
H35 C41 0.930 . S
N36 N37 1.234 . S
N36 C40 1.453 . S
N37 N36 1.234 . S
C38 H33 0.929 . S
C38 C39 1.373 . S
C38 C40 1.368 . S
C39 C38 1.373 . S
C39 C43 1.397 . S
C40 N36 1.453 . S
C40 C38 1.368 . S
C40 C41 1.373 . S
C41 H35 0.930 . S
C41 C40 1.373 . S
C41 C42 1.371 . S
C42 C41 1.371 . S
C42 C43 1.383 . S
C43 H34 0.931 . S
C43 C39 1.397 . S
C43 C42 1.383 . S
C44 O60 1.251 1_565 S
C44 O62 1.254 . S
N45 C46 1.333 . S
N45 C50 1.307 . S
N45 Zn51 2.020 . S
C46 N45 1.333 . S
C46 C47 1.379 . S
C46 H64 0.952 . S
C47 C46 1.379 . S
C47 C48 1.390 . S
C47 H74 0.949 . S
C48 C47 1.390 . S
C48 C49 1.357 . S
C49 C48 1.357 . S
C49 C50 1.370 . S
C49 H75 0.950 . S
C50 N45 1.307 . S
C50 C49 1.370 . S
C50 H68 0.948 . S
Zn51 N45 2.020 . S
Zn51 O60 2.039 . S
Zn51 O66 2.028 1_545 S
Zn51 O70 2.025 1_455 S
Zn51 O72 2.024 1_455 S
C52 O71 1.246 . S
C52 O72 1.249 . S
N53 C54 1.307 . S
N53 C55 1.333 . S
N53 Zn59 2.020 . S
C54 N53 1.307 . S
C54 C58 1.370 . S
C54 H65 0.948 . S
C55 N53 1.333 . S
C55 C56 1.379 . S
C55 H63 0.952 . S
C56 C55 1.379 . S
C56 C57 1.390 . S
C56 H76 0.949 . S
C57 C56 1.390 . S
C57 C58 1.357 . S
C58 C54 1.370 . S
C58 C57 1.357 . S
C58 H77 0.950 . S
Zn59 N53 2.020 . S
Zn59 O62 2.025 1_655 S
Zn59 O67 2.024 1_655 S
Zn59 O69 2.039 1_565 S
Zn59 O71 2.034 1_565 S
O60 C44 1.251 1_545 S
O60 Zn51 2.039 . S
C61 O66 1.253 . S
C61 O67 1.249 . S
O62 C44 1.254 . S
O62 Zn59 2.025 1_455 S
H63 C55 0.952 . S
H64 C46 0.952 . S
H65 C54 0.948 . S
O66 Zn51 2.028 1_565 S
O66 C61 1.253 . S
O67 Zn59 2.024 1_455 S
O67 C61 1.249 . S
H68 C50 0.948 . S
O69 Zn59 2.039 1_545 S
O69 C73 1.251 . S
O70 Zn51 2.025 1_655 S
O70 C73 1.254 . S
O71 C52 1.246 . S
O71 Zn59 2.034 1_545 S
O72 Zn51 2.024 1_655 S
O72 C52 1.249 . S
C73 O69 1.251 . S
C73 O70 1.254 . S
H74 C47 0.949 . S
H75 C49 0.950 . S
H76 C56 0.949 . S
H77 C58 0.950 . S
C78 O94 1.251 . S
C78 O96 1.254 . S
N79 C80 1.333 . S
N79 C84 1.307 . S
N79 Zn85 2.020 . S
C80 N79 1.333 . S
C80 C81 1.379 . S
C80 H98 0.952 1_554 S
C81 C80 1.379 . S
C81 C82 1.390 . S
C81 H108 0.949 1_554 S
C82 C81 1.390 . S
C82 C83 1.357 . S
C83 C82 1.357 . S
C83 C84 1.370 . S
C83 H109 0.950 . S
C84 N79 1.307 . S
C84 C83 1.370 . S
C84 H102 0.948 . S
Zn85 N79 2.020 . S
Zn85 O94 2.039 1_554 S
Zn85 O100 2.034 . S
Zn85 O104 2.025 . S
Zn85 O106 2.024 1_554 S
C86 O105 1.246 . S
C86 O106 1.249 . S
N87 C88 1.307 . S
N87 C89 1.333 . S
N87 Zn93 2.020 . S
C88 N87 1.307 . S
C88 C92 1.370 . S
C88 H99 0.945 1_554 S
C89 N87 1.333 . S
C89 C90 1.379 . S
C89 H97 0.952 . S
C90 C89 1.379 . S
C90 C91 1.390 . S
C90 H110 0.949 . S
C91 C90 1.390 . S
C91 C92 1.357 . S
C92 C88 1.370 . S
C92 C91 1.357 . S
C92 H111 0.950 . S
Zn93 N87 2.020 . S
Zn93 O96 2.025 1_554 S
Zn93 O101 2.024 . S
Zn93 O103 2.039 . S
Zn93 O105 2.034 1_554 S
O94 C78 1.251 . S
O94 Zn85 2.039 1_556 S
C95 O100 1.246 . S
C95 O101 1.249 . S
O96 C78 1.254 . S
O96 Zn93 2.025 1_556 S
H97 C89 0.952 . S
H98 C80 0.952 1_556 S
H99 C88 0.945 1_556 S
O100 Zn85 2.034 . S
O100 C95 1.246 . S
O101 Zn93 2.024 . S
O101 C95 1.249 . S
H102 C84 0.948 . S
O103 Zn93 2.039 . S
O103 C107 1.251 . S
O104 Zn85 2.025 . S
O104 C107 1.254 . S
O105 C86 1.246 . S
O105 Zn93 2.034 1_556 S
O106 Zn85 2.024 1_556 S
O106 C86 1.249 . S
C107 O103 1.251 . S
C107 O104 1.254 . S
H108 C81 0.949 1_556 S
H109 C83 0.950 . S
H110 C90 0.949 . S
H111 C92 0.950 . S
C112 C113 1.391 . S
C112 C114 1.394 . S
C112 H128 0.931 . S
C113 C112 1.391 . S
C113 C117 1.376 . S
C114 C112 1.394 . S
C114 C115 1.369 . S
C114 C118 1.531 . S
C115 C114 1.369 . S
C115 C116 1.410 . S
C115 C123 1.503 . S
C116 C115 1.410 . S
C116 C117 1.392 . S
C116 C119 1.511 . S
C117 C113 1.376 . S
C117 C116 1.392 . S
C117 H129 0.929 . S
C118 C114 1.531 . S
C118 H130 0.960 . S
C118 H131 0.962 . S
C118 H132 0.960 . S
C119 C116 1.511 . S
C119 H133 0.961 . S
C119 H134 0.961 . S
C119 H135 0.961 . S
C120 C121 1.370 . S
C120 C122 1.363 . S
C120 H136 0.931 . S
C121 C120 1.370 . S
C121 C125 1.408 . S
C122 C120 1.363 . S
C122 C123 1.370 . S
C122 C126 1.524 . S
C123 C115 1.503 . S
C123 C122 1.370 . S
C123 C124 1.403 . S
C124 C123 1.403 . S
C124 C125 1.404 . S
C124 C127 1.539 . S
C125 C121 1.408 . S
C125 C124 1.404 . S
C125 H137 0.930 . S
C126 C122 1.524 . S
C126 H138 0.956 . S
C126 H139 0.961 . S
C126 H140 0.961 . S
C127 C124 1.539 . S
C127 H141 0.958 . S
C127 H142 0.961 . S
C127 H143 0.960 . S
H128 C112 0.931 . S
H129 C117 0.929 . S
H130 C118 0.960 . S
H131 C118 0.962 . S
H132 C118 0.960 . S
H133 C119 0.961 . S
H134 C119 0.961 . S
H135 C119 0.961 . S
H136 C120 0.931 . S
H137 C125 0.930 . S
H138 C126 0.956 . S
H139 C126 0.961 . S
H140 C126 0.961 . S
H141 C127 0.958 . S
H142 C127 0.961 . S
H143 C127 0.960 . S
C144 C145 1.391 . S
C144 C146 1.394 . S
C144 H160 0.931 . S
C145 C144 1.391 . S
C145 C149 1.376 1_554 S
C146 C144 1.394 . S
C146 C147 1.369 . S
C146 C150 1.531 . S
C147 C146 1.369 . S
C147 C148 1.410 1_554 S
C147 C155 1.503 . S
C148 C147 1.410 1_556 S
C148 C149 1.392 . S
C148 C151 1.511 . S
C149 C145 1.376 1_556 S
C149 C148 1.392 . S
C149 H161 0.929 . S
C150 C146 1.531 . S
C150 H162 0.960 . S
C150 H163 0.962 . S
C150 H164 0.960 . S
C151 C148 1.511 . S
C151 H165 0.961 . S
C151 H166 0.961 . S
C151 H167 0.961 . S
C152 C153 1.370 . S
C152 C154 1.363 . S
C152 H168 0.931 . S
C153 C152 1.370 . S
C153 C157 1.408 1_554 S
C154 C152 1.363 . S
C154 C155 1.370 . S
C154 C158 1.524 . S
C155 C147 1.503 . S
C155 C154 1.370 . S
C155 C156 1.403 1_554 S
C156 C155 1.403 1_556 S
C156 C157 1.404 . S
C156 C159 1.539 . S
C157 C153 1.408 1_556 S
C157 C156 1.404 . S
C157 H169 0.930 . S
C158 C154 1.524 . S
C158 H170 0.956 . S
C158 H171 0.961 . S
C158 H172 0.961 . S
C159 C156 1.539 . S
C159 H173 0.958 . S
C159 H174 0.961 . S
C159 H175 0.960 . S
H160 C144 0.931 . S
H161 C149 0.929 . S
H162 C150 0.960 . S
H163 C150 0.962 . S
H164 C150 0.960 . S
H165 C151 0.961 . S
H166 C151 0.961 . S
H167 C151 0.961 . S
H168 C152 0.931 . S
H169 C157 0.930 . S
H170 C158 0.956 . S
H171 C158 0.961 . S
H172 C158 0.961 . S
H173 C159 0.958 . S
H174 C159 0.961 . S
H175 C159 0.960 . S
C176 C177 1.391 . S
C176 C178 1.394 . S
C176 H192 0.931 . S
C177 C176 1.391 . S
C177 C181 1.376 . S
C178 C176 1.394 . S
C178 C179 1.369 . S
C178 C182 1.531 . S
C179 C178 1.369 . S
C179 C180 1.410 . S
C179 C187 1.503 . S
C180 C179 1.410 . S
C180 C181 1.392 . S
C180 C183 1.511 . S
C181 C177 1.376 . S
C181 C180 1.392 . S
C181 H193 0.929 . S
C182 C178 1.531 . S
C182 H194 0.960 . S
C182 H195 0.962 . S
C182 H196 0.960 . S
C183 C180 1.511 . S
C183 H197 0.961 . S
C183 H198 0.961 . S
C183 H199 0.961 . S
C184 C185 1.370 . S
C184 C186 1.363 . S
C184 H200 0.931 . S
C185 C184 1.370 . S
C185 C189 1.408 . S
C186 C184 1.363 . S
C186 C187 1.370 . S
C186 C190 1.524 . S
C187 C179 1.503 . S
C187 C186 1.370 . S
C187 C188 1.403 . S
C188 C187 1.403 . S
C188 C189 1.404 . S
C188 C191 1.539 . S
C189 C185 1.408 . S
C189 C188 1.404 . S
C189 H201 0.930 . S
C190 C186 1.524 . S
C190 H202 0.956 . S
C190 H203 0.961 . S
C190 H204 0.961 . S
C191 C188 1.539 . S
C191 H205 0.958 . S
C191 H206 0.961 . S
C191 H207 0.960 . S
H192 C176 0.931 . S
H193 C181 0.929 . S
H194 C182 0.960 . S
H195 C182 0.962 . S
H196 C182 0.960 . S
H197 C183 0.961 . S
H198 C183 0.961 . S
H199 C183 0.961 . S
H200 C184 0.931 . S
H201 C189 0.930 . S
H202 C190 0.956 . S
H203 C190 0.961 . S
H204 C190 0.961 . S
H205 C191 0.958 . S
H206 C191 0.961 . S
H207 C191 0.960 . S
C208 C209 1.391 1_556 S
C208 C210 1.394 . S
C208 H224 0.931 . S
C209 C208 1.391 1_554 S
C209 C213 1.376 . S
C210 C208 1.394 . S
C210 C211 1.369 1_556 S
C210 C214 1.531 . S
C211 C210 1.369 1_554 S
C211 C212 1.410 . S
C211 C219 1.503 . S
C212 C211 1.410 . S
C212 C213 1.392 . S
C212 C215 1.511 . S
C213 C209 1.376 . S
C213 C212 1.392 . S
C213 H225 0.929 . S
C214 C210 1.531 . S
C214 H226 0.960 . S
C214 H227 0.962 . S
C214 H228 0.960 . S
C215 C212 1.511 . S
C215 H229 0.961 . S
C215 H230 0.961 . S
C215 H231 0.961 . S
C216 C217 1.370 . S
C216 C218 1.363 . S
C216 H232 0.931 . S
C217 C216 1.370 . S
C217 C221 1.408 1_554 S
C218 C216 1.363 . S
C218 C219 1.370 . S
C218 C222 1.524 . S
C219 C211 1.503 . S
C219 C218 1.370 . S
C219 C220 1.403 1_554 S
C220 C219 1.403 1_556 S
C220 C221 1.404 . S
C220 C223 1.539 . S
C221 C217 1.408 1_556 S
C221 C220 1.404 . S
C221 H233 0.930 . S
C222 C218 1.524 . S
C222 H234 0.956 . S
C222 H235 0.961 . S
C222 H236 0.961 . S
C223 C220 1.539 . S
C223 H237 0.958 . S
C223 H238 0.961 . S
C223 H239 0.960 . S
H224 C208 0.931 . S
H225 C213 0.929 . S
H226 C214 0.960 . S
H227 C214 0.962 . S
H228 C214 0.960 . S
H229 C215 0.961 . S
H230 C215 0.961 . S
H231 C215 0.961 . S
H232 C216 0.931 . S
H233 C221 0.930 . S
H234 C222 0.956 . S
H235 C222 0.961 . S
H236 C222 0.961 . S
H237 C223 0.958 . S
H238 C223 0.961 . S
H239 C223 0.960 . S
C240 C241 1.391 . S
C240 C242 1.394 . S
C240 H256 0.931 . S
C241 C240 1.391 . S
C241 C245 1.376 . S
C242 C240 1.394 . S
C242 C243 1.369 . S
C242 C246 1.531 . S
C243 C242 1.369 . S
C243 C244 1.410 . S
C243 C251 1.503 . S
C244 C243 1.410 . S
C244 C245 1.392 . S
C244 C247 1.511 . S
C245 C241 1.376 . S
C245 C244 1.392 . S
C245 H257 0.929 . S
C246 C242 1.531 . S
C246 H258 0.960 . S
C246 H259 0.962 . S
C246 H260 0.960 . S
C247 C244 1.511 . S
C247 H261 0.961 . S
C247 H262 0.961 . S
C247 H263 0.961 . S
C248 C249 1.370 . S
C248 C250 1.363 . S
C248 H264 0.931 . S
C249 C248 1.370 . S
C249 C253 1.408 . S
C250 C248 1.363 . S
C250 C251 1.370 . S
C250 C254 1.524 . S
C251 C243 1.503 . S
C251 C250 1.370 . S
C251 C252 1.403 . S
C252 C251 1.403 . S
C252 C253 1.404 . S
C252 C255 1.539 . S
C253 C249 1.408 . S
C253 C252 1.404 . S
C253 H265 0.930 . S
C254 C250 1.524 . S
C254 H266 0.956 . S
C254 H267 0.961 . S
C254 H268 0.961 . S
C255 C252 1.539 . S
C255 H269 0.958 . S
C255 H270 0.961 . S
C255 H271 0.960 . S
H256 C240 0.931 . S
H257 C245 0.929 . S
H258 C246 0.960 . S
H259 C246 0.962 . S
H260 C246 0.960 . S
H261 C247 0.961 . S
H262 C247 0.961 . S
H263 C247 0.961 . S
H264 C248 0.931 . S
H265 C253 0.930 . S
H266 C254 0.956 . S
H267 C254 0.961 . S
H268 C254 0.961 . S
H269 C255 0.958 . S
H270 C255 0.961 . S
H271 C255 0.960 . S
C272 C273 1.391 . S
C272 C274 1.394 . S
C272 H288 0.931 . S
C273 C272 1.391 . S
C273 C277 1.376 . S
C274 C272 1.394 . S
C274 C275 1.369 . S
C274 C278 1.531 . S
C275 C274 1.369 . S
C275 C276 1.410 . S
C275 C283 1.503 . S
C276 C275 1.410 . S
C276 C277 1.392 . S
C276 C279 1.511 . S
C277 C273 1.376 . S
C277 C276 1.392 . S
C277 H289 0.929 . S
C278 C274 1.531 . S
C278 H290 0.960 . S
C278 H291 0.962 . S
C278 H292 0.960 . S
C279 C276 1.511 . S
C279 H293 0.961 . S
C279 H294 0.961 . S
C279 H295 0.961 . S
C280 C281 1.370 . S
C280 C282 1.363 . S
C280 H296 0.931 . S
C281 C280 1.370 . S
C281 C285 1.408 . S
C282 C280 1.363 . S
C282 C283 1.370 . S
C282 C286 1.524 . S
C283 C275 1.503 . S
C283 C282 1.370 . S
C283 C284 1.403 . S
C284 C283 1.403 . S
C284 C285 1.404 . S
C284 C287 1.539 . S
C285 C281 1.408 . S
C285 C284 1.404 . S
C285 H297 0.930 . S
C286 C282 1.524 . S
C286 H298 0.956 . S
C286 H299 0.961 . S
C286 H300 0.961 . S
C287 C284 1.539 . S
C287 H301 0.958 . S
C287 H302 0.961 . S
C287 H303 0.960 . S
H288 C272 0.931 . S
H289 C277 0.929 . S
H290 C278 0.960 . S
H291 C278 0.962 . S
H292 C278 0.960 . S
H293 C279 0.961 . S
H294 C279 0.961 . S
H295 C279 0.961 . S
H296 C280 0.931 . S
H297 C285 0.930 . S
H298 C286 0.956 . S
H299 C286 0.961 . S
H300 C286 0.961 . S
H301 C287 0.958 . S
H302 C287 0.961 . S
H303 C287 0.960 . S
C304 C305 1.391 . S
C304 C306 1.394 . S
C304 H320 0.931 . S
C305 C304 1.391 . S
C305 C309 1.376 . S
C306 C304 1.394 . S
C306 C307 1.369 . S
C306 C310 1.531 . S
C307 C306 1.369 . S
C307 C308 1.410 . S
C307 C315 1.503 . S
C308 C307 1.410 . S
C308 C309 1.392 . S
C308 C311 1.511 . S
C309 C305 1.376 . S
C309 C308 1.392 . S
C309 H321 0.929 . S
C310 C306 1.531 . S
C310 H322 0.960 . S
C310 H323 0.962 . S
C310 H324 0.960 . S
C311 C308 1.511 . S
C311 H325 0.961 . S
C311 H326 0.961 . S
C311 H327 0.961 . S
C312 C313 1.370 . S
C312 C314 1.363 . S
C312 H328 0.931 . S
C313 C312 1.370 . S
C313 C317 1.408 . S
C314 C312 1.363 . S
C314 C315 1.370 . S
C314 C318 1.524 . S
C315 C307 1.503 . S
C315 C314 1.370 . S
C315 C316 1.403 . S
C316 C315 1.403 . S
C316 C317 1.404 . S
C316 C319 1.539 . S
C317 C313 1.408 . S
C317 C316 1.404 . S
C317 H329 0.930 . S
C318 C314 1.524 . S
C318 H330 0.956 . S
C318 H331 0.961 . S
C318 H332 0.961 . S
C319 C316 1.539 . S
C319 H333 0.958 . S
C319 H334 0.961 . S
C319 H335 0.960 . S
H320 C304 0.931 . S
H321 C309 0.929 . S
H322 C310 0.960 . S
H323 C310 0.962 . S
H324 C310 0.960 . S
H325 C311 0.961 . S
H326 C311 0.961 . S
H327 C311 0.961 . S
H328 C312 0.931 . S
H329 C317 0.930 . S
H330 C318 0.956 . S
H331 C318 0.961 . S
H332 C318 0.961 . S
H333 C319 0.958 . S
H334 C319 0.961 . S
H335 C319 0.960 . S
C336 C337 1.391 . S
C336 C338 1.394 . S
C336 H352 0.931 . S
C337 C336 1.391 . S
C337 C341 1.376 . S
C338 C336 1.394 . S
C338 C339 1.369 . S
C338 C342 1.531 . S
C339 C338 1.369 . S
C339 C340 1.410 . S
C339 C347 1.503 . S
C340 C339 1.410 . S
C340 C341 1.392 . S
C340 C343 1.511 . S
C341 C337 1.376 . S
C341 C340 1.392 . S
C341 H353 0.929 . S
C342 C338 1.531 . S
C342 H354 0.960 . S
C342 H355 0.962 . S
C342 H356 0.960 . S
C343 C340 1.511 . S
C343 H357 0.961 . S
C343 H358 0.961 . S
C343 H359 0.961 . S
C344 C345 1.370 . S
C344 C346 1.363 . S
C344 H360 0.931 . S
C345 C344 1.370 . S
C345 C349 1.408 . S
C346 C344 1.363 . S
C346 C347 1.370 . S
C346 C350 1.524 . S
C347 C339 1.503 . S
C347 C346 1.370 . S
C347 C348 1.403 . S
C348 C347 1.403 . S
C348 C349 1.404 . S
C348 C351 1.539 . S
C349 C345 1.408 . S
C349 C348 1.404 . S
C349 H361 0.930 . S
C350 C346 1.524 . S
C350 H362 0.956 . S
C350 H363 0.961 . S
C350 H364 0.961 . S
C351 C348 1.539 . S
C351 H365 0.958 . S
C351 H366 0.961 . S
C351 H367 0.960 . S
H352 C336 0.931 . S
H353 C341 0.929 . S
H354 C342 0.960 . S
H355 C342 0.962 . S
H356 C342 0.960 . S
H357 C343 0.961 . S
H358 C343 0.961 . S
H359 C343 0.961 . S
H360 C344 0.931 . S
H361 C349 0.930 . S
H362 C350 0.956 . S
H363 C350 0.961 . S
H364 C350 0.961 . S
H365 C351 0.958 . S
H366 C351 0.961 . S
H367 C351 0.960 . S
C368 C369 1.391 . S
C368 C370 1.394 . S
C368 H384 0.931 . S
C369 C368 1.391 . S
C369 C373 1.376 . S
C370 C368 1.394 . S
C370 C371 1.369 . S
C370 C374 1.531 . S
C371 C370 1.369 . S
C371 C372 1.410 . S
C371 C379 1.503 . S
C372 C371 1.410 . S
C372 C373 1.392 . S
C372 C375 1.511 . S
C373 C369 1.376 . S
C373 C372 1.392 . S
C373 H385 0.929 . S
C374 C370 1.531 . S
C374 H386 0.960 . S
C374 H387 0.962 . S
C374 H388 0.960 . S
C375 C372 1.511 . S
C375 H389 0.961 . S
C375 H390 0.961 . S
C375 H391 0.961 . S
C376 C377 1.370 . S
C376 C378 1.363 . S
C376 H392 0.931 . S
C377 C376 1.370 . S
C377 C381 1.408 . S
C378 C376 1.363 . S
C378 C379 1.370 . S
C378 C382 1.524 . S
C379 C371 1.503 . S
C379 C378 1.370 . S
C379 C380 1.403 . S
C380 C379 1.403 . S
C380 C381 1.404 . S
C380 C383 1.539 . S
C381 C377 1.408 . S
C381 C380 1.404 . S
C381 H393 0.930 . S
C382 C378 1.524 . S
C382 H394 0.956 . S
C382 H395 0.961 . S
C382 H396 0.961 . S
C383 C380 1.539 . S
C383 H397 0.958 . S
C383 H398 0.961 . S
C383 H399 0.960 . S
H384 C368 0.931 . S
H385 C373 0.929 . S
H386 C374 0.960 . S
H387 C374 0.962 . S
H388 C374 0.960 . S
H389 C375 0.961 . S
H390 C375 0.961 . S
H391 C375 0.961 . S
H392 C376 0.931 . S
H393 C381 0.930 . S
H394 C382 0.956 . S
H395 C382 0.961 . S
H396 C382 0.961 . S
H397 C383 0.958 . S
H398 C383 0.961 . S
H399 C383 0.960 . S
C400 C401 1.391 . S
C400 C402 1.394 . S
C400 H416 0.931 . S
C401 C400 1.391 . S
C401 C405 1.376 . S
C402 C400 1.394 . S
C402 C403 1.369 . S
C402 C406 1.531 . S
C403 C402 1.369 . S
C403 C404 1.410 . S
C403 C411 1.503 . S
C404 C403 1.410 . S
C404 C405 1.392 . S
C404 C407 1.511 . S
C405 C401 1.376 . S
C405 C404 1.392 . S
C405 H417 0.929 . S
C406 C402 1.531 . S
C406 H418 0.960 . S
C406 H419 0.962 . S
C406 H420 0.960 . S
C407 C404 1.511 . S
C407 H421 0.961 . S
C407 H422 0.961 . S
C407 H423 0.961 . S
C408 C409 1.370 . S
C408 C410 1.363 . S
C408 H424 0.931 . S
C409 C408 1.370 . S
C409 C413 1.408 . S
C410 C408 1.363 . S
C410 C411 1.370 . S
C410 C414 1.524 . S
C411 C403 1.503 . S
C411 C410 1.370 . S
C411 C412 1.403 . S
C412 C411 1.403 . S
C412 C413 1.404 . S
C412 C415 1.539 . S
C413 C409 1.408 . S
C413 C412 1.404 . S
C413 H425 0.930 . S
C414 C410 1.524 . S
C414 H426 0.956 . S
C414 H427 0.961 . S
C414 H428 0.961 . S
C415 C412 1.539 . S
C415 H429 0.958 . S
C415 H430 0.961 . S
C415 H431 0.960 . S
H416 C400 0.931 . S
H417 C405 0.929 . S
H418 C406 0.960 . S
H419 C406 0.962 . S
H420 C406 0.960 . S
H421 C407 0.961 . S
H422 C407 0.961 . S
H423 C407 0.961 . S
H424 C408 0.931 . S
H425 C413 0.930 . S
H426 C414 0.956 . S
H427 C414 0.961 . S
H428 C414 0.961 . S
H429 C415 0.958 . S
H430 C415 0.961 . S
H431 C415 0.960 . S
C432 C433 1.391 . S
C432 C434 1.394 . S
C432 H448 0.931 . S
C433 C432 1.391 . S
C433 C437 1.376 . S
C434 C432 1.394 . S
C434 C435 1.369 . S
C434 C438 1.531 . S
C435 C434 1.369 . S
C435 C436 1.410 . S
C435 C443 1.503 . S
C436 C435 1.410 . S
C436 C437 1.392 . S
C436 C439 1.511 . S
C437 C433 1.376 . S
C437 C436 1.392 . S
C437 H449 0.929 . S
C438 C434 1.531 . S
C438 H450 0.960 . S
C438 H451 0.962 . S
C438 H452 0.960 . S
C439 C436 1.511 . S
C439 H453 0.961 . S
C439 H454 0.961 . S
C439 H455 0.961 . S
C440 C441 1.370 . S
C440 C442 1.363 . S
C440 H456 0.931 . S
C441 C440 1.370 . S
C441 C445 1.408 . S
C442 C440 1.363 . S
C442 C443 1.370 . S
C442 C446 1.524 . S
C443 C435 1.503 . S
C443 C442 1.370 . S
C443 C444 1.403 . S
C444 C443 1.403 . S
C444 C445 1.404 . S
C444 C447 1.539 . S
C445 C441 1.408 . S
C445 C444 1.404 . S
C445 H457 0.930 . S
C446 C442 1.524 . S
C446 H458 0.956 . S
C446 H459 0.961 . S
C446 H460 0.961 . S
C447 C444 1.539 . S
C447 H461 0.958 . S
C447 H462 0.961 . S
C447 H463 0.960 . S
H448 C432 0.931 . S
H449 C437 0.929 . S
H450 C438 0.960 . S
H451 C438 0.962 . S
H452 C438 0.960 . S
H453 C439 0.961 . S
H454 C439 0.961 . S
H455 C439 0.961 . S
H456 C440 0.931 . S
H457 C445 0.930 . S
H458 C446 0.956 . S
H459 C446 0.961 . S
H460 C446 0.961 . S
H461 C447 0.958 . S
H462 C447 0.961 . S
H463 C447 0.960 . S
C464 C465 1.391 . S
C464 C466 1.394 . S
C464 H480 0.931 . S
C465 C464 1.391 . S
C465 C469 1.376 . S
C466 C464 1.394 . S
C466 C467 1.369 . S
C466 C470 1.531 . S
C467 C466 1.369 . S
C467 C468 1.410 . S
C467 C475 1.503 . S
C468 C467 1.410 . S
C468 C469 1.392 . S
C468 C471 1.511 . S
C469 C465 1.376 . S
C469 C468 1.392 . S
C469 H481 0.929 . S
C470 C466 1.531 . S
C470 H482 0.960 . S
C470 H483 0.962 . S
C470 H484 0.960 . S
C471 C468 1.511 . S
C471 H485 0.961 . S
C471 H486 0.961 . S
C471 H487 0.961 . S
C472 C473 1.370 . S
C472 C474 1.363 . S
C472 H488 0.931 . S
C473 C472 1.370 . S
C473 C477 1.408 . S
C474 C472 1.363 . S
C474 C475 1.370 . S
C474 C478 1.524 . S
C475 C467 1.503 . S
C475 C474 1.370 . S
C475 C476 1.403 . S
C476 C475 1.403 . S
C476 C477 1.404 . S
C476 C479 1.539 . S
C477 C473 1.408 . S
C477 C476 1.404 . S
C477 H489 0.930 . S
C478 C474 1.524 . S
C478 H490 0.956 . S
C478 H491 0.961 . S
C478 H492 0.962 1_565 S
C479 C476 1.539 . S
C479 H493 0.958 . S
C479 H494 0.961 . S
C479 H495 0.960 . S
H480 C464 0.931 . S
H481 C469 0.929 . S
H482 C470 0.960 . S
H483 C470 0.962 . S
H484 C470 0.960 . S
H485 C471 0.961 . S
H486 C471 0.961 . S
H487 C471 0.961 . S
H488 C472 0.931 . S
H489 C477 0.930 . S
H490 C478 0.956 . S
H491 C478 0.961 . S
H492 C478 0.962 1_545 S
H493 C479 0.958 . S
H494 C479 0.961 . S
H495 C479 0.960 . S
C121 C48 1.507 . S
C113 N37 1.507 . S
C145 N4 1.506 . S
C153 C91 1.504 . S
C177 N15 1.491 . S
C185 C57 1.506 . S
C209 N26 1.501 . S
C217 C82 1.507 . S
C249 C44 1.562 . S
C241 C9 1.543 . S
C281 C86 1.540 . S
C273 C17 1.538 . S
C305 C31 1.553 . S
C313 C52 1.555 . S
C337 C42 1.518 . S
C345 C78 1.542 . S
C377 C107 1.468 . S
C369 C20 1.428 . S
C409 C73 1.450 . S
C401 C28 1.446 . S
C441 C95 1.464 . S
C433 C39 1.470 . S
C465 C6 1.442 . S
C473 C61 1.446 . S
