# Generated by pormake.
# Topology anh, (6,3)-cn, num edge types: 1
# Building blocks:
#     Node 0, Type 0, BuildingBlock: BETGAK_clean_sbu_0, # of connection points: 6
#     Node 1, Type 0, BuildingBlock: BETGAK_clean_sbu_0, # of connection points: 6
#     Node 2, Type 0, BuildingBlock: BETGAK_clean_sbu_0, # of connection points: 6
#     Node 3, Type 1, BuildingBlock: PAMTOO_clean_linker_0, # of connection points: 3
#     Node 4, Type 1, BuildingBlock: PAMTOO_clean_linker_0, # of connection points: 3
#     Node 5, Type 1, BuildingBlock: PAMTOO_clean_linker_0, # of connection points: 3
#     Node 6, Type 1, BuildingBlock: PAMTOO_clean_linker_0, # of connection points: 3
#     Node 7, Type 1, BuildingBlock: PAMTOO_clean_linker_0, # of connection points: 3
#     Node 8, Type 1, BuildingBlock: PAMTOO_clean_linker_0, # of connection points: 3
#     Edge 9, Type (0, 1), BuildingBlock: KIFKEQ_clean_linker_1, # of connection points: 2
#     Edge 10, Type (0, 1), BuildingBlock: KIFKEQ_clean_linker_1, # of connection points: 2
#     Edge 11, Type (0, 1), BuildingBlock: KIFKEQ_clean_linker_1, # of connection points: 2
#     Edge 12, Type (0, 1), BuildingBlock: KIFKEQ_clean_linker_1, # of connection points: 2
#     Edge 13, Type (0, 1), BuildingBlock: KIFKEQ_clean_linker_1, # of connection points: 2
#     Edge 14, Type (0, 1), BuildingBlock: KIFKEQ_clean_linker_1, # of connection points: 2
#     Edge 15, Type (0, 1), BuildingBlock: KIFKEQ_clean_linker_1, # of connection points: 2
#     Edge 16, Type (0, 1), BuildingBlock: KIFKEQ_clean_linker_1, # of connection points: 2
#     Edge 17, Type (0, 1), BuildingBlock: KIFKEQ_clean_linker_1, # of connection points: 2
#     Edge 18, Type (0, 1), BuildingBlock: KIFKEQ_clean_linker_1, # of connection points: 2
#     Edge 19, Type (0, 1), BuildingBlock: KIFKEQ_clean_linker_1, # of connection points: 2
#     Edge 20, Type (0, 1), BuildingBlock: KIFKEQ_clean_linker_1, # of connection points: 2
#     Edge 21, Type (0, 1), BuildingBlock: KIFKEQ_clean_linker_1, # of connection points: 2
#     Edge 22, Type (0, 1), BuildingBlock: KIFKEQ_clean_linker_1, # of connection points: 2
#     Edge 23, Type (0, 1), BuildingBlock: KIFKEQ_clean_linker_1, # of connection points: 2
#     Edge 24, Type (0, 1), BuildingBlock: KIFKEQ_clean_linker_1, # of connection points: 2
#     Edge 25, Type (0, 1), BuildingBlock: KIFKEQ_clean_linker_1, # of connection points: 2
#     Edge 26, Type (0, 1), BuildingBlock: KIFKEQ_clean_linker_1, # of connection points: 2
# Relax obj value: 0.165
# Max RMSD: 0.181
# Mean RMSD: 0.124
data_MOF--net-anh--node1-BETGAK_clean_sbu_0--node2-PAMTOO_clean_linker_0--edge1-KIFKEQ_clean_linker_1
_symmetry_space_group_name_H-M    P1
_symmetry_Int_Tables_number       1
_symmetry_cell_setting            triclinic
loop_
_symmetry_equiv_pos_as_xyz
'x, y, z'
_cell_length_a     30.55798
_cell_length_b     37.946401
_cell_length_c     49.951711
_cell_angle_alpha  89.770357
_cell_angle_beta   91.677244
_cell_angle_gamma 129.93757
loop_
_atom_site_label
_atom_site_type_symbol
_atom_site_fract_x
_atom_site_fract_y
_atom_site_fract_z
_atom_type_partial_charge
La0 La 0.19847 0.51562 0.14116 0.0
La1 La 0.13584 0.5423 0.16751 0.0
C2 C 0.25584 0.5093 0.1095 0.0
C3 C 0.31683 0.53477 0.10635 0.0
C4 C 0.35715 0.57273 0.12311 0.0
C5 C 0.41463 0.59302 0.12265 0.0
C6 C 0.43249 0.57538 0.10554 0.0
C7 C 0.39224 0.53873 0.08785 0.0
C8 C 0.33472 0.51854 0.08827 0.0
C9 C 0.20108 0.51553 0.19389 0.0
C10 C 0.26266 0.62245 0.15531 0.0
C11 C 1.07613 0.5439 0.20012 0.0
C12 C 1.01483 0.51077 0.2051 0.0
C13 C 0.97612 0.48065 0.18454 0.0
C14 C 0.91758 0.45158 0.18842 0.0
C15 C 0.89646 0.45197 0.21301 0.0
C16 C 0.93572 0.47974 0.23424 0.0
C17 C 0.99454 0.50906 0.23025 0.0
C18 C 0.13532 0.54416 0.11487 0.0
C19 C 1.07095 0.43602 0.15319 0.0
O20 O 0.23583 0.48666 0.1318 0.0
O21 O 0.23735 0.53163 0.10404 0.0
O22 O 0.20149 0.48766 0.17927 0.0
O23 O 0.20404 0.54363 0.17909 0.0
O24 O 0.26151 0.59206 0.14129 0.0
O25 O 0.21987 0.60933 0.17046 0.0
O26 O 1.08973 0.56383 0.17679 0.0
O27 O 1.10461 0.52989 0.20629 0.0
O28 O 0.13522 0.57204 0.12979 0.0
O29 O 0.13091 0.51497 0.12933 0.0
O30 O 1.07269 0.46659 0.1671 0.0
O31 O 1.11351 0.44854 0.13809 0.0
H32 H 0.34384 0.58534 0.13738 0.0
H33 H 0.44448 0.6208 0.13676 0.0
H34 H 0.40496 0.52476 0.07429 0.0
H35 H 0.30394 0.4892 0.07523 0.0
H36 H 0.99106 0.48097 0.16506 0.0
H37 H 0.8891 0.43136 0.17142 0.0
H38 H 0.92099 0.48046 0.25352 0.0
H39 H 1.02404 0.53144 0.24652 0.0
La40 La 0.71005 0.04299 0.47984 0.0
La41 La 0.63551 0.06477 0.46338 0.0
C42 C 0.7537 1.01277 0.50352 0.0
C43 C 0.74111 0.96834 0.50647 0.0
C44 C 0.77973 0.96353 0.49684 0.0
C45 C 0.76991 0.92241 0.49995 0.0
C46 C 0.72148 0.88523 0.51307 0.0
C47 C 0.6825 0.88998 0.52251 0.0
C48 C 0.69212 0.93107 0.5192 0.0
C49 C 0.7045 0.05247 0.42783 0.0
C50 C 0.5766 0.96117 0.46687 0.0
C51 C 0.59183 0.09704 0.44261 0.0
C52 C 0.60075 0.13935 0.44789 0.0
C53 C 0.56365 0.14521 0.43619 0.0
C54 C 0.56923 0.18374 0.44288 0.0
C55 C 0.6121 0.21707 0.46142 0.0
C56 C 0.65 0.2114 0.47261 0.0
C57 C 0.64416 0.1728 0.46602 0.0
C58 C 0.64267 0.05591 0.51535 0.0
C59 C 0.77062 0.14642 0.47334 0.0
O60 O 0.76758 0.03036 0.47963 0.0
O61 O 0.71972 1.01761 0.51492 0.0
O62 O 0.74899 0.06314 0.44076 0.0
O63 O 0.66379 0.03358 0.4435 0.0
O64 O 0.62362 0.97488 0.48014 0.0
O65 O 0.57516 0.99119 0.45422 0.0
O66 O 0.56934 0.06781 0.46214 0.0
O67 O 0.6348 0.10236 0.43257 0.0
O68 O 0.5973 0.0439 0.50277 0.0
O69 O 0.68268 0.07512 0.49935 0.0
O70 O 0.72185 0.13252 0.4621 0.0
O71 O 0.77406 0.11715 0.48537 0.0
H72 H 0.81779 0.99176 0.48695 0.0
H73 H 0.80034 0.91978 0.49201 0.0
H74 H 0.64513 0.86234 0.53302 0.0
H75 H 0.66152 0.9337 0.52687 0.0
H76 H 0.52955 0.11948 0.42235 0.0
H77 H 0.53883 0.18665 0.43415 0.0
H78 H 0.68398 0.23664 0.48665 0.0
H79 H 0.67289 0.16863 0.47547 0.0
La80 La 0.70445 0.58234 0.83474 0.0
La81 La 0.62366 0.4831 0.84677 0.0
C82 C 0.75313 0.66069 0.8154 0.0
C83 C 0.74072 0.69211 0.81102 0.0
C84 C 0.77866 0.73684 0.82194 0.0
C85 C 0.76908 0.76785 0.81771 0.0
C86 C 0.7215 0.75502 0.80217 0.0
C87 C 0.68309 0.70989 0.79147 0.0
C88 C 0.69251 0.67871 0.7959 0.0
C89 C 0.70183 0.56305 0.88538 0.0
C90 C 0.57194 0.53241 0.8447 0.0
C91 C 0.57597 0.40396 0.86452 0.0
C92 C 0.58277 0.3692 0.85977 0.0
C93 C 0.53683 0.32624 0.84847 0.0
C94 C 0.54344 0.29422 0.84168 0.0
C95 C 0.59625 0.30438 0.84603 0.0
C96 C 0.64179 0.34692 0.85813 0.0
C97 C 0.63508 0.37893 0.86498 0.0
C98 C 0.62977 0.50248 0.7956 0.0
C99 C 0.75794 0.53436 0.8385 0.0
O100 O 0.75979 0.65402 0.84036 0.0
O101 O 0.72371 0.62264 0.80096 0.0
O102 O 0.74759 0.59603 0.87343 0.0
O103 O 0.65894 0.54367 0.8696 0.0
O104 O 0.62044 0.56648 0.83338 0.0
O105 O 0.5665 0.49778 0.85549 0.0
O106 O 0.556 0.41189 0.84403 0.0
O107 O 0.61786 0.44203 0.8773 0.0
O108 O 0.58354 0.46857 0.80676 0.0
O109 O 0.67062 0.52183 0.81247 0.0
O110 O 0.7074 0.49812 0.84729 0.0
O111 O 0.76515 0.57055 0.82925 0.0
H112 H 0.81601 0.74791 0.83376 0.0
H113 H 0.79899 0.80191 0.82673 0.0
H114 H 0.64633 0.69885 0.77917 0.0
H115 H 0.66234 0.64436 0.78727 0.0
H116 H 0.49592 0.31771 0.84445 0.0
H117 H 0.50711 0.26146 0.83293 0.0
H118 H 0.68313 0.35604 0.86166 0.0
H119 H 0.67116 0.41157 0.8739 0.0
H120 H 0.75219 0.12583 0.2306 0.0
H121 H 0.62918 0.97993 0.2166 0.0
H122 H 0.71262 0.06993 0.15008 0.0
H123 H 0.59494 0.97812 0.13089 0.0
C124 C 0.58685 0.96655 0.15198 0.0
O125 O 0.63819 0.98386 0.16459 0.0
H126 H 0.56777 0.98021 0.16154 0.0
C127 C 0.72769 0.09688 0.21662 0.0
C128 C 0.73723 0.10411 0.189 0.0
C129 C 0.68882 0.05244 0.22674 0.0
C130 C 0.65904 1.01447 0.20903 0.0
C131 C 0.66741 1.02087 0.18145 0.0
C132 C 0.70664 0.06554 0.17147 0.0
H133 H 0.66724 0.61532 0.60088 0.0
H134 H 0.65613 0.4982 0.5848 0.0
H135 H 0.67134 0.57936 0.51991 0.0
H136 H 0.60109 0.48363 0.50246 0.0
C137 C 0.60946 0.47088 0.52031 0.0
O138 O 0.66024 0.50715 0.53288 0.0
H139 H 0.57311 0.4556 0.53387 0.0
C140 C 0.66643 0.59315 0.58686 0.0
C141 C 0.66996 0.60198 0.55934 0.0
C142 C 0.66187 0.55606 0.59645 0.0
C143 C 0.65972 0.52708 0.57797 0.0
C144 C 0.66307 0.53556 0.55048 0.0
C145 C 0.66902 0.57328 0.54123 0.0
H146 H 1.07223 0.54464 0.9097 0.0
H147 H 0.20702 0.53725 0.90754 0.0
H148 H 0.12494 0.53124 0.83411 0.0
H149 H 0.28126 0.59141 0.86624 0.0
C150 C 0.26122 0.56403 0.85044 0.0
O151 O 0.20433 0.52792 0.85613 0.0
H152 H 0.26189 0.57958 0.83138 0.0
C153 C 1.10034 0.54257 0.89847 0.0
C154 C 1.09394 0.53905 0.87042 0.0
C155 C 0.14076 0.54206 0.91223 0.0
C156 C 0.17532 0.53741 0.8974 0.0
C157 C 0.17056 0.53377 0.86935 0.0
C158 C 0.12932 0.53436 0.85575 0.0
H159 H 1.10324 0.44309 0.3938 0.0
H160 H 0.23818 0.58929 0.40188 0.0
H161 H 0.14383 0.51077 0.4707 0.0
H162 H 0.19768 0.61605 0.47613 0.0
C163 C 0.21989 0.62386 0.45704 0.0
O164 O 0.22969 0.59336 0.45338 0.0
H165 H 0.19121 0.61983 0.44072 0.0
C166 C 0.1291 0.474 0.4063 0.0
C167 C 0.11804 0.4714 0.43367 0.0
C168 C 0.17164 0.51631 0.39461 0.0
C169 C 0.20458 0.55648 0.4106 0.0
C170 C 0.195 0.55454 0.43802 0.0
C171 C 0.15114 0.5121 0.44949 0.0
H172 H 0.67164 0.97147 0.71073 0.0
H173 H 0.66494 0.07955 0.72588 0.0
H174 H 0.67642 1.01264 0.79176 0.0
H175 H 0.60556 0.03651 0.80488 0.0
C176 C 0.61715 0.06001 0.788 0.0
O177 O 0.66824 0.07508 0.77804 0.0
H178 H 0.58223 0.04022 0.77234 0.0
C179 C 0.67074 0.99277 0.72471 0.0
C180 C 0.67417 0.98768 0.7524 0.0
C181 C 0.668 0.02607 0.71485 0.0
C182 C 0.66808 0.05423 0.73307 0.0
C183 C 0.67062 0.04907 0.76071 0.0
C184 C 0.67455 1.01637 0.77034 0.0
H185 H 0.67794 0.48725 0.09122 0.0
H186 H 0.7901 0.6356 0.08953 0.0
H187 H 0.77341 0.5688 0.16209 0.0
H188 H 0.85297 0.7084 0.15459 0.0
C189 C 0.8168 0.6709 0.1558 0.0
O190 O 0.82668 0.64787 0.13899 0.0
H191 H 0.81655 0.66108 0.17682 0.0
C192 C 0.70626 0.52055 0.10127 0.0
C193 C 0.71981 0.52293 0.1287 0.0
C194 C 0.73183 0.56099 0.0866 0.0
C195 C 0.77024 0.60384 0.10007 0.0
C196 C 0.78541 0.6064 0.12707 0.0
C197 C 0.76003 0.56616 0.14134 0.0
H198 H 0.46473 0.52323 0.10763 0.0
H199 H 0.53267 0.66419 0.11081 0.0
H200 H 0.55952 0.54865 0.11827 0.0
H201 H 0.62768 0.68955 0.12206 0.0
H202 H 0.79817 0.71345 0.11838 0.0
H203 H 0.70639 0.69175 0.10328 0.0
H204 H 0.6202 0.58258 0.16072 0.0
H205 H 0.71167 0.60443 0.17569 0.0
C206 C 0.50013 0.55973 0.11009 0.0
C207 C 0.49132 0.59176 0.10844 0.0
C208 C 0.5542 0.57419 0.1165 0.0
C209 C 0.6006 0.62095 0.12132 0.0
C210 C 0.59254 0.65328 0.11841 0.0
C211 C 0.53824 0.63878 0.11214 0.0
C212 C 0.75953 0.68544 0.12801 0.0
C213 C 0.76165 0.66112 0.1485 0.0
C214 C 0.70724 0.67293 0.11935 0.0
C215 C 0.65637 0.63541 0.13077 0.0
C216 C 0.65876 0.61135 0.15139 0.0
C217 C 0.71095 0.62412 0.16018 0.0
H218 H 0.88144 0.18587 0.48654 0.0
H219 H 0.77754 0.219 0.45706 0.0
H220 H 0.96722 0.26573 0.48119 0.0
H221 H 0.86341 0.29883 0.45175 0.0
H222 H 1.02902 0.44794 0.46349 0.0
H223 H 0.94565 0.37054 0.47676 0.0
H224 H 1.01784 0.31477 0.44179 0.0
H225 H 1.10062 0.39173 0.42867 0.0
C226 C 0.87674 0.21021 0.47919 0.0
C227 C 0.82244 0.1958 0.47212 0.0
C228 C 0.92601 0.25599 0.47601 0.0
C229 C 0.92227 0.2887 0.46596 0.0
C230 C 0.86784 0.27467 0.45978 0.0
C231 C 0.81858 0.22876 0.46268 0.0
C232 C 1.0274 0.41917 0.45913 0.0
C233 C 1.07124 0.42585 0.445 0.0
C234 C 0.97949 0.37484 0.46649 0.0
C235 C 0.97493 0.3364 0.46024 0.0
C236 C 1.02008 0.34355 0.44712 0.0
C237 C 1.06742 0.38762 0.43948 0.0
H238 H 0.62052 0.73991 0.79897 0.0
H239 H 0.80292 0.84722 0.79281 0.0
H240 H 0.60689 0.79536 0.78882 0.0
H241 H 0.78914 0.90255 0.78338 0.0
H242 H 0.74692 0.99784 0.79116 0.0
H243 H 0.75647 0.94109 0.80514 0.0
H244 H 0.61928 0.84163 0.74944 0.0
H245 H 0.60934 0.89809 0.73574 0.0
C246 C 0.65771 0.77519 0.79539 0.0
C247 C 0.71285 0.78892 0.79672 0.0
C248 C 0.64986 0.807 0.78969 0.0
C249 C 0.69696 0.85336 0.78539 0.0
C250 C 0.75206 0.86724 0.78703 0.0
C251 C 0.7599 0.83542 0.79249 0.0
C252 C 0.71836 0.96366 0.78219 0.0
C253 C 0.67759 0.95248 0.76227 0.0
C254 C 0.72413 0.93131 0.79001 0.0
C255 C 0.68878 0.88694 0.7783 0.0
C256 C 0.64688 0.87539 0.75896 0.0
C257 C 0.64152 0.90784 0.75096 0.0
H258 H 0.80069 0.37005 0.19057 0.0
H259 H 0.85377 0.4878 0.23759 0.0
H260 H 0.71516 0.35766 0.1752 0.0
H261 H 0.7696 0.47546 0.22271 0.0
H262 H 0.72274 0.45628 0.11249 0.0
H263 H 0.72825 0.40854 0.1419 0.0
H264 H 0.67797 0.4473 0.20812 0.0
H265 H 0.67429 0.49664 0.17838 0.0
C266 C 0.7931 0.39219 0.19848 0.0
C267 C 0.83562 0.43144 0.21411 0.0
C268 C 0.74393 0.38496 0.18975 0.0
C269 C 0.73692 0.41699 0.19652 0.0
C270 C 0.77366 0.45039 0.21652 0.0
C271 C 0.82269 0.45767 0.22516 0.0
C272 C 0.71019 0.45294 0.13301 0.0
C273 C 0.70023 0.48139 0.14343 0.0
C274 C 0.713 0.42517 0.15004 0.0
C275 C 0.706 0.42559 0.17777 0.0
C276 C 0.68565 0.44754 0.18706 0.0
C277 C 0.68355 0.4758 0.17007 0.0
H278 H 0.47585 0.91954 0.4384 0.0
H279 H 0.56249 0.88939 0.49095 0.0
H280 H 0.39255 0.83805 0.43566 0.0
H281 H 0.47925 0.80768 0.4879 0.0
H282 H 0.29362 0.67301 0.50012 0.0
H283 H 0.38094 0.75368 0.50217 0.0
H284 H 0.35992 0.76499 0.4175 0.0
H285 H 0.27233 0.68448 0.41573 0.0
C286 C 0.47732 0.89556 0.44929 0.0
C287 C 0.52605 0.91124 0.46492 0.0
C288 C 0.42955 0.84867 0.44757 0.0
C289 C 0.42901 0.81607 0.4615 0.0
C290 C 0.47782 0.83175 0.47711 0.0
C291 C 0.52574 0.87868 0.47875 0.0
C292 C 0.30796 0.69284 0.48199 0.0
C293 C 0.27574 0.67284 0.45789 0.0
C294 C 0.35811 0.73897 0.48309 0.0
C295 C 0.37734 0.76616 0.46005 0.0
C296 C 0.34589 0.74547 0.43575 0.0
C297 C 0.29588 0.69931 0.43466 0.0
H298 H 0.55503 0.25177 0.80002 0.0
H299 H 0.65502 0.28165 0.87248 0.0
H300 H 0.5647 0.19563 0.78642 0.0
H301 H 0.66669 0.22667 0.85831 0.0
H302 H 0.61155 0.0834 0.83905 0.0
H303 H 0.61038 0.14444 0.85293 0.0
H304 H 0.63284 0.18856 0.77093 0.0
H305 H 0.63262 0.12659 0.75713 0.0
C306 C 0.57911 0.24638 0.81308 0.0
C307 C 0.60385 0.27105 0.83747 0.0
C308 C 0.58536 0.2146 0.80508 0.0
C309 C 0.6166 0.20661 0.82122 0.0
C310 C 0.64189 0.23161 0.8455 0.0
C311 C 0.63567 0.26349 0.8535 0.0
C312 C 0.61672 0.10645 0.82409 0.0
C313 C 0.62188 0.10026 0.79701 0.0
C314 C 0.61635 0.14159 0.83202 0.0
C315 C 0.62117 0.17134 0.81304 0.0
C316 C 0.62807 0.16585 0.78603 0.0
C317 C 0.6284 0.13067 0.77811 0.0
H318 H 0.62061 0.79613 0.51056 0.0
H319 H 0.80217 0.87679 0.5258 0.0
H320 H 0.60618 0.72608 0.51961 0.0
H321 H 0.78764 0.80672 0.53411 0.0
H322 H 0.74474 0.66757 0.52379 0.0
H323 H 0.7556 0.73484 0.51023 0.0
H324 H 0.61647 0.69209 0.56014 0.0
H325 H 0.60533 0.62478 0.57344 0.0
C326 C 0.65743 0.79901 0.51587 0.0
C327 C 0.71256 0.84222 0.51749 0.0
C328 C 0.64913 0.75885 0.52093 0.0
C329 C 0.6958 0.76097 0.5275 0.0
C330 C 0.75096 0.80398 0.52869 0.0
C331 C 0.75923 0.84414 0.52387 0.0
C332 C 0.71611 0.67235 0.53157 0.0
C333 C 0.67442 0.64117 0.54976 0.0
C334 C 0.72257 0.71094 0.52398 0.0
C335 C 0.68697 0.71873 0.5342 0.0
C336 C 0.64423 0.6868 0.55179 0.0
C337 C 0.63818 0.64853 0.55958 0.0
H338 H 0.87087 0.60538 0.82749 0.0
H339 H 0.75884 0.46365 0.8511 0.0
H340 H 0.95191 0.60686 0.83051 0.0
H341 H 0.83999 0.46524 0.85465 0.0
H342 H 0.9924 0.47032 0.84322 0.0
H343 H 0.91176 0.46846 0.83282 0.0
H344 H 1.01249 0.6084 0.86218 0.0
H345 H 1.09234 0.60997 0.87213 0.0
C346 C 0.86322 0.57435 0.83329 0.0
C347 C 0.80761 0.53444 0.83919 0.0
C348 C 0.91015 0.57527 0.83521 0.0
C349 C 0.90348 0.53626 0.843 0.0
C350 C 0.84755 0.49601 0.84832 0.0
C351 C 0.80064 0.49518 0.84651 0.0
C352 C 0.9978 0.50111 0.8466 0.0
C353 C 1.04956 0.54062 0.858 0.0
C354 C 0.9511 0.49988 0.84109 0.0
C355 C 0.95466 0.53822 0.84671 0.0
C356 C 1.00748 0.57825 0.85711 0.0
C357 C 1.05373 0.57929 0.86278 0.0
H358 H 0.36218 0.66528 0.12815 0.0
H359 H 0.27892 0.69252 0.18236 0.0
H360 H 0.44495 0.74746 0.1282 0.0
H361 H 0.36036 0.77393 0.18195 0.0
H362 H 0.5317 0.91334 0.19554 0.0
H363 H 0.45807 0.82974 0.19718 0.0
H364 H 0.47263 0.81978 0.11224 0.0
H365 H 0.54742 0.90336 0.11097 0.0
C366 C 0.36146 0.68866 0.14007 0.0
C367 C 0.31378 0.67211 0.15527 0.0
C368 C 0.40881 0.73582 0.14001 0.0
C369 C 0.4096 0.76745 0.15521 0.0
C370 C 0.36193 0.75067 0.17043 0.0
C371 C 0.31483 0.70379 0.17048 0.0
C372 C 0.51954 0.89309 0.17735 0.0
C373 C 0.54481 0.91473 0.15313 0.0
C374 C 0.47709 0.84526 0.17819 0.0
C375 C 0.45879 0.8179 0.15476 0.0
C376 C 0.48582 0.8396 0.1307 0.0
C377 C 0.52842 0.88749 0.12991 0.0
H378 H 0.59737 0.2688 0.43031 0.0
H379 H 0.63489 0.25463 0.5118 0.0
H380 H 0.5987 0.33077 0.44476 0.0
H381 H 0.63899 0.31797 0.52598 0.0
H382 H 0.57204 0.39312 0.54679 0.0
H383 H 0.5751 0.33327 0.53249 0.0
H384 H 0.66129 0.40946 0.46112 0.0
H385 H 0.65656 0.46861 0.47531 0.0
C386 C 0.60613 0.27899 0.45128 0.0
C387 C 0.61585 0.25656 0.46987 0.0
C388 C 0.60759 0.31494 0.45952 0.0
C389 C 0.61888 0.32937 0.48656 0.0
C390 C 0.62945 0.30739 0.50507 0.0
C391 C 0.62785 0.27142 0.49685 0.0
C392 C 0.59143 0.39683 0.52803 0.0
C393 C 0.61303 0.43482 0.51185 0.0
C394 C 0.59367 0.36282 0.51991 0.0
C395 C 0.61818 0.36638 0.49555 0.0
C396 C 0.64115 0.40517 0.47973 0.0
C397 C 0.63875 0.43912 0.48785 0.0
H398 H 0.46837 0.47353 0.8698 0.0
H399 H 0.56543 0.59529 0.8219 0.0
H400 H 0.39059 0.47644 0.8708 0.0
H401 H 0.48837 0.59848 0.82308 0.0
H402 H 0.32281 0.57277 0.8078 0.0
H403 H 0.39427 0.56306 0.80644 0.0
H404 H 0.35969 0.51696 0.88806 0.0
H405 H 0.28735 0.52644 0.88916 0.0
C406 C 0.47337 0.50102 0.85948 0.0
C407 C 0.52378 0.53408 0.84571 0.0
C408 C 0.42858 0.50284 0.86017 0.0
C409 C 0.43219 0.53755 0.8469 0.0
C410 C 0.48279 0.57062 0.83321 0.0
C411 C 0.52761 0.56898 0.83268 0.0
C412 C 0.32948 0.55963 0.82532 0.0
C413 C 0.29829 0.54978 0.84847 0.0
C414 C 0.37135 0.55463 0.82469 0.0
C415 C 0.38407 0.53967 0.84723 0.0
C416 C 0.35139 0.52825 0.87015 0.0
C417 C 0.30952 0.5335 0.8708 0.0
H418 H 1.0623 0.36053 0.14517 0.0
H419 H 0.9624 0.40078 0.16304 0.0
H420 H 0.97868 0.28009 0.15067 0.0
H421 H 0.87795 0.32059 0.16692 0.0
H422 H 0.75966 0.18251 0.20712 0.0
H423 H 0.83806 0.26118 0.1961 0.0
H424 H 0.88934 0.21375 0.1358 0.0
H425 H 0.81319 0.13462 0.14859 0.0
C426 C 1.02211 0.35205 0.14977 0.0
C427 C 1.01907 0.38698 0.15399 0.0
C428 C 0.97387 0.30581 0.15275 0.0
C429 C 0.92112 0.29334 0.15952 0.0
C430 C 0.91787 0.32852 0.16248 0.0
C431 C 0.96632 0.37468 0.16008 0.0
C432 C 0.78785 0.1887 0.19164 0.0
C433 C 0.78049 0.15195 0.17916 0.0
C434 C 0.83256 0.23413 0.18493 0.0
C435 C 0.87079 0.2444 0.16506 0.0
C436 C 0.86171 0.20751 0.15159 0.0
C437 C 0.81731 0.1619 0.15863 0.0
H438 H 1.1074 0.47586 0.08126 0.0
H439 H 0.17221 0.61573 0.08235 0.0
H440 H 1.11156 0.47702 0.03267 0.0
H441 H 0.18004 0.61837 0.03379 0.0
H442 H 0.12931 0.59329 0.94528 0.0
H443 H 0.12845 0.59374 0.9937 0.0
H444 H 0.16855 0.50323 0.99599 0.0
H445 H 0.16386 0.49925 0.94739 0.0
C446 C 0.12313 0.50707 0.07102 0.0
C447 C 0.13906 0.54559 0.08546 0.0
C448 C 0.12614 0.508 0.04312 0.0
C449 C 0.14627 0.54784 0.02899 0.0
C450 C 0.16315 0.58669 0.04372 0.0
C451 C 0.15904 0.58538 0.0716 0.0
C452 C 0.13705 0.57282 0.95602 0.0
C453 C 0.14574 0.54564 0.94216 0.0
C454 C 0.13764 0.57378 0.984 0.0
C455 C 0.14818 0.54837 -0.00092 0.0
C456 C 0.159 0.52251 0.98523 0.0
C457 C 0.15734 0.52087 0.9572 0.0
H458 H 0.61564 0.03359 0.3974 0.0
H459 H 0.77933 0.06692 0.39192 0.0
H460 H 0.60556 0.02956 0.34831 0.0
H461 H 0.76863 0.06187 0.34311 0.0
H462 H 0.66415 0.09293 0.26086 0.0
H463 H 0.66295 0.08977 0.30987 0.0
H464 H 0.69837 0.99653 0.30756 0.0
H465 H 0.69879 0.99921 0.2585 0.0
C466 C 0.64933 0.04 0.3857 0.0
C467 C 0.6983 0.05066 0.39838 0.0
C468 C 0.64356 0.03767 0.35771 0.0
C469 C 0.68612 0.04502 0.34203 0.0
C470 C 0.73489 0.05548 0.35477 0.0
C471 C 0.74115 0.05866 0.38266 0.0
C472 C 0.67083 0.07127 0.27088 0.0
C473 C 0.68164 0.04635 0.25602 0.0
C474 C 0.66993 0.06933 0.29882 0.0
C475 C 0.68087 0.04311 0.3124 0.0
C476 C 0.69015 1.0172 0.29751 0.0
C477 C 0.69001 1.01848 0.26952 0.0
H478 H 0.54445 0.46154 0.75744 0.0
H479 H 0.72772 0.56233 0.7685 0.0
H480 H 0.55325 0.47435 0.70927 0.0
H481 H 0.73685 0.57467 0.72025 0.0
H482 H 0.72489 0.61976 0.63694 0.0
H483 H 0.71707 0.60707 0.685 0.0
H484 H 0.58658 0.4609 0.67027 0.0
H485 H 0.59273 0.47383 0.62214 0.0
C486 C 0.58662 0.48636 0.7495 0.0
C487 C 0.63539 0.51102 0.76662 0.0
C488 C 0.59173 0.49348 0.72191 0.0
C489 C 0.64578 0.52539 0.71087 0.0
C490 C 0.69456 0.55022 0.72812 0.0
C491 C 0.6894 0.5431 0.75573 0.0
C492 C 0.69422 0.58493 0.64396 0.0
C493 C 0.65913 0.54783 0.6257 0.0
C494 C 0.69022 0.57761 0.67151 0.0
C495 C 0.6511 0.53298 0.68151 0.0
C496 C 0.61663 0.49578 0.66325 0.0
C497 C 0.62063 0.50311 0.63565 0.0
H498 H 0.55624 1.00621 0.54982 0.0
H499 H 0.7399 0.09612 0.54633 0.0
H500 H 0.56306 0.99937 0.59812 0.0
H501 H 0.74683 0.08946 0.59486 0.0
H502 H 0.59829 0.9579 0.67755 0.0
H503 H 0.59361 0.96535 0.62915 0.0
H504 H 0.72541 0.1126 0.63752 0.0
H505 H 0.73026 0.10511 0.68605 0.0
C506 C 0.59807 0.02449 0.55943 0.0
C507 C 0.64754 0.05169 0.54443 0.0
C508 C 0.60195 1.02041 0.58703 0.0
C509 C 0.65546 0.04389 0.60023 0.0
C510 C 0.70506 0.0713 0.58521 0.0
C511 C 0.70111 0.07491 0.55749 0.0
C512 C 0.62637 0.99183 0.66903 0.0
C513 C 0.66463 0.03093 0.68554 0.0
C514 C 0.62346 0.99612 0.64138 0.0
C515 C 0.65917 0.03955 0.62959 0.0
C516 C 0.69769 0.07867 0.64606 0.0
C517 C 0.7001 0.07444 0.6738 0.0
H518 H 0.61316 0.52677 0.91889 0.0
H519 H 0.78764 0.5812 0.91661 0.0
H520 H 0.61709 0.52375 0.96784 0.0
H521 H 0.7909 0.57562 0.96497 0.0
H522 H 0.81043 0.61967 0.04975 0.0
H523 H 0.79835 0.61641 0.00172 0.0
H524 H 0.62324 0.49138 0.00711 0.0
H525 H 0.63392 0.49697 0.05588 0.0
C526 C 0.65188 0.53715 0.9289 0.0
C527 C 0.70044 0.55494 0.91423 0.0
C528 C 0.65416 0.53528 0.95689 0.0
C529 C 0.70477 0.55041 0.97052 0.0
C530 C 0.7519 0.56528 0.95537 0.0
C531 C 0.74997 0.5681 0.92761 0.0
C532 C 0.76878 0.59201 0.04094 0.0
C533 C 0.72305 0.55881 0.05695 0.0
C534 C 0.76219 0.58953 0.01314 0.0
C535 C 0.71008 0.55313 0.00033 0.0
C536 C 0.66397 0.52001 0.01624 0.0
C537 C 0.67032 0.52292 0.04424 0.0
H538 H 0.16359 0.44552 0.22791 0.0
H539 H 0.23679 0.58757 0.22599 0.0
H540 H 0.15753 0.44619 0.2765 0.0
H541 H 0.23457 0.58966 0.27454 0.0
H542 H 0.16746 0.56725 0.35795 0.0
H543 H 0.17496 0.56668 0.30957 0.0
H544 H 0.20588 0.47058 0.31765 0.0
H545 H 0.19455 0.46929 0.36589 0.0
C546 C 0.17922 0.47708 0.23803 0.0
C547 C 0.20042 0.51639 0.22333 0.0
C548 C 0.17618 0.47769 0.26592 0.0
C549 C 0.19543 0.518 0.27972 0.0
C550 C 0.21798 0.55762 0.26478 0.0
C551 C 0.21981 0.55664 0.23692 0.0
C552 C 0.17615 0.54627 0.34926 0.0
C553 C 0.18046 0.51835 0.3655 0.0
C554 C 0.18081 0.54604 0.32152 0.0
C555 C 0.19118 0.51861 0.30942 0.0
C556 C 0.1967 0.49142 0.32598 0.0
C557 C 0.19077 0.49093 0.35366 0.0
loop_
_geom_bond_atom_site_label_1
_geom_bond_atom_site_label_2
_geom_bond_distance
_geom_bond_site_symmetry_2
_ccdc_geom_bond_type
La0 C2 2.928 . S
La0 O20 2.521 . S
La0 O21 2.628 . S
La0 O22 2.554 . S
La0 O23 2.757 1_455 S
La0 O24 2.470 . S
La0 O29 2.482 . S
La0 O31 2.503 1_455 S
La1 C11 2.928 . S
La1 O23 2.482 . S
La1 O25 2.503 1_655 S
La1 O26 2.521 . S
La1 O27 2.628 . S
La1 O28 2.554 . S
La1 O29 2.757 1_655 S
La1 O30 2.470 . S
C2 La0 2.928 . S
C2 C3 1.503 . S
C2 O20 1.261 . S
C2 O21 1.243 . S
C3 C2 1.503 . S
C3 C4 1.394 . S
C3 C8 1.373 . S
C4 C3 1.394 . S
C4 C5 1.380 . S
C4 H32 0.930 . S
C5 C4 1.380 . S
C5 C6 1.376 . S
C5 H33 0.930 . S
C6 C5 1.376 . S
C6 C7 1.370 . S
C7 C6 1.370 . S
C7 C8 1.396 . S
C7 H34 0.929 . S
C8 C3 1.373 . S
C8 C7 1.396 . S
C8 H35 0.929 . S
C9 O22 1.240 . S
C9 O23 1.289 1_455 S
C10 O24 1.258 . S
C10 O25 1.256 . S
C11 La1 2.928 . S
C11 C12 1.503 . S
C11 O26 1.261 . S
C11 O27 1.243 . S
C12 C11 1.503 . S
C12 C13 1.394 . S
C12 C17 1.373 . S
C13 C12 1.394 . S
C13 C14 1.380 . S
C13 H36 0.930 . S
C14 C13 1.380 . S
C14 C15 1.376 . S
C14 H37 0.930 . S
C15 C14 1.376 . S
C15 C16 1.370 . S
C16 C15 1.370 . S
C16 C17 1.396 . S
C16 H38 0.929 . S
C17 C12 1.373 . S
C17 C16 1.396 . S
C17 H39 0.929 . S
C18 O28 1.240 1_455 S
C18 O29 1.289 . S
C19 O30 1.258 . S
C19 O31 1.256 . S
O20 La0 2.521 . S
O20 C2 1.261 . S
O21 La0 2.628 . S
O21 C2 1.243 . S
O22 La0 2.554 . S
O22 C9 1.240 . S
O23 La0 2.757 1_655 S
O23 La1 2.482 . S
O23 C9 1.289 1_655 S
O24 La0 2.470 . S
O24 C10 1.258 . S
O25 La1 2.503 1_455 S
O25 C10 1.256 . S
O26 La1 2.521 . S
O26 C11 1.261 . S
O27 La1 2.628 . S
O27 C11 1.243 . S
O28 La1 2.554 . S
O28 C18 1.240 1_655 S
O29 La0 2.482 . S
O29 La1 2.757 1_455 S
O29 C18 1.289 . S
O30 La1 2.470 . S
O30 C19 1.258 . S
O31 La0 2.503 1_655 S
O31 C19 1.256 . S
H32 C4 0.930 . S
H33 C5 0.930 . S
H34 C7 0.929 . S
H35 C8 0.929 . S
H36 C13 0.930 . S
H37 C14 0.930 . S
H38 C16 0.929 . S
H39 C17 0.929 . S
La40 C42 2.928 1_545 S
La40 O60 2.521 1_545 S
La40 O61 2.628 1_545 S
La40 O62 2.554 . S
La40 O63 2.757 . S
La40 O64 2.470 1_545 S
La40 O69 2.482 . S
La40 O71 2.503 . S
La41 C51 2.928 . S
La41 O63 2.482 . S
La41 O65 2.503 1_545 S
La41 O66 2.521 . S
La41 O67 2.628 . S
La41 O68 2.554 . S
La41 O69 2.757 . S
La41 O70 2.470 . S
C42 La40 2.928 1_565 S
C42 C43 1.503 . S
C42 O60 1.261 . S
C42 O61 1.243 . S
C43 C42 1.503 . S
C43 C44 1.394 . S
C43 C48 1.373 . S
C44 C43 1.394 . S
C44 C45 1.380 . S
C44 H72 0.930 . S
C45 C44 1.380 . S
C45 C46 1.376 . S
C45 H73 0.930 . S
C46 C45 1.376 . S
C46 C47 1.370 . S
C47 C46 1.370 . S
C47 C48 1.396 . S
C47 H74 0.929 . S
C48 C43 1.373 . S
C48 C47 1.396 . S
C48 H75 0.929 . S
C49 O62 1.240 . S
C49 O63 1.289 . S
C50 O64 1.258 . S
C50 O65 1.256 . S
C51 La41 2.928 . S
C51 C52 1.503 . S
C51 O66 1.261 . S
C51 O67 1.243 . S
C52 C51 1.503 . S
C52 C53 1.394 . S
C52 C57 1.373 . S
C53 C52 1.394 . S
C53 C54 1.380 . S
C53 H76 0.930 . S
C54 C53 1.380 . S
C54 C55 1.376 . S
C54 H77 0.930 . S
C55 C54 1.376 . S
C55 C56 1.370 . S
C56 C55 1.370 . S
C56 C57 1.396 . S
C56 H78 0.929 . S
C57 C52 1.373 . S
C57 C56 1.396 . S
C57 H79 0.929 . S
C58 O68 1.240 . S
C58 O69 1.289 . S
C59 O70 1.258 . S
C59 O71 1.256 . S
O60 La40 2.521 1_565 S
O60 C42 1.261 . S
O61 La40 2.628 1_565 S
O61 C42 1.243 . S
O62 La40 2.554 . S
O62 C49 1.240 . S
O63 La40 2.757 . S
O63 La41 2.482 . S
O63 C49 1.289 . S
O64 La40 2.470 1_565 S
O64 C50 1.258 . S
O65 La41 2.503 1_565 S
O65 C50 1.256 . S
O66 La41 2.521 . S
O66 C51 1.261 . S
O67 La41 2.628 . S
O67 C51 1.243 . S
O68 La41 2.554 . S
O68 C58 1.240 . S
O69 La40 2.482 . S
O69 La41 2.757 . S
O69 C58 1.289 . S
O70 La41 2.470 . S
O70 C59 1.258 . S
O71 La40 2.503 . S
O71 C59 1.256 . S
H72 C44 0.930 . S
H73 C45 0.930 . S
H74 C47 0.929 . S
H75 C48 0.929 . S
H76 C53 0.930 . S
H77 C54 0.930 . S
H78 C56 0.929 . S
H79 C57 0.929 . S
La80 C82 2.928 . S
La80 O100 2.521 . S
La80 O101 2.628 . S
La80 O102 2.554 . S
La80 O103 2.757 . S
La80 O104 2.470 . S
La80 O109 2.482 . S
La80 O111 2.503 . S
La81 C91 2.928 . S
La81 O103 2.482 . S
La81 O105 2.503 . S
La81 O106 2.521 . S
La81 O107 2.628 . S
La81 O108 2.554 . S
La81 O109 2.757 . S
La81 O110 2.470 . S
C82 La80 2.928 . S
C82 C83 1.503 . S
C82 O100 1.261 . S
C82 O101 1.243 . S
C83 C82 1.503 . S
C83 C84 1.394 . S
C83 C88 1.373 . S
C84 C83 1.394 . S
C84 C85 1.380 . S
C84 H112 0.930 . S
C85 C84 1.380 . S
C85 C86 1.376 . S
C85 H113 0.930 . S
C86 C85 1.376 . S
C86 C87 1.370 . S
C87 C86 1.370 . S
C87 C88 1.396 . S
C87 H114 0.929 . S
C88 C83 1.373 . S
C88 C87 1.396 . S
C88 H115 0.929 . S
C89 O102 1.240 . S
C89 O103 1.289 . S
C90 O104 1.258 . S
C90 O105 1.256 . S
C91 La81 2.928 . S
C91 C92 1.503 . S
C91 O106 1.261 . S
C91 O107 1.243 . S
C92 C91 1.503 . S
C92 C93 1.394 . S
C92 C97 1.373 . S
C93 C92 1.394 . S
C93 C94 1.380 . S
C93 H116 0.930 . S
C94 C93 1.380 . S
C94 C95 1.376 . S
C94 H117 0.930 . S
C95 C94 1.376 . S
C95 C96 1.370 . S
C96 C95 1.370 . S
C96 C97 1.396 . S
C96 H118 0.929 . S
C97 C92 1.373 . S
C97 C96 1.396 . S
C97 H119 0.929 . S
C98 O108 1.240 . S
C98 O109 1.289 . S
C99 O110 1.258 . S
C99 O111 1.256 . S
O100 La80 2.521 . S
O100 C82 1.261 . S
O101 La80 2.628 . S
O101 C82 1.243 . S
O102 La80 2.554 . S
O102 C89 1.240 . S
O103 La80 2.757 . S
O103 La81 2.482 . S
O103 C89 1.289 . S
O104 La80 2.470 . S
O104 C90 1.258 . S
O105 La81 2.503 . S
O105 C90 1.256 . S
O106 La81 2.521 . S
O106 C91 1.261 . S
O107 La81 2.628 . S
O107 C91 1.243 . S
O108 La81 2.554 . S
O108 C98 1.240 . S
O109 La80 2.482 . S
O109 La81 2.757 . S
O109 C98 1.289 . S
O110 La81 2.470 . S
O110 C99 1.258 . S
O111 La80 2.503 . S
O111 C99 1.256 . S
H112 C84 0.930 . S
H113 C85 0.930 . S
H114 C87 0.929 . S
H115 C88 0.929 . S
H116 C93 0.930 . S
H117 C94 0.930 . S
H118 C96 0.929 . S
H119 C97 0.929 . S
H120 C127 0.929 . S
H121 C130 0.930 . S
H122 C132 0.929 . S
H123 C124 0.969 . S
C124 H123 0.969 . S
C124 O125 1.550 . S
C124 H126 0.973 . S
O125 C124 1.550 . S
O125 C131 1.412 . S
H126 C124 0.973 . S
C127 H120 0.929 . S
C127 C128 1.400 . S
C127 C129 1.364 . S
C128 C127 1.400 . S
C128 C132 1.377 . S
C129 C127 1.364 . S
C129 C130 1.374 1_545 S
C130 H121 0.930 . S
C130 C129 1.374 1_565 S
C130 C131 1.383 . S
C131 O125 1.412 . S
C131 C130 1.383 . S
C131 C132 1.394 1_565 S
C132 H122 0.929 . S
C132 C128 1.377 . S
C132 C131 1.394 1_545 S
H133 C140 0.929 . S
H134 C143 0.930 . S
H135 C145 0.929 . S
H136 C137 0.969 . S
C137 H136 0.969 . S
C137 O138 1.550 . S
C137 H139 0.973 . S
O138 C137 1.550 . S
O138 C144 1.412 . S
H139 C137 0.973 . S
C140 H133 0.929 . S
C140 C141 1.400 . S
C140 C142 1.364 . S
C141 C140 1.400 . S
C141 C145 1.377 . S
C142 C140 1.364 . S
C142 C143 1.374 . S
C143 H134 0.930 . S
C143 C142 1.374 . S
C143 C144 1.383 . S
C144 O138 1.412 . S
C144 C143 1.383 . S
C144 C145 1.394 . S
C145 H135 0.929 . S
C145 C141 1.377 . S
C145 C144 1.394 . S
H146 C153 0.929 . S
H147 C156 0.930 . S
H148 C158 0.929 . S
H149 C150 0.969 . S
C150 H149 0.969 . S
C150 O151 1.550 . S
C150 H152 0.973 . S
O151 C150 1.550 . S
O151 C157 1.412 . S
H152 C150 0.973 . S
C153 H146 0.929 . S
C153 C154 1.400 . S
C153 C155 1.364 . S
C154 C153 1.400 . S
C154 C158 1.377 . S
C155 C153 1.364 . S
C155 C156 1.374 . S
C156 H147 0.930 . S
C156 C155 1.374 . S
C156 C157 1.383 . S
C157 O151 1.412 . S
C157 C156 1.383 . S
C157 C158 1.394 . S
C158 H148 0.929 . S
C158 C154 1.377 . S
C158 C157 1.394 . S
H159 C166 0.929 . S
H160 C169 0.930 . S
H161 C171 0.929 . S
H162 C163 0.969 . S
C163 H162 0.969 . S
C163 O164 1.550 . S
C163 H165 0.973 . S
O164 C163 1.550 . S
O164 C170 1.412 . S
H165 C163 0.973 . S
C166 H159 0.929 . S
C166 C167 1.400 . S
C166 C168 1.364 1_655 S
C167 C166 1.400 . S
C167 C171 1.377 1_655 S
C168 C166 1.364 1_455 S
C168 C169 1.374 . S
C169 H160 0.930 . S
C169 C168 1.374 . S
C169 C170 1.383 . S
C170 O164 1.412 . S
C170 C169 1.383 . S
C170 C171 1.394 . S
C171 H161 0.929 . S
C171 C167 1.377 1_455 S
C171 C170 1.394 . S
H172 C179 0.929 . S
H173 C182 0.930 . S
H174 C184 0.929 . S
H175 C176 0.969 . S
C176 H175 0.969 . S
C176 O177 1.550 . S
C176 H178 0.973 . S
O177 C176 1.550 . S
O177 C183 1.412 . S
H178 C176 0.973 . S
C179 H172 0.929 . S
C179 C180 1.400 . S
C179 C181 1.364 1_565 S
C180 C179 1.400 . S
C180 C184 1.377 1_565 S
C181 C179 1.364 1_545 S
C181 C182 1.374 . S
C182 H173 0.930 . S
C182 C181 1.374 . S
C182 C183 1.383 . S
C183 O177 1.412 . S
C183 C182 1.383 . S
C183 C184 1.394 . S
C184 H174 0.929 . S
C184 C180 1.377 1_545 S
C184 C183 1.394 . S
H185 C192 0.929 . S
H186 C195 0.930 . S
H187 C197 0.929 . S
H188 C189 0.969 . S
C189 H188 0.969 . S
C189 O190 1.550 . S
C189 H191 0.973 . S
O190 C189 1.550 . S
O190 C196 1.412 . S
H191 C189 0.973 . S
C192 H185 0.929 . S
C192 C193 1.400 . S
C192 C194 1.364 . S
C193 C192 1.400 . S
C193 C197 1.377 . S
C194 C192 1.364 . S
C194 C195 1.374 . S
C195 H186 0.930 . S
C195 C194 1.374 . S
C195 C196 1.383 . S
C196 O190 1.412 . S
C196 C195 1.383 . S
C196 C197 1.394 . S
C197 H187 0.929 . S
C197 C193 1.377 . S
C197 C196 1.394 . S
H198 C206 0.950 . S
H199 C211 0.950 . S
H200 C208 0.950 . S
H201 C210 0.950 . S
H202 C212 0.950 . S
H203 C214 0.950 . S
H204 C216 0.950 . S
H205 C217 0.950 . S
C206 H198 0.950 . S
C206 C207 1.386 . S
C206 C208 1.391 . S
C207 C206 1.386 . S
C207 C211 1.393 . S
C208 H200 0.950 . S
C208 C206 1.391 . S
C208 C209 1.400 . S
C209 C208 1.400 . S
C209 C210 1.398 . S
C209 C215 1.491 . S
C210 H201 0.950 . S
C210 C209 1.398 . S
C210 C211 1.391 . S
C211 H199 0.950 . S
C211 C207 1.393 . S
C211 C210 1.391 . S
C212 H202 0.950 . S
C212 C213 1.386 . S
C212 C214 1.391 . S
C213 C212 1.386 . S
C213 C217 1.393 . S
C214 H203 0.950 . S
C214 C212 1.391 . S
C214 C215 1.400 . S
C215 C209 1.491 . S
C215 C214 1.400 . S
C215 C216 1.398 . S
C216 H204 0.950 . S
C216 C215 1.398 . S
C216 C217 1.391 . S
C217 H205 0.950 . S
C217 C213 1.393 . S
C217 C216 1.391 . S
H218 C226 0.950 . S
H219 C231 0.950 . S
H220 C228 0.950 . S
H221 C230 0.950 . S
H222 C232 0.950 . S
H223 C234 0.950 . S
H224 C236 0.950 . S
H225 C237 0.950 . S
C226 H218 0.950 . S
C226 C227 1.386 . S
C226 C228 1.391 . S
C227 C226 1.386 . S
C227 C231 1.393 . S
C228 H220 0.950 . S
C228 C226 1.391 . S
C228 C229 1.400 . S
C229 C228 1.400 . S
C229 C230 1.398 . S
C229 C235 1.491 . S
C230 H221 0.950 . S
C230 C229 1.398 . S
C230 C231 1.391 . S
C231 H219 0.950 . S
C231 C227 1.393 . S
C231 C230 1.391 . S
C232 H222 0.950 . S
C232 C233 1.386 . S
C232 C234 1.391 . S
C233 C232 1.386 . S
C233 C237 1.393 . S
C234 H223 0.950 . S
C234 C232 1.391 . S
C234 C235 1.400 . S
C235 C229 1.491 . S
C235 C234 1.400 . S
C235 C236 1.398 . S
C236 H224 0.950 . S
C236 C235 1.398 . S
C236 C237 1.391 . S
C237 H225 0.950 . S
C237 C233 1.393 . S
C237 C236 1.391 . S
H238 C246 0.950 . S
H239 C251 0.950 . S
H240 C248 0.950 . S
H241 C250 0.950 . S
H242 C252 0.950 1_545 S
H243 C254 0.950 . S
H244 C256 0.950 . S
H245 C257 0.950 . S
C246 H238 0.950 . S
C246 C247 1.386 . S
C246 C248 1.391 . S
C247 C246 1.386 . S
C247 C251 1.393 . S
C248 H240 0.950 . S
C248 C246 1.391 . S
C248 C249 1.400 . S
C249 C248 1.400 . S
C249 C250 1.398 . S
C249 C255 1.491 . S
C250 H241 0.950 . S
C250 C249 1.398 . S
C250 C251 1.391 . S
C251 H239 0.950 . S
C251 C247 1.393 . S
C251 C250 1.391 . S
C252 H242 0.950 1_565 S
C252 C253 1.386 . S
C252 C254 1.391 . S
C253 C252 1.386 . S
C253 C257 1.393 . S
C254 H243 0.950 . S
C254 C252 1.391 . S
C254 C255 1.400 . S
C255 C249 1.491 . S
C255 C254 1.400 . S
C255 C256 1.398 . S
C256 H244 0.950 . S
C256 C255 1.398 . S
C256 C257 1.391 . S
C257 H245 0.950 . S
C257 C253 1.393 . S
C257 C256 1.391 . S
H258 C266 0.950 . S
H259 C271 0.950 . S
H260 C268 0.950 . S
H261 C270 0.950 . S
H262 C272 0.950 . S
H263 C274 0.950 . S
H264 C276 0.950 . S
H265 C277 0.950 . S
C266 H258 0.950 . S
C266 C267 1.386 . S
C266 C268 1.391 . S
C267 C266 1.386 . S
C267 C271 1.393 . S
C268 H260 0.950 . S
C268 C266 1.391 . S
C268 C269 1.400 . S
C269 C268 1.400 . S
C269 C270 1.398 . S
C269 C275 1.491 . S
C270 H261 0.950 . S
C270 C269 1.398 . S
C270 C271 1.391 . S
C271 H259 0.950 . S
C271 C267 1.393 . S
C271 C270 1.391 . S
C272 H262 0.950 . S
C272 C273 1.386 . S
C272 C274 1.391 . S
C273 C272 1.386 . S
C273 C277 1.393 . S
C274 H263 0.950 . S
C274 C272 1.391 . S
C274 C275 1.400 . S
C275 C269 1.491 . S
C275 C274 1.400 . S
C275 C276 1.398 . S
C276 H264 0.950 . S
C276 C275 1.398 . S
C276 C277 1.391 . S
C277 H265 0.950 . S
C277 C273 1.393 . S
C277 C276 1.391 . S
H278 C286 0.950 . S
H279 C291 0.950 . S
H280 C288 0.950 . S
H281 C290 0.950 . S
H282 C292 0.950 . S
H283 C294 0.950 . S
H284 C296 0.950 . S
H285 C297 0.950 . S
C286 H278 0.950 . S
C286 C287 1.386 . S
C286 C288 1.391 . S
C287 C286 1.386 . S
C287 C291 1.393 . S
C288 H280 0.950 . S
C288 C286 1.391 . S
C288 C289 1.400 . S
C289 C288 1.400 . S
C289 C290 1.398 . S
C289 C295 1.491 . S
C290 H281 0.950 . S
C290 C289 1.398 . S
C290 C291 1.391 . S
C291 H279 0.950 . S
C291 C287 1.393 . S
C291 C290 1.391 . S
C292 H282 0.950 . S
C292 C293 1.386 . S
C292 C294 1.391 . S
C293 C292 1.386 . S
C293 C297 1.393 . S
C294 H283 0.950 . S
C294 C292 1.391 . S
C294 C295 1.400 . S
C295 C289 1.491 . S
C295 C294 1.400 . S
C295 C296 1.398 . S
C296 H284 0.950 . S
C296 C295 1.398 . S
C296 C297 1.391 . S
C297 H285 0.950 . S
C297 C293 1.393 . S
C297 C296 1.391 . S
H298 C306 0.950 . S
H299 C311 0.950 . S
H300 C308 0.950 . S
H301 C310 0.950 . S
H302 C312 0.950 . S
H303 C314 0.950 . S
H304 C316 0.950 . S
H305 C317 0.950 . S
C306 H298 0.950 . S
C306 C307 1.386 . S
C306 C308 1.391 . S
C307 C306 1.386 . S
C307 C311 1.393 . S
C308 H300 0.950 . S
C308 C306 1.391 . S
C308 C309 1.400 . S
C309 C308 1.400 . S
C309 C310 1.398 . S
C309 C315 1.491 . S
C310 H301 0.950 . S
C310 C309 1.398 . S
C310 C311 1.391 . S
C311 H299 0.950 . S
C311 C307 1.393 . S
C311 C310 1.391 . S
C312 H302 0.950 . S
C312 C313 1.386 . S
C312 C314 1.391 . S
C313 C312 1.386 . S
C313 C317 1.393 . S
C314 H303 0.950 . S
C314 C312 1.391 . S
C314 C315 1.400 . S
C315 C309 1.491 . S
C315 C314 1.400 . S
C315 C316 1.398 . S
C316 H304 0.950 . S
C316 C315 1.398 . S
C316 C317 1.391 . S
C317 H305 0.950 . S
C317 C313 1.393 . S
C317 C316 1.391 . S
H318 C326 0.950 . S
H319 C331 0.950 . S
H320 C328 0.950 . S
H321 C330 0.950 . S
H322 C332 0.950 . S
H323 C334 0.950 . S
H324 C336 0.950 . S
H325 C337 0.950 . S
C326 H318 0.950 . S
C326 C327 1.386 . S
C326 C328 1.391 . S
C327 C326 1.386 . S
C327 C331 1.393 . S
C328 H320 0.950 . S
C328 C326 1.391 . S
C328 C329 1.400 . S
C329 C328 1.400 . S
C329 C330 1.398 . S
C329 C335 1.491 . S
C330 H321 0.950 . S
C330 C329 1.398 . S
C330 C331 1.391 . S
C331 H319 0.950 . S
C331 C327 1.393 . S
C331 C330 1.391 . S
C332 H322 0.950 . S
C332 C333 1.386 . S
C332 C334 1.391 . S
C333 C332 1.386 . S
C333 C337 1.393 . S
C334 H323 0.950 . S
C334 C332 1.391 . S
C334 C335 1.400 . S
C335 C329 1.491 . S
C335 C334 1.400 . S
C335 C336 1.398 . S
C336 H324 0.950 . S
C336 C335 1.398 . S
C336 C337 1.391 . S
C337 H325 0.950 . S
C337 C333 1.393 . S
C337 C336 1.391 . S
H338 C346 0.950 . S
H339 C351 0.950 . S
H340 C348 0.950 . S
H341 C350 0.950 . S
H342 C352 0.950 . S
H343 C354 0.950 . S
H344 C356 0.950 . S
H345 C357 0.963 . S
C346 H338 0.950 . S
C346 C347 1.386 . S
C346 C348 1.391 . S
C347 C346 1.386 . S
C347 C351 1.393 . S
C348 H340 0.950 . S
C348 C346 1.391 . S
C348 C349 1.400 . S
C349 C348 1.400 . S
C349 C350 1.398 . S
C349 C355 1.491 . S
C350 H341 0.950 . S
C350 C349 1.398 . S
C350 C351 1.391 . S
C351 H339 0.950 . S
C351 C347 1.393 . S
C351 C350 1.391 . S
C352 H342 0.950 . S
C352 C353 1.386 . S
C352 C354 1.391 . S
C353 C352 1.386 . S
C353 C357 1.393 . S
C354 H343 0.950 . S
C354 C352 1.391 . S
C354 C355 1.400 . S
C355 C349 1.491 . S
C355 C354 1.400 . S
C355 C356 1.398 . S
C356 H344 0.950 . S
C356 C355 1.398 . S
C356 C357 1.391 . S
C357 H345 0.963 . S
C357 C353 1.393 . S
C357 C356 1.391 . S
H358 C366 0.950 . S
H359 C371 0.950 . S
H360 C368 0.950 . S
H361 C370 0.950 . S
H362 C372 0.950 . S
H363 C374 0.950 . S
H364 C376 0.950 . S
H365 C377 0.950 . S
C366 H358 0.950 . S
C366 C367 1.386 . S
C366 C368 1.391 . S
C367 C366 1.386 . S
C367 C371 1.393 . S
C368 H360 0.950 . S
C368 C366 1.391 . S
C368 C369 1.400 . S
C369 C368 1.400 . S
C369 C370 1.398 . S
C369 C375 1.491 . S
C370 H361 0.950 . S
C370 C369 1.398 . S
C370 C371 1.391 . S
C371 H359 0.950 . S
C371 C367 1.393 . S
C371 C370 1.391 . S
C372 H362 0.950 . S
C372 C373 1.386 . S
C372 C374 1.391 . S
C373 C372 1.386 . S
C373 C377 1.393 . S
C374 H363 0.950 . S
C374 C372 1.391 . S
C374 C375 1.400 . S
C375 C369 1.491 . S
C375 C374 1.400 . S
C375 C376 1.398 . S
C376 H364 0.950 . S
C376 C375 1.398 . S
C376 C377 1.391 . S
C377 H365 0.950 . S
C377 C373 1.393 . S
C377 C376 1.391 . S
H378 C386 0.950 . S
H379 C391 0.950 . S
H380 C388 0.950 . S
H381 C390 0.950 . S
H382 C392 0.950 . S
H383 C394 0.950 . S
H384 C396 0.950 . S
H385 C397 0.950 . S
C386 H378 0.950 . S
C386 C387 1.386 . S
C386 C388 1.391 . S
C387 C386 1.386 . S
C387 C391 1.393 . S
C388 H380 0.950 . S
C388 C386 1.391 . S
C388 C389 1.400 . S
C389 C388 1.400 . S
C389 C390 1.398 . S
C389 C395 1.491 . S
C390 H381 0.950 . S
C390 C389 1.398 . S
C390 C391 1.391 . S
C391 H379 0.950 . S
C391 C387 1.393 . S
C391 C390 1.391 . S
C392 H382 0.950 . S
C392 C393 1.386 . S
C392 C394 1.391 . S
C393 C392 1.386 . S
C393 C397 1.393 . S
C394 H383 0.950 . S
C394 C392 1.391 . S
C394 C395 1.400 . S
C395 C389 1.491 . S
C395 C394 1.400 . S
C395 C396 1.398 . S
C396 H384 0.950 . S
C396 C395 1.398 . S
C396 C397 1.391 . S
C397 H385 0.950 . S
C397 C393 1.393 . S
C397 C396 1.391 . S
H398 C406 0.950 . S
H399 C411 0.950 . S
H400 C408 0.950 . S
H401 C410 0.950 . S
H402 C412 0.950 . S
H403 C414 0.950 . S
H404 C416 0.950 . S
H405 C417 0.950 . S
C406 H398 0.950 . S
C406 C407 1.386 . S
C406 C408 1.391 . S
C407 C406 1.386 . S
C407 C411 1.393 . S
C408 H400 0.950 . S
C408 C406 1.391 . S
C408 C409 1.400 . S
C409 C408 1.400 . S
C409 C410 1.398 . S
C409 C415 1.491 . S
C410 H401 0.950 . S
C410 C409 1.398 . S
C410 C411 1.391 . S
C411 H399 0.950 . S
C411 C407 1.393 . S
C411 C410 1.391 . S
C412 H402 0.950 . S
C412 C413 1.386 . S
C412 C414 1.391 . S
C413 C412 1.386 . S
C413 C417 1.393 . S
C414 H403 0.950 . S
C414 C412 1.391 . S
C414 C415 1.400 . S
C415 C409 1.491 . S
C415 C414 1.400 . S
C415 C416 1.398 . S
C416 H404 0.950 . S
C416 C415 1.398 . S
C416 C417 1.391 . S
C417 H405 0.950 . S
C417 C413 1.393 . S
C417 C416 1.391 . S
H418 C426 0.950 . S
H419 C431 0.950 . S
H420 C428 0.950 . S
H421 C430 0.950 . S
H422 C432 0.950 . S
H423 C434 0.950 . S
H424 C436 0.950 . S
H425 C437 0.950 . S
C426 H418 0.950 . S
C426 C427 1.386 . S
C426 C428 1.391 . S
C427 C426 1.386 . S
C427 C431 1.393 . S
C428 H420 0.950 . S
C428 C426 1.391 . S
C428 C429 1.400 . S
C429 C428 1.400 . S
C429 C430 1.398 . S
C429 C435 1.491 . S
C430 H421 0.950 . S
C430 C429 1.398 . S
C430 C431 1.391 . S
C431 H419 0.950 . S
C431 C427 1.393 . S
C431 C430 1.391 . S
C432 H422 0.950 . S
C432 C433 1.386 . S
C432 C434 1.391 . S
C433 C432 1.386 . S
C433 C437 1.393 . S
C434 H423 0.950 . S
C434 C432 1.391 . S
C434 C435 1.400 . S
C435 C429 1.491 . S
C435 C434 1.400 . S
C435 C436 1.398 . S
C436 H424 0.950 . S
C436 C435 1.398 . S
C436 C437 1.391 . S
C437 H425 0.950 . S
C437 C433 1.393 . S
C437 C436 1.391 . S
H438 C446 0.947 . S
H439 C451 0.950 . S
H440 C448 0.950 1_655 S
H441 C450 0.950 . S
H442 C452 0.950 . S
H443 C454 0.950 . S
H444 C456 0.950 . S
H445 C457 0.950 . S
C446 H438 0.947 . S
C446 C447 1.392 1_655 S
C446 C448 1.388 1_655 S
C447 C446 1.392 1_455 S
C447 C451 1.393 . S
C448 H440 0.950 1_455 S
C448 C446 1.388 1_455 S
C448 C449 1.400 . S
C449 C448 1.400 . S
C449 C450 1.398 . S
C449 C455 1.491 1_554 S
C450 H441 0.950 . S
C450 C449 1.398 . S
C450 C451 1.391 . S
C451 H439 0.950 . S
C451 C447 1.393 . S
C451 C450 1.391 . S
C452 H442 0.950 . S
C452 C453 1.386 . S
C452 C454 1.391 . S
C453 C452 1.386 . S
C453 C457 1.393 . S
C454 H443 0.950 . S
C454 C452 1.391 . S
C454 C455 1.400 . S
C455 C449 1.491 1_556 S
C455 C454 1.400 . S
C455 C456 1.398 . S
C456 H444 0.950 . S
C456 C455 1.398 . S
C456 C457 1.391 . S
C457 H445 0.950 . S
C457 C453 1.393 . S
C457 C456 1.391 . S
H458 C466 0.950 . S
H459 C471 0.950 . S
H460 C468 0.950 . S
H461 C470 0.950 . S
H462 C472 0.950 . S
H463 C474 0.950 . S
H464 C476 0.950 . S
H465 C477 0.950 . S
C466 H458 0.950 . S
C466 C467 1.386 1_565 S
C466 C468 1.391 . S
C467 C466 1.386 1_545 S
C467 C471 1.393 . S
C468 H460 0.950 . S
C468 C466 1.391 . S
C468 C469 1.400 1_565 S
C469 C468 1.400 1_545 S
C469 C470 1.398 . S
C469 C475 1.491 . S
C470 H461 0.950 . S
C470 C469 1.398 . S
C470 C471 1.391 . S
C471 H459 0.950 . S
C471 C467 1.393 . S
C471 C470 1.391 . S
C472 H462 0.950 . S
C472 C473 1.386 . S
C472 C474 1.391 . S
C473 C472 1.386 . S
C473 C477 1.393 1_545 S
C474 H463 0.950 . S
C474 C472 1.391 . S
C474 C475 1.400 . S
C475 C469 1.491 . S
C475 C474 1.400 . S
C475 C476 1.398 1_545 S
C476 H464 0.950 . S
C476 C475 1.398 1_565 S
C476 C477 1.391 . S
C477 H465 0.950 . S
C477 C473 1.393 1_565 S
C477 C476 1.391 . S
H478 C486 0.950 . S
H479 C491 0.950 . S
H480 C488 0.950 . S
H481 C490 0.950 . S
H482 C492 0.950 . S
H483 C494 0.950 . S
H484 C496 0.950 . S
H485 C497 0.950 . S
C486 H478 0.950 . S
C486 C487 1.386 . S
C486 C488 1.391 . S
C487 C486 1.386 . S
C487 C491 1.393 . S
C488 H480 0.950 . S
C488 C486 1.391 . S
C488 C489 1.400 . S
C489 C488 1.400 . S
C489 C490 1.398 . S
C489 C495 1.491 . S
C490 H481 0.950 . S
C490 C489 1.398 . S
C490 C491 1.391 . S
C491 H479 0.950 . S
C491 C487 1.393 . S
C491 C490 1.391 . S
C492 H482 0.950 . S
C492 C493 1.386 . S
C492 C494 1.391 . S
C493 C492 1.386 . S
C493 C497 1.393 . S
C494 H483 0.950 . S
C494 C492 1.391 . S
C494 C495 1.400 . S
C495 C489 1.491 . S
C495 C494 1.400 . S
C495 C496 1.398 . S
C496 H484 0.950 . S
C496 C495 1.398 . S
C496 C497 1.391 . S
C497 H485 0.950 . S
C497 C493 1.393 . S
C497 C496 1.391 . S
H498 C506 0.950 . S
H499 C511 0.950 . S
H500 C508 0.950 . S
H501 C510 0.950 . S
H502 C512 0.950 . S
H503 C514 0.950 . S
H504 C516 0.950 . S
H505 C517 0.950 . S
C506 H498 0.950 . S
C506 C507 1.386 . S
C506 C508 1.391 . S
C507 C506 1.386 . S
C507 C511 1.393 1_545 S
C508 H500 0.950 . S
C508 C506 1.391 . S
C508 C509 1.400 . S
C509 C508 1.400 . S
C509 C510 1.398 1_545 S
C509 C515 1.491 . S
C510 H501 0.950 . S
C510 C509 1.398 1_565 S
C510 C511 1.391 . S
C511 H499 0.950 . S
C511 C507 1.393 1_565 S
C511 C510 1.391 . S
C512 H502 0.950 . S
C512 C513 1.386 1_565 S
C512 C514 1.391 . S
C513 C512 1.386 1_545 S
C513 C517 1.393 . S
C514 H503 0.950 . S
C514 C512 1.391 . S
C514 C515 1.400 1_565 S
C515 C509 1.491 . S
C515 C514 1.400 1_545 S
C515 C516 1.398 . S
C516 H504 0.950 . S
C516 C515 1.398 . S
C516 C517 1.391 . S
C517 H505 0.950 . S
C517 C513 1.393 . S
C517 C516 1.391 . S
H518 C526 0.950 . S
H519 C531 0.950 . S
H520 C528 0.950 . S
H521 C530 0.950 . S
H522 C532 0.950 . S
H523 C534 0.950 . S
H524 C536 0.950 1_556 S
H525 C537 0.950 . S
C526 H518 0.950 . S
C526 C527 1.386 . S
C526 C528 1.391 . S
C527 C526 1.386 . S
C527 C531 1.393 . S
C528 H520 0.950 . S
C528 C526 1.391 . S
C528 C529 1.400 . S
C529 C528 1.400 . S
C529 C530 1.398 . S
C529 C535 1.491 . S
C530 H521 0.950 . S
C530 C529 1.398 . S
C530 C531 1.391 . S
C531 H519 0.950 . S
C531 C527 1.393 . S
C531 C530 1.391 . S
C532 H522 0.950 . S
C532 C533 1.386 . S
C532 C534 1.391 . S
C533 C532 1.386 . S
C533 C537 1.393 . S
C534 H523 0.950 . S
C534 C532 1.391 . S
C534 C535 1.400 1_554 S
C535 C529 1.491 . S
C535 C534 1.400 1_556 S
C535 C536 1.398 1_556 S
C536 H524 0.950 1_554 S
C536 C535 1.398 1_554 S
C536 C537 1.391 . S
C537 H525 0.950 . S
C537 C533 1.393 . S
C537 C536 1.391 . S
H538 C546 0.950 . S
H539 C551 0.950 . S
H540 C548 0.950 . S
H541 C550 0.950 . S
H542 C552 0.950 . S
H543 C554 0.950 . S
H544 C556 0.950 . S
H545 C557 0.950 . S
C546 H538 0.950 . S
C546 C547 1.401 . S
C546 C548 1.391 . S
C547 C546 1.401 . S
C547 C551 1.378 1_455 S
C548 H540 0.950 . S
C548 C546 1.391 . S
C548 C549 1.400 . S
C549 C548 1.400 . S
C549 C550 1.398 . S
C549 C555 1.491 . S
C550 H541 0.950 . S
C550 C549 1.398 . S
C550 C551 1.391 1_455 S
C551 H539 0.950 . S
C551 C547 1.378 1_655 S
C551 C550 1.391 1_655 S
C552 H542 0.950 . S
C552 C553 1.386 . S
C552 C554 1.391 . S
C553 C552 1.386 . S
C553 C557 1.393 . S
C554 H543 0.950 . S
C554 C552 1.391 . S
C554 C555 1.400 . S
C555 C549 1.491 . S
C555 C554 1.400 . S
C555 C556 1.398 . S
C556 H544 0.950 . S
C556 C555 1.398 . S
C556 C557 1.391 . S
C557 H545 0.950 . S
C557 C553 1.393 . S
C557 C556 1.391 . S
C207 C6 0.628 . S
C213 C189 0.604 . S
C227 C59 1.824 . S
C233 C167 1.801 . S
C247 C86 1.180 . S
C253 C180 1.170 . S
C267 C15 0.426 . S
C273 C193 0.216 . S
C293 C163 1.859 . S
C287 C50 2.004 . S
C313 C176 1.246 . S
C307 C95 1.329 . S
C327 C46 1.085 . S
C333 C141 1.069 . S
C347 C99 3.043 . S
C353 C154 3.015 1_655 S
C367 C10 2.004 . S
C373 C124 1.867 . S
C393 C137 1.309 . S
C387 C55 1.331 . S
C413 C150 2.914 . S
C407 C90 3.064 . S
C427 C19 1.825 . S
C433 C128 1.825 . S
C453 C155 1.756 . S
C447 C18 1.692 . S
C467 C49 1.463 . S
C473 C129 1.487 . S
C487 C98 1.508 . S
C493 C142 1.605 . S
C513 C181 1.541 . S
C507 C58 1.453 . S
C533 C194 1.312 . S
C527 C89 1.311 . S
C547 C9 1.421 . S
C553 C168 1.474 . S
