# Generated by pormake.
# Topology ptr, (4,4)-cn, num edge types: 1
# Building blocks:
#     Node 0, Type 0, BuildingBlock: TATPOV_clean_sbu_0, # of connection points: 4
#     Node 1, Type 0, BuildingBlock: TATPOV_clean_sbu_0, # of connection points: 4
#     Node 2, Type 0, BuildingBlock: TATPOV_clean_sbu_0, # of connection points: 4
#     Node 3, Type 0, BuildingBlock: TATPOV_clean_sbu_0, # of connection points: 4
#     Node 4, Type 0, BuildingBlock: TATPOV_clean_sbu_0, # of connection points: 4
#     Node 5, Type 0, BuildingBlock: TATPOV_clean_sbu_0, # of connection points: 4
#     Node 6, Type 0, BuildingBlock: TATPOV_clean_sbu_0, # of connection points: 4
#     Node 7, Type 0, BuildingBlock: TATPOV_clean_sbu_0, # of connection points: 4
#     Node 8, Type 0, BuildingBlock: TATPOV_clean_sbu_0, # of connection points: 4
#     Node 9, Type 0, BuildingBlock: TATPOV_clean_sbu_0, # of connection points: 4
#     Node 10, Type 0, BuildingBlock: TATPOV_clean_sbu_0, # of connection points: 4
#     Node 11, Type 0, BuildingBlock: TATPOV_clean_sbu_0, # of connection points: 4
#     Node 12, Type 0, BuildingBlock: TATPOV_clean_sbu_0, # of connection points: 4
#     Node 13, Type 0, BuildingBlock: TATPOV_clean_sbu_0, # of connection points: 4
#     Node 14, Type 0, BuildingBlock: TATPOV_clean_sbu_0, # of connection points: 4
#     Node 15, Type 0, BuildingBlock: TATPOV_clean_sbu_0, # of connection points: 4
#     Node 16, Type 0, BuildingBlock: TATPOV_clean_sbu_0, # of connection points: 4
#     Node 17, Type 0, BuildingBlock: TATPOV_clean_sbu_0, # of connection points: 4
#     Node 18, Type 1, BuildingBlock: NAWXER_clean_linker_0, # of connection points: 4
#     Node 19, Type 1, BuildingBlock: NAWXER_clean_linker_0, # of connection points: 4
#     Node 20, Type 1, BuildingBlock: NAWXER_clean_linker_0, # of connection points: 4
#     Node 21, Type 1, BuildingBlock: NAWXER_clean_linker_0, # of connection points: 4
#     Node 22, Type 1, BuildingBlock: NAWXER_clean_linker_0, # of connection points: 4
#     Node 23, Type 1, BuildingBlock: NAWXER_clean_linker_0, # of connection points: 4
#     Node 24, Type 1, BuildingBlock: NAWXER_clean_linker_0, # of connection points: 4
#     Node 25, Type 1, BuildingBlock: NAWXER_clean_linker_0, # of connection points: 4
#     Node 26, Type 1, BuildingBlock: NAWXER_clean_linker_0, # of connection points: 4
#     Node 27, Type 1, BuildingBlock: NAWXER_clean_linker_0, # of connection points: 4
#     Node 28, Type 1, BuildingBlock: NAWXER_clean_linker_0, # of connection points: 4
#     Node 29, Type 1, BuildingBlock: NAWXER_clean_linker_0, # of connection points: 4
#     Node 30, Type 1, BuildingBlock: NAWXER_clean_linker_0, # of connection points: 4
#     Node 31, Type 1, BuildingBlock: NAWXER_clean_linker_0, # of connection points: 4
#     Node 32, Type 1, BuildingBlock: NAWXER_clean_linker_0, # of connection points: 4
#     Node 33, Type 1, BuildingBlock: NAWXER_clean_linker_0, # of connection points: 4
#     Node 34, Type 1, BuildingBlock: NAWXER_clean_linker_0, # of connection points: 4
#     Node 35, Type 1, BuildingBlock: NAWXER_clean_linker_0, # of connection points: 4
#     Edge 36, Type (0, 1), BuildingBlock: UVAHIK_clean_linker_0, # of connection points: 2
#     Edge 37, Type (0, 1), BuildingBlock: UVAHIK_clean_linker_0, # of connection points: 2
#     Edge 38, Type (0, 1), BuildingBlock: UVAHIK_clean_linker_0, # of connection points: 2
#     Edge 39, Type (0, 1), BuildingBlock: UVAHIK_clean_linker_0, # of connection points: 2
#     Edge 40, Type (0, 1), BuildingBlock: UVAHIK_clean_linker_0, # of connection points: 2
#     Edge 41, Type (0, 1), BuildingBlock: UVAHIK_clean_linker_0, # of connection points: 2
#     Edge 42, Type (0, 1), BuildingBlock: UVAHIK_clean_linker_0, # of connection points: 2
#     Edge 43, Type (0, 1), BuildingBlock: UVAHIK_clean_linker_0, # of connection points: 2
#     Edge 44, Type (0, 1), BuildingBlock: UVAHIK_clean_linker_0, # of connection points: 2
#     Edge 45, Type (0, 1), BuildingBlock: UVAHIK_clean_linker_0, # of connection points: 2
#     Edge 46, Type (0, 1), BuildingBlock: UVAHIK_clean_linker_0, # of connection points: 2
#     Edge 47, Type (0, 1), BuildingBlock: UVAHIK_clean_linker_0, # of connection points: 2
#     Edge 48, Type (0, 1), BuildingBlock: UVAHIK_clean_linker_0, # of connection points: 2
#     Edge 49, Type (0, 1), BuildingBlock: UVAHIK_clean_linker_0, # of connection points: 2
#     Edge 50, Type (0, 1), BuildingBlock: UVAHIK_clean_linker_0, # of connection points: 2
#     Edge 51, Type (0, 1), BuildingBlock: UVAHIK_clean_linker_0, # of connection points: 2
#     Edge 52, Type (0, 1), BuildingBlock: UVAHIK_clean_linker_0, # of connection points: 2
#     Edge 53, Type (0, 1), BuildingBlock: UVAHIK_clean_linker_0, # of connection points: 2
#     Edge 54, Type (0, 1), BuildingBlock: UVAHIK_clean_linker_0, # of connection points: 2
#     Edge 55, Type (0, 1), BuildingBlock: UVAHIK_clean_linker_0, # of connection points: 2
#     Edge 56, Type (0, 1), BuildingBlock: UVAHIK_clean_linker_0, # of connection points: 2
#     Edge 57, Type (0, 1), BuildingBlock: UVAHIK_clean_linker_0, # of connection points: 2
#     Edge 58, Type (0, 1), BuildingBlock: UVAHIK_clean_linker_0, # of connection points: 2
#     Edge 59, Type (0, 1), BuildingBlock: UVAHIK_clean_linker_0, # of connection points: 2
#     Edge 60, Type (0, 1), BuildingBlock: UVAHIK_clean_linker_0, # of connection points: 2
#     Edge 61, Type (0, 1), BuildingBlock: UVAHIK_clean_linker_0, # of connection points: 2
#     Edge 62, Type (0, 1), BuildingBlock: UVAHIK_clean_linker_0, # of connection points: 2
#     Edge 63, Type (0, 1), BuildingBlock: UVAHIK_clean_linker_0, # of connection points: 2
#     Edge 64, Type (0, 1), BuildingBlock: UVAHIK_clean_linker_0, # of connection points: 2
#     Edge 65, Type (0, 1), BuildingBlock: UVAHIK_clean_linker_0, # of connection points: 2
#     Edge 66, Type (0, 1), BuildingBlock: UVAHIK_clean_linker_0, # of connection points: 2
#     Edge 67, Type (0, 1), BuildingBlock: UVAHIK_clean_linker_0, # of connection points: 2
#     Edge 68, Type (0, 1), BuildingBlock: UVAHIK_clean_linker_0, # of connection points: 2
#     Edge 69, Type (0, 1), BuildingBlock: UVAHIK_clean_linker_0, # of connection points: 2
#     Edge 70, Type (0, 1), BuildingBlock: UVAHIK_clean_linker_0, # of connection points: 2
#     Edge 71, Type (0, 1), BuildingBlock: UVAHIK_clean_linker_0, # of connection points: 2
#     Edge 72, Type (0, 1), BuildingBlock: UVAHIK_clean_linker_0, # of connection points: 2
#     Edge 73, Type (0, 1), BuildingBlock: UVAHIK_clean_linker_0, # of connection points: 2
#     Edge 74, Type (0, 1), BuildingBlock: UVAHIK_clean_linker_0, # of connection points: 2
#     Edge 75, Type (0, 1), BuildingBlock: UVAHIK_clean_linker_0, # of connection points: 2
#     Edge 76, Type (0, 1), BuildingBlock: UVAHIK_clean_linker_0, # of connection points: 2
#     Edge 77, Type (0, 1), BuildingBlock: UVAHIK_clean_linker_0, # of connection points: 2
#     Edge 78, Type (0, 1), BuildingBlock: UVAHIK_clean_linker_0, # of connection points: 2
#     Edge 79, Type (0, 1), BuildingBlock: UVAHIK_clean_linker_0, # of connection points: 2
#     Edge 80, Type (0, 1), BuildingBlock: UVAHIK_clean_linker_0, # of connection points: 2
#     Edge 81, Type (0, 1), BuildingBlock: UVAHIK_clean_linker_0, # of connection points: 2
#     Edge 82, Type (0, 1), BuildingBlock: UVAHIK_clean_linker_0, # of connection points: 2
#     Edge 83, Type (0, 1), BuildingBlock: UVAHIK_clean_linker_0, # of connection points: 2
#     Edge 84, Type (0, 1), BuildingBlock: UVAHIK_clean_linker_0, # of connection points: 2
#     Edge 85, Type (0, 1), BuildingBlock: UVAHIK_clean_linker_0, # of connection points: 2
#     Edge 86, Type (0, 1), BuildingBlock: UVAHIK_clean_linker_0, # of connection points: 2
#     Edge 87, Type (0, 1), BuildingBlock: UVAHIK_clean_linker_0, # of connection points: 2
#     Edge 88, Type (0, 1), BuildingBlock: UVAHIK_clean_linker_0, # of connection points: 2
#     Edge 89, Type (0, 1), BuildingBlock: UVAHIK_clean_linker_0, # of connection points: 2
#     Edge 90, Type (0, 1), BuildingBlock: UVAHIK_clean_linker_0, # of connection points: 2
#     Edge 91, Type (0, 1), BuildingBlock: UVAHIK_clean_linker_0, # of connection points: 2
#     Edge 92, Type (0, 1), BuildingBlock: UVAHIK_clean_linker_0, # of connection points: 2
#     Edge 93, Type (0, 1), BuildingBlock: UVAHIK_clean_linker_0, # of connection points: 2
#     Edge 94, Type (0, 1), BuildingBlock: UVAHIK_clean_linker_0, # of connection points: 2
#     Edge 95, Type (0, 1), BuildingBlock: UVAHIK_clean_linker_0, # of connection points: 2
#     Edge 96, Type (0, 1), BuildingBlock: UVAHIK_clean_linker_0, # of connection points: 2
#     Edge 97, Type (0, 1), BuildingBlock: UVAHIK_clean_linker_0, # of connection points: 2
#     Edge 98, Type (0, 1), BuildingBlock: UVAHIK_clean_linker_0, # of connection points: 2
#     Edge 99, Type (0, 1), BuildingBlock: UVAHIK_clean_linker_0, # of connection points: 2
#     Edge 100, Type (0, 1), BuildingBlock: UVAHIK_clean_linker_0, # of connection points: 2
#     Edge 101, Type (0, 1), BuildingBlock: UVAHIK_clean_linker_0, # of connection points: 2
#     Edge 102, Type (0, 1), BuildingBlock: UVAHIK_clean_linker_0, # of connection points: 2
#     Edge 103, Type (0, 1), BuildingBlock: UVAHIK_clean_linker_0, # of connection points: 2
#     Edge 104, Type (0, 1), BuildingBlock: UVAHIK_clean_linker_0, # of connection points: 2
#     Edge 105, Type (0, 1), BuildingBlock: UVAHIK_clean_linker_0, # of connection points: 2
#     Edge 106, Type (0, 1), BuildingBlock: UVAHIK_clean_linker_0, # of connection points: 2
#     Edge 107, Type (0, 1), BuildingBlock: UVAHIK_clean_linker_0, # of connection points: 2
# Relax obj value: 0.067
# Max RMSD: 0.243
# Mean RMSD: 0.105
data_MOF--net-ptr--node1-TATPOV_clean_sbu_0--node2-NAWXER_clean_linker_0--edge1-UVAHIK_clean_linker_0
_symmetry_space_group_name_H-M    P1
_symmetry_Int_Tables_number       1
_symmetry_cell_setting            triclinic
loop_
_symmetry_equiv_pos_as_xyz
'x, y, z'
_cell_length_a     107.72999
_cell_length_b     109.23712
_cell_length_c     78.281246
_cell_angle_alpha  89.812574
_cell_angle_beta   90.545264
_cell_angle_gamma 121.45323
loop_
_atom_site_label
_atom_site_type_symbol
_atom_site_fract_x
_atom_site_fract_y
_atom_site_fract_z
_atom_type_partial_charge
Zn0 Zn 0.97091 0.353 0.99673 0.0
Zn1 Zn 0.99536 0.35489 0.0082 0.0
O2 O 0.98236 0.33394 0.99998 0.0
O3 O 0.96145 0.33171 0.99302 0.0
O4 O 0.01237 0.35471 0.0188 0.0
O5 O 0.96881 0.36116 0.01895 0.0
O6 O 0.98817 0.36136 0.02853 0.0
C7 C 0.96927 0.32625 0.99465 0.0
C8 C 0.99681 0.37229 0.97718 0.0
O9 O 0.0036 0.3696 0.98858 0.0
O10 O 0.98309 0.36627 0.97763 0.0
C11 C 0.01866 0.34899 0.01166 0.0
O12 O 0.01467 0.34378 0.99613 0.0
C13 C 0.97787 0.36365 0.03087 0.0
Zn14 Zn 0.64816 0.62039 0.99697 0.0
Zn15 Zn 0.64924 0.64343 0.01016 0.0
O16 O 0.67008 0.6514 0.0011 0.0
O17 O 0.669 0.63239 0.98997 0.0
O18 O 0.65082 0.66076 0.0214 0.0
O19 O 0.6435 0.61076 0.01991 0.0
O20 O 0.64316 0.62927 0.03038 0.0
C21 C 0.67618 0.64567 0.9934 0.0
C22 C 0.62789 0.62686 0.98102 0.0
O23 O 0.63346 0.63741 0.99143 0.0
O24 O 0.63221 0.61807 0.9811 0.0
C25 C 0.65503 0.67246 0.01352 0.0
O26 O 0.65803 0.67327 0.99718 0.0
C27 C 0.64166 0.61698 0.03237 0.0
Zn28 Zn 0.34321 0.96869 0.02148 0.0
Zn29 Zn 0.34652 0.9947 0.01871 0.0
O30 O 0.32614 0.98187 0.02899 0.0
O31 O 0.32325 0.96047 0.03145 0.0
O32 O 0.34672 0.01303 0.01464 0.0
O33 O 0.34588 0.96786 0.99613 0.0
O34 O 0.35001 0.98978 0.99451 0.0
C35 C 0.31844 0.96875 0.03343 0.0
C36 C 0.36754 0.99133 0.04136 0.0
O37 O 0.36331 0.99949 0.03552 0.0
O38 O 0.3609 0.9782 0.0371 0.0
C39 C 0.3561 0.02314 0.00533 0.0
O40 O 0.36689 0.02226 0.99911 0.0
C41 C 0.34925 0.97893 0.9874 0.0
Zn42 Zn 0.04597 0.66125 0.01377 0.0
Zn43 Zn 0.02025 0.65939 0.00947 0.0
O44 O 0.03521 0.68057 0.01511 0.0
O45 O 0.05657 0.68264 0.01741 0.0
O46 O 0.00261 0.66072 0.00448 0.0
O47 O 0.04426 0.65301 0.99021 0.0
O48 O 0.02288 0.65089 0.98725 0.0
C49 C 0.04888 0.68828 0.01781 0.0
C50 C 0.0235 0.64303 0.03866 0.0
O51 O 0.0153 0.64612 0.03024 0.0
O52 O 0.03658 0.6481 0.03417 0.0
C53 C 0.99179 0.65195 0.9953 0.0
O54 O 0.99115 0.64039 0.98939 0.0
C55 C 0.03287 0.64915 0.98141 0.0
Zn56 Zn 0.35439 0.38596 0.03606 0.0
Zn57 Zn 0.35102 0.36329 0.01889 0.0
O58 O 0.33056 0.35635 0.02854 0.0
O59 O 0.33297 0.37561 0.04068 0.0
O60 O 0.34776 0.34587 0.00604 0.0
O61 O 0.36247 0.39804 0.01479 0.0
O62 O 0.3582 0.37895 0.00035 0.0
C63 C 0.32506 0.36253 0.03653 0.0
C64 C 0.3714 0.37495 0.05006 0.0
O65 O 0.36657 0.36673 0.03704 0.0
O66 O 0.36743 0.3838 0.05292 0.0
C67 C 0.34574 0.33488 0.01417 0.0
O68 O 0.346 0.33517 0.03095 0.0
C69 C 0.36259 0.39228 0.00083 0.0
Zn70 Zn 0.65877 0.03184 0.00304 0.0
Zn71 Zn 0.65309 0.00523 0.00868 0.0
O72 O 0.67458 0.01659 0.00101 0.0
O73 O 0.67939 0.03856 0.99689 0.0
O74 O 0.6504 0.98623 0.01558 0.0
O75 O 0.65379 0.03372 0.02726 0.0
O76 O 0.6481 0.01143 0.03118 0.0
C77 C 0.68347 0.0296 0.99686 0.0
C78 C 0.63565 0.00971 0.98143 0.0
O79 O 0.63818 0.00104 0.98946 0.0
O80 O 0.64292 0.023 0.98494 0.0
C81 C 0.65549 0.97983 0.00733 0.0
O82 O 0.66197 0.98516 0.99269 0.0
C83 C 0.64902 0.02282 0.03679 0.0
Zn84 Zn 0.62284 0.68145 0.33868 0.0
Zn85 Zn 0.64724 0.68193 0.34813 0.0
O86 O 0.6325 0.661 0.34111 0.0
O87 O 0.61197 0.66001 0.33539 0.0
O88 O 0.66376 0.68021 0.35735 0.0
O89 O 0.62254 0.69007 0.36152 0.0
O90 O 0.64243 0.69027 0.36871 0.0
C91 C 0.61912 0.65383 0.33667 0.0
C92 C 0.64839 0.69904 0.31719 0.0
O93 O 0.65523 0.6958 0.32785 0.0
O94 O 0.63488 0.69411 0.31886 0.0
C95 C 0.67007 0.67528 0.34861 0.0
O96 O 0.66648 0.67207 0.33244 0.0
C97 C 0.63256 0.69293 0.37228 0.0
Zn98 Zn 0.30484 0.94913 0.33653 0.0
Zn99 Zn 0.31238 0.97445 0.35013 0.0
O100 O 0.33028 0.97931 0.33567 0.0
O101 O 0.32314 0.95885 0.32257 0.0
O102 O 0.31789 0.99321 0.36132 0.0
O103 O 0.30516 0.94126 0.35964 0.0
O104 O 0.30867 0.96126 0.37095 0.0
C105 C 0.33264 0.97196 0.32503 0.0
C106 C 0.28475 0.95809 0.32833 0.0
O107 O 0.29419 0.96959 0.33587 0.0
O108 O 0.28632 0.9474 0.32763 0.0
C109 C 0.32083 0.00426 0.35267 0.0
O110 O 0.32043 0.0035 0.33591 0.0
C111 C 0.3065 0.94868 0.37268 0.0
Zn112 Zn 0.01609 0.31023 0.3722 0.0
Zn113 Zn 0.01846 0.33391 0.35909 0.0
O114 O 0.99723 0.32171 0.36731 0.0
O115 O 0.9944 0.30088 0.3744 0.0
O116 O 0.01858 0.35084 0.34868 0.0
O117 O 0.0244 0.30751 0.35056 0.0
O118 O 0.02423 0.3258 0.33898 0.0
C119 C 0.98915 0.30878 0.37229 0.0
C120 C 0.03627 0.33619 0.39064 0.0
O121 O 0.03384 0.34237 0.37835 0.0
O122 O 0.02947 0.32262 0.39147 0.0
C123 C 0.02946 0.36113 0.34119 0.0
O124 O 0.04167 0.36118 0.34043 0.0
C125 C 0.02653 0.31552 0.3378 0.0
Zn126 Zn 0.71109 0.99043 0.35387 0.0
Zn127 Zn 0.68494 0.9877 0.34823 0.0
O128 O 0.69872 0.00876 0.35519 0.0
O129 O 0.72025 0.01154 0.35937 0.0
O130 O 0.66666 0.98769 0.34258 0.0
O131 O 0.71091 0.98378 0.32968 0.0
O132 O 0.68926 0.98085 0.32584 0.0
C133 C 0.71212 0.01671 0.35921 0.0
C134 C 0.68772 0.97014 0.37647 0.0
O135 O 0.6798 0.97361 0.3681 0.0
O136 O 0.70105 0.97572 0.37277 0.0
C137 C 0.65601 0.97787 0.33409 0.0
O138 O 0.65631 0.9665 0.32934 0.0
C139 C 0.69984 0.97996 0.32027 0.0
Zn140 Zn 0.01204 0.71324 0.35953 0.0
Zn141 Zn 0.01339 0.68998 0.35186 0.0
O142 O 0.99206 0.68171 0.35953 0.0
O143 O 0.99101 0.70081 0.36552 0.0
O144 O 0.01431 0.67266 0.34451 0.0
O145 O 0.01741 0.72058 0.33553 0.0
O146 O 0.01913 0.70185 0.32956 0.0
C147 C 0.98487 0.68731 0.36444 0.0
C148 C 0.03297 0.71058 0.38014 0.0
O149 O 0.02868 0.69924 0.3713 0.0
O150 O 0.02755 0.71829 0.37746 0.0
C151 C 0.00382 0.65973 0.34585 0.0
O152 O 0.9917 0.65704 0.35308 0.0
C153 C 0.02006 0.71351 0.32497 0.0
Zn154 Zn 0.32126 0.36461 0.32674 0.0
Zn155 Zn 0.31619 0.33915 0.33878 0.0
O156 O 0.33734 0.3497 0.33039 0.0
O157 O 0.34238 0.3713 0.32304 0.0
O158 O 0.31411 0.32129 0.34909 0.0
O159 O 0.31513 0.36855 0.34947 0.0
O160 O 0.31167 0.34804 0.35907 0.0
C161 C 0.34632 0.36231 0.32501 0.0
C162 C 0.29886 0.33927 0.30812 0.0
O163 O 0.301 0.33223 0.31955 0.0
O164 O 0.30628 0.35289 0.30814 0.0
C165 C 0.31758 0.31349 0.34092 0.0
O166 O 0.32184 0.31672 0.32501 0.0
C167 C 0.3116 0.35953 0.36146 0.0
Zn168 Zn 0.29203 0.01247 0.67577 0.0
Zn169 Zn 0.31934 0.01817 0.68268 0.0
O170 O 0.30661 0.99638 0.67835 0.0
O171 O 0.28404 0.99113 0.675 0.0
O172 O 0.33877 0.02062 0.68882 0.0
O173 O 0.29254 0.02189 0.69829 0.0
O174 O 0.31454 0.02612 0.70371 0.0
C175 C 0.29317 0.98717 0.6759 0.0
C176 C 0.3143 0.0314 0.65126 0.0
O177 O 0.32307 0.03041 0.66138 0.0
O178 O 0.30075 0.02454 0.65424 0.0
C179 C 0.34292 0.01303 0.68141 0.0
O180 O 0.33487 0.00432 0.66903 0.0
C181 C 0.30361 0.02691 0.70802 0.0
Zn182 Zn 0.98117 0.28644 0.6601 0.0
Zn183 Zn 0.98339 0.30942 0.67512 0.0
O184 O 0.00404 0.3172 0.66537 0.0
O185 O 0.00199 0.29819 0.65293 0.0
O186 O 0.98528 0.32655 0.68736 0.0
O187 O 0.97625 0.27587 0.68244 0.0
O188 O 0.97698 0.29441 0.69452 0.0
C189 C 0.00961 0.31136 0.65681 0.0
C190 C 0.96175 0.29453 0.64555 0.0
O191 O 0.96766 0.30453 0.65666 0.0
O192 O 0.96549 0.28531 0.64464 0.0
C193 C 0.98679 0.33738 0.67934 0.0
O194 O 0.98712 0.33744 0.66257 0.0
C195 C 0.97486 0.2818 0.69552 0.0
Zn196 Zn 0.68624 0.64243 0.69869 0.0
Zn197 Zn 0.68874 0.66724 0.68942 0.0
O198 O 0.66793 0.65488 0.69913 0.0
O199 O 0.66615 0.63485 0.70769 0.0
O200 O 0.68914 0.68499 0.68101 0.0
O201 O 0.68884 0.63839 0.67437 0.0
O202 O 0.69281 0.65966 0.66729 0.0
C203 C 0.66061 0.64254 0.70602 0.0
C204 C 0.70997 0.66752 0.71569 0.0
O205 O 0.7053 0.67439 0.70735 0.0
O206 O 0.7038 0.65404 0.71393 0.0
C207 C 0.68155 0.68942 0.68792 0.0
O208 O 0.67399 0.6829 0.70162 0.0
C209 C 0.69208 0.648 0.66324 0.0
Zn210 Zn 0.37124 0.32414 0.68702 0.0
Zn211 Zn 0.34481 0.32025 0.68076 0.0
O212 O 0.35813 0.34166 0.68723 0.0
O213 O 0.37985 0.34509 0.69211 0.0
O214 O 0.32604 0.31911 0.67406 0.0
O215 O 0.37192 0.31753 0.66324 0.0
O216 O 0.3498 0.31328 0.65882 0.0
C217 C 0.37144 0.34994 0.69145 0.0
C218 C 0.34826 0.30376 0.70982 0.0
O219 O 0.33998 0.30662 0.70119 0.0
O220 O 0.36162 0.3097 0.70611 0.0
C221 C 0.32225 0.32713 0.68108 0.0
O222 O 0.33003 0.33541 0.69389 0.0
C223 C 0.36084 0.31301 0.65364 0.0
Zn224 Zn 0.69204 0.05278 0.70466 0.0
Zn225 Zn 0.68755 0.02924 0.68875 0.0
O226 O 0.66775 0.02264 0.70013 0.0
O227 O 0.67115 0.04253 0.71165 0.0
O228 O 0.68377 0.01143 0.67636 0.0
O229 O 0.69808 0.06366 0.68246 0.0
O230 O 0.69311 0.04387 0.66918 0.0
C231 C 0.66292 0.02928 0.70848 0.0
C232 C 0.71026 0.04288 0.71765 0.0
O233 O 0.70433 0.0337 0.70563 0.0
O234 O 0.7066 0.05201 0.7202 0.0
C235 C 0.68289 0.00083 0.68427 0.0
O236 O 0.6846 0.00152 0.70095 0.0
C237 C 0.69719 0.05712 0.66876 0.0
Zn238 Zn 0.98044 0.69661 0.65746 0.0
Zn239 Zn 0.97687 0.67224 0.67 0.0
O240 O 0.99854 0.68392 0.66312 0.0
O241 O 0.00192 0.70482 0.65535 0.0
O242 O 0.97512 0.65455 0.68054 0.0
O243 O 0.97247 0.69978 0.67914 0.0
O244 O 0.97131 0.68061 0.69 0.0
C245 C 0.00695 0.69678 0.65807 0.0
C246 C 0.96005 0.67156 0.63799 0.0
O247 O 0.9621 0.6648 0.64991 0.0
O248 O 0.96704 0.68515 0.63793 0.0
C249 C 0.97819 0.64643 0.6724 0.0
O250 O 0.98208 0.64929 0.65633 0.0
C251 C 0.96975 0.69134 0.69159 0.0
C252 C 0.18826 0.30789 0.13077 0.0
C253 C 0.18637 0.30009 0.11573 0.0
C254 C 0.17625 0.30585 0.13983 0.0
C255 C 0.16209 0.29572 0.13428 0.0
C256 C 0.17218 0.29032 0.10981 0.0
C257 C 0.16012 0.28817 0.11902 0.0
C258 C 0.1494 0.29351 0.14403 0.0
C259 C 0.17521 0.28082 0.17692 0.0
C260 C 0.17964 0.288 0.19269 0.0
C261 C 0.16447 0.28119 0.1671 0.0
C262 C 0.15851 0.28931 0.17256 0.0
C263 C 0.17304 0.29532 0.19862 0.0
C264 C 0.16264 0.29602 0.18865 0.0
C265 C 0.14808 0.29112 0.16188 0.0
C266 C 0.09264 0.28982 0.17957 0.0
C267 C 0.09762 0.2966 0.19551 0.0
C268 C 0.10227 0.289 0.16837 0.0
C269 C 0.11708 0.29532 0.17282 0.0
C270 C 0.11237 0.30293 0.19987 0.0
C271 C 0.12198 0.30235 0.18864 0.0
C272 C 0.12757 0.29405 0.16196 0.0
C273 C 0.11154 0.31682 0.12852 0.0
C274 C 0.10381 0.30891 0.11393 0.0
C275 C 0.11945 0.31254 0.13849 0.0
C276 C 0.11973 0.30024 0.13413 0.0
C277 C 0.10419 0.29661 0.1096 0.0
C278 C 0.11218 0.2924 0.11952 0.0
C279 C 0.12868 0.29609 0.14408 0.0
H280 H 0.19905 0.31577 0.13539 0.0
H281 H 0.17804 0.3122 0.15121 0.0
H282 H 0.17042 0.28423 0.09821 0.0
H283 H 0.14927 0.2805 0.11436 0.0
H284 H 0.18009 0.27499 0.17219 0.0
H285 H 0.16106 0.27536 0.15513 0.0
H286 H 0.17635 0.301 0.21071 0.0
H287 H 0.15816 0.30223 0.19332 0.0
H288 H 0.08124 0.28475 0.17607 0.0
H289 H 0.09806 0.28313 0.15652 0.0
H290 H 0.11644 0.30827 0.21208 0.0
H291 H 0.13331 0.30731 0.19244 0.0
H292 H 0.11177 0.3265 0.13206 0.0
H293 H 0.12555 0.31899 0.14944 0.0
H294 H 0.09823 0.29017 0.09859 0.0
H295 H 0.11239 0.28296 0.11585 0.0
N296 N 0.13952 0.29568 0.13581 0.0
N297 N 0.13726 0.29157 0.17002 0.0
C298 C 0.67146 0.87531 0.11787 0.0
C299 C 0.68038 0.88246 0.10378 0.0
C300 C 0.67426 0.86666 0.12837 0.0
C301 C 0.68605 0.86496 0.12505 0.0
C302 C 0.69213 0.88062 0.10043 0.0
C303 C 0.69485 0.87185 0.11089 0.0
C304 C 0.68868 0.85539 0.13583 0.0
C305 C 0.70013 0.8937 0.16906 0.0
C306 C 0.69063 0.89029 0.18288 0.0
C307 C 0.6998 0.8828 0.15934 0.0
C308 C 0.69001 0.86833 0.16336 0.0
C309 C 0.6808 0.8758 0.18677 0.0
C310 C 0.68059 0.86493 0.1772 0.0
C311 C 0.6899 0.85662 0.15378 0.0
C312 C 0.70011 0.80855 0.17349 0.0
C313 C 0.69271 0.80503 0.18909 0.0
C314 C 0.69977 0.81855 0.16256 0.0
C315 C 0.69153 0.82472 0.16674 0.0
C316 C 0.685 0.81162 0.1936 0.0
C317 C 0.68436 0.82131 0.18252 0.0
C318 C 0.69062 0.83515 0.15534 0.0
C319 C 0.67373 0.79538 0.12312 0.0
C320 C 0.68243 0.79714 0.10893 0.0
C321 C 0.676 0.80727 0.13245 0.0
C322 C 0.6871 0.82116 0.12789 0.0
C323 C 0.69344 0.8111 0.1043 0.0
C324 C 0.69567 0.82299 0.11362 0.0
C325 C 0.68923 0.83384 0.13732 0.0
H326 H 0.6621 0.87616 0.12063 0.0
H327 H 0.66706 0.8611 0.13895 0.0
H328 H 0.69933 0.88606 0.08981 0.0
H329 H 0.70393 0.87056 0.10802 0.0
H330 H 0.70782 0.90479 0.16579 0.0
H331 H 0.70734 0.88567 0.14889 0.0
H332 H 0.6735 0.87286 0.1975 0.0
H333 H 0.67303 0.85384 0.18059 0.0
H334 H 0.70625 0.80368 0.16987 0.0
H335 H 0.706 0.82144 0.1509 0.0
H336 H 0.67914 0.809 0.20554 0.0
H337 H 0.67805 0.82599 0.18622 0.0
H338 H 0.66495 0.78482 0.12683 0.0
H339 H 0.66895 0.80563 0.14312 0.0
H340 H 0.70043 0.81285 0.09355 0.0
H341 H 0.7042 0.83364 0.10978 0.0
N342 N 0.68846 0.84408 0.12828 0.0
N343 N 0.69081 0.84647 0.16279 0.0
C344 C 0.11583 0.81792 0.12755 0.0
C345 C 0.10818 0.81841 0.1132 0.0
C346 C 0.12156 0.82893 0.13961 0.0
C347 C 0.11969 0.84064 0.13763 0.0
C348 C 0.10616 0.83006 0.1113 0.0
C349 C 0.11203 0.84119 0.12335 0.0
C350 C 0.12684 0.85279 0.14972 0.0
C351 C 0.09064 0.81624 0.18075 0.0
C352 C 0.09646 0.81122 0.1932 0.0
C353 C 0.09971 0.82903 0.17192 0.0
C354 C 0.11469 0.83701 0.17554 0.0
C355 C 0.11158 0.81904 0.19616 0.0
C356 C 0.12053 0.83185 0.1876 0.0
C357 C 0.12452 0.85101 0.16745 0.0
C358 C 0.16768 0.9108 0.19539 0.0
C359 C 0.17052 0.90605 0.21083 0.0
C360 C 0.15889 0.90088 0.18274 0.0
C361 C 0.15314 0.8861 0.1852 0.0
C362 C 0.16453 0.89128 0.21331 0.0
C363 C 0.15597 0.88146 0.20069 0.0
C364 C 0.14396 0.87514 0.17214 0.0
C365 C 0.18683 0.90072 0.14561 0.0
C366 C 0.18668 0.90681 0.12984 0.0
C367 C 0.17389 0.89153 0.15405 0.0
C368 C 0.16049 0.88845 0.14709 0.0
C369 C 0.17334 0.90417 0.12314 0.0
C370 C 0.16033 0.89496 0.13165 0.0
C371 C 0.14675 0.87674 0.15439 0.0
H372 H 0.11746 0.80902 0.12941 0.0
H373 H 0.12776 0.82847 0.1503 0.0
H374 H 0.10039 0.83075 0.10028 0.0
H375 H 0.11067 0.85026 0.12149 0.0
H376 H 0.07904 0.81056 0.17822 0.0
H377 H 0.095 0.83288 0.16266 0.0
H378 H 0.11655 0.81533 0.20523 0.0
H379 H 0.13211 0.83777 0.1904 0.0
H380 H 0.17213 0.92213 0.19319 0.0
H381 H 0.15659 0.90476 0.17112 0.0
H382 H 0.16674 0.8873 0.22493 0.0
H383 H 0.15176 0.87018 0.20299 0.0
H384 H 0.19696 0.90264 0.15115 0.0
H385 H 0.17434 0.88628 0.16559 0.0
H386 H 0.17289 0.9086 0.11092 0.0
H387 H 0.15011 0.89251 0.12587 0.0
N388 N 0.13789 0.86558 0.14386 0.0
N389 N 0.13303 0.86227 0.17788 0.0
C390 C 0.32079 0.12282 0.85836 0.0
C391 C 0.30916 0.11559 0.84666 0.0
C392 C 0.32171 0.13352 0.86904 0.0
C393 C 0.31085 0.13699 0.86853 0.0
C394 C 0.29837 0.11917 0.84615 0.0
C395 C 0.29923 0.12975 0.85694 0.0
C396 C 0.31207 0.14893 0.87885 0.0
C397 C 0.31078 0.11688 0.91622 0.0
C398 C 0.3239 0.12235 0.92547 0.0
C399 C 0.3079 0.12609 0.9069 0.0
C400 C 0.31809 0.14091 0.90667 0.0
C401 C 0.33389 0.13723 0.92553 0.0
C402 C 0.33095 0.14642 0.91632 0.0
C403 C 0.31554 0.15084 0.89648 0.0
C404 C 0.30764 0.2005 0.91336 0.0
C405 C 0.3192 0.20794 0.92505 0.0
C406 C 0.30606 0.18878 0.90424 0.0
C407 C 0.31619 0.18446 0.90635 0.0
C408 C 0.329 0.20325 0.92762 0.0
C409 C 0.32749 0.19161 0.91839 0.0
C410 C 0.31505 0.17245 0.89622 0.0
C411 C 0.32421 0.20675 0.85783 0.0
C412 C 0.31387 0.20284 0.84461 0.0
C413 C 0.32352 0.19644 0.869 0.0
C414 C 0.31223 0.18201 0.86756 0.0
C415 C 0.30251 0.18841 0.84322 0.0
C416 C 0.30175 0.1781 0.85455 0.0
C417 C 0.31213 0.17083 0.87844 0.0
H418 H 0.32926 0.12031 0.85919 0.0
H419 H 0.33109 0.13926 0.87741 0.0
H420 H 0.28943 0.1141 0.83707 0.0
H421 H 0.29085 0.13241 0.85608 0.0
H422 H 0.3029 0.10546 0.91591 0.0
H423 H 0.29777 0.12163 0.89979 0.0
H424 H 0.34398 0.14178 0.93274 0.0
H425 H 0.3389 0.15784 0.91645 0.0
H426 H 0.29976 0.20369 0.91136 0.0
H427 H 0.29694 0.18315 0.89547 0.0
H428 H 0.33806 0.2088 0.93648 0.0
H429 H 0.33537 0.1884 0.92037 0.0
H430 H 0.33302 0.21778 0.85941 0.0
H431 H 0.33206 0.19973 0.8785 0.0
H432 H 0.29449 0.18497 0.83305 0.0
H433 H 0.29307 0.167 0.85299 0.0
N434 N 0.31054 0.15902 0.87056 0.0
N435 N 0.31685 0.1625 0.90447 0.0
C436 C 0.91259 0.18344 0.90329 0.0
C437 C 0.90592 0.18844 0.91429 0.0
C438 C 0.9042 0.17045 0.89445 0.0
C439 C 0.889 0.16237 0.89635 0.0
C440 C 0.89085 0.17985 0.91693 0.0
C441 C 0.88251 0.16699 0.90808 0.0
C442 C 0.87947 0.14933 0.88605 0.0
C443 C 0.90101 0.18559 0.84823 0.0
C444 C 0.90838 0.18356 0.83482 0.0
C445 C 0.89211 0.17431 0.8592 0.0
C446 C 0.89077 0.16086 0.85744 0.0
C447 C 0.90686 0.17002 0.83298 0.0
C448 C 0.89816 0.15881 0.84416 0.0
C449 C 0.88049 0.14852 0.86813 0.0
C450 C 0.82249 0.10243 0.84607 0.0
C451 C 0.82518 0.09391 0.83506 0.0
C452 C 0.83334 0.11232 0.85709 0.0
C453 C 0.84714 0.11394 0.85737 0.0
C454 C 0.83904 0.09553 0.83547 0.0
C455 C 0.84996 0.10556 0.84642 0.0
C456 C 0.85888 0.12521 0.86806 0.0
C457 C 0.82534 0.09125 0.90269 0.0
C458 C 0.81975 0.09659 0.91479 0.0
C459 C 0.8379 0.10065 0.8935 0.0
C460 C 0.84491 0.11558 0.89602 0.0
C461 C 0.8273 0.11145 0.9179 0.0
C462 C 0.83962 0.12078 0.9086 0.0
C463 C 0.85771 0.1261 0.88592 0.0
H464 H 0.9242 0.1898 0.90105 0.0
H465 H 0.90952 0.16692 0.88583 0.0
H466 H 0.88543 0.18321 0.92563 0.0
H467 H 0.87085 0.1609 0.90999 0.0
H468 H 0.90197 0.19585 0.8502 0.0
H469 H 0.88605 0.17606 0.86883 0.0
H470 H 0.91204 0.1679 0.82259 0.0
H471 H 0.89701 0.14845 0.84227 0.0
H472 H 0.81213 0.1018 0.84584 0.0
H473 H 0.83106 0.11896 0.86512 0.0
H474 H 0.84149 0.08909 0.82731 0.0
H475 H 0.86061 0.1068 0.84633 0.0
H476 H 0.81986 0.07986 0.90005 0.0
H477 H 0.84203 0.09624 0.88439 0.0
H478 H 0.82364 0.11594 0.92751 0.0
H479 H 0.84487 0.1322 0.91105 0.0
N480 N 0.86811 0.1381 0.89412 0.0
N481 N 0.87026 0.13639 0.85992 0.0
C482 C 0.82377 0.71746 0.91084 0.0
C483 C 0.81705 0.70565 0.92199 0.0
C484 C 0.83602 0.72029 0.90153 0.0
C485 C 0.8416 0.71121 0.90295 0.0
C486 C 0.82316 0.69708 0.92404 0.0
C487 C 0.83525 0.6998 0.91462 0.0
C488 C 0.85404 0.71336 0.89257 0.0
C489 C 0.81943 0.70352 0.853 0.0
C490 C 0.82298 0.71426 0.84073 0.0
C491 C 0.82988 0.70471 0.86465 0.0
C492 C 0.84408 0.71677 0.86447 0.0
C493 C 0.83706 0.72654 0.84088 0.0
C494 C 0.84756 0.72772 0.85255 0.0
C495 C 0.85567 0.71698 0.87502 0.0
C496 C 0.89773 0.70256 0.84957 0.0
C497 C 0.90709 0.7146 0.8396 0.0
C498 C 0.88843 0.70319 0.86136 0.0
C499 C 0.8883 0.71587 0.86344 0.0
C500 C 0.90716 0.7274 0.84207 0.0
C501 C 0.89774 0.72797 0.85375 0.0
C502 C 0.87732 0.71606 0.87438 0.0
C503 C 0.90853 0.71206 0.90907 0.0
C504 C 0.90195 0.69887 0.91778 0.0
C505 C 0.9 0.71647 0.90066 0.0
C506 C 0.88475 0.70777 0.90085 0.0
C507 C 0.88669 0.69034 0.91818 0.0
C508 C 0.87819 0.69479 0.9099 0.0
C509 C 0.87543 0.71195 0.89171 0.0
H510 H 0.81938 0.72431 0.90898 0.0
H511 H 0.84101 0.72948 0.89309 0.0
H512 H 0.81854 0.68815 0.93287 0.0
H513 H 0.83944 0.69275 0.91621 0.0
H514 H 0.80864 0.69397 0.85326 0.0
H515 H 0.827 0.6959 0.87333 0.0
H516 H 0.84015 0.73491 0.83145 0.0
H517 H 0.85851 0.737 0.85199 0.0
H518 H 0.89714 0.69243 0.84781 0.0
H519 H 0.88095 0.6936 0.86839 0.0
H520 H 0.91436 0.73695 0.83481 0.0
H521 H 0.89771 0.73783 0.85509 0.0
H522 H 0.92027 0.71884 0.90852 0.0
H523 H 0.90531 0.72665 0.89402 0.0
H524 H 0.88131 0.68023 0.925 0.0
H525 H 0.86645 0.68795 0.91032 0.0
N526 N 0.86392 0.71085 0.90013 0.0
N527 N 0.86737 0.71839 0.86671 0.0
C528 C 0.75243 0.62008 0.44946 0.0
C529 C 0.75787 0.63068 0.43671 0.0
C530 C 0.76187 0.61747 0.459 0.0
C531 C 0.77696 0.62571 0.45626 0.0
C532 C 0.77287 0.63846 0.4335 0.0
C533 C 0.78231 0.636 0.44317 0.0
C534 C 0.7874 0.62383 0.46673 0.0
C535 C 0.76488 0.63707 0.50419 0.0
C536 C 0.75767 0.62722 0.51749 0.0
C537 C 0.77418 0.6355 0.49334 0.0
C538 C 0.77624 0.62388 0.49532 0.0
C539 C 0.75983 0.61565 0.51947 0.0
C540 C 0.76905 0.61403 0.50853 0.0
C541 C 0.78684 0.62264 0.48475 0.0
C542 C 0.84596 0.63828 0.5053 0.0
C543 C 0.84357 0.62789 0.51761 0.0
C544 C 0.83475 0.63619 0.4943 0.0
C545 C 0.82092 0.62369 0.49541 0.0
C546 C 0.82981 0.61524 0.5185 0.0
C547 C 0.81851 0.61325 0.50762 0.0
C548 C 0.80876 0.62217 0.48484 0.0
C549 C 0.83981 0.61864 0.4505 0.0
C550 C 0.84538 0.62876 0.43719 0.0
C551 C 0.82785 0.61648 0.45994 0.0
C552 C 0.82146 0.62465 0.45652 0.0
C553 C 0.8384 0.63629 0.43321 0.0
C554 C 0.82665 0.6343 0.44279 0.0
C555 C 0.80931 0.62328 0.46684 0.0
H556 H 0.74087 0.61378 0.45201 0.0
H557 H 0.75738 0.60911 0.46858 0.0
H558 H 0.77738 0.64675 0.42382 0.0
H559 H 0.79387 0.64243 0.44069 0.0
H560 H 0.76343 0.64606 0.50224 0.0
H561 H 0.77997 0.64352 0.48359 0.0
H562 H 0.75474 0.60804 0.52979 0.0
H563 H 0.7707 0.60516 0.51051 0.0
H564 H 0.85648 0.64809 0.50432 0.0
H565 H 0.83677 0.64451 0.48519 0.0
H566 H 0.82767 0.60714 0.52799 0.0
H567 H 0.80785 0.60362 0.50881 0.0
H568 H 0.84486 0.61261 0.4539 0.0
H569 H 0.82372 0.6085 0.46997 0.0
H570 H 0.84207 0.64385 0.42273 0.0
H571 H 0.82179 0.64057 0.43963 0.0
N572 N 0.79862 0.62411 0.45857 0.0
N573 N 0.79749 0.62175 0.49305 0.0
C574 C 0.33289 0.20856 0.45229 0.0
C575 C 0.34152 0.2154 0.43791 0.0
C576 C 0.33552 0.19963 0.46249 0.0
C577 C 0.34688 0.1974 0.4586 0.0
C578 C 0.35277 0.21295 0.4339 0.0
C579 C 0.35535 0.20395 0.4441 0.0
C580 C 0.34948 0.18772 0.46923 0.0
C581 C 0.3618 0.22622 0.50234 0.0
C582 C 0.35294 0.22305 0.51677 0.0
C583 C 0.36104 0.21518 0.49252 0.0
C584 C 0.3514 0.20076 0.49694 0.0
C585 C 0.34329 0.20861 0.52111 0.0
C586 C 0.3426 0.19759 0.51136 0.0
C587 C 0.35086 0.18891 0.48718 0.0
C588 C 0.3603 0.14024 0.50622 0.0
C589 C 0.35241 0.13629 0.52146 0.0
C590 C 0.36036 0.15059 0.49556 0.0
C591 C 0.35201 0.15667 0.49967 0.0
C592 C 0.34464 0.14281 0.52597 0.0
C593 C 0.34439 0.15285 0.51515 0.0
C594 C 0.35134 0.16731 0.48843 0.0
C595 C 0.33578 0.12793 0.45608 0.0
C596 C 0.34487 0.13004 0.44218 0.0
C597 C 0.33735 0.13963 0.46521 0.0
C598 C 0.34818 0.15368 0.46078 0.0
C599 C 0.35546 0.14415 0.43752 0.0
C600 C 0.35705 0.15585 0.44669 0.0
C601 C 0.34998 0.16614 0.47041 0.0
H602 H 0.32392 0.2099 0.45552 0.0
H603 H 0.32853 0.19432 0.47331 0.0
H604 H 0.3597 0.21813 0.42301 0.0
H605 H 0.36408 0.20225 0.44079 0.0
H606 H 0.36933 0.23725 0.49869 0.0
H607 H 0.36817 0.2179 0.48166 0.0
H608 H 0.33651 0.20582 0.53231 0.0
H609 H 0.33518 0.18656 0.51509 0.0
H610 H 0.36648 0.1354 0.50264 0.0
H611 H 0.3669 0.15378 0.48414 0.0
H612 H 0.33847 0.13987 0.5377 0.0
H613 H 0.33801 0.15747 0.51879 0.0
H614 H 0.32731 0.11722 0.45977 0.0
H615 H 0.33008 0.13771 0.47572 0.0
H616 H 0.36269 0.14614 0.42695 0.0
H617 H 0.36537 0.16661 0.44295 0.0
N618 N 0.34922 0.17645 0.46151 0.0
N619 N 0.35166 0.17863 0.49604 0.0
C620 C 0.77691 0.14889 0.46531 0.0
C621 C 0.77057 0.14941 0.44975 0.0
C622 C 0.7843 0.16105 0.47569 0.0
C623 C 0.7853 0.17393 0.47087 0.0
C624 C 0.77173 0.16236 0.44486 0.0
C625 C 0.77908 0.17453 0.45529 0.0
C626 C 0.79381 0.18705 0.48132 0.0
C627 C 0.75629 0.1553 0.51406 0.0
C628 C 0.76044 0.15271 0.53008 0.0
C629 C 0.76648 0.16662 0.50388 0.0
C630 C 0.78106 0.1752 0.50936 0.0
C631 C 0.77492 0.16138 0.53562 0.0
C632 C 0.78511 0.17246 0.52536 0.0
C633 C 0.7922 0.18745 0.49916 0.0
C634 C 0.83941 0.24855 0.51825 0.0
C635 C 0.84414 0.24504 0.53328 0.0
C636 C 0.82904 0.23769 0.50752 0.0
C637 C 0.82351 0.22318 0.51146 0.0
C638 C 0.83819 0.23051 0.53742 0.0
C639 C 0.828 0.21974 0.52668 0.0
C640 C 0.81306 0.21128 0.50016 0.0
C641 C 0.85342 0.23696 0.46846 0.0
C642 C 0.85117 0.24102 0.45225 0.0
C643 C 0.84159 0.22738 0.47843 0.0
C644 C 0.82727 0.22212 0.47264 0.0
C645 C 0.83689 0.2357 0.44637 0.0
C646 C 0.82505 0.22637 0.45651 0.0
C647 C 0.81464 0.2109 0.48228 0.0
H648 H 0.77651 0.13918 0.46927 0.0
H649 H 0.78946 0.16045 0.48733 0.0
H650 H 0.76691 0.16309 0.43298 0.0
H651 H 0.77992 0.18442 0.45121 0.0
H652 H 0.74512 0.14881 0.50965 0.0
H653 H 0.7629 0.16877 0.49188 0.0
H654 H 0.77837 0.15953 0.54791 0.0
H655 H 0.79623 0.1789 0.52997 0.0
H656 H 0.84373 0.25966 0.51482 0.0
H657 H 0.82546 0.24064 0.4961 0.0
H658 H 0.84176 0.22742 0.54873 0.0
H659 H 0.82391 0.20866 0.53008 0.0
H660 H 0.86434 0.24066 0.47308 0.0
H661 H 0.84369 0.22375 0.49039 0.0
H662 H 0.83492 0.23861 0.43383 0.0
H663 H 0.81413 0.22223 0.45161 0.0
N664 N 0.80486 0.19884 0.4736 0.0
N665 N 0.80191 0.19955 0.50777 0.0
C666 C 0.98588 0.53752 0.18446 0.0
C667 C 0.99576 0.54401 0.17097 0.0
C668 C 0.98605 0.52695 0.19448 0.0
C669 C 0.99607 0.52272 0.19111 0.0
C670 C 0.00557 0.53954 0.1675 0.0
C671 C 0.00565 0.52895 0.17739 0.0
C672 C 0.99654 0.51156 0.20133 0.0
C673 C 0.01036 0.54935 0.23607 0.0
C674 C 0.00186 0.54613 0.25085 0.0
C675 C 0.00926 0.53836 0.22583 0.0
C676 C 0.99942 0.52391 0.22993 0.0
C677 C 0.99231 0.53164 0.25515 0.0
C678 C 0.99114 0.52067 0.24482 0.0
C679 C 0.99812 0.51209 0.21929 0.0
C680 C 0.01431 0.46791 0.23238 0.0
C681 C 0.00711 0.46213 0.2479 0.0
C682 C 0.01155 0.47708 0.22282 0.0
C683 C 0.00133 0.48046 0.22842 0.0
C684 C 0.9971 0.46577 0.25363 0.0
C685 C 0.99429 0.47488 0.24402 0.0
C686 C 0.99856 0.49044 0.21862 0.0
C687 C 0.98365 0.45207 0.18419 0.0
C688 C 0.98971 0.45514 0.1678 0.0
C689 C 0.98584 0.4632 0.19504 0.0
C690 C 0.99456 0.47761 0.18989 0.0
C691 C 0.99827 0.46949 0.16257 0.0
C692 C 0.00071 0.4806 0.17353 0.0
C693 C 0.99642 0.48963 0.20069 0.0
H694 H 0.97819 0.54076 0.18739 0.0
H695 H 0.97836 0.52208 0.20482 0.0
H696 H 0.01313 0.54417 0.15701 0.0
H697 H 0.01335 0.52573 0.17444 0.0
H698 H 0.01777 0.56036 0.2323 0.0
H699 H 0.01618 0.54119 0.21476 0.0
H700 H 0.98584 0.52875 0.26662 0.0
H701 H 0.98367 0.50961 0.24842 0.0
H702 H 0.02202 0.46528 0.22752 0.0
H703 H 0.01748 0.48159 0.2111 0.0
H704 H 0.99157 0.46174 0.26568 0.0
H705 H 0.98656 0.47754 0.24875 0.0
H706 H 0.97683 0.44106 0.18837 0.0
H707 H 0.98043 0.46049 0.20726 0.0
H708 H 0.00307 0.4721 0.14998 0.0
H709 H 0.00735 0.49158 0.16913 0.0
N710 N 0.99571 0.50035 0.19281 0.0
N711 N 0.99907 0.50151 0.22721 0.0
C712 C 0.49423 0.42123 0.17704 0.0
C713 C 0.48968 0.42462 0.16181 0.0
C714 C 0.50456 0.43218 0.1877 0.0
C715 C 0.51 0.44667 0.18363 0.0
C716 C 0.49589 0.43907 0.15721 0.0
C717 C 0.50589 0.44996 0.168 0.0
C718 C 0.51975 0.45863 0.19535 0.0
C719 C 0.4792 0.43074 0.22603 0.0
C720 C 0.48151 0.42644 0.24205 0.0
C721 C 0.49097 0.44096 0.21648 0.0
C722 C 0.50531 0.44662 0.22247 0.0
C723 C 0.49578 0.43219 0.24818 0.0
C724 C 0.50758 0.44215 0.23842 0.0
C725 C 0.51782 0.45841 0.21327 0.0
C726 C 0.55076 0.51974 0.23247 0.0
C727 C 0.55776 0.51982 0.24774 0.0
C728 C 0.54456 0.5078 0.22172 0.0
C729 C 0.54534 0.49572 0.22592 0.0
C730 C 0.55867 0.50777 0.25188 0.0
C731 C 0.55236 0.49575 0.24113 0.0
C732 C 0.53771 0.48267 0.21519 0.0
C733 C 0.57495 0.51585 0.18353 0.0
C734 C 0.57019 0.52054 0.16959 0.0
C735 C 0.56503 0.50366 0.19275 0.0
C736 C 0.55025 0.49593 0.18802 0.0
C737 C 0.55539 0.5128 0.16496 0.0
C738 C 0.54554 0.50054 0.174 0.0
C739 C 0.53955 0.48293 0.19737 0.0
H740 H 0.48967 0.41014 0.18078 0.0
H741 H 0.50797 0.4293 0.19931 0.0
H742 H 0.49248 0.44198 0.14561 0.0
H743 H 0.50999 0.461 0.16439 0.0
H744 H 0.46825 0.42667 0.22126 0.0
H745 H 0.48882 0.44471 0.20464 0.0
H746 H 0.49777 0.42911 0.2606 0.0
H747 H 0.51851 0.44659 0.24349 0.0
H748 H 0.54998 0.52891 0.22888 0.0
H749 H 0.53885 0.50789 0.2103 0.0
H750 H 0.56388 0.5075 0.26365 0.0
H751 H 0.55287 0.48643 0.24473 0.0
H752 H 0.58632 0.52163 0.18731 0.0
H753 H 0.56891 0.50019 0.20341 0.0
H754 H 0.55148 0.51605 0.1541 0.0
H755 H 0.53419 0.4947 0.17011 0.0
N756 N 0.53052 0.47094 0.18819 0.0
N757 N 0.527 0.47041 0.22245 0.0
C758 C 0.47655 0.02518 0.23528 0.0
C759 C 0.46739 0.01274 0.24472 0.0
C760 C 0.48892 0.02684 0.22739 0.0
C761 C 0.49232 0.01609 0.22879 0.0
C762 C 0.47106 0.0022 0.24651 0.0
C763 C 0.48348 0.00391 0.23872 0.0
C764 C 0.50503 0.01743 0.21993 0.0
C765 C 0.47289 0.00987 0.17814 0.0
C766 C 0.47746 0.02123 0.16649 0.0
C767 C 0.48261 0.00996 0.19012 0.0
C768 C 0.4971 0.02148 0.19082 0.0
C769 C 0.4919 0.03288 0.16739 0.0
C770 C 0.50168 0.03293 0.17936 0.0
C771 C 0.50774 0.02093 0.20244 0.0
C772 C 0.55571 0.01041 0.18655 0.0
C773 C 0.5641 0.02203 0.17556 0.0
C774 C 0.54457 0.00985 0.19618 0.0
C775 C 0.54179 0.02106 0.19531 0.0
C776 C 0.56122 0.03319 0.17467 0.0
C777 C 0.55016 0.03268 0.1844 0.0
C778 C 0.52948 0.02026 0.2046 0.0
C779 C 0.56017 0.0208 0.24408 0.0
C780 C 0.55427 0.0078 0.2531 0.0
C781 C 0.55121 0.02379 0.23418 0.0
C782 C 0.53619 0.01381 0.23306 0.0
C783 C 0.53917 0.99802 0.25232 0.0
C784 C 0.5302 0.00105 0.24249 0.0
C785 C 0.52662 0.01649 0.22204 0.0
H786 H 0.47397 0.03347 0.23366 0.0
H787 H 0.49577 0.03648 0.22008 0.0
H788 H 0.4643 0.9926 0.25392 0.0
H789 H 0.48598 0.99555 0.24011 0.0
H790 H 0.46181 0.00078 0.17781 0.0
H791 H 0.47889 0.00081 0.1985 0.0
H792 H 0.49578 0.04169 0.15845 0.0
H793 H 0.51286 0.04183 0.17953 0.0
H794 H 0.55766 0.00166 0.18762 0.0
H795 H 0.53796 0.00052 0.20404 0.0
H796 H 0.56722 0.04215 0.16608 0.0
H797 H 0.54805 0.04132 0.18329 0.0
H798 H 0.57177 0.02852 0.24438 0.0
H799 H 0.55603 0.03383 0.22726 0.0
H800 H 0.53428 0.98801 0.25932 0.0
H801 H 0.51862 0.99327 0.24193 0.0
N802 N 0.51448 0.01519 0.22902 0.0
N803 N 0.51993 0.02236 0.1955 0.0
C804 C 0.52822 0.98763 0.80028 0.0
C805 C 0.52587 0.97826 0.78669 0.0
C806 C 0.51652 0.98739 0.8081 0.0
C807 C 0.5022 0.9775 0.8028 0.0
C808 C 0.51157 0.9687 0.78099 0.0
C809 C 0.49982 0.96833 0.789 0.0
C810 C 0.48974 0.97717 0.81109 0.0
C811 C 0.51338 0.96691 0.85087 0.0
C812 C 0.51936 0.97726 0.86397 0.0
C813 C 0.50285 0.96633 0.83968 0.0
C814 C 0.49825 0.97617 0.84134 0.0
C815 C 0.51416 0.98658 0.86606 0.0
C816 C 0.50371 0.98602 0.8549 0.0
C817 C 0.48799 0.97666 0.82902 0.0
C818 C 0.42988 0.97146 0.8372 0.0
C819 C 0.43335 0.98127 0.85064 0.0
C820 C 0.44088 0.97071 0.82882 0.0
C821 C 0.45549 0.97971 0.83382 0.0
C822 C 0.44798 0.99024 0.85559 0.0
C823 C 0.45893 0.98937 0.84735 0.0
C824 C 0.46727 0.97894 0.82536 0.0
C825 C 0.45066 0.99805 0.78797 0.0
C826 C 0.4452 0.99055 0.77246 0.0
C827 C 0.45853 0.99466 0.79923 0.0
C828 C 0.46076 0.98336 0.79558 0.0
C829 C 0.44787 0.97955 0.76856 0.0
C830 C 0.45558 0.97601 0.78 0.0
C831 C 0.46922 0.97981 0.80747 0.0
H832 H 0.53916 0.99536 0.80464 0.0
H833 H 0.5187 0.995 0.81823 0.0
H834 H 0.50948 0.96143 0.77047 0.0
H835 H 0.48886 0.96079 0.78452 0.0
H836 H 0.51713 0.95955 0.84898 0.0
H837 H 0.49852 0.95838 0.82957 0.0
H838 H 0.51827 0.99445 0.87627 0.0
H839 H 0.5002 0.9936 0.8566 0.0
H840 H 0.41868 0.96442 0.83316 0.0
H841 H 0.43797 0.96303 0.81856 0.0
H842 H 0.45094 0.99772 0.86609 0.0
H843 H 0.47012 0.99634 0.85148 0.0
H844 H 0.44875 0.00649 0.79156 0.0
H845 H 0.46296 0.00098 0.81077 0.0
H846 H 0.44413 0.97374 0.7566 0.0
H847 H 0.45744 0.96748 0.77671 0.0
N848 N 0.48026 0.97868 0.80102 0.0
N849 N 0.47682 0.97757 0.83541 0.0
C850 C 0.98758 0.53647 0.7819 0.0
C851 C 0.99564 0.54292 0.76703 0.0
C852 C 0.9904 0.52756 0.79191 0.0
C853 C 0.00139 0.52496 0.78732 0.0
C854 C 0.00643 0.54002 0.76228 0.0
C855 C 0.00919 0.53104 0.77228 0.0
C856 C 0.00459 0.51572 0.79799 0.0
C857 C 0.01881 0.55548 0.82983 0.0
C858 C 0.01096 0.55279 0.84505 0.0
C859 C 0.01737 0.54412 0.82002 0.0
C860 C 0.00803 0.52986 0.82525 0.0
C861 C 0.00149 0.5385 0.85011 0.0
C862 C 0.00013 0.52716 0.84037 0.0
C863 C 0.00716 0.51774 0.81576 0.0
C864 C 0.02457 0.47476 0.8342 0.0
C865 C 0.01901 0.47179 0.85083 0.0
C866 C 0.02154 0.48301 0.82318 0.0
C867 C 0.01239 0.48792 0.82839 0.0
C868 C 0.01024 0.477 0.85622 0.0
C869 C 0.00691 0.48492 0.8451 0.0
C870 C 0.00925 0.49703 0.81723 0.0
C871 C 0.99373 0.45647 0.78718 0.0
C872 C 0.00137 0.45842 0.77194 0.0
C873 C 0.99532 0.46826 0.79615 0.0
C874 C 0.00472 0.48227 0.79017 0.0
C875 C 0.01058 0.47247 0.76586 0.0
C876 C 0.01216 0.48425 0.77483 0.0
C877 C 0.00642 0.49485 0.79944 0.0
H878 H 0.97897 0.53819 0.78574 0.0
H879 H 0.98394 0.52265 0.8032 0.0
H880 H 0.01294 0.54489 0.75102 0.0
H881 H 0.01765 0.52909 0.76844 0.0
H882 H 0.02617 0.56638 0.8256 0.0
H883 H 0.02381 0.54649 0.80859 0.0
H884 H 0.99548 0.53608 0.86191 0.0
H885 H 0.99298 0.51625 0.84473 0.0
H886 H 0.0315 0.47095 0.82988 0.0
H887 H 0.02653 0.48569 0.81071 0.0
H888 H 0.00581 0.47479 0.869 0.0
H889 H 0.0 0.4887 0.84958 0.0
H890 H 0.98632 0.4458 0.79205 0.0
H891 H 0.98913 0.46643 0.80769 0.0
H892 H 0.01674 0.47438 0.75426 0.0
H893 H 0.01938 0.49495 0.7699 0.0
N894 N 0.00437 0.50438 0.7905 0.0
N895 N 0.00937 0.50834 0.82463 0.0
C896 C 0.51371 0.57963 0.79213 0.0
C897 C 0.51993 0.57393 0.78149 0.0
C898 C 0.50071 0.57049 0.80074 0.0
C899 C 0.49388 0.55551 0.79902 0.0
C900 C 0.51251 0.55901 0.77898 0.0
C901 C 0.4997 0.54993 0.78765 0.0
C902 C 0.48092 0.54528 0.80907 0.0
C903 C 0.51647 0.57057 0.84749 0.0
C904 C 0.5133 0.57777 0.85991 0.0
C905 C 0.50555 0.56053 0.83667 0.0
C906 C 0.49131 0.55781 0.83763 0.0
C907 C 0.49899 0.57484 0.86116 0.0
C908 C 0.48808 0.56494 0.85009 0.0
C909 C 0.47955 0.54651 0.82685 0.0
C910 C 0.43727 0.48772 0.84941 0.0
C911 C 0.42825 0.48973 0.86045 0.0
C912 C 0.44648 0.49852 0.83808 0.0
C913 C 0.44678 0.51152 0.83745 0.0
C914 C 0.42844 0.50271 0.85957 0.0
C915 C 0.43772 0.51354 0.84829 0.0
C916 C 0.45756 0.52348 0.82678 0.0
C917 C 0.42638 0.48792 0.79109 0.0
C918 C 0.4333 0.48329 0.77992 0.0
C919 C 0.43456 0.50063 0.80053 0.0
C920 C 0.4498 0.50881 0.7991 0.0
C921 C 0.44847 0.49183 0.77811 0.0
C922 C 0.45659 0.50436 0.78759 0.0
C923 C 0.45906 0.52214 0.8091 0.0
H924 H 0.51911 0.5911 0.79422 0.0
H925 H 0.49621 0.5751 0.80902 0.0
H926 H 0.51675 0.55427 0.77048 0.0
H927 H 0.49459 0.53846 0.78585 0.0
H928 H 0.52731 0.57232 0.84655 0.0
H929 H 0.50821 0.55468 0.82779 0.0
H930 H 0.49625 0.58017 0.87073 0.0
H931 H 0.4771 0.56276 0.85134 0.0
H932 H 0.43765 0.47801 0.84996 0.0
H933 H 0.4537 0.49689 0.83018 0.0
H934 H 0.42152 0.50456 0.86773 0.0
H935 H 0.43792 0.52356 0.84812 0.0
H936 H 0.4147 0.48162 0.79274 0.0
H937 H 0.42897 0.50402 0.8089 0.0
H938 H 0.45414 0.48886 0.76929 0.0
H939 H 0.4683 0.51051 0.78605 0.0
N940 N 0.47062 0.53314 0.80104 0.0
N941 N 0.4678 0.53565 0.83492 0.0
C942 C 0.65228 0.78714 0.52574 0.0
C943 C 0.64093 0.78058 0.51358 0.0
C944 C 0.65356 0.79796 0.53647 0.0
C945 C 0.64327 0.80217 0.53568 0.0
C946 C 0.63068 0.78486 0.5128 0.0
C947 C 0.63183 0.7955 0.52373 0.0
C948 C 0.64503 0.81442 0.54589 0.0
C949 C 0.6426 0.78255 0.58456 0.0
C950 C 0.65591 0.78757 0.59321 0.0
C951 C 0.64025 0.79195 0.57485 0.0
C952 C 0.65116 0.80653 0.57372 0.0
C953 C 0.6667 0.8022 0.59222 0.0
C954 C 0.66428 0.81161 0.5827 0.0
C955 C 0.64901 0.81663 0.56338 0.0
C956 C 0.6432 0.8674 0.58059 0.0
C957 C 0.65517 0.87481 0.59176 0.0
C958 C 0.64115 0.85556 0.57133 0.0
C959 C 0.65118 0.85105 0.57279 0.0
C960 C 0.66496 0.87003 0.59358 0.0
C961 C 0.66296 0.85825 0.58422 0.0
C962 C 0.64931 0.83865 0.56285 0.0
C963 C 0.65707 0.87191 0.52336 0.0
C964 C 0.64585 0.86771 0.51122 0.0
C965 C 0.65688 0.86191 0.53468 0.0
C966 C 0.64534 0.84754 0.53432 0.0
C967 C 0.63428 0.85333 0.5109 0.0
C968 C 0.63406 0.84335 0.52231 0.0
C969 C 0.64566 0.83661 0.54527 0.0
H970 H 0.66033 0.78408 0.52687 0.0
H971 H 0.66286 0.80328 0.54503 0.0
H972 H 0.62198 0.78036 0.50338 0.0
H973 H 0.62389 0.79871 0.52262 0.0
H974 H 0.6341 0.77131 0.5851 0.0
H975 H 0.62995 0.78785 0.56822 0.0
H976 H 0.67698 0.80639 0.59893 0.0
H977 H 0.67279 0.82284 0.5821 0.0
H978 H 0.63532 0.87066 0.57918 0.0
H979 H 0.63168 0.8499 0.56307 0.0
H980 H 0.67433 0.87557 0.60201 0.0
H981 H 0.67077 0.85491 0.58569 0.0
H982 H 0.6663 0.88282 0.52369 0.0
H983 H 0.66601 0.86534 0.54337 0.0
H984 H 0.62545 0.84978 0.50174 0.0
H985 H 0.62513 0.83229 0.52165 0.0
N986 N 0.64351 0.82452 0.53758 0.0
N987 N 0.651 0.82865 0.57115 0.0
C988 C 0.15278 0.76686 0.51713 0.0
C989 C 0.14829 0.77323 0.50486 0.0
C990 C 0.16458 0.77542 0.52806 0.0
C991 C 0.17203 0.79047 0.52688 0.0
C992 C 0.15604 0.78826 0.50347 0.0
C993 C 0.16777 0.79676 0.51431 0.0
C994 C 0.18435 0.79996 0.5384 0.0
C995 C 0.14541 0.77812 0.57278 0.0
C996 C 0.14621 0.76928 0.58527 0.0
C997 C 0.15756 0.78732 0.56305 0.0
C998 C 0.17072 0.7878 0.56553 0.0
C999 C 0.15933 0.76959 0.58758 0.0
C1000 C 0.17155 0.77891 0.57789 0.0
C1001 C 0.18389 0.79851 0.55635 0.0
C1002 C 0.23062 0.85697 0.57902 0.0
C1003 C 0.23486 0.8535 0.59438 0.0
C1004 C 0.22179 0.84624 0.56732 0.0
C1005 C 0.2175 0.83187 0.57039 0.0
C1006 C 0.23041 0.83916 0.59771 0.0
C1007 C 0.22187 0.82843 0.58575 0.0
C1008 C 0.20707 0.82026 0.55872 0.0
C1009 C 0.24527 0.84981 0.52529 0.0
C1010 C 0.24175 0.85716 0.51326 0.0
C1011 C 0.23425 0.8382 0.53438 0.0
C1012 C 0.21959 0.83372 0.53143 0.0
C1013 C 0.22707 0.85259 0.51036 0.0
C1014 C 0.21612 0.84093 0.51925 0.0
C1015 C 0.20767 0.82148 0.54071 0.0
H1016 H 0.14704 0.75531 0.51846 0.0
H1017 H 0.16786 0.77029 0.53741 0.0
H1018 H 0.15306 0.7935 0.49391 0.0
H1019 H 0.17341 0.80832 0.51302 0.0
H1020 H 0.13542 0.77804 0.57066 0.0
H1021 H 0.15677 0.79434 0.55388 0.0
H1022 H 0.16027 0.76299 0.59724 0.0
H1023 H 0.18168 0.77929 0.58015 0.0
H1024 H 0.23358 0.86792 0.57643 0.0
H1025 H 0.21789 0.84921 0.55622 0.0
H1026 H 0.23343 0.83626 0.60961 0.0
H1027 H 0.21844 0.81741 0.58864 0.0
H1028 H 0.2565 0.85309 0.52769 0.0
H1029 H 0.23716 0.83267 0.54359 0.0
H1030 H 0.22403 0.85788 0.50094 0.0
H1031 H 0.20488 0.83762 0.51673 0.0
N1032 N 0.19624 0.81137 0.53134 0.0
N1033 N 0.19527 0.80868 0.56579 0.0
C1034 C 0.2436 0.38338 0.51836 0.0
C1035 C 0.23918 0.37404 0.50425 0.0
C1036 C 0.23324 0.38384 0.52856 0.0
C1037 C 0.21835 0.37509 0.52463 0.0
C1038 C 0.22427 0.36526 0.50048 0.0
C1039 C 0.21398 0.36589 0.51047 0.0
C1040 C 0.20718 0.37573 0.53468 0.0
C1041 C 0.22496 0.35471 0.56797 0.0
C1042 C 0.23008 0.36096 0.58419 0.0
C1043 C 0.21704 0.35874 0.55765 0.0
C1044 C 0.21444 0.36946 0.56302 0.0
C1045 C 0.22717 0.37147 0.58969 0.0
C1046 C 0.21945 0.37566 0.57922 0.0
C1047 C 0.20553 0.37344 0.55251 0.0
C1048 C 0.14611 0.36358 0.5636 0.0
C1049 C 0.1481 0.37135 0.57868 0.0
C1050 C 0.15804 0.36498 0.55495 0.0
C1051 C 0.17224 0.37447 0.56096 0.0
C1052 C 0.16228 0.38044 0.58508 0.0
C1053 C 0.17426 0.38197 0.57627 0.0
C1054 C 0.18492 0.37617 0.5516 0.0
C1055 C 0.16132 0.39087 0.51805 0.0
C1056 C 0.15646 0.38346 0.50245 0.0
C1057 C 0.17164 0.3899 0.528 0.0
C1058 C 0.17681 0.38104 0.52283 0.0
C1059 C 0.16233 0.37537 0.49678 0.0
C1060 C 0.17237 0.37414 0.50688 0.0
C1061 C 0.18671 0.37866 0.53378 0.0
H1062 H 0.25504 0.39027 0.52149 0.0
H1063 H 0.23684 0.39115 0.53932 0.0
H1064 H 0.22058 0.35813 0.48952 0.0
H1065 H 0.20255 0.35912 0.50717 0.0
H1066 H 0.22704 0.34667 0.56318 0.0
H1067 H 0.21275 0.35324 0.54559 0.0
H1068 H 0.23063 0.37631 0.60222 0.0
H1069 H 0.21732 0.38372 0.58383 0.0
H1070 H 0.13528 0.35621 0.55861 0.0
H1071 H 0.15616 0.35865 0.54352 0.0
H1072 H 0.16411 0.38649 0.59673 0.0
H1073 H 0.18513 0.38916 0.58129 0.0
H1074 H 0.15706 0.39731 0.52258 0.0
H1075 H 0.17533 0.39585 0.53988 0.0
H1076 H 0.1587 0.3695 0.48483 0.0
H1077 H 0.17629 0.36738 0.50245 0.0
N1078 N 0.1977 0.37821 0.52607 0.0
N1079 N 0.1945 0.37384 0.56027 0.0
C1080 C 0.98502 0.37046 0.06158 0.0
C1081 C 0.97701 0.37008 0.0471 0.0
C1082 C 0.98495 0.37744 0.0765 0.0
C1083 C 0.96587 0.39388 0.09736 0.0
H1084 H 0.0025 0.41611 0.12189 0.0
C1085 C 0.98094 0.44295 0.13955 0.0
C1086 C 0.98675 0.44345 0.15584 0.0
C1087 C 0.97851 0.43223 0.12795 0.0
C1088 C 0.99215 0.4098 0.11529 0.0
H1089 H 0.9625 0.37659 0.03702 0.0
H1090 H 0.96281 0.38917 0.06263 0.0
H1091 H 0.00056 0.40057 0.09843 0.0
H1092 H 0.99454 0.43321 0.17289 0.0
H1093 H 0.99067 0.41457 0.15227 0.0
H1094 H 0.95781 0.40386 0.11372 0.0
C1095 C 0.96881 0.38374 0.06278 0.0
C1096 C 0.99099 0.40083 0.10187 0.0
C1097 C 0.96871 0.37659 0.04798 0.0
C1098 C 0.99 0.43298 0.1604 0.0
C1099 C 0.98785 0.4224 0.14864 0.0
C1100 C 0.96713 0.40304 0.11057 0.0
C1101 C 0.97704 0.38439 0.07721 0.0
C1102 C 0.97789 0.39291 0.09253 0.0
C1103 C 0.98209 0.42196 0.13231 0.0
C1104 C 0.98034 0.41123 0.11949 0.0
H1105 H 0.99144 0.36545 0.06134 0.0
H1106 H 0.99119 0.37745 0.08743 0.0
H1107 H 0.9555 0.3877 0.0908 0.0
H1108 H 0.97828 0.45089 0.1358 0.0
H1109 H 0.97417 0.43218 0.11539 0.0
C1110 C 0.64103 0.59936 0.05316 0.0
C1111 C 0.63745 0.60966 0.04907 0.0
C1112 C 0.63615 0.59152 0.06827 0.0
C1113 C 0.61827 0.58906 0.10991 0.0
H1114 H 0.60592 0.54889 0.10567 0.0
C1115 C 0.57743 0.54355 0.15451 0.0
C1116 C 0.58062 0.53306 0.15927 0.0
C1117 C 0.5864 0.55445 0.14315 0.0
C1118 C 0.60951 0.56013 0.10714 0.0
H1119 H 0.6263 0.62019 0.05778 0.0
H1120 H 0.61716 0.60604 0.08388 0.0
H1121 H 0.61752 0.56491 0.08171 0.0
H1122 H 0.59591 0.526 0.1564 0.0
H1123 H 0.61154 0.545 0.13634 0.0
H1124 H 0.60944 0.58388 0.1352 0.0
C1125 C 0.62409 0.60425 0.07566 0.0
C1126 C 0.61623 0.56937 0.09341 0.0
C1127 C 0.62924 0.61231 0.06065 0.0
C1128 C 0.59325 0.534 0.153 0.0
C1129 C 0.60212 0.54479 0.14147 0.0
C1130 C 0.61133 0.57973 0.1236 0.0
C1131 C 0.62726 0.59355 0.0795 0.0
C1132 C 0.62067 0.58396 0.09456 0.0
C1133 C 0.59861 0.55494 0.13618 0.0
C1134 C 0.60685 0.56516 0.1223 0.0
H1135 H 0.64755 0.59725 0.04458 0.0
H1136 H 0.6392 0.5837 0.07099 0.0
H1137 H 0.62171 0.60025 0.11137 0.0
H1138 H 0.56779 0.54311 0.15928 0.0
H1139 H 0.5834 0.56208 0.1392 0.0
C1140 C 0.38528 0.9879 0.05819 0.0
C1141 C 0.38025 0.99693 0.05312 0.0
C1142 C 0.39712 0.9928 0.0693 0.0
C1143 C 0.41785 0.01929 0.10275 0.0
H1144 H 0.44523 0.00701 0.09486 0.0
C1145 C 0.46623 0.03234 0.14879 0.0
C1146 C 0.46741 0.02043 0.15284 0.0
C1147 C 0.45672 0.0314 0.13581 0.0
C1148 C 0.43766 0.01051 0.09725 0.0
H1149 H 0.38378 0.01828 0.05584 0.0
H1150 H 0.40464 0.0269 0.07544 0.0
H1151 H 0.42674 0.0022 0.07334 0.0
H1152 H 0.45977 0.99832 0.14627 0.0
H1153 H 0.44321 0.99667 0.12378 0.0
H1154 H 0.42871 0.02736 0.12688 0.0
C1155 C 0.39929 0.01597 0.07074 0.0
C1156 C 0.42707 0.00776 0.08494 0.0
C1157 C 0.3874 0.01105 0.05948 0.0
C1158 C 0.45899 0.00763 0.14359 0.0
C1159 C 0.44962 0.00674 0.13057 0.0
C1160 C 0.42852 0.0221 0.1151 0.0
C1161 C 0.40431 0.00689 0.07569 0.0
C1162 C 0.41676 0.01172 0.08775 0.0
C1163 C 0.44838 0.0186 0.1265 0.0
C1164 C 0.43827 0.01736 0.11266 0.0
H1165 H 0.38005 0.97694 0.05362 0.0
H1166 H 0.40051 0.98543 0.07311 0.0
H1167 H 0.41002 0.02242 0.10531 0.0
H1168 H 0.47256 0.04232 0.15576 0.0
H1169 H 0.456 0.04072 0.13291 0.0
C1170 C 0.36102 0.9929 0.96078 0.0
C1171 C 0.35366 0.97968 0.96939 0.0
C1172 C 0.36717 0.99394 0.94478 0.0
C1173 C 0.36824 0.97282 0.90836 0.0
H1174 H 0.40915 0.00246 0.90725 0.0
C1175 C 0.40957 0.96912 0.86602 0.0
C1176 C 0.42178 0.9818 0.86008 0.0
C1177 C 0.39951 0.9697 0.8766 0.0
C1178 C 0.39767 0.99431 0.90708 0.0
H1179 H 0.34609 0.95702 0.96743 0.0
H1180 H 0.35677 0.95885 0.93958 0.0
H1181 H 0.39417 0.00204 0.93048 0.0
H1182 H 0.43255 0.00498 0.85958 0.0
H1183 H 0.41484 0.00602 0.87774 0.0
H1184 H 0.37184 0.9649 0.88512 0.0
C1185 C 0.35781 0.9684 0.94516 0.0
C1186 C 0.38907 0.99407 0.92045 0.0
C1187 C 0.35177 0.96738 0.96119 0.0
C1188 C 0.42335 0.99504 0.86421 0.0
C1189 C 0.41322 0.99563 0.87465 0.0
C1190 C 0.37683 0.97311 0.8949 0.0
C1191 C 0.36595 0.98176 0.93702 0.0
C1192 C 0.37435 0.98314 0.92147 0.0
C1193 C 0.40138 0.98298 0.88135 0.0
C1194 C 0.39174 0.98366 0.89432 0.0
H1195 H 0.36262 0.00257 0.96671 0.0
H1196 H 0.37325 0.00435 0.9387 0.0
H1197 H 0.35688 0.96436 0.90872 0.0
H1198 H 0.40817 0.95877 0.86315 0.0
H1199 H 0.39066 0.95974 0.88168 0.0
C1200 C 0.01755 0.3958 0.96679 0.0
C1201 C 0.00468 0.38265 0.9634 0.0
C1202 C 0.02349 0.40648 0.95422 0.0
C1203 C 0.02408 0.41376 0.90838 0.0
H1204 H 0.02254 0.44711 0.92151 0.0
C1205 C 0.01735 0.44883 0.85869 0.0
C1206 C 0.02213 0.46314 0.86262 0.0
C1207 C 0.01878 0.44013 0.8707 0.0
C1208 C 0.02347 0.43813 0.91759 0.0
H1209 H 0.9885 0.36992 0.94409 0.0
H1210 H 0.99918 0.38833 0.922 0.0
H1211 H 0.01962 0.42978 0.94307 0.0
H1212 H 0.03289 0.47992 0.88158 0.0
H1213 H 0.03616 0.46505 0.90226 0.0
H1214 H 0.02792 0.42199 0.88291 0.0
C1215 C 0.00456 0.39048 0.93435 0.0
C1216 C 0.02174 0.42817 0.93003 0.0
C1217 C 0.99842 0.37999 0.947 0.0
C1218 C 0.02901 0.46885 0.87838 0.0
C1219 C 0.03076 0.46026 0.89025 0.0
C1220 C 0.02612 0.42388 0.89597 0.0
C1221 C 0.01688 0.40396 0.93799 0.0
C1222 C 0.02159 0.41569 0.92544 0.0
C1223 C 0.0253 0.44565 0.88679 0.0
C1224 C 0.02534 0.43597 0.9003 0.0
H1225 H 0.0225 0.3981 0.9794 0.0
H1226 H 0.03299 0.41684 0.9573 0.0
H1227 H 0.02406 0.40422 0.90457 0.0
H1228 H 0.0119 0.4442 0.84663 0.0
H1229 H 0.01419 0.42892 0.86758 0.0
C1230 C 0.61081 0.6338 0.96826 0.0
C1231 C 0.61646 0.62473 0.96858 0.0
C1232 C 0.60008 0.63158 0.95625 0.0
C1233 C 0.57108 0.61787 0.9359 0.0
H1234 H 0.57469 0.60658 0.89018 0.0
C1235 C 0.52237 0.58588 0.88979 0.0
C1236 C 0.52481 0.58757 0.87211 0.0
C1237 C 0.53388 0.59353 0.90134 0.0
C1238 C 0.57356 0.60997 0.90276 0.0
H1239 H 0.61511 0.60615 0.95661 0.0
H1240 H 0.59653 0.60231 0.93597 0.0
H1241 H 0.5945 0.61419 0.91055 0.0
H1242 H 0.54086 0.59942 0.85264 0.0
H1243 H 0.56089 0.61307 0.87276 0.0
H1244 H 0.55001 0.6135 0.92805 0.0
C1245 C 0.60049 0.61125 0.94477 0.0
C1246 C 0.58488 0.61416 0.91452 0.0
C1247 C 0.6111 0.61341 0.95673 0.0
C1248 C 0.53875 0.59776 0.86622 0.0
C1249 C 0.55021 0.60552 0.87774 0.0
C1250 C 0.5597 0.61367 0.92407 0.0
C1251 C 0.5949 0.62034 0.94429 0.0
C1252 C 0.58362 0.61778 0.93135 0.0
C1253 C 0.54805 0.60313 0.89543 0.0
C1254 C 0.56069 0.60937 0.90746 0.0
H1255 H 0.6147 0.64261 0.97723 0.0
H1256 H 0.59598 0.63877 0.95616 0.0
H1257 H 0.56978 0.62058 0.94879 0.0
H1258 H 0.51175 0.57802 0.89467 0.0
H1259 H 0.53182 0.5913 0.91484 0.0
C1260 C 0.04291 0.64268 0.95674 0.0
C1261 C 0.03091 0.64185 0.96483 0.0
C1262 C 0.04101 0.63471 0.94201 0.0
C1263 C 0.0143 0.61264 0.90779 0.0
H1264 H 0.03762 0.59509 0.906 0.0
C1265 C 0.00142 0.56446 0.8641 0.0
C1266 C 0.01325 0.56477 0.85622 0.0
C1267 C 0.00372 0.57513 0.87577 0.0
C1268 C 0.03116 0.60006 0.90618 0.0
H1269 H 0.00753 0.63236 0.96347 0.0
H1270 H 0.00412 0.61808 0.93799 0.0
H1271 H 0.04131 0.61135 0.92925 0.0
H1272 H 0.03676 0.57669 0.85412 0.0
H1273 H 0.04078 0.59533 0.87446 0.0
H1274 H 0.00383 0.60083 0.88489 0.0
C1275 C 0.01506 0.62511 0.94284 0.0
C1276 C 0.03329 0.60943 0.9195 0.0
C1277 C 0.017 0.63326 0.9575 0.0
C1278 C 0.02741 0.57621 0.85988 0.0
C1279 C 0.02972 0.5868 0.87164 0.0
C1280 C 0.01207 0.60312 0.89451 0.0
C1281 C 0.02702 0.62552 0.93511 0.0
C1282 C 0.0249 0.61586 0.92051 0.0
C1283 C 0.01792 0.58625 0.87992 0.0
C1284 C 0.02049 0.59674 0.89358 0.0
H1285 H 0.0538 0.64936 0.96195 0.0
H1286 H 0.05051 0.6356 0.93616 0.0
H1287 H 0.00775 0.61751 0.90804 0.0
H1288 H 0.99037 0.55585 0.86141 0.0
H1289 H 0.99442 0.57438 0.88202 0.0
C1290 C 0.37314 0.41595 0.98605 0.0
C1291 C 0.36784 0.40117 0.98517 0.0
C1292 C 0.37816 0.42448 0.97145 0.0
C1293 C 0.39229 0.42605 0.92828 0.0
H1294 H 0.38479 0.45691 0.92249 0.0
C1295 C 0.41245 0.46394 0.86963 0.0
C1296 C 0.4193 0.47867 0.87343 0.0
C1297 C 0.40477 0.45362 0.88219 0.0
C1298 C 0.38702 0.44837 0.92396 0.0
H1299 H 0.36361 0.38375 0.96814 0.0
H1300 H 0.37227 0.39868 0.94252 0.0
H1301 H 0.37387 0.4403 0.94628 0.0
H1302 H 0.42342 0.49401 0.89354 0.0
H1303 H 0.40988 0.47606 0.91528 0.0
H1304 H 0.40555 0.43426 0.90598 0.0
C1305 C 0.37267 0.40367 0.9546 0.0
C1306 C 0.38079 0.43887 0.93761 0.0
C1307 C 0.36766 0.39511 0.96927 0.0
C1308 C 0.41805 0.48279 0.89002 0.0
C1309 C 0.41031 0.47249 0.90253 0.0
C1310 C 0.39847 0.43554 0.91456 0.0
C1311 C 0.37797 0.41846 0.95553 0.0
C1312 C 0.38357 0.42775 0.94013 0.0
C1313 C 0.40369 0.45779 0.89881 0.0
C1314 C 0.39612 0.44696 0.91244 0.0
H1315 H 0.37353 0.42102 0.99807 0.0
H1316 H 0.38242 0.43587 0.97271 0.0
H1317 H 0.39477 0.4177 0.92993 0.0
H1318 H 0.41301 0.46037 0.85692 0.0
H1319 H 0.39964 0.44237 0.8789 0.0
C1320 C 0.61392 0.98974 0.96575 0.0
C1321 C 0.62388 0.00448 0.9684 0.0
C1322 C 0.60219 0.98515 0.95432 0.0
C1323 C 0.57997 0.99823 0.9351 0.0
H1324 H 0.56819 0.96819 0.90127 0.0
C1325 C 0.54302 0.99254 0.87933 0.0
C1326 C 0.53129 0.97879 0.8752 0.0
C1327 C 0.55386 0.99427 0.89069 0.0
C1328 C 0.57126 0.97647 0.91081 0.0
H1329 H 0.62969 0.02589 0.96044 0.0
H1330 H 0.60948 0.01792 0.94064 0.0
H1331 H 0.5881 0.97366 0.92135 0.0
H1332 H 0.52204 0.956 0.87926 0.0
H1333 H 0.54116 0.95906 0.89922 0.0
H1334 H 0.56338 0.00124 0.92461 0.0
C1335 C 0.6105 0.0099 0.94761 0.0
C1336 C 0.58263 0.97959 0.92228 0.0
C1337 C 0.62215 0.01446 0.95893 0.0
C1338 C 0.53096 0.96674 0.88219 0.0
C1339 C 0.54188 0.96848 0.8936 0.0
C1340 C 0.56868 0.99514 0.92371 0.0
C1341 C 0.60021 0.99523 0.94542 0.0
C1342 C 0.58731 0.99075 0.93427 0.0
C1343 C 0.55329 0.98229 0.89821 0.0
C1344 C 0.56442 0.98447 0.91117 0.0
H1345 H 0.61497 0.98178 0.97282 0.0
H1346 H 0.59442 0.97376 0.95287 0.0
H1347 H 0.58307 0.00664 0.94448 0.0
H1348 H 0.54382 0.00203 0.87382 0.0
H1349 H 0.5627 0.00504 0.89364 0.0
C1350 C 0.63371 0.01024 0.06231 0.0
C1351 C 0.64357 0.02308 0.05397 0.0
C1352 C 0.62719 0.01053 0.07754 0.0
C1353 C 0.61841 0.03434 0.10109 0.0
H1354 H 0.6061 0.00529 0.13628 0.0
C1355 C 0.58835 0.03522 0.16095 0.0
C1356 C 0.57533 0.02225 0.16442 0.0
C1357 C 0.5983 0.03562 0.14931 0.0
C1358 C 0.60948 0.01347 0.12653 0.0
H1359 H 0.65509 0.04629 0.05563 0.0
H1360 H 0.64416 0.04682 0.08246 0.0
H1361 H 0.62105 0.00566 0.11275 0.0
H1362 H 0.56283 0.99945 0.15866 0.0
H1363 H 0.58035 0.00016 0.13859 0.0
H1364 H 0.60683 0.04212 0.11484 0.0
C1365 C 0.64102 0.0365 0.07698 0.0
C1366 C 0.618 0.01366 0.11302 0.0
C1367 C 0.64737 0.03621 0.06164 0.0
C1368 C 0.57281 0.0096 0.15649 0.0
C1369 C 0.58284 0.00999 0.14496 0.0
C1370 C 0.61006 0.03424 0.11466 0.0
C1371 C 0.63053 0.02367 0.08488 0.0
C1372 C 0.62242 0.024 0.1 0.0
C1373 C 0.59554 0.02305 0.141 0.0
C1374 C 0.60535 0.0237 0.1274 0.0
H1375 H 0.63053 -5e-05 0.05668 0.0
H1376 H 0.61906 0.00042 0.08313 0.0
H1377 H 0.62131 0.04228 0.09115 0.0
H1378 H 0.59079 0.04511 0.16709 0.0
H1379 H 0.60811 0.04581 0.14666 0.0
C1380 C 0.02805 0.63333 0.0653 0.0
C1381 C 0.01807 0.63375 0.05398 0.0
C1382 C 0.02325 0.62457 0.07969 0.0
C1383 C 0.99277 0.59153 0.09626 0.0
H1384 H 0.01416 0.60554 0.13899 0.0
C1385 C 0.98311 0.55381 0.15357 0.0
C1386 C 0.996 0.55544 0.16042 0.0
C1387 C 0.98365 0.5641 0.14236 0.0
C1388 C 0.00806 0.60146 0.12716 0.0
H1389 H 0.99516 0.62528 0.04899 0.0
H1390 H 0.9867 0.60965 0.07421 0.0
H1391 H 0.01896 0.62228 0.1157 0.0
H1392 H 0.01946 0.56942 0.16162 0.0
H1393 H 0.02044 0.58724 0.14208 0.0
H1394 H 0.98233 0.57058 0.10748 0.0
C1395 C 0.99827 0.61624 0.07185 0.0
C1396 C 0.01079 0.61105 0.11385 0.0
C1397 C 0.00311 0.6252 0.05747 0.0
C1398 C 0.00936 0.5678 0.1564 0.0
C1399 C 0.00989 0.57809 0.14533 0.0
C1400 C 0.99005 0.58189 0.1096 0.0
C1401 C 0.00833 0.61588 0.08311 0.0
C1402 C 0.00353 0.60612 0.09806 0.0
C1403 C 0.99708 0.57628 0.13797 0.0
C1404 C 0.99804 0.5867 0.12499 0.0
H1405 H 0.03965 0.63979 0.06306 0.0
H1406 H 0.03125 0.62436 0.08796 0.0
H1407 H 0.98706 0.58742 0.08421 0.0
H1408 H 0.97266 0.54435 0.15642 0.0
H1409 H 0.97359 0.56245 0.13697 0.0
C1410 C 0.39426 0.37504 0.05619 0.0
C1411 C 0.38166 0.37435 0.06205 0.0
C1412 C 0.40499 0.37667 0.06782 0.0
C1413 C 0.41702 0.38923 0.11253 0.0
H1414 H 0.44558 0.37878 0.103 0.0
C1415 C 0.46402 0.40418 0.15902 0.0
C1416 C 0.47753 0.41341 0.15141 0.0
C1417 C 0.45166 0.39581 0.14888 0.0
C1418 C 0.43758 0.38164 0.10585 0.0
H1419 H 0.36968 0.3736 0.08444 0.0
H1420 H 0.38774 0.37534 0.10477 0.0
H1421 H 0.42449 0.37042 0.08399 0.0
H1422 H 0.48902 0.42031 0.12741 0.0
H1423 H 0.46741 0.40544 0.10965 0.0
H1424 H 0.43007 0.40032 0.13441 0.0
C1425 C 0.38991 0.37548 0.09128 0.0
C1426 C 0.42556 0.37698 0.0949 0.0
C1427 C 0.37945 0.37432 0.07966 0.0
C1428 C 0.4787 0.41328 0.13355 0.0
C1429 C 0.46638 0.40474 0.12342 0.0
C1430 C 0.42881 0.39358 0.1236 0.0
C1431 C 0.40312 0.37728 0.08555 0.0
C1432 C 0.41523 0.38093 0.09792 0.0
C1433 C 0.45266 0.39638 0.13097 0.0
C1434 C 0.43933 0.39005 0.12024 0.0
H1435 H 0.39619 0.37515 0.04261 0.0
H1436 H 0.41501 0.37815 0.06281 0.0
H1437 H 0.40966 0.39291 0.11516 0.0
H1438 H 0.46282 0.40418 0.17275 0.0
H1439 H 0.44119 0.38942 0.15498 0.0
C1440 C 0.621 0.70023 0.39446 0.0
C1441 C 0.63319 0.7 0.38863 0.0
C1442 C 0.62188 0.70765 0.40938 0.0
C1443 C 0.64774 0.73835 0.43476 0.0
H1444 H 0.61869 0.72209 0.47033 0.0
C1445 C 0.65298 0.7713 0.49454 0.0
C1446 C 0.64019 0.76987 0.50114 0.0
C1447 C 0.65231 0.76182 0.4821 0.0
C1448 C 0.62681 0.72688 0.46043 0.0
H1449 H 0.65578 0.70721 0.39406 0.0
H1450 H 0.65736 0.72042 0.41994 0.0
H1451 H 0.61694 0.70725 0.44608 0.0
H1452 H 0.61659 0.75686 0.50014 0.0
H1453 H 0.61542 0.7409 0.47784 0.0
H1454 H 0.65729 0.75812 0.44848 0.0
C1455 C 0.64713 0.71477 0.41298 0.0
C1456 C 0.62582 0.71833 0.44659 0.0
C1457 C 0.64619 0.70715 0.39821 0.0
C1458 C 0.62669 0.7585 0.49518 0.0
C1459 C 0.62602 0.74916 0.48253 0.0
C1460 C 0.6486 0.74697 0.44842 0.0
C1461 C 0.63502 0.71518 0.41862 0.0
C1462 C 0.63627 0.724 0.43363 0.0
C1463 C 0.63882 0.75078 0.47567 0.0
C1464 C 0.63813 0.74137 0.46144 0.0
H1465 H 0.61081 0.69479 0.38739 0.0
H1466 H 0.61241 0.70788 0.41341 0.0
H1467 H 0.65582 0.74305 0.4248 0.0
H1468 H 0.66359 0.77999 0.49861 0.0
H1469 H 0.66241 0.76327 0.47742 0.0
C1470 C 0.3075 0.93111 0.39216 0.0
C1471 C 0.30479 0.94226 0.38978 0.0
C1472 C 0.30433 0.9238 0.40766 0.0
C1473 C 0.29314 0.92381 0.45276 0.0
H1474 H 0.2747 0.88262 0.44736 0.0
C1475 C 0.25275 0.88166 0.50047 0.0
C1476 C 0.25315 0.86913 0.50304 0.0
C1477 C 0.26213 0.89207 0.48887 0.0
C1478 C 0.28007 0.89412 0.44916 0.0
H1479 H 0.29725 0.95495 0.40199 0.0
H1480 H 0.29112 0.94179 0.42891 0.0
H1481 H 0.28527 0.89809 0.42276 0.0
H1482 H 0.26418 0.85801 0.4962 0.0
H1483 H 0.28058 0.87623 0.47584 0.0
H1484 H 0.28711 0.91956 0.47914 0.0
C1485 C 0.29602 0.93889 0.41895 0.0
C1486 C 0.28618 0.90304 0.43504 0.0
C1487 C 0.29946 0.9464 0.40349 0.0
C1488 C 0.26366 0.86758 0.4945 0.0
C1489 C 0.27296 0.87795 0.48277 0.0
C1490 C 0.28685 0.91483 0.4669 0.0
C1491 C 0.29808 0.92724 0.42108 0.0
C1492 C 0.29266 0.918 0.43657 0.0
C1493 C 0.27202 0.89011 0.47952 0.0
C1494 C 0.28012 0.89988 0.46518 0.0
H1495 H 0.31183 0.92785 0.38189 0.0
H1496 H 0.30647 0.91519 0.40897 0.0
H1497 H 0.29822 0.93529 0.45449 0.0
H1498 H 0.24483 0.88317 0.50702 0.0
H1499 H 0.26108 0.90128 0.48656 0.0
C1500 C 0.06095 0.35656 0.39901 0.0
C1501 C 0.04749 0.34464 0.40366 0.0
C1502 C 0.07233 0.36315 0.411 0.0
C1503 C 0.0835 0.3548 0.45258 0.0
H1504 H 0.11569 0.39415 0.44909 0.0
C1505 C 0.13122 0.37884 0.50048 0.0
C1506 C 0.14455 0.38322 0.49259 0.0
C1507 C 0.1192 0.37641 0.49072 0.0
C1508 C 0.10671 0.38317 0.45022 0.0
H1509 H 0.03488 0.33093 0.42461 0.0
H1510 H 0.05423 0.34296 0.44578 0.0
H1511 H 0.0944 0.3857 0.43042 0.0
H1512 H 0.15609 0.38934 0.46859 0.0
H1513 H 0.1351 0.38541 0.45154 0.0
H1514 H 0.09575 0.35241 0.47257 0.0
C1515 C 0.05644 0.34683 0.43276 0.0
C1516 C 0.09455 0.37826 0.43945 0.0
C1517 C 0.04526 0.34 0.42068 0.0
C1518 C 0.1459 0.38594 0.47494 0.0
C1519 C 0.13395 0.38377 0.46523 0.0
C1520 C 0.09547 0.3598 0.46355 0.0
C1521 C 0.07033 0.35815 0.42798 0.0
C1522 C 0.08284 0.36391 0.4403 0.0
C1523 C 0.1204 0.37858 0.47297 0.0
C1524 C 0.10726 0.37395 0.46232 0.0
H1525 H 0.06294 0.36027 0.3859 0.0
H1526 H 0.08284 0.3717 0.40667 0.0
H1527 H 0.07501 0.3436 0.45342 0.0
H1528 H 0.12988 0.37657 0.51404 0.0
H1529 H 0.10884 0.37241 0.49695 0.0
C1530 C 0.0369 0.30328 0.32161 0.0
C1531 C 0.03218 0.31309 0.3218 0.0
C1532 C 0.04292 0.30137 0.30692 0.0
C1533 C 0.04509 0.30499 0.26054 0.0
H1534 H 0.08173 0.30681 0.26716 0.0
C1535 C 0.07993 0.30357 0.20479 0.0
C1536 C 0.08758 0.29664 0.20817 0.0
C1537 C 0.07211 0.30528 0.21782 0.0
C1538 C 0.0714 0.30604 0.26508 0.0
H1539 H 0.02969 0.32829 0.30649 0.0
H1540 H 0.04014 0.32478 0.28061 0.0
H1541 H 0.07009 0.31049 0.29135 0.0
H1542 H 0.09239 0.28524 0.22718 0.0
H1543 H 0.07836 0.28767 0.24966 0.0
H1544 H 0.04629 0.30023 0.23426 0.0
C1545 C 0.03917 0.31864 0.29195 0.0
C1546 C 0.06478 0.30823 0.27895 0.0
C1547 C 0.03327 0.32069 0.30677 0.0
C1548 C 0.08668 0.29077 0.22438 0.0
C1549 C 0.07876 0.29229 0.23727 0.0
C1550 C 0.05167 0.30263 0.24661 0.0
C1551 C 0.04426 0.30913 0.29201 0.0
C1552 C 0.05149 0.30756 0.27689 0.0
C1553 C 0.07176 0.29997 0.23434 0.0
C1554 C 0.06481 0.30293 0.24879 0.0
H1555 H 0.0362 0.29722 0.33291 0.0
H1556 H 0.0466 0.29384 0.30724 0.0
H1557 H 0.03481 0.30438 0.25865 0.0
H1558 H 0.08056 0.30823 0.19236 0.0
H1559 H 0.06689 0.31128 0.21513 0.0
C1560 C 0.64947 0.70493 0.28639 0.0
C1561 C 0.65597 0.70853 0.30264 0.0
C1562 C 0.65571 0.71445 0.27278 0.0
C1563 C 0.6886 0.74962 0.25983 0.0
H1564 H 0.66068 0.74966 0.22822 0.0
C1565 C 0.69646 0.79724 0.21776 0.0
C1566 C 0.69242 0.79407 0.20049 0.0
C1567 C 0.69436 0.7864 0.22907 0.0
C1568 C 0.66862 0.74965 0.23682 0.0
H1569 H 0.67422 0.72465 0.31749 0.0
H1570 H 0.68471 0.74181 0.29404 0.0
H1571 H 0.65227 0.73153 0.25032 0.0
H1572 H 0.68346 0.77731 0.1813 0.0
H1573 H 0.67932 0.75819 0.20126 0.0
H1574 H 0.70476 0.76858 0.24676 0.0
C1575 C 0.6751 0.73142 0.29148 0.0
C1576 C 0.66384 0.73918 0.24949 0.0
C1577 C 0.66907 0.72165 0.305 0.0
C1578 C 0.68674 0.78 0.19455 0.0
C1579 C 0.68435 0.7691 0.20593 0.0
C1580 C 0.69333 0.76034 0.24736 0.0
C1581 C 0.66832 0.72807 0.27523 0.0
C1582 C 0.67373 0.73897 0.26123 0.0
C1583 C 0.6879 0.77218 0.22333 0.0
C1584 C 0.68335 0.76042 0.23578 0.0
H1585 H 0.63944 0.69476 0.28425 0.0
H1586 H 0.65041 0.71117 0.2604 0.0
H1587 H 0.69662 0.74975 0.26838 0.0
H1588 H 0.70085 0.80803 0.22259 0.0
H1589 H 0.69705 0.78899 0.24246 0.0
C1590 C 0.27368 0.96582 0.30594 0.0
C1591 C 0.272 0.95706 0.31994 0.0
C1592 C 0.26159 0.96291 0.29593 0.0
C1593 C 0.22472 0.93195 0.28593 0.0
H1594 H 0.22171 0.95954 0.2577 0.0
C1595 C 0.17626 0.91315 0.2415 0.0
C1596 C 0.18015 0.91621 0.22425 0.0
C1597 C 0.18642 0.92071 0.25441 0.0
C1598 C 0.22243 0.95177 0.26559 0.0
H1599 H 0.25655 0.93924 0.33542 0.0
H1600 H 0.23533 0.93476 0.31884 0.0
H1601 H 0.24134 0.96797 0.27901 0.0
H1602 H 0.19732 0.93043 0.20698 0.0
H1603 H 0.21518 0.94376 0.22969 0.0
H1604 H 0.20587 0.91579 0.27263 0.0
C1605 C 0.24594 0.94341 0.31491 0.0
C1606 C 0.23369 0.95655 0.27773 0.0
C1607 C 0.25805 0.94605 0.32457 0.0
C1608 C 0.19402 0.92787 0.22018 0.0
C1609 C 0.20423 0.93549 0.23316 0.0
C1610 C 0.21341 0.92723 0.27409 0.0
C1611 C 0.2476 0.95136 0.29999 0.0
C1612 C 0.23506 0.94667 0.28796 0.0
C1613 C 0.20068 0.93153 0.25034 0.0
C1614 C 0.21219 0.93705 0.2637 0.0
H1615 H 0.28443 0.9743 0.30212 0.0
H1616 H 0.26339 0.96922 0.28452 0.0
H1617 H 0.22558 0.92391 0.29306 0.0
H1618 H 0.16554 0.9044 0.245 0.0
H1619 H 0.18335 0.9176 0.26758 0.0
C1620 C 0.71102 0.97393 0.29632 0.0
C1621 C 0.69884 0.97355 0.30328 0.0
C1622 C 0.70978 0.9667 0.28111 0.0
C1623 C 0.68302 0.93561 0.25649 0.0
H1624 H 0.71256 0.95076 0.22144 0.0
C1625 C 0.67846 0.90104 0.19872 0.0
C1626 C 0.69129 0.90173 0.19374 0.0
C1627 C 0.67898 0.91112 0.21013 0.0
C1628 C 0.70427 0.94632 0.23118 0.0
H1629 H 0.6759 0.9657 0.29935 0.0
H1630 H 0.67375 0.95298 0.27282 0.0
H1631 H 0.71428 0.96621 0.24498 0.0
H1632 H 0.71477 0.91365 0.1965 0.0
H1633 H 0.71571 0.93106 0.21669 0.0
H1634 H 0.67328 0.91561 0.24322 0.0
C1635 C 0.68423 0.95884 0.27922 0.0
C1636 C 0.70524 0.9552 0.24462 0.0
C1637 C 0.6855 0.96619 0.29436 0.0
C1638 C 0.70471 0.91295 0.19999 0.0
C1639 C 0.70523 0.92295 0.21154 0.0
C1640 C 0.68211 0.92671 0.24316 0.0
C1641 C 0.69631 0.95884 0.27259 0.0
C1642 C 0.6947 0.94989 0.25752 0.0
C1643 C 0.69235 0.92203 0.21697 0.0
C1644 C 0.69281 0.93189 0.23042 0.0
H1645 H 0.72147 0.97953 0.30283 0.0
H1646 H 0.71925 0.9668 0.2764 0.0
H1647 H 0.67486 0.93114 0.26638 0.0
H1648 H 0.66798 0.89261 0.19391 0.0
H1649 H 0.66887 0.91025 0.21372 0.0
C1650 C 0.02266 0.73016 0.30145 0.0
C1651 C 0.02474 0.71923 0.30752 0.0
C1652 C 0.02825 0.73664 0.28572 0.0
C1653 C 0.05878 0.74586 0.25843 0.0
H1654 H 0.04002 0.75969 0.22813 0.0
C1655 C 0.07451 0.7862 0.19669 0.0
C1656 C 0.08694 0.79829 0.2037 0.0
C1657 C 0.06579 0.77411 0.20681 0.0
C1658 C 0.04532 0.75571 0.2363 0.0
H1659 H 0.03376 0.70607 0.30149 0.0
H1660 H 0.04378 0.71763 0.27398 0.0
H1661 H 0.02576 0.74194 0.25011 0.0
H1662 H 0.09952 0.80726 0.22707 0.0
H1663 H 0.08467 0.78617 0.24436 0.0
H1664 H 0.07846 0.7601 0.24516 0.0
C1665 C 0.03778 0.72113 0.28147 0.0
C1666 C 0.0372 0.74565 0.24893 0.0
C1667 C 0.03202 0.7145 0.29717 0.0
C1668 C 0.09033 0.79803 0.22104 0.0
C1669 C 0.08179 0.78594 0.23101 0.0
C1670 C 0.0669 0.756 0.24593 0.0
C1671 C 0.03617 0.73244 0.27574 0.0
C1672 C 0.04396 0.74095 0.26044 0.0
C1673 C 0.06947 0.77385 0.22402 0.0
C1674 C 0.06035 0.76135 0.23511 0.0
H1675 H 0.017 0.73398 0.30906 0.0
H1676 H 0.02697 0.74544 0.28176 0.0
H1677 H 0.06432 0.74253 0.26717 0.0
H1678 H 0.07162 0.78598 0.18337 0.0
H1679 H 0.05631 0.76491 0.20115 0.0
C1680 C 0.27469 0.31872 0.2984 0.0
C1681 C 0.2876 0.33169 0.2948 0.0
C1682 C 0.26358 0.31223 0.2861 0.0
C1683 C 0.25128 0.32117 0.2457 0.0
H1684 H 0.22308 0.28025 0.24505 0.0
C1685 C 0.20567 0.2951 0.19512 0.0
C1686 C 0.19186 0.28888 0.20253 0.0
C1687 C 0.21782 0.29842 0.2052 0.0
C1688 C 0.23096 0.29168 0.24508 0.0
H1689 H 0.29946 0.34759 0.27529 0.0
H1690 H 0.2806 0.33591 0.25352 0.0
H1691 H 0.24394 0.28991 0.26461 0.0
H1692 H 0.17967 0.28042 0.22587 0.0
H1693 H 0.20092 0.2858 0.24344 0.0
H1694 H 0.23839 0.3228 0.22588 0.0
C1695 C 0.27859 0.33103 0.26604 0.0
C1696 C 0.24285 0.29727 0.25638 0.0
C1697 C 0.2895 0.3377 0.27848 0.0
C1698 C 0.19023 0.28519 0.21991 0.0
C1699 C 0.20233 0.28822 0.22991 0.0
C1700 C 0.23962 0.31554 0.23418 0.0
C1701 C 0.26529 0.3184 0.26978 0.0
C1702 C 0.25309 0.31215 0.25702 0.0
C1703 C 0.21628 0.29527 0.22274 0.0
C1704 C 0.22927 0.30079 0.23391 0.0
H1705 H 0.27295 0.3139 0.31094 0.0
H1706 H 0.25348 0.30265 0.28965 0.0
H1707 H 0.2586 0.33269 0.24602 0.0
H1708 H 0.20719 0.29817 0.18178 0.0
H1709 H 0.22849 0.30387 0.19943 0.0
C1710 C 0.30977 0.37594 0.38216 0.0
C1711 C 0.30698 0.36221 0.37807 0.0
C1712 C 0.30481 0.37835 0.39747 0.0
C1713 C 0.2893 0.36194 0.43987 0.0
H1714 H 0.27375 0.38691 0.43764 0.0
C1715 C 0.24813 0.36062 0.48774 0.0
C1716 C 0.24996 0.37377 0.4929 0.0
C1717 C 0.25726 0.36022 0.4755 0.0
C1718 C 0.27825 0.38008 0.43855 0.0
H1719 H 0.29696 0.34026 0.38697 0.0
H1720 H 0.28787 0.34431 0.41338 0.0
H1721 H 0.28536 0.3842 0.41268 0.0
H1722 H 0.26303 0.39684 0.48978 0.0
H1723 H 0.27897 0.39615 0.4682 0.0
H1724 H 0.2815 0.35737 0.4656 0.0
C1725 C 0.29421 0.35334 0.405 0.0
C1726 C 0.28496 0.37853 0.42424 0.0
C1727 C 0.29935 0.35098 0.38978 0.0
C1728 C 0.26144 0.38657 0.48608 0.0
C1729 C 0.27047 0.38616 0.47367 0.0
C1730 C 0.28243 0.36336 0.45413 0.0
C1731 C 0.29675 0.36703 0.40898 0.0
C1732 C 0.29045 0.36933 0.42463 0.0
C1733 C 0.2683 0.37296 0.46805 0.0
C1734 C 0.27672 0.37235 0.45355 0.0
H1735 H 0.31577 0.38486 0.3735 0.0
H1736 H 0.30725 0.38909 0.40024 0.0
H1737 H 0.29364 0.35497 0.44077 0.0
H1738 H 0.2394 0.3506 0.49289 0.0
H1739 H 0.25527 0.34989 0.47133 0.0
C1740 C 0.6668 0.95303 0.39511 0.0
C1741 C 0.68158 0.95974 0.39075 0.0
C1742 C 0.66124 0.94336 0.40878 0.0
C1743 C 0.67302 0.9332 0.44808 0.0
H1744 H 0.63663 0.89679 0.44341 0.0
C1745 C 0.6437 0.87417 0.481 0.0
C1746 C 0.64676 0.87813 0.49829 0.0
C1747 C 0.64598 0.88433 0.46856 0.0
C1748 C 0.64681 0.90692 0.4449 0.0
H1749 H 0.70205 0.96143 0.39731 0.0
H1750 H 0.69238 0.94462 0.4209 0.0
H1751 H 0.6448 0.91427 0.42019 0.0
H1752 H 0.65378 0.89568 0.51622 0.0
H1753 H 0.65768 0.91342 0.49453 0.0
H1754 H 0.67538 0.92573 0.47242 0.0
C1755 C 0.68511 0.94695 0.41395 0.0
C1756 C 0.65141 0.91698 0.43168 0.0
C1757 C 0.69063 0.95653 0.40032 0.0
C1758 C 0.65156 0.89235 0.50296 0.0
C1759 C 0.6538 0.90251 0.49053 0.0
C1760 C 0.66842 0.92318 0.46127 0.0
C1761 C 0.67038 0.9403 0.41841 0.0
C1762 C 0.66472 0.93012 0.43299 0.0
C1763 C 0.65134 0.89869 0.47314 0.0
C1764 C 0.65539 0.90981 0.45975 0.0
H1765 H 0.65953 0.95527 0.388 0.0
H1766 H 0.64986 0.93845 0.41196 0.0
H1767 H 0.68322 0.94331 0.44959 0.0
H1768 H 0.64016 0.86334 0.47696 0.0
H1769 H 0.64415 0.88105 0.45528 0.0
C1770 C 0.05203 0.70792 0.3958 0.0
C1771 C 0.04446 0.71511 0.39343 0.0
C1772 C 0.06332 0.71288 0.40794 0.0
C1773 C 0.08928 0.74601 0.43116 0.0
H1774 H 0.09382 0.7211 0.46265 0.0
C1775 C 0.12566 0.76887 0.49008 0.0
C1776 C 0.13557 0.76445 0.49344 0.0
C1777 C 0.11452 0.76164 0.47808 0.0
C1778 C 0.09275 0.72815 0.4538 0.0
H1779 H 0.04249 0.73281 0.40242 0.0
H1780 H 0.06188 0.74125 0.42346 0.0
H1781 H 0.07444 0.71063 0.44086 0.0
H1782 H 0.14113 0.74853 0.48743 0.0
H1783 H 0.12145 0.73576 0.46637 0.0
H1784 H 0.10735 0.76351 0.44409 0.0
C1785 C 0.05937 0.73199 0.41576 0.0
C1786 C 0.0817 0.72217 0.44133 0.0
C1787 C 0.04817 0.72709 0.40372 0.0
C1788 C 0.13363 0.75216 0.48513 0.0
C1789 C 0.1224 0.74487 0.47308 0.0
C1790 C 0.10023 0.75195 0.44357 0.0
C1791 C 0.06724 0.72512 0.41785 0.0
C1792 C 0.07967 0.73109 0.43013 0.0
C1793 C 0.11296 0.74978 0.46914 0.0
C1794 C 0.10191 0.74313 0.45526 0.0
H1795 H 0.04941 0.69864 0.38811 0.0
H1796 H 0.06922 0.70737 0.40925 0.0
H1797 H 0.08825 0.75316 0.42244 0.0
H1798 H 0.12664 0.77808 0.49657 0.0
H1799 H 0.10719 0.76546 0.47563 0.0
C1800 C 0.31721 0.04352 0.73248 0.0
C1801 C 0.30396 0.03421 0.72409 0.0
C1802 C 0.31758 0.05122 0.74693 0.0
C1803 C 0.29562 0.06368 0.76868 0.0
H1804 H 0.32364 0.07328 0.80543 0.0
C1805 C 0.29511 0.09266 0.82978 0.0
C1806 C 0.30854 0.1048 0.83452 0.0
C1807 C 0.29442 0.08313 0.8174 0.0
C1808 C 0.31579 0.0707 0.79521 0.0
H1809 H 0.28063 0.02515 0.72476 0.0
H1810 H 0.2812 0.03812 0.75022 0.0
H1811 H 0.32249 0.05803 0.78194 0.0
H1812 H 0.33183 0.1162 0.83007 0.0
H1813 H 0.33059 0.09935 0.80878 0.0
H1814 H 0.28885 0.07623 0.78208 0.0
C1815 C 0.29139 0.03991 0.74537 0.0
C1816 C 0.31516 0.06202 0.78171 0.0
C1817 C 0.29105 0.03237 0.73081 0.0
C1818 C 0.32131 0.10688 0.82697 0.0
C1819 C 0.32062 0.09725 0.81471 0.0
C1820 C 0.29615 0.0722 0.78225 0.0
C1821 C 0.30469 0.04964 0.75345 0.0
C1822 C 0.30511 0.05846 0.7682 0.0
C1823 C 0.30714 0.08542 0.8096 0.0
C1824 C 0.30629 0.07587 0.79561 0.0
H1825 H 0.32736 0.04522 0.72758 0.0
H1826 H 0.32804 0.05873 0.75266 0.0
H1827 H 0.28797 0.06148 0.75836 0.0
H1828 H 0.28509 0.09053 0.83557 0.0
H1829 H 0.2839 0.07398 0.81387 0.0
C1830 C 0.9623 0.27611 0.72381 0.0
C1831 C 0.97042 0.27377 0.71176 0.0
C1832 C 0.95691 0.26741 0.73833 0.0
C1833 C 0.94882 0.23179 0.75422 0.0
H1834 H 0.94254 0.24527 0.79715 0.0
C1835 C 0.92965 0.19683 0.81495 0.0
C1836 C 0.91706 0.1953 0.82237 0.0
C1837 C 0.93723 0.20726 0.80249 0.0
C1838 C 0.94425 0.2414 0.78521 0.0
H1839 H 0.98006 0.26116 0.70592 0.0
H1840 H 0.97139 0.24654 0.73152 0.0
H1841 H 0.9543 0.26217 0.77366 0.0
H1842 H 0.90277 0.20382 0.82247 0.0
H1843 H 0.91637 0.2223 0.80121 0.0
H1844 H 0.93903 0.2111 0.76597 0.0
C1845 C 0.96854 0.25459 0.72952 0.0
C1846 C 0.9509 0.25104 0.7717 0.0
C1847 C 0.97364 0.26306 0.71488 0.0
C1848 C 0.91255 0.20479 0.81735 0.0
C1849 C 0.92029 0.21537 0.8051 0.0
C1850 C 0.94244 0.22226 0.7678 0.0
C1851 C 0.95978 0.25637 0.74124 0.0
C1852 C 0.95319 0.24634 0.75596 0.0
C1853 C 0.93256 0.21655 0.79737 0.0
C1854 C 0.94 0.22694 0.78337 0.0
H1855 H 0.95961 0.28427 0.72167 0.0
H1856 H 0.95009 0.26905 0.74692 0.0
H1857 H 0.95001 0.22762 0.74223 0.0
H1858 H 0.93366 0.18996 0.81871 0.0
H1859 H 0.94676 0.20806 0.79681 0.0
C1860 C 0.72892 0.66747 0.73417 0.0
C1861 C 0.72277 0.67504 0.72727 0.0
C1862 C 0.74101 0.67424 0.74499 0.0
C1863 C 0.76056 0.70376 0.77513 0.0
H1864 H 0.79058 0.69462 0.76955 0.0
C1865 C 0.81011 0.72302 0.82181 0.0
C1866 C 0.8124 0.71199 0.82697 0.0
C1867 C 0.80024 0.72068 0.80857 0.0
C1868 C 0.78229 0.69728 0.77128 0.0
H1869 H 0.72451 0.69573 0.72649 0.0
H1870 H 0.74577 0.70763 0.74572 0.0
H1871 H 0.77144 0.68683 0.74801 0.0
H1872 H 0.80637 0.69002 0.8221 0.0
H1873 H 0.7892 0.68595 0.79924 0.0
H1874 H 0.77129 0.71388 0.79873 0.0
C1875 C 0.74113 0.6964 0.7426 0.0
C1876 C 0.77134 0.69284 0.75895 0.0
C1877 C 0.72901 0.68961 0.73157 0.0
C1878 C 0.80471 0.69866 0.81859 0.0
C1879 C 0.79501 0.69639 0.80534 0.0
C1880 C 0.77158 0.70825 0.78752 0.0
C1881 C 0.74729 0.68877 0.74929 0.0
C1882 C 0.76009 0.6956 0.76101 0.0
C1883 C 0.79269 0.70736 0.80012 0.0
C1884 C 0.78228 0.70463 0.78597 0.0
H1885 H 0.72443 0.65624 0.73119 0.0
H1886 H 0.74533 0.66799 0.75018 0.0
H1887 H 0.752 0.70602 0.77706 0.0
H1888 H 0.81587 0.73338 0.82808 0.0
H1889 H 0.79867 0.72933 0.80479 0.0
C1890 C 0.70495 0.65753 0.63539 0.0
C1891 C 0.69574 0.64581 0.64581 0.0
C1892 C 0.70982 0.65534 0.61983 0.0
C1893 C 0.71503 0.62811 0.59855 0.0
H1894 H 0.72407 0.65277 0.55905 0.0
C1895 C 0.73576 0.61749 0.53636 0.0
C1896 C 0.7485 0.62934 0.52979 0.0
C1897 C 0.72785 0.61936 0.54903 0.0
C1898 C 0.7216 0.64582 0.57002 0.0
H1899 H 0.68355 0.62259 0.6476 0.0
H1900 H 0.69151 0.61875 0.62028 0.0
H1901 H 0.7125 0.65616 0.58382 0.0
H1902 H 0.76264 0.65252 0.53113 0.0
H1903 H 0.74866 0.65576 0.55304 0.0
H1904 H 0.72409 0.61777 0.58477 0.0
C1905 C 0.69549 0.62966 0.62433 0.0
C1906 C 0.71503 0.64779 0.58423 0.0
C1907 C 0.69083 0.63185 0.63996 0.0
C1908 C 0.75279 0.64316 0.53572 0.0
C1909 C 0.7448 0.64504 0.5483 0.0
C1910 C 0.72143 0.62606 0.58432 0.0
C1911 C 0.7054 0.64138 0.61429 0.0
C1912 C 0.71174 0.639 0.59874 0.0
C1913 C 0.73242 0.63313 0.55532 0.0
C1914 C 0.72488 0.63494 0.56995 0.0
H1915 H 0.70894 0.66841 0.63961 0.0
H1916 H 0.71753 0.66463 0.61253 0.0
H1917 H 0.71303 0.62136 0.60961 0.0
H1918 H 0.73197 0.60673 0.53184 0.0
H1919 H 0.71822 0.61001 0.55405 0.0
C1920 C 0.31123 0.03758 0.62143 0.0
C1921 C 0.31989 0.04086 0.63619 0.0
C1922 C 0.31612 0.04688 0.60747 0.0
C1923 C 0.34899 0.07987 0.58995 0.0
H1924 H 0.31954 0.08277 0.56455 0.0
C1925 C 0.35757 0.12836 0.54913 0.0
C1926 C 0.35172 0.12502 0.53252 0.0
C1927 C 0.3553 0.11743 0.56039 0.0
C1928 C 0.32785 0.08195 0.57143 0.0
H1929 H 0.3405 0.05633 0.64794 0.0
H1930 H 0.34872 0.07303 0.62406 0.0
H1931 H 0.3122 0.06506 0.58711 0.0
H1932 H 0.33917 0.10789 0.51441 0.0
H1933 H 0.33474 0.08863 0.53437 0.0
H1934 H 0.36462 0.09759 0.57475 0.0
C1935 C 0.33838 0.06304 0.62286 0.0
C1936 C 0.32368 0.07172 0.58432 0.0
C1937 C 0.33364 0.05351 0.63665 0.0
C1938 C 0.34388 0.11065 0.52714 0.0
C1939 C 0.34132 0.0997 0.53852 0.0
C1940 C 0.35316 0.09035 0.57728 0.0
C1941 C 0.32962 0.05994 0.60811 0.0
C1942 C 0.33417 0.07052 0.59384 0.0
C1943 C 0.34683 0.103 0.5553 0.0
C1944 C 0.34261 0.09146 0.56796 0.0
H1945 H 0.30065 0.02778 0.62066 0.0
H1946 H 0.30921 0.04383 0.59622 0.0
H1947 H 0.35741 0.07916 0.59668 0.0
H1948 H 0.36357 0.1394 0.55351 0.0
H1949 H 0.35953 0.1202 0.57332 0.0
C1950 C 0.94533 0.2833 0.62027 0.0
C1951 C 0.95064 0.2936 0.63341 0.0
C1952 C 0.93489 0.28222 0.60871 0.0
C1953 C 0.9054 0.28922 0.60387 0.0
H1954 H 0.9072 0.27958 0.55669 0.0
C1955 C 0.86872 0.2674 0.53706 0.0
C1956 C 0.85585 0.25624 0.54429 0.0
C1957 C 0.8808 0.27624 0.54744 0.0
C1958 C 0.90659 0.28256 0.56969 0.0
H1959 H 0.94914 0.31091 0.64463 0.0
H1960 H 0.93068 0.30891 0.62434 0.0
H1961 H 0.92803 0.28711 0.57549 0.0
H1962 H 0.84507 0.24649 0.56811 0.0
H1963 H 0.86613 0.26158 0.58611 0.0
H1964 H 0.88382 0.28439 0.5981 0.0
C1965 C 0.93468 0.30169 0.62309 0.0
C1966 C 0.91849 0.2867 0.58054 0.0
C1967 C 0.94526 0.30285 0.63467 0.0
C1968 C 0.85493 0.25485 0.56215 0.0
C1969 C 0.86698 0.26364 0.5725 0.0
C1970 C 0.89347 0.28509 0.59297 0.0
C1971 C 0.92942 0.29137 0.60996 0.0
C1972 C 0.91783 0.28954 0.5979 0.0
C1973 C 0.88025 0.27409 0.56523 0.0
C1974 C 0.89374 0.28122 0.5759 0.0
H1975 H 0.9492 0.27599 0.61889 0.0
H1976 H 0.93086 0.27395 0.59898 0.0
H1977 H 0.90456 0.29136 0.61717 0.0
H1978 H 0.86976 0.26874 0.52333 0.0
H1979 H 0.89078 0.28435 0.54145 0.0
C1980 C 0.34733 0.29767 0.62823 0.0
C1981 C 0.36055 0.30665 0.63686 0.0
C1982 C 0.34699 0.29043 0.61336 0.0
C1983 C 0.36861 0.27772 0.59176 0.0
H1984 H 0.34116 0.26882 0.55454 0.0
C1985 C 0.36793 0.24628 0.53262 0.0
C1986 C 0.35418 0.23468 0.5278 0.0
C1987 C 0.36913 0.25653 0.54426 0.0
C1988 C 0.34886 0.27121 0.56488 0.0
H1989 H 0.38389 0.31578 0.63606 0.0
H1990 H 0.38336 0.30352 0.60994 0.0
H1991 H 0.34259 0.28436 0.57786 0.0
H1992 H 0.33093 0.22512 0.53073 0.0
H1993 H 0.33304 0.24298 0.55116 0.0
H1994 H 0.37482 0.26452 0.57888 0.0
C1995 C 0.37318 0.30168 0.61491 0.0
C1996 C 0.34965 0.28007 0.57826 0.0
C1997 C 0.37349 0.30878 0.62985 0.0
C1998 C 0.34167 0.23386 0.53436 0.0
C1999 C 0.34287 0.24416 0.54592 0.0
C2000 C 0.36788 0.26896 0.57837 0.0
C2001 C 0.3599 0.29212 0.60671 0.0
C2002 C 0.35947 0.28334 0.59194 0.0
C2003 C 0.35662 0.25545 0.55125 0.0
C2004 C 0.35792 0.2655 0.56485 0.0
H2005 H 0.33716 0.29579 0.63334 0.0
H2006 H 0.33655 0.28306 0.60748 0.0
H2007 H 0.37607 0.27972 0.60224 0.0
H2008 H 0.37777 0.24716 0.52788 0.0
H2009 H 0.37988 0.26519 0.548 0.0
C2010 C 0.69964 0.05811 0.63673 0.0
C2011 C 0.70084 0.065 0.65234 0.0
C2012 C 0.70314 0.06576 0.62135 0.0
C2013 C 0.70885 0.09966 0.60268 0.0
H2014 H 0.73342 0.09544 0.57035 0.0
C2015 C 0.74828 0.14458 0.55824 0.0
C2016 C 0.74979 0.14124 0.54139 0.0
C2017 C 0.73937 0.13372 0.56961 0.0
C2018 C 0.72632 0.09654 0.57908 0.0
H2019 H 0.70667 0.08537 0.66398 0.0
H2020 H 0.71296 0.09864 0.63742 0.0
H2021 H 0.7234 0.07906 0.5946 0.0
H2022 H 0.74299 0.12409 0.523 0.0
H2023 H 0.72747 0.10489 0.54314 0.0
H2024 H 0.71236 0.11758 0.58762 0.0
C2025 C 0.70904 0.08728 0.63693 0.0
C2026 C 0.72058 0.08716 0.59297 0.0
C2027 C 0.70556 0.07967 0.65222 0.0
C2028 C 0.74191 0.12688 0.53594 0.0
C2029 C 0.73313 0.11595 0.54744 0.0
C2030 C 0.71466 0.10907 0.5889 0.0
C2031 C 0.70787 0.08045 0.6213 0.0
C2032 C 0.71215 0.08891 0.60522 0.0
C2033 C 0.73191 0.11928 0.56444 0.0
C2034 C 0.72379 0.10786 0.57725 0.0
H2035 H 0.696 0.04681 0.63638 0.0
H2036 H 0.70206 0.06017 0.60951 0.0
H2037 H 0.7021 0.10108 0.61165 0.0
H2038 H 0.75424 0.15559 0.56269 0.0
H2039 H 0.73877 0.1366 0.58268 0.0
C2040 C 0.93542 0.65186 0.62817 0.0
C2041 C 0.94913 0.66385 0.62441 0.0
C2042 C 0.92429 0.64628 0.61581 0.0
C2043 C 0.91437 0.65833 0.57634 0.0
H2044 H 0.88203 0.61896 0.57459 0.0
C2045 C 0.86258 0.64372 0.5389 0.0
C2046 C 0.85526 0.63066 0.52997 0.0
C2047 C 0.87384 0.64667 0.55029 0.0
C2048 C 0.89107 0.62997 0.57475 0.0
H2049 H 0.96243 0.6786 0.60455 0.0
H2050 H 0.94344 0.66839 0.58274 0.0
H2051 H 0.9026 0.62542 0.59369 0.0
H2052 H 0.85379 0.61034 0.52606 0.0
H2053 H 0.8739 0.61566 0.5456 0.0
H2054 H 0.90324 0.66285 0.55705 0.0
C2055 C 0.9409 0.66369 0.59538 0.0
C2056 C 0.9028 0.63372 0.58589 0.0
C2057 C 0.95186 0.66947 0.60781 0.0
C2058 C 0.85927 0.62048 0.53284 0.0
C2059 C 0.87073 0.62352 0.54409 0.0
C2060 C 0.9028 0.65456 0.56511 0.0
C2061 C 0.92678 0.65242 0.59938 0.0
C2062 C 0.91457 0.648 0.58693 0.0
C2063 C 0.87827 0.63673 0.55284 0.0
C2064 C 0.89087 0.64039 0.56432 0.0
H2065 H 0.93305 0.6474 0.64093 0.0
H2066 H 0.91356 0.63765 0.61944 0.0
H2067 H 0.92302 0.6695 0.57693 0.0
H2068 H 0.8595 0.65164 0.53716 0.0
H2069 H 0.87905 0.65677 0.55714 0.0
C2070 C 0.96124 0.70473 0.70893 0.0
C2071 C 0.96476 0.69405 0.70793 0.0
C2072 C 0.9565 0.70736 0.72423 0.0
C2073 C 0.94037 0.69079 0.7658 0.0
H2074 H 0.95135 0.72971 0.77736 0.0
C2075 C 0.92224 0.70504 0.82825 0.0
C2076 C 0.91601 0.71351 0.82596 0.0
C2077 C 0.92966 0.70318 0.81492 0.0
C2078 C 0.94818 0.71879 0.77427 0.0
H2079 H 0.96619 0.67782 0.72235 0.0
H2080 H 0.95815 0.68261 0.74922 0.0
H2081 H 0.96164 0.72536 0.75216 0.0
H2082 H 0.91287 0.72674 0.80777 0.0
H2083 H 0.9261 0.72377 0.78477 0.0
H2084 H 0.92689 0.68428 0.78799 0.0
C2085 C 0.95883 0.68879 0.73805 0.0
C2086 C 0.95402 0.71627 0.7598 0.0
C2087 C 0.96349 0.68608 0.72266 0.0
C2088 C 0.91775 0.72038 0.81016 0.0
C2089 C 0.92529 0.71864 0.79692 0.0
C2090 C 0.93462 0.69333 0.78037 0.0
C2091 C 0.95526 0.69946 0.73901 0.0
C2092 C 0.94997 0.70221 0.75519 0.0
C2093 C 0.93116 0.70988 0.79909 0.0
C2094 C 0.93828 0.70733 0.78457 0.0
H2095 H 0.96199 0.71101 0.69781 0.0
H2096 H 0.95356 0.71545 0.72438 0.0
H2097 H 0.93687 0.67982 0.76255 0.0
H2098 H 0.92133 0.69978 0.84032 0.0
H2099 H 0.93422 0.6965 0.81699 0.0
C2100 C 0.35234 0.29209 0.7349 0.0
C2101 C 0.3426 0.29369 0.72446 0.0
C2102 C 0.34736 0.28279 0.7488 0.0
C2103 C 0.31561 0.25068 0.76589 0.0
H2104 H 0.33874 0.26288 0.80759 0.0
C2105 C 0.30321 0.21356 0.82508 0.0
C2106 C 0.31544 0.21367 0.83181 0.0
C2107 C 0.30488 0.22369 0.81284 0.0
C2108 C 0.33217 0.25931 0.79603 0.0
H2109 H 0.31987 0.28666 0.72044 0.0
H2110 H 0.3111 0.27021 0.7449 0.0
H2111 H 0.34445 0.28005 0.78459 0.0
H2112 H 0.33896 0.2243 0.83048 0.0
H2113 H 0.34184 0.24198 0.80951 0.0
H2114 H 0.30356 0.22979 0.77728 0.0
C2115 C 0.32263 0.27624 0.74219 0.0
C2116 C 0.33543 0.26914 0.78287 0.0
C2117 C 0.32766 0.28568 0.72825 0.0
C2118 C 0.32933 0.2241 0.82597 0.0
C2119 C 0.33099 0.23424 0.81389 0.0
C2120 C 0.31231 0.24081 0.77913 0.0
C2121 C 0.33248 0.27479 0.75267 0.0
C2122 C 0.32749 0.26484 0.76745 0.0
C2123 C 0.31881 0.23418 0.8072 0.0
C2124 C 0.32086 0.24494 0.79412 0.0
H2125 H 0.36391 0.29804 0.73238 0.0
H2126 H 0.35519 0.28173 0.75641 0.0
H2127 H 0.30933 0.24705 0.75413 0.0
H2128 H 0.29237 0.20575 0.82939 0.0
H2129 H 0.29531 0.22343 0.80795 0.0
C2130 C 0.72202 0.04684 0.7462 0.0
C2131 C 0.72135 0.04302 0.72896 0.0
C2132 C 0.73313 0.04823 0.75685 0.0
C2133 C 0.77064 0.0604 0.75658 0.0
H2134 H 0.76409 0.04364 0.8018 0.0
C2135 C 0.81736 0.08221 0.80605 0.0
C2136 C 0.81374 0.08392 0.82273 0.0
C2137 C 0.80648 0.07395 0.79401 0.0
C2138 C 0.76614 0.0485 0.78927 0.0
H2139 H 0.73155 0.03735 0.70936 0.0
H2140 H 0.75154 0.04042 0.728 0.0
H2141 H 0.74382 0.03492 0.78158 0.0
H2142 H 0.79574 0.07744 0.84005 0.0
H2143 H 0.77688 0.06382 0.81899 0.0
H2144 H 0.79262 0.07478 0.76452 0.0
C2145 C 0.74322 0.04203 0.73323 0.0
C2146 C 0.75455 0.04338 0.77765 0.0
C2147 C 0.73182 0.04026 0.72263 0.0
C2148 C 0.79897 0.07665 0.82724 0.0
C2149 C 0.7881 0.06858 0.81517 0.0
C2150 C 0.7822 0.06572 0.7683 0.0
C2151 C 0.74398 0.04613 0.7504 0.0
C2152 C 0.75663 0.04954 0.76138 0.0
C2153 C 0.79168 0.06732 0.79828 0.0
C2154 C 0.78001 0.06014 0.78499 0.0
H2155 H 0.71404 0.04896 0.7514 0.0
H2156 H 0.73357 0.05154 0.76999 0.0
H2157 H 0.77246 0.06541 0.74415 0.0
H2158 H 0.8286 0.08769 0.80204 0.0
H2159 H 0.80969 0.07304 0.78124 0.0
C2160 C 0.03618 0.34041 0.01384 0.0
C2161 C 0.02917 0.34681 0.02149 0.0
C2162 C 0.0451 0.33722 0.02357 0.0
C2163 C 0.05026 0.32914 0.06761 0.0
H2164 H 0.08742 0.33626 0.05168 0.0
C2165 C 0.08789 0.31934 0.11075 0.0
C2166 C 0.09554 0.31358 0.10319 0.0
C2167 C 0.08023 0.32384 0.10067 0.0
C2168 C 0.07698 0.33403 0.05623 0.0
H2169 H 0.02643 0.35527 0.04527 0.0
H2170 H 0.04194 0.34967 0.06217 0.0
H2171 H 0.07353 0.34356 0.03411 0.0
H2172 H 0.10122 0.30822 0.07899 0.0
H2173 H 0.08744 0.31556 0.06148 0.0
H2174 H 0.05346 0.31936 0.08952 0.0
C2175 C 0.04043 0.34702 0.04869 0.0
C2176 C 0.06906 0.33826 0.04618 0.0
C2177 C 0.03162 0.3503 0.03897 0.0
C2178 C 0.0953 0.31242 0.08528 0.0
C2179 C 0.08756 0.31683 0.0752 0.0
C2180 C 0.0581 0.32482 0.07759 0.0
C2181 C 0.0471 0.34025 0.04116 0.0
C2182 C 0.05563 0.3359 0.05179 0.0
C2183 C 0.07993 0.32261 0.08276 0.0
C2184 C 0.07159 0.32723 0.07206 0.0
H2185 H 0.03454 0.33759 0.00041 0.0
H2186 H 0.05003 0.33194 0.01743 0.0
H2187 H 0.03982 0.32695 0.07214 0.0
H2188 H 0.08769 0.32026 0.1245 0.0
H2189 H 0.07465 0.32841 0.10694 0.0
C2190 C 0.65543 0.68469 0.04073 0.0
C2191 C 0.65724 0.68521 0.02292 0.0
C2192 C 0.65812 0.69686 0.04976 0.0
C2193 C 0.66101 0.73181 0.04488 0.0
H2194 H 0.68288 0.74098 0.08739 0.0
C2195 C 0.68077 0.78507 0.08095 0.0
C2196 C 0.67988 0.78447 0.09888 0.0
C2197 C 0.67818 0.7731 0.07151 0.0
C2198 C 0.6766 0.73849 0.07566 0.0
H2199 H 0.66309 0.69891 0.00062 0.0
H2200 H 0.66776 0.72018 0.01642 0.0
H2201 H 0.67774 0.71978 0.07125 0.0
H2202 H 0.67575 0.77081 0.12092 0.0
H2203 H 0.67084 0.74985 0.10446 0.0
H2204 H 0.65973 0.75043 0.04935 0.0
C2205 C 0.6642 0.71031 0.02336 0.0
C2206 C 0.67368 0.72634 0.0664 0.0
C2207 C 0.66158 0.69814 0.01432 0.0
C2208 C 0.67637 0.77161 0.10712 0.0
C2209 C 0.67374 0.75963 0.09768 0.0
C2210 C 0.66387 0.74393 0.05418 0.0
C2211 C 0.66262 0.70983 0.0412 0.0
C2212 C 0.66582 0.72284 0.05092 0.0
C2213 C 0.67459 0.76022 0.07975 0.0
C2214 C 0.67168 0.74741 0.06972 0.0
H2215 H 0.65207 0.6749 0.04777 0.0
H2216 H 0.65661 0.69609 0.06347 0.0
H2217 H 0.65478 0.7293 0.0331 0.0
H2218 H 0.68328 0.79474 0.07416 0.0
H2219 H 0.67909 0.77399 0.05774 0.0
C2220 C 0.29711 0.94965 0.04944 0.0
C2221 C 0.30427 0.96332 0.0419 0.0
C2222 C 0.28438 0.94485 0.05867 0.0
C2223 C 0.25331 0.94897 0.0652 0.0
H2224 H 0.25237 0.93284 0.10973 0.0
C2225 C 0.20407 0.92756 0.11128 0.0
C2226 C 0.20024 0.91472 0.11979 0.0
C2227 C 0.21695 0.93483 0.10187 0.0
C2228 C 0.25239 0.93719 0.09727 0.0
H2229 H 0.30334 0.98247 0.03761 0.0
H2230 H 0.28085 0.97391 0.05367 0.0
H2231 H 0.27425 0.94279 0.09258 0.0
H2232 H 0.20653 0.8991 0.12446 0.0
H2233 H 0.22874 0.91157 0.10805 0.0
H2234 H 0.23122 0.94294 0.06971 0.0
C2235 C 0.28524 0.967 0.05244 0.0
C2236 C 0.26494 0.94292 0.08748 0.0
C2237 C 0.29811 0.9719 0.04332 0.0
C2238 C 0.20937 0.90917 0.11844 0.0
C2239 C 0.22213 0.91634 0.10902 0.0
C2240 C 0.24064 0.94309 0.07496 0.0
C2241 C 0.27844 0.95354 0.06048 0.0
C2242 C 0.26544 0.9486 0.07123 0.0
C2243 C 0.22617 0.92932 0.10075 0.0
C2244 C 0.23995 0.93686 0.09097 0.0
H2245 H 0.3015 0.94273 0.04857 0.0
H2246 H 0.27923 0.93433 0.06453 0.0
H2247 H 0.25344 0.95328 0.05268 0.0
H2248 H 0.19723 0.93209 0.11212 0.0
H2249 H 0.21979 0.94484 0.0957 0.0
C2250 C 0.3409 0.03436 0.00411 0.0
C2251 C 0.35379 0.03481 0.99985 0.0
C2252 C 0.33795 0.04447 0.99746 0.0
C2253 C 0.35464 0.08012 0.9773 0.0
H2254 H 0.31627 0.06508 0.95731 0.0
C2255 C 0.34118 0.11444 0.93372 0.0
C2256 C 0.3273 0.1126 0.93484 0.0
C2257 C 0.34445 0.10528 0.94247 0.0
C2258 C 0.32696 0.06952 0.96306 0.0
H2259 H 0.37395 0.04662 0.98579 0.0
H2260 H 0.36882 0.06435 0.97427 0.0
H2261 H 0.32211 0.04888 0.97169 0.0
H2262 H 0.306 0.09985 0.94623 0.0
H2263 H 0.31174 0.08397 0.96177 0.0
H2264 H 0.35949 0.10078 0.96876 0.0
C2265 C 0.36101 0.05614 0.98276 0.0
C2266 C 0.33031 0.06022 0.97128 0.0
C2267 C 0.36392 0.04595 0.98932 0.0
C2268 C 0.31675 0.10142 0.94496 0.0
C2269 C 0.32004 0.09231 0.95383 0.0
C2270 C 0.35126 0.08946 0.96918 0.0
C2271 C 0.34786 0.05534 0.9865 0.0
C2272 C 0.34421 0.06539 0.9784 0.0
C2273 C 0.33393 0.09411 0.95267 0.0
C2274 C 0.3374 0.08426 0.96184 0.0
H2275 H 0.33286 0.02595 0.01222 0.0
H2276 H 0.32782 0.0437 0.00076 0.0
H2277 H 0.36539 0.08445 0.98283 0.0
H2278 H 0.34947 0.12283 0.92581 0.0
H2279 H 0.35516 0.10683 0.94098 0.0
C2280 C 0.97233 0.30532 0.98891 0.0
C2281 C 0.96354 0.31134 0.98876 0.0
C2282 C 0.96737 0.29189 0.9814 0.0
C2283 C 0.94242 0.26897 0.94768 0.0
H2284 H 0.9444 0.23783 0.96871 0.0
C2285 C 0.90834 0.21163 0.92262 0.0
C2286 C 0.9143 0.20286 0.92232 0.0
C2287 C 0.9158 0.22506 0.93043 0.0
C2288 C 0.944 0.24651 0.96256 0.0
H2289 H 0.94235 0.30763 0.98137 0.0
H2290 H 0.93381 0.28437 0.96834 0.0
H2291 H 0.95459 0.26081 0.98376 0.0
H2292 H 0.9329 0.2014 0.92985 0.0
H2293 H 0.94614 0.22515 0.94343 0.0
H2294 H 0.93186 0.25486 0.92655 0.0
C2295 C 0.94459 0.29009 0.97404 0.0
C2296 C 0.94978 0.25963 0.9712 0.0
C2297 C 0.94948 0.30339 0.98161 0.0
C2298 C 0.92806 0.20795 0.92983 0.0
C2299 C 0.93557 0.22147 0.93773 0.0
C2300 C 0.93675 0.25597 0.93904 0.0
C2301 C 0.9536 0.28435 0.9735 0.0
C2302 C 0.9487 0.27084 0.96399 0.0
C2303 C 0.92949 0.23016 0.93809 0.0
C2304 C 0.93712 0.24445 0.94654 0.0
H2305 H 0.98321 0.31115 0.99434 0.0
H2306 H 0.97452 0.28769 0.98117 0.0
H2307 H 0.94175 0.27755 0.94165 0.0
H2308 H 0.89786 0.20813 0.91672 0.0
H2309 H 0.91069 0.23137 0.93068 0.0
C2310 C 0.6986 0.64724 0.98244 0.0
C2311 C 0.6917 0.65426 0.98854 0.0
C2312 C 0.71317 0.65503 0.97776 0.0
C2313 C 0.74196 0.6898 0.96243 0.0
H2314 H 0.76601 0.67414 0.9742 0.0
C2315 C 0.8013 0.71253 0.93798 0.0
C2316 C 0.80345 0.70188 0.93111 0.0
C2317 C 0.78854 0.7087 0.94687 0.0
C2318 C 0.75945 0.67867 0.97086 0.0
H2319 H 0.69471 0.67505 0.99443 0.0
H2320 H 0.72039 0.68877 0.986 0.0
H2321 H 0.74209 0.664 0.98698 0.0
H2322 H 0.79353 0.67892 0.92752 0.0
H2323 H 0.77161 0.67233 0.94325 0.0
H2324 H 0.75931 0.70422 0.94588 0.0
C2325 C 0.71439 0.67718 0.98495 0.0
C2326 C 0.74577 0.67287 0.97816 0.0
C2327 C 0.69974 0.66933 0.98981 0.0
C2328 C 0.79247 0.68739 0.93306 0.0
C2329 C 0.77987 0.6836 0.94204 0.0
C2330 C 0.75575 0.69566 0.95513 0.0
C2331 C 0.72125 0.67005 0.97898 0.0
C2332 C 0.73666 0.67801 0.97355 0.0
C2333 C 0.77781 0.69418 0.94917 0.0
C2334 C 0.76437 0.68978 0.95884 0.0
H2335 H 0.69277 0.63566 0.98127 0.0
H2336 H 0.71805 0.64924 0.9729 0.0
H2337 H 0.73516 0.69394 0.95863 0.0
H2338 H 0.80957 0.72379 0.93679 0.0
H2339 H 0.78719 0.71706 0.95225 0.0
C2340 C 0.96932 0.64653 0.97889 0.0
C2341 C 0.98105 0.65574 0.98965 0.0
C2342 C 0.96008 0.65082 0.97222 0.0
C2343 C 0.96006 0.68344 0.96112 0.0
H2344 H 0.91816 0.65817 0.95822 0.0
C2345 C 0.92294 0.70336 0.93657 0.0
C2346 C 0.9109 0.69393 0.92637 0.0
C2347 C 0.93119 0.69858 0.94489 0.0
C2348 C 0.92987 0.66531 0.95873 0.0
H2349 H 0.9919 0.67648 0.00236 0.0
H2350 H 0.97579 0.6839 0.99073 0.0
H2351 H 0.93282 0.64977 0.97194 0.0
H2352 H 0.89825 0.6722 0.91657 0.0
H2353 H 0.91276 0.66392 0.93079 0.0
H2354 H 0.95724 0.69888 0.94764 0.0
C2355 C 0.97385 0.67344 0.98731 0.0
C2356 C 0.93824 0.6605 0.96665 0.0
C2357 C 0.98302 0.66913 0.99405 0.0
C2358 C 0.90735 0.67966 0.92455 0.0
C2359 C 0.91565 0.67491 0.93276 0.0
C2360 C 0.95172 0.68821 0.9531 0.0
C2361 C 0.96243 0.66444 0.9761 0.0
C2362 C 0.95343 0.66952 0.96794 0.0
C2363 C 0.92765 0.68429 0.94308 0.0
C2364 C 0.93651 0.67922 0.95179 0.0
H2365 H 0.96749 0.63615 0.97525 0.0
H2366 H 0.9514 0.64368 0.96355 0.0
H2367 H 0.97177 0.69056 0.96167 0.0
H2368 H 0.92583 0.71437 0.93838 0.0
H2369 H 0.94021 0.70606 0.95295 0.0
C2370 C 0.34069 0.32073 0.98711 0.0
C2371 C 0.34291 0.32186 0.00489 0.0
C2372 C 0.3378 0.30833 0.97843 0.0
C2373 C 0.32536 0.26997 0.98548 0.0
H2374 H 0.34208 0.27319 0.94083 0.0
C2375 C 0.32466 0.22253 0.95183 0.0
C2376 C 0.32121 0.22069 0.93431 0.0
C2377 C 0.32687 0.23473 0.96043 0.0
C2378 C 0.33721 0.27211 0.95322 0.0
H2379 H 0.344 0.3109 0.02749 0.0
H2380 H 0.33932 0.28945 0.01233 0.0
H2381 H 0.34699 0.29481 0.95585 0.0
H2382 H 0.31744 0.23021 0.91204 0.0
H2383 H 0.32129 0.2515 0.92707 0.0
H2384 H 0.31578 0.24725 0.9829 0.0
C2385 C 0.33948 0.298 0.0051 0.0
C2386 C 0.34 0.2845 0.96183 0.0
C2387 C 0.34227 0.31035 0.01379 0.0
C2388 C 0.31996 0.23128 0.92558 0.0
C2389 C 0.3223 0.24352 0.93414 0.0
C2390 C 0.32266 0.25759 0.97691 0.0
C2391 C 0.33716 0.2968 0.98731 0.0
C2392 C 0.33412 0.28359 0.97808 0.0
C2393 C 0.32582 0.2454 0.95165 0.0
C2394 C 0.32856 0.25853 0.96069 0.0
H2395 H 0.34103 0.32937 0.97988 0.0
H2396 H 0.33587 0.30772 0.96477 0.0
H2397 H 0.32042 0.26882 0.99783 0.0
H2398 H 0.32558 0.21451 0.95892 0.0
H2399 H 0.32968 0.23592 0.9739 0.0
C2400 C 0.70288 0.02446 0.98867 0.0
C2401 C 0.69847 0.03434 0.99152 0.0
C2402 C 0.71689 0.02915 0.98266 0.0
C2403 C 0.75337 0.06213 0.97789 0.0
H2404 H 0.75725 0.043 0.93845 0.0
C2405 C 0.79637 0.09173 0.92749 0.0
C2406 C 0.80597 0.08698 0.92401 0.0
C2407 C 0.784 0.08344 0.93726 0.0
C2408 C 0.75635 0.04827 0.94965 0.0
H2409 H 0.70543 0.05691 0.99065 0.0
H2410 H 0.72955 0.06497 0.98014 0.0
H2411 H 0.73408 0.03181 0.95375 0.0
H2412 H 0.8096 0.06935 0.92745 0.0
H2413 H 0.78744 0.05453 0.94417 0.0
H2414 H 0.77529 0.07898 0.97314 0.0
C2415 C 0.72235 0.05364 0.98271 0.0
C2416 C 0.74314 0.04189 0.95843 0.0
C2417 C 0.70843 0.04898 0.98861 0.0
C2418 C 0.80244 0.07332 0.92986 0.0
C2419 C 0.78984 0.06487 0.93948 0.0
C2420 C 0.76645 0.06854 0.96904 0.0
C2421 C 0.72675 0.04381 0.97956 0.0
C2422 C 0.74136 0.04903 0.97226 0.0
C2423 C 0.78073 0.07006 0.94354 0.0
C2424 C 0.76789 0.06189 0.95454 0.0
H2425 H 0.69545 0.0131 0.99079 0.0
H2426 H 0.71999 0.02133 0.9804 0.0
H2427 H 0.75246 0.06774 0.98873 0.0
H2428 H 0.79844 0.10194 0.92275 0.0
H2429 H 0.77695 0.08751 0.93995 0.0
C2430 C 0.66144 0.96046 0.00645 0.0
C2431 C 0.65568 0.96758 0.01522 0.0
C2432 C 0.66287 0.94983 0.01459 0.0
C2433 C 0.65124 0.92631 0.05312 0.0
H2434 H 0.6871 0.92687 0.04588 0.0
C2435 C 0.6722 0.90004 0.09967 0.0
C2436 C 0.6773 0.89165 0.09261 0.0
C2437 C 0.66889 0.90835 0.08921 0.0
C2438 C 0.67697 0.92648 0.04788 0.0
H2439 H 0.64653 0.96881 0.03927 0.0
H2440 H 0.64931 0.95061 0.05351 0.0
H2441 H 0.68208 0.94274 0.0292 0.0
H2442 H 0.68289 0.88551 0.06888 0.0
H2443 H 0.67745 0.90036 0.05069 0.0
H2444 H 0.64641 0.91038 0.07223 0.0
C2445 C 0.6525 0.95299 0.04026 0.0
C2446 C 0.67404 0.93553 0.03828 0.0
C2447 C 0.65097 0.96352 0.03211 0.0
C2448 C 0.67921 0.89198 0.07481 0.0
C2449 C 0.67603 0.90043 0.06436 0.0
C2450 C 0.65424 0.91738 0.06283 0.0
C2451 C 0.65864 0.94613 0.03171 0.0
C2452 C 0.66122 0.93569 0.04093 0.0
C2453 C 0.67073 0.90861 0.07145 0.0
C2454 C 0.66721 0.9175 0.06045 0.0
H2455 H 0.6651 0.96328 0.9934 0.0
H2456 H 0.66742 0.9446 0.00751 0.0
H2457 H 0.64112 0.92591 0.05527 0.0
H2458 H 0.6709 0.90032 0.11333 0.0
H2459 H 0.66507 0.91475 0.09506 0.0
C2460 C 0.07069 0.71199 0.02593 0.0
C2461 C 0.0556 0.7035 0.023 0.0
C2462 C 0.07684 0.72567 0.03306 0.0
C2463 C 0.07032 0.75491 0.04355 0.0
H2464 H 0.09704 0.76168 0.08094 0.0
C2465 C 0.08833 0.80025 0.09393 0.0
C2466 C 0.10268 0.80689 0.10016 0.0
C2467 C 0.08292 0.78859 0.08268 0.0
C2468 C 0.0898 0.76011 0.07037 0.0
H2469 H 0.03526 0.70307 0.02435 0.0
H2470 H 0.04603 0.72694 0.03697 0.0
H2471 H 0.08721 0.73989 0.06412 0.0
H2472 H 0.12292 0.80719 0.0987 0.0
H2473 H 0.11362 0.78707 0.07894 0.0
H2474 H 0.07286 0.77516 0.05003 0.0
C2475 C 0.0531 0.72302 0.03366 0.0
C2476 C 0.08415 0.74759 0.0607 0.0
C2477 C 0.04692 0.70932 0.02648 0.0
C2478 C 0.11171 0.80207 0.09437 0.0
C2479 C 0.10637 0.79053 0.08308 0.0
C2480 C 0.07603 0.76751 0.05323 0.0
C2481 C 0.06806 0.73117 0.03746 0.0
C2482 C 0.07436 0.74483 0.04718 0.0
C2483 C 0.09182 0.78343 0.07739 0.0
C2484 C 0.08585 0.77025 0.06675 0.0
H2485 H 0.07772 0.70791 0.02322 0.0
H2486 H 0.08846 0.73181 0.03551 0.0
H2487 H 0.06285 0.75311 0.03315 0.0
H2488 H 0.08113 0.80373 0.09824 0.0
H2489 H 0.07164 0.7833 0.07864 0.0
C2490 C 0.30097 0.33942 0.03988 0.0
C2491 C 0.30966 0.3544 0.04195 0.0
C2492 C 0.28688 0.33179 0.04658 0.0
C2493 C 0.25461 0.32001 0.05576 0.0
H2494 H 0.25162 0.3315 0.10163 0.0
C2495 C 0.20021 0.30481 0.08843 0.0
C2496 C 0.19929 0.30255 0.10618 0.0
C2497 C 0.21316 0.30892 0.07986 0.0
C2498 C 0.25226 0.328 0.08891 0.0
H2499 H 0.31007 0.37315 0.05188 0.0
H2500 H 0.28566 0.35991 0.06339 0.0
H2501 H 0.27511 0.34315 0.08772 0.0
H2502 H 0.21073 0.30168 0.12862 0.0
H2503 H 0.23325 0.30872 0.1137 0.0
H2504 H 0.23162 0.30486 0.05704 0.0
C2505 C 0.28978 0.35402 0.0569 0.0
C2506 C 0.26571 0.33482 0.08085 0.0
C2507 C 0.30377 0.36161 0.05021 0.0
C2508 C 0.21124 0.30364 0.115 0.0
C2509 C 0.22412 0.30768 0.10645 0.0
C2510 C 0.24106 0.3132 0.06383 0.0
C2511 C 0.2813 0.33901 0.05551 0.0
C2512 C 0.26702 0.33105 0.06413 0.0
C2513 C 0.22538 0.31079 0.08889 0.0
C2514 C 0.23975 0.31721 0.08046 0.0
H2515 H 0.30518 0.33355 0.03355 0.0
H2516 H 0.28057 0.32021 0.04534 0.0
H2517 H 0.25532 0.31691 0.04284 0.0
H2518 H 0.19118 0.3041 0.08132 0.0
H2519 H 0.21381 0.31133 0.06635 0.0
C2520 C 0.688 0.6672 0.34751 0.0
C2521 C 0.68013 0.67172 0.35709 0.0
C2522 C 0.69665 0.66282 0.3557 0.0
C2523 C 0.69981 0.64763 0.39605 0.0
H2524 H 0.73928 0.66103 0.38196 0.0
C2525 C 0.73801 0.63616 0.43575 0.0
C2526 C 0.74808 0.63402 0.42708 0.0
C2527 C 0.72953 0.64035 0.42685 0.0
C2528 C 0.72819 0.65697 0.3859 0.0
H2529 H 0.67541 0.67545 0.38279 0.0
H2530 H 0.69039 0.66771 0.39701 0.0
H2531 H 0.72517 0.66943 0.36695 0.0
H2532 H 0.75681 0.63406 0.40225 0.0
H2533 H 0.74171 0.64096 0.38659 0.0
H2534 H 0.70262 0.63497 0.41476 0.0
C2535 C 0.68982 0.66751 0.38318 0.0
C2536 C 0.72015 0.66186 0.37732 0.0
C2537 C 0.68133 0.67203 0.37501 0.0
C2538 C 0.74924 0.6358 0.40927 0.0
C2539 C 0.74064 0.63983 0.40033 0.0
C2540 C 0.70778 0.64262 0.40449 0.0
C2541 C 0.69745 0.66272 0.37363 0.0
C2542 C 0.70592 0.65733 0.38241 0.0
C2543 C 0.7308 0.64234 0.40902 0.0
C2544 C 0.72212 0.6473 0.39963 0.0
H2545 H 0.68733 0.66684 0.33369 0.0
H2546 H 0.70239 0.65913 0.34803 0.0
H2547 H 0.68878 0.64379 0.40006 0.0
H2548 H 0.73704 0.63505 0.44951 0.0
H2549 H 0.72226 0.6424 0.43404 0.0
C2550 C 0.32453 0.0184 0.37938 0.0
C2551 C 0.32434 0.01771 0.36145 0.0
C2552 C 0.32753 0.03097 0.3877 0.0
C2553 C 0.3271 0.06419 0.38107 0.0
H2554 H 0.35095 0.07676 0.42219 0.0
C2555 C 0.34405 0.11784 0.41466 0.0
C2556 C 0.34326 0.11757 0.43258 0.0
C2557 C 0.34236 0.10603 0.40565 0.0
C2558 C 0.34416 0.07332 0.41081 0.0
H2559 H 0.32731 0.02975 0.33818 0.0
H2560 H 0.33267 0.05174 0.35272 0.0
H2561 H 0.34699 0.05553 0.40701 0.0
H2562 H 0.34036 0.10476 0.45511 0.0
H2563 H 0.33717 0.08407 0.4394 0.0
H2564 H 0.3242 0.08193 0.38493 0.0
C2565 C 0.33032 0.04249 0.36035 0.0
C2566 C 0.34189 0.06116 0.40211 0.0
C2567 C 0.32733 0.02991 0.35202 0.0
C2568 C 0.34086 0.10525 0.4413 0.0
C2569 C 0.3392 0.09346 0.4323 0.0
C2570 C 0.32938 0.07636 0.38977 0.0
C2571 C 0.33041 0.04315 0.37829 0.0
C2572 C 0.33326 0.05639 0.3872 0.0
C2573 C 0.33989 0.09369 0.41436 0.0
C2574 C 0.33786 0.08101 0.40481 0.0
H2575 H 0.32225 0.00919 0.38705 0.0
H2576 H 0.32732 0.03104 0.40153 0.0
H2577 H 0.32022 0.0607 0.36976 0.0
H2578 H 0.34576 0.12712 0.40755 0.0
H2579 H 0.34309 0.1066 0.39185 0.0
C2580 C 0.9634 0.28855 0.37326 0.0
C2581 C 0.97376 0.30304 0.3764 0.0
C2582 C 0.94908 0.28263 0.37866 0.0
C2583 C 0.92311 0.29183 0.39796 0.0
H2584 H 0.90454 0.25246 0.41368 0.0
C2585 C 0.87567 0.2628 0.44684 0.0
C2586 C 0.86371 0.24977 0.44101 0.0
C2587 C 0.88816 0.27025 0.43686 0.0
C2588 C 0.90957 0.26342 0.40919 0.0
H2589 H 0.97734 0.32284 0.38724 0.0
H2590 H 0.95258 0.31237 0.39767 0.0
H2591 H 0.92823 0.26353 0.40033 0.0
H2592 H 0.85521 0.23442 0.4202 0.0
H2593 H 0.87729 0.24725 0.40298 0.0
H2594 H 0.90458 0.29174 0.40808 0.0
C2595 C 0.95524 0.30561 0.39048 0.0
C2596 C 0.92312 0.26978 0.40138 0.0
C2597 C 0.96949 0.31164 0.38459 0.0
C2598 C 0.86426 0.24451 0.42488 0.0
C2599 C 0.87685 0.25179 0.41508 0.0
C2600 C 0.90966 0.28552 0.40618 0.0
C2601 C 0.94489 0.29093 0.38788 0.0
C2602 C 0.93012 0.28409 0.39561 0.0
C2603 C 0.88895 0.2646 0.42111 0.0
C2604 C 0.90282 0.27127 0.41181 0.0
H2605 H 0.96641 0.28175 0.36674 0.0
H2606 H 0.94138 0.27144 0.37584 0.0
H2607 H 0.92797 0.30276 0.39348 0.0
H2608 H 0.87546 0.26703 0.45926 0.0
H2609 H 0.89743 0.28006 0.44179 0.0
C2610 C 0.01463 0.37173 0.33243 0.0
C2611 C 0.02809 0.37254 0.33277 0.0
C2612 C 0.0131 0.38214 0.32396 0.0
C2613 C 0.02991 0.40982 0.29037 0.0
H2614 H 0.00505 0.42231 0.3089 0.0
C2615 C 0.02428 0.45497 0.25957 0.0
C2616 C 0.01007 0.45239 0.25812 0.0
C2617 C 0.02703 0.44578 0.26911 0.0
C2618 C 0.01194 0.41884 0.30351 0.0
H2619 H 0.05057 0.38509 0.32469 0.0
H2620 H 0.04795 0.40342 0.31011 0.0
H2621 H 0.0091 0.40556 0.32505 0.0
H2622 H 0.98761 0.43796 0.26542 0.0
H2623 H 0.99245 0.42204 0.28219 0.0
H2624 H 0.03274 0.42314 0.26882 0.0
C2625 C 0.03851 0.39458 0.31617 0.0
C2626 C 0.01426 0.40924 0.31275 0.0
C2627 C 0.04004 0.38412 0.32462 0.0
C2628 C 0.99871 0.44042 0.2665 0.0
C2629 C 0.00148 0.43127 0.27609 0.0
C2630 C 0.02765 0.41949 0.28116 0.0
C2631 C 0.025 0.39367 0.31566 0.0
C2632 C 0.02316 0.40448 0.30622 0.0
C2633 C 0.01566 0.43384 0.27749 0.0
C2634 C 0.01852 0.424 0.28755 0.0
H2635 H 0.00517 0.36292 0.33851 0.0
H2636 H 0.00247 0.38096 0.32361 0.0
H2637 H 0.03666 0.40624 0.28484 0.0
H2638 H 0.03333 0.46422 0.25353 0.0
H2639 H 0.0381 0.44814 0.27012 0.0
C2640 C 0.62055 0.63213 0.32984 0.0
C2641 C 0.61223 0.63859 0.33149 0.0
C2642 C 0.61436 0.61836 0.32282 0.0
C2643 C 0.58499 0.59451 0.29329 0.0
H2644 H 0.59252 0.56526 0.30898 0.0
C2645 C 0.55544 0.53858 0.26301 0.0
C2646 C 0.56369 0.53234 0.25943 0.0
C2647 C 0.56118 0.55083 0.27321 0.0
C2648 C 0.59044 0.57338 0.30437 0.0
H2649 H 0.59066 0.63527 0.32807 0.0
H2650 H 0.57991 0.6113 0.31606 0.0
H2651 H 0.60283 0.58789 0.32475 0.0
H2652 H 0.58427 0.53379 0.26409 0.0
H2653 H 0.59444 0.5554 0.2818 0.0
H2654 H 0.57285 0.58027 0.27282 0.0
C2655 C 0.59127 0.61698 0.31984 0.0
C2656 C 0.59631 0.58632 0.31341 0.0
C2657 C 0.59743 0.6307 0.32682 0.0
C2658 C 0.57766 0.53835 0.2667 0.0
C2659 C 0.58345 0.5507 0.27687 0.0
C2660 C 0.57919 0.58166 0.28427 0.0
C2661 C 0.59975 0.6108 0.31734 0.0
C2662 C 0.59356 0.59698 0.30801 0.0
C2663 C 0.57535 0.55721 0.28001 0.0
C2664 C 0.58174 0.57089 0.28973 0.0
H2665 H 0.63198 0.63791 0.33333 0.0
H2666 H 0.62118 0.61391 0.32101 0.0
H2667 H 0.58296 0.60264 0.28855 0.0
H2668 H 0.54452 0.534 0.25788 0.0
H2669 H 0.5545 0.55535 0.27571 0.0
C2670 C 0.34873 0.97024 0.30365 0.0
C2671 C 0.34655 0.97847 0.31566 0.0
C2672 C 0.3619 0.976 0.29512 0.0
C2673 C 0.40062 0.00369 0.29879 0.0
H2674 H 0.40091 0.99333 0.25151 0.0
C2675 C 0.45373 0.02163 0.26124 0.0
C2676 C 0.4538 0.01054 0.25227 0.0
C2677 C 0.44085 0.01942 0.26836 0.0
C2678 C 0.401 0.99629 0.26472 0.0
H2679 H 0.35649 0.99933 0.32791 0.0
H2680 H 0.37962 0.00945 0.31284 0.0
H2681 H 0.37791 0.98675 0.26488 0.0
H2682 H 0.44045 0.98857 0.24341 0.0
H2683 H 0.41802 0.98469 0.25585 0.0
H2684 H 0.42375 0.01306 0.29862 0.0
C2685 C 0.37109 0.99848 0.31019 0.0
C2686 C 0.38784 0.99252 0.27239 0.0
C2687 C 0.35784 0.9927 0.31876 0.0
C2688 C 0.44075 0.99727 0.25041 0.0
C2689 C 0.42788 0.9951 0.25737 0.0
C2690 C 0.41382 0.00753 0.29107 0.0
C2691 C 0.37327 0.99015 0.29831 0.0
C2692 C 0.38744 0.99583 0.28964 0.0
C2693 C 0.42779 0.00613 0.26643 0.0
C2694 C 0.41409 0.00354 0.27409 0.0
H2695 H 0.3403 0.95924 0.30095 0.0
H2696 H 0.36329 0.9692 0.28629 0.0
H2697 H 0.40067 0.00631 0.31213 0.0
H2698 H 0.46367 0.03195 0.26294 0.0
H2699 H 0.44107 0.02812 0.27524 0.0
C2700 C 0.64467 0.99284 0.33188 0.0
C2701 C 0.64414 0.97998 0.3282 0.0
C2702 C 0.63422 0.99544 0.32511 0.0
C2703 C 0.59756 0.97808 0.30554 0.0
H2704 H 0.61212 0.01547 0.28504 0.0
C2705 C 0.56194 0.99059 0.26193 0.0
C2706 C 0.56386 0.00432 0.263 0.0
C2707 C 0.57124 0.98742 0.27082 0.0
C2708 C 0.60781 0.00506 0.29093 0.0
H2709 H 0.63187 0.95954 0.31502 0.0
H2710 H 0.61359 0.9641 0.3032 0.0
H2711 H 0.62897 0.01016 0.2992 0.0
H2712 H 0.57677 0.02536 0.27461 0.0
H2713 H 0.59289 0.0198 0.2903 0.0
H2714 H 0.57637 0.97297 0.29727 0.0
C2715 C 0.6221 0.97214 0.31137 0.0
C2716 C 0.61749 0.00201 0.29903 0.0
C2717 C 0.63261 0.96956 0.31808 0.0
C2718 C 0.57515 0.01475 0.27334 0.0
C2719 C 0.5844 0.01156 0.2823 0.0
C2720 C 0.58784 0.98116 0.2975 0.0
C2721 C 0.62294 0.98522 0.31457 0.0
C2722 C 0.61249 0.98848 0.30638 0.0
C2723 C 0.58264 0.99789 0.28105 0.0
C2724 C 0.59286 0.99467 0.29003 0.0
H2725 H 0.65335 0.00107 0.33969 0.0
H2726 H 0.63503 0.00552 0.32802 0.0
H2727 H 0.59336 0.96761 0.31125 0.0
H2728 H 0.55346 0.98239 0.25389 0.0
H2729 H 0.5697 0.97686 0.26932 0.0
C2730 C 0.01782 0.65051 0.33079 0.0
C2731 C 0.00481 0.64789 0.33816 0.0
C2732 C 0.01843 0.63948 0.32259 0.0
C2733 C 0.99853 0.59973 0.31769 0.0
H2734 H 0.01951 0.60873 0.27501 0.0
C2735 C 0.9904 0.55635 0.26926 0.0
C2736 C 0.00291 0.55782 0.26171 0.0
C2737 C 0.99134 0.5673 0.27942 0.0
C2738 C 0.01374 0.60608 0.28701 0.0
H2739 H 0.98229 0.63154 0.34294 0.0
H2740 H 0.98325 0.61244 0.32839 0.0
H2741 H 0.01996 0.62787 0.29146 0.0
H2742 H 0.02628 0.57197 0.25922 0.0
H2743 H 0.02784 0.5912 0.27668 0.0
H2744 H 0.99203 0.57786 0.31294 0.0
C2745 C 0.99308 0.62293 0.32918 0.0
C2746 C 0.01403 0.61705 0.29648 0.0
C2747 C 0.99251 0.63393 0.33746 0.0
C2748 C 0.01638 0.57055 0.26457 0.0
C2749 C 0.0173 0.58156 0.27463 0.0
C2750 C 0.99816 0.58875 0.30815 0.0
C2751 C 0.00601 0.62558 0.32149 0.0
C2752 C 0.00634 0.61401 0.31188 0.0
C2753 C 0.00479 0.58004 0.28217 0.0
C2754 C 0.00567 0.59179 0.29264 0.0
H2755 H 0.02753 0.66113 0.33119 0.0
H2756 H 0.02863 0.64186 0.31706 0.0
H2757 H 0.9927 0.59702 0.32964 0.0
H2758 H 0.9798 0.54682 0.2671 0.0
H2759 H 0.98147 0.56592 0.28484 0.0
C2760 C 0.37257 0.38072 0.32096 0.0
C2761 C 0.36116 0.36631 0.32013 0.0
C2762 C 0.38634 0.3848 0.31486 0.0
C2763 C 0.40306 0.37767 0.2813 0.0
H2764 H 0.43915 0.3986 0.30711 0.0
C2765 C 0.45801 0.4034 0.24693 0.0
C2766 C 0.46897 0.41691 0.25289 0.0
C2767 C 0.44554 0.39497 0.25664 0.0
C2768 C 0.42921 0.39292 0.29963 0.0
H2769 H 0.35522 0.34481 0.31264 0.0
H2770 H 0.37929 0.35213 0.30127 0.0
H2771 H 0.41592 0.38825 0.32185 0.0
H2772 H 0.47572 0.43224 0.27356 0.0
H2773 H 0.45374 0.418 0.29013 0.0
H2774 H 0.41602 0.38317 0.25893 0.0
C2775 C 0.37756 0.36014 0.30698 0.0
C2776 C 0.41594 0.38687 0.30815 0.0
C2777 C 0.36386 0.35598 0.3135 0.0
C2778 C 0.46745 0.42176 0.26883 0.0
C2779 C 0.45485 0.4135 0.27836 0.0
C2780 C 0.4163 0.38399 0.27271 0.0
C2781 C 0.38883 0.3746 0.30749 0.0
C2782 C 0.40279 0.37938 0.299 0.0
C2783 C 0.44361 0.40005 0.27231 0.0
C2784 C 0.42958 0.39195 0.28171 0.0
H2785 H 0.37078 0.38888 0.32606 0.0
H2786 H 0.39488 0.39603 0.31523 0.0
H2787 H 0.39301 0.37206 0.27399 0.0
H2788 H 0.45905 0.39945 0.23468 0.0
H2789 H 0.43734 0.38456 0.2517 0.0
C2790 C 0.32211 0.29317 0.34094 0.0
C2791 C 0.31809 0.30175 0.34976 0.0
C2792 C 0.32363 0.28281 0.34961 0.0
C2793 C 0.31446 0.26225 0.39023 0.0
H2794 H 0.34779 0.25918 0.37939 0.0
C2795 C 0.33478 0.23411 0.43469 0.0
C2796 C 0.33868 0.22494 0.42713 0.0
C2797 C 0.33173 0.24281 0.42462 0.0
C2798 C 0.33834 0.25979 0.38243 0.0
H2799 H 0.31223 0.30595 0.37456 0.0
H2800 H 0.3151 0.28809 0.38967 0.0
H2801 H 0.34303 0.27527 0.36282 0.0
H2802 H 0.34242 0.21777 0.40296 0.0
H2803 H 0.33731 0.23316 0.38538 0.0
H2804 H 0.30997 0.24699 0.41008 0.0
C2805 C 0.31687 0.28919 0.37602 0.0
C2806 C 0.33558 0.26898 0.37291 0.0
C2807 C 0.3153 0.2995 0.36735 0.0
C2808 C 0.33965 0.22484 0.40922 0.0
C2809 C 0.33668 0.23363 0.39914 0.0
C2810 C 0.31727 0.25313 0.3998 0.0
C2811 C 0.32121 0.28081 0.3673 0.0
C2812 C 0.32367 0.27042 0.37679 0.0
C2813 C 0.3326 0.24264 0.40673 0.0
C2814 C 0.32931 0.25189 0.3961 0.0
H2815 H 0.32428 0.29459 0.32737 0.0
H2816 H 0.32676 0.27639 0.34244 0.0
H2817 H 0.30504 0.26288 0.39337 0.0
H2818 H 0.33421 0.23468 0.44845 0.0
H2819 H 0.32888 0.24983 0.43086 0.0
C2820 C 0.70876 0.03721 0.36617 0.0
C2821 C 0.71795 0.03169 0.36488 0.0
C2822 C 0.71394 0.05084 0.3731 0.0
C2823 C 0.7477 0.085 0.38475 0.0
H2824 H 0.72313 0.08781 0.41845 0.0
C2825 C 0.75413 0.12285 0.4455 0.0
C2826 C 0.76317 0.13656 0.4385 0.0
C2827 C 0.7478 0.11067 0.43507 0.0
C2828 C 0.73013 0.08719 0.40909 0.0
H2829 H 0.73995 0.03643 0.36929 0.0
H2830 H 0.74892 0.0601 0.38147 0.0
H2831 H 0.714 0.06558 0.40243 0.0
H2832 H 0.77251 0.14825 0.415 0.0
H2833 H 0.76128 0.12698 0.39674 0.0
H2834 H 0.76402 0.10643 0.39189 0.0
C2835 C 0.73774 0.05396 0.377 0.0
C2836 C 0.72483 0.07451 0.39975 0.0
C2837 C 0.73257 0.04034 0.37009 0.0
C2838 C 0.7655 0.13785 0.42077 0.0
C2839 C 0.75919 0.12565 0.41034 0.0
C2840 C 0.75299 0.09769 0.39407 0.0
C2841 C 0.72843 0.05927 0.37886 0.0
C2842 C 0.73363 0.07319 0.38766 0.0
C2843 C 0.75038 0.11191 0.41739 0.0
C2844 C 0.74434 0.09886 0.40654 0.0
H2845 H 0.69745 0.03087 0.36221 0.0
H2846 H 0.70655 0.05471 0.37413 0.0
H2847 H 0.75469 0.08438 0.3754 0.0
H2848 H 0.752 0.12151 0.45908 0.0
H2849 H 0.74119 0.10024 0.44095 0.0
C2850 C 0.96254 0.66334 0.37116 0.0
C2851 C 0.96931 0.67827 0.36896 0.0
C2852 C 0.94793 0.65514 0.37607 0.0
C2853 C 0.91428 0.65643 0.37769 0.0
H2854 H 0.90422 0.63137 0.41699 0.0
C2855 C 0.86879 0.64607 0.42278 0.0
C2856 C 0.85867 0.63191 0.42778 0.0
C2857 C 0.88112 0.6492 0.41362 0.0
C2858 C 0.90681 0.63812 0.40581 0.0
H2859 H 0.96594 0.6962 0.36986 0.0
H2860 H 0.94073 0.68203 0.37837 0.0
H2861 H 0.92818 0.64138 0.40388 0.0
H2862 H 0.85382 0.60997 0.42723 0.0
H2863 H 0.8758 0.61563 0.41156 0.0
H2864 H 0.89326 0.65379 0.38012 0.0
C2865 C 0.94658 0.67658 0.3762 0.0
C2866 C 0.92048 0.64382 0.39829 0.0
C2867 C 0.96112 0.68475 0.37145 0.0
C2868 C 0.86143 0.621 0.4237 0.0
C2869 C 0.87394 0.6242 0.41467 0.0
C2870 C 0.90071 0.65082 0.38524 0.0
C2871 C 0.93982 0.66171 0.37862 0.0
C2872 C 0.92454 0.65347 0.38455 0.0
C2873 C 0.88379 0.63832 0.40938 0.0
C2874 C 0.89705 0.64203 0.39973 0.0
H2875 H 0.96858 0.65805 0.36937 0.0
H2876 H 0.94297 0.64368 0.37784 0.0
H2877 H 0.91698 0.66358 0.36688 0.0
H2878 H 0.8673 0.65483 0.42612 0.0
H2879 H 0.88872 0.66024 0.41004 0.0
C2880 C 0.35719 0.00101 0.68432 0.0
C2881 C 0.35569 0.01276 0.68794 0.0
C2882 C 0.36841 -5e-05 0.69181 0.0
C2883 C 0.39401 0.01392 0.72881 0.0
H2884 H 0.41014 0.99359 0.70673 0.0
C2885 C 0.43999 0.0084 0.75898 0.0
C2886 C 0.43666 0.99415 0.7606 0.0
C2887 C 0.43136 0.01164 0.74882 0.0
C2888 C 0.40571 0.99929 0.71301 0.0
H2889 H 0.36519 0.03297 0.70155 0.0
H2890 H 0.38517 0.03148 0.71403 0.0
H2891 H 0.39333 0.99818 0.69093 0.0
H2892 H 0.42171 0.9722 0.75233 0.0
H2893 H 0.40699 0.97802 0.73412 0.0
H2894 H 0.40667 0.01521 0.75077 0.0
C2895 C 0.37739 0.02279 0.70591 0.0
C2896 C 0.39601 0.00187 0.70403 0.0
C2897 C 0.366 0.02372 0.69865 0.0
C2898 C 0.42477 0.98332 0.75125 0.0
C2899 C 0.41628 0.98662 0.74086 0.0
C2900 C 0.4039 0.01157 0.73765 0.0
C2901 C 0.37857 0.01073 0.70289 0.0
C2902 C 0.38984 0.00902 0.7119 0.0
C2903 C 0.41936 0.00077 0.73979 0.0
C2904 C 0.40967 0.00405 0.72992 0.0
H2905 H 0.34935 0.99233 0.67621 0.0
H2906 H 0.36874 0.99038 0.68936 0.0
H2907 H 0.38932 0.0192 0.73547 0.0
H2908 H 0.44926 0.01709 0.76561 0.0
H2909 H 0.43404 0.02266 0.74804 0.0
C2910 C 0.9893 0.36154 0.68002 0.0
C2911 C 0.98818 0.34977 0.68882 0.0
C2912 C 0.99062 0.37323 0.68897 0.0
C2913 C 0.98432 0.38383 0.73142 0.0
H2914 H 0.01073 0.42245 0.71508 0.0
C2915 C 0.99893 0.43423 0.77115 0.0
C2916 C -0.00029 0.44588 0.7624 0.0
C2917 C 0.99743 0.42248 0.76218 0.0
C2918 C 0.00319 0.41172 0.71971 0.0
H2919 H 0.98763 0.34111 0.71398 0.0
H2920 H 0.99012 0.36156 0.72956 0.0
H2921 H 0.00831 0.40204 0.69944 0.0
H2922 H 0.99925 0.45412 0.7373 0.0
H2923 H 0.99671 0.43366 0.72166 0.0
H2924 H 0.97926 0.39354 0.75174 0.0
C2925 C 0.98976 0.36167 0.71573 0.0
C2926 C 0.00179 0.40002 0.71074 0.0
C2927 C 0.98841 0.34997 0.70678 0.0
C2928 C 0.99893 0.44546 0.74445 0.0
C2929 C 0.99746 0.43372 0.73547 0.0
C2930 C 0.98574 0.39554 0.74041 0.0
C2931 C 0.99088 0.37345 0.70694 0.0
C2932 C 0.99234 0.38592 0.71647 0.0
C2933 C 0.9967 0.42209 0.74423 0.0
C2934 C 0.99519 0.40963 0.73467 0.0
H2935 H 0.9891 0.36172 0.66619 0.0
H2936 H 0.99126 0.38203 0.68178 0.0
H2937 H 0.97676 0.37311 0.73605 0.0
H2938 H -0.00028 0.4343 0.78496 0.0
H2939 H 0.99709 0.41379 0.7693 0.0
C2940 C 0.63758 0.62314 0.71899 0.0
C2941 C 0.64564 0.63704 0.71214 0.0
C2942 C 0.62348 0.61774 0.72482 0.0
C2943 C 0.59842 0.62805 0.741 0.0
H2944 H 0.57001 0.58794 0.73198 0.0
C2945 C 0.5382 0.59641 0.76584 0.0
C2946 C 0.53434 0.58319 0.77343 0.0
C2947 C 0.55146 0.60442 0.75723 0.0
C2948 C 0.57782 0.59917 0.73457 0.0
H2949 H 0.64518 0.65621 0.70615 0.0
H2950 H 0.62036 0.64667 0.71643 0.0
H2951 H 0.59366 0.59927 0.71828 0.0
H2952 H 0.54182 0.5686 0.779 0.0
H2953 H 0.56461 0.58234 0.76382 0.0
H2954 H 0.58247 0.62773 0.75759 0.0
C2955 C 0.62508 0.64003 0.71728 0.0
C2956 C 0.59136 0.60564 0.72677 0.0
C2957 C 0.63925 0.64545 0.71134 0.0
C2958 C 0.54423 0.57849 0.77285 0.0
C2959 C 0.55732 0.58638 0.76419 0.0
C2960 C 0.58476 0.62154 0.74879 0.0
C2961 C 0.61702 0.62606 0.72397 0.0
C2962 C 0.60199 0.62001 0.73033 0.0
C2963 C 0.56095 0.59926 0.75603 0.0
C2964 C 0.57454 0.60691 0.74604 0.0
H2965 H 0.64214 0.61637 0.7199 0.0
H2966 H 0.61769 0.60705 0.73023 0.0
H2967 H 0.60641 0.63914 0.744 0.0
H2968 H 0.53081 0.60032 0.76608 0.0
H2969 H 0.55407 0.61437 0.75108 0.0
C2970 C 0.66875 0.70293 0.68443 0.0
C2971 C 0.68001 0.70076 0.67962 0.0
C2972 C 0.66646 0.71276 0.67566 0.0
C2973 C 0.68394 0.7446 0.64828 0.0
H2974 H 0.64469 0.73124 0.63232 0.0
C2975 C 0.67168 0.77785 0.60131 0.0
C2976 C 0.6586 0.77762 0.6032 0.0
C2977 C 0.67434 0.76861 0.61084 0.0
C2978 C 0.65567 0.73526 0.63689 0.0
H2979 H 0.698 0.70757 0.66221 0.0
H2980 H 0.69412 0.72494 0.64708 0.0
H2981 H 0.6495 0.71533 0.64914 0.0
H2982 H 0.63814 0.76767 0.61666 0.0
H2983 H 0.64291 0.75179 0.63368 0.0
H2984 H 0.69012 0.76462 0.63638 0.0
C2985 C 0.68704 0.71895 0.65758 0.0
C2986 C 0.65843 0.7261 0.64649 0.0
C2987 C 0.68922 0.70898 0.6662 0.0
C2988 C 0.64824 0.76796 0.61482 0.0
C2989 C 0.65098 0.75883 0.62452 0.0
C2990 C 0.68117 0.75383 0.63886 0.0
C2991 C 0.67549 0.72077 0.66205 0.0
C2992 C 0.67259 0.73066 0.65221 0.0
C2993 C 0.66407 0.75902 0.62266 0.0
C2994 C 0.667 0.74927 0.63295 0.0
H2995 H 0.66145 0.69676 0.69468 0.0
H2996 H 0.65757 0.71405 0.67948 0.0
H2997 H 0.69494 0.74843 0.65268 0.0
H2998 H 0.67978 0.78507 0.59228 0.0
H2999 H 0.68441 0.76888 0.60876 0.0
C3000 C 0.27405 0.96108 0.6767 0.0
C3001 C 0.28831 0.97198 0.67281 0.0
C3002 C 0.269 0.94685 0.67221 0.0
C3003 C 0.28089 0.92272 0.65401 0.0
H3004 H 0.24073 0.90109 0.63847 0.0
C3005 C 0.25606 0.87731 0.60315 0.0
C3006 C 0.24286 0.86482 0.60733 0.0
C3007 C 0.26249 0.88897 0.6144 0.0
C3008 C 0.25191 0.90693 0.643 0.0
H3009 H 0.30859 0.97658 0.66158 0.0
H3010 H 0.29962 0.95201 0.65283 0.0
H3011 H 0.25008 0.9243 0.65193 0.0
H3012 H 0.2262 0.85446 0.62655 0.0
H3013 H 0.23726 0.87512 0.64606 0.0
H3014 H 0.28277 0.90556 0.64368 0.0
C3015 C 0.29241 0.95419 0.65991 0.0
C3016 C 0.2573 0.92024 0.65084 0.0
C3017 C 0.29757 0.96835 0.66483 0.0
C3018 C 0.23646 0.86395 0.62318 0.0
C3019 C 0.24273 0.87573 0.63426 0.0
C3020 C 0.27555 0.90952 0.64577 0.0
C3021 C 0.27794 0.94324 0.66324 0.0
C3022 C 0.27193 0.92845 0.6563 0.0
C3023 C 0.25564 0.88843 0.62979 0.0
C3024 C 0.26105 0.9016 0.64008 0.0
H3025 H 0.26675 0.96357 0.68306 0.0
H3026 H 0.25796 0.93873 0.67552 0.0
H3027 H 0.29211 0.92849 0.65835 0.0
H3028 H 0.26111 0.8782 0.59094 0.0
H3029 H 0.27238 0.8987 0.61063 0.0
C3030 C 0.03347 0.33477 0.65321 0.0
C3031 C 0.02479 0.31984 0.65065 0.0
C3032 C 0.04745 0.34264 0.64622 0.0
C3033 C 0.07975 0.35419 0.63685 0.0
H3034 H 0.08274 0.34392 0.59034 0.0
C3035 C 0.13377 0.36703 0.60548 0.0
C3036 C 0.13527 0.36959 0.5878 0.0
C3037 C 0.12085 0.36364 0.61364 0.0
C3038 C 0.08212 0.34712 0.60323 0.0
H3039 H 0.02428 0.30145 0.6393 0.0
H3040 H 0.04843 0.31508 0.62729 0.0
H3041 H 0.05907 0.3328 0.60375 0.0
H3042 H 0.12496 0.37175 0.56505 0.0
H3043 H 0.10252 0.36603 0.57926 0.0
H3044 H 0.10293 0.36844 0.63629 0.0
C3045 C 0.0444 0.32076 0.63442 0.0
C3046 C 0.06855 0.3406 0.61098 0.0
C3047 C 0.03055 0.31294 0.64141 0.0
C3048 C 0.12397 0.36954 0.57863 0.0
C3049 C 0.11113 0.36625 0.58678 0.0
C3050 C 0.09341 0.36071 0.62907 0.0
C3051 C 0.05291 0.3357 0.63648 0.0
C3052 C 0.06724 0.34383 0.62797 0.0
C3053 C 0.10923 0.36283 0.60426 0.0
C3054 C 0.09475 0.35708 0.61223 0.0
H3055 H 0.02936 0.3404 0.6603 0.0
H3056 H 0.05381 0.35416 0.648 0.0
H3057 H 0.07903 0.35686 0.64997 0.0
H3058 H 0.14228 0.36694 0.61285 0.0
H3059 H 0.1197 0.36094 0.62708 0.0
C3060 C 0.30071 0.31855 0.66146 0.0
C3061 C 0.31045 0.32859 0.67345 0.0
C3062 C 0.29048 0.32073 0.65308 0.0
C3063 C 0.27376 0.34341 0.65378 0.0
H3064 H 0.26664 0.33308 0.6058 0.0
C3065 C 0.24966 0.36637 0.60604 0.0
C3066 C 0.23826 0.35641 0.59536 0.0
C3067 C 0.25738 0.36211 0.61641 0.0
C3068 C 0.26843 0.3359 0.61923 0.0
H3069 H 0.31694 0.34864 0.68632 0.0
H3070 H 0.29957 0.3527 0.67136 0.0
H3071 H 0.28189 0.32705 0.62252 0.0
H3072 H 0.22591 0.33399 0.58766 0.0
H3073 H 0.23979 0.32677 0.60526 0.0
H3074 H 0.26075 0.35283 0.65011 0.0
C3075 C 0.29946 0.34293 0.66868 0.0
C3076 C 0.2771 0.33238 0.62888 0.0
C3077 C 0.30951 0.34064 0.67723 0.0
C3078 C 0.2348 0.34206 0.59538 0.0
C3079 C 0.24268 0.33787 0.60555 0.0
C3080 C 0.26528 0.34714 0.64404 0.0
C3081 C 0.28992 0.33311 0.65631 0.0
C3082 C 0.27997 0.33615 0.64629 0.0
C3083 C 0.25403 0.34784 0.61616 0.0
C3084 C 0.26259 0.34348 0.62666 0.0
H3085 H 0.30109 0.3091 0.65837 0.0
H3086 H 0.28312 0.31275 0.64394 0.0
H3087 H 0.27545 0.34625 0.6672 0.0
H3088 H 0.25284 0.37755 0.60619 0.0
H3089 H 0.26621 0.37005 0.62434 0.0
C3090 C 0.68016 0.97659 0.68323 0.0
C3091 C 0.67988 0.98782 0.67479 0.0
C3092 C 0.67731 0.96432 0.67429 0.0
C3093 C 0.6762 0.95096 0.63045 0.0
H3094 H 0.65379 0.91358 0.65181 0.0
C3095 C 0.65579 0.89808 0.59329 0.0
C3096 C 0.65751 0.88755 0.60141 0.0
C3097 C 0.6583 0.91023 0.60226 0.0
C3098 C 0.66017 0.92396 0.64574 0.0
H3099 H 0.67626 0.99489 0.65033 0.0
H3100 H 0.67103 0.9734 0.63481 0.0
H3101 H 0.65856 0.93494 0.66739 0.0
H3102 H 0.66293 0.88137 0.62539 0.0
H3103 H 0.66738 0.90262 0.64103 0.0
H3104 H 0.67768 0.93992 0.60875 0.0
C3105 C 0.67373 0.97418 0.64828 0.0
C3106 C 0.66293 0.93621 0.65467 0.0
C3107 C 0.67664 0.98648 0.65721 0.0
C3108 C 0.66164 0.88936 0.61874 0.0
C3109 C 0.66405 0.90146 0.62774 0.0
C3110 C 0.67336 0.9387 0.62149 0.0
C3111 C 0.67404 0.96294 0.6567 0.0
C3112 C 0.67101 0.94987 0.64716 0.0
C3113 C 0.66249 0.91206 0.61957 0.0
C3114 C 0.66534 0.92506 0.62905 0.0
H3115 H 0.68268 0.97731 0.69675 0.0
H3116 H 0.67787 0.95598 0.68113 0.0
H3117 H 0.68266 0.96131 0.62437 0.0
H3118 H 0.65274 0.89704 0.57991 0.0
H3119 H 0.65688 0.91814 0.59566 0.0
C3120 C 0.02792 0.69324 0.65304 0.0
C3121 C 0.02255 0.70245 0.65498 0.0
C3122 C 0.04253 0.69881 0.64886 0.0
C3123 C 0.07852 0.73261 0.64824 0.0
H3124 H 0.08587 0.71658 0.60821 0.0
C3125 C 0.12602 0.76628 0.60368 0.0
C3126 C 0.13354 0.76032 0.59635 0.0
C3127 C 0.11378 0.7579 0.61365 0.0
C3128 C 0.08407 0.72101 0.61962 0.0
H3129 H 0.02842 0.72472 0.65473 0.0
H3130 H 0.05371 0.73434 0.64756 0.0
H3131 H 0.06177 0.70393 0.62117 0.0
H3132 H 0.13431 0.74098 0.59392 0.0
H3133 H 0.11268 0.72617 0.61138 0.0
H3134 H 0.10061 0.74996 0.64631 0.0
C3135 C 0.04673 0.72285 0.64929 0.0
C3136 C 0.07028 0.71377 0.62705 0.0
C3137 C 0.03217 0.71731 0.65325 0.0
C3138 C 0.12872 0.74583 0.59947 0.0
C3139 C 0.11633 0.73737 0.60936 0.0
C3140 C 0.09227 0.73983 0.64084 0.0
C3141 C 0.05205 0.71368 0.64683 0.0
C3142 C 0.06723 0.71977 0.64105 0.0
C3143 C 0.10871 0.74332 0.61649 0.0
C3144 C 0.09504 0.73438 0.62608 0.0
H3145 H 0.02075 0.68174 0.65429 0.0
H3146 H 0.04636 0.6915 0.64708 0.0
H3147 H 0.07656 0.73735 0.65923 0.0
H3148 H 0.12959 0.77746 0.60165 0.0
H3149 H 0.10803 0.76276 0.61875 0.0
C3150 C 0.97586 0.63253 0.69895 0.0
C3151 C 0.97831 0.63449 0.68128 0.0
C3152 C 0.97678 0.62179 0.70755 0.0
C3153 C 0.99275 0.59906 0.70371 0.0
H3154 H 0.96701 0.57834 0.74132 0.0
C3155 C 0.99336 0.55259 0.73869 0.0
C3156 C 0.99289 0.55272 0.75664 0.0
C3157 C 0.99094 0.56194 0.72898 0.0
C3158 C 0.97434 0.58411 0.73092 0.0
H3159 H 0.98327 0.62643 0.6587 0.0
H3160 H 0.9846 0.60752 0.67364 0.0
H3161 H 0.96361 0.5955 0.72512 0.0
H3162 H 0.98967 0.56298 0.77841 0.0
H3163 H 0.98528 0.57913 0.76148 0.0
H3164 H 0.00346 0.58763 0.70954 0.0
C3165 C 0.98225 0.61447 0.68093 0.0
C3166 C 0.97241 0.59396 0.72164 0.0
C3167 C 0.9814 0.62526 0.67233 0.0
C3168 C 0.98986 0.56239 0.76462 0.0
C3169 C 0.98736 0.57167 0.75492 0.0
C3170 C 0.99462 0.58915 0.71294 0.0
C3171 C 0.98009 0.61269 0.69868 0.0
C3172 C 0.98167 0.60167 0.70802 0.0
C3173 C 0.98791 0.57158 0.73699 0.0
C3174 C 0.98553 0.58166 0.72674 0.0
H3175 H 0.97352 0.63948 0.70626 0.0
H3176 H 0.97525 0.62088 0.72125 0.0
H3177 H 0.00023 0.60495 0.69349 0.0
H3178 H 0.99543 0.54514 0.73209 0.0
H3179 H 0.99126 0.56149 0.71518 0.0
C3180 C 0.39151 0.37377 0.70203 0.0
C3181 C 0.37693 0.36492 0.69682 0.0
C3182 C 0.3965 0.3874 0.70868 0.0
C3183 C 0.38364 0.40847 0.73047 0.0
H3184 H 0.42349 0.43932 0.72327 0.0
C3185 C 0.41141 0.46535 0.76256 0.0
C3186 C 0.42499 0.46963 0.77016 0.0
C3187 C 0.40431 0.453 0.75232 0.0
C3188 C 0.41232 0.4308 0.72537 0.0
H3189 H 0.35627 0.36373 0.69393 0.0
H3190 H 0.36509 0.38772 0.7054 0.0
H3191 H 0.41346 0.41739 0.70643 0.0
H3192 H 0.44122 0.46374 0.77383 0.0
H3193 H 0.42905 0.44257 0.75572 0.0
H3194 H 0.38268 0.42201 0.74958 0.0
C3195 C 0.37258 0.38396 0.70455 0.0
C3196 C 0.40658 0.41823 0.71577 0.0
C3197 C 0.36756 0.37025 0.69788 0.0
C3198 C 0.431 0.46103 0.76778 0.0
C3199 C 0.42403 0.44886 0.75744 0.0
C3200 C 0.38937 0.42116 0.73999 0.0
C3201 C 0.38708 0.39262 0.71023 0.0
C3202 C 0.39233 0.40673 0.71858 0.0
C3203 C 0.41074 0.44485 0.74939 0.0
C3204 C 0.40391 0.43224 0.73786 0.0
H3205 H 0.39904 0.37002 0.70143 0.0
H3206 H 0.40767 0.39365 0.71317 0.0
H3207 H 0.37266 0.39979 0.73304 0.0
H3208 H 0.4065 0.47176 0.76407 0.0
H3209 H 0.39403 0.45007 0.74627 0.0
C3210 C 0.64273 0.02943 0.72358 0.0
C3211 C 0.64788 0.02163 0.71512 0.0
C3212 C 0.62899 0.02243 0.73091 0.0
C3213 C 0.60476 0.0047 0.75525 0.0
H3214 H 0.56986 0.97561 0.73184 0.0
C3215 C 0.54972 0.97956 0.78812 0.0
C3216 C 0.53845 0.97893 0.77825 0.0
C3217 C 0.56238 0.98189 0.78038 0.0
C3218 C 0.57953 0.98371 0.73853 0.0
H3219 H 0.64238 0.00033 0.70728 0.0
H3220 H 0.61818 0.98801 0.72024 0.0
H3221 H 0.59354 0.98576 0.71796 0.0
H3222 H 0.53127 0.97956 0.7525 0.0
H3223 H 0.55355 0.98396 0.73894 0.0
H3224 H 0.59093 0.00322 0.77547 0.0
C3225 C 0.62489 0.99959 0.72111 0.0
C3226 C 0.59307 0.98942 0.73065 0.0
C3227 C 0.63874 0.00664 0.71374 0.0
C3228 C 0.53977 0.97995 0.76039 0.0
C3229 C 0.55252 0.98241 0.75264 0.0
C3230 C 0.5913 0.99902 0.76309 0.0
C3231 C 0.62001 0.00743 0.73003 0.0
C3232 C 0.60578 0.0002 0.73881 0.0
C3233 C 0.56414 0.9838 0.7626 0.0
C3234 C 0.57848 0.98863 0.75474 0.0
H3235 H 0.64938 0.041 0.72475 0.0
H3236 H 0.62541 0.0288 0.73736 0.0
H3237 H 0.61439 0.01284 0.76197 0.0
H3238 H 0.54885 0.97855 0.80189 0.0
H3239 H 0.57098 0.98257 0.78838 0.0
loop_
_geom_bond_atom_site_label_1
_geom_bond_atom_site_label_2
_geom_bond_distance
_geom_bond_site_symmetry_2
_ccdc_geom_bond_type
Zn0 O3 2.031 1_554 S
Zn0 O5 2.049 . S
Zn0 O10 2.067 1_554 S
Zn1 O2 1.962 1_455 S
Zn1 O4 1.986 . S
Zn1 O6 1.996 1_455 S
Zn1 O9 1.943 . S
O2 Zn1 1.962 1_655 S
O2 C7 1.254 . S
O3 Zn0 2.031 1_556 S
O3 C7 1.269 1_556 S
O4 Zn1 1.986 . S
O4 C11 1.262 . S
O5 Zn0 2.049 . S
O5 C13 1.260 . S
O6 Zn1 1.996 1_655 S
O6 C13 1.257 . S
C7 O2 1.254 . S
C7 O3 1.269 1_554 S
C8 O9 1.249 1_556 S
C8 O10 1.270 1_455 S
O9 Zn1 1.943 . S
O9 C8 1.249 1_554 S
O10 Zn0 2.067 1_556 S
O10 C8 1.270 1_655 S
C11 O4 1.262 . S
C11 O12 1.232 . S
O12 C11 1.232 . S
C13 O5 1.260 . S
C13 O6 1.257 . S
Zn14 O17 2.031 1_554 S
Zn14 O19 2.049 . S
Zn14 O24 2.067 1_554 S
Zn15 O16 1.962 . S
Zn15 O18 1.986 . S
Zn15 O20 1.996 . S
Zn15 O23 1.943 . S
O16 Zn15 1.962 . S
O16 C21 1.308 . S
O17 Zn14 2.031 1_556 S
O17 C21 1.247 1_556 S
O18 Zn15 1.986 . S
O18 C25 1.262 . S
O19 Zn14 2.049 . S
O19 C27 1.260 . S
O20 Zn15 1.996 . S
O20 C27 1.257 . S
C21 O16 1.308 . S
C21 O17 1.247 1_554 S
C22 O23 1.249 1_556 S
C22 O24 1.270 . S
O23 Zn15 1.943 . S
O23 C22 1.249 1_554 S
O24 Zn14 2.067 1_556 S
O24 C22 1.270 . S
C25 O18 1.262 . S
C25 O26 1.232 . S
O26 C25 1.232 . S
C27 O19 1.260 . S
C27 O20 1.257 . S
Zn28 O31 2.031 . S
Zn28 O33 2.049 1_554 S
Zn28 O38 2.050 1_565 S
Zn29 O30 1.962 1_545 S
Zn29 O32 1.986 1_554 S
Zn29 O34 1.996 1_544 S
Zn29 O37 1.943 . S
O30 Zn29 1.962 1_565 S
O30 C35 1.254 . S
O31 Zn28 2.031 . S
O31 C35 1.269 . S
O32 Zn29 1.986 1_556 S
O32 C39 1.258 1_556 S
O33 Zn28 2.049 1_556 S
O33 C41 1.260 . S
O34 Zn29 1.996 1_566 S
O34 C41 1.257 . S
C35 O30 1.254 . S
C35 O31 1.269 . S
C36 O37 1.249 . S
C36 O38 1.302 . S
O37 Zn29 1.943 . S
O37 C36 1.249 . S
O38 Zn28 2.050 1_545 S
O38 C36 1.302 . S
C39 O32 1.258 1_554 S
C39 O40 1.239 . S
O40 C39 1.239 . S
C41 O33 1.260 . S
C41 O34 1.257 . S
Zn42 O45 2.031 . S
Zn42 O47 2.049 1_554 S
Zn42 O52 2.067 . S
Zn43 O44 1.962 1_655 S
Zn43 O46 1.986 1_554 S
Zn43 O48 1.996 1_654 S
Zn43 O51 1.943 . S
O44 Zn43 1.962 1_455 S
O44 C49 1.254 . S
O45 Zn42 2.031 . S
O45 C49 1.269 . S
O46 Zn43 1.986 1_556 S
O46 C53 1.264 . S
O47 Zn42 2.049 1_556 S
O47 C55 1.260 . S
O48 Zn43 1.996 1_456 S
O48 C55 1.257 . S
C49 O44 1.254 . S
C49 O45 1.269 . S
C50 O51 1.249 . S
C50 O52 1.270 1_655 S
O51 Zn43 1.943 . S
O51 C50 1.249 . S
O52 Zn42 2.067 . S
O52 C50 1.270 1_455 S
C53 O46 1.264 . S
C53 O54 1.229 1_556 S
O54 C53 1.229 1_554 S
C55 O47 1.260 . S
C55 O48 1.257 . S
Zn56 O59 2.031 . S
Zn56 O61 2.049 1_554 S
Zn56 O66 2.067 . S
Zn57 O58 1.962 . S
Zn57 O60 1.986 1_554 S
Zn57 O62 1.996 1_554 S
Zn57 O65 1.943 . S
O58 Zn57 1.962 . S
O58 C63 1.254 . S
O59 Zn56 2.031 . S
O59 C63 1.269 . S
O60 Zn57 1.986 1_556 S
O60 C67 1.262 . S
O61 Zn56 2.049 1_556 S
O61 C69 1.260 . S
O62 Zn57 1.996 1_556 S
O62 C69 1.257 . S
C63 O58 1.254 . S
C63 O59 1.269 . S
C64 O65 1.249 . S
C64 O66 1.270 . S
O65 Zn57 1.943 . S
O65 C64 1.249 . S
O66 Zn56 2.067 . S
O66 C64 1.270 . S
C67 O60 1.262 . S
C67 O68 1.232 1_556 S
O68 C67 1.232 1_554 S
C69 O61 1.260 . S
C69 O62 1.257 . S
Zn70 O73 2.012 1_554 S
Zn70 O75 2.049 . S
Zn70 O80 2.067 1_554 S
Zn71 O72 1.962 1_565 S
Zn71 O74 1.986 . S
Zn71 O76 1.996 1_565 S
Zn71 O79 1.943 . S
O72 Zn71 1.962 1_545 S
O72 C77 1.254 . S
O73 Zn70 2.012 1_556 S
O73 C77 1.257 1_556 S
O74 Zn71 1.986 . S
O74 C81 1.262 . S
O75 Zn70 2.049 . S
O75 C83 1.260 . S
O76 Zn71 1.996 1_545 S
O76 C83 1.257 . S
C77 O72 1.254 . S
C77 O73 1.257 1_554 S
C78 O79 1.249 1_556 S
C78 O80 1.270 1_565 S
O79 Zn71 1.943 . S
O79 C78 1.249 1_554 S
O80 Zn70 2.067 1_556 S
O80 C78 1.270 1_545 S
C81 O74 1.262 . S
C81 O82 1.232 . S
O82 C81 1.232 . S
C83 O75 1.260 . S
C83 O76 1.257 . S
Zn84 O87 2.031 . S
Zn84 O89 2.049 . S
Zn84 O94 2.067 . S
Zn85 O86 1.962 . S
Zn85 O88 1.986 . S
Zn85 O90 1.996 . S
Zn85 O93 1.943 . S
O86 Zn85 1.962 . S
O86 C91 1.254 . S
O87 Zn84 2.031 . S
O87 C91 1.269 . S
O88 Zn85 1.986 . S
O88 C95 1.262 . S
O89 Zn84 2.049 . S
O89 C97 1.260 . S
O90 Zn85 1.996 . S
O90 C97 1.257 . S
C91 O86 1.254 . S
C91 O87 1.269 . S
C92 O93 1.249 . S
C92 O94 1.270 . S
O93 Zn85 1.943 . S
O93 C92 1.249 . S
O94 Zn84 2.067 . S
O94 C92 1.270 . S
C95 O88 1.262 . S
C95 O96 1.232 . S
O96 C95 1.232 . S
C97 O89 1.260 . S
C97 O90 1.257 . S
Zn98 O101 2.031 . S
Zn98 O103 2.049 . S
Zn98 O108 2.067 . S
Zn99 O100 1.962 . S
Zn99 O102 1.986 1_565 S
Zn99 O104 1.996 . S
Zn99 O107 1.943 . S
O100 Zn99 1.962 . S
O100 C105 1.254 . S
O101 Zn98 2.031 . S
O101 C105 1.269 . S
O102 Zn99 1.986 1_545 S
O102 C109 1.262 . S
O103 Zn98 2.049 . S
O103 C111 1.260 . S
O104 Zn99 1.996 . S
O104 C111 1.257 . S
C105 O100 1.254 . S
C105 O101 1.269 . S
C106 O107 1.249 . S
C106 O108 1.270 . S
O107 Zn99 1.943 . S
O107 C106 1.249 . S
O108 Zn98 2.067 . S
O108 C106 1.270 . S
C109 O102 1.262 . S
C109 O110 1.232 . S
O110 C109 1.232 . S
C111 O103 1.260 . S
C111 O104 1.257 . S
Zn112 O115 2.031 . S
Zn112 O117 2.049 . S
Zn112 O122 2.067 . S
Zn113 O114 1.962 1_455 S
Zn113 O116 1.986 . S
Zn113 O118 1.996 . S
Zn113 O121 1.943 . S
O114 Zn113 1.962 1_655 S
O114 C119 1.254 . S
O115 Zn112 2.031 . S
O115 C119 1.269 1_455 S
O116 Zn113 1.986 . S
O116 C123 1.262 . S
O117 Zn112 2.049 . S
O117 C125 1.260 . S
O118 Zn113 1.996 . S
O118 C125 1.257 . S
C119 O114 1.254 . S
C119 O115 1.269 1_655 S
C120 O121 1.249 . S
C120 O122 1.270 . S
O121 Zn113 1.943 . S
O121 C120 1.249 . S
O122 Zn112 2.067 . S
O122 C120 1.270 . S
C123 O116 1.262 . S
C123 O124 1.232 . S
O124 C123 1.232 . S
C125 O117 1.260 . S
C125 O118 1.257 . S
Zn126 O129 2.031 . S
Zn126 O131 2.049 . S
Zn126 O136 2.067 . S
Zn127 O128 1.962 1_565 S
Zn127 O130 1.986 . S
Zn127 O132 1.996 . S
Zn127 O135 1.943 . S
O128 Zn127 1.962 1_545 S
O128 C133 1.254 . S
O129 Zn126 2.031 . S
O129 C133 1.269 1_565 S
O130 Zn127 1.986 . S
O130 C137 1.262 . S
O131 Zn126 2.049 . S
O131 C139 1.260 . S
O132 Zn127 1.996 . S
O132 C139 1.257 . S
C133 O128 1.254 . S
C133 O129 1.269 1_545 S
C134 O135 1.249 . S
C134 O136 1.270 . S
O135 Zn127 1.943 . S
O135 C134 1.249 . S
O136 Zn126 2.067 . S
O136 C134 1.270 . S
C137 O130 1.262 . S
C137 O138 1.232 . S
O138 C137 1.232 . S
C139 O131 1.260 . S
C139 O132 1.257 . S
Zn140 O143 2.031 . S
Zn140 O145 2.049 . S
Zn140 O150 2.067 . S
Zn141 O142 1.962 1_455 S
Zn141 O144 1.986 . S
Zn141 O146 1.996 . S
Zn141 O149 1.943 . S
O142 Zn141 1.962 1_655 S
O142 C147 1.254 . S
O143 Zn140 2.031 . S
O143 C147 1.269 1_455 S
O144 Zn141 1.986 . S
O144 C151 1.262 . S
O145 Zn140 2.049 . S
O145 C153 1.260 . S
O146 Zn141 1.996 . S
O146 C153 1.257 . S
C147 O142 1.254 . S
C147 O143 1.269 1_655 S
C148 O149 1.249 . S
C148 O150 1.270 . S
O149 Zn141 1.943 . S
O149 C148 1.249 . S
O150 Zn140 2.067 . S
O150 C148 1.270 . S
C151 O144 1.262 . S
C151 O152 1.232 . S
O152 C151 1.232 . S
C153 O145 1.260 . S
C153 O146 1.257 . S
Zn154 O157 2.031 . S
Zn154 O159 2.049 . S
Zn154 O164 2.067 . S
Zn155 O156 1.962 . S
Zn155 O158 1.986 . S
Zn155 O160 1.996 . S
Zn155 O163 1.943 . S
O156 Zn155 1.962 . S
O156 C161 1.254 . S
O157 Zn154 2.031 . S
O157 C161 1.269 . S
O158 Zn155 1.986 . S
O158 C165 1.262 . S
O159 Zn154 2.049 . S
O159 C167 1.260 . S
O160 Zn155 1.996 . S
O160 C167 1.257 . S
C161 O156 1.254 . S
C161 O157 1.269 . S
C162 O163 1.249 . S
C162 O164 1.270 . S
O163 Zn155 1.943 . S
O163 C162 1.249 . S
O164 Zn154 2.067 . S
O164 C162 1.270 . S
C165 O158 1.262 . S
C165 O166 1.232 . S
O166 C165 1.232 . S
C167 O159 1.260 . S
C167 O160 1.257 . S
Zn168 O171 2.031 . S
Zn168 O173 2.049 . S
Zn168 O178 2.067 . S
Zn169 O170 1.901 1_545 S
Zn169 O172 1.986 . S
Zn169 O174 1.996 . S
Zn169 O177 1.943 . S
O170 Zn169 1.901 1_565 S
O170 C175 1.230 . S
O171 Zn168 2.031 . S
O171 C175 1.269 1_545 S
O172 Zn169 1.986 . S
O172 C179 1.262 . S
O173 Zn168 2.049 . S
O173 C181 1.260 . S
O174 Zn169 1.996 . S
O174 C181 1.257 . S
C175 O170 1.230 . S
C175 O171 1.269 1_565 S
C176 O177 1.249 . S
C176 O178 1.270 . S
O177 Zn169 1.943 . S
O177 C176 1.249 . S
O178 Zn168 2.067 . S
O178 C176 1.270 . S
C179 O172 1.262 . S
C179 O180 1.232 . S
O180 C179 1.232 . S
C181 O173 1.260 . S
C181 O174 1.257 . S
Zn182 O185 2.031 . S
Zn182 O187 2.049 . S
Zn182 O192 2.067 . S
Zn183 O184 1.962 1_655 S
Zn183 O186 1.986 . S
Zn183 O188 1.996 . S
Zn183 O191 1.943 . S
O184 Zn183 1.962 1_455 S
O184 C189 1.254 . S
O185 Zn182 2.031 . S
O185 C189 1.269 1_655 S
O186 Zn183 1.986 . S
O186 C193 1.262 . S
O187 Zn182 2.049 . S
O187 C195 1.260 . S
O188 Zn183 1.996 . S
O188 C195 1.257 . S
C189 O184 1.254 . S
C189 O185 1.269 1_455 S
C190 O191 1.249 . S
C190 O192 1.270 . S
O191 Zn183 1.943 . S
O191 C190 1.249 . S
O192 Zn182 2.067 . S
O192 C190 1.270 . S
C193 O186 1.262 . S
C193 O194 1.232 . S
O194 C193 1.232 . S
C195 O187 1.260 . S
C195 O188 1.257 . S
Zn196 O199 2.031 . S
Zn196 O201 2.049 . S
Zn196 O206 2.067 . S
Zn197 O198 1.962 . S
Zn197 O200 1.986 . S
Zn197 O202 1.996 . S
Zn197 O205 1.943 . S
O198 Zn197 1.962 . S
O198 C203 1.254 . S
O199 Zn196 2.031 . S
O199 C203 1.269 . S
O200 Zn197 1.986 . S
O200 C207 1.262 . S
O201 Zn196 2.049 . S
O201 C209 1.260 . S
O202 Zn197 1.996 . S
O202 C209 1.257 . S
C203 O198 1.254 . S
C203 O199 1.269 . S
C204 O205 1.249 . S
C204 O206 1.270 . S
O205 Zn197 1.943 . S
O205 C204 1.249 . S
O206 Zn196 2.067 . S
O206 C204 1.270 . S
C207 O200 1.262 . S
C207 O208 1.232 . S
O208 C207 1.232 . S
C209 O201 1.260 . S
C209 O202 1.257 . S
Zn210 O213 2.031 . S
Zn210 O215 2.049 . S
Zn210 O220 2.067 . S
Zn211 O212 1.962 . S
Zn211 O214 1.986 . S
Zn211 O216 1.996 . S
Zn211 O219 1.943 . S
O212 Zn211 1.962 . S
O212 C217 1.254 . S
O213 Zn210 2.031 . S
O213 C217 1.269 . S
O214 Zn211 1.986 . S
O214 C221 1.262 . S
O215 Zn210 2.049 . S
O215 C223 1.260 . S
O216 Zn211 1.996 . S
O216 C223 1.257 . S
C217 O212 1.254 . S
C217 O213 1.269 . S
C218 O219 1.249 . S
C218 O220 1.270 . S
O219 Zn211 1.943 . S
O219 C218 1.249 . S
O220 Zn210 2.067 . S
O220 C218 1.270 . S
C221 O214 1.262 . S
C221 O222 1.232 . S
O222 C221 1.232 . S
C223 O215 1.260 . S
C223 O216 1.257 . S
Zn224 O227 2.031 . S
Zn224 O229 2.049 . S
Zn224 O234 2.067 . S
Zn225 O226 1.962 . S
Zn225 O228 1.973 1_545 S
Zn225 O230 1.996 . S
Zn225 O233 1.943 . S
O226 Zn225 1.962 . S
O226 C231 1.254 . S
O227 Zn224 2.031 . S
O227 C231 1.269 . S
O228 Zn225 1.973 1_565 S
O228 C235 1.275 . S
O229 Zn224 2.049 . S
O229 C237 1.260 . S
O230 Zn225 1.996 . S
O230 C237 1.257 . S
C231 O226 1.254 . S
C231 O227 1.269 . S
C232 O233 1.249 . S
C232 O234 1.270 . S
O233 Zn225 1.943 . S
O233 C232 1.249 . S
O234 Zn224 2.067 . S
O234 C232 1.270 . S
C235 O228 1.275 . S
C235 O236 1.232 . S
O236 C235 1.232 . S
C237 O229 1.260 . S
C237 O230 1.257 . S
Zn238 O241 2.031 . S
Zn238 O243 2.049 . S
Zn238 O248 2.067 . S
Zn239 O240 1.962 1_655 S
Zn239 O242 1.986 . S
Zn239 O244 1.996 . S
Zn239 O247 1.943 . S
O240 Zn239 1.962 1_455 S
O240 C245 1.254 . S
O241 Zn238 2.031 . S
O241 C245 1.269 1_655 S
O242 Zn239 1.986 . S
O242 C249 1.262 . S
O243 Zn238 2.049 . S
O243 C251 1.260 . S
O244 Zn239 1.996 . S
O244 C251 1.257 . S
C245 O240 1.254 . S
C245 O241 1.269 1_455 S
C246 O247 1.249 . S
C246 O248 1.270 . S
O247 Zn239 1.943 . S
O247 C246 1.249 . S
O248 Zn238 2.067 . S
O248 C246 1.270 . S
C249 O242 1.262 . S
C249 O250 1.232 . S
O250 C249 1.232 . S
C251 O243 1.260 . S
C251 O244 1.257 . S
C252 C253 1.384 . S
C252 C254 1.384 . S
C252 H280 0.931 . S
C253 C252 1.384 . S
C253 C256 1.382 . S
C254 C252 1.384 . S
C254 C255 1.381 . S
C254 H281 0.930 . S
C255 C254 1.381 . S
C255 C257 1.381 . S
C255 C258 1.487 . S
C256 C253 1.382 . S
C256 C257 1.387 . S
C256 H282 0.930 . S
C257 C255 1.381 . S
C257 C256 1.387 . S
C257 H283 0.931 . S
C258 C255 1.487 . S
C258 C265 1.399 . S
C258 N296 1.343 . S
C259 C260 1.384 . S
C259 C261 1.384 . S
C259 H284 0.931 . S
C260 C259 1.384 . S
C260 C263 1.382 . S
C261 C259 1.384 . S
C261 C262 1.381 . S
C261 H285 0.930 . S
C262 C261 1.381 . S
C262 C264 1.381 . S
C262 C265 1.487 . S
C263 C260 1.382 . S
C263 C264 1.387 . S
C263 H286 0.930 . S
C264 C262 1.381 . S
C264 C263 1.387 . S
C264 H287 0.931 . S
C265 C258 1.399 . S
C265 C262 1.487 . S
C265 N297 1.343 . S
C266 C267 1.384 . S
C266 C268 1.384 . S
C266 H288 0.931 . S
C267 C266 1.384 . S
C267 C270 1.382 . S
C268 C266 1.384 . S
C268 C269 1.381 . S
C268 H289 0.930 . S
C269 C268 1.381 . S
C269 C271 1.381 . S
C269 C272 1.487 . S
C270 C267 1.382 . S
C270 C271 1.387 . S
C270 H290 0.930 . S
C271 C269 1.381 . S
C271 C270 1.387 . S
C271 H291 0.931 . S
C272 C269 1.487 . S
C272 C279 1.399 . S
C272 N297 1.343 . S
C273 C274 1.384 . S
C273 C275 1.384 . S
C273 H292 0.931 . S
C274 C273 1.384 . S
C274 C277 1.382 . S
C275 C273 1.384 . S
C275 C276 1.381 . S
C275 H293 0.930 . S
C276 C275 1.381 . S
C276 C278 1.381 . S
C276 C279 1.487 . S
C277 C274 1.382 . S
C277 C278 1.387 . S
C277 H294 0.930 . S
C278 C276 1.381 . S
C278 C277 1.387 . S
C278 H295 0.931 . S
C279 C272 1.399 . S
C279 C276 1.487 . S
C279 N296 1.343 . S
H280 C252 0.931 . S
H281 C254 0.930 . S
H282 C256 0.930 . S
H283 C257 0.931 . S
H284 C259 0.931 . S
H285 C261 0.930 . S
H286 C263 0.930 . S
H287 C264 0.931 . S
H288 C266 0.931 . S
H289 C268 0.930 . S
H290 C270 0.930 . S
H291 C271 0.931 . S
H292 C273 0.931 . S
H293 C275 0.930 . S
H294 C277 0.930 . S
H295 C278 0.931 . S
N296 C258 1.343 . S
N296 C279 1.343 . S
N297 C265 1.343 . S
N297 C272 1.343 . S
C298 C299 1.384 . S
C298 C300 1.384 . S
C298 H326 0.931 . S
C299 C298 1.384 . S
C299 C302 1.382 . S
C300 C298 1.384 . S
C300 C301 1.381 . S
C300 H327 0.930 . S
C301 C300 1.381 . S
C301 C303 1.381 . S
C301 C304 1.487 . S
C302 C299 1.382 . S
C302 C303 1.387 . S
C302 H328 0.930 . S
C303 C301 1.381 . S
C303 C302 1.387 . S
C303 H329 0.931 . S
C304 C301 1.487 . S
C304 C311 1.399 . S
C304 N342 1.343 . S
C305 C306 1.384 . S
C305 C307 1.384 . S
C305 H330 0.931 . S
C306 C305 1.384 . S
C306 C309 1.382 . S
C307 C305 1.384 . S
C307 C308 1.381 . S
C307 H331 0.930 . S
C308 C307 1.381 . S
C308 C310 1.381 . S
C308 C311 1.487 . S
C309 C306 1.382 . S
C309 C310 1.387 . S
C309 H332 0.930 . S
C310 C308 1.381 . S
C310 C309 1.387 . S
C310 H333 0.931 . S
C311 C304 1.399 . S
C311 C308 1.487 . S
C311 N343 1.343 . S
C312 C313 1.384 . S
C312 C314 1.384 . S
C312 H334 0.931 . S
C313 C312 1.384 . S
C313 C316 1.382 . S
C314 C312 1.384 . S
C314 C315 1.381 . S
C314 H335 0.930 . S
C315 C314 1.381 . S
C315 C317 1.381 . S
C315 C318 1.487 . S
C316 C313 1.382 . S
C316 C317 1.387 . S
C316 H336 0.930 . S
C317 C315 1.381 . S
C317 C316 1.387 . S
C317 H337 0.931 . S
C318 C315 1.487 . S
C318 C325 1.399 . S
C318 N343 1.343 . S
C319 C320 1.384 . S
C319 C321 1.384 . S
C319 H338 0.931 . S
C320 C319 1.384 . S
C320 C323 1.382 . S
C321 C319 1.384 . S
C321 C322 1.381 . S
C321 H339 0.930 . S
C322 C321 1.381 . S
C322 C324 1.381 . S
C322 C325 1.487 . S
C323 C320 1.382 . S
C323 C324 1.387 . S
C323 H340 0.930 . S
C324 C322 1.381 . S
C324 C323 1.387 . S
C324 H341 0.931 . S
C325 C318 1.399 . S
C325 C322 1.487 . S
C325 N342 1.343 . S
H326 C298 0.931 . S
H327 C300 0.930 . S
H328 C302 0.930 . S
H329 C303 0.931 . S
H330 C305 0.931 . S
H331 C307 0.930 . S
H332 C309 0.930 . S
H333 C310 0.931 . S
H334 C312 0.931 . S
H335 C314 0.930 . S
H336 C316 0.930 . S
H337 C317 0.931 . S
H338 C319 0.931 . S
H339 C321 0.930 . S
H340 C323 0.930 . S
H341 C324 0.931 . S
N342 C304 1.343 . S
N342 C325 1.343 . S
N343 C311 1.343 . S
N343 C318 1.343 . S
C344 C345 1.384 . S
C344 C346 1.384 . S
C344 H372 0.931 . S
C345 C344 1.384 . S
C345 C348 1.382 . S
C346 C344 1.384 . S
C346 C347 1.381 . S
C346 H373 0.930 . S
C347 C346 1.381 . S
C347 C349 1.381 . S
C347 C350 1.487 . S
C348 C345 1.382 . S
C348 C349 1.387 . S
C348 H374 0.930 . S
C349 C347 1.381 . S
C349 C348 1.387 . S
C349 H375 0.931 . S
C350 C347 1.487 . S
C350 C357 1.399 . S
C350 N388 1.343 . S
C351 C352 1.384 . S
C351 C353 1.384 . S
C351 H376 0.931 . S
C352 C351 1.384 . S
C352 C355 1.382 . S
C353 C351 1.384 . S
C353 C354 1.381 . S
C353 H377 0.930 . S
C354 C353 1.381 . S
C354 C356 1.381 . S
C354 C357 1.487 . S
C355 C352 1.382 . S
C355 C356 1.387 . S
C355 H378 0.930 . S
C356 C354 1.381 . S
C356 C355 1.387 . S
C356 H379 0.931 . S
C357 C350 1.399 . S
C357 C354 1.487 . S
C357 N389 1.343 . S
C358 C359 1.384 . S
C358 C360 1.384 . S
C358 H380 0.931 . S
C359 C358 1.384 . S
C359 C362 1.382 . S
C360 C358 1.384 . S
C360 C361 1.381 . S
C360 H381 0.930 . S
C361 C360 1.381 . S
C361 C363 1.381 . S
C361 C364 1.487 . S
C362 C359 1.382 . S
C362 C363 1.387 . S
C362 H382 0.930 . S
C363 C361 1.381 . S
C363 C362 1.387 . S
C363 H383 0.931 . S
C364 C361 1.487 . S
C364 C371 1.399 . S
C364 N389 1.343 . S
C365 C366 1.384 . S
C365 C367 1.384 . S
C365 H384 0.931 . S
C366 C365 1.384 . S
C366 C369 1.382 . S
C367 C365 1.384 . S
C367 C368 1.381 . S
C367 H385 0.930 . S
C368 C367 1.381 . S
C368 C370 1.381 . S
C368 C371 1.487 . S
C369 C366 1.382 . S
C369 C370 1.387 . S
C369 H386 0.930 . S
C370 C368 1.381 . S
C370 C369 1.387 . S
C370 H387 0.931 . S
C371 C364 1.399 . S
C371 C368 1.487 . S
C371 N388 1.343 . S
H372 C344 0.931 . S
H373 C346 0.930 . S
H374 C348 0.930 . S
H375 C349 0.931 . S
H376 C351 0.931 . S
H377 C353 0.930 . S
H378 C355 0.930 . S
H379 C356 0.931 . S
H380 C358 0.931 . S
H381 C360 0.930 . S
H382 C362 0.930 . S
H383 C363 0.931 . S
H384 C365 0.931 . S
H385 C367 0.930 . S
H386 C369 0.930 . S
H387 C370 0.931 . S
N388 C350 1.343 . S
N388 C371 1.343 . S
N389 C357 1.343 . S
N389 C364 1.343 . S
C390 C391 1.384 . S
C390 C392 1.384 . S
C390 H418 0.931 . S
C391 C390 1.384 . S
C391 C394 1.382 . S
C392 C390 1.384 . S
C392 C393 1.381 . S
C392 H419 0.930 . S
C393 C392 1.381 . S
C393 C395 1.381 . S
C393 C396 1.487 . S
C394 C391 1.382 . S
C394 C395 1.387 . S
C394 H420 0.930 . S
C395 C393 1.381 . S
C395 C394 1.387 . S
C395 H421 0.931 . S
C396 C393 1.487 . S
C396 C403 1.399 . S
C396 N434 1.343 . S
C397 C398 1.384 . S
C397 C399 1.384 . S
C397 H422 0.931 . S
C398 C397 1.384 . S
C398 C401 1.382 . S
C399 C397 1.384 . S
C399 C400 1.381 . S
C399 H423 0.930 . S
C400 C399 1.381 . S
C400 C402 1.381 . S
C400 C403 1.487 . S
C401 C398 1.382 . S
C401 C402 1.387 . S
C401 H424 0.930 . S
C402 C400 1.381 . S
C402 C401 1.387 . S
C402 H425 0.931 . S
C403 C396 1.399 . S
C403 C400 1.487 . S
C403 N435 1.343 . S
C404 C405 1.384 . S
C404 C406 1.384 . S
C404 H426 0.931 . S
C405 C404 1.384 . S
C405 C408 1.382 . S
C406 C404 1.384 . S
C406 C407 1.381 . S
C406 H427 0.930 . S
C407 C406 1.381 . S
C407 C409 1.381 . S
C407 C410 1.487 . S
C408 C405 1.382 . S
C408 C409 1.387 . S
C408 H428 0.930 . S
C409 C407 1.381 . S
C409 C408 1.387 . S
C409 H429 0.931 . S
C410 C407 1.487 . S
C410 C417 1.399 . S
C410 N435 1.343 . S
C411 C412 1.384 . S
C411 C413 1.384 . S
C411 H430 0.931 . S
C412 C411 1.384 . S
C412 C415 1.382 . S
C413 C411 1.384 . S
C413 C414 1.381 . S
C413 H431 0.930 . S
C414 C413 1.381 . S
C414 C416 1.381 . S
C414 C417 1.487 . S
C415 C412 1.382 . S
C415 C416 1.387 . S
C415 H432 0.930 . S
C416 C414 1.381 . S
C416 C415 1.387 . S
C416 H433 0.931 . S
C417 C410 1.399 . S
C417 C414 1.487 . S
C417 N434 1.343 . S
H418 C390 0.931 . S
H419 C392 0.930 . S
H420 C394 0.930 . S
H421 C395 0.931 . S
H422 C397 0.931 . S
H423 C399 0.930 . S
H424 C401 0.930 . S
H425 C402 0.931 . S
H426 C404 0.931 . S
H427 C406 0.930 . S
H428 C408 0.930 . S
H429 C409 0.931 . S
H430 C411 0.931 . S
H431 C413 0.930 . S
H432 C415 0.930 . S
H433 C416 0.931 . S
N434 C396 1.343 . S
N434 C417 1.343 . S
N435 C403 1.343 . S
N435 C410 1.343 . S
C436 C437 1.384 . S
C436 C438 1.384 . S
C436 H464 0.931 . S
C437 C436 1.384 . S
C437 C440 1.382 . S
C438 C436 1.384 . S
C438 C439 1.381 . S
C438 H465 0.930 . S
C439 C438 1.381 . S
C439 C441 1.381 . S
C439 C442 1.487 . S
C440 C437 1.382 . S
C440 C441 1.387 . S
C440 H466 0.930 . S
C441 C439 1.381 . S
C441 C440 1.387 . S
C441 H467 0.931 . S
C442 C439 1.487 . S
C442 C449 1.399 . S
C442 N480 1.343 . S
C443 C444 1.384 . S
C443 C445 1.384 . S
C443 H468 0.931 . S
C444 C443 1.384 . S
C444 C447 1.382 . S
C445 C443 1.384 . S
C445 C446 1.381 . S
C445 H469 0.930 . S
C446 C445 1.381 . S
C446 C448 1.381 . S
C446 C449 1.487 . S
C447 C444 1.382 . S
C447 C448 1.387 . S
C447 H470 0.930 . S
C448 C446 1.381 . S
C448 C447 1.387 . S
C448 H471 0.931 . S
C449 C442 1.399 . S
C449 C446 1.487 . S
C449 N481 1.343 . S
C450 C451 1.384 . S
C450 C452 1.384 . S
C450 H472 0.931 . S
C451 C450 1.384 . S
C451 C454 1.382 . S
C452 C450 1.384 . S
C452 C453 1.381 . S
C452 H473 0.930 . S
C453 C452 1.381 . S
C453 C455 1.381 . S
C453 C456 1.487 . S
C454 C451 1.382 . S
C454 C455 1.387 . S
C454 H474 0.930 . S
C455 C453 1.381 . S
C455 C454 1.387 . S
C455 H475 0.931 . S
C456 C453 1.487 . S
C456 C463 1.399 . S
C456 N481 1.343 . S
C457 C458 1.384 . S
C457 C459 1.384 . S
C457 H476 0.931 . S
C458 C457 1.384 . S
C458 C461 1.382 . S
C459 C457 1.384 . S
C459 C460 1.381 . S
C459 H477 0.930 . S
C460 C459 1.381 . S
C460 C462 1.381 . S
C460 C463 1.487 . S
C461 C458 1.382 . S
C461 C462 1.387 . S
C461 H478 0.930 . S
C462 C460 1.381 . S
C462 C461 1.387 . S
C462 H479 0.931 . S
C463 C456 1.399 . S
C463 C460 1.487 . S
C463 N480 1.343 . S
H464 C436 0.931 . S
H465 C438 0.930 . S
H466 C440 0.930 . S
H467 C441 0.931 . S
H468 C443 0.931 . S
H469 C445 0.930 . S
H470 C447 0.930 . S
H471 C448 0.931 . S
H472 C450 0.931 . S
H473 C452 0.930 . S
H474 C454 0.930 . S
H475 C455 0.931 . S
H476 C457 0.931 . S
H477 C459 0.930 . S
H478 C461 0.930 . S
H479 C462 0.931 . S
N480 C442 1.343 . S
N480 C463 1.343 . S
N481 C449 1.343 . S
N481 C456 1.343 . S
C482 C483 1.384 . S
C482 C484 1.384 . S
C482 H510 0.931 . S
C483 C482 1.384 . S
C483 C486 1.382 . S
C484 C482 1.384 . S
C484 C485 1.381 . S
C484 H511 0.930 . S
C485 C484 1.381 . S
C485 C487 1.381 . S
C485 C488 1.487 . S
C486 C483 1.382 . S
C486 C487 1.387 . S
C486 H512 0.930 . S
C487 C485 1.381 . S
C487 C486 1.387 . S
C487 H513 0.931 . S
C488 C485 1.487 . S
C488 C495 1.399 . S
C488 N526 1.343 . S
C489 C490 1.384 . S
C489 C491 1.384 . S
C489 H514 0.931 . S
C490 C489 1.384 . S
C490 C493 1.382 . S
C491 C489 1.384 . S
C491 C492 1.381 . S
C491 H515 0.930 . S
C492 C491 1.381 . S
C492 C494 1.381 . S
C492 C495 1.487 . S
C493 C490 1.382 . S
C493 C494 1.387 . S
C493 H516 0.930 . S
C494 C492 1.381 . S
C494 C493 1.387 . S
C494 H517 0.931 . S
C495 C488 1.399 . S
C495 C492 1.487 . S
C495 N527 1.343 . S
C496 C497 1.384 . S
C496 C498 1.384 . S
C496 H518 0.931 . S
C497 C496 1.384 . S
C497 C500 1.382 . S
C498 C496 1.384 . S
C498 C499 1.381 . S
C498 H519 0.930 . S
C499 C498 1.381 . S
C499 C501 1.381 . S
C499 C502 1.487 . S
C500 C497 1.382 . S
C500 C501 1.387 . S
C500 H520 0.930 . S
C501 C499 1.381 . S
C501 C500 1.387 . S
C501 H521 0.931 . S
C502 C499 1.487 . S
C502 C509 1.399 . S
C502 N527 1.343 . S
C503 C504 1.384 . S
C503 C505 1.384 . S
C503 H522 0.931 . S
C504 C503 1.384 . S
C504 C507 1.382 . S
C505 C503 1.384 . S
C505 C506 1.381 . S
C505 H523 0.930 . S
C506 C505 1.381 . S
C506 C508 1.381 . S
C506 C509 1.487 . S
C507 C504 1.382 . S
C507 C508 1.387 . S
C507 H524 0.930 . S
C508 C506 1.381 . S
C508 C507 1.387 . S
C508 H525 0.931 . S
C509 C502 1.399 . S
C509 C506 1.487 . S
C509 N526 1.343 . S
H510 C482 0.931 . S
H511 C484 0.930 . S
H512 C486 0.930 . S
H513 C487 0.931 . S
H514 C489 0.931 . S
H515 C491 0.930 . S
H516 C493 0.930 . S
H517 C494 0.931 . S
H518 C496 0.931 . S
H519 C498 0.930 . S
H520 C500 0.930 . S
H521 C501 0.931 . S
H522 C503 0.931 . S
H523 C505 0.930 . S
H524 C507 0.930 . S
H525 C508 0.931 . S
N526 C488 1.343 . S
N526 C509 1.343 . S
N527 C495 1.343 . S
N527 C502 1.343 . S
C528 C529 1.384 . S
C528 C530 1.384 . S
C528 H556 0.931 . S
C529 C528 1.384 . S
C529 C532 1.382 . S
C530 C528 1.384 . S
C530 C531 1.381 . S
C530 H557 0.930 . S
C531 C530 1.381 . S
C531 C533 1.381 . S
C531 C534 1.487 . S
C532 C529 1.382 . S
C532 C533 1.387 . S
C532 H558 0.930 . S
C533 C531 1.381 . S
C533 C532 1.387 . S
C533 H559 0.931 . S
C534 C531 1.487 . S
C534 C541 1.399 . S
C534 N572 1.343 . S
C535 C536 1.384 . S
C535 C537 1.384 . S
C535 H560 0.931 . S
C536 C535 1.384 . S
C536 C539 1.382 . S
C537 C535 1.384 . S
C537 C538 1.381 . S
C537 H561 0.930 . S
C538 C537 1.381 . S
C538 C540 1.381 . S
C538 C541 1.487 . S
C539 C536 1.382 . S
C539 C540 1.387 . S
C539 H562 0.930 . S
C540 C538 1.381 . S
C540 C539 1.387 . S
C540 H563 0.931 . S
C541 C534 1.399 . S
C541 C538 1.487 . S
C541 N573 1.343 . S
C542 C543 1.384 . S
C542 C544 1.384 . S
C542 H564 0.931 . S
C543 C542 1.384 . S
C543 C546 1.382 . S
C544 C542 1.384 . S
C544 C545 1.381 . S
C544 H565 0.930 . S
C545 C544 1.381 . S
C545 C547 1.381 . S
C545 C548 1.487 . S
C546 C543 1.382 . S
C546 C547 1.387 . S
C546 H566 0.930 . S
C547 C545 1.381 . S
C547 C546 1.387 . S
C547 H567 0.931 . S
C548 C545 1.487 . S
C548 C555 1.399 . S
C548 N573 1.343 . S
C549 C550 1.384 . S
C549 C551 1.384 . S
C549 H568 0.931 . S
C550 C549 1.384 . S
C550 C553 1.382 . S
C551 C549 1.384 . S
C551 C552 1.381 . S
C551 H569 0.930 . S
C552 C551 1.381 . S
C552 C554 1.381 . S
C552 C555 1.487 . S
C553 C550 1.382 . S
C553 C554 1.387 . S
C553 H570 0.930 . S
C554 C552 1.381 . S
C554 C553 1.387 . S
C554 H571 0.931 . S
C555 C548 1.399 . S
C555 C552 1.487 . S
C555 N572 1.343 . S
H556 C528 0.931 . S
H557 C530 0.930 . S
H558 C532 0.930 . S
H559 C533 0.931 . S
H560 C535 0.931 . S
H561 C537 0.930 . S
H562 C539 0.930 . S
H563 C540 0.931 . S
H564 C542 0.931 . S
H565 C544 0.930 . S
H566 C546 0.930 . S
H567 C547 0.931 . S
H568 C549 0.931 . S
H569 C551 0.930 . S
H570 C553 0.930 . S
H571 C554 0.931 . S
N572 C534 1.343 . S
N572 C555 1.343 . S
N573 C541 1.343 . S
N573 C548 1.343 . S
C574 C575 1.384 . S
C574 C576 1.384 . S
C574 H602 0.931 . S
C575 C574 1.384 . S
C575 C578 1.382 . S
C576 C574 1.384 . S
C576 C577 1.381 . S
C576 H603 0.930 . S
C577 C576 1.381 . S
C577 C579 1.381 . S
C577 C580 1.487 . S
C578 C575 1.382 . S
C578 C579 1.387 . S
C578 H604 0.930 . S
C579 C577 1.381 . S
C579 C578 1.387 . S
C579 H605 0.931 . S
C580 C577 1.487 . S
C580 C587 1.399 . S
C580 N618 1.343 . S
C581 C582 1.384 . S
C581 C583 1.384 . S
C581 H606 0.931 . S
C582 C581 1.384 . S
C582 C585 1.382 . S
C583 C581 1.384 . S
C583 C584 1.381 . S
C583 H607 0.930 . S
C584 C583 1.381 . S
C584 C586 1.381 . S
C584 C587 1.487 . S
C585 C582 1.382 . S
C585 C586 1.387 . S
C585 H608 0.930 . S
C586 C584 1.381 . S
C586 C585 1.387 . S
C586 H609 0.931 . S
C587 C580 1.399 . S
C587 C584 1.487 . S
C587 N619 1.343 . S
C588 C589 1.384 . S
C588 C590 1.384 . S
C588 H610 0.931 . S
C589 C588 1.384 . S
C589 C592 1.382 . S
C590 C588 1.384 . S
C590 C591 1.381 . S
C590 H611 0.930 . S
C591 C590 1.381 . S
C591 C593 1.381 . S
C591 C594 1.487 . S
C592 C589 1.382 . S
C592 C593 1.387 . S
C592 H612 0.930 . S
C593 C591 1.381 . S
C593 C592 1.387 . S
C593 H613 0.931 . S
C594 C591 1.487 . S
C594 C601 1.399 . S
C594 N619 1.343 . S
C595 C596 1.384 . S
C595 C597 1.384 . S
C595 H614 0.931 . S
C596 C595 1.384 . S
C596 C599 1.382 . S
C597 C595 1.384 . S
C597 C598 1.381 . S
C597 H615 0.930 . S
C598 C597 1.381 . S
C598 C600 1.381 . S
C598 C601 1.487 . S
C599 C596 1.382 . S
C599 C600 1.387 . S
C599 H616 0.930 . S
C600 C598 1.381 . S
C600 C599 1.387 . S
C600 H617 0.931 . S
C601 C594 1.399 . S
C601 C598 1.487 . S
C601 N618 1.343 . S
H602 C574 0.931 . S
H603 C576 0.930 . S
H604 C578 0.930 . S
H605 C579 0.931 . S
H606 C581 0.931 . S
H607 C583 0.930 . S
H608 C585 0.930 . S
H609 C586 0.931 . S
H610 C588 0.931 . S
H611 C590 0.930 . S
H612 C592 0.930 . S
H613 C593 0.931 . S
H614 C595 0.931 . S
H615 C597 0.930 . S
H616 C599 0.930 . S
H617 C600 0.931 . S
N618 C580 1.343 . S
N618 C601 1.343 . S
N619 C587 1.343 . S
N619 C594 1.343 . S
C620 C621 1.384 . S
C620 C622 1.384 . S
C620 H648 0.931 . S
C621 C620 1.384 . S
C621 C624 1.382 . S
C622 C620 1.384 . S
C622 C623 1.381 . S
C622 H649 0.930 . S
C623 C622 1.381 . S
C623 C625 1.381 . S
C623 C626 1.487 . S
C624 C621 1.382 . S
C624 C625 1.387 . S
C624 H650 0.930 . S
C625 C623 1.381 . S
C625 C624 1.387 . S
C625 H651 0.931 . S
C626 C623 1.487 . S
C626 C633 1.399 . S
C626 N664 1.343 . S
C627 C628 1.384 . S
C627 C629 1.384 . S
C627 H652 0.931 . S
C628 C627 1.384 . S
C628 C631 1.382 . S
C629 C627 1.384 . S
C629 C630 1.381 . S
C629 H653 0.930 . S
C630 C629 1.381 . S
C630 C632 1.381 . S
C630 C633 1.487 . S
C631 C628 1.382 . S
C631 C632 1.387 . S
C631 H654 0.930 . S
C632 C630 1.381 . S
C632 C631 1.387 . S
C632 H655 0.931 . S
C633 C626 1.399 . S
C633 C630 1.487 . S
C633 N665 1.343 . S
C634 C635 1.384 . S
C634 C636 1.384 . S
C634 H656 0.931 . S
C635 C634 1.384 . S
C635 C638 1.382 . S
C636 C634 1.384 . S
C636 C637 1.381 . S
C636 H657 0.930 . S
C637 C636 1.381 . S
C637 C639 1.381 . S
C637 C640 1.487 . S
C638 C635 1.382 . S
C638 C639 1.387 . S
C638 H658 0.930 . S
C639 C637 1.381 . S
C639 C638 1.387 . S
C639 H659 0.931 . S
C640 C637 1.487 . S
C640 C647 1.399 . S
C640 N665 1.343 . S
C641 C642 1.384 . S
C641 C643 1.384 . S
C641 H660 0.931 . S
C642 C641 1.384 . S
C642 C645 1.382 . S
C643 C641 1.384 . S
C643 C644 1.381 . S
C643 H661 0.930 . S
C644 C643 1.381 . S
C644 C646 1.381 . S
C644 C647 1.487 . S
C645 C642 1.382 . S
C645 C646 1.387 . S
C645 H662 0.930 . S
C646 C644 1.381 . S
C646 C645 1.387 . S
C646 H663 0.931 . S
C647 C640 1.399 . S
C647 C644 1.487 . S
C647 N664 1.343 . S
H648 C620 0.931 . S
H649 C622 0.930 . S
H650 C624 0.930 . S
H651 C625 0.931 . S
H652 C627 0.931 . S
H653 C629 0.930 . S
H654 C631 0.930 . S
H655 C632 0.931 . S
H656 C634 0.931 . S
H657 C636 0.930 . S
H658 C638 0.930 . S
H659 C639 0.931 . S
H660 C641 0.931 . S
H661 C643 0.930 . S
H662 C645 0.930 . S
H663 C646 0.931 . S
N664 C626 1.343 . S
N664 C647 1.343 . S
N665 C633 1.343 . S
N665 C640 1.343 . S
C666 C667 1.384 . S
C666 C668 1.384 . S
C666 H694 0.931 . S
C667 C666 1.384 . S
C667 C670 1.382 1_655 S
C668 C666 1.384 . S
C668 C669 1.403 . S
C668 H695 0.930 . S
C669 C668 1.403 . S
C669 C671 1.370 1_655 S
C669 C672 1.474 1_655 S
C670 C667 1.382 1_455 S
C670 C671 1.387 . S
C670 H696 0.930 . S
C671 C669 1.370 1_455 S
C671 C670 1.387 . S
C671 H697 0.931 . S
C672 C669 1.474 1_455 S
C672 C679 1.399 1_455 S
C672 N710 1.312 . S
C673 C674 1.384 . S
C673 C675 1.384 . S
C673 H698 0.931 . S
C674 C673 1.384 . S
C674 C677 1.382 1_455 S
C675 C673 1.384 . S
C675 C676 1.380 . S
C675 H699 0.930 . S
C676 C675 1.380 . S
C676 C678 1.384 1_455 S
C676 C679 1.489 1_455 S
C677 C674 1.382 1_655 S
C677 C678 1.387 . S
C677 H700 0.930 . S
C678 C676 1.384 1_655 S
C678 C677 1.387 . S
C678 H701 0.931 . S
C679 C672 1.399 1_655 S
C679 C676 1.489 1_655 S
C679 N711 1.361 . S
C680 C681 1.384 . S
C680 C682 1.384 . S
C680 H702 0.931 . S
C681 C680 1.384 . S
C681 C684 1.382 1_455 S
C682 C680 1.384 . S
C682 C683 1.424 . S
C682 H703 0.930 . S
C683 C682 1.424 . S
C683 C685 1.360 1_455 S
C683 C686 1.465 . S
C684 C681 1.382 1_655 S
C684 C685 1.387 . S
C684 H704 0.930 . S
C685 C683 1.360 1_655 S
C685 C684 1.387 . S
C685 H705 0.931 . S
C686 C683 1.465 . S
C686 C693 1.398 . S
C686 N711 1.322 1_455 S
C687 C688 1.384 . S
C687 C689 1.384 . S
C687 H706 0.931 . S
C688 C687 1.384 . S
C688 C691 1.382 1_655 S
C689 C687 1.384 . S
C689 C690 1.380 1_655 S
C689 H707 0.930 . S
C690 C689 1.380 1_455 S
C690 C692 1.384 . S
C690 C693 1.498 . S
C691 C688 1.382 1_455 S
C691 C692 1.387 . S
C691 H708 0.930 . S
C692 C690 1.384 . S
C692 C691 1.387 . S
C692 H709 0.931 . S
C693 C686 1.398 . S
C693 C690 1.498 . S
C693 N710 1.361 . S
H694 C666 0.931 . S
H695 C668 0.930 . S
H696 C670 0.930 . S
H697 C671 0.931 . S
H698 C673 0.931 . S
H699 C675 0.930 . S
H700 C677 0.930 . S
H701 C678 0.931 . S
H702 C680 0.931 . S
H703 C682 0.930 . S
H704 C684 0.930 . S
H705 C685 0.931 . S
H706 C687 0.931 . S
H707 C689 0.930 . S
H708 C691 0.930 . S
H709 C692 0.931 . S
N710 C672 1.312 . S
N710 C693 1.361 . S
N711 C679 1.361 . S
N711 C686 1.322 1_655 S
C712 C713 1.384 . S
C712 C714 1.384 . S
C712 H740 0.931 . S
C713 C712 1.384 . S
C713 C716 1.382 . S
C714 C712 1.384 . S
C714 C715 1.381 . S
C714 H741 0.930 . S
C715 C714 1.381 . S
C715 C717 1.381 . S
C715 C718 1.487 . S
C716 C713 1.382 . S
C716 C717 1.387 . S
C716 H742 0.930 . S
C717 C715 1.381 . S
C717 C716 1.387 . S
C717 H743 0.931 . S
C718 C715 1.487 . S
C718 C725 1.399 . S
C718 N756 1.343 . S
C719 C720 1.384 . S
C719 C721 1.384 . S
C719 H744 0.931 . S
C720 C719 1.384 . S
C720 C723 1.382 . S
C721 C719 1.384 . S
C721 C722 1.381 . S
C721 H745 0.930 . S
C722 C721 1.381 . S
C722 C724 1.381 . S
C722 C725 1.487 . S
C723 C720 1.382 . S
C723 C724 1.387 . S
C723 H746 0.930 . S
C724 C722 1.381 . S
C724 C723 1.387 . S
C724 H747 0.931 . S
C725 C718 1.399 . S
C725 C722 1.487 . S
C725 N757 1.343 . S
C726 C727 1.384 . S
C726 C728 1.384 . S
C726 H748 0.931 . S
C727 C726 1.384 . S
C727 C730 1.382 . S
C728 C726 1.384 . S
C728 C729 1.381 . S
C728 H749 0.930 . S
C729 C728 1.381 . S
C729 C731 1.381 . S
C729 C732 1.487 . S
C730 C727 1.382 . S
C730 C731 1.387 . S
C730 H750 0.930 . S
C731 C729 1.381 . S
C731 C730 1.387 . S
C731 H751 0.931 . S
C732 C729 1.487 . S
C732 C739 1.399 . S
C732 N757 1.343 . S
C733 C734 1.384 . S
C733 C735 1.384 . S
C733 H752 0.931 . S
C734 C733 1.384 . S
C734 C737 1.382 . S
C735 C733 1.384 . S
C735 C736 1.381 . S
C735 H753 0.930 . S
C736 C735 1.381 . S
C736 C738 1.381 . S
C736 C739 1.487 . S
C737 C734 1.382 . S
C737 C738 1.387 . S
C737 H754 0.930 . S
C738 C736 1.381 . S
C738 C737 1.387 . S
C738 H755 0.931 . S
C739 C732 1.399 . S
C739 C736 1.487 . S
C739 N756 1.343 . S
H740 C712 0.931 . S
H741 C714 0.930 . S
H742 C716 0.930 . S
H743 C717 0.931 . S
H744 C719 0.931 . S
H745 C721 0.930 . S
H746 C723 0.930 . S
H747 C724 0.931 . S
H748 C726 0.931 . S
H749 C728 0.930 . S
H750 C730 0.930 . S
H751 C731 0.931 . S
H752 C733 0.931 . S
H753 C735 0.930 . S
H754 C737 0.930 . S
H755 C738 0.931 . S
N756 C718 1.343 . S
N756 C739 1.343 . S
N757 C725 1.343 . S
N757 C732 1.343 . S
C758 C759 1.384 1_545 S
C758 C760 1.384 . S
C758 H786 0.931 . S
C759 C758 1.384 1_565 S
C759 C762 1.382 . S
C760 C758 1.384 . S
C760 C761 1.381 1_545 S
C760 H787 0.930 . S
C761 C760 1.381 1_565 S
C761 C763 1.381 . S
C761 C764 1.487 . S
C762 C759 1.382 . S
C762 C763 1.387 . S
C762 H788 0.930 . S
C763 C761 1.381 . S
C763 C762 1.387 . S
C763 H789 0.931 . S
C764 C761 1.487 . S
C764 C771 1.399 1_565 S
C764 N802 1.343 . S
C765 C766 1.384 1_565 S
C765 C767 1.384 . S
C765 H790 0.931 . S
C766 C765 1.384 1_545 S
C766 C769 1.382 . S
C767 C765 1.384 . S
C767 C768 1.381 1_565 S
C767 H791 0.930 . S
C768 C767 1.381 1_545 S
C768 C770 1.381 . S
C768 C771 1.487 . S
C769 C766 1.382 . S
C769 C770 1.387 . S
C769 H792 0.930 . S
C770 C768 1.381 . S
C770 C769 1.387 . S
C770 H793 0.931 . S
C771 C764 1.399 1_545 S
C771 C768 1.487 . S
C771 N803 1.343 . S
C772 C773 1.384 1_565 S
C772 C774 1.384 . S
C772 H794 0.931 . S
C773 C772 1.384 1_545 S
C773 C776 1.382 . S
C774 C772 1.384 . S
C774 C775 1.381 1_565 S
C774 H795 0.930 . S
C775 C774 1.381 1_545 S
C775 C777 1.381 . S
C775 C778 1.457 . S
C776 C773 1.382 . S
C776 C777 1.387 . S
C776 H796 0.930 . S
C777 C775 1.381 . S
C777 C776 1.387 . S
C777 H797 0.931 . S
C778 C775 1.457 . S
C778 C785 1.391 1_545 S
C778 N803 1.388 . S
C779 C780 1.384 1_545 S
C779 C781 1.384 . S
C779 H798 0.931 . S
C780 C779 1.384 1_565 S
C780 C783 1.382 . S
C781 C779 1.384 . S
C781 C782 1.381 1_545 S
C781 H799 0.930 . S
C782 C781 1.381 1_565 S
C782 C784 1.381 . S
C782 C785 1.487 . S
C783 C780 1.382 . S
C783 C784 1.387 . S
C783 H800 0.930 . S
C784 C782 1.381 . S
C784 C783 1.387 . S
C784 H801 0.931 . S
C785 C778 1.391 1_565 S
C785 C782 1.487 . S
C785 N802 1.343 . S
H786 C758 0.931 . S
H787 C760 0.930 . S
H788 C762 0.930 . S
H789 C763 0.931 . S
H790 C765 0.931 . S
H791 C767 0.930 . S
H792 C769 0.930 . S
H793 C770 0.931 . S
H794 C772 0.931 . S
H795 C774 0.930 . S
H796 C776 0.930 . S
H797 C777 0.931 . S
H798 C779 0.931 . S
H799 C781 0.930 . S
H800 C783 0.930 . S
H801 C784 0.931 . S
N802 C764 1.343 . S
N802 C785 1.343 . S
N803 C771 1.343 . S
N803 C778 1.388 . S
C804 C805 1.434 . S
C804 C806 1.384 . S
C804 H832 0.931 . S
C805 C804 1.434 . S
C805 C808 1.369 1_545 S
C806 C804 1.384 . S
C806 C807 1.380 1_545 S
C806 H833 0.930 . S
C807 C806 1.380 1_565 S
C807 C809 1.388 . S
C807 C810 1.492 . S
C808 C805 1.369 1_565 S
C808 C809 1.387 . S
C808 H834 0.930 . S
C809 C807 1.388 . S
C809 C808 1.387 . S
C809 H835 0.931 . S
C810 C807 1.492 . S
C810 C817 1.399 1_565 S
C810 N848 1.359 . S
C811 C812 1.384 . S
C811 C813 1.384 . S
C811 H836 0.931 . S
C812 C811 1.384 . S
C812 C815 1.382 1_565 S
C813 C811 1.384 . S
C813 C814 1.414 . S
C813 H837 0.930 . S
C814 C813 1.414 . S
C814 C816 1.365 1_565 S
C814 C817 1.471 1_565 S
C815 C812 1.382 1_545 S
C815 C816 1.387 . S
C815 H838 0.930 . S
C816 C814 1.365 1_545 S
C816 C815 1.387 . S
C816 H839 0.931 . S
C817 C810 1.399 1_545 S
C817 C814 1.471 1_545 S
C817 N849 1.306 . S
C818 C819 1.422 . S
C818 C820 1.384 . S
C818 H840 0.931 . S
C819 C818 1.422 . S
C819 C822 1.372 1_565 S
C820 C818 1.384 . S
C820 C821 1.376 1_565 S
C820 H841 0.930 . S
C821 C820 1.376 1_545 S
C821 C823 1.400 . S
C821 C824 1.492 . S
C822 C819 1.372 1_545 S
C822 C823 1.387 . S
C822 H842 0.930 . S
C823 C821 1.400 . S
C823 C822 1.387 . S
C823 H843 0.931 . S
C824 C821 1.492 . S
C824 C831 1.399 . S
C824 N849 1.359 . S
C825 C826 1.384 . S
C825 C827 1.384 . S
C825 H844 0.931 . S
C826 C825 1.384 . S
C826 C829 1.382 1_545 S
C827 C825 1.384 . S
C827 C828 1.435 . S
C827 H845 0.930 . S
C828 C827 1.435 . S
C828 C830 1.355 1_545 S
C828 C831 1.462 . S
C829 C826 1.382 1_565 S
C829 C830 1.387 . S
C829 H846 0.930 . S
C830 C828 1.355 1_565 S
C830 C829 1.387 . S
C830 H847 0.931 . S
C831 C824 1.399 . S
C831 C828 1.462 . S
C831 N848 1.316 1_545 S
H832 C804 0.931 . S
H833 C806 0.930 . S
H834 C808 0.930 . S
H835 C809 0.931 . S
H836 C811 0.931 . S
H837 C813 0.930 . S
H838 C815 0.930 . S
H839 C816 0.931 . S
H840 C818 0.931 . S
H841 C820 0.930 . S
H842 C822 0.930 . S
H843 C823 0.931 . S
H844 C825 0.931 . S
H845 C827 0.930 . S
H846 C829 0.930 . S
H847 C830 0.931 . S
N848 C810 1.359 . S
N848 C831 1.316 1_565 S
N849 C817 1.306 . S
N849 C824 1.359 . S
C850 C851 1.384 . S
C850 C852 1.384 . S
C850 H878 0.931 . S
C851 C850 1.384 . S
C851 C854 1.382 1_655 S
C852 C850 1.384 . S
C852 C853 1.438 . S
C852 H879 0.930 . S
C853 C852 1.438 . S
C853 C855 1.354 1_655 S
C853 C856 1.461 . S
C854 C851 1.382 1_455 S
C854 C855 1.387 . S
C854 H880 0.930 . S
C855 C853 1.354 1_455 S
C855 C854 1.387 . S
C855 H881 0.931 . S
C856 C853 1.461 . S
C856 C863 1.399 . S
C856 N894 1.325 1_655 S
C857 C858 1.384 . S
C857 C859 1.384 . S
C857 H882 0.931 . S
C858 C857 1.384 . S
C858 C861 1.382 1_455 S
C859 C857 1.384 . S
C859 C860 1.383 1_455 S
C859 H883 0.930 . S
C860 C859 1.383 1_655 S
C860 C862 1.377 . S
C860 C863 1.501 . S
C861 C858 1.382 1_655 S
C861 C862 1.387 . S
C861 H884 0.930 . S
C862 C860 1.377 . S
C862 C861 1.387 . S
C862 H885 0.931 . S
C863 C856 1.399 . S
C863 C860 1.501 . S
C863 N895 1.359 . S
C864 C865 1.384 . S
C864 C866 1.384 . S
C864 H886 0.931 . S
C865 C864 1.384 . S
C865 C868 1.382 1_455 S
C866 C864 1.384 . S
C866 C867 1.417 . S
C866 H887 0.930 . S
C867 C866 1.417 . S
C867 C869 1.363 1_455 S
C867 C870 1.470 1_455 S
C868 C865 1.382 1_655 S
C868 C869 1.387 . S
C868 H888 0.930 . S
C869 C867 1.363 1_655 S
C869 C868 1.387 . S
C869 H889 0.931 . S
C870 C867 1.470 1_655 S
C870 C877 1.399 1_655 S
C870 N895 1.315 . S
C871 C872 1.384 . S
C871 C873 1.384 . S
C871 H890 0.931 . S
C872 C871 1.384 . S
C872 C875 1.382 1_655 S
C873 C871 1.384 . S
C873 C874 1.383 . S
C873 H891 0.930 . S
C874 C873 1.383 . S
C874 C876 1.377 1_655 S
C874 C877 1.492 1_655 S
C875 C872 1.382 1_455 S
C875 C876 1.387 . S
C875 H892 0.930 . S
C876 C874 1.377 1_455 S
C876 C875 1.387 . S
C876 H893 0.931 . S
C877 C870 1.399 1_455 S
C877 C874 1.492 1_455 S
C877 N894 1.359 . S
H878 C850 0.931 . S
H879 C852 0.930 . S
H880 C854 0.930 . S
H881 C855 0.931 . S
H882 C857 0.931 . S
H883 C859 0.930 . S
H884 C861 0.930 . S
H885 C862 0.931 . S
H886 C864 0.931 . S
H887 C866 0.930 . S
H888 C868 0.930 . S
H889 C869 0.931 . S
H890 C871 0.931 . S
H891 C873 0.930 . S
H892 C875 0.930 . S
H893 C876 0.931 . S
N894 C856 1.325 1_455 S
N894 C877 1.359 . S
N895 C863 1.359 . S
N895 C870 1.315 . S
C896 C897 1.384 . S
C896 C898 1.384 . S
C896 H924 0.931 . S
C897 C896 1.384 . S
C897 C900 1.382 . S
C898 C896 1.384 . S
C898 C899 1.381 . S
C898 H925 0.930 . S
C899 C898 1.381 . S
C899 C901 1.381 . S
C899 C902 1.487 . S
C900 C897 1.382 . S
C900 C901 1.387 . S
C900 H926 0.930 . S
C901 C899 1.381 . S
C901 C900 1.387 . S
C901 H927 0.931 . S
C902 C899 1.487 . S
C902 C909 1.399 . S
C902 N940 1.343 . S
C903 C904 1.384 . S
C903 C905 1.384 . S
C903 H928 0.931 . S
C904 C903 1.384 . S
C904 C907 1.382 . S
C905 C903 1.384 . S
C905 C906 1.381 . S
C905 H929 0.930 . S
C906 C905 1.381 . S
C906 C908 1.381 . S
C906 C909 1.487 . S
C907 C904 1.382 . S
C907 C908 1.387 . S
C907 H930 0.930 . S
C908 C906 1.381 . S
C908 C907 1.387 . S
C908 H931 0.931 . S
C909 C902 1.399 . S
C909 C906 1.487 . S
C909 N941 1.343 . S
C910 C911 1.384 . S
C910 C912 1.384 . S
C910 H932 0.931 . S
C911 C910 1.384 . S
C911 C914 1.382 . S
C912 C910 1.384 . S
C912 C913 1.381 . S
C912 H933 0.930 . S
C913 C912 1.381 . S
C913 C915 1.381 . S
C913 C916 1.487 . S
C914 C911 1.382 . S
C914 C915 1.387 . S
C914 H934 0.930 . S
C915 C913 1.381 . S
C915 C914 1.387 . S
C915 H935 0.931 . S
C916 C913 1.487 . S
C916 C923 1.399 . S
C916 N941 1.343 . S
C917 C918 1.384 . S
C917 C919 1.384 . S
C917 H936 0.931 . S
C918 C917 1.384 . S
C918 C921 1.382 . S
C919 C917 1.384 . S
C919 C920 1.381 . S
C919 H937 0.930 . S
C920 C919 1.381 . S
C920 C922 1.381 . S
C920 C923 1.487 . S
C921 C918 1.382 . S
C921 C922 1.387 . S
C921 H938 0.930 . S
C922 C920 1.381 . S
C922 C921 1.387 . S
C922 H939 0.931 . S
C923 C916 1.399 . S
C923 C920 1.487 . S
C923 N940 1.343 . S
H924 C896 0.931 . S
H925 C898 0.930 . S
H926 C900 0.930 . S
H927 C901 0.931 . S
H928 C903 0.931 . S
H929 C905 0.930 . S
H930 C907 0.930 . S
H931 C908 0.931 . S
H932 C910 0.931 . S
H933 C912 0.930 . S
H934 C914 0.930 . S
H935 C915 0.931 . S
H936 C917 0.931 . S
H937 C919 0.930 . S
H938 C921 0.930 . S
H939 C922 0.931 . S
N940 C902 1.343 . S
N940 C923 1.343 . S
N941 C909 1.343 . S
N941 C916 1.343 . S
C942 C943 1.384 . S
C942 C944 1.384 . S
C942 H970 0.931 . S
C943 C942 1.384 . S
C943 C946 1.382 . S
C944 C942 1.384 . S
C944 C945 1.381 . S
C944 H971 0.930 . S
C945 C944 1.381 . S
C945 C947 1.381 . S
C945 C948 1.487 . S
C946 C943 1.382 . S
C946 C947 1.387 . S
C946 H972 0.930 . S
C947 C945 1.381 . S
C947 C946 1.387 . S
C947 H973 0.931 . S
C948 C945 1.487 . S
C948 C955 1.399 . S
C948 N986 1.343 . S
C949 C950 1.384 . S
C949 C951 1.384 . S
C949 H974 0.931 . S
C950 C949 1.384 . S
C950 C953 1.382 . S
C951 C949 1.384 . S
C951 C952 1.381 . S
C951 H975 0.930 . S
C952 C951 1.381 . S
C952 C954 1.381 . S
C952 C955 1.487 . S
C953 C950 1.382 . S
C953 C954 1.387 . S
C953 H976 0.930 . S
C954 C952 1.381 . S
C954 C953 1.387 . S
C954 H977 0.931 . S
C955 C948 1.399 . S
C955 C952 1.487 . S
C955 N987 1.343 . S
C956 C957 1.384 . S
C956 C958 1.384 . S
C956 H978 0.931 . S
C957 C956 1.384 . S
C957 C960 1.382 . S
C958 C956 1.384 . S
C958 C959 1.381 . S
C958 H979 0.930 . S
C959 C958 1.381 . S
C959 C961 1.381 . S
C959 C962 1.487 . S
C960 C957 1.382 . S
C960 C961 1.387 . S
C960 H980 0.930 . S
C961 C959 1.381 . S
C961 C960 1.387 . S
C961 H981 0.931 . S
C962 C959 1.487 . S
C962 C969 1.399 . S
C962 N987 1.343 . S
C963 C964 1.384 . S
C963 C965 1.384 . S
C963 H982 0.931 . S
C964 C963 1.384 . S
C964 C967 1.382 . S
C965 C963 1.384 . S
C965 C966 1.381 . S
C965 H983 0.930 . S
C966 C965 1.381 . S
C966 C968 1.381 . S
C966 C969 1.487 . S
C967 C964 1.382 . S
C967 C968 1.387 . S
C967 H984 0.930 . S
C968 C966 1.381 . S
C968 C967 1.387 . S
C968 H985 0.931 . S
C969 C962 1.399 . S
C969 C966 1.487 . S
C969 N986 1.343 . S
H970 C942 0.931 . S
H971 C944 0.930 . S
H972 C946 0.930 . S
H973 C947 0.931 . S
H974 C949 0.931 . S
H975 C951 0.930 . S
H976 C953 0.930 . S
H977 C954 0.931 . S
H978 C956 0.931 . S
H979 C958 0.930 . S
H980 C960 0.930 . S
H981 C961 0.931 . S
H982 C963 0.931 . S
H983 C965 0.930 . S
H984 C967 0.930 . S
H985 C968 0.931 . S
N986 C948 1.343 . S
N986 C969 1.343 . S
N987 C955 1.343 . S
N987 C962 1.343 . S
C988 C989 1.384 . S
C988 C990 1.384 . S
C988 H1016 0.931 . S
C989 C988 1.384 . S
C989 C992 1.382 . S
C990 C988 1.384 . S
C990 C991 1.381 . S
C990 H1017 0.930 . S
C991 C990 1.381 . S
C991 C993 1.381 . S
C991 C994 1.487 . S
C992 C989 1.382 . S
C992 C993 1.387 . S
C992 H1018 0.930 . S
C993 C991 1.381 . S
C993 C992 1.387 . S
C993 H1019 0.931 . S
C994 C991 1.487 . S
C994 C1001 1.399 . S
C994 N1032 1.343 . S
C995 C996 1.384 . S
C995 C997 1.384 . S
C995 H1020 0.931 . S
C996 C995 1.384 . S
C996 C999 1.382 . S
C997 C995 1.384 . S
C997 C998 1.381 . S
C997 H1021 0.930 . S
C998 C997 1.381 . S
C998 C1000 1.381 . S
C998 C1001 1.487 . S
C999 C996 1.382 . S
C999 C1000 1.387 . S
C999 H1022 0.930 . S
C1000 C998 1.381 . S
C1000 C999 1.387 . S
C1000 H1023 0.931 . S
C1001 C994 1.399 . S
C1001 C998 1.487 . S
C1001 N1033 1.343 . S
C1002 C1003 1.384 . S
C1002 C1004 1.384 . S
C1002 H1024 0.931 . S
C1003 C1002 1.384 . S
C1003 C1006 1.382 . S
C1004 C1002 1.384 . S
C1004 C1005 1.381 . S
C1004 H1025 0.930 . S
C1005 C1004 1.381 . S
C1005 C1007 1.381 . S
C1005 C1008 1.487 . S
C1006 C1003 1.382 . S
C1006 C1007 1.387 . S
C1006 H1026 0.930 . S
C1007 C1005 1.381 . S
C1007 C1006 1.387 . S
C1007 H1027 0.931 . S
C1008 C1005 1.487 . S
C1008 C1015 1.399 . S
C1008 N1033 1.343 . S
C1009 C1010 1.384 . S
C1009 C1011 1.384 . S
C1009 H1028 0.931 . S
C1010 C1009 1.384 . S
C1010 C1013 1.382 . S
C1011 C1009 1.384 . S
C1011 C1012 1.381 . S
C1011 H1029 0.930 . S
C1012 C1011 1.381 . S
C1012 C1014 1.381 . S
C1012 C1015 1.487 . S
C1013 C1010 1.382 . S
C1013 C1014 1.387 . S
C1013 H1030 0.930 . S
C1014 C1012 1.381 . S
C1014 C1013 1.387 . S
C1014 H1031 0.931 . S
C1015 C1008 1.399 . S
C1015 C1012 1.487 . S
C1015 N1032 1.343 . S
H1016 C988 0.931 . S
H1017 C990 0.930 . S
H1018 C992 0.930 . S
H1019 C993 0.931 . S
H1020 C995 0.931 . S
H1021 C997 0.930 . S
H1022 C999 0.930 . S
H1023 C1000 0.931 . S
H1024 C1002 0.931 . S
H1025 C1004 0.930 . S
H1026 C1006 0.930 . S
H1027 C1007 0.931 . S
H1028 C1009 0.931 . S
H1029 C1011 0.930 . S
H1030 C1013 0.930 . S
H1031 C1014 0.931 . S
N1032 C994 1.343 . S
N1032 C1015 1.343 . S
N1033 C1001 1.343 . S
N1033 C1008 1.343 . S
C1034 C1035 1.384 . S
C1034 C1036 1.384 . S
C1034 H1062 0.931 . S
C1035 C1034 1.384 . S
C1035 C1038 1.382 . S
C1036 C1034 1.384 . S
C1036 C1037 1.381 . S
C1036 H1063 0.930 . S
C1037 C1036 1.381 . S
C1037 C1039 1.381 . S
C1037 C1040 1.487 . S
C1038 C1035 1.382 . S
C1038 C1039 1.387 . S
C1038 H1064 0.930 . S
C1039 C1037 1.381 . S
C1039 C1038 1.387 . S
C1039 H1065 0.931 . S
C1040 C1037 1.487 . S
C1040 C1047 1.399 . S
C1040 N1078 1.343 . S
C1041 C1042 1.384 . S
C1041 C1043 1.384 . S
C1041 H1066 0.931 . S
C1042 C1041 1.384 . S
C1042 C1045 1.382 . S
C1043 C1041 1.384 . S
C1043 C1044 1.381 . S
C1043 H1067 0.930 . S
C1044 C1043 1.381 . S
C1044 C1046 1.381 . S
C1044 C1047 1.487 . S
C1045 C1042 1.382 . S
C1045 C1046 1.387 . S
C1045 H1068 0.930 . S
C1046 C1044 1.381 . S
C1046 C1045 1.387 . S
C1046 H1069 0.931 . S
C1047 C1040 1.399 . S
C1047 C1044 1.487 . S
C1047 N1079 1.343 . S
C1048 C1049 1.384 . S
C1048 C1050 1.384 . S
C1048 H1070 0.931 . S
C1049 C1048 1.384 . S
C1049 C1052 1.382 . S
C1050 C1048 1.384 . S
C1050 C1051 1.381 . S
C1050 H1071 0.930 . S
C1051 C1050 1.381 . S
C1051 C1053 1.381 . S
C1051 C1054 1.487 . S
C1052 C1049 1.382 . S
C1052 C1053 1.387 . S
C1052 H1072 0.930 . S
C1053 C1051 1.381 . S
C1053 C1052 1.387 . S
C1053 H1073 0.931 . S
C1054 C1051 1.487 . S
C1054 C1061 1.399 . S
C1054 N1079 1.343 . S
C1055 C1056 1.384 . S
C1055 C1057 1.384 . S
C1055 H1074 0.931 . S
C1056 C1055 1.384 . S
C1056 C1059 1.382 . S
C1057 C1055 1.384 . S
C1057 C1058 1.381 . S
C1057 H1075 0.930 . S
C1058 C1057 1.381 . S
C1058 C1060 1.381 . S
C1058 C1061 1.487 . S
C1059 C1056 1.382 . S
C1059 C1060 1.387 . S
C1059 H1076 0.930 . S
C1060 C1058 1.381 . S
C1060 C1059 1.387 . S
C1060 H1077 0.931 . S
C1061 C1054 1.399 . S
C1061 C1058 1.487 . S
C1061 N1078 1.343 . S
H1062 C1034 0.931 . S
H1063 C1036 0.930 . S
H1064 C1038 0.930 . S
H1065 C1039 0.931 . S
H1066 C1041 0.931 . S
H1067 C1043 0.930 . S
H1068 C1045 0.930 . S
H1069 C1046 0.931 . S
H1070 C1048 0.931 . S
H1071 C1050 0.930 . S
H1072 C1052 0.930 . S
H1073 C1053 0.931 . S
H1074 C1055 0.931 . S
H1075 C1057 0.930 . S
H1076 C1059 0.930 . S
H1077 C1060 0.931 . S
N1078 C1040 1.343 . S
N1078 C1061 1.343 . S
N1079 C1047 1.343 . S
N1079 C1054 1.343 . S
C1080 C1081 1.349 . S
C1080 C1082 1.327 . S
C1080 H1105 0.950 . S
C1081 C1080 1.349 . S
C1081 C1097 1.349 . S
C1082 C1080 1.327 . S
C1082 C1101 1.429 . S
C1082 H1106 0.950 . S
C1083 C1100 1.574 . S
C1083 C1102 1.368 . S
C1083 H1107 0.949 . S
H1084 C1088 0.949 . S
C1085 C1086 1.349 . S
C1085 C1087 1.327 . S
C1085 H1108 0.950 . S
C1086 C1085 1.349 . S
C1086 C1098 1.349 . S
C1087 C1085 1.327 . S
C1087 C1103 1.429 . S
C1087 H1109 0.950 . S
C1088 H1084 0.949 . S
C1088 C1096 1.574 . S
C1088 C1104 1.368 . S
H1089 C1097 0.950 . S
H1090 C1095 0.950 . S
H1091 C1096 0.949 . S
H1092 C1098 0.950 . S
H1093 C1099 0.950 . S
H1094 C1100 0.949 . S
C1095 H1090 0.950 . S
C1095 C1097 1.327 . S
C1095 C1101 1.429 . S
C1096 C1088 1.574 . S
C1096 H1091 0.949 . S
C1096 C1102 1.368 . S
C1097 C1081 1.349 . S
C1097 H1089 0.950 . S
C1097 C1095 1.327 . S
C1098 C1086 1.349 . S
C1098 H1092 0.950 . S
C1098 C1099 1.327 . S
C1099 H1093 0.950 . S
C1099 C1098 1.327 . S
C1099 C1103 1.429 . S
C1100 C1083 1.574 . S
C1100 H1094 0.949 . S
C1100 C1104 1.368 . S
C1101 C1082 1.429 . S
C1101 C1095 1.429 . S
C1101 C1102 1.523 . S
C1102 C1083 1.368 . S
C1102 C1096 1.368 . S
C1102 C1101 1.523 . S
C1103 C1087 1.429 . S
C1103 C1099 1.429 . S
C1103 C1104 1.523 . S
C1104 C1088 1.368 . S
C1104 C1100 1.368 . S
C1104 C1103 1.523 . S
H1105 C1080 0.950 . S
H1106 C1082 0.950 . S
H1107 C1083 0.949 . S
H1108 C1085 0.950 . S
H1109 C1087 0.950 . S
C1110 C1111 1.349 . S
C1110 C1112 1.327 . S
C1110 H1135 0.950 . S
C1111 C1110 1.349 . S
C1111 C1127 1.349 . S
C1112 C1110 1.327 . S
C1112 C1131 1.429 . S
C1112 H1136 0.950 . S
C1113 C1130 1.574 . S
C1113 C1132 1.368 . S
C1113 H1137 0.949 . S
H1114 C1118 0.949 . S
C1115 C1116 1.349 . S
C1115 C1117 1.327 . S
C1115 H1138 0.950 . S
C1116 C1115 1.349 . S
C1116 C1128 1.349 . S
C1117 C1115 1.327 . S
C1117 C1133 1.429 . S
C1117 H1139 0.950 . S
C1118 H1114 0.949 . S
C1118 C1126 1.574 . S
C1118 C1134 1.368 . S
H1119 C1127 0.950 . S
H1120 C1125 0.950 . S
H1121 C1126 0.949 . S
H1122 C1128 0.950 . S
H1123 C1129 0.950 . S
H1124 C1130 0.949 . S
C1125 H1120 0.950 . S
C1125 C1127 1.327 . S
C1125 C1131 1.429 . S
C1126 C1118 1.574 . S
C1126 H1121 0.949 . S
C1126 C1132 1.368 . S
C1127 C1111 1.349 . S
C1127 H1119 0.950 . S
C1127 C1125 1.327 . S
C1128 C1116 1.349 . S
C1128 H1122 0.950 . S
C1128 C1129 1.327 . S
C1129 H1123 0.950 . S
C1129 C1128 1.327 . S
C1129 C1133 1.429 . S
C1130 C1113 1.574 . S
C1130 H1124 0.949 . S
C1130 C1134 1.368 . S
C1131 C1112 1.429 . S
C1131 C1125 1.429 . S
C1131 C1132 1.523 . S
C1132 C1113 1.368 . S
C1132 C1126 1.368 . S
C1132 C1131 1.523 . S
C1133 C1117 1.429 . S
C1133 C1129 1.429 . S
C1133 C1134 1.523 . S
C1134 C1118 1.368 . S
C1134 C1130 1.368 . S
C1134 C1133 1.523 . S
H1135 C1110 0.950 . S
H1136 C1112 0.950 . S
H1137 C1113 0.949 . S
H1138 C1115 0.950 . S
H1139 C1117 0.950 . S
C1140 C1141 1.349 . S
C1140 C1142 1.344 . S
C1140 H1165 0.950 1_545 S
C1141 C1140 1.349 . S
C1141 C1157 1.349 . S
C1142 C1140 1.344 . S
C1142 C1161 1.447 . S
C1142 H1166 0.914 1_545 S
C1143 C1160 1.574 . S
C1143 C1162 1.368 . S
C1143 H1167 0.949 . S
H1144 C1148 0.949 . S
C1145 C1146 1.349 . S
C1145 C1147 1.327 . S
C1145 H1168 0.950 . S
C1146 C1145 1.349 . S
C1146 C1158 1.349 1_545 S
C1147 C1145 1.327 . S
C1147 C1163 1.429 . S
C1147 H1169 0.950 . S
C1148 H1144 0.949 . S
C1148 C1156 1.574 . S
C1148 C1164 1.368 1_565 S
H1149 C1157 0.950 . S
H1150 C1155 0.950 . S
H1151 C1156 0.949 . S
H1152 C1158 0.950 . S
H1153 C1159 0.950 . S
H1154 C1160 0.949 . S
C1155 H1150 0.950 . S
C1155 C1157 1.327 . S
C1155 C1161 1.429 . S
C1156 C1148 1.574 . S
C1156 H1151 0.949 . S
C1156 C1162 1.368 1_565 S
C1157 C1141 1.349 . S
C1157 H1149 0.950 . S
C1157 C1155 1.327 . S
C1158 C1146 1.349 1_565 S
C1158 H1152 0.950 . S
C1158 C1159 1.327 . S
C1159 H1153 0.950 . S
C1159 C1158 1.327 . S
C1159 C1163 1.429 1_565 S
C1160 C1143 1.574 . S
C1160 H1154 0.949 . S
C1160 C1164 1.368 . S
C1161 C1142 1.447 . S
C1161 C1155 1.429 . S
C1161 C1162 1.523 . S
C1162 C1143 1.368 . S
C1162 C1156 1.368 1_545 S
C1162 C1161 1.523 . S
C1163 C1147 1.429 . S
C1163 C1159 1.429 1_545 S
C1163 C1164 1.523 . S
C1164 C1148 1.368 1_545 S
C1164 C1160 1.368 . S
C1164 C1163 1.523 . S
H1165 C1140 0.950 1_565 S
H1166 C1142 0.914 1_565 S
H1167 C1143 0.949 . S
H1168 C1145 0.950 . S
H1169 C1147 0.950 . S
C1170 C1171 1.349 1_545 S
C1170 C1172 1.327 . S
C1170 H1195 0.950 . S
C1171 C1170 1.349 1_565 S
C1171 C1187 1.349 . S
C1172 C1170 1.327 . S
C1172 C1191 1.429 1_545 S
C1172 H1196 0.950 . S
C1173 C1190 1.574 . S
C1173 C1192 1.368 . S
C1173 H1197 0.949 . S
H1174 C1178 0.949 . S
C1175 C1176 1.349 . S
C1175 C1177 1.327 . S
C1175 H1198 0.950 . S
C1176 C1175 1.349 . S
C1176 C1188 1.349 1_565 S
C1177 C1175 1.327 . S
C1177 C1193 1.429 . S
C1177 H1199 0.950 . S
C1178 H1174 0.949 . S
C1178 C1186 1.574 . S
C1178 C1194 1.368 1_545 S
H1179 C1187 0.950 . S
H1180 C1185 0.950 . S
H1181 C1186 0.949 . S
H1182 C1188 0.950 . S
H1183 C1189 0.950 . S
H1184 C1190 0.949 . S
C1185 H1180 0.950 . S
C1185 C1187 1.327 . S
C1185 C1191 1.429 . S
C1186 C1178 1.574 . S
C1186 H1181 0.949 . S
C1186 C1192 1.368 1_545 S
C1187 C1171 1.349 . S
C1187 H1179 0.950 . S
C1187 C1185 1.327 . S
C1188 C1176 1.349 1_545 S
C1188 H1182 0.950 . S
C1188 C1189 1.327 . S
C1189 H1183 0.950 . S
C1189 C1188 1.327 . S
C1189 C1193 1.429 1_545 S
C1190 C1173 1.574 . S
C1190 H1184 0.949 . S
C1190 C1194 1.368 . S
C1191 C1172 1.429 1_565 S
C1191 C1185 1.429 . S
C1191 C1192 1.523 . S
C1192 C1173 1.368 . S
C1192 C1186 1.368 1_565 S
C1192 C1191 1.523 . S
C1193 C1177 1.429 . S
C1193 C1189 1.429 1_565 S
C1193 C1194 1.523 . S
C1194 C1178 1.368 1_565 S
C1194 C1190 1.368 . S
C1194 C1193 1.523 . S
H1195 C1170 0.950 . S
H1196 C1172 0.950 . S
H1197 C1173 0.949 . S
H1198 C1175 0.950 . S
H1199 C1177 0.950 . S
C1200 C1201 1.349 . S
C1200 C1202 1.327 . S
C1200 H1225 0.950 . S
C1201 C1200 1.349 . S
C1201 C1217 1.349 . S
C1202 C1200 1.327 . S
C1202 C1221 1.429 . S
C1202 H1226 0.950 . S
C1203 C1220 1.574 . S
C1203 C1222 1.368 . S
C1203 H1227 0.949 . S
H1204 C1208 0.949 . S
C1205 C1206 1.349 . S
C1205 C1207 1.327 . S
C1205 H1228 0.950 . S
C1206 C1205 1.349 . S
C1206 C1218 1.349 . S
C1207 C1205 1.327 . S
C1207 C1223 1.429 . S
C1207 H1229 0.950 . S
C1208 H1204 0.949 . S
C1208 C1216 1.574 . S
C1208 C1224 1.368 . S
H1209 C1217 0.950 . S
H1210 C1215 0.950 . S
H1211 C1216 0.949 . S
H1212 C1218 0.987 . S
H1213 C1219 0.950 . S
H1214 C1220 0.949 . S
C1215 H1210 0.950 . S
C1215 C1217 1.327 . S
C1215 C1221 1.429 . S
C1216 C1208 1.574 . S
C1216 H1211 0.949 . S
C1216 C1222 1.368 . S
C1217 C1201 1.349 . S
C1217 H1209 0.950 . S
C1217 C1215 1.327 . S
C1218 C1206 1.349 . S
C1218 H1212 0.987 . S
C1218 C1219 1.327 . S
C1219 H1213 0.950 . S
C1219 C1218 1.327 . S
C1219 C1223 1.429 . S
C1220 C1203 1.574 . S
C1220 H1214 0.949 . S
C1220 C1224 1.368 . S
C1221 C1202 1.429 . S
C1221 C1215 1.429 . S
C1221 C1222 1.523 . S
C1222 C1203 1.368 . S
C1222 C1216 1.368 . S
C1222 C1221 1.523 . S
C1223 C1207 1.429 . S
C1223 C1219 1.429 . S
C1223 C1224 1.523 . S
C1224 C1208 1.368 . S
C1224 C1220 1.368 . S
C1224 C1223 1.523 . S
H1225 C1200 0.950 . S
H1226 C1202 0.950 . S
H1227 C1203 0.949 . S
H1228 C1205 0.950 . S
H1229 C1207 0.950 . S
C1230 C1231 1.349 . S
C1230 C1232 1.327 . S
C1230 H1255 0.950 . S
C1231 C1230 1.349 . S
C1231 C1247 1.349 . S
C1232 C1230 1.327 . S
C1232 C1251 1.429 . S
C1232 H1256 0.950 . S
C1233 C1250 1.574 . S
C1233 C1252 1.368 . S
C1233 H1257 0.949 . S
H1234 C1238 0.949 . S
C1235 C1236 1.349 . S
C1235 C1237 1.327 . S
C1235 H1258 0.950 . S
C1236 C1235 1.349 . S
C1236 C1248 1.349 . S
C1237 C1235 1.327 . S
C1237 C1253 1.429 . S
C1237 H1259 0.950 . S
C1238 H1234 0.949 . S
C1238 C1246 1.574 . S
C1238 C1254 1.368 . S
H1239 C1247 0.950 . S
H1240 C1245 0.950 . S
H1241 C1246 0.949 . S
H1242 C1248 0.950 . S
H1243 C1249 0.950 . S
H1244 C1250 0.949 . S
C1245 H1240 0.950 . S
C1245 C1247 1.327 . S
C1245 C1251 1.429 . S
C1246 C1238 1.574 . S
C1246 H1241 0.949 . S
C1246 C1252 1.368 . S
C1247 C1231 1.349 . S
C1247 H1239 0.950 . S
C1247 C1245 1.327 . S
C1248 C1236 1.349 . S
C1248 H1242 0.950 . S
C1248 C1249 1.327 . S
C1249 H1243 0.950 . S
C1249 C1248 1.327 . S
C1249 C1253 1.429 . S
C1250 C1233 1.574 . S
C1250 H1244 0.949 . S
C1250 C1254 1.368 . S
C1251 C1232 1.429 . S
C1251 C1245 1.429 . S
C1251 C1252 1.523 . S
C1252 C1233 1.368 . S
C1252 C1246 1.368 . S
C1252 C1251 1.523 . S
C1253 C1237 1.429 . S
C1253 C1249 1.429 . S
C1253 C1254 1.523 . S
C1254 C1238 1.368 . S
C1254 C1250 1.368 . S
C1254 C1253 1.523 . S
H1255 C1230 0.950 . S
H1256 C1232 0.950 . S
H1257 C1233 0.949 . S
H1258 C1235 0.950 . S
H1259 C1237 0.950 . S
C1260 C1261 1.349 . S
C1260 C1262 1.327 . S
C1260 H1285 0.950 . S
C1261 C1260 1.349 . S
C1261 C1277 1.349 1_455 S
C1262 C1260 1.327 . S
C1262 C1281 1.429 . S
C1262 H1286 0.950 . S
C1263 C1280 1.574 . S
C1263 C1282 1.368 1_655 S
C1263 H1287 0.949 . S
H1264 C1268 0.949 . S
C1265 C1266 1.349 1_655 S
C1265 C1267 1.327 . S
C1265 H1288 0.950 . S
C1266 C1265 1.349 1_455 S
C1266 C1278 1.349 . S
C1267 C1265 1.327 . S
C1267 C1283 1.429 1_655 S
C1267 H1289 0.950 . S
C1268 H1264 0.949 . S
C1268 C1276 1.574 . S
C1268 C1284 1.368 . S
H1269 C1277 0.950 . S
H1270 C1275 0.950 . S
H1271 C1276 0.949 . S
H1272 C1278 0.950 . S
H1273 C1279 0.950 . S
H1274 C1280 0.949 . S
C1275 H1270 0.950 . S
C1275 C1277 1.327 . S
C1275 C1281 1.429 1_655 S
C1276 C1268 1.574 . S
C1276 H1271 0.949 . S
C1276 C1282 1.368 . S
C1277 C1261 1.349 1_655 S
C1277 H1269 0.950 . S
C1277 C1275 1.327 . S
C1278 C1266 1.349 . S
C1278 H1272 0.950 . S
C1278 C1279 1.327 . S
C1279 H1273 0.950 . S
C1279 C1278 1.327 . S
C1279 C1283 1.429 . S
C1280 C1263 1.574 . S
C1280 H1274 0.949 . S
C1280 C1284 1.368 1_655 S
C1281 C1262 1.429 . S
C1281 C1275 1.429 1_455 S
C1281 C1282 1.523 . S
C1282 C1263 1.368 1_455 S
C1282 C1276 1.368 . S
C1282 C1281 1.523 . S
C1283 C1267 1.429 1_455 S
C1283 C1279 1.429 . S
C1283 C1284 1.523 . S
C1284 C1268 1.368 . S
C1284 C1280 1.368 1_455 S
C1284 C1283 1.523 . S
H1285 C1260 0.950 . S
H1286 C1262 0.950 . S
H1287 C1263 0.949 . S
H1288 C1265 0.950 . S
H1289 C1267 0.950 . S
C1290 C1291 1.349 . S
C1290 C1292 1.327 . S
C1290 H1315 0.950 . S
C1291 C1290 1.349 . S
C1291 C1307 1.349 . S
C1292 C1290 1.327 . S
C1292 C1311 1.429 . S
C1292 H1316 0.950 . S
C1293 C1310 1.574 . S
C1293 C1312 1.368 . S
C1293 H1317 0.949 . S
H1294 C1298 0.949 . S
C1295 C1296 1.349 . S
C1295 C1297 1.327 . S
C1295 H1318 0.950 . S
C1296 C1295 1.349 . S
C1296 C1308 1.349 . S
C1297 C1295 1.327 . S
C1297 C1313 1.429 . S
C1297 H1319 0.950 . S
C1298 H1294 0.949 . S
C1298 C1306 1.574 . S
C1298 C1314 1.368 . S
H1299 C1307 0.950 . S
H1300 C1305 0.950 . S
H1301 C1306 0.949 . S
H1302 C1308 0.950 . S
H1303 C1309 0.950 . S
H1304 C1310 0.949 . S
C1305 H1300 0.950 . S
C1305 C1307 1.327 . S
C1305 C1311 1.429 . S
C1306 C1298 1.574 . S
C1306 H1301 0.949 . S
C1306 C1312 1.368 . S
C1307 C1291 1.349 . S
C1307 H1299 0.950 . S
C1307 C1305 1.327 . S
C1308 C1296 1.349 . S
C1308 H1302 0.950 . S
C1308 C1309 1.327 . S
C1309 H1303 0.950 . S
C1309 C1308 1.327 . S
C1309 C1313 1.429 . S
C1310 C1293 1.574 . S
C1310 H1304 0.949 . S
C1310 C1314 1.368 . S
C1311 C1292 1.429 . S
C1311 C1305 1.429 . S
C1311 C1312 1.523 . S
C1312 C1293 1.368 . S
C1312 C1306 1.368 . S
C1312 C1311 1.523 . S
C1313 C1297 1.429 . S
C1313 C1309 1.429 . S
C1313 C1314 1.523 . S
C1314 C1298 1.368 . S
C1314 C1310 1.368 . S
C1314 C1313 1.523 . S
H1315 C1290 0.950 . S
H1316 C1292 0.950 . S
H1317 C1293 0.949 . S
H1318 C1295 0.950 . S
H1319 C1297 0.950 . S
C1320 C1321 1.349 . S
C1320 C1322 1.327 . S
C1320 H1345 0.950 . S
C1321 C1320 1.349 . S
C1321 C1337 1.349 1_565 S
C1322 C1320 1.327 . S
C1322 C1341 1.429 . S
C1322 H1346 0.950 . S
C1323 C1340 1.574 . S
C1323 C1342 1.368 1_545 S
C1323 H1347 0.949 . S
H1324 C1328 0.949 . S
C1325 C1326 1.349 1_545 S
C1325 C1327 1.327 . S
C1325 H1348 0.950 . S
C1326 C1325 1.349 1_565 S
C1326 C1338 1.349 . S
C1327 C1325 1.327 . S
C1327 C1343 1.429 1_545 S
C1327 H1349 0.950 . S
C1328 H1324 0.949 . S
C1328 C1336 1.574 . S
C1328 C1344 1.368 . S
H1329 C1337 0.950 . S
H1330 C1335 0.950 . S
H1331 C1336 0.949 . S
H1332 C1338 0.950 . S
H1333 C1339 0.950 . S
H1334 C1340 0.949 . S
C1335 H1330 0.950 . S
C1335 C1337 1.327 . S
C1335 C1341 1.429 1_545 S
C1336 C1328 1.574 . S
C1336 H1331 0.949 . S
C1336 C1342 1.368 . S
C1337 C1321 1.349 1_545 S
C1337 H1329 0.950 . S
C1337 C1335 1.327 . S
C1338 C1326 1.349 . S
C1338 H1332 0.950 . S
C1338 C1339 1.327 . S
C1339 H1333 0.950 . S
C1339 C1338 1.327 . S
C1339 C1343 1.429 . S
C1340 C1323 1.574 . S
C1340 H1334 0.949 . S
C1340 C1344 1.368 1_545 S
C1341 C1322 1.429 . S
C1341 C1335 1.429 1_565 S
C1341 C1342 1.523 . S
C1342 C1323 1.368 1_565 S
C1342 C1336 1.368 . S
C1342 C1341 1.523 . S
C1343 C1327 1.429 1_565 S
C1343 C1339 1.429 . S
C1343 C1344 1.523 . S
C1344 C1328 1.368 . S
C1344 C1340 1.368 1_565 S
C1344 C1343 1.523 . S
H1345 C1320 0.950 . S
H1346 C1322 0.950 . S
H1347 C1323 0.949 . S
H1348 C1325 0.950 . S
H1349 C1327 0.950 . S
C1350 C1351 1.349 1_565 S
C1350 C1352 1.327 . S
C1350 H1375 0.950 . S
C1351 C1350 1.349 1_545 S
C1351 C1367 1.349 . S
C1352 C1350 1.327 . S
C1352 C1371 1.429 1_565 S
C1352 H1376 0.950 . S
C1353 C1370 1.574 . S
C1353 C1372 1.368 . S
C1353 H1377 0.949 . S
H1354 C1358 0.949 . S
C1355 C1356 1.349 . S
C1355 C1357 1.327 . S
C1355 H1378 0.950 . S
C1356 C1355 1.349 . S
C1356 C1368 1.349 1_545 S
C1357 C1355 1.327 . S
C1357 C1373 1.429 . S
C1357 H1379 0.950 . S
C1358 H1354 0.949 . S
C1358 C1366 1.574 . S
C1358 C1374 1.368 1_565 S
H1359 C1367 0.950 . S
H1360 C1365 0.950 . S
H1361 C1366 0.949 . S
H1362 C1368 0.950 . S
H1363 C1369 0.950 . S
H1364 C1370 0.949 . S
C1365 H1360 0.950 . S
C1365 C1367 1.327 . S
C1365 C1371 1.429 . S
C1366 C1358 1.574 . S
C1366 H1361 0.949 . S
C1366 C1372 1.368 1_565 S
C1367 C1351 1.349 . S
C1367 H1359 0.950 . S
C1367 C1365 1.327 . S
C1368 C1356 1.349 1_565 S
C1368 H1362 0.950 . S
C1368 C1369 1.327 . S
C1369 H1363 0.950 . S
C1369 C1368 1.327 . S
C1369 C1373 1.429 1_565 S
C1370 C1353 1.574 . S
C1370 H1364 0.949 . S
C1370 C1374 1.368 . S
C1371 C1352 1.429 1_545 S
C1371 C1365 1.429 . S
C1371 C1372 1.523 . S
C1372 C1353 1.368 . S
C1372 C1366 1.368 1_545 S
C1372 C1371 1.523 . S
C1373 C1357 1.429 . S
C1373 C1369 1.429 1_545 S
C1373 C1374 1.523 . S
C1374 C1358 1.368 1_545 S
C1374 C1370 1.368 . S
C1374 C1373 1.523 . S
H1375 C1350 0.950 . S
H1376 C1352 0.950 . S
H1377 C1353 0.949 . S
H1378 C1355 0.950 . S
H1379 C1357 0.950 . S
C1380 C1381 1.349 . S
C1380 C1382 1.327 . S
C1380 H1405 0.961 1_655 S
C1381 C1380 1.349 . S
C1381 C1397 1.349 . S
C1382 C1380 1.327 . S
C1382 C1401 1.429 . S
C1382 H1406 0.950 1_655 S
C1383 C1400 1.574 . S
C1383 C1402 1.368 . S
C1383 H1407 0.949 . S
H1384 C1388 0.947 1_455 S
C1385 C1386 1.349 . S
C1385 C1387 1.327 . S
C1385 H1408 0.950 . S
C1386 C1385 1.349 . S
C1386 C1398 1.366 1_655 S
C1387 C1385 1.327 . S
C1387 C1403 1.429 . S
C1387 H1409 0.950 . S
C1388 H1384 0.947 1_655 S
C1388 C1396 1.555 . S
C1388 C1404 1.366 . S
H1389 C1397 0.950 . S
H1390 C1395 0.950 . S
H1391 C1396 0.968 1_455 S
H1392 C1398 0.960 . S
H1393 C1399 0.942 . S
H1394 C1400 0.949 . S
C1395 H1390 0.950 . S
C1395 C1397 1.327 . S
C1395 C1401 1.429 . S
C1396 C1388 1.555 . S
C1396 H1391 0.968 1_655 S
C1396 C1402 1.375 . S
C1397 C1381 1.349 . S
C1397 H1389 0.950 . S
C1397 C1395 1.327 . S
C1398 C1386 1.366 1_455 S
C1398 H1392 0.960 . S
C1398 C1399 1.315 . S
C1399 H1393 0.942 . S
C1399 C1398 1.315 . S
C1399 C1403 1.424 1_455 S
C1400 C1383 1.574 . S
C1400 H1394 0.949 . S
C1400 C1404 1.368 . S
C1401 C1382 1.429 . S
C1401 C1395 1.429 . S
C1401 C1402 1.523 . S
C1402 C1383 1.368 . S
C1402 C1396 1.375 . S
C1402 C1401 1.523 . S
C1403 C1387 1.429 . S
C1403 C1399 1.424 1_655 S
C1403 C1404 1.523 . S
C1404 C1388 1.366 . S
C1404 C1400 1.368 . S
C1404 C1403 1.523 . S
H1405 C1380 0.961 1_455 S
H1406 C1382 0.950 1_455 S
H1407 C1383 0.949 . S
H1408 C1385 0.950 . S
H1409 C1387 0.950 . S
C1410 C1411 1.349 . S
C1410 C1412 1.327 . S
C1410 H1435 0.950 . S
C1411 C1410 1.349 . S
C1411 C1427 1.349 . S
C1412 C1410 1.327 . S
C1412 C1431 1.429 . S
C1412 H1436 0.950 . S
C1413 C1430 1.574 . S
C1413 C1432 1.368 . S
C1413 H1437 0.949 . S
H1414 C1418 0.949 . S
C1415 C1416 1.349 . S
C1415 C1417 1.327 . S
C1415 H1438 0.950 . S
C1416 C1415 1.349 . S
C1416 C1428 1.349 . S
C1417 C1415 1.327 . S
C1417 C1433 1.429 . S
C1417 H1439 0.950 . S
C1418 H1414 0.949 . S
C1418 C1426 1.574 . S
C1418 C1434 1.368 . S
H1419 C1427 0.950 . S
H1420 C1425 0.950 . S
H1421 C1426 0.949 . S
H1422 C1428 0.950 . S
H1423 C1429 0.950 . S
H1424 C1430 0.949 . S
C1425 H1420 0.950 . S
C1425 C1427 1.327 . S
C1425 C1431 1.429 . S
C1426 C1418 1.574 . S
C1426 H1421 0.949 . S
C1426 C1432 1.368 . S
C1427 C1411 1.349 . S
C1427 H1419 0.950 . S
C1427 C1425 1.327 . S
C1428 C1416 1.349 . S
C1428 H1422 0.950 . S
C1428 C1429 1.327 . S
C1429 H1423 0.950 . S
C1429 C1428 1.327 . S
C1429 C1433 1.429 . S
C1430 C1413 1.574 . S
C1430 H1424 0.949 . S
C1430 C1434 1.368 . S
C1431 C1412 1.429 . S
C1431 C1425 1.429 . S
C1431 C1432 1.523 . S
C1432 C1413 1.368 . S
C1432 C1426 1.368 . S
C1432 C1431 1.523 . S
C1433 C1417 1.429 . S
C1433 C1429 1.429 . S
C1433 C1434 1.523 . S
C1434 C1418 1.368 . S
C1434 C1430 1.368 . S
C1434 C1433 1.523 . S
H1435 C1410 0.950 . S
H1436 C1412 0.950 . S
H1437 C1413 0.949 . S
H1438 C1415 0.950 . S
H1439 C1417 0.950 . S
C1440 C1441 1.349 . S
C1440 C1442 1.327 . S
C1440 H1465 0.950 . S
C1441 C1440 1.349 . S
C1441 C1457 1.349 . S
C1442 C1440 1.327 . S
C1442 C1461 1.429 . S
C1442 H1466 0.950 . S
C1443 C1460 1.574 . S
C1443 C1462 1.368 . S
C1443 H1467 0.949 . S
H1444 C1448 0.949 . S
C1445 C1446 1.349 . S
C1445 C1447 1.327 . S
C1445 H1468 0.950 . S
C1446 C1445 1.349 . S
C1446 C1458 1.349 . S
C1447 C1445 1.327 . S
C1447 C1463 1.429 . S
C1447 H1469 0.950 . S
C1448 H1444 0.949 . S
C1448 C1456 1.574 . S
C1448 C1464 1.368 . S
H1449 C1457 0.950 . S
H1450 C1455 0.950 . S
H1451 C1456 0.949 . S
H1452 C1458 0.950 . S
H1453 C1459 0.950 . S
H1454 C1460 0.949 . S
C1455 H1450 0.950 . S
C1455 C1457 1.327 . S
C1455 C1461 1.429 . S
C1456 C1448 1.574 . S
C1456 H1451 0.949 . S
C1456 C1462 1.368 . S
C1457 C1441 1.349 . S
C1457 H1449 0.950 . S
C1457 C1455 1.327 . S
C1458 C1446 1.349 . S
C1458 H1452 0.950 . S
C1458 C1459 1.327 . S
C1459 H1453 0.950 . S
C1459 C1458 1.327 . S
C1459 C1463 1.429 . S
C1460 C1443 1.574 . S
C1460 H1454 0.949 . S
C1460 C1464 1.368 . S
C1461 C1442 1.429 . S
C1461 C1455 1.429 . S
C1461 C1462 1.523 . S
C1462 C1443 1.368 . S
C1462 C1456 1.368 . S
C1462 C1461 1.523 . S
C1463 C1447 1.429 . S
C1463 C1459 1.429 . S
C1463 C1464 1.523 . S
C1464 C1448 1.368 . S
C1464 C1460 1.368 . S
C1464 C1463 1.523 . S
H1465 C1440 0.950 . S
H1466 C1442 0.950 . S
H1467 C1443 0.949 . S
H1468 C1445 0.950 . S
H1469 C1447 0.950 . S
C1470 C1471 1.349 . S
C1470 C1472 1.327 . S
C1470 H1495 0.950 . S
C1471 C1470 1.349 . S
C1471 C1487 1.349 . S
C1472 C1470 1.327 . S
C1472 C1491 1.429 . S
C1472 H1496 0.950 . S
C1473 C1490 1.574 . S
C1473 C1492 1.368 . S
C1473 H1497 0.949 . S
H1474 C1478 0.949 . S
C1475 C1476 1.349 . S
C1475 C1477 1.327 . S
C1475 H1498 0.950 . S
C1476 C1475 1.349 . S
C1476 C1488 1.349 . S
C1477 C1475 1.327 . S
C1477 C1493 1.429 . S
C1477 H1499 0.950 . S
C1478 H1474 0.949 . S
C1478 C1486 1.574 . S
C1478 C1494 1.368 . S
H1479 C1487 0.950 . S
H1480 C1485 0.950 . S
H1481 C1486 0.949 . S
H1482 C1488 0.950 . S
H1483 C1489 0.950 . S
H1484 C1490 0.949 . S
C1485 H1480 0.950 . S
C1485 C1487 1.327 . S
C1485 C1491 1.429 . S
C1486 C1478 1.574 . S
C1486 H1481 0.949 . S
C1486 C1492 1.368 . S
C1487 C1471 1.349 . S
C1487 H1479 0.950 . S
C1487 C1485 1.327 . S
C1488 C1476 1.349 . S
C1488 H1482 0.950 . S
C1488 C1489 1.327 . S
C1489 H1483 0.950 . S
C1489 C1488 1.327 . S
C1489 C1493 1.429 . S
C1490 C1473 1.574 . S
C1490 H1484 0.949 . S
C1490 C1494 1.368 . S
C1491 C1472 1.429 . S
C1491 C1485 1.429 . S
C1491 C1492 1.523 . S
C1492 C1473 1.368 . S
C1492 C1486 1.368 . S
C1492 C1491 1.523 . S
C1493 C1477 1.429 . S
C1493 C1489 1.429 . S
C1493 C1494 1.523 . S
C1494 C1478 1.368 . S
C1494 C1490 1.368 . S
C1494 C1493 1.523 . S
H1495 C1470 0.950 . S
H1496 C1472 0.950 . S
H1497 C1473 0.949 . S
H1498 C1475 0.950 . S
H1499 C1477 0.950 . S
C1500 C1501 1.349 . S
C1500 C1502 1.327 . S
C1500 H1525 0.950 . S
C1501 C1500 1.349 . S
C1501 C1517 1.349 . S
C1502 C1500 1.327 . S
C1502 C1521 1.429 . S
C1502 H1526 0.950 . S
C1503 C1520 1.574 . S
C1503 C1522 1.368 . S
C1503 H1527 0.949 . S
H1504 C1508 0.949 . S
C1505 C1506 1.349 . S
C1505 C1507 1.327 . S
C1505 H1528 0.950 . S
C1506 C1505 1.349 . S
C1506 C1518 1.349 . S
C1507 C1505 1.327 . S
C1507 C1523 1.429 . S
C1507 H1529 0.950 . S
C1508 H1504 0.949 . S
C1508 C1516 1.574 . S
C1508 C1524 1.368 . S
H1509 C1517 0.950 . S
H1510 C1515 0.950 . S
H1511 C1516 0.949 . S
H1512 C1518 0.950 . S
H1513 C1519 0.950 . S
H1514 C1520 0.949 . S
C1515 H1510 0.950 . S
C1515 C1517 1.327 . S
C1515 C1521 1.429 . S
C1516 C1508 1.574 . S
C1516 H1511 0.949 . S
C1516 C1522 1.368 . S
C1517 C1501 1.349 . S
C1517 H1509 0.950 . S
C1517 C1515 1.327 . S
C1518 C1506 1.349 . S
C1518 H1512 0.950 . S
C1518 C1519 1.327 . S
C1519 H1513 0.950 . S
C1519 C1518 1.327 . S
C1519 C1523 1.429 . S
C1520 C1503 1.574 . S
C1520 H1514 0.949 . S
C1520 C1524 1.368 . S
C1521 C1502 1.429 . S
C1521 C1515 1.429 . S
C1521 C1522 1.523 . S
C1522 C1503 1.368 . S
C1522 C1516 1.368 . S
C1522 C1521 1.523 . S
C1523 C1507 1.429 . S
C1523 C1519 1.429 . S
C1523 C1524 1.523 . S
C1524 C1508 1.368 . S
C1524 C1520 1.368 . S
C1524 C1523 1.523 . S
H1525 C1500 0.950 . S
H1526 C1502 0.950 . S
H1527 C1503 0.949 . S
H1528 C1505 0.950 . S
H1529 C1507 0.950 . S
C1530 C1531 1.349 . S
C1530 C1532 1.327 . S
C1530 H1555 0.950 . S
C1531 C1530 1.349 . S
C1531 C1547 1.349 . S
C1532 C1530 1.327 . S
C1532 C1551 1.429 . S
C1532 H1556 0.950 . S
C1533 C1550 1.574 . S
C1533 C1552 1.368 . S
C1533 H1557 0.949 . S
H1534 C1538 0.949 . S
C1535 C1536 1.349 . S
C1535 C1537 1.327 . S
C1535 H1558 0.950 . S
C1536 C1535 1.349 . S
C1536 C1548 1.349 . S
C1537 C1535 1.327 . S
C1537 C1553 1.429 . S
C1537 H1559 0.950 . S
C1538 H1534 0.949 . S
C1538 C1546 1.574 . S
C1538 C1554 1.368 . S
H1539 C1547 0.950 . S
H1540 C1545 0.950 . S
H1541 C1546 0.949 . S
H1542 C1548 0.950 . S
H1543 C1549 0.950 . S
H1544 C1550 0.949 . S
C1545 H1540 0.950 . S
C1545 C1547 1.327 . S
C1545 C1551 1.429 . S
C1546 C1538 1.574 . S
C1546 H1541 0.949 . S
C1546 C1552 1.368 . S
C1547 C1531 1.349 . S
C1547 H1539 0.950 . S
C1547 C1545 1.327 . S
C1548 C1536 1.349 . S
C1548 H1542 0.950 . S
C1548 C1549 1.327 . S
C1549 H1543 0.950 . S
C1549 C1548 1.327 . S
C1549 C1553 1.429 . S
C1550 C1533 1.574 . S
C1550 H1544 0.949 . S
C1550 C1554 1.368 . S
C1551 C1532 1.429 . S
C1551 C1545 1.429 . S
C1551 C1552 1.523 . S
C1552 C1533 1.368 . S
C1552 C1546 1.368 . S
C1552 C1551 1.523 . S
C1553 C1537 1.429 . S
C1553 C1549 1.429 . S
C1553 C1554 1.523 . S
C1554 C1538 1.368 . S
C1554 C1550 1.368 . S
C1554 C1553 1.523 . S
H1555 C1530 0.950 . S
H1556 C1532 0.950 . S
H1557 C1533 0.949 . S
H1558 C1535 0.950 . S
H1559 C1537 0.950 . S
C1560 C1561 1.349 . S
C1560 C1562 1.327 . S
C1560 H1585 0.950 . S
C1561 C1560 1.349 . S
C1561 C1577 1.349 . S
C1562 C1560 1.327 . S
C1562 C1581 1.429 . S
C1562 H1586 0.950 . S
C1563 C1580 1.574 . S
C1563 C1582 1.368 . S
C1563 H1587 0.949 . S
H1564 C1568 0.949 . S
C1565 C1566 1.349 . S
C1565 C1567 1.327 . S
C1565 H1588 0.950 . S
C1566 C1565 1.349 . S
C1566 C1578 1.349 . S
C1567 C1565 1.327 . S
C1567 C1583 1.429 . S
C1567 H1589 0.950 . S
C1568 H1564 0.949 . S
C1568 C1576 1.574 . S
C1568 C1584 1.368 . S
H1569 C1577 0.950 . S
H1570 C1575 0.950 . S
H1571 C1576 0.949 . S
H1572 C1578 0.950 . S
H1573 C1579 0.950 . S
H1574 C1580 0.949 . S
C1575 H1570 0.950 . S
C1575 C1577 1.327 . S
C1575 C1581 1.429 . S
C1576 C1568 1.574 . S
C1576 H1571 0.949 . S
C1576 C1582 1.368 . S
C1577 C1561 1.349 . S
C1577 H1569 0.950 . S
C1577 C1575 1.327 . S
C1578 C1566 1.349 . S
C1578 H1572 0.950 . S
C1578 C1579 1.327 . S
C1579 H1573 0.950 . S
C1579 C1578 1.327 . S
C1579 C1583 1.429 . S
C1580 C1563 1.574 . S
C1580 H1574 0.949 . S
C1580 C1584 1.368 . S
C1581 C1562 1.429 . S
C1581 C1575 1.429 . S
C1581 C1582 1.523 . S
C1582 C1563 1.368 . S
C1582 C1576 1.368 . S
C1582 C1581 1.523 . S
C1583 C1567 1.429 . S
C1583 C1579 1.429 . S
C1583 C1584 1.523 . S
C1584 C1568 1.368 . S
C1584 C1580 1.368 . S
C1584 C1583 1.523 . S
H1585 C1560 0.950 . S
H1586 C1562 0.950 . S
H1587 C1563 0.949 . S
H1588 C1565 0.950 . S
H1589 C1567 0.950 . S
C1590 C1591 1.349 . S
C1590 C1592 1.327 . S
C1590 H1615 0.950 . S
C1591 C1590 1.349 . S
C1591 C1607 1.349 . S
C1592 C1590 1.327 . S
C1592 C1611 1.429 . S
C1592 H1616 0.950 . S
C1593 C1610 1.574 . S
C1593 C1612 1.368 . S
C1593 H1617 0.949 . S
H1594 C1598 0.949 . S
C1595 C1596 1.349 . S
C1595 C1597 1.327 . S
C1595 H1618 0.950 . S
C1596 C1595 1.349 . S
C1596 C1608 1.349 . S
C1597 C1595 1.327 . S
C1597 C1613 1.429 . S
C1597 H1619 0.950 . S
C1598 H1594 0.949 . S
C1598 C1606 1.574 . S
C1598 C1614 1.368 . S
H1599 C1607 0.950 . S
H1600 C1605 0.950 . S
H1601 C1606 0.949 . S
H1602 C1608 0.950 . S
H1603 C1609 0.950 . S
H1604 C1610 0.949 . S
C1605 H1600 0.950 . S
C1605 C1607 1.327 . S
C1605 C1611 1.429 . S
C1606 C1598 1.574 . S
C1606 H1601 0.949 . S
C1606 C1612 1.368 . S
C1607 C1591 1.349 . S
C1607 H1599 0.950 . S
C1607 C1605 1.327 . S
C1608 C1596 1.349 . S
C1608 H1602 0.950 . S
C1608 C1609 1.327 . S
C1609 H1603 0.950 . S
C1609 C1608 1.327 . S
C1609 C1613 1.429 . S
C1610 C1593 1.574 . S
C1610 H1604 0.949 . S
C1610 C1614 1.368 . S
C1611 C1592 1.429 . S
C1611 C1605 1.429 . S
C1611 C1612 1.523 . S
C1612 C1593 1.368 . S
C1612 C1606 1.368 . S
C1612 C1611 1.523 . S
C1613 C1597 1.429 . S
C1613 C1609 1.429 . S
C1613 C1614 1.523 . S
C1614 C1598 1.368 . S
C1614 C1610 1.368 . S
C1614 C1613 1.523 . S
H1615 C1590 0.950 . S
H1616 C1592 0.950 . S
H1617 C1593 0.949 . S
H1618 C1595 0.950 . S
H1619 C1597 0.950 . S
C1620 C1621 1.349 . S
C1620 C1622 1.327 . S
C1620 H1645 0.950 . S
C1621 C1620 1.349 . S
C1621 C1637 1.349 . S
C1622 C1620 1.327 . S
C1622 C1641 1.429 . S
C1622 H1646 0.950 . S
C1623 C1640 1.574 . S
C1623 C1642 1.368 . S
C1623 H1647 0.949 . S
H1624 C1628 0.949 . S
C1625 C1626 1.349 . S
C1625 C1627 1.327 . S
C1625 H1648 0.950 . S
C1626 C1625 1.349 . S
C1626 C1638 1.349 . S
C1627 C1625 1.327 . S
C1627 C1643 1.429 . S
C1627 H1649 0.950 . S
C1628 H1624 0.949 . S
C1628 C1636 1.574 . S
C1628 C1644 1.368 . S
H1629 C1637 0.950 . S
H1630 C1635 0.950 . S
H1631 C1636 0.949 . S
H1632 C1638 0.950 . S
H1633 C1639 0.950 . S
H1634 C1640 0.949 . S
C1635 H1630 0.950 . S
C1635 C1637 1.327 . S
C1635 C1641 1.429 . S
C1636 C1628 1.574 . S
C1636 H1631 0.949 . S
C1636 C1642 1.368 . S
C1637 C1621 1.349 . S
C1637 H1629 0.950 . S
C1637 C1635 1.327 . S
C1638 C1626 1.349 . S
C1638 H1632 0.950 . S
C1638 C1639 1.327 . S
C1639 H1633 0.950 . S
C1639 C1638 1.327 . S
C1639 C1643 1.429 . S
C1640 C1623 1.574 . S
C1640 H1634 0.949 . S
C1640 C1644 1.368 . S
C1641 C1622 1.429 . S
C1641 C1635 1.429 . S
C1641 C1642 1.523 . S
C1642 C1623 1.368 . S
C1642 C1636 1.368 . S
C1642 C1641 1.523 . S
C1643 C1627 1.429 . S
C1643 C1639 1.429 . S
C1643 C1644 1.523 . S
C1644 C1628 1.368 . S
C1644 C1640 1.368 . S
C1644 C1643 1.523 . S
H1645 C1620 0.950 . S
H1646 C1622 0.950 . S
H1647 C1623 0.949 . S
H1648 C1625 0.950 . S
H1649 C1627 0.950 . S
C1650 C1651 1.349 . S
C1650 C1652 1.327 . S
C1650 H1675 0.950 . S
C1651 C1650 1.349 . S
C1651 C1667 1.349 . S
C1652 C1650 1.327 . S
C1652 C1671 1.429 . S
C1652 H1676 0.950 . S
C1653 C1670 1.574 . S
C1653 C1672 1.368 . S
C1653 H1677 0.949 . S
H1654 C1658 0.949 . S
C1655 C1656 1.349 . S
C1655 C1657 1.327 . S
C1655 H1678 0.950 . S
C1656 C1655 1.349 . S
C1656 C1668 1.349 . S
C1657 C1655 1.327 . S
C1657 C1673 1.429 . S
C1657 H1679 0.950 . S
C1658 H1654 0.949 . S
C1658 C1666 1.574 . S
C1658 C1674 1.368 . S
H1659 C1667 0.950 . S
H1660 C1665 0.950 . S
H1661 C1666 0.949 . S
H1662 C1668 0.950 . S
H1663 C1669 0.950 . S
H1664 C1670 0.949 . S
C1665 H1660 0.950 . S
C1665 C1667 1.327 . S
C1665 C1671 1.429 . S
C1666 C1658 1.574 . S
C1666 H1661 0.949 . S
C1666 C1672 1.368 . S
C1667 C1651 1.349 . S
C1667 H1659 0.950 . S
C1667 C1665 1.327 . S
C1668 C1656 1.349 . S
C1668 H1662 0.950 . S
C1668 C1669 1.327 . S
C1669 H1663 0.950 . S
C1669 C1668 1.327 . S
C1669 C1673 1.429 . S
C1670 C1653 1.574 . S
C1670 H1664 0.949 . S
C1670 C1674 1.368 . S
C1671 C1652 1.429 . S
C1671 C1665 1.429 . S
C1671 C1672 1.523 . S
C1672 C1653 1.368 . S
C1672 C1666 1.368 . S
C1672 C1671 1.523 . S
C1673 C1657 1.429 . S
C1673 C1669 1.429 . S
C1673 C1674 1.523 . S
C1674 C1658 1.368 . S
C1674 C1670 1.368 . S
C1674 C1673 1.523 . S
H1675 C1650 0.950 . S
H1676 C1652 0.950 . S
H1677 C1653 0.949 . S
H1678 C1655 0.950 . S
H1679 C1657 0.950 . S
C1680 C1681 1.349 . S
C1680 C1682 1.327 . S
C1680 H1705 0.950 . S
C1681 C1680 1.349 . S
C1681 C1697 1.349 . S
C1682 C1680 1.327 . S
C1682 C1701 1.429 . S
C1682 H1706 0.950 . S
C1683 C1700 1.574 . S
C1683 C1702 1.368 . S
C1683 H1707 0.949 . S
H1684 C1688 0.949 . S
C1685 C1686 1.349 . S
C1685 C1687 1.327 . S
C1685 H1708 0.950 . S
C1686 C1685 1.349 . S
C1686 C1698 1.349 . S
C1687 C1685 1.327 . S
C1687 C1703 1.429 . S
C1687 H1709 0.950 . S
C1688 H1684 0.949 . S
C1688 C1696 1.574 . S
C1688 C1704 1.368 . S
H1689 C1697 0.950 . S
H1690 C1695 0.950 . S
H1691 C1696 0.949 . S
H1692 C1698 0.950 . S
H1693 C1699 0.950 . S
H1694 C1700 0.949 . S
C1695 H1690 0.950 . S
C1695 C1697 1.327 . S
C1695 C1701 1.429 . S
C1696 C1688 1.574 . S
C1696 H1691 0.949 . S
C1696 C1702 1.368 . S
C1697 C1681 1.349 . S
C1697 H1689 0.950 . S
C1697 C1695 1.327 . S
C1698 C1686 1.349 . S
C1698 H1692 0.950 . S
C1698 C1699 1.327 . S
C1699 H1693 0.950 . S
C1699 C1698 1.327 . S
C1699 C1703 1.429 . S
C1700 C1683 1.574 . S
C1700 H1694 0.949 . S
C1700 C1704 1.368 . S
C1701 C1682 1.429 . S
C1701 C1695 1.429 . S
C1701 C1702 1.523 . S
C1702 C1683 1.368 . S
C1702 C1696 1.368 . S
C1702 C1701 1.523 . S
C1703 C1687 1.429 . S
C1703 C1699 1.429 . S
C1703 C1704 1.523 . S
C1704 C1688 1.368 . S
C1704 C1700 1.368 . S
C1704 C1703 1.523 . S
H1705 C1680 0.950 . S
H1706 C1682 0.950 . S
H1707 C1683 0.949 . S
H1708 C1685 0.950 . S
H1709 C1687 0.950 . S
C1710 C1711 1.349 . S
C1710 C1712 1.327 . S
C1710 H1735 0.950 . S
C1711 C1710 1.349 . S
C1711 C1727 1.349 . S
C1712 C1710 1.327 . S
C1712 C1731 1.429 . S
C1712 H1736 0.950 . S
C1713 C1730 1.574 . S
C1713 C1732 1.368 . S
C1713 H1737 0.949 . S
H1714 C1718 0.949 . S
C1715 C1716 1.349 . S
C1715 C1717 1.327 . S
C1715 H1738 0.950 . S
C1716 C1715 1.349 . S
C1716 C1728 1.349 . S
C1717 C1715 1.327 . S
C1717 C1733 1.429 . S
C1717 H1739 0.950 . S
C1718 H1714 0.949 . S
C1718 C1726 1.574 . S
C1718 C1734 1.368 . S
H1719 C1727 0.950 . S
H1720 C1725 0.950 . S
H1721 C1726 0.949 . S
H1722 C1728 0.950 . S
H1723 C1729 0.950 . S
H1724 C1730 0.949 . S
C1725 H1720 0.950 . S
C1725 C1727 1.327 . S
C1725 C1731 1.429 . S
C1726 C1718 1.574 . S
C1726 H1721 0.949 . S
C1726 C1732 1.368 . S
C1727 C1711 1.349 . S
C1727 H1719 0.950 . S
C1727 C1725 1.327 . S
C1728 C1716 1.349 . S
C1728 H1722 0.950 . S
C1728 C1729 1.327 . S
C1729 H1723 0.950 . S
C1729 C1728 1.327 . S
C1729 C1733 1.429 . S
C1730 C1713 1.574 . S
C1730 H1724 0.949 . S
C1730 C1734 1.368 . S
C1731 C1712 1.429 . S
C1731 C1725 1.429 . S
C1731 C1732 1.523 . S
C1732 C1713 1.368 . S
C1732 C1726 1.368 . S
C1732 C1731 1.523 . S
C1733 C1717 1.429 . S
C1733 C1729 1.429 . S
C1733 C1734 1.523 . S
C1734 C1718 1.368 . S
C1734 C1730 1.368 . S
C1734 C1733 1.523 . S
H1735 C1710 0.950 . S
H1736 C1712 0.950 . S
H1737 C1713 0.949 . S
H1738 C1715 0.950 . S
H1739 C1717 0.950 . S
C1740 C1741 1.349 . S
C1740 C1742 1.327 . S
C1740 H1765 0.950 . S
C1741 C1740 1.349 . S
C1741 C1757 1.349 . S
C1742 C1740 1.327 . S
C1742 C1761 1.429 . S
C1742 H1766 0.950 . S
C1743 C1760 1.574 . S
C1743 C1762 1.368 . S
C1743 H1767 0.949 . S
H1744 C1748 0.949 . S
C1745 C1746 1.349 . S
C1745 C1747 1.327 . S
C1745 H1768 0.950 . S
C1746 C1745 1.349 . S
C1746 C1758 1.349 . S
C1747 C1745 1.327 . S
C1747 C1763 1.429 . S
C1747 H1769 0.950 . S
C1748 H1744 0.949 . S
C1748 C1756 1.574 . S
C1748 C1764 1.368 . S
H1749 C1757 0.950 . S
H1750 C1755 0.950 . S
H1751 C1756 0.949 . S
H1752 C1758 0.950 . S
H1753 C1759 0.950 . S
H1754 C1760 0.949 . S
C1755 H1750 0.950 . S
C1755 C1757 1.327 . S
C1755 C1761 1.429 . S
C1756 C1748 1.574 . S
C1756 H1751 0.949 . S
C1756 C1762 1.368 . S
C1757 C1741 1.349 . S
C1757 H1749 0.950 . S
C1757 C1755 1.327 . S
C1758 C1746 1.349 . S
C1758 H1752 0.950 . S
C1758 C1759 1.327 . S
C1759 H1753 0.950 . S
C1759 C1758 1.327 . S
C1759 C1763 1.429 . S
C1760 C1743 1.574 . S
C1760 H1754 0.949 . S
C1760 C1764 1.368 . S
C1761 C1742 1.429 . S
C1761 C1755 1.429 . S
C1761 C1762 1.523 . S
C1762 C1743 1.368 . S
C1762 C1756 1.368 . S
C1762 C1761 1.523 . S
C1763 C1747 1.429 . S
C1763 C1759 1.429 . S
C1763 C1764 1.523 . S
C1764 C1748 1.368 . S
C1764 C1760 1.368 . S
C1764 C1763 1.523 . S
H1765 C1740 0.950 . S
H1766 C1742 0.950 . S
H1767 C1743 0.949 . S
H1768 C1745 0.950 . S
H1769 C1747 0.950 . S
C1770 C1771 1.349 . S
C1770 C1772 1.327 . S
C1770 H1795 0.950 . S
C1771 C1770 1.349 . S
C1771 C1787 1.349 . S
C1772 C1770 1.327 . S
C1772 C1791 1.429 . S
C1772 H1796 0.950 . S
C1773 C1790 1.574 . S
C1773 C1792 1.368 . S
C1773 H1797 0.949 . S
H1774 C1778 0.949 . S
C1775 C1776 1.349 . S
C1775 C1777 1.327 . S
C1775 H1798 0.950 . S
C1776 C1775 1.349 . S
C1776 C1788 1.349 . S
C1777 C1775 1.327 . S
C1777 C1793 1.429 . S
C1777 H1799 0.950 . S
C1778 H1774 0.949 . S
C1778 C1786 1.574 . S
C1778 C1794 1.368 . S
H1779 C1787 0.950 . S
H1780 C1785 0.950 . S
H1781 C1786 0.949 . S
H1782 C1788 0.950 . S
H1783 C1789 0.950 . S
H1784 C1790 0.949 . S
C1785 H1780 0.950 . S
C1785 C1787 1.327 . S
C1785 C1791 1.429 . S
C1786 C1778 1.574 . S
C1786 H1781 0.949 . S
C1786 C1792 1.368 . S
C1787 C1771 1.349 . S
C1787 H1779 0.950 . S
C1787 C1785 1.327 . S
C1788 C1776 1.349 . S
C1788 H1782 0.950 . S
C1788 C1789 1.327 . S
C1789 H1783 0.950 . S
C1789 C1788 1.327 . S
C1789 C1793 1.429 . S
C1790 C1773 1.574 . S
C1790 H1784 0.949 . S
C1790 C1794 1.368 . S
C1791 C1772 1.429 . S
C1791 C1785 1.429 . S
C1791 C1792 1.523 . S
C1792 C1773 1.368 . S
C1792 C1786 1.368 . S
C1792 C1791 1.523 . S
C1793 C1777 1.429 . S
C1793 C1789 1.429 . S
C1793 C1794 1.523 . S
C1794 C1778 1.368 . S
C1794 C1790 1.368 . S
C1794 C1793 1.523 . S
H1795 C1770 0.950 . S
H1796 C1772 0.950 . S
H1797 C1773 0.949 . S
H1798 C1775 0.950 . S
H1799 C1777 0.950 . S
C1800 C1801 1.349 . S
C1800 C1802 1.327 . S
C1800 H1825 0.950 . S
C1801 C1800 1.349 . S
C1801 C1817 1.349 . S
C1802 C1800 1.327 . S
C1802 C1821 1.429 . S
C1802 H1826 0.950 . S
C1803 C1820 1.574 . S
C1803 C1822 1.368 . S
C1803 H1827 0.949 . S
H1804 C1808 0.949 . S
C1805 C1806 1.349 . S
C1805 C1807 1.327 . S
C1805 H1828 0.950 . S
C1806 C1805 1.349 . S
C1806 C1818 1.349 . S
C1807 C1805 1.327 . S
C1807 C1823 1.429 . S
C1807 H1829 0.950 . S
C1808 H1804 0.949 . S
C1808 C1816 1.574 . S
C1808 C1824 1.368 . S
H1809 C1817 0.950 . S
H1810 C1815 0.950 . S
H1811 C1816 0.949 . S
H1812 C1818 0.950 . S
H1813 C1819 0.950 . S
H1814 C1820 0.949 . S
C1815 H1810 0.950 . S
C1815 C1817 1.327 . S
C1815 C1821 1.429 . S
C1816 C1808 1.574 . S
C1816 H1811 0.949 . S
C1816 C1822 1.368 . S
C1817 C1801 1.349 . S
C1817 H1809 0.950 . S
C1817 C1815 1.327 . S
C1818 C1806 1.349 . S
C1818 H1812 0.950 . S
C1818 C1819 1.327 . S
C1819 H1813 0.950 . S
C1819 C1818 1.327 . S
C1819 C1823 1.429 . S
C1820 C1803 1.574 . S
C1820 H1814 0.949 . S
C1820 C1824 1.368 . S
C1821 C1802 1.429 . S
C1821 C1815 1.429 . S
C1821 C1822 1.523 . S
C1822 C1803 1.368 . S
C1822 C1816 1.368 . S
C1822 C1821 1.523 . S
C1823 C1807 1.429 . S
C1823 C1819 1.429 . S
C1823 C1824 1.523 . S
C1824 C1808 1.368 . S
C1824 C1820 1.368 . S
C1824 C1823 1.523 . S
H1825 C1800 0.950 . S
H1826 C1802 0.950 . S
H1827 C1803 0.949 . S
H1828 C1805 0.950 . S
H1829 C1807 0.950 . S
C1830 C1831 1.349 . S
C1830 C1832 1.327 . S
C1830 H1855 0.950 . S
C1831 C1830 1.349 . S
C1831 C1847 1.349 . S
C1832 C1830 1.327 . S
C1832 C1851 1.429 . S
C1832 H1856 0.950 . S
C1833 C1850 1.574 . S
C1833 C1852 1.368 . S
C1833 H1857 0.949 . S
H1834 C1838 0.949 . S
C1835 C1836 1.349 . S
C1835 C1837 1.327 . S
C1835 H1858 0.950 . S
C1836 C1835 1.349 . S
C1836 C1848 1.349 . S
C1837 C1835 1.327 . S
C1837 C1853 1.429 . S
C1837 H1859 0.950 . S
C1838 H1834 0.949 . S
C1838 C1846 1.574 . S
C1838 C1854 1.368 . S
H1839 C1847 0.950 . S
H1840 C1845 0.950 . S
H1841 C1846 0.949 . S
H1842 C1848 0.950 . S
H1843 C1849 0.950 . S
H1844 C1850 0.949 . S
C1845 H1840 0.950 . S
C1845 C1847 1.327 . S
C1845 C1851 1.429 . S
C1846 C1838 1.574 . S
C1846 H1841 0.949 . S
C1846 C1852 1.368 . S
C1847 C1831 1.349 . S
C1847 H1839 0.950 . S
C1847 C1845 1.327 . S
C1848 C1836 1.349 . S
C1848 H1842 0.950 . S
C1848 C1849 1.327 . S
C1849 H1843 0.950 . S
C1849 C1848 1.327 . S
C1849 C1853 1.429 . S
C1850 C1833 1.574 . S
C1850 H1844 0.949 . S
C1850 C1854 1.368 . S
C1851 C1832 1.429 . S
C1851 C1845 1.429 . S
C1851 C1852 1.523 . S
C1852 C1833 1.368 . S
C1852 C1846 1.368 . S
C1852 C1851 1.523 . S
C1853 C1837 1.429 . S
C1853 C1849 1.429 . S
C1853 C1854 1.523 . S
C1854 C1838 1.368 . S
C1854 C1850 1.368 . S
C1854 C1853 1.523 . S
H1855 C1830 0.950 . S
H1856 C1832 0.950 . S
H1857 C1833 0.949 . S
H1858 C1835 0.950 . S
H1859 C1837 0.950 . S
C1860 C1861 1.349 . S
C1860 C1862 1.327 . S
C1860 H1885 0.950 . S
C1861 C1860 1.349 . S
C1861 C1877 1.349 . S
C1862 C1860 1.327 . S
C1862 C1881 1.429 . S
C1862 H1886 0.950 . S
C1863 C1880 1.574 . S
C1863 C1882 1.368 . S
C1863 H1887 0.949 . S
H1864 C1868 0.949 . S
C1865 C1866 1.349 . S
C1865 C1867 1.327 . S
C1865 H1888 0.950 . S
C1866 C1865 1.349 . S
C1866 C1878 1.349 . S
C1867 C1865 1.327 . S
C1867 C1883 1.429 . S
C1867 H1889 0.950 . S
C1868 H1864 0.949 . S
C1868 C1876 1.574 . S
C1868 C1884 1.368 . S
H1869 C1877 0.950 . S
H1870 C1875 0.950 . S
H1871 C1876 0.949 . S
H1872 C1878 0.950 . S
H1873 C1879 0.950 . S
H1874 C1880 0.949 . S
C1875 H1870 0.950 . S
C1875 C1877 1.327 . S
C1875 C1881 1.429 . S
C1876 C1868 1.574 . S
C1876 H1871 0.949 . S
C1876 C1882 1.368 . S
C1877 C1861 1.349 . S
C1877 H1869 0.950 . S
C1877 C1875 1.327 . S
C1878 C1866 1.349 . S
C1878 H1872 0.950 . S
C1878 C1879 1.327 . S
C1879 H1873 0.950 . S
C1879 C1878 1.327 . S
C1879 C1883 1.429 . S
C1880 C1863 1.574 . S
C1880 H1874 0.949 . S
C1880 C1884 1.368 . S
C1881 C1862 1.429 . S
C1881 C1875 1.429 . S
C1881 C1882 1.523 . S
C1882 C1863 1.368 . S
C1882 C1876 1.368 . S
C1882 C1881 1.523 . S
C1883 C1867 1.429 . S
C1883 C1879 1.429 . S
C1883 C1884 1.523 . S
C1884 C1868 1.368 . S
C1884 C1880 1.368 . S
C1884 C1883 1.523 . S
H1885 C1860 0.950 . S
H1886 C1862 0.950 . S
H1887 C1863 0.949 . S
H1888 C1865 0.950 . S
H1889 C1867 0.950 . S
C1890 C1891 1.349 . S
C1890 C1892 1.327 . S
C1890 H1915 0.950 . S
C1891 C1890 1.349 . S
C1891 C1907 1.349 . S
C1892 C1890 1.327 . S
C1892 C1911 1.429 . S
C1892 H1916 0.950 . S
C1893 C1910 1.574 . S
C1893 C1912 1.368 . S
C1893 H1917 0.949 . S
H1894 C1898 0.949 . S
C1895 C1896 1.349 . S
C1895 C1897 1.327 . S
C1895 H1918 0.950 . S
C1896 C1895 1.349 . S
C1896 C1908 1.349 . S
C1897 C1895 1.327 . S
C1897 C1913 1.429 . S
C1897 H1919 0.950 . S
C1898 H1894 0.949 . S
C1898 C1906 1.574 . S
C1898 C1914 1.368 . S
H1899 C1907 0.950 . S
H1900 C1905 0.950 . S
H1901 C1906 0.949 . S
H1902 C1908 0.950 . S
H1903 C1909 0.950 . S
H1904 C1910 0.949 . S
C1905 H1900 0.950 . S
C1905 C1907 1.327 . S
C1905 C1911 1.429 . S
C1906 C1898 1.574 . S
C1906 H1901 0.949 . S
C1906 C1912 1.368 . S
C1907 C1891 1.349 . S
C1907 H1899 0.950 . S
C1907 C1905 1.327 . S
C1908 C1896 1.349 . S
C1908 H1902 0.950 . S
C1908 C1909 1.327 . S
C1909 H1903 0.950 . S
C1909 C1908 1.327 . S
C1909 C1913 1.429 . S
C1910 C1893 1.574 . S
C1910 H1904 0.949 . S
C1910 C1914 1.368 . S
C1911 C1892 1.429 . S
C1911 C1905 1.429 . S
C1911 C1912 1.523 . S
C1912 C1893 1.368 . S
C1912 C1906 1.368 . S
C1912 C1911 1.523 . S
C1913 C1897 1.429 . S
C1913 C1909 1.429 . S
C1913 C1914 1.523 . S
C1914 C1898 1.368 . S
C1914 C1910 1.368 . S
C1914 C1913 1.523 . S
H1915 C1890 0.950 . S
H1916 C1892 0.950 . S
H1917 C1893 0.949 . S
H1918 C1895 0.950 . S
H1919 C1897 0.950 . S
C1920 C1921 1.349 . S
C1920 C1922 1.327 . S
C1920 H1945 0.950 . S
C1921 C1920 1.349 . S
C1921 C1937 1.349 . S
C1922 C1920 1.327 . S
C1922 C1941 1.429 . S
C1922 H1946 0.950 . S
C1923 C1940 1.574 . S
C1923 C1942 1.368 . S
C1923 H1947 0.949 . S
H1924 C1928 0.949 . S
C1925 C1926 1.349 . S
C1925 C1927 1.327 . S
C1925 H1948 0.950 . S
C1926 C1925 1.349 . S
C1926 C1938 1.349 . S
C1927 C1925 1.327 . S
C1927 C1943 1.429 . S
C1927 H1949 0.950 . S
C1928 H1924 0.949 . S
C1928 C1936 1.574 . S
C1928 C1944 1.368 . S
H1929 C1937 0.950 . S
H1930 C1935 0.950 . S
H1931 C1936 0.949 . S
H1932 C1938 0.950 . S
H1933 C1939 0.950 . S
H1934 C1940 0.949 . S
C1935 H1930 0.950 . S
C1935 C1937 1.327 . S
C1935 C1941 1.429 . S
C1936 C1928 1.574 . S
C1936 H1931 0.949 . S
C1936 C1942 1.368 . S
C1937 C1921 1.349 . S
C1937 H1929 0.950 . S
C1937 C1935 1.327 . S
C1938 C1926 1.349 . S
C1938 H1932 0.950 . S
C1938 C1939 1.327 . S
C1939 H1933 0.950 . S
C1939 C1938 1.327 . S
C1939 C1943 1.429 . S
C1940 C1923 1.574 . S
C1940 H1934 0.949 . S
C1940 C1944 1.368 . S
C1941 C1922 1.429 . S
C1941 C1935 1.429 . S
C1941 C1942 1.523 . S
C1942 C1923 1.368 . S
C1942 C1936 1.368 . S
C1942 C1941 1.523 . S
C1943 C1927 1.429 . S
C1943 C1939 1.429 . S
C1943 C1944 1.523 . S
C1944 C1928 1.368 . S
C1944 C1940 1.368 . S
C1944 C1943 1.523 . S
H1945 C1920 0.950 . S
H1946 C1922 0.950 . S
H1947 C1923 0.949 . S
H1948 C1925 0.950 . S
H1949 C1927 0.950 . S
C1950 C1951 1.349 . S
C1950 C1952 1.327 . S
C1950 H1975 0.950 . S
C1951 C1950 1.349 . S
C1951 C1967 1.349 . S
C1952 C1950 1.327 . S
C1952 C1971 1.429 . S
C1952 H1976 0.950 . S
C1953 C1970 1.574 . S
C1953 C1972 1.368 . S
C1953 H1977 0.949 . S
H1954 C1958 0.949 . S
C1955 C1956 1.349 . S
C1955 C1957 1.327 . S
C1955 H1978 0.950 . S
C1956 C1955 1.349 . S
C1956 C1968 1.349 . S
C1957 C1955 1.327 . S
C1957 C1973 1.429 . S
C1957 H1979 0.950 . S
C1958 H1954 0.949 . S
C1958 C1966 1.574 . S
C1958 C1974 1.368 . S
H1959 C1967 0.950 . S
H1960 C1965 0.950 . S
H1961 C1966 0.949 . S
H1962 C1968 0.950 . S
H1963 C1969 0.950 . S
H1964 C1970 0.949 . S
C1965 H1960 0.950 . S
C1965 C1967 1.327 . S
C1965 C1971 1.429 . S
C1966 C1958 1.574 . S
C1966 H1961 0.949 . S
C1966 C1972 1.368 . S
C1967 C1951 1.349 . S
C1967 H1959 0.950 . S
C1967 C1965 1.327 . S
C1968 C1956 1.349 . S
C1968 H1962 0.950 . S
C1968 C1969 1.327 . S
C1969 H1963 0.950 . S
C1969 C1968 1.327 . S
C1969 C1973 1.429 . S
C1970 C1953 1.574 . S
C1970 H1964 0.949 . S
C1970 C1974 1.368 . S
C1971 C1952 1.429 . S
C1971 C1965 1.429 . S
C1971 C1972 1.523 . S
C1972 C1953 1.368 . S
C1972 C1966 1.368 . S
C1972 C1971 1.523 . S
C1973 C1957 1.429 . S
C1973 C1969 1.429 . S
C1973 C1974 1.523 . S
C1974 C1958 1.368 . S
C1974 C1970 1.368 . S
C1974 C1973 1.523 . S
H1975 C1950 0.950 . S
H1976 C1952 0.950 . S
H1977 C1953 0.949 . S
H1978 C1955 0.950 . S
H1979 C1957 0.950 . S
C1980 C1981 1.349 . S
C1980 C1982 1.327 . S
C1980 H2005 0.950 . S
C1981 C1980 1.349 . S
C1981 C1997 1.349 . S
C1982 C1980 1.327 . S
C1982 C2001 1.429 . S
C1982 H2006 0.950 . S
C1983 C2000 1.574 . S
C1983 C2002 1.368 . S
C1983 H2007 0.949 . S
H1984 C1988 0.949 . S
C1985 C1986 1.349 . S
C1985 C1987 1.327 . S
C1985 H2008 0.950 . S
C1986 C1985 1.349 . S
C1986 C1998 1.349 . S
C1987 C1985 1.327 . S
C1987 C2003 1.429 . S
C1987 H2009 0.950 . S
C1988 H1984 0.949 . S
C1988 C1996 1.574 . S
C1988 C2004 1.368 . S
H1989 C1997 0.950 . S
H1990 C1995 0.950 . S
H1991 C1996 0.949 . S
H1992 C1998 0.950 . S
H1993 C1999 0.950 . S
H1994 C2000 0.949 . S
C1995 H1990 0.950 . S
C1995 C1997 1.327 . S
C1995 C2001 1.429 . S
C1996 C1988 1.574 . S
C1996 H1991 0.949 . S
C1996 C2002 1.368 . S
C1997 C1981 1.349 . S
C1997 H1989 0.950 . S
C1997 C1995 1.327 . S
C1998 C1986 1.349 . S
C1998 H1992 0.950 . S
C1998 C1999 1.327 . S
C1999 H1993 0.950 . S
C1999 C1998 1.327 . S
C1999 C2003 1.429 . S
C2000 C1983 1.574 . S
C2000 H1994 0.949 . S
C2000 C2004 1.368 . S
C2001 C1982 1.429 . S
C2001 C1995 1.429 . S
C2001 C2002 1.523 . S
C2002 C1983 1.368 . S
C2002 C1996 1.368 . S
C2002 C2001 1.523 . S
C2003 C1987 1.429 . S
C2003 C1999 1.429 . S
C2003 C2004 1.523 . S
C2004 C1988 1.368 . S
C2004 C2000 1.368 . S
C2004 C2003 1.523 . S
H2005 C1980 0.950 . S
H2006 C1982 0.950 . S
H2007 C1983 0.949 . S
H2008 C1985 0.950 . S
H2009 C1987 0.950 . S
C2010 C2011 1.349 . S
C2010 C2012 1.327 . S
C2010 H2035 0.950 . S
C2011 C2010 1.349 . S
C2011 C2027 1.349 . S
C2012 C2010 1.327 . S
C2012 C2031 1.429 . S
C2012 H2036 0.950 . S
C2013 C2030 1.574 . S
C2013 C2032 1.368 . S
C2013 H2037 0.949 . S
H2014 C2018 0.949 . S
C2015 C2016 1.349 . S
C2015 C2017 1.327 . S
C2015 H2038 0.950 . S
C2016 C2015 1.349 . S
C2016 C2028 1.349 . S
C2017 C2015 1.327 . S
C2017 C2033 1.429 . S
C2017 H2039 0.950 . S
C2018 H2014 0.949 . S
C2018 C2026 1.574 . S
C2018 C2034 1.368 . S
H2019 C2027 0.950 . S
H2020 C2025 0.950 . S
H2021 C2026 0.949 . S
H2022 C2028 0.950 . S
H2023 C2029 0.950 . S
H2024 C2030 0.949 . S
C2025 H2020 0.950 . S
C2025 C2027 1.327 . S
C2025 C2031 1.429 . S
C2026 C2018 1.574 . S
C2026 H2021 0.949 . S
C2026 C2032 1.368 . S
C2027 C2011 1.349 . S
C2027 H2019 0.950 . S
C2027 C2025 1.327 . S
C2028 C2016 1.349 . S
C2028 H2022 0.950 . S
C2028 C2029 1.327 . S
C2029 H2023 0.950 . S
C2029 C2028 1.327 . S
C2029 C2033 1.429 . S
C2030 C2013 1.574 . S
C2030 H2024 0.949 . S
C2030 C2034 1.368 . S
C2031 C2012 1.429 . S
C2031 C2025 1.429 . S
C2031 C2032 1.523 . S
C2032 C2013 1.368 . S
C2032 C2026 1.368 . S
C2032 C2031 1.523 . S
C2033 C2017 1.429 . S
C2033 C2029 1.429 . S
C2033 C2034 1.523 . S
C2034 C2018 1.368 . S
C2034 C2030 1.368 . S
C2034 C2033 1.523 . S
H2035 C2010 0.950 . S
H2036 C2012 0.950 . S
H2037 C2013 0.949 . S
H2038 C2015 0.950 . S
H2039 C2017 0.950 . S
C2040 C2041 1.349 . S
C2040 C2042 1.327 . S
C2040 H2065 0.950 . S
C2041 C2040 1.349 . S
C2041 C2057 1.349 . S
C2042 C2040 1.327 . S
C2042 C2061 1.429 . S
C2042 H2066 0.950 . S
C2043 C2060 1.574 . S
C2043 C2062 1.368 . S
C2043 H2067 0.949 . S
H2044 C2048 0.949 . S
C2045 C2046 1.349 . S
C2045 C2047 1.327 . S
C2045 H2068 0.950 . S
C2046 C2045 1.349 . S
C2046 C2058 1.349 . S
C2047 C2045 1.327 . S
C2047 C2063 1.429 . S
C2047 H2069 0.950 . S
C2048 H2044 0.949 . S
C2048 C2056 1.574 . S
C2048 C2064 1.368 . S
H2049 C2057 0.950 . S
H2050 C2055 0.950 . S
H2051 C2056 0.949 . S
H2052 C2058 0.950 . S
H2053 C2059 0.950 . S
H2054 C2060 0.949 . S
C2055 H2050 0.950 . S
C2055 C2057 1.327 . S
C2055 C2061 1.429 . S
C2056 C2048 1.574 . S
C2056 H2051 0.949 . S
C2056 C2062 1.368 . S
C2057 C2041 1.349 . S
C2057 H2049 0.950 . S
C2057 C2055 1.327 . S
C2058 C2046 1.349 . S
C2058 H2052 0.950 . S
C2058 C2059 1.327 . S
C2059 H2053 0.950 . S
C2059 C2058 1.327 . S
C2059 C2063 1.429 . S
C2060 C2043 1.574 . S
C2060 H2054 0.949 . S
C2060 C2064 1.368 . S
C2061 C2042 1.429 . S
C2061 C2055 1.429 . S
C2061 C2062 1.523 . S
C2062 C2043 1.368 . S
C2062 C2056 1.368 . S
C2062 C2061 1.523 . S
C2063 C2047 1.429 . S
C2063 C2059 1.429 . S
C2063 C2064 1.523 . S
C2064 C2048 1.368 . S
C2064 C2060 1.368 . S
C2064 C2063 1.523 . S
H2065 C2040 0.950 . S
H2066 C2042 0.950 . S
H2067 C2043 0.949 . S
H2068 C2045 0.950 . S
H2069 C2047 0.950 . S
C2070 C2071 1.349 . S
C2070 C2072 1.327 . S
C2070 H2095 0.950 . S
C2071 C2070 1.349 . S
C2071 C2087 1.349 . S
C2072 C2070 1.327 . S
C2072 C2091 1.429 . S
C2072 H2096 0.950 . S
C2073 C2090 1.574 . S
C2073 C2092 1.368 . S
C2073 H2097 0.949 . S
H2074 C2078 0.949 . S
C2075 C2076 1.349 . S
C2075 C2077 1.327 . S
C2075 H2098 0.950 . S
C2076 C2075 1.349 . S
C2076 C2088 1.349 . S
C2077 C2075 1.327 . S
C2077 C2093 1.429 . S
C2077 H2099 0.950 . S
C2078 H2074 0.949 . S
C2078 C2086 1.574 . S
C2078 C2094 1.368 . S
H2079 C2087 0.950 . S
H2080 C2085 0.950 . S
H2081 C2086 0.949 . S
H2082 C2088 0.950 . S
H2083 C2089 0.950 . S
H2084 C2090 0.949 . S
C2085 H2080 0.950 . S
C2085 C2087 1.327 . S
C2085 C2091 1.429 . S
C2086 C2078 1.574 . S
C2086 H2081 0.949 . S
C2086 C2092 1.368 . S
C2087 C2071 1.349 . S
C2087 H2079 0.950 . S
C2087 C2085 1.327 . S
C2088 C2076 1.349 . S
C2088 H2082 0.950 . S
C2088 C2089 1.327 . S
C2089 H2083 0.950 . S
C2089 C2088 1.327 . S
C2089 C2093 1.429 . S
C2090 C2073 1.574 . S
C2090 H2084 0.949 . S
C2090 C2094 1.368 . S
C2091 C2072 1.429 . S
C2091 C2085 1.429 . S
C2091 C2092 1.523 . S
C2092 C2073 1.368 . S
C2092 C2086 1.368 . S
C2092 C2091 1.523 . S
C2093 C2077 1.429 . S
C2093 C2089 1.429 . S
C2093 C2094 1.523 . S
C2094 C2078 1.368 . S
C2094 C2090 1.368 . S
C2094 C2093 1.523 . S
H2095 C2070 0.950 . S
H2096 C2072 0.950 . S
H2097 C2073 0.949 . S
H2098 C2075 0.950 . S
H2099 C2077 0.950 . S
C2100 C2101 1.349 . S
C2100 C2102 1.327 . S
C2100 H2125 0.950 . S
C2101 C2100 1.349 . S
C2101 C2117 1.349 . S
C2102 C2100 1.327 . S
C2102 C2121 1.429 . S
C2102 H2126 0.950 . S
C2103 C2120 1.574 . S
C2103 C2122 1.368 . S
C2103 H2127 0.949 . S
H2104 C2108 0.949 . S
C2105 C2106 1.349 . S
C2105 C2107 1.327 . S
C2105 H2128 0.950 . S
C2106 C2105 1.349 . S
C2106 C2118 1.349 . S
C2107 C2105 1.327 . S
C2107 C2123 1.429 . S
C2107 H2129 0.950 . S
C2108 H2104 0.949 . S
C2108 C2116 1.574 . S
C2108 C2124 1.368 . S
H2109 C2117 0.950 . S
H2110 C2115 0.950 . S
H2111 C2116 0.949 . S
H2112 C2118 0.950 . S
H2113 C2119 0.950 . S
H2114 C2120 0.949 . S
C2115 H2110 0.950 . S
C2115 C2117 1.327 . S
C2115 C2121 1.429 . S
C2116 C2108 1.574 . S
C2116 H2111 0.949 . S
C2116 C2122 1.368 . S
C2117 C2101 1.349 . S
C2117 H2109 0.950 . S
C2117 C2115 1.327 . S
C2118 C2106 1.349 . S
C2118 H2112 0.950 . S
C2118 C2119 1.327 . S
C2119 H2113 0.950 . S
C2119 C2118 1.327 . S
C2119 C2123 1.429 . S
C2120 C2103 1.574 . S
C2120 H2114 0.949 . S
C2120 C2124 1.368 . S
C2121 C2102 1.429 . S
C2121 C2115 1.429 . S
C2121 C2122 1.523 . S
C2122 C2103 1.368 . S
C2122 C2116 1.368 . S
C2122 C2121 1.523 . S
C2123 C2107 1.429 . S
C2123 C2119 1.429 . S
C2123 C2124 1.523 . S
C2124 C2108 1.368 . S
C2124 C2120 1.368 . S
C2124 C2123 1.523 . S
H2125 C2100 0.950 . S
H2126 C2102 0.950 . S
H2127 C2103 0.949 . S
H2128 C2105 0.950 . S
H2129 C2107 0.950 . S
C2130 C2131 1.349 . S
C2130 C2132 1.327 . S
C2130 H2155 0.950 . S
C2131 C2130 1.349 . S
C2131 C2147 1.349 . S
C2132 C2130 1.327 . S
C2132 C2151 1.429 . S
C2132 H2156 0.950 . S
C2133 C2150 1.574 . S
C2133 C2152 1.368 . S
C2133 H2157 0.949 . S
H2134 C2138 0.949 . S
C2135 C2136 1.349 . S
C2135 C2137 1.327 . S
C2135 H2158 0.950 . S
C2136 C2135 1.349 . S
C2136 C2148 1.349 . S
C2137 C2135 1.327 . S
C2137 C2153 1.429 . S
C2137 H2159 0.950 . S
C2138 H2134 0.949 . S
C2138 C2146 1.574 . S
C2138 C2154 1.368 . S
H2139 C2147 0.950 . S
H2140 C2145 0.950 . S
H2141 C2146 0.949 . S
H2142 C2148 0.950 . S
H2143 C2149 0.950 . S
H2144 C2150 0.949 . S
C2145 H2140 0.950 . S
C2145 C2147 1.327 . S
C2145 C2151 1.429 . S
C2146 C2138 1.574 . S
C2146 H2141 0.949 . S
C2146 C2152 1.368 . S
C2147 C2131 1.349 . S
C2147 H2139 0.950 . S
C2147 C2145 1.327 . S
C2148 C2136 1.349 . S
C2148 H2142 0.950 . S
C2148 C2149 1.327 . S
C2149 H2143 0.950 . S
C2149 C2148 1.327 . S
C2149 C2153 1.429 . S
C2150 C2133 1.574 . S
C2150 H2144 0.949 . S
C2150 C2154 1.368 . S
C2151 C2132 1.429 . S
C2151 C2145 1.429 . S
C2151 C2152 1.523 . S
C2152 C2133 1.368 . S
C2152 C2146 1.368 . S
C2152 C2151 1.523 . S
C2153 C2137 1.429 . S
C2153 C2149 1.429 . S
C2153 C2154 1.523 . S
C2154 C2138 1.368 . S
C2154 C2150 1.368 . S
C2154 C2153 1.523 . S
H2155 C2130 0.950 . S
H2156 C2132 0.950 . S
H2157 C2133 0.949 . S
H2158 C2135 0.950 . S
H2159 C2137 0.950 . S
C2160 C2161 1.349 . S
C2160 C2162 1.327 . S
C2160 H2185 0.950 . S
C2161 C2160 1.349 . S
C2161 C2177 1.349 . S
C2162 C2160 1.327 . S
C2162 C2181 1.429 . S
C2162 H2186 0.950 . S
C2163 C2180 1.574 . S
C2163 C2182 1.368 . S
C2163 H2187 0.949 . S
H2164 C2168 0.949 . S
C2165 C2166 1.349 . S
C2165 C2167 1.327 . S
C2165 H2188 0.950 . S
C2166 C2165 1.349 . S
C2166 C2178 1.349 . S
C2167 C2165 1.327 . S
C2167 C2183 1.429 . S
C2167 H2189 0.950 . S
C2168 H2164 0.949 . S
C2168 C2176 1.574 . S
C2168 C2184 1.368 . S
H2169 C2177 0.950 . S
H2170 C2175 0.950 . S
H2171 C2176 0.949 . S
H2172 C2178 0.950 . S
H2173 C2179 0.950 . S
H2174 C2180 0.949 . S
C2175 H2170 0.950 . S
C2175 C2177 1.327 . S
C2175 C2181 1.429 . S
C2176 C2168 1.574 . S
C2176 H2171 0.949 . S
C2176 C2182 1.368 . S
C2177 C2161 1.349 . S
C2177 H2169 0.950 . S
C2177 C2175 1.327 . S
C2178 C2166 1.349 . S
C2178 H2172 0.950 . S
C2178 C2179 1.327 . S
C2179 H2173 0.950 . S
C2179 C2178 1.327 . S
C2179 C2183 1.429 . S
C2180 C2163 1.574 . S
C2180 H2174 0.949 . S
C2180 C2184 1.368 . S
C2181 C2162 1.429 . S
C2181 C2175 1.429 . S
C2181 C2182 1.523 . S
C2182 C2163 1.368 . S
C2182 C2176 1.368 . S
C2182 C2181 1.523 . S
C2183 C2167 1.429 . S
C2183 C2179 1.429 . S
C2183 C2184 1.523 . S
C2184 C2168 1.368 . S
C2184 C2180 1.368 . S
C2184 C2183 1.523 . S
H2185 C2160 0.950 . S
H2186 C2162 0.950 . S
H2187 C2163 0.949 . S
H2188 C2165 0.950 . S
H2189 C2167 0.950 . S
C2190 C2191 1.349 . S
C2190 C2192 1.327 . S
C2190 H2215 0.950 . S
C2191 C2190 1.349 . S
C2191 C2207 1.349 . S
C2192 C2190 1.327 . S
C2192 C2211 1.429 . S
C2192 H2216 0.950 . S
C2193 C2210 1.574 . S
C2193 C2212 1.368 . S
C2193 H2217 0.949 . S
H2194 C2198 0.949 . S
C2195 C2196 1.349 . S
C2195 C2197 1.327 . S
C2195 H2218 0.950 . S
C2196 C2195 1.349 . S
C2196 C2208 1.349 . S
C2197 C2195 1.327 . S
C2197 C2213 1.429 . S
C2197 H2219 0.950 . S
C2198 H2194 0.949 . S
C2198 C2206 1.574 . S
C2198 C2214 1.368 . S
H2199 C2207 0.950 . S
H2200 C2205 0.950 . S
H2201 C2206 0.949 . S
H2202 C2208 0.950 . S
H2203 C2209 0.950 . S
H2204 C2210 0.949 . S
C2205 H2200 0.950 . S
C2205 C2207 1.327 . S
C2205 C2211 1.429 . S
C2206 C2198 1.574 . S
C2206 H2201 0.949 . S
C2206 C2212 1.368 . S
C2207 C2191 1.349 . S
C2207 H2199 0.950 . S
C2207 C2205 1.327 . S
C2208 C2196 1.349 . S
C2208 H2202 0.950 . S
C2208 C2209 1.327 . S
C2209 H2203 0.950 . S
C2209 C2208 1.327 . S
C2209 C2213 1.429 . S
C2210 C2193 1.574 . S
C2210 H2204 0.949 . S
C2210 C2214 1.368 . S
C2211 C2192 1.429 . S
C2211 C2205 1.429 . S
C2211 C2212 1.523 . S
C2212 C2193 1.368 . S
C2212 C2206 1.368 . S
C2212 C2211 1.523 . S
C2213 C2197 1.429 . S
C2213 C2209 1.429 . S
C2213 C2214 1.523 . S
C2214 C2198 1.368 . S
C2214 C2210 1.368 . S
C2214 C2213 1.523 . S
H2215 C2190 0.950 . S
H2216 C2192 0.950 . S
H2217 C2193 0.949 . S
H2218 C2195 0.950 . S
H2219 C2197 0.950 . S
C2220 C2221 1.349 . S
C2220 C2222 1.327 . S
C2220 H2245 0.950 . S
C2221 C2220 1.349 . S
C2221 C2237 1.349 . S
C2222 C2220 1.327 . S
C2222 C2241 1.429 . S
C2222 H2246 0.950 . S
C2223 C2240 1.574 . S
C2223 C2242 1.368 . S
C2223 H2247 0.949 . S
H2224 C2228 0.949 . S
C2225 C2226 1.349 . S
C2225 C2227 1.327 . S
C2225 H2248 0.950 . S
C2226 C2225 1.349 . S
C2226 C2238 1.349 . S
C2227 C2225 1.327 . S
C2227 C2243 1.429 . S
C2227 H2249 0.950 . S
C2228 H2224 0.949 . S
C2228 C2236 1.574 . S
C2228 C2244 1.368 . S
H2229 C2237 0.950 . S
H2230 C2235 0.950 . S
H2231 C2236 0.949 . S
H2232 C2238 0.950 . S
H2233 C2239 0.950 . S
H2234 C2240 0.949 . S
C2235 H2230 0.950 . S
C2235 C2237 1.327 . S
C2235 C2241 1.429 . S
C2236 C2228 1.574 . S
C2236 H2231 0.949 . S
C2236 C2242 1.368 . S
C2237 C2221 1.349 . S
C2237 H2229 0.950 . S
C2237 C2235 1.327 . S
C2238 C2226 1.349 . S
C2238 H2232 0.950 . S
C2238 C2239 1.327 . S
C2239 H2233 0.950 . S
C2239 C2238 1.327 . S
C2239 C2243 1.429 . S
C2240 C2223 1.574 . S
C2240 H2234 0.949 . S
C2240 C2244 1.368 . S
C2241 C2222 1.429 . S
C2241 C2235 1.429 . S
C2241 C2242 1.523 . S
C2242 C2223 1.368 . S
C2242 C2236 1.368 . S
C2242 C2241 1.523 . S
C2243 C2227 1.429 . S
C2243 C2239 1.429 . S
C2243 C2244 1.523 . S
C2244 C2228 1.368 . S
C2244 C2240 1.368 . S
C2244 C2243 1.523 . S
H2245 C2220 0.950 . S
H2246 C2222 0.950 . S
H2247 C2223 0.949 . S
H2248 C2225 0.950 . S
H2249 C2227 0.950 . S
C2250 C2251 1.349 . S
C2250 C2252 1.327 . S
C2250 H2275 0.950 . S
C2251 C2250 1.349 . S
C2251 C2267 1.349 . S
C2252 C2250 1.327 . S
C2252 C2271 1.429 . S
C2252 H2276 0.950 . S
C2253 C2270 1.574 . S
C2253 C2272 1.368 . S
C2253 H2277 0.949 . S
H2254 C2258 0.949 . S
C2255 C2256 1.349 . S
C2255 C2257 1.327 . S
C2255 H2278 0.950 . S
C2256 C2255 1.349 . S
C2256 C2268 1.349 . S
C2257 C2255 1.327 . S
C2257 C2273 1.429 . S
C2257 H2279 0.950 . S
C2258 H2254 0.949 . S
C2258 C2266 1.574 . S
C2258 C2274 1.368 . S
H2259 C2267 0.950 . S
H2260 C2265 0.950 . S
H2261 C2266 0.949 . S
H2262 C2268 0.950 . S
H2263 C2269 0.950 . S
H2264 C2270 0.949 . S
C2265 H2260 0.950 . S
C2265 C2267 1.327 . S
C2265 C2271 1.429 . S
C2266 C2258 1.574 . S
C2266 H2261 0.949 . S
C2266 C2272 1.368 . S
C2267 C2251 1.349 . S
C2267 H2259 0.950 . S
C2267 C2265 1.327 . S
C2268 C2256 1.349 . S
C2268 H2262 0.950 . S
C2268 C2269 1.327 . S
C2269 H2263 0.950 . S
C2269 C2268 1.327 . S
C2269 C2273 1.429 . S
C2270 C2253 1.574 . S
C2270 H2264 0.949 . S
C2270 C2274 1.368 . S
C2271 C2252 1.429 . S
C2271 C2265 1.429 . S
C2271 C2272 1.523 . S
C2272 C2253 1.368 . S
C2272 C2266 1.368 . S
C2272 C2271 1.523 . S
C2273 C2257 1.429 . S
C2273 C2269 1.429 . S
C2273 C2274 1.523 . S
C2274 C2258 1.368 . S
C2274 C2270 1.368 . S
C2274 C2273 1.523 . S
H2275 C2250 0.950 . S
H2276 C2252 0.950 . S
H2277 C2253 0.949 . S
H2278 C2255 0.950 . S
H2279 C2257 0.950 . S
C2280 C2281 1.349 . S
C2280 C2282 1.327 . S
C2280 H2305 0.950 . S
C2281 C2280 1.349 . S
C2281 C2297 1.349 . S
C2282 C2280 1.327 . S
C2282 C2301 1.429 . S
C2282 H2306 0.950 . S
C2283 C2300 1.574 . S
C2283 C2302 1.368 . S
C2283 H2307 0.949 . S
H2284 C2288 0.949 . S
C2285 C2286 1.349 . S
C2285 C2287 1.327 . S
C2285 H2308 0.950 . S
C2286 C2285 1.349 . S
C2286 C2298 1.349 . S
C2287 C2285 1.327 . S
C2287 C2303 1.429 . S
C2287 H2309 0.950 . S
C2288 H2284 0.949 . S
C2288 C2296 1.574 . S
C2288 C2304 1.368 . S
H2289 C2297 0.929 1_554 S
H2290 C2295 0.950 . S
H2291 C2296 0.949 . S
H2292 C2298 0.950 . S
H2293 C2299 0.950 . S
H2294 C2300 0.949 . S
C2295 H2290 0.950 . S
C2295 C2297 1.327 . S
C2295 C2301 1.429 . S
C2296 C2288 1.574 . S
C2296 H2291 0.949 . S
C2296 C2302 1.368 . S
C2297 C2281 1.349 . S
C2297 H2289 0.929 1_556 S
C2297 C2295 1.327 . S
C2298 C2286 1.349 . S
C2298 H2292 0.950 . S
C2298 C2299 1.327 . S
C2299 H2293 0.950 . S
C2299 C2298 1.327 . S
C2299 C2303 1.429 . S
C2300 C2283 1.574 . S
C2300 H2294 0.949 . S
C2300 C2304 1.368 . S
C2301 C2282 1.429 . S
C2301 C2295 1.429 . S
C2301 C2302 1.523 . S
C2302 C2283 1.368 . S
C2302 C2296 1.368 . S
C2302 C2301 1.523 . S
C2303 C2287 1.429 . S
C2303 C2299 1.429 . S
C2303 C2304 1.523 . S
C2304 C2288 1.368 . S
C2304 C2300 1.368 . S
C2304 C2303 1.523 . S
H2305 C2280 0.950 . S
H2306 C2282 0.950 . S
H2307 C2283 0.949 . S
H2308 C2285 0.950 . S
H2309 C2287 0.950 . S
C2310 C2311 1.349 . S
C2310 C2312 1.327 . S
C2310 H2335 0.950 . S
C2311 C2310 1.349 . S
C2311 C2327 1.349 . S
C2312 C2310 1.327 . S
C2312 C2331 1.429 . S
C2312 H2336 0.950 . S
C2313 C2330 1.574 . S
C2313 C2332 1.368 . S
C2313 H2337 0.949 . S
H2314 C2318 0.949 . S
C2315 C2316 1.349 . S
C2315 C2317 1.327 . S
C2315 H2338 0.950 . S
C2316 C2315 1.349 . S
C2316 C2328 1.349 . S
C2317 C2315 1.327 . S
C2317 C2333 1.429 . S
C2317 H2339 0.950 . S
C2318 H2314 0.949 . S
C2318 C2326 1.574 . S
C2318 C2334 1.368 . S
H2319 C2327 0.950 1_554 S
H2320 C2325 0.950 . S
H2321 C2326 0.949 . S
H2322 C2328 0.950 . S
H2323 C2329 0.950 . S
H2324 C2330 0.949 . S
C2325 H2320 0.950 . S
C2325 C2327 1.327 . S
C2325 C2331 1.429 . S
C2326 C2318 1.574 . S
C2326 H2321 0.949 . S
C2326 C2332 1.368 . S
C2327 C2311 1.349 . S
C2327 H2319 0.950 1_556 S
C2327 C2325 1.327 . S
C2328 C2316 1.349 . S
C2328 H2322 0.950 . S
C2328 C2329 1.327 . S
C2329 H2323 0.950 . S
C2329 C2328 1.327 . S
C2329 C2333 1.429 . S
C2330 C2313 1.574 . S
C2330 H2324 0.949 . S
C2330 C2334 1.368 . S
C2331 C2312 1.429 . S
C2331 C2325 1.429 . S
C2331 C2332 1.523 . S
C2332 C2313 1.368 . S
C2332 C2326 1.368 . S
C2332 C2331 1.523 . S
C2333 C2317 1.429 . S
C2333 C2329 1.429 . S
C2333 C2334 1.523 . S
C2334 C2318 1.368 . S
C2334 C2330 1.368 . S
C2334 C2333 1.523 . S
H2335 C2310 0.950 . S
H2336 C2312 0.950 . S
H2337 C2313 0.949 . S
H2338 C2315 0.950 . S
H2339 C2317 0.950 . S
C2340 C2341 1.349 . S
C2340 C2342 1.327 . S
C2340 H2365 0.950 . S
C2341 C2340 1.349 . S
C2341 C2357 1.349 . S
C2342 C2340 1.327 . S
C2342 C2361 1.429 . S
C2342 H2366 0.950 . S
C2343 C2360 1.574 . S
C2343 C2362 1.368 . S
C2343 H2367 0.949 . S
H2344 C2348 0.949 . S
C2345 C2346 1.349 . S
C2345 C2347 1.327 . S
C2345 H2368 0.950 . S
C2346 C2345 1.349 . S
C2346 C2358 1.349 . S
C2347 C2345 1.327 . S
C2347 C2363 1.429 . S
C2347 H2369 0.950 . S
C2348 H2344 0.949 . S
C2348 C2356 1.574 . S
C2348 C2364 1.368 . S
H2349 C2357 0.950 . S
H2350 C2355 0.950 . S
H2351 C2356 0.949 . S
H2352 C2358 0.950 . S
H2353 C2359 0.950 . S
H2354 C2360 0.949 . S
C2355 H2350 0.950 . S
C2355 C2357 1.327 . S
C2355 C2361 1.429 . S
C2356 C2348 1.574 . S
C2356 H2351 0.949 . S
C2356 C2362 1.368 . S
C2357 C2341 1.349 . S
C2357 H2349 0.950 . S
C2357 C2355 1.327 . S
C2358 C2346 1.349 . S
C2358 H2352 0.950 . S
C2358 C2359 1.327 . S
C2359 H2353 0.950 . S
C2359 C2358 1.327 . S
C2359 C2363 1.429 . S
C2360 C2343 1.574 . S
C2360 H2354 0.949 . S
C2360 C2364 1.368 . S
C2361 C2342 1.429 . S
C2361 C2355 1.429 . S
C2361 C2362 1.523 . S
C2362 C2343 1.368 . S
C2362 C2356 1.368 . S
C2362 C2361 1.523 . S
C2363 C2347 1.429 . S
C2363 C2359 1.429 . S
C2363 C2364 1.523 . S
C2364 C2348 1.368 . S
C2364 C2360 1.368 . S
C2364 C2363 1.523 . S
H2365 C2340 0.950 . S
H2366 C2342 0.950 . S
H2367 C2343 0.949 . S
H2368 C2345 0.950 . S
H2369 C2347 0.950 . S
C2370 C2371 1.349 . S
C2370 C2372 1.327 . S
C2370 H2395 0.950 . S
C2371 C2370 1.349 . S
C2371 C2387 1.349 . S
C2372 C2370 1.327 . S
C2372 C2391 1.429 . S
C2372 H2396 0.950 . S
C2373 C2390 1.574 . S
C2373 C2392 1.368 . S
C2373 H2397 0.949 . S
H2374 C2378 0.949 . S
C2375 C2376 1.349 . S
C2375 C2377 1.327 . S
C2375 H2398 0.950 . S
C2376 C2375 1.349 . S
C2376 C2388 1.349 . S
C2377 C2375 1.327 . S
C2377 C2393 1.429 . S
C2377 H2399 0.950 . S
C2378 H2374 0.949 . S
C2378 C2386 1.574 . S
C2378 C2394 1.368 . S
H2379 C2387 0.950 1_554 S
H2380 C2385 0.950 . S
H2381 C2386 0.949 . S
H2382 C2388 0.950 . S
H2383 C2389 0.950 . S
H2384 C2390 0.949 . S
C2385 H2380 0.950 . S
C2385 C2387 1.327 . S
C2385 C2391 1.429 . S
C2386 C2378 1.574 . S
C2386 H2381 0.949 . S
C2386 C2392 1.368 . S
C2387 C2371 1.349 . S
C2387 H2379 0.950 1_556 S
C2387 C2385 1.327 . S
C2388 C2376 1.349 . S
C2388 H2382 0.950 . S
C2388 C2389 1.327 . S
C2389 H2383 0.950 . S
C2389 C2388 1.327 . S
C2389 C2393 1.429 . S
C2390 C2373 1.574 . S
C2390 H2384 0.949 . S
C2390 C2394 1.368 . S
C2391 C2372 1.429 . S
C2391 C2385 1.429 . S
C2391 C2392 1.523 . S
C2392 C2373 1.368 . S
C2392 C2386 1.368 . S
C2392 C2391 1.523 . S
C2393 C2377 1.429 . S
C2393 C2389 1.429 . S
C2393 C2394 1.523 . S
C2394 C2378 1.368 . S
C2394 C2390 1.368 . S
C2394 C2393 1.523 . S
H2395 C2370 0.950 . S
H2396 C2372 0.950 . S
H2397 C2373 0.949 . S
H2398 C2375 0.950 . S
H2399 C2377 0.950 . S
C2400 C2401 1.349 . S
C2400 C2402 1.327 . S
C2400 H2425 0.950 . S
C2401 C2400 1.349 . S
C2401 C2417 1.349 . S
C2402 C2400 1.327 . S
C2402 C2421 1.429 . S
C2402 H2426 0.950 . S
C2403 C2420 1.574 . S
C2403 C2422 1.368 . S
C2403 H2427 0.949 . S
H2404 C2408 0.949 . S
C2405 C2406 1.349 . S
C2405 C2407 1.327 . S
C2405 H2428 0.950 . S
C2406 C2405 1.349 . S
C2406 C2418 1.349 . S
C2407 C2405 1.327 . S
C2407 C2423 1.429 . S
C2407 H2429 0.950 . S
C2408 H2404 0.949 . S
C2408 C2416 1.574 . S
C2408 C2424 1.368 . S
H2409 C2417 0.957 . S
H2410 C2415 0.950 . S
H2411 C2416 0.949 . S
H2412 C2418 0.950 . S
H2413 C2419 0.950 . S
H2414 C2420 0.949 . S
C2415 H2410 0.950 . S
C2415 C2417 1.327 . S
C2415 C2421 1.429 . S
C2416 C2408 1.574 . S
C2416 H2411 0.949 . S
C2416 C2422 1.368 . S
C2417 C2401 1.349 . S
C2417 H2409 0.957 . S
C2417 C2415 1.327 . S
C2418 C2406 1.349 . S
C2418 H2412 0.950 . S
C2418 C2419 1.327 . S
C2419 H2413 0.950 . S
C2419 C2418 1.327 . S
C2419 C2423 1.429 . S
C2420 C2403 1.574 . S
C2420 H2414 0.949 . S
C2420 C2424 1.368 . S
C2421 C2402 1.429 . S
C2421 C2415 1.429 . S
C2421 C2422 1.523 . S
C2422 C2403 1.368 . S
C2422 C2416 1.368 . S
C2422 C2421 1.523 . S
C2423 C2407 1.429 . S
C2423 C2419 1.429 . S
C2423 C2424 1.523 . S
C2424 C2408 1.368 . S
C2424 C2420 1.368 . S
C2424 C2423 1.523 . S
H2425 C2400 0.950 . S
H2426 C2402 0.950 . S
H2427 C2403 0.949 . S
H2428 C2405 0.950 . S
H2429 C2407 0.950 . S
C2430 C2431 1.349 . S
C2430 C2432 1.327 . S
C2430 H2455 0.950 . S
C2431 C2430 1.349 . S
C2431 C2447 1.349 . S
C2432 C2430 1.327 . S
C2432 C2451 1.429 . S
C2432 H2456 0.950 . S
C2433 C2450 1.574 . S
C2433 C2452 1.368 . S
C2433 H2457 0.949 . S
H2434 C2438 0.949 . S
C2435 C2436 1.349 . S
C2435 C2437 1.327 . S
C2435 H2458 0.950 . S
C2436 C2435 1.349 . S
C2436 C2448 1.349 . S
C2437 C2435 1.327 . S
C2437 C2453 1.429 . S
C2437 H2459 0.950 . S
C2438 H2434 0.949 . S
C2438 C2446 1.574 . S
C2438 C2454 1.368 . S
H2439 C2447 0.950 . S
H2440 C2445 0.950 . S
H2441 C2446 0.949 . S
H2442 C2448 0.950 . S
H2443 C2449 0.950 . S
H2444 C2450 0.949 . S
C2445 H2440 0.950 . S
C2445 C2447 1.327 . S
C2445 C2451 1.429 . S
C2446 C2438 1.574 . S
C2446 H2441 0.949 . S
C2446 C2452 1.368 . S
C2447 C2431 1.349 . S
C2447 H2439 0.950 . S
C2447 C2445 1.327 . S
C2448 C2436 1.349 . S
C2448 H2442 0.950 . S
C2448 C2449 1.327 . S
C2449 H2443 0.950 . S
C2449 C2448 1.327 . S
C2449 C2453 1.429 . S
C2450 C2433 1.574 . S
C2450 H2444 0.949 . S
C2450 C2454 1.368 . S
C2451 C2432 1.429 . S
C2451 C2445 1.429 . S
C2451 C2452 1.523 . S
C2452 C2433 1.368 . S
C2452 C2446 1.368 . S
C2452 C2451 1.523 . S
C2453 C2437 1.429 . S
C2453 C2449 1.429 . S
C2453 C2454 1.523 . S
C2454 C2438 1.368 . S
C2454 C2450 1.368 . S
C2454 C2453 1.523 . S
H2455 C2430 0.950 . S
H2456 C2432 0.950 . S
H2457 C2433 0.949 . S
H2458 C2435 0.950 . S
H2459 C2437 0.950 . S
C2460 C2461 1.349 . S
C2460 C2462 1.327 . S
C2460 H2485 0.950 . S
C2461 C2460 1.349 . S
C2461 C2477 1.349 . S
C2462 C2460 1.327 . S
C2462 C2481 1.429 . S
C2462 H2486 0.950 . S
C2463 C2480 1.574 . S
C2463 C2482 1.368 . S
C2463 H2487 0.949 . S
H2464 C2468 0.949 . S
C2465 C2466 1.349 . S
C2465 C2467 1.327 . S
C2465 H2488 0.950 . S
C2466 C2465 1.349 . S
C2466 C2478 1.349 . S
C2467 C2465 1.327 . S
C2467 C2483 1.429 . S
C2467 H2489 0.950 . S
C2468 H2464 0.949 . S
C2468 C2476 1.574 . S
C2468 C2484 1.368 . S
H2469 C2477 0.950 . S
H2470 C2475 0.950 . S
H2471 C2476 0.949 . S
H2472 C2478 0.950 . S
H2473 C2479 0.950 . S
H2474 C2480 0.949 . S
C2475 H2470 0.950 . S
C2475 C2477 1.327 . S
C2475 C2481 1.429 . S
C2476 C2468 1.574 . S
C2476 H2471 0.949 . S
C2476 C2482 1.368 . S
C2477 C2461 1.349 . S
C2477 H2469 0.950 . S
C2477 C2475 1.327 . S
C2478 C2466 1.349 . S
C2478 H2472 0.950 . S
C2478 C2479 1.327 . S
C2479 H2473 0.950 . S
C2479 C2478 1.327 . S
C2479 C2483 1.429 . S
C2480 C2463 1.574 . S
C2480 H2474 0.949 . S
C2480 C2484 1.368 . S
C2481 C2462 1.429 . S
C2481 C2475 1.429 . S
C2481 C2482 1.523 . S
C2482 C2463 1.368 . S
C2482 C2476 1.368 . S
C2482 C2481 1.523 . S
C2483 C2467 1.429 . S
C2483 C2479 1.429 . S
C2483 C2484 1.523 . S
C2484 C2468 1.368 . S
C2484 C2480 1.368 . S
C2484 C2483 1.523 . S
H2485 C2460 0.950 . S
H2486 C2462 0.950 . S
H2487 C2463 0.949 . S
H2488 C2465 0.950 . S
H2489 C2467 0.950 . S
C2490 C2491 1.349 . S
C2490 C2492 1.327 . S
C2490 H2515 0.950 . S
C2491 C2490 1.349 . S
C2491 C2507 1.349 . S
C2492 C2490 1.327 . S
C2492 C2511 1.429 . S
C2492 H2516 0.950 . S
C2493 C2510 1.574 . S
C2493 C2512 1.368 . S
C2493 H2517 0.949 . S
H2494 C2498 0.949 . S
C2495 C2496 1.349 . S
C2495 C2497 1.327 . S
C2495 H2518 0.950 . S
C2496 C2495 1.349 . S
C2496 C2508 1.349 . S
C2497 C2495 1.327 . S
C2497 C2513 1.429 . S
C2497 H2519 0.950 . S
C2498 H2494 0.949 . S
C2498 C2506 1.574 . S
C2498 C2514 1.368 . S
H2499 C2507 0.950 . S
H2500 C2505 0.950 . S
H2501 C2506 0.949 . S
H2502 C2508 0.950 . S
H2503 C2509 0.950 . S
H2504 C2510 0.949 . S
C2505 H2500 0.950 . S
C2505 C2507 1.327 . S
C2505 C2511 1.429 . S
C2506 C2498 1.574 . S
C2506 H2501 0.949 . S
C2506 C2512 1.368 . S
C2507 C2491 1.349 . S
C2507 H2499 0.950 . S
C2507 C2505 1.327 . S
C2508 C2496 1.349 . S
C2508 H2502 0.950 . S
C2508 C2509 1.327 . S
C2509 H2503 0.950 . S
C2509 C2508 1.327 . S
C2509 C2513 1.429 . S
C2510 C2493 1.574 . S
C2510 H2504 0.949 . S
C2510 C2514 1.368 . S
C2511 C2492 1.429 . S
C2511 C2505 1.429 . S
C2511 C2512 1.523 . S
C2512 C2493 1.368 . S
C2512 C2506 1.368 . S
C2512 C2511 1.523 . S
C2513 C2497 1.429 . S
C2513 C2509 1.429 . S
C2513 C2514 1.523 . S
C2514 C2498 1.368 . S
C2514 C2510 1.368 . S
C2514 C2513 1.523 . S
H2515 C2490 0.950 . S
H2516 C2492 0.950 . S
H2517 C2493 0.949 . S
H2518 C2495 0.950 . S
H2519 C2497 0.950 . S
C2520 C2521 1.349 . S
C2520 C2522 1.327 . S
C2520 H2545 0.950 . S
C2521 C2520 1.349 . S
C2521 C2537 1.349 . S
C2522 C2520 1.327 . S
C2522 C2541 1.429 . S
C2522 H2546 0.950 . S
C2523 C2540 1.574 . S
C2523 C2542 1.368 . S
C2523 H2547 0.949 . S
H2524 C2528 0.949 . S
C2525 C2526 1.349 . S
C2525 C2527 1.327 . S
C2525 H2548 0.950 . S
C2526 C2525 1.349 . S
C2526 C2538 1.349 . S
C2527 C2525 1.327 . S
C2527 C2543 1.429 . S
C2527 H2549 0.950 . S
C2528 H2524 0.949 . S
C2528 C2536 1.574 . S
C2528 C2544 1.368 . S
H2529 C2537 0.950 . S
H2530 C2535 0.950 . S
H2531 C2536 0.949 . S
H2532 C2538 0.950 . S
H2533 C2539 0.950 . S
H2534 C2540 0.949 . S
C2535 H2530 0.950 . S
C2535 C2537 1.327 . S
C2535 C2541 1.429 . S
C2536 C2528 1.574 . S
C2536 H2531 0.949 . S
C2536 C2542 1.368 . S
C2537 C2521 1.349 . S
C2537 H2529 0.950 . S
C2537 C2535 1.327 . S
C2538 C2526 1.349 . S
C2538 H2532 0.950 . S
C2538 C2539 1.327 . S
C2539 H2533 0.950 . S
C2539 C2538 1.327 . S
C2539 C2543 1.429 . S
C2540 C2523 1.574 . S
C2540 H2534 0.949 . S
C2540 C2544 1.368 . S
C2541 C2522 1.429 . S
C2541 C2535 1.429 . S
C2541 C2542 1.523 . S
C2542 C2523 1.368 . S
C2542 C2536 1.368 . S
C2542 C2541 1.523 . S
C2543 C2527 1.429 . S
C2543 C2539 1.429 . S
C2543 C2544 1.523 . S
C2544 C2528 1.368 . S
C2544 C2540 1.368 . S
C2544 C2543 1.523 . S
H2545 C2520 0.950 . S
H2546 C2522 0.950 . S
H2547 C2523 0.949 . S
H2548 C2525 0.950 . S
H2549 C2527 0.950 . S
C2550 C2551 1.349 . S
C2550 C2552 1.327 . S
C2550 H2575 0.950 . S
C2551 C2550 1.349 . S
C2551 C2567 1.349 . S
C2552 C2550 1.327 . S
C2552 C2571 1.429 . S
C2552 H2576 0.950 . S
C2553 C2570 1.574 . S
C2553 C2572 1.368 . S
C2553 H2577 0.949 . S
H2554 C2558 0.949 . S
C2555 C2556 1.349 . S
C2555 C2557 1.327 . S
C2555 H2578 0.950 . S
C2556 C2555 1.349 . S
C2556 C2568 1.349 . S
C2557 C2555 1.327 . S
C2557 C2573 1.429 . S
C2557 H2579 0.950 . S
C2558 H2554 0.949 . S
C2558 C2566 1.574 . S
C2558 C2574 1.368 . S
H2559 C2567 0.950 . S
H2560 C2565 0.950 . S
H2561 C2566 0.949 . S
H2562 C2568 0.950 . S
H2563 C2569 0.950 . S
H2564 C2570 0.949 . S
C2565 H2560 0.950 . S
C2565 C2567 1.327 . S
C2565 C2571 1.429 . S
C2566 C2558 1.574 . S
C2566 H2561 0.949 . S
C2566 C2572 1.368 . S
C2567 C2551 1.349 . S
C2567 H2559 0.950 . S
C2567 C2565 1.327 . S
C2568 C2556 1.349 . S
C2568 H2562 0.950 . S
C2568 C2569 1.327 . S
C2569 H2563 0.950 . S
C2569 C2568 1.327 . S
C2569 C2573 1.429 . S
C2570 C2553 1.574 . S
C2570 H2564 0.949 . S
C2570 C2574 1.368 . S
C2571 C2552 1.429 . S
C2571 C2565 1.429 . S
C2571 C2572 1.523 . S
C2572 C2553 1.368 . S
C2572 C2566 1.368 . S
C2572 C2571 1.523 . S
C2573 C2557 1.429 . S
C2573 C2569 1.429 . S
C2573 C2574 1.523 . S
C2574 C2558 1.368 . S
C2574 C2570 1.368 . S
C2574 C2573 1.523 . S
H2575 C2550 0.950 . S
H2576 C2552 0.950 . S
H2577 C2553 0.949 . S
H2578 C2555 0.950 . S
H2579 C2557 0.950 . S
C2580 C2581 1.349 . S
C2580 C2582 1.327 . S
C2580 H2605 0.950 . S
C2581 C2580 1.349 . S
C2581 C2597 1.349 . S
C2582 C2580 1.327 . S
C2582 C2601 1.429 . S
C2582 H2606 0.950 . S
C2583 C2600 1.574 . S
C2583 C2602 1.368 . S
C2583 H2607 0.949 . S
H2584 C2588 0.949 . S
C2585 C2586 1.349 . S
C2585 C2587 1.327 . S
C2585 H2608 0.950 . S
C2586 C2585 1.349 . S
C2586 C2598 1.349 . S
C2587 C2585 1.327 . S
C2587 C2603 1.429 . S
C2587 H2609 0.950 . S
C2588 H2584 0.949 . S
C2588 C2596 1.574 . S
C2588 C2604 1.368 . S
H2589 C2597 0.950 . S
H2590 C2595 0.950 . S
H2591 C2596 0.949 . S
H2592 C2598 0.950 . S
H2593 C2599 0.950 . S
H2594 C2600 0.949 . S
C2595 H2590 0.950 . S
C2595 C2597 1.327 . S
C2595 C2601 1.429 . S
C2596 C2588 1.574 . S
C2596 H2591 0.949 . S
C2596 C2602 1.368 . S
C2597 C2581 1.349 . S
C2597 H2589 0.950 . S
C2597 C2595 1.327 . S
C2598 C2586 1.349 . S
C2598 H2592 0.950 . S
C2598 C2599 1.327 . S
C2599 H2593 0.950 . S
C2599 C2598 1.327 . S
C2599 C2603 1.429 . S
C2600 C2583 1.574 . S
C2600 H2594 0.949 . S
C2600 C2604 1.368 . S
C2601 C2582 1.429 . S
C2601 C2595 1.429 . S
C2601 C2602 1.523 . S
C2602 C2583 1.368 . S
C2602 C2596 1.368 . S
C2602 C2601 1.523 . S
C2603 C2587 1.429 . S
C2603 C2599 1.429 . S
C2603 C2604 1.523 . S
C2604 C2588 1.368 . S
C2604 C2600 1.368 . S
C2604 C2603 1.523 . S
H2605 C2580 0.950 . S
H2606 C2582 0.950 . S
H2607 C2583 0.949 . S
H2608 C2585 0.950 . S
H2609 C2587 0.950 . S
C2610 C2611 1.349 . S
C2610 C2612 1.327 . S
C2610 H2635 0.950 1_455 S
C2611 C2610 1.349 . S
C2611 C2627 1.349 . S
C2612 C2610 1.327 . S
C2612 C2631 1.429 . S
C2612 H2636 0.950 1_455 S
C2613 C2630 1.574 . S
C2613 C2632 1.368 . S
C2613 H2637 0.949 . S
H2614 C2618 0.949 . S
C2615 C2616 1.349 . S
C2615 C2617 1.327 . S
C2615 H2638 0.950 . S
C2616 C2615 1.349 . S
C2616 C2628 1.349 1_455 S
C2617 C2615 1.327 . S
C2617 C2633 1.429 . S
C2617 H2639 0.950 . S
C2618 H2614 0.949 . S
C2618 C2626 1.574 . S
C2618 C2634 1.368 1_655 S
H2619 C2627 0.950 . S
H2620 C2625 0.950 . S
H2621 C2626 0.949 . S
H2622 C2628 0.950 . S
H2623 C2629 0.950 . S
H2624 C2630 0.949 . S
C2625 H2620 0.950 . S
C2625 C2627 1.327 . S
C2625 C2631 1.429 . S
C2626 C2618 1.574 . S
C2626 H2621 0.949 . S
C2626 C2632 1.368 1_655 S
C2627 C2611 1.349 . S
C2627 H2619 0.950 . S
C2627 C2625 1.327 . S
C2628 C2616 1.349 1_655 S
C2628 H2622 0.950 . S
C2628 C2629 1.327 . S
C2629 H2623 0.950 . S
C2629 C2628 1.327 . S
C2629 C2633 1.429 1_655 S
C2630 C2613 1.574 . S
C2630 H2624 0.949 . S
C2630 C2634 1.368 . S
C2631 C2612 1.429 . S
C2631 C2625 1.429 . S
C2631 C2632 1.523 . S
C2632 C2613 1.368 . S
C2632 C2626 1.368 1_455 S
C2632 C2631 1.523 . S
C2633 C2617 1.429 . S
C2633 C2629 1.429 1_455 S
C2633 C2634 1.523 . S
C2634 C2618 1.368 1_455 S
C2634 C2630 1.368 . S
C2634 C2633 1.523 . S
H2635 C2610 0.950 1_655 S
H2636 C2612 0.950 1_655 S
H2637 C2613 0.949 . S
H2638 C2615 0.950 . S
H2639 C2617 0.950 . S
C2640 C2641 1.349 . S
C2640 C2642 1.327 . S
C2640 H2665 0.950 . S
C2641 C2640 1.349 . S
C2641 C2657 1.349 . S
C2642 C2640 1.327 . S
C2642 C2661 1.429 . S
C2642 H2666 0.950 . S
C2643 C2660 1.574 . S
C2643 C2662 1.368 . S
C2643 H2667 0.949 . S
H2644 C2648 0.949 . S
C2645 C2646 1.349 . S
C2645 C2647 1.327 . S
C2645 H2668 0.950 . S
C2646 C2645 1.349 . S
C2646 C2658 1.349 . S
C2647 C2645 1.327 . S
C2647 C2663 1.429 . S
C2647 H2669 0.950 . S
C2648 H2644 0.949 . S
C2648 C2656 1.574 . S
C2648 C2664 1.368 . S
H2649 C2657 0.950 . S
H2650 C2655 0.950 . S
H2651 C2656 0.949 . S
H2652 C2658 0.950 . S
H2653 C2659 0.950 . S
H2654 C2660 0.949 . S
C2655 H2650 0.950 . S
C2655 C2657 1.327 . S
C2655 C2661 1.429 . S
C2656 C2648 1.574 . S
C2656 H2651 0.949 . S
C2656 C2662 1.368 . S
C2657 C2641 1.349 . S
C2657 H2649 0.950 . S
C2657 C2655 1.327 . S
C2658 C2646 1.349 . S
C2658 H2652 0.950 . S
C2658 C2659 1.327 . S
C2659 H2653 0.950 . S
C2659 C2658 1.327 . S
C2659 C2663 1.429 . S
C2660 C2643 1.574 . S
C2660 H2654 0.949 . S
C2660 C2664 1.368 . S
C2661 C2642 1.429 . S
C2661 C2655 1.429 . S
C2661 C2662 1.523 . S
C2662 C2643 1.368 . S
C2662 C2656 1.368 . S
C2662 C2661 1.523 . S
C2663 C2647 1.429 . S
C2663 C2659 1.429 . S
C2663 C2664 1.523 . S
C2664 C2648 1.368 . S
C2664 C2660 1.368 . S
C2664 C2663 1.523 . S
H2665 C2640 0.950 . S
H2666 C2642 0.950 . S
H2667 C2643 0.949 . S
H2668 C2645 0.950 . S
H2669 C2647 0.950 . S
C2670 C2671 1.349 . S
C2670 C2672 1.327 . S
C2670 H2695 0.950 . S
C2671 C2670 1.349 . S
C2671 C2687 1.339 1_565 S
C2672 C2670 1.327 . S
C2672 C2691 1.429 . S
C2672 H2696 0.950 . S
C2673 C2690 1.574 . S
C2673 C2692 1.368 1_545 S
C2673 H2697 0.949 . S
H2674 C2678 0.949 . S
C2675 C2676 1.349 1_545 S
C2675 C2677 1.327 . S
C2675 H2698 0.950 . S
C2676 C2675 1.349 1_565 S
C2676 C2688 1.349 . S
C2677 C2675 1.327 . S
C2677 C2693 1.429 1_545 S
C2677 H2699 0.950 . S
C2678 H2674 0.949 . S
C2678 C2686 1.574 . S
C2678 C2694 1.368 . S
H2679 C2687 0.972 . S
H2680 C2685 0.950 . S
H2681 C2686 0.949 . S
H2682 C2688 0.950 . S
H2683 C2689 0.950 . S
H2684 C2690 0.949 . S
C2685 H2680 0.950 . S
C2685 C2687 1.315 . S
C2685 C2691 1.429 1_545 S
C2686 C2678 1.574 . S
C2686 H2681 0.949 . S
C2686 C2692 1.368 . S
C2687 C2671 1.339 1_545 S
C2687 H2679 0.972 . S
C2687 C2685 1.315 . S
C2688 C2676 1.349 . S
C2688 H2682 0.950 . S
C2688 C2689 1.327 . S
C2689 H2683 0.950 . S
C2689 C2688 1.327 . S
C2689 C2693 1.429 . S
C2690 C2673 1.574 . S
C2690 H2684 0.949 . S
C2690 C2694 1.368 1_545 S
C2691 C2672 1.429 . S
C2691 C2685 1.429 1_565 S
C2691 C2692 1.523 . S
C2692 C2673 1.368 1_565 S
C2692 C2686 1.368 . S
C2692 C2691 1.523 . S
C2693 C2677 1.429 1_565 S
C2693 C2689 1.429 . S
C2693 C2694 1.523 . S
C2694 C2678 1.368 . S
C2694 C2690 1.368 1_565 S
C2694 C2693 1.523 . S
H2695 C2670 0.950 . S
H2696 C2672 0.950 . S
H2697 C2673 0.949 . S
H2698 C2675 0.950 . S
H2699 C2677 0.950 . S
C2700 C2701 1.349 . S
C2700 C2702 1.377 . S
C2700 H2725 0.950 1_565 S
C2701 C2700 1.349 . S
C2701 C2717 1.349 . S
C2702 C2700 1.377 . S
C2702 C2721 1.450 . S
C2702 H2726 0.883 1_565 S
C2703 C2720 1.574 . S
C2703 C2722 1.368 . S
C2703 H2727 0.949 . S
H2704 C2708 0.949 . S
C2705 C2706 1.349 . S
C2705 C2707 1.327 . S
C2705 H2728 0.950 . S
C2706 C2705 1.349 . S
C2706 C2718 1.349 1_565 S
C2707 C2705 1.327 . S
C2707 C2723 1.429 . S
C2707 H2729 0.950 . S
C2708 H2704 0.949 . S
C2708 C2716 1.574 . S
C2708 C2724 1.368 1_545 S
H2709 C2717 0.950 . S
H2710 C2715 0.950 . S
H2711 C2716 0.949 . S
H2712 C2718 0.950 . S
H2713 C2719 0.950 . S
H2714 C2720 0.949 . S
C2715 H2710 0.950 . S
C2715 C2717 1.327 . S
C2715 C2721 1.429 . S
C2716 C2708 1.574 . S
C2716 H2711 0.949 . S
C2716 C2722 1.368 1_545 S
C2717 C2701 1.349 . S
C2717 H2709 0.950 . S
C2717 C2715 1.327 . S
C2718 C2706 1.349 1_545 S
C2718 H2712 0.950 . S
C2718 C2719 1.327 . S
C2719 H2713 0.950 . S
C2719 C2718 1.327 . S
C2719 C2723 1.429 1_545 S
C2720 C2703 1.574 . S
C2720 H2714 0.949 . S
C2720 C2724 1.368 . S
C2721 C2702 1.450 . S
C2721 C2715 1.429 . S
C2721 C2722 1.523 . S
C2722 C2703 1.368 . S
C2722 C2716 1.368 1_565 S
C2722 C2721 1.523 . S
C2723 C2707 1.429 . S
C2723 C2719 1.429 1_565 S
C2723 C2724 1.523 . S
C2724 C2708 1.368 1_565 S
C2724 C2720 1.368 . S
C2724 C2723 1.523 . S
H2725 C2700 0.950 1_545 S
H2726 C2702 0.883 1_545 S
H2727 C2703 0.949 . S
H2728 C2705 0.950 . S
H2729 C2707 0.950 . S
C2730 C2731 1.349 . S
C2730 C2732 1.327 . S
C2730 H2755 0.950 . S
C2731 C2730 1.349 . S
C2731 C2747 1.361 . S
C2732 C2730 1.327 . S
C2732 C2751 1.429 . S
C2732 H2756 0.950 . S
C2733 C2750 1.574 . S
C2733 C2752 1.368 1_655 S
C2733 H2757 0.949 . S
H2734 C2738 0.949 . S
C2735 C2736 1.349 1_655 S
C2735 C2737 1.327 . S
C2735 H2758 0.950 . S
C2736 C2735 1.349 1_455 S
C2736 C2748 1.349 . S
C2737 C2735 1.327 . S
C2737 C2753 1.429 1_655 S
C2737 H2759 0.950 . S
C2738 H2734 0.949 . S
C2738 C2746 1.574 . S
C2738 C2754 1.368 . S
H2739 C2747 0.928 1_655 S
H2740 C2745 0.950 . S
H2741 C2746 0.949 . S
H2742 C2748 0.950 . S
H2743 C2749 0.950 . S
H2744 C2750 0.949 . S
C2745 H2740 0.950 . S
C2745 C2747 1.336 1_655 S
C2745 C2751 1.429 1_655 S
C2746 C2738 1.574 . S
C2746 H2741 0.949 . S
C2746 C2752 1.368 . S
C2747 C2731 1.361 . S
C2747 H2739 0.928 1_455 S
C2747 C2745 1.336 1_455 S
C2748 C2736 1.349 . S
C2748 H2742 0.950 . S
C2748 C2749 1.327 . S
C2749 H2743 0.950 . S
C2749 C2748 1.327 . S
C2749 C2753 1.429 . S
C2750 C2733 1.574 . S
C2750 H2744 0.949 . S
C2750 C2754 1.368 1_655 S
C2751 C2732 1.429 . S
C2751 C2745 1.429 1_455 S
C2751 C2752 1.523 . S
C2752 C2733 1.368 1_455 S
C2752 C2746 1.368 . S
C2752 C2751 1.523 . S
C2753 C2737 1.429 1_455 S
C2753 C2749 1.429 . S
C2753 C2754 1.523 . S
C2754 C2738 1.368 . S
C2754 C2750 1.368 1_455 S
C2754 C2753 1.523 . S
H2755 C2730 0.950 . S
H2756 C2732 0.950 . S
H2757 C2733 0.949 . S
H2758 C2735 0.950 . S
H2759 C2737 0.950 . S
C2760 C2761 1.349 . S
C2760 C2762 1.327 . S
C2760 H2785 0.950 . S
C2761 C2760 1.349 . S
C2761 C2777 1.349 . S
C2762 C2760 1.327 . S
C2762 C2781 1.429 . S
C2762 H2786 0.950 . S
C2763 C2780 1.574 . S
C2763 C2782 1.368 . S
C2763 H2787 0.949 . S
H2764 C2768 0.949 . S
C2765 C2766 1.349 . S
C2765 C2767 1.327 . S
C2765 H2788 0.950 . S
C2766 C2765 1.349 . S
C2766 C2778 1.349 . S
C2767 C2765 1.327 . S
C2767 C2783 1.429 . S
C2767 H2789 0.950 . S
C2768 H2764 0.949 . S
C2768 C2776 1.574 . S
C2768 C2784 1.368 . S
H2769 C2777 0.950 . S
H2770 C2775 0.950 . S
H2771 C2776 0.949 . S
H2772 C2778 0.950 . S
H2773 C2779 0.950 . S
H2774 C2780 0.949 . S
C2775 H2770 0.950 . S
C2775 C2777 1.327 . S
C2775 C2781 1.429 . S
C2776 C2768 1.574 . S
C2776 H2771 0.949 . S
C2776 C2782 1.368 . S
C2777 C2761 1.349 . S
C2777 H2769 0.950 . S
C2777 C2775 1.327 . S
C2778 C2766 1.349 . S
C2778 H2772 0.950 . S
C2778 C2779 1.327 . S
C2779 H2773 0.950 . S
C2779 C2778 1.327 . S
C2779 C2783 1.429 . S
C2780 C2763 1.574 . S
C2780 H2774 0.949 . S
C2780 C2784 1.368 . S
C2781 C2762 1.429 . S
C2781 C2775 1.429 . S
C2781 C2782 1.523 . S
C2782 C2763 1.368 . S
C2782 C2776 1.368 . S
C2782 C2781 1.523 . S
C2783 C2767 1.429 . S
C2783 C2779 1.429 . S
C2783 C2784 1.523 . S
C2784 C2768 1.368 . S
C2784 C2780 1.368 . S
C2784 C2783 1.523 . S
H2785 C2760 0.950 . S
H2786 C2762 0.950 . S
H2787 C2763 0.949 . S
H2788 C2765 0.950 . S
H2789 C2767 0.950 . S
C2790 C2791 1.349 . S
C2790 C2792 1.327 . S
C2790 H2815 0.950 . S
C2791 C2790 1.349 . S
C2791 C2807 1.349 . S
C2792 C2790 1.327 . S
C2792 C2811 1.429 . S
C2792 H2816 0.950 . S
C2793 C2810 1.574 . S
C2793 C2812 1.368 . S
C2793 H2817 0.949 . S
H2794 C2798 0.949 . S
C2795 C2796 1.349 . S
C2795 C2797 1.327 . S
C2795 H2818 0.950 . S
C2796 C2795 1.349 . S
C2796 C2808 1.349 . S
C2797 C2795 1.327 . S
C2797 C2813 1.429 . S
C2797 H2819 0.950 . S
C2798 H2794 0.949 . S
C2798 C2806 1.574 . S
C2798 C2814 1.368 . S
H2799 C2807 0.950 . S
H2800 C2805 0.950 . S
H2801 C2806 0.949 . S
H2802 C2808 0.950 . S
H2803 C2809 0.950 . S
H2804 C2810 0.949 . S
C2805 H2800 0.950 . S
C2805 C2807 1.327 . S
C2805 C2811 1.429 . S
C2806 C2798 1.574 . S
C2806 H2801 0.949 . S
C2806 C2812 1.368 . S
C2807 C2791 1.349 . S
C2807 H2799 0.950 . S
C2807 C2805 1.327 . S
C2808 C2796 1.349 . S
C2808 H2802 0.950 . S
C2808 C2809 1.327 . S
C2809 H2803 0.950 . S
C2809 C2808 1.327 . S
C2809 C2813 1.429 . S
C2810 C2793 1.574 . S
C2810 H2804 0.949 . S
C2810 C2814 1.368 . S
C2811 C2792 1.429 . S
C2811 C2805 1.429 . S
C2811 C2812 1.523 . S
C2812 C2793 1.368 . S
C2812 C2806 1.368 . S
C2812 C2811 1.523 . S
C2813 C2797 1.429 . S
C2813 C2809 1.429 . S
C2813 C2814 1.523 . S
C2814 C2798 1.368 . S
C2814 C2810 1.368 . S
C2814 C2813 1.523 . S
H2815 C2790 0.950 . S
H2816 C2792 0.950 . S
H2817 C2793 0.949 . S
H2818 C2795 0.950 . S
H2819 C2797 0.950 . S
C2820 C2821 1.349 . S
C2820 C2822 1.327 . S
C2820 H2845 0.950 . S
C2821 C2820 1.349 . S
C2821 C2837 1.349 . S
C2822 C2820 1.327 . S
C2822 C2841 1.429 . S
C2822 H2846 0.950 . S
C2823 C2840 1.574 . S
C2823 C2842 1.368 . S
C2823 H2847 0.949 . S
H2824 C2828 0.949 . S
C2825 C2826 1.349 . S
C2825 C2827 1.327 . S
C2825 H2848 0.950 . S
C2826 C2825 1.349 . S
C2826 C2838 1.349 . S
C2827 C2825 1.327 . S
C2827 C2843 1.429 . S
C2827 H2849 0.950 . S
C2828 H2824 0.949 . S
C2828 C2836 1.574 . S
C2828 C2844 1.368 . S
H2829 C2837 0.950 . S
H2830 C2835 0.950 . S
H2831 C2836 0.949 . S
H2832 C2838 0.950 . S
H2833 C2839 0.950 . S
H2834 C2840 0.949 . S
C2835 H2830 0.950 . S
C2835 C2837 1.327 . S
C2835 C2841 1.429 . S
C2836 C2828 1.574 . S
C2836 H2831 0.949 . S
C2836 C2842 1.368 . S
C2837 C2821 1.349 . S
C2837 H2829 0.950 . S
C2837 C2835 1.327 . S
C2838 C2826 1.349 . S
C2838 H2832 0.950 . S
C2838 C2839 1.327 . S
C2839 H2833 0.950 . S
C2839 C2838 1.327 . S
C2839 C2843 1.429 . S
C2840 C2823 1.574 . S
C2840 H2834 0.949 . S
C2840 C2844 1.368 . S
C2841 C2822 1.429 . S
C2841 C2835 1.429 . S
C2841 C2842 1.523 . S
C2842 C2823 1.368 . S
C2842 C2836 1.368 . S
C2842 C2841 1.523 . S
C2843 C2827 1.429 . S
C2843 C2839 1.429 . S
C2843 C2844 1.523 . S
C2844 C2828 1.368 . S
C2844 C2840 1.368 . S
C2844 C2843 1.523 . S
H2845 C2820 0.950 . S
H2846 C2822 0.950 . S
H2847 C2823 0.949 . S
H2848 C2825 0.950 . S
H2849 C2827 0.950 . S
C2850 C2851 1.349 . S
C2850 C2852 1.327 . S
C2850 H2875 0.950 . S
C2851 C2850 1.349 . S
C2851 C2867 1.349 . S
C2852 C2850 1.327 . S
C2852 C2871 1.429 . S
C2852 H2876 0.950 . S
C2853 C2870 1.574 . S
C2853 C2872 1.368 . S
C2853 H2877 0.949 . S
H2854 C2858 0.949 . S
C2855 C2856 1.349 . S
C2855 C2857 1.327 . S
C2855 H2878 0.950 . S
C2856 C2855 1.349 . S
C2856 C2868 1.349 . S
C2857 C2855 1.327 . S
C2857 C2873 1.429 . S
C2857 H2879 0.950 . S
C2858 H2854 0.949 . S
C2858 C2866 1.574 . S
C2858 C2874 1.368 . S
H2859 C2867 0.950 . S
H2860 C2865 0.950 . S
H2861 C2866 0.949 . S
H2862 C2868 0.950 . S
H2863 C2869 0.950 . S
H2864 C2870 0.949 . S
C2865 H2860 0.950 . S
C2865 C2867 1.327 . S
C2865 C2871 1.429 . S
C2866 C2858 1.574 . S
C2866 H2861 0.949 . S
C2866 C2872 1.368 . S
C2867 C2851 1.349 . S
C2867 H2859 0.950 . S
C2867 C2865 1.327 . S
C2868 C2856 1.349 . S
C2868 H2862 0.950 . S
C2868 C2869 1.327 . S
C2869 H2863 0.950 . S
C2869 C2868 1.327 . S
C2869 C2873 1.429 . S
C2870 C2853 1.574 . S
C2870 H2864 0.949 . S
C2870 C2874 1.368 . S
C2871 C2852 1.429 . S
C2871 C2865 1.429 . S
C2871 C2872 1.523 . S
C2872 C2853 1.368 . S
C2872 C2866 1.368 . S
C2872 C2871 1.523 . S
C2873 C2857 1.429 . S
C2873 C2869 1.429 . S
C2873 C2874 1.523 . S
C2874 C2858 1.368 . S
C2874 C2870 1.368 . S
C2874 C2873 1.523 . S
H2875 C2850 0.950 . S
H2876 C2852 0.950 . S
H2877 C2853 0.949 . S
H2878 C2855 0.950 . S
H2879 C2857 0.950 . S
C2880 C2881 1.349 . S
C2880 C2882 1.327 . S
C2880 H2905 0.950 1_545 S
C2881 C2880 1.349 . S
C2881 C2897 1.349 . S
C2882 C2880 1.327 . S
C2882 C2901 1.429 . S
C2882 H2906 0.950 1_545 S
C2883 C2900 1.574 . S
C2883 C2902 1.368 . S
C2883 H2907 0.949 . S
H2884 C2888 0.949 . S
C2885 C2886 1.349 . S
C2885 C2887 1.327 . S
C2885 H2908 0.950 . S
C2886 C2885 1.349 . S
C2886 C2898 1.349 1_545 S
C2887 C2885 1.327 . S
C2887 C2903 1.429 . S
C2887 H2909 0.950 . S
C2888 H2884 0.949 . S
C2888 C2896 1.607 . S
C2888 C2904 1.368 1_565 S
H2889 C2897 0.950 . S
H2890 C2895 0.950 . S
H2891 C2896 0.974 . S
H2892 C2898 0.950 . S
H2893 C2899 0.950 . S
H2894 C2900 0.949 . S
C2895 H2890 0.950 . S
C2895 C2897 1.327 . S
C2895 C2901 1.429 . S
C2896 C2888 1.607 . S
C2896 H2891 0.974 . S
C2896 C2902 1.310 1_565 S
C2897 C2881 1.349 . S
C2897 H2889 0.950 . S
C2897 C2895 1.327 . S
C2898 C2886 1.349 1_565 S
C2898 H2892 0.950 . S
C2898 C2899 1.327 . S
C2899 H2893 0.950 . S
C2899 C2898 1.327 . S
C2899 C2903 1.429 1_565 S
C2900 C2883 1.574 . S
C2900 H2894 0.949 . S
C2900 C2904 1.368 . S
C2901 C2882 1.429 . S
C2901 C2895 1.429 . S
C2901 C2902 1.523 . S
C2902 C2883 1.368 . S
C2902 C2896 1.310 1_545 S
C2902 C2901 1.523 . S
C2903 C2887 1.429 . S
C2903 C2899 1.429 1_545 S
C2903 C2904 1.523 . S
C2904 C2888 1.368 1_545 S
C2904 C2900 1.368 . S
C2904 C2903 1.523 . S
H2905 C2880 0.950 1_565 S
H2906 C2882 0.950 1_565 S
H2907 C2883 0.949 . S
H2908 C2885 0.950 . S
H2909 C2887 0.950 . S
C2910 C2911 1.349 . S
C2910 C2912 1.327 . S
C2910 H2935 0.950 . S
C2911 C2910 1.349 . S
C2911 C2927 1.349 . S
C2912 C2910 1.327 . S
C2912 C2931 1.429 . S
C2912 H2936 0.950 . S
C2913 C2930 1.574 . S
C2913 C2932 1.368 . S
C2913 H2937 0.949 . S
H2914 C2918 0.949 . S
C2915 C2916 1.349 . S
C2915 C2917 1.327 . S
C2915 H2938 0.949 1_655 S
C2916 C2915 1.349 . S
C2916 C2928 1.349 . S
C2917 C2915 1.327 . S
C2917 C2933 1.429 . S
C2917 H2939 0.950 . S
C2918 H2914 0.949 . S
C2918 C2926 1.574 . S
C2918 C2934 1.368 . S
H2919 C2927 0.950 . S
H2920 C2925 0.950 . S
H2921 C2926 0.949 . S
H2922 C2928 0.950 . S
H2923 C2929 0.950 . S
H2924 C2930 0.949 . S
C2925 H2920 0.950 . S
C2925 C2927 1.327 . S
C2925 C2931 1.429 . S
C2926 C2918 1.574 . S
C2926 H2921 0.949 . S
C2926 C2932 1.368 . S
C2927 C2911 1.349 . S
C2927 H2919 0.950 . S
C2927 C2925 1.327 . S
C2928 C2916 1.349 . S
C2928 H2922 0.950 . S
C2928 C2929 1.327 . S
C2929 H2923 0.950 . S
C2929 C2928 1.327 . S
C2929 C2933 1.429 . S
C2930 C2913 1.574 . S
C2930 H2924 0.949 . S
C2930 C2934 1.368 . S
C2931 C2912 1.429 . S
C2931 C2925 1.429 . S
C2931 C2932 1.523 . S
C2932 C2913 1.368 . S
C2932 C2926 1.368 . S
C2932 C2931 1.523 . S
C2933 C2917 1.429 . S
C2933 C2929 1.429 . S
C2933 C2934 1.523 . S
C2934 C2918 1.368 . S
C2934 C2930 1.368 . S
C2934 C2933 1.523 . S
H2935 C2910 0.950 . S
H2936 C2912 0.950 . S
H2937 C2913 0.949 . S
H2938 C2915 0.949 1_455 S
H2939 C2917 0.950 . S
C2940 C2941 1.349 . S
C2940 C2942 1.327 . S
C2940 H2965 0.950 . S
C2941 C2940 1.349 . S
C2941 C2957 1.349 . S
C2942 C2940 1.327 . S
C2942 C2961 1.429 . S
C2942 H2966 0.950 . S
C2943 C2960 1.574 . S
C2943 C2962 1.368 . S
C2943 H2967 0.949 . S
H2944 C2948 0.949 . S
C2945 C2946 1.349 . S
C2945 C2947 1.327 . S
C2945 H2968 0.950 . S
C2946 C2945 1.349 . S
C2946 C2958 1.349 . S
C2947 C2945 1.327 . S
C2947 C2963 1.429 . S
C2947 H2969 0.950 . S
C2948 H2944 0.949 . S
C2948 C2956 1.574 . S
C2948 C2964 1.368 . S
H2949 C2957 0.950 . S
H2950 C2955 0.950 . S
H2951 C2956 0.949 . S
H2952 C2958 0.950 . S
H2953 C2959 0.950 . S
H2954 C2960 0.949 . S
C2955 H2950 0.950 . S
C2955 C2957 1.327 . S
C2955 C2961 1.429 . S
C2956 C2948 1.574 . S
C2956 H2951 0.949 . S
C2956 C2962 1.368 . S
C2957 C2941 1.349 . S
C2957 H2949 0.950 . S
C2957 C2955 1.327 . S
C2958 C2946 1.349 . S
C2958 H2952 0.950 . S
C2958 C2959 1.327 . S
C2959 H2953 0.950 . S
C2959 C2958 1.327 . S
C2959 C2963 1.429 . S
C2960 C2943 1.574 . S
C2960 H2954 0.949 . S
C2960 C2964 1.368 . S
C2961 C2942 1.429 . S
C2961 C2955 1.429 . S
C2961 C2962 1.523 . S
C2962 C2943 1.368 . S
C2962 C2956 1.368 . S
C2962 C2961 1.523 . S
C2963 C2947 1.429 . S
C2963 C2959 1.429 . S
C2963 C2964 1.523 . S
C2964 C2948 1.368 . S
C2964 C2960 1.368 . S
C2964 C2963 1.523 . S
H2965 C2940 0.950 . S
H2966 C2942 0.950 . S
H2967 C2943 0.949 . S
H2968 C2945 0.950 . S
H2969 C2947 0.950 . S
C2970 C2971 1.349 . S
C2970 C2972 1.327 . S
C2970 H2995 0.950 . S
C2971 C2970 1.349 . S
C2971 C2987 1.349 . S
C2972 C2970 1.327 . S
C2972 C2991 1.429 . S
C2972 H2996 0.950 . S
C2973 C2990 1.574 . S
C2973 C2992 1.368 . S
C2973 H2997 0.949 . S
H2974 C2978 0.949 . S
C2975 C2976 1.349 . S
C2975 C2977 1.327 . S
C2975 H2998 0.950 . S
C2976 C2975 1.349 . S
C2976 C2988 1.349 . S
C2977 C2975 1.327 . S
C2977 C2993 1.429 . S
C2977 H2999 0.950 . S
C2978 H2974 0.949 . S
C2978 C2986 1.574 . S
C2978 C2994 1.368 . S
H2979 C2987 0.950 . S
H2980 C2985 0.950 . S
H2981 C2986 0.949 . S
H2982 C2988 0.950 . S
H2983 C2989 0.950 . S
H2984 C2990 0.949 . S
C2985 H2980 0.950 . S
C2985 C2987 1.327 . S
C2985 C2991 1.429 . S
C2986 C2978 1.574 . S
C2986 H2981 0.949 . S
C2986 C2992 1.368 . S
C2987 C2971 1.349 . S
C2987 H2979 0.950 . S
C2987 C2985 1.327 . S
C2988 C2976 1.349 . S
C2988 H2982 0.950 . S
C2988 C2989 1.327 . S
C2989 H2983 0.950 . S
C2989 C2988 1.327 . S
C2989 C2993 1.429 . S
C2990 C2973 1.574 . S
C2990 H2984 0.949 . S
C2990 C2994 1.368 . S
C2991 C2972 1.429 . S
C2991 C2985 1.429 . S
C2991 C2992 1.523 . S
C2992 C2973 1.368 . S
C2992 C2986 1.368 . S
C2992 C2991 1.523 . S
C2993 C2977 1.429 . S
C2993 C2989 1.429 . S
C2993 C2994 1.523 . S
C2994 C2978 1.368 . S
C2994 C2990 1.368 . S
C2994 C2993 1.523 . S
H2995 C2970 0.950 . S
H2996 C2972 0.950 . S
H2997 C2973 0.949 . S
H2998 C2975 0.950 . S
H2999 C2977 0.950 . S
C3000 C3001 1.349 . S
C3000 C3002 1.327 . S
C3000 H3025 0.950 . S
C3001 C3000 1.349 . S
C3001 C3017 1.349 . S
C3002 C3000 1.327 . S
C3002 C3021 1.429 . S
C3002 H3026 0.950 . S
C3003 C3020 1.574 . S
C3003 C3022 1.368 . S
C3003 H3027 0.949 . S
H3004 C3008 0.949 . S
C3005 C3006 1.349 . S
C3005 C3007 1.327 . S
C3005 H3028 0.950 . S
C3006 C3005 1.349 . S
C3006 C3018 1.349 . S
C3007 C3005 1.327 . S
C3007 C3023 1.429 . S
C3007 H3029 0.950 . S
C3008 H3004 0.949 . S
C3008 C3016 1.574 . S
C3008 C3024 1.368 . S
H3009 C3017 0.950 . S
H3010 C3015 0.950 . S
H3011 C3016 0.949 . S
H3012 C3018 0.950 . S
H3013 C3019 0.950 . S
H3014 C3020 0.949 . S
C3015 H3010 0.950 . S
C3015 C3017 1.327 . S
C3015 C3021 1.429 . S
C3016 C3008 1.574 . S
C3016 H3011 0.949 . S
C3016 C3022 1.368 . S
C3017 C3001 1.349 . S
C3017 H3009 0.950 . S
C3017 C3015 1.327 . S
C3018 C3006 1.349 . S
C3018 H3012 0.950 . S
C3018 C3019 1.327 . S
C3019 H3013 0.950 . S
C3019 C3018 1.327 . S
C3019 C3023 1.429 . S
C3020 C3003 1.574 . S
C3020 H3014 0.949 . S
C3020 C3024 1.368 . S
C3021 C3002 1.429 . S
C3021 C3015 1.429 . S
C3021 C3022 1.523 . S
C3022 C3003 1.368 . S
C3022 C3016 1.368 . S
C3022 C3021 1.523 . S
C3023 C3007 1.429 . S
C3023 C3019 1.429 . S
C3023 C3024 1.523 . S
C3024 C3008 1.368 . S
C3024 C3020 1.368 . S
C3024 C3023 1.523 . S
H3025 C3000 0.950 . S
H3026 C3002 0.950 . S
H3027 C3003 0.949 . S
H3028 C3005 0.950 . S
H3029 C3007 0.950 . S
C3030 C3031 1.349 . S
C3030 C3032 1.327 . S
C3030 H3055 0.950 . S
C3031 C3030 1.349 . S
C3031 C3047 1.349 . S
C3032 C3030 1.327 . S
C3032 C3051 1.429 . S
C3032 H3056 0.950 . S
C3033 C3050 1.574 . S
C3033 C3052 1.368 . S
C3033 H3057 0.949 . S
H3034 C3038 0.949 . S
C3035 C3036 1.349 . S
C3035 C3037 1.327 . S
C3035 H3058 0.950 . S
C3036 C3035 1.349 . S
C3036 C3048 1.349 . S
C3037 C3035 1.327 . S
C3037 C3053 1.429 . S
C3037 H3059 0.950 . S
C3038 H3034 0.949 . S
C3038 C3046 1.574 . S
C3038 C3054 1.368 . S
H3039 C3047 0.950 . S
H3040 C3045 0.950 . S
H3041 C3046 0.949 . S
H3042 C3048 0.950 . S
H3043 C3049 0.950 . S
H3044 C3050 0.949 . S
C3045 H3040 0.950 . S
C3045 C3047 1.327 . S
C3045 C3051 1.429 . S
C3046 C3038 1.574 . S
C3046 H3041 0.949 . S
C3046 C3052 1.368 . S
C3047 C3031 1.349 . S
C3047 H3039 0.950 . S
C3047 C3045 1.327 . S
C3048 C3036 1.349 . S
C3048 H3042 0.950 . S
C3048 C3049 1.327 . S
C3049 H3043 0.950 . S
C3049 C3048 1.327 . S
C3049 C3053 1.429 . S
C3050 C3033 1.574 . S
C3050 H3044 0.949 . S
C3050 C3054 1.368 . S
C3051 C3032 1.429 . S
C3051 C3045 1.429 . S
C3051 C3052 1.523 . S
C3052 C3033 1.368 . S
C3052 C3046 1.368 . S
C3052 C3051 1.523 . S
C3053 C3037 1.429 . S
C3053 C3049 1.429 . S
C3053 C3054 1.523 . S
C3054 C3038 1.368 . S
C3054 C3050 1.368 . S
C3054 C3053 1.523 . S
H3055 C3030 0.950 . S
H3056 C3032 0.950 . S
H3057 C3033 0.949 . S
H3058 C3035 0.950 . S
H3059 C3037 0.950 . S
C3060 C3061 1.349 . S
C3060 C3062 1.327 . S
C3060 H3085 0.950 . S
C3061 C3060 1.349 . S
C3061 C3077 1.349 . S
C3062 C3060 1.327 . S
C3062 C3081 1.429 . S
C3062 H3086 0.950 . S
C3063 C3080 1.574 . S
C3063 C3082 1.368 . S
C3063 H3087 0.949 . S
H3064 C3068 0.949 . S
C3065 C3066 1.349 . S
C3065 C3067 1.327 . S
C3065 H3088 0.950 . S
C3066 C3065 1.349 . S
C3066 C3078 1.349 . S
C3067 C3065 1.327 . S
C3067 C3083 1.429 . S
C3067 H3089 0.950 . S
C3068 H3064 0.949 . S
C3068 C3076 1.574 . S
C3068 C3084 1.368 . S
H3069 C3077 0.950 . S
H3070 C3075 0.950 . S
H3071 C3076 0.949 . S
H3072 C3078 0.950 . S
H3073 C3079 0.950 . S
H3074 C3080 0.949 . S
C3075 H3070 0.950 . S
C3075 C3077 1.327 . S
C3075 C3081 1.429 . S
C3076 C3068 1.574 . S
C3076 H3071 0.949 . S
C3076 C3082 1.368 . S
C3077 C3061 1.349 . S
C3077 H3069 0.950 . S
C3077 C3075 1.327 . S
C3078 C3066 1.349 . S
C3078 H3072 0.950 . S
C3078 C3079 1.327 . S
C3079 H3073 0.950 . S
C3079 C3078 1.327 . S
C3079 C3083 1.429 . S
C3080 C3063 1.574 . S
C3080 H3074 0.949 . S
C3080 C3084 1.368 . S
C3081 C3062 1.429 . S
C3081 C3075 1.429 . S
C3081 C3082 1.523 . S
C3082 C3063 1.368 . S
C3082 C3076 1.368 . S
C3082 C3081 1.523 . S
C3083 C3067 1.429 . S
C3083 C3079 1.429 . S
C3083 C3084 1.523 . S
C3084 C3068 1.368 . S
C3084 C3080 1.368 . S
C3084 C3083 1.523 . S
H3085 C3060 0.950 . S
H3086 C3062 0.950 . S
H3087 C3063 0.949 . S
H3088 C3065 0.950 . S
H3089 C3067 0.950 . S
C3090 C3091 1.349 . S
C3090 C3092 1.327 . S
C3090 H3115 0.950 . S
C3091 C3090 1.349 . S
C3091 C3107 1.349 . S
C3092 C3090 1.327 . S
C3092 C3111 1.429 . S
C3092 H3116 0.950 . S
C3093 C3110 1.574 . S
C3093 C3112 1.368 . S
C3093 H3117 0.949 . S
H3094 C3098 0.949 . S
C3095 C3096 1.349 . S
C3095 C3097 1.327 . S
C3095 H3118 0.950 . S
C3096 C3095 1.349 . S
C3096 C3108 1.349 . S
C3097 C3095 1.327 . S
C3097 C3113 1.429 . S
C3097 H3119 0.950 . S
C3098 H3094 0.949 . S
C3098 C3106 1.574 . S
C3098 C3114 1.368 . S
H3099 C3107 0.950 . S
H3100 C3105 0.950 . S
H3101 C3106 0.949 . S
H3102 C3108 0.950 . S
H3103 C3109 0.950 . S
H3104 C3110 0.949 . S
C3105 H3100 0.950 . S
C3105 C3107 1.327 . S
C3105 C3111 1.429 . S
C3106 C3098 1.574 . S
C3106 H3101 0.949 . S
C3106 C3112 1.368 . S
C3107 C3091 1.349 . S
C3107 H3099 0.950 . S
C3107 C3105 1.327 . S
C3108 C3096 1.349 . S
C3108 H3102 0.950 . S
C3108 C3109 1.327 . S
C3109 H3103 0.950 . S
C3109 C3108 1.327 . S
C3109 C3113 1.429 . S
C3110 C3093 1.574 . S
C3110 H3104 0.949 . S
C3110 C3114 1.368 . S
C3111 C3092 1.429 . S
C3111 C3105 1.429 . S
C3111 C3112 1.523 . S
C3112 C3093 1.368 . S
C3112 C3106 1.368 . S
C3112 C3111 1.523 . S
C3113 C3097 1.429 . S
C3113 C3109 1.429 . S
C3113 C3114 1.523 . S
C3114 C3098 1.368 . S
C3114 C3110 1.368 . S
C3114 C3113 1.523 . S
H3115 C3090 0.950 . S
H3116 C3092 0.950 . S
H3117 C3093 0.949 . S
H3118 C3095 0.950 . S
H3119 C3097 0.950 . S
C3120 C3121 1.349 . S
C3120 C3122 1.327 . S
C3120 H3145 0.950 . S
C3121 C3120 1.349 . S
C3121 C3137 1.349 . S
C3122 C3120 1.327 . S
C3122 C3141 1.429 . S
C3122 H3146 0.950 . S
C3123 C3140 1.574 . S
C3123 C3142 1.368 . S
C3123 H3147 0.949 . S
H3124 C3128 0.949 . S
C3125 C3126 1.349 . S
C3125 C3127 1.327 . S
C3125 H3148 0.950 . S
C3126 C3125 1.349 . S
C3126 C3138 1.349 . S
C3127 C3125 1.327 . S
C3127 C3143 1.429 . S
C3127 H3149 0.950 . S
C3128 H3124 0.949 . S
C3128 C3136 1.574 . S
C3128 C3144 1.368 . S
H3129 C3137 0.950 . S
H3130 C3135 0.950 . S
H3131 C3136 0.949 . S
H3132 C3138 0.950 . S
H3133 C3139 0.950 . S
H3134 C3140 0.949 . S
C3135 H3130 0.950 . S
C3135 C3137 1.327 . S
C3135 C3141 1.429 . S
C3136 C3128 1.574 . S
C3136 H3131 0.949 . S
C3136 C3142 1.368 . S
C3137 C3121 1.349 . S
C3137 H3129 0.950 . S
C3137 C3135 1.327 . S
C3138 C3126 1.349 . S
C3138 H3132 0.950 . S
C3138 C3139 1.327 . S
C3139 H3133 0.950 . S
C3139 C3138 1.327 . S
C3139 C3143 1.429 . S
C3140 C3123 1.574 . S
C3140 H3134 0.949 . S
C3140 C3144 1.368 . S
C3141 C3122 1.429 . S
C3141 C3135 1.429 . S
C3141 C3142 1.523 . S
C3142 C3123 1.368 . S
C3142 C3136 1.368 . S
C3142 C3141 1.523 . S
C3143 C3127 1.429 . S
C3143 C3139 1.429 . S
C3143 C3144 1.523 . S
C3144 C3128 1.368 . S
C3144 C3140 1.368 . S
C3144 C3143 1.523 . S
H3145 C3120 0.950 . S
H3146 C3122 0.950 . S
H3147 C3123 0.949 . S
H3148 C3125 0.950 . S
H3149 C3127 0.950 . S
C3150 C3151 1.349 . S
C3150 C3152 1.327 . S
C3150 H3175 0.950 . S
C3151 C3150 1.349 . S
C3151 C3167 1.349 . S
C3152 C3150 1.327 . S
C3152 C3171 1.429 . S
C3152 H3176 0.950 . S
C3153 C3170 1.574 . S
C3153 C3172 1.368 . S
C3153 H3177 0.949 . S
H3154 C3158 0.949 . S
C3155 C3156 1.349 . S
C3155 C3157 1.327 . S
C3155 H3178 0.950 1_655 S
C3156 C3155 1.349 . S
C3156 C3168 1.349 . S
C3157 C3155 1.327 . S
C3157 C3173 1.429 . S
C3157 H3179 0.950 . S
C3158 H3154 0.949 . S
C3158 C3166 1.574 . S
C3158 C3174 1.368 . S
H3159 C3167 0.950 . S
H3160 C3165 0.950 . S
H3161 C3166 0.949 . S
H3162 C3168 0.950 . S
H3163 C3169 0.950 . S
H3164 C3170 0.949 . S
C3165 H3160 0.950 . S
C3165 C3167 1.327 . S
C3165 C3171 1.429 . S
C3166 C3158 1.574 . S
C3166 H3161 0.949 . S
C3166 C3172 1.368 . S
C3167 C3151 1.349 . S
C3167 H3159 0.950 . S
C3167 C3165 1.327 . S
C3168 C3156 1.349 . S
C3168 H3162 0.950 . S
C3168 C3169 1.327 . S
C3169 H3163 0.950 . S
C3169 C3168 1.327 . S
C3169 C3173 1.429 . S
C3170 C3153 1.574 . S
C3170 H3164 0.949 . S
C3170 C3174 1.368 . S
C3171 C3152 1.429 . S
C3171 C3165 1.429 . S
C3171 C3172 1.523 . S
C3172 C3153 1.368 . S
C3172 C3166 1.368 . S
C3172 C3171 1.523 . S
C3173 C3157 1.429 . S
C3173 C3169 1.429 . S
C3173 C3174 1.523 . S
C3174 C3158 1.368 . S
C3174 C3170 1.368 . S
C3174 C3173 1.523 . S
H3175 C3150 0.950 . S
H3176 C3152 0.950 . S
H3177 C3153 0.949 . S
H3178 C3155 0.950 1_455 S
H3179 C3157 0.950 . S
C3180 C3181 1.349 . S
C3180 C3182 1.327 . S
C3180 H3205 0.950 . S
C3181 C3180 1.349 . S
C3181 C3197 1.349 . S
C3182 C3180 1.327 . S
C3182 C3201 1.429 . S
C3182 H3206 0.950 . S
C3183 C3200 1.574 . S
C3183 C3202 1.368 . S
C3183 H3207 0.949 . S
H3184 C3188 0.949 . S
C3185 C3186 1.349 . S
C3185 C3187 1.327 . S
C3185 H3208 0.950 . S
C3186 C3185 1.349 . S
C3186 C3198 1.349 . S
C3187 C3185 1.327 . S
C3187 C3203 1.429 . S
C3187 H3209 0.950 . S
C3188 H3184 0.949 . S
C3188 C3196 1.574 . S
C3188 C3204 1.368 . S
H3189 C3197 0.950 . S
H3190 C3195 0.950 . S
H3191 C3196 0.949 . S
H3192 C3198 0.950 . S
H3193 C3199 0.950 . S
H3194 C3200 0.949 . S
C3195 H3190 0.950 . S
C3195 C3197 1.327 . S
C3195 C3201 1.429 . S
C3196 C3188 1.574 . S
C3196 H3191 0.949 . S
C3196 C3202 1.368 . S
C3197 C3181 1.349 . S
C3197 H3189 0.950 . S
C3197 C3195 1.327 . S
C3198 C3186 1.349 . S
C3198 H3192 0.950 . S
C3198 C3199 1.327 . S
C3199 H3193 0.950 . S
C3199 C3198 1.327 . S
C3199 C3203 1.429 . S
C3200 C3183 1.574 . S
C3200 H3194 0.949 . S
C3200 C3204 1.368 . S
C3201 C3182 1.429 . S
C3201 C3195 1.429 . S
C3201 C3202 1.523 . S
C3202 C3183 1.368 . S
C3202 C3196 1.368 . S
C3202 C3201 1.523 . S
C3203 C3187 1.429 . S
C3203 C3199 1.429 . S
C3203 C3204 1.523 . S
C3204 C3188 1.368 . S
C3204 C3200 1.368 . S
C3204 C3203 1.523 . S
H3205 C3180 0.950 . S
H3206 C3182 0.950 . S
H3207 C3183 0.949 . S
H3208 C3185 0.950 . S
H3209 C3187 0.950 . S
C3210 C3211 1.349 . S
C3210 C3212 1.327 . S
C3210 H3235 0.950 . S
C3211 C3210 1.349 . S
C3211 C3227 1.349 . S
C3212 C3210 1.327 . S
C3212 C3231 1.429 . S
C3212 H3236 0.950 . S
C3213 C3230 1.574 . S
C3213 C3232 1.368 . S
C3213 H3237 0.949 . S
H3214 C3218 0.949 . S
C3215 C3216 1.349 . S
C3215 C3217 1.327 . S
C3215 H3238 0.950 . S
C3216 C3215 1.349 . S
C3216 C3228 1.343 1_545 S
C3217 C3215 1.327 . S
C3217 C3233 1.429 . S
C3217 H3239 0.950 . S
C3218 H3214 0.949 . S
C3218 C3226 1.574 . S
C3218 C3234 1.368 . S
H3219 C3227 0.950 . S
H3220 C3225 0.950 . S
H3221 C3226 0.949 . S
H3222 C3228 0.940 . S
H3223 C3229 0.944 1_565 S
H3224 C3230 0.949 . S
C3225 H3220 0.950 . S
C3225 C3227 1.327 . S
C3225 C3231 1.429 . S
C3226 C3218 1.574 . S
C3226 H3221 0.949 . S
C3226 C3232 1.368 . S
C3227 C3211 1.349 . S
C3227 H3219 0.950 . S
C3227 C3225 1.327 . S
C3228 C3216 1.343 1_565 S
C3228 H3222 0.940 . S
C3228 C3229 1.378 1_565 S
C3229 H3223 0.944 1_545 S
C3229 C3228 1.378 1_545 S
C3229 C3233 1.413 . S
C3230 C3213 1.574 . S
C3230 H3224 0.949 . S
C3230 C3234 1.368 . S
C3231 C3212 1.429 . S
C3231 C3225 1.429 . S
C3231 C3232 1.523 . S
C3232 C3213 1.368 . S
C3232 C3226 1.368 . S
C3232 C3231 1.523 . S
C3233 C3217 1.429 . S
C3233 C3229 1.413 . S
C3233 C3234 1.523 . S
C3234 C3218 1.368 . S
C3234 C3230 1.368 . S
C3234 C3233 1.523 . S
H3235 C3210 0.950 . S
H3236 C3212 0.950 . S
H3237 C3213 0.949 . S
H3238 C3215 0.950 . S
H3239 C3217 0.950 . S
C1081 C13 1.381 . S
C1086 C688 1.451 . S
C1111 C27 1.317 . S
C1116 C734 1.389 . S
C1146 C766 1.413 . S
C1141 C36 1.312 . S
C1171 C41 1.370 . S
C1176 C819 1.421 . S
C1201 C8 1.427 . S
C1206 C865 1.541 . S
C1231 C22 1.412 . S
C1236 C904 1.489 . S
C1261 C55 1.376 . S
C1266 C858 1.439 . S
C1296 C911 1.390 . S
C1291 C69 1.312 . S
C1326 C812 1.439 . S
C1321 C78 1.342 . S
C1351 C83 1.357 . S
C1356 C773 1.422 . S
C1386 C667 1.553 . S
C1381 C50 1.447 . S
C1411 C64 1.408 . S
C1416 C713 1.478 . S
C1441 C97 1.555 . S
C1446 C943 1.652 . S
C1471 C111 1.380 . S
C1476 C1010 1.461 . S
C1506 C1056 1.556 . S
C1501 C120 1.503 . S
C1531 C125 1.444 . S
C1536 C267 1.524 . S
C1561 C92 1.666 . S
C1566 C313 1.723 . S
C1591 C106 1.477 . S
C1596 C359 1.534 . S
C1621 C139 1.471 . S
C1626 C306 1.548 . S
C1651 C153 1.369 . S
C1656 C352 1.434 . S
C1686 C260 1.575 . S
C1681 C162 1.514 . S
C1716 C1035 1.620 . S
C1711 C167 1.528 . S
C1746 C964 1.713 . S
C1741 C134 1.652 . S
C1776 C989 1.560 . S
C1771 C148 1.508 . S
C1801 C181 1.478 . S
C1806 C391 1.566 . S
C1831 C195 1.360 . S
C1836 C444 1.431 . S
C1861 C204 1.510 . S
C1866 C490 1.579 . S
C1891 C209 1.522 . S
C1896 C536 1.622 . S
C1926 C589 1.721 . S
C1921 C176 1.669 . S
C1956 C635 1.563 . S
C1951 C190 1.511 . S
C1986 C582 1.654 . S
C1981 C223 1.566 . S
C2016 C628 1.473 . S
C2011 C237 1.393 . S
C2041 C246 1.494 . S
C2046 C543 1.554 . S
C2076 C497 1.522 . S
C2071 C251 1.435 . S
C2101 C218 1.663 . S
C2106 C412 1.731 . S
C2136 C451 1.551 . S
C2131 C232 1.485 . S
C2166 C274 1.469 . S
C2161 C11 1.453 . S
C2191 C25 1.301 . S
C2196 C320 1.307 . S
C2226 C366 1.455 . S
C2221 C35 1.467 . S
C2256 C398 1.458 . S
C2251 C39 1.451 1_556 S
C2286 C437 1.550 . S
C2281 C7 1.575 1_556 S
C2316 C483 1.372 . S
C2311 C21 1.365 1_556 S
C2341 C53 1.468 . S
C2346 C504 1.480 . S
C2371 C67 1.292 . S
C2376 C405 1.287 . S
C2401 C77 1.435 1_556 S
C2406 C458 1.412 . S
C2431 C81 1.483 . S
C2436 C299 1.504 . S
C2466 C345 1.553 . S
C2461 C49 1.566 . S
C2491 C63 1.396 . S
C2496 C253 1.381 . S
C2526 C529 1.403 . S
C2521 C95 1.407 . S
C2551 C109 1.420 . S
C2556 C596 1.419 . S
C2581 C119 1.530 . S
C2586 C642 1.518 . S
C2616 C681 1.205 . S
C2611 C123 1.199 . S
C2641 C91 1.505 . S
C2646 C727 1.494 . S
C2671 C105 1.193 . S
C2676 C759 1.200 . S
C2701 C137 1.242 . S
C2706 C780 1.235 . S
C2731 C151 1.087 . S
C2736 C674 1.092 . S
C2766 C720 1.397 . S
C2761 C161 1.405 . S
C2791 C165 1.438 . S
C2796 C575 1.443 . S
C2821 C133 1.610 . S
C2826 C621 1.595 . S
C2856 C550 1.499 . S
C2851 C147 1.524 . S
C2886 C826 1.262 . S
C2881 C179 1.256 . S
C2911 C193 1.081 . S
C2916 C872 1.086 . S
C2941 C203 1.396 . S
C2946 C897 1.380 . S
C2976 C950 1.409 . S
C2971 C207 1.415 . S
C3006 C1003 1.599 . S
C3001 C175 1.615 . S
C3031 C189 1.528 . S
C3036 C1049 1.514 . S
C3061 C221 1.421 . S
C3066 C1042 1.426 . S
C3091 C235 1.414 . S
C3096 C957 1.404 . S
C3126 C996 1.497 . S
C3121 C245 1.509 . S
C3156 C851 1.186 . S
C3151 C249 1.181 . S
C3186 C918 1.494 . S
C3181 C217 1.514 . S
C3211 C231 1.211 . S
C3216 C805 1.189 . S
