# Generated by pormake.
# Topology ctn, (3,4)-cn, num edge types: 1
# Building blocks:
#     Node 0, Type 0, BuildingBlock: CUQRIR_clean_linker_1, # of connection points: 3
#     Node 1, Type 0, BuildingBlock: CUQRIR_clean_linker_1, # of connection points: 3
#     Node 2, Type 0, BuildingBlock: CUQRIR_clean_linker_1, # of connection points: 3
#     Node 3, Type 0, BuildingBlock: CUQRIR_clean_linker_1, # of connection points: 3
#     Node 4, Type 0, BuildingBlock: CUQRIR_clean_linker_1, # of connection points: 3
#     Node 5, Type 0, BuildingBlock: CUQRIR_clean_linker_1, # of connection points: 3
#     Node 6, Type 0, BuildingBlock: CUQRIR_clean_linker_1, # of connection points: 3
#     Node 7, Type 0, BuildingBlock: CUQRIR_clean_linker_1, # of connection points: 3
#     Node 8, Type 0, BuildingBlock: CUQRIR_clean_linker_1, # of connection points: 3
#     Node 9, Type 0, BuildingBlock: CUQRIR_clean_linker_1, # of connection points: 3
#     Node 10, Type 0, BuildingBlock: CUQRIR_clean_linker_1, # of connection points: 3
#     Node 11, Type 0, BuildingBlock: CUQRIR_clean_linker_1, # of connection points: 3
#     Node 12, Type 0, BuildingBlock: CUQRIR_clean_linker_1, # of connection points: 3
#     Node 13, Type 0, BuildingBlock: CUQRIR_clean_linker_1, # of connection points: 3
#     Node 14, Type 0, BuildingBlock: CUQRIR_clean_linker_1, # of connection points: 3
#     Node 15, Type 0, BuildingBlock: CUQRIR_clean_linker_1, # of connection points: 3
#     Node 16, Type 1, BuildingBlock: KUFVIS_clean_sbu_0, # of connection points: 4
#     Node 17, Type 1, BuildingBlock: KUFVIS_clean_sbu_0, # of connection points: 4
#     Node 18, Type 1, BuildingBlock: KUFVIS_clean_sbu_0, # of connection points: 4
#     Node 19, Type 1, BuildingBlock: KUFVIS_clean_sbu_0, # of connection points: 4
#     Node 20, Type 1, BuildingBlock: KUFVIS_clean_sbu_0, # of connection points: 4
#     Node 21, Type 1, BuildingBlock: KUFVIS_clean_sbu_0, # of connection points: 4
#     Node 22, Type 1, BuildingBlock: KUFVIS_clean_sbu_0, # of connection points: 4
#     Node 23, Type 1, BuildingBlock: KUFVIS_clean_sbu_0, # of connection points: 4
#     Node 24, Type 1, BuildingBlock: KUFVIS_clean_sbu_0, # of connection points: 4
#     Node 25, Type 1, BuildingBlock: KUFVIS_clean_sbu_0, # of connection points: 4
#     Node 26, Type 1, BuildingBlock: KUFVIS_clean_sbu_0, # of connection points: 4
#     Node 27, Type 1, BuildingBlock: KUFVIS_clean_sbu_0, # of connection points: 4
#     Edge 28, Type (0, 1), BuildingBlock: KIFKEQ_clean_linker_1, # of connection points: 2
#     Edge 29, Type (0, 1), BuildingBlock: KIFKEQ_clean_linker_1, # of connection points: 2
#     Edge 30, Type (0, 1), BuildingBlock: KIFKEQ_clean_linker_1, # of connection points: 2
#     Edge 31, Type (0, 1), BuildingBlock: KIFKEQ_clean_linker_1, # of connection points: 2
#     Edge 32, Type (0, 1), BuildingBlock: KIFKEQ_clean_linker_1, # of connection points: 2
#     Edge 33, Type (0, 1), BuildingBlock: KIFKEQ_clean_linker_1, # of connection points: 2
#     Edge 34, Type (0, 1), BuildingBlock: KIFKEQ_clean_linker_1, # of connection points: 2
#     Edge 35, Type (0, 1), BuildingBlock: KIFKEQ_clean_linker_1, # of connection points: 2
#     Edge 36, Type (0, 1), BuildingBlock: KIFKEQ_clean_linker_1, # of connection points: 2
#     Edge 37, Type (0, 1), BuildingBlock: KIFKEQ_clean_linker_1, # of connection points: 2
#     Edge 38, Type (0, 1), BuildingBlock: KIFKEQ_clean_linker_1, # of connection points: 2
#     Edge 39, Type (0, 1), BuildingBlock: KIFKEQ_clean_linker_1, # of connection points: 2
#     Edge 40, Type (0, 1), BuildingBlock: KIFKEQ_clean_linker_1, # of connection points: 2
#     Edge 41, Type (0, 1), BuildingBlock: KIFKEQ_clean_linker_1, # of connection points: 2
#     Edge 42, Type (0, 1), BuildingBlock: KIFKEQ_clean_linker_1, # of connection points: 2
#     Edge 43, Type (0, 1), BuildingBlock: KIFKEQ_clean_linker_1, # of connection points: 2
#     Edge 44, Type (0, 1), BuildingBlock: KIFKEQ_clean_linker_1, # of connection points: 2
#     Edge 45, Type (0, 1), BuildingBlock: KIFKEQ_clean_linker_1, # of connection points: 2
#     Edge 46, Type (0, 1), BuildingBlock: KIFKEQ_clean_linker_1, # of connection points: 2
#     Edge 47, Type (0, 1), BuildingBlock: KIFKEQ_clean_linker_1, # of connection points: 2
#     Edge 48, Type (0, 1), BuildingBlock: KIFKEQ_clean_linker_1, # of connection points: 2
#     Edge 49, Type (0, 1), BuildingBlock: KIFKEQ_clean_linker_1, # of connection points: 2
#     Edge 50, Type (0, 1), BuildingBlock: KIFKEQ_clean_linker_1, # of connection points: 2
#     Edge 51, Type (0, 1), BuildingBlock: KIFKEQ_clean_linker_1, # of connection points: 2
#     Edge 52, Type (0, 1), BuildingBlock: KIFKEQ_clean_linker_1, # of connection points: 2
#     Edge 53, Type (0, 1), BuildingBlock: KIFKEQ_clean_linker_1, # of connection points: 2
#     Edge 54, Type (0, 1), BuildingBlock: KIFKEQ_clean_linker_1, # of connection points: 2
#     Edge 55, Type (0, 1), BuildingBlock: KIFKEQ_clean_linker_1, # of connection points: 2
#     Edge 56, Type (0, 1), BuildingBlock: KIFKEQ_clean_linker_1, # of connection points: 2
#     Edge 57, Type (0, 1), BuildingBlock: KIFKEQ_clean_linker_1, # of connection points: 2
#     Edge 58, Type (0, 1), BuildingBlock: KIFKEQ_clean_linker_1, # of connection points: 2
#     Edge 59, Type (0, 1), BuildingBlock: KIFKEQ_clean_linker_1, # of connection points: 2
#     Edge 60, Type (0, 1), BuildingBlock: KIFKEQ_clean_linker_1, # of connection points: 2
#     Edge 61, Type (0, 1), BuildingBlock: KIFKEQ_clean_linker_1, # of connection points: 2
#     Edge 62, Type (0, 1), BuildingBlock: KIFKEQ_clean_linker_1, # of connection points: 2
#     Edge 63, Type (0, 1), BuildingBlock: KIFKEQ_clean_linker_1, # of connection points: 2
#     Edge 64, Type (0, 1), BuildingBlock: KIFKEQ_clean_linker_1, # of connection points: 2
#     Edge 65, Type (0, 1), BuildingBlock: KIFKEQ_clean_linker_1, # of connection points: 2
#     Edge 66, Type (0, 1), BuildingBlock: KIFKEQ_clean_linker_1, # of connection points: 2
#     Edge 67, Type (0, 1), BuildingBlock: KIFKEQ_clean_linker_1, # of connection points: 2
#     Edge 68, Type (0, 1), BuildingBlock: KIFKEQ_clean_linker_1, # of connection points: 2
#     Edge 69, Type (0, 1), BuildingBlock: KIFKEQ_clean_linker_1, # of connection points: 2
#     Edge 70, Type (0, 1), BuildingBlock: KIFKEQ_clean_linker_1, # of connection points: 2
#     Edge 71, Type (0, 1), BuildingBlock: KIFKEQ_clean_linker_1, # of connection points: 2
#     Edge 72, Type (0, 1), BuildingBlock: KIFKEQ_clean_linker_1, # of connection points: 2
#     Edge 73, Type (0, 1), BuildingBlock: KIFKEQ_clean_linker_1, # of connection points: 2
#     Edge 74, Type (0, 1), BuildingBlock: KIFKEQ_clean_linker_1, # of connection points: 2
#     Edge 75, Type (0, 1), BuildingBlock: KIFKEQ_clean_linker_1, # of connection points: 2
# Relax obj value: 0.092
# Max RMSD: 0.206
# Mean RMSD: 0.137
data_MOF--net-ctn--node1-KUFVIS_clean_sbu_0--node2-CUQRIR_clean_linker_1--edge1-KIFKEQ_clean_linker_1
_symmetry_space_group_name_H-M    P1
_symmetry_Int_Tables_number       1
_symmetry_cell_setting            triclinic
loop_
_symmetry_equiv_pos_as_xyz
'x, y, z'
_cell_length_a     51.848199
_cell_length_b     48.179725
_cell_length_c     49.759628
_cell_angle_alpha  97.15365
_cell_angle_beta   89.313216
_cell_angle_gamma 94.008799
loop_
_atom_site_label
_atom_site_type_symbol
_atom_site_fract_x
_atom_site_fract_y
_atom_site_fract_z
_atom_type_partial_charge
C0 C 0.05378 0.035 0.0901 0.0
N1 N 0.06326 0.0445 0.06715 0.0
N2 N 0.03115 0.04627 0.09752 0.0
C3 C 0.0657 0.01305 0.10408 0.0
C4 C 0.02711 0.06284 0.07809 0.0
N5 N 0.04642 0.06156 0.05946 0.0
C6 C 1.00511 0.08167 0.07815 0.0
H7 H 0.07618 0.99857 0.08942 0.0
H8 H 0.05077 1.00064 0.11454 0.0
H9 H 0.07978 0.02356 0.11933 0.0
H10 H 0.9979 0.08757 0.09902 0.0
H11 H 0.98906 0.07041 0.06579 0.0
H12 H 1.01117 0.10102 0.06911 0.0
C13 C 0.31095 0.72505 0.21026 0.0
N14 N 0.31979 0.71214 0.23068 0.0
N15 N 0.32373 0.75048 0.20955 0.0
C16 C 0.28822 0.7139 0.19259 0.0
C17 C 0.34048 0.75268 0.23058 0.0
N18 N 0.33795 0.72948 0.24357 0.0
C19 C 0.36013 0.77686 0.23767 0.0
H20 H 0.29517 0.6999 0.175 0.0
H21 H 0.27848 0.73115 0.185 0.0
H22 H 0.2739 0.70151 0.20383 0.0
H23 H 0.35186 0.79208 0.25345 0.0
H24 H 0.36521 0.78768 0.21971 0.0
H25 H 0.37792 0.76961 0.24593 0.0
C26 C 0.98401 0.51286 0.08257 0.0
N27 N 1.00022 0.49208 0.08361 0.0
N28 N 0.96588 0.5055 0.06308 0.0
C29 C 0.98492 0.53966 0.10173 0.0
C30 C 0.97165 0.47942 0.05229 0.0
N31 N 0.99245 0.47121 0.06476 0.0
C32 C 0.95702 0.46206 0.02939 0.0
H33 H 0.99246 0.53639 0.12179 0.0
H34 H 0.96546 0.54785 0.10441 0.0
H35 H 0.99807 0.55559 0.09328 0.0
H36 H 0.94842 0.47565 0.01597 0.0
H37 H 0.94116 0.44918 0.038 0.0
H38 H 0.96958 0.44764 0.01714 0.0
C39 C 0.67946 0.80719 0.2236 0.0
N40 N 0.7007 0.81829 0.21165 0.0
N41 N 0.67184 0.825 0.245 0.0
C42 C 0.66564 0.77933 0.21382 0.0
C43 C 0.6892 0.84743 0.24553 0.0
N44 N 0.70656 0.84352 0.22503 0.0
C45 C 0.69071 0.87186 0.26764 0.0
H46 H 0.66676 0.77498 0.19142 0.0
H47 H 0.64506 0.7788 0.22022 0.0
H48 H 0.6751 0.76255 0.22254 0.0
H49 H 0.68378 0.86525 0.2872 0.0
H50 H 0.67813 0.88798 0.26215 0.0
H51 H 0.7107 0.88155 0.27027 0.0
C52 C 0.03334 0.98678 0.50455 0.0
N53 N 0.05411 0.98848 0.52112 0.0
N54 N 0.03536 1.00719 0.48805 0.0
C55 C 1.01062 0.96561 0.50506 0.0
C56 C 0.05815 0.02153 0.49532 0.0
N57 N 0.06947 1.01036 0.51558 0.0
C58 C 0.07043 0.04499 0.48117 0.0
H59 H 0.01501 0.94605 0.4921 0.0
H60 H 0.99295 0.97356 0.49728 0.0
H61 H 1.00694 0.96045 0.52595 0.0
H62 H 0.06325 0.04391 0.46014 0.0
H63 H 0.09178 0.04439 0.48066 0.0
H64 H 0.06565 0.06531 0.49251 0.0
C65 C 0.18769 0.72411 0.83902 0.0
N66 N 0.20742 0.71396 0.85143 0.0
N67 N 0.18248 0.70872 0.8148 0.0
C68 C 0.17354 0.7492 0.85061 0.0
C69 C 0.19972 0.68864 0.81306 0.0
N70 N 0.21498 0.69183 0.83537 0.0
C71 C 0.203 0.66739 0.78865 0.0
H72 H 0.17257 0.75093 0.87301 0.0
H73 H 0.15359 0.74802 0.84255 0.0
H74 H 0.18416 0.76848 0.84507 0.0
H75 H 0.22346 0.66211 0.78625 0.0
H76 H 0.19664 0.67527 0.76996 0.0
H77 H 0.19099 0.64795 0.79136 0.0
C78 C 0.98044 0.53701 0.4769 0.0
N79 N 0.99879 0.55848 0.4767 0.0
N80 N 0.96223 0.54339 0.49607 0.0
C81 C 0.97973 0.51035 0.45759 0.0
C82 C 0.97004 0.56962 0.50732 0.0
N83 N 0.99212 0.57885 0.49547 0.0
C84 C 0.95539 0.58661 0.52909 0.0
H85 H 0.96684 0.49362 0.46511 0.0
H86 H 0.99938 0.50281 0.45452 0.0
H87 H 0.97259 0.51458 0.43766 0.0
H88 H 0.93425 0.58269 0.52584 0.0
H89 H 0.9606 0.60938 0.52976 0.0
H90 H 0.96 0.58009 0.54899 0.0
C91 C 0.80643 0.83052 0.85306 0.0
N92 N 0.82736 0.81504 0.84916 0.0
N93 N 0.80541 0.84824 0.83407 0.0
C94 C 0.7861 0.82716 0.8745 0.0
C95 C 0.82647 0.84301 0.81839 0.0
N96 N 0.83989 0.82287 0.8275 0.0
C97 C 0.83369 0.85734 0.79386 0.0
H98 H 0.78385 0.80514 0.87901 0.0
H99 H 0.76717 0.83347 0.86812 0.0
H100 H 0.79215 0.84071 0.89336 0.0
H101 H 0.82589 0.87834 0.79537 0.0
H102 H 0.82544 0.84433 0.77561 0.0
H103 H 0.85493 0.85973 0.79113 0.0
C104 C 0.30756 0.33178 0.35555 0.0
N105 N 0.3282 0.316 0.35069 0.0
N106 N 0.30676 0.35062 0.33757 0.0
C107 C 0.28719 0.32751 0.37674 0.0
C108 C 0.32767 0.34575 0.32153 0.0
N109 N 0.34073 0.32471 0.3294 0.0
C110 C 0.33492 0.36104 0.29761 0.0
H111 H 0.28433 0.30507 0.37977 0.0
H112 H 0.26846 0.33497 0.37113 0.0
H113 H 0.29365 0.33957 0.39624 0.0
H114 H 0.35616 0.36498 0.29611 0.0
H115 H 0.32592 0.38138 0.29896 0.0
H116 H 0.32823 0.34779 0.27881 0.0
C117 C 0.48152 0.0127 0.58194 0.0
N118 N 0.49755 0.99174 0.58292 0.0
N119 N 0.46319 1.00545 0.56262 0.0
C120 C 0.48277 0.03956 0.60102 0.0
C121 C 0.46867 0.97925 0.55188 0.0
N122 N 0.48946 0.97086 0.56422 0.0
C123 C 0.45381 0.96195 0.52911 0.0
H124 H 0.49048 0.0363 0.62101 0.0
H125 H 0.4634 0.04793 0.60389 0.0
H126 H 0.49593 0.05535 0.59237 0.0
H127 H 0.44521 0.97559 0.51573 0.0
H128 H 0.43795 0.94919 0.53785 0.0
H129 H 0.46623 0.94743 0.5168 0.0
C130 C 0.17663 0.31161 0.72075 0.0
N131 N 0.19805 0.32184 0.70833 0.0
N132 N 0.17023 0.32963 0.74253 0.0
C133 C 0.16258 0.28346 0.71263 0.0
C134 C 0.18844 0.35122 0.74278 0.0
N135 N 0.2052 0.34665 0.72188 0.0
C136 C 0.19084 0.37606 0.76436 0.0
H137 H 0.14221 0.28643 0.70782 0.0
H138 H 0.16237 0.27094 0.72991 0.0
H139 H 0.17137 0.27165 0.69471 0.0
H140 H 0.20562 0.37242 0.77925 0.0
H141 H 0.17219 0.37928 0.77506 0.0
H142 H 0.19732 0.39534 0.7554 0.0
C143 C 0.80829 0.22709 0.71394 0.0
N144 N 0.81785 0.21332 0.73333 0.0
N145 N 0.8227 0.2513 0.7118 0.0
C146 C 0.78452 0.21714 0.69744 0.0
C147 C 0.84143 0.2517 0.7307 0.0
N148 N 0.83839 0.22868 0.74391 0.0
C149 C 0.86225 0.2749 0.73666 0.0
H150 H 0.78239 0.19393 0.69373 0.0
H151 H 0.78518 0.22563 0.67771 0.0
H152 H 0.76724 0.22444 0.70886 0.0
H153 H 0.85526 0.29528 0.73276 0.0
H154 H 0.87898 0.27035 0.72311 0.0
H155 H 0.86895 0.27652 0.75791 0.0
C156 C 0.55851 0.53631 0.59003 0.0
N157 N 0.56624 0.54438 0.5659 0.0
N158 N 0.53574 0.5469 0.59807 0.0
C159 C 0.57377 0.51865 0.60608 0.0
C160 C 0.52989 0.56186 0.57787 0.0
N161 N 0.54833 0.56024 0.55823 0.0
C162 C 0.50592 0.57776 0.57725 0.0
H163 H 0.56858 0.49617 0.59927 0.0
H164 H 0.56954 0.523 0.62806 0.0
H165 H 0.59482 0.52269 0.60266 0.0
H166 H 0.48938 0.56677 0.58676 0.0
H167 H 0.50046 0.58064 0.5564 0.0
H168 H 0.50963 0.59884 0.58884 0.0
C169 C 0.53648 0.48505 1.0026 0.0
N170 N 0.55715 0.48713 0.01933 0.0
N171 N 0.53858 0.50506 0.98567 0.0
C172 C 0.51374 0.46396 1.00342 0.0
C173 C 0.56131 0.51958 0.99286 0.0
N174 N 0.57254 0.50886 0.01346 0.0
C175 C 0.57347 0.54292 0.97845 0.0
H176 H 0.51814 0.44418 0.99083 0.0
H177 H 0.4961 0.47173 0.99538 0.0
H178 H 0.50998 0.45925 0.02444 0.0
H179 H 0.56757 0.54033 0.95688 0.0
H180 H 0.59488 0.54383 0.97954 0.0
H181 H 0.56695 0.56316 0.98834 0.0
C182 C 0.67795 0.21603 0.34425 0.0
N183 N 0.69935 0.2081 0.35578 0.0
N184 N 0.6754 0.20365 0.31839 0.0
C185 C 0.66054 0.23742 0.35774 0.0
C186 C 0.6961 0.18792 0.3145 0.0
N187 N 0.71091 0.19093 0.33714 0.0
C188 C 0.7023 0.17049 0.28829 0.0
H189 H 0.65358 0.2312 0.37742 0.0
H190 H 0.64345 0.23966 0.34522 0.0
H191 H 0.67169 0.258 0.3619 0.0
H192 H 0.71549 0.18321 0.27617 0.0
H193 H 0.68466 0.16385 0.27618 0.0
H194 H 0.71207 0.15162 0.29217 0.0
C195 C 0.4751 0.04117 0.9737 0.0
N196 N 0.49456 0.06162 0.97367 0.0
N197 N 0.45714 0.04864 0.99279 0.0
C198 C 0.47358 0.01405 0.95493 0.0
C199 C 0.46607 0.07442 1.00408 0.0
N200 N 0.48866 0.08243 0.99242 0.0
C201 C 0.45237 0.09182 0.02633 0.0
H202 H 0.47934 0.01794 0.93411 0.0
H203 H 0.45403 1.00319 0.95445 0.0
H204 H 0.48718 0.99976 0.962 0.0
H205 H 0.43113 0.089 0.02335 0.0
H206 H 0.45855 0.1144 0.02735 0.0
H207 H 0.45678 0.08459 0.04597 0.0
Mn208 Mn 0.25474 0.89507 0.039 0.0
Mn209 Mn 0.25313 0.91023 0.97458 0.0
C210 C 0.23812 0.86199 1.00449 0.0
C211 C 0.27493 0.87639 0.07413 0.0
C212 C 0.21606 0.93322 0.01805 0.0
O213 O 0.28171 0.92822 0.03945 0.0
O214 O 0.27929 0.93589 0.99564 0.0
C215 C 0.30533 0.89442 0.95656 0.0
N216 N 0.27918 0.89136 0.9535 0.0
C217 C 0.28292 0.85841 0.91337 0.0
C218 C 0.3099 0.86129 0.91602 0.0
C219 C 0.32114 0.87928 0.93778 0.0
C220 C 0.26816 0.87393 0.93277 0.0
H221 H 0.31407 0.90833 0.97316 0.0
C222 C 0.28895 0.94131 0.01948 0.0
O223 O 0.25721 0.89414 0.07907 0.0
O224 O 0.28161 0.87047 0.049 0.0
N225 N 0.22888 0.88639 0.9521 0.0
C226 C 0.20256 0.8846 0.95347 0.0
C227 C 0.18832 0.86652 0.93385 0.0
C228 C 0.20126 0.85073 0.9129 0.0
C229 C 0.22835 0.85308 0.91182 0.0
C230 C 0.24151 0.87131 0.93202 0.0
H231 H 0.19252 0.89677 0.96948 0.0
O232 O 0.23081 0.86069 0.02936 0.0
O233 O 0.25408 0.88305 1.00058 0.0
O234 O 0.22497 0.92126 0.03719 0.0
O235 O 0.22526 0.93034 0.99405 0.0
C236 C 0.24282 0.83787 0.89165 0.0
C237 C 0.27009 0.84054 0.89242 0.0
H238 H 0.32216 0.84966 0.90157 0.0
H239 H 0.34195 0.88154 0.94002 0.0
H240 H 0.16742 0.8648 0.93485 0.0
H241 H 0.19022 0.83677 0.89782 0.0
H242 H 0.23317 0.82371 0.87567 0.0
H243 H 0.281 0.82839 0.87702 0.0
Mn244 Mn 0.16165 0.52505 0.28092 0.0
Mn245 Mn 0.14513 0.59103 0.27731 0.0
C246 C 0.19014 0.55733 0.26258 0.0
C247 C 0.18114 0.49124 0.3023 0.0
C248 C 0.12314 0.54052 0.2396 0.0
O249 O 0.13222 0.52944 0.30892 0.0
O250 O 0.12448 0.5745 0.30602 0.0
C251 C 0.16391 0.61796 0.33094 0.0
N252 N 0.16423 0.61667 0.30343 0.0
C253 C 0.19455 0.65702 0.30529 0.0
C254 C 0.19442 0.65888 0.33364 0.0
C255 C 0.1791 0.6392 0.3465 0.0
C256 C 0.17906 0.63536 0.29084 0.0
H257 H 0.15218 0.60289 0.34093 0.0
C258 C 0.12056 0.55168 0.31674 0.0
O259 O 0.16341 0.48437 0.28403 0.0
O260 O 0.18653 0.51787 0.30927 0.0
N261 N 0.16426 0.6095 0.25069 0.0
C262 C 0.16317 0.60401 0.22318 0.0
C263 C 0.17794 0.62134 0.20726 0.0
C264 C 0.19352 0.64424 0.21977 0.0
C265 C 0.19417 0.64961 0.2481 0.0
C266 C 0.17898 0.63166 0.26292 0.0
H267 H 0.15121 0.58648 0.21343 0.0
O268 O 0.19189 0.53063 0.25584 0.0
O269 O 0.17148 0.56418 0.27911 0.0
O270 O 0.13595 0.5225 0.2494 0.0
O271 O 0.12478 0.56652 0.24895 0.0
C272 C 0.20952 0.67188 0.26223 0.0
C273 C 0.2097 0.67558 0.2908 0.0
H274 H 0.20614 0.67521 0.34571 0.0
H275 H 0.17899 0.64042 0.36836 0.0
H276 H 0.17735 0.61705 0.1854 0.0
H277 H 0.205 0.65747 0.20742 0.0
H278 H 0.2215 0.68607 0.25132 0.0
H279 H 0.22182 0.69258 0.30143 0.0
Mn280 Mn 0.78095 0.64386 0.02245 0.0
Mn281 Mn 0.72634 0.66252 0.99486 0.0
C282 C 0.74166 0.61846 0.02793 0.0
C283 C 0.81883 0.6198 0.02224 0.0
C284 C 0.7493 0.69299 0.04677 0.0
O285 O 0.7953 0.66883 0.99433 0.0
O286 O 0.75752 0.6806 0.97856 0.0
C287 C 0.73394 0.63291 0.93983 0.0
N288 N 0.71904 0.63763 0.96244 0.0
C289 C 0.68501 0.60503 0.94298 0.0
C290 C 0.69992 0.59995 0.91941 0.0
C291 C 0.72452 0.61389 0.91787 0.0
C292 C 0.69544 0.62414 0.96423 0.0
H293 H 0.75286 0.64356 0.93857 0.0
C294 C 0.78229 0.68205 0.979 0.0
O295 O 0.81588 0.64273 0.03821 0.0
O296 O 0.80006 0.61118 1.00548 0.0
N297 N 0.69439 0.64705 1.0082 0.0
C298 C 0.6826 0.65404 0.03249 0.0
C299 C 0.65778 0.64197 0.03729 0.0
C300 C 0.64522 0.62317 0.01697 0.0
C301 C 0.65758 0.61662 0.992 0.0
C302 C 0.68222 0.62947 0.9883 0.0
H303 H 0.69206 0.66866 0.04811 0.0
O304 O 0.76051 0.61816 0.04478 0.0
O305 O 0.74627 0.63353 1.00815 0.0
O306 O 0.76879 0.67821 0.04664 0.0
O307 O 0.73191 0.68883 0.02846 0.0
C308 C 0.64654 0.5976 0.97076 0.0
C309 C 0.6603 0.5917 0.94631 0.0
H310 H 0.69273 0.58529 0.90243 0.0
H311 H 0.73619 0.60999 0.89979 0.0
H312 H 0.64835 0.64717 0.0566 0.0
H313 H 0.62611 0.61385 0.02076 0.0
H314 H 0.62759 0.58719 0.97311 0.0
H315 H 0.65172 0.57682 0.93022 0.0
Mn316 Mn 0.87476 0.02413 0.29547 0.0
Mn317 Mn 0.89739 0.95937 0.28717 0.0
C318 C 0.85079 0.98667 0.2716 0.0
C319 C 0.85133 0.05987 0.31823 0.0
C320 C 0.91668 1.00514 0.2542 0.0
O321 O 0.90252 0.02741 0.32498 0.0
O322 O 0.91617 0.98371 0.31679 0.0
C323 C 0.87945 0.94163 0.33952 0.0
N324 N 0.88007 0.93708 0.31197 0.0
C325 C 0.85475 0.89324 0.31157 0.0
C326 C 0.85395 0.89736 0.33996 0.0
C327 C 0.86628 0.92172 0.35398 0.0
C328 C 0.86814 0.91381 0.29826 0.0
H329 H 0.88895 0.96028 0.35038 0.0
C330 C 0.91727 1.00842 0.32984 0.0
O331 O 0.87002 0.0651 0.30167 0.0
O332 O 0.84703 0.03395 0.32271 0.0
N333 N 0.88104 0.9333 0.25934 0.0
C334 C 0.88235 0.93332 0.23198 0.0
C335 C 0.87022 0.91086 0.21496 0.0
C336 C 0.85723 0.88845 0.22624 0.0
C337 C 0.85646 0.88873 0.25445 0.0
C338 C 0.86884 0.9117 0.27038 0.0
H339 H 0.89244 0.95042 0.22322 0.0
O340 O 0.84737 1.01226 0.26757 0.0
O341 O 0.86817 0.98362 0.28946 0.0
O342 O 0.90257 0.02379 0.26574 0.0
O343 O 0.91621 0.98024 0.26047 0.0
C344 C 0.84355 0.86733 0.26741 0.0
C345 C 0.84254 0.86967 0.29594 0.0
H346 H 0.8438 0.88207 0.35118 0.0
H347 H 0.86567 0.92511 0.37589 0.0
H348 H 0.8709 0.9108 0.19321 0.0
H349 H 0.84779 0.87123 0.21306 0.0
H350 H 0.83405 0.84915 0.25562 0.0
H351 H 0.83217 0.85331 0.30566 0.0
Mn352 Mn 0.27827 0.14411 0.52265 0.0
Mn353 Mn 0.22335 0.1609 0.49426 0.0
C354 C 0.23919 0.1184 0.52894 0.0
C355 C 0.31635 0.12038 0.52234 0.0
C356 C 0.24719 0.19399 0.54494 0.0
O357 O 0.292 0.16883 0.49391 0.0
O358 O 0.25414 0.17612 0.4751 0.0
C359 C 0.2281 0.12667 0.44094 0.0
N360 N 0.21424 0.13379 0.46388 0.0
C361 C 0.17862 0.10142 0.44799 0.0
C362 C 0.19243 0.0939 0.42409 0.0
C363 C 0.21732 0.10651 0.42061 0.0
C364 C 0.19039 0.12159 0.46756 0.0
H365 H 0.24725 0.13626 0.43821 0.0
C366 C 0.2789 0.1789 0.47619 0.0
O367 O 0.31346 0.1435 0.53806 0.0
O368 O 0.29745 0.11146 0.50586 0.0
N369 N 0.19183 0.14757 0.51025 0.0
C370 C 0.18142 0.15647 0.53485 0.0
C371 C 0.15662 0.14577 0.54159 0.0
C372 C 0.14267 0.12629 0.52291 0.0
C373 C 0.15369 0.1176 0.49767 0.0
C374 C 0.17838 0.12917 0.49197 0.0
H375 H 0.19194 0.17161 0.54922 0.0
O376 O 0.25824 0.11855 0.54562 0.0
O377 O 0.24356 0.13306 0.50887 0.0
O378 O 0.26594 0.17851 0.54635 0.0
O379 O 0.23052 0.18974 0.52589 0.0
C380 C 0.14126 0.09766 0.47806 0.0
C381 C 0.15377 0.08946 0.4533 0.0
H382 H 0.18419 0.07835 0.40837 0.0
H383 H 0.22815 0.1007 0.40228 0.0
H384 H 0.14825 0.15256 0.56113 0.0
H385 H 0.12355 0.11809 0.52818 0.0
H386 H 0.12222 0.08827 0.48198 0.0
H387 H 0.14417 0.07384 0.43854 0.0
Mn388 Mn 0.37715 0.52195 0.79427 0.0
Mn389 Mn 0.39799 0.45652 0.78533 0.0
C390 C 0.35256 0.48532 0.76992 0.0
C391 C 0.35382 0.55801 0.8166 0.0
C392 C 0.41813 0.50163 0.75227 0.0
O393 O 0.40421 0.52433 0.8242 0.0
O394 O 0.41845 0.48115 0.81371 0.0
C395 C 0.38185 0.44104 0.83913 0.0
N396 N 0.38126 0.43561 0.8116 0.0
C397 C 0.35471 0.3929 0.81363 0.0
C398 C 0.35517 0.39796 0.84199 0.0
C399 C 0.36873 0.42219 0.85478 0.0
C400 C 0.36813 0.41245 0.79909 0.0
H401 H 0.39226 0.4596 0.84909 0.0
C402 C 0.41954 0.50543 0.82769 0.0
O403 O 0.37296 0.56306 0.80049 0.0
O404 O 0.34914 0.53212 0.82099 0.0
N405 N 0.38009 0.43 0.75891 0.0
C406 C 0.38045 0.42889 0.73142 0.0
C407 C 0.36723 0.40628 0.71558 0.0
C408 C 0.35405 0.38488 0.72814 0.0
C409 C 0.35422 0.38628 0.75645 0.0
C410 C 0.36774 0.40932 0.77118 0.0
H411 H 0.39045 0.44531 0.72168 0.0
O412 O 0.35018 0.51105 0.76576 0.0
O413 O 0.36945 0.48156 0.78804 0.0
O414 O 0.40594 0.52112 0.7654 0.0
O415 O 0.41574 0.47616 0.75705 0.0
C416 C 0.34114 0.36598 0.77065 0.0
C417 C 0.34126 0.36936 0.79922 0.0
H418 H 0.34506 0.38348 0.85414 0.0
H419 H 0.3691 0.4263 0.87666 0.0
H420 H 0.36713 0.40539 0.69374 0.0
H421 H 0.34372 0.36757 0.71587 0.0
H422 H 0.33067 0.34783 0.75981 0.0
H423 H 0.33081 0.35381 0.80991 0.0
Mn424 Mn 0.75567 0.39345 0.53862 0.0
Mn425 Mn 0.75445 0.40786 0.47393 0.0
C426 C 0.73786 0.3605 0.50472 0.0
C427 C 0.77558 0.37499 0.57403 0.0
C428 C 0.71859 0.43309 0.5176 0.0
O429 O 0.78342 0.42587 0.53835 0.0
O430 O 0.78208 0.43212 0.4941 0.0
C431 C 0.80521 0.38821 0.45514 0.0
N432 N 0.77901 0.38683 0.45263 0.0
C433 C 0.78035 0.35216 0.4135 0.0
C434 C 0.80736 0.35331 0.41558 0.0
C435 C 0.81983 0.37135 0.43655 0.0
C436 C 0.7668 0.36945 0.43262 0.0
H437 H 0.81489 0.40208 0.4712 0.0
C438 C 0.7916 0.43783 0.51798 0.0
O439 O 0.75839 0.39336 0.57874 0.0
O440 O 0.78192 0.36826 0.54889 0.0
N441 N 0.72873 0.38521 0.45233 0.0
C442 C 0.70249 0.38529 0.4542 0.0
C443 C 0.68707 0.36755 0.43536 0.0
C444 C 0.69876 0.35009 0.4147 0.0
C445 C 0.7258 0.3505 0.41309 0.0
C446 C 0.74017 0.36861 0.43244 0.0
H447 H 0.69341 0.3987 0.47003 0.0
O448 O 0.73089 0.35967 0.52976 0.0
O449 O 0.75437 0.38094 0.50035 0.0
O450 O 0.72642 0.42013 0.53655 0.0
O451 O 0.72813 0.43035 0.49373 0.0
C452 C 0.73904 0.33338 0.39328 0.0
C453 C 0.7663 0.33424 0.39347 0.0
H454 H 0.81869 0.34028 0.40132 0.0
H455 H 0.84066 0.37227 0.43836 0.0
H456 H 0.66621 0.36731 0.43677 0.0
H457 H 0.6868 0.33632 0.40028 0.0
H458 H 0.72845 0.31918 0.37804 0.0
H459 H 0.77625 0.3207 0.37835 0.0
Mn460 Mn 0.65993 0.02429 0.77949 0.0
Mn461 Mn 0.64085 0.08963 0.7776 0.0
C462 C 0.68729 0.05833 0.76245 0.0
C463 C 0.68051 0.99025 0.79949 0.0
C464 C 0.62109 0.03964 0.73821 0.0
O465 O 0.63067 0.02666 0.80765 0.0
O466 O 0.61974 0.0708 0.80465 0.0
C467 C 0.65695 0.115 0.83266 0.0
N468 N 0.6582 0.11496 0.8053 0.0
C469 C 0.68708 0.15659 0.80988 0.0
C470 C 0.68599 0.15716 0.83811 0.0
C471 C 0.67091 0.13622 0.84954 0.0
C472 C 0.67275 0.13493 0.79409 0.0
H473 H 0.64539 0.09896 0.84155 0.0
C474 C 0.6172 0.04764 0.81497 0.0
O475 O 0.66287 0.98353 0.78112 0.0
O476 O 0.6853 0.01684 0.80731 0.0
N477 N 0.66013 0.11021 0.75263 0.0
C478 C 0.66026 0.10578 0.72504 0.0
C479 C 0.67507 0.12439 0.71046 0.0
C480 C 0.68944 0.14744 0.72437 0.0
C481 C 0.68886 0.15168 0.75276 0.0
C482 C 0.6737 0.13247 0.7662 0.0
H483 H 0.64925 0.0881 0.71423 0.0
O484 O 0.6898 0.03192 0.75466 0.0
O485 O 0.66838 0.06393 0.77911 0.0
O486 O 0.63398 0.02175 0.74811 0.0
O487 O 0.62224 0.06555 0.74779 0.0
C488 C 0.70298 0.174 0.76825 0.0
C489 C 0.70212 0.17644 0.79679 0.0
H490 H 0.69678 0.17345 0.8512 0.0
H491 H 0.67005 0.13645 0.87131 0.0
H492 H 0.67545 0.12094 0.68856 0.0
H493 H 0.70097 0.16165 0.71307 0.0
H494 H 0.71487 0.18919 0.75842 0.0
H495 H 0.71336 0.19346 0.80848 0.0
Mn496 Mn 0.01177 0.25028 0.90799 0.0
Mn497 Mn 0.95461 0.2421 0.94009 0.0
C498 C 0.97526 0.22992 0.8842 0.0
C499 C 0.04243 0.27446 0.88313 0.0
C500 C 0.99942 0.20602 0.94653 0.0
O501 O 0.01638 0.27885 0.94218 0.0
O502 O 0.97682 0.27265 0.96089 0.0
C503 C 0.93352 0.29664 0.9344 0.0
N504 N 0.93135 0.26809 0.93001 0.0
C505 C 0.89034 0.26818 0.90786 0.0
C506 C 0.89209 0.29757 0.91228 0.0
C507 C 0.91379 0.31184 0.92558 0.0
C508 C 0.9105 0.25414 0.91732 0.0
H509 H 0.9502 0.30774 0.9445 0.0
C510 C 0.99947 0.28528 0.96052 0.0
O511 O 0.0487 0.25547 0.89766 0.0
O512 O 0.01835 0.28045 0.88392 0.0
N513 N 0.93145 0.21368 0.92132 0.0
C514 C 0.93367 0.18547 0.9168 0.0
C515 C 0.91406 0.16821 0.9027 0.0
C516 C 0.89238 0.1801 0.89343 0.0
C517 C 0.89051 0.20918 0.89835 0.0
C518 C 0.91056 0.22532 0.91269 0.0
H519 H 0.95038 0.17623 0.92369 0.0
O520 O 0.99827 0.22422 0.87557 0.0
O521 O 0.97445 0.2464 0.90687 0.0
O522 O 0.01452 0.2176 0.93024 0.0
O523 O 0.97662 0.21367 0.95182 0.0
C524 C 0.8698 0.22284 0.88908 0.0
C525 C 0.8697 0.25232 0.89387 0.0
H526 H 0.87702 0.30938 0.9053 0.0
H527 H 0.91534 0.33453 0.92894 0.0
H528 H 0.91571 0.14579 0.89886 0.0
H529 H 0.87741 0.16674 0.88233 0.0
H530 H 0.85405 0.21092 0.87787 0.0
H531 H 0.85386 0.26261 0.88628 0.0
Mn532 Mn 0.51069 0.74953 0.4087 0.0
Mn533 Mn 0.45334 0.74049 0.44018 0.0
C534 C 0.4745 0.72896 0.3845 0.0
C535 C 0.54137 0.77438 0.38452 0.0
C536 C 0.49838 0.70478 0.44676 0.0
O537 O 0.51476 0.77789 0.44305 0.0
O538 O 0.47512 0.77116 0.4614 0.0
C539 C 0.4321 0.79492 0.43427 0.0
N540 N 0.4301 0.76637 0.42978 0.0
C541 C 0.38969 0.76632 0.40645 0.0
C542 C 0.39127 0.79569 0.41096 0.0
C543 C 0.41258 0.81004 0.42491 0.0
C544 C 0.40964 0.75235 0.41642 0.0
H545 H 0.44851 0.80608 0.44483 0.0
C546 C 0.49767 0.78405 0.46125 0.0
O547 O 0.54769 0.75534 0.39897 0.0
O548 O 0.51718 0.77993 0.38489 0.0
N549 N 0.43054 0.71199 0.42097 0.0
C550 C 0.43279 0.68377 0.41667 0.0
C551 C 0.41344 0.66643 0.40224 0.0
C552 C 0.392 0.67825 0.39237 0.0
C553 C 0.39009 0.70734 0.39705 0.0
C554 C 0.40985 0.72355 0.4118 0.0
H555 H 0.44932 0.67457 0.42403 0.0
O556 O 0.49761 0.72359 0.37597 0.0
O557 O 0.47347 0.7452 0.40727 0.0
O558 O 0.51348 0.71674 0.43073 0.0
O559 O 0.47546 0.71211 0.45199 0.0
C560 C 0.36962 0.72092 0.38718 0.0
C561 C 0.36941 0.75039 0.3919 0.0
H562 H 0.37635 0.80745 0.40359 0.0
H563 H 0.414 0.83272 0.42835 0.0
H564 H 0.41511 0.64401 0.39859 0.0
H565 H 0.37725 0.66483 0.381 0.0
H566 H 0.35413 0.70894 0.3756 0.0
H567 H 0.35376 0.76062 0.38389 0.0
Mn568 Mn 0.02314 0.78894 0.65148 0.0
Mn569 Mn 0.99366 0.72566 0.66015 0.0
C570 C 0.02709 0.75049 0.61856 0.0
C571 C 0.02438 0.83305 0.6356 0.0
C572 C 0.04262 0.75003 0.68963 0.0
O573 O 0.99661 0.79851 0.68211 0.0
O574 O 0.9756 0.75573 0.68206 0.0
C575 C 0.94366 0.73098 0.63375 0.0
N576 N 0.96512 0.71669 0.63595 0.0
C577 C 0.94982 0.68009 0.60128 0.0
C578 C 0.92738 0.69424 0.59889 0.0
C579 C 0.92437 0.71988 0.61508 0.0
C580 C 0.96841 0.69225 0.62016 0.0
H581 H 0.94138 0.75072 0.64607 0.0
C582 C 0.97852 0.78199 0.6904 0.0
O583 O 0.03934 0.82818 0.65493 0.0
O584 O 1.0074 0.81295 0.62684 0.0
N585 N 1.00893 0.69437 0.64018 0.0
C586 C 0.03227 0.68411 0.64403 0.0
C587 C 0.03852 0.65875 0.62913 0.0
C588 C 0.02063 0.64408 0.61066 0.0
C589 C 0.99675 0.65504 0.60705 0.0
C590 C 0.9915 0.68026 0.62264 0.0
H591 H 0.04598 0.69507 0.65845 0.0
O592 O 0.0438 0.77194 0.61989 0.0
O593 O 1.00847 0.75224 0.63628 0.0
O594 O 0.04566 0.77194 0.67769 0.0
O595 O 0.02319 0.73224 0.6856 0.0
C596 C 0.97805 0.64205 0.58843 0.0
C597 C 0.95466 0.65464 0.58541 0.0
H598 H 0.91247 0.68576 0.5845 0.0
H599 H 0.90721 0.73104 0.61319 0.0
H600 H 0.05702 0.65045 0.63199 0.0
H601 H 0.02546 0.62445 0.59933 0.0
H602 H 0.98169 0.62259 0.57607 0.0
H603 H 0.94062 0.64469 0.57068 0.0
Mn604 Mn 0.52274 0.28953 0.15151 0.0
Mn605 Mn 0.49194 0.22673 0.15951 0.0
C606 C 0.52657 0.25103 0.11861 0.0
C607 C 0.52489 0.33363 0.13548 0.0
C608 C 0.54068 0.25012 0.19 0.0
O609 O 0.49592 0.29951 0.18174 0.0
O610 O 0.47411 0.2571 0.18123 0.0
C611 C 0.44257 0.23314 0.13238 0.0
N612 N 0.46372 0.21844 0.1348 0.0
C613 C 0.44847 0.18236 0.09964 0.0
C614 C 0.42635 0.19696 0.09697 0.0
C615 C 0.42346 0.22253 0.11331 0.0
C616 C 0.46688 0.19403 0.11891 0.0
H617 H 0.44037 0.25283 0.14484 0.0
C618 C 0.47743 0.2833 0.18973 0.0
O619 O 0.53948 0.3286 0.15506 0.0
O620 O 0.50776 0.31375 0.12658 0.0
N621 N 0.50696 0.1952 0.1397 0.0
C622 C 0.52999 0.18443 0.14391 0.0
C623 C 0.53608 0.15907 0.12893 0.0
C624 C 0.51835 0.14489 0.11 0.0
C625 C 0.49477 0.15635 0.10605 0.0
C626 C 0.48967 0.18157 0.12172 0.0
H627 H 0.54357 0.19503 0.15867 0.0
O628 O 0.54361 0.27217 0.12024 0.0
O629 O 0.50771 0.25312 0.13601 0.0
O630 O 0.54444 0.27204 0.17815 0.0
O631 O 0.52104 0.23268 0.18546 0.0
C632 C 0.47624 0.14385 0.087 0.0
C633 C 0.45317 0.15692 0.08367 0.0
H634 H 0.41159 0.18886 0.08227 0.0
H635 H 0.40655 0.23403 0.11123 0.0
H636 H 0.55434 0.15038 0.13207 0.0
H637 H 0.52306 0.12526 0.09859 0.0
H638 H 0.47978 0.12441 0.07457 0.0
H639 H 0.43925 0.14735 0.06864 0.0
H640 H 0.2478 0.75173 0.85729 0.0
H641 H 0.19044 0.70682 0.90142 0.0
H642 H 0.25858 0.78363 0.89802 0.0
H643 H 0.20006 0.73969 0.9424 0.0
H644 H 0.19423 0.82949 0.98885 0.0
H645 H 0.19073 0.78812 0.95469 0.0
H646 H 0.27361 0.79512 0.94309 0.0
H647 H 0.27672 0.83672 0.97655 0.0
C648 C 0.23836 0.74804 0.87617 0.0
C649 C 0.21881 0.72656 0.87655 0.0
C650 C 0.24409 0.76665 0.89945 0.0
C651 C 0.2296 0.76487 0.92335 0.0
C652 C 0.21122 0.74206 0.92419 0.0
C653 C 0.206 0.72297 0.90099 0.0
C654 C 0.21158 0.82202 0.97892 0.0
C655 C 0.23558 0.83669 0.9845 0.0
C656 C 0.2097 0.79818 0.95961 0.0
C657 C 0.23191 0.78826 0.94601 0.0
C658 C 0.25606 0.80235 0.95276 0.0
C659 C 0.25785 0.82624 0.97183 0.0
H660 H 0.99913 0.59013 0.4361 0.0
H661 H 0.04221 0.53063 0.47116 0.0
H662 H 0.02853 0.58807 0.39721 0.0
H663 H 0.07241 0.52882 0.43271 0.0
H664 H 0.10315 0.50847 0.34567 0.0
H665 H 0.07485 0.51134 0.3855 0.0
H666 H 0.07053 0.60009 0.3823 0.0
H667 H 0.09772 0.59712 0.34242 0.0
C668 C 0.01543 0.57721 0.43568 0.0
C669 C 0.01868 0.56074 0.45651 0.0
C670 C 0.03228 0.57588 0.41343 0.0
C671 C 0.05291 0.55811 0.41159 0.0
C672 C 0.05655 0.54233 0.43309 0.0
C673 C 0.03956 0.54362 0.45527 0.0
C674 C 0.09598 0.52853 0.35336 0.0
C675 C 0.10266 0.55245 0.34052 0.0
C676 C 0.07993 0.53026 0.3764 0.0
C677 C 0.07026 0.55598 0.38724 0.0
C678 C 0.07708 0.57981 0.37438 0.0
C679 C 0.09288 0.57806 0.35139 0.0
H680 H 0.82377 0.75877 0.83595 0.0
H681 H 0.84258 0.82444 0.90085 0.0
H682 H 0.81902 0.72445 0.86872 0.0
H683 H 0.83727 0.79058 0.9337 0.0
H684 H 0.76992 0.73409 0.97152 0.0
H685 H 0.78901 0.76468 0.93995 0.0
H686 H 0.84333 0.70318 0.91301 0.0
H687 H 0.82462 0.67261 0.94567 0.0
C688 C 0.82826 0.76554 0.85703 0.0
C689 C 0.83393 0.79415 0.86587 0.0
C690 C 0.82529 0.746 0.87584 0.0
C691 C 0.8276 0.7549 0.9038 0.0
C692 C 0.83539 0.78311 0.91231 0.0
C693 C 0.83871 0.80244 0.89353 0.0
C694 C 0.78618 0.72721 0.95917 0.0
C695 C 0.79585 0.70101 0.96119 0.0
C696 C 0.79715 0.74476 0.94114 0.0
C697 C 0.81771 0.73637 0.92408 0.0
C698 C 0.82755 0.71019 0.92601 0.0
C699 C 0.81696 0.69282 0.94474 0.0
H700 H 0.01281 0.05364 0.47722 0.0
H701 H 0.02151 0.96697 0.44749 0.0
H702 H 0.98544 0.05797 0.4381 0.0
H703 H 0.99352 0.97056 0.40934 0.0
H704 H 0.96437 0.98776 0.33056 0.0
H705 H 0.99399 0.99052 0.36833 0.0
H706 H 0.94325 0.04345 0.41765 0.0
H707 H 0.91381 0.04142 0.37904 0.0
C708 C 1.00874 0.03556 0.46229 0.0
C709 C 0.01912 1.00995 0.4653 0.0
C710 C 0.99295 0.03791 0.44005 0.0
C711 C 0.98735 0.01468 0.42035 0.0
C712 C 0.99775 0.98909 0.42368 0.0
C713 C 0.01352 0.98684 0.44574 0.0
C714 C 0.95966 1.00031 0.34935 0.0
C715 C 0.93662 0.01413 0.35191 0.0
C716 C 0.97657 1.00172 0.37114 0.0
C717 C 0.97077 0.01661 0.39636 0.0
C718 C 0.94837 0.03178 0.39855 0.0
C719 C 0.93149 0.03065 0.37646 0.0
H720 H 0.19945 0.33669 0.65806 0.0
H721 H 0.22484 0.27589 0.70647 0.0
H722 H 0.21478 0.30893 0.6169 0.0
H723 H 0.23994 0.24772 0.66568 0.0
H724 H 0.27816 0.2099 0.58935 0.0
H725 H 0.2704 0.24439 0.62818 0.0
H726 H 0.20026 0.26422 0.59102 0.0
H727 H 0.20815 0.23005 0.55195 0.0
C728 C 0.20886 0.31763 0.65977 0.0
C729 C 0.21105 0.30824 0.68513 0.0
C730 C 0.21737 0.30158 0.63632 0.0
C731 C 0.22839 0.2759 0.63789 0.0
C732 C 0.2318 0.26744 0.66364 0.0
C733 C 0.22318 0.28345 0.687 0.0
C734 C 0.2612 0.22179 0.58924 0.0
C735 C 0.24371 0.21695 0.56745 0.0
C736 C 0.25671 0.24152 0.61164 0.0
C737 C 0.23463 0.25702 0.61287 0.0
C738 C 0.21763 0.25293 0.59067 0.0
C739 C 0.22209 0.23316 0.56827 0.0
H740 H 0.52272 0.4961 0.6136 0.0
H741 H 0.51303 0.58423 0.63452 0.0
H742 H 0.49639 0.48559 0.65214 0.0
H743 H 0.48392 0.57382 0.67128 0.0
H744 H 0.44799 0.55024 0.74947 0.0
H745 H 0.47783 0.56131 0.71352 0.0
H746 H 0.4558 0.48071 0.66805 0.0
H747 H 0.42799 0.46906 0.70502 0.0
C748 C 0.51484 0.51325 0.62652 0.0
C749 C 0.52001 0.54098 0.62111 0.0
C750 C 0.49918 0.50723 0.64838 0.0
C751 C 0.48744 0.52873 0.66498 0.0
C752 C 0.49272 0.55658 0.65945 0.0
C753 C 0.50908 0.56262 0.63803 0.0
C754 C 0.44972 0.53493 0.73177 0.0
C755 C 0.43571 0.50876 0.73011 0.0
C756 C 0.46671 0.54131 0.71095 0.0
C757 C 0.46955 0.52198 0.68755 0.0
C758 C 0.45499 0.49599 0.68587 0.0
C759 C 0.43868 0.48932 0.70703 0.0
H760 H 0.85596 0.2716 0.67564 0.0
H761 H 0.77918 0.27814 0.7086 0.0
H762 H 0.84723 0.30487 0.64391 0.0
H763 H 0.76981 0.31048 0.67644 0.0
H764 H 0.76493 0.38342 0.62845 0.0
H765 H 0.77857 0.3564 0.66352 0.0
H766 H 0.82223 0.30588 0.60388 0.0
H767 H 0.80915 0.33333 0.56909 0.0
C768 C 0.83728 0.28039 0.67614 0.0
C769 C 0.81818 0.27227 0.69436 0.0
C770 C 0.83213 0.29921 0.65785 0.0
C771 C 0.80772 0.31034 0.65741 0.0
C772 C 0.7889 0.30269 0.67628 0.0
C773 C 0.79411 0.28394 0.69455 0.0
C774 C 0.77772 0.36679 0.62291 0.0
C775 C 0.78587 0.36052 0.59592 0.0
C776 C 0.7854 0.35112 0.64299 0.0
C777 C 0.80138 0.32872 0.6366 0.0
C778 C 0.81019 0.32312 0.60973 0.0
C779 C 0.80256 0.33881 0.58968 0.0
H780 H 0.50281 0.96023 0.62359 0.0
H781 H 0.54021 0.02663 0.58396 0.0
H782 H 0.53454 0.96962 0.66045 0.0
H783 H 0.57205 0.03619 0.62044 0.0
H784 H 0.59631 0.07219 0.7067 0.0
H785 H 0.56909 0.05726 0.6674 0.0
H786 H 0.58041 0.97069 0.67509 0.0
H787 H 0.60768 0.98563 0.71481 0.0
C788 C 0.51844 0.97613 0.62234 0.0
C789 C 0.51931 0.99255 0.6009 0.0
C790 C 0.53651 0.9817 0.6435 0.0
C791 C 0.55567 1.00399 0.64369 0.0
C792 C 0.55731 0.01924 0.62129 0.0
C793 C 0.53934 0.01359 0.60022 0.0
C794 C 0.59308 0.04994 0.70013 0.0
C795 C 0.6043 0.03018 0.71411 0.0
C796 C 0.57758 0.04136 0.67735 0.0
C797 C 0.57267 0.01274 0.66783 0.0
C798 C 0.58369 0.99289 0.68188 0.0
C799 C 0.59942 1.0015 0.70462 0.0
H800 H 0.8339 0.24782 0.79663 0.0
H801 H 0.87918 0.19684 0.73972 0.0
H802 H 0.86542 0.24482 0.83233 0.0
H803 H 0.91115 0.19382 0.77514 0.0
H804 H 0.95743 0.18231 0.8515 0.0
H805 H 0.92163 0.17775 0.81884 0.0
H806 H 0.90921 0.26549 0.8402 0.0
H807 H 0.94463 0.26978 0.87243 0.0
C808 C 0.85038 0.2354 0.79209 0.0
C809 C 0.85419 0.22239 0.7657 0.0
C810 C 0.86857 0.23386 0.81235 0.0
C811 C 0.89105 0.21931 0.80661 0.0
C812 C 0.89403 0.20501 0.7804 0.0
C813 C 0.87581 0.20667 0.76012 0.0
C814 C 0.9468 0.20045 0.84925 0.0
C815 C 0.95319 0.22616 0.86511 0.0
C816 C 0.92638 0.19791 0.83054 0.0
C817 C 0.91219 0.22116 0.82713 0.0
C818 C 0.91913 0.24694 0.84272 0.0
C819 C 0.93946 0.24943 0.86123 0.0
H820 H 0.52193 0.95791 0.52292 0.0
H821 H 0.48041 0.92409 0.58808 0.0
H822 H 0.5291 0.91058 0.50166 0.0
H823 H 0.48863 0.87653 0.56804 0.0
H824 H 0.46579 0.80368 0.50239 0.0
H825 H 0.47016 0.84766 0.53151 0.0
H826 H 0.54555 0.86583 0.49726 0.0
H827 H 0.54064 0.82176 0.46697 0.0
C828 C 0.51554 0.94021 0.53335 0.0
C829 C 0.50087 0.94449 0.55719 0.0
C830 C 0.51952 0.91299 0.52117 0.0
C831 C 0.50902 0.8894 0.53273 0.0
C832 C 0.49644 0.89401 0.55806 0.0
C833 C 0.49215 0.92124 0.56994 0.0
C834 C 0.48354 0.81673 0.50119 0.0
C835 C 0.50275 0.80904 0.48198 0.0
C836 C 0.48618 0.8421 0.51824 0.0
C837 C 0.50823 0.86067 0.51694 0.0
C838 C 0.52809 0.85238 0.49867 0.0
C839 C 0.52537 0.82693 0.48139 0.0
H840 H 0.18037 0.32771 0.79509 0.0
H841 H 0.11851 0.31992 0.73711 0.0
H842 H 0.14945 0.31827 0.83081 0.0
H843 H 0.08739 0.30898 0.77241 0.0
H844 H 0.0348 0.31144 0.84661 0.0
H845 H 0.06576 0.32744 0.81337 0.0
H846 H 0.1238 0.27949 0.84401 0.0
H847 H 0.09329 0.2643 0.87746 0.0
C848 C 0.16005 0.324 0.79012 0.0
C849 C 0.15173 0.32445 0.76347 0.0
C850 C 0.14234 0.31832 0.81044 0.0
C851 C 0.11587 0.31268 0.80453 0.0
C852 C 0.10755 0.31352 0.77781 0.0
C853 C 0.12533 0.31938 0.7575 0.0
C854 C 0.0543 0.30469 0.84646 0.0
C855 C 0.06157 0.28661 0.8647 0.0
C856 C 0.07198 0.31364 0.82724 0.0
C857 C 0.09731 0.30469 0.82587 0.0
C858 C 0.10464 0.28718 0.84463 0.0
C859 C 0.08705 0.27832 0.8638 0.0
H860 H 0.57613 0.60838 0.55322 0.0
H861 H 0.52019 0.54781 0.51276 0.0
H862 H 0.56609 0.64227 0.52257 0.0
H863 H 0.50965 0.58158 0.48215 0.0
H864 H 0.47027 0.66438 0.47133 0.0
H865 H 0.48647 0.62641 0.49325 0.0
H866 H 0.56476 0.65403 0.47419 0.0
H867 H 0.54865 0.69188 0.45203 0.0
C868 C 0.56255 0.60197 0.53689 0.0
C869 C 0.54912 0.5755 0.53507 0.0
C870 C 0.55654 0.6214 0.51952 0.0
C871 C 0.5367 0.61482 0.50022 0.0
C872 C 0.52476 0.58746 0.49705 0.0
C873 C 0.53107 0.56795 0.51417 0.0
C874 C 0.49093 0.66234 0.47169 0.0
C875 C 0.5081 0.68132 0.45991 0.0
C876 C 0.50022 0.64039 0.48406 0.0
C877 C 0.52693 0.63706 0.48535 0.0
C878 C 0.5441 0.65601 0.47358 0.0
C879 C 0.53481 0.67768 0.46082 0.0
H880 H 0.88778 0.84797 0.83219 0.0
H881 H 0.84352 0.77586 0.79291 0.0
H882 H 0.92303 0.83975 0.7997 0.0
H883 H 0.87907 0.76622 0.76119 0.0
H884 H 0.92637 0.77714 0.68687 0.0
H885 H 0.89505 0.785 0.7232 0.0
H886 H 0.95706 0.81515 0.77895 0.0
H887 H 0.98835 0.80836 0.74174 0.0
C888 C 0.88627 0.82947 0.81735 0.0
C889 C 0.86315 0.81231 0.8152 0.0
C890 C 0.90636 0.82483 0.79851 0.0
C891 C 0.90385 0.8027 0.77714 0.0
C892 C 0.88153 0.78407 0.77668 0.0
C893 C 0.86134 0.78903 0.79529 0.0
C894 C 0.93325 0.78605 0.70676 0.0
C895 C 0.95977 0.79249 0.71135 0.0
C896 C 0.9153 0.79008 0.72785 0.0
C897 C 0.92335 0.80005 0.75446 0.0
C898 C 0.94994 0.80751 0.75884 0.0
C899 C 0.96794 0.80385 0.73748 0.0
H900 H 0.06288 0.9344 0.5083 0.0
H901 H 0.05301 0.99776 0.57582 0.0
H902 H 0.05655 0.8978 0.53818 0.0
H903 H 0.04683 0.96113 0.60622 0.0
H904 H 0.05581 0.88052 0.65149 0.0
H905 H 0.06725 0.91974 0.62554 0.0
H906 H 0.01542 0.88216 0.56193 0.0
H907 H 1.0038 0.8433 0.58781 0.0
C908 C 0.06033 0.94044 0.52982 0.0
C909 C 0.05866 0.9688 0.53986 0.0
C910 C 0.05629 0.91954 0.54686 0.0
C911 C 0.05065 0.9265 0.5745 0.0
C912 C 0.05109 0.95508 0.58503 0.0
C913 C 0.05491 0.97606 0.56778 0.0
C914 C 0.04657 0.88085 0.63214 0.0
C915 C 0.02887 0.8587 0.62176 0.0
C916 C 0.05318 0.90332 0.61727 0.0
C917 C 0.04258 0.90387 0.59148 0.0
C918 C 0.0243 0.88214 0.58153 0.0
C919 C 0.01743 0.85997 0.59651 0.0
H920 H 0.14561 0.67166 0.7911 0.0
H921 H 0.1772 0.75705 0.79414 0.0
H922 H 0.11228 0.68093 0.75959 0.0
H923 H 0.1431 0.76721 0.76432 0.0
H924 H 0.09271 0.7719 0.69196 0.0
H925 H 0.12733 0.76055 0.7203 0.0
H926 H 0.07392 0.70393 0.75791 0.0
H927 H 0.03957 0.71435 0.72853 0.0
C928 C 0.14535 0.6924 0.7849 0.0
C929 C 0.16375 0.71371 0.79509 0.0
C930 C 0.12609 0.6979 0.76719 0.0
C931 C 0.12471 0.72494 0.75949 0.0
C932 C 0.14358 0.74605 0.76942 0.0
C933 C 0.16297 0.7404 0.78679 0.0
C934 C 0.08831 0.75712 0.70636 0.0
C935 C 0.06331 0.74413 0.70804 0.0
C936 C 0.1082 0.75064 0.72274 0.0
C937 C 0.10356 0.73132 0.74156 0.0
C938 C 0.07845 0.71851 0.74336 0.0
C939 C 0.05863 0.72468 0.72667 0.0
H940 H 0.03113 0.58815 0.53086 0.0
H941 H 0.98343 0.62867 0.47973 0.0
H942 H 0.04516 0.63352 0.5557 0.0
H943 H 0.99734 0.67446 0.50422 0.0
H944 H 0.0665 0.7185 0.5997 0.0
H945 H 0.06473 0.67979 0.56258 0.0
H946 H 0.98539 0.69543 0.54735 0.0
H947 H 0.98771 0.7342 0.58377 0.0
C948 C 0.02462 0.60706 0.52425 0.0
C949 C 1.0064 0.60517 0.50344 0.0
C950 C 0.03244 0.63311 0.53857 0.0
C951 C 0.02181 0.65776 0.53257 0.0
C952 C 1.00543 0.65592 0.50992 0.0
C953 C 0.99776 0.62985 0.49556 0.0
C954 C 0.04887 0.71368 0.58809 0.0
C955 C 0.0269 0.72843 0.59514 0.0
C956 C 0.04778 0.69152 0.56688 0.0
C957 C 0.02482 0.6841 0.552 0.0
C958 C 1.00353 0.70049 0.55799 0.0
C959 C 1.00463 0.72245 0.57921 0.0
H960 H 0.71181 0.89405 0.20728 0.0
H961 H 0.75365 0.83187 0.23979 0.0
H962 H 0.74949 0.92798 0.21477 0.0
H963 H 0.79115 0.86572 0.24797 0.0
H964 H 0.83181 0.9751 0.22017 0.0
H965 H 0.79878 0.93806 0.20329 0.0
H966 H 0.79327 0.91099 0.28278 0.0
H967 H 0.82548 0.94839 0.29964 0.0
C968 C 0.72951 0.88747 0.21509 0.0
C969 C 0.73021 0.86046 0.22266 0.0
C970 C 0.75095 0.9068 0.21951 0.0
C971 C 0.77319 0.89951 0.23213 0.0
C972 C 0.77429 0.8719 0.23827 0.0
C973 C 0.75303 0.85248 0.23338 0.0
C974 C 0.8236 0.96102 0.23387 0.0
C975 C 0.83187 0.96375 0.2609 0.0
C976 C 0.80477 0.93991 0.22425 0.0
C977 C 0.79388 0.9213 0.24159 0.0
C978 C 0.80181 0.92455 0.26877 0.0
C979 C 0.82031 0.94583 0.2784 0.0
H980 H 0.75404 0.19283 0.30646 0.0
H981 H 0.72055 0.15846 0.37572 0.0
H982 H 0.79021 0.16323 0.30696 0.0
H983 H 0.75741 0.12938 0.37733 0.0
H984 H 0.8038 0.05326 0.34212 0.0
H985 H 0.77218 0.08837 0.35159 0.0
H986 H 0.82793 0.15179 0.32779 0.0
H987 H 0.85913 0.11641 0.31739 0.0
C988 C 0.75479 0.1792 0.32212 0.0
C989 C 0.7344 0.17744 0.34072 0.0
C990 C 0.77564 0.16239 0.32266 0.0
C991 C 0.77675 0.14355 0.34205 0.0
C992 C 0.75702 0.14319 0.36178 0.0
C993 C 0.73608 0.16002 0.36112 0.0
C994 C 0.80946 0.0748 0.33939 0.0
C995 C 0.8339 0.08195 0.32872 0.0
C996 C 0.79132 0.09504 0.34494 0.0
C997 C 0.79727 0.123 0.34014 0.0
C998 C 0.82237 0.13041 0.33113 0.0
C999 C 0.84038 0.11013 0.32536 0.0
H1000 H 0.44244 0.03139 0.04046 0.0
H1001 H 0.41728 0.03398 0.95877 0.0
H1002 H 0.40034 1.00902 0.05145 0.0
H1003 H 0.37581 1.01028 0.96883 0.0
H1004 H 0.29643 0.98898 0.99578 0.0
H1005 H 0.33682 0.01717 0.99213 0.0
H1006 H 0.37392 0.96645 0.04405 0.0
H1007 H 0.33294 0.93911 0.04866 0.0
C1008 C 0.42786 0.0268 0.02484 0.0
C1009 C 0.43302 0.03392 0.99871 0.0
C1010 C 0.40384 0.01391 0.03101 0.0
C1011 C 0.38449 1.00788 0.01111 0.0
C1012 C 0.38992 0.01503 0.9849 0.0
C1013 C 0.4138 0.02815 0.97889 0.0
C1014 C 0.31308 0.98436 1.00697 0.0
C1015 C 0.31159 0.96185 0.02245 0.0
C1016 C 0.33636 1.00026 1.0046 0.0
C1017 C 0.35892 0.99368 0.01718 0.0
C1018 C 0.35699 0.97224 0.03411 0.0
C1019 C 0.33348 0.95658 0.03685 0.0
H1020 H 0.29158 0.39159 0.37517 0.0
H1021 H 0.27749 0.3525 0.29361 0.0
H1022 H 0.25872 0.42483 0.36996 0.0
H1023 H 0.24526 0.38595 0.2878 0.0
H1024 H 0.17414 0.43425 0.29086 0.0
H1025 H 0.20282 0.39928 0.30179 0.0
H1026 H 0.25251 0.46466 0.34594 0.0
H1027 H 0.22348 0.49957 0.33548 0.0
C1028 C 0.28134 0.39019 0.35616 0.0
C1029 C 0.28706 0.36974 0.33471 0.0
C1030 C 0.26268 0.40926 0.35306 0.0
C1031 C 0.24928 0.40814 0.32844 0.0
C1032 C 0.25487 0.38727 0.30717 0.0
C1033 C 0.2735 0.36829 0.31031 0.0
C1034 C 0.19097 0.44113 0.30326 0.0
C1035 C 0.19657 0.46975 0.31218 0.0
C1036 C 0.20756 0.42109 0.30934 0.0
C1037 C 0.23022 0.42912 0.32445 0.0
C1038 C 0.23517 0.45763 0.33442 0.0
C1039 C 0.21854 0.4777 0.32836 0.0
H1040 H 0.08216 0.0561 0.5504 0.0
H1041 H 0.11379 0.98601 0.50244 0.0
H1042 H 0.1255 0.07908 0.55748 0.0
H1043 H 0.15751 1.00872 0.50925 0.0
H1044 H 0.21926 0.07863 0.48971 0.0
H1045 H 0.17994 0.04788 0.49163 0.0
H1046 H 0.16866 0.08193 0.57514 0.0
H1047 H 0.20795 0.11299 0.57278 0.0
C1048 C 0.09867 0.04515 0.54239 0.0
C1049 C 0.09482 0.01914 0.52636 0.0
C1050 C 0.12353 0.05835 0.54618 0.0
C1051 C 0.14515 0.04605 0.53358 0.0
C1052 C 0.14135 0.01908 0.51893 0.0
C1053 C 0.11643 1.00578 0.5154 0.0
C1054 C 0.20829 0.07949 0.50842 0.0
C1055 C 0.21597 0.09893 0.53074 0.0
C1056 C 0.18595 0.06155 0.50972 0.0
C1057 C 0.1708 0.06249 0.5335 0.0
C1058 C 0.17947 0.08093 0.55634 0.0
C1059 C 0.20198 0.0987 0.55505 0.0
H1060 H 0.78659 0.21114 0.77634 0.0
H1061 H 0.8206 0.16029 0.70998 0.0
H1062 H 0.7572 0.17144 0.78517 0.0
H1063 H 0.79157 0.11999 0.71863 0.0
H1064 H 0.71232 0.06989 0.716 0.0
H1065 H 0.74765 0.1055 0.71167 0.0
H1066 H 0.74813 0.1272 0.7987 0.0
H1067 H 0.71217 0.09251 0.80253 0.0
C1068 C 0.78827 0.19101 0.76431 0.0
C1069 C 0.80582 0.18848 0.74271 0.0
C1070 C 0.77132 0.16823 0.76912 0.0
C1071 C 0.77142 0.14246 0.7522 0.0
C1072 C 0.79035 0.1396 0.73166 0.0
C1073 C 0.80732 0.16242 0.72696 0.0
C1074 C 0.72008 0.08238 0.73408 0.0
C1075 C 0.70908 0.07918 0.75946 0.0
C1076 C 0.74052 0.10261 0.73173 0.0
C1077 C 0.75086 0.11952 0.75485 0.0
C1078 C 0.74045 0.11516 0.78036 0.0
C1079 C 0.71983 0.09526 0.7826 0.0
H1080 H 0.41211 0.9898 0.55939 0.0
H1081 H 0.468 0.05811 0.54905 0.0
H1082 H 0.37731 0.01757 0.54691 0.0
H1083 H 0.43331 0.08623 0.53688 0.0
H1084 H 0.36053 0.1372 0.55085 0.0
H1085 H 0.39643 0.10932 0.55902 0.0
H1086 H 0.36012 0.03847 0.50826 0.0
H1087 H 0.32398 0.06644 0.50017 0.0
C1088 C 0.41691 1.0107 0.55419 0.0
C1089 C 0.44269 0.02184 0.55516 0.0
C1090 C 0.39704 0.02661 0.547 0.0
C1091 C 0.40248 0.05416 0.54084 0.0
C1092 C 0.42837 0.06523 0.54177 0.0
C1093 C 0.44823 0.0492 0.54876 0.0
C1094 C 0.36029 0.11577 0.54117 0.0
C1095 C 0.33933 0.10407 0.52487 0.0
C1096 C 0.38097 0.09979 0.54579 0.0
C1097 C 0.38116 0.07158 0.53441 0.0
C1098 C 0.36045 0.06003 0.5176 0.0
C1099 C 0.33984 0.07613 0.51278 0.0
H1100 H 0.61386 0.56827 0.55707 0.0
H1101 H 0.56534 0.492 0.54104 0.0
H1102 H 0.65213 0.54234 0.54293 0.0
H1103 H 0.60328 0.46589 0.52768 0.0
H1104 H 0.67941 0.4297 0.55479 0.0
H1105 H 0.64219 0.45848 0.56141 0.0
H1106 H 0.67135 0.50769 0.49954 0.0
H1107 H 0.7083 0.47845 0.4923 0.0
C1108 C 0.61133 0.54622 0.54938 0.0
C1109 C 0.58671 0.53214 0.54962 0.0
C1110 C 0.63317 0.53131 0.54165 0.0
C1111 C 0.63068 0.50201 0.53463 0.0
C1112 C 0.60581 0.48838 0.53324 0.0
C1113 C 0.58409 0.50333 0.54043 0.0
C1114 C 0.678 0.44672 0.54269 0.0
C1115 C 0.69684 0.45169 0.52298 0.0
C1116 C 0.6566 0.46309 0.54636 0.0
C1117 C 0.65382 0.48522 0.53086 0.0
C1118 C 0.673 0.49078 0.51173 0.0
C1119 C 0.6941 0.47398 0.50759 0.0
H1120 H 0.68062 0.20648 0.40626 0.0
H1121 H 0.74264 0.24212 0.36051 0.0
H1122 H 0.69198 0.2408 0.44557 0.0
H1123 H 0.75444 0.27634 0.39953 0.0
H1124 H 0.77476 0.33211 0.47684 0.0
H1125 H 0.76918 0.29001 0.44414 0.0
H1126 H 0.68636 0.28955 0.45596 0.0
H1127 H 0.69236 0.3312 0.48943 0.0
C1128 C 0.69719 0.22126 0.40503 0.0
C1129 C 0.71068 0.222 0.38052 0.0
C1130 C 0.70351 0.24114 0.42732 0.0
C1131 C 0.72357 0.26207 0.4255 0.0
C1132 C 0.73866 0.26087 0.40169 0.0
C1133 C 0.73217 0.2411 0.37937 0.0
C1134 C 0.75538 0.32294 0.4723 0.0
C1135 C 0.73388 0.33523 0.4849 0.0
C1136 C 0.75216 0.29879 0.45362 0.0
C1137 C 0.72731 0.28631 0.44721 0.0
C1138 C 0.70584 0.29825 0.46063 0.0
C1139 C 0.70915 0.32227 0.47956 0.0
H1140 H 0.50758 0.10104 0.94089 0.0
H1141 H 0.52938 0.02246 0.96319 0.0
H1142 H 0.53874 0.09771 0.90374 0.0
H1143 H 0.55872 0.01734 0.9246 0.0
H1144 H 0.62275 0.02346 0.86136 0.0
H1145 H 0.59601 0.02892 0.90214 0.0
H1146 H 0.54324 0.07497 0.86093 0.0
H1147 H 0.57095 0.07096 0.82113 0.0
C1148 C 0.51934 0.08321 0.938 0.0
C1149 C 0.51591 0.06191 0.95474 0.0
C1150 C 0.53682 0.08086 0.91626 0.0
C1151 C 0.55096 0.0568 0.91037 0.0
C1152 C 0.54841 0.03622 0.92819 0.0
C1153 C 0.53134 0.03894 0.95024 0.0
C1154 C 0.60522 0.0344 0.86102 0.0
C1155 C 0.5989 0.0467 0.83804 0.0
C1156 C 0.58982 0.03763 0.88446 0.0
C1157 C 0.56741 0.05279 0.8853 0.0
C1158 C 0.56067 0.06398 0.8617 0.0
C1159 C 0.57635 0.0613 0.83859 0.0
H1160 H 0.34589 0.31864 0.40145 0.0
H1161 H 0.31892 0.26121 0.3329 0.0
H1162 H 0.33921 0.28156 0.43078 0.0
H1163 H 0.31255 0.22369 0.36183 0.0
H1164 H 0.25999 0.18865 0.42764 0.0
H1165 H 0.27907 0.21806 0.39553 0.0
H1166 H 0.3474 0.23554 0.44519 0.0
H1167 H 0.32801 0.20581 0.47784 0.0
C1168 C 0.33984 0.29759 0.39246 0.0
C1169 C 0.33338 0.29262 0.36485 0.0
C1170 C 0.33581 0.27634 0.40926 0.0
C1171 C 0.32494 0.24963 0.39884 0.0
C1172 C 0.3206 0.24409 0.37068 0.0
C1173 C 0.32471 0.26537 0.35392 0.0
C1174 C 0.27922 0.19846 0.43174 0.0
C1175 C 0.29232 0.19492 0.45558 0.0
C1176 C 0.29032 0.2152 0.41305 0.0
C1177 C 0.3149 0.2292 0.41756 0.0
C1178 C 0.3284 0.22517 0.44106 0.0
C1179 C 0.31734 0.20802 0.45974 0.0
H1180 H 0.51658 0.55144 0.97372 0.0
H1181 H 0.52425 0.46414 0.94586 0.0
H1182 H 0.48921 0.55516 0.9345 0.0
H1183 H 0.49614 0.46711 0.90767 0.0
H1184 H 0.46588 0.48272 0.82856 0.0
H1185 H 0.49582 0.48545 0.86605 0.0
H1186 H 0.44707 0.54124 0.91479 0.0
H1187 H 0.41739 0.53927 0.8765 0.0
C1188 C 0.5123 0.53308 0.95918 0.0
C1189 C 0.52237 0.50747 0.96278 0.0
C1190 C 0.49648 0.53508 0.93687 0.0
C1191 C 0.49049 0.51148 0.91771 0.0
C1192 C 0.50064 0.48591 0.92158 0.0
C1193 C 0.51648 0.48401 0.94369 0.0
C1194 C 0.46166 0.49586 0.84717 0.0
C1195 C 0.43911 0.51056 0.84962 0.0
C1196 C 0.47876 0.49725 0.86881 0.0
C1197 C 0.47366 0.51304 0.89379 0.0
C1198 C 0.45171 0.52891 0.89588 0.0
C1199 C 0.43466 0.52778 0.87395 0.0
H1200 H 0.72451 0.77033 0.20909 0.0
H1201 H 0.70643 0.83587 0.16253 0.0
H1202 H 0.73982 0.74273 0.16813 0.0
H1203 H 0.7219 0.80849 0.12116 0.0
H1204 H 0.7118 0.73083 0.05418 0.0
H1205 H 0.70466 0.76459 0.09382 0.0
H1206 H 0.77234 0.73958 0.13171 0.0
H1207 H 0.77947 0.70562 0.09222 0.0
C1208 C 0.72449 0.77902 0.19004 0.0
C1209 C 0.71437 0.80504 0.18874 0.0
C1210 C 0.73326 0.76333 0.1666 0.0
C1211 C 0.73189 0.77329 0.14128 0.0
C1212 C 0.72293 0.80009 0.14028 0.0
C1213 C 0.71437 0.81589 0.16388 0.0
C1214 C 0.72536 0.73267 0.07081 0.0
C1215 C 0.74612 0.71525 0.06996 0.0
C1216 C 0.72135 0.75222 0.0935 0.0
C1217 C 0.7379 0.75477 0.116 0.0
C1218 C 0.75908 0.73796 0.11485 0.0
C1219 C 0.76319 0.71853 0.09211 0.0
H1220 H 0.9797 0.03272 0.097 0.0
H1221 H 0.04589 0.04847 0.1497 0.0
H1222 H 0.95197 0.02445 0.13588 0.0
H1223 H 0.01843 0.03874 0.18841 0.0
H1224 H 0.96158 0.98173 0.23762 0.0
H1225 H 0.98976 0.99287 0.20005 0.0
H1226 H 0.93903 0.05546 0.18237 0.0
H1227 H 0.91108 0.04487 0.22034 0.0
C1228 C 0.98823 0.03455 0.11694 0.0
C1229 C 0.01488 0.0413 0.12041 0.0
C1230 C 0.97245 0.02973 0.1391 0.0
C1231 C 0.98312 0.03095 0.16507 0.0
C1232 C 1.00979 0.03749 0.16854 0.0
C1233 C 0.02547 0.04292 0.14646 0.0
C1234 C 0.9565 0.99797 0.22581 0.0
C1235 C 0.93412 0.01245 0.23196 0.0
C1236 C 0.97268 1.00439 0.20442 0.0
C1237 C 0.9665 0.02497 0.18837 0.0
C1238 C 0.94413 0.03943 0.19442 0.0
C1239 C 0.92825 0.03346 0.2162 0.0
H1240 H 0.31433 0.80515 0.22199 0.0
H1241 H 0.32392 0.74088 0.15508 0.0
H1242 H 0.30541 0.83838 0.19031 0.0
H1243 H 0.31395 0.77332 0.1233 0.0
H1244 H 0.31474 0.84183 0.06995 0.0
H1245 H 0.32917 0.81361 0.10349 0.0
H1246 H 0.27246 0.84799 0.16022 0.0
H1247 H 0.25863 0.87691 0.12684 0.0
C1248 C 0.3147 0.79828 0.20044 0.0
C1249 C 0.31982 0.77053 0.19091 0.0
C1250 C 0.3093 0.81715 0.18227 0.0
C1251 C 0.30888 0.80865 0.15411 0.0
C1252 C 0.31446 0.78089 0.14472 0.0
C1253 C 0.31993 0.76215 0.16288 0.0
C1254 C 0.30557 0.84365 0.0897 0.0
C1255 C 0.28545 0.86158 0.09565 0.0
C1256 C 0.3137 0.82725 0.10892 0.0
C1257 C 0.30182 0.82814 0.13458 0.0
C1258 C 0.28229 0.84686 0.14083 0.0
C1259 C 0.27425 0.86342 0.12163 0.0
H1260 H 0.04265 0.52736 0.08517 0.0
H1261 H 1.00531 0.46058 0.12432 0.0
H1262 H 0.07406 0.5372 0.12204 0.0
H1263 H 0.03661 0.47024 0.16157 0.0
H1264 H 0.1095 0.48653 0.21636 0.0
H1265 H 0.08229 0.47159 0.17662 0.0
H1266 H 0.07079 0.55814 0.16901 0.0
H1267 H 0.09797 0.57308 0.20837 0.0
C1268 C 0.04171 0.5143 0.10141 0.0
C1269 C 0.02183 0.49304 0.10182 0.0
C1270 C 0.05943 0.52012 0.12271 0.0
C1271 C 0.05768 0.50483 0.14508 0.0
C1272 C 0.03867 0.48236 0.14465 0.0
C1273 C 0.02085 0.47662 0.12326 0.0
C1274 C 0.10118 0.5024 0.20622 0.0
C1275 C 0.10605 0.53108 0.21572 0.0
C1276 C 0.08549 0.49379 0.18345 0.0
C1277 C 0.07447 0.51362 0.16938 0.0
C1278 C 0.07929 0.54224 0.17897 0.0
C1279 C 0.09475 0.55083 0.20178 0.0
H1280 H 0.3375 0.75608 0.29429 0.0
H1281 H 0.37365 0.69142 0.2429 0.0
H1282 H 0.3684 0.75271 0.33026 0.0
H1283 H 0.4057 0.68865 0.27816 0.0
H1284 H 0.45446 0.68137 0.35309 0.0
H1285 H 0.41838 0.67778 0.32096 0.0
H1286 H 0.41145 0.76713 0.33883 0.0
H1287 H 0.44638 0.77011 0.37129 0.0
C1288 C 0.35197 0.74085 0.29099 0.0
C1289 C 0.3533 0.72397 0.26605 0.0
C1290 C 0.36994 0.73909 0.31139 0.0
C1291 C 0.3901 0.7208 0.30711 0.0
C1292 C 0.39049 0.70286 0.28245 0.0
C1293 C 0.37219 0.70438 0.26219 0.0
C1294 C 0.44492 0.70006 0.35017 0.0
C1295 C 0.45267 0.72586 0.36517 0.0
C1296 C 0.42434 0.69811 0.33169 0.0
C1297 C 0.41153 0.7221 0.32738 0.0
C1298 C 0.42005 0.74797 0.34201 0.0
C1299 C 0.44026 0.74978 0.36059 0.0
H1300 H 0.98389 0.42433 0.08854 0.0
H1301 H 0.02498 0.45869 0.02342 0.0
H1302 H 0.99208 0.3769 0.06814 0.0
H1303 H 0.03206 0.41149 1.00176 0.0
H1304 H 0.04265 0.32278 0.96583 0.0
H1305 H 0.04815 0.36658 0.99648 0.0
H1306 H 0.97315 0.34852 0.03167 0.0
H1307 H 0.96824 0.30483 1.00223 0.0
C1308 C 0.99556 0.42163 0.07034 0.0
C1309 C 1.00412 0.445 0.05769 0.0
C1310 C 0.99982 0.39447 0.05823 0.0
C1311 C 0.01218 0.39005 0.03277 0.0
C1312 C 0.02263 0.41375 0.02135 0.0
C1313 C 0.01871 0.4409 0.03377 0.0
C1314 C 0.02761 0.32792 0.98053 0.0
C1315 C 1.00493 0.31015 0.9813 0.0
C1316 C 0.03066 0.35321 0.99802 0.0
C1317 C 1.01108 0.36145 0.01669 0.0
C1318 C 0.98898 0.34299 0.01811 0.0
C1319 C 0.98602 0.31779 1.00086 0.0
H1320 H 0.63311 0.85729 0.26306 0.0
H1321 H 0.66767 0.78044 0.27271 0.0
H1322 H 0.60156 0.84857 0.29878 0.0
H1323 H 0.63581 0.77088 0.30739 0.0
H1324 H 0.59363 0.77273 0.38601 0.0
H1325 H 0.62515 0.78739 0.35312 0.0
H1326 H 0.56426 0.81788 0.30854 0.0
H1327 H 0.53269 0.80385 0.3421 0.0
C1328 C 0.63376 0.83847 0.27279 0.0
C1329 C 0.65262 0.81944 0.26516 0.0
C1330 C 0.61567 0.83335 0.29307 0.0
C1331 C 0.6162 0.80909 0.30613 0.0
C1332 C 0.63505 0.79002 0.29818 0.0
C1333 C 0.65309 0.79521 0.27804 0.0
C1334 C 0.58698 0.78291 0.3694 0.0
C1335 C 0.56064 0.78694 0.36655 0.0
C1336 C 0.60505 0.79111 0.35039 0.0
C1337 C 0.59722 0.80333 0.32784 0.0
C1338 C 0.571 0.80862 0.32568 0.0
C1339 C 0.55289 0.80056 0.3449 0.0
H1340 H 0.07729 0.10737 0.05202 0.0
H1341 H 0.01605 0.05067 0.01589 0.0
H1342 H 0.06802 0.14149 0.02119 0.0
H1343 H 1.00656 0.08439 0.98502 0.0
H1344 H 0.97097 0.16769 0.9732 0.0
H1345 H 0.98647 0.12995 0.99577 0.0
H1346 H 0.06487 0.1534 0.97322 0.0
H1347 H 0.04939 0.19125 0.95048 0.0
C1348 C 0.06271 0.10172 0.03653 0.0
C1349 C 0.04761 0.07633 0.03597 0.0
C1350 C 0.05715 0.12131 0.01907 0.0
C1351 C 0.03618 0.1159 1.00097 0.0
C1352 C 0.02253 0.08945 0.999 0.0
C1353 C 0.02823 0.06992 0.01628 0.0
C1354 C 0.99151 0.16482 0.97293 0.0
C1355 C 1.00887 0.18263 0.95998 0.0
C1356 C 1.0004 0.14298 0.9857 0.0
C1357 C 0.02693 0.13848 0.98616 0.0
C1358 C 0.04434 0.1563 0.97329 0.0
C1359 C 0.03541 0.17794 0.96018 0.0
H1360 H 0.389 0.34875 0.33343 0.0
H1361 H 0.34292 0.27846 0.29336 0.0
H1362 H 0.42354 0.34058 0.30014 0.0
H1363 H 0.37781 0.2687 0.26086 0.0
H1364 H 0.42522 0.27907 0.18652 0.0
H1365 H 0.39419 0.28711 0.22311 0.0
H1366 H 0.45678 0.31615 0.27851 0.0
H1367 H 0.48772 0.30933 0.24103 0.0
C1368 C 0.38692 0.33063 0.31819 0.0
C1369 C 0.36352 0.31398 0.31613 0.0
C1370 C 0.40662 0.326 0.29889 0.0
C1371 C 0.40347 0.30434 0.27713 0.0
C1372 C 0.3808 0.2862 0.27664 0.0
C1373 C 0.36098 0.2912 0.2957 0.0
C1374 C 0.43227 0.28783 0.20639 0.0
C1375 C 0.45886 0.29398 0.21079 0.0
C1376 C 0.41449 0.29193 0.22764 0.0
C1377 C 0.42277 0.30164 0.25424 0.0
C1378 C 0.44945 0.30876 0.25843 0.0
C1379 C 0.46726 0.30509 0.23691 0.0
H1380 H 0.55535 0.49729 0.07398 0.0
H1381 H 0.56632 0.43304 1.00753 0.0
H1382 H 0.54872 0.4612 0.1049 0.0
H1383 H 0.55952 0.39698 0.03792 0.0
H1384 H 0.50508 0.34377 0.08733 0.0
H1385 H 0.5175 0.38221 0.0612 0.0
H1386 H 0.569 0.41969 0.12513 0.0
H1387 H 0.5568 0.38082 0.15135 0.0
C1388 C 0.55741 0.47552 0.0663 0.0
C1389 C 0.5616 0.46785 0.03851 0.0
C1390 C 0.55334 0.45484 0.08385 0.0
C1391 C 0.55306 0.42617 0.07374 0.0
C1392 C 0.55916 0.41881 0.04628 0.0
C1393 C 0.56346 0.43941 0.02895 0.0
C1394 C 0.51882 0.36032 0.09605 0.0
C1395 C 0.52993 0.35911 0.12147 0.0
C1396 C 0.52614 0.38225 0.08092 0.0
C1397 C 0.54455 0.40382 0.0909 0.0
C1398 C 0.55484 0.40336 0.11685 0.0
C1399 C 0.5478 0.38111 0.13187 0.0
H1400 H 0.67113 0.25312 0.29996 0.0
H1401 H 0.63878 0.16783 0.29283 0.0
H1402 H 0.63831 0.26484 0.26922 0.0
H1403 H 0.60664 0.17869 0.26069 0.0
H1404 H 0.53578 0.21376 0.22816 0.0
H1405 H 0.56878 0.20243 0.2586 0.0
H1406 H 0.62418 0.2596 0.2243 0.0
H1407 H 0.59084 0.27181 0.19476 0.0
C1408 C 0.65709 0.23683 0.29133 0.0
C1409 C 0.65732 0.20964 0.29854 0.0
C1410 C 0.6384 0.24339 0.27359 0.0
C1411 C 0.61967 0.22275 0.26236 0.0
C1412 C 0.6204 0.19529 0.26924 0.0
C1413 C 0.63894 0.18888 0.28731 0.0
C1414 C 0.55497 0.22402 0.22722 0.0
C1415 C 0.56059 0.24381 0.2091 0.0
C1416 C 0.57402 0.21732 0.24454 0.0
C1417 C 0.59931 0.22996 0.24394 0.0
C1418 C 0.60488 0.24975 0.22575 0.0
C1419 C 0.58574 0.25672 0.20869 0.0
H1420 H 0.52723 0.08919 0.02849 0.0
H1421 H 0.48262 0.13311 0.97736 0.0
H1422 H 0.54224 0.13366 0.05451 0.0
H1423 H 0.49763 0.17791 1.00291 0.0
H1424 H 0.48755 0.23623 0.08311 0.0
H1425 H 0.48493 0.19796 0.04621 0.0
H1426 H 0.56326 0.17956 0.06263 0.0
H1427 H 0.56536 0.21787 0.10019 0.0
C1428 C 0.52171 0.10861 0.02209 0.0
C1429 C 0.50406 0.10794 1.00089 0.0
C1430 C 0.53007 0.13414 0.0371 0.0
C1431 C 0.52056 0.15947 0.03139 0.0
C1432 C 0.50485 0.15883 1.00838 0.0
C1433 C 0.4966 0.1333 0.99339 0.0
C1434 C 0.5042 0.224 0.0787 0.0
C1435 C 0.52625 0.22912 0.09504 0.0
C1436 C 0.50293 0.20232 0.05722 0.0
C1437 C 0.52385 0.18534 0.05138 0.0
C1438 C 0.54662 0.19181 0.06677 0.0
C1439 C 0.54789 0.21373 0.08823 0.0
H1440 H 0.21404 0.39482 0.7002 0.0
H1441 H 0.25043 0.33431 0.74087 0.0
H1442 H 0.25234 0.42769 0.70842 0.0
H1443 H 0.28873 0.36688 0.74934 0.0
H1444 H 0.32566 0.44814 0.79792 0.0
H1445 H 0.29266 0.41178 0.78095 0.0
H1446 H 0.30047 0.43783 0.70112 0.0
H1447 H 0.33393 0.47419 0.71831 0.0
C1448 C 0.23077 0.38826 0.70992 0.0
C1449 C 0.22966 0.36215 0.7197 0.0
C1450 C 0.25259 0.40701 0.71478 0.0
C1451 C 0.27345 0.39998 0.72983 0.0
C1452 C 0.2729 0.37299 0.73793 0.0
C1453 C 0.25121 0.35423 0.73284 0.0
C1454 C 0.32069 0.44567 0.77664 0.0
C1455 C 0.33299 0.46313 0.75915 0.0
C1456 C 0.30178 0.42491 0.7669 0.0
C1457 C 0.29431 0.42155 0.73954 0.0
C1458 C 0.30598 0.43975 0.72222 0.0
C1459 C 0.32509 0.46048 0.732 0.0
H1460 H 0.26575 0.70794 0.84245 0.0
H1461 H 0.21073 0.63644 0.83816 0.0
H1462 H 0.30117 0.67744 0.8447 0.0
H1463 H 0.24593 0.60542 0.83874 0.0
H1464 H 0.31225 0.5541 0.85087 0.0
H1465 H 0.27985 0.58823 0.86171 0.0
H1466 H 0.32238 0.64531 0.8141 0.0
H1467 H 0.35507 0.61173 0.80425 0.0
C1468 C 0.26124 0.68574 0.84272 0.0
C1469 C 0.23555 0.67453 0.84052 0.0
C1470 C 0.28154 0.66811 0.84348 0.0
C1471 C 0.27659 0.63878 0.84168 0.0
C1472 C 0.25066 0.62782 0.84057 0.0
C1473 C 0.23043 0.6455 0.84005 0.0
C1474 C 0.31491 0.57418 0.8432 0.0
C1475 C 0.3362 0.5801 0.82658 0.0
C1476 C 0.2962 0.5937 0.84921 0.0
C1477 C 0.29819 0.61955 0.83856 0.0
C1478 C 0.3202 0.62589 0.823 0.0
C1479 C 0.33897 0.60649 0.81719 0.0
H1480 H 0.94459 0.52862 0.54392 0.0
H1481 H 0.9255 0.524 0.45943 0.0
H1482 H 0.90211 0.50591 0.55298 0.0
H1483 H 0.88374 0.5 0.46782 0.0
H1484 H 0.8021 0.48291 0.49106 0.0
H1485 H 0.84335 0.50962 0.48799 0.0
H1486 H 0.8759 0.4625 0.54621 0.0
H1487 H 0.83403 0.43644 0.55 0.0
C1488 C 0.93129 0.52244 0.52729 0.0
C1489 C 0.93819 0.52792 0.50099 0.0
C1490 C 0.90708 0.50929 0.53238 0.0
C1491 C 0.88929 0.50133 0.5112 0.0
C1492 C 0.89661 0.50637 0.48478 0.0
C1493 C 0.92069 0.51967 0.4798 0.0
C1494 C 0.81793 0.47867 0.50364 0.0
C1495 C 0.81489 0.45752 0.52068 0.0
C1496 C 0.8417 0.49375 0.50164 0.0
C1497 C 0.86323 0.48776 0.51629 0.0
C1498 C 0.85977 0.46773 0.53464 0.0
C1499 C 0.83576 0.45284 0.5369 0.0
H1500 H 0.79077 0.8898 0.87132 0.0
H1501 H 0.77649 0.85049 0.78985 0.0
H1502 H 0.75843 0.92347 0.86589 0.0
H1503 H 0.74483 0.88449 0.78378 0.0
H1504 H 0.67383 0.93336 0.78718 0.0
H1505 H 0.70258 0.89827 0.79756 0.0
H1506 H 0.75239 0.9633 0.84207 0.0
H1507 H 0.72324 0.99834 0.83218 0.0
C1508 C 0.7806 0.88844 0.85227 0.0
C1509 C 0.78608 0.86774 0.83095 0.0
C1510 C 0.76225 0.90779 0.84903 0.0
C1511 C 0.74896 0.90678 0.82438 0.0
C1512 C 0.75437 0.88574 0.80317 0.0
C1513 C 0.77269 0.86644 0.80647 0.0
C1514 C 0.69072 0.94015 0.7995 0.0
C1515 C 0.69627 0.9687 0.80875 0.0
C1516 C 0.70736 0.92003 0.80527 0.0
C1517 C 0.73004 0.92792 0.82037 0.0
C1518 C 0.73503 0.95637 0.83056 0.0
C1519 C 0.71833 0.97651 0.82483 0.0
H1520 H 0.61712 0.48524 1.00003 0.0
H1521 H 0.58478 0.5545 0.0486 0.0
H1522 H 0.66062 0.50854 1.0068 0.0
H1523 H 0.62793 0.57808 0.05562 0.0
H1524 H 0.71061 0.61184 0.07162 0.0
H1525 H 0.67141 0.58054 0.0735 0.0
H1526 H 0.68221 0.54873 0.98932 0.0
H1527 H 0.7214 0.57982 0.98781 0.0
C1528 C 0.61958 0.50493 0.01313 0.0
C1529 C 0.59782 0.51788 0.02429 0.0
C1530 C 0.64436 0.51857 0.01664 0.0
C1531 C 0.64788 0.54546 0.03147 0.0
C1532 C 0.62615 0.55738 0.04424 0.0
C1533 C 0.60141 0.54383 0.04047 0.0
C1534 C 0.70454 0.59803 0.05362 0.0
C1535 C 0.71836 0.599 0.02928 0.0
C1536 C 0.6821 0.58011 0.05464 0.0
C1537 C 0.67337 0.5622 0.0315 0.0
C1538 C 0.68831 0.562 1.00763 0.0
C1539 C 0.71056 0.58014 1.00658 0.0
H1540 H 0.29322 0.7071 0.27658 0.0
H1541 H 0.31922 0.66044 0.20318 0.0
H1542 H 0.26447 0.66716 0.28564 0.0
H1543 H 0.29134 0.61962 0.21231 0.0
H1544 H 0.21345 0.56869 0.21518 0.0
H1545 H 0.2487 0.60386 0.20957 0.0
H1546 H 0.25402 0.6235 0.29673 0.0
H1547 H 0.2176 0.58984 0.30176 0.0
C1548 C 0.29339 0.68774 0.26296 0.0
C1549 C 0.30836 0.68662 0.23932 0.0
C1550 C 0.27679 0.66475 0.26796 0.0
C1551 C 0.27484 0.64001 0.24938 0.0
C1552 C 0.29147 0.63842 0.2267 0.0
C1553 C 0.30785 0.66156 0.22163 0.0
C1554 C 0.22227 0.58066 0.233 0.0
C1555 C 0.21241 0.5773 0.25879 0.0
C1556 C 0.24274 0.60065 0.22992 0.0
C1557 C 0.25442 0.617 0.2527 0.0
C1558 C 0.24529 0.61214 0.2786 0.0
C1559 C 0.22446 0.59271 0.28156 0.0
H1560 H 0.9705 0.55814 0.0495 0.0
H1561 H 0.91488 0.48947 0.05945 0.0
H1562 H 0.93574 0.586 0.03704 0.0
H1563 H 0.88 0.51699 0.04671 0.0
H1564 H 0.82653 0.56586 0.99996 0.0
H1565 H 0.86273 0.53794 1.00809 0.0
H1566 H 0.89878 0.60878 0.05908 0.0
H1567 H 0.86287 0.63658 0.05087 0.0
C1568 C 0.95077 0.5491 0.04906 0.0
C1569 C 0.94533 0.52172 0.05545 0.0
C1570 C 0.93086 0.56497 0.0419 0.0
C1571 C 0.90503 0.55374 0.04081 0.0
C1572 C 0.89968 0.52616 0.04693 0.0
C1573 C 0.9196 0.5104 0.05428 0.0
C1574 C 0.84235 0.57555 0.01262 0.0
C1575 C 0.84178 0.60346 0.02476 0.0
C1576 C 0.863 0.55948 0.01747 0.0
C1577 C 0.88366 0.57106 0.03434 0.0
C1578 C 0.88337 0.59924 0.04578 0.0
C1579 C 0.86268 0.61516 0.04115 0.0
H1580 H 0.11112 0.05788 0.08612 0.0
H1581 H 0.06822 1.01074 0.02019 0.0
H1582 H 0.14943 0.03251 0.07267 0.0
H1583 H 0.10642 0.98492 1.00649 0.0
H1584 H 0.18688 0.95506 0.98119 0.0
H1585 H 0.15158 0.98589 0.98979 0.0
H1586 H 0.15965 0.98394 0.07576 0.0
H1587 H 0.19516 0.95323 0.06725 0.0
C1588 C 0.11033 0.04279 0.06804 0.0
C1589 C 0.08696 0.03649 0.05392 0.0
C1590 C 0.13205 0.02786 0.06063 0.0
C1591 C 0.13092 1.00623 0.03882 0.0
C1592 C 0.10805 1.00146 0.02336 0.0
C1593 C 0.08624 0.0164 0.03093 0.0
C1594 C 0.18123 0.9612 1.00199 0.0
C1595 C 0.19405 0.95159 0.02354 0.0
C1596 C 0.16085 0.97884 1.00687 0.0
C1597 C 0.15283 0.98764 0.03345 0.0
C1598 C 0.16558 0.978 0.05502 0.0
C1599 C 0.18584 0.96015 0.05014 0.0
loop_
_geom_bond_atom_site_label_1
_geom_bond_atom_site_label_2
_geom_bond_distance
_geom_bond_site_symmetry_2
_ccdc_geom_bond_type
C0 N1 1.317 . S
C0 N2 1.348 . S
C0 C3 1.485 1_545 S
N1 C0 1.317 . S
N1 N5 1.370 . S
N2 C0 1.348 . S
N2 C4 1.348 . S
C3 C0 1.485 1_565 S
C3 H7 0.960 . S
C3 H8 0.961 . S
C3 H9 0.960 . S
C4 N2 1.348 . S
C4 N5 1.318 . S
C4 C6 1.476 1_455 S
N5 N1 1.370 . S
N5 C4 1.318 . S
C6 C4 1.476 1_655 S
C6 H10 0.960 . S
C6 H11 0.960 . S
C6 H12 0.959 . S
H7 C3 0.960 . S
H8 C3 0.961 . S
H9 C3 0.960 . S
H10 C6 0.960 . S
H11 C6 0.960 . S
H12 C6 0.959 . S
C13 N14 1.317 . S
C13 N15 1.348 . S
C13 C16 1.485 . S
N14 C13 1.317 . S
N14 N18 1.370 . S
N15 C13 1.348 . S
N15 C17 1.346 . S
C16 C13 1.485 . S
C16 H20 0.960 . S
C16 H21 0.961 . S
C16 H22 0.960 . S
C17 N15 1.346 . S
C17 N18 1.307 . S
C17 C19 1.486 . S
N18 N14 1.370 . S
N18 C17 1.307 . S
C19 C17 1.486 . S
C19 H23 0.960 . S
C19 H24 0.960 . S
C19 H25 0.959 . S
H20 C16 0.960 . S
H21 C16 0.961 . S
H22 C16 0.960 . S
H23 C19 0.960 . S
H24 C19 0.960 . S
H25 C19 0.959 . S
C26 N27 1.317 . S
C26 N28 1.348 . S
C26 C29 1.485 . S
N27 C26 1.317 . S
N27 N31 1.370 . S
N28 C26 1.348 . S
N28 C30 1.346 . S
C29 C26 1.485 . S
C29 H33 0.960 . S
C29 H34 0.961 . S
C29 H35 0.960 . S
C30 N28 1.346 . S
C30 N31 1.307 . S
C30 C32 1.486 . S
N31 N27 1.370 . S
N31 C30 1.307 . S
C32 C30 1.486 . S
C32 H36 0.965 . S
C32 H37 0.960 . S
C32 H38 0.959 . S
H33 C29 0.960 . S
H34 C29 0.961 . S
H35 C29 0.960 . S
H36 C32 0.965 . S
H37 C32 0.960 . S
H38 C32 0.959 . S
C39 N40 1.317 . S
C39 N41 1.348 . S
C39 C42 1.485 . S
N40 C39 1.317 . S
N40 N44 1.370 . S
N41 C39 1.348 . S
N41 C43 1.346 . S
C42 C39 1.485 . S
C42 H46 0.960 . S
C42 H47 0.961 . S
C42 H48 0.960 . S
C43 N41 1.346 . S
C43 N44 1.307 . S
C43 C45 1.486 . S
N44 N40 1.370 . S
N44 C43 1.307 . S
C45 C43 1.486 . S
C45 H49 0.960 . S
C45 H50 0.960 . S
C45 H51 0.959 . S
H46 C42 0.960 . S
H47 C42 0.961 . S
H48 C42 0.960 . S
H49 C45 0.960 . S
H50 C45 0.960 . S
H51 C45 0.959 . S
C52 N53 1.317 . S
C52 N54 1.348 . S
C52 C55 1.467 1_455 S
N53 C52 1.317 . S
N53 N57 1.370 . S
N54 C52 1.348 . S
N54 C56 1.346 1_565 S
C55 C52 1.467 1_655 S
C55 H59 0.953 1_655 S
C55 H60 0.985 . S
C55 H61 0.958 1_655 S
C56 N54 1.346 1_545 S
C56 N57 1.307 1_545 S
C56 C58 1.486 . S
N57 N53 1.370 . S
N57 C56 1.307 1_565 S
C58 C56 1.486 . S
C58 H62 0.960 . S
C58 H63 0.960 . S
C58 H64 0.959 . S
H59 C55 0.953 1_455 S
H60 C55 0.985 . S
H61 C55 0.958 1_455 S
H62 C58 0.960 . S
H63 C58 0.960 . S
H64 C58 0.959 . S
C65 N66 1.317 . S
C65 N67 1.348 . S
C65 C68 1.485 . S
N66 C65 1.317 . S
N66 N70 1.370 . S
N67 C65 1.348 . S
N67 C69 1.346 . S
C68 C65 1.485 . S
C68 H72 0.960 . S
C68 H73 0.961 . S
C68 H74 0.960 . S
C69 N67 1.346 . S
C69 N70 1.307 . S
C69 C71 1.486 . S
N70 N66 1.370 . S
N70 C69 1.307 . S
C71 C69 1.486 . S
C71 H75 0.960 . S
C71 H76 0.960 . S
C71 H77 0.959 . S
H72 C68 0.960 . S
H73 C68 0.961 . S
H74 C68 0.960 . S
H75 C71 0.960 . S
H76 C71 0.960 . S
H77 C71 0.959 . S
C78 N79 1.317 . S
C78 N80 1.348 . S
C78 C81 1.485 . S
N79 C78 1.317 . S
N79 N83 1.370 . S
N80 C78 1.348 . S
N80 C82 1.346 . S
C81 C78 1.485 . S
C81 H85 0.960 . S
C81 H86 0.961 . S
C81 H87 0.960 . S
C82 N80 1.346 . S
C82 N83 1.307 . S
C82 C84 1.486 . S
N83 N79 1.370 . S
N83 C82 1.307 . S
C84 C82 1.486 . S
C84 H88 0.960 . S
C84 H89 0.960 . S
C84 H90 0.959 . S
H85 C81 0.960 . S
H86 C81 0.961 . S
H87 C81 0.960 . S
H88 C84 0.960 . S
H89 C84 0.960 . S
H90 C84 0.959 . S
C91 N92 1.317 . S
C91 N93 1.348 . S
C91 C94 1.485 . S
N92 C91 1.317 . S
N92 N96 1.370 . S
N93 C91 1.348 . S
N93 C95 1.346 . S
C94 C91 1.485 . S
C94 H98 0.960 . S
C94 H99 0.961 . S
C94 H100 0.960 . S
C95 N93 1.346 . S
C95 N96 1.307 . S
C95 C97 1.486 . S
N96 N92 1.370 . S
N96 C95 1.307 . S
C97 C95 1.486 . S
C97 H101 0.960 . S
C97 H102 0.960 . S
C97 H103 0.959 . S
H98 C94 0.960 . S
H99 C94 0.961 . S
H100 C94 0.960 . S
H101 C97 0.960 . S
H102 C97 0.960 . S
H103 C97 0.959 . S
C104 N105 1.317 . S
C104 N106 1.348 . S
C104 C107 1.485 . S
N105 C104 1.317 . S
N105 N109 1.370 . S
N106 C104 1.348 . S
N106 C108 1.346 . S
C107 C104 1.485 . S
C107 H111 0.960 . S
C107 H112 0.961 . S
C107 H113 0.960 . S
C108 N106 1.346 . S
C108 N109 1.307 . S
C108 C110 1.486 . S
N109 N105 1.370 . S
N109 C108 1.307 . S
C110 C108 1.486 . S
C110 H114 0.960 . S
C110 H115 0.960 . S
C110 H116 0.959 . S
H111 C107 0.960 . S
H112 C107 0.961 . S
H113 C107 0.960 . S
H114 C110 0.960 . S
H115 C110 0.960 . S
H116 C110 0.959 . S
C117 N118 1.317 . S
C117 N119 1.348 . S
C117 C120 1.485 1_565 S
N118 C117 1.317 . S
N118 N122 1.370 . S
N119 C117 1.348 . S
N119 C121 1.346 . S
C120 C117 1.485 1_545 S
C120 H124 0.960 . S
C120 H125 0.961 . S
C120 H126 0.960 . S
C121 N119 1.346 . S
C121 N122 1.307 . S
C121 C123 1.486 . S
N122 N118 1.370 . S
N122 C121 1.307 . S
C123 C121 1.486 . S
C123 H127 0.960 . S
C123 H128 0.960 . S
C123 H129 0.959 . S
H124 C120 0.960 . S
H125 C120 0.961 . S
H126 C120 0.960 . S
H127 C123 0.960 . S
H128 C123 0.960 . S
H129 C123 0.959 . S
C130 N131 1.317 . S
C130 N132 1.348 . S
C130 C133 1.485 . S
N131 C130 1.317 . S
N131 N135 1.370 . S
N132 C130 1.348 . S
N132 C134 1.346 . S
C133 C130 1.485 . S
C133 H137 0.960 . S
C133 H138 0.961 . S
C133 H139 0.960 . S
C134 N132 1.346 . S
C134 N135 1.307 . S
C134 C136 1.486 . S
N135 N131 1.370 . S
N135 C134 1.307 . S
C136 C134 1.486 . S
C136 H140 0.960 . S
C136 H141 0.960 . S
C136 H142 0.959 . S
H137 C133 0.960 . S
H138 C133 0.961 . S
H139 C133 0.960 . S
H140 C136 0.960 . S
H141 C136 0.960 . S
H142 C136 0.959 . S
C143 N144 1.317 . S
C143 N145 1.348 . S
C143 C146 1.485 . S
N144 C143 1.317 . S
N144 N148 1.370 . S
N145 C143 1.348 . S
N145 C147 1.346 . S
C146 C143 1.485 . S
C146 H150 0.960 . S
C146 H151 0.961 . S
C146 H152 0.960 . S
C147 N145 1.346 . S
C147 N148 1.307 . S
C147 C149 1.486 . S
N148 N144 1.370 . S
N148 C147 1.307 . S
C149 C147 1.486 . S
C149 H153 0.960 . S
C149 H154 0.960 . S
C149 H155 0.959 . S
H150 C146 0.960 . S
H151 C146 0.961 . S
H152 C146 0.960 . S
H153 C149 0.960 . S
H154 C149 0.960 . S
H155 C149 0.959 . S
C156 N157 1.317 . S
C156 N158 1.348 . S
C156 C159 1.485 . S
N157 C156 1.317 . S
N157 N161 1.370 . S
N158 C156 1.348 . S
N158 C160 1.346 . S
C159 C156 1.485 . S
C159 H163 0.960 . S
C159 H164 0.961 . S
C159 H165 0.960 . S
C160 N158 1.346 . S
C160 N161 1.307 . S
C160 C162 1.486 . S
N161 N157 1.370 . S
N161 C160 1.307 . S
C162 C160 1.486 . S
C162 H166 0.960 . S
C162 H167 0.960 . S
C162 H168 0.959 . S
H163 C159 0.960 . S
H164 C159 0.961 . S
H165 C159 0.960 . S
H166 C162 0.960 . S
H167 C162 0.960 . S
H168 C162 0.959 . S
C169 N170 1.317 . S
C169 N171 1.348 . S
C169 C172 1.485 . S
N170 C169 1.317 . S
N170 N174 1.370 . S
N171 C169 1.348 . S
N171 C173 1.346 . S
C172 C169 1.485 . S
C172 H176 0.960 . S
C172 H177 0.961 . S
C172 H178 0.960 . S
C173 N171 1.346 . S
C173 N174 1.307 . S
C173 C175 1.486 . S
N174 N170 1.370 . S
N174 C173 1.307 . S
C175 C173 1.486 . S
C175 H179 0.960 . S
C175 H180 0.960 . S
C175 H181 0.959 . S
H176 C172 0.960 . S
H177 C172 0.961 . S
H178 C172 0.960 . S
H179 C175 0.960 . S
H180 C175 0.960 . S
H181 C175 0.959 . S
C182 N183 1.317 . S
C182 N184 1.348 . S
C182 C185 1.485 . S
N183 C182 1.317 . S
N183 N187 1.370 . S
N184 C182 1.348 . S
N184 C186 1.346 . S
C185 C182 1.485 . S
C185 H189 0.960 . S
C185 H190 0.961 . S
C185 H191 0.960 . S
C186 N184 1.346 . S
C186 N187 1.307 . S
C186 C188 1.486 . S
N187 N183 1.370 . S
N187 C186 1.307 . S
C188 C186 1.486 . S
C188 H192 0.960 . S
C188 H193 0.960 . S
C188 H194 0.959 . S
H189 C185 0.960 . S
H190 C185 0.961 . S
H191 C185 0.960 . S
H192 C188 0.960 . S
H193 C188 0.960 . S
H194 C188 0.959 . S
C195 N196 1.317 . S
C195 N197 1.348 . S
C195 C198 1.485 . S
N196 C195 1.317 . S
N196 N200 1.370 . S
N197 C195 1.348 . S
N197 C199 1.346 1_556 S
C198 C195 1.485 . S
C198 H202 0.960 . S
C198 H203 0.961 1_545 S
C198 H204 0.960 . S
C199 N197 1.346 1_554 S
C199 N200 1.307 1_554 S
C199 C201 1.486 . S
N200 N196 1.370 . S
N200 C199 1.307 1_556 S
C201 C199 1.486 . S
C201 H205 0.960 . S
C201 H206 0.960 . S
C201 H207 0.959 . S
H202 C198 0.960 . S
H203 C198 0.961 1_565 S
H204 C198 0.960 . S
H205 C201 0.960 . S
H206 C201 0.960 . S
H207 C201 0.959 . S
Mn208 O213 2.095 . S
Mn208 O223 2.162 . S
Mn208 O224 2.297 . S
Mn208 O232 2.385 . S
Mn208 O233 2.209 1_554 S
Mn208 O234 2.094 . S
Mn209 O214 2.121 . S
Mn209 N216 2.257 . S
Mn209 N225 2.282 . S
Mn209 O233 2.215 . S
Mn209 O235 2.117 . S
C210 O232 1.234 1_556 S
C210 O233 1.283 . S
C211 O223 1.281 . S
C211 O224 1.236 . S
C212 O234 1.240 . S
C212 O235 1.264 1_554 S
O213 Mn208 2.095 . S
O213 C222 1.250 . S
O214 Mn209 2.121 . S
O214 C222 1.258 1_556 S
C215 N216 1.326 . S
C215 C219 1.460 . S
C215 H221 0.929 . S
N216 Mn209 2.257 . S
N216 C215 1.326 . S
N216 C220 1.362 . S
C217 C218 1.258 . S
C217 C220 1.431 . S
C217 C237 1.449 . S
C218 C217 1.258 . S
C218 C219 1.477 . S
C218 H238 0.931 . S
C219 C215 1.460 . S
C219 C218 1.477 . S
C219 H239 0.930 . S
C220 N216 1.362 . S
C220 C217 1.431 . S
C220 C230 1.476 . S
H221 C215 0.929 . S
C222 O213 1.250 . S
C222 O214 1.258 1_554 S
O223 Mn208 2.162 . S
O223 C211 1.281 . S
O224 Mn208 2.297 . S
O224 C211 1.236 . S
N225 Mn209 2.282 . S
N225 C226 1.328 . S
N225 C230 1.318 . S
C226 N225 1.328 . S
C226 C227 1.457 . S
C226 H231 0.929 . S
C227 C226 1.457 . S
C227 C228 1.291 . S
C227 H240 0.931 . S
C228 C227 1.291 . S
C228 C229 1.373 . S
C228 H241 0.929 . S
C229 C228 1.373 . S
C229 C230 1.396 . S
C229 C236 1.403 . S
C230 C220 1.476 . S
C230 N225 1.318 . S
C230 C229 1.396 . S
H231 C226 0.929 . S
O232 Mn208 2.385 . S
O232 C210 1.234 1_554 S
O233 Mn208 2.209 1_556 S
O233 Mn209 2.215 . S
O233 C210 1.283 . S
O234 Mn208 2.094 . S
O234 C212 1.240 . S
O235 Mn209 2.117 . S
O235 C212 1.264 1_556 S
C236 C229 1.403 . S
C236 C237 1.399 . S
C236 H242 0.929 . S
C237 C217 1.449 . S
C237 C236 1.399 . S
C237 H243 0.930 . S
H238 C218 0.931 . S
H239 C219 0.930 . S
H240 C227 0.931 . S
H241 C228 0.929 . S
H242 C236 0.929 . S
H243 C237 0.930 . S
Mn244 O249 2.095 . S
Mn244 O259 2.162 . S
Mn244 O260 2.297 . S
Mn244 O268 2.385 . S
Mn244 O269 2.209 . S
Mn244 O270 2.094 . S
Mn245 O250 2.121 . S
Mn245 N252 2.257 . S
Mn245 N261 2.282 . S
Mn245 O269 2.215 . S
Mn245 O271 2.117 . S
C246 O268 1.234 . S
C246 O269 1.283 . S
C247 O259 1.281 . S
C247 O260 1.236 . S
C248 O270 1.240 . S
C248 O271 1.264 . S
O249 Mn244 2.095 . S
O249 C258 1.250 . S
O250 Mn245 2.121 . S
O250 C258 1.258 . S
C251 N252 1.326 . S
C251 C255 1.460 . S
C251 H257 0.929 . S
N252 Mn245 2.257 . S
N252 C251 1.326 . S
N252 C256 1.362 . S
C253 C254 1.258 . S
C253 C256 1.431 . S
C253 C273 1.449 . S
C254 C253 1.258 . S
C254 C255 1.477 . S
C254 H274 0.931 . S
C255 C251 1.460 . S
C255 C254 1.477 . S
C255 H275 0.930 . S
C256 N252 1.362 . S
C256 C253 1.431 . S
C256 C266 1.476 . S
H257 C251 0.929 . S
C258 O249 1.250 . S
C258 O250 1.258 . S
O259 Mn244 2.162 . S
O259 C247 1.281 . S
O260 Mn244 2.297 . S
O260 C247 1.236 . S
N261 Mn245 2.282 . S
N261 C262 1.328 . S
N261 C266 1.318 . S
C262 N261 1.328 . S
C262 C263 1.457 . S
C262 H267 0.929 . S
C263 C262 1.457 . S
C263 C264 1.291 . S
C263 H276 0.931 . S
C264 C263 1.291 . S
C264 C265 1.373 . S
C264 H277 0.929 . S
C265 C264 1.373 . S
C265 C266 1.396 . S
C265 C272 1.403 . S
C266 C256 1.476 . S
C266 N261 1.318 . S
C266 C265 1.396 . S
H267 C262 0.929 . S
O268 Mn244 2.385 . S
O268 C246 1.234 . S
O269 Mn244 2.209 . S
O269 Mn245 2.215 . S
O269 C246 1.283 . S
O270 Mn244 2.094 . S
O270 C248 1.240 . S
O271 Mn245 2.117 . S
O271 C248 1.264 . S
C272 C265 1.403 . S
C272 C273 1.399 . S
C272 H278 0.929 . S
C273 C253 1.449 . S
C273 C272 1.399 . S
C273 H279 0.930 . S
H274 C254 0.931 . S
H275 C255 0.930 . S
H276 C263 0.931 . S
H277 C264 0.929 . S
H278 C272 0.929 . S
H279 C273 0.930 . S
Mn280 O285 2.095 1_554 S
Mn280 O295 2.162 . S
Mn280 O296 2.297 1_554 S
Mn280 O304 2.385 . S
Mn280 O305 2.209 1_554 S
Mn280 O306 2.094 . S
Mn281 O286 2.121 . S
Mn281 N288 2.257 . S
Mn281 N297 2.282 1_556 S
Mn281 O305 2.215 . S
Mn281 O307 2.117 1_556 S
C282 O304 1.234 . S
C282 O305 1.283 1_554 S
C283 O295 1.281 . S
C283 O296 1.236 1_554 S
C284 O306 1.240 . S
C284 O307 1.264 . S
O285 Mn280 2.095 1_556 S
O285 C294 1.250 . S
O286 Mn281 2.121 . S
O286 C294 1.258 . S
C287 N288 1.326 . S
C287 C291 1.460 . S
C287 H293 0.929 . S
N288 Mn281 2.257 . S
N288 C287 1.326 . S
N288 C292 1.362 . S
C289 C290 1.258 . S
C289 C292 1.431 . S
C289 C309 1.449 . S
C290 C289 1.258 . S
C290 C291 1.477 . S
C290 H310 0.931 . S
C291 C287 1.460 . S
C291 C290 1.477 . S
C291 H311 0.930 . S
C292 N288 1.362 . S
C292 C289 1.431 . S
C292 C302 1.476 . S
H293 C287 0.929 . S
C294 O285 1.250 . S
C294 O286 1.258 . S
O295 Mn280 2.162 . S
O295 C283 1.281 . S
O296 Mn280 2.297 1_556 S
O296 C283 1.236 1_556 S
N297 Mn281 2.282 1_554 S
N297 C298 1.328 . S
N297 C302 1.318 1_554 S
C298 N297 1.328 . S
C298 C299 1.457 . S
C298 H303 0.929 . S
C299 C298 1.457 . S
C299 C300 1.291 . S
C299 H312 0.931 . S
C300 C299 1.291 . S
C300 C301 1.373 1_554 S
C300 H313 0.929 . S
C301 C300 1.373 1_556 S
C301 C302 1.396 . S
C301 C308 1.403 . S
C302 C292 1.476 . S
C302 N297 1.318 1_556 S
C302 C301 1.396 . S
H303 C298 0.929 . S
O304 Mn280 2.385 . S
O304 C282 1.234 . S
O305 Mn280 2.209 1_556 S
O305 Mn281 2.215 . S
O305 C282 1.283 1_556 S
O306 Mn280 2.094 . S
O306 C284 1.240 . S
O307 Mn281 2.117 1_554 S
O307 C284 1.264 . S
C308 C301 1.403 . S
C308 C309 1.399 . S
C308 H314 0.929 . S
C309 C289 1.449 . S
C309 C308 1.399 . S
C309 H315 0.930 . S
H310 C290 0.931 . S
H311 C291 0.930 . S
H312 C299 0.931 . S
H313 C300 0.929 . S
H314 C308 0.929 . S
H315 C309 0.930 . S
Mn316 O321 2.095 . S
Mn316 O331 2.162 . S
Mn316 O332 2.297 . S
Mn316 O340 2.385 1_545 S
Mn316 O341 2.209 1_545 S
Mn316 O342 2.094 . S
Mn317 O322 2.121 . S
Mn317 N324 2.257 . S
Mn317 N333 2.282 . S
Mn317 O341 2.215 . S
Mn317 O343 2.117 . S
C318 O340 1.234 . S
C318 O341 1.283 . S
C319 O331 1.281 . S
C319 O332 1.236 . S
C320 O342 1.240 . S
C320 O343 1.264 1_545 S
O321 Mn316 2.095 . S
O321 C330 1.250 . S
O322 Mn317 2.121 . S
O322 C330 1.258 1_565 S
C323 N324 1.326 . S
C323 C327 1.460 . S
C323 H329 0.929 . S
N324 Mn317 2.257 . S
N324 C323 1.326 . S
N324 C328 1.362 . S
C325 C326 1.258 . S
C325 C328 1.431 . S
C325 C345 1.449 . S
C326 C325 1.258 . S
C326 C327 1.477 . S
C326 H346 0.931 . S
C327 C323 1.460 . S
C327 C326 1.477 . S
C327 H347 0.930 . S
C328 N324 1.362 . S
C328 C325 1.431 . S
C328 C338 1.476 . S
H329 C323 0.929 . S
C330 O321 1.250 . S
C330 O322 1.258 1_545 S
O331 Mn316 2.162 . S
O331 C319 1.281 . S
O332 Mn316 2.297 . S
O332 C319 1.236 . S
N333 Mn317 2.282 . S
N333 C334 1.328 . S
N333 C338 1.318 . S
C334 N333 1.328 . S
C334 C335 1.457 . S
C334 H339 0.929 . S
C335 C334 1.457 . S
C335 C336 1.291 . S
C335 H348 0.931 . S
C336 C335 1.291 . S
C336 C337 1.373 . S
C336 H349 0.929 . S
C337 C336 1.373 . S
C337 C338 1.396 . S
C337 C344 1.403 . S
C338 C328 1.476 . S
C338 N333 1.318 . S
C338 C337 1.396 . S
H339 C334 0.929 . S
O340 Mn316 2.385 1_565 S
O340 C318 1.234 . S
O341 Mn316 2.209 1_565 S
O341 Mn317 2.215 . S
O341 C318 1.283 . S
O342 Mn316 2.094 . S
O342 C320 1.240 . S
O343 Mn317 2.117 . S
O343 C320 1.264 1_565 S
C344 C337 1.403 . S
C344 C345 1.399 . S
C344 H350 0.929 . S
C345 C325 1.449 . S
C345 C344 1.399 . S
C345 H351 0.930 . S
H346 C326 0.931 . S
H347 C327 0.930 . S
H348 C335 0.931 . S
H349 C336 0.929 . S
H350 C344 0.929 . S
H351 C345 0.930 . S
Mn352 O357 2.095 . S
Mn352 O367 2.162 . S
Mn352 O368 2.297 . S
Mn352 O376 2.385 . S
Mn352 O377 2.209 . S
Mn352 O378 2.094 . S
Mn353 O358 2.121 . S
Mn353 N360 2.257 . S
Mn353 N369 2.282 . S
Mn353 O377 2.215 . S
Mn353 O379 2.117 . S
C354 O376 1.234 . S
C354 O377 1.283 . S
C355 O367 1.281 . S
C355 O368 1.236 . S
C356 O378 1.240 . S
C356 O379 1.264 . S
O357 Mn352 2.095 . S
O357 C366 1.250 . S
O358 Mn353 2.121 . S
O358 C366 1.258 . S
C359 N360 1.326 . S
C359 C363 1.460 . S
C359 H365 0.929 . S
N360 Mn353 2.257 . S
N360 C359 1.326 . S
N360 C364 1.362 . S
C361 C362 1.258 . S
C361 C364 1.431 . S
C361 C381 1.449 . S
C362 C361 1.258 . S
C362 C363 1.477 . S
C362 H382 0.931 . S
C363 C359 1.460 . S
C363 C362 1.477 . S
C363 H383 0.930 . S
C364 N360 1.362 . S
C364 C361 1.431 . S
C364 C374 1.476 . S
H365 C359 0.929 . S
C366 O357 1.250 . S
C366 O358 1.258 . S
O367 Mn352 2.162 . S
O367 C355 1.281 . S
O368 Mn352 2.297 . S
O368 C355 1.236 . S
N369 Mn353 2.282 . S
N369 C370 1.328 . S
N369 C374 1.318 . S
C370 N369 1.328 . S
C370 C371 1.457 . S
C370 H375 0.929 . S
C371 C370 1.457 . S
C371 C372 1.291 . S
C371 H384 0.931 . S
C372 C371 1.291 . S
C372 C373 1.373 . S
C372 H385 0.929 . S
C373 C372 1.373 . S
C373 C374 1.396 . S
C373 C380 1.403 . S
C374 C364 1.476 . S
C374 N369 1.318 . S
C374 C373 1.396 . S
H375 C370 0.929 . S
O376 Mn352 2.385 . S
O376 C354 1.234 . S
O377 Mn352 2.209 . S
O377 Mn353 2.215 . S
O377 C354 1.283 . S
O378 Mn352 2.094 . S
O378 C356 1.240 . S
O379 Mn353 2.117 . S
O379 C356 1.264 . S
C380 C373 1.403 . S
C380 C381 1.399 . S
C380 H386 0.929 . S
C381 C361 1.449 . S
C381 C380 1.399 . S
C381 H387 0.930 . S
H382 C362 0.931 . S
H383 C363 0.930 . S
H384 C371 0.931 . S
H385 C372 0.929 . S
H386 C380 0.929 . S
H387 C381 0.930 . S
Mn388 O393 2.095 . S
Mn388 O403 2.162 . S
Mn388 O404 2.297 . S
Mn388 O412 2.385 . S
Mn388 O413 2.209 . S
Mn388 O414 2.094 . S
Mn389 O394 2.121 . S
Mn389 N396 2.257 . S
Mn389 N405 2.282 . S
Mn389 O413 2.215 . S
Mn389 O415 2.117 . S
C390 O412 1.234 . S
C390 O413 1.283 . S
C391 O403 1.281 . S
C391 O404 1.236 . S
C392 O414 1.240 . S
C392 O415 1.264 . S
O393 Mn388 2.095 . S
O393 C402 1.250 . S
O394 Mn389 2.121 . S
O394 C402 1.258 . S
C395 N396 1.326 . S
C395 C399 1.460 . S
C395 H401 0.929 . S
N396 Mn389 2.257 . S
N396 C395 1.326 . S
N396 C400 1.362 . S
C397 C398 1.258 . S
C397 C400 1.431 . S
C397 C417 1.449 . S
C398 C397 1.258 . S
C398 C399 1.477 . S
C398 H418 0.931 . S
C399 C395 1.460 . S
C399 C398 1.477 . S
C399 H419 0.930 . S
C400 N396 1.362 . S
C400 C397 1.431 . S
C400 C410 1.476 . S
H401 C395 0.929 . S
C402 O393 1.250 . S
C402 O394 1.258 . S
O403 Mn388 2.162 . S
O403 C391 1.281 . S
O404 Mn388 2.297 . S
O404 C391 1.236 . S
N405 Mn389 2.282 . S
N405 C406 1.328 . S
N405 C410 1.318 . S
C406 N405 1.328 . S
C406 C407 1.457 . S
C406 H411 0.929 . S
C407 C406 1.457 . S
C407 C408 1.291 . S
C407 H420 0.931 . S
C408 C407 1.291 . S
C408 C409 1.373 . S
C408 H421 0.929 . S
C409 C408 1.373 . S
C409 C410 1.396 . S
C409 C416 1.403 . S
C410 C400 1.476 . S
C410 N405 1.318 . S
C410 C409 1.396 . S
H411 C406 0.929 . S
O412 Mn388 2.385 . S
O412 C390 1.234 . S
O413 Mn388 2.209 . S
O413 Mn389 2.215 . S
O413 C390 1.283 . S
O414 Mn388 2.094 . S
O414 C392 1.240 . S
O415 Mn389 2.117 . S
O415 C392 1.264 . S
C416 C409 1.403 . S
C416 C417 1.399 . S
C416 H422 0.929 . S
C417 C397 1.449 . S
C417 C416 1.399 . S
C417 H423 0.930 . S
H418 C398 0.931 . S
H419 C399 0.930 . S
H420 C407 0.931 . S
H421 C408 0.929 . S
H422 C416 0.929 . S
H423 C417 0.930 . S
Mn424 O429 2.095 . S
Mn424 O439 2.162 . S
Mn424 O440 2.297 . S
Mn424 O448 2.385 . S
Mn424 O449 2.209 . S
Mn424 O450 2.094 . S
Mn425 O430 2.121 . S
Mn425 N432 2.257 . S
Mn425 N441 2.282 . S
Mn425 O449 2.215 . S
Mn425 O451 2.117 . S
C426 O448 1.234 . S
C426 O449 1.283 . S
C427 O439 1.281 . S
C427 O440 1.236 . S
C428 O450 1.240 . S
C428 O451 1.264 . S
O429 Mn424 2.095 . S
O429 C438 1.250 . S
O430 Mn425 2.121 . S
O430 C438 1.258 . S
C431 N432 1.326 . S
C431 C435 1.460 . S
C431 H437 0.929 . S
N432 Mn425 2.257 . S
N432 C431 1.326 . S
N432 C436 1.362 . S
C433 C434 1.258 . S
C433 C436 1.431 . S
C433 C453 1.449 . S
C434 C433 1.258 . S
C434 C435 1.477 . S
C434 H454 0.931 . S
C435 C431 1.460 . S
C435 C434 1.477 . S
C435 H455 0.930 . S
C436 N432 1.362 . S
C436 C433 1.431 . S
C436 C446 1.476 . S
H437 C431 0.929 . S
C438 O429 1.250 . S
C438 O430 1.258 . S
O439 Mn424 2.162 . S
O439 C427 1.281 . S
O440 Mn424 2.297 . S
O440 C427 1.236 . S
N441 Mn425 2.282 . S
N441 C442 1.328 . S
N441 C446 1.318 . S
C442 N441 1.328 . S
C442 C443 1.457 . S
C442 H447 0.929 . S
C443 C442 1.457 . S
C443 C444 1.291 . S
C443 H456 0.931 . S
C444 C443 1.291 . S
C444 C445 1.373 . S
C444 H457 0.929 . S
C445 C444 1.373 . S
C445 C446 1.396 . S
C445 C452 1.403 . S
C446 C436 1.476 . S
C446 N441 1.318 . S
C446 C445 1.396 . S
H447 C442 0.929 . S
O448 Mn424 2.385 . S
O448 C426 1.234 . S
O449 Mn424 2.209 . S
O449 Mn425 2.215 . S
O449 C426 1.283 . S
O450 Mn424 2.094 . S
O450 C428 1.240 . S
O451 Mn425 2.117 . S
O451 C428 1.264 . S
C452 C445 1.403 . S
C452 C453 1.399 . S
C452 H458 0.929 . S
C453 C433 1.449 . S
C453 C452 1.399 . S
C453 H459 0.930 . S
H454 C434 0.931 . S
H455 C435 0.930 . S
H456 C443 0.931 . S
H457 C444 0.929 . S
H458 C452 0.929 . S
H459 C453 0.930 . S
Mn460 O465 2.095 . S
Mn460 O475 2.162 1_545 S
Mn460 O476 2.297 . S
Mn460 O484 2.385 . S
Mn460 O485 2.209 . S
Mn460 O486 2.094 1_545 S
Mn461 O466 2.121 . S
Mn461 N468 2.257 . S
Mn461 N477 2.282 . S
Mn461 O485 2.215 . S
Mn461 O487 2.117 . S
C462 O484 1.234 . S
C462 O485 1.283 . S
C463 O475 1.281 . S
C463 O476 1.236 1_565 S
C464 O486 1.240 1_545 S
C464 O487 1.264 . S
O465 Mn460 2.095 . S
O465 C474 1.250 . S
O466 Mn461 2.121 . S
O466 C474 1.258 . S
C467 N468 1.326 . S
C467 C471 1.460 . S
C467 H473 0.929 . S
N468 Mn461 2.257 . S
N468 C467 1.326 . S
N468 C472 1.362 . S
C469 C470 1.258 . S
C469 C472 1.431 . S
C469 C489 1.449 . S
C470 C469 1.258 . S
C470 C471 1.477 . S
C470 H490 0.931 . S
C471 C467 1.460 . S
C471 C470 1.477 . S
C471 H491 0.930 . S
C472 N468 1.362 . S
C472 C469 1.431 . S
C472 C482 1.476 . S
H473 C467 0.929 . S
C474 O465 1.250 . S
C474 O466 1.258 . S
O475 Mn460 2.162 1_565 S
O475 C463 1.281 . S
O476 Mn460 2.297 . S
O476 C463 1.236 1_545 S
N477 Mn461 2.282 . S
N477 C478 1.328 . S
N477 C482 1.318 . S
C478 N477 1.328 . S
C478 C479 1.457 . S
C478 H483 0.929 . S
C479 C478 1.457 . S
C479 C480 1.291 . S
C479 H492 0.931 . S
C480 C479 1.291 . S
C480 C481 1.373 . S
C480 H493 0.929 . S
C481 C480 1.373 . S
C481 C482 1.396 . S
C481 C488 1.403 . S
C482 C472 1.476 . S
C482 N477 1.318 . S
C482 C481 1.396 . S
H483 C478 0.929 . S
O484 Mn460 2.385 . S
O484 C462 1.234 . S
O485 Mn460 2.209 . S
O485 Mn461 2.215 . S
O485 C462 1.283 . S
O486 Mn460 2.094 1_565 S
O486 C464 1.240 1_565 S
O487 Mn461 2.117 . S
O487 C464 1.264 . S
C488 C481 1.403 . S
C488 C489 1.399 . S
C488 H494 0.929 . S
C489 C469 1.449 . S
C489 C488 1.399 . S
C489 H495 0.930 . S
H490 C470 0.931 . S
H491 C471 0.930 . S
H492 C479 0.931 . S
H493 C480 0.929 . S
H494 C488 0.929 . S
H495 C489 0.930 . S
Mn496 O501 2.095 . S
Mn496 O511 2.162 . S
Mn496 O512 2.297 . S
Mn496 O520 2.385 1_455 S
Mn496 O521 2.209 1_455 S
Mn496 O522 2.094 . S
Mn497 O502 2.121 . S
Mn497 N504 2.257 . S
Mn497 N513 2.282 . S
Mn497 O521 2.215 . S
Mn497 O523 2.117 . S
C498 O520 1.234 . S
C498 O521 1.283 . S
C499 O511 1.281 . S
C499 O512 1.236 . S
C500 O522 1.240 . S
C500 O523 1.264 1_455 S
O501 Mn496 2.095 . S
O501 C510 1.236 1_455 S
O502 Mn497 2.121 . S
O502 C510 1.277 . S
C503 N504 1.326 . S
C503 C507 1.460 . S
C503 H509 0.929 . S
N504 Mn497 2.257 . S
N504 C503 1.326 . S
N504 C508 1.362 . S
C505 C506 1.258 . S
C505 C508 1.431 . S
C505 C525 1.449 . S
C506 C505 1.258 . S
C506 C507 1.477 . S
C506 H526 0.931 . S
C507 C503 1.460 . S
C507 C506 1.477 . S
C507 H527 0.930 . S
C508 N504 1.362 . S
C508 C505 1.431 . S
C508 C518 1.476 . S
H509 C503 0.929 . S
C510 O501 1.236 1_655 S
C510 O502 1.277 . S
O511 Mn496 2.162 . S
O511 C499 1.281 . S
O512 Mn496 2.297 . S
O512 C499 1.236 . S
N513 Mn497 2.282 . S
N513 C514 1.328 . S
N513 C518 1.318 . S
C514 N513 1.328 . S
C514 C515 1.457 . S
C514 H519 0.929 . S
C515 C514 1.457 . S
C515 C516 1.291 . S
C515 H528 0.931 . S
C516 C515 1.291 . S
C516 C517 1.373 . S
C516 H529 0.929 . S
C517 C516 1.373 . S
C517 C518 1.396 . S
C517 C524 1.403 . S
C518 C508 1.476 . S
C518 N513 1.318 . S
C518 C517 1.396 . S
H519 C514 0.929 . S
O520 Mn496 2.385 1_655 S
O520 C498 1.234 . S
O521 Mn496 2.209 1_655 S
O521 Mn497 2.215 . S
O521 C498 1.283 . S
O522 Mn496 2.094 . S
O522 C500 1.240 . S
O523 Mn497 2.117 . S
O523 C500 1.264 1_655 S
C524 C517 1.403 . S
C524 C525 1.399 . S
C524 H530 0.929 . S
C525 C505 1.449 . S
C525 C524 1.399 . S
C525 H531 0.930 . S
H526 C506 0.931 . S
H527 C507 0.930 . S
H528 C515 0.931 . S
H529 C516 0.929 . S
H530 C524 0.929 . S
H531 C525 0.930 . S
Mn532 O537 2.095 . S
Mn532 O547 2.162 . S
Mn532 O548 2.297 . S
Mn532 O556 2.385 . S
Mn532 O557 2.209 . S
Mn532 O558 2.094 . S
Mn533 O538 2.121 . S
Mn533 N540 2.257 . S
Mn533 N549 2.282 . S
Mn533 O557 2.215 . S
Mn533 O559 2.117 . S
C534 O556 1.234 . S
C534 O557 1.283 . S
C535 O547 1.281 . S
C535 O548 1.236 . S
C536 O558 1.240 . S
C536 O559 1.264 . S
O537 Mn532 2.095 . S
O537 C546 1.250 . S
O538 Mn533 2.121 . S
O538 C546 1.258 . S
C539 N540 1.326 . S
C539 C543 1.460 . S
C539 H545 0.929 . S
N540 Mn533 2.257 . S
N540 C539 1.326 . S
N540 C544 1.362 . S
C541 C542 1.258 . S
C541 C544 1.431 . S
C541 C561 1.449 . S
C542 C541 1.258 . S
C542 C543 1.477 . S
C542 H562 0.931 . S
C543 C539 1.460 . S
C543 C542 1.477 . S
C543 H563 0.930 . S
C544 N540 1.362 . S
C544 C541 1.431 . S
C544 C554 1.476 . S
H545 C539 0.929 . S
C546 O537 1.250 . S
C546 O538 1.258 . S
O547 Mn532 2.162 . S
O547 C535 1.281 . S
O548 Mn532 2.297 . S
O548 C535 1.236 . S
N549 Mn533 2.282 . S
N549 C550 1.328 . S
N549 C554 1.318 . S
C550 N549 1.328 . S
C550 C551 1.457 . S
C550 H555 0.929 . S
C551 C550 1.457 . S
C551 C552 1.291 . S
C551 H564 0.931 . S
C552 C551 1.291 . S
C552 C553 1.373 . S
C552 H565 0.929 . S
C553 C552 1.373 . S
C553 C554 1.396 . S
C553 C560 1.403 . S
C554 C544 1.476 . S
C554 N549 1.318 . S
C554 C553 1.396 . S
H555 C550 0.929 . S
O556 Mn532 2.385 . S
O556 C534 1.234 . S
O557 Mn532 2.209 . S
O557 Mn533 2.215 . S
O557 C534 1.283 . S
O558 Mn532 2.094 . S
O558 C536 1.240 . S
O559 Mn533 2.117 . S
O559 C536 1.264 . S
C560 C553 1.403 . S
C560 C561 1.399 . S
C560 H566 0.929 . S
C561 C541 1.449 . S
C561 C560 1.399 . S
C561 H567 0.930 . S
H562 C542 0.931 . S
H563 C543 0.930 . S
H564 C551 0.931 . S
H565 C552 0.929 . S
H566 C560 0.929 . S
H567 C561 0.930 . S
Mn568 O573 2.095 . S
Mn568 O583 2.162 . S
Mn568 O584 2.297 . S
Mn568 O592 2.385 . S
Mn568 O593 2.209 . S
Mn568 O594 2.094 . S
Mn569 O574 2.121 1_455 S
Mn569 N576 2.257 1_455 S
Mn569 N585 2.282 . S
Mn569 O593 2.215 . S
Mn569 O595 2.117 . S
C570 O592 1.234 . S
C570 O593 1.283 . S
C571 O583 1.281 . S
C571 O584 1.236 . S
C572 O594 1.240 . S
C572 O595 1.264 . S
O573 Mn568 2.095 . S
O573 C582 1.250 1_455 S
O574 Mn569 2.121 1_655 S
O574 C582 1.258 . S
C575 N576 1.326 . S
C575 C579 1.460 . S
C575 H581 0.929 . S
N576 Mn569 2.257 1_655 S
N576 C575 1.326 . S
N576 C580 1.362 . S
C577 C578 1.258 . S
C577 C580 1.431 . S
C577 C597 1.449 . S
C578 C577 1.258 . S
C578 C579 1.477 . S
C578 H598 0.931 . S
C579 C575 1.460 . S
C579 C578 1.477 . S
C579 H599 0.930 . S
C580 N576 1.362 . S
C580 C577 1.431 . S
C580 C590 1.476 . S
H581 C575 0.929 . S
C582 O573 1.250 1_655 S
C582 O574 1.258 . S
O583 Mn568 2.162 . S
O583 C571 1.281 . S
O584 Mn568 2.297 . S
O584 C571 1.236 . S
N585 Mn569 2.282 . S
N585 C586 1.328 . S
N585 C590 1.318 1_455 S
C586 N585 1.328 . S
C586 C587 1.457 . S
C586 H591 0.929 . S
C587 C586 1.457 . S
C587 C588 1.291 . S
C587 H600 0.931 . S
C588 C587 1.291 . S
C588 C589 1.373 . S
C588 H601 0.929 . S
C589 C588 1.373 . S
C589 C590 1.396 1_455 S
C589 C596 1.403 1_455 S
C590 C580 1.476 . S
C590 N585 1.318 1_655 S
C590 C589 1.396 1_655 S
H591 C586 0.929 . S
O592 Mn568 2.385 . S
O592 C570 1.234 . S
O593 Mn568 2.209 . S
O593 Mn569 2.215 . S
O593 C570 1.283 . S
O594 Mn568 2.094 . S
O594 C572 1.240 . S
O595 Mn569 2.117 . S
O595 C572 1.264 . S
C596 C589 1.403 1_655 S
C596 C597 1.399 . S
C596 H602 0.929 . S
C597 C577 1.449 . S
C597 C596 1.399 . S
C597 H603 0.930 . S
H598 C578 0.931 . S
H599 C579 0.930 . S
H600 C587 0.931 . S
H601 C588 0.929 . S
H602 C596 0.929 . S
H603 C597 0.930 . S
Mn604 O609 2.095 . S
Mn604 O619 2.162 . S
Mn604 O620 2.297 . S
Mn604 O628 2.385 . S
Mn604 O629 2.209 . S
Mn604 O630 2.094 . S
Mn605 O610 2.121 . S
Mn605 N612 2.257 . S
Mn605 N621 2.282 . S
Mn605 O629 2.215 . S
Mn605 O631 2.117 . S
C606 O628 1.234 . S
C606 O629 1.283 . S
C607 O619 1.281 . S
C607 O620 1.236 . S
C608 O630 1.240 . S
C608 O631 1.264 . S
O609 Mn604 2.095 . S
O609 C618 1.250 . S
O610 Mn605 2.121 . S
O610 C618 1.258 . S
C611 N612 1.326 . S
C611 C615 1.460 . S
C611 H617 0.929 . S
N612 Mn605 2.257 . S
N612 C611 1.326 . S
N612 C616 1.362 . S
C613 C614 1.258 . S
C613 C616 1.431 . S
C613 C633 1.449 . S
C614 C613 1.258 . S
C614 C615 1.477 . S
C614 H634 0.931 . S
C615 C611 1.460 . S
C615 C614 1.477 . S
C615 H635 0.930 . S
C616 N612 1.362 . S
C616 C613 1.431 . S
C616 C626 1.476 . S
H617 C611 0.929 . S
C618 O609 1.250 . S
C618 O610 1.258 . S
O619 Mn604 2.162 . S
O619 C607 1.281 . S
O620 Mn604 2.297 . S
O620 C607 1.236 . S
N621 Mn605 2.282 . S
N621 C622 1.328 . S
N621 C626 1.318 . S
C622 N621 1.328 . S
C622 C623 1.457 . S
C622 H627 0.929 . S
C623 C622 1.457 . S
C623 C624 1.291 . S
C623 H636 0.931 . S
C624 C623 1.291 . S
C624 C625 1.373 . S
C624 H637 0.929 . S
C625 C624 1.373 . S
C625 C626 1.396 . S
C625 C632 1.403 . S
C626 C616 1.476 . S
C626 N621 1.318 . S
C626 C625 1.396 . S
H627 C622 0.929 . S
O628 Mn604 2.385 . S
O628 C606 1.234 . S
O629 Mn604 2.209 . S
O629 Mn605 2.215 . S
O629 C606 1.283 . S
O630 Mn604 2.094 . S
O630 C608 1.240 . S
O631 Mn605 2.117 . S
O631 C608 1.264 . S
C632 C625 1.403 . S
C632 C633 1.399 . S
C632 H638 0.929 . S
C633 C613 1.449 . S
C633 C632 1.399 . S
C633 H639 0.930 . S
H634 C614 0.931 . S
H635 C615 0.930 . S
H636 C623 0.931 . S
H637 C624 0.929 . S
H638 C632 0.929 . S
H639 C633 0.930 . S
H640 C648 0.950 . S
H641 C653 0.950 . S
H642 C650 0.950 . S
H643 C652 0.950 . S
H644 C654 0.950 . S
H645 C656 0.950 . S
H646 C658 0.950 . S
H647 C659 0.950 . S
C648 H640 0.950 . S
C648 C649 1.386 . S
C648 C650 1.391 . S
C649 C648 1.386 . S
C649 C653 1.393 . S
C650 H642 0.950 . S
C650 C648 1.391 . S
C650 C651 1.400 . S
C651 C650 1.400 . S
C651 C652 1.398 . S
C651 C657 1.491 . S
C652 H643 0.950 . S
C652 C651 1.398 . S
C652 C653 1.391 . S
C653 H641 0.950 . S
C653 C649 1.393 . S
C653 C652 1.391 . S
C654 H644 0.950 . S
C654 C655 1.386 . S
C654 C656 1.391 . S
C655 C654 1.386 . S
C655 C659 1.393 . S
C656 H645 0.950 . S
C656 C654 1.391 . S
C656 C657 1.400 . S
C657 C651 1.491 . S
C657 C656 1.400 . S
C657 C658 1.398 . S
C658 H646 0.950 . S
C658 C657 1.398 . S
C658 C659 1.391 . S
C659 H647 0.950 . S
C659 C655 1.393 . S
C659 C658 1.391 . S
H660 C668 0.950 . S
H661 C673 0.950 . S
H662 C670 0.950 . S
H663 C672 0.950 . S
H664 C674 0.950 . S
H665 C676 0.950 . S
H666 C678 0.950 . S
H667 C679 0.950 . S
C668 H660 0.950 . S
C668 C669 1.382 1_455 S
C668 C670 1.391 . S
C669 C668 1.382 1_655 S
C669 C673 1.388 1_655 S
C670 H662 0.950 . S
C670 C668 1.391 . S
C670 C671 1.400 . S
C671 C670 1.400 . S
C671 C672 1.398 . S
C671 C677 1.491 . S
C672 H663 0.950 . S
C672 C671 1.398 . S
C672 C673 1.391 . S
C673 H661 0.950 . S
C673 C669 1.388 1_455 S
C673 C672 1.391 . S
C674 H664 0.950 . S
C674 C675 1.386 . S
C674 C676 1.391 . S
C675 C674 1.386 . S
C675 C679 1.393 . S
C676 H665 0.950 . S
C676 C674 1.391 . S
C676 C677 1.400 . S
C677 C671 1.491 . S
C677 C676 1.400 . S
C677 C678 1.398 . S
C678 H666 0.950 . S
C678 C677 1.398 . S
C678 C679 1.391 . S
C679 H667 0.950 . S
C679 C675 1.393 . S
C679 C678 1.391 . S
H680 C688 0.950 . S
H681 C693 0.950 . S
H682 C690 0.950 . S
H683 C692 0.950 . S
H684 C694 0.950 . S
H685 C696 0.950 . S
H686 C698 0.950 . S
H687 C699 0.950 . S
C688 H680 0.950 . S
C688 C689 1.386 . S
C688 C690 1.391 . S
C689 C688 1.386 . S
C689 C693 1.393 . S
C690 H682 0.950 . S
C690 C688 1.391 . S
C690 C691 1.400 . S
C691 C690 1.400 . S
C691 C692 1.398 . S
C691 C697 1.491 . S
C692 H683 0.950 . S
C692 C691 1.398 . S
C692 C693 1.391 . S
C693 H681 0.950 . S
C693 C689 1.393 . S
C693 C692 1.391 . S
C694 H684 0.950 . S
C694 C695 1.386 . S
C694 C696 1.391 . S
C695 C694 1.386 . S
C695 C699 1.393 . S
C696 H685 0.950 . S
C696 C694 1.391 . S
C696 C697 1.400 . S
C697 C691 1.491 . S
C697 C696 1.400 . S
C697 C698 1.398 . S
C698 H686 0.950 . S
C698 C697 1.398 . S
C698 C699 1.391 . S
C699 H687 0.950 . S
C699 C695 1.393 . S
C699 C698 1.391 . S
H700 C708 0.950 . S
H701 C713 0.950 . S
H702 C710 0.950 . S
H703 C712 0.950 . S
H704 C714 0.950 . S
H705 C716 0.950 . S
H706 C718 0.950 . S
H707 C719 0.950 . S
C708 H700 0.950 . S
C708 C709 1.386 1_645 S
C708 C710 1.391 . S
C709 C708 1.386 1_465 S
C709 C713 1.393 . S
C710 H702 0.950 . S
C710 C708 1.391 . S
C710 C711 1.400 . S
C711 C710 1.400 . S
C711 C712 1.398 1_545 S
C711 C717 1.491 . S
C712 H703 0.950 . S
C712 C711 1.398 1_565 S
C712 C713 1.391 1_655 S
C713 H701 0.950 . S
C713 C709 1.393 . S
C713 C712 1.391 1_455 S
C714 H704 0.950 . S
C714 C715 1.386 1_565 S
C714 C716 1.391 . S
C715 C714 1.386 1_545 S
C715 C719 1.393 . S
C716 H705 0.950 . S
C716 C714 1.391 . S
C716 C717 1.400 1_565 S
C717 C711 1.491 . S
C717 C716 1.400 1_545 S
C717 C718 1.398 . S
C718 H706 0.950 . S
C718 C717 1.398 . S
C718 C719 1.391 . S
C719 H707 0.950 . S
C719 C715 1.393 . S
C719 C718 1.391 . S
H720 C728 0.950 . S
H721 C733 0.950 . S
H722 C730 0.950 . S
H723 C732 0.950 . S
H724 C734 0.950 . S
H725 C736 0.950 . S
H726 C738 0.950 . S
H727 C739 0.950 . S
C728 H720 0.950 . S
C728 C729 1.386 . S
C728 C730 1.391 . S
C729 C728 1.386 . S
C729 C733 1.393 . S
C730 H722 0.950 . S
C730 C728 1.391 . S
C730 C731 1.400 . S
C731 C730 1.400 . S
C731 C732 1.398 . S
C731 C737 1.491 . S
C732 H723 0.950 . S
C732 C731 1.398 . S
C732 C733 1.391 . S
C733 H721 0.950 . S
C733 C729 1.393 . S
C733 C732 1.391 . S
C734 H724 0.950 . S
C734 C735 1.386 . S
C734 C736 1.391 . S
C735 C734 1.386 . S
C735 C739 1.393 . S
C736 H725 0.950 . S
C736 C734 1.391 . S
C736 C737 1.400 . S
C737 C731 1.491 . S
C737 C736 1.400 . S
C737 C738 1.398 . S
C738 H726 0.950 . S
C738 C737 1.398 . S
C738 C739 1.391 . S
C739 H727 0.950 . S
C739 C735 1.393 . S
C739 C738 1.391 . S
H740 C748 0.950 . S
H741 C753 0.950 . S
H742 C750 0.950 . S
H743 C752 0.950 . S
H744 C754 0.950 . S
H745 C756 0.950 . S
H746 C758 0.950 . S
H747 C759 0.950 . S
C748 H740 0.950 . S
C748 C749 1.386 . S
C748 C750 1.391 . S
C749 C748 1.386 . S
C749 C753 1.393 . S
C750 H742 0.950 . S
C750 C748 1.391 . S
C750 C751 1.400 . S
C751 C750 1.400 . S
C751 C752 1.398 . S
C751 C757 1.491 . S
C752 H743 0.950 . S
C752 C751 1.398 . S
C752 C753 1.391 . S
C753 H741 0.950 . S
C753 C749 1.393 . S
C753 C752 1.391 . S
C754 H744 0.950 . S
C754 C755 1.386 . S
C754 C756 1.391 . S
C755 C754 1.386 . S
C755 C759 1.393 . S
C756 H745 0.950 . S
C756 C754 1.391 . S
C756 C757 1.400 . S
C757 C751 1.491 . S
C757 C756 1.400 . S
C757 C758 1.398 . S
C758 H746 0.950 . S
C758 C757 1.398 . S
C758 C759 1.391 . S
C759 H747 0.950 . S
C759 C755 1.393 . S
C759 C758 1.391 . S
H760 C768 0.950 . S
H761 C773 0.950 . S
H762 C770 0.950 . S
H763 C772 0.950 . S
H764 C774 0.950 . S
H765 C776 0.950 . S
H766 C778 0.950 . S
H767 C779 0.950 . S
C768 H760 0.950 . S
C768 C769 1.386 . S
C768 C770 1.391 . S
C769 C768 1.386 . S
C769 C773 1.393 . S
C770 H762 0.950 . S
C770 C768 1.391 . S
C770 C771 1.400 . S
C771 C770 1.400 . S
C771 C772 1.398 . S
C771 C777 1.491 . S
C772 H763 0.950 . S
C772 C771 1.398 . S
C772 C773 1.391 . S
C773 H761 0.950 . S
C773 C769 1.393 . S
C773 C772 1.391 . S
C774 H764 0.950 . S
C774 C775 1.386 . S
C774 C776 1.391 . S
C775 C774 1.386 . S
C775 C779 1.393 . S
C776 H765 0.950 . S
C776 C774 1.391 . S
C776 C777 1.400 . S
C777 C771 1.491 . S
C777 C776 1.400 . S
C777 C778 1.398 . S
C778 H766 0.950 . S
C778 C777 1.398 . S
C778 C779 1.391 . S
C779 H767 0.950 . S
C779 C775 1.393 . S
C779 C778 1.391 . S
H780 C788 0.950 . S
H781 C793 0.950 1_545 S
H782 C790 0.950 . S
H783 C792 0.958 . S
H784 C794 0.950 . S
H785 C796 0.950 . S
H786 C798 0.950 . S
H787 C799 0.950 . S
C788 H780 0.950 . S
C788 C789 1.386 . S
C788 C790 1.391 . S
C789 C788 1.386 . S
C789 C793 1.393 . S
C790 H782 0.950 . S
C790 C788 1.391 . S
C790 C791 1.400 . S
C791 C790 1.400 . S
C791 C792 1.391 1_565 S
C791 C797 1.491 . S
C792 H783 0.958 . S
C792 C791 1.391 1_545 S
C792 C793 1.391 1_545 S
C793 H781 0.950 1_565 S
C793 C789 1.393 . S
C793 C792 1.391 1_565 S
C794 H784 0.950 . S
C794 C795 1.386 . S
C794 C796 1.391 . S
C795 C794 1.386 . S
C795 C799 1.393 1_545 S
C796 H785 0.950 . S
C796 C794 1.391 . S
C796 C797 1.400 1_545 S
C797 C791 1.491 . S
C797 C796 1.400 1_565 S
C797 C798 1.398 . S
C798 H786 0.950 . S
C798 C797 1.398 . S
C798 C799 1.391 . S
C799 H787 0.950 . S
C799 C795 1.393 1_565 S
C799 C798 1.391 . S
H800 C808 0.950 . S
H801 C813 0.950 . S
H802 C810 0.950 . S
H803 C812 0.950 . S
H804 C814 0.950 . S
H805 C816 0.950 . S
H806 C818 0.950 . S
H807 C819 0.950 . S
C808 H800 0.950 . S
C808 C809 1.386 . S
C808 C810 1.391 . S
C809 C808 1.386 . S
C809 C813 1.393 . S
C810 H802 0.950 . S
C810 C808 1.391 . S
C810 C811 1.400 . S
C811 C810 1.400 . S
C811 C812 1.398 . S
C811 C817 1.491 . S
C812 H803 0.950 . S
C812 C811 1.398 . S
C812 C813 1.391 . S
C813 H801 0.950 . S
C813 C809 1.393 . S
C813 C812 1.391 . S
C814 H804 0.950 . S
C814 C815 1.386 . S
C814 C816 1.391 . S
C815 C814 1.386 . S
C815 C819 1.393 . S
C816 H805 0.950 . S
C816 C814 1.391 . S
C816 C817 1.400 . S
C817 C811 1.491 . S
C817 C816 1.400 . S
C817 C818 1.398 . S
C818 H806 0.950 . S
C818 C817 1.398 . S
C818 C819 1.391 . S
C819 H807 0.950 . S
C819 C815 1.393 . S
C819 C818 1.391 . S
H820 C828 0.950 . S
H821 C833 0.950 . S
H822 C830 0.950 . S
H823 C832 0.950 . S
H824 C834 0.950 . S
H825 C836 0.950 . S
H826 C838 0.950 . S
H827 C839 0.950 . S
C828 H820 0.950 . S
C828 C829 1.386 . S
C828 C830 1.391 . S
C829 C828 1.386 . S
C829 C833 1.393 . S
C830 H822 0.950 . S
C830 C828 1.391 . S
C830 C831 1.400 . S
C831 C830 1.400 . S
C831 C832 1.398 . S
C831 C837 1.491 . S
C832 H823 0.950 . S
C832 C831 1.398 . S
C832 C833 1.391 . S
C833 H821 0.950 . S
C833 C829 1.393 . S
C833 C832 1.391 . S
C834 H824 0.950 . S
C834 C835 1.386 . S
C834 C836 1.391 . S
C835 C834 1.386 . S
C835 C839 1.393 . S
C836 H825 0.950 . S
C836 C834 1.391 . S
C836 C837 1.400 . S
C837 C831 1.491 . S
C837 C836 1.400 . S
C837 C838 1.398 . S
C838 H826 0.950 . S
C838 C837 1.398 . S
C838 C839 1.391 . S
C839 H827 0.950 . S
C839 C835 1.393 . S
C839 C838 1.391 . S
H840 C848 0.950 . S
H841 C853 0.950 . S
H842 C850 0.950 . S
H843 C852 0.950 . S
H844 C854 0.950 . S
H845 C856 0.950 . S
H846 C858 0.950 . S
H847 C859 0.950 . S
C848 H840 0.950 . S
C848 C849 1.386 . S
C848 C850 1.391 . S
C849 C848 1.386 . S
C849 C853 1.393 . S
C850 H842 0.950 . S
C850 C848 1.391 . S
C850 C851 1.400 . S
C851 C850 1.400 . S
C851 C852 1.398 . S
C851 C857 1.491 . S
C852 H843 0.950 . S
C852 C851 1.398 . S
C852 C853 1.391 . S
C853 H841 0.950 . S
C853 C849 1.393 . S
C853 C852 1.391 . S
C854 H844 0.950 . S
C854 C855 1.386 . S
C854 C856 1.391 . S
C855 C854 1.386 . S
C855 C859 1.393 . S
C856 H845 0.950 . S
C856 C854 1.391 . S
C856 C857 1.400 . S
C857 C851 1.491 . S
C857 C856 1.400 . S
C857 C858 1.398 . S
C858 H846 0.950 . S
C858 C857 1.398 . S
C858 C859 1.391 . S
C859 H847 0.950 . S
C859 C855 1.393 . S
C859 C858 1.391 . S
H860 C868 0.950 . S
H861 C873 0.950 . S
H862 C870 0.950 . S
H863 C872 0.950 . S
H864 C874 0.950 . S
H865 C876 0.950 . S
H866 C878 0.950 . S
H867 C879 0.950 . S
C868 H860 0.950 . S
C868 C869 1.386 . S
C868 C870 1.391 . S
C869 C868 1.386 . S
C869 C873 1.393 . S
C870 H862 0.950 . S
C870 C868 1.391 . S
C870 C871 1.400 . S
C871 C870 1.400 . S
C871 C872 1.398 . S
C871 C877 1.491 . S
C872 H863 0.950 . S
C872 C871 1.398 . S
C872 C873 1.391 . S
C873 H861 0.950 . S
C873 C869 1.393 . S
C873 C872 1.391 . S
C874 H864 0.950 . S
C874 C875 1.386 . S
C874 C876 1.391 . S
C875 C874 1.386 . S
C875 C879 1.393 . S
C876 H865 0.950 . S
C876 C874 1.391 . S
C876 C877 1.400 . S
C877 C871 1.491 . S
C877 C876 1.400 . S
C877 C878 1.398 . S
C878 H866 0.950 . S
C878 C877 1.398 . S
C878 C879 1.391 . S
C879 H867 0.950 . S
C879 C875 1.393 . S
C879 C878 1.391 . S
H880 C888 0.950 . S
H881 C893 0.950 . S
H882 C890 0.950 . S
H883 C892 0.950 . S
H884 C894 0.950 . S
H885 C896 0.950 . S
H886 C898 0.950 . S
H887 C899 0.950 . S
C888 H880 0.950 . S
C888 C889 1.386 . S
C888 C890 1.391 . S
C889 C888 1.386 . S
C889 C893 1.393 . S
C890 H882 0.950 . S
C890 C888 1.391 . S
C890 C891 1.400 . S
C891 C890 1.400 . S
C891 C892 1.398 . S
C891 C897 1.491 . S
C892 H883 0.950 . S
C892 C891 1.398 . S
C892 C893 1.391 . S
C893 H881 0.950 . S
C893 C889 1.393 . S
C893 C892 1.391 . S
C894 H884 0.950 . S
C894 C895 1.386 . S
C894 C896 1.391 . S
C895 C894 1.386 . S
C895 C899 1.393 . S
C896 H885 0.950 . S
C896 C894 1.391 . S
C896 C897 1.400 . S
C897 C891 1.491 . S
C897 C896 1.400 . S
C897 C898 1.398 . S
C898 H886 0.950 . S
C898 C897 1.398 . S
C898 C899 1.391 . S
C899 H887 0.950 . S
C899 C895 1.393 . S
C899 C898 1.391 . S
H900 C908 0.950 . S
H901 C913 0.950 . S
H902 C910 0.950 . S
H903 C912 0.950 . S
H904 C914 0.950 . S
H905 C916 0.950 . S
H906 C918 0.950 . S
H907 C919 0.976 . S
C908 H900 0.950 . S
C908 C909 1.386 . S
C908 C910 1.391 . S
C909 C908 1.386 . S
C909 C913 1.393 . S
C910 H902 0.950 . S
C910 C908 1.391 . S
C910 C911 1.400 . S
C911 C910 1.400 . S
C911 C912 1.398 . S
C911 C917 1.491 . S
C912 H903 0.950 . S
C912 C911 1.398 . S
C912 C913 1.391 . S
C913 H901 0.950 . S
C913 C909 1.393 . S
C913 C912 1.391 . S
C914 H904 0.950 . S
C914 C915 1.386 . S
C914 C916 1.391 . S
C915 C914 1.386 . S
C915 C919 1.393 . S
C916 H905 0.950 . S
C916 C914 1.391 . S
C916 C917 1.400 . S
C917 C911 1.491 . S
C917 C916 1.400 . S
C917 C918 1.398 . S
C918 H906 0.950 . S
C918 C917 1.398 . S
C918 C919 1.391 . S
C919 H907 0.976 . S
C919 C915 1.393 . S
C919 C918 1.391 . S
H920 C928 0.950 . S
H921 C933 0.950 . S
H922 C930 0.950 . S
H923 C932 0.950 . S
H924 C934 0.950 . S
H925 C936 0.950 . S
H926 C938 0.950 . S
H927 C939 0.950 . S
C928 H920 0.950 . S
C928 C929 1.386 . S
C928 C930 1.391 . S
C929 C928 1.386 . S
C929 C933 1.393 . S
C930 H922 0.950 . S
C930 C928 1.391 . S
C930 C931 1.400 . S
C931 C930 1.400 . S
C931 C932 1.398 . S
C931 C937 1.491 . S
C932 H923 0.950 . S
C932 C931 1.398 . S
C932 C933 1.391 . S
C933 H921 0.950 . S
C933 C929 1.393 . S
C933 C932 1.391 . S
C934 H924 0.950 . S
C934 C935 1.386 . S
C934 C936 1.391 . S
C935 C934 1.386 . S
C935 C939 1.393 . S
C936 H925 0.950 . S
C936 C934 1.391 . S
C936 C937 1.400 . S
C937 C931 1.491 . S
C937 C936 1.400 . S
C937 C938 1.398 . S
C938 H926 0.950 . S
C938 C937 1.398 . S
C938 C939 1.391 . S
C939 H927 0.950 . S
C939 C935 1.393 . S
C939 C938 1.391 . S
H940 C948 0.950 . S
H941 C953 0.950 . S
H942 C950 0.950 . S
H943 C952 0.950 . S
H944 C954 0.950 . S
H945 C956 0.950 . S
H946 C958 0.950 . S
H947 C959 0.950 . S
C948 H940 0.950 . S
C948 C949 1.386 . S
C948 C950 1.391 . S
C949 C948 1.386 . S
C949 C953 1.393 . S
C950 H942 0.950 . S
C950 C948 1.391 . S
C950 C951 1.400 . S
C951 C950 1.400 . S
C951 C952 1.398 . S
C951 C957 1.491 . S
C952 H943 0.950 . S
C952 C951 1.398 . S
C952 C953 1.391 . S
C953 H941 0.950 . S
C953 C949 1.393 . S
C953 C952 1.391 . S
C954 H944 0.950 . S
C954 C955 1.386 . S
C954 C956 1.391 . S
C955 C954 1.386 . S
C955 C959 1.393 . S
C956 H945 0.950 . S
C956 C954 1.391 . S
C956 C957 1.400 1_455 S
C957 C951 1.491 . S
C957 C956 1.400 1_655 S
C957 C958 1.398 . S
C958 H946 0.950 . S
C958 C957 1.398 . S
C958 C959 1.391 1_655 S
C959 H947 0.950 . S
C959 C955 1.393 . S
C959 C958 1.391 1_455 S
H960 C968 0.950 . S
H961 C973 0.950 . S
H962 C970 0.950 . S
H963 C972 0.950 . S
H964 C974 0.950 . S
H965 C976 0.950 . S
H966 C978 0.950 . S
H967 C979 0.950 . S
C968 H960 0.950 . S
C968 C969 1.386 . S
C968 C970 1.391 . S
C969 C968 1.386 . S
C969 C973 1.393 . S
C970 H962 0.950 . S
C970 C968 1.391 . S
C970 C971 1.400 . S
C971 C970 1.400 . S
C971 C972 1.398 . S
C971 C977 1.491 . S
C972 H963 0.950 . S
C972 C971 1.398 . S
C972 C973 1.391 . S
C973 H961 0.950 . S
C973 C969 1.393 . S
C973 C972 1.391 . S
C974 H964 0.950 . S
C974 C975 1.386 . S
C974 C976 1.391 . S
C975 C974 1.386 . S
C975 C979 1.393 . S
C976 H965 0.950 . S
C976 C974 1.391 . S
C976 C977 1.400 . S
C977 C971 1.491 . S
C977 C976 1.400 . S
C977 C978 1.398 . S
C978 H966 0.950 . S
C978 C977 1.398 . S
C978 C979 1.391 . S
C979 H967 0.950 . S
C979 C975 1.393 . S
C979 C978 1.391 . S
H980 C988 0.950 . S
H981 C993 0.950 . S
H982 C990 0.950 . S
H983 C992 0.950 . S
H984 C994 0.950 . S
H985 C996 0.950 . S
H986 C998 0.950 . S
H987 C999 0.950 . S
C988 H980 0.950 . S
C988 C989 1.386 . S
C988 C990 1.391 . S
C989 C988 1.386 . S
C989 C993 1.393 . S
C990 H982 0.950 . S
C990 C988 1.391 . S
C990 C991 1.400 . S
C991 C990 1.400 . S
C991 C992 1.398 . S
C991 C997 1.491 . S
C992 H983 0.950 . S
C992 C991 1.398 . S
C992 C993 1.391 . S
C993 H981 0.950 . S
C993 C989 1.393 . S
C993 C992 1.391 . S
C994 H984 0.950 . S
C994 C995 1.386 . S
C994 C996 1.391 . S
C995 C994 1.386 . S
C995 C999 1.393 . S
C996 H985 0.950 . S
C996 C994 1.391 . S
C996 C997 1.400 . S
C997 C991 1.491 . S
C997 C996 1.400 . S
C997 C998 1.398 . S
C998 H986 0.950 . S
C998 C997 1.398 . S
C998 C999 1.391 . S
C999 H987 0.950 . S
C999 C995 1.393 . S
C999 C998 1.391 . S
H1000 C1008 0.950 . S
H1001 C1013 0.950 . S
H1002 C1010 0.950 . S
H1003 C1012 0.950 . S
H1004 C1014 0.950 . S
H1005 C1016 0.950 . S
H1006 C1018 0.950 . S
H1007 C1019 0.950 . S
C1008 H1000 0.950 . S
C1008 C1009 1.386 1_564 S
C1008 C1010 1.391 . S
C1009 C1008 1.386 1_546 S
C1009 C1013 1.393 . S
C1010 H1002 0.950 . S
C1010 C1008 1.391 . S
C1010 C1011 1.400 1_554 S
C1011 C1010 1.400 1_556 S
C1011 C1012 1.398 1_565 S
C1011 C1017 1.491 1_556 S
C1012 H1003 0.950 . S
C1012 C1011 1.398 1_545 S
C1012 C1013 1.391 . S
C1013 H1001 0.950 . S
C1013 C1009 1.393 . S
C1013 C1012 1.391 . S
C1014 H1004 0.950 . S
C1014 C1015 1.386 1_556 S
C1014 C1016 1.391 . S
C1015 C1014 1.386 1_554 S
C1015 C1019 1.393 . S
C1016 H1005 0.950 . S
C1016 C1014 1.391 . S
C1016 C1017 1.400 1_556 S
C1017 C1011 1.491 1_554 S
C1017 C1016 1.400 1_554 S
C1017 C1018 1.398 . S
C1018 H1006 0.950 . S
C1018 C1017 1.398 . S
C1018 C1019 1.391 . S
C1019 H1007 0.950 . S
C1019 C1015 1.393 . S
C1019 C1018 1.391 . S
H1020 C1028 0.950 . S
H1021 C1033 0.950 . S
H1022 C1030 0.950 . S
H1023 C1032 0.950 . S
H1024 C1034 0.950 . S
H1025 C1036 0.950 . S
H1026 C1038 0.950 . S
H1027 C1039 0.950 . S
C1028 H1020 0.950 . S
C1028 C1029 1.386 . S
C1028 C1030 1.391 . S
C1029 C1028 1.386 . S
C1029 C1033 1.393 . S
C1030 H1022 0.950 . S
C1030 C1028 1.391 . S
C1030 C1031 1.400 . S
C1031 C1030 1.400 . S
C1031 C1032 1.398 . S
C1031 C1037 1.491 . S
C1032 H1023 0.950 . S
C1032 C1031 1.398 . S
C1032 C1033 1.391 . S
C1033 H1021 0.950 . S
C1033 C1029 1.393 . S
C1033 C1032 1.391 . S
C1034 H1024 0.950 . S
C1034 C1035 1.386 . S
C1034 C1036 1.391 . S
C1035 C1034 1.386 . S
C1035 C1039 1.393 . S
C1036 H1025 0.950 . S
C1036 C1034 1.391 . S
C1036 C1037 1.400 . S
C1037 C1031 1.491 . S
C1037 C1036 1.400 . S
C1037 C1038 1.398 . S
C1038 H1026 0.950 . S
C1038 C1037 1.398 . S
C1038 C1039 1.391 . S
C1039 H1027 0.950 . S
C1039 C1035 1.393 . S
C1039 C1038 1.391 . S
H1040 C1048 0.950 . S
H1041 C1053 0.950 . S
H1042 C1050 0.950 . S
H1043 C1052 0.950 . S
H1044 C1054 0.950 . S
H1045 C1056 0.950 . S
H1046 C1058 0.950 . S
H1047 C1059 0.950 . S
C1048 H1040 0.950 . S
C1048 C1049 1.386 . S
C1048 C1050 1.391 . S
C1049 C1048 1.386 . S
C1049 C1053 1.393 . S
C1050 H1042 0.950 . S
C1050 C1048 1.391 . S
C1050 C1051 1.400 . S
C1051 C1050 1.400 . S
C1051 C1052 1.398 . S
C1051 C1057 1.491 . S
C1052 H1043 0.950 . S
C1052 C1051 1.398 . S
C1052 C1053 1.391 . S
C1053 H1041 0.950 . S
C1053 C1049 1.393 . S
C1053 C1052 1.391 . S
C1054 H1044 0.950 . S
C1054 C1055 1.386 . S
C1054 C1056 1.391 . S
C1055 C1054 1.386 . S
C1055 C1059 1.393 . S
C1056 H1045 0.950 . S
C1056 C1054 1.391 . S
C1056 C1057 1.400 . S
C1057 C1051 1.491 . S
C1057 C1056 1.400 . S
C1057 C1058 1.398 . S
C1058 H1046 0.950 . S
C1058 C1057 1.398 . S
C1058 C1059 1.391 . S
C1059 H1047 0.950 . S
C1059 C1055 1.393 . S
C1059 C1058 1.391 . S
H1060 C1068 0.950 . S
H1061 C1073 0.950 . S
H1062 C1070 0.950 . S
H1063 C1072 0.950 . S
H1064 C1074 0.950 . S
H1065 C1076 0.950 . S
H1066 C1078 0.950 . S
H1067 C1079 0.950 . S
C1068 H1060 0.950 . S
C1068 C1069 1.386 . S
C1068 C1070 1.391 . S
C1069 C1068 1.386 . S
C1069 C1073 1.393 . S
C1070 H1062 0.950 . S
C1070 C1068 1.391 . S
C1070 C1071 1.400 . S
C1071 C1070 1.400 . S
C1071 C1072 1.398 . S
C1071 C1077 1.491 . S
C1072 H1063 0.950 . S
C1072 C1071 1.398 . S
C1072 C1073 1.391 . S
C1073 H1061 0.950 . S
C1073 C1069 1.393 . S
C1073 C1072 1.391 . S
C1074 H1064 0.950 . S
C1074 C1075 1.386 . S
C1074 C1076 1.391 . S
C1075 C1074 1.386 . S
C1075 C1079 1.393 . S
C1076 H1065 0.950 . S
C1076 C1074 1.391 . S
C1076 C1077 1.400 . S
C1077 C1071 1.491 . S
C1077 C1076 1.400 . S
C1077 C1078 1.398 . S
C1078 H1066 0.950 . S
C1078 C1077 1.398 . S
C1078 C1079 1.391 . S
C1079 H1067 0.950 . S
C1079 C1075 1.393 . S
C1079 C1078 1.391 . S
H1080 C1088 0.950 1_565 S
H1081 C1093 0.950 . S
H1082 C1090 0.950 . S
H1083 C1092 0.950 . S
H1084 C1094 0.950 . S
H1085 C1096 0.950 . S
H1086 C1098 0.950 . S
H1087 C1099 0.950 . S
C1088 H1080 0.950 1_545 S
C1088 C1089 1.386 . S
C1088 C1090 1.391 . S
C1089 C1088 1.386 . S
C1089 C1093 1.393 . S
C1090 H1082 0.950 . S
C1090 C1088 1.391 . S
C1090 C1091 1.400 . S
C1091 C1090 1.400 . S
C1091 C1092 1.398 . S
C1091 C1097 1.491 . S
C1092 H1083 0.950 . S
C1092 C1091 1.398 . S
C1092 C1093 1.391 . S
C1093 H1081 0.950 . S
C1093 C1089 1.393 . S
C1093 C1092 1.391 . S
C1094 H1084 0.950 . S
C1094 C1095 1.386 . S
C1094 C1096 1.391 . S
C1095 C1094 1.386 . S
C1095 C1099 1.393 . S
C1096 H1085 0.950 . S
C1096 C1094 1.391 . S
C1096 C1097 1.400 . S
C1097 C1091 1.491 . S
C1097 C1096 1.400 . S
C1097 C1098 1.398 . S
C1098 H1086 0.950 . S
C1098 C1097 1.398 . S
C1098 C1099 1.391 . S
C1099 H1087 0.950 . S
C1099 C1095 1.393 . S
C1099 C1098 1.391 . S
H1100 C1108 0.950 . S
H1101 C1113 0.950 . S
H1102 C1110 0.950 . S
H1103 C1112 0.950 . S
H1104 C1114 0.950 . S
H1105 C1116 0.950 . S
H1106 C1118 0.950 . S
H1107 C1119 0.950 . S
C1108 H1100 0.950 . S
C1108 C1109 1.386 . S
C1108 C1110 1.391 . S
C1109 C1108 1.386 . S
C1109 C1113 1.393 . S
C1110 H1102 0.950 . S
C1110 C1108 1.391 . S
C1110 C1111 1.400 . S
C1111 C1110 1.400 . S
C1111 C1112 1.398 . S
C1111 C1117 1.491 . S
C1112 H1103 0.950 . S
C1112 C1111 1.398 . S
C1112 C1113 1.391 . S
C1113 H1101 0.950 . S
C1113 C1109 1.393 . S
C1113 C1112 1.391 . S
C1114 H1104 0.950 . S
C1114 C1115 1.386 . S
C1114 C1116 1.391 . S
C1115 C1114 1.386 . S
C1115 C1119 1.393 . S
C1116 H1105 0.950 . S
C1116 C1114 1.391 . S
C1116 C1117 1.400 . S
C1117 C1111 1.491 . S
C1117 C1116 1.400 . S
C1117 C1118 1.398 . S
C1118 H1106 0.950 . S
C1118 C1117 1.398 . S
C1118 C1119 1.391 . S
C1119 H1107 0.950 . S
C1119 C1115 1.393 . S
C1119 C1118 1.391 . S
H1120 C1128 0.950 . S
H1121 C1133 0.950 . S
H1122 C1130 0.950 . S
H1123 C1132 0.950 . S
H1124 C1134 0.950 . S
H1125 C1136 0.950 . S
H1126 C1138 0.950 . S
H1127 C1139 0.950 . S
C1128 H1120 0.950 . S
C1128 C1129 1.386 . S
C1128 C1130 1.391 . S
C1129 C1128 1.386 . S
C1129 C1133 1.393 . S
C1130 H1122 0.950 . S
C1130 C1128 1.391 . S
C1130 C1131 1.400 . S
C1131 C1130 1.400 . S
C1131 C1132 1.398 . S
C1131 C1137 1.491 . S
C1132 H1123 0.950 . S
C1132 C1131 1.398 . S
C1132 C1133 1.391 . S
C1133 H1121 0.950 . S
C1133 C1129 1.393 . S
C1133 C1132 1.391 . S
C1134 H1124 0.950 . S
C1134 C1135 1.386 . S
C1134 C1136 1.391 . S
C1135 C1134 1.386 . S
C1135 C1139 1.393 . S
C1136 H1125 0.950 . S
C1136 C1134 1.391 . S
C1136 C1137 1.400 . S
C1137 C1131 1.491 . S
C1137 C1136 1.400 . S
C1137 C1138 1.398 . S
C1138 H1126 0.950 . S
C1138 C1137 1.398 . S
C1138 C1139 1.391 . S
C1139 H1127 0.950 . S
C1139 C1135 1.393 . S
C1139 C1138 1.391 . S
H1140 C1148 0.950 . S
H1141 C1153 0.950 . S
H1142 C1150 0.950 . S
H1143 C1152 0.950 . S
H1144 C1154 0.950 . S
H1145 C1156 0.950 . S
H1146 C1158 0.950 . S
H1147 C1159 0.950 . S
C1148 H1140 0.950 . S
C1148 C1149 1.386 . S
C1148 C1150 1.391 . S
C1149 C1148 1.386 . S
C1149 C1153 1.393 . S
C1150 H1142 0.950 . S
C1150 C1148 1.391 . S
C1150 C1151 1.400 . S
C1151 C1150 1.400 . S
C1151 C1152 1.398 . S
C1151 C1157 1.491 . S
C1152 H1143 0.950 . S
C1152 C1151 1.398 . S
C1152 C1153 1.391 . S
C1153 H1141 0.950 . S
C1153 C1149 1.393 . S
C1153 C1152 1.391 . S
C1154 H1144 0.950 . S
C1154 C1155 1.386 . S
C1154 C1156 1.391 . S
C1155 C1154 1.386 . S
C1155 C1159 1.393 . S
C1156 H1145 0.950 . S
C1156 C1154 1.391 . S
C1156 C1157 1.400 . S
C1157 C1151 1.491 . S
C1157 C1156 1.400 . S
C1157 C1158 1.398 . S
C1158 H1146 0.950 . S
C1158 C1157 1.398 . S
C1158 C1159 1.391 . S
C1159 H1147 0.950 . S
C1159 C1155 1.393 . S
C1159 C1158 1.391 . S
H1160 C1168 0.950 . S
H1161 C1173 0.950 . S
H1162 C1170 0.950 . S
H1163 C1172 0.950 . S
H1164 C1174 0.950 . S
H1165 C1176 0.950 . S
H1166 C1178 0.950 . S
H1167 C1179 0.950 . S
C1168 H1160 0.950 . S
C1168 C1169 1.386 . S
C1168 C1170 1.391 . S
C1169 C1168 1.386 . S
C1169 C1173 1.393 . S
C1170 H1162 0.950 . S
C1170 C1168 1.391 . S
C1170 C1171 1.400 . S
C1171 C1170 1.400 . S
C1171 C1172 1.398 . S
C1171 C1177 1.491 . S
C1172 H1163 0.950 . S
C1172 C1171 1.398 . S
C1172 C1173 1.391 . S
C1173 H1161 0.950 . S
C1173 C1169 1.393 . S
C1173 C1172 1.391 . S
C1174 H1164 0.950 . S
C1174 C1175 1.386 . S
C1174 C1176 1.391 . S
C1175 C1174 1.386 . S
C1175 C1179 1.393 . S
C1176 H1165 0.950 . S
C1176 C1174 1.391 . S
C1176 C1177 1.400 . S
C1177 C1171 1.491 . S
C1177 C1176 1.400 . S
C1177 C1178 1.398 . S
C1178 H1166 0.950 . S
C1178 C1177 1.398 . S
C1178 C1179 1.391 . S
C1179 H1167 0.950 . S
C1179 C1175 1.393 . S
C1179 C1178 1.391 . S
H1180 C1188 0.950 . S
H1181 C1193 0.950 . S
H1182 C1190 0.950 . S
H1183 C1192 0.950 . S
H1184 C1194 0.950 . S
H1185 C1196 0.950 . S
H1186 C1198 0.950 . S
H1187 C1199 0.950 . S
C1188 H1180 0.950 . S
C1188 C1189 1.386 . S
C1188 C1190 1.391 . S
C1189 C1188 1.386 . S
C1189 C1193 1.393 . S
C1190 H1182 0.950 . S
C1190 C1188 1.391 . S
C1190 C1191 1.400 . S
C1191 C1190 1.400 . S
C1191 C1192 1.398 . S
C1191 C1197 1.491 . S
C1192 H1183 0.950 . S
C1192 C1191 1.398 . S
C1192 C1193 1.391 . S
C1193 H1181 0.950 . S
C1193 C1189 1.393 . S
C1193 C1192 1.391 . S
C1194 H1184 0.950 . S
C1194 C1195 1.386 . S
C1194 C1196 1.391 . S
C1195 C1194 1.386 . S
C1195 C1199 1.393 . S
C1196 H1185 0.950 . S
C1196 C1194 1.391 . S
C1196 C1197 1.400 . S
C1197 C1191 1.491 . S
C1197 C1196 1.400 . S
C1197 C1198 1.398 . S
C1198 H1186 0.950 . S
C1198 C1197 1.398 . S
C1198 C1199 1.391 . S
C1199 H1187 0.950 . S
C1199 C1195 1.393 . S
C1199 C1198 1.391 . S
H1200 C1208 0.950 . S
H1201 C1213 0.950 . S
H1202 C1210 0.950 . S
H1203 C1212 0.950 . S
H1204 C1214 0.950 . S
H1205 C1216 0.950 . S
H1206 C1218 0.950 . S
H1207 C1219 0.950 . S
C1208 H1200 0.950 . S
C1208 C1209 1.386 . S
C1208 C1210 1.391 . S
C1209 C1208 1.386 . S
C1209 C1213 1.393 . S
C1210 H1202 0.950 . S
C1210 C1208 1.391 . S
C1210 C1211 1.400 . S
C1211 C1210 1.400 . S
C1211 C1212 1.398 . S
C1211 C1217 1.491 . S
C1212 H1203 0.950 . S
C1212 C1211 1.398 . S
C1212 C1213 1.391 . S
C1213 H1201 0.950 . S
C1213 C1209 1.393 . S
C1213 C1212 1.391 . S
C1214 H1204 0.950 . S
C1214 C1215 1.386 . S
C1214 C1216 1.391 . S
C1215 C1214 1.386 . S
C1215 C1219 1.393 . S
C1216 H1205 0.950 . S
C1216 C1214 1.391 . S
C1216 C1217 1.400 . S
C1217 C1211 1.491 . S
C1217 C1216 1.400 . S
C1217 C1218 1.398 . S
C1218 H1206 0.950 . S
C1218 C1217 1.398 . S
C1218 C1219 1.391 . S
C1219 H1207 0.950 . S
C1219 C1215 1.393 . S
C1219 C1218 1.391 . S
H1220 C1228 0.950 . S
H1221 C1233 0.950 1_455 S
H1222 C1230 0.950 . S
H1223 C1232 0.950 . S
H1224 C1234 0.950 . S
H1225 C1236 0.950 . S
H1226 C1238 0.950 . S
H1227 C1239 0.950 . S
C1228 H1220 0.950 . S
C1228 C1229 1.386 . S
C1228 C1230 1.391 . S
C1229 C1228 1.386 . S
C1229 C1233 1.393 . S
C1230 H1222 0.950 . S
C1230 C1228 1.391 . S
C1230 C1231 1.400 . S
C1231 C1230 1.400 . S
C1231 C1232 1.398 . S
C1231 C1237 1.491 . S
C1232 H1223 0.950 . S
C1232 C1231 1.398 . S
C1232 C1233 1.391 . S
C1233 H1221 0.950 1_655 S
C1233 C1229 1.393 . S
C1233 C1232 1.391 . S
C1234 H1224 0.950 . S
C1234 C1235 1.386 . S
C1234 C1236 1.391 . S
C1235 C1234 1.386 . S
C1235 C1239 1.393 . S
C1236 H1225 0.950 . S
C1236 C1234 1.391 . S
C1236 C1237 1.400 . S
C1237 C1231 1.491 . S
C1237 C1236 1.400 . S
C1237 C1238 1.398 . S
C1238 H1226 0.950 . S
C1238 C1237 1.398 . S
C1238 C1239 1.391 . S
C1239 H1227 0.950 . S
C1239 C1235 1.393 . S
C1239 C1238 1.391 . S
H1240 C1248 0.950 . S
H1241 C1253 0.950 . S
H1242 C1250 0.950 . S
H1243 C1252 0.950 . S
H1244 C1254 0.950 . S
H1245 C1256 0.950 . S
H1246 C1258 0.950 . S
H1247 C1259 0.950 . S
C1248 H1240 0.950 . S
C1248 C1249 1.386 . S
C1248 C1250 1.391 . S
C1249 C1248 1.386 . S
C1249 C1253 1.393 . S
C1250 H1242 0.950 . S
C1250 C1248 1.391 . S
C1250 C1251 1.400 . S
C1251 C1250 1.400 . S
C1251 C1252 1.398 . S
C1251 C1257 1.491 . S
C1252 H1243 0.950 . S
C1252 C1251 1.398 . S
C1252 C1253 1.391 . S
C1253 H1241 0.950 . S
C1253 C1249 1.393 . S
C1253 C1252 1.391 . S
C1254 H1244 0.950 . S
C1254 C1255 1.386 . S
C1254 C1256 1.391 . S
C1255 C1254 1.386 . S
C1255 C1259 1.393 . S
C1256 H1245 0.950 . S
C1256 C1254 1.391 . S
C1256 C1257 1.400 . S
C1257 C1251 1.491 . S
C1257 C1256 1.400 . S
C1257 C1258 1.398 . S
C1258 H1246 0.950 . S
C1258 C1257 1.398 . S
C1258 C1259 1.391 . S
C1259 H1247 0.950 . S
C1259 C1255 1.393 . S
C1259 C1258 1.391 . S
H1260 C1268 0.950 . S
H1261 C1273 0.950 . S
H1262 C1270 0.950 . S
H1263 C1272 0.950 . S
H1264 C1274 0.950 . S
H1265 C1276 0.950 . S
H1266 C1278 0.950 . S
H1267 C1279 0.950 . S
C1268 H1260 0.950 . S
C1268 C1269 1.386 . S
C1268 C1270 1.391 . S
C1269 C1268 1.386 . S
C1269 C1273 1.393 . S
C1270 H1262 0.950 . S
C1270 C1268 1.391 . S
C1270 C1271 1.400 . S
C1271 C1270 1.400 . S
C1271 C1272 1.398 . S
C1271 C1277 1.491 . S
C1272 H1263 0.950 . S
C1272 C1271 1.398 . S
C1272 C1273 1.391 . S
C1273 H1261 0.950 . S
C1273 C1269 1.393 . S
C1273 C1272 1.391 . S
C1274 H1264 0.950 . S
C1274 C1275 1.386 . S
C1274 C1276 1.391 . S
C1275 C1274 1.386 . S
C1275 C1279 1.393 . S
C1276 H1265 0.950 . S
C1276 C1274 1.391 . S
C1276 C1277 1.400 . S
C1277 C1271 1.491 . S
C1277 C1276 1.400 . S
C1277 C1278 1.398 . S
C1278 H1266 0.950 . S
C1278 C1277 1.398 . S
C1278 C1279 1.391 . S
C1279 H1267 0.950 . S
C1279 C1275 1.393 . S
C1279 C1278 1.391 . S
H1280 C1288 0.950 . S
H1281 C1293 0.950 . S
H1282 C1290 0.950 . S
H1283 C1292 0.950 . S
H1284 C1294 0.950 . S
H1285 C1296 0.950 . S
H1286 C1298 0.950 . S
H1287 C1299 0.950 . S
C1288 H1280 0.950 . S
C1288 C1289 1.386 . S
C1288 C1290 1.391 . S
C1289 C1288 1.386 . S
C1289 C1293 1.393 . S
C1290 H1282 0.950 . S
C1290 C1288 1.391 . S
C1290 C1291 1.400 . S
C1291 C1290 1.400 . S
C1291 C1292 1.398 . S
C1291 C1297 1.491 . S
C1292 H1283 0.950 . S
C1292 C1291 1.398 . S
C1292 C1293 1.391 . S
C1293 H1281 0.950 . S
C1293 C1289 1.393 . S
C1293 C1292 1.391 . S
C1294 H1284 0.950 . S
C1294 C1295 1.386 . S
C1294 C1296 1.391 . S
C1295 C1294 1.386 . S
C1295 C1299 1.393 . S
C1296 H1285 0.950 . S
C1296 C1294 1.391 . S
C1296 C1297 1.400 . S
C1297 C1291 1.491 . S
C1297 C1296 1.400 . S
C1297 C1298 1.398 . S
C1298 H1286 0.950 . S
C1298 C1297 1.398 . S
C1298 C1299 1.391 . S
C1299 H1287 0.950 . S
C1299 C1295 1.393 . S
C1299 C1298 1.391 . S
H1300 C1308 0.950 . S
H1301 C1313 0.950 . S
H1302 C1310 0.950 . S
H1303 C1312 0.950 . S
H1304 C1314 0.950 . S
H1305 C1316 0.950 . S
H1306 C1318 0.950 . S
H1307 C1319 0.950 . S
C1308 H1300 0.950 . S
C1308 C1309 1.386 . S
C1308 C1310 1.391 . S
C1309 C1308 1.386 . S
C1309 C1313 1.393 1_655 S
C1310 H1302 0.950 . S
C1310 C1308 1.391 . S
C1310 C1311 1.400 . S
C1311 C1310 1.400 . S
C1311 C1312 1.398 1_655 S
C1311 C1317 1.491 1_554 S
C1312 H1303 0.950 . S
C1312 C1311 1.398 1_455 S
C1312 C1313 1.391 . S
C1313 H1301 0.950 . S
C1313 C1309 1.393 1_455 S
C1313 C1312 1.391 . S
C1314 H1304 0.950 . S
C1314 C1315 1.386 . S
C1314 C1316 1.391 . S
C1315 C1314 1.386 . S
C1315 C1319 1.393 1_455 S
C1316 H1305 0.950 . S
C1316 C1314 1.391 . S
C1316 C1317 1.400 1_455 S
C1317 C1311 1.491 1_556 S
C1317 C1316 1.400 1_655 S
C1317 C1318 1.398 . S
C1318 H1306 0.950 . S
C1318 C1317 1.398 . S
C1318 C1319 1.391 . S
C1319 H1307 0.950 . S
C1319 C1315 1.393 1_655 S
C1319 C1318 1.391 . S
H1320 C1328 0.950 . S
H1321 C1333 0.950 . S
H1322 C1330 0.950 . S
H1323 C1332 0.950 . S
H1324 C1334 0.950 . S
H1325 C1336 0.950 . S
H1326 C1338 0.950 . S
H1327 C1339 0.950 . S
C1328 H1320 0.950 . S
C1328 C1329 1.386 . S
C1328 C1330 1.391 . S
C1329 C1328 1.386 . S
C1329 C1333 1.393 . S
C1330 H1322 0.950 . S
C1330 C1328 1.391 . S
C1330 C1331 1.400 . S
C1331 C1330 1.400 . S
C1331 C1332 1.398 . S
C1331 C1337 1.491 . S
C1332 H1323 0.950 . S
C1332 C1331 1.398 . S
C1332 C1333 1.391 . S
C1333 H1321 0.950 . S
C1333 C1329 1.393 . S
C1333 C1332 1.391 . S
C1334 H1324 0.950 . S
C1334 C1335 1.386 . S
C1334 C1336 1.391 . S
C1335 C1334 1.386 . S
C1335 C1339 1.393 . S
C1336 H1325 0.950 . S
C1336 C1334 1.391 . S
C1336 C1337 1.400 . S
C1337 C1331 1.491 . S
C1337 C1336 1.400 . S
C1337 C1338 1.398 . S
C1338 H1326 0.950 . S
C1338 C1337 1.398 . S
C1338 C1339 1.391 . S
C1339 H1327 0.950 . S
C1339 C1335 1.393 . S
C1339 C1338 1.391 . S
H1340 C1348 0.950 . S
H1341 C1353 0.950 . S
H1342 C1350 0.950 . S
H1343 C1352 0.950 . S
H1344 C1354 0.950 . S
H1345 C1356 0.950 . S
H1346 C1358 0.950 . S
H1347 C1359 0.950 . S
C1348 H1340 0.950 . S
C1348 C1349 1.386 . S
C1348 C1350 1.391 1_554 S
C1349 C1348 1.386 . S
C1349 C1353 1.393 1_455 S
C1350 H1342 0.950 . S
C1350 C1348 1.391 1_556 S
C1350 C1351 1.400 . S
C1351 C1350 1.400 . S
C1351 C1352 1.398 1_456 S
C1351 C1357 1.491 . S
C1352 H1343 0.950 . S
C1352 C1351 1.398 1_654 S
C1352 C1353 1.391 . S
C1353 H1341 0.950 . S
C1353 C1349 1.393 1_655 S
C1353 C1352 1.391 . S
C1354 H1344 0.950 . S
C1354 C1355 1.386 1_655 S
C1354 C1356 1.391 . S
C1355 C1354 1.386 1_455 S
C1355 C1359 1.393 . S
C1356 H1345 0.950 . S
C1356 C1354 1.391 . S
C1356 C1357 1.400 1_655 S
C1357 C1351 1.491 . S
C1357 C1356 1.400 1_455 S
C1357 C1358 1.398 . S
C1358 H1346 0.950 . S
C1358 C1357 1.398 . S
C1358 C1359 1.391 . S
C1359 H1347 0.950 . S
C1359 C1355 1.393 . S
C1359 C1358 1.391 . S
H1360 C1368 0.950 . S
H1361 C1373 0.950 . S
H1362 C1370 0.950 . S
H1363 C1372 0.950 . S
H1364 C1374 0.950 . S
H1365 C1376 0.950 . S
H1366 C1378 0.950 . S
H1367 C1379 0.950 . S
C1368 H1360 0.950 . S
C1368 C1369 1.386 . S
C1368 C1370 1.391 . S
C1369 C1368 1.386 . S
C1369 C1373 1.393 . S
C1370 H1362 0.950 . S
C1370 C1368 1.391 . S
C1370 C1371 1.400 . S
C1371 C1370 1.400 . S
C1371 C1372 1.398 . S
C1371 C1377 1.491 . S
C1372 H1363 0.950 . S
C1372 C1371 1.398 . S
C1372 C1373 1.391 . S
C1373 H1361 0.950 . S
C1373 C1369 1.393 . S
C1373 C1372 1.391 . S
C1374 H1364 0.950 . S
C1374 C1375 1.386 . S
C1374 C1376 1.391 . S
C1375 C1374 1.386 . S
C1375 C1379 1.393 . S
C1376 H1365 0.950 . S
C1376 C1374 1.391 . S
C1376 C1377 1.400 . S
C1377 C1371 1.491 . S
C1377 C1376 1.400 . S
C1377 C1378 1.398 . S
C1378 H1366 0.950 . S
C1378 C1377 1.398 . S
C1378 C1379 1.391 . S
C1379 H1367 0.950 . S
C1379 C1375 1.393 . S
C1379 C1378 1.391 . S
H1380 C1388 0.950 . S
H1381 C1393 0.926 1_556 S
H1382 C1390 0.950 . S
H1383 C1392 0.950 . S
H1384 C1394 0.950 . S
H1385 C1396 0.950 . S
H1386 C1398 0.950 . S
H1387 C1399 0.950 . S
C1388 H1380 0.950 . S
C1388 C1389 1.386 . S
C1388 C1390 1.391 . S
C1389 C1388 1.386 . S
C1389 C1393 1.398 . S
C1390 H1382 0.950 . S
C1390 C1388 1.391 . S
C1390 C1391 1.400 . S
C1391 C1390 1.400 . S
C1391 C1392 1.398 . S
C1391 C1397 1.491 . S
C1392 H1383 0.950 . S
C1392 C1391 1.398 . S
C1392 C1393 1.410 . S
C1393 H1381 0.926 1_554 S
C1393 C1389 1.398 . S
C1393 C1392 1.410 . S
C1394 H1384 0.950 . S
C1394 C1395 1.386 . S
C1394 C1396 1.391 . S
C1395 C1394 1.386 . S
C1395 C1399 1.393 . S
C1396 H1385 0.950 . S
C1396 C1394 1.391 . S
C1396 C1397 1.400 . S
C1397 C1391 1.491 . S
C1397 C1396 1.400 . S
C1397 C1398 1.398 . S
C1398 H1386 0.950 . S
C1398 C1397 1.398 . S
C1398 C1399 1.391 . S
C1399 H1387 0.950 . S
C1399 C1395 1.393 . S
C1399 C1398 1.391 . S
H1400 C1408 0.950 . S
H1401 C1413 0.950 . S
H1402 C1410 0.950 . S
H1403 C1412 0.950 . S
H1404 C1414 0.950 . S
H1405 C1416 0.950 . S
H1406 C1418 0.950 . S
H1407 C1419 0.950 . S
C1408 H1400 0.950 . S
C1408 C1409 1.386 . S
C1408 C1410 1.391 . S
C1409 C1408 1.386 . S
C1409 C1413 1.393 . S
C1410 H1402 0.950 . S
C1410 C1408 1.391 . S
C1410 C1411 1.400 . S
C1411 C1410 1.400 . S
C1411 C1412 1.398 . S
C1411 C1417 1.491 . S
C1412 H1403 0.950 . S
C1412 C1411 1.398 . S
C1412 C1413 1.391 . S
C1413 H1401 0.950 . S
C1413 C1409 1.393 . S
C1413 C1412 1.391 . S
C1414 H1404 0.950 . S
C1414 C1415 1.386 . S
C1414 C1416 1.391 . S
C1415 C1414 1.386 . S
C1415 C1419 1.393 . S
C1416 H1405 0.950 . S
C1416 C1414 1.391 . S
C1416 C1417 1.400 . S
C1417 C1411 1.491 . S
C1417 C1416 1.400 . S
C1417 C1418 1.398 . S
C1418 H1406 0.950 . S
C1418 C1417 1.398 . S
C1418 C1419 1.391 . S
C1419 H1407 0.950 . S
C1419 C1415 1.393 . S
C1419 C1418 1.391 . S
H1420 C1428 0.950 1_556 S
H1421 C1433 0.950 . S
H1422 C1430 0.950 . S
H1423 C1432 0.950 . S
H1424 C1434 0.950 . S
H1425 C1436 0.950 . S
H1426 C1438 0.950 . S
H1427 C1439 0.950 . S
C1428 H1420 0.950 1_554 S
C1428 C1429 1.386 . S
C1428 C1430 1.391 . S
C1429 C1428 1.386 . S
C1429 C1433 1.393 . S
C1430 H1422 0.950 . S
C1430 C1428 1.391 . S
C1430 C1431 1.400 . S
C1431 C1430 1.400 . S
C1431 C1432 1.398 . S
C1431 C1437 1.491 . S
C1432 H1423 0.950 . S
C1432 C1431 1.398 . S
C1432 C1433 1.391 . S
C1433 H1421 0.950 . S
C1433 C1429 1.393 . S
C1433 C1432 1.391 . S
C1434 H1424 0.950 . S
C1434 C1435 1.386 . S
C1434 C1436 1.391 . S
C1435 C1434 1.386 . S
C1435 C1439 1.393 . S
C1436 H1425 0.950 . S
C1436 C1434 1.391 . S
C1436 C1437 1.400 . S
C1437 C1431 1.491 . S
C1437 C1436 1.400 . S
C1437 C1438 1.398 . S
C1438 H1426 0.950 . S
C1438 C1437 1.398 . S
C1438 C1439 1.391 . S
C1439 H1427 0.950 . S
C1439 C1435 1.393 . S
C1439 C1438 1.391 . S
H1440 C1448 0.950 . S
H1441 C1453 0.950 . S
H1442 C1450 0.950 . S
H1443 C1452 0.950 . S
H1444 C1454 0.950 . S
H1445 C1456 0.950 . S
H1446 C1458 0.950 . S
H1447 C1459 0.950 . S
C1448 H1440 0.950 . S
C1448 C1449 1.386 . S
C1448 C1450 1.391 . S
C1449 C1448 1.386 . S
C1449 C1453 1.393 . S
C1450 H1442 0.950 . S
C1450 C1448 1.391 . S
C1450 C1451 1.400 . S
C1451 C1450 1.400 . S
C1451 C1452 1.398 . S
C1451 C1457 1.491 . S
C1452 H1443 0.950 . S
C1452 C1451 1.398 . S
C1452 C1453 1.391 . S
C1453 H1441 0.950 . S
C1453 C1449 1.393 . S
C1453 C1452 1.391 . S
C1454 H1444 0.950 . S
C1454 C1455 1.386 . S
C1454 C1456 1.391 . S
C1455 C1454 1.386 . S
C1455 C1459 1.393 . S
C1456 H1445 0.950 . S
C1456 C1454 1.391 . S
C1456 C1457 1.400 . S
C1457 C1451 1.491 . S
C1457 C1456 1.400 . S
C1457 C1458 1.398 . S
C1458 H1446 0.950 . S
C1458 C1457 1.398 . S
C1458 C1459 1.391 . S
C1459 H1447 0.950 . S
C1459 C1455 1.393 . S
C1459 C1458 1.391 . S
H1460 C1468 0.950 . S
H1461 C1473 0.950 . S
H1462 C1470 0.950 . S
H1463 C1472 0.950 . S
H1464 C1474 0.950 . S
H1465 C1476 0.950 . S
H1466 C1478 0.950 . S
H1467 C1479 0.950 . S
C1468 H1460 0.950 . S
C1468 C1469 1.386 . S
C1468 C1470 1.391 . S
C1469 C1468 1.386 . S
C1469 C1473 1.393 . S
C1470 H1462 0.950 . S
C1470 C1468 1.391 . S
C1470 C1471 1.400 . S
C1471 C1470 1.400 . S
C1471 C1472 1.398 . S
C1471 C1477 1.491 . S
C1472 H1463 0.950 . S
C1472 C1471 1.398 . S
C1472 C1473 1.391 . S
C1473 H1461 0.950 . S
C1473 C1469 1.393 . S
C1473 C1472 1.391 . S
C1474 H1464 0.950 . S
C1474 C1475 1.386 . S
C1474 C1476 1.391 . S
C1475 C1474 1.386 . S
C1475 C1479 1.393 . S
C1476 H1465 0.950 . S
C1476 C1474 1.391 . S
C1476 C1477 1.400 . S
C1477 C1471 1.491 . S
C1477 C1476 1.400 . S
C1477 C1478 1.398 . S
C1478 H1466 0.950 . S
C1478 C1477 1.398 . S
C1478 C1479 1.391 . S
C1479 H1467 0.950 . S
C1479 C1475 1.393 . S
C1479 C1478 1.391 . S
H1480 C1488 0.950 . S
H1481 C1493 0.950 . S
H1482 C1490 0.950 . S
H1483 C1492 0.950 . S
H1484 C1494 0.950 . S
H1485 C1496 0.950 . S
H1486 C1498 0.950 . S
H1487 C1499 0.950 . S
C1488 H1480 0.950 . S
C1488 C1489 1.386 . S
C1488 C1490 1.391 . S
C1489 C1488 1.386 . S
C1489 C1493 1.393 . S
C1490 H1482 0.950 . S
C1490 C1488 1.391 . S
C1490 C1491 1.400 . S
C1491 C1490 1.400 . S
C1491 C1492 1.398 . S
C1491 C1497 1.491 . S
C1492 H1483 0.950 . S
C1492 C1491 1.398 . S
C1492 C1493 1.391 . S
C1493 H1481 0.950 . S
C1493 C1489 1.393 . S
C1493 C1492 1.391 . S
C1494 H1484 0.950 . S
C1494 C1495 1.386 . S
C1494 C1496 1.391 . S
C1495 C1494 1.386 . S
C1495 C1499 1.393 . S
C1496 H1485 0.950 . S
C1496 C1494 1.391 . S
C1496 C1497 1.400 . S
C1497 C1491 1.491 . S
C1497 C1496 1.400 . S
C1497 C1498 1.398 . S
C1498 H1486 0.950 . S
C1498 C1497 1.398 . S
C1498 C1499 1.391 . S
C1499 H1487 0.950 . S
C1499 C1495 1.393 . S
C1499 C1498 1.391 . S
H1500 C1508 0.950 . S
H1501 C1513 0.950 . S
H1502 C1510 0.950 . S
H1503 C1512 0.950 . S
H1504 C1514 0.950 . S
H1505 C1516 0.950 . S
H1506 C1518 0.950 . S
H1507 C1519 0.950 . S
C1508 H1500 0.950 . S
C1508 C1509 1.386 . S
C1508 C1510 1.391 . S
C1509 C1508 1.386 . S
C1509 C1513 1.393 . S
C1510 H1502 0.950 . S
C1510 C1508 1.391 . S
C1510 C1511 1.400 . S
C1511 C1510 1.400 . S
C1511 C1512 1.398 . S
C1511 C1517 1.491 . S
C1512 H1503 0.950 . S
C1512 C1511 1.398 . S
C1512 C1513 1.391 . S
C1513 H1501 0.950 . S
C1513 C1509 1.393 . S
C1513 C1512 1.391 . S
C1514 H1504 0.950 . S
C1514 C1515 1.386 . S
C1514 C1516 1.391 . S
C1515 C1514 1.386 . S
C1515 C1519 1.393 . S
C1516 H1505 0.950 . S
C1516 C1514 1.391 . S
C1516 C1517 1.400 . S
C1517 C1511 1.491 . S
C1517 C1516 1.400 . S
C1517 C1518 1.398 . S
C1518 H1506 0.950 . S
C1518 C1517 1.398 . S
C1518 C1519 1.391 . S
C1519 H1507 0.950 . S
C1519 C1515 1.393 . S
C1519 C1518 1.391 . S
H1520 C1528 0.950 . S
H1521 C1533 0.950 . S
H1522 C1530 0.950 . S
H1523 C1532 0.950 . S
H1524 C1534 0.950 . S
H1525 C1536 0.950 . S
H1526 C1538 0.950 . S
H1527 C1539 0.950 . S
C1528 H1520 0.950 . S
C1528 C1529 1.386 . S
C1528 C1530 1.391 . S
C1529 C1528 1.386 . S
C1529 C1533 1.393 1_556 S
C1530 H1522 0.950 . S
C1530 C1528 1.391 . S
C1530 C1531 1.400 . S
C1531 C1530 1.400 . S
C1531 C1532 1.398 1_556 S
C1531 C1537 1.491 . S
C1532 H1523 0.950 . S
C1532 C1531 1.398 1_554 S
C1532 C1533 1.391 . S
C1533 H1521 0.950 . S
C1533 C1529 1.393 1_554 S
C1533 C1532 1.391 . S
C1534 H1524 0.950 . S
C1534 C1535 1.386 1_554 S
C1534 C1536 1.391 . S
C1535 C1534 1.386 1_556 S
C1535 C1539 1.393 . S
C1536 H1525 0.950 . S
C1536 C1534 1.391 . S
C1536 C1537 1.400 1_554 S
C1537 C1531 1.491 . S
C1537 C1536 1.400 1_556 S
C1537 C1538 1.398 . S
C1538 H1526 0.950 . S
C1538 C1537 1.398 . S
C1538 C1539 1.391 . S
C1539 H1527 0.950 . S
C1539 C1535 1.393 . S
C1539 C1538 1.391 . S
H1540 C1548 0.950 . S
H1541 C1553 0.950 . S
H1542 C1550 0.950 . S
H1543 C1552 0.950 . S
H1544 C1554 0.950 . S
H1545 C1556 0.950 . S
H1546 C1558 0.950 . S
H1547 C1559 0.950 . S
C1548 H1540 0.950 . S
C1548 C1549 1.386 . S
C1548 C1550 1.391 . S
C1549 C1548 1.386 . S
C1549 C1553 1.393 . S
C1550 H1542 0.950 . S
C1550 C1548 1.391 . S
C1550 C1551 1.400 . S
C1551 C1550 1.400 . S
C1551 C1552 1.398 . S
C1551 C1557 1.491 . S
C1552 H1543 0.950 . S
C1552 C1551 1.398 . S
C1552 C1553 1.391 . S
C1553 H1541 0.950 . S
C1553 C1549 1.393 . S
C1553 C1552 1.391 . S
C1554 H1544 0.950 . S
C1554 C1555 1.386 . S
C1554 C1556 1.391 . S
C1555 C1554 1.386 . S
C1555 C1559 1.393 . S
C1556 H1545 0.950 . S
C1556 C1554 1.391 . S
C1556 C1557 1.400 . S
C1557 C1551 1.491 . S
C1557 C1556 1.400 . S
C1557 C1558 1.398 . S
C1558 H1546 0.950 . S
C1558 C1557 1.398 . S
C1558 C1559 1.391 . S
C1559 H1547 0.950 . S
C1559 C1555 1.393 . S
C1559 C1558 1.391 . S
H1560 C1568 0.950 . S
H1561 C1573 0.950 . S
H1562 C1570 0.950 . S
H1563 C1572 0.950 . S
H1564 C1574 0.950 . S
H1565 C1576 0.950 . S
H1566 C1578 0.950 . S
H1567 C1579 0.950 . S
C1568 H1560 0.950 . S
C1568 C1569 1.386 . S
C1568 C1570 1.391 . S
C1569 C1568 1.386 . S
C1569 C1573 1.393 . S
C1570 H1562 0.950 . S
C1570 C1568 1.391 . S
C1570 C1571 1.400 . S
C1571 C1570 1.400 . S
C1571 C1572 1.398 . S
C1571 C1577 1.491 . S
C1572 H1563 0.950 . S
C1572 C1571 1.398 . S
C1572 C1573 1.391 . S
C1573 H1561 0.950 . S
C1573 C1569 1.393 . S
C1573 C1572 1.391 . S
C1574 H1564 0.950 . S
C1574 C1575 1.386 . S
C1574 C1576 1.391 . S
C1575 C1574 1.386 . S
C1575 C1579 1.393 . S
C1576 H1565 0.950 . S
C1576 C1574 1.391 . S
C1576 C1577 1.400 . S
C1577 C1571 1.491 . S
C1577 C1576 1.400 . S
C1577 C1578 1.398 . S
C1578 H1566 0.950 . S
C1578 C1577 1.398 . S
C1578 C1579 1.391 . S
C1579 H1567 0.950 . S
C1579 C1575 1.393 . S
C1579 C1578 1.391 . S
H1580 C1588 0.950 . S
H1581 C1593 0.950 . S
H1582 C1590 0.950 . S
H1583 C1592 0.950 . S
H1584 C1594 0.950 1_556 S
H1585 C1596 0.950 . S
H1586 C1598 0.950 . S
H1587 C1599 0.950 . S
C1588 H1580 0.950 . S
C1588 C1589 1.386 1_545 S
C1588 C1590 1.391 1_545 S
C1589 C1588 1.386 1_565 S
C1589 C1593 1.393 . S
C1590 H1582 0.950 . S
C1590 C1588 1.391 1_565 S
C1590 C1591 1.400 . S
C1591 C1590 1.400 . S
C1591 C1592 1.398 . S
C1591 C1597 1.491 . S
C1592 H1583 0.950 . S
C1592 C1591 1.398 . S
C1592 C1593 1.391 . S
C1593 H1581 0.950 . S
C1593 C1589 1.393 . S
C1593 C1592 1.391 . S
C1594 H1584 0.950 1_554 S
C1594 C1595 1.386 . S
C1594 C1596 1.391 . S
C1595 C1594 1.386 . S
C1595 C1599 1.393 . S
C1596 H1585 0.950 . S
C1596 C1594 1.391 . S
C1596 C1597 1.400 . S
C1597 C1591 1.491 . S
C1597 C1596 1.400 . S
C1597 C1598 1.398 . S
C1598 H1586 0.950 . S
C1598 C1597 1.398 . S
C1598 C1599 1.391 . S
C1599 H1587 0.950 . S
C1599 C1595 1.393 . S
C1599 C1598 1.391 . S
C655 C210 1.177 . S
C649 N66 1.141 . S
C675 C258 1.594 . S
C669 N79 1.655 . S
C689 N92 1.762 . S
C695 C294 1.690 . S
C715 C330 1.383 . S
C709 N54 1.464 . S
C735 C356 1.396 . S
C729 N131 1.386 . S
C755 C392 1.280 . S
C749 N158 1.275 . S
C769 N145 1.541 . S
C775 C427 1.550 . S
C795 C464 1.806 . S
C789 N118 1.790 . S
C809 N148 1.864 . S
C815 C498 1.863 . S
C835 C546 1.673 . S
C829 N122 1.700 . S
C849 N132 1.152 . S
C855 C499 1.165 . S
C875 C536 1.550 . S
C869 N161 1.520 . S
C889 N96 1.843 . S
C895 C582 1.799 . S
C909 N53 1.748 . S
C915 C571 1.770 . S
C929 N67 1.095 . S
C935 C572 1.093 . S
C949 N83 1.517 . S
C955 C570 1.533 . S
C969 N44 1.297 . S
C975 C318 1.306 . S
C989 N187 1.447 . S
C995 C319 1.449 . S
C1015 C222 1.274 . S
C1009 N197 1.320 . S
C1035 C247 1.307 . S
C1029 N106 1.302 . S
C1049 N57 1.903 1_545 S
C1055 C354 1.902 . S
C1075 C462 1.379 . S
C1069 N144 1.356 . S
C1095 C355 1.447 . S
C1089 N119 1.455 1_545 S
C1115 C428 1.858 . S
C1109 N157 1.832 . S
C1135 C426 1.171 . S
C1129 N183 1.155 . S
C1149 N196 1.652 . S
C1155 C474 1.607 . S
C1169 N105 1.756 . S
C1175 C366 1.701 . S
C1195 C402 1.368 . S
C1189 N171 1.462 . S
C1209 N40 1.366 . S
C1215 C284 1.396 . S
C1235 C320 1.282 . S
C1229 N2 1.280 1_655 S
C1255 C211 1.550 . S
C1249 N15 1.540 . S
C1275 C248 1.806 . S
C1269 N27 1.783 1_455 S
C1289 N18 1.858 . S
C1295 C534 1.863 . S
C1309 N31 1.693 . S
C1315 C510 1.666 1_455 S
C1329 N41 1.155 . S
C1335 C535 1.165 . S
C1349 N5 1.512 . S
C1355 C500 1.551 . S
C1375 C618 1.801 . S
C1369 N109 1.846 . S
C1395 C607 1.771 . S
C1389 N170 1.738 1_554 S
C1415 C608 1.117 . S
C1409 N184 1.118 . S
C1429 N200 1.513 1_554 S
C1435 C606 1.528 . S
C1449 N135 1.296 . S
C1455 C390 1.313 . S
C1475 C391 1.452 . S
C1469 N70 1.435 . S
C1495 C438 1.267 . S
C1489 N80 1.319 . S
C1515 C463 1.307 . S
C1509 N93 1.302 . S
C1529 N174 1.898 . S
C1535 C282 1.908 1_556 S
C1555 C246 1.383 . S
C1549 N14 1.359 . S
C1569 N28 1.452 . S
C1575 C283 1.434 . S
C1595 C212 1.863 . S
C1589 N1 1.832 1_565 S
