# Generated by pormake.
# Topology ctn, (3,4)-cn, num edge types: 1
# Building blocks:
#     Node 0, Type 0, BuildingBlock: MIDCAF_clean_linker_0, # of connection points: 3
#     Node 1, Type 0, BuildingBlock: MIDCAF_clean_linker_0, # of connection points: 3
#     Node 2, Type 0, BuildingBlock: MIDCAF_clean_linker_0, # of connection points: 3
#     Node 3, Type 0, BuildingBlock: MIDCAF_clean_linker_0, # of connection points: 3
#     Node 4, Type 0, BuildingBlock: MIDCAF_clean_linker_0, # of connection points: 3
#     Node 5, Type 0, BuildingBlock: MIDCAF_clean_linker_0, # of connection points: 3
#     Node 6, Type 0, BuildingBlock: MIDCAF_clean_linker_0, # of connection points: 3
#     Node 7, Type 0, BuildingBlock: MIDCAF_clean_linker_0, # of connection points: 3
#     Node 8, Type 0, BuildingBlock: MIDCAF_clean_linker_0, # of connection points: 3
#     Node 9, Type 0, BuildingBlock: MIDCAF_clean_linker_0, # of connection points: 3
#     Node 10, Type 0, BuildingBlock: MIDCAF_clean_linker_0, # of connection points: 3
#     Node 11, Type 0, BuildingBlock: MIDCAF_clean_linker_0, # of connection points: 3
#     Node 12, Type 0, BuildingBlock: MIDCAF_clean_linker_0, # of connection points: 3
#     Node 13, Type 0, BuildingBlock: MIDCAF_clean_linker_0, # of connection points: 3
#     Node 14, Type 0, BuildingBlock: MIDCAF_clean_linker_0, # of connection points: 3
#     Node 15, Type 0, BuildingBlock: MIDCAF_clean_linker_0, # of connection points: 3
#     Node 16, Type 1, BuildingBlock: QUQFOY_clean_sbu_1, # of connection points: 4
#     Node 17, Type 1, BuildingBlock: QUQFOY_clean_sbu_1, # of connection points: 4
#     Node 18, Type 1, BuildingBlock: QUQFOY_clean_sbu_1, # of connection points: 4
#     Node 19, Type 1, BuildingBlock: QUQFOY_clean_sbu_1, # of connection points: 4
#     Node 20, Type 1, BuildingBlock: QUQFOY_clean_sbu_1, # of connection points: 4
#     Node 21, Type 1, BuildingBlock: QUQFOY_clean_sbu_1, # of connection points: 4
#     Node 22, Type 1, BuildingBlock: QUQFOY_clean_sbu_1, # of connection points: 4
#     Node 23, Type 1, BuildingBlock: QUQFOY_clean_sbu_1, # of connection points: 4
#     Node 24, Type 1, BuildingBlock: QUQFOY_clean_sbu_1, # of connection points: 4
#     Node 25, Type 1, BuildingBlock: QUQFOY_clean_sbu_1, # of connection points: 4
#     Node 26, Type 1, BuildingBlock: QUQFOY_clean_sbu_1, # of connection points: 4
#     Node 27, Type 1, BuildingBlock: QUQFOY_clean_sbu_1, # of connection points: 4
#     Edge 28, Type (0, 1), BuildingBlock: AJUNOK_clean_linker_0, # of connection points: 2
#     Edge 29, Type (0, 1), BuildingBlock: AJUNOK_clean_linker_0, # of connection points: 2
#     Edge 30, Type (0, 1), BuildingBlock: AJUNOK_clean_linker_0, # of connection points: 2
#     Edge 31, Type (0, 1), BuildingBlock: AJUNOK_clean_linker_0, # of connection points: 2
#     Edge 32, Type (0, 1), BuildingBlock: AJUNOK_clean_linker_0, # of connection points: 2
#     Edge 33, Type (0, 1), BuildingBlock: AJUNOK_clean_linker_0, # of connection points: 2
#     Edge 34, Type (0, 1), BuildingBlock: AJUNOK_clean_linker_0, # of connection points: 2
#     Edge 35, Type (0, 1), BuildingBlock: AJUNOK_clean_linker_0, # of connection points: 2
#     Edge 36, Type (0, 1), BuildingBlock: AJUNOK_clean_linker_0, # of connection points: 2
#     Edge 37, Type (0, 1), BuildingBlock: AJUNOK_clean_linker_0, # of connection points: 2
#     Edge 38, Type (0, 1), BuildingBlock: AJUNOK_clean_linker_0, # of connection points: 2
#     Edge 39, Type (0, 1), BuildingBlock: AJUNOK_clean_linker_0, # of connection points: 2
#     Edge 40, Type (0, 1), BuildingBlock: AJUNOK_clean_linker_0, # of connection points: 2
#     Edge 41, Type (0, 1), BuildingBlock: AJUNOK_clean_linker_0, # of connection points: 2
#     Edge 42, Type (0, 1), BuildingBlock: AJUNOK_clean_linker_0, # of connection points: 2
#     Edge 43, Type (0, 1), BuildingBlock: AJUNOK_clean_linker_0, # of connection points: 2
#     Edge 44, Type (0, 1), BuildingBlock: AJUNOK_clean_linker_0, # of connection points: 2
#     Edge 45, Type (0, 1), BuildingBlock: AJUNOK_clean_linker_0, # of connection points: 2
#     Edge 46, Type (0, 1), BuildingBlock: AJUNOK_clean_linker_0, # of connection points: 2
#     Edge 47, Type (0, 1), BuildingBlock: AJUNOK_clean_linker_0, # of connection points: 2
#     Edge 48, Type (0, 1), BuildingBlock: AJUNOK_clean_linker_0, # of connection points: 2
#     Edge 49, Type (0, 1), BuildingBlock: AJUNOK_clean_linker_0, # of connection points: 2
#     Edge 50, Type (0, 1), BuildingBlock: AJUNOK_clean_linker_0, # of connection points: 2
#     Edge 51, Type (0, 1), BuildingBlock: AJUNOK_clean_linker_0, # of connection points: 2
#     Edge 52, Type (0, 1), BuildingBlock: AJUNOK_clean_linker_0, # of connection points: 2
#     Edge 53, Type (0, 1), BuildingBlock: AJUNOK_clean_linker_0, # of connection points: 2
#     Edge 54, Type (0, 1), BuildingBlock: AJUNOK_clean_linker_0, # of connection points: 2
#     Edge 55, Type (0, 1), BuildingBlock: AJUNOK_clean_linker_0, # of connection points: 2
#     Edge 56, Type (0, 1), BuildingBlock: AJUNOK_clean_linker_0, # of connection points: 2
#     Edge 57, Type (0, 1), BuildingBlock: AJUNOK_clean_linker_0, # of connection points: 2
#     Edge 58, Type (0, 1), BuildingBlock: AJUNOK_clean_linker_0, # of connection points: 2
#     Edge 59, Type (0, 1), BuildingBlock: AJUNOK_clean_linker_0, # of connection points: 2
#     Edge 60, Type (0, 1), BuildingBlock: AJUNOK_clean_linker_0, # of connection points: 2
#     Edge 61, Type (0, 1), BuildingBlock: AJUNOK_clean_linker_0, # of connection points: 2
#     Edge 62, Type (0, 1), BuildingBlock: AJUNOK_clean_linker_0, # of connection points: 2
#     Edge 63, Type (0, 1), BuildingBlock: AJUNOK_clean_linker_0, # of connection points: 2
#     Edge 64, Type (0, 1), BuildingBlock: AJUNOK_clean_linker_0, # of connection points: 2
#     Edge 65, Type (0, 1), BuildingBlock: AJUNOK_clean_linker_0, # of connection points: 2
#     Edge 66, Type (0, 1), BuildingBlock: AJUNOK_clean_linker_0, # of connection points: 2
#     Edge 67, Type (0, 1), BuildingBlock: AJUNOK_clean_linker_0, # of connection points: 2
#     Edge 68, Type (0, 1), BuildingBlock: AJUNOK_clean_linker_0, # of connection points: 2
#     Edge 69, Type (0, 1), BuildingBlock: AJUNOK_clean_linker_0, # of connection points: 2
#     Edge 70, Type (0, 1), BuildingBlock: AJUNOK_clean_linker_0, # of connection points: 2
#     Edge 71, Type (0, 1), BuildingBlock: AJUNOK_clean_linker_0, # of connection points: 2
#     Edge 72, Type (0, 1), BuildingBlock: AJUNOK_clean_linker_0, # of connection points: 2
#     Edge 73, Type (0, 1), BuildingBlock: AJUNOK_clean_linker_0, # of connection points: 2
#     Edge 74, Type (0, 1), BuildingBlock: AJUNOK_clean_linker_0, # of connection points: 2
#     Edge 75, Type (0, 1), BuildingBlock: AJUNOK_clean_linker_0, # of connection points: 2
# Relax obj value: 0.036
# Max RMSD: 0.144
# Mean RMSD: 0.065
data_MOF--net-ctn--node1-QUQFOY_clean_sbu_1--node2-MIDCAF_clean_linker_0--edge1-AJUNOK_clean_linker_0
_symmetry_space_group_name_H-M    P1
_symmetry_Int_Tables_number       1
_symmetry_cell_setting            triclinic
loop_
_symmetry_equiv_pos_as_xyz
'x, y, z'
_cell_length_a     52.827112
_cell_length_b     52.806516
_cell_length_c     52.906969
_cell_angle_alpha  93.081646
_cell_angle_beta   90.057985
_cell_angle_gamma 94.799915
loop_
_atom_site_label
_atom_site_type_symbol
_atom_site_fract_x
_atom_site_fract_y
_atom_site_fract_z
_atom_type_partial_charge
C0 C 0.97902 0.10013 0.13113 0.0
C1 C 0.98308 0.08161 0.14839 0.0
C2 C 0.0066 0.07111 0.14875 0.0
C3 C 0.0252 0.07776 0.1311 0.0
H4 H 0.07837 0.0416 0.09179 0.0
H5 H 0.10837 0.00994 0.08254 0.0
H6 H 0.14646 0.05886 0.02905 0.0
H7 H 0.11567 0.09022 0.03747 0.0
H8 H 0.07513 0.12406 0.0081 0.0
H9 H 0.06223 0.14831 0.97283 0.0
H10 H -0.00014 0.17395 0.01715 0.0
H11 H 0.01233 0.14977 0.05225 0.0
H12 H 0.99361 0.12036 0.09956 0.0
H13 H 0.96103 0.10854 0.13065 0.0
H14 H 0.01029 0.05714 0.16226 0.0
H15 H 0.04279 0.06862 0.13145 0.0
N16 N 0.05878 0.08442 0.0891 0.0
N17 N 0.07034 0.10312 0.05116 0.0
N18 N 0.03497 0.11583 0.07383 0.0
C19 C 0.07457 0.08631 0.06897 0.0
C20 C 0.05059 0.11801 0.0535 0.0
C21 C 0.03903 0.09919 0.0918 0.0
C22 C 0.09455 0.06843 0.06527 0.0
C23 C 0.09334 0.04583 0.07829 0.0
C24 C 0.11068 0.0277 0.07315 0.0
C25 C 0.12993 0.03196 0.05522 0.0
C26 C 0.13169 0.05495 0.04283 0.0
C27 C 0.11411 0.07294 0.0477 0.0
C28 C 0.04459 0.13465 0.03297 0.0
C29 C 0.05875 0.13499 0.01043 0.0
C30 C 0.05143 0.14884 0.99021 0.0
C31 C 0.02975 0.16246 0.99213 0.0
C32 C 0.01627 0.16303 0.01498 0.0
C33 C 0.02356 0.14928 0.03515 0.0
C34 C 0.02069 0.0951 0.11266 0.0
C35 C -0.00232 0.10681 0.11335 0.0
C36 C 0.22151 0.65458 0.26471 0.0
C37 C 0.19878 0.64866 0.25111 0.0
C38 C 0.19096 0.6659 0.23399 0.0
C39 C 0.20599 0.68842 0.23008 0.0
H40 H 0.21153 0.75127 0.18824 0.0
H41 H 0.20109 0.77894 0.15505 0.0
H42 H 0.26515 0.83155 0.17706 0.0
H43 H 0.27593 0.80391 0.21037 0.0
H44 H 0.31469 0.78619 0.25673 0.0
H45 H 0.35507 0.79056 0.28001 0.0
H46 H 0.35292 0.70884 0.28276 0.0
H47 H 0.31238 0.70447 0.26046 0.0
H48 H 0.25402 0.68077 0.27154 0.0
H49 H 0.22763 0.64192 0.27852 0.0
H50 H 0.17344 0.66176 0.22334 0.0
H51 H 0.19964 0.70119 0.2165 0.0
N52 N 0.23773 0.73535 0.22382 0.0
N53 N 0.27647 0.76006 0.23062 0.0
N54 N 0.26904 0.72096 0.24944 0.0
C55 C 0.25302 0.75672 0.21964 0.0
C56 C 0.28459 0.7421 0.24547 0.0
C57 C 0.24556 0.71747 0.23884 0.0
C58 C 0.24481 0.77518 0.20181 0.0
C59 C 0.2232 0.76893 0.18642 0.0
C60 C 0.21713 0.78476 0.16742 0.0
C61 C 0.23227 0.80732 0.16365 0.0
C62 C 0.25301 0.81437 0.17987 0.0
C63 C 0.25928 0.79841 0.19875 0.0
C64 C 0.31014 0.74504 0.25721 0.0
C65 C 0.32295 0.76919 0.26219 0.0
C66 C 0.34606 0.77168 0.27543 0.0
C67 C 0.3568 0.75005 0.28368 0.0
C68 C 0.34468 0.72587 0.27736 0.0
C69 C 0.3215 0.7234 0.2645 0.0
C70 C 0.22908 0.69408 0.2433 0.0
C71 C 0.23654 0.67696 0.26078 0.0
C72 C 0.97171 0.39092 0.01954 0.0
C73 C 0.96209 0.39132 0.99483 0.0
C74 C 0.94868 0.41184 0.98821 0.0
C75 C 0.94498 0.43168 0.00596 0.0
H76 H 0.90868 0.49575 0.01548 0.0
H77 H 0.884 0.52995 0.00332 0.0
H78 H 0.90315 0.57167 0.07408 0.0
H79 H 0.92774 0.53714 0.08671 0.0
H80 H 0.96929 0.51634 0.12148 0.0
H81 H 0.99361 0.52015 0.16068 0.0
H82 H 0.00873 0.4411 0.15109 0.0
H83 H 0.98497 0.43735 0.11126 0.0
H84 H 0.97599 0.41007 0.05613 0.0
H85 H 0.98242 0.37545 0.02497 0.0
H86 H 0.94102 0.41249 0.96927 0.0
H87 H 0.93465 0.44727 0.00013 0.0
N88 N 0.93774 0.47234 0.04296 0.0
N89 N 0.94746 0.49382 0.08207 0.0
N90 N 0.96356 0.45446 0.07205 0.0
C91 C 0.93542 0.49271 0.0593 0.0
C92 C 0.96151 0.47475 0.0886 0.0
C93 C 0.95173 0.45314 0.04913 0.0
C94 C 0.92035 0.51367 0.05206 0.0
C95 C 0.90781 0.51218 0.02851 0.0
C96 C 0.89381 0.53189 0.0214 0.0
C97 C 0.89211 0.55366 0.03756 0.0
C98 C 0.90432 0.55513 0.06124 0.0
C99 C 0.91839 0.53536 0.0684 0.0
C100 C 0.97528 0.47658 0.1131 0.0
C101 C 0.97769 0.4997 0.12768 0.0
C102 C 0.99158 0.50188 0.15021 0.0
C103 C 0.00325 0.48098 0.15884 0.0
C104 C 0.0004 0.45768 0.14462 0.0
C105 C 0.98666 0.45552 0.12189 0.0
C106 C 0.95481 0.43152 0.03069 0.0
C107 C 0.96812 0.41084 0.0373 0.0
C108 C 0.75053 0.75703 0.1539 0.0
C109 C 0.73465 0.73452 0.14976 0.0
C110 C 0.71553 0.72845 0.1674 0.0
C111 C 0.71123 0.74543 0.18784 0.0
H112 H 0.67304 0.76069 0.26492 0.0
H113 H 0.63667 0.75658 0.29373 0.0
H114 H 0.6202 0.83339 0.27963 0.0
H115 H 0.65709 0.8379 0.25242 0.0
H116 H 0.70917 0.87566 0.24732 0.0
H117 H 0.73315 0.91714 0.2511 0.0
H118 H 0.79736 0.88503 0.21502 0.0
H119 H 0.77314 0.84366 0.21043 0.0
H120 H 0.7583 0.79163 0.17631 0.0
H121 H 0.76543 0.76215 0.1406 0.0
H122 H 0.70337 0.71093 0.16493 0.0
H123 H 0.69569 0.74061 0.20051 0.0
N124 N 0.69851 0.78438 0.22533 0.0
N125 N 0.70415 0.82661 0.24185 0.0
N126 N 0.73241 0.81183 0.21157 0.0
C127 C 0.69094 0.80344 0.24112 0.0
C128 C 0.72501 0.83093 0.22733 0.0
C129 C 0.71923 0.78853 0.21033 0.0
C130 C 0.66803 0.79973 0.25682 0.0
C131 C 0.66159 0.77662 0.26813 0.0
C132 C 0.64083 0.77431 0.28458 0.0
C133 C 0.62602 0.79494 0.28962 0.0
C134 C 0.63187 0.81753 0.27717 0.0
C135 C 0.65285 0.82003 0.26132 0.0
C136 C 0.73927 0.8563 0.22863 0.0
C137 C 0.72834 0.87745 0.23999 0.0
C138 C 0.74205 0.90123 0.24217 0.0
C139 C 0.76704 0.90439 0.23318 0.0
C140 C 0.77791 0.88334 0.22156 0.0
C141 C 0.76409 0.85958 0.21913 0.0
C142 C 0.72605 0.76879 0.19108 0.0
C143 C 0.74629 0.77398 0.17433 0.0
C144 C 0.04616 0.91023 0.52127 0.0
C145 C 0.02176 0.89758 0.52243 0.0
C146 C 0.00185 0.90666 0.5088 0.0
C147 C 0.00634 0.92758 0.49389 0.0
H148 H 0.98459 0.95519 0.42336 0.0
H149 H 0.95483 0.96372 0.39005 0.0
H150 H 0.98903 0.04067 0.38811 0.0
H151 H 0.01895 0.03234 0.42126 0.0
H152 H 0.08213 0.03419 0.43499 0.0
H153 H 0.1201 0.0634 0.44228 0.0
H154 H 0.13004 0.0337 0.51568 0.0
H155 H 0.09217 0.00421 0.50851 0.0
H156 H 0.06968 0.94062 0.50603 0.0
H157 H 0.06188 0.90364 0.53154 0.0
H158 H 0.98267 0.89781 0.50991 0.0
H159 H 0.99055 0.93408 0.48367 0.0
N160 N 0.01849 0.9673 0.45894 0.0
N161 N 0.04399 0.00378 0.44878 0.0
N162 N 0.05667 0.97868 0.48095 0.0
C163 C 0.02265 0.9879 0.44471 0.0
C164 C 0.06107 -0.00069 0.46685 0.0
C165 C 0.03543 0.96258 0.4771 0.0
C166 C 0.00423 0.99305 0.42492 0.0
C167 C 0.98577 0.97395 0.41591 0.0
C168 C 0.96882 0.97875 0.39679 0.0
C169 C 0.96984 0.00278 0.38654 0.0
C170 C 0.98792 0.022 0.39579 0.0
C171 C 0.00508 0.01715 0.41467 0.0
C172 C 0.08415 0.01685 0.47116 0.0
C173 C 0.09238 0.03382 0.45269 0.0
C174 C 0.11414 0.05044 0.45675 0.0
C175 C 0.12788 0.05058 0.47946 0.0
C176 C 0.11964 0.03384 0.49803 0.0
C177 C 0.09808 0.01695 0.49385 0.0
C178 C 0.03076 0.94021 0.49266 0.0
C179 C 0.05061 0.93138 0.50661 0.0
C180 C 0.22427 0.79088 0.88756 0.0
C181 C 0.20555 0.80822 0.89013 0.0
C182 C 0.19037 0.81209 0.86912 0.0
C183 C 0.19395 0.79899 0.84593 0.0
H184 H 0.18246 0.80361 0.76824 0.0
H185 H 0.14806 0.80789 0.73849 0.0
H186 H 0.15919 0.73383 0.70385 0.0
H187 H 0.19368 0.72934 0.73371 0.0
H188 H 0.26571 0.721 0.75441 0.0
H189 H 0.29541 0.68768 0.75393 0.0
H190 H 0.2733 0.67077 0.83022 0.0
H191 H 0.24515 0.70485 0.8312 0.0
H192 H 0.24256 0.76465 0.86308 0.0
H193 H 0.23671 0.78801 0.90325 0.0
H194 H 0.17583 0.82538 0.8706 0.0
H195 H 0.18196 0.80251 0.8301 0.0
N196 N 0.20404 0.77381 0.79773 0.0
N197 N 0.22331 0.74236 0.77336 0.0
N198 N 0.23295 0.74941 0.81666 0.0
C199 C 0.20708 0.7611 0.77509 0.0
C200 C 0.23639 0.73656 0.79416 0.0
C201 C 0.21689 0.76814 0.81858 0.0
C202 C 0.19053 0.76594 0.7536 0.0
C203 C 0.17804 0.78847 0.75389 0.0
C204 C 0.15849 0.79108 0.7367 0.0
C205 C 0.15099 0.77117 0.71897 0.0
C206 C 0.16468 0.74944 0.71741 0.0
C207 C 0.18443 0.74691 0.73447 0.0
C208 C 0.25342 0.71572 0.79296 0.0
C209 C 0.26741 0.71019 0.77107 0.0
C210 C 0.28437 0.69113 0.77081 0.0
C211 C 0.28731 0.67701 0.7923 0.0
C212 C 0.27247 0.682 0.81376 0.0
C213 C 0.25607 0.70137 0.81422 0.0
C214 C 0.21282 0.78174 0.84327 0.0
C215 C 0.22779 0.77769 0.86442 0.0
C216 C 0.01343 0.61704 0.55223 0.0
C217 C 0.99643 0.62329 0.57147 0.0
C218 C 0.97923 0.60422 0.58049 0.0
C219 C 0.97817 0.5795 0.56956 0.0
H220 H 0.9324 0.5105 0.56486 0.0
H221 H 0.88961 0.48893 0.56601 0.0
H222 H 0.90021 0.45466 0.49134 0.0
H223 H 0.94301 0.47582 0.49006 0.0
H224 H 0.99612 0.48194 0.46551 0.0
H225 H 0.02018 0.477 0.42654 0.0
H226 H 0.07159 0.54161 0.45062 0.0
H227 H 0.04782 0.54665 0.48976 0.0
H228 H 0.02545 0.58829 0.5261 0.0
H229 H 0.02719 0.63139 0.54534 0.0
H230 H 0.96602 0.60865 0.59542 0.0
H231 H 0.96414 0.56539 0.5764 0.0
N232 N 0.97019 0.53228 0.53963 0.0
N233 N 0.98206 0.50456 0.50651 0.0
N234 N 0.00765 0.54197 0.5172 0.0
C235 C 0.96551 0.51042 0.5251 0.0
C236 C 0.00331 0.5201 0.50259 0.0
C237 C 0.99124 0.54816 0.53582 0.0
C238 C 0.94106 0.49497 0.52733 0.0
C239 C 0.92577 0.49807 0.54884 0.0
C240 C 0.90137 0.48571 0.54958 0.0
C241 C 0.89183 0.47033 0.52873 0.0
C242 C 0.9073 0.46654 0.50758 0.0
C243 C 0.93179 0.47857 0.50696 0.0
C244 C 0.01987 0.51487 0.48071 0.0
C245 C 0.01281 0.49486 0.4628 0.0
C246 C 0.02651 0.49201 0.44044 0.0
C247 C 0.04766 0.50892 0.43568 0.0
C248 C 0.05551 0.52814 0.45404 0.0
C249 C 0.04176 0.53109 0.47636 0.0
C250 C 0.99448 0.57338 0.54954 0.0
C251 C 0.01253 0.5923 0.5414 0.0
C252 C 0.87042 0.78894 0.75056 0.0
C253 C 0.87544 0.8063 0.73164 0.0
C254 C 0.85972 0.82627 0.72955 0.0
C255 C 0.83915 0.82861 0.74585 0.0
H256 H 0.78232 0.87568 0.76675 0.0
H257 H 0.75334 0.90907 0.76302 0.0
H258 H 0.69823 0.86772 0.8087 0.0
H259 H 0.72716 0.83438 0.81282 0.0
H260 H 0.76407 0.81076 0.86226 0.0
H261 H 0.76068 0.78525 0.89935 0.0
H262 H 0.80508 0.72959 0.86159 0.0
H263 H 0.80949 0.75566 0.82495 0.0
H264 H 0.84657 0.77746 0.78117 0.0
H265 H 0.88217 0.77328 0.75249 0.0
H266 H 0.86347 0.84023 0.71546 0.0
H267 H 0.82743 0.84424 0.74373 0.0
N268 N 0.79526 0.83095 0.77831 0.0
N269 N 0.77269 0.81832 0.8143 0.0
N270 N 0.80923 0.79859 0.80214 0.0
C271 C 0.77534 0.8333 0.79423 0.0
C272 C 0.78958 0.80095 0.81839 0.0
C273 C 0.81224 0.81356 0.78208 0.0
C274 C 0.7571 0.85248 0.79025 0.0
C275 C 0.7639 0.87351 0.77574 0.0
C276 C 0.74739 0.8926 0.77357 0.0
C277 C 0.72362 0.89074 0.78543 0.0
C278 C 0.71638 0.86934 0.79914 0.0
C279 C 0.73303 0.85043 0.80166 0.0
C280 C 0.78696 0.78517 0.84063 0.0
C281 C 0.77302 0.79303 0.86184 0.0
C282 C 0.77095 0.77834 0.88304 0.0
C283 C 0.78231 0.75522 0.88327 0.0
C284 C 0.79625 0.7474 0.86206 0.0
C285 C 0.79869 0.76228 0.84103 0.0
C286 C 0.83399 0.81112 0.76472 0.0
C287 C 0.84994 0.79131 0.76692 0.0
C288 C 0.37766 0.29697 0.25925 0.0
C289 C 0.38222 0.31507 0.24093 0.0
C290 C 0.36649 0.33517 0.24008 0.0
C291 C 0.34592 0.3365 0.2565 0.0
H292 H 0.28042 0.37084 0.26569 0.0
H293 H 0.2494 0.40152 0.25919 0.0
H294 H 0.19978 0.36561 0.31386 0.0
H295 H 0.23074 0.33472 0.32059 0.0
H296 H 0.25219 0.29205 0.35376 0.0
H297 H 0.24823 0.26479 0.38955 0.0
H298 H 0.32796 0.25291 0.38422 0.0
H299 H 0.33191 0.27951 0.34799 0.0
H300 H 0.35393 0.28381 0.28934 0.0
H301 H 0.38945 0.28122 0.26026 0.0
H302 H 0.36996 0.34975 0.22656 0.0
H303 H 0.3339 0.35201 0.25507 0.0
N304 N 0.29941 0.33334 0.28524 0.0
N305 N 0.27591 0.31861 0.31983 0.0
N306 N 0.31572 0.30375 0.31092 0.0
C307 C 0.27817 0.33348 0.29964 0.0
C308 C 0.29467 0.30375 0.32564 0.0
C309 C 0.31821 0.31848 0.29068 0.0
C310 C 0.25822 0.35045 0.29391 0.0
C311 C 0.26277 0.36914 0.2761 0.0
C312 C 0.24503 0.38671 0.27229 0.0
C313 C 0.22227 0.38577 0.28594 0.0
C314 C 0.21709 0.36646 0.30287 0.0
C315 C 0.23495 0.34897 0.30687 0.0
C316 C 0.29231 0.28779 0.34782 0.0
C317 C 0.2689 0.28364 0.36018 0.0
C318 C 0.26662 0.26811 0.38075 0.0
C319 C 0.28771 0.25649 0.38945 0.0
C320 C 0.31124 0.26111 0.37752 0.0
C321 C 0.31349 0.27646 0.35683 0.0
C322 C 0.34087 0.31794 0.27433 0.0
C323 C 0.35725 0.29842 0.27583 0.0
C324 C 0.46931 0.8934 0.5185 0.0
C325 C 0.45879 0.89356 0.49416 0.0
C326 C 0.44293 0.91259 0.48867 0.0
C327 C 0.43814 0.93155 0.50703 0.0
H328 H 0.39014 0.98757 0.52501 0.0
H329 H 0.36165 0.01949 0.51495 0.0
H330 H 0.39416 0.06957 0.57585 0.0
H331 H 0.4224 0.03735 0.5865 0.0
H332 H 0.46862 0.01912 0.61794 0.0
H333 H 0.49643 0.02501 0.65481 0.0
H334 H 0.50936 0.94521 0.64889 0.0
H335 H 0.48229 0.93945 0.61125 0.0
H336 H 0.47342 0.91201 0.55533 0.0
H337 H 0.48154 0.87883 0.52316 0.0
H338 H 0.43423 0.91281 0.47013 0.0
H339 H 0.42609 0.94614 0.50205 0.0
N340 N 0.42899 0.9705 0.5455 0.0
N341 N 0.44074 0.99313 0.58359 0.0
N342 N 0.45948 0.95556 0.57185 0.0
C343 C 0.42641 0.99061 0.56214 0.0
C344 C 0.45722 0.9756 0.58862 0.0
C345 C 0.4455 0.95292 0.55018 0.0
C346 C 0.40863 0.00986 0.55655 0.0
C347 C 0.39122 0.0053 0.53638 0.0
C348 C 0.37491 0.02362 0.53055 0.0
C349 C 0.37565 0.04699 0.54464 0.0
C350 C 0.39287 0.05156 0.56494 0.0
C351 C 0.40914 0.03313 0.57091 0.0
C352 C 0.47331 0.97884 0.61161 0.0
C353 C 0.47735 0.00279 0.62448 0.0
C354 C 0.49325 0.00617 0.64564 0.0
C355 C 0.50526 0.98562 0.65463 0.0
C356 C 0.50089 0.96153 0.64205 0.0
C357 C 0.48522 0.95822 0.62062 0.0
C358 C 0.44923 0.93189 0.53125 0.0
C359 C 0.46467 0.91244 0.53685 0.0
C360 C 0.25366 0.27258 0.65902 0.0
C361 C 0.2411 0.24817 0.65573 0.0
C362 C 0.22681 0.23803 0.6757 0.0
C363 C 0.22413 0.25263 0.69827 0.0
H364 H 0.16927 0.26442 0.7548 0.0
H365 H 0.13049 0.25884 0.77987 0.0
H366 H 0.15696 0.32334 0.82921 0.0
H367 H 0.19549 0.32915 0.8044 0.0
H368 H 0.22456 0.37514 0.77371 0.0
H369 H 0.24704 0.41725 0.77883 0.0
H370 H 0.30925 0.39095 0.73449 0.0
H371 H 0.28624 0.349 0.72839 0.0
H372 H 0.26073 0.30607 0.68319 0.0
H373 H 0.26487 0.28068 0.64383 0.0
H374 H 0.21693 0.21921 0.67346 0.0
H375 H 0.21237 0.24462 0.71309 0.0
N376 N 0.21234 0.28746 0.74041 0.0
N377 N 0.22084 0.32633 0.7636 0.0
N378 N 0.24498 0.317 0.72778 0.0
C379 C 0.2071 0.3035 0.76036 0.0
C380 C 0.2398 0.33321 0.7475 0.0
C381 C 0.23137 0.29407 0.72408 0.0
C382 C 0.18536 0.29747 0.77732 0.0
C383 C 0.16707 0.27711 0.77127 0.0
C384 C 0.14492 0.27381 0.78567 0.0
C385 C 0.14078 0.29075 0.80636 0.0
C386 C 0.15966 0.31017 0.81321 0.0
C387 C 0.18171 0.31347 0.79892 0.0
C388 C 0.25372 0.35865 0.7508 0.0
C389 C 0.24308 0.37828 0.76511 0.0
C390 C 0.25601 0.4024 0.76818 0.0
C391 C 0.2801 0.40731 0.75744 0.0
C392 C 0.29065 0.38776 0.74292 0.0
C393 C 0.27754 0.36371 0.73952 0.0
C394 C 0.23597 0.27751 0.70129 0.0
C395 C 0.25126 0.28705 0.6816 0.0
C396 C 0.73713 0.14963 0.75077 0.0
C397 C 0.7106 0.14944 0.74884 0.0
C398 C 0.70001 0.17055 0.73929 0.0
C399 C 0.71564 0.19172 0.73247 0.0
H400 H 0.72195 0.24914 0.68111 0.0
H401 H 0.71017 0.2762 0.64789 0.0
H402 H 0.77706 0.32705 0.66412 0.0
H403 H 0.78919 0.30004 0.69746 0.0
H404 H 0.82834 0.28391 0.74345 0.0
H405 H 0.86821 0.28951 0.7674 0.0
H406 H 0.86555 0.20835 0.77521 0.0
H407 H 0.82552 0.20277 0.75203 0.0
H408 H 0.77309 0.17049 0.74626 0.0
H409 H 0.74587 0.13331 0.75729 0.0
H410 H 0.6796 0.17087 0.73758 0.0
H411 H 0.70691 0.2079 0.72559 0.0
N412 N 0.75036 0.23282 0.71462 0.0
N413 N 0.78943 0.25731 0.71968 0.0
N414 N 0.78258 0.21851 0.73916 0.0
C415 C 0.76559 0.25395 0.70953 0.0
C416 C 0.79801 0.23954 0.73449 0.0
C417 C 0.75874 0.21506 0.72944 0.0
C418 C 0.75679 0.27217 0.69175 0.0
C419 C 0.73404 0.26627 0.67797 0.0
C420 C 0.7272 0.28173 0.65894 0.0
C421 C 0.74282 0.3035 0.65346 0.0
C422 C 0.76469 0.31035 0.66816 0.0
C423 C 0.77169 0.29477 0.68709 0.0
C424 C 0.82363 0.24296 0.7461 0.0
C425 C 0.83649 0.26725 0.74994 0.0
C426 C 0.85939 0.27043 0.76352 0.0
C427 C 0.86997 0.24933 0.77316 0.0
C428 C 0.85769 0.22497 0.76824 0.0
C429 C 0.83476 0.22181 0.75495 0.0
C430 C 0.74214 0.19223 0.73525 0.0
C431 C 0.75272 0.17087 0.74427 0.0
C432 C 0.47796 0.59578 0.62792 0.0
C433 C 0.48245 0.57826 0.64612 0.0
C434 C 0.50518 0.56624 0.64518 0.0
C435 C 0.52279 0.57106 0.62604 0.0
H436 H 0.57455 0.5326 0.58255 0.0
H437 H 0.60641 0.50261 0.57372 0.0
H438 H 0.64668 0.5564 0.52625 0.0
H439 H 0.61413 0.58596 0.53412 0.0
H440 H 0.57008 0.61633 0.50173 0.0
H441 H 0.55824 0.64331 0.46828 0.0
H442 H 0.50211 0.67453 0.51737 0.0
H443 H 0.51343 0.64744 0.5506 0.0
H444 H 0.49136 0.61388 0.59469 0.0
H445 H 0.46043 0.60506 0.62802 0.0
H446 H 0.50922 0.55283 0.65914 0.0
H447 H 0.53992 0.56112 0.62575 0.0
N448 N 0.55549 0.57662 0.58287 0.0
N449 N 0.56744 0.5965 0.54561 0.0
N450 N 0.53227 0.60902 0.56868 0.0
C451 C 0.57135 0.57899 0.5628 0.0
C452 C 0.54791 0.61161 0.54843 0.0
C453 C 0.53598 0.59165 0.58603 0.0
C454 C 0.59177 0.56164 0.55896 0.0
C455 C 0.59033 0.53815 0.57042 0.0
C456 C 0.60872 0.52101 0.56553 0.0
C457 C 0.62924 0.5272 0.54948 0.0
C458 C 0.63098 0.55097 0.53853 0.0
C459 C 0.61238 0.56794 0.54309 0.0
C460 C 0.54258 0.62953 0.52884 0.0
C461 C 0.55538 0.62912 0.50551 0.0
C462 C 0.54871 0.64464 0.48635 0.0
C463 C 0.52922 0.66093 0.49023 0.0
C464 C 0.517 0.6619 0.51378 0.0
C465 C 0.52358 0.6464 0.53285 0.0
C466 C 0.51809 0.58806 0.60737 0.0
C467 C 0.49564 0.60069 0.60876 0.0
C468 C 0.55875 0.40066 0.01332 0.0
C469 C 0.53309 0.39515 0.01947 0.0
C470 C 0.51455 0.40805 0.00757 0.0
C471 C 0.52151 0.42625 0.9901 0.0
H472 H 0.49276 0.46642 0.93293 0.0
H473 H 0.46172 0.48211 0.90473 0.0
H474 H 0.52145 0.52835 0.86945 0.0
H475 H 0.55266 0.51268 0.8974 0.0
H476 H 0.60701 0.51926 0.9219 0.0
H477 H 0.64574 0.54697 0.9303 0.0
H478 H 0.66048 0.50607 0.99644 0.0
H479 H 0.62178 0.47826 0.98832 0.0
H480 H 0.58572 0.42303 0.99189 0.0
H481 H 0.57343 0.39053 0.02158 0.0
H482 H 0.49462 0.40429 0.012 0.0
H483 H 0.50676 0.43603 0.9815 0.0
N484 N 0.53746 0.46017 0.95046 0.0
N485 N 0.56828 0.4903 0.93572 0.0
N486 N 0.57871 0.46363 0.96743 0.0
C487 C 0.54418 0.47912 0.93476 0.0
C488 C 0.58565 0.4827 0.952 0.0
C489 C 0.55471 0.45221 0.96671 0.0
C490 C 0.52525 0.48829 0.91749 0.0
C491 C 0.49934 0.47993 0.91919 0.0
C492 C 0.48151 0.48907 0.90322 0.0
C493 C 0.48922 0.50665 0.88519 0.0
C494 C 0.51506 0.51484 0.88327 0.0
C495 C 0.53289 0.50586 0.89933 0.0
C496 C 0.61101 0.4968 0.95469 0.0
C497 C 0.61865 0.51586 0.93804 0.0
C498 C 0.64087 0.53166 0.94272 0.0
C499 C 0.65573 0.52878 0.96418 0.0
C500 C 0.64904 0.5088 0.97995 0.0
C501 C 0.62692 0.49288 0.97521 0.0
C502 C 0.54721 0.43215 0.98436 0.0
C503 C 0.56576 0.41913 0.99612 0.0
C504 C 0.74308 0.30447 0.37454 0.0
C505 C 0.72315 0.32016 0.37888 0.0
C506 C 0.70467 0.32118 0.35997 0.0
C507 C 0.7062 0.30696 0.33708 0.0
H508 H 0.67984 0.30176 0.26387 0.0
H509 H 0.64317 0.30262 0.23613 0.0
H510 H 0.65925 0.23035 0.20048 0.0
H511 H 0.69594 0.22913 0.22846 0.0
H512 H 0.74418 0.20246 0.24823 0.0
H513 H 0.76878 0.16527 0.24844 0.0
H514 H 0.8051 0.19464 0.31828 0.0
H515 H 0.7805 0.23161 0.31845 0.0
H516 H 0.76015 0.27819 0.34903 0.0
H517 H 0.75768 0.30346 0.38876 0.0
H518 H 0.68882 0.33272 0.363 0.0
H519 H 0.6915 0.30808 0.323 0.0
N520 N 0.71063 0.27817 0.28973 0.0
N521 N 0.72647 0.24414 0.26615 0.0
N522 N 0.74339 0.2568 0.30633 0.0
C523 C 0.71023 0.26281 0.2683 0.0
C524 C 0.74329 0.24116 0.28506 0.0
C525 C 0.72711 0.27533 0.30882 0.0
C526 C 0.69059 0.26511 0.24874 0.0
C527 C 0.67584 0.28615 0.24993 0.0
C528 C 0.65493 0.28679 0.23392 0.0
C529 C 0.64824 0.26639 0.21649 0.0
C530 C 0.66386 0.24614 0.21409 0.0
C531 C 0.6849 0.24551 0.23004 0.0
C532 C 0.76003 0.21992 0.28352 0.0
C533 C 0.75756 0.20116 0.26353 0.0
C534 C 0.77169 0.17989 0.26357 0.0
C535 C 0.78847 0.17694 0.28359 0.0
C536 C 0.79186 0.19622 0.30289 0.0
C537 C 0.77779 0.21744 0.3029 0.0
C538 C 0.72612 0.29118 0.33271 0.0
C539 C 0.74455 0.29011 0.35172 0.0
C540 C 0.49085 0.12625 0.04065 0.0
C541 C 0.47496 0.1307 0.06132 0.0
C542 C 0.45874 0.1106 0.06992 0.0
C543 C 0.4579 0.08651 0.0575 0.0
H544 H 0.41848 0.01393 0.05328 0.0
H545 H 0.37822 0.98797 0.05631 0.0
H546 H 0.38951 0.95394 0.98165 0.0
H547 H 0.42986 0.97967 0.97845 0.0
H548 H 0.49078 0.98725 0.9588 0.0
H549 H 0.51655 0.98301 0.92055 0.0
H550 H 0.54409 0.06215 0.93028 0.0
H551 H 0.51877 0.06663 0.9684 0.0
H552 H 0.50251 0.09956 0.01225 0.0
H553 H 0.50386 0.1414 0.03402 0.0
H554 H 0.44643 0.11366 0.08597 0.0
H555 H 0.44489 0.07145 0.06428 0.0
N556 N 0.45256 0.03921 0.02669 0.0
N557 N 0.46632 0.01304 0.99308 0.0
N558 N 0.48806 0.05278 0.00305 0.0
C559 C 0.44977 0.01709 0.01223 0.0
C560 C 0.48565 0.03077 0.98851 0.0
C561 C 0.47171 0.05715 0.0222 0.0
C562 C 0.42729 -0.001 0.01556 0.0
C563 C 0.41262 0.00063 0.03766 0.0
C564 C 0.38968 0.9857 0.03949 0.0
C565 C 0.38095 0.96908 0.0192 0.0
C566 C 0.39597 0.9667 -0.0025 0.0
C567 C 0.41907 0.98137 0.99577 0.0
C568 C 0.50257 0.02732 0.96658 0.0
C569 C 0.50248 0.0037 0.95291 0.0
C570 C 0.51722 0.00121 0.93113 0.0
C571 C 0.53194 0.02234 0.92257 0.0
C572 C 0.53262 0.0457 0.93652 0.0
C573 C 0.51818 0.04816 0.95838 0.0
C574 C 0.4735 0.08211 0.03645 0.0
C575 C 0.49019 0.1022 0.02836 0.0
O576 O 0.22189 0.86315 0.00186 0.0
Cd577 Cd 0.2369 0.88218 0.03426 0.0
Cd578 Cd 0.22252 0.92289 0.00929 0.0
O579 O 0.21022 0.89576 0.98179 0.0
O580 O 0.24455 0.85308 0.05427 0.0
O581 O 0.21899 0.88183 0.06802 0.0
C582 C 0.2301 0.8615 0.07179 0.0
C583 C 0.19527 0.95271 0.02383 0.0
C584 C 0.21216 0.87203 0.98261 0.0
C585 C 0.27767 0.92272 0.02136 0.0
O586 O 0.26066 0.93397 0.01058 0.0
O587 O 0.27198 0.90212 0.03214 0.0
O588 O 0.20551 0.95373 0.00176 0.0
O589 O 0.20025 0.93429 0.03768 0.0
O590 O 0.14985 0.53771 0.28286 0.0
Cd591 Cd 0.13482 0.50471 0.29794 0.0
Cd592 Cd 0.09127 0.52285 0.2815 0.0
O593 O 0.11451 0.55479 0.27398 0.0
O594 O 0.16609 0.48863 0.30616 0.0
O595 O 0.13698 0.47059 0.27935 0.0
C596 C 0.15842 0.46975 0.2909 0.0
C597 C 0.06533 0.50542 0.24856 0.0
C598 C 0.1386 0.55601 0.2748 0.0
C599 C 0.09353 0.51117 0.33608 0.0
O600 O 0.07988 0.51731 0.318 0.0
O601 O 0.11636 0.50631 0.33218 0.0
O602 O 0.05962 0.52518 0.26206 0.0
O603 O 0.08583 0.49512 0.25414 0.0
O604 O 0.75578 0.68676 0.98202 0.0
Cd605 Cd 0.74965 0.66245 0.01117 0.0
Cd606 Cd 0.78523 0.63744 0.98589 0.0
O607 O 0.78887 0.66944 0.96534 0.0
O608 O 0.72764 0.68072 0.03506 0.0
O609 O 0.7659 0.67078 0.04548 0.0
C610 C 0.74526 0.68091 0.0519 0.0
C611 C 0.82094 0.6213 0.00235 0.0
C612 C 0.77352 0.68671 0.96583 0.0
C613 C 0.73395 0.6101 0.98851 0.0
O614 O 0.75531 0.61073 0.9775 0.0
O615 O 0.72869 0.62832 0.0037 0.0
O616 O 0.816 0.61945 0.97843 0.0
O617 O 0.80583 0.63319 0.01708 0.0
O618 O 0.90435 0.01723 0.28382 0.0
Cd619 Cd 0.88402 0.02475 0.25221 0.0
Cd620 Cd 0.85266 0.04214 0.28737 0.0
O621 O 0.88134 0.03654 0.31238 0.0
O622 O 0.90806 0.01808 0.22442 0.0
O623 O 0.8945 0.05599 0.23307 0.0
C624 C 0.90842 0.04168 0.21943 0.0
C625 C 0.83629 0.08174 0.28732 0.0
C626 C 0.90052 0.02446 0.30667 0.0
C627 C 0.83269 0.99675 0.25505 0.0
O628 O 0.82924 0.01073 0.27484 0.0
O629 O 0.85285 0.00032 0.24226 0.0
O630 O 0.83055 0.06612 0.30475 0.0
O631 O 0.85173 0.07485 0.2698 0.0
O632 O 0.25425 0.19347 0.4881 0.0
Cd633 Cd 0.24141 0.17208 0.51781 0.0
Cd634 Cd 0.27195 0.13843 0.49564 0.0
O635 O 0.28103 0.16731 0.47197 0.0
O636 O 0.22516 0.19698 0.54058 0.0
O637 O 0.25814 0.17709 0.55219 0.0
C638 C 0.24171 0.19333 0.55761 0.0
C639 C 0.30451 0.11669 0.51161 0.0
C640 C 0.27075 0.18815 0.47162 0.0
C641 C 0.21633 0.12203 0.49781 0.0
O642 O 0.23798 0.11709 0.48946 0.0
O643 O 0.21369 0.14269 0.51061 0.0
O644 O 0.29781 0.114 0.48814 0.0
O645 O 0.29298 0.1324 0.52617 0.0
O646 O 0.41587 0.52744 0.79157 0.0
Cd647 Cd 0.39201 0.53212 0.76164 0.0
Cd648 Cd 0.36401 0.55109 0.7986 0.0
O649 O 0.39521 0.5479 0.82119 0.0
O650 O 0.41339 0.52371 0.73206 0.0
O651 O 0.39993 0.56183 0.73965 0.0
C652 C 0.41306 0.54691 0.72582 0.0
C653 C 0.34687 0.58986 0.79567 0.0
C654 C 0.41416 0.53597 0.81435 0.0
C655 C 0.34233 0.50308 0.77213 0.0
O656 O 0.34054 0.51837 0.7913 0.0
O657 O 0.36055 0.50649 0.7567 0.0
O658 O 0.34391 0.57707 0.81571 0.0
O659 O 0.3599 0.58075 0.77716 0.0
O660 O 0.73466 0.36865 0.49397 0.0
Cd661 Cd 0.7466 0.3848 0.5288 0.0
Cd662 Cd 0.73318 0.42792 0.50681 0.0
O663 O 0.72486 0.40322 0.47606 0.0
O664 O 0.75397 0.35398 0.54634 0.0
O665 O 0.72671 0.38057 0.56119 0.0
C666 C 0.73827 0.36025 0.56366 0.0
C667 C 0.70287 0.45497 0.52051 0.0
C668 C 0.72704 0.37944 0.47481 0.0
C669 C 0.78713 0.42796 0.52335 0.0
O670 O 0.7707 0.44022 0.51286 0.0
O671 O 0.78118 0.40586 0.53094 0.0
O672 O 0.71561 0.45865 0.50007 0.0
O673 O 0.70727 0.4356 0.53328 0.0
O674 O 0.65495 0.04499 0.79137 0.0
Cd675 Cd 0.63767 0.01066 0.80143 0.0
Cd676 Cd 0.59834 0.02667 0.77448 0.0
O677 O 0.62443 0.05641 0.7671 0.0
O678 O 0.66645 0.99227 0.81267 0.0
O679 O 0.64168 0.9786 0.78009 0.0
C680 C 0.66087 0.97555 0.79446 0.0
C681 C 0.57208 0.01105 0.74091 0.0
C682 C 0.6465 0.0606 0.77671 0.0
C683 C 0.59044 0.01806 0.83011 0.0
O684 O 0.58191 0.02561 0.80965 0.0
O685 O 0.61251 0.01033 0.83097 0.0
O686 O 0.5689 0.03235 0.75297 0.0
O687 O 0.59052 -0.00165 0.74786 0.0
O688 O 0.97035 0.28938 0.91959 0.0
Cd689 Cd 0.97648 0.25846 0.89577 0.0
Cd690 Cd 0.00022 0.29355 0.86833 0.0
O691 O 0.99384 0.3178 0.89908 0.0
O692 O 0.96851 0.229 0.91699 0.0
O693 O 0.0071 0.23967 0.90286 0.0
C694 C 0.99226 0.22512 0.91629 0.0
C695 C 0.04122 0.29155 0.85291 0.0
C696 C 0.98012 0.31201 0.91796 0.0
C697 C 0.95418 0.26527 0.84478 0.0
O698 O 0.97083 0.28388 0.84316 0.0
O699 O 0.95389 0.25168 0.86391 0.0
O700 O 0.02813 0.31049 0.84877 0.0
O701 O 0.031 0.2737 0.86631 0.0
O702 O 0.46935 0.792 0.42112 0.0
Cd703 Cd 0.47383 0.76032 0.39779 0.0
Cd704 Cd 0.49419 0.79408 0.36687 0.0
O705 O 0.48998 0.81948 0.39721 0.0
O706 O 0.46745 0.73179 0.42049 0.0
O707 O 0.50476 0.74131 0.40298 0.0
C708 C 0.491 0.72751 0.41803 0.0
C709 C 0.53386 0.79226 0.34862 0.0
C710 C 0.47817 0.8146 0.41748 0.0
C711 C 0.44631 0.76515 0.34881 0.0
O712 O 0.46264 0.7835 0.34465 0.0
O713 O 0.44831 0.75248 0.36836 0.0
O714 O 0.52041 0.81111 0.34535 0.0
O715 O 0.5248 0.77416 0.36234 0.0
O716 O 0.98025 0.78092 0.67493 0.0
Cd717 Cd 0.01021 0.76604 0.65609 0.0
Cd718 Cd 0.98618 0.78175 0.6147 0.0
O719 O 0.95863 0.78901 0.64108 0.0
O720 O 0.03293 0.75684 0.68332 0.0
O721 O 0.04528 0.78439 0.6549 0.0
C722 C 0.05078 0.77155 0.67397 0.0
C723 C -0.00154 0.81368 0.5876 0.0
C724 C 0.96039 0.78824 0.66497 0.0
C725 C 0.99605 0.72697 0.61391 0.0
O726 O 0.98906 0.74487 0.6012 0.0
O727 O 0.00374 0.73145 0.63654 0.0
O728 O 0.97741 0.7997 0.58432 0.0
O729 O 0.01266 0.80967 0.60664 0.0
O730 O 0.47981 0.28275 0.17662 0.0
Cd731 Cd 0.50687 0.26578 0.15524 0.0
Cd732 Cd 0.4836 0.28756 0.11668 0.0
O733 O 0.45927 0.29769 0.14512 0.0
O734 O 0.52934 0.25251 0.18052 0.0
O735 O 0.54312 0.28106 0.1536 0.0
C736 C 0.54797 0.26648 0.17153 0.0
C737 C 0.49941 0.31878 0.09019 0.0
C738 C 0.46145 0.29423 0.16857 0.0
C739 C 0.48556 0.2312 0.11193 0.0
O740 O 0.47967 0.2509 0.10135 0.0
O741 O 0.49587 0.23319 0.13368 0.0
O742 O 0.47645 0.30853 0.08793 0.0
O743 O 0.51353 0.31139 0.10788 0.0
C744 C 0.20321 0.85024 0.91363 0.0
C745 C 0.20328 0.82365 0.91414 0.0
C746 C 0.20453 0.86566 0.93603 0.0
C747 C 0.20611 0.85508 0.95979 0.0
H748 H 0.20341 0.85933 0.89575 0.0
H749 H 0.20564 0.8861 0.93455 0.0
S750 S 0.20254 0.78615 0.97146 0.0
N751 N 0.20169 0.78714 0.94033 0.0
N752 N 0.20453 0.8161 0.98253 0.0
C753 C 0.20451 0.82839 0.96061 0.0
C754 C 0.20305 0.81269 0.93777 0.0
C755 C 0.04498 0.50874 0.38874 0.0
C756 C 0.05994 0.50805 0.41061 0.0
C757 C 0.05606 0.50963 0.36479 0.0
C758 C 0.08253 0.50964 0.36175 0.0
H759 H 0.02456 0.50921 0.3902 0.0
H760 H 0.04369 0.51039 0.34855 0.0
S761 S 0.12991 0.5069 0.41329 0.0
N762 N 0.10233 0.50666 0.42796 0.0
N763 N 0.12339 0.50823 0.38288 0.0
C764 C 0.09769 0.50845 0.38353 0.0
C765 C 0.08634 0.50774 0.40798 0.0
C766 C 0.8011 0.72817 0.91466 0.0
C767 C 0.77976 0.73915 0.9055 0.0
C768 C 0.79901 0.71173 0.93459 0.0
C769 C 0.77555 0.70586 0.94636 0.0
H770 H 0.81959 0.73217 0.90623 0.0
H771 H 0.8159 0.70342 0.9407 0.0
S772 S 0.71377 0.7292 0.92926 0.0
N773 N 0.73427 0.74255 0.90943 0.0
N774 N 0.73049 0.71227 0.94742 0.0
C775 C 0.75414 0.71713 0.9378 0.0
C776 C 0.75621 0.73362 0.91725 0.0
C777 C 0.93647 0.02792 0.36913 0.0
C778 C 0.95222 0.00783 0.36605 0.0
C779 C 0.91966 0.03305 0.3499 0.0
C780 C 0.91836 0.01855 0.32674 0.0
H781 H 0.937 0.0396 0.38663 0.0
H782 H 0.9078 0.04867 0.35313 0.0
S783 S 0.95618 0.96404 0.30935 0.0
N784 N 0.96577 0.97348 0.3383 0.0
N785 N 0.93444 0.98316 0.30196 0.0
C786 C 0.93423 -0.00152 0.32343 0.0
C787 C 0.95107 0.99309 0.34315 0.0
C788 C 0.25178 0.21072 0.62781 0.0
C789 C 0.24129 0.23428 0.63075 0.0
C790 C 0.25225 0.19768 0.60397 0.0
C791 C 0.24175 0.20757 0.58249 0.0
H792 H 0.25986 0.20248 0.64398 0.0
H793 H 0.26055 0.17958 0.60245 0.0
S794 S 0.21181 0.26863 0.58065 0.0
N795 N 0.22023 0.26701 0.61053 0.0
N796 N 0.22067 0.2425 0.56589 0.0
C797 C 0.23107 0.23109 0.58537 0.0
C798 C 0.23096 0.24446 0.60947 0.0
C799 C 0.45625 0.54541 0.66889 0.0
C800 C 0.46308 0.57126 0.66536 0.0
C801 C 0.43935 0.5379 0.6879 0.0
C802 C 0.42852 0.55591 0.70421 0.0
H803 H 0.46426 0.5308 0.65699 0.0
H804 H 0.43513 0.5177 0.69006 0.0
S805 S 0.43964 0.62614 0.70234 0.0
N806 N 0.45734 0.61502 0.67924 0.0
N807 N 0.42526 0.60092 0.71502 0.0
C808 C 0.43452 0.58191 0.70038 0.0
C809 C 0.45186 0.58957 0.68094 0.0
C810 C 0.73556 0.34368 0.63234 0.0
C811 C 0.73806 0.31734 0.63061 0.0
C812 C 0.73383 0.35737 0.61045 0.0
C813 C 0.73521 0.34517 0.58625 0.0
H814 H 0.73554 0.35381 0.6507 0.0
H815 H 0.73282 0.37778 0.61248 0.0
S816 S 0.74049 0.27634 0.5717 0.0
N817 N 0.74057 0.27942 0.60292 0.0
N818 N 0.73786 0.30516 0.56186 0.0
C819 C 0.73686 0.31873 0.58436 0.0
C820 C 0.73816 0.30479 0.60654 0.0
C821 C 0.51426 0.00429 0.69835 0.0
C822 C 0.52206 0.98965 0.67724 0.0
C823 C 0.53042 0.01048 0.71907 0.0
C824 C 0.55493 0.00201 0.7197 0.0
H825 H 0.49558 0.01137 0.69873 0.0
H826 H 0.5237 0.02225 0.73465 0.0
S827 S 0.58445 0.96267 0.66956 0.0
N828 N 0.55595 0.96661 0.6583 0.0
N829 N 0.58611 0.97766 0.6978 0.0
C830 C 0.56273 0.98657 0.69919 0.0
C831 C 0.54634 0.98051 0.67784 0.0
C832 C 0.89184 0.24062 0.81321 0.0
C833 C 0.8925 0.25273 0.79016 0.0
C834 C 0.91215 0.24428 0.83035 0.0
C835 C 0.93395 0.26033 0.82523 0.0
H836 H 0.87518 0.22868 0.8184 0.0
H837 H 0.91038 0.23491 0.84806 0.0
S838 S 0.94603 0.2947 0.76639 0.0
N839 N 0.91737 0.28 0.76222 0.0
N840 N 0.95558 0.28727 0.79458 0.0
C841 C 0.93516 0.27206 0.8019 0.0
C842 C 0.91443 0.26822 0.78437 0.0
C843 C 0.46014 0.848 0.47939 0.0
C844 C 0.4644 0.87388 0.4745 0.0
C845 C 0.46479 0.82903 0.46088 0.0
C846 C 0.47416 0.83522 0.43685 0.0
H847 H 0.45275 0.84239 0.49754 0.0
H848 H 0.46096 0.80935 0.4655 0.0
S849 S 0.48963 0.90051 0.41528 0.0
N850 N 0.47928 0.90493 0.44449 0.0
N851 N 0.48813 0.86937 0.40956 0.0
C852 C 0.47893 0.86114 0.43194 0.0
C853 C 0.47398 0.88044 0.45077 0.0
C854 C 0.10295 0.31238 0.8209 0.0
C855 C 0.11584 0.29014 0.81916 0.0
C856 C 0.07901 0.31257 0.83207 0.0
C857 C 0.06703 0.29058 0.84217 0.0
H858 H 0.11125 0.32972 0.81311 0.0
H859 H 0.06982 0.33018 0.83267 0.0
S860 S 0.09333 0.22758 0.8431 0.0
N861 N 0.11536 0.24568 0.82886 0.0
N862 N 0.07022 0.24594 0.85013 0.0
C863 C 0.07991 0.26823 0.84092 0.0
C864 C 0.1043 0.26802 0.82928 0.0
C865 C 0.49449 0.67582 0.46436 0.0
C866 C 0.5206 0.67623 0.46966 0.0
C867 C 0.48531 0.69166 0.44675 0.0
C868 C 0.50187 0.70857 0.43364 0.0
H869 H 0.48094 0.66344 0.47428 0.0
H870 H 0.46496 0.69104 0.4439 0.0
S871 S 0.57215 0.71609 0.43979 0.0
N872 N 0.56307 0.6942 0.45981 0.0
N873 N 0.54587 0.72393 0.42638 0.0
C874 C 0.52817 0.70841 0.43794 0.0
C875 C 0.53752 0.69225 0.45602 0.0
C876 C 0.92107 0.79933 0.72397 0.0
C877 C 0.89708 0.80338 0.7142 0.0
C878 C 0.94152 0.7951 0.70792 0.0
C879 C 0.9388 0.79469 0.6814 0.0
H880 H 0.92405 0.79929 0.74423 0.0
H881 H 0.95951 0.7918 0.71645 0.0
S882 S 0.87965 0.80438 0.64636 0.0
N883 N 0.8716 0.80677 0.67647 0.0
N884 N 0.91002 0.79915 0.64616 0.0
C885 C 0.91494 0.79923 0.67139 0.0
C886 C 0.89411 0.8035 0.68781 0.0
C887 C 0.02648 0.87613 0.56315 0.0
C888 C 0.01693 0.87528 0.53823 0.0
C889 C 0.02103 0.85581 0.57884 0.0
C890 C 0.00563 0.83405 0.57024 0.0
H891 H 0.03771 0.8929 0.57083 0.0
H892 H 0.02829 0.85751 0.59807 0.0
S893 S 0.9786 0.82105 0.50561 0.0
N894 N 0.99348 0.84976 0.50494 0.0
N895 N 0.98262 0.81194 0.53461 0.0
C896 C 0.99665 0.83261 0.54513 0.0
C897 C 0.00244 0.85313 0.52909 0.0
C898 C 0.10779 0.75124 0.70846 0.0
C899 C 0.12653 0.77127 0.70531 0.0
C900 C 0.08346 0.75172 0.69826 0.0
C901 C 0.07691 0.77212 0.68422 0.0
H902 H 0.11173 0.73537 0.7196 0.0
H903 H 0.06967 0.73587 0.70147 0.0
S904 S 0.11955 0.82886 0.6697 0.0
N905 N 0.13731 0.81186 0.68679 0.0
N906 N 0.09146 0.81262 0.66708 0.0
C907 C 0.09565 0.79206 0.68038 0.0
C908 C 0.12047 0.7917 0.69112 0.0
C909 C -0.0015 0.65532 0.60795 0.0
C910 C 0.9962 0.64981 0.58177 0.0
C911 C -0.00163 0.68032 0.61811 0.0
C912 C 0.99562 0.70071 0.60247 0.0
H913 H 0.00071 0.64021 0.62064 0.0
H914 H 0.00038 0.68363 0.63842 0.0
S915 S 0.9879 0.69585 0.53253 0.0
N916 N 0.99041 0.66631 0.54036 0.0
N917 N 0.99009 0.71342 0.55934 0.0
C918 C 0.99296 0.69532 0.5762 0.0
C919 C 0.99331 0.66985 0.56587 0.0
C920 C 0.78248 0.94196 0.26147 0.0
C921 C 0.78225 0.92919 0.23743 0.0
C922 C 0.79809 0.96438 0.26668 0.0
C923 C 0.81425 0.9748 0.2481 0.0
H924 H 0.77114 0.93412 0.27669 0.0
H925 H 0.79818 0.97304 0.28572 0.0
S926 S 0.81836 0.95044 0.1812 0.0
N927 N 0.79762 0.92993 0.19416 0.0
N928 N 0.82743 0.97183 0.20404 0.0
C929 C 0.81346 0.96278 0.22367 0.0
C930 C 0.79738 0.94004 0.21832 0.0
C931 C 0.81519 0.14382 0.26448 0.0
C932 C 0.80131 0.15314 0.28512 0.0
C933 C 0.82692 0.121 0.26553 0.0
C934 C 0.82489 0.10649 0.28714 0.0
H935 H 0.81705 0.15429 0.24743 0.0
H936 H 0.8373 0.1145 0.24911 0.0
S937 S 0.79016 0.12264 0.34611 0.0
N938 N 0.78589 0.14613 0.32763 0.0
N939 N 0.80788 0.1034 0.32975 0.0
C940 C 0.81108 0.11574 0.30794 0.0
C941 C 0.79931 0.13901 0.30689 0.0
C942 C 0.33752 0.9605 0.00098 0.0
C943 C 0.3552 0.956 0.01972 0.0
C944 C 0.31247 0.94966 0.00173 0.0
C945 C 0.30434 0.93362 0.02105 0.0
H946 H 0.34296 0.97294 0.98592 0.0
H947 H 0.29943 0.95383 0.98699 0.0
S948 S 0.34374 0.91552 0.07426 0.0
N949 N 0.36324 0.93442 0.05792 0.0
N950 N 0.31616 0.91358 0.05925 0.0
C951 C 0.32202 0.92865 0.0397 0.0
C952 C 0.34745 0.94001 0.03909 0.0
C953 C 0.21584 0.43178 0.29058 0.0
C954 C 0.20555 0.40675 0.28485 0.0
C955 C 0.2004 0.45201 0.29191 0.0
C956 C 0.17412 0.44804 0.28721 0.0
H957 H 0.2359 0.43566 0.29487 0.0
H958 H 0.20914 0.4709 0.29695 0.0
S959 S 0.13816 0.38615 0.27002 0.0
N960 N 0.16777 0.379 0.27355 0.0
N961 N 0.13858 0.41727 0.27562 0.0
C962 C 0.16368 0.42319 0.2806 0.0
C963 C 0.17943 0.40246 0.27961 0.0
C964 C 0.15173 0.08605 0.50474 0.0
C965 C 0.15068 0.06839 0.48387 0.0
C966 C 0.17296 0.1035 0.50898 0.0
C967 C 0.19406 0.10356 0.49273 0.0
H968 H 0.13588 0.08657 0.51768 0.0
H969 H 0.17294 0.11685 0.52525 0.0
S970 S 0.20056 0.06065 0.43557 0.0
N971 N 0.17228 0.05174 0.44689 0.0
N972 N 0.21245 0.08426 0.45492 0.0
C973 C 0.19326 0.08576 0.47189 0.0
C974 C 0.17148 0.06826 0.46742 0.0
C975 C 0.67402 0.11671 0.74091 0.0
C976 C 0.69404 0.12723 0.75671 0.0
C977 C 0.65852 0.09534 0.74768 0.0
C978 C 0.66262 0.08361 0.77042 0.0
H979 H 0.67055 0.12477 0.72295 0.0
H980 H 0.64353 0.08768 0.73475 0.0
S981 S 0.71104 0.10528 0.81951 0.0
N982 N 0.71594 0.12553 0.79697 0.0
N983 N 0.68724 0.08499 0.80944 0.0
C984 C 0.68229 0.09423 0.78662 0.0
C985 C 0.6979 0.11612 0.77983 0.0
C986 C 0.35696 0.07214 0.51181 0.0
C987 C 0.35887 0.06662 0.5374 0.0
C988 C 0.33991 0.08902 0.50391 0.0
C989 C 0.32414 0.1012 0.52127 0.0
H990 H 0.36853 0.06308 0.49767 0.0
H991 H 0.33885 0.09221 0.48389 0.0
S992 S 0.32222 0.09373 0.59061 0.0
N993 N 0.34388 0.07493 0.58024 0.0
N994 N 0.31203 0.1071 0.56542 0.0
C995 C 0.32644 0.09655 0.54708 0.0
C996 C 0.34377 0.07916 0.55514 0.0
C997 C 0.65539 0.50459 0.51755 0.0
C998 C 0.64803 0.50847 0.54292 0.0
C999 C 0.67301 0.48717 0.5106 0.0
C1000 C 0.68379 0.47264 0.52866 0.0
H1001 H 0.6473 0.51496 0.50283 0.0
H1002 H 0.67805 0.48494 0.49081 0.0
S1003 S 0.67184 0.47624 0.59778 0.0
N1004 N 0.65373 0.497 0.58638 0.0
N1005 N 0.68633 0.46359 0.57312 0.0
C1006 C 0.67657 0.47614 0.5541 0.0
C1007 C 0.65882 0.4942 0.56126 0.0
C1008 C 0.72492 0.32383 0.42616 0.0
C1009 C 0.72182 0.33537 0.40316 0.0
C1010 C 0.72547 0.33805 0.44928 0.0
C1011 C 0.72302 0.36446 0.45035 0.0
H1012 H 0.72723 0.30364 0.42626 0.0
H1013 H 0.72846 0.32829 0.46638 0.0
S1014 S 0.71367 0.40359 0.39528 0.0
N1015 N 0.71571 0.37455 0.38273 0.0
N1016 N 0.71639 0.40136 0.42615 0.0
C1017 C 0.71904 0.37608 0.42746 0.0
C1018 C 0.71854 0.36154 0.4039 0.0
C1019 C 0.5654 0.00418 0.89558 0.0
C1020 C 0.54587 0.02053 0.89854 0.0
C1021 C 0.57974 0.00344 0.87332 0.0
C1022 C 0.5747 0.01873 0.85319 0.0
H1023 H 0.56994 0.99232 0.91076 0.0
H1024 H 0.59486 0.99079 0.87189 0.0
S1025 S 0.52461 0.064 0.85168 0.0
N1026 N 0.52163 0.05179 0.8797 0.0
N1027 N 0.54827 0.05033 0.8377 0.0
C1028 C 0.55476 0.03476 0.85586 0.0
C1029 C 0.54043 0.03569 0.8786 0.0
C1030 C 0.27207 0.24668 0.43278 0.0
C1031 C 0.28492 0.23926 0.4107 0.0
C1032 C 0.26813 0.23027 0.45261 0.0
C1033 C 0.27691 0.20578 0.45115 0.0
H1034 H 0.26489 0.26531 0.43472 0.0
H1035 H 0.25788 0.23681 0.4691 0.0
S1036 S 0.31139 0.17711 0.39702 0.0
N1037 N 0.30614 0.20575 0.38827 0.0
N1038 N 0.29919 0.175 0.4256 0.0
C1039 C 0.29018 0.19828 0.42926 0.0
C1040 C 0.29408 0.21499 0.40904 0.0
C1041 C 0.47442 0.51358 0.84149 0.0
C1042 C 0.47046 0.51577 0.86773 0.0
C1043 C 0.45637 0.52075 0.82446 0.0
C1044 C 0.43373 0.53061 0.83302 0.0
H1045 H 0.49132 0.50565 0.83402 0.0
H1046 H 0.46011 0.5182 0.8044 0.0
S1047 S 0.41538 0.54181 0.90022 0.0
N1048 N 0.4431 0.52964 0.90169 0.0
N1049 N 0.40904 0.54322 0.86978 0.0
C1050 C 0.42996 0.53364 0.85934 0.0
C1051 C 0.44831 0.52613 0.87666 0.0
C1052 C 0.76039 0.7114 0.11754 0.0
C1053 C 0.73669 0.7188 0.12587 0.0
C1054 C 0.76293 0.69851 0.09389 0.0
C1055 C 0.74191 0.69288 0.07757 0.0
H1056 H 0.77715 0.71587 0.12929 0.0
H1057 H 0.78163 0.69352 0.08812 0.0
S1058 S 0.67556 0.7079 0.0908 0.0
N1059 N 0.69178 0.71936 0.11615 0.0
N1060 N 0.69638 0.69505 0.07191 0.0
C1061 C 0.718 0.69976 0.08596 0.0
C1062 C 0.71543 0.71273 0.11004 0.0
C1063 C 0.95041 0.08807 0.18203 0.0
C1064 C 0.96238 0.07171 0.1649 0.0
C1065 C 0.9322 0.07835 0.19911 0.0
C1066 C 0.92539 0.052 0.19951 0.0
H1067 H 0.95575 0.10835 0.18277 0.0
H1068 H 0.92406 0.09148 0.21261 0.0
S1069 S 0.94878 0.00182 0.15574 0.0
N1070 N 0.9644 0.02846 0.14748 0.0
N1071 N 0.93032 0.01012 0.17939 0.0
C1072 C 0.93637 0.03569 0.1815 0.0
C1073 C 0.95484 0.04557 0.16425 0.0
C1074 C 0.22972 0.80859 0.11692 0.0
C1075 C 0.22859 0.82147 0.14077 0.0
C1076 C 0.22927 0.82171 0.09471 0.0
C1077 C 0.22724 0.84811 0.09549 0.0
H1078 H 0.23201 0.78837 0.11544 0.0
H1079 H 0.23105 0.81113 0.07676 0.0
S1080 S 0.22199 0.89031 0.15322 0.0
N1081 N 0.22429 0.8618 0.16402 0.0
N1082 N 0.22287 0.88654 0.12203 0.0
C1083 C 0.22495 0.86108 0.11918 0.0
C1084 C 0.22586 0.84773 0.1419 0.0
C1085 C 0.00901 0.49688 0.20393 0.0
C1086 C 0.01855 0.48401 0.1825 0.0
C1087 C 0.02403 0.50279 0.22555 0.0
C1088 C 0.04913 0.4959 0.22671 0.0
H1089 H 0.98992 0.50295 0.20379 0.0
H1090 H 0.01602 0.51335 0.2413 0.0
S1091 S 0.08285 0.46104 0.17609 0.0
N1092 N 0.05449 0.46394 0.16397 0.0
N1093 N 0.08259 0.47456 0.20496 0.0
C1094 C 0.05858 0.48201 0.20588 0.0
C1095 C 0.04332 0.47617 0.18369 0.0
C1096 C 0.40121 0.76871 0.29328 0.0
C1097 C 0.37992 0.75271 0.29988 0.0
C1098 C 0.42285 0.7721 0.30886 0.0
C1099 C 0.424 0.75963 0.33169 0.0
H1100 H 0.40114 0.77873 0.27594 0.0
H1101 H 0.43867 0.78482 0.30306 0.0
S1102 S 0.37274 0.71617 0.35781 0.0
N1103 N 0.36096 0.72474 0.33098 0.0
N1104 N 0.40163 0.73065 0.36005 0.0
C1105 C 0.40285 0.74333 0.33833 0.0
C1106 C 0.38082 0.74 0.32251 0.0
C1107 C 0.97718 0.37673 0.95223 0.0
C1108 C 0.96652 0.3707 0.9757 0.0
C1109 C 0.98166 0.35762 0.93379 0.0
C1110 C 0.97539 0.33175 0.93802 0.0
H1111 H 0.98232 0.39639 0.94817 0.0
H1112 H 0.98993 0.36326 0.91601 0.0
S1113 S 0.94653 0.30617 0.99645 0.0
N1114 N 0.94948 0.33731 0.00224 0.0
N1115 N 0.95783 0.30124 0.96769 0.0
C1116 C 0.9646 0.32552 0.96148 0.0
C1117 C 0.96022 0.34502 0.98031 0.0
C1118 C 0.58665 0.77138 0.30617 0.0
C1119 C 0.60418 0.79306 0.30735 0.0
C1120 C 0.56439 0.7706 0.3207 0.0
C1121 C 0.55882 0.79161 0.33651 0.0
H1122 H 0.58959 0.75535 0.29318 0.0
H1123 H 0.55088 0.75401 0.31859 0.0
S1124 S 0.60009 0.85104 0.34965 0.0
N1125 N 0.61592 0.83449 0.32857 0.0
N1126 N 0.57343 0.83343 0.35463 0.0
C1127 C 0.57665 0.81279 0.33885 0.0
C1128 C 0.59952 0.8134 0.32459 0.0
C1129 C 0.03724 0.1937 0.95831 0.0
C1130 C 0.02078 0.1759 0.97039 0.0
C1131 C 0.02818 0.20865 0.93967 0.0
C1132 C 0.00236 0.20627 0.93253 0.0
H1133 H 0.05698 0.19688 0.9641 0.0
H1134 H 0.04125 0.22298 0.93172 0.0
S1135 S 0.95261 0.15928 0.95555 0.0
N1136 N 0.97834 0.15445 0.97173 0.0
N1137 N 0.96121 0.18255 0.93692 0.0
C1138 C 0.98613 0.18735 0.94335 0.0
C1139 C 0.99537 0.17218 0.96224 0.0
C1140 C 0.42699 0.30677 0.23027 0.0
C1141 C 0.40278 0.31224 0.2222 0.0
C1142 C 0.44608 0.3018 0.2128 0.0
C1143 C 0.44171 0.30213 0.18656 0.0
H1144 H 0.43112 0.30599 0.25026 0.0
H1145 H 0.46427 0.29723 0.21998 0.0
S1146 S 0.38144 0.31568 0.15573 0.0
N1147 N 0.37539 0.31782 0.18632 0.0
N1148 N 0.41133 0.30896 0.15343 0.0
C1149 C 0.41775 0.30831 0.17827 0.0
C1150 C 0.39828 0.31325 0.19609 0.0
C1151 C 0.50476 0.35769 0.0321 0.0
C1152 C 0.52543 0.37563 0.03783 0.0
C1153 C 0.49664 0.33941 0.04917 0.0
C1154 C 0.50901 0.33814 0.07257 0.0
H1155 H 0.4948 0.35767 0.01419 0.0
H1156 H 0.4806 0.32605 0.04383 0.0
S1157 S 0.56355 0.38127 0.09717 0.0
N1158 N 0.5576 0.39155 0.06902 0.0
N1159 N 0.54274 0.35663 0.10084 0.0
C1160 C 0.52983 0.3558 0.07853 0.0
C1161 C 0.53795 0.37466 0.06123 0.0
C1162 C 0.61687 0.28578 0.18935 0.0
C1163 C 0.62357 0.26517 0.20298 0.0
C1164 C 0.59257 0.28584 0.17858 0.0
C1165 C 0.57402 0.2655 0.18155 0.0
H1166 H 0.63042 0.3021 0.18727 0.0
H1167 H 0.58808 0.30223 0.1685 0.0
S1168 S 0.58241 0.20677 0.21519 0.0
N1169 N 0.61 0.22376 0.2185 0.0
N1170 N 0.56444 0.22377 0.1984 0.0
C1171 C 0.58072 0.24458 0.19478 0.0
C1172 C 0.60547 0.24443 0.20545 0.0
C1173 C 0.48096 0.15949 0.10011 0.0
C1174 C 0.47573 0.15629 0.07408 0.0
C1175 C 0.48371 0.18378 0.11222 0.0
C1176 C 0.48108 0.20575 0.09877 0.0
H1177 H 0.48364 0.14314 0.11104 0.0
H1178 H 0.48821 0.18531 0.13225 0.0
S1179 S 0.46543 0.20706 0.03039 0.0
N1180 N 0.46664 0.17659 0.03536 0.0
N1181 N 0.47169 0.22238 0.058 0.0
C1182 C 0.475 0.20264 0.07279 0.0
C1183 C 0.47239 0.17788 0.06047 0.0
C1184 C 0.30665 0.44432 0.74097 0.0
C1185 C 0.29439 0.43266 0.76145 0.0
C1186 C 0.32146 0.46751 0.74449 0.0
C1187 C 0.32441 0.48007 0.76858 0.0
H1188 H 0.30496 0.43535 0.72208 0.0
H1189 H 0.33091 0.4755 0.72821 0.0
S1190 S 0.29656 0.45736 0.82852 0.0
N1191 N 0.2865 0.43521 0.80677 0.0
N1192 N 0.31376 0.47914 0.81327 0.0
C1193 C 0.31176 0.46893 0.78914 0.0
C1194 C 0.2969 0.44515 0.7856 0.0
C1195 C 0.30628 0.63917 0.77125 0.0
C1196 C 0.30514 0.65657 0.7923 0.0
C1197 C 0.32095 0.61822 0.77194 0.0
C1198 C 0.33459 0.61375 0.79384 0.0
H1199 H 0.29499 0.64113 0.75448 0.0
H1200 H 0.3206 0.60478 0.75571 0.0
S1201 S 0.34137 0.65548 0.85241 0.0
N1202 N 0.32196 0.66961 0.83432 0.0
N1203 N 0.34826 0.62949 0.836 0.0
C1204 C 0.33461 0.63152 0.81451 0.0
C1205 C 0.32022 0.65312 0.81364 0.0
C1206 C 0.84871 0.46639 0.50936 0.0
C1207 C 0.86519 0.45955 0.52821 0.0
C1208 C 0.8233 0.4565 0.50831 0.0
C1209 C 0.81366 0.43905 0.52579 0.0
H1210 H 0.85551 0.47961 0.49541 0.0
H1211 H 0.8113 0.46217 0.49336 0.0
S1212 S 0.84928 0.41544 0.57901 0.0
N1213 N 0.8703 0.43486 0.56498 0.0
N1214 N 0.82256 0.41573 0.56284 0.0
C1215 C 0.83001 0.43214 0.54482 0.0
C1216 C 0.85578 0.44256 0.54609 0.0
C1217 C 0.71722 0.93606 0.79628 0.0
C1218 C 0.70752 0.91227 0.7857 0.0
C1219 C 0.70195 0.95642 0.79874 0.0
C1220 C 0.67655 0.95385 0.79032 0.0
H1221 H 0.73658 0.93874 0.80334 0.0
H1222 H 0.71014 0.9743 0.80741 0.0
S1223 S 0.64255 0.89561 0.76026 0.0
N1224 N 0.67131 0.88723 0.76622 0.0
N1225 N 0.64258 0.9258 0.7703 0.0
C1226 C 0.66681 0.93033 0.77904 0.0
C1227 C 0.6823 0.90942 0.77693 0.0
C1228 C 0.69627 0.55418 0.95426 0.0
C1229 C 0.67665 0.54815 0.97137 0.0
C1230 C 0.71522 0.57381 0.96024 0.0
C1231 C 0.71483 0.58837 0.98331 0.0
H1232 H 0.69683 0.54379 0.93607 0.0
H1233 H 0.72984 0.57805 0.94639 0.0
S1234 S 0.66751 0.57967 0.03463 0.0
N1235 N 0.65805 0.55781 0.01237 0.0
N1236 N 0.69347 0.59478 0.02363 0.0
C1237 C 0.69543 0.58221 0.00069 0.0
C1238 C 0.67639 0.56207 0.99472 0.0
C1239 C 0.15724 0.62476 0.26055 0.0
C1240 C 0.18327 0.62457 0.25511 0.0
C1241 C 0.14273 0.60237 0.26632 0.0
C1242 C 0.15379 0.57906 0.26693 0.0
H1243 H 0.1482 0.64245 0.26108 0.0
H1244 H 0.12289 0.60352 0.27103 0.0
S1245 S 0.22055 0.56804 0.25082 0.0
N1246 N 0.21896 0.59888 0.24826 0.0
N1247 N 0.1919 0.55686 0.25937 0.0
C1248 C 0.17961 0.57851 0.26052 0.0
C1249 C 0.19429 0.60124 0.25455 0.0
C1250 C 0.85769 0.58286 0.04583 0.0
C1251 C 0.87678 0.57421 0.02983 0.0
C1252 C 0.84055 0.5995 0.03735 0.0
C1253 C 0.84188 0.60792 0.01256 0.0
H1254 H 0.85518 0.57571 0.06456 0.0
H1255 H 0.82533 0.60464 0.04982 0.0
S1256 S 0.89121 0.59435 0.96497 0.0
N1257 N 0.89817 0.57797 0.9894 0.0
N1258 N 0.86579 0.60891 0.97329 0.0
C1259 C 0.86197 0.60078 0.99704 0.0
C1260 C 0.87945 0.58399 0.00572 0.0
C1261 C 0.1515 0.00582 0.02232 0.0
C1262 C 0.14702 0.0118 0.04807 0.0
C1263 C 0.16701 0.9866 0.01479 0.0
C1264 C 0.17846 0.97236 0.03267 0.0
H1265 H 0.14269 0.01585 0.00778 0.0
H1266 H 0.16982 0.98274 0.99472 0.0
S1267 S 0.17387 0.98125 0.1025 0.0
N1268 N 0.15623 0.00266 0.09157 0.0
N1269 N 0.18487 0.96597 0.07733 0.0
C1270 C 0.17417 0.97806 0.0585 0.0
C1271 C 0.15858 -0.0021 0.06621 0.0
loop_
_geom_bond_atom_site_label_1
_geom_bond_atom_site_label_2
_geom_bond_distance
_geom_bond_site_symmetry_2
_ccdc_geom_bond_type
C0 C1 1.384 . S
C0 H13 0.947 . S
C0 C35 1.382 . S
C1 C0 1.384 . S
C1 C2 1.378 . S
C2 C1 1.378 . S
C2 C3 1.378 . S
C2 H14 0.952 . S
C3 C2 1.378 . S
C3 H15 0.950 . S
C3 C34 1.383 . S
H4 C23 0.947 . S
H5 C24 0.946 . S
H6 C26 0.953 . S
H7 C27 0.945 . S
H8 C29 0.952 . S
H9 C30 0.949 . S
H10 C32 0.950 . S
H11 C33 0.948 . S
H12 C35 0.951 . S
H13 C0 0.947 . S
H14 C2 0.952 . S
H15 C3 0.950 . S
N16 C19 1.382 . S
N16 C21 1.363 . S
N17 C19 1.371 . S
N17 C20 1.372 . S
N18 C20 1.361 . S
N18 C21 1.377 . S
C19 N16 1.382 . S
C19 N17 1.371 . S
C19 C22 1.480 . S
C20 N17 1.372 . S
C20 N18 1.361 . S
C20 C28 1.457 . S
C21 N16 1.363 . S
C21 N18 1.377 . S
C21 C34 1.479 . S
C22 C19 1.480 . S
C22 C23 1.383 . S
C22 C27 1.385 . S
C23 H4 0.947 . S
C23 C22 1.383 . S
C23 C24 1.388 . S
C24 H5 0.946 . S
C24 C23 1.388 . S
C24 C25 1.384 . S
C25 C24 1.384 . S
C25 C26 1.377 . S
C26 H6 0.953 . S
C26 C25 1.377 . S
C26 C27 1.369 . S
C27 H7 0.945 . S
C27 C22 1.385 . S
C27 C26 1.369 . S
C28 C20 1.457 . S
C28 C29 1.372 . S
C28 C33 1.364 . S
C29 H8 0.952 . S
C29 C28 1.372 . S
C29 C30 1.389 . S
C30 H9 0.949 . S
C30 C29 1.389 . S
C30 C31 1.387 . S
C31 C30 1.387 . S
C31 C32 1.372 . S
C32 H10 0.950 . S
C32 C31 1.372 . S
C32 C33 1.379 . S
C33 H11 0.948 . S
C33 C28 1.364 . S
C33 C32 1.379 . S
C34 C3 1.383 . S
C34 C21 1.479 . S
C34 C35 1.398 . S
C35 C0 1.382 . S
C35 H12 0.951 . S
C35 C34 1.398 . S
C36 C37 1.384 . S
C36 H49 0.947 . S
C36 C71 1.382 . S
C37 C36 1.384 . S
C37 C38 1.378 . S
C38 C37 1.378 . S
C38 C39 1.378 . S
C38 H50 0.952 . S
C39 C38 1.378 . S
C39 H51 0.950 . S
C39 C70 1.383 . S
H40 C59 0.947 . S
H41 C60 0.946 . S
H42 C62 0.953 . S
H43 C63 0.945 . S
H44 C65 0.952 . S
H45 C66 0.949 . S
H46 C68 0.950 . S
H47 C69 0.948 . S
H48 C71 0.951 . S
H49 C36 0.947 . S
H50 C38 0.952 . S
H51 C39 0.950 . S
N52 C55 1.382 . S
N52 C57 1.363 . S
N53 C55 1.371 . S
N53 C56 1.372 . S
N54 C56 1.361 . S
N54 C57 1.377 . S
C55 N52 1.382 . S
C55 N53 1.371 . S
C55 C58 1.480 . S
C56 N53 1.372 . S
C56 N54 1.361 . S
C56 C64 1.457 . S
C57 N52 1.363 . S
C57 N54 1.377 . S
C57 C70 1.479 . S
C58 C55 1.480 . S
C58 C59 1.383 . S
C58 C63 1.385 . S
C59 H40 0.947 . S
C59 C58 1.383 . S
C59 C60 1.388 . S
C60 H41 0.946 . S
C60 C59 1.388 . S
C60 C61 1.384 . S
C61 C60 1.384 . S
C61 C62 1.377 . S
C62 H42 0.953 . S
C62 C61 1.377 . S
C62 C63 1.369 . S
C63 H43 0.945 . S
C63 C58 1.385 . S
C63 C62 1.369 . S
C64 C56 1.457 . S
C64 C65 1.372 . S
C64 C69 1.364 . S
C65 H44 0.952 . S
C65 C64 1.372 . S
C65 C66 1.389 . S
C66 H45 0.949 . S
C66 C65 1.389 . S
C66 C67 1.387 . S
C67 C66 1.387 . S
C67 C68 1.372 . S
C68 H46 0.950 . S
C68 C67 1.372 . S
C68 C69 1.379 . S
C69 H47 0.948 . S
C69 C64 1.364 . S
C69 C68 1.379 . S
C70 C39 1.383 . S
C70 C57 1.479 . S
C70 C71 1.398 . S
C71 C36 1.382 . S
C71 H48 0.951 . S
C71 C70 1.398 . S
C72 C73 1.384 . S
C72 H85 0.947 . S
C72 C107 1.382 . S
C73 C72 1.384 . S
C73 C74 1.378 . S
C74 C73 1.378 . S
C74 C75 1.378 . S
C74 H86 0.952 1_554 S
C75 C74 1.378 . S
C75 H87 0.950 . S
C75 C106 1.383 . S
H76 C95 0.947 . S
H77 C96 0.946 . S
H78 C98 0.953 . S
H79 C99 0.945 . S
H80 C101 0.952 . S
H81 C102 0.949 . S
H82 C104 0.950 . S
H83 C105 0.948 . S
H84 C107 0.951 . S
H85 C72 0.947 . S
H86 C74 0.952 1_556 S
H87 C75 0.950 . S
N88 C91 1.382 . S
N88 C93 1.363 . S
N89 C91 1.371 . S
N89 C92 1.372 . S
N90 C92 1.361 . S
N90 C93 1.377 . S
C91 N88 1.382 . S
C91 N89 1.371 . S
C91 C94 1.480 . S
C92 N89 1.372 . S
C92 N90 1.361 . S
C92 C100 1.457 . S
C93 N88 1.363 . S
C93 N90 1.377 . S
C93 C106 1.479 . S
C94 C91 1.480 . S
C94 C95 1.383 . S
C94 C99 1.385 . S
C95 H76 0.947 . S
C95 C94 1.383 . S
C95 C96 1.388 . S
C96 H77 0.946 . S
C96 C95 1.388 . S
C96 C97 1.384 . S
C97 C96 1.384 . S
C97 C98 1.377 . S
C98 H78 0.953 . S
C98 C97 1.377 . S
C98 C99 1.369 . S
C99 H79 0.945 . S
C99 C94 1.385 . S
C99 C98 1.369 . S
C100 C92 1.457 . S
C100 C101 1.372 . S
C100 C105 1.364 . S
C101 H80 0.952 . S
C101 C100 1.372 . S
C101 C102 1.389 . S
C102 H81 0.949 . S
C102 C101 1.389 . S
C102 C103 1.387 . S
C103 C102 1.387 . S
C103 C104 1.372 . S
C104 H82 0.950 . S
C104 C103 1.372 . S
C104 C105 1.379 . S
C105 H83 0.948 . S
C105 C100 1.364 . S
C105 C104 1.379 . S
C106 C75 1.383 . S
C106 C93 1.479 . S
C106 C107 1.398 . S
C107 C72 1.382 . S
C107 H84 0.951 . S
C107 C106 1.398 . S
C108 C109 1.384 . S
C108 H121 0.947 . S
C108 C143 1.382 . S
C109 C108 1.384 . S
C109 C110 1.378 . S
C110 C109 1.378 . S
C110 C111 1.378 . S
C110 H122 0.952 . S
C111 C110 1.378 . S
C111 H123 0.950 . S
C111 C142 1.383 . S
H112 C131 0.947 . S
H113 C132 0.946 . S
H114 C134 0.953 . S
H115 C135 0.945 . S
H116 C137 0.952 . S
H117 C138 0.949 . S
H118 C140 0.950 . S
H119 C141 0.948 . S
H120 C143 0.951 . S
H121 C108 0.947 . S
H122 C110 0.952 . S
H123 C111 0.950 . S
N124 C127 1.382 . S
N124 C129 1.363 . S
N125 C127 1.371 . S
N125 C128 1.372 . S
N126 C128 1.361 . S
N126 C129 1.377 . S
C127 N124 1.382 . S
C127 N125 1.371 . S
C127 C130 1.480 . S
C128 N125 1.372 . S
C128 N126 1.361 . S
C128 C136 1.457 . S
C129 N124 1.363 . S
C129 N126 1.377 . S
C129 C142 1.479 . S
C130 C127 1.480 . S
C130 C131 1.383 . S
C130 C135 1.385 . S
C131 H112 0.947 . S
C131 C130 1.383 . S
C131 C132 1.388 . S
C132 H113 0.946 . S
C132 C131 1.388 . S
C132 C133 1.384 . S
C133 C132 1.384 . S
C133 C134 1.377 . S
C134 H114 0.953 . S
C134 C133 1.377 . S
C134 C135 1.369 . S
C135 H115 0.945 . S
C135 C130 1.385 . S
C135 C134 1.369 . S
C136 C128 1.457 . S
C136 C137 1.372 . S
C136 C141 1.364 . S
C137 H116 0.952 . S
C137 C136 1.372 . S
C137 C138 1.389 . S
C138 H117 0.949 . S
C138 C137 1.389 . S
C138 C139 1.387 . S
C139 C138 1.387 . S
C139 C140 1.372 . S
C140 H118 0.950 . S
C140 C139 1.372 . S
C140 C141 1.379 . S
C141 H119 0.948 . S
C141 C136 1.364 . S
C141 C140 1.379 . S
C142 C111 1.383 . S
C142 C129 1.479 . S
C142 C143 1.398 . S
C143 C108 1.382 . S
C143 H120 0.951 . S
C143 C142 1.398 . S
C144 C145 1.384 . S
C144 H157 0.947 . S
C144 C179 1.382 . S
C145 C144 1.384 . S
C145 C146 1.378 . S
C146 C145 1.378 . S
C146 C147 1.378 . S
C146 H158 0.952 . S
C147 C146 1.378 . S
C147 H159 0.950 . S
C147 C178 1.383 . S
H148 C167 0.947 . S
H149 C168 0.946 1_655 S
H150 C170 0.953 1_545 S
H151 C171 0.945 . S
H152 C173 0.952 . S
H153 C174 0.949 . S
H154 C176 0.950 . S
H155 C177 0.948 . S
H156 C179 0.951 . S
H157 C144 0.947 . S
H158 C146 0.952 . S
H159 C147 0.950 . S
N160 C163 1.382 . S
N160 C165 1.363 . S
N161 C163 1.371 . S
N161 C164 1.372 . S
N162 C164 1.361 . S
N162 C165 1.377 . S
C163 N160 1.382 . S
C163 N161 1.371 . S
C163 C166 1.480 . S
C164 N161 1.372 . S
C164 N162 1.361 . S
C164 C172 1.457 . S
C165 N160 1.363 . S
C165 N162 1.377 . S
C165 C178 1.479 . S
C166 C163 1.480 . S
C166 C167 1.383 . S
C166 C171 1.385 . S
C167 H148 0.947 . S
C167 C166 1.383 . S
C167 C168 1.388 . S
C168 H149 0.946 1_455 S
C168 C167 1.388 . S
C168 C169 1.384 . S
C169 C168 1.384 . S
C169 C170 1.377 . S
C170 H150 0.953 1_565 S
C170 C169 1.377 . S
C170 C171 1.369 . S
C171 H151 0.945 . S
C171 C166 1.385 . S
C171 C170 1.369 . S
C172 C164 1.457 . S
C172 C173 1.372 1_565 S
C172 C177 1.364 . S
C173 H152 0.952 . S
C173 C172 1.372 1_545 S
C173 C174 1.389 . S
C174 H153 0.949 . S
C174 C173 1.389 . S
C174 C175 1.387 . S
C175 C174 1.387 . S
C175 C176 1.372 1_545 S
C176 H154 0.950 . S
C176 C175 1.372 1_565 S
C176 C177 1.379 . S
C177 H155 0.948 . S
C177 C172 1.364 . S
C177 C176 1.379 . S
C178 C147 1.383 . S
C178 C165 1.479 . S
C178 C179 1.398 . S
C179 C144 1.382 . S
C179 H156 0.951 . S
C179 C178 1.398 . S
C180 C181 1.384 . S
C180 H193 0.947 . S
C180 C215 1.382 . S
C181 C180 1.384 . S
C181 C182 1.378 . S
C182 C181 1.378 . S
C182 C183 1.378 . S
C182 H194 0.952 . S
C183 C182 1.378 . S
C183 H195 0.950 . S
C183 C214 1.383 . S
H184 C203 0.947 . S
H185 C204 0.946 . S
H186 C206 0.953 . S
H187 C207 0.945 . S
H188 C209 0.952 . S
H189 C210 0.949 . S
H190 C212 0.950 . S
H191 C213 0.948 . S
H192 C215 0.951 . S
H193 C180 0.947 . S
H194 C182 0.952 . S
H195 C183 0.950 . S
N196 C199 1.382 . S
N196 C201 1.363 . S
N197 C199 1.371 . S
N197 C200 1.372 . S
N198 C200 1.361 . S
N198 C201 1.377 . S
C199 N196 1.382 . S
C199 N197 1.371 . S
C199 C202 1.480 . S
C200 N197 1.372 . S
C200 N198 1.361 . S
C200 C208 1.457 . S
C201 N196 1.363 . S
C201 N198 1.377 . S
C201 C214 1.479 . S
C202 C199 1.480 . S
C202 C203 1.383 . S
C202 C207 1.385 . S
C203 H184 0.947 . S
C203 C202 1.383 . S
C203 C204 1.388 . S
C204 H185 0.946 . S
C204 C203 1.388 . S
C204 C205 1.384 . S
C205 C204 1.384 . S
C205 C206 1.377 . S
C206 H186 0.953 . S
C206 C205 1.377 . S
C206 C207 1.369 . S
C207 H187 0.945 . S
C207 C202 1.385 . S
C207 C206 1.369 . S
C208 C200 1.457 . S
C208 C209 1.372 . S
C208 C213 1.364 . S
C209 H188 0.952 . S
C209 C208 1.372 . S
C209 C210 1.389 . S
C210 H189 0.949 . S
C210 C209 1.389 . S
C210 C211 1.387 . S
C211 C210 1.387 . S
C211 C212 1.372 . S
C212 H190 0.950 . S
C212 C211 1.372 . S
C212 C213 1.379 . S
C213 H191 0.948 . S
C213 C208 1.364 . S
C213 C212 1.379 . S
C214 C183 1.383 . S
C214 C201 1.479 . S
C214 C215 1.398 . S
C215 C180 1.382 . S
C215 H192 0.951 . S
C215 C214 1.398 . S
C216 C217 1.384 . S
C216 H229 0.947 . S
C216 C251 1.382 . S
C217 C216 1.384 . S
C217 C218 1.378 . S
C218 C217 1.378 . S
C218 C219 1.378 . S
C218 H230 0.952 . S
C219 C218 1.378 . S
C219 H231 0.950 . S
C219 C250 1.383 . S
H220 C239 0.947 . S
H221 C240 0.946 . S
H222 C242 0.953 . S
H223 C243 0.945 . S
H224 C245 0.952 . S
H225 C246 0.949 . S
H226 C248 0.950 1_455 S
H227 C249 0.948 . S
H228 C251 0.951 . S
H229 C216 0.947 . S
H230 C218 0.952 . S
H231 C219 0.950 . S
N232 C235 1.382 . S
N232 C237 1.363 . S
N233 C235 1.371 . S
N233 C236 1.372 . S
N234 C236 1.361 . S
N234 C237 1.377 . S
C235 N232 1.382 . S
C235 N233 1.371 . S
C235 C238 1.480 . S
C236 N233 1.372 . S
C236 N234 1.361 . S
C236 C244 1.457 . S
C237 N232 1.363 . S
C237 N234 1.377 . S
C237 C250 1.479 . S
C238 C235 1.480 . S
C238 C239 1.383 . S
C238 C243 1.385 . S
C239 H220 0.947 . S
C239 C238 1.383 . S
C239 C240 1.388 . S
C240 H221 0.946 . S
C240 C239 1.388 . S
C240 C241 1.384 . S
C241 C240 1.384 . S
C241 C242 1.377 . S
C242 H222 0.953 . S
C242 C241 1.377 . S
C242 C243 1.369 . S
C243 H223 0.945 . S
C243 C238 1.385 . S
C243 C242 1.369 . S
C244 C236 1.457 . S
C244 C245 1.372 . S
C244 C249 1.364 . S
C245 H224 0.952 . S
C245 C244 1.372 . S
C245 C246 1.389 . S
C246 H225 0.949 . S
C246 C245 1.389 . S
C246 C247 1.387 . S
C247 C246 1.387 . S
C247 C248 1.372 . S
C248 H226 0.950 1_655 S
C248 C247 1.372 . S
C248 C249 1.379 . S
C249 H227 0.948 . S
C249 C244 1.364 . S
C249 C248 1.379 . S
C250 C219 1.383 . S
C250 C237 1.479 . S
C250 C251 1.398 . S
C251 C216 1.382 . S
C251 H228 0.951 . S
C251 C250 1.398 . S
C252 C253 1.384 . S
C252 H265 0.947 . S
C252 C287 1.382 . S
C253 C252 1.384 . S
C253 C254 1.378 . S
C254 C253 1.378 . S
C254 C255 1.378 . S
C254 H266 0.952 . S
C255 C254 1.378 . S
C255 H267 0.950 . S
C255 C286 1.383 . S
H256 C275 0.947 . S
H257 C276 0.946 . S
H258 C278 0.953 . S
H259 C279 0.945 . S
H260 C281 0.952 . S
H261 C282 0.949 . S
H262 C284 0.950 . S
H263 C285 0.948 . S
H264 C287 0.951 . S
H265 C252 0.947 . S
H266 C254 0.952 . S
H267 C255 0.950 . S
N268 C271 1.382 . S
N268 C273 1.363 . S
N269 C271 1.371 . S
N269 C272 1.372 . S
N270 C272 1.361 . S
N270 C273 1.377 . S
C271 N268 1.382 . S
C271 N269 1.371 . S
C271 C274 1.480 . S
C272 N269 1.372 . S
C272 N270 1.361 . S
C272 C280 1.457 . S
C273 N268 1.363 . S
C273 N270 1.377 . S
C273 C286 1.479 . S
C274 C271 1.480 . S
C274 C275 1.383 . S
C274 C279 1.385 . S
C275 H256 0.947 . S
C275 C274 1.383 . S
C275 C276 1.388 . S
C276 H257 0.946 . S
C276 C275 1.388 . S
C276 C277 1.384 . S
C277 C276 1.384 . S
C277 C278 1.377 . S
C278 H258 0.953 . S
C278 C277 1.377 . S
C278 C279 1.369 . S
C279 H259 0.945 . S
C279 C274 1.385 . S
C279 C278 1.369 . S
C280 C272 1.457 . S
C280 C281 1.372 . S
C280 C285 1.364 . S
C281 H260 0.952 . S
C281 C280 1.372 . S
C281 C282 1.389 . S
C282 H261 0.949 . S
C282 C281 1.389 . S
C282 C283 1.387 . S
C283 C282 1.387 . S
C283 C284 1.372 . S
C284 H262 0.950 . S
C284 C283 1.372 . S
C284 C285 1.379 . S
C285 H263 0.948 . S
C285 C280 1.364 . S
C285 C284 1.379 . S
C286 C255 1.383 . S
C286 C273 1.479 . S
C286 C287 1.398 . S
C287 C252 1.382 . S
C287 H264 0.951 . S
C287 C286 1.398 . S
C288 C289 1.384 . S
C288 H301 0.947 . S
C288 C323 1.382 . S
C289 C288 1.384 . S
C289 C290 1.378 . S
C290 C289 1.378 . S
C290 C291 1.378 . S
C290 H302 0.952 . S
C291 C290 1.378 . S
C291 H303 0.950 . S
C291 C322 1.383 . S
H292 C311 0.947 . S
H293 C312 0.946 . S
H294 C314 0.953 . S
H295 C315 0.945 . S
H296 C317 0.952 . S
H297 C318 0.949 . S
H298 C320 0.950 . S
H299 C321 0.948 . S
H300 C323 0.951 . S
H301 C288 0.947 . S
H302 C290 0.952 . S
H303 C291 0.950 . S
N304 C307 1.382 . S
N304 C309 1.363 . S
N305 C307 1.371 . S
N305 C308 1.372 . S
N306 C308 1.361 . S
N306 C309 1.377 . S
C307 N304 1.382 . S
C307 N305 1.371 . S
C307 C310 1.480 . S
C308 N305 1.372 . S
C308 N306 1.361 . S
C308 C316 1.457 . S
C309 N304 1.363 . S
C309 N306 1.377 . S
C309 C322 1.479 . S
C310 C307 1.480 . S
C310 C311 1.383 . S
C310 C315 1.385 . S
C311 H292 0.947 . S
C311 C310 1.383 . S
C311 C312 1.388 . S
C312 H293 0.946 . S
C312 C311 1.388 . S
C312 C313 1.384 . S
C313 C312 1.384 . S
C313 C314 1.377 . S
C314 H294 0.953 . S
C314 C313 1.377 . S
C314 C315 1.369 . S
C315 H295 0.945 . S
C315 C310 1.385 . S
C315 C314 1.369 . S
C316 C308 1.457 . S
C316 C317 1.372 . S
C316 C321 1.364 . S
C317 H296 0.952 . S
C317 C316 1.372 . S
C317 C318 1.389 . S
C318 H297 0.949 . S
C318 C317 1.389 . S
C318 C319 1.387 . S
C319 C318 1.387 . S
C319 C320 1.372 . S
C320 H298 0.950 . S
C320 C319 1.372 . S
C320 C321 1.379 . S
C321 H299 0.948 . S
C321 C316 1.364 . S
C321 C320 1.379 . S
C322 C291 1.383 . S
C322 C309 1.479 . S
C322 C323 1.398 . S
C323 C288 1.382 . S
C323 H300 0.951 . S
C323 C322 1.398 . S
C324 C325 1.384 . S
C324 H337 0.947 . S
C324 C359 1.382 . S
C325 C324 1.384 . S
C325 C326 1.378 . S
C326 C325 1.378 . S
C326 C327 1.378 . S
C326 H338 0.952 . S
C327 C326 1.378 . S
C327 H339 0.950 . S
C327 C358 1.383 . S
H328 C347 0.947 . S
H329 C348 0.946 . S
H330 C350 0.927 1_545 S
H331 C351 0.945 . S
H332 C353 0.952 . S
H333 C354 0.949 . S
H334 C356 0.950 . S
H335 C357 0.948 . S
H336 C359 0.951 . S
H337 C324 0.947 . S
H338 C326 0.952 . S
H339 C327 0.950 . S
N340 C343 1.382 . S
N340 C345 1.363 . S
N341 C343 1.371 . S
N341 C344 1.372 . S
N342 C344 1.361 . S
N342 C345 1.377 . S
C343 N340 1.382 . S
C343 N341 1.371 . S
C343 C346 1.480 . S
C344 N341 1.372 . S
C344 N342 1.361 . S
C344 C352 1.457 . S
C345 N340 1.363 . S
C345 N342 1.377 . S
C345 C358 1.479 . S
C346 C343 1.480 . S
C346 C347 1.383 . S
C346 C351 1.385 . S
C347 H328 0.947 . S
C347 C346 1.383 . S
C347 C348 1.388 . S
C348 H329 0.946 . S
C348 C347 1.388 . S
C348 C349 1.384 . S
C349 C348 1.384 . S
C349 C350 1.381 . S
C350 H330 0.927 1_565 S
C350 C349 1.381 . S
C350 C351 1.391 . S
C351 H331 0.945 . S
C351 C346 1.385 . S
C351 C350 1.391 . S
C352 C344 1.457 . S
C352 C353 1.372 . S
C352 C357 1.364 . S
C353 H332 0.952 . S
C353 C352 1.372 . S
C353 C354 1.389 . S
C354 H333 0.949 . S
C354 C353 1.389 . S
C354 C355 1.387 . S
C355 C354 1.387 . S
C355 C356 1.372 . S
C356 H334 0.950 . S
C356 C355 1.372 . S
C356 C357 1.379 . S
C357 H335 0.948 . S
C357 C352 1.364 . S
C357 C356 1.379 . S
C358 C327 1.383 . S
C358 C345 1.479 . S
C358 C359 1.398 . S
C359 C324 1.382 . S
C359 H336 0.951 . S
C359 C358 1.398 . S
C360 C361 1.384 . S
C360 H373 0.947 . S
C360 C395 1.382 . S
C361 C360 1.384 . S
C361 C362 1.378 . S
C362 C361 1.378 . S
C362 C363 1.378 . S
C362 H374 0.952 . S
C363 C362 1.378 . S
C363 H375 0.950 . S
C363 C394 1.383 . S
H364 C383 0.947 . S
H365 C384 0.946 . S
H366 C386 0.953 . S
H367 C387 0.945 . S
H368 C389 0.952 . S
H369 C390 0.949 . S
H370 C392 0.950 . S
H371 C393 0.948 . S
H372 C395 0.951 . S
H373 C360 0.947 . S
H374 C362 0.952 . S
H375 C363 0.950 . S
N376 C379 1.382 . S
N376 C381 1.363 . S
N377 C379 1.371 . S
N377 C380 1.372 . S
N378 C380 1.361 . S
N378 C381 1.377 . S
C379 N376 1.382 . S
C379 N377 1.371 . S
C379 C382 1.480 . S
C380 N377 1.372 . S
C380 N378 1.361 . S
C380 C388 1.457 . S
C381 N376 1.363 . S
C381 N378 1.377 . S
C381 C394 1.479 . S
C382 C379 1.480 . S
C382 C383 1.383 . S
C382 C387 1.385 . S
C383 H364 0.947 . S
C383 C382 1.383 . S
C383 C384 1.388 . S
C384 H365 0.946 . S
C384 C383 1.388 . S
C384 C385 1.384 . S
C385 C384 1.384 . S
C385 C386 1.377 . S
C386 H366 0.953 . S
C386 C385 1.377 . S
C386 C387 1.369 . S
C387 H367 0.945 . S
C387 C382 1.385 . S
C387 C386 1.369 . S
C388 C380 1.457 . S
C388 C389 1.372 . S
C388 C393 1.364 . S
C389 H368 0.952 . S
C389 C388 1.372 . S
C389 C390 1.389 . S
C390 H369 0.949 . S
C390 C389 1.389 . S
C390 C391 1.387 . S
C391 C390 1.387 . S
C391 C392 1.372 . S
C392 H370 0.950 . S
C392 C391 1.372 . S
C392 C393 1.379 . S
C393 H371 0.948 . S
C393 C388 1.364 . S
C393 C392 1.379 . S
C394 C363 1.383 . S
C394 C381 1.479 . S
C394 C395 1.398 . S
C395 C360 1.382 . S
C395 H372 0.951 . S
C395 C394 1.398 . S
C396 C397 1.384 . S
C396 H409 0.947 . S
C396 C431 1.382 . S
C397 C396 1.384 . S
C397 C398 1.378 . S
C398 C397 1.378 . S
C398 C399 1.378 . S
C398 H410 0.952 . S
C399 C398 1.378 . S
C399 H411 0.950 . S
C399 C430 1.383 . S
H400 C419 0.947 . S
H401 C420 0.946 . S
H402 C422 0.953 . S
H403 C423 0.945 . S
H404 C425 0.952 . S
H405 C426 0.949 . S
H406 C428 0.950 . S
H407 C429 0.948 . S
H408 C431 0.951 . S
H409 C396 0.947 . S
H410 C398 0.952 . S
H411 C399 0.950 . S
N412 C415 1.382 . S
N412 C417 1.363 . S
N413 C415 1.371 . S
N413 C416 1.372 . S
N414 C416 1.361 . S
N414 C417 1.377 . S
C415 N412 1.382 . S
C415 N413 1.371 . S
C415 C418 1.480 . S
C416 N413 1.372 . S
C416 N414 1.361 . S
C416 C424 1.457 . S
C417 N412 1.363 . S
C417 N414 1.377 . S
C417 C430 1.479 . S
C418 C415 1.480 . S
C418 C419 1.383 . S
C418 C423 1.385 . S
C419 H400 0.947 . S
C419 C418 1.383 . S
C419 C420 1.388 . S
C420 H401 0.946 . S
C420 C419 1.388 . S
C420 C421 1.384 . S
C421 C420 1.384 . S
C421 C422 1.377 . S
C422 H402 0.953 . S
C422 C421 1.377 . S
C422 C423 1.369 . S
C423 H403 0.945 . S
C423 C418 1.385 . S
C423 C422 1.369 . S
C424 C416 1.457 . S
C424 C425 1.372 . S
C424 C429 1.364 . S
C425 H404 0.952 . S
C425 C424 1.372 . S
C425 C426 1.389 . S
C426 H405 0.949 . S
C426 C425 1.389 . S
C426 C427 1.387 . S
C427 C426 1.387 . S
C427 C428 1.372 . S
C428 H406 0.950 . S
C428 C427 1.372 . S
C428 C429 1.379 . S
C429 H407 0.948 . S
C429 C424 1.364 . S
C429 C428 1.379 . S
C430 C399 1.383 . S
C430 C417 1.479 . S
C430 C431 1.398 . S
C431 C396 1.382 . S
C431 H408 0.951 . S
C431 C430 1.398 . S
C432 C433 1.384 . S
C432 H445 0.947 . S
C432 C467 1.382 . S
C433 C432 1.384 . S
C433 C434 1.378 . S
C434 C433 1.378 . S
C434 C435 1.378 . S
C434 H446 0.952 . S
C435 C434 1.378 . S
C435 H447 0.950 . S
C435 C466 1.383 . S
H436 C455 0.947 . S
H437 C456 0.946 . S
H438 C458 0.953 . S
H439 C459 0.945 . S
H440 C461 0.952 . S
H441 C462 0.949 . S
H442 C464 0.950 . S
H443 C465 0.948 . S
H444 C467 0.951 . S
H445 C432 0.947 . S
H446 C434 0.952 . S
H447 C435 0.950 . S
N448 C451 1.382 . S
N448 C453 1.363 . S
N449 C451 1.371 . S
N449 C452 1.372 . S
N450 C452 1.361 . S
N450 C453 1.377 . S
C451 N448 1.382 . S
C451 N449 1.371 . S
C451 C454 1.480 . S
C452 N449 1.372 . S
C452 N450 1.361 . S
C452 C460 1.457 . S
C453 N448 1.363 . S
C453 N450 1.377 . S
C453 C466 1.479 . S
C454 C451 1.480 . S
C454 C455 1.383 . S
C454 C459 1.385 . S
C455 H436 0.947 . S
C455 C454 1.383 . S
C455 C456 1.388 . S
C456 H437 0.946 . S
C456 C455 1.388 . S
C456 C457 1.384 . S
C457 C456 1.384 . S
C457 C458 1.377 . S
C458 H438 0.953 . S
C458 C457 1.377 . S
C458 C459 1.369 . S
C459 H439 0.945 . S
C459 C454 1.385 . S
C459 C458 1.369 . S
C460 C452 1.457 . S
C460 C461 1.372 . S
C460 C465 1.364 . S
C461 H440 0.952 . S
C461 C460 1.372 . S
C461 C462 1.389 . S
C462 H441 0.949 . S
C462 C461 1.389 . S
C462 C463 1.387 . S
C463 C462 1.387 . S
C463 C464 1.372 . S
C464 H442 0.950 . S
C464 C463 1.372 . S
C464 C465 1.379 . S
C465 H443 0.948 . S
C465 C460 1.364 . S
C465 C464 1.379 . S
C466 C435 1.383 . S
C466 C453 1.479 . S
C466 C467 1.398 . S
C467 C432 1.382 . S
C467 H444 0.951 . S
C467 C466 1.398 . S
C468 C469 1.384 . S
C468 H481 0.947 . S
C468 C503 1.382 . S
C469 C468 1.384 . S
C469 C470 1.378 . S
C470 C469 1.378 . S
C470 C471 1.378 . S
C470 H482 0.952 . S
C471 C470 1.378 . S
C471 H483 0.950 . S
C471 C502 1.383 . S
H472 C491 0.947 . S
H473 C492 0.946 . S
H474 C494 0.953 . S
H475 C495 0.945 . S
H476 C497 0.952 . S
H477 C498 0.949 . S
H478 C500 0.950 . S
H479 C501 0.948 . S
H480 C503 0.951 . S
H481 C468 0.947 . S
H482 C470 0.952 . S
H483 C471 0.950 . S
N484 C487 1.382 . S
N484 C489 1.363 . S
N485 C487 1.371 . S
N485 C488 1.372 . S
N486 C488 1.361 . S
N486 C489 1.377 . S
C487 N484 1.382 . S
C487 N485 1.371 . S
C487 C490 1.480 . S
C488 N485 1.372 . S
C488 N486 1.361 . S
C488 C496 1.457 . S
C489 N484 1.363 . S
C489 N486 1.377 . S
C489 C502 1.479 . S
C490 C487 1.480 . S
C490 C491 1.383 . S
C490 C495 1.385 . S
C491 H472 0.947 . S
C491 C490 1.383 . S
C491 C492 1.388 . S
C492 H473 0.946 . S
C492 C491 1.388 . S
C492 C493 1.384 . S
C493 C492 1.384 . S
C493 C494 1.377 . S
C494 H474 0.953 . S
C494 C493 1.377 . S
C494 C495 1.369 . S
C495 H475 0.945 . S
C495 C490 1.385 . S
C495 C494 1.369 . S
C496 C488 1.457 . S
C496 C497 1.372 . S
C496 C501 1.364 . S
C497 H476 0.952 . S
C497 C496 1.372 . S
C497 C498 1.389 . S
C498 H477 0.949 . S
C498 C497 1.389 . S
C498 C499 1.387 . S
C499 C498 1.387 . S
C499 C500 1.372 . S
C500 H478 0.950 . S
C500 C499 1.372 . S
C500 C501 1.379 . S
C501 H479 0.948 . S
C501 C496 1.364 . S
C501 C500 1.379 . S
C502 C471 1.383 . S
C502 C489 1.479 . S
C502 C503 1.398 . S
C503 C468 1.382 . S
C503 H480 0.951 . S
C503 C502 1.398 . S
C504 C505 1.384 . S
C504 H517 0.947 . S
C504 C539 1.382 . S
C505 C504 1.384 . S
C505 C506 1.378 . S
C506 C505 1.378 . S
C506 C507 1.378 . S
C506 H518 0.952 . S
C507 C506 1.378 . S
C507 H519 0.950 . S
C507 C538 1.383 . S
H508 C527 0.947 . S
H509 C528 0.946 . S
H510 C530 0.953 . S
H511 C531 0.945 . S
H512 C533 0.952 . S
H513 C534 0.949 . S
H514 C536 0.950 . S
H515 C537 0.948 . S
H516 C539 0.951 . S
H517 C504 0.947 . S
H518 C506 0.952 . S
H519 C507 0.950 . S
N520 C523 1.382 . S
N520 C525 1.363 . S
N521 C523 1.371 . S
N521 C524 1.372 . S
N522 C524 1.361 . S
N522 C525 1.377 . S
C523 N520 1.382 . S
C523 N521 1.371 . S
C523 C526 1.480 . S
C524 N521 1.372 . S
C524 N522 1.361 . S
C524 C532 1.457 . S
C525 N520 1.363 . S
C525 N522 1.377 . S
C525 C538 1.479 . S
C526 C523 1.480 . S
C526 C527 1.383 . S
C526 C531 1.385 . S
C527 H508 0.947 . S
C527 C526 1.383 . S
C527 C528 1.388 . S
C528 H509 0.946 . S
C528 C527 1.388 . S
C528 C529 1.384 . S
C529 C528 1.384 . S
C529 C530 1.377 . S
C530 H510 0.953 . S
C530 C529 1.377 . S
C530 C531 1.369 . S
C531 H511 0.945 . S
C531 C526 1.385 . S
C531 C530 1.369 . S
C532 C524 1.457 . S
C532 C533 1.372 . S
C532 C537 1.364 . S
C533 H512 0.952 . S
C533 C532 1.372 . S
C533 C534 1.389 . S
C534 H513 0.949 . S
C534 C533 1.389 . S
C534 C535 1.387 . S
C535 C534 1.387 . S
C535 C536 1.372 . S
C536 H514 0.950 . S
C536 C535 1.372 . S
C536 C537 1.379 . S
C537 H515 0.948 . S
C537 C532 1.364 . S
C537 C536 1.379 . S
C538 C507 1.383 . S
C538 C525 1.479 . S
C538 C539 1.398 . S
C539 C504 1.382 . S
C539 H516 0.951 . S
C539 C538 1.398 . S
C540 C541 1.384 1_556 S
C540 H553 0.947 . S
C540 C575 1.382 . S
C541 C540 1.384 1_554 S
C541 C542 1.378 . S
C542 C541 1.378 . S
C542 C543 1.378 1_554 S
C542 H554 0.952 . S
C543 C542 1.378 1_556 S
C543 H555 0.950 1_556 S
C543 C574 1.383 . S
H544 C563 0.947 . S
H545 C564 0.946 . S
H546 C566 0.953 . S
H547 C567 0.945 . S
H548 C569 0.952 . S
H549 C570 0.949 . S
H550 C572 0.950 . S
H551 C573 0.948 . S
H552 C575 0.951 . S
H553 C540 0.947 . S
H554 C542 0.952 . S
H555 C543 0.950 1_554 S
N556 C559 1.382 . S
N556 C561 1.363 . S
N557 C559 1.371 . S
N557 C560 1.372 . S
N558 C560 1.361 . S
N558 C561 1.377 . S
C559 N556 1.382 . S
C559 N557 1.371 . S
C559 C562 1.480 . S
C560 N557 1.372 . S
C560 N558 1.361 . S
C560 C568 1.457 . S
C561 N556 1.363 . S
C561 N558 1.377 . S
C561 C574 1.479 . S
C562 C559 1.480 . S
C562 C563 1.383 . S
C562 C567 1.385 . S
C563 H544 0.947 . S
C563 C562 1.383 . S
C563 C564 1.388 . S
C564 H545 0.946 . S
C564 C563 1.388 . S
C564 C565 1.384 . S
C565 C564 1.384 . S
C565 C566 1.377 . S
C566 H546 0.953 . S
C566 C565 1.377 . S
C566 C567 1.369 . S
C567 H547 0.945 . S
C567 C562 1.385 . S
C567 C566 1.369 . S
C568 C560 1.457 . S
C568 C569 1.372 . S
C568 C573 1.364 . S
C569 H548 0.952 . S
C569 C568 1.372 . S
C569 C570 1.389 . S
C570 H549 0.949 . S
C570 C569 1.389 . S
C570 C571 1.387 . S
C571 C570 1.387 . S
C571 C572 1.372 . S
C572 H550 0.950 . S
C572 C571 1.372 . S
C572 C573 1.379 . S
C573 H551 0.948 . S
C573 C568 1.364 . S
C573 C572 1.379 . S
C574 C543 1.383 . S
C574 C561 1.479 . S
C574 C575 1.398 . S
C575 C540 1.382 . S
C575 H552 0.951 . S
C575 C574 1.398 . S
O576 Cd577 2.223 . S
O576 C584 1.315 . S
Cd577 O576 2.223 . S
Cd577 O580 2.297 . S
Cd577 O581 2.439 . S
Cd577 O587 2.240 . S
Cd578 O579 2.240 . S
Cd578 O586 2.223 . S
Cd578 O588 2.297 . S
Cd578 O589 2.439 . S
O579 Cd578 2.240 . S
O579 C584 1.279 . S
O580 Cd577 2.297 . S
O580 C582 1.247 . S
O581 Cd577 2.439 . S
O581 C582 1.208 . S
C582 O580 1.247 . S
C582 O581 1.208 . S
C583 O588 1.247 . S
C583 O589 1.208 . S
C584 O576 1.315 . S
C584 O579 1.279 . S
C585 O586 1.315 . S
C585 O587 1.279 . S
O586 Cd578 2.223 . S
O586 C585 1.315 . S
O587 Cd577 2.240 . S
O587 C585 1.279 . S
O588 Cd578 2.297 . S
O588 C583 1.247 . S
O589 Cd578 2.439 . S
O589 C583 1.208 . S
O590 Cd591 2.223 . S
O590 C598 1.315 . S
Cd591 O590 2.223 . S
Cd591 O594 2.297 . S
Cd591 O595 2.439 . S
Cd591 O601 2.240 . S
Cd592 O593 2.240 . S
Cd592 O600 2.223 . S
Cd592 O602 2.297 . S
Cd592 O603 2.439 . S
O593 Cd592 2.240 . S
O593 C598 1.279 . S
O594 Cd591 2.297 . S
O594 C596 1.247 . S
O595 Cd591 2.439 . S
O595 C596 1.208 . S
C596 O594 1.247 . S
C596 O595 1.208 . S
C597 O602 1.247 . S
C597 O603 1.208 . S
C598 O590 1.315 . S
C598 O593 1.279 . S
C599 O600 1.315 . S
C599 O601 1.279 . S
O600 Cd592 2.223 . S
O600 C599 1.315 . S
O601 Cd591 2.240 . S
O601 C599 1.279 . S
O602 Cd592 2.297 . S
O602 C597 1.247 . S
O603 Cd592 2.439 . S
O603 C597 1.208 . S
O604 Cd605 2.223 1_556 S
O604 C612 1.315 . S
Cd605 O604 2.223 1_554 S
Cd605 O608 2.297 . S
Cd605 O609 2.439 . S
Cd605 O615 2.240 . S
Cd606 O607 2.240 . S
Cd606 O614 2.223 . S
Cd606 O616 2.297 1_556 S
Cd606 O617 2.439 1_556 S
O607 Cd606 2.240 . S
O607 C612 1.279 . S
O608 Cd605 2.297 . S
O608 C610 1.247 . S
O609 Cd605 2.439 . S
O609 C610 1.208 . S
C610 O608 1.247 . S
C610 O609 1.208 . S
C611 O616 1.247 . S
C611 O617 1.208 . S
C612 O604 1.315 . S
C612 O607 1.279 . S
C613 O614 1.315 . S
C613 O615 1.279 1_556 S
O614 Cd606 2.223 . S
O614 C613 1.315 . S
O615 Cd605 2.240 . S
O615 C613 1.279 1_554 S
O616 Cd606 2.297 1_554 S
O616 C611 1.247 . S
O617 Cd606 2.439 1_554 S
O617 C611 1.208 . S
O618 Cd619 2.223 . S
O618 C626 1.315 . S
Cd619 O618 2.223 . S
Cd619 O622 2.297 . S
Cd619 O623 2.439 . S
Cd619 O629 2.240 . S
Cd620 O621 2.240 . S
Cd620 O628 2.223 . S
Cd620 O630 2.297 . S
Cd620 O631 2.439 . S
O621 Cd620 2.240 . S
O621 C626 1.279 . S
O622 Cd619 2.297 . S
O622 C624 1.247 . S
O623 Cd619 2.439 . S
O623 C624 1.208 . S
C624 O622 1.247 . S
C624 O623 1.208 . S
C625 O630 1.247 . S
C625 O631 1.208 . S
C626 O618 1.315 . S
C626 O621 1.279 . S
C627 O628 1.315 . S
C627 O629 1.279 . S
O628 Cd620 2.223 . S
O628 C627 1.315 . S
O629 Cd619 2.240 . S
O629 C627 1.279 . S
O630 Cd620 2.297 . S
O630 C625 1.247 . S
O631 Cd620 2.439 . S
O631 C625 1.208 . S
O632 Cd633 2.223 . S
O632 C640 1.315 . S
Cd633 O632 2.223 . S
Cd633 O636 2.297 . S
Cd633 O637 2.439 . S
Cd633 O643 2.240 . S
Cd634 O635 2.240 . S
Cd634 O642 2.223 . S
Cd634 O644 2.297 . S
Cd634 O645 2.439 . S
O635 Cd634 2.240 . S
O635 C640 1.279 . S
O636 Cd633 2.297 . S
O636 C638 1.247 . S
O637 Cd633 2.439 . S
O637 C638 1.208 . S
C638 O636 1.247 . S
C638 O637 1.208 . S
C639 O644 1.247 . S
C639 O645 1.208 . S
C640 O632 1.315 . S
C640 O635 1.279 . S
C641 O642 1.315 . S
C641 O643 1.279 . S
O642 Cd634 2.223 . S
O642 C641 1.315 . S
O643 Cd633 2.240 . S
O643 C641 1.279 . S
O644 Cd634 2.297 . S
O644 C639 1.247 . S
O645 Cd634 2.439 . S
O645 C639 1.208 . S
O646 Cd647 2.223 . S
O646 C654 1.315 . S
Cd647 O646 2.223 . S
Cd647 O650 2.297 . S
Cd647 O651 2.439 . S
Cd647 O657 2.240 . S
Cd648 O649 2.240 . S
Cd648 O656 2.223 . S
Cd648 O658 2.297 . S
Cd648 O659 2.439 . S
O649 Cd648 2.240 . S
O649 C654 1.279 . S
O650 Cd647 2.297 . S
O650 C652 1.247 . S
O651 Cd647 2.439 . S
O651 C652 1.208 . S
C652 O650 1.247 . S
C652 O651 1.208 . S
C653 O658 1.247 . S
C653 O659 1.208 . S
C654 O646 1.315 . S
C654 O649 1.279 . S
C655 O656 1.315 . S
C655 O657 1.279 . S
O656 Cd648 2.223 . S
O656 C655 1.315 . S
O657 Cd647 2.240 . S
O657 C655 1.279 . S
O658 Cd648 2.297 . S
O658 C653 1.247 . S
O659 Cd648 2.439 . S
O659 C653 1.208 . S
O660 Cd661 2.223 . S
O660 C668 1.315 . S
Cd661 O660 2.223 . S
Cd661 O664 2.297 . S
Cd661 O665 2.439 . S
Cd661 O671 2.240 . S
Cd662 O663 2.240 . S
Cd662 O670 2.223 . S
Cd662 O672 2.297 . S
Cd662 O673 2.439 . S
O663 Cd662 2.240 . S
O663 C668 1.279 . S
O664 Cd661 2.297 . S
O664 C666 1.247 . S
O665 Cd661 2.439 . S
O665 C666 1.208 . S
C666 O664 1.247 . S
C666 O665 1.208 . S
C667 O672 1.247 . S
C667 O673 1.208 . S
C668 O660 1.315 . S
C668 O663 1.279 . S
C669 O670 1.315 . S
C669 O671 1.279 . S
O670 Cd662 2.223 . S
O670 C669 1.315 . S
O671 Cd661 2.240 . S
O671 C669 1.279 . S
O672 Cd662 2.297 . S
O672 C667 1.247 . S
O673 Cd662 2.439 . S
O673 C667 1.208 . S
O674 Cd675 2.223 1_545 S
O674 C682 1.315 . S
Cd675 O674 2.223 1_565 S
Cd675 O678 2.297 . S
Cd675 O679 2.439 . S
Cd675 O685 2.240 1_565 S
Cd676 O677 2.240 . S
Cd676 O684 2.223 . S
Cd676 O686 2.297 . S
Cd676 O687 2.439 1_545 S
O677 Cd676 2.240 . S
O677 C682 1.279 . S
O678 Cd675 2.297 . S
O678 C680 1.247 . S
O679 Cd675 2.439 . S
O679 C680 1.208 . S
C680 O678 1.247 . S
C680 O679 1.208 . S
C681 O686 1.247 1_565 S
C681 O687 1.208 . S
C682 O674 1.315 . S
C682 O677 1.279 . S
C683 O684 1.315 . S
C683 O685 1.279 . S
O684 Cd676 2.223 . S
O684 C683 1.315 . S
O685 Cd675 2.240 1_545 S
O685 C683 1.279 . S
O686 Cd676 2.297 . S
O686 C681 1.247 1_545 S
O687 Cd676 2.439 1_565 S
O687 C681 1.208 . S
O688 Cd689 2.223 . S
O688 C696 1.315 . S
Cd689 O688 2.223 . S
Cd689 O692 2.297 1_655 S
Cd689 O693 2.439 1_655 S
Cd689 O699 2.240 . S
Cd690 O691 2.240 . S
Cd690 O698 2.223 1_455 S
Cd690 O700 2.297 . S
Cd690 O701 2.439 . S
O691 Cd690 2.240 . S
O691 C696 1.279 1_455 S
O692 Cd689 2.297 1_455 S
O692 C694 1.247 . S
O693 Cd689 2.439 1_455 S
O693 C694 1.208 . S
C694 O692 1.247 . S
C694 O693 1.208 . S
C695 O700 1.247 . S
C695 O701 1.208 . S
C696 O688 1.315 . S
C696 O691 1.279 1_655 S
C697 O698 1.315 . S
C697 O699 1.279 . S
O698 Cd690 2.223 1_655 S
O698 C697 1.315 . S
O699 Cd689 2.240 . S
O699 C697 1.279 . S
O700 Cd690 2.297 . S
O700 C695 1.247 . S
O701 Cd690 2.439 . S
O701 C695 1.208 . S
O702 Cd703 2.223 . S
O702 C710 1.315 . S
Cd703 O702 2.223 . S
Cd703 O706 2.297 . S
Cd703 O707 2.439 . S
Cd703 O713 2.240 . S
Cd704 O705 2.240 . S
Cd704 O712 2.223 . S
Cd704 O714 2.297 . S
Cd704 O715 2.439 . S
O705 Cd704 2.240 . S
O705 C710 1.279 . S
O706 Cd703 2.297 . S
O706 C708 1.247 . S
O707 Cd703 2.439 . S
O707 C708 1.208 . S
C708 O706 1.247 . S
C708 O707 1.208 . S
C709 O714 1.247 . S
C709 O715 1.208 . S
C710 O702 1.315 . S
C710 O705 1.279 . S
C711 O712 1.315 . S
C711 O713 1.279 . S
O712 Cd704 2.223 . S
O712 C711 1.315 . S
O713 Cd703 2.240 . S
O713 C711 1.279 . S
O714 Cd704 2.297 . S
O714 C709 1.247 . S
O715 Cd704 2.439 . S
O715 C709 1.208 . S
O716 Cd717 2.223 1_655 S
O716 C724 1.315 . S
Cd717 O716 2.223 1_455 S
Cd717 O720 2.297 . S
Cd717 O721 2.439 . S
Cd717 O727 2.240 . S
Cd718 O719 2.240 . S
Cd718 O726 2.223 . S
Cd718 O728 2.297 1_655 S
Cd718 O729 2.439 1_655 S
O719 Cd718 2.240 . S
O719 C724 1.279 . S
O720 Cd717 2.297 . S
O720 C722 1.247 . S
O721 Cd717 2.439 . S
O721 C722 1.208 . S
C722 O720 1.247 . S
C722 O721 1.208 . S
C723 O728 1.247 . S
C723 O729 1.208 . S
C724 O716 1.315 . S
C724 O719 1.279 . S
C725 O726 1.315 . S
C725 O727 1.279 1_655 S
O726 Cd718 2.223 . S
O726 C725 1.315 . S
O727 Cd717 2.240 . S
O727 C725 1.279 1_455 S
O728 Cd718 2.297 1_455 S
O728 C723 1.247 . S
O729 Cd718 2.439 1_455 S
O729 C723 1.208 . S
O730 Cd731 2.223 . S
O730 C738 1.315 . S
Cd731 O730 2.223 . S
Cd731 O734 2.297 . S
Cd731 O735 2.439 . S
Cd731 O741 2.240 . S
Cd732 O733 2.240 . S
Cd732 O740 2.223 . S
Cd732 O742 2.297 . S
Cd732 O743 2.439 . S
O733 Cd732 2.240 . S
O733 C738 1.279 . S
O734 Cd731 2.297 . S
O734 C736 1.247 . S
O735 Cd731 2.439 . S
O735 C736 1.208 . S
C736 O734 1.247 . S
C736 O735 1.208 . S
C737 O742 1.247 . S
C737 O743 1.208 . S
C738 O730 1.315 . S
C738 O733 1.279 . S
C739 O740 1.315 . S
C739 O741 1.279 . S
O740 Cd732 2.223 . S
O740 C739 1.315 . S
O741 Cd731 2.240 . S
O741 C739 1.279 . S
O742 Cd732 2.297 . S
O742 C737 1.247 . S
O743 Cd732 2.439 . S
O743 C737 1.208 . S
C744 C745 1.369 . S
C744 C746 1.419 . S
C744 H748 0.930 . S
C745 C744 1.369 . S
C745 C754 1.429 . S
C746 C744 1.419 . S
C746 C747 1.363 . S
C746 H749 0.929 . S
C747 C746 1.363 . S
C747 C753 1.428 . S
H748 C744 0.930 . S
H749 C746 0.929 . S
S750 N751 1.613 . S
S750 N752 1.610 . S
N751 S750 1.613 . S
N751 C754 1.350 . S
N752 S750 1.610 . S
N752 C753 1.351 . S
C753 C747 1.428 . S
C753 N752 1.351 . S
C753 C754 1.434 . S
C754 C745 1.429 . S
C754 N751 1.350 . S
C754 C753 1.434 . S
C755 C756 1.369 . S
C755 C757 1.419 . S
C755 H759 0.930 . S
C756 C755 1.369 . S
C756 C765 1.429 . S
C757 C755 1.419 . S
C757 C758 1.363 . S
C757 H760 0.929 . S
C758 C757 1.363 . S
C758 C764 1.428 . S
H759 C755 0.930 . S
H760 C757 0.929 . S
S761 N762 1.613 . S
S761 N763 1.610 . S
N762 S761 1.613 . S
N762 C765 1.350 . S
N763 S761 1.610 . S
N763 C764 1.351 . S
C764 C758 1.428 . S
C764 N763 1.351 . S
C764 C765 1.434 . S
C765 C756 1.429 . S
C765 N762 1.350 . S
C765 C764 1.434 . S
C766 C767 1.369 . S
C766 C768 1.419 . S
C766 H770 0.930 . S
C767 C766 1.369 . S
C767 C776 1.429 . S
C768 C766 1.419 . S
C768 C769 1.363 . S
C768 H771 0.929 . S
C769 C768 1.363 . S
C769 C775 1.428 . S
H770 C766 0.930 . S
H771 C768 0.929 . S
S772 N773 1.613 . S
S772 N774 1.610 . S
N773 S772 1.613 . S
N773 C776 1.350 . S
N774 S772 1.610 . S
N774 C775 1.351 . S
C775 C769 1.428 . S
C775 N774 1.351 . S
C775 C776 1.434 . S
C776 C767 1.429 . S
C776 N773 1.350 . S
C776 C775 1.434 . S
C777 C778 1.369 1_545 S
C777 C779 1.419 . S
C777 H781 0.918 1_655 S
C778 C777 1.369 1_565 S
C778 C787 1.429 . S
C779 C777 1.419 . S
C779 C780 1.363 . S
C779 H782 0.929 . S
C780 C779 1.363 . S
C780 C786 1.428 1_545 S
H781 C777 0.918 1_455 S
H782 C779 0.929 . S
S783 N784 1.613 . S
S783 N785 1.610 . S
N784 S783 1.613 . S
N784 C787 1.350 . S
N785 S783 1.610 . S
N785 C786 1.351 . S
C786 C780 1.428 1_565 S
C786 N785 1.351 . S
C786 C787 1.434 . S
C787 C778 1.429 . S
C787 N784 1.350 . S
C787 C786 1.434 . S
C788 C789 1.369 . S
C788 C790 1.419 . S
C788 H792 0.930 . S
C789 C788 1.369 . S
C789 C798 1.429 . S
C790 C788 1.419 . S
C790 C791 1.363 . S
C790 H793 0.929 . S
C791 C790 1.363 . S
C791 C797 1.428 . S
H792 C788 0.930 . S
H793 C790 0.929 . S
S794 N795 1.613 . S
S794 N796 1.610 . S
N795 S794 1.613 . S
N795 C798 1.350 . S
N796 S794 1.610 . S
N796 C797 1.351 . S
C797 C791 1.428 . S
C797 N796 1.351 . S
C797 C798 1.434 . S
C798 C789 1.429 . S
C798 N795 1.350 . S
C798 C797 1.434 . S
C799 C800 1.369 . S
C799 C801 1.419 . S
C799 H803 0.930 . S
C800 C799 1.369 . S
C800 C809 1.429 . S
C801 C799 1.419 . S
C801 C802 1.363 . S
C801 H804 0.929 . S
C802 C801 1.363 . S
C802 C808 1.428 . S
H803 C799 0.930 . S
H804 C801 0.929 . S
S805 N806 1.613 . S
S805 N807 1.610 . S
N806 S805 1.613 . S
N806 C809 1.350 . S
N807 S805 1.610 . S
N807 C808 1.351 . S
C808 C802 1.428 . S
C808 N807 1.351 . S
C808 C809 1.434 . S
C809 C800 1.429 . S
C809 N806 1.350 . S
C809 C808 1.434 . S
C810 C811 1.369 . S
C810 C812 1.419 . S
C810 H814 0.930 . S
C811 C810 1.369 . S
C811 C820 1.429 . S
C812 C810 1.419 . S
C812 C813 1.363 . S
C812 H815 0.929 . S
C813 C812 1.363 . S
C813 C819 1.428 . S
H814 C810 0.930 . S
H815 C812 0.929 . S
S816 N817 1.613 . S
S816 N818 1.610 . S
N817 S816 1.613 . S
N817 C820 1.350 . S
N818 S816 1.610 . S
N818 C819 1.351 . S
C819 C813 1.428 . S
C819 N818 1.351 . S
C819 C820 1.434 . S
C820 C811 1.429 . S
C820 N817 1.350 . S
C820 C819 1.434 . S
C821 C822 1.369 . S
C821 C823 1.419 . S
C821 H825 0.930 . S
C822 C821 1.369 . S
C822 C831 1.429 . S
C823 C821 1.419 . S
C823 C824 1.363 . S
C823 H826 0.929 . S
C824 C823 1.363 . S
C824 C830 1.428 . S
H825 C821 0.930 . S
H826 C823 0.929 . S
S827 N828 1.613 . S
S827 N829 1.610 . S
N828 S827 1.613 . S
N828 C831 1.350 . S
N829 S827 1.610 . S
N829 C830 1.351 . S
C830 C824 1.428 . S
C830 N829 1.351 . S
C830 C831 1.434 . S
C831 C822 1.429 . S
C831 N828 1.350 . S
C831 C830 1.434 . S
C832 C833 1.369 . S
C832 C834 1.419 . S
C832 H836 0.930 . S
C833 C832 1.369 . S
C833 C842 1.429 . S
C834 C832 1.419 . S
C834 C835 1.363 . S
C834 H837 0.929 . S
C835 C834 1.363 . S
C835 C841 1.428 . S
H836 C832 0.930 . S
H837 C834 0.929 . S
S838 N839 1.613 . S
S838 N840 1.610 . S
N839 S838 1.613 . S
N839 C842 1.350 . S
N840 S838 1.610 . S
N840 C841 1.351 . S
C841 C835 1.428 . S
C841 N840 1.351 . S
C841 C842 1.434 . S
C842 C833 1.429 . S
C842 N839 1.350 . S
C842 C841 1.434 . S
C843 C844 1.369 . S
C843 C845 1.419 . S
C843 H847 0.930 . S
C844 C843 1.369 . S
C844 C853 1.429 . S
C845 C843 1.419 . S
C845 C846 1.363 . S
C845 H848 0.929 . S
C846 C845 1.363 . S
C846 C852 1.428 . S
H847 C843 0.930 . S
H848 C845 0.929 . S
S849 N850 1.613 . S
S849 N851 1.610 . S
N850 S849 1.613 . S
N850 C853 1.350 . S
N851 S849 1.610 . S
N851 C852 1.351 . S
C852 C846 1.428 . S
C852 N851 1.351 . S
C852 C853 1.434 . S
C853 C844 1.429 . S
C853 N850 1.350 . S
C853 C852 1.434 . S
C854 C855 1.369 . S
C854 C856 1.419 . S
C854 H858 0.930 . S
C855 C854 1.369 . S
C855 C864 1.429 . S
C856 C854 1.419 . S
C856 C857 1.363 . S
C856 H859 0.929 . S
C857 C856 1.363 . S
C857 C863 1.428 . S
H858 C854 0.930 . S
H859 C856 0.929 . S
S860 N861 1.613 . S
S860 N862 1.610 . S
N861 S860 1.613 . S
N861 C864 1.350 . S
N862 S860 1.610 . S
N862 C863 1.351 . S
C863 C857 1.428 . S
C863 N862 1.351 . S
C863 C864 1.434 . S
C864 C855 1.429 . S
C864 N861 1.350 . S
C864 C863 1.434 . S
C865 C866 1.369 . S
C865 C867 1.419 . S
C865 H869 0.930 . S
C866 C865 1.369 . S
C866 C875 1.429 . S
C867 C865 1.419 . S
C867 C868 1.363 . S
C867 H870 0.929 . S
C868 C867 1.363 . S
C868 C874 1.428 . S
H869 C865 0.930 . S
H870 C867 0.929 . S
S871 N872 1.613 . S
S871 N873 1.610 . S
N872 S871 1.613 . S
N872 C875 1.350 . S
N873 S871 1.610 . S
N873 C874 1.351 . S
C874 C868 1.428 . S
C874 N873 1.351 . S
C874 C875 1.434 . S
C875 C866 1.429 . S
C875 N872 1.350 . S
C875 C874 1.434 . S
C876 C877 1.369 . S
C876 C878 1.419 . S
C876 H880 0.930 . S
C877 C876 1.369 . S
C877 C886 1.429 . S
C878 C876 1.419 . S
C878 C879 1.363 . S
C878 H881 0.929 . S
C879 C878 1.363 . S
C879 C885 1.428 . S
H880 C876 0.930 . S
H881 C878 0.929 . S
S882 N883 1.613 . S
S882 N884 1.610 . S
N883 S882 1.613 . S
N883 C886 1.350 . S
N884 S882 1.610 . S
N884 C885 1.351 . S
C885 C879 1.428 . S
C885 N884 1.351 . S
C885 C886 1.434 . S
C886 C877 1.429 . S
C886 N883 1.350 . S
C886 C885 1.434 . S
C887 C888 1.369 . S
C887 C889 1.419 . S
C887 H891 0.930 . S
C888 C887 1.369 . S
C888 C897 1.429 . S
C889 C887 1.419 . S
C889 C890 1.363 . S
C889 H892 0.929 . S
C890 C889 1.363 . S
C890 C896 1.428 . S
H891 C887 0.930 . S
H892 C889 0.929 . S
S893 N894 1.613 . S
S893 N895 1.610 . S
N894 S893 1.613 . S
N894 C897 1.350 . S
N895 S893 1.610 . S
N895 C896 1.351 . S
C896 C890 1.428 . S
C896 N895 1.351 . S
C896 C897 1.434 . S
C897 C888 1.429 . S
C897 N894 1.350 . S
C897 C896 1.434 . S
C898 C899 1.369 . S
C898 C900 1.419 . S
C898 H902 0.930 . S
C899 C898 1.369 . S
C899 C908 1.429 . S
C900 C898 1.419 . S
C900 C901 1.363 . S
C900 H903 0.929 . S
C901 C900 1.363 . S
C901 C907 1.428 . S
H902 C898 0.930 . S
H903 C900 0.929 . S
S904 N905 1.613 . S
S904 N906 1.610 . S
N905 S904 1.613 . S
N905 C908 1.350 . S
N906 S904 1.610 . S
N906 C907 1.351 . S
C907 C901 1.428 . S
C907 N906 1.351 . S
C907 C908 1.434 . S
C908 C899 1.429 . S
C908 N905 1.350 . S
C908 C907 1.434 . S
C909 C910 1.369 . S
C909 C911 1.419 . S
C909 H913 0.930 . S
C910 C909 1.369 . S
C910 C919 1.429 . S
C911 C909 1.419 . S
C911 C912 1.363 . S
C911 H914 0.929 . S
C912 C911 1.363 . S
C912 C918 1.428 . S
H913 C909 0.930 . S
H914 C911 0.929 . S
S915 N916 1.613 . S
S915 N917 1.610 . S
N916 S915 1.613 . S
N916 C919 1.350 . S
N917 S915 1.610 . S
N917 C918 1.351 . S
C918 C912 1.428 . S
C918 N917 1.351 . S
C918 C919 1.434 . S
C919 C910 1.429 . S
C919 N916 1.350 . S
C919 C918 1.434 . S
C920 C921 1.369 . S
C920 C922 1.419 . S
C920 H924 0.930 . S
C921 C920 1.369 . S
C921 C930 1.429 . S
C922 C920 1.419 . S
C922 C923 1.363 . S
C922 H925 0.929 . S
C923 C922 1.363 . S
C923 C929 1.428 . S
H924 C920 0.930 . S
H925 C922 0.929 . S
S926 N927 1.613 . S
S926 N928 1.610 . S
N927 S926 1.613 . S
N927 C930 1.350 . S
N928 S926 1.610 . S
N928 C929 1.351 . S
C929 C923 1.428 . S
C929 N928 1.351 . S
C929 C930 1.434 . S
C930 C921 1.429 . S
C930 N927 1.350 . S
C930 C929 1.434 . S
C931 C932 1.369 . S
C931 C933 1.419 . S
C931 H935 0.930 . S
C932 C931 1.369 . S
C932 C941 1.429 . S
C933 C931 1.419 . S
C933 C934 1.363 . S
C933 H936 0.929 . S
C934 C933 1.363 . S
C934 C940 1.428 . S
H935 C931 0.930 . S
H936 C933 0.929 . S
S937 N938 1.613 . S
S937 N939 1.610 . S
N938 S937 1.613 . S
N938 C941 1.350 . S
N939 S937 1.610 . S
N939 C940 1.351 . S
C940 C934 1.428 . S
C940 N939 1.351 . S
C940 C941 1.434 . S
C941 C932 1.429 . S
C941 N938 1.350 . S
C941 C940 1.434 . S
C942 C943 1.369 1_565 S
C942 C944 1.419 . S
C942 H946 0.930 1_565 S
C943 C942 1.369 1_545 S
C943 C952 1.429 1_556 S
C944 C942 1.419 . S
C944 C945 1.363 1_556 S
C944 H947 0.929 . S
C945 C944 1.363 1_554 S
C945 C951 1.428 . S
H946 C942 0.930 1_545 S
H947 C944 0.929 . S
S948 N949 1.613 1_565 S
S948 N950 1.610 . S
N949 S948 1.613 1_545 S
N949 C952 1.350 . S
N950 S948 1.610 . S
N950 C951 1.351 . S
C951 C945 1.428 . S
C951 N950 1.351 . S
C951 C952 1.434 1_565 S
C952 C943 1.429 1_554 S
C952 N949 1.350 . S
C952 C951 1.434 1_545 S
C953 C954 1.369 . S
C953 C955 1.419 . S
C953 H957 0.930 . S
C954 C953 1.369 . S
C954 C963 1.429 . S
C955 C953 1.419 . S
C955 C956 1.363 . S
C955 H958 0.929 . S
C956 C955 1.363 . S
C956 C962 1.428 . S
H957 C953 0.930 . S
H958 C955 0.929 . S
S959 N960 1.613 . S
S959 N961 1.610 . S
N960 S959 1.613 . S
N960 C963 1.350 . S
N961 S959 1.610 . S
N961 C962 1.351 . S
C962 C956 1.428 . S
C962 N961 1.351 . S
C962 C963 1.434 . S
C963 C954 1.429 . S
C963 N960 1.350 . S
C963 C962 1.434 . S
C964 C965 1.369 . S
C964 C966 1.419 . S
C964 H968 0.930 . S
C965 C964 1.369 . S
C965 C974 1.429 . S
C966 C964 1.419 . S
C966 C967 1.363 . S
C966 H969 0.929 . S
C967 C966 1.363 . S
C967 C973 1.428 . S
H968 C964 0.930 . S
H969 C966 0.929 . S
S970 N971 1.613 . S
S970 N972 1.610 . S
N971 S970 1.613 . S
N971 C974 1.350 . S
N972 S970 1.610 . S
N972 C973 1.351 . S
C973 C967 1.428 . S
C973 N972 1.351 . S
C973 C974 1.434 . S
C974 C965 1.429 . S
C974 N971 1.350 . S
C974 C973 1.434 . S
C975 C976 1.369 . S
C975 C977 1.419 . S
C975 H979 0.930 . S
C976 C975 1.369 . S
C976 C985 1.429 . S
C977 C975 1.419 . S
C977 C978 1.363 . S
C977 H980 0.929 . S
C978 C977 1.363 . S
C978 C984 1.428 . S
H979 C975 0.930 . S
H980 C977 0.929 . S
S981 N982 1.613 . S
S981 N983 1.610 . S
N982 S981 1.613 . S
N982 C985 1.350 . S
N983 S981 1.610 . S
N983 C984 1.351 . S
C984 C978 1.428 . S
C984 N983 1.351 . S
C984 C985 1.434 . S
C985 C976 1.429 . S
C985 N982 1.350 . S
C985 C984 1.434 . S
C986 C987 1.369 . S
C986 C988 1.419 . S
C986 H990 0.930 . S
C987 C986 1.369 . S
C987 C996 1.429 . S
C988 C986 1.419 . S
C988 C989 1.363 . S
C988 H991 0.929 . S
C989 C988 1.363 . S
C989 C995 1.428 . S
H990 C986 0.930 . S
H991 C988 0.929 . S
S992 N993 1.613 . S
S992 N994 1.610 . S
N993 S992 1.613 . S
N993 C996 1.350 . S
N994 S992 1.610 . S
N994 C995 1.351 . S
C995 C989 1.428 . S
C995 N994 1.351 . S
C995 C996 1.434 . S
C996 C987 1.429 . S
C996 N993 1.350 . S
C996 C995 1.434 . S
C997 C998 1.369 . S
C997 C999 1.419 . S
C997 H1001 0.930 . S
C998 C997 1.369 . S
C998 C1007 1.429 . S
C999 C997 1.419 . S
C999 C1000 1.363 . S
C999 H1002 0.929 . S
C1000 C999 1.363 . S
C1000 C1006 1.428 . S
H1001 C997 0.930 . S
H1002 C999 0.929 . S
S1003 N1004 1.613 . S
S1003 N1005 1.610 . S
N1004 S1003 1.613 . S
N1004 C1007 1.350 . S
N1005 S1003 1.610 . S
N1005 C1006 1.351 . S
C1006 C1000 1.428 . S
C1006 N1005 1.351 . S
C1006 C1007 1.434 . S
C1007 C998 1.429 . S
C1007 N1004 1.350 . S
C1007 C1006 1.434 . S
C1008 C1009 1.369 . S
C1008 C1010 1.419 . S
C1008 H1012 0.930 . S
C1009 C1008 1.369 . S
C1009 C1018 1.429 . S
C1010 C1008 1.419 . S
C1010 C1011 1.363 . S
C1010 H1013 0.929 . S
C1011 C1010 1.363 . S
C1011 C1017 1.428 . S
H1012 C1008 0.930 . S
H1013 C1010 0.929 . S
S1014 N1015 1.613 . S
S1014 N1016 1.610 . S
N1015 S1014 1.613 . S
N1015 C1018 1.350 . S
N1016 S1014 1.610 . S
N1016 C1017 1.351 . S
C1017 C1011 1.428 . S
C1017 N1016 1.351 . S
C1017 C1018 1.434 . S
C1018 C1009 1.429 . S
C1018 N1015 1.350 . S
C1018 C1017 1.434 . S
C1019 C1020 1.369 . S
C1019 C1021 1.419 . S
C1019 H1023 0.930 . S
C1020 C1019 1.369 . S
C1020 C1029 1.429 . S
C1021 C1019 1.419 . S
C1021 C1022 1.363 . S
C1021 H1024 0.929 . S
C1022 C1021 1.363 . S
C1022 C1028 1.428 . S
H1023 C1019 0.930 . S
H1024 C1021 0.929 . S
S1025 N1026 1.613 . S
S1025 N1027 1.610 . S
N1026 S1025 1.613 . S
N1026 C1029 1.350 . S
N1027 S1025 1.610 . S
N1027 C1028 1.351 . S
C1028 C1022 1.428 . S
C1028 N1027 1.351 . S
C1028 C1029 1.434 . S
C1029 C1020 1.429 . S
C1029 N1026 1.350 . S
C1029 C1028 1.434 . S
C1030 C1031 1.369 . S
C1030 C1032 1.419 . S
C1030 H1034 0.930 . S
C1031 C1030 1.369 . S
C1031 C1040 1.429 . S
C1032 C1030 1.419 . S
C1032 C1033 1.363 . S
C1032 H1035 0.929 . S
C1033 C1032 1.363 . S
C1033 C1039 1.428 . S
H1034 C1030 0.930 . S
H1035 C1032 0.929 . S
S1036 N1037 1.613 . S
S1036 N1038 1.610 . S
N1037 S1036 1.613 . S
N1037 C1040 1.350 . S
N1038 S1036 1.610 . S
N1038 C1039 1.351 . S
C1039 C1033 1.428 . S
C1039 N1038 1.351 . S
C1039 C1040 1.434 . S
C1040 C1031 1.429 . S
C1040 N1037 1.350 . S
C1040 C1039 1.434 . S
C1041 C1042 1.369 . S
C1041 C1043 1.419 . S
C1041 H1045 0.930 . S
C1042 C1041 1.369 . S
C1042 C1051 1.429 . S
C1043 C1041 1.419 . S
C1043 C1044 1.363 . S
C1043 H1046 0.929 . S
C1044 C1043 1.363 . S
C1044 C1050 1.428 . S
H1045 C1041 0.930 . S
H1046 C1043 0.929 . S
S1047 N1048 1.613 . S
S1047 N1049 1.610 . S
N1048 S1047 1.613 . S
N1048 C1051 1.350 . S
N1049 S1047 1.610 . S
N1049 C1050 1.351 . S
C1050 C1044 1.428 . S
C1050 N1049 1.351 . S
C1050 C1051 1.434 . S
C1051 C1042 1.429 . S
C1051 N1048 1.350 . S
C1051 C1050 1.434 . S
C1052 C1053 1.369 . S
C1052 C1054 1.419 . S
C1052 H1056 0.930 . S
C1053 C1052 1.369 . S
C1053 C1062 1.429 . S
C1054 C1052 1.419 . S
C1054 C1055 1.363 . S
C1054 H1057 0.929 . S
C1055 C1054 1.363 . S
C1055 C1061 1.428 . S
H1056 C1052 0.930 . S
H1057 C1054 0.929 . S
S1058 N1059 1.613 . S
S1058 N1060 1.610 . S
N1059 S1058 1.613 . S
N1059 C1062 1.350 . S
N1060 S1058 1.610 . S
N1060 C1061 1.351 . S
C1061 C1055 1.428 . S
C1061 N1060 1.351 . S
C1061 C1062 1.434 . S
C1062 C1053 1.429 . S
C1062 N1059 1.350 . S
C1062 C1061 1.434 . S
C1063 C1064 1.369 . S
C1063 C1065 1.419 1_455 S
C1063 H1067 0.930 . S
C1064 C1063 1.369 . S
C1064 C1073 1.429 1_455 S
C1065 C1063 1.419 1_655 S
C1065 C1066 1.363 . S
C1065 H1068 0.929 . S
C1066 C1065 1.363 . S
C1066 C1072 1.428 . S
H1067 C1063 0.930 . S
H1068 C1065 0.929 . S
S1069 N1070 1.613 . S
S1069 N1071 1.610 . S
N1070 S1069 1.613 . S
N1070 C1073 1.350 . S
N1071 S1069 1.610 . S
N1071 C1072 1.351 . S
C1072 C1066 1.428 . S
C1072 N1071 1.351 . S
C1072 C1073 1.434 . S
C1073 C1064 1.429 1_655 S
C1073 N1070 1.350 . S
C1073 C1072 1.434 . S
C1074 C1075 1.369 . S
C1074 C1076 1.419 . S
C1074 H1078 0.930 . S
C1075 C1074 1.369 . S
C1075 C1084 1.429 . S
C1076 C1074 1.419 . S
C1076 C1077 1.363 . S
C1076 H1079 0.929 . S
C1077 C1076 1.363 . S
C1077 C1083 1.428 . S
H1078 C1074 0.930 . S
H1079 C1076 0.929 . S
S1080 N1081 1.613 . S
S1080 N1082 1.610 . S
N1081 S1080 1.613 . S
N1081 C1084 1.350 . S
N1082 S1080 1.610 . S
N1082 C1083 1.351 . S
C1083 C1077 1.428 . S
C1083 N1082 1.351 . S
C1083 C1084 1.434 . S
C1084 C1075 1.429 . S
C1084 N1081 1.350 . S
C1084 C1083 1.434 . S
C1085 C1086 1.369 . S
C1085 C1087 1.419 1_655 S
C1085 H1089 0.930 . S
C1086 C1085 1.369 . S
C1086 C1095 1.429 1_655 S
C1087 C1085 1.419 1_455 S
C1087 C1088 1.363 . S
C1087 H1090 0.929 . S
C1088 C1087 1.363 . S
C1088 C1094 1.428 . S
H1089 C1085 0.930 . S
H1090 C1087 0.929 . S
S1091 N1092 1.613 . S
S1091 N1093 1.610 . S
N1092 S1091 1.613 . S
N1092 C1095 1.350 . S
N1093 S1091 1.610 . S
N1093 C1094 1.351 . S
C1094 C1088 1.428 . S
C1094 N1093 1.351 . S
C1094 C1095 1.434 . S
C1095 C1086 1.429 1_455 S
C1095 N1092 1.350 . S
C1095 C1094 1.434 . S
C1096 C1097 1.369 . S
C1096 C1098 1.419 . S
C1096 H1100 0.930 . S
C1097 C1096 1.369 . S
C1097 C1106 1.429 . S
C1098 C1096 1.419 . S
C1098 C1099 1.363 . S
C1098 H1101 0.929 . S
C1099 C1098 1.363 . S
C1099 C1105 1.428 . S
H1100 C1096 0.930 . S
H1101 C1098 0.929 . S
S1102 N1103 1.613 . S
S1102 N1104 1.610 . S
N1103 S1102 1.613 . S
N1103 C1106 1.350 . S
N1104 S1102 1.610 . S
N1104 C1105 1.351 . S
C1105 C1099 1.428 . S
C1105 N1104 1.351 . S
C1105 C1106 1.434 . S
C1106 C1097 1.429 . S
C1106 N1103 1.350 . S
C1106 C1105 1.434 . S
C1107 C1108 1.369 . S
C1107 C1109 1.419 . S
C1107 H1111 0.930 . S
C1108 C1107 1.369 . S
C1108 C1117 1.429 1_556 S
C1109 C1107 1.419 . S
C1109 C1110 1.363 . S
C1109 H1112 0.929 . S
C1110 C1109 1.363 . S
C1110 C1116 1.428 . S
H1111 C1107 0.930 . S
H1112 C1109 0.929 . S
S1113 N1114 1.613 . S
S1113 N1115 1.610 1_554 S
N1114 S1113 1.613 . S
N1114 C1117 1.350 . S
N1115 S1113 1.610 1_556 S
N1115 C1116 1.351 . S
C1116 C1110 1.428 . S
C1116 N1115 1.351 . S
C1116 C1117 1.434 1_556 S
C1117 C1108 1.429 1_554 S
C1117 N1114 1.350 . S
C1117 C1116 1.434 1_554 S
C1118 C1119 1.369 . S
C1118 C1120 1.419 . S
C1118 H1122 0.930 . S
C1119 C1118 1.369 . S
C1119 C1128 1.429 . S
C1120 C1118 1.419 . S
C1120 C1121 1.363 . S
C1120 H1123 0.929 . S
C1121 C1120 1.363 . S
C1121 C1127 1.428 . S
H1122 C1118 0.930 . S
H1123 C1120 0.929 . S
S1124 N1125 1.613 . S
S1124 N1126 1.610 . S
N1125 S1124 1.613 . S
N1125 C1128 1.350 . S
N1126 S1124 1.610 . S
N1126 C1127 1.351 . S
C1127 C1121 1.428 . S
C1127 N1126 1.351 . S
C1127 C1128 1.434 . S
C1128 C1119 1.429 . S
C1128 N1125 1.350 . S
C1128 C1127 1.434 . S
C1129 C1130 1.369 . S
C1129 C1131 1.419 1_554 S
C1129 H1133 0.930 . S
C1130 C1129 1.369 . S
C1130 C1139 1.429 . S
C1131 C1129 1.419 1_556 S
C1131 C1132 1.363 . S
C1131 H1134 0.929 . S
C1132 C1131 1.363 . S
C1132 C1138 1.428 . S
H1133 C1129 0.930 . S
H1134 C1131 0.929 . S
S1135 N1136 1.613 1_556 S
S1135 N1137 1.610 . S
N1136 S1135 1.613 1_554 S
N1136 C1139 1.350 . S
N1137 S1135 1.610 . S
N1137 C1138 1.351 . S
C1138 C1132 1.428 . S
C1138 N1137 1.351 . S
C1138 C1139 1.434 1_556 S
C1139 C1130 1.429 . S
C1139 N1136 1.350 . S
C1139 C1138 1.434 1_554 S
C1140 C1141 1.369 . S
C1140 C1142 1.419 . S
C1140 H1144 0.930 . S
C1141 C1140 1.369 . S
C1141 C1150 1.429 . S
C1142 C1140 1.419 . S
C1142 C1143 1.363 . S
C1142 H1145 0.929 . S
C1143 C1142 1.363 . S
C1143 C1149 1.428 . S
H1144 C1140 0.930 . S
H1145 C1142 0.929 . S
S1146 N1147 1.613 . S
S1146 N1148 1.610 . S
N1147 S1146 1.613 . S
N1147 C1150 1.350 . S
N1148 S1146 1.610 . S
N1148 C1149 1.351 . S
C1149 C1143 1.428 . S
C1149 N1148 1.351 . S
C1149 C1150 1.434 . S
C1150 C1141 1.429 . S
C1150 N1147 1.350 . S
C1150 C1149 1.434 . S
C1151 C1152 1.369 . S
C1151 C1153 1.419 . S
C1151 H1155 0.930 1_554 S
C1152 C1151 1.369 . S
C1152 C1161 1.429 . S
C1153 C1151 1.419 . S
C1153 C1154 1.363 . S
C1153 H1156 0.929 . S
C1154 C1153 1.363 . S
C1154 C1160 1.428 . S
H1155 C1151 0.930 1_556 S
H1156 C1153 0.929 . S
S1157 N1158 1.613 . S
S1157 N1159 1.610 . S
N1158 S1157 1.613 . S
N1158 C1161 1.350 . S
N1159 S1157 1.610 . S
N1159 C1160 1.351 . S
C1160 C1154 1.428 . S
C1160 N1159 1.351 . S
C1160 C1161 1.434 . S
C1161 C1152 1.429 . S
C1161 N1158 1.350 . S
C1161 C1160 1.434 . S
C1162 C1163 1.369 . S
C1162 C1164 1.419 . S
C1162 H1166 0.930 . S
C1163 C1162 1.369 . S
C1163 C1172 1.429 . S
C1164 C1162 1.419 . S
C1164 C1165 1.363 . S
C1164 H1167 0.929 . S
C1165 C1164 1.363 . S
C1165 C1171 1.428 . S
H1166 C1162 0.930 . S
H1167 C1164 0.929 . S
S1168 N1169 1.613 . S
S1168 N1170 1.610 . S
N1169 S1168 1.613 . S
N1169 C1172 1.350 . S
N1170 S1168 1.610 . S
N1170 C1171 1.351 . S
C1171 C1165 1.428 . S
C1171 N1170 1.351 . S
C1171 C1172 1.434 . S
C1172 C1163 1.429 . S
C1172 N1169 1.350 . S
C1172 C1171 1.434 . S
C1173 C1174 1.369 . S
C1173 C1175 1.419 . S
C1173 H1177 0.930 . S
C1174 C1173 1.369 . S
C1174 C1183 1.429 . S
C1175 C1173 1.419 . S
C1175 C1176 1.363 . S
C1175 H1178 0.929 . S
C1176 C1175 1.363 . S
C1176 C1182 1.428 . S
H1177 C1173 0.930 . S
H1178 C1175 0.929 . S
S1179 N1180 1.613 . S
S1179 N1181 1.610 . S
N1180 S1179 1.613 . S
N1180 C1183 1.350 . S
N1181 S1179 1.610 . S
N1181 C1182 1.351 . S
C1182 C1176 1.428 . S
C1182 N1181 1.351 . S
C1182 C1183 1.434 . S
C1183 C1174 1.429 . S
C1183 N1180 1.350 . S
C1183 C1182 1.434 . S
C1184 C1185 1.369 . S
C1184 C1186 1.419 . S
C1184 H1188 0.930 . S
C1185 C1184 1.369 . S
C1185 C1194 1.429 . S
C1186 C1184 1.419 . S
C1186 C1187 1.363 . S
C1186 H1189 0.929 . S
C1187 C1186 1.363 . S
C1187 C1193 1.428 . S
H1188 C1184 0.930 . S
H1189 C1186 0.929 . S
S1190 N1191 1.613 . S
S1190 N1192 1.610 . S
N1191 S1190 1.613 . S
N1191 C1194 1.350 . S
N1192 S1190 1.610 . S
N1192 C1193 1.351 . S
C1193 C1187 1.428 . S
C1193 N1192 1.351 . S
C1193 C1194 1.434 . S
C1194 C1185 1.429 . S
C1194 N1191 1.350 . S
C1194 C1193 1.434 . S
C1195 C1196 1.369 . S
C1195 C1197 1.419 . S
C1195 H1199 0.930 . S
C1196 C1195 1.369 . S
C1196 C1205 1.429 . S
C1197 C1195 1.419 . S
C1197 C1198 1.363 . S
C1197 H1200 0.929 . S
C1198 C1197 1.363 . S
C1198 C1204 1.428 . S
H1199 C1195 0.930 . S
H1200 C1197 0.929 . S
S1201 N1202 1.613 . S
S1201 N1203 1.610 . S
N1202 S1201 1.613 . S
N1202 C1205 1.350 . S
N1203 S1201 1.610 . S
N1203 C1204 1.351 . S
C1204 C1198 1.428 . S
C1204 N1203 1.351 . S
C1204 C1205 1.434 . S
C1205 C1196 1.429 . S
C1205 N1202 1.350 . S
C1205 C1204 1.434 . S
C1206 C1207 1.369 . S
C1206 C1208 1.419 . S
C1206 H1210 0.930 . S
C1207 C1206 1.369 . S
C1207 C1216 1.429 . S
C1208 C1206 1.419 . S
C1208 C1209 1.363 . S
C1208 H1211 0.929 . S
C1209 C1208 1.363 . S
C1209 C1215 1.428 . S
H1210 C1206 0.930 . S
H1211 C1208 0.929 . S
S1212 N1213 1.613 . S
S1212 N1214 1.610 . S
N1213 S1212 1.613 . S
N1213 C1216 1.350 . S
N1214 S1212 1.610 . S
N1214 C1215 1.351 . S
C1215 C1209 1.428 . S
C1215 N1214 1.351 . S
C1215 C1216 1.434 . S
C1216 C1207 1.429 . S
C1216 N1213 1.350 . S
C1216 C1215 1.434 . S
C1217 C1218 1.369 . S
C1217 C1219 1.419 . S
C1217 H1221 0.930 . S
C1218 C1217 1.369 . S
C1218 C1227 1.429 . S
C1219 C1217 1.419 . S
C1219 C1220 1.363 . S
C1219 H1222 0.929 . S
C1220 C1219 1.363 . S
C1220 C1226 1.428 . S
H1221 C1217 0.930 . S
H1222 C1219 0.929 . S
S1223 N1224 1.613 . S
S1223 N1225 1.610 . S
N1224 S1223 1.613 . S
N1224 C1227 1.350 . S
N1225 S1223 1.610 . S
N1225 C1226 1.351 . S
C1226 C1220 1.428 . S
C1226 N1225 1.351 . S
C1226 C1227 1.434 . S
C1227 C1218 1.429 . S
C1227 N1224 1.350 . S
C1227 C1226 1.434 . S
C1228 C1229 1.369 . S
C1228 C1230 1.419 . S
C1228 H1232 0.930 . S
C1229 C1228 1.369 . S
C1229 C1238 1.429 . S
C1230 C1228 1.419 . S
C1230 C1231 1.363 . S
C1230 H1233 0.929 . S
C1231 C1230 1.363 . S
C1231 C1237 1.428 . S
H1232 C1228 0.930 . S
H1233 C1230 0.929 . S
S1234 N1235 1.613 1_554 S
S1234 N1236 1.610 . S
N1235 S1234 1.613 1_556 S
N1235 C1238 1.350 . S
N1236 S1234 1.610 . S
N1236 C1237 1.351 1_554 S
C1237 C1231 1.428 . S
C1237 N1236 1.351 1_556 S
C1237 C1238 1.434 . S
C1238 C1229 1.429 . S
C1238 N1235 1.350 . S
C1238 C1237 1.434 . S
C1239 C1240 1.369 . S
C1239 C1241 1.419 . S
C1239 H1243 0.930 . S
C1240 C1239 1.369 . S
C1240 C1249 1.429 . S
C1241 C1239 1.419 . S
C1241 C1242 1.363 . S
C1241 H1244 0.929 . S
C1242 C1241 1.363 . S
C1242 C1248 1.428 . S
H1243 C1239 0.930 . S
H1244 C1241 0.929 . S
S1245 N1246 1.613 . S
S1245 N1247 1.610 . S
N1246 S1245 1.613 . S
N1246 C1249 1.350 . S
N1247 S1245 1.610 . S
N1247 C1248 1.351 . S
C1248 C1242 1.428 . S
C1248 N1247 1.351 . S
C1248 C1249 1.434 . S
C1249 C1240 1.429 . S
C1249 N1246 1.350 . S
C1249 C1248 1.434 . S
C1250 C1251 1.369 . S
C1250 C1252 1.419 . S
C1250 H1254 0.930 . S
C1251 C1250 1.369 . S
C1251 C1260 1.429 . S
C1252 C1250 1.419 . S
C1252 C1253 1.363 . S
C1252 H1255 0.929 . S
C1253 C1252 1.363 . S
C1253 C1259 1.428 . S
H1254 C1250 0.930 . S
H1255 C1252 0.929 . S
S1256 N1257 1.613 1_556 S
S1256 N1258 1.610 . S
N1257 S1256 1.613 1_554 S
N1257 C1260 1.350 . S
N1258 S1256 1.610 . S
N1258 C1259 1.351 1_556 S
C1259 C1253 1.428 . S
C1259 N1258 1.351 1_554 S
C1259 C1260 1.434 . S
C1260 C1251 1.429 . S
C1260 N1257 1.350 . S
C1260 C1259 1.434 . S
C1261 C1262 1.369 . S
C1261 C1263 1.419 . S
C1261 H1265 0.930 . S
C1262 C1261 1.369 . S
C1262 C1271 1.429 . S
C1263 C1261 1.419 . S
C1263 C1264 1.363 1_545 S
C1263 H1266 0.929 1_545 S
C1264 C1263 1.363 1_565 S
C1264 C1270 1.428 1_565 S
H1265 C1261 0.930 . S
H1266 C1263 0.929 1_565 S
S1267 N1268 1.613 . S
S1267 N1269 1.610 . S
N1268 S1267 1.613 . S
N1268 C1271 1.350 . S
N1269 S1267 1.610 . S
N1269 C1270 1.351 . S
C1270 C1264 1.428 1_545 S
C1270 N1269 1.351 . S
C1270 C1271 1.434 . S
C1271 C1262 1.429 . S
C1271 N1268 1.350 . S
C1271 C1270 1.434 . S
C747 C584 1.595 1_556 S
C745 C181 1.599 . S
C758 C599 1.736 . S
C756 C247 1.738 1_455 S
C767 C283 1.671 . S
C769 C612 1.682 . S
C780 C626 1.611 . S
C778 C169 1.696 1_655 S
C791 C638 1.604 . S
C789 C361 1.682 . S
C802 C652 1.516 . S
C800 C433 1.480 . S
C811 C421 1.708 . S
C813 C666 1.689 . S
C824 C681 1.612 . S
C822 C355 1.534 . S
C833 C427 1.641 . S
C835 C697 1.650 . S
C846 C710 1.619 . S
C844 C325 1.590 . S
C855 C385 1.588 . S
C857 C695 1.531 . S
C868 C708 1.701 . S
C866 C463 1.661 . S
C877 C253 1.795 . S
C879 C724 1.800 . S
C888 C145 1.684 . S
C890 C723 1.664 . S
C899 C205 1.689 . S
C901 C722 1.622 . S
C910 C217 1.653 . S
C912 C725 1.645 . S
C921 C139 1.698 . S
C923 C627 1.686 1_565 S
C932 C535 1.497 . S
C934 C625 1.470 . S
C945 C585 1.572 . S
C943 C565 1.563 . S
C956 C596 1.725 . S
C954 C313 1.721 . S
C965 C175 1.709 . S
C967 C641 1.665 . S
C978 C682 1.823 . S
C976 C397 1.822 . S
C989 C639 1.665 . S
C987 C349 1.575 1_545 S
C1000 C667 1.662 . S
C998 C457 1.656 . S
C1011 C668 1.597 . S
C1009 C505 1.600 . S
C1020 C571 1.747 . S
C1022 C683 1.729 . S
C1031 C319 1.674 . S
C1033 C640 1.684 . S
C1044 C654 1.615 . S
C1042 C493 1.692 . S
C1053 C109 1.682 . S
C1055 C610 1.604 . S
C1066 C624 1.517 . S
C1064 C1 1.472 . S
C1077 C582 1.689 . S
C1075 C61 1.712 . S
C1088 C597 1.613 . S
C1086 C103 1.537 . S
C1097 C67 1.645 . S
C1099 C711 1.652 . S
C1108 C73 1.594 1_556 S
C1110 C696 1.614 . S
C1119 C133 1.589 . S
C1121 C709 1.525 . S
C1130 C31 1.654 . S
C1132 C694 1.703 . S
C1143 C738 1.799 . S
C1141 C289 1.796 . S
C1154 C737 1.670 . S
C1152 C469 1.681 1_554 S
C1165 C736 1.617 . S
C1163 C529 1.688 . S
C1174 C541 1.652 . S
C1176 C739 1.645 . S
C1185 C391 1.697 . S
C1187 C655 1.687 . S
C1198 C653 1.471 . S
C1196 C211 1.498 . S
C1209 C669 1.569 . S
C1207 C241 1.567 . S
C1220 C680 1.725 . S
C1218 C277 1.721 . S
C1229 C499 1.703 . S
C1231 C613 1.669 . S
C1242 C598 1.823 . S
C1240 C37 1.820 . S
C1251 C97 1.570 . S
C1253 C611 1.662 . S
C1264 C583 1.661 . S
C1262 C25 1.657 . S
