# Generated by pormake.
# Topology pto, (3,4)-cn, num edge types: 1
# Building blocks:
#     Node 0, Type 0, BuildingBlock: WUSLED_clean_sbu_0, # of connection points: 3
#     Node 1, Type 0, BuildingBlock: WUSLED_clean_sbu_0, # of connection points: 3
#     Node 2, Type 0, BuildingBlock: WUSLED_clean_sbu_0, # of connection points: 3
#     Node 3, Type 0, BuildingBlock: WUSLED_clean_sbu_0, # of connection points: 3
#     Node 4, Type 0, BuildingBlock: WUSLED_clean_sbu_0, # of connection points: 3
#     Node 5, Type 0, BuildingBlock: WUSLED_clean_sbu_0, # of connection points: 3
#     Node 6, Type 0, BuildingBlock: WUSLED_clean_sbu_0, # of connection points: 3
#     Node 7, Type 0, BuildingBlock: WUSLED_clean_sbu_0, # of connection points: 3
#     Node 8, Type 1, BuildingBlock: MIFKUJ_clean_linker_1, # of connection points: 4
#     Node 9, Type 1, BuildingBlock: MIFKUJ_clean_linker_1, # of connection points: 4
#     Node 10, Type 1, BuildingBlock: MIFKUJ_clean_linker_1, # of connection points: 4
#     Node 11, Type 1, BuildingBlock: MIFKUJ_clean_linker_1, # of connection points: 4
#     Node 12, Type 1, BuildingBlock: MIFKUJ_clean_linker_1, # of connection points: 4
#     Node 13, Type 1, BuildingBlock: MIFKUJ_clean_linker_1, # of connection points: 4
#     Edge 14, Type (0, 1), BuildingBlock: XIVTED_clean_linker_0, # of connection points: 2
#     Edge 15, Type (0, 1), BuildingBlock: XIVTED_clean_linker_0, # of connection points: 2
#     Edge 16, Type (0, 1), BuildingBlock: XIVTED_clean_linker_0, # of connection points: 2
#     Edge 17, Type (0, 1), BuildingBlock: XIVTED_clean_linker_0, # of connection points: 2
#     Edge 18, Type (0, 1), BuildingBlock: XIVTED_clean_linker_0, # of connection points: 2
#     Edge 19, Type (0, 1), BuildingBlock: XIVTED_clean_linker_0, # of connection points: 2
#     Edge 20, Type (0, 1), BuildingBlock: XIVTED_clean_linker_0, # of connection points: 2
#     Edge 21, Type (0, 1), BuildingBlock: XIVTED_clean_linker_0, # of connection points: 2
#     Edge 22, Type (0, 1), BuildingBlock: XIVTED_clean_linker_0, # of connection points: 2
#     Edge 23, Type (0, 1), BuildingBlock: XIVTED_clean_linker_0, # of connection points: 2
#     Edge 24, Type (0, 1), BuildingBlock: XIVTED_clean_linker_0, # of connection points: 2
#     Edge 25, Type (0, 1), BuildingBlock: XIVTED_clean_linker_0, # of connection points: 2
#     Edge 26, Type (0, 1), BuildingBlock: XIVTED_clean_linker_0, # of connection points: 2
#     Edge 27, Type (0, 1), BuildingBlock: XIVTED_clean_linker_0, # of connection points: 2
#     Edge 28, Type (0, 1), BuildingBlock: XIVTED_clean_linker_0, # of connection points: 2
#     Edge 29, Type (0, 1), BuildingBlock: XIVTED_clean_linker_0, # of connection points: 2
#     Edge 30, Type (0, 1), BuildingBlock: XIVTED_clean_linker_0, # of connection points: 2
#     Edge 31, Type (0, 1), BuildingBlock: XIVTED_clean_linker_0, # of connection points: 2
#     Edge 32, Type (0, 1), BuildingBlock: XIVTED_clean_linker_0, # of connection points: 2
#     Edge 33, Type (0, 1), BuildingBlock: XIVTED_clean_linker_0, # of connection points: 2
#     Edge 34, Type (0, 1), BuildingBlock: XIVTED_clean_linker_0, # of connection points: 2
#     Edge 35, Type (0, 1), BuildingBlock: XIVTED_clean_linker_0, # of connection points: 2
#     Edge 36, Type (0, 1), BuildingBlock: XIVTED_clean_linker_0, # of connection points: 2
#     Edge 37, Type (0, 1), BuildingBlock: XIVTED_clean_linker_0, # of connection points: 2
# Relax obj value: 0.001
# Max RMSD: 0.013
# Mean RMSD: 0.005
data_MOF--net-pto--node1-WUSLED_clean_sbu_0--node2-MIFKUJ_clean_linker_1--edge1-XIVTED_clean_linker_0
_symmetry_space_group_name_H-M    P1
_symmetry_Int_Tables_number       1
_symmetry_cell_setting            triclinic
loop_
_symmetry_equiv_pos_as_xyz
'x, y, z'
_cell_length_a     49.597452
_cell_length_b     73.301838
_cell_length_c     61.647812
_cell_angle_alpha  89.531215
_cell_angle_beta   90.729492
_cell_angle_gamma 90.623149
loop_
_atom_site_label
_atom_site_type_symbol
_atom_site_fract_x
_atom_site_fract_y
_atom_site_fract_z
_atom_type_partial_charge
C0 C 0.23379 0.2291 0.34825 0.0
C1 C 0.25384 0.21629 0.34406 0.0
C2 C 0.23688 0.19658 0.37304 0.0
C3 C 0.2554 0.20018 0.35636 0.0
C4 C 0.21671 0.20947 0.37699 0.0
C5 C 0.21522 0.22557 0.36472 0.0
U6 U 0.2548 0.2591 0.30039 0.0
O7 O 0.2307 0.27689 0.27902 0.0
O8 O 0.26353 0.28861 0.29885 0.0
C9 C 0.24305 0.29183 0.28569 0.0
C10 C 0.23204 0.24618 0.33564 0.0
C11 C 0.22559 0.30704 0.29177 0.0
C12 C 0.1852 0.31883 0.30844 0.0
C13 C 0.20178 0.30412 0.30345 0.0
C14 C 0.21636 0.33951 0.29055 0.0
C15 C 0.19229 0.33671 0.30199 0.0
C16 C 0.2328 0.32482 0.28548 0.0
C17 C 0.30615 0.24117 0.26022 0.0
C18 C 0.31953 0.25818 0.22802 0.0
C19 C 0.33967 0.2289 0.23616 0.0
C20 C 0.32413 0.22738 0.25485 0.0
C21 C 0.3375 0.24427 0.22243 0.0
C22 C 0.30397 0.25663 0.24677 0.0
C23 C 0.28969 0.23911 0.27978 0.0
O24 O 0.25388 0.25651 0.33593 0.0
O25 O 0.22107 0.24471 0.31621 0.0
O26 O 0.26352 0.23803 0.27636 0.0
O27 O 0.29641 0.24981 0.29602 0.0
H28 H 0.26837 0.21881 0.33137 0.0
H29 H 0.27138 0.1907 0.35301 0.0
H30 H 0.20184 0.20704 0.38943 0.0
H31 H 0.19951 0.23527 0.36809 0.0
H32 H 0.16696 0.31623 0.31748 0.0
H33 H 0.19594 0.29049 0.3086 0.0
H34 H 0.22225 0.35304 0.28509 0.0
H35 H 0.25108 0.32733 0.27644 0.0
H36 H 0.31714 0.2701 0.21773 0.0
H37 H 0.3536 0.21808 0.23257 0.0
H38 H 0.32614 0.21539 0.26512 0.0
H39 H 0.29012 0.26741 0.25069 0.0
C40 C 0.23376 0.79571 0.6681 0.0
C41 C 0.25082 0.81003 0.67484 0.0
C42 C 0.23649 0.82848 0.64374 0.0
C43 C 0.25218 0.82627 0.66277 0.0
C44 C 0.2195 0.814 0.63708 0.0
C45 C 0.21817 0.79778 0.64917 0.0
U46 U 0.25583 0.76615 0.71602 0.0
O47 O 0.23222 0.74858 0.73792 0.0
O48 O 0.26386 0.73668 0.71804 0.0
C49 C 0.24415 0.73361 0.73169 0.0
C50 C 0.23203 0.77862 0.6807 0.0
C51 C 0.2263 0.71801 0.72671 0.0
C52 C 0.18688 0.70465 0.70884 0.0
C53 C 0.20414 0.71963 0.71245 0.0
C54 C 0.21412 0.68632 0.73336 0.0
C55 C 0.19152 0.68786 0.71946 0.0
C56 C 0.23128 0.70125 0.73695 0.0
C57 C 0.30882 0.78419 0.75593 0.0
C58 C 0.31947 0.76848 0.78979 0.0
C59 C 0.34637 0.79456 0.77846 0.0
C60 C 0.33037 0.79629 0.75972 0.0
C61 C 0.34104 0.7807 0.79381 0.0
C62 C 0.30353 0.7702 0.771 0.0
C63 C 0.292 0.78638 0.73629 0.0
O64 O 0.25366 0.76843 0.68042 0.0
O65 O 0.22176 0.78011 0.70015 0.0
O66 O 0.26595 0.78758 0.73958 0.0
O67 O 0.29787 0.77561 0.72012 0.0
H68 H 0.26298 0.80866 0.68948 0.0
H69 H 0.26522 0.83719 0.66853 0.0
H70 H 0.20744 0.81511 0.62237 0.0
H71 H 0.20496 0.78684 0.6437 0.0
H72 H 0.16958 0.70634 0.69815 0.0
H73 H 0.20002 0.7325 0.70438 0.0
H74 H 0.21862 0.67353 0.74148 0.0
H75 H 0.24838 0.69973 0.74791 0.0
H76 H 0.31457 0.75778 0.80134 0.0
H77 H 0.36306 0.80401 0.7808 0.0
H78 H 0.33483 0.8071 0.74818 0.0
H79 H 0.28696 0.7607 0.76829 0.0
C80 C 0.72195 0.78446 0.26297 0.0
C81 C 0.72531 0.76926 0.24963 0.0
C82 C 0.68917 0.7798 0.22562 0.0
C83 C 0.70909 0.76696 0.23109 0.0
C84 C 0.6859 0.79498 0.23915 0.0
C85 C 0.70217 0.79728 0.25764 0.0
U86 U 0.77596 0.76769 0.3025 0.0
O87 O 0.80988 0.78237 0.31794 0.0
O88 O 0.77857 0.76972 0.33809 0.0
C89 C 0.79991 0.7805 0.3375 0.0
C90 C 0.73895 0.78709 0.28242 0.0
C91 C 0.79793 0.79744 0.35 0.0
C92 C 0.78306 0.82878 0.35331 0.0
C93 C 0.78456 0.81268 0.34135 0.0
C94 C 0.80794 0.81447 0.38282 0.0
C95 C 0.79476 0.82988 0.3742 0.0
C96 C 0.80952 0.79842 0.3708 0.0
C97 C 0.80679 0.72058 0.29164 0.0
C98 C 0.8413 0.70608 0.314 0.0
C99 C 0.82506 0.69141 0.28119 0.0
C100 C 0.80753 0.70589 0.27732 0.0
C101 C 0.84228 0.69135 0.2995 0.0
C102 C 0.82372 0.72063 0.31006 0.0
C103 C 0.78835 0.73568 0.2868 0.0
O104 O 0.73366 0.77605 0.29877 0.0
O105 O 0.76489 0.78903 0.27884 0.0
O106 O 0.79976 0.75103 0.28041 0.0
O107 O 0.76883 0.73805 0.30069 0.0
H108 H 0.74046 0.75918 0.25359 0.0
H109 H 0.71193 0.75501 0.22119 0.0
H110 H 0.67103 0.80526 0.23527 0.0
H111 H 0.69936 0.80912 0.26775 0.0
H112 H 0.77247 0.8403 0.34631 0.0
H113 H 0.77532 0.81213 0.32534 0.0
H114 H 0.81742 0.81491 0.39873 0.0
H115 H 0.81992 0.78678 0.37772 0.0
H116 H 0.85443 0.70651 0.32816 0.0
H117 H 0.82491 0.68017 0.2699 0.0
H118 H 0.79451 0.70561 0.26307 0.0
H119 H 0.82341 0.73192 0.32128 0.0
C120 C 0.75866 0.20854 0.697 0.0
C121 C 0.77939 0.20954 0.68173 0.0
C122 C 0.76607 0.17972 0.66761 0.0
C123 C 0.78306 0.19525 0.66712 0.0
C124 C 0.74511 0.179 0.68279 0.0
C125 C 0.74149 0.19326 0.69733 0.0
U126 U 0.77386 0.25598 0.72057 0.0
O127 O 0.74612 0.27579 0.73448 0.0
O128 O 0.77834 0.26407 0.75476 0.0
C129 C 0.75678 0.27433 0.75404 0.0
C130 C 0.75478 0.22305 0.71296 0.0
C131 C 0.73762 0.27152 0.7718 0.0
C132 C 0.69921 0.25581 0.78782 0.0
C133 C 0.71757 0.25789 0.77087 0.0
C134 C 0.72111 0.28078 0.8069 0.0
C135 C 0.70065 0.26733 0.806 0.0
C136 C 0.73935 0.28285 0.78995 0.0
C137 C 0.82434 0.28874 0.69523 0.0
C138 C 0.83358 0.31822 0.71164 0.0
C139 C 0.85593 0.30993 0.67848 0.0
C140 C 0.84235 0.2931 0.67862 0.0
C141 C 0.85174 0.32271 0.695 0.0
C142 C 0.82 0.30139 0.71174 0.0
C143 C 0.81012 0.27103 0.69524 0.0
O144 O 0.77537 0.22633 0.72603 0.0
O145 O 0.74323 0.23795 0.70558 0.0
O146 O 0.78406 0.27179 0.69126 0.0
O147 O 0.81627 0.26007 0.71151 0.0
H148 H 0.79285 0.22128 0.68127 0.0
H149 H 0.79951 0.19619 0.65577 0.0
H150 H 0.73134 0.16745 0.68337 0.0
H151 H 0.7253 0.19231 0.70894 0.0
H152 H 0.68361 0.24542 0.7865 0.0
H153 H 0.71599 0.24897 0.75696 0.0
H154 H 0.72318 0.28965 0.82079 0.0
H155 H 0.75483 0.29337 0.791 0.0
H156 H 0.82959 0.3278 0.72446 0.0
H157 H 0.87001 0.31283 0.66558 0.0
H158 H 0.84597 0.28346 0.66577 0.0
H159 H 0.80604 0.29826 0.72467 0.0
C160 C 0.80254 0.71787 0.73275 0.0
C161 C 0.81883 0.71822 0.71431 0.0
C162 C 0.83718 0.68853 0.72436 0.0
C163 C 0.836 0.70363 0.71011 0.0
C164 C 0.82064 0.68831 0.74275 0.0
C165 C 0.80352 0.70284 0.74688 0.0
U166 U 0.77265 0.76519 0.72137 0.0
O167 O 0.7307 0.77419 0.72453 0.0
O168 O 0.76272 0.78675 0.74444 0.0
C169 C 0.73666 0.78525 0.74061 0.0
C170 C 0.78446 0.73299 0.73768 0.0
C171 C 0.71987 0.78314 0.75996 0.0
C172 C 0.70658 0.76618 0.7922 0.0
C173 C 0.72239 0.76784 0.77363 0.0
C174 C 0.68548 0.79503 0.7835 0.0
C175 C 0.68799 0.7798 0.79742 0.0
C176 C 0.70129 0.79667 0.76496 0.0
C177 C 0.79488 0.79451 0.6735 0.0
C178 C 0.77374 0.82358 0.6654 0.0
C179 C 0.81232 0.81403 0.64479 0.0
C180 C 0.81351 0.79789 0.65703 0.0
C181 C 0.79241 0.82709 0.64881 0.0
C182 C 0.77499 0.80745 0.67765 0.0
C183 C 0.79654 0.77758 0.68638 0.0
O184 O 0.79635 0.74819 0.74399 0.0
O185 O 0.76459 0.73567 0.72375 0.0
O186 O 0.77489 0.76708 0.68582 0.0
O187 O 0.8068 0.77943 0.70601 0.0
H188 H 0.81833 0.72977 0.70324 0.0
H189 H 0.84862 0.7043 0.69592 0.0
H190 H 0.82068 0.67678 0.75385 0.0
H191 H 0.79099 0.70233 0.76115 0.0
H192 H 0.70926 0.75438 0.80266 0.0
H193 H 0.73671 0.75726 0.77 0.0
H194 H 0.6711 0.80563 0.78682 0.0
H195 H 0.69904 0.80854 0.75452 0.0
H196 H 0.75795 0.8332 0.66877 0.0
H197 H 0.82726 0.81637 0.63239 0.0
H198 H 0.82908 0.78809 0.6537 0.0
H199 H 0.76043 0.80505 0.69034 0.0
C200 C 0.72254 0.238 0.26199 0.0
C201 C 0.71209 0.25504 0.25589 0.0
C202 C 0.6902 0.24151 0.22412 0.0
C203 C 0.69599 0.25677 0.23719 0.0
C204 C 0.70111 0.22453 0.23018 0.0
C205 C 0.71705 0.22281 0.24895 0.0
U206 U 0.77357 0.25633 0.30348 0.0
O207 O 0.77447 0.25364 0.33907 0.0
O208 O 0.80758 0.24278 0.31994 0.0
C209 C 0.7965 0.24384 0.33915 0.0
C210 C 0.73911 0.23579 0.28183 0.0
C211 C 0.79494 0.22662 0.35152 0.0
C212 C 0.78112 0.19479 0.35456 0.0
C213 C 0.7825 0.21108 0.34258 0.0
C214 C 0.80433 0.2095 0.38461 0.0
C215 C 0.79202 0.19381 0.37573 0.0
C216 C 0.80579 0.22574 0.37259 0.0
C217 C 0.80134 0.30511 0.29488 0.0
C218 C 0.83716 0.31923 0.31641 0.0
C219 C 0.81388 0.33679 0.28862 0.0
C220 C 0.79786 0.32158 0.2836 0.0
C221 C 0.83374 0.33584 0.30509 0.0
C222 C 0.82103 0.30398 0.31137 0.0
C223 C 0.78439 0.28933 0.28886 0.0
O224 O 0.76529 0.23526 0.2789 0.0
O225 O 0.73232 0.24585 0.29841 0.0
O226 O 0.76419 0.28559 0.30182 0.0
O227 O 0.79731 0.27475 0.28266 0.0
H228 H 0.71621 0.267 0.26565 0.0
H229 H 0.68773 0.27001 0.23322 0.0
H230 H 0.69757 0.21256 0.22033 0.0
H231 H 0.72511 0.20957 0.2533 0.0
H232 H 0.7712 0.18305 0.34734 0.0
H233 H 0.77382 0.21156 0.32637 0.0
H234 H 0.8132 0.20916 0.40075 0.0
H235 H 0.81546 0.23762 0.37974 0.0
H236 H 0.8521 0.31808 0.3293 0.0
H237 H 0.81098 0.34922 0.27931 0.0
H238 H 0.78283 0.32266 0.27075 0.0
H239 H 0.82393 0.29134 0.32028 0.0
C240 C 0.23134 0.2275 0.66811 0.0
C241 C 0.24867 0.21358 0.6751 0.0
C242 C 0.23334 0.19438 0.64514 0.0
C243 C 0.24968 0.19716 0.6637 0.0
C244 C 0.21603 0.20845 0.63827 0.0
C245 C 0.21506 0.22484 0.64966 0.0
U246 U 0.25343 0.25864 0.71457 0.0
O247 O 0.26235 0.28816 0.7144 0.0
O248 O 0.22977 0.27709 0.73457 0.0
C249 C 0.24214 0.29179 0.72719 0.0
C250 C 0.2301 0.24487 0.6798 0.0
C251 C 0.22473 0.30696 0.72022 0.0
C252 C 0.18339 0.31858 0.70386 0.0
C253 C 0.20007 0.30389 0.70933 0.0
C254 C 0.21616 0.33952 0.7196 0.0
C255 C 0.1912 0.33657 0.70905 0.0
C256 C 0.23271 0.32485 0.72515 0.0
C257 C 0.30521 0.24228 0.75708 0.0
C258 C 0.34624 0.25354 0.77484 0.0
C259 C 0.31264 0.23729 0.79582 0.0
C260 C 0.2967 0.23513 0.77712 0.0
C261 C 0.33763 0.24649 0.79491 0.0
C262 C 0.33025 0.25144 0.75615 0.0
C263 C 0.28844 0.2395 0.73723 0.0
O264 O 0.2194 0.24396 0.69918 0.0
O265 O 0.25211 0.255 0.67919 0.0
O266 O 0.29495 0.24924 0.72002 0.0
O267 O 0.26223 0.23829 0.74005 0.0
H268 H 0.26136 0.21541 0.68937 0.0
H269 H 0.26301 0.18656 0.66958 0.0
H270 H 0.20347 0.20691 0.62389 0.0
H271 H 0.20164 0.23548 0.64401 0.0
H272 H 0.16444 0.31586 0.69552 0.0
H273 H 0.19361 0.29017 0.70525 0.0
H274 H 0.22264 0.35314 0.7241 0.0
H275 H 0.25164 0.32748 0.73358 0.0
H276 H 0.36528 0.26083 0.7736 0.0
H277 H 0.30561 0.23142 0.81093 0.0
H278 H 0.27775 0.22773 0.77836 0.0
H279 H 0.33762 0.25697 0.74097 0.0
C280 C 0.20414 0.73409 0.32621 0.0
C281 C 0.21179 0.72023 0.31206 0.0
C282 C 0.17643 0.70022 0.32619 0.0
C283 C 0.19809 0.70345 0.31207 0.0
C284 C 0.16886 0.71423 0.34031 0.0
C285 C 0.18261 0.731 0.3403 0.0
U286 U 0.25557 0.7666 0.3016 0.0
O287 O 0.25415 0.79619 0.29563 0.0
O288 O 0.28559 0.78482 0.31699 0.0
C289 C 0.27435 0.79963 0.30905 0.0
C290 C 0.21834 0.7518 0.32623 0.0
C291 C 0.27014 0.81439 0.32461 0.0
C292 C 0.24564 0.82798 0.35423 0.0
C293 C 0.2493 0.81356 0.33979 0.0
C294 C 0.28373 0.84402 0.3385 0.0
C295 C 0.26274 0.84345 0.35365 0.0
C296 C 0.28735 0.82964 0.32414 0.0
C297 C 0.29432 0.75078 0.25171 0.0
C298 C 0.31514 0.76953 0.22366 0.0
C299 C 0.32892 0.73819 0.22882 0.0
C300 C 0.31061 0.7362 0.24575 0.0
C301 C 0.33121 0.75481 0.21736 0.0
C302 C 0.29693 0.76756 0.24071 0.0
C303 C 0.2744 0.74798 0.26902 0.0
O304 O 0.24425 0.75116 0.33091 0.0
O305 O 0.2128 0.76252 0.3096 0.0
O306 O 0.25247 0.75787 0.26765 0.0
O307 O 0.28427 0.74672 0.28885 0.0
H308 H 0.2284 0.7224 0.30105 0.0
H309 H 0.20471 0.69292 0.30119 0.0
H310 H 0.15205 0.71235 0.35117 0.0
H311 H 0.17635 0.7416 0.35125 0.0
H312 H 0.22916 0.82716 0.36556 0.0
H313 H 0.23583 0.80184 0.34037 0.0
H314 H 0.29759 0.85552 0.33786 0.0
H315 H 0.30364 0.83045 0.31261 0.0
H316 H 0.31614 0.78248 0.2151 0.0
H317 H 0.34131 0.72667 0.22476 0.0
H318 H 0.30903 0.72318 0.25412 0.0
H319 H 0.28465 0.77906 0.24507 0.0
H320 H 0.96267 0.48643 0.29331 0.0
H321 H 0.93502 0.45868 0.29246 0.0
H322 H 0.97511 0.4393 0.3507 0.0
H323 H 1.0026 0.46725 0.35163 0.0
H324 H 0.96559 0.51281 0.32099 0.0
H325 H 0.02774 0.46971 0.2938 0.0
H326 H 0.05451 0.44198 0.29225 0.0
H327 H 0.09468 0.45681 0.35227 0.0
H328 H 0.06778 0.48455 0.35373 0.0
H329 H 0.06672 0.54152 0.35467 0.0
H330 H 0.09279 0.57003 0.35443 0.0
H331 H 0.05469 0.5853 0.29359 0.0
H332 H 0.02957 0.55647 0.29353 0.0
H333 H 0.06542 0.51311 0.32677 0.0
H334 H 1.00138 0.55805 0.35139 0.0
H335 H 0.97647 0.58663 0.34813 0.0
H336 H 0.9402 0.56777 0.28816 0.0
H337 H 0.96569 0.53954 0.2912 0.0
C338 C 0.98486 0.47894 0.32245 0.0
C339 C 0.96548 0.47625 0.30595 0.0
C340 C 0.94964 0.46039 0.30551 0.0
C341 C 0.95281 0.4468 0.32155 0.0
C342 C 0.97238 0.44941 0.33798 0.0
C343 C 0.98812 0.46538 0.33851 0.0
C344 C 1.00108 0.49614 0.32303 0.0
C345 C 0.98744 0.51284 0.32205 0.0
C346 C 0.02961 0.49622 0.32473 0.0
C347 C 0.0455 0.47914 0.32402 0.0
C348 C 0.04206 0.46688 0.30679 0.0
C349 C 0.05737 0.451 0.30593 0.0
C350 C 0.07671 0.44713 0.32217 0.0
C351 C 0.08017 0.45947 0.33938 0.0
C352 C 0.06476 0.47531 0.34027 0.0
C353 C 0.04593 0.54694 0.32427 0.0
C354 C 0.06412 0.55097 0.34122 0.0
C355 C 0.07883 0.56737 0.34115 0.0
C356 C 0.07575 0.58005 0.32405 0.0
C357 C 0.05779 0.57581 0.30692 0.0
C358 C 0.04316 0.5594 0.30698 0.0
C359 C 0.02988 0.52969 0.32464 0.0
C360 C 0.04356 0.51301 0.32587 0.0
C361 C 1.00139 0.52959 0.32278 0.0
C362 C 0.98563 0.54672 0.32142 0.0
C363 C 0.98816 0.56013 0.3375 0.0
C364 C 0.97374 0.5764 0.3357 0.0
C365 C 0.95646 0.57955 0.3178 0.0
C366 C 0.95367 0.56594 0.30195 0.0
C367 C 0.96804 0.5497 0.30377 0.0
H368 H 0.06029 0.54195 0.66491 0.0
H369 H 0.08756 0.56983 0.66836 0.0
H370 H 0.04985 0.58092 0.72962 0.0
H371 H 0.02346 0.55275 0.72643 0.0
H372 H 0.05952 0.51188 0.69076 0.0
H373 H 0.99461 0.55749 0.66812 0.0
H374 H 0.96947 0.58576 0.67258 0.0
H375 H 0.93417 0.56376 0.73108 0.0
H376 H 0.95986 0.5358 0.72685 0.0
H377 H 0.95903 0.48192 0.72262 0.0
H378 H 0.9337 0.45313 0.72233 0.0
H379 H 0.97199 0.43847 0.66244 0.0
H380 H 0.99653 0.46757 0.66245 0.0
H381 H 0.95978 0.51047 0.69594 0.0
H382 H 0.02359 0.4671 0.72165 0.0
H383 H 0.05041 0.43936 0.72207 0.0
H384 H 0.08822 0.45654 0.66241 0.0
H385 H 0.0613 0.48433 0.66213 0.0
C386 C 0.03963 0.54533 0.69529 0.0
C387 C 0.05792 0.55041 0.67907 0.0
C388 C 0.07333 0.56644 0.68099 0.0
C389 C 0.07089 0.57766 0.69926 0.0
C390 C 0.05248 0.57253 0.71545 0.0
C391 C 0.03713 0.55651 0.71353 0.0
C392 C 0.02375 0.52807 0.6935 0.0
C393 C 0.03767 0.51159 0.69145 0.0
C394 C 0.99529 0.52765 0.69519 0.0
C395 C 0.97933 0.54458 0.69727 0.0
C396 C 0.98153 0.5588 0.68195 0.0
C397 C 0.96699 0.5749 0.68443 0.0
C398 C 0.94992 0.57707 0.70226 0.0
C399 C 0.94746 0.56266 0.71736 0.0
C400 C 0.96194 0.54659 0.71485 0.0
C401 C 0.97986 0.47687 0.69266 0.0
C402 C 0.96181 0.47256 0.70934 0.0
C403 C 0.94754 0.456 0.70926 0.0
C404 C 0.9509 0.44341 0.69242 0.0
C405 C 0.96872 0.44789 0.67556 0.0
C406 C 0.98297 0.46446 0.67565 0.0
C407 C 0.99555 0.49427 0.69316 0.0
C408 C 0.98161 0.51076 0.69497 0.0
C409 C 0.02403 0.49469 0.69165 0.0
C410 C 0.04018 0.47772 0.69172 0.0
C411 C 0.03742 0.4648 0.70852 0.0
C412 C 0.05276 0.44892 0.70871 0.0
C413 C 0.07141 0.44567 0.69222 0.0
C414 C 0.07425 0.45869 0.67547 0.0
C415 C 0.05882 0.47456 0.67525 0.0
H416 H 0.20552 0.9841 0.54799 0.0
H417 H 0.20423 0.95569 0.56894 0.0
H418 H 0.27958 0.9397 0.54063 0.0
H419 H 0.2812 0.96847 0.5203 0.0
H420 H 0.24058 0.01187 0.54894 0.0
H421 H 0.21082 0.96794 0.49547 0.0
H422 H 0.21216 0.94107 0.47218 0.0
H423 H 0.28705 0.96067 0.44504 0.0
H424 H 0.28566 0.98741 0.46835 0.0
H425 H 0.28342 0.04209 0.46871 0.0
H426 H 0.28287 0.07046 0.44756 0.0
H427 H 0.20792 0.08517 0.47746 0.0
H428 H 0.20855 0.05677 0.4985 0.0
H429 H 0.24994 0.01391 0.46897 0.0
H430 H 0.28063 0.05732 0.52154 0.0
H431 H 0.27927 0.08529 0.54277 0.0
H432 H 0.20501 0.06674 0.572 0.0
H433 H 0.206 0.03911 0.55012 0.0
C434 C 0.24331 0.97838 0.53239 0.0
C435 C 0.22181 0.9745 0.54634 0.0
C436 C 0.22098 0.95815 0.55818 0.0
C437 C 0.24173 0.94533 0.55641 0.0
C438 C 0.26338 0.94931 0.54254 0.0
C439 C 0.26419 0.96569 0.53071 0.0
C440 C 0.24404 0.99585 0.51996 0.0
C441 C 0.2423 0.01231 0.53141 0.0
C442 C 0.24708 0.99645 0.49715 0.0
C443 C 0.24824 0.97967 0.48378 0.0
C444 C 0.22772 0.96632 0.48472 0.0
C445 C 0.2285 0.95096 0.47139 0.0
C446 C 0.24965 0.94876 0.45668 0.0
C447 C 0.27027 0.96208 0.45594 0.0
C448 C 0.26954 0.97735 0.46932 0.0
C449 C 0.2462 0.04735 0.4854 0.0
C450 C 0.26685 0.05142 0.4707 0.0
C451 C 0.26647 0.06763 0.45856 0.0
C452 C 0.24537 0.08012 0.46083 0.0
C453 C 0.22469 0.076 0.47556 0.0
C454 C 0.22503 0.05975 0.48761 0.0
C455 C 0.24641 0.0299 0.49792 0.0
C456 C 0.24832 0.01347 0.4865 0.0
C457 C 0.24372 0.02932 0.52077 0.0
C458 C 0.24324 0.04619 0.53401 0.0
C459 C 0.26392 0.05935 0.53238 0.0
C460 C 0.26327 0.07527 0.54471 0.0
C461 C 0.24199 0.07832 0.55909 0.0
C462 C 0.22147 0.06499 0.56087 0.0
C463 C 0.22214 0.04909 0.5485 0.0
H464 H 0.46255 0.79506 0.97887 0.0
H465 H 0.43569 0.79673 0.94547 0.0
H466 H 0.47491 0.74849 0.92199 0.0
H467 H 0.50093 0.74649 0.95586 0.0
H468 H 0.46445 0.77007 0.01001 0.0
H469 H 0.52774 0.79556 0.95938 0.0
H470 H 0.55401 0.79727 0.92615 0.0
H471 H 0.5926 0.74652 0.94349 0.0
H472 H 0.56559 0.74462 0.97637 0.0
H473 H 0.56701 0.74347 0.04367 0.0
H474 H 0.59394 0.74408 0.07719 0.0
H475 H 0.5539 0.79343 0.09619 0.0
H476 H 0.52698 0.79263 0.06278 0.0
H477 H 0.56433 0.76727 0.0106 0.0
H478 H 0.50162 0.7419 0.06134 0.0
H479 H 0.47478 0.73979 0.09429 0.0
H480 H 0.43544 0.79023 0.07684 0.0
H481 H 0.46279 0.79246 0.04414 0.0
C482 C 0.48397 0.77076 0.96983 0.0
C483 C 0.46528 0.78479 0.96657 0.0
C484 C 0.45011 0.78583 0.94735 0.0
C485 C 0.45323 0.77282 0.93094 0.0
C486 C 0.4718 0.75866 0.93433 0.0
C487 C 0.48693 0.7576 0.95361 0.0
C488 C 0.50004 0.76983 0.99034 0.0
C489 C 0.48631 0.76969 0.01013 0.0
C490 C 0.52855 0.7688 0.99051 0.0
C491 C 0.54446 0.76985 0.97027 0.0
C492 C 0.54164 0.7847 0.95591 0.0
C493 C 0.55689 0.78575 0.93701 0.0
C494 C 0.57544 0.77202 0.93213 0.0
C495 C 0.57826 0.75719 0.94659 0.0
C496 C 0.56299 0.75616 0.96549 0.0
C497 C 0.54475 0.76788 0.0508 0.0
C498 C 0.56403 0.7544 0.05508 0.0
C499 C 0.57948 0.75481 0.07423 0.0
C500 C 0.57606 0.76878 0.08944 0.0
C501 C 0.55674 0.78229 0.08505 0.0
C502 C 0.54133 0.78187 0.06592 0.0
C503 C 0.52873 0.76765 0.03026 0.0
C504 C 0.54246 0.76758 0.01046 0.0
C505 C 0.50022 0.76848 0.03007 0.0
C506 C 0.48436 0.7674 0.05033 0.0
C507 C 0.48743 0.7526 0.06473 0.0
C508 C 0.4719 0.75133 0.08346 0.0
C509 C 0.45294 0.76483 0.08818 0.0
C510 C 0.45007 0.77971 0.07381 0.0
C511 C 0.46553 0.78093 0.05503 0.0
H512 H 0.74969 0.98123 0.55297 0.0
H513 H 0.75038 0.9527 0.57377 0.0
H514 H 0.82469 0.93798 0.54287 0.0
H515 H 0.82392 0.96656 0.52217 0.0
H516 H 0.78315 0.0094 0.55234 0.0
H517 H 0.75131 0.96598 0.50056 0.0
H518 H 0.75188 0.93801 0.47927 0.0
H519 H 0.82541 0.95629 0.44873 0.0
H520 H 0.8248 0.98422 0.47017 0.0
H521 H 0.82474 0.03946 0.47226 0.0
H522 H 0.82484 0.0679 0.45127 0.0
H523 H 0.74993 0.0831 0.48086 0.0
H524 H 0.74989 0.05459 0.50175 0.0
H525 H 0.79035 0.01147 0.47221 0.0
H526 H 0.82046 0.0559 0.52537 0.0
H527 H 0.8187 0.08276 0.54868 0.0
H528 H 0.7449 0.0621 0.57667 0.0
H529 H 0.74673 0.03539 0.55337 0.0
C530 C 0.7866 0.97599 0.53583 0.0
C531 C 0.76617 0.97188 0.55072 0.0
C532 C 0.76663 0.95558 0.56264 0.0
C533 C 0.78757 0.94303 0.55996 0.0
C534 C 0.80805 0.9472 0.54508 0.0
C535 C 0.80764 0.96356 0.53324 0.0
C536 C 0.78611 0.99344 0.52333 0.0
C537 C 0.78435 0.00986 0.53479 0.0
C538 C 0.78814 0.99402 0.50043 0.0
C539 C 0.78821 0.97713 0.4872 0.0
C540 C 0.76769 0.96391 0.48942 0.0
C541 C 0.76805 0.9479 0.47724 0.0
C542 C 0.78876 0.94487 0.46235 0.0
C543 C 0.80903 0.95827 0.45989 0.0
C544 C 0.80874 0.97424 0.47217 0.0
C545 C 0.78748 0.04494 0.48878 0.0
C546 C 0.80831 0.0489 0.4742 0.0
C547 C 0.80829 0.06515 0.46216 0.0
C548 C 0.7874 0.0778 0.46439 0.0
C549 C 0.76653 0.07379 0.47898 0.0
C550 C 0.76649 0.05749 0.49095 0.0
C551 C 0.78748 0.02749 0.50125 0.0
C552 C 0.78915 0.01104 0.48977 0.0
C553 C 0.78502 0.02688 0.52412 0.0
C554 C 0.78364 0.04364 0.53751 0.0
C555 C 0.80372 0.05728 0.53633 0.0
C556 C 0.80269 0.07263 0.54966 0.0
C557 C 0.78173 0.07454 0.56462 0.0
C558 C 0.76155 0.06093 0.56559 0.0
C559 C 0.76253 0.04567 0.55222 0.0
H560 H 0.46014 0.28041 0.97719 0.0
H561 H 0.43305 0.28004 0.94374 0.0
H562 H 0.4728 0.23077 0.92416 0.0
H563 H 0.49974 0.23121 0.9576 0.0
H564 H 0.46275 0.2572 0.01004 0.0
H565 H 0.52497 0.28064 0.95834 0.0
H566 H 0.55186 0.28228 0.92548 0.0
H567 H 0.59296 0.233 0.94505 0.0
H568 H 0.56513 0.23101 0.97741 0.0
H569 H 0.56098 0.22666 0.04291 0.0
H570 H 0.58785 0.22467 0.07639 0.0
H571 H 0.55559 0.27608 0.09719 0.0
H572 H 0.52897 0.27809 0.0635 0.0
H573 H 0.56245 0.25262 0.01072 0.0
H574 H 0.49814 0.22873 0.06162 0.0
H575 H 0.47164 0.22776 0.09474 0.0
H576 H 0.43528 0.27912 0.07679 0.0
H577 H 0.46254 0.28028 0.044 0.0
C578 C 0.48221 0.25596 0.96983 0.0
C579 C 0.463 0.26953 0.96569 0.0
C580 C 0.44748 0.26927 0.94659 0.0
C581 C 0.4508 0.2554 0.93124 0.0
C582 C 0.47004 0.24182 0.93545 0.0
C583 C 0.48547 0.24205 0.95458 0.0
C584 C 0.4983 0.25605 0.99036 0.0
C585 C 0.48459 0.25651 0.01017 0.0
C586 C 0.5268 0.25477 0.99054 0.0
C587 C 0.5428 0.2556 0.97029 0.0
C588 C 0.53947 0.27003 0.9554 0.0
C589 C 0.55512 0.27106 0.93671 0.0
C590 C 0.57467 0.25779 0.93259 0.0
C591 C 0.57787 0.24332 0.94751 0.0
C592 C 0.56213 0.24226 0.96615 0.0
C593 C 0.54285 0.25246 0.05077 0.0
C594 C 0.55971 0.23751 0.05469 0.0
C595 C 0.5749 0.23633 0.07388 0.0
C596 C 0.57377 0.25019 0.08947 0.0
C597 C 0.55703 0.26524 0.08544 0.0
C598 C 0.54166 0.26635 0.06628 0.0
C599 C 0.52687 0.25359 0.03029 0.0
C600 C 0.54062 0.25339 0.01052 0.0
C601 C 0.49846 0.2552 0.03013 0.0
C602 C 0.48258 0.25469 0.05042 0.0
C603 C 0.48472 0.2399 0.06494 0.0
C604 C 0.46932 0.23927 0.08378 0.0
C605 C 0.45129 0.25336 0.08844 0.0
C606 C 0.44921 0.26816 0.07386 0.0
C607 C 0.46462 0.26878 0.05501 0.0
H608 H 0.13703 0.33825 0.29908 0.0
H609 H 0.13079 0.4439 0.33112 0.0
H610 H 0.20704 0.37096 0.31571 0.0
H611 H 0.0613 0.41249 0.3101 0.0
H612 H 0.1585 0.41674 0.3279 0.0
H613 H 0.10849 0.36465 0.30542 0.0
C614 C 0.14639 0.35093 0.30426 0.0
C615 C 0.17452 0.35238 0.30677 0.0
C616 C 0.13717 0.41576 0.32403 0.0
C617 C 0.14194 0.38275 0.31386 0.0
C618 C 0.12129 0.43126 0.326 0.0
C619 C 0.09363 0.43052 0.32084 0.0
C620 C 0.1254 0.39932 0.31688 0.0
C621 C 0.08258 0.41377 0.31397 0.0
C622 C 0.13009 0.36604 0.30774 0.0
C623 C 0.18551 0.36925 0.31325 0.0
N624 N 0.09847 0.39886 0.31218 0.0
N625 N 0.16923 0.38375 0.31654 0.0
H626 H 0.17357 0.66376 0.75038 0.0
H627 H 0.0852 0.60293 0.66803 0.0
H628 H 0.1664 0.67593 0.68194 0.0
H629 H 0.09571 0.59054 0.73617 0.0
H630 H 0.11393 0.63003 0.67264 0.0
H631 H 0.14402 0.63732 0.74535 0.0
C632 C 0.1659 0.66083 0.73424 0.0
C633 C 0.17273 0.67205 0.71652 0.0
C634 C 0.10988 0.6214 0.68658 0.0
C635 C 0.13843 0.64176 0.71068 0.0
C636 C 0.0936 0.60585 0.68394 0.0
C637 C 0.08795 0.59439 0.70174 0.0
C638 C 0.12069 0.62553 0.70716 0.0
C639 C 0.09912 0.59906 0.72203 0.0
C640 C 0.14886 0.64575 0.7314 0.0
C641 C 0.16158 0.66775 0.69609 0.0
N642 N 0.11493 0.61421 0.72416 0.0
N643 N 0.14507 0.65292 0.69371 0.0
H644 H 0.85496 0.67382 0.33793 0.0
H645 H 0.94811 0.59995 0.28096 0.0
H646 H 0.87261 0.67367 0.26956 0.0
H647 H 0.93067 0.59891 0.34937 0.0
H648 H 0.92194 0.62777 0.27701 0.0
H649 H 0.88438 0.64745 0.34306 0.0
C650 C 0.86518 0.66836 0.32403 0.0
C651 C 0.8611 0.67591 0.30324 0.0
C652 C 0.92385 0.62151 0.29292 0.0
C653 C 0.89462 0.64563 0.30898 0.0
C654 C 0.93869 0.60554 0.29516 0.0
C655 C 0.94144 0.59695 0.3155 0.0
C656 C 0.91152 0.62905 0.31112 0.0
C657 C 0.92923 0.6051 0.3334 0.0
C658 C 0.88186 0.65324 0.32695 0.0
C659 C 0.87472 0.66812 0.28581 0.0
N660 N 0.9147 0.62063 0.33078 0.0
N661 N 0.89074 0.65342 0.28907 0.0
H662 H 0.87421 0.34104 0.72958 0.0
H663 H 0.92723 0.42555 0.65795 0.0
H664 H 0.86244 0.34522 0.66023 0.0
H665 H 0.94054 0.42072 0.72708 0.0
H666 H 0.90323 0.39626 0.65848 0.0
H667 H 0.89788 0.37044 0.72906 0.0
C668 C 0.87646 0.34818 0.71424 0.0
C669 C 0.86626 0.3406 0.69491 0.0
C670 C 0.91139 0.40161 0.67354 0.0
C671 C 0.89367 0.37428 0.69418 0.0
C672 C 0.92524 0.4183 0.67324 0.0
C673 C 0.93599 0.42566 0.69251 0.0
C674 C 0.90821 0.39212 0.69325 0.0
C675 C 0.93233 0.41574 0.71187 0.0
C676 C 0.89013 0.36494 0.71395 0.0
C677 C 0.87022 0.35039 0.6755 0.0
N678 N 0.9188 0.3995 0.71174 0.0
N679 N 0.88356 0.3667 0.67563 0.0
H680 H 0.22872 0.19223 0.4168 0.0
H681 H 0.25784 0.08488 0.41787 0.0
H682 H 0.24901 0.16193 0.35963 0.0
H683 H 0.23147 0.11448 0.47385 0.0
H684 H 0.25647 0.11316 0.3966 0.0
H685 H 0.2309 0.16407 0.43813 0.0
C686 C 0.23349 0.17965 0.40867 0.0
C687 C 0.23859 0.17951 0.3863 0.0
C688 C 0.25098 0.11348 0.41353 0.0
C689 C 0.24148 0.14714 0.41081 0.0
C690 C 0.25192 0.09735 0.42574 0.0
C691 C 0.24477 0.09727 0.44772 0.0
C692 C 0.24292 0.12973 0.42334 0.0
C693 C 0.23685 0.11382 0.45691 0.0
C694 C 0.23488 0.16357 0.42092 0.0
C695 C 0.24522 0.16279 0.37684 0.0
N696 N 0.23618 0.12935 0.44471 0.0
N697 N 0.24644 0.14731 0.38912 0.0
H698 H 0.35863 0.74954 0.81457 0.0
H699 H 0.43992 0.80352 0.90754 0.0
H700 H 0.36164 0.80827 0.81919 0.0
H701 H 0.42982 0.74495 0.90741 0.0
H702 H 0.41269 0.80538 0.87438 0.0
H703 H 0.38591 0.74744 0.8478 0.0
C704 C 0.36488 0.76201 0.8226 0.0
C705 C 0.35778 0.77913 0.81398 0.0
C706 C 0.41641 0.79211 0.88159 0.0
C707 C 0.38937 0.77679 0.85196 0.0
C708 C 0.43186 0.79104 0.90063 0.0
C709 C 0.43713 0.77405 0.91041 0.0
C710 C 0.40611 0.77608 0.87213 0.0
C711 C 0.42657 0.75833 0.90036 0.0
C712 C 0.3806 0.76078 0.84153 0.0
C713 C 0.36691 0.79478 0.82498 0.0
N714 N 0.41156 0.75973 0.88181 0.0
N715 N 0.3822 0.79323 0.84334 0.0
H716 H 0.80148 0.86513 0.3597 0.0
H717 H 0.77771 0.90989 0.47606 0.0
H718 H 0.78498 0.83377 0.41766 0.0
H719 H 0.80086 0.94085 0.41931 0.0
H720 H 0.77852 0.88199 0.45462 0.0
H721 H 0.79953 0.89311 0.38092 0.0
C722 C 0.79728 0.86412 0.37687 0.0
C723 C 0.7934 0.84704 0.38689 0.0
C724 C 0.78344 0.89488 0.44684 0.0
C725 C 0.79135 0.87907 0.41137 0.0
C726 C 0.78282 0.91084 0.45905 0.0
C727 C 0.78922 0.92777 0.44949 0.0
C728 C 0.79039 0.8958 0.42484 0.0
C729 C 0.79609 0.9281 0.42744 0.0
C730 C 0.79633 0.88011 0.38901 0.0
C731 C 0.78842 0.8466 0.40928 0.0
N732 N 0.79644 0.91238 0.41588 0.0
N733 N 0.7875 0.86236 0.42074 0.0
H734 H 0.67928 0.23591 0.82398 0.0
H735 H 0.59711 0.28873 0.91469 0.0
H736 H 0.67682 0.29458 0.82895 0.0
H737 H 0.59244 0.23037 0.90622 0.0
H738 H 0.62643 0.29099 0.88331 0.0
H739 H 0.6476 0.23343 0.85399 0.0
C740 C 0.67197 0.24828 0.83125 0.0
C741 C 0.68091 0.26549 0.82393 0.0
C742 C 0.61894 0.27768 0.88826 0.0
C743 C 0.64482 0.26272 0.85852 0.0
C744 C 0.60202 0.27639 0.90613 0.0
C745 C 0.59217 0.25933 0.91317 0.0
C746 C 0.62627 0.2618 0.87728 0.0
C747 C 0.59979 0.24379 0.90161 0.0
C748 C 0.65397 0.24685 0.84848 0.0
C749 C 0.67094 0.28101 0.83424 0.0
N750 N 0.61639 0.2454 0.88428 0.0
N751 N 0.65353 0.27925 0.85099 0.0
H752 H 0.28096 0.84977 0.63451 0.0
H753 H 0.19783 0.92326 0.56453 0.0
H754 H 0.19488 0.84675 0.62369 0.0
H755 H 0.28345 0.92762 0.5772 0.0
H756 H 0.19653 0.89506 0.58585 0.0
H757 H 0.28242 0.87814 0.61341 0.0
C758 C 0.26233 0.8551 0.62781 0.0
C759 C 0.23775 0.84579 0.63092 0.0
C760 C 0.21562 0.90217 0.58397 0.0
C761 C 0.23934 0.87825 0.60647 0.0
C762 C 0.21636 0.91836 0.57188 0.0
C763 C 0.24078 0.92792 0.56907 0.0
C764 C 0.23947 0.89541 0.5934 0.0
C765 C 0.26421 0.92065 0.57868 0.0
C766 C 0.26321 0.87127 0.61564 0.0
C767 C 0.21435 0.85327 0.62151 0.0
N768 N 0.26296 0.90487 0.59043 0.0
N769 N 0.21573 0.86902 0.60976 0.0
H770 H 0.63494 0.78606 0.22085 0.0
H771 H 0.62996 0.76131 0.09447 0.0
H772 H 0.70412 0.76823 0.18528 0.0
H773 H 0.56046 0.77789 0.13054 0.0
H774 H 0.65724 0.76314 0.12767 0.0
H775 H 0.60729 0.78288 0.188 0.0
C776 C 0.64436 0.78154 0.20611 0.0
C777 C 0.67196 0.77747 0.20585 0.0
C778 C 0.63601 0.76635 0.12834 0.0
C779 C 0.64028 0.77363 0.16813 0.0
C780 C 0.62036 0.7652 0.10939 0.0
C781 C 0.59282 0.76947 0.10965 0.0
C782 C 0.62411 0.77183 0.14776 0.0
C783 C 0.58166 0.77472 0.12945 0.0
C784 C 0.62851 0.77962 0.18737 0.0
C785 C 0.6829 0.77135 0.18633 0.0
N786 N 0.59733 0.77576 0.14767 0.0
N787 N 0.66707 0.76967 0.16827 0.0
H788 H 0.76223 0.14315 0.67672 0.0
H789 H 0.79277 0.11071 0.55567 0.0
H790 H 0.77954 0.18075 0.62435 0.0
H791 H 0.76944 0.07443 0.60778 0.0
H792 H 0.79068 0.13646 0.58071 0.0
H793 H 0.76715 0.11779 0.65182 0.0
C794 C 0.76695 0.1461 0.65994 0.0
C795 C 0.7702 0.16417 0.65262 0.0
C796 C 0.78604 0.12285 0.58665 0.0
C797 C 0.77622 0.13503 0.62392 0.0
C798 C 0.78736 0.10814 0.57239 0.0
C799 C 0.7811 0.09037 0.57958 0.0
C800 C 0.77856 0.11978 0.6083 0.0
C801 C 0.77398 0.0879 0.60139 0.0
C802 C 0.7699 0.13157 0.64573 0.0
C803 C 0.77698 0.16706 0.63077 0.0
N804 N 0.7729 0.1024 0.61492 0.0
N805 N 0.77966 0.15265 0.61718 0.0
H806 H 0.34899 0.21718 0.19365 0.0
H807 H 0.43852 0.28113 0.11612 0.0
H808 H 0.3631 0.2745 0.20525 0.0
H809 H 0.42536 0.22352 0.10588 0.0
H810 H 0.41036 0.27923 0.14837 0.0
H811 H 0.37655 0.21944 0.16123 0.0
C812 C 0.358 0.23024 0.18946 0.0
C813 C 0.35378 0.24565 0.20233 0.0
C814 C 0.41365 0.267 0.13907 0.0
C815 C 0.38524 0.2484 0.16492 0.0
C816 C 0.42963 0.26809 0.12058 0.0
C817 C 0.43439 0.25245 0.10823 0.0
C818 C 0.40226 0.25016 0.1453 0.0
C819 C 0.4226 0.23588 0.11503 0.0
C820 C 0.37364 0.23155 0.17084 0.0
C821 C 0.36556 0.26229 0.19575 0.0
N822 N 0.4071 0.23519 0.13305 0.0
N823 N 0.38078 0.26321 0.17756 0.0
H824 H 0.84813 0.67209 0.6855 0.0
H825 H 0.94204 0.59564 0.73999 0.0
H826 H 0.86805 0.66953 0.75381 0.0
H827 H 0.92347 0.5978 0.67144 0.0
H828 H 0.91596 0.62328 0.74499 0.0
H829 H 0.87696 0.64574 0.67957 0.0
C830 C 0.85872 0.6661 0.69923 0.0
C831 C 0.85548 0.673 0.72022 0.0
C832 C 0.9176 0.61776 0.72883 0.0
C833 C 0.88833 0.64269 0.71357 0.0
C834 C 0.93238 0.60189 0.72598 0.0
C835 C 0.93481 0.59428 0.70528 0.0
C836 C 0.90502 0.62615 0.71087 0.0
C837 C 0.9223 0.60324 0.68767 0.0
C838 C 0.87506 0.65098 0.69585 0.0
C839 C 0.86951 0.66451 0.73741 0.0
N840 N 0.90785 0.61864 0.69088 0.0
N841 N 0.88521 0.64982 0.73371 0.0
H842 H 0.81835 0.37157 0.30722 0.0
H843 H 0.96748 0.41118 0.32887 0.0
H844 H 0.88819 0.33731 0.31436 0.0
H845 H 0.89851 0.44447 0.3135 0.0
H846 H 0.93842 0.38394 0.32701 0.0
H847 H 0.84708 0.39836 0.31279 0.0
C848 C 0.83976 0.36966 0.30993 0.0
C849 C 0.85087 0.35212 0.31008 0.0
C850 C 0.92966 0.39722 0.32409 0.0
C851 C 0.88399 0.38287 0.3167 0.0
C852 C 0.9462 0.41277 0.32526 0.0
C853 C 0.93545 0.43013 0.32119 0.0
C854 C 0.90213 0.39905 0.31896 0.0
C855 C 0.90777 0.43136 0.3164 0.0
C856 C 0.85616 0.38499 0.3132 0.0
C857 C 0.87869 0.35053 0.31421 0.0
N858 N 0.89212 0.41606 0.31541 0.0
N859 N 0.89432 0.36571 0.31723 0.0
H860 H 0.20502 0.37046 0.69324 0.0
H861 H 0.05616 0.41069 0.70323 0.0
H862 H 0.1363 0.3384 0.71374 0.0
H863 H 0.12506 0.44253 0.68262 0.0
H864 H 0.08469 0.38374 0.70569 0.0
H865 H 0.17558 0.39662 0.68762 0.0
C866 C 0.18372 0.36891 0.69656 0.0
C867 C 0.17317 0.35221 0.70411 0.0
C868 C 0.09356 0.39661 0.70054 0.0
C869 C 0.13923 0.38216 0.6976 0.0
C870 C 0.0773 0.41203 0.69925 0.0
C871 C 0.08822 0.42896 0.69281 0.0
C872 C 0.12102 0.39807 0.69542 0.0
C873 C 0.11567 0.42977 0.68746 0.0
C874 C 0.16689 0.38385 0.69325 0.0
C875 C 0.14531 0.35095 0.70774 0.0
N876 N 0.13111 0.41459 0.68899 0.0
N877 N 0.12935 0.36574 0.70459 0.0
H878 H 0.15705 0.68076 0.36108 0.0
H879 H 0.09919 0.59796 0.28963 0.0
H880 H 0.16235 0.67885 0.29129 0.0
H881 H 0.08731 0.60239 0.35863 0.0
H882 H 0.12357 0.62708 0.29006 0.0
H883 H 0.13268 0.65163 0.36064 0.0
C884 C 0.15298 0.67429 0.34564 0.0
C885 C 0.16178 0.68236 0.32619 0.0
C886 C 0.11564 0.62168 0.30511 0.0
C887 C 0.1341 0.64877 0.32561 0.0
C888 C 0.10157 0.60508 0.30487 0.0
C889 C 0.09107 0.59766 0.32412 0.0
C890 C 0.11936 0.63101 0.32476 0.0
C891 C 0.0953 0.60741 0.34343 0.0
C892 C 0.13917 0.65758 0.34542 0.0
C893 C 0.15631 0.67309 0.30672 0.0
N894 N 0.10906 0.62356 0.34324 0.0
N895 N 0.14283 0.65683 0.30694 0.0
H896 H 0.78134 0.86168 0.66285 0.0
H897 H 0.80068 0.90875 0.54618 0.0
H898 H 0.80088 0.83188 0.60512 0.0
H899 H 0.7758 0.93785 0.60298 0.0
H900 H 0.80183 0.88057 0.56765 0.0
H901 H 0.77966 0.88974 0.64127 0.0
C902 C 0.78511 0.86099 0.64561 0.0
C903 C 0.79125 0.84432 0.63583 0.0
C904 C 0.79609 0.89311 0.57542 0.0
C905 C 0.78971 0.87656 0.61101 0.0
C906 C 0.79558 0.90924 0.56319 0.0
C907 C 0.78814 0.92573 0.57277 0.0
C908 C 0.78922 0.89343 0.59746 0.0
C909 C 0.78134 0.92544 0.59483 0.0
C910 C 0.7843 0.87706 0.63331 0.0
C911 C 0.79643 0.8444 0.61346 0.0
N912 N 0.7821 0.90959 0.60641 0.0
N913 N 0.79554 0.86024 0.60184 0.0
H914 H 0.68785 0.26997 0.19469 0.0
H915 H 0.58116 0.2204 0.1159 0.0
H916 H 0.65256 0.21704 0.20828 0.0
H917 H 0.60384 0.27713 0.10921 0.0
H918 H 0.60919 0.21838 0.14872 0.0
H919 H 0.65891 0.27244 0.16246 0.0
C920 C 0.67393 0.2589 0.19103 0.0
C921 C 0.67275 0.24325 0.20433 0.0
C922 C 0.60799 0.2313 0.14012 0.0
C923 C 0.6398 0.24591 0.16713 0.0
C924 C 0.5921 0.23242 0.12131 0.0
C925 C 0.59019 0.24895 0.10976 0.0
C926 C 0.62231 0.24676 0.1474 0.0
C927 C 0.60454 0.26416 0.11771 0.0
C928 C 0.65749 0.2603 0.17253 0.0
C929 C 0.65459 0.22924 0.19841 0.0
N930 N 0.62009 0.26268 0.13596 0.0
N931 N 0.63892 0.23089 0.18026 0.0
H932 H 0.1912 0.17507 0.62689 0.0
H933 H 0.28403 0.09634 0.57943 0.0
H934 H 0.27767 0.17387 0.63548 0.0
H935 H 0.19802 0.09916 0.56853 0.0
H936 H 0.28211 0.12438 0.60052 0.0
H937 H 0.19329 0.14692 0.60612 0.0
C938 C 0.21067 0.16894 0.62433 0.0
C939 C 0.23431 0.17695 0.63291 0.0
C940 C 0.26365 0.11886 0.59353 0.0
C941 C 0.23682 0.14449 0.60925 0.0
C942 C 0.26475 0.10288 0.58136 0.0
C943 C 0.24115 0.09533 0.57213 0.0
C944 C 0.23877 0.12741 0.59653 0.0
C945 C 0.21669 0.1043 0.57554 0.0
C946 C 0.21182 0.15279 0.61255 0.0
C947 C 0.25888 0.16813 0.6294 0.0
N948 N 0.21616 0.11984 0.58742 0.0
N949 N 0.25949 0.15243 0.61781 0.0
H950 H 0.36262 0.78441 0.20546 0.0
H951 H 0.4276 0.73421 0.10401 0.0
H952 H 0.34234 0.72934 0.18639 0.0
H953 H 0.43887 0.79161 0.11673 0.0
H954 H 0.39874 0.73174 0.13572 0.0
H955 H 0.39252 0.787 0.17432 0.0
C956 C 0.36432 0.77288 0.19472 0.0
C957 C 0.34987 0.75661 0.19866 0.0
C958 C 0.40752 0.74488 0.1316 0.0
C959 C 0.38444 0.75943 0.16308 0.0
C960 C 0.42417 0.74628 0.11357 0.0
C961 C 0.43572 0.76315 0.10769 0.0
C962 C 0.4024 0.76045 0.14398 0.0
C963 C 0.43018 0.77838 0.12052 0.0
C964 C 0.38153 0.77435 0.17699 0.0
C965 C 0.35334 0.74205 0.1843 0.0
N966 N 0.41396 0.77666 0.13808 0.0
N967 N 0.37023 0.74381 0.16721 0.0
H968 H 0.80036 0.15892 0.36162 0.0
H969 H 0.77444 0.11224 0.4777 0.0
H970 H 0.78067 0.18918 0.41894 0.0
H971 H 0.8002 0.08265 0.42153 0.0
H972 H 0.77474 0.14039 0.45611 0.0
H973 H 0.7985 0.13069 0.38295 0.0
C974 C 0.79548 0.15963 0.37866 0.0
C975 C 0.79069 0.17649 0.38848 0.0
C976 C 0.78033 0.12774 0.4485 0.0
C977 C 0.78874 0.14416 0.4131 0.0
C978 C 0.78002 0.11164 0.4608 0.0
C979 C 0.78735 0.09503 0.45145 0.0
C980 C 0.78792 0.12727 0.42663 0.0
C981 C 0.79475 0.09516 0.42952 0.0
C982 C 0.79458 0.1435 0.39087 0.0
C983 C 0.78484 0.17655 0.41073 0.0
N984 N 0.79481 0.11099 0.41788 0.0
N985 N 0.784 0.16065 0.42225 0.0
H986 H 0.3925 0.24278 0.79884 0.0
H987 H 0.39677 0.26239 0.92658 0.0
H988 H 0.32195 0.25468 0.83624 0.0
H989 H 0.46649 0.24724 0.8899 0.0
H990 H 0.3694 0.26099 0.89337 0.0
H991 H 0.42024 0.2457 0.8317 0.0
C992 C 0.38285 0.24614 0.81393 0.0
C993 C 0.35481 0.24848 0.81474 0.0
C994 C 0.39069 0.25799 0.89257 0.0
C995 C 0.38648 0.25167 0.85255 0.0
C996 C 0.40638 0.2589 0.91151 0.0
C997 C 0.434 0.25491 0.91107 0.0
C998 C 0.40267 0.25311 0.87295 0.0
C999 C 0.44523 0.2502 0.89109 0.0
C1000 C 0.39869 0.24769 0.83273 0.0
C1001 C 0.34341 0.25253 0.83487 0.0
N1002 N 0.42954 0.24944 0.87286 0.0
N1003 N 0.35927 0.25401 0.85294 0.0
H1004 H 0.26706 0.88 0.34446 0.0
H1005 H 0.23738 0.91276 0.46552 0.0
H1006 H 0.24931 0.84257 0.39692 0.0
H1007 H 0.26249 0.94871 0.41363 0.0
H1008 H 0.23877 0.88701 0.44043 0.0
H1009 H 0.2628 0.9054 0.36937 0.0
C1010 C 0.26237 0.87709 0.36126 0.0
C1011 C 0.25881 0.85905 0.3686 0.0
C1012 C 0.24396 0.90054 0.43456 0.0
C1013 C 0.25357 0.88825 0.39731 0.0
C1014 C 0.24305 0.91526 0.44884 0.0
C1015 C 0.24999 0.93293 0.44172 0.0
C1016 C 0.25171 0.90352 0.41296 0.0
C1017 C 0.25741 0.93531 0.41996 0.0
C1018 C 0.2598 0.89165 0.37548 0.0
C1019 C 0.25209 0.85623 0.39047 0.0
N1020 N 0.25807 0.92081 0.4064 0.0
N1021 N 0.24979 0.87067 0.40407 0.0
H1022 H 0.66336 0.74923 0.81457 0.0
H1023 H 0.59998 0.80238 0.91464 0.0
H1024 H 0.67488 0.80685 0.82582 0.0
H1025 H 0.58889 0.74461 0.90421 0.0
H1026 H 0.62714 0.80424 0.88194 0.0
H1027 H 0.63623 0.74715 0.84736 0.0
C1028 C 0.66032 0.76143 0.82398 0.0
C1029 C 0.67143 0.77826 0.81735 0.0
C1030 C 0.61878 0.79115 0.88678 0.0
C1031 C 0.6401 0.77599 0.85486 0.0
C1032 C 0.6031 0.79009 0.9054 0.0
C1033 C 0.59203 0.77331 0.91221 0.0
C1034 C 0.62349 0.77532 0.87477 0.0
C1035 C 0.59723 0.7578 0.89975 0.0
C1036 C 0.64468 0.76025 0.84265 0.0
C1037 C 0.66643 0.79365 0.83007 0.0
N1038 N 0.61254 0.75918 0.88164 0.0
N1039 N 0.65117 0.79214 0.84817 0.0
loop_
_geom_bond_atom_site_label_1
_geom_bond_atom_site_label_2
_geom_bond_distance
_geom_bond_site_symmetry_2
_ccdc_geom_bond_type
C0 C1 1.264 . S
C0 C5 1.479 . S
C0 C10 1.465 . S
C1 C0 1.264 . S
C1 C3 1.339 . S
C1 H28 0.931 . S
C2 C3 1.395 . S
C2 C4 1.320 . S
C3 C1 1.339 . S
C3 C2 1.395 . S
C3 H29 0.929 . S
C4 C2 1.320 . S
C4 C5 1.405 . S
C4 H30 0.930 . S
C5 C0 1.479 . S
C5 C4 1.405 . S
C5 H31 0.931 . S
U6 O7 2.454 . S
U6 O8 2.458 . S
U6 C9 2.984 . S
U6 C10 2.847 . S
U6 C23 2.882 . S
U6 O24 2.441 . S
U6 O25 2.420 . S
U6 O26 2.455 . S
U6 O27 2.449 . S
O7 U6 2.454 . S
O7 C9 1.353 . S
O8 U6 2.458 . S
O8 C9 1.286 . S
C9 U6 2.984 . S
C9 O7 1.353 . S
C9 O8 1.286 . S
C9 C11 1.363 . S
C10 C0 1.465 . S
C10 U6 2.847 . S
C10 O24 1.249 . S
C10 O25 1.202 . S
C11 C9 1.363 . S
C11 C13 1.408 . S
C11 C16 1.342 . S
C12 C13 1.310 . S
C12 C15 1.461 . S
C12 H32 0.932 . S
C13 C11 1.408 . S
C13 C12 1.310 . S
C13 H33 0.930 . S
C14 C15 1.474 . S
C14 C16 1.285 . S
C14 H34 0.929 . S
C15 C12 1.461 . S
C15 C14 1.474 . S
C16 C11 1.342 . S
C16 C14 1.285 . S
C16 H35 0.930 . S
C17 C20 1.424 . S
C17 C22 1.245 . S
C17 C23 1.428 . S
C18 C21 1.260 . S
C18 C22 1.477 . S
C18 H36 0.932 . S
C19 C20 1.384 . S
C19 C21 1.479 . S
C19 H37 0.929 . S
C20 C17 1.424 . S
C20 C19 1.384 . S
C20 H38 0.928 . S
C21 C18 1.260 . S
C21 C19 1.479 . S
C22 C17 1.245 . S
C22 C18 1.477 . S
C22 H39 0.932 . S
C23 U6 2.882 . S
C23 C17 1.428 . S
C23 O26 1.301 . S
C23 O27 1.282 . S
O24 U6 2.441 . S
O24 C10 1.249 . S
O25 U6 2.420 . S
O25 C10 1.202 . S
O26 U6 2.455 . S
O26 C23 1.301 . S
O27 U6 2.449 . S
O27 C23 1.282 . S
H28 C1 0.931 . S
H29 C3 0.929 . S
H30 C4 0.930 . S
H31 C5 0.931 . S
H32 C12 0.932 . S
H33 C13 0.930 . S
H34 C14 0.929 . S
H35 C16 0.930 . S
H36 C18 0.932 . S
H37 C19 0.929 . S
H38 C20 0.928 . S
H39 C22 0.932 . S
C40 C41 1.264 . S
C40 C45 1.479 . S
C40 C50 1.465 . S
C41 C40 1.264 . S
C41 C43 1.339 . S
C41 H68 0.931 . S
C42 C43 1.395 . S
C42 C44 1.320 . S
C43 C41 1.339 . S
C43 C42 1.395 . S
C43 H69 0.929 . S
C44 C42 1.320 . S
C44 C45 1.405 . S
C44 H70 0.930 . S
C45 C40 1.479 . S
C45 C44 1.405 . S
C45 H71 0.931 . S
U46 O47 2.454 . S
U46 O48 2.458 . S
U46 C49 2.984 . S
U46 C50 2.847 . S
U46 C63 2.882 . S
U46 O64 2.441 . S
U46 O65 2.420 . S
U46 O66 2.455 . S
U46 O67 2.449 . S
O47 U46 2.454 . S
O47 C49 1.353 . S
O48 U46 2.458 . S
O48 C49 1.286 . S
C49 U46 2.984 . S
C49 O47 1.353 . S
C49 O48 1.286 . S
C49 C51 1.363 . S
C50 C40 1.465 . S
C50 U46 2.847 . S
C50 O64 1.249 . S
C50 O65 1.202 . S
C51 C49 1.363 . S
C51 C53 1.408 . S
C51 C56 1.342 . S
C52 C53 1.310 . S
C52 C55 1.461 . S
C52 H72 0.932 . S
C53 C51 1.408 . S
C53 C52 1.310 . S
C53 H73 0.930 . S
C54 C55 1.474 . S
C54 C56 1.285 . S
C54 H74 0.929 . S
C55 C52 1.461 . S
C55 C54 1.474 . S
C56 C51 1.342 . S
C56 C54 1.285 . S
C56 H75 0.930 . S
C57 C60 1.424 . S
C57 C62 1.245 . S
C57 C63 1.428 . S
C58 C61 1.260 . S
C58 C62 1.477 . S
C58 H76 0.932 . S
C59 C60 1.384 . S
C59 C61 1.479 . S
C59 H77 0.929 . S
C60 C57 1.424 . S
C60 C59 1.384 . S
C60 H78 0.928 . S
C61 C58 1.260 . S
C61 C59 1.479 . S
C62 C57 1.245 . S
C62 C58 1.477 . S
C62 H79 0.932 . S
C63 U46 2.882 . S
C63 C57 1.428 . S
C63 O66 1.301 . S
C63 O67 1.282 . S
O64 U46 2.441 . S
O64 C50 1.249 . S
O65 U46 2.420 . S
O65 C50 1.202 . S
O66 U46 2.455 . S
O66 C63 1.301 . S
O67 U46 2.449 . S
O67 C63 1.282 . S
H68 C41 0.931 . S
H69 C43 0.929 . S
H70 C44 0.930 . S
H71 C45 0.931 . S
H72 C52 0.932 . S
H73 C53 0.930 . S
H74 C54 0.929 . S
H75 C56 0.930 . S
H76 C58 0.932 . S
H77 C59 0.929 . S
H78 C60 0.928 . S
H79 C62 0.932 . S
C80 C81 1.264 . S
C80 C85 1.479 . S
C80 C90 1.465 . S
C81 C80 1.264 . S
C81 C83 1.339 . S
C81 H108 0.931 . S
C82 C83 1.395 . S
C82 C84 1.320 . S
C83 C81 1.339 . S
C83 C82 1.395 . S
C83 H109 0.929 . S
C84 C82 1.320 . S
C84 C85 1.405 . S
C84 H110 0.930 . S
C85 C80 1.479 . S
C85 C84 1.405 . S
C85 H111 0.931 . S
U86 O87 2.454 . S
U86 O88 2.458 . S
U86 C89 2.984 . S
U86 C90 2.847 . S
U86 C103 2.882 . S
U86 O104 2.441 . S
U86 O105 2.420 . S
U86 O106 2.455 . S
U86 O107 2.449 . S
O87 U86 2.454 . S
O87 C89 1.353 . S
O88 U86 2.458 . S
O88 C89 1.286 . S
C89 U86 2.984 . S
C89 O87 1.353 . S
C89 O88 1.286 . S
C89 C91 1.363 . S
C90 C80 1.465 . S
C90 U86 2.847 . S
C90 O104 1.249 . S
C90 O105 1.202 . S
C91 C89 1.363 . S
C91 C93 1.408 . S
C91 C96 1.342 . S
C92 C93 1.310 . S
C92 C95 1.461 . S
C92 H112 0.932 . S
C93 C91 1.408 . S
C93 C92 1.310 . S
C93 H113 0.930 . S
C94 C95 1.474 . S
C94 C96 1.285 . S
C94 H114 0.929 . S
C95 C92 1.461 . S
C95 C94 1.474 . S
C96 C91 1.342 . S
C96 C94 1.285 . S
C96 H115 0.930 . S
C97 C100 1.424 . S
C97 C102 1.245 . S
C97 C103 1.428 . S
C98 C101 1.260 . S
C98 C102 1.477 . S
C98 H116 0.932 . S
C99 C100 1.384 . S
C99 C101 1.479 . S
C99 H117 0.929 . S
C100 C97 1.424 . S
C100 C99 1.384 . S
C100 H118 0.928 . S
C101 C98 1.260 . S
C101 C99 1.479 . S
C102 C97 1.245 . S
C102 C98 1.477 . S
C102 H119 0.932 . S
C103 U86 2.882 . S
C103 C97 1.428 . S
C103 O106 1.301 . S
C103 O107 1.282 . S
O104 U86 2.441 . S
O104 C90 1.249 . S
O105 U86 2.420 . S
O105 C90 1.202 . S
O106 U86 2.455 . S
O106 C103 1.301 . S
O107 U86 2.449 . S
O107 C103 1.282 . S
H108 C81 0.931 . S
H109 C83 0.929 . S
H110 C84 0.930 . S
H111 C85 0.931 . S
H112 C92 0.932 . S
H113 C93 0.930 . S
H114 C94 0.929 . S
H115 C96 0.930 . S
H116 C98 0.932 . S
H117 C99 0.929 . S
H118 C100 0.928 . S
H119 C102 0.932 . S
C120 C121 1.264 . S
C120 C125 1.479 . S
C120 C130 1.465 . S
C121 C120 1.264 . S
C121 C123 1.339 . S
C121 H148 0.931 . S
C122 C123 1.395 . S
C122 C124 1.320 . S
C123 C121 1.339 . S
C123 C122 1.395 . S
C123 H149 0.929 . S
C124 C122 1.320 . S
C124 C125 1.405 . S
C124 H150 0.930 . S
C125 C120 1.479 . S
C125 C124 1.405 . S
C125 H151 0.931 . S
U126 O127 2.454 . S
U126 O128 2.458 . S
U126 C129 2.984 . S
U126 C130 2.847 . S
U126 C143 2.882 . S
U126 O144 2.441 . S
U126 O145 2.420 . S
U126 O146 2.455 . S
U126 O147 2.449 . S
O127 U126 2.454 . S
O127 C129 1.353 . S
O128 U126 2.458 . S
O128 C129 1.286 . S
C129 U126 2.984 . S
C129 O127 1.353 . S
C129 O128 1.286 . S
C129 C131 1.363 . S
C130 C120 1.465 . S
C130 U126 2.847 . S
C130 O144 1.249 . S
C130 O145 1.202 . S
C131 C129 1.363 . S
C131 C133 1.408 . S
C131 C136 1.342 . S
C132 C133 1.310 . S
C132 C135 1.461 . S
C132 H152 0.932 . S
C133 C131 1.408 . S
C133 C132 1.310 . S
C133 H153 0.930 . S
C134 C135 1.474 . S
C134 C136 1.285 . S
C134 H154 0.929 . S
C135 C132 1.461 . S
C135 C134 1.474 . S
C136 C131 1.342 . S
C136 C134 1.285 . S
C136 H155 0.930 . S
C137 C140 1.424 . S
C137 C142 1.245 . S
C137 C143 1.428 . S
C138 C141 1.260 . S
C138 C142 1.477 . S
C138 H156 0.932 . S
C139 C140 1.384 . S
C139 C141 1.479 . S
C139 H157 0.929 . S
C140 C137 1.424 . S
C140 C139 1.384 . S
C140 H158 0.928 . S
C141 C138 1.260 . S
C141 C139 1.479 . S
C142 C137 1.245 . S
C142 C138 1.477 . S
C142 H159 0.932 . S
C143 U126 2.882 . S
C143 C137 1.428 . S
C143 O146 1.301 . S
C143 O147 1.282 . S
O144 U126 2.441 . S
O144 C130 1.249 . S
O145 U126 2.420 . S
O145 C130 1.202 . S
O146 U126 2.455 . S
O146 C143 1.301 . S
O147 U126 2.449 . S
O147 C143 1.282 . S
H148 C121 0.931 . S
H149 C123 0.929 . S
H150 C124 0.930 . S
H151 C125 0.931 . S
H152 C132 0.932 . S
H153 C133 0.930 . S
H154 C134 0.929 . S
H155 C136 0.930 . S
H156 C138 0.932 . S
H157 C139 0.929 . S
H158 C140 0.928 . S
H159 C142 0.932 . S
C160 C161 1.264 . S
C160 C165 1.479 . S
C160 C170 1.465 . S
C161 C160 1.264 . S
C161 C163 1.339 . S
C161 H188 0.931 . S
C162 C163 1.395 . S
C162 C164 1.320 . S
C163 C161 1.339 . S
C163 C162 1.395 . S
C163 H189 0.929 . S
C164 C162 1.320 . S
C164 C165 1.405 . S
C164 H190 0.930 . S
C165 C160 1.479 . S
C165 C164 1.405 . S
C165 H191 0.931 . S
U166 O167 2.454 . S
U166 O168 2.458 . S
U166 C169 2.984 . S
U166 C170 2.847 . S
U166 C183 2.882 . S
U166 O184 2.441 . S
U166 O185 2.420 . S
U166 O186 2.455 . S
U166 O187 2.449 . S
O167 U166 2.454 . S
O167 C169 1.353 . S
O168 U166 2.458 . S
O168 C169 1.286 . S
C169 U166 2.984 . S
C169 O167 1.353 . S
C169 O168 1.286 . S
C169 C171 1.363 . S
C170 C160 1.465 . S
C170 U166 2.847 . S
C170 O184 1.249 . S
C170 O185 1.202 . S
C171 C169 1.363 . S
C171 C173 1.408 . S
C171 C176 1.342 . S
C172 C173 1.310 . S
C172 C175 1.461 . S
C172 H192 0.932 . S
C173 C171 1.408 . S
C173 C172 1.310 . S
C173 H193 0.930 . S
C174 C175 1.474 . S
C174 C176 1.285 . S
C174 H194 0.929 . S
C175 C172 1.461 . S
C175 C174 1.474 . S
C176 C171 1.342 . S
C176 C174 1.285 . S
C176 H195 0.930 . S
C177 C180 1.424 . S
C177 C182 1.245 . S
C177 C183 1.428 . S
C178 C181 1.260 . S
C178 C182 1.477 . S
C178 H196 0.932 . S
C179 C180 1.384 . S
C179 C181 1.479 . S
C179 H197 0.929 . S
C180 C177 1.424 . S
C180 C179 1.384 . S
C180 H198 0.928 . S
C181 C178 1.260 . S
C181 C179 1.479 . S
C182 C177 1.245 . S
C182 C178 1.477 . S
C182 H199 0.932 . S
C183 U166 2.882 . S
C183 C177 1.428 . S
C183 O186 1.301 . S
C183 O187 1.282 . S
O184 U166 2.441 . S
O184 C170 1.249 . S
O185 U166 2.420 . S
O185 C170 1.202 . S
O186 U166 2.455 . S
O186 C183 1.301 . S
O187 U166 2.449 . S
O187 C183 1.282 . S
H188 C161 0.931 . S
H189 C163 0.929 . S
H190 C164 0.930 . S
H191 C165 0.931 . S
H192 C172 0.932 . S
H193 C173 0.930 . S
H194 C174 0.929 . S
H195 C176 0.930 . S
H196 C178 0.932 . S
H197 C179 0.929 . S
H198 C180 0.928 . S
H199 C182 0.932 . S
C200 C201 1.264 . S
C200 C205 1.479 . S
C200 C210 1.465 . S
C201 C200 1.264 . S
C201 C203 1.339 . S
C201 H228 0.931 . S
C202 C203 1.395 . S
C202 C204 1.320 . S
C203 C201 1.339 . S
C203 C202 1.395 . S
C203 H229 0.929 . S
C204 C202 1.320 . S
C204 C205 1.405 . S
C204 H230 0.930 . S
C205 C200 1.479 . S
C205 C204 1.405 . S
C205 H231 0.931 . S
U206 O207 2.454 . S
U206 O208 2.458 . S
U206 C209 2.984 . S
U206 C210 2.847 . S
U206 C223 2.882 . S
U206 O224 2.441 . S
U206 O225 2.420 . S
U206 O226 2.455 . S
U206 O227 2.449 . S
O207 U206 2.454 . S
O207 C209 1.353 . S
O208 U206 2.458 . S
O208 C209 1.286 . S
C209 U206 2.984 . S
C209 O207 1.353 . S
C209 O208 1.286 . S
C209 C211 1.363 . S
C210 C200 1.465 . S
C210 U206 2.847 . S
C210 O224 1.249 . S
C210 O225 1.202 . S
C211 C209 1.363 . S
C211 C213 1.408 . S
C211 C216 1.342 . S
C212 C213 1.310 . S
C212 C215 1.461 . S
C212 H232 0.932 . S
C213 C211 1.408 . S
C213 C212 1.310 . S
C213 H233 0.930 . S
C214 C215 1.474 . S
C214 C216 1.285 . S
C214 H234 0.929 . S
C215 C212 1.461 . S
C215 C214 1.474 . S
C216 C211 1.342 . S
C216 C214 1.285 . S
C216 H235 0.930 . S
C217 C220 1.424 . S
C217 C222 1.245 . S
C217 C223 1.428 . S
C218 C221 1.260 . S
C218 C222 1.477 . S
C218 H236 0.932 . S
C219 C220 1.384 . S
C219 C221 1.479 . S
C219 H237 0.929 . S
C220 C217 1.424 . S
C220 C219 1.384 . S
C220 H238 0.928 . S
C221 C218 1.260 . S
C221 C219 1.479 . S
C222 C217 1.245 . S
C222 C218 1.477 . S
C222 H239 0.932 . S
C223 U206 2.882 . S
C223 C217 1.428 . S
C223 O226 1.301 . S
C223 O227 1.282 . S
O224 U206 2.441 . S
O224 C210 1.249 . S
O225 U206 2.420 . S
O225 C210 1.202 . S
O226 U206 2.455 . S
O226 C223 1.301 . S
O227 U206 2.449 . S
O227 C223 1.282 . S
H228 C201 0.931 . S
H229 C203 0.929 . S
H230 C204 0.930 . S
H231 C205 0.931 . S
H232 C212 0.932 . S
H233 C213 0.930 . S
H234 C214 0.929 . S
H235 C216 0.930 . S
H236 C218 0.932 . S
H237 C219 0.929 . S
H238 C220 0.928 . S
H239 C222 0.932 . S
C240 C241 1.264 . S
C240 C245 1.479 . S
C240 C250 1.465 . S
C241 C240 1.264 . S
C241 C243 1.339 . S
C241 H268 0.931 . S
C242 C243 1.395 . S
C242 C244 1.320 . S
C243 C241 1.339 . S
C243 C242 1.395 . S
C243 H269 0.929 . S
C244 C242 1.320 . S
C244 C245 1.405 . S
C244 H270 0.930 . S
C245 C240 1.479 . S
C245 C244 1.405 . S
C245 H271 0.931 . S
U246 O247 2.454 . S
U246 O248 2.458 . S
U246 C249 2.984 . S
U246 C250 2.847 . S
U246 C263 2.882 . S
U246 O264 2.441 . S
U246 O265 2.420 . S
U246 O266 2.455 . S
U246 O267 2.449 . S
O247 U246 2.454 . S
O247 C249 1.353 . S
O248 U246 2.458 . S
O248 C249 1.286 . S
C249 U246 2.984 . S
C249 O247 1.353 . S
C249 O248 1.286 . S
C249 C251 1.363 . S
C250 C240 1.465 . S
C250 U246 2.847 . S
C250 O264 1.249 . S
C250 O265 1.202 . S
C251 C249 1.363 . S
C251 C253 1.408 . S
C251 C256 1.342 . S
C252 C253 1.310 . S
C252 C255 1.461 . S
C252 H272 0.932 . S
C253 C251 1.408 . S
C253 C252 1.310 . S
C253 H273 0.930 . S
C254 C255 1.474 . S
C254 C256 1.285 . S
C254 H274 0.929 . S
C255 C252 1.461 . S
C255 C254 1.474 . S
C256 C251 1.342 . S
C256 C254 1.285 . S
C256 H275 0.930 . S
C257 C260 1.424 . S
C257 C262 1.245 . S
C257 C263 1.428 . S
C258 C261 1.260 . S
C258 C262 1.477 . S
C258 H276 0.932 . S
C259 C260 1.384 . S
C259 C261 1.479 . S
C259 H277 0.929 . S
C260 C257 1.424 . S
C260 C259 1.384 . S
C260 H278 0.928 . S
C261 C258 1.260 . S
C261 C259 1.479 . S
C262 C257 1.245 . S
C262 C258 1.477 . S
C262 H279 0.932 . S
C263 U246 2.882 . S
C263 C257 1.428 . S
C263 O266 1.301 . S
C263 O267 1.282 . S
O264 U246 2.441 . S
O264 C250 1.249 . S
O265 U246 2.420 . S
O265 C250 1.202 . S
O266 U246 2.455 . S
O266 C263 1.301 . S
O267 U246 2.449 . S
O267 C263 1.282 . S
H268 C241 0.931 . S
H269 C243 0.929 . S
H270 C244 0.930 . S
H271 C245 0.931 . S
H272 C252 0.932 . S
H273 C253 0.930 . S
H274 C254 0.929 . S
H275 C256 0.930 . S
H276 C258 0.932 . S
H277 C259 0.929 . S
H278 C260 0.928 . S
H279 C262 0.932 . S
C280 C281 1.264 . S
C280 C285 1.479 . S
C280 C290 1.465 . S
C281 C280 1.264 . S
C281 C283 1.339 . S
C281 H308 0.931 . S
C282 C283 1.395 . S
C282 C284 1.320 . S
C283 C281 1.339 . S
C283 C282 1.395 . S
C283 H309 0.929 . S
C284 C282 1.320 . S
C284 C285 1.405 . S
C284 H310 0.930 . S
C285 C280 1.479 . S
C285 C284 1.405 . S
C285 H311 0.931 . S
U286 O287 2.454 . S
U286 O288 2.458 . S
U286 C289 2.984 . S
U286 C290 2.847 . S
U286 C303 2.882 . S
U286 O304 2.441 . S
U286 O305 2.420 . S
U286 O306 2.455 . S
U286 O307 2.449 . S
O287 U286 2.454 . S
O287 C289 1.353 . S
O288 U286 2.458 . S
O288 C289 1.286 . S
C289 U286 2.984 . S
C289 O287 1.353 . S
C289 O288 1.286 . S
C289 C291 1.363 . S
C290 C280 1.465 . S
C290 U286 2.847 . S
C290 O304 1.249 . S
C290 O305 1.202 . S
C291 C289 1.363 . S
C291 C293 1.408 . S
C291 C296 1.342 . S
C292 C293 1.310 . S
C292 C295 1.461 . S
C292 H312 0.932 . S
C293 C291 1.408 . S
C293 C292 1.310 . S
C293 H313 0.930 . S
C294 C295 1.474 . S
C294 C296 1.285 . S
C294 H314 0.929 . S
C295 C292 1.461 . S
C295 C294 1.474 . S
C296 C291 1.342 . S
C296 C294 1.285 . S
C296 H315 0.930 . S
C297 C300 1.424 . S
C297 C302 1.245 . S
C297 C303 1.428 . S
C298 C301 1.260 . S
C298 C302 1.477 . S
C298 H316 0.932 . S
C299 C300 1.384 . S
C299 C301 1.479 . S
C299 H317 0.929 . S
C300 C297 1.424 . S
C300 C299 1.384 . S
C300 H318 0.928 . S
C301 C298 1.260 . S
C301 C299 1.479 . S
C302 C297 1.245 . S
C302 C298 1.477 . S
C302 H319 0.932 . S
C303 U286 2.882 . S
C303 C297 1.428 . S
C303 O306 1.301 . S
C303 O307 1.282 . S
O304 U286 2.441 . S
O304 C290 1.249 . S
O305 U286 2.420 . S
O305 C290 1.202 . S
O306 U286 2.455 . S
O306 C303 1.301 . S
O307 U286 2.449 . S
O307 C303 1.282 . S
H308 C281 0.931 . S
H309 C283 0.929 . S
H310 C284 0.930 . S
H311 C285 0.931 . S
H312 C292 0.932 . S
H313 C293 0.930 . S
H314 C294 0.929 . S
H315 C296 0.930 . S
H316 C298 0.932 . S
H317 C299 0.929 . S
H318 C300 0.928 . S
H319 C302 0.932 . S
H320 C339 0.949 . S
H321 C340 0.950 . S
H322 C342 0.950 . S
H323 C343 0.950 . S
H324 C345 0.950 . S
H325 C348 0.950 . S
H326 C349 0.950 . S
H327 C351 0.951 . S
H328 C352 0.949 . S
H329 C354 0.949 . S
H330 C355 0.950 . S
H331 C357 0.950 . S
H332 C358 0.950 . S
H333 C360 0.950 . S
H334 C363 0.950 . S
H335 C364 0.950 . S
H336 C366 0.951 . S
H337 C367 0.949 . S
C338 C339 1.376 . S
C338 C343 1.386 . S
C338 C344 1.483 . S
C339 H320 0.949 . S
C339 C338 1.376 . S
C339 C340 1.397 . S
C340 H321 0.950 . S
C340 C339 1.397 . S
C340 C341 1.391 . S
C341 C340 1.391 . S
C341 C342 1.405 . S
C342 H322 0.950 . S
C342 C341 1.405 . S
C342 C343 1.367 . S
C343 H323 0.950 . S
C343 C338 1.386 . S
C343 C342 1.367 . S
C344 C338 1.483 . S
C344 C345 1.382 . S
C344 C346 1.403 1_655 S
C345 H324 0.950 . S
C345 C344 1.382 . S
C345 C361 1.411 . S
C346 C344 1.403 1_455 S
C346 C347 1.489 . S
C346 C360 1.411 . S
C347 C346 1.489 . S
C347 C348 1.383 . S
C347 C352 1.382 . S
C348 H325 0.950 . S
C348 C347 1.383 . S
C348 C349 1.395 . S
C349 H326 0.950 . S
C349 C348 1.395 . S
C349 C350 1.288 . S
C350 C349 1.288 . S
C350 C351 1.392 . S
C351 H327 0.951 . S
C351 C350 1.392 . S
C351 C352 1.392 . S
C352 H328 0.949 . S
C352 C347 1.382 . S
C352 C351 1.392 . S
C353 C354 1.376 . S
C353 C358 1.386 . S
C353 C359 1.483 . S
C354 H329 0.949 . S
C354 C353 1.376 . S
C354 C355 1.397 . S
C355 H330 0.950 . S
C355 C354 1.397 . S
C355 C356 1.391 . S
C356 C355 1.391 . S
C356 C357 1.405 . S
C357 H331 0.950 . S
C357 C356 1.405 . S
C357 C358 1.367 . S
C358 H332 0.950 . S
C358 C353 1.386 . S
C358 C357 1.367 . S
C359 C353 1.483 . S
C359 C360 1.382 . S
C359 C361 1.403 1_455 S
C360 H333 0.950 . S
C360 C346 1.411 . S
C360 C359 1.382 . S
C361 C345 1.411 . S
C361 C359 1.403 1_655 S
C361 C362 1.489 . S
C362 C361 1.489 . S
C362 C363 1.383 . S
C362 C367 1.382 . S
C363 H334 0.950 . S
C363 C362 1.383 . S
C363 C364 1.395 . S
C364 H335 0.950 . S
C364 C363 1.395 . S
C364 C365 1.288 . S
C365 C364 1.288 . S
C365 C366 1.392 . S
C366 H336 0.951 . S
C366 C365 1.392 . S
C366 C367 1.392 . S
C367 H337 0.949 . S
C367 C362 1.382 . S
C367 C366 1.392 . S
H368 C387 0.949 . S
H369 C388 0.950 . S
H370 C390 0.950 . S
H371 C391 0.950 . S
H372 C393 0.950 . S
H373 C396 0.950 . S
H374 C397 0.950 . S
H375 C399 0.951 . S
H376 C400 0.949 . S
H377 C402 0.949 . S
H378 C403 0.950 . S
H379 C405 0.950 . S
H380 C406 0.950 . S
H381 C408 0.950 . S
H382 C411 0.950 . S
H383 C412 0.950 . S
H384 C414 0.951 . S
H385 C415 0.949 . S
C386 C387 1.376 . S
C386 C391 1.386 . S
C386 C392 1.483 . S
C387 H368 0.949 . S
C387 C386 1.376 . S
C387 C388 1.397 . S
C388 H369 0.950 . S
C388 C387 1.397 . S
C388 C389 1.391 . S
C389 C388 1.391 . S
C389 C390 1.405 . S
C390 H370 0.950 . S
C390 C389 1.405 . S
C390 C391 1.367 . S
C391 H371 0.950 . S
C391 C386 1.386 . S
C391 C390 1.367 . S
C392 C386 1.483 . S
C392 C393 1.382 . S
C392 C394 1.403 1_455 S
C393 H372 0.950 . S
C393 C392 1.382 . S
C393 C409 1.411 . S
C394 C392 1.403 1_655 S
C394 C395 1.489 . S
C394 C408 1.411 . S
C395 C394 1.489 . S
C395 C396 1.383 . S
C395 C400 1.382 . S
C396 H373 0.950 . S
C396 C395 1.383 . S
C396 C397 1.395 . S
C397 H374 0.950 . S
C397 C396 1.395 . S
C397 C398 1.288 . S
C398 C397 1.288 . S
C398 C399 1.392 . S
C399 H375 0.951 . S
C399 C398 1.392 . S
C399 C400 1.392 . S
C400 H376 0.949 . S
C400 C395 1.382 . S
C400 C399 1.392 . S
C401 C402 1.376 . S
C401 C406 1.386 . S
C401 C407 1.483 . S
C402 H377 0.949 . S
C402 C401 1.376 . S
C402 C403 1.397 . S
C403 H378 0.950 . S
C403 C402 1.397 . S
C403 C404 1.391 . S
C404 C403 1.391 . S
C404 C405 1.405 . S
C405 H379 0.950 . S
C405 C404 1.405 . S
C405 C406 1.367 . S
C406 H380 0.950 . S
C406 C401 1.386 . S
C406 C405 1.367 . S
C407 C401 1.483 . S
C407 C408 1.382 . S
C407 C409 1.403 1_655 S
C408 H381 0.950 . S
C408 C394 1.411 . S
C408 C407 1.382 . S
C409 C393 1.411 . S
C409 C407 1.403 1_455 S
C409 C410 1.489 . S
C410 C409 1.489 . S
C410 C411 1.383 . S
C410 C415 1.382 . S
C411 H382 0.950 . S
C411 C410 1.383 . S
C411 C412 1.395 . S
C412 H383 0.950 . S
C412 C411 1.395 . S
C412 C413 1.288 . S
C413 C412 1.288 . S
C413 C414 1.392 . S
C414 H384 0.951 . S
C414 C413 1.392 . S
C414 C415 1.392 . S
C415 H385 0.949 . S
C415 C410 1.382 . S
C415 C414 1.392 . S
H416 C435 0.949 . S
H417 C436 0.950 . S
H418 C438 0.950 . S
H419 C439 0.950 . S
H420 C441 0.950 . S
H421 C444 0.950 . S
H422 C445 0.950 . S
H423 C447 0.951 . S
H424 C448 0.949 . S
H425 C450 0.949 . S
H426 C451 0.950 . S
H427 C453 0.950 . S
H428 C454 0.950 . S
H429 C456 0.950 . S
H430 C459 0.950 . S
H431 C460 0.950 . S
H432 C462 0.951 . S
H433 C463 0.949 . S
C434 C435 1.376 . S
C434 C439 1.386 . S
C434 C440 1.483 . S
C435 H416 0.949 . S
C435 C434 1.376 . S
C435 C436 1.397 . S
C436 H417 0.950 . S
C436 C435 1.397 . S
C436 C437 1.391 . S
C437 C436 1.391 . S
C437 C438 1.405 . S
C438 H418 0.950 . S
C438 C437 1.405 . S
C438 C439 1.367 . S
C439 H419 0.950 . S
C439 C434 1.386 . S
C439 C438 1.367 . S
C440 C434 1.483 . S
C440 C441 1.382 1_565 S
C440 C442 1.403 . S
C441 H420 0.950 . S
C441 C440 1.382 1_545 S
C441 C457 1.411 . S
C442 C440 1.403 . S
C442 C443 1.489 . S
C442 C456 1.411 1_565 S
C443 C442 1.489 . S
C443 C444 1.383 . S
C443 C448 1.382 . S
C444 H421 0.950 . S
C444 C443 1.383 . S
C444 C445 1.395 . S
C445 H422 0.950 . S
C445 C444 1.395 . S
C445 C446 1.288 . S
C446 C445 1.288 . S
C446 C447 1.392 . S
C447 H423 0.951 . S
C447 C446 1.392 . S
C447 C448 1.392 . S
C448 H424 0.949 . S
C448 C443 1.382 . S
C448 C447 1.392 . S
C449 C450 1.376 . S
C449 C454 1.386 . S
C449 C455 1.483 . S
C450 H425 0.949 . S
C450 C449 1.376 . S
C450 C451 1.397 . S
C451 H426 0.950 . S
C451 C450 1.397 . S
C451 C452 1.391 . S
C452 C451 1.391 . S
C452 C453 1.405 . S
C453 H427 0.950 . S
C453 C452 1.405 . S
C453 C454 1.367 . S
C454 H428 0.950 . S
C454 C449 1.386 . S
C454 C453 1.367 . S
C455 C449 1.483 . S
C455 C456 1.382 . S
C455 C457 1.403 . S
C456 H429 0.950 . S
C456 C442 1.411 1_545 S
C456 C455 1.382 . S
C457 C441 1.411 . S
C457 C455 1.403 . S
C457 C458 1.489 . S
C458 C457 1.489 . S
C458 C459 1.383 . S
C458 C463 1.382 . S
C459 H430 0.950 . S
C459 C458 1.383 . S
C459 C460 1.395 . S
C460 H431 0.950 . S
C460 C459 1.395 . S
C460 C461 1.288 . S
C461 C460 1.288 . S
C461 C462 1.392 . S
C462 H432 0.951 . S
C462 C461 1.392 . S
C462 C463 1.392 . S
C463 H433 0.949 . S
C463 C458 1.382 . S
C463 C462 1.392 . S
H464 C483 0.949 . S
H465 C484 0.950 . S
H466 C486 0.950 . S
H467 C487 0.950 . S
H468 C489 0.950 . S
H469 C492 0.950 . S
H470 C493 0.950 . S
H471 C495 0.951 . S
H472 C496 0.949 . S
H473 C498 0.949 . S
H474 C499 0.950 . S
H475 C501 0.950 . S
H476 C502 0.950 . S
H477 C504 0.950 . S
H478 C507 0.950 . S
H479 C508 0.950 . S
H480 C510 0.951 . S
H481 C511 0.949 . S
C482 C483 1.376 . S
C482 C487 1.386 . S
C482 C488 1.483 . S
C483 H464 0.949 . S
C483 C482 1.376 . S
C483 C484 1.397 . S
C484 H465 0.950 . S
C484 C483 1.397 . S
C484 C485 1.391 . S
C485 C484 1.391 . S
C485 C486 1.405 . S
C486 H466 0.950 . S
C486 C485 1.405 . S
C486 C487 1.367 . S
C487 H467 0.950 . S
C487 C482 1.386 . S
C487 C486 1.367 . S
C488 C482 1.483 . S
C488 C489 1.382 1_556 S
C488 C490 1.403 . S
C489 H468 0.950 . S
C489 C488 1.382 1_554 S
C489 C505 1.411 . S
C490 C488 1.403 . S
C490 C491 1.489 . S
C490 C504 1.411 1_556 S
C491 C490 1.489 . S
C491 C492 1.383 . S
C491 C496 1.382 . S
C492 H469 0.950 . S
C492 C491 1.383 . S
C492 C493 1.395 . S
C493 H470 0.950 . S
C493 C492 1.395 . S
C493 C494 1.288 . S
C494 C493 1.288 . S
C494 C495 1.392 . S
C495 H471 0.951 . S
C495 C494 1.392 . S
C495 C496 1.392 . S
C496 H472 0.949 . S
C496 C491 1.382 . S
C496 C495 1.392 . S
C497 C498 1.376 . S
C497 C502 1.386 . S
C497 C503 1.483 . S
C498 H473 0.949 . S
C498 C497 1.376 . S
C498 C499 1.397 . S
C499 H474 0.950 . S
C499 C498 1.397 . S
C499 C500 1.391 . S
C500 C499 1.391 . S
C500 C501 1.405 . S
C501 H475 0.950 . S
C501 C500 1.405 . S
C501 C502 1.367 . S
C502 H476 0.950 . S
C502 C497 1.386 . S
C502 C501 1.367 . S
C503 C497 1.483 . S
C503 C504 1.382 . S
C503 C505 1.403 . S
C504 H477 0.950 . S
C504 C490 1.411 1_554 S
C504 C503 1.382 . S
C505 C489 1.411 . S
C505 C503 1.403 . S
C505 C506 1.489 . S
C506 C505 1.489 . S
C506 C507 1.383 . S
C506 C511 1.382 . S
C507 H478 0.950 . S
C507 C506 1.383 . S
C507 C508 1.395 . S
C508 H479 0.950 . S
C508 C507 1.395 . S
C508 C509 1.288 . S
C509 C508 1.288 . S
C509 C510 1.392 . S
C510 H480 0.951 . S
C510 C509 1.392 . S
C510 C511 1.392 . S
C511 H481 0.949 . S
C511 C506 1.382 . S
C511 C510 1.392 . S
H512 C531 0.949 . S
H513 C532 0.950 . S
H514 C534 0.950 . S
H515 C535 0.950 . S
H516 C537 0.952 . S
H517 C540 0.950 . S
H518 C541 0.950 . S
H519 C543 0.951 . S
H520 C544 0.949 . S
H521 C546 0.949 . S
H522 C547 0.950 . S
H523 C549 0.950 . S
H524 C550 0.950 . S
H525 C552 0.950 . S
H526 C555 0.950 . S
H527 C556 0.950 . S
H528 C558 0.951 . S
H529 C559 0.949 . S
C530 C531 1.376 . S
C530 C535 1.386 . S
C530 C536 1.483 . S
C531 H512 0.949 . S
C531 C530 1.376 . S
C531 C532 1.397 . S
C532 H513 0.950 . S
C532 C531 1.397 . S
C532 C533 1.391 . S
C533 C532 1.391 . S
C533 C534 1.405 . S
C534 H514 0.950 . S
C534 C533 1.405 . S
C534 C535 1.367 . S
C535 H515 0.950 . S
C535 C530 1.386 . S
C535 C534 1.367 . S
C536 C530 1.483 . S
C536 C537 1.382 1_565 S
C536 C538 1.403 . S
C537 H516 0.952 . S
C537 C536 1.382 1_545 S
C537 C553 1.411 . S
C538 C536 1.403 . S
C538 C539 1.489 . S
C538 C552 1.411 1_565 S
C539 C538 1.489 . S
C539 C540 1.383 . S
C539 C544 1.382 . S
C540 H517 0.950 . S
C540 C539 1.383 . S
C540 C541 1.395 . S
C541 H518 0.950 . S
C541 C540 1.395 . S
C541 C542 1.288 . S
C542 C541 1.288 . S
C542 C543 1.392 . S
C543 H519 0.951 . S
C543 C542 1.392 . S
C543 C544 1.392 . S
C544 H520 0.949 . S
C544 C539 1.382 . S
C544 C543 1.392 . S
C545 C546 1.376 . S
C545 C550 1.386 . S
C545 C551 1.483 . S
C546 H521 0.949 . S
C546 C545 1.376 . S
C546 C547 1.397 . S
C547 H522 0.950 . S
C547 C546 1.397 . S
C547 C548 1.391 . S
C548 C547 1.391 . S
C548 C549 1.405 . S
C549 H523 0.950 . S
C549 C548 1.405 . S
C549 C550 1.367 . S
C550 H524 0.950 . S
C550 C545 1.386 . S
C550 C549 1.367 . S
C551 C545 1.483 . S
C551 C552 1.382 . S
C551 C553 1.403 . S
C552 H525 0.950 . S
C552 C538 1.411 1_545 S
C552 C551 1.382 . S
C553 C537 1.411 . S
C553 C551 1.403 . S
C553 C554 1.489 . S
C554 C553 1.489 . S
C554 C555 1.383 . S
C554 C559 1.382 . S
C555 H526 0.950 . S
C555 C554 1.383 . S
C555 C556 1.395 . S
C556 H527 0.950 . S
C556 C555 1.395 . S
C556 C557 1.288 . S
C557 C556 1.288 . S
C557 C558 1.392 . S
C558 H528 0.951 . S
C558 C557 1.392 . S
C558 C559 1.392 . S
C559 H529 0.949 . S
C559 C554 1.382 . S
C559 C558 1.392 . S
H560 C579 0.949 . S
H561 C580 0.950 . S
H562 C582 0.950 . S
H563 C583 0.950 . S
H564 C585 0.950 . S
H565 C588 0.950 . S
H566 C589 0.950 . S
H567 C591 0.951 . S
H568 C592 0.949 . S
H569 C594 0.949 . S
H570 C595 0.950 . S
H571 C597 0.950 . S
H572 C598 0.950 . S
H573 C600 0.950 . S
H574 C603 0.950 . S
H575 C604 0.950 . S
H576 C606 0.951 . S
H577 C607 0.949 . S
C578 C579 1.376 . S
C578 C583 1.386 . S
C578 C584 1.483 . S
C579 H560 0.949 . S
C579 C578 1.376 . S
C579 C580 1.397 . S
C580 H561 0.950 . S
C580 C579 1.397 . S
C580 C581 1.391 . S
C581 C580 1.391 . S
C581 C582 1.405 . S
C582 H562 0.950 . S
C582 C581 1.405 . S
C582 C583 1.367 . S
C583 H563 0.950 . S
C583 C578 1.386 . S
C583 C582 1.367 . S
C584 C578 1.483 . S
C584 C585 1.382 1_556 S
C584 C586 1.403 . S
C585 H564 0.950 . S
C585 C584 1.382 1_554 S
C585 C601 1.411 . S
C586 C584 1.403 . S
C586 C587 1.489 . S
C586 C600 1.411 1_556 S
C587 C586 1.489 . S
C587 C588 1.383 . S
C587 C592 1.382 . S
C588 H565 0.950 . S
C588 C587 1.383 . S
C588 C589 1.395 . S
C589 H566 0.950 . S
C589 C588 1.395 . S
C589 C590 1.288 . S
C590 C589 1.288 . S
C590 C591 1.392 . S
C591 H567 0.951 . S
C591 C590 1.392 . S
C591 C592 1.392 . S
C592 H568 0.949 . S
C592 C587 1.382 . S
C592 C591 1.392 . S
C593 C594 1.376 . S
C593 C598 1.386 . S
C593 C599 1.483 . S
C594 H569 0.949 . S
C594 C593 1.376 . S
C594 C595 1.397 . S
C595 H570 0.950 . S
C595 C594 1.397 . S
C595 C596 1.391 . S
C596 C595 1.391 . S
C596 C597 1.405 . S
C597 H571 0.950 . S
C597 C596 1.405 . S
C597 C598 1.367 . S
C598 H572 0.950 . S
C598 C593 1.386 . S
C598 C597 1.367 . S
C599 C593 1.483 . S
C599 C600 1.382 . S
C599 C601 1.403 . S
C600 H573 0.950 . S
C600 C586 1.411 1_554 S
C600 C599 1.382 . S
C601 C585 1.411 . S
C601 C599 1.403 . S
C601 C602 1.489 . S
C602 C601 1.489 . S
C602 C603 1.383 . S
C602 C607 1.382 . S
C603 H574 0.950 . S
C603 C602 1.383 . S
C603 C604 1.395 . S
C604 H575 0.950 . S
C604 C603 1.395 . S
C604 C605 1.288 . S
C605 C604 1.288 . S
C605 C606 1.392 . S
C606 H576 0.951 . S
C606 C605 1.392 . S
C606 C607 1.392 . S
C607 H577 0.949 . S
C607 C602 1.382 . S
C607 C606 1.392 . S
H608 C614 0.930 . S
H609 C618 0.930 . S
H610 C623 0.929 . S
H611 C621 0.929 . S
H612 C616 0.929 . S
H613 C622 0.929 . S
C614 H608 0.930 . S
C614 C615 1.367 . S
C614 C622 1.378 . S
C615 C614 1.367 . S
C615 C623 1.433 . S
C616 H612 0.929 . S
C616 C618 1.378 . S
C616 C620 1.350 . S
C617 C620 1.463 . S
C617 C622 1.350 . S
C617 N625 1.427 . S
C618 H609 0.930 . S
C618 C616 1.378 . S
C618 C619 1.367 . S
C619 C618 1.367 . S
C619 C621 1.433 . S
C620 C616 1.350 . S
C620 C617 1.463 . S
C620 N624 1.427 . S
C621 H611 0.929 . S
C621 C619 1.433 . S
C621 N624 1.384 . S
C622 H613 0.929 . S
C622 C614 1.378 . S
C622 C617 1.350 . S
C623 H610 0.929 . S
C623 C615 1.433 . S
C623 N625 1.384 . S
N624 C620 1.427 . S
N624 C621 1.384 . S
N625 C617 1.427 . S
N625 C623 1.384 . S
H626 C632 0.930 . S
H627 C636 0.930 . S
H628 C641 0.929 . S
H629 C639 0.929 . S
H630 C634 0.929 . S
H631 C640 0.929 . S
C632 H626 0.930 . S
C632 C633 1.367 . S
C632 C640 1.378 . S
C633 C632 1.367 . S
C633 C641 1.433 . S
C634 H630 0.929 . S
C634 C636 1.378 . S
C634 C638 1.350 . S
C635 C638 1.463 . S
C635 C640 1.350 . S
C635 N643 1.427 . S
C636 H627 0.930 . S
C636 C634 1.378 . S
C636 C637 1.367 . S
C637 C636 1.367 . S
C637 C639 1.433 . S
C638 C634 1.350 . S
C638 C635 1.463 . S
C638 N642 1.427 . S
C639 H629 0.929 . S
C639 C637 1.433 . S
C639 N642 1.384 . S
C640 H631 0.929 . S
C640 C632 1.378 . S
C640 C635 1.350 . S
C641 H628 0.929 . S
C641 C633 1.433 . S
C641 N643 1.384 . S
N642 C638 1.427 . S
N642 C639 1.384 . S
N643 C635 1.427 . S
N643 C641 1.384 . S
H644 C650 0.930 . S
H645 C654 0.930 . S
H646 C659 0.929 . S
H647 C657 0.929 . S
H648 C652 0.929 . S
H649 C658 0.929 . S
C650 H644 0.930 . S
C650 C651 1.367 . S
C650 C658 1.378 . S
C651 C650 1.367 . S
C651 C659 1.433 . S
C652 H648 0.929 . S
C652 C654 1.378 . S
C652 C656 1.350 . S
C653 C656 1.463 . S
C653 C658 1.350 . S
C653 N661 1.427 . S
C654 H645 0.930 . S
C654 C652 1.378 . S
C654 C655 1.367 . S
C655 C654 1.367 . S
C655 C657 1.433 . S
C656 C652 1.350 . S
C656 C653 1.463 . S
C656 N660 1.427 . S
C657 H647 0.929 . S
C657 C655 1.433 . S
C657 N660 1.384 . S
C658 H649 0.929 . S
C658 C650 1.378 . S
C658 C653 1.350 . S
C659 H646 0.929 . S
C659 C651 1.433 . S
C659 N661 1.384 . S
N660 C656 1.427 . S
N660 C657 1.384 . S
N661 C653 1.427 . S
N661 C659 1.384 . S
H662 C668 0.930 . S
H663 C672 0.930 . S
H664 C677 0.929 . S
H665 C675 0.929 . S
H666 C670 0.929 . S
H667 C676 0.929 . S
C668 H662 0.930 . S
C668 C669 1.367 . S
C668 C676 1.378 . S
C669 C668 1.367 . S
C669 C677 1.433 . S
C670 H666 0.929 . S
C670 C672 1.378 . S
C670 C674 1.350 . S
C671 C674 1.463 . S
C671 C676 1.350 . S
C671 N679 1.427 . S
C672 H663 0.930 . S
C672 C670 1.378 . S
C672 C673 1.367 . S
C673 C672 1.367 . S
C673 C675 1.433 . S
C674 C670 1.350 . S
C674 C671 1.463 . S
C674 N678 1.427 . S
C675 H665 0.929 . S
C675 C673 1.433 . S
C675 N678 1.384 . S
C676 H667 0.929 . S
C676 C668 1.378 . S
C676 C671 1.350 . S
C677 H664 0.929 . S
C677 C669 1.433 . S
C677 N679 1.384 . S
N678 C674 1.427 . S
N678 C675 1.384 . S
N679 C671 1.427 . S
N679 C677 1.384 . S
H680 C686 0.930 . S
H681 C690 0.930 . S
H682 C695 0.929 . S
H683 C693 0.929 . S
H684 C688 0.929 . S
H685 C694 0.929 . S
C686 H680 0.930 . S
C686 C687 1.367 . S
C686 C694 1.378 . S
C687 C686 1.367 . S
C687 C695 1.433 . S
C688 H684 0.929 . S
C688 C690 1.378 . S
C688 C692 1.350 . S
C689 C692 1.463 . S
C689 C694 1.350 . S
C689 N697 1.427 . S
C690 H681 0.930 . S
C690 C688 1.378 . S
C690 C691 1.367 . S
C691 C690 1.367 . S
C691 C693 1.433 . S
C692 C688 1.350 . S
C692 C689 1.463 . S
C692 N696 1.427 . S
C693 H683 0.929 . S
C693 C691 1.433 . S
C693 N696 1.384 . S
C694 H685 0.929 . S
C694 C686 1.378 . S
C694 C689 1.350 . S
C695 H682 0.929 . S
C695 C687 1.433 . S
C695 N697 1.384 . S
N696 C692 1.427 . S
N696 C693 1.384 . S
N697 C689 1.427 . S
N697 C695 1.384 . S
H698 C704 0.930 . S
H699 C708 0.930 . S
H700 C713 0.929 . S
H701 C711 0.929 . S
H702 C706 0.929 . S
H703 C712 0.929 . S
C704 H698 0.930 . S
C704 C705 1.367 . S
C704 C712 1.378 . S
C705 C704 1.367 . S
C705 C713 1.433 . S
C706 H702 0.929 . S
C706 C708 1.378 . S
C706 C710 1.350 . S
C707 C710 1.463 . S
C707 C712 1.350 . S
C707 N715 1.427 . S
C708 H699 0.930 . S
C708 C706 1.378 . S
C708 C709 1.367 . S
C709 C708 1.367 . S
C709 C711 1.433 . S
C710 C706 1.350 . S
C710 C707 1.463 . S
C710 N714 1.427 . S
C711 H701 0.929 . S
C711 C709 1.433 . S
C711 N714 1.384 . S
C712 H703 0.929 . S
C712 C704 1.378 . S
C712 C707 1.350 . S
C713 H700 0.929 . S
C713 C705 1.433 . S
C713 N715 1.384 . S
N714 C710 1.427 . S
N714 C711 1.384 . S
N715 C707 1.427 . S
N715 C713 1.384 . S
H716 C722 0.930 . S
H717 C726 0.930 . S
H718 C731 0.929 . S
H719 C729 0.929 . S
H720 C724 0.929 . S
H721 C730 0.929 . S
C722 H716 0.930 . S
C722 C723 1.367 . S
C722 C730 1.378 . S
C723 C722 1.367 . S
C723 C731 1.433 . S
C724 H720 0.929 . S
C724 C726 1.378 . S
C724 C728 1.350 . S
C725 C728 1.463 . S
C725 C730 1.350 . S
C725 N733 1.427 . S
C726 H717 0.930 . S
C726 C724 1.378 . S
C726 C727 1.367 . S
C727 C726 1.367 . S
C727 C729 1.433 . S
C728 C724 1.350 . S
C728 C725 1.463 . S
C728 N732 1.427 . S
C729 H719 0.929 . S
C729 C727 1.433 . S
C729 N732 1.384 . S
C730 H721 0.929 . S
C730 C722 1.378 . S
C730 C725 1.350 . S
C731 H718 0.929 . S
C731 C723 1.433 . S
C731 N733 1.384 . S
N732 C728 1.427 . S
N732 C729 1.384 . S
N733 C725 1.427 . S
N733 C731 1.384 . S
H734 C740 0.930 . S
H735 C744 0.930 . S
H736 C749 0.929 . S
H737 C747 0.929 . S
H738 C742 0.929 . S
H739 C748 0.929 . S
C740 H734 0.930 . S
C740 C741 1.367 . S
C740 C748 1.378 . S
C741 C740 1.367 . S
C741 C749 1.433 . S
C742 H738 0.929 . S
C742 C744 1.378 . S
C742 C746 1.350 . S
C743 C746 1.463 . S
C743 C748 1.350 . S
C743 N751 1.427 . S
C744 H735 0.930 . S
C744 C742 1.378 . S
C744 C745 1.367 . S
C745 C744 1.367 . S
C745 C747 1.433 . S
C746 C742 1.350 . S
C746 C743 1.463 . S
C746 N750 1.427 . S
C747 H737 0.929 . S
C747 C745 1.433 . S
C747 N750 1.384 . S
C748 H739 0.929 . S
C748 C740 1.378 . S
C748 C743 1.350 . S
C749 H736 0.929 . S
C749 C741 1.433 . S
C749 N751 1.384 . S
N750 C746 1.427 . S
N750 C747 1.384 . S
N751 C743 1.427 . S
N751 C749 1.384 . S
H752 C758 0.930 . S
H753 C762 0.930 . S
H754 C767 0.929 . S
H755 C765 0.929 . S
H756 C760 0.929 . S
H757 C766 0.929 . S
C758 H752 0.930 . S
C758 C759 1.367 . S
C758 C766 1.378 . S
C759 C758 1.367 . S
C759 C767 1.433 . S
C760 H756 0.929 . S
C760 C762 1.378 . S
C760 C764 1.350 . S
C761 C764 1.463 . S
C761 C766 1.350 . S
C761 N769 1.427 . S
C762 H753 0.930 . S
C762 C760 1.378 . S
C762 C763 1.367 . S
C763 C762 1.367 . S
C763 C765 1.433 . S
C764 C760 1.350 . S
C764 C761 1.463 . S
C764 N768 1.427 . S
C765 H755 0.929 . S
C765 C763 1.433 . S
C765 N768 1.384 . S
C766 H757 0.929 . S
C766 C758 1.378 . S
C766 C761 1.350 . S
C767 H754 0.929 . S
C767 C759 1.433 . S
C767 N769 1.384 . S
N768 C764 1.427 . S
N768 C765 1.384 . S
N769 C761 1.427 . S
N769 C767 1.384 . S
H770 C776 0.930 . S
H771 C780 0.930 . S
H772 C785 0.929 . S
H773 C783 0.929 . S
H774 C778 0.929 . S
H775 C784 0.929 . S
C776 H770 0.930 . S
C776 C777 1.367 . S
C776 C784 1.378 . S
C777 C776 1.367 . S
C777 C785 1.433 . S
C778 H774 0.929 . S
C778 C780 1.378 . S
C778 C782 1.350 . S
C779 C782 1.463 . S
C779 C784 1.350 . S
C779 N787 1.427 . S
C780 H771 0.930 . S
C780 C778 1.378 . S
C780 C781 1.367 . S
C781 C780 1.367 . S
C781 C783 1.433 . S
C782 C778 1.350 . S
C782 C779 1.463 . S
C782 N786 1.427 . S
C783 H773 0.929 . S
C783 C781 1.433 . S
C783 N786 1.384 . S
C784 H775 0.929 . S
C784 C776 1.378 . S
C784 C779 1.350 . S
C785 H772 0.929 . S
C785 C777 1.433 . S
C785 N787 1.384 . S
N786 C782 1.427 . S
N786 C783 1.384 . S
N787 C779 1.427 . S
N787 C785 1.384 . S
H788 C794 0.930 . S
H789 C798 0.930 . S
H790 C803 0.929 . S
H791 C801 0.929 . S
H792 C796 0.929 . S
H793 C802 0.929 . S
C794 H788 0.930 . S
C794 C795 1.367 . S
C794 C802 1.378 . S
C795 C794 1.367 . S
C795 C803 1.433 . S
C796 H792 0.929 . S
C796 C798 1.378 . S
C796 C800 1.350 . S
C797 C800 1.463 . S
C797 C802 1.350 . S
C797 N805 1.427 . S
C798 H789 0.930 . S
C798 C796 1.378 . S
C798 C799 1.367 . S
C799 C798 1.367 . S
C799 C801 1.433 . S
C800 C796 1.350 . S
C800 C797 1.463 . S
C800 N804 1.427 . S
C801 H791 0.929 . S
C801 C799 1.433 . S
C801 N804 1.384 . S
C802 H793 0.929 . S
C802 C794 1.378 . S
C802 C797 1.350 . S
C803 H790 0.929 . S
C803 C795 1.433 . S
C803 N805 1.384 . S
N804 C800 1.427 . S
N804 C801 1.384 . S
N805 C797 1.427 . S
N805 C803 1.384 . S
H806 C812 0.930 . S
H807 C816 0.930 . S
H808 C821 0.929 . S
H809 C819 0.929 . S
H810 C814 0.929 . S
H811 C820 0.929 . S
C812 H806 0.930 . S
C812 C813 1.367 . S
C812 C820 1.378 . S
C813 C812 1.367 . S
C813 C821 1.433 . S
C814 H810 0.929 . S
C814 C816 1.378 . S
C814 C818 1.350 . S
C815 C818 1.463 . S
C815 C820 1.350 . S
C815 N823 1.427 . S
C816 H807 0.930 . S
C816 C814 1.378 . S
C816 C817 1.367 . S
C817 C816 1.367 . S
C817 C819 1.433 . S
C818 C814 1.350 . S
C818 C815 1.463 . S
C818 N822 1.427 . S
C819 H809 0.929 . S
C819 C817 1.433 . S
C819 N822 1.384 . S
C820 H811 0.929 . S
C820 C812 1.378 . S
C820 C815 1.350 . S
C821 H808 0.929 . S
C821 C813 1.433 . S
C821 N823 1.384 . S
N822 C818 1.427 . S
N822 C819 1.384 . S
N823 C815 1.427 . S
N823 C821 1.384 . S
H824 C830 0.930 . S
H825 C834 0.930 . S
H826 C839 0.929 . S
H827 C837 0.929 . S
H828 C832 0.929 . S
H829 C838 0.929 . S
C830 H824 0.930 . S
C830 C831 1.367 . S
C830 C838 1.378 . S
C831 C830 1.367 . S
C831 C839 1.433 . S
C832 H828 0.929 . S
C832 C834 1.378 . S
C832 C836 1.350 . S
C833 C836 1.463 . S
C833 C838 1.350 . S
C833 N841 1.427 . S
C834 H825 0.930 . S
C834 C832 1.378 . S
C834 C835 1.367 . S
C835 C834 1.367 . S
C835 C837 1.433 . S
C836 C832 1.350 . S
C836 C833 1.463 . S
C836 N840 1.427 . S
C837 H827 0.929 . S
C837 C835 1.433 . S
C837 N840 1.384 . S
C838 H829 0.929 . S
C838 C830 1.378 . S
C838 C833 1.350 . S
C839 H826 0.929 . S
C839 C831 1.433 . S
C839 N841 1.384 . S
N840 C836 1.427 . S
N840 C837 1.384 . S
N841 C833 1.427 . S
N841 C839 1.384 . S
H842 C848 0.930 . S
H843 C852 0.930 . S
H844 C857 0.929 . S
H845 C855 0.929 . S
H846 C850 0.929 . S
H847 C856 0.929 . S
C848 H842 0.930 . S
C848 C849 1.367 . S
C848 C856 1.378 . S
C849 C848 1.367 . S
C849 C857 1.433 . S
C850 H846 0.929 . S
C850 C852 1.378 . S
C850 C854 1.350 . S
C851 C854 1.463 . S
C851 C856 1.350 . S
C851 N859 1.427 . S
C852 H843 0.930 . S
C852 C850 1.378 . S
C852 C853 1.367 . S
C853 C852 1.367 . S
C853 C855 1.433 . S
C854 C850 1.350 . S
C854 C851 1.463 . S
C854 N858 1.427 . S
C855 H845 0.929 . S
C855 C853 1.433 . S
C855 N858 1.384 . S
C856 H847 0.929 . S
C856 C848 1.378 . S
C856 C851 1.350 . S
C857 H844 0.929 . S
C857 C849 1.433 . S
C857 N859 1.384 . S
N858 C854 1.427 . S
N858 C855 1.384 . S
N859 C851 1.427 . S
N859 C857 1.384 . S
H860 C866 0.930 . S
H861 C870 0.930 . S
H862 C875 0.929 . S
H863 C873 0.929 . S
H864 C868 0.929 . S
H865 C874 0.929 . S
C866 H860 0.930 . S
C866 C867 1.367 . S
C866 C874 1.378 . S
C867 C866 1.367 . S
C867 C875 1.433 . S
C868 H864 0.929 . S
C868 C870 1.378 . S
C868 C872 1.350 . S
C869 C872 1.463 . S
C869 C874 1.350 . S
C869 N877 1.427 . S
C870 H861 0.930 . S
C870 C868 1.378 . S
C870 C871 1.367 . S
C871 C870 1.367 . S
C871 C873 1.433 . S
C872 C868 1.350 . S
C872 C869 1.463 . S
C872 N876 1.427 . S
C873 H863 0.929 . S
C873 C871 1.433 . S
C873 N876 1.384 . S
C874 H865 0.929 . S
C874 C866 1.378 . S
C874 C869 1.350 . S
C875 H862 0.929 . S
C875 C867 1.433 . S
C875 N877 1.384 . S
N876 C872 1.427 . S
N876 C873 1.384 . S
N877 C869 1.427 . S
N877 C875 1.384 . S
H878 C884 0.930 . S
H879 C888 0.930 . S
H880 C893 0.929 . S
H881 C891 0.929 . S
H882 C886 0.929 . S
H883 C892 0.929 . S
C884 H878 0.930 . S
C884 C885 1.367 . S
C884 C892 1.378 . S
C885 C884 1.367 . S
C885 C893 1.433 . S
C886 H882 0.929 . S
C886 C888 1.378 . S
C886 C890 1.350 . S
C887 C890 1.463 . S
C887 C892 1.350 . S
C887 N895 1.427 . S
C888 H879 0.930 . S
C888 C886 1.378 . S
C888 C889 1.367 . S
C889 C888 1.367 . S
C889 C891 1.433 . S
C890 C886 1.350 . S
C890 C887 1.463 . S
C890 N894 1.427 . S
C891 H881 0.929 . S
C891 C889 1.433 . S
C891 N894 1.384 . S
C892 H883 0.929 . S
C892 C884 1.378 . S
C892 C887 1.350 . S
C893 H880 0.929 . S
C893 C885 1.433 . S
C893 N895 1.384 . S
N894 C890 1.427 . S
N894 C891 1.384 . S
N895 C887 1.427 . S
N895 C893 1.384 . S
H896 C902 0.930 . S
H897 C906 0.930 . S
H898 C911 0.929 . S
H899 C909 0.929 . S
H900 C904 0.929 . S
H901 C910 0.929 . S
C902 H896 0.930 . S
C902 C903 1.367 . S
C902 C910 1.378 . S
C903 C902 1.367 . S
C903 C911 1.433 . S
C904 H900 0.929 . S
C904 C906 1.378 . S
C904 C908 1.350 . S
C905 C908 1.463 . S
C905 C910 1.350 . S
C905 N913 1.427 . S
C906 H897 0.930 . S
C906 C904 1.378 . S
C906 C907 1.367 . S
C907 C906 1.367 . S
C907 C909 1.433 . S
C908 C904 1.350 . S
C908 C905 1.463 . S
C908 N912 1.427 . S
C909 H899 0.929 . S
C909 C907 1.433 . S
C909 N912 1.384 . S
C910 H901 0.929 . S
C910 C902 1.378 . S
C910 C905 1.350 . S
C911 H898 0.929 . S
C911 C903 1.433 . S
C911 N913 1.384 . S
N912 C908 1.427 . S
N912 C909 1.384 . S
N913 C905 1.427 . S
N913 C911 1.384 . S
H914 C920 0.930 . S
H915 C924 0.930 . S
H916 C929 0.929 . S
H917 C927 0.929 . S
H918 C922 0.929 . S
H919 C928 0.929 . S
C920 H914 0.930 . S
C920 C921 1.367 . S
C920 C928 1.378 . S
C921 C920 1.367 . S
C921 C929 1.433 . S
C922 H918 0.929 . S
C922 C924 1.378 . S
C922 C926 1.350 . S
C923 C926 1.463 . S
C923 C928 1.350 . S
C923 N931 1.427 . S
C924 H915 0.930 . S
C924 C922 1.378 . S
C924 C925 1.367 . S
C925 C924 1.367 . S
C925 C927 1.433 . S
C926 C922 1.350 . S
C926 C923 1.463 . S
C926 N930 1.427 . S
C927 H917 0.929 . S
C927 C925 1.433 . S
C927 N930 1.384 . S
C928 H919 0.929 . S
C928 C920 1.378 . S
C928 C923 1.350 . S
C929 H916 0.929 . S
C929 C921 1.433 . S
C929 N931 1.384 . S
N930 C926 1.427 . S
N930 C927 1.384 . S
N931 C923 1.427 . S
N931 C929 1.384 . S
H932 C938 0.930 . S
H933 C942 0.930 . S
H934 C947 0.929 . S
H935 C945 0.929 . S
H936 C940 0.929 . S
H937 C946 0.929 . S
C938 H932 0.930 . S
C938 C939 1.367 . S
C938 C946 1.378 . S
C939 C938 1.367 . S
C939 C947 1.433 . S
C940 H936 0.929 . S
C940 C942 1.378 . S
C940 C944 1.350 . S
C941 C944 1.463 . S
C941 C946 1.350 . S
C941 N949 1.427 . S
C942 H933 0.930 . S
C942 C940 1.378 . S
C942 C943 1.367 . S
C943 C942 1.367 . S
C943 C945 1.433 . S
C944 C940 1.350 . S
C944 C941 1.463 . S
C944 N948 1.427 . S
C945 H935 0.929 . S
C945 C943 1.433 . S
C945 N948 1.384 . S
C946 H937 0.929 . S
C946 C938 1.378 . S
C946 C941 1.350 . S
C947 H934 0.929 . S
C947 C939 1.433 . S
C947 N949 1.384 . S
N948 C944 1.427 . S
N948 C945 1.384 . S
N949 C941 1.427 . S
N949 C947 1.384 . S
H950 C956 0.930 . S
H951 C960 0.930 . S
H952 C965 0.929 . S
H953 C963 0.929 . S
H954 C958 0.929 . S
H955 C964 0.929 . S
C956 H950 0.930 . S
C956 C957 1.367 . S
C956 C964 1.378 . S
C957 C956 1.367 . S
C957 C965 1.433 . S
C958 H954 0.929 . S
C958 C960 1.378 . S
C958 C962 1.350 . S
C959 C962 1.463 . S
C959 C964 1.350 . S
C959 N967 1.427 . S
C960 H951 0.930 . S
C960 C958 1.378 . S
C960 C961 1.367 . S
C961 C960 1.367 . S
C961 C963 1.433 . S
C962 C958 1.350 . S
C962 C959 1.463 . S
C962 N966 1.427 . S
C963 H953 0.929 . S
C963 C961 1.433 . S
C963 N966 1.384 . S
C964 H955 0.929 . S
C964 C956 1.378 . S
C964 C959 1.350 . S
C965 H952 0.929 . S
C965 C957 1.433 . S
C965 N967 1.384 . S
N966 C962 1.427 . S
N966 C963 1.384 . S
N967 C959 1.427 . S
N967 C965 1.384 . S
H968 C974 0.930 . S
H969 C978 0.930 . S
H970 C983 0.929 . S
H971 C981 0.929 . S
H972 C976 0.929 . S
H973 C982 0.929 . S
C974 H968 0.930 . S
C974 C975 1.367 . S
C974 C982 1.378 . S
C975 C974 1.367 . S
C975 C983 1.433 . S
C976 H972 0.929 . S
C976 C978 1.378 . S
C976 C980 1.350 . S
C977 C980 1.463 . S
C977 C982 1.350 . S
C977 N985 1.427 . S
C978 H969 0.930 . S
C978 C976 1.378 . S
C978 C979 1.367 . S
C979 C978 1.367 . S
C979 C981 1.433 . S
C980 C976 1.350 . S
C980 C977 1.463 . S
C980 N984 1.427 . S
C981 H971 0.929 . S
C981 C979 1.433 . S
C981 N984 1.384 . S
C982 H973 0.929 . S
C982 C974 1.378 . S
C982 C977 1.350 . S
C983 H970 0.929 . S
C983 C975 1.433 . S
C983 N985 1.384 . S
N984 C980 1.427 . S
N984 C981 1.384 . S
N985 C977 1.427 . S
N985 C983 1.384 . S
H986 C992 0.930 . S
H987 C996 0.930 . S
H988 C1001 0.929 . S
H989 C999 0.929 . S
H990 C994 0.929 . S
H991 C1000 0.929 . S
C992 H986 0.930 . S
C992 C993 1.367 . S
C992 C1000 1.378 . S
C993 C992 1.367 . S
C993 C1001 1.433 . S
C994 H990 0.929 . S
C994 C996 1.378 . S
C994 C998 1.350 . S
C995 C998 1.463 . S
C995 C1000 1.350 . S
C995 N1003 1.427 . S
C996 H987 0.930 . S
C996 C994 1.378 . S
C996 C997 1.367 . S
C997 C996 1.367 . S
C997 C999 1.433 . S
C998 C994 1.350 . S
C998 C995 1.463 . S
C998 N1002 1.427 . S
C999 H989 0.929 . S
C999 C997 1.433 . S
C999 N1002 1.384 . S
C1000 H991 0.929 . S
C1000 C992 1.378 . S
C1000 C995 1.350 . S
C1001 H988 0.929 . S
C1001 C993 1.433 . S
C1001 N1003 1.384 . S
N1002 C998 1.427 . S
N1002 C999 1.384 . S
N1003 C995 1.427 . S
N1003 C1001 1.384 . S
H1004 C1010 0.930 . S
H1005 C1014 0.930 . S
H1006 C1019 0.929 . S
H1007 C1017 0.929 . S
H1008 C1012 0.929 . S
H1009 C1018 0.929 . S
C1010 H1004 0.930 . S
C1010 C1011 1.367 . S
C1010 C1018 1.378 . S
C1011 C1010 1.367 . S
C1011 C1019 1.433 . S
C1012 H1008 0.929 . S
C1012 C1014 1.378 . S
C1012 C1016 1.350 . S
C1013 C1016 1.463 . S
C1013 C1018 1.350 . S
C1013 N1021 1.427 . S
C1014 H1005 0.930 . S
C1014 C1012 1.378 . S
C1014 C1015 1.367 . S
C1015 C1014 1.367 . S
C1015 C1017 1.433 . S
C1016 C1012 1.350 . S
C1016 C1013 1.463 . S
C1016 N1020 1.427 . S
C1017 H1007 0.929 . S
C1017 C1015 1.433 . S
C1017 N1020 1.384 . S
C1018 H1009 0.929 . S
C1018 C1010 1.378 . S
C1018 C1013 1.350 . S
C1019 H1006 0.929 . S
C1019 C1011 1.433 . S
C1019 N1021 1.384 . S
N1020 C1016 1.427 . S
N1020 C1017 1.384 . S
N1021 C1013 1.427 . S
N1021 C1019 1.384 . S
H1022 C1028 0.930 . S
H1023 C1032 0.930 . S
H1024 C1037 0.929 . S
H1025 C1035 0.929 . S
H1026 C1030 0.929 . S
H1027 C1036 0.929 . S
C1028 H1022 0.930 . S
C1028 C1029 1.367 . S
C1028 C1036 1.378 . S
C1029 C1028 1.367 . S
C1029 C1037 1.433 . S
C1030 H1026 0.929 . S
C1030 C1032 1.378 . S
C1030 C1034 1.350 . S
C1031 C1034 1.463 . S
C1031 C1036 1.350 . S
C1031 N1039 1.427 . S
C1032 H1023 0.930 . S
C1032 C1030 1.378 . S
C1032 C1033 1.367 . S
C1033 C1032 1.367 . S
C1033 C1035 1.433 . S
C1034 C1030 1.350 . S
C1034 C1031 1.463 . S
C1034 N1038 1.427 . S
C1035 H1025 0.929 . S
C1035 C1033 1.433 . S
C1035 N1038 1.384 . S
C1036 H1027 0.929 . S
C1036 C1028 1.378 . S
C1036 C1031 1.350 . S
C1037 H1024 0.929 . S
C1037 C1029 1.433 . S
C1037 N1039 1.384 . S
N1038 C1034 1.427 . S
N1038 C1035 1.384 . S
N1039 C1031 1.427 . S
N1039 C1037 1.384 . S
C619 C350 1.578 . S
C615 C15 1.576 . S
C637 C389 1.597 . S
C633 C55 1.600 . S
C655 C365 1.592 . S
C651 C101 1.604 . S
C673 C404 1.638 . S
C669 C141 1.646 . S
C691 C452 1.549 . S
C687 C2 1.529 . S
C709 C485 1.539 . S
C705 C61 1.518 . S
C723 C95 1.673 . S
C727 C542 1.681 . S
C745 C590 1.537 . S
C741 C135 1.533 . S
C763 C437 1.553 . S
C759 C42 1.527 . S
C777 C82 1.526 . S
C781 C500 1.549 . S
C799 C557 1.635 . S
C795 C122 1.681 . S
C817 C605 1.530 . S
C813 C21 1.518 . S
C831 C162 1.640 . S
C835 C398 1.610 . S
C853 C341 1.608 . S
C849 C221 1.613 . S
C867 C255 1.602 . S
C871 C413 1.601 . S
C885 C282 1.556 . S
C889 C356 1.572 . S
C907 C533 1.659 . S
C903 C181 1.696 . S
C925 C596 1.547 . S
C921 C202 1.547 . S
C943 C461 1.562 . S
C939 C242 1.557 . S
C957 C301 1.524 . S
C961 C509 1.547 . S
C979 C548 1.666 . S
C975 C215 1.675 . S
C997 C581 1.538 . S
C993 C261 1.539 . S
C1015 C446 1.532 . S
C1011 C295 1.553 . S
C1029 C175 1.540 . S
C1033 C494 1.531 . S
