# Generated by pormake.
# Topology anh, (6,3)-cn, num edge types: 1
# Building blocks:
#     Node 0, Type 0, BuildingBlock: GEDQOX_clean_sbu_0, # of connection points: 6
#     Node 1, Type 0, BuildingBlock: GEDQOX_clean_sbu_0, # of connection points: 6
#     Node 2, Type 0, BuildingBlock: GEDQOX_clean_sbu_0, # of connection points: 6
#     Node 3, Type 1, BuildingBlock: BETDIP_clean_linker_0, # of connection points: 3
#     Node 4, Type 1, BuildingBlock: BETDIP_clean_linker_0, # of connection points: 3
#     Node 5, Type 1, BuildingBlock: BETDIP_clean_linker_0, # of connection points: 3
#     Node 6, Type 1, BuildingBlock: BETDIP_clean_linker_0, # of connection points: 3
#     Node 7, Type 1, BuildingBlock: BETDIP_clean_linker_0, # of connection points: 3
#     Node 8, Type 1, BuildingBlock: BETDIP_clean_linker_0, # of connection points: 3
#     Edge 9, Type (0, 1), BuildingBlock: XUDNAN_clean_linker_2, # of connection points: 2
#     Edge 10, Type (0, 1), BuildingBlock: XUDNAN_clean_linker_2, # of connection points: 2
#     Edge 11, Type (0, 1), BuildingBlock: XUDNAN_clean_linker_2, # of connection points: 2
#     Edge 12, Type (0, 1), BuildingBlock: XUDNAN_clean_linker_2, # of connection points: 2
#     Edge 13, Type (0, 1), BuildingBlock: XUDNAN_clean_linker_2, # of connection points: 2
#     Edge 14, Type (0, 1), BuildingBlock: XUDNAN_clean_linker_2, # of connection points: 2
#     Edge 15, Type (0, 1), BuildingBlock: XUDNAN_clean_linker_2, # of connection points: 2
#     Edge 16, Type (0, 1), BuildingBlock: XUDNAN_clean_linker_2, # of connection points: 2
#     Edge 17, Type (0, 1), BuildingBlock: XUDNAN_clean_linker_2, # of connection points: 2
#     Edge 18, Type (0, 1), BuildingBlock: XUDNAN_clean_linker_2, # of connection points: 2
#     Edge 19, Type (0, 1), BuildingBlock: XUDNAN_clean_linker_2, # of connection points: 2
#     Edge 20, Type (0, 1), BuildingBlock: XUDNAN_clean_linker_2, # of connection points: 2
#     Edge 21, Type (0, 1), BuildingBlock: XUDNAN_clean_linker_2, # of connection points: 2
#     Edge 22, Type (0, 1), BuildingBlock: XUDNAN_clean_linker_2, # of connection points: 2
#     Edge 23, Type (0, 1), BuildingBlock: XUDNAN_clean_linker_2, # of connection points: 2
#     Edge 24, Type (0, 1), BuildingBlock: XUDNAN_clean_linker_2, # of connection points: 2
#     Edge 25, Type (0, 1), BuildingBlock: XUDNAN_clean_linker_2, # of connection points: 2
#     Edge 26, Type (0, 1), BuildingBlock: XUDNAN_clean_linker_2, # of connection points: 2
# Relax obj value: 0.154
# Max RMSD: 0.181
# Mean RMSD: 0.125
data_MOF--net-anh--node1-GEDQOX_clean_sbu_0--node2-BETDIP_clean_linker_0--edge1-XUDNAN_clean_linker_2
_symmetry_space_group_name_H-M    P1
_symmetry_Int_Tables_number       1
_symmetry_cell_setting            triclinic
loop_
_symmetry_equiv_pos_as_xyz
'x, y, z'
_cell_length_a     30.558116
_cell_length_b     29.793196
_cell_length_c     49.632034
_cell_angle_alpha  95.432134
_cell_angle_beta   91.720175
_cell_angle_gamma 101.74469
loop_
_atom_site_label
_atom_site_type_symbol
_atom_site_fract_x
_atom_site_fract_y
_atom_site_fract_z
_atom_type_partial_charge
Nd0 Nd 0.15147 0.63736 0.15427 0.0
Nd1 Nd 0.1337 0.53173 0.14471 0.0
C2 C 0.1821 0.72635 0.15065 0.0
C3 C 0.22515 0.75982 0.15445 0.0
C4 C 0.26601 0.74538 0.1525 0.0
C5 C 0.30657 0.77767 0.15552 0.0
C6 C 0.30707 0.8251 0.16045 0.0
C7 C 0.26595 0.8393 0.16246 0.0
C8 C 0.22544 0.80695 0.1595 0.0
C9 C 0.13998 0.59371 0.20024 0.0
C10 C 0.23873 0.58302 0.14952 0.0
C11 C 0.10234 0.44247 0.14713 0.0
C12 C 1.06 0.41406 0.15473 0.0
C13 C 1.03001 0.43414 0.17019 0.0
C14 C 0.98986 0.40727 0.17736 0.0
C15 C 0.97899 0.35945 0.16953 0.0
C16 C 1.00904 0.33952 0.15377 0.0
C17 C 1.04913 0.36664 0.1464 0.0
C18 C 0.1437 0.57674 0.09898 0.0
C19 C 1.04763 0.58574 0.15137 0.0
O20 O 0.17855 0.69455 0.13017 0.0
O21 O 0.16456 0.71033 0.17244 0.0
O22 O 0.12575 0.63118 0.19693 0.0
O23 O 0.1618 0.58229 0.18046 0.0
O24 O 0.22337 0.62183 0.15093 0.0
O25 O 0.21098 0.54229 0.14812 0.0
O26 O 0.12652 0.46957 0.16679 0.0
O27 O 0.1003 0.46267 0.12499 0.0
O28 O 0.15902 0.53968 0.10168 0.0
O29 O 0.12234 0.58682 0.11917 0.0
O30 O 1.06413 0.54876 0.15535 0.0
O31 O 1.07461 0.62451 0.14629 0.0
H32 H 0.26658 0.7092 0.14839 0.0
H33 H 0.33752 0.7655 0.15359 0.0
H34 H 0.26505 0.87543 0.16666 0.0
H35 H 0.19426 0.81878 0.16109 0.0
H36 H 1.03779 0.47062 0.1769 0.0
H37 H 0.96732 0.4241 0.18907 0.0
H38 H 1.00213 0.30282 0.14763 0.0
H39 H 1.07186 0.3505 0.13443 0.0
Nd40 Nd 0.54617 1.00446 0.51679 0.0
Nd41 Nd 0.64715 0.02909 0.51258 0.0
C42 C 0.46456 0.96869 0.5303 0.0
C43 C 0.43567 0.92282 0.52439 0.0
C44 C 0.40396 0.90599 0.54276 0.0
C45 C 0.37648 0.86221 0.53711 0.0
C46 C 0.38024 0.83502 0.51291 0.0
C47 C 0.41269 0.85166 0.49484 0.0
C48 C 0.44043 0.89508 0.50063 0.0
C49 C 0.57344 1.00859 0.4648 0.0
C50 C 0.60431 0.92137 0.51202 0.0
C51 C 0.72987 0.06318 0.50016 0.0
C52 C 0.75736 0.10938 0.49873 0.0
C53 C 0.73853 0.14514 0.49002 0.0
C54 C 0.7653 0.18877 0.48862 0.0
C55 C 0.81115 0.1974 0.4962 0.0
C56 C 0.82965 0.16174 0.50536 0.0
C57 C 0.80295 0.11805 0.50655 0.0
C58 C 0.61944 0.01983 0.56381 0.0
C59 C 0.58838 0.11145 0.51624 0.0
O60 O 0.50014 0.9707 0.54603 0.0
O61 O 0.47279 0.99269 0.5096 0.0
O62 O 0.53729 0.02109 0.47279 0.0
O63 O 0.59171 0.99169 0.48332 0.0
O64 O 0.56743 0.93478 0.51954 0.0
O65 O 0.63913 0.95087 0.50459 0.0
O66 O 0.69657 0.04965 0.48208 0.0
O67 O 0.71937 0.05244 0.52441 0.0
O68 O 0.65399 1.00531 0.55477 0.0
O69 O 0.60177 0.04015 0.54659 0.0
O70 O 0.62552 0.09853 0.50881 0.0
O71 O 0.554 0.08219 0.52416 0.0
H72 H 0.40029 0.92681 0.56134 0.0
H73 H 0.35155 0.8501 0.55128 0.0
H74 H 0.41656 0.83104 0.47622 0.0
H75 H 0.46539 0.90714 0.48645 0.0
H76 H 0.70323 0.13935 0.48417 0.0
H77 H 0.75017 0.21581 0.48173 0.0
H78 H 0.865 0.16737 0.51105 0.0
H79 H 0.81795 0.09092 0.51344 0.0
Nd80 Nd 0.51755 0.47998 0.83303 0.0
Nd81 Nd 0.61776 0.49369 0.84286 0.0
C82 C 0.43457 0.46434 0.81246 0.0
C83 C 0.40874 0.49416 0.79986 0.0
C84 C 0.42992 0.5282 0.78412 0.0
C85 C 0.408 0.56216 0.77656 0.0
C86 C 0.36464 0.56313 0.78493 0.0
C87 C 0.34243 0.5272 0.7992 0.0
C88 C 0.36437 0.49301 0.80659 0.0
C89 C 0.54572 0.49301 0.88671 0.0
C90 C 0.57158 0.5837 0.84361 0.0
C91 C 0.703 0.51484 0.85938 0.0
C92 C 0.74521 0.50162 0.85182 0.0
C93 C 0.77361 0.49143 0.87202 0.0
C94 C 0.81634 0.48482 0.86598 0.0
C95 C 0.83142 0.48876 0.83967 0.0
C96 C 0.80193 0.49613 0.81908 0.0
C97 C 0.75903 0.50224 0.82506 0.0
C98 C 0.59022 0.48308 0.7891 0.0
C99 C 0.56326 0.38816 0.83368 0.0
O100 O 0.46772 0.45338 0.79892 0.0
O101 O 0.44516 0.47583 0.83829 0.0
O102 O 0.51293 0.50961 0.87725 0.0
O103 O 0.56054 0.46875 0.86843 0.0
O104 O 0.53779 0.5568 0.82914 0.0
O105 O 0.60254 0.56591 0.85547 0.0
O106 O 0.67355 0.48427 0.87012 0.0
O107 O 0.68502 0.53778 0.84243 0.0
O108 O 0.62278 0.46604 0.79839 0.0
O109 O 0.57516 0.50634 0.80776 0.0
O110 O 0.60269 0.41513 0.84028 0.0
O111 O 0.52698 0.40467 0.82913 0.0
H112 H 0.46422 0.53004 0.77885 0.0
H113 H 0.42586 0.589 0.76532 0.0
H114 H 0.30928 0.52721 0.80632 0.0
H115 H 0.34759 0.46726 0.81894 0.0
H116 H 0.76351 0.49065 0.89274 0.0
H117 H 0.83861 0.47982 0.88231 0.0
H118 H 0.81283 0.49926 0.79865 0.0
H119 H 0.73751 0.50942 0.80898 0.0
H120 H 0.626 0.06663 0.19743 0.0
H121 H 0.6876 0.09187 0.27808 0.0
H122 H 0.56445 0.99303 0.26205 0.0
H123 H 0.6966 0.10776 0.18605 0.0
C124 C 0.70976 0.13045 0.20415 0.0
C125 C 0.62637 0.0591 0.21833 0.0
C126 C 0.5914 0.02572 0.22721 0.0
C127 C 0.66127 0.08291 0.23686 0.0
C128 C 0.661 0.07312 0.26386 0.0
C129 C 0.62638 0.0407 0.27294 0.0
C130 C 0.59164 0.01744 0.25467 0.0
N131 N 0.6961 0.11894 0.23018 0.0
H132 H 0.5948 0.4736 0.51278 0.0
H133 H 0.58833 0.55944 0.58662 0.0
H134 H 0.58812 0.41543 0.58898 0.0
H135 H 0.54145 0.58803 0.55442 0.0
C136 C 0.56821 0.5946 0.54044 0.0
C137 C 0.59346 0.47775 0.53465 0.0
C138 C 0.59287 0.43974 0.54952 0.0
C139 C 0.59112 0.52087 0.54792 0.0
C140 C 0.5888 0.52588 0.57627 0.0
C141 C 0.58785 0.48814 0.59138 0.0
C142 C 0.59034 0.44527 0.57778 0.0
N143 N 0.59155 0.55905 0.53266 0.0
H144 H 0.13509 0.68814 0.84334 0.0
H145 H 0.19848 0.75462 0.91937 0.0
H146 H 0.12318 0.61533 0.91406 0.0
H147 H 0.14837 0.76667 0.83061 0.0
C148 C 0.18206 0.77101 0.83954 0.0
C149 C 0.14366 0.68701 0.86446 0.0
C150 C 0.12689 0.64667 0.87653 0.0
C151 C 0.16976 0.72609 0.87973 0.0
C152 C 0.17908 0.7244 0.90741 0.0
C153 C 0.16327 0.68397 0.91968 0.0
C154 C 0.13758 0.64535 0.90409 0.0
N155 N 0.1865 0.76746 0.8678 0.0
H156 H 0.11725 0.5493 0.46697 0.0
H157 H 1.05966 0.48407 0.38931 0.0
H158 H 0.18617 0.57874 0.3941 0.0
H159 H 0.99762 0.46477 0.4117 0.0
C160 C 1.00799 0.46249 0.43254 0.0
C161 C 0.11942 0.54402 0.44518 0.0
C162 C 0.1563 0.56805 0.43258 0.0
C163 C 1.08435 0.51385 0.42997 0.0
C164 C 1.08606 0.50748 0.40158 0.0
C165 C 0.1228 0.53107 0.38879 0.0
C166 C 0.15786 0.56089 0.40426 0.0
N167 N 1.04901 0.48957 0.44423 0.0
H168 H 0.57446 0.02982 0.83696 0.0
H169 H 0.57844 0.94089 0.764 0.0
H170 H 0.57314 0.08322 0.7595 0.0
H171 H 0.52623 0.89286 0.79343 0.0
C172 C 0.55279 0.89784 0.80919 0.0
C173 C 0.57521 0.02478 0.81508 0.0
C174 C 0.57459 0.06192 0.79965 0.0
C175 C 0.57585 0.98085 0.80225 0.0
C176 C 0.57657 0.97444 0.77382 0.0
C177 C 0.57612 0.01126 0.75814 0.0
C178 C 0.57517 0.05485 0.77133 0.0
N179 N 0.57632 0.94344 0.81803 0.0
H180 H 0.60144 0.58874 0.16225 0.0
H181 H 0.66934 0.55884 0.08992 0.0
H182 H 0.52733 0.54918 0.08532 0.0
H183 H 0.72418 0.62203 0.11471 0.0
C184 C 0.72521 0.60141 0.13157 0.0
C185 C 0.60041 0.57866 0.14066 0.0
C186 C 0.55861 0.5694 0.12534 0.0
C187 C 0.64097 0.57506 0.1279 0.0
C188 C 0.63889 0.56194 0.09988 0.0
C189 C 0.59817 0.55244 0.08451 0.0
C190 C 0.55859 0.55623 0.09736 0.0
N191 N 0.68339 0.58275 0.14301 0.0
H192 H 0.28866 0.5198 0.12856 0.0
H193 H 0.3031 0.65475 0.17318 0.0
H194 H 0.3852 0.6632 0.17529 0.0
H195 H 0.38253 0.48486 0.16256 0.0
H196 H 0.39973 0.45714 0.13199 0.0
H197 H 0.34181 0.46013 0.13537 0.0
H198 H 0.34227 0.49967 0.0911 0.0
H199 H 0.40006 0.49651 0.08752 0.0
H200 H 0.38356 0.5513 0.08792 0.0
H201 H 0.46781 0.6575 0.17221 0.0
H202 H 0.5416 0.6414 0.15997 0.0
H203 H 0.47472 0.51162 0.11607 0.0
C204 C 0.30906 0.55092 0.13902 0.0
C205 C 0.2888 0.58652 0.15083 0.0
C206 C 0.31725 0.62696 0.16386 0.0
C207 C 0.36421 0.63201 0.16532 0.0
C208 C 0.38311 0.59652 0.15344 0.0
C209 C 0.35638 0.55691 0.14027 0.0
C210 C 0.38538 0.52524 0.12772 0.0
C211 C 0.37684 0.4791 0.14016 0.0
C212 C 0.37733 0.51775 0.09673 0.0
C213 C 0.43236 0.55316 0.1358 0.0
C214 C 0.43038 0.59394 0.15095 0.0
C215 C 0.46956 0.62554 0.16038 0.0
C216 C 0.51157 0.61593 0.15354 0.0
C217 C 0.51461 0.57523 0.13707 0.0
C218 C 0.47403 0.54317 0.12866 0.0
H219 H 0.81472 0.24748 0.45269 0.0
H220 H 0.87378 0.2488 0.5334 0.0
H221 H 0.92676 0.32137 0.52732 0.0
H222 H 0.91454 0.28391 0.42181 0.0
H223 H 0.89281 0.31899 0.39923 0.0
H224 H 0.85603 0.27052 0.41109 0.0
H225 H 0.80426 0.32384 0.42976 0.0
H226 H 0.8408 0.37256 0.4178 0.0
H227 H 0.82741 0.37395 0.45295 0.0
H228 H 0.9769 0.38956 0.51113 0.0
H229 H 1.02179 0.44833 0.48579 0.0
H230 H 0.93062 0.40235 0.41528 0.0
C231 C 0.83807 0.26373 0.46932 0.0
C232 C 0.84011 0.24285 0.49357 0.0
C233 C 0.87186 0.26433 0.51464 0.0
C234 C 0.90183 0.3056 0.51143 0.0
C235 C 0.8995 0.32486 0.48705 0.0
C236 C 0.86837 0.30473 0.46637 0.0
C237 C 0.87515 0.33047 0.44144 0.0
C238 C 0.88525 0.2991 0.41696 0.0
C239 C 0.83449 0.35146 0.43512 0.0
C240 C 0.9157 0.3675 0.45107 0.0
C241 C 0.92884 0.364 0.47756 0.0
C242 C 0.96667 0.393 0.49049 0.0
C243 C 0.99202 0.4262 0.47587 0.0
C244 C 0.97951 0.42984 0.44857 0.0
C245 C 0.9406 0.40047 0.4362 0.0
H246 H 0.51113 0.62998 0.82379 0.0
H247 H 0.64126 0.65239 0.86617 0.0
H248 H 0.64926 0.73664 0.86497 0.0
H249 H 0.53784 0.71387 0.7787 0.0
H250 H 0.48394 0.72963 0.77986 0.0
H251 H 0.48927 0.67252 0.78631 0.0
H252 H 0.45344 0.68487 0.83349 0.0
H253 H 0.44906 0.74193 0.82595 0.0
H254 H 0.4784 0.73423 0.85661 0.0
H255 H 0.64401 0.81932 0.85648 0.0
H256 H 0.62672 0.89074 0.84079 0.0
H257 H 0.50114 0.81198 0.80325 0.0
C258 C 0.5412 0.65247 0.83314 0.0
C259 C 0.57558 0.63444 0.84509 0.0
C260 C 0.61434 0.66533 0.857 0.0
C261 C 0.61917 0.71327 0.8564 0.0
C262 C 0.58483 0.72977 0.84401 0.0
C263 C 0.54652 0.70013 0.83274 0.0
C264 C 0.51505 0.72589 0.81975 0.0
C265 C 0.506 0.70951 0.78936 0.0
C266 C 0.47137 0.72144 0.83481 0.0
C267 C 0.54236 0.77456 0.82431 0.0
C268 C 0.58213 0.77649 0.83884 0.0
C269 C 0.61283 0.81811 0.84524 0.0
C270 C 0.60272 0.85851 0.8363 0.0
C271 C 0.56256 0.85675 0.82086 0.0
C272 C 0.53206 0.81426 0.81506 0.0
H273 H 0.99402 0.63891 0.12824 0.0
H274 H 0.98747 0.52561 0.17771 0.0
H275 H 0.90575 0.51866 0.17991 0.0
H276 H 0.908 0.6901 0.1607 0.0
H277 H 0.88524 0.70427 0.12944 0.0
H278 H 0.94352 0.70163 0.13274 0.0
H279 H 0.9336 0.64234 0.09024 0.0
H280 H 0.87535 0.64491 0.08676 0.0
H281 H 0.89117 0.59027 0.08907 0.0
H282 H 0.82218 0.52442 0.17678 0.0
H283 H 0.74674 0.53918 0.16585 0.0
H284 H 0.80688 0.64594 0.11685 0.0
C285 C 0.9755 0.6129 0.13975 0.0
C286 C 0.99784 0.58295 0.15292 0.0
C287 C 0.97169 0.54895 0.16734 0.0
C288 C 0.92498 0.54484 0.16882 0.0
C289 C 0.90399 0.57466 0.15554 0.0
C290 C 0.92849 0.60782 0.14108 0.0
C291 C 0.89762 0.63423 0.1276 0.0
C292 C 0.9093 0.68561 0.13826 0.0
C293 C 0.89956 0.62753 0.09658 0.0
C294 C 0.85211 0.611 0.13674 0.0
C295 C 0.85638 0.57695 0.15308 0.0
C296 C 0.81869 0.55104 0.16396 0.0
C297 C 0.7758 0.55974 0.15775 0.0
C298 C 0.77053 0.59384 0.14057 0.0
C299 C 0.80956 0.61971 0.13014 0.0
H300 H 0.33092 0.80641 0.46565 0.0
H301 H 0.35911 0.76351 0.54427 0.0
H302 H 0.30628 0.68882 0.53193 0.0
H303 H 0.21399 0.75716 0.46178 0.0
H304 H 0.21168 0.74083 0.42577 0.0
H305 H 0.25286 0.78967 0.44062 0.0
H306 H 0.31593 0.75327 0.41973 0.0
H307 H 0.27492 0.70421 0.40488 0.0
H308 H 0.32026 0.69598 0.42668 0.0
H309 H 0.25038 0.61886 0.5105 0.0
H310 H 0.19342 0.56066 0.48279 0.0
H311 H 0.20008 0.65223 0.41928 0.0
C312 C 0.32627 0.78105 0.48014 0.0
C313 C 0.34915 0.79027 0.5058 0.0
C314 C 0.34168 0.75685 0.52452 0.0
C315 C 0.31198 0.71442 0.51764 0.0
C316 C 0.28992 0.70638 0.49209 0.0
C317 C 0.29652 0.73893 0.47373 0.0
C318 C 0.26757 0.72274 0.44803 0.0
C319 C 0.23457 0.75448 0.44382 0.0
C320 C 0.2964 0.71881 0.42338 0.0
C321 C 0.24364 0.67586 0.45471 0.0
C322 C 0.25711 0.66686 0.48011 0.0
C323 C 0.23945 0.62563 0.49062 0.0
C324 C 0.20691 0.59292 0.47479 0.0
C325 C 0.19215 0.60181 0.44883 0.0
C326 C 0.21106 0.6439 0.43879 0.0
H327 H 0.6223 0.33655 0.81425 0.0
H328 H 0.49415 0.32636 0.85094 0.0
H329 H 0.48708 0.24207 0.85065 0.0
H330 H 0.58814 0.23437 0.76868 0.0
H331 H 0.64178 0.21815 0.77022 0.0
H332 H 0.63857 0.27794 0.77578 0.0
H333 H 0.68188 0.28475 0.82219 0.0
H334 H 0.68484 0.22478 0.81686 0.0
H335 H 0.66082 0.24623 0.84692 0.0
H336 H 0.49393 0.15877 0.84618 0.0
H337 H 0.50872 0.08155 0.83175 0.0
H338 H 0.62931 0.14533 0.79476 0.0
C339 C 0.59301 0.31651 0.82244 0.0
C340 C 0.55892 0.33778 0.83286 0.0
C341 C 0.52058 0.31054 0.84287 0.0
C342 C 0.51647 0.26277 0.84298 0.0
C343 C 0.55068 0.24272 0.8326 0.0
C344 C 0.58784 0.26861 0.82206 0.0
C345 C 0.61779 0.23812 0.80986 0.0
C346 C 0.62178 0.2424 0.77933 0.0
C347 C 0.66407 0.24913 0.82486 0.0
C348 C 0.59159 0.19108 0.81507 0.0
C349 C 0.55347 0.19454 0.82873 0.0
C350 C 0.52372 0.15564 0.83553 0.0
C351 C 0.53248 0.11199 0.82745 0.0
C352 C 0.57021 0.10771 0.81235 0.0
C353 C 0.60041 0.14781 0.80649 0.0
H354 H 0.54387 0.85377 0.53257 0.0
H355 H 0.66839 0.87704 0.49114 0.0
H356 H 0.67098 0.79466 0.4916 0.0
H357 H 0.57399 0.77703 0.57662 0.0
H358 H 0.51867 0.74121 0.57569 0.0
H359 H 0.52552 0.80119 0.57055 0.0
H360 H 0.47998 0.779 0.52466 0.0
H361 H 0.47298 0.71887 0.5296 0.0
H362 H 0.49725 0.73962 0.49931 0.0
H363 H 0.66057 0.70949 0.4977 0.0
H364 H 0.63974 0.62996 0.51067 0.0
H365 H 0.5232 0.66379 0.5489 0.0
C366 C 0.57155 0.84159 0.52335 0.0
C367 C 0.60587 0.87191 0.51171 0.0
C368 C 0.6417 0.85451 0.50017 0.0
C369 C 0.64338 0.80773 0.50025 0.0
C370 C 0.60904 0.77884 0.512 0.0
C371 C 0.57388 0.79522 0.52341 0.0
C372 C 0.54215 0.75772 0.53579 0.0
C373 C 0.53999 0.77003 0.56648 0.0
C374 C 0.49533 0.74825 0.52148 0.0
C375 C 0.56515 0.71766 0.52984 0.0
C376 C 0.60345 0.73034 0.51587 0.0
C377 C 0.63057 0.69917 0.50855 0.0
C378 C 0.61846 0.65406 0.51595 0.0
C379 C 0.5798 0.64082 0.53071 0.0
C380 C 0.55282 0.67302 0.53751 0.0
H381 H 0.8841 0.55798 0.81734 0.0
H382 H 0.88739 0.43274 0.85426 0.0
H383 H 0.97014 0.4525 0.85671 0.0
H384 H 0.99645 0.56844 0.78214 0.0
H385 H 1.00789 0.63002 0.79061 0.0
H386 H 0.95109 0.59884 0.78308 0.0
H387 H 0.92814 0.63315 0.82919 0.0
H388 H 0.98446 0.66402 0.83686 0.0
H389 H 0.95735 0.62525 0.85995 0.0
H390 H 1.04961 0.49355 0.86455 0.0
H391 H 0.11646 0.55318 0.87985 0.0
H392 H 1.05958 0.65397 0.8408 0.0
C393 C 0.90237 0.53349 0.82449 0.0
C394 C 0.87966 0.49348 0.83512 0.0
C395 C 0.9044 0.46326 0.84567 0.0
C396 C 0.95136 0.47413 0.84697 0.0
C397 C 0.97291 0.51531 0.83765 0.0
C398 C 0.94907 0.54441 0.82641 0.0
C399 C 0.97873 0.59062 0.82307 0.0
C400 C 0.98385 0.59736 0.79293 0.0
C401 C 0.96113 0.63054 0.83819 0.0
C402 C 1.02211 0.5844 0.83615 0.0
C403 C 1.01871 0.54017 0.8434 0.0
C404 C 1.0529 0.52798 0.85849 0.0
C405 C 0.09059 0.56224 0.86734 0.0
C406 C 0.09325 0.60846 0.86169 0.0
C407 C 1.05932 0.6189 0.84491 0.0
H408 H 0.38453 0.8189 0.18812 0.0
H409 H 0.32708 0.90979 0.14078 0.0
H410 H 0.39721 0.96863 0.14856 0.0
H411 H 0.43969 0.90343 0.23798 0.0
H412 H 0.4882 0.87846 0.24192 0.0
H413 H 0.43515 0.8422 0.23047 0.0
H414 H 0.47091 0.81154 0.18766 0.0
H415 H 0.52417 0.84785 0.199 0.0
H416 H 0.49993 0.85173 0.16596 0.0
H417 H 0.47206 0.0201 0.16468 0.0
H418 H 0.54308 0.06009 0.1893 0.0
H419 H 0.55208 0.93412 0.22434 0.0
C420 C 0.38698 0.85073 0.17885 0.0
C421 C 0.3502 0.8596 0.1638 0.0
C422 C 0.35457 0.9023 0.15262 0.0
C423 C 0.39445 0.9358 0.15672 0.0
C424 C 0.42989 0.92608 0.17189 0.0
C425 C 0.4265 0.88448 0.18271 0.0
C426 C 0.46823 0.88355 0.19969 0.0
C427 C 0.45713 0.87651 0.22926 0.0
C428 C 0.49223 0.84647 0.18733 0.0
C429 C 0.49515 0.93154 0.19735 0.0
C430 C 0.47282 0.95547 0.18098 0.0
C431 C 0.49012 1.00145 0.17723 0.0
C432 C 0.53064 0.02385 0.19115 0.0
C433 C 0.55318 1.00032 0.20876 0.0
C434 C 0.53561 0.95317 0.21112 0.0
H435 H 0.64969 0.18956 0.53503 0.0
H436 H 0.51796 0.14158 0.49534 0.0
H437 H 0.50977 0.22227 0.49392 0.0
H438 H 0.61838 0.27648 0.57872 0.0
H439 H 0.67093 0.31702 0.57864 0.0
H440 H 0.6693 0.25618 0.57276 0.0
H441 H 0.70758 0.2684 0.52734 0.0
H442 H 0.70911 0.32939 0.53307 0.0
H443 H 0.6828 0.29691 0.50227 0.0
H444 H 0.51445 0.30753 0.49843 0.0
H445 H 0.52666 0.39057 0.51451 0.0
H446 H 0.65196 0.38305 0.55524 0.0
C447 C 0.61954 0.1963 0.52564 0.0
C448 C 0.5846 0.15971 0.51498 0.0
C449 C 0.54506 0.1694 0.5035 0.0
C450 C 0.5403 0.21503 0.50243 0.0
C451 C 0.57514 0.25052 0.51333 0.0
C452 C 0.61371 0.24172 0.52513 0.0
C453 C 0.64365 0.28579 0.53827 0.0
C454 C 0.65097 0.28373 0.56891 0.0
C455 C 0.68844 0.2957 0.52441 0.0
C456 C 0.61543 0.32054 0.53253 0.0
C457 C 0.57667 0.29963 0.51742 0.0
C458 C 0.54478 0.32436 0.51013 0.0
C459 C 0.55204 0.37146 0.51919 0.0
C460 C 0.59034 0.39295 0.53581 0.0
C461 C 0.62271 0.36733 0.54222 0.0
H462 H 0.27697 0.56759 0.77311 0.0
H463 H 0.40889 0.65267 0.79317 0.0
H464 H 0.37607 0.72132 0.79996 0.0
H465 H 0.2285 0.66046 0.74059 0.0
H466 H 0.17498 0.64081 0.75451 0.0
H467 H 0.20953 0.60023 0.74469 0.0
H468 H 0.20597 0.57347 0.79295 0.0
H469 H 0.17186 0.61402 0.80292 0.0
H470 H 0.22347 0.6155 0.82185 0.0
H471 H 0.32914 0.77384 0.8182 0.0
H472 H 0.27064 0.80916 0.83979 0.0
H473 H 0.16864 0.69569 0.80261 0.0
C474 C 0.29902 0.60093 0.77802 0.0
C475 C 0.34554 0.60471 0.78268 0.0
C476 C 0.37331 0.64889 0.7892 0.0
C477 C 0.35494 0.68817 0.79318 0.0
C478 C 0.30875 0.68297 0.78994 0.0
C479 C 0.28116 0.64068 0.78173 0.0
C480 C 0.23231 0.64367 0.78256 0.0
C481 C 0.21002 0.63584 0.75387 0.0
C482 C 0.20697 0.60968 0.80118 0.0
C483 C 0.23686 0.69323 0.79447 0.0
C484 C 0.2813 0.71539 0.79848 0.0
C485 C 0.29418 0.75789 0.81403 0.0
C486 C 0.2609 0.77767 0.82628 0.0
C487 C 0.21547 0.75545 0.8223 0.0
C488 C 0.2032 0.71384 0.80528 0.0
H489 H 0.92154 0.28433 0.14132 0.0
H490 H 0.94241 0.36826 0.21895 0.0
H491 H 0.87403 0.32146 0.23473 0.0
H492 H 0.80023 0.26497 0.13722 0.0
H493 H 0.79272 0.20601 0.1226 0.0
H494 H 0.84247 0.24725 0.11656 0.0
H495 H 0.89171 0.19481 0.13519 0.0
H496 H 0.84215 0.15335 0.14118 0.0
H497 H 0.883 0.17647 0.16856 0.0
H498 H 0.80536 0.26512 0.24299 0.0
H499 H 0.74078 0.2009 0.24375 0.0
H500 H 0.76327 0.15091 0.16133 0.0
C501 C 0.91183 0.29283 0.16167 0.0
C502 C 0.93736 0.33055 0.17874 0.0
C503 C 0.92312 0.34042 0.20518 0.0
C504 C 0.88437 0.3138 0.21444 0.0
C505 C 0.86004 0.27716 0.19712 0.0
C506 C 0.87313 0.26644 0.17133 0.0
C507 C 0.84132 0.22423 0.15721 0.0
C508 C 0.81779 0.23636 0.1319 0.0
C509 C 0.86603 0.18489 0.15013 0.0
C510 C 0.80862 0.21278 0.17924 0.0
C511 C 0.82014 0.24402 0.20201 0.0
C512 C 0.79594 0.24046 0.22528 0.0
C513 C 0.7593 0.20368 0.22551 0.0
C514 C 0.74703 0.1707 0.20262 0.0
C515 C 0.77175 0.17574 0.17905 0.0
H516 H 0.17989 0.5543 0.05094 0.0
H517 H 0.11651 0.65682 0.0926 0.0
H518 H 0.12541 0.70159 0.05307 0.0
H519 H 0.25816 0.63116 0.0125 0.0
H520 H 0.24966 0.59103 0.98233 0.0
H521 H 0.24404 0.57003 0.01521 0.0
H522 H 0.16385 0.52441 0.00073 0.0
H523 H 0.16943 0.54488 0.9678 0.0
H524 H 0.1233 0.55435 0.98785 0.0
H525 H 0.13798 0.73353 0.00847 0.0
H526 H 0.14324 0.74446 0.95979 0.0
H527 H 0.19335 0.6186 0.94589 0.0
C528 C 0.16858 0.58656 0.05185 0.0
C529 C 0.1488 0.60291 0.0751 0.0
C530 C 0.13301 0.64443 0.07527 0.0
C531 C 0.13791 0.6701 0.05292 0.0
C532 C 0.15792 0.65332 0.03035 0.0
C533 C 0.17229 0.61209 0.02944 0.0
C534 C 0.18789 0.59914 0.00164 0.0
C535 C 0.23792 0.59778 0.00302 0.0
C536 C 0.15941 0.55298 0.98875 0.0
C537 C 0.17939 0.63913 0.98699 0.0
C538 C 0.16306 0.67054 0.00408 0.0
C539 C 0.15108 0.70941 -0.00509 0.0
C540 C 0.15447 0.71554 0.96732 0.0
C541 C 0.16898 0.68255 0.94927 0.0
C542 C 0.18256 0.64452 0.9594 0.0
H543 H 0.53125 0.0331 0.42076 0.0
H544 H 0.64924 0.98463 0.44579 0.0
H545 H 0.67603 0.988 0.39941 0.0
H546 H 0.51537 0.96718 0.3548 0.0
H547 H 0.49614 0.01144 0.33828 0.0
H548 H 0.48685 1.00635 0.37363 0.0
H549 H 0.52702 0.09168 0.38548 0.0
H550 H 0.53644 0.09702 0.35018 0.0
H551 H 0.58302 0.11081 0.37478 0.0
H552 H 0.69137 0.9998 0.3508 0.0
H553 H 0.69141 0.01375 0.30236 0.0
H554 H 0.56099 0.049 0.30826 0.0
C555 C 0.56272 0.02322 0.41645 0.0
C556 C 0.58861 1.00934 0.4369 0.0
C557 C 0.62931 0.99611 0.43048 0.0
C558 C 0.6447 0.99775 0.40419 0.0
C559 C 0.61856 0.01193 0.38449 0.0
C560 C 0.57817 0.02389 0.3902 0.0
C561 C 0.55596 0.03675 0.36519 0.0
C562 C 0.51092 1.00343 0.35753 0.0
C563 C 0.5503 0.08706 0.36916 0.0
C564 C 0.59036 0.03057 0.3446 0.0
C565 C 0.6264 0.0166 0.35619 0.0
C566 C 0.66316 0.0103 0.34142 0.0
C567 C 0.66298 0.01838 0.31404 0.0
C568 C 0.62607 0.03197 0.30174 0.0
C569 C 0.5893 0.03797 0.3172 0.0
H570 H 0.62625 0.44223 0.74576 0.0
H571 H 0.53726 0.53471 0.76722 0.0
H572 H 0.52527 0.54453 0.7189 0.0
H573 H 0.67939 0.50584 0.69407 0.0
H574 H 0.68476 0.45564 0.67216 0.0
H575 H 0.68394 0.45337 0.70827 0.0
H576 H 0.61734 0.38322 0.70155 0.0
H577 H 0.61805 0.38517 0.66539 0.0
H578 H 0.56737 0.38764 0.68262 0.0
H579 H 0.52442 0.54562 0.66851 0.0
H580 H 0.5346 0.53819 0.61933 0.0
H581 H 0.62781 0.44846 0.6308 0.0
C582 C 0.60387 0.46412 0.74021 0.0
C583 C 0.58185 0.48703 0.7601 0.0
C584 C 0.5534 0.51594 0.75218 0.0
C585 C 0.54671 0.522 0.72482 0.0
C586 C 0.56909 0.49914 0.70568 0.0
C587 C 0.59715 0.47084 0.71298 0.0
C588 C 0.61843 0.45164 0.68849 0.0
C589 C 0.66966 0.4676 0.6909 0.0
C590 C 0.60444 0.39878 0.68427 0.0
C591 C 0.59801 0.47368 0.66632 0.0
C592 C 0.56955 0.5008 0.67667 0.0
C593 C 0.54677 0.52463 0.66015 0.0
C594 C 0.5531 0.52049 0.63225 0.0
C595 C 0.58225 0.49298 0.62112 0.0
C596 C 0.60498 0.4694 0.63855 0.0
H597 H 0.64065 0.07795 0.60993 0.0
H598 H 0.56419 0.94363 0.57811 0.0
H599 H 0.54185 0.92754 0.6244 0.0
H600 H 0.6843 0.04104 0.66876 0.0
H601 H 0.68246 0.09259 0.69048 0.0
H602 H 0.68859 0.09529 0.65468 0.0
H603 H 0.61853 0.13143 0.65156 0.0
H604 H 0.61235 0.12911 0.68743 0.0
H605 H 0.56649 0.10218 0.66379 0.0
H606 H 0.53059 0.92532 0.67436 0.0
H607 H 0.53145 0.93643 0.7243 0.0
H608 H 0.61967 0.07051 0.72361 0.0
C609 C 0.61841 0.04566 0.61281 0.0
C610 C 0.60295 0.01238 0.59072 0.0
C611 C 0.57521 0.96982 0.59495 0.0
C612 C 0.5626 0.96039 0.6211 0.0
C613 C 0.57864 0.99379 0.64268 0.0
C614 C 0.60599 0.03555 0.63882 0.0
C615 C 0.62087 0.06434 0.66555 0.0
C616 C 0.67209 0.07385 0.67013 0.0
C617 C 0.60351 0.10943 0.66717 0.0
C618 C 0.5979 0.03215 0.68504 0.0
C619 C 0.57347 0.9918 0.67147 0.0
C620 C 0.54966 0.95677 0.68523 0.0
C621 C 0.55072 0.96323 0.71363 0.0
C622 C 0.57573 1.00429 0.72801 0.0
C623 C 0.59967 0.03899 0.71333 0.0
H624 H 0.51822 0.54505 0.92883 0.0
H625 H 0.60633 0.45051 0.90962 0.0
H626 H 0.62998 0.45596 0.95808 0.0
H627 H 0.59185 0.61833 0.98115 0.0
H628 H 0.54677 0.62783 0.0021 0.0
H629 H 0.53724 0.61686 0.96587 0.0
H630 H 0.47206 0.54843 0.97202 0.0
H631 H 0.48152 0.55907 0.00826 0.0
H632 H 0.48221 0.50296 0.99135 0.0
H633 H 0.64221 0.4698 0.0087 0.0
H634 H 0.64377 0.49267 0.05789 0.0
H635 H 0.54961 0.58032 0.04395 0.0
C636 C 0.54254 0.52559 0.93486 0.0
C637 C 0.5604 0.49725 0.91558 0.0
C638 C 0.59227 0.47242 0.92413 0.0
C639 C 0.60587 0.47526 0.95158 0.0
C640 C 0.58743 0.50328 0.97016 0.0
C641 C 0.55664 0.52821 0.96217 0.0
C642 C 0.54201 0.55578 0.98622 0.0
C643 C 0.55528 0.60778 0.98368 0.0
C644 C 0.49145 0.54063 0.98966 0.0
C645 C 0.56904 0.54208 0.00899 0.0
C646 C 0.59501 0.51179 -0.00071 0.0
C647 C 0.6223 0.49381 0.01652 0.0
C648 C 0.62315 0.50722 0.04442 0.0
C649 C 0.59699 0.53847 0.05485 0.0
C650 C 0.56967 0.55604 0.03673 0.0
H651 H 0.09215 0.61304 0.24366 0.0
H652 H 0.18207 0.52599 0.21442 0.0
H653 H 0.18193 0.49439 0.2588 0.0
H654 H 0.14118 0.64305 0.30874 0.0
H655 H 0.08948 0.6422 0.32542 0.0
H656 H 0.0931 0.65417 0.29063 0.0
H657 H 1.02544 0.58692 0.27692 0.0
H658 H 1.02155 0.57477 0.31176 0.0
H659 H 1.02712 0.52999 0.2858 0.0
H660 H 0.17874 0.47932 0.30797 0.0
H661 H 0.17021 0.47989 0.35759 0.0
H662 H 1.08046 0.57459 0.3539 0.0
C663 C 0.11127 0.58681 0.24648 0.0
C664 C 0.1372 0.57194 0.22575 0.0
C665 C 0.16191 0.53771 0.23012 0.0
C666 C 0.16197 0.51956 0.25521 0.0
C667 C 0.13668 0.53563 0.27548 0.0
C668 C 0.11141 0.56815 0.27127 0.0
C669 C 0.08892 0.58145 0.29669 0.0
C670 C 0.1041 0.63328 0.3059 0.0
C671 C 1.03772 0.56743 0.29254 0.0
C672 C 0.10661 0.55248 0.31615 0.0
C673 C 0.13389 0.52602 0.30353 0.0
C674 C 0.15671 0.4991 0.31793 0.0
C675 C 0.15176 0.49959 0.34598 0.0
C676 C 0.12407 0.52656 0.35908 0.0
C677 C 0.1009 0.55286 0.34399 0.0
loop_
_geom_bond_atom_site_label_1
_geom_bond_atom_site_label_2
_geom_bond_distance
_geom_bond_site_symmetry_2
_ccdc_geom_bond_type
Nd0 C2 2.836 . S
Nd0 O20 2.500 . S
Nd0 O21 2.492 . S
Nd0 O22 2.487 . S
Nd0 O23 2.682 . S
Nd0 O24 2.410 . S
Nd0 O29 2.414 . S
Nd0 O31 2.424 1_455 S
Nd1 C11 2.836 1_455 S
Nd1 O23 2.414 . S
Nd1 O25 2.424 . S
Nd1 O26 2.500 1_455 S
Nd1 O27 2.492 1_455 S
Nd1 O28 2.487 . S
Nd1 O29 2.682 . S
Nd1 O30 2.410 1_455 S
C2 Nd0 2.836 . S
C2 C3 1.498 . S
C2 O20 1.258 . S
C2 O21 1.239 . S
C3 C2 1.498 . S
C3 C4 1.366 . S
C3 C8 1.407 . S
C4 C3 1.366 . S
C4 C5 1.392 . S
C4 H32 0.930 . S
C5 C4 1.392 . S
C5 C6 1.398 . S
C5 H33 0.929 . S
C6 C5 1.398 . S
C6 C7 1.352 . S
C7 C6 1.352 . S
C7 C8 1.384 . S
C7 H34 0.930 . S
C8 C3 1.407 . S
C8 C7 1.384 . S
C8 H35 0.929 . S
C9 O22 1.241 . S
C9 O23 1.273 . S
C10 O24 1.251 . S
C10 O25 1.268 . S
C11 Nd1 2.836 1_655 S
C11 C12 1.498 . S
C11 O26 1.258 . S
C11 O27 1.239 . S
C12 C11 1.498 . S
C12 C13 1.366 . S
C12 C17 1.407 . S
C13 C12 1.366 . S
C13 C14 1.392 . S
C13 H36 0.930 . S
C14 C13 1.392 . S
C14 C15 1.398 . S
C14 H37 0.929 . S
C15 C14 1.398 . S
C15 C16 1.352 . S
C16 C15 1.352 . S
C16 C17 1.384 . S
C16 H38 0.930 . S
C17 C12 1.407 . S
C17 C16 1.384 . S
C17 H39 0.929 . S
C18 O28 1.241 . S
C18 O29 1.273 . S
C19 O30 1.251 . S
C19 O31 1.268 . S
O20 Nd0 2.500 . S
O20 C2 1.258 . S
O21 Nd0 2.492 . S
O21 C2 1.239 . S
O22 Nd0 2.487 . S
O22 C9 1.241 . S
O23 Nd0 2.682 . S
O23 Nd1 2.414 . S
O23 C9 1.273 . S
O24 Nd0 2.410 . S
O24 C10 1.251 . S
O25 Nd1 2.424 . S
O25 C10 1.268 . S
O26 Nd1 2.500 1_655 S
O26 C11 1.258 . S
O27 Nd1 2.492 1_655 S
O27 C11 1.239 . S
O28 Nd1 2.487 . S
O28 C18 1.241 . S
O29 Nd0 2.414 . S
O29 Nd1 2.682 . S
O29 C18 1.273 . S
O30 Nd1 2.410 1_655 S
O30 C19 1.251 . S
O31 Nd0 2.424 1_655 S
O31 C19 1.268 . S
H32 C4 0.930 . S
H33 C5 0.929 . S
H34 C7 0.930 . S
H35 C8 0.929 . S
H36 C13 0.930 . S
H37 C14 0.929 . S
H38 C16 0.930 . S
H39 C17 0.929 . S
Nd40 C42 2.836 1_545 S
Nd40 O60 2.500 1_545 S
Nd40 O61 2.492 1_545 S
Nd40 O62 2.487 . S
Nd40 O63 2.682 . S
Nd40 O64 2.410 1_545 S
Nd40 O69 2.414 . S
Nd40 O71 2.424 . S
Nd41 C51 2.836 . S
Nd41 O63 2.414 . S
Nd41 O65 2.424 1_545 S
Nd41 O66 2.500 . S
Nd41 O67 2.492 . S
Nd41 O68 2.487 . S
Nd41 O69 2.682 . S
Nd41 O70 2.410 . S
C42 Nd40 2.836 1_565 S
C42 C43 1.498 . S
C42 O60 1.258 . S
C42 O61 1.239 . S
C43 C42 1.498 . S
C43 C44 1.366 . S
C43 C48 1.407 . S
C44 C43 1.366 . S
C44 C45 1.392 . S
C44 H72 0.930 . S
C45 C44 1.392 . S
C45 C46 1.398 . S
C45 H73 0.929 . S
C46 C45 1.398 . S
C46 C47 1.352 . S
C47 C46 1.352 . S
C47 C48 1.384 . S
C47 H74 0.930 . S
C48 C43 1.407 . S
C48 C47 1.384 . S
C48 H75 0.929 . S
C49 O62 1.241 . S
C49 O63 1.273 . S
C50 O64 1.251 . S
C50 O65 1.268 . S
C51 Nd41 2.836 . S
C51 C52 1.498 . S
C51 O66 1.258 . S
C51 O67 1.239 . S
C52 C51 1.498 . S
C52 C53 1.366 . S
C52 C57 1.407 . S
C53 C52 1.366 . S
C53 C54 1.392 . S
C53 H76 0.930 . S
C54 C53 1.392 . S
C54 C55 1.398 . S
C54 H77 0.929 . S
C55 C54 1.398 . S
C55 C56 1.352 . S
C56 C55 1.352 . S
C56 C57 1.384 . S
C56 H78 0.930 . S
C57 C52 1.407 . S
C57 C56 1.384 . S
C57 H79 0.929 . S
C58 O68 1.241 . S
C58 O69 1.273 . S
C59 O70 1.251 . S
C59 O71 1.268 . S
O60 Nd40 2.500 1_565 S
O60 C42 1.258 . S
O61 Nd40 2.492 1_565 S
O61 C42 1.239 . S
O62 Nd40 2.487 . S
O62 C49 1.241 . S
O63 Nd40 2.682 . S
O63 Nd41 2.414 . S
O63 C49 1.273 . S
O64 Nd40 2.410 1_565 S
O64 C50 1.251 . S
O65 Nd41 2.424 1_565 S
O65 C50 1.268 . S
O66 Nd41 2.500 . S
O66 C51 1.258 . S
O67 Nd41 2.492 . S
O67 C51 1.239 . S
O68 Nd41 2.487 . S
O68 C58 1.241 . S
O69 Nd40 2.414 . S
O69 Nd41 2.682 . S
O69 C58 1.273 . S
O70 Nd41 2.410 . S
O70 C59 1.251 . S
O71 Nd40 2.424 . S
O71 C59 1.268 . S
H72 C44 0.930 . S
H73 C45 0.929 . S
H74 C47 0.930 . S
H75 C48 0.929 . S
H76 C53 0.930 . S
H77 C54 0.929 . S
H78 C56 0.930 . S
H79 C57 0.929 . S
Nd80 C82 2.836 . S
Nd80 O100 2.500 . S
Nd80 O101 2.492 . S
Nd80 O102 2.487 . S
Nd80 O103 2.682 . S
Nd80 O104 2.410 . S
Nd80 O109 2.414 . S
Nd80 O111 2.424 . S
Nd81 C91 2.836 . S
Nd81 O103 2.414 . S
Nd81 O105 2.424 . S
Nd81 O106 2.500 . S
Nd81 O107 2.492 . S
Nd81 O108 2.487 . S
Nd81 O109 2.682 . S
Nd81 O110 2.410 . S
C82 Nd80 2.836 . S
C82 C83 1.498 . S
C82 O100 1.258 . S
C82 O101 1.239 . S
C83 C82 1.498 . S
C83 C84 1.366 . S
C83 C88 1.407 . S
C84 C83 1.366 . S
C84 C85 1.392 . S
C84 H112 0.930 . S
C85 C84 1.392 . S
C85 C86 1.398 . S
C85 H113 0.929 . S
C86 C85 1.398 . S
C86 C87 1.352 . S
C87 C86 1.352 . S
C87 C88 1.384 . S
C87 H114 0.930 . S
C88 C83 1.407 . S
C88 C87 1.384 . S
C88 H115 0.929 . S
C89 O102 1.241 . S
C89 O103 1.273 . S
C90 O104 1.251 . S
C90 O105 1.268 . S
C91 Nd81 2.836 . S
C91 C92 1.498 . S
C91 O106 1.258 . S
C91 O107 1.239 . S
C92 C91 1.498 . S
C92 C93 1.366 . S
C92 C97 1.407 . S
C93 C92 1.366 . S
C93 C94 1.392 . S
C93 H116 0.930 . S
C94 C93 1.392 . S
C94 C95 1.398 . S
C94 H117 0.929 . S
C95 C94 1.398 . S
C95 C96 1.352 . S
C96 C95 1.352 . S
C96 C97 1.384 . S
C96 H118 0.930 . S
C97 C92 1.407 . S
C97 C96 1.384 . S
C97 H119 0.929 . S
C98 O108 1.241 . S
C98 O109 1.273 . S
C99 O110 1.251 . S
C99 O111 1.268 . S
O100 Nd80 2.500 . S
O100 C82 1.258 . S
O101 Nd80 2.492 . S
O101 C82 1.239 . S
O102 Nd80 2.487 . S
O102 C89 1.241 . S
O103 Nd80 2.682 . S
O103 Nd81 2.414 . S
O103 C89 1.273 . S
O104 Nd80 2.410 . S
O104 C90 1.251 . S
O105 Nd81 2.424 . S
O105 C90 1.268 . S
O106 Nd81 2.500 . S
O106 C91 1.258 . S
O107 Nd81 2.492 . S
O107 C91 1.239 . S
O108 Nd81 2.487 . S
O108 C98 1.241 . S
O109 Nd80 2.414 . S
O109 Nd81 2.682 . S
O109 C98 1.273 . S
O110 Nd81 2.410 . S
O110 C99 1.251 . S
O111 Nd80 2.424 . S
O111 C99 1.268 . S
H112 C84 0.930 . S
H113 C85 0.929 . S
H114 C87 0.930 . S
H115 C88 0.929 . S
H116 C93 0.930 . S
H117 C94 0.929 . S
H118 C96 0.930 . S
H119 C97 0.929 . S
H120 C125 0.930 . S
H121 C128 0.930 . S
H122 C130 0.930 . S
H123 C124 1.016 . S
C124 H123 1.016 . S
C124 N131 1.286 . S
C125 H120 0.930 . S
C125 C126 1.397 . S
C125 C127 1.361 . S
C126 C125 1.397 . S
C126 C130 1.390 . S
C127 C125 1.361 . S
C127 C128 1.393 . S
C127 N131 1.413 . S
C128 H121 0.930 . S
C128 C127 1.393 . S
C128 C129 1.399 . S
C129 C128 1.399 . S
C129 C130 1.381 . S
C130 H122 0.930 . S
C130 C126 1.390 . S
C130 C129 1.381 . S
N131 C124 1.286 . S
N131 C127 1.413 . S
H132 C137 0.930 . S
H133 C140 0.930 . S
H134 C142 0.930 . S
H135 C136 1.016 . S
C136 H135 1.016 . S
C136 N143 1.286 . S
C137 H132 0.930 . S
C137 C138 1.397 . S
C137 C139 1.361 . S
C138 C137 1.397 . S
C138 C142 1.390 . S
C139 C137 1.361 . S
C139 C140 1.393 . S
C139 N143 1.413 . S
C140 H133 0.930 . S
C140 C139 1.393 . S
C140 C141 1.399 . S
C141 C140 1.399 . S
C141 C142 1.381 . S
C142 H134 0.930 . S
C142 C138 1.390 . S
C142 C141 1.381 . S
N143 C136 1.286 . S
N143 C139 1.413 . S
H144 C149 0.930 . S
H145 C152 0.930 . S
H146 C154 0.908 1_655 S
H147 C148 1.016 . S
C148 H147 1.016 . S
C148 N155 1.286 . S
C149 H144 0.930 . S
C149 C150 1.397 1_455 S
C149 C151 1.361 . S
C150 C149 1.397 1_655 S
C150 C154 1.388 1_655 S
C151 C149 1.361 . S
C151 C152 1.393 . S
C151 N155 1.413 . S
C152 H145 0.930 . S
C152 C151 1.393 . S
C152 C153 1.399 . S
C153 C152 1.399 . S
C153 C154 1.406 . S
C154 H146 0.908 1_455 S
C154 C150 1.388 1_455 S
C154 C153 1.406 . S
N155 C148 1.286 . S
N155 C151 1.413 . S
H156 C161 0.930 . S
H157 C164 0.930 . S
H158 C166 0.930 . S
H159 C160 1.016 . S
C160 H159 1.016 . S
C160 N167 1.286 . S
C161 H156 0.930 . S
C161 C162 1.397 . S
C161 C163 1.361 1_455 S
C162 C161 1.397 . S
C162 C166 1.390 . S
C163 C161 1.361 1_655 S
C163 C164 1.393 . S
C163 N167 1.413 . S
C164 H157 0.930 . S
C164 C163 1.393 . S
C164 C165 1.399 1_655 S
C165 C164 1.399 1_455 S
C165 C166 1.381 . S
C166 H158 0.930 . S
C166 C162 1.390 . S
C166 C165 1.381 . S
N167 C160 1.286 . S
N167 C163 1.413 . S
H168 C173 0.930 . S
H169 C176 0.930 . S
H170 C178 0.930 . S
H171 C172 1.016 . S
C172 H171 1.016 . S
C172 N179 1.286 . S
C173 H168 0.930 . S
C173 C174 1.397 . S
C173 C175 1.361 . S
C174 C173 1.397 . S
C174 C178 1.390 . S
C175 C173 1.361 . S
C175 C176 1.393 1_545 S
C175 N179 1.413 1_545 S
C176 H169 0.930 . S
C176 C175 1.393 1_565 S
C176 C177 1.399 1_565 S
C177 C176 1.399 1_545 S
C177 C178 1.381 . S
C178 H170 0.930 . S
C178 C174 1.390 . S
C178 C177 1.381 . S
N179 C172 1.286 . S
N179 C175 1.413 1_565 S
H180 C185 0.930 . S
H181 C188 0.930 . S
H182 C190 0.930 . S
H183 C184 1.016 . S
C184 H183 1.016 . S
C184 N191 1.286 . S
C185 H180 0.930 . S
C185 C186 1.397 . S
C185 C187 1.361 . S
C186 C185 1.397 . S
C186 C190 1.390 . S
C187 C185 1.361 . S
C187 C188 1.393 . S
C187 N191 1.413 . S
C188 H181 0.930 . S
C188 C187 1.393 . S
C188 C189 1.399 . S
C189 C188 1.399 . S
C189 C190 1.381 . S
C190 H182 0.930 . S
C190 C186 1.390 . S
C190 C189 1.381 . S
N191 C184 1.286 . S
N191 C187 1.413 . S
H192 C204 0.930 . S
H193 C206 0.930 . S
H194 C207 0.930 . S
H195 C211 0.959 . S
H196 C211 0.959 . S
H197 C211 0.961 . S
H198 C212 0.960 . S
H199 C212 0.961 . S
H200 C212 0.959 . S
H201 C215 0.929 . S
H202 C216 0.931 . S
H203 C218 0.930 . S
C204 H192 0.930 . S
C204 C205 1.399 . S
C204 C209 1.399 . S
C205 C204 1.399 . S
C205 C206 1.376 . S
C206 H193 0.930 . S
C206 C205 1.376 . S
C206 C207 1.388 . S
C207 H194 0.930 . S
C207 C206 1.388 . S
C207 C208 1.390 . S
C208 C207 1.390 . S
C208 C209 1.394 . S
C208 C214 1.465 . S
C209 C204 1.399 . S
C209 C208 1.394 . S
C209 C210 1.516 . S
C210 C209 1.516 . S
C210 C211 1.502 . S
C210 C212 1.561 . S
C210 C213 1.526 . S
C211 H195 0.959 . S
C211 H196 0.959 . S
C211 H197 0.961 . S
C211 C210 1.502 . S
C212 H198 0.960 . S
C212 H199 0.961 . S
C212 H200 0.959 . S
C212 C210 1.561 . S
C213 C210 1.526 . S
C213 C214 1.396 . S
C213 C218 1.390 . S
C214 C208 1.465 . S
C214 C213 1.396 . S
C214 C215 1.399 . S
C215 H201 0.929 . S
C215 C214 1.399 . S
C215 C216 1.385 . S
C216 H202 0.931 . S
C216 C215 1.385 . S
C216 C217 1.389 . S
C217 C216 1.389 . S
C217 C218 1.387 . S
C218 H203 0.930 . S
C218 C213 1.390 . S
C218 C217 1.387 . S
H219 C231 0.930 . S
H220 C233 0.930 . S
H221 C234 0.930 . S
H222 C238 0.959 . S
H223 C238 0.959 . S
H224 C238 0.961 . S
H225 C239 0.960 . S
H226 C239 0.961 . S
H227 C239 0.959 . S
H228 C242 0.929 . S
H229 C243 0.931 . S
H230 C245 0.930 . S
C231 H219 0.930 . S
C231 C232 1.399 . S
C231 C236 1.399 . S
C232 C231 1.399 . S
C232 C233 1.376 . S
C233 H220 0.930 . S
C233 C232 1.376 . S
C233 C234 1.388 . S
C234 H221 0.930 . S
C234 C233 1.388 . S
C234 C235 1.390 . S
C235 C234 1.390 . S
C235 C236 1.394 . S
C235 C241 1.465 . S
C236 C231 1.399 . S
C236 C235 1.394 . S
C236 C237 1.516 . S
C237 C236 1.516 . S
C237 C238 1.502 . S
C237 C239 1.561 . S
C237 C240 1.526 . S
C238 H222 0.959 . S
C238 H223 0.959 . S
C238 H224 0.961 . S
C238 C237 1.502 . S
C239 H225 0.960 . S
C239 H226 0.961 . S
C239 H227 0.959 . S
C239 C237 1.561 . S
C240 C237 1.526 . S
C240 C241 1.396 . S
C240 C245 1.390 . S
C241 C235 1.465 . S
C241 C240 1.396 . S
C241 C242 1.399 . S
C242 H228 0.929 . S
C242 C241 1.399 . S
C242 C243 1.385 . S
C243 H229 0.931 . S
C243 C242 1.385 . S
C243 C244 1.389 . S
C244 C243 1.389 . S
C244 C245 1.387 . S
C245 H230 0.930 . S
C245 C240 1.390 . S
C245 C244 1.387 . S
H246 C258 0.930 . S
H247 C260 0.930 . S
H248 C261 0.930 . S
H249 C265 0.959 . S
H250 C265 0.959 . S
H251 C265 0.961 . S
H252 C266 0.960 . S
H253 C266 0.961 . S
H254 C266 0.959 . S
H255 C269 0.929 . S
H256 C270 0.931 . S
H257 C272 0.930 . S
C258 H246 0.930 . S
C258 C259 1.399 . S
C258 C263 1.399 . S
C259 C258 1.399 . S
C259 C260 1.376 . S
C260 H247 0.930 . S
C260 C259 1.376 . S
C260 C261 1.388 . S
C261 H248 0.930 . S
C261 C260 1.388 . S
C261 C262 1.390 . S
C262 C261 1.390 . S
C262 C263 1.394 . S
C262 C268 1.465 . S
C263 C258 1.399 . S
C263 C262 1.394 . S
C263 C264 1.516 . S
C264 C263 1.516 . S
C264 C265 1.502 . S
C264 C266 1.561 . S
C264 C267 1.526 . S
C265 H249 0.959 . S
C265 H250 0.959 . S
C265 H251 0.961 . S
C265 C264 1.502 . S
C266 H252 0.960 . S
C266 H253 0.961 . S
C266 H254 0.959 . S
C266 C264 1.561 . S
C267 C264 1.526 . S
C267 C268 1.396 . S
C267 C272 1.390 . S
C268 C262 1.465 . S
C268 C267 1.396 . S
C268 C269 1.399 . S
C269 H255 0.929 . S
C269 C268 1.399 . S
C269 C270 1.385 . S
C270 H256 0.931 . S
C270 C269 1.385 . S
C270 C271 1.389 . S
C271 C270 1.389 . S
C271 C272 1.387 . S
C272 H257 0.930 . S
C272 C267 1.390 . S
C272 C271 1.387 . S
H273 C285 0.930 . S
H274 C287 0.930 . S
H275 C288 0.930 . S
H276 C292 0.959 . S
H277 C292 0.959 . S
H278 C292 0.961 . S
H279 C293 0.960 . S
H280 C293 0.961 . S
H281 C293 0.959 . S
H282 C296 0.929 . S
H283 C297 0.931 . S
H284 C299 0.930 . S
C285 H273 0.930 . S
C285 C286 1.399 . S
C285 C290 1.399 . S
C286 C285 1.399 . S
C286 C287 1.376 . S
C287 H274 0.930 . S
C287 C286 1.376 . S
C287 C288 1.388 . S
C288 H275 0.930 . S
C288 C287 1.388 . S
C288 C289 1.390 . S
C289 C288 1.390 . S
C289 C290 1.394 . S
C289 C295 1.465 . S
C290 C285 1.399 . S
C290 C289 1.394 . S
C290 C291 1.516 . S
C291 C290 1.516 . S
C291 C292 1.502 . S
C291 C293 1.561 . S
C291 C294 1.526 . S
C292 H276 0.959 . S
C292 H277 0.959 . S
C292 H278 0.961 . S
C292 C291 1.502 . S
C293 H279 0.960 . S
C293 H280 0.961 . S
C293 H281 0.959 . S
C293 C291 1.561 . S
C294 C291 1.526 . S
C294 C295 1.396 . S
C294 C299 1.390 . S
C295 C289 1.465 . S
C295 C294 1.396 . S
C295 C296 1.399 . S
C296 H282 0.929 . S
C296 C295 1.399 . S
C296 C297 1.385 . S
C297 H283 0.931 . S
C297 C296 1.385 . S
C297 C298 1.389 . S
C298 C297 1.389 . S
C298 C299 1.387 . S
C299 H284 0.930 . S
C299 C294 1.390 . S
C299 C298 1.387 . S
H300 C312 0.930 . S
H301 C314 0.930 . S
H302 C315 0.930 . S
H303 C319 0.959 . S
H304 C319 0.959 . S
H305 C319 0.961 . S
H306 C320 0.960 . S
H307 C320 0.961 . S
H308 C320 0.959 . S
H309 C323 0.929 . S
H310 C324 0.931 . S
H311 C326 0.930 . S
C312 H300 0.930 . S
C312 C313 1.399 . S
C312 C317 1.399 . S
C313 C312 1.399 . S
C313 C314 1.376 . S
C314 H301 0.930 . S
C314 C313 1.376 . S
C314 C315 1.388 . S
C315 H302 0.930 . S
C315 C314 1.388 . S
C315 C316 1.390 . S
C316 C315 1.390 . S
C316 C317 1.394 . S
C316 C322 1.465 . S
C317 C312 1.399 . S
C317 C316 1.394 . S
C317 C318 1.516 . S
C318 C317 1.516 . S
C318 C319 1.502 . S
C318 C320 1.561 . S
C318 C321 1.526 . S
C319 H303 0.959 . S
C319 H304 0.959 . S
C319 H305 0.961 . S
C319 C318 1.502 . S
C320 H306 0.960 . S
C320 H307 0.961 . S
C320 H308 0.959 . S
C320 C318 1.561 . S
C321 C318 1.526 . S
C321 C322 1.396 . S
C321 C326 1.390 . S
C322 C316 1.465 . S
C322 C321 1.396 . S
C322 C323 1.399 . S
C323 H309 0.929 . S
C323 C322 1.399 . S
C323 C324 1.385 . S
C324 H310 0.931 . S
C324 C323 1.385 . S
C324 C325 1.389 . S
C325 C324 1.389 . S
C325 C326 1.387 . S
C326 H311 0.930 . S
C326 C321 1.390 . S
C326 C325 1.387 . S
H327 C339 0.930 . S
H328 C341 0.930 . S
H329 C342 0.930 . S
H330 C346 0.959 . S
H331 C346 0.959 . S
H332 C346 0.961 . S
H333 C347 0.960 . S
H334 C347 0.961 . S
H335 C347 0.959 . S
H336 C350 0.929 . S
H337 C351 0.931 . S
H338 C353 0.930 . S
C339 H327 0.930 . S
C339 C340 1.399 . S
C339 C344 1.399 . S
C340 C339 1.399 . S
C340 C341 1.376 . S
C341 H328 0.930 . S
C341 C340 1.376 . S
C341 C342 1.388 . S
C342 H329 0.930 . S
C342 C341 1.388 . S
C342 C343 1.390 . S
C343 C342 1.390 . S
C343 C344 1.394 . S
C343 C349 1.465 . S
C344 C339 1.399 . S
C344 C343 1.394 . S
C344 C345 1.516 . S
C345 C344 1.516 . S
C345 C346 1.502 . S
C345 C347 1.561 . S
C345 C348 1.526 . S
C346 H330 0.959 . S
C346 H331 0.959 . S
C346 H332 0.961 . S
C346 C345 1.502 . S
C347 H333 0.960 . S
C347 H334 0.961 . S
C347 H335 0.959 . S
C347 C345 1.561 . S
C348 C345 1.526 . S
C348 C349 1.396 . S
C348 C353 1.390 . S
C349 C343 1.465 . S
C349 C348 1.396 . S
C349 C350 1.399 . S
C350 H336 0.929 . S
C350 C349 1.399 . S
C350 C351 1.385 . S
C351 H337 0.931 . S
C351 C350 1.385 . S
C351 C352 1.389 . S
C352 C351 1.389 . S
C352 C353 1.387 . S
C353 H338 0.930 . S
C353 C348 1.390 . S
C353 C352 1.387 . S
H354 C366 0.930 . S
H355 C368 0.930 . S
H356 C369 0.930 . S
H357 C373 0.959 . S
H358 C373 0.959 . S
H359 C373 0.961 . S
H360 C374 0.960 . S
H361 C374 0.961 . S
H362 C374 0.959 . S
H363 C377 0.929 . S
H364 C378 0.931 . S
H365 C380 0.930 . S
C366 H354 0.930 . S
C366 C367 1.399 . S
C366 C371 1.399 . S
C367 C366 1.399 . S
C367 C368 1.376 . S
C368 H355 0.930 . S
C368 C367 1.376 . S
C368 C369 1.388 . S
C369 H356 0.930 . S
C369 C368 1.388 . S
C369 C370 1.390 . S
C370 C369 1.390 . S
C370 C371 1.394 . S
C370 C376 1.465 . S
C371 C366 1.399 . S
C371 C370 1.394 . S
C371 C372 1.516 . S
C372 C371 1.516 . S
C372 C373 1.502 . S
C372 C374 1.561 . S
C372 C375 1.526 . S
C373 H357 0.959 . S
C373 H358 0.959 . S
C373 H359 0.961 . S
C373 C372 1.502 . S
C374 H360 0.960 . S
C374 H361 0.961 . S
C374 H362 0.959 . S
C374 C372 1.561 . S
C375 C372 1.526 . S
C375 C376 1.396 . S
C375 C380 1.390 . S
C376 C370 1.465 . S
C376 C375 1.396 . S
C376 C377 1.399 . S
C377 H363 0.929 . S
C377 C376 1.399 . S
C377 C378 1.385 . S
C378 H364 0.931 . S
C378 C377 1.385 . S
C378 C379 1.389 . S
C379 C378 1.389 . S
C379 C380 1.387 . S
C380 H365 0.930 . S
C380 C375 1.390 . S
C380 C379 1.387 . S
H381 C393 0.930 . S
H382 C395 0.930 . S
H383 C396 0.930 . S
H384 C400 0.959 . S
H385 C400 0.959 . S
H386 C400 0.961 . S
H387 C401 0.960 . S
H388 C401 0.961 . S
H389 C401 0.959 . S
H390 C404 0.929 . S
H391 C405 0.931 . S
H392 C407 0.930 . S
C393 H381 0.930 . S
C393 C394 1.399 . S
C393 C398 1.399 . S
C394 C393 1.399 . S
C394 C395 1.376 . S
C395 H382 0.930 . S
C395 C394 1.376 . S
C395 C396 1.388 . S
C396 H383 0.930 . S
C396 C395 1.388 . S
C396 C397 1.390 . S
C397 C396 1.390 . S
C397 C398 1.394 . S
C397 C403 1.465 . S
C398 C393 1.399 . S
C398 C397 1.394 . S
C398 C399 1.516 . S
C399 C398 1.516 . S
C399 C400 1.502 . S
C399 C401 1.561 . S
C399 C402 1.526 . S
C400 H384 0.959 . S
C400 H385 0.959 . S
C400 H386 0.961 . S
C400 C399 1.502 . S
C401 H387 0.960 . S
C401 H388 0.961 . S
C401 H389 0.959 . S
C401 C399 1.561 . S
C402 C399 1.526 . S
C402 C403 1.396 . S
C402 C407 1.390 . S
C403 C397 1.465 . S
C403 C402 1.396 . S
C403 C404 1.399 . S
C404 H390 0.929 . S
C404 C403 1.399 . S
C404 C405 1.385 . S
C405 H391 0.931 . S
C405 C404 1.385 . S
C405 C406 1.389 . S
C406 C405 1.389 . S
C406 C407 1.387 . S
C407 H392 0.930 . S
C407 C402 1.390 . S
C407 C406 1.387 . S
H408 C420 0.930 . S
H409 C422 0.930 . S
H410 C423 0.930 . S
H411 C427 0.959 . S
H412 C427 0.959 . S
H413 C427 0.961 . S
H414 C428 0.960 . S
H415 C428 0.961 . S
H416 C428 0.959 . S
H417 C431 0.929 . S
H418 C432 0.943 . S
H419 C434 0.930 . S
C420 H408 0.930 . S
C420 C421 1.399 . S
C420 C425 1.399 . S
C421 C420 1.399 . S
C421 C422 1.376 . S
C422 H409 0.930 . S
C422 C421 1.376 . S
C422 C423 1.388 . S
C423 H410 0.930 . S
C423 C422 1.388 . S
C423 C424 1.390 . S
C424 C423 1.390 . S
C424 C425 1.394 . S
C424 C430 1.465 . S
C425 C420 1.399 . S
C425 C424 1.394 . S
C425 C426 1.516 . S
C426 C425 1.516 . S
C426 C427 1.502 . S
C426 C428 1.561 . S
C426 C429 1.526 . S
C427 H411 0.959 . S
C427 H412 0.959 . S
C427 H413 0.961 . S
C427 C426 1.502 . S
C428 H414 0.960 . S
C428 H415 0.961 . S
C428 H416 0.959 . S
C428 C426 1.561 . S
C429 C426 1.526 . S
C429 C430 1.396 . S
C429 C434 1.390 . S
C430 C424 1.465 . S
C430 C429 1.396 . S
C430 C431 1.399 . S
C431 H417 0.929 . S
C431 C430 1.399 . S
C431 C432 1.381 1_565 S
C432 H418 0.943 . S
C432 C431 1.381 1_545 S
C432 C433 1.382 1_545 S
C433 C432 1.382 1_565 S
C433 C434 1.387 . S
C434 H419 0.930 . S
C434 C429 1.390 . S
C434 C433 1.387 . S
H435 C447 0.930 . S
H436 C449 0.930 . S
H437 C450 0.930 . S
H438 C454 0.959 . S
H439 C454 0.959 . S
H440 C454 0.961 . S
H441 C455 0.960 . S
H442 C455 0.961 . S
H443 C455 0.959 . S
H444 C458 0.929 . S
H445 C459 0.931 . S
H446 C461 0.930 . S
C447 H435 0.930 . S
C447 C448 1.399 . S
C447 C452 1.399 . S
C448 C447 1.399 . S
C448 C449 1.376 . S
C449 H436 0.930 . S
C449 C448 1.376 . S
C449 C450 1.388 . S
C450 H437 0.930 . S
C450 C449 1.388 . S
C450 C451 1.390 . S
C451 C450 1.390 . S
C451 C452 1.394 . S
C451 C457 1.465 . S
C452 C447 1.399 . S
C452 C451 1.394 . S
C452 C453 1.516 . S
C453 C452 1.516 . S
C453 C454 1.502 . S
C453 C455 1.561 . S
C453 C456 1.526 . S
C454 H438 0.959 . S
C454 H439 0.959 . S
C454 H440 0.961 . S
C454 C453 1.502 . S
C455 H441 0.960 . S
C455 H442 0.961 . S
C455 H443 0.959 . S
C455 C453 1.561 . S
C456 C453 1.526 . S
C456 C457 1.396 . S
C456 C461 1.390 . S
C457 C451 1.465 . S
C457 C456 1.396 . S
C457 C458 1.399 . S
C458 H444 0.929 . S
C458 C457 1.399 . S
C458 C459 1.385 . S
C459 H445 0.931 . S
C459 C458 1.385 . S
C459 C460 1.389 . S
C460 C459 1.389 . S
C460 C461 1.387 . S
C461 H446 0.930 . S
C461 C456 1.390 . S
C461 C460 1.387 . S
H462 C474 0.930 . S
H463 C476 0.930 . S
H464 C477 0.930 . S
H465 C481 0.959 . S
H466 C481 0.959 . S
H467 C481 0.961 . S
H468 C482 0.960 . S
H469 C482 0.961 . S
H470 C482 0.959 . S
H471 C485 0.929 . S
H472 C486 0.931 . S
H473 C488 0.930 . S
C474 H462 0.930 . S
C474 C475 1.399 . S
C474 C479 1.399 . S
C475 C474 1.399 . S
C475 C476 1.376 . S
C476 H463 0.930 . S
C476 C475 1.376 . S
C476 C477 1.388 . S
C477 H464 0.930 . S
C477 C476 1.388 . S
C477 C478 1.390 . S
C478 C477 1.390 . S
C478 C479 1.394 . S
C478 C484 1.465 . S
C479 C474 1.399 . S
C479 C478 1.394 . S
C479 C480 1.516 . S
C480 C479 1.516 . S
C480 C481 1.502 . S
C480 C482 1.561 . S
C480 C483 1.526 . S
C481 H465 0.959 . S
C481 H466 0.959 . S
C481 H467 0.961 . S
C481 C480 1.502 . S
C482 H468 0.960 . S
C482 H469 0.961 . S
C482 H470 0.959 . S
C482 C480 1.561 . S
C483 C480 1.526 . S
C483 C484 1.396 . S
C483 C488 1.390 . S
C484 C478 1.465 . S
C484 C483 1.396 . S
C484 C485 1.399 . S
C485 H471 0.929 . S
C485 C484 1.399 . S
C485 C486 1.385 . S
C486 H472 0.931 . S
C486 C485 1.385 . S
C486 C487 1.389 . S
C487 C486 1.389 . S
C487 C488 1.387 . S
C488 H473 0.930 . S
C488 C483 1.390 . S
C488 C487 1.387 . S
H489 C501 0.930 . S
H490 C503 0.930 . S
H491 C504 0.930 . S
H492 C508 0.959 . S
H493 C508 0.959 . S
H494 C508 0.961 . S
H495 C509 0.960 . S
H496 C509 0.961 . S
H497 C509 0.959 . S
H498 C512 0.929 . S
H499 C513 0.931 . S
H500 C515 0.930 . S
C501 H489 0.930 . S
C501 C502 1.399 . S
C501 C506 1.399 . S
C502 C501 1.399 . S
C502 C503 1.376 . S
C503 H490 0.930 . S
C503 C502 1.376 . S
C503 C504 1.388 . S
C504 H491 0.930 . S
C504 C503 1.388 . S
C504 C505 1.390 . S
C505 C504 1.390 . S
C505 C506 1.394 . S
C505 C511 1.465 . S
C506 C501 1.399 . S
C506 C505 1.394 . S
C506 C507 1.516 . S
C507 C506 1.516 . S
C507 C508 1.502 . S
C507 C509 1.561 . S
C507 C510 1.526 . S
C508 H492 0.959 . S
C508 H493 0.959 . S
C508 H494 0.961 . S
C508 C507 1.502 . S
C509 H495 0.960 . S
C509 H496 0.961 . S
C509 H497 0.959 . S
C509 C507 1.561 . S
C510 C507 1.526 . S
C510 C511 1.396 . S
C510 C515 1.390 . S
C511 C505 1.465 . S
C511 C510 1.396 . S
C511 C512 1.399 . S
C512 H498 0.929 . S
C512 C511 1.399 . S
C512 C513 1.385 . S
C513 H499 0.931 . S
C513 C512 1.385 . S
C513 C514 1.389 . S
C514 C513 1.389 . S
C514 C515 1.387 . S
C515 H500 0.930 . S
C515 C510 1.390 . S
C515 C514 1.387 . S
H516 C528 0.930 . S
H517 C530 0.930 . S
H518 C531 0.930 . S
H519 C535 0.959 . S
H520 C535 0.959 1_556 S
H521 C535 0.961 . S
H522 C536 0.960 . S
H523 C536 0.961 1_556 S
H524 C536 0.959 . S
H525 C539 0.929 1_554 S
H526 C540 0.931 . S
H527 C542 0.930 . S
C528 H516 0.930 . S
C528 C529 1.399 . S
C528 C533 1.399 . S
C529 C528 1.399 . S
C529 C530 1.376 . S
C530 H517 0.930 . S
C530 C529 1.376 . S
C530 C531 1.388 . S
C531 H518 0.930 . S
C531 C530 1.388 . S
C531 C532 1.390 . S
C532 C531 1.390 . S
C532 C533 1.394 . S
C532 C538 1.465 . S
C533 C528 1.399 . S
C533 C532 1.394 . S
C533 C534 1.516 . S
C534 C533 1.516 . S
C534 C535 1.502 . S
C534 C536 1.561 1_455 S
C534 C537 1.526 1_554 S
C535 H519 0.959 . S
C535 H520 0.959 1_554 S
C535 H521 0.961 . S
C535 C534 1.502 . S
C536 H522 0.960 . S
C536 H523 0.961 1_554 S
C536 H524 0.959 . S
C536 C534 1.561 1_655 S
C537 C534 1.526 1_556 S
C537 C538 1.396 1_556 S
C537 C542 1.390 . S
C538 C532 1.465 . S
C538 C537 1.396 1_554 S
C538 C539 1.399 1_554 S
C539 H525 0.929 1_556 S
C539 C538 1.399 1_556 S
C539 C540 1.385 . S
C540 H526 0.931 . S
C540 C539 1.385 . S
C540 C541 1.389 . S
C541 C540 1.389 . S
C541 C542 1.387 . S
C542 H527 0.930 . S
C542 C537 1.390 . S
C542 C541 1.387 . S
H543 C555 0.930 . S
H544 C557 0.930 1_565 S
H545 C558 0.930 . S
H546 C562 0.959 . S
H547 C562 0.959 . S
H548 C562 0.961 . S
H549 C563 0.960 . S
H550 C563 0.961 . S
H551 C563 0.959 . S
H552 C566 0.929 . S
H553 C567 0.931 1_565 S
H554 C569 0.930 . S
C555 H543 0.930 . S
C555 C556 1.399 . S
C555 C560 1.399 . S
C556 C555 1.399 . S
C556 C557 1.376 . S
C557 H544 0.930 1_545 S
C557 C556 1.376 . S
C557 C558 1.388 1_545 S
C558 H545 0.930 . S
C558 C557 1.388 1_565 S
C558 C559 1.390 1_565 S
C559 C558 1.390 1_545 S
C559 C560 1.394 . S
C559 C565 1.465 . S
C560 C555 1.399 . S
C560 C559 1.394 . S
C560 C561 1.516 . S
C561 C560 1.516 . S
C561 C562 1.502 . S
C561 C563 1.561 . S
C561 C564 1.526 . S
C562 H546 0.959 . S
C562 H547 0.959 . S
C562 H548 0.961 . S
C562 C561 1.502 . S
C563 H549 0.960 . S
C563 H550 0.961 . S
C563 H551 0.959 . S
C563 C561 1.561 . S
C564 C561 1.526 . S
C564 C565 1.396 . S
C564 C569 1.390 . S
C565 C559 1.465 . S
C565 C564 1.396 . S
C565 C566 1.399 1_545 S
C566 H552 0.929 . S
C566 C565 1.399 1_565 S
C566 C567 1.385 1_565 S
C567 H553 0.931 1_545 S
C567 C566 1.385 1_545 S
C567 C568 1.389 . S
C568 C567 1.389 . S
C568 C569 1.387 . S
C569 H554 0.930 . S
C569 C564 1.390 . S
C569 C568 1.387 . S
H570 C582 0.930 . S
H571 C584 0.930 . S
H572 C585 0.930 . S
H573 C589 0.959 . S
H574 C589 0.959 . S
H575 C589 0.961 . S
H576 C590 0.960 . S
H577 C590 0.961 . S
H578 C590 0.959 . S
H579 C593 0.929 . S
H580 C594 0.931 . S
H581 C596 0.930 . S
C582 H570 0.930 . S
C582 C583 1.399 . S
C582 C587 1.399 . S
C583 C582 1.399 . S
C583 C584 1.376 . S
C584 H571 0.930 . S
C584 C583 1.376 . S
C584 C585 1.388 . S
C585 H572 0.930 . S
C585 C584 1.388 . S
C585 C586 1.390 . S
C586 C585 1.390 . S
C586 C587 1.394 . S
C586 C592 1.465 . S
C587 C582 1.399 . S
C587 C586 1.394 . S
C587 C588 1.516 . S
C588 C587 1.516 . S
C588 C589 1.502 . S
C588 C590 1.561 . S
C588 C591 1.526 . S
C589 H573 0.959 . S
C589 H574 0.959 . S
C589 H575 0.961 . S
C589 C588 1.502 . S
C590 H576 0.960 . S
C590 H577 0.961 . S
C590 H578 0.959 . S
C590 C588 1.561 . S
C591 C588 1.526 . S
C591 C592 1.396 . S
C591 C596 1.390 . S
C592 C586 1.465 . S
C592 C591 1.396 . S
C592 C593 1.399 . S
C593 H579 0.929 . S
C593 C592 1.399 . S
C593 C594 1.385 . S
C594 H580 0.931 . S
C594 C593 1.385 . S
C594 C595 1.389 . S
C595 C594 1.389 . S
C595 C596 1.387 . S
C596 H581 0.930 . S
C596 C591 1.390 . S
C596 C595 1.387 . S
H597 C609 0.930 . S
H598 C611 0.930 . S
H599 C612 0.930 . S
H600 C616 0.959 . S
H601 C616 0.959 . S
H602 C616 0.961 . S
H603 C617 0.960 . S
H604 C617 0.961 . S
H605 C617 0.959 . S
H606 C620 0.929 . S
H607 C621 0.931 . S
H608 C623 0.930 . S
C609 H597 0.930 . S
C609 C610 1.399 . S
C609 C614 1.399 . S
C610 C609 1.399 . S
C610 C611 1.376 1_545 S
C611 H598 0.930 . S
C611 C610 1.376 1_565 S
C611 C612 1.388 . S
C612 H599 0.930 . S
C612 C611 1.388 . S
C612 C613 1.390 1_565 S
C613 C612 1.390 1_545 S
C613 C614 1.394 . S
C613 C619 1.465 . S
C614 C609 1.399 . S
C614 C613 1.394 . S
C614 C615 1.516 . S
C615 C614 1.516 . S
C615 C616 1.502 . S
C615 C617 1.561 . S
C615 C618 1.526 . S
C616 H600 0.959 . S
C616 H601 0.959 . S
C616 H602 0.961 . S
C616 C615 1.502 . S
C617 H603 0.960 . S
C617 H604 0.961 . S
C617 H605 0.959 . S
C617 C615 1.561 . S
C618 C615 1.526 . S
C618 C619 1.396 . S
C618 C623 1.390 . S
C619 C613 1.465 . S
C619 C618 1.396 . S
C619 C620 1.399 1_545 S
C620 H606 0.929 . S
C620 C619 1.399 1_565 S
C620 C621 1.385 . S
C621 H607 0.931 . S
C621 C620 1.385 . S
C621 C622 1.389 1_565 S
C622 C621 1.389 1_545 S
C622 C623 1.387 . S
C623 H608 0.930 . S
C623 C618 1.390 . S
C623 C622 1.387 . S
H624 C636 0.930 . S
H625 C638 0.930 . S
H626 C639 0.930 . S
H627 C643 0.959 . S
H628 C643 0.959 1_554 S
H629 C643 0.961 . S
H630 C644 0.960 . S
H631 C644 0.961 1_554 S
H632 C644 0.959 . S
H633 C647 0.929 . S
H634 C648 0.931 . S
H635 C650 0.930 . S
C636 H624 0.930 . S
C636 C637 1.399 . S
C636 C641 1.399 . S
C637 C636 1.399 . S
C637 C638 1.376 . S
C638 H625 0.930 . S
C638 C637 1.376 . S
C638 C639 1.388 . S
C639 H626 0.930 . S
C639 C638 1.388 . S
C639 C640 1.390 . S
C640 C639 1.390 . S
C640 C641 1.394 . S
C640 C646 1.501 . S
C641 C636 1.399 . S
C641 C640 1.394 . S
C641 C642 1.516 . S
C642 C641 1.516 . S
C642 C643 1.502 . S
C642 C644 1.561 . S
C642 C645 1.526 1_556 S
C643 H627 0.959 . S
C643 H628 0.959 1_556 S
C643 H629 0.961 . S
C643 C642 1.502 . S
C644 H630 0.960 . S
C644 H631 0.961 1_556 S
C644 H632 0.959 . S
C644 C642 1.561 . S
C645 C642 1.526 1_554 S
C645 C646 1.386 1_554 S
C645 C650 1.390 . S
C646 C640 1.501 . S
C646 C645 1.386 1_556 S
C646 C647 1.375 1_556 S
C647 H633 0.929 . S
C647 C646 1.375 1_554 S
C647 C648 1.385 . S
C648 H634 0.931 . S
C648 C647 1.385 . S
C648 C649 1.389 . S
C649 C648 1.389 . S
C649 C650 1.387 . S
C650 H635 0.930 . S
C650 C645 1.390 . S
C650 C649 1.387 . S
H651 C663 0.930 1_655 S
H652 C665 0.930 . S
H653 C666 0.930 . S
H654 C670 0.959 . S
H655 C670 0.959 . S
H656 C670 0.961 . S
H657 C671 0.960 . S
H658 C671 0.961 . S
H659 C671 0.959 1_455 S
H660 C674 0.929 . S
H661 C675 0.931 . S
H662 C677 0.930 . S
C663 H651 0.930 1_455 S
C663 C664 1.399 . S
C663 C668 1.399 . S
C664 C663 1.399 . S
C664 C665 1.376 . S
C665 H652 0.930 . S
C665 C664 1.376 . S
C665 C666 1.388 . S
C666 H653 0.930 . S
C666 C665 1.388 . S
C666 C667 1.390 . S
C667 C666 1.390 . S
C667 C668 1.394 . S
C667 C673 1.465 . S
C668 C663 1.399 . S
C668 C667 1.394 . S
C668 C669 1.516 1_455 S
C669 C668 1.516 1_655 S
C669 C670 1.502 . S
C669 C671 1.561 . S
C669 C672 1.526 1_655 S
C670 H654 0.959 . S
C670 H655 0.959 . S
C670 H656 0.961 . S
C670 C669 1.502 . S
C671 H657 0.960 . S
C671 H658 0.961 . S
C671 H659 0.959 1_655 S
C671 C669 1.561 . S
C672 C669 1.526 1_455 S
C672 C673 1.396 . S
C672 C677 1.390 1_455 S
C673 C667 1.465 . S
C673 C672 1.396 . S
C673 C674 1.399 . S
C674 H660 0.929 . S
C674 C673 1.399 . S
C674 C675 1.385 . S
C675 H661 0.931 . S
C675 C674 1.385 . S
C675 C676 1.389 . S
C676 C675 1.389 . S
C676 C677 1.387 1_455 S
C677 H662 0.930 . S
C677 C672 1.390 1_655 S
C677 C676 1.387 1_655 S
C205 C10 3.347 . S
C217 C186 3.329 . S
C232 C55 1.320 . S
C244 C160 1.304 . S
C259 C90 1.929 . S
C271 C172 1.889 . S
C286 C19 2.781 . S
C298 C184 2.699 . S
C325 C162 1.167 . S
C313 C46 1.173 . S
C352 C174 1.853 . S
C340 C99 1.861 . S
C367 C50 1.936 . S
C379 C136 1.852 . S
C394 C95 0.837 . S
C406 C150 0.813 . S
C421 C6 1.146 . S
C433 C126 1.139 1_565 S
C460 C138 1.823 . S
C448 C59 1.852 . S
C487 C148 0.141 . S
C475 C86 0.259 . S
C502 C15 1.271 . S
C514 C124 1.264 . S
C541 C153 1.255 . S
C529 C18 1.228 . S
C556 C49 1.495 . S
C568 C129 1.507 . S
C583 C98 1.411 . S
C595 C141 1.417 . S
C622 C177 1.475 . S
C610 C58 1.445 . S
C649 C189 1.775 . S
C637 C89 1.652 . S
C664 C9 1.475 . S
C676 C165 1.501 . S
