# Generated by pormake.
# Topology rtl, (3,6)-cn, num edge types: 1
# Building blocks:
#     Node 0, Type 0, BuildingBlock: CUQRIR_clean_linker_1, # of connection points: 3
#     Node 1, Type 0, BuildingBlock: CUQRIR_clean_linker_1, # of connection points: 3
#     Node 2, Type 0, BuildingBlock: CUQRIR_clean_linker_1, # of connection points: 3
#     Node 3, Type 0, BuildingBlock: CUQRIR_clean_linker_1, # of connection points: 3
#     Node 4, Type 1, BuildingBlock: KUMBUR_clean_sbu_1, # of connection points: 6
#     Node 5, Type 1, BuildingBlock: KUMBUR_clean_sbu_1, # of connection points: 6
#     Edge 6, Type (0, 1), BuildingBlock: OJICUG_clean_linker_0, # of connection points: 2
#     Edge 7, Type (0, 1), BuildingBlock: OJICUG_clean_linker_0, # of connection points: 2
#     Edge 8, Type (0, 1), BuildingBlock: OJICUG_clean_linker_0, # of connection points: 2
#     Edge 9, Type (0, 1), BuildingBlock: OJICUG_clean_linker_0, # of connection points: 2
#     Edge 10, Type (0, 1), BuildingBlock: OJICUG_clean_linker_0, # of connection points: 2
#     Edge 11, Type (0, 1), BuildingBlock: OJICUG_clean_linker_0, # of connection points: 2
#     Edge 12, Type (0, 1), BuildingBlock: OJICUG_clean_linker_0, # of connection points: 2
#     Edge 13, Type (0, 1), BuildingBlock: OJICUG_clean_linker_0, # of connection points: 2
#     Edge 14, Type (0, 1), BuildingBlock: OJICUG_clean_linker_0, # of connection points: 2
#     Edge 15, Type (0, 1), BuildingBlock: OJICUG_clean_linker_0, # of connection points: 2
#     Edge 16, Type (0, 1), BuildingBlock: OJICUG_clean_linker_0, # of connection points: 2
#     Edge 17, Type (0, 1), BuildingBlock: OJICUG_clean_linker_0, # of connection points: 2
# Relax obj value: 0.067
# Max RMSD: 0.252
# Mean RMSD: 0.191
data_MOF--net-rtl--node1-KUMBUR_clean_sbu_1--node2-CUQRIR_clean_linker_1--edge1-OJICUG_clean_linker_0
_symmetry_space_group_name_H-M    P1
_symmetry_Int_Tables_number       1
_symmetry_cell_setting            triclinic
loop_
_symmetry_equiv_pos_as_xyz
'x, y, z'
_cell_length_a     23.54192
_cell_length_b     23.899293
_cell_length_c     18.339907
_cell_angle_alpha  71.791713
_cell_angle_beta   97.930935
_cell_angle_gamma 91.615759
loop_
_atom_site_label
_atom_site_type_symbol
_atom_site_fract_x
_atom_site_fract_y
_atom_site_fract_z
_atom_type_partial_charge
C0 C 0.2686 0.83281 0.97525 0.0
N1 N 0.22556 0.86434 0.98605 0.0
N2 N 0.28693 0.78875 0.04065 0.0
C3 C 0.29126 0.8444 0.89926 0.0
C4 C 0.25387 0.79515 0.09258 0.0
N5 N 0.21649 0.84131 0.0595 0.0
C6 C 0.25271 0.75147 0.1719 0.0
H7 H 0.26572 0.81897 0.86541 0.0
H8 H 0.33698 0.83061 0.90835 0.0
H9 H 0.28673 0.89183 0.86527 0.0
H10 H 0.28617 0.76286 0.21357 0.0
H11 H 0.2621 0.70626 0.17177 0.0
H12 H 0.21035 0.75192 0.19178 0.0
C13 C 0.75125 0.7303 0.76987 0.0
N14 N 0.7121 0.68911 0.76177 0.0
N15 N 0.77695 0.75202 0.70506 0.0
C16 C 0.76861 0.74452 0.84392 0.0
C17 C 0.75186 0.72247 0.65719 0.0
N18 N 0.71291 0.68412 0.69172 0.0
C19 C 0.7641 0.73214 0.57575 0.0
H20 H 0.73908 0.77879 0.84711 0.0
H21 H 0.81309 0.76102 0.84738 0.0
H22 H 0.76565 0.70456 0.89401 0.0
H23 H 0.79932 0.70175 0.57724 0.0
H24 H 0.7775 0.77808 0.5492 0.0
H25 H 0.72601 0.72269 0.53887 0.0
C26 C 0.76353 0.20255 0.19659 0.0
N27 N 0.80938 0.17426 0.18659 0.0
N28 N 0.75163 0.25389 0.13852 0.0
C29 C 0.731 0.17919 0.2646 0.0
C30 C 0.7912 0.25466 0.09089 0.0
N31 N 0.8258 0.20607 0.11958 0.0
C32 C 0.80191 0.30652 0.02259 0.0
H33 H 0.68531 0.19348 0.24888 0.0
H34 H 0.75096 0.19595 0.31179 0.0
H35 H 0.73358 0.13035 0.28636 0.0
H36 H 0.79318 0.34853 0.03311 0.0
H37 H 0.77313 0.30444 0.9703 0.0
H38 H 0.84694 0.30615 1.01109 0.0
C39 C 0.3053 0.29069 0.43626 0.0
N40 N 0.34436 0.33101 0.44756 0.0
N41 N 0.2789 0.26716 0.50016 0.0
C42 C 0.29001 0.27854 0.36042 0.0
C43 C 0.30335 0.29506 0.55032 0.0
N44 N 0.34268 0.33418 0.51829 0.0
C45 C 0.2905 0.28242 0.63204 0.0
H46 H 0.27846 0.32066 0.31393 0.0
H47 H 0.25352 0.24823 0.36097 0.0
H48 H 0.32807 0.25973 0.34631 0.0
H49 H 0.27696 0.23615 0.65573 0.0
H50 H 0.25517 0.31205 0.63237 0.0
H51 H 0.32866 0.29054 0.67002 0.0
Tb52 Tb 0.05626 0.97067 0.53656 0.0
C53 C 0.91615 0.19018 0.54923 0.0
N54 N 0.96492 0.16824 0.59785 0.0
C55 C 0.99336 0.2656 0.59654 0.0
C56 C 0.90485 0.25135 0.52064 0.0
C57 C 1.00241 0.20457 0.62406 0.0
C58 C 0.94478 0.28917 0.54376 0.0
C59 C 0.82296 0.17218 0.48628 0.0
C60 C 0.87567 0.15087 0.53234 0.0
C61 C 0.81248 0.23319 0.45524 0.0
C62 C 0.85338 0.27266 0.47218 0.0
Tb63 Tb 0.97586 0.06865 0.63529 0.0
N64 N 0.88719 0.09192 0.56313 0.0
C65 C 0.7818 0.13152 0.47415 0.0
C66 C 0.84683 0.05227 0.55131 0.0
C67 C 0.79387 0.07141 0.50659 0.0
H68 H 0.03902 0.18619 0.66681 0.0
H69 H 0.76228 0.03967 0.49732 0.0
H70 H 0.98289 0.87205 0.47215 0.0
H71 H 0.26913 0.96226 0.6962 0.0
H72 H 0.85489 1.00588 0.57449 0.0
H73 H 0.74019 0.14596 0.441 0.0
H74 H 0.18051 0.01138 0.61863 0.0
H75 H 0.02358 0.29436 0.61656 0.0
H76 H 0.77243 0.25029 0.41917 0.0
H77 H 0.84413 0.31955 0.44912 0.0
H78 H 0.98875 0.7643 0.49533 0.0
H79 H 0.93764 0.33645 0.52307 0.0
H80 H 0.28025 0.85417 0.73159 0.0
N81 N 0.05731 0.87279 0.55179 0.0
C82 C 0.10273 0.84178 0.59979 0.0
C83 C 0.02088 0.78552 0.52539 0.0
C84 C 0.10826 0.78062 0.61403 0.0
C85 C 0.01756 0.84628 0.51249 0.0
C86 C 0.06598 0.75239 0.57722 0.0
N87 N 0.1406 0.93199 0.61084 0.0
C88 C 0.18446 0.96435 0.63317 0.0
C89 C 0.19604 0.84248 0.67455 0.0
C90 C 0.14611 0.87243 0.62957 0.0
C91 C 0.24065 0.87538 0.69855 0.0
C92 C 0.23478 0.93651 0.67791 0.0
H93 H 0.06866 0.70542 0.58664 0.0
H94 H 0.16157 0.70306 0.67416 0.0
H95 H 0.23841 0.75721 0.72716 0.0
O96 O 0.06033 0.02621 0.42238 0.0
O97 O 0.06667 0.95035 0.66294 0.0
O98 O 0.0617 0.03748 0.69091 0.0
O99 O 0.09852 0.93949 0.46286 0.0
O100 O 0.09496 0.05638 0.53159 0.0
O101 O 0.0598 0.10657 0.60804 0.0
O102 O 0.96806 0.02137 0.75181 0.0
O103 O 0.97359 0.08743 0.50995 0.0
O104 O 0.96902 0.99968 0.48527 0.0
O105 O 0.93918 0.11109 0.70273 0.0
O106 O 0.9453 0.97775 0.65376 0.0
O107 O 0.97374 0.93262 0.56771 0.0
C108 C 0.07897 0.98265 0.7092 0.0
C109 C 0.05815 0.97178 0.33316 0.0
C110 C 0.07049 0.93436 0.22581 0.0
C111 C 1.01044 0.92787 0.21364 0.0
C112 C 0.9988 0.96492 0.31942 0.0
C113 C 0.97509 0.94393 0.25926 0.0
C114 C 0.09352 0.95806 0.28516 0.0
C115 C 0.09501 0.10101 0.55975 0.0
C116 C 0.08458 0.98536 0.4032 0.0
C117 C 0.15675 0.75019 0.66192 0.0
C118 C 0.20058 0.78106 0.69199 0.0
C119 C 0.9529 0.05472 0.46722 0.0
C120 C 0.97606 0.08165 0.83412 0.0
C121 C 0.96693 0.11795 0.94328 0.0
C122 C 0.02721 0.1212 0.95622 0.0
C123 C 0.03577 0.08595 0.84785 0.0
C124 C 0.94196 0.0968 0.88246 0.0
C125 C 0.06117 0.1048 0.90928 0.0
C126 C 0.94465 0.93372 0.62426 0.0
C127 C 0.9483 0.06694 0.76551 0.0
H128 H 0.9903 0.90854 0.17079 0.0
H129 H 0.97104 0.97385 0.35674 0.0
H130 H 0.9292 0.93805 0.24968 0.0
H131 H 0.13916 0.96464 0.29614 0.0
H132 H 0.04838 0.13818 1.00098 0.0
H133 H 0.06258 0.07604 0.81011 0.0
H134 H 0.89586 0.09291 0.8714 0.0
H135 H 0.10735 0.10828 0.91925 0.0
Tb136 Tb 0.46182 0.48672 0.02147 0.0
C137 C 0.69113 0.58778 0.11796 0.0
N138 N 0.66592 0.53843 0.15935 0.0
C139 C 0.75623 0.48636 0.18994 0.0
C140 C 0.74946 0.58764 0.10806 0.0
C141 C 0.69871 0.48954 0.19996 0.0
C142 C 0.78145 0.53531 0.14232 0.0
C143 C 0.68538 0.69342 0.05531 0.0
C144 C 0.6597 0.63987 0.09183 0.0
C145 C 0.74282 0.69325 0.04267 0.0
C146 C 0.77468 0.64036 0.0683 0.0
Tb147 Tb 0.57081 0.54803 0.1686 0.0
N148 N 0.60447 0.63833 0.10584 0.0
C149 C 0.65304 0.74564 0.03488 0.0
C150 C 0.57395 0.68945 0.09076 0.0
C151 C 0.5973 0.74369 0.05364 0.0
H152 H 0.68111 0.45371 0.24216 0.0
H153 H 0.57249 0.78396 0.04007 0.0
H154 H 0.33776 0.54639 0.02249 0.0
H155 H 0.51948 0.25816 0.0729 0.0
H156 H 0.53138 0.68827 0.10649 0.0
H157 H 0.67118 0.78771 1.00658 0.0
H158 H 0.52569 0.36539 1.01371 0.0
H159 H 0.78147 0.44679 0.22072 0.0
H160 H 0.76339 0.73397 1.01478 0.0
H161 H 0.81937 0.64112 0.05978 0.0
H162 H 0.2464 0.51425 0.07404 0.0
H163 H 0.82637 0.53327 0.13603 0.0
H164 H 0.44001 0.21688 0.14788 0.0
N165 N 0.37569 0.46087 0.06534 0.0
C166 C 0.36766 0.40256 0.09921 0.0
C167 C 0.28035 0.48241 0.08209 0.0
C168 C 0.31623 0.38189 0.12873 0.0
C169 C 0.33214 0.50063 0.0533 0.0
C170 C 0.27264 0.42284 0.12097 0.0
N171 N 0.45703 0.38573 0.0658 0.0
C172 C 0.49378 0.3484 0.05138 0.0
C173 C 0.40284 0.30244 0.13185 0.0
C174 C 0.41042 0.36366 0.10086 0.0
C175 C 0.44417 0.26421 0.12487 0.0
C176 C 0.48918 0.28734 0.08284 0.0
H177 H 0.23245 0.40878 0.14299 0.0
H178 H 0.27013 0.30423 0.18546 0.0
H179 H 0.34639 0.2346 0.18934 0.0
O180 O 0.42811 0.45088 0.93342 0.0
O181 O 0.44139 0.48481 0.13579 0.0
O182 O 0.52717 0.46471 0.21494 0.0
O183 O 0.42734 0.54414 0.9125 0.0
O184 O 0.55062 0.45237 0.04943 0.0
O185 O 0.58497 0.45577 0.17296 0.0
O186 O 0.53683 0.57566 0.25238 0.0
O187 O 0.55733 0.59232 0.04226 0.0
O188 O 0.54514 0.51873 0.98699 0.0
O189 O 0.62628 0.55527 0.26548 0.0
O190 O 0.48401 0.58621 0.13905 0.0
O191 O 0.44504 0.57771 1.01875 0.0
C192 C 0.47128 0.45902 0.20354 0.0
C193 C 0.44353 0.50962 0.80877 0.0
C194 C 0.44399 0.48286 0.6904 0.0
C195 C 0.49278 0.5174 0.67473 0.0
C196 C 0.49208 0.54428 0.79156 0.0
C197 C 0.51649 0.54802 0.72497 0.0
C198 C 0.41952 0.47934 0.75766 0.0
C199 C 0.58558 0.43369 0.11527 0.0
C200 C 0.4192 0.50205 0.88139 0.0
C201 C 0.30943 0.32112 0.16272 0.0
C202 C 0.35286 0.28146 0.16483 0.0
C203 C 0.56817 0.56877 0.98983 0.0
C204 C 0.58555 0.54072 0.37987 0.0
C205 C 0.60626 0.54374 0.51275 0.0
C206 C 0.5935 0.48359 0.53989 0.0
C207 C 0.5723 0.48089 0.4078 0.0
C208 C 0.60169 0.57212 0.4324 0.0
C209 C 0.57584 0.45263 0.48756 0.0
C210 C 0.44789 0.60287 0.07409 0.0
C211 C 0.58567 0.57069 0.29666 0.0
H212 H 0.51206 0.52126 0.62317 0.0
H213 H 0.51135 0.56821 0.82965 0.0
H214 H 0.55404 0.57462 0.71247 0.0
H215 H 0.38253 0.4519 0.77128 0.0
H216 H 0.59718 0.46067 0.60151 0.0
H217 H 0.5602 0.45601 0.36808 0.0
H218 H 0.6128 0.61817 0.41076 0.0
H219 H 0.56578 0.40638 0.5089 0.0
C220 C 0.2359 0.17137 0.49969 0.0
C221 C 0.23193 0.22649 0.51094 0.0
H222 H 0.19556 0.08922 0.5041 0.0
C223 C 0.18213 0.2408 0.53583 0.0
H224 H 0.27404 0.15923 0.48085 0.0
C225 C 0.13794 0.2003 0.55144 0.0
C226 C 0.14182 0.14461 0.54163 0.0
H227 H 0.17753 0.28349 0.54345 0.0
H228 H 0.10059 0.21322 0.57029 0.0
C229 C 0.19104 0.13118 0.51381 0.0
C230 C 0.37073 0.72611 0.11252 0.0
C231 C 0.32693 0.74176 0.04949 0.0
H232 H 0.44259 0.66955 0.17065 0.0
C233 C 0.32285 0.71134 0.99469 0.0
H234 H 0.37492 0.7492 0.15518 0.0
C235 C 0.36291 0.66742 1.00136 0.0
C236 C 0.40657 0.65115 0.06487 0.0
H237 H 0.28847 0.72134 0.94672 0.0
H238 H 0.35908 0.64588 0.95705 0.0
C239 C 0.40973 0.68084 0.1207 0.0
C240 C 0.81446 0.85027 0.70331 0.0
C241 C 0.8208 0.79616 0.69003 0.0
H242 H 0.84914 0.93536 0.69562 0.0
C243 C 0.86993 0.78621 0.66008 0.0
H244 H 0.77705 0.85899 0.72664 0.0
C245 C 0.91039 0.83043 0.64012 0.0
C246 C 0.90317 0.88559 0.65019 0.0
H247 H 0.87687 0.74418 0.65174 0.0
H248 H 0.94762 0.82098 0.61767 0.0
C249 C 0.85559 0.89419 0.68471 0.0
C250 C 0.679 0.32997 0.06126 0.0
C251 C 0.71038 0.29938 0.13288 0.0
H252 H 0.61886 0.39909 0.99857 0.0
C253 C 0.7008 0.31404 0.19888 0.0
H254 H 0.68429 0.31927 1.00949 0.0
C255 C 0.65877 0.35568 0.19403 0.0
C256 C 0.62874 0.38755 0.12202 0.0
H257 H 0.72567 0.29346 0.25458 0.0
H258 H 0.65008 0.3629 0.24683 0.0
C259 C 0.64027 0.37484 0.05547 0.0
C260 C 0.12277 0.88373 0.06747 0.0
C261 C 0.17972 0.86627 0.09896 0.0
H262 H 0.04537 0.92242 0.0787 0.0
C263 C 0.20107 0.87352 0.17072 0.0
H264 H 0.10396 0.87769 1.01343 0.0
C265 C 0.166 0.8952 0.2116 0.0
C266 C 0.10884 0.91314 0.18036 0.0
H267 H 0.2451 0.86165 0.19593 0.0
H268 H 0.18405 0.89644 0.26852 0.0
C269 C 0.08831 0.90808 0.10665 0.0
C270 C 0.63981 0.69071 0.84677 0.0
C271 C 0.67446 0.65864 0.81688 0.0
H272 H 0.57862 0.68747 0.92446 0.0
C273 C 0.67355 0.59687 0.84391 0.0
H274 H 0.63954 0.73838 0.82643 0.0
C275 C 0.63856 0.56772 0.89961 0.0
C276 C 0.60454 0.59985 0.93029 0.0
H277 H 0.70098 0.57111 0.8236 0.0
H278 H 0.63901 0.52 0.91989 0.0
C279 C 0.60523 0.66163 0.90296 0.0
C280 C 0.88635 0.17379 0.29009 0.0
C281 C 0.84887 0.14203 0.25217 0.0
H282 H 0.94873 0.17111 0.38706 0.0
C283 C 0.84625 0.08068 0.28387 0.0
H284 H 0.88786 0.22133 0.26675 0.0
C285 C 0.88087 0.0515 0.35349 0.0
C286 C 0.91811 0.08362 0.39186 0.0
H287 H 0.81651 0.05591 0.25587 0.0
H288 H 0.87731 1.00427 0.37839 0.0
C289 C 0.92067 0.145 0.35902 0.0
C290 C 0.33511 0.4159 0.571 0.0
C291 C 0.36949 0.37793 0.5501 0.0
H292 H 0.3317 0.47877 0.63183 0.0
C293 C 0.42917 0.37816 0.56985 0.0
H294 H 0.28896 0.41642 0.55593 0.0
C295 C 0.45382 0.41398 0.61307 0.0
C296 C 0.41898 0.44962 0.63771 0.0
H297 H 0.45631 0.34846 0.55547 0.0
H298 H 0.49976 0.4116 0.63054 0.0
C299 C 0.3595 0.45114 0.61469 0.0
C300 C 0.6298 0.66492 0.60629 0.0
C301 C 0.67976 0.64454 0.65839 0.0
H302 H 0.56711 0.64871 0.51865 0.0
C303 C 0.70264 0.58902 0.6668 0.0
H304 H 0.61244 0.70827 0.59804 0.0
C305 C 0.6766 0.55464 0.62269 0.0
C306 C 0.62825 0.57619 0.56754 0.0
H307 H 0.74217 0.57356 0.70507 0.0
H308 H 0.69622 0.51276 0.62841 0.0
C309 C 0.60441 0.63119 0.56072 0.0
C310 C 0.84237 0.18662 0.9997 0.0
C311 C 0.86222 0.1843 0.07645 0.0
H312 H 0.85969 0.17044 0.89706 0.0
C313 C 0.91645 0.15869 0.11002 0.0
H314 H 0.80026 0.20474 0.97263 0.0
C315 C 0.94976 0.13591 0.06782 0.0
C316 C 0.93037 0.13941 0.99019 0.0
H317 H 0.93387 0.15672 0.16837 0.0
H318 H 0.99071 0.11543 0.09649 0.0
C319 C 0.87615 0.16545 0.95685 0.0
C320 C 0.43527 0.3509 0.39204 0.0
C321 C 0.37823 0.3669 0.3912 0.0
H322 H 0.5098 0.36768 0.33314 0.0
C323 C 0.35281 0.4146 0.33038 0.0
H324 H 0.45511 0.31346 0.43794 0.0
C325 C 0.38356 0.44522 0.27034 0.0
C326 C 0.44036 0.42862 0.26992 0.0
H327 H 0.30867 0.42711 0.32858 0.0
H328 H 0.36267 0.48168 0.2239 0.0
C329 C 0.46627 0.38172 0.33211 0.0
C330 C 0.18464 0.95766 0.89296 0.0
C331 C 0.18375 0.89613 0.92329 0.0
H332 H 0.15197 0.03407 0.79966 0.0
C333 C 0.14649 0.86409 0.88559 0.0
H334 H 0.21421 0.98264 0.92086 0.0
C335 C 0.11135 0.89277 0.81738 0.0
C336 C 0.11283 0.95427 0.78527 0.0
H337 H 0.14619 0.81645 0.90807 0.0
H338 H 0.08386 0.86651 0.78889 0.0
C339 C 0.14914 0.98674 0.82414 0.0
loop_
_geom_bond_atom_site_label_1
_geom_bond_atom_site_label_2
_geom_bond_distance
_geom_bond_site_symmetry_2
_ccdc_geom_bond_type
C0 N1 1.317 . S
C0 N2 1.348 1_556 S
C0 C3 1.485 . S
N1 C0 1.317 . S
N1 N5 1.370 1_556 S
N2 C0 1.348 1_554 S
N2 C4 1.346 . S
C3 C0 1.485 . S
C3 H7 0.960 . S
C3 H8 0.961 . S
C3 H9 0.960 . S
C4 N2 1.346 . S
C4 N5 1.307 . S
C4 C6 1.486 . S
N5 N1 1.370 1_554 S
N5 C4 1.307 . S
C6 C4 1.486 . S
C6 H10 0.960 . S
C6 H11 0.960 . S
C6 H12 0.959 . S
H7 C3 0.960 . S
H8 C3 0.961 . S
H9 C3 0.960 . S
H10 C6 0.960 . S
H11 C6 0.960 . S
H12 C6 0.959 . S
C13 N14 1.317 . S
C13 N15 1.348 . S
C13 C16 1.485 . S
N14 C13 1.317 . S
N14 N18 1.370 . S
N15 C13 1.348 . S
N15 C17 1.346 . S
C16 C13 1.485 . S
C16 H20 0.960 . S
C16 H21 0.961 . S
C16 H22 0.960 . S
C17 N15 1.346 . S
C17 N18 1.307 . S
C17 C19 1.486 . S
N18 N14 1.370 . S
N18 C17 1.307 . S
C19 C17 1.486 . S
C19 H23 0.960 . S
C19 H24 0.960 . S
C19 H25 0.959 . S
H20 C16 0.960 . S
H21 C16 0.961 . S
H22 C16 0.960 . S
H23 C19 0.960 . S
H24 C19 0.960 . S
H25 C19 0.959 . S
C26 N27 1.317 . S
C26 N28 1.348 . S
C26 C29 1.485 . S
N27 C26 1.317 . S
N27 N31 1.370 . S
N28 C26 1.348 . S
N28 C30 1.346 . S
C29 C26 1.485 . S
C29 H33 0.960 . S
C29 H34 0.961 . S
C29 H35 0.960 . S
C30 N28 1.346 . S
C30 N31 1.307 . S
C30 C32 1.486 1_554 S
N31 N27 1.370 . S
N31 C30 1.307 . S
C32 C30 1.486 1_556 S
C32 H36 0.960 . S
C32 H37 0.960 . S
C32 H38 0.959 . S
H33 C29 0.960 . S
H34 C29 0.961 . S
H35 C29 0.960 . S
H36 C32 0.960 . S
H37 C32 0.960 . S
H38 C32 0.959 . S
C39 N40 1.317 . S
C39 N41 1.348 . S
C39 C42 1.485 . S
N40 C39 1.317 . S
N40 N44 1.370 . S
N41 C39 1.348 . S
N41 C43 1.346 . S
C42 C39 1.485 . S
C42 H46 0.960 . S
C42 H47 0.961 . S
C42 H48 0.960 . S
C43 N41 1.346 . S
C43 N44 1.307 . S
C43 C45 1.486 . S
N44 N40 1.370 . S
N44 C43 1.307 . S
C45 C43 1.486 . S
C45 H49 0.960 . S
C45 H50 0.960 . S
C45 H51 0.959 . S
H46 C42 0.960 . S
H47 C42 0.961 . S
H48 C42 0.960 . S
H49 C45 0.960 . S
H50 C45 0.960 . S
H51 C45 0.959 . S
Tb52 N81 2.617 . S
Tb52 N87 2.572 . S
Tb52 O96 2.465 . S
Tb52 O97 2.387 . S
Tb52 O99 2.428 . S
Tb52 O100 2.308 1_565 S
Tb52 O104 2.349 1_465 S
Tb52 O107 2.393 1_455 S
Tb52 C116 2.802 . S
C53 N54 1.379 . S
C53 C56 1.416 . S
C53 C60 1.424 . S
N54 C53 1.379 . S
N54 C57 1.334 1_655 S
N54 Tb63 2.617 . S
C55 C57 1.390 . S
C55 C58 1.339 1_455 S
C55 H75 0.930 . S
C56 C53 1.416 . S
C56 C58 1.416 . S
C56 C62 1.448 . S
C57 N54 1.334 1_455 S
C57 C55 1.390 . S
C57 H68 0.930 . S
C58 C55 1.339 1_655 S
C58 C56 1.416 . S
C58 H79 0.930 . S
C59 C60 1.413 . S
C59 C61 1.427 . S
C59 C65 1.416 . S
C60 C53 1.424 . S
C60 C59 1.413 . S
C60 N64 1.361 . S
C61 C59 1.427 . S
C61 C62 1.328 . S
C61 H76 0.929 . S
C62 C56 1.448 . S
C62 C61 1.328 . S
C62 H77 0.930 . S
Tb63 N54 2.617 . S
Tb63 N64 2.572 . S
Tb63 O98 2.349 1_655 S
Tb63 O101 2.393 1_655 S
Tb63 O102 2.465 . S
Tb63 O103 2.387 . S
Tb63 O105 2.428 . S
Tb63 O106 2.308 1_545 S
Tb63 C127 2.802 . S
N64 C60 1.361 . S
N64 Tb63 2.572 . S
N64 C66 1.340 . S
C65 C59 1.416 . S
C65 C67 1.332 . S
C65 H73 0.931 . S
C66 N64 1.340 . S
C66 C67 1.407 . S
C66 H72 0.930 . S
C67 C65 1.332 . S
C67 C66 1.407 . S
C67 H69 0.929 . S
H68 C57 0.930 . S
H69 C67 0.929 . S
H70 C85 0.930 1_655 S
H71 C92 0.929 . S
H72 C66 0.930 . S
H73 C65 0.931 . S
H74 C88 0.930 . S
H75 C55 0.930 . S
H76 C61 0.929 . S
H77 C62 0.930 . S
H78 C83 0.930 1_655 S
H79 C58 0.930 . S
H80 C91 0.931 . S
N81 Tb52 2.617 . S
N81 C82 1.379 . S
N81 C85 1.334 . S
C82 N81 1.379 . S
C82 C84 1.416 . S
C82 C90 1.424 . S
C83 H78 0.930 1_455 S
C83 C85 1.390 . S
C83 C86 1.339 . S
C84 C82 1.416 . S
C84 C86 1.416 . S
C84 C117 1.448 . S
C85 H70 0.930 1_455 S
C85 N81 1.334 . S
C85 C83 1.390 . S
C86 C83 1.339 . S
C86 C84 1.416 . S
C86 H93 0.930 . S
N87 Tb52 2.572 . S
N87 C88 1.340 . S
N87 C90 1.361 . S
C88 H74 0.930 . S
C88 N87 1.340 . S
C88 C92 1.407 . S
C89 C90 1.413 . S
C89 C91 1.416 . S
C89 C118 1.427 . S
C90 C82 1.424 . S
C90 N87 1.361 . S
C90 C89 1.413 . S
C91 H80 0.931 . S
C91 C89 1.416 . S
C91 C92 1.332 . S
C92 H71 0.929 . S
C92 C88 1.407 . S
C92 C91 1.332 . S
H93 C86 0.930 . S
H94 C117 0.930 . S
H95 C118 0.929 . S
O96 Tb52 2.465 . S
O96 C116 1.264 . S
O97 Tb52 2.387 . S
O97 C108 1.264 . S
O98 Tb63 2.349 1_455 S
O98 C108 1.243 1_545 S
O99 Tb52 2.428 . S
O99 C116 1.256 . S
O100 Tb52 2.308 1_545 S
O100 C115 1.266 . S
O101 Tb63 2.393 1_455 S
O101 C115 1.248 . S
O102 Tb63 2.465 . S
O102 C127 1.264 . S
O103 Tb63 2.387 . S
O103 C119 1.264 . S
O104 Tb52 2.349 1_645 S
O104 C119 1.243 . S
O105 Tb63 2.428 . S
O105 C127 1.256 . S
O106 Tb63 2.308 1_565 S
O106 C126 1.266 . S
O107 Tb52 2.393 1_655 S
O107 C126 1.248 . S
C108 O97 1.264 . S
C108 O98 1.243 1_565 S
C109 C112 1.399 . S
C109 C114 1.383 . S
C109 C116 1.496 . S
C110 C111 1.399 . S
C110 C114 1.389 . S
C111 C110 1.399 . S
C111 C113 1.380 . S
C111 H128 0.929 . S
C112 C109 1.399 . S
C112 C113 1.392 . S
C112 H129 0.929 . S
C113 C111 1.380 . S
C113 C112 1.392 . S
C113 H130 0.929 . S
C114 C109 1.383 . S
C114 C110 1.389 . S
C114 H131 0.931 . S
C115 O100 1.266 . S
C115 O101 1.248 . S
C116 Tb52 2.802 . S
C116 O96 1.264 . S
C116 O99 1.256 . S
C116 C109 1.496 . S
C117 C84 1.448 . S
C117 H94 0.930 . S
C117 C118 1.328 . S
C118 C89 1.427 . S
C118 H95 0.929 . S
C118 C117 1.328 . S
C119 O103 1.264 . S
C119 O104 1.243 . S
C120 C123 1.399 . S
C120 C124 1.383 . S
C120 C127 1.496 . S
C121 C122 1.399 . S
C121 C124 1.389 . S
C122 C121 1.399 . S
C122 C125 1.380 . S
C122 H132 0.929 . S
C123 C120 1.399 . S
C123 C125 1.392 . S
C123 H133 0.929 . S
C124 C120 1.383 . S
C124 C121 1.389 . S
C124 H134 0.931 . S
C125 C122 1.380 . S
C125 C123 1.392 . S
C125 H135 0.929 . S
C126 O106 1.266 . S
C126 O107 1.248 . S
C127 Tb63 2.802 . S
C127 O102 1.264 . S
C127 O105 1.256 . S
C127 C120 1.496 . S
H128 C111 0.929 . S
H129 C112 0.929 . S
H130 C113 0.929 . S
H131 C114 0.931 . S
H132 C122 0.929 . S
H133 C123 0.929 . S
H134 C124 0.931 . S
H135 C125 0.929 . S
Tb136 N165 2.617 . S
Tb136 N171 2.572 . S
Tb136 O180 2.465 1_554 S
Tb136 O181 2.387 . S
Tb136 O183 2.428 1_554 S
Tb136 O184 2.308 . S
Tb136 O188 2.349 1_554 S
Tb136 O191 2.393 . S
Tb136 C200 2.802 1_554 S
C137 N138 1.379 . S
C137 C140 1.416 . S
C137 C144 1.424 . S
N138 C137 1.379 . S
N138 C141 1.334 . S
N138 Tb147 2.617 . S
C139 C141 1.390 . S
C139 C142 1.339 . S
C139 H159 0.930 . S
C140 C137 1.416 . S
C140 C142 1.416 . S
C140 C146 1.448 . S
C141 N138 1.334 . S
C141 C139 1.390 . S
C141 H152 0.930 . S
C142 C139 1.339 . S
C142 C140 1.416 . S
C142 H163 0.930 . S
C143 C144 1.413 . S
C143 C145 1.427 . S
C143 C149 1.416 . S
C144 C137 1.424 . S
C144 C143 1.413 . S
C144 N148 1.361 . S
C145 C143 1.427 . S
C145 C146 1.328 . S
C145 H160 0.929 . S
C146 C140 1.448 . S
C146 C145 1.328 . S
C146 H161 0.930 . S
Tb147 N138 2.617 . S
Tb147 N148 2.572 . S
Tb147 O182 2.349 . S
Tb147 O185 2.393 . S
Tb147 O186 2.465 . S
Tb147 O187 2.387 . S
Tb147 O189 2.428 . S
Tb147 O190 2.308 . S
Tb147 C211 2.802 . S
N148 C144 1.361 . S
N148 Tb147 2.572 . S
N148 C150 1.340 . S
C149 C143 1.416 . S
C149 C151 1.332 . S
C149 H157 0.931 . S
C150 N148 1.340 . S
C150 C151 1.407 . S
C150 H156 0.930 . S
C151 C149 1.332 . S
C151 C150 1.407 . S
C151 H153 0.929 . S
H152 C141 0.930 . S
H153 C151 0.929 . S
H154 C169 0.930 . S
H155 C176 0.929 . S
H156 C150 0.930 . S
H157 C149 0.931 . S
H158 C172 0.930 . S
H159 C139 0.930 . S
H160 C145 0.929 . S
H161 C146 0.930 . S
H162 C167 0.930 . S
H163 C142 0.930 . S
H164 C175 0.931 . S
N165 Tb136 2.617 . S
N165 C166 1.379 . S
N165 C169 1.334 1_554 S
C166 N165 1.379 . S
C166 C168 1.416 . S
C166 C174 1.424 . S
C167 H162 0.930 . S
C167 C169 1.390 . S
C167 C170 1.339 1_556 S
C168 C166 1.416 . S
C168 C170 1.416 . S
C168 C201 1.448 . S
C169 H154 0.930 . S
C169 N165 1.334 1_556 S
C169 C167 1.390 . S
C170 C167 1.339 1_554 S
C170 C168 1.416 . S
C170 H177 0.930 . S
N171 Tb136 2.572 . S
N171 C172 1.340 . S
N171 C174 1.361 . S
C172 H158 0.930 . S
C172 N171 1.340 . S
C172 C176 1.407 . S
C173 C174 1.413 . S
C173 C175 1.416 . S
C173 C202 1.427 . S
C174 C166 1.424 . S
C174 N171 1.361 . S
C174 C173 1.413 . S
C175 H164 0.931 . S
C175 C173 1.416 . S
C175 C176 1.332 . S
C176 H155 0.929 . S
C176 C172 1.407 . S
C176 C175 1.332 . S
H177 C170 0.930 . S
H178 C201 0.930 . S
H179 C202 0.929 . S
O180 Tb136 2.465 1_556 S
O180 C200 1.264 . S
O181 Tb136 2.387 . S
O181 C192 1.264 . S
O182 Tb147 2.349 . S
O182 C192 1.243 . S
O183 Tb136 2.428 1_556 S
O183 C200 1.256 . S
O184 Tb136 2.308 . S
O184 C199 1.266 . S
O185 Tb147 2.393 . S
O185 C199 1.248 . S
O186 Tb147 2.465 . S
O186 C211 1.264 . S
O187 Tb147 2.387 . S
O187 C203 1.264 1_554 S
O188 Tb136 2.349 1_556 S
O188 C203 1.243 . S
O189 Tb147 2.428 . S
O189 C211 1.256 . S
O190 Tb147 2.308 . S
O190 C210 1.266 . S
O191 Tb136 2.393 . S
O191 C210 1.248 . S
C192 O181 1.264 . S
C192 O182 1.243 . S
C193 C196 1.399 . S
C193 C198 1.383 . S
C193 C200 1.496 . S
C194 C195 1.399 . S
C194 C198 1.389 . S
C195 C194 1.399 . S
C195 C197 1.380 . S
C195 H212 0.929 . S
C196 C193 1.399 . S
C196 C197 1.392 . S
C196 H213 0.929 . S
C197 C195 1.380 . S
C197 C196 1.392 . S
C197 H214 0.929 . S
C198 C193 1.383 . S
C198 C194 1.389 . S
C198 H215 0.931 . S
C199 O184 1.266 . S
C199 O185 1.248 . S
C200 Tb136 2.802 1_556 S
C200 O180 1.264 . S
C200 O183 1.256 . S
C200 C193 1.496 . S
C201 C168 1.448 . S
C201 H178 0.930 . S
C201 C202 1.328 . S
C202 C173 1.427 . S
C202 H179 0.929 . S
C202 C201 1.328 . S
C203 O187 1.264 1_556 S
C203 O188 1.243 . S
C204 C207 1.399 . S
C204 C208 1.383 . S
C204 C211 1.496 . S
C205 C206 1.399 . S
C205 C208 1.389 . S
C206 C205 1.399 . S
C206 C209 1.380 . S
C206 H216 0.929 . S
C207 C204 1.399 . S
C207 C209 1.392 . S
C207 H217 0.929 . S
C208 C204 1.383 . S
C208 C205 1.389 . S
C208 H218 0.931 . S
C209 C206 1.380 . S
C209 C207 1.392 . S
C209 H219 0.929 . S
C210 O190 1.266 . S
C210 O191 1.248 . S
C211 Tb147 2.802 . S
C211 O186 1.264 . S
C211 O189 1.256 . S
C211 C204 1.496 . S
H212 C195 0.929 . S
H213 C196 0.929 . S
H214 C197 0.929 . S
H215 C198 0.931 . S
H216 C206 0.929 . S
H217 C207 0.929 . S
H218 C208 0.931 . S
H219 C209 0.929 . S
C220 C221 1.387 . S
C220 H224 0.950 . S
C220 C229 1.390 . S
C221 C220 1.387 . S
C221 C223 1.387 . S
H222 C229 0.950 . S
C223 C221 1.387 . S
C223 C225 1.390 . S
C223 H227 0.950 . S
H224 C220 0.950 . S
C225 C223 1.390 . S
C225 C226 1.387 . S
C225 H228 0.950 . S
C226 C225 1.387 . S
C226 C229 1.387 . S
H227 C223 0.950 . S
H228 C225 0.950 . S
C229 C220 1.390 . S
C229 H222 0.950 . S
C229 C226 1.387 . S
C230 C231 1.387 . S
C230 H234 0.950 . S
C230 C239 1.390 . S
C231 C230 1.387 . S
C231 C233 1.387 1_554 S
H232 C239 0.950 . S
C233 C231 1.387 1_556 S
C233 C235 1.390 . S
C233 H237 0.950 . S
H234 C230 0.950 . S
C235 C233 1.390 . S
C235 C236 1.387 1_556 S
C235 H238 0.950 . S
C236 C235 1.387 1_554 S
C236 C239 1.387 . S
H237 C233 0.950 . S
H238 C235 0.950 . S
C239 C230 1.390 . S
C239 H232 0.950 . S
C239 C236 1.387 . S
C240 C241 1.387 . S
C240 H244 0.950 . S
C240 C249 1.390 . S
C241 C240 1.387 . S
C241 C243 1.387 . S
H242 C249 0.950 . S
C243 C241 1.387 . S
C243 C245 1.390 . S
C243 H247 0.950 . S
H244 C240 0.950 . S
C245 C243 1.390 . S
C245 C246 1.387 . S
C245 H248 0.950 . S
C246 C245 1.387 . S
C246 C249 1.387 . S
H247 C243 0.950 . S
H248 C245 0.950 . S
C249 C240 1.390 . S
C249 H242 0.950 . S
C249 C246 1.387 . S
C250 C251 1.387 . S
C250 H254 0.950 1_554 S
C250 C259 1.390 . S
C251 C250 1.387 . S
C251 C253 1.387 . S
H252 C259 0.950 1_556 S
C253 C251 1.387 . S
C253 C255 1.390 . S
C253 H257 0.950 . S
H254 C250 0.950 1_556 S
C255 C253 1.390 . S
C255 C256 1.387 . S
C255 H258 0.950 . S
C256 C255 1.387 . S
C256 C259 1.387 . S
H257 C253 0.950 . S
H258 C255 0.950 . S
C259 C250 1.390 . S
C259 H252 0.950 1_554 S
C259 C256 1.387 . S
C260 C261 1.387 . S
C260 H264 0.950 . S
C260 C269 1.390 . S
C261 C260 1.387 . S
C261 C263 1.387 . S
H262 C269 0.950 . S
C263 C261 1.387 . S
C263 C265 1.390 . S
C263 H267 0.950 . S
H264 C260 0.950 . S
C265 C263 1.390 . S
C265 C266 1.387 . S
C265 H268 0.950 . S
C266 C265 1.387 . S
C266 C269 1.387 . S
H267 C263 0.950 . S
H268 C265 0.950 . S
C269 C260 1.390 . S
C269 H262 0.950 . S
C269 C266 1.387 . S
C270 C271 1.387 . S
C270 H274 0.950 . S
C270 C279 1.390 . S
C271 C270 1.387 . S
C271 C273 1.387 . S
H272 C279 0.950 . S
C273 C271 1.387 . S
C273 C275 1.390 . S
C273 H277 0.950 . S
H274 C270 0.950 . S
C275 C273 1.390 . S
C275 C276 1.387 . S
C275 H278 0.950 . S
C276 C275 1.387 . S
C276 C279 1.387 . S
H277 C273 0.950 . S
H278 C275 0.950 . S
C279 C270 1.390 . S
C279 H272 0.950 . S
C279 C276 1.387 . S
C280 C281 1.387 . S
C280 H284 0.950 . S
C280 C289 1.390 . S
C281 C280 1.387 . S
C281 C283 1.387 . S
H282 C289 0.950 . S
C283 C281 1.387 . S
C283 C285 1.390 . S
C283 H287 0.950 . S
H284 C280 0.950 . S
C285 C283 1.390 . S
C285 C286 1.387 . S
C285 H288 0.950 1_545 S
C286 C285 1.387 . S
C286 C289 1.387 . S
H287 C283 0.950 . S
H288 C285 0.950 1_565 S
C289 C280 1.390 . S
C289 H282 0.950 . S
C289 C286 1.387 . S
C290 C291 1.387 . S
C290 H294 0.950 . S
C290 C299 1.390 . S
C291 C290 1.387 . S
C291 C293 1.387 . S
H292 C299 0.950 . S
C293 C291 1.387 . S
C293 C295 1.390 . S
C293 H297 0.950 . S
H294 C290 0.950 . S
C295 C293 1.390 . S
C295 C296 1.387 . S
C295 H298 0.950 . S
C296 C295 1.387 . S
C296 C299 1.387 . S
H297 C293 0.950 . S
H298 C295 0.950 . S
C299 C290 1.390 . S
C299 H292 0.950 . S
C299 C296 1.387 . S
C300 C301 1.387 . S
C300 H304 0.950 . S
C300 C309 1.390 . S
C301 C300 1.387 . S
C301 C303 1.387 . S
H302 C309 0.950 . S
C303 C301 1.387 . S
C303 C305 1.390 . S
C303 H307 0.950 . S
H304 C300 0.950 . S
C305 C303 1.390 . S
C305 C306 1.387 . S
C305 H308 0.950 . S
C306 C305 1.387 . S
C306 C309 1.387 . S
H307 C303 0.950 . S
H308 C305 0.950 . S
C309 C300 1.390 . S
C309 H302 0.950 . S
C309 C306 1.387 . S
C310 C311 1.387 1_556 S
C310 H314 0.950 . S
C310 C319 1.390 . S
C311 C310 1.387 1_554 S
C311 C313 1.387 . S
H312 C319 0.950 . S
C313 C311 1.387 . S
C313 C315 1.390 . S
C313 H317 0.950 . S
H314 C310 0.950 . S
C315 C313 1.390 . S
C315 C316 1.387 1_554 S
C315 H318 0.950 . S
C316 C315 1.387 1_556 S
C316 C319 1.387 . S
H317 C313 0.950 . S
H318 C315 0.950 . S
C319 C310 1.390 . S
C319 H312 0.950 . S
C319 C316 1.387 . S
C320 C321 1.387 . S
C320 H324 0.950 . S
C320 C329 1.390 . S
C321 C320 1.387 . S
C321 C323 1.387 . S
H322 C329 0.950 . S
C323 C321 1.387 . S
C323 C325 1.390 . S
C323 H327 0.950 . S
H324 C320 0.950 . S
C325 C323 1.390 . S
C325 C326 1.387 . S
C325 H328 0.950 . S
C326 C325 1.387 . S
C326 C329 1.387 . S
H327 C323 0.950 . S
H328 C325 0.950 . S
C329 C320 1.390 . S
C329 H322 0.950 . S
C329 C326 1.387 . S
C330 C331 1.387 . S
C330 H334 0.950 . S
C330 C339 1.390 . S
C331 C330 1.387 . S
C331 C333 1.387 . S
H332 C339 0.950 . S
C333 C331 1.387 . S
C333 C335 1.390 . S
C333 H337 0.950 . S
H334 C330 0.950 . S
C335 C333 1.390 . S
C335 C336 1.387 . S
C335 H338 0.950 . S
C336 C335 1.387 . S
C336 C339 1.387 . S
H337 C333 0.950 . S
H338 C335 0.950 . S
C339 C330 1.390 . S
C339 H332 0.950 . S
C339 C336 1.387 . S
C226 C115 1.637 . S
C221 N41 1.670 . S
C231 N2 1.610 . S
C236 C210 1.602 . S
C241 N15 1.664 . S
C246 C126 1.639 . S
C251 N28 1.601 . S
C256 C199 1.603 . S
C266 C110 1.368 . S
C261 N5 1.591 . S
C276 C203 1.654 . S
C271 N14 1.646 . S
C281 N27 1.569 . S
C286 C119 1.610 . S
C291 N44 1.578 . S
C296 C194 1.407 . S
C306 C205 1.410 . S
C301 N18 1.577 . S
C316 C121 1.368 . S
C311 N31 1.591 . S
C326 C192 1.654 . S
C321 N40 1.656 . S
C331 N1 1.590 . S
C336 C108 1.610 . S
