# Generated by pormake.
# Topology hwx, (6,3)-cn, num edge types: 1
# Building blocks:
#     Node 0, Type 0, BuildingBlock: IZENUY_clean_sbu_0, # of connection points: 6
#     Node 1, Type 0, BuildingBlock: IZENUY_clean_sbu_0, # of connection points: 6
#     Node 2, Type 0, BuildingBlock: IZENUY_clean_sbu_0, # of connection points: 6
#     Node 3, Type 0, BuildingBlock: IZENUY_clean_sbu_0, # of connection points: 6
#     Node 4, Type 1, BuildingBlock: QEWDON_clean_linker_0, # of connection points: 3
#     Node 5, Type 1, BuildingBlock: QEWDON_clean_linker_0, # of connection points: 3
#     Node 6, Type 1, BuildingBlock: QEWDON_clean_linker_0, # of connection points: 3
#     Node 7, Type 1, BuildingBlock: QEWDON_clean_linker_0, # of connection points: 3
#     Node 8, Type 1, BuildingBlock: QEWDON_clean_linker_0, # of connection points: 3
#     Node 9, Type 1, BuildingBlock: QEWDON_clean_linker_0, # of connection points: 3
#     Node 10, Type 1, BuildingBlock: QEWDON_clean_linker_0, # of connection points: 3
#     Node 11, Type 1, BuildingBlock: QEWDON_clean_linker_0, # of connection points: 3
#     Edge 12, Type (0, 1), BuildingBlock: XUDNAN_clean_linker_2, # of connection points: 2
#     Edge 13, Type (0, 1), BuildingBlock: XUDNAN_clean_linker_2, # of connection points: 2
#     Edge 14, Type (0, 1), BuildingBlock: XUDNAN_clean_linker_2, # of connection points: 2
#     Edge 15, Type (0, 1), BuildingBlock: XUDNAN_clean_linker_2, # of connection points: 2
#     Edge 16, Type (0, 1), BuildingBlock: XUDNAN_clean_linker_2, # of connection points: 2
#     Edge 17, Type (0, 1), BuildingBlock: XUDNAN_clean_linker_2, # of connection points: 2
#     Edge 18, Type (0, 1), BuildingBlock: XUDNAN_clean_linker_2, # of connection points: 2
#     Edge 19, Type (0, 1), BuildingBlock: XUDNAN_clean_linker_2, # of connection points: 2
#     Edge 20, Type (0, 1), BuildingBlock: XUDNAN_clean_linker_2, # of connection points: 2
#     Edge 21, Type (0, 1), BuildingBlock: XUDNAN_clean_linker_2, # of connection points: 2
#     Edge 22, Type (0, 1), BuildingBlock: XUDNAN_clean_linker_2, # of connection points: 2
#     Edge 23, Type (0, 1), BuildingBlock: XUDNAN_clean_linker_2, # of connection points: 2
#     Edge 24, Type (0, 1), BuildingBlock: XUDNAN_clean_linker_2, # of connection points: 2
#     Edge 25, Type (0, 1), BuildingBlock: XUDNAN_clean_linker_2, # of connection points: 2
#     Edge 26, Type (0, 1), BuildingBlock: XUDNAN_clean_linker_2, # of connection points: 2
#     Edge 27, Type (0, 1), BuildingBlock: XUDNAN_clean_linker_2, # of connection points: 2
#     Edge 28, Type (0, 1), BuildingBlock: XUDNAN_clean_linker_2, # of connection points: 2
#     Edge 29, Type (0, 1), BuildingBlock: XUDNAN_clean_linker_2, # of connection points: 2
#     Edge 30, Type (0, 1), BuildingBlock: XUDNAN_clean_linker_2, # of connection points: 2
#     Edge 31, Type (0, 1), BuildingBlock: XUDNAN_clean_linker_2, # of connection points: 2
#     Edge 32, Type (0, 1), BuildingBlock: XUDNAN_clean_linker_2, # of connection points: 2
#     Edge 33, Type (0, 1), BuildingBlock: XUDNAN_clean_linker_2, # of connection points: 2
#     Edge 34, Type (0, 1), BuildingBlock: XUDNAN_clean_linker_2, # of connection points: 2
#     Edge 35, Type (0, 1), BuildingBlock: XUDNAN_clean_linker_2, # of connection points: 2
# Relax obj value: 0.005
# Max RMSD: 0.117
# Mean RMSD: 0.091
data_MOF--net-hwx--node1-IZENUY_clean_sbu_0--node2-QEWDON_clean_linker_0--edge1-XUDNAN_clean_linker_2
_symmetry_space_group_name_H-M    P1
_symmetry_Int_Tables_number       1
_symmetry_cell_setting            triclinic
loop_
_symmetry_equiv_pos_as_xyz
'x, y, z'
_cell_length_a     54.258157
_cell_length_b     54.256829
_cell_length_c     20.250154
_cell_angle_alpha  92.37472
_cell_angle_beta   92.581308
_cell_angle_gamma 89.75468
loop_
_atom_site_label
_atom_site_type_symbol
_atom_site_fract_x
_atom_site_fract_y
_atom_site_fract_z
_atom_type_partial_charge
Fe0 Fe 0.25128 0.25761 0.06313 0.0
Fe1 Fe 0.24619 0.25902 0.91137 0.0
O2 O 0.23659 0.24753 0.98693 0.0
Fe3 Fe 0.2122 0.22587 0.98599 0.0
O4 O 0.20024 0.23668 0.06552 0.0
O5 O 0.22248 0.26937 0.09424 0.0
O6 O 0.2568 0.28912 0.03685 0.0
C7 C 0.24682 0.30132 0.99059 0.0
C8 C 0.24385 0.2063 0.07885 0.0
O9 O 0.23868 0.2906 0.93741 0.0
C10 C 0.23995 0.2099 0.87744 0.0
O11 O 0.28127 0.24675 0.03704 0.0
O12 O 0.27868 0.26318 0.93961 0.0
O13 O 0.23184 0.20316 0.02453 0.0
O14 O 0.24815 0.22787 0.10322 0.0
C15 C 0.19399 0.25618 0.89178 0.0
O16 O 0.25445 0.22814 0.88077 0.0
O17 O 0.21977 0.21086 0.90656 0.0
C18 C 0.29139 0.25364 0.98603 0.0
O19 O 0.21538 0.257 0.86908 0.0
O20 O 0.19082 0.24716 0.94705 0.0
C21 C 0.20287 0.25717 0.0971 0.0
Fe22 Fe 0.26536 0.76433 0.57271 0.0
Fe23 Fe 0.29809 0.72544 0.50534 0.0
O24 O 0.27511 0.74869 0.49999 0.0
Fe25 Fe 0.2618 0.75647 0.42209 0.0
O26 O 0.27241 0.78848 0.43355 0.0
O27 O 0.25834 0.7935 0.53317 0.0
O28 O 0.2964 0.77612 0.59259 0.0
C29 C 0.31526 0.76251 0.59964 0.0
C30 C 0.221 0.75752 0.50491 0.0
O31 O 0.31515 0.74043 0.57643 0.0
C32 C 0.26385 0.70601 0.40614 0.0
O33 O 0.27075 0.73827 0.62612 0.0
O34 O 0.27988 0.70719 0.55885 0.0
O35 O 0.23132 0.76425 0.45368 0.0
O36 O 0.23377 0.75337 0.55713 0.0
C37 C 0.31208 0.74772 0.39472 0.0
O38 O 0.28509 0.70642 0.43499 0.0
O39 O 0.25043 0.72513 0.40573 0.0
C40 C 0.27294 0.71531 0.61422 0.0
O41 O 0.31818 0.74178 0.45265 0.0
O42 O 0.28961 0.74964 0.37611 0.0
C43 C 0.26648 0.8025 0.48179 0.0
Fe44 Fe 0.7646 0.7693 0.95419 0.0
Fe45 Fe 0.76166 0.77833 0.10385 0.0
O46 O 0.77478 0.78526 0.02844 0.0
Fe47 Fe 0.7981 0.80791 0.02733 0.0
O48 O 0.78813 0.81883 0.94524 0.0
O49 O 0.7543 0.79777 0.91841 0.0
O50 O 0.7326 0.76528 0.9799 0.0
C51 C 0.72042 0.77771 0.0219 0.0
C52 C 0.81628 0.7742 0.93875 0.0
O53 O 0.73118 0.78757 0.07288 0.0
C54 C 0.81075 0.78144 0.14132 0.0
O55 O 0.77434 0.73987 0.98633 0.0
O56 O 0.75593 0.74549 0.08025 0.0
O57 O 0.81964 0.78601 0.99309 0.0
O58 O 0.79459 0.77059 0.91425 0.0
C59 C 0.76854 0.83049 0.11634 0.0
O60 O 0.79141 0.76855 0.13804 0.0
O61 O 0.81209 0.80096 0.10935 0.0
C62 C 0.76635 0.73135 0.03834 0.0
O63 O 0.76514 0.80986 0.14189 0.0
O64 O 0.77839 0.83148 0.06155 0.0
C65 C 0.76756 0.81658 0.91313 0.0
Fe66 Fe 0.71203 0.30723 0.53335 0.0
Fe67 Fe 0.75127 0.27222 0.59061 0.0
O68 O 0.73612 0.28553 0.52144 0.0
Fe69 Fe 0.74477 0.27686 0.44029 0.0
O70 O 0.75286 0.30843 0.42379 0.0
O71 O 0.71882 0.32504 0.46103 0.0
O72 O 0.73232 0.3281 0.58148 0.0
C73 C 0.74511 0.32233 0.63193 0.0
C74 C 0.69263 0.28043 0.42678 0.0
O75 O 0.74877 0.29998 0.6455 0.0
C76 C 0.74614 0.23197 0.49732 0.0
O77 O 0.70098 0.2936 0.60815 0.0
O78 O 0.72251 0.25942 0.61673 0.0
O79 O 0.71361 0.28056 0.40173 0.0
O80 O 0.69004 0.28767 0.48599 0.0
C81 C 0.79072 0.27927 0.5145 0.0
O82 O 0.75684 0.2422 0.5481 0.0
O83 O 0.73697 0.24469 0.4515 0.0
C84 C 0.70344 0.27195 0.62846 0.0
O85 O 0.78088 0.28399 0.56884 0.0
O86 O 0.77769 0.27171 0.46404 0.0
C87 C 0.73827 0.32656 0.42895 0.0
H88 H 0.26166 0.5413 0.08684 0.0
C89 C 0.26063 0.55461 0.04837 0.0
C90 C 0.25261 0.57885 0.06331 0.0
C91 C 0.26853 0.54808 0.98435 0.0
H92 H 0.2468 0.61509 0.02698 0.0
C93 C 0.25251 0.59633 0.0145 0.0
C94 C 0.2615 0.59067 0.95195 0.0
C95 C 0.26867 0.56632 0.93639 0.0
C96 C 0.27935 0.52328 0.96865 0.0
H97 H 0.27558 0.56188 0.88794 0.0
C98 C 0.26775 0.5011 0.98457 0.0
C99 C 0.27784 0.47799 0.96464 0.0
C100 C 0.30157 0.52189 0.93541 0.0
H101 H 0.31128 0.53848 0.92394 0.0
C102 C 0.31169 0.49918 0.91671 0.0
H103 H 0.25065 0.50179 0.01024 0.0
C104 C 0.29988 0.47742 0.93072 0.0
H105 H 0.30827 0.46002 0.9159 0.0
H106 H 0.32879 0.49845 0.89114 0.0
H107 H 0.97413 0.736 0.43723 0.0
C108 C 0.9648 0.74112 0.48201 0.0
C109 C 0.94096 0.75149 0.47776 0.0
C110 C 0.97604 0.73615 0.54401 0.0
H111 H 0.91033 0.76509 0.5325 0.0
C112 C 0.92871 0.75723 0.53607 0.0
C113 C 0.93926 0.75159 0.59831 0.0
C114 C 0.96308 0.7412 0.60163 0.0
C115 C 0.99968 0.7224 0.54897 0.0
H116 H 0.97128 0.736 0.64884 0.0
C117 C 0.02238 0.73335 0.53551 0.0
C118 C 0.04478 0.72017 0.54487 0.0
C119 C 0.99946 0.69818 0.57056 0.0
H120 H 0.98223 0.68948 0.58128 0.0
C121 C 0.02138 0.68494 0.57847 0.0
H122 H 0.0226 0.75221 0.51995 0.0
C123 C 0.04384 0.69579 0.56586 0.0
H124 H 0.0605 0.6849 0.57191 0.0
H125 H 0.02097 0.66619 0.59468 0.0
H126 H 0.79243 0.48051 0.94495 0.0
C127 C 0.78547 0.47249 0.98858 0.0
C128 C 0.77515 0.44878 0.98371 0.0
C129 C 0.7876 0.48556 0.04998 0.0
H130 H 0.75991 0.41946 0.03714 0.0
C131 C 0.76731 0.43803 0.04081 0.0
C132 C 0.77025 0.45033 0.10304 0.0
C133 C 0.77991 0.47444 0.10718 0.0
C134 C 0.8017 0.50889 0.05536 0.0
H135 H 0.78285 0.48391 0.15506 0.0
C136 C 0.7899 0.53212 0.05673 0.0
C137 C 0.80402 0.55401 0.05773 0.0
C138 C 0.82752 0.50765 0.05612 0.0
H139 H 0.83686 0.48995 0.05486 0.0
C140 C 0.84151 0.52916 0.05818 0.0
H141 H 0.76994 0.5331 0.05528 0.0
C142 C 0.82992 0.55215 0.05882 0.0
H143 H 0.8413 0.56855 0.06088 0.0
H144 H 0.86145 0.52802 0.05902 0.0
H145 H 0.03644 0.25664 0.55831 0.0
C146 C 0.04595 0.26371 0.51716 0.0
C147 C 0.06996 0.2734 0.52724 0.0
C148 C 0.03501 0.2611 0.4528 0.0
H149 H 0.1003 0.28986 0.47973 0.0
C150 C 0.08201 0.28195 0.47263 0.0
C151 C 0.07183 0.27857 0.40817 0.0
C152 C 0.04832 0.26803 0.39846 0.0
C153 C 1.01132 0.24783 0.4408 0.0
H154 H 0.04057 0.26477 0.34858 0.0
C155 C 0.98878 0.25806 0.46102 0.0
C156 C 0.96633 0.24535 0.44646 0.0
C157 C 1.01136 0.22475 0.40695 0.0
H158 H 0.02848 0.2166 0.39102 0.0
C159 C 0.9894 0.21189 0.39383 0.0
H160 H 0.98874 0.2761 0.48605 0.0
C161 C 0.96709 0.22202 0.41338 0.0
H162 H 0.95042 0.21138 0.40305 0.0
H163 H 0.98966 0.19397 0.3683 0.0
H164 H 0.76351 0.99062 0.45214 0.0
C165 C 0.75921 0.97832 0.49075 0.0
C166 C 0.75236 0.95358 0.47434 0.0
C167 C 0.76176 0.98688 0.55751 0.0
H168 H 0.74377 0.91858 0.51559 0.0
C169 C 0.74753 0.93797 0.52601 0.0
C170 C 0.74923 0.94637 0.59219 0.0
C171 C 0.7563 0.97075 0.60768 0.0
C172 C 0.77239 1.01165 0.57657 0.0
H173 H 0.7579 0.97705 0.65921 0.0
C174 C 0.76467 0.03342 0.54531 0.0
C175 C 0.7743 0.05673 0.56774 0.0
C176 C 0.79046 0.0134 0.62858 0.0
H177 H 0.79731 0.99706 0.65242 0.0
C178 C 0.79986 0.03615 0.65103 0.0
H179 H 0.75107 0.03218 0.50451 0.0
C180 C 0.79166 0.0576 0.62178 0.0
H181 H 0.79878 0.07495 0.64273 0.0
H182 H 0.8134 0.0372 0.69197 0.0
H183 H 0.53586 0.23712 0.09618 0.0
C184 C 0.54715 0.23795 0.05358 0.0
C185 C 0.57165 0.24667 0.06096 0.0
C186 C 0.53745 0.2289 0.99173 0.0
H187 H 0.60476 0.25311 0.00813 0.0
C188 C 0.58562 0.24743 0.00409 0.0
C189 C 0.57595 0.23915 0.94182 0.0
C190 C 0.55201 0.2294 0.93607 0.0
C191 C 0.51366 0.21552 0.98725 0.0
H192 H 0.5448 0.22195 0.8886 0.0
C193 C 0.49086 0.22792 0.99192 0.0
C194 C 0.46853 0.21446 0.98849 0.0
C195 C 0.51403 0.18973 0.97924 0.0
H196 H 0.53138 0.1799 0.97568 0.0
C197 C 0.4921 0.17637 0.97654 0.0
H198 H 0.49053 0.24785 0.99798 0.0
C199 C 0.46953 0.18857 0.98113 0.0
H200 H 0.45277 0.17773 0.97732 0.0
H201 H 0.49258 0.15646 0.97043 0.0
H202 H 0.29255 0.05053 0.58002 0.0
C203 C 0.28859 0.05971 0.53418 0.0
C204 C 0.27926 0.08398 0.5358 0.0
C205 C 0.29409 0.04776 0.47352 0.0
H206 H 0.2667 0.11408 0.47717 0.0
C207 C 0.27483 0.09579 0.47606 0.0
C208 C 0.28048 0.08433 0.41514 0.0
C209 C 0.2901 0.06019 0.41438 0.0
C210 C 0.30734 0.02383 0.47226 0.0
H211 H 0.2953 0.0513 0.36812 0.0
C212 C 0.29475 1.00111 0.47141 0.0
C213 C 0.30797 0.97852 0.46831 0.0
C214 C 0.33311 0.02394 0.47 0.0
H215 H 0.34307 0.04122 0.47032 0.0
C216 C 0.34626 1.00183 0.4674 0.0
H217 H 0.27479 1.0011 0.47216 0.0
C218 C 0.33388 0.97934 0.46671 0.0
H219 H 0.34476 0.96256 0.46614 0.0
H220 H 0.36618 1.00213 0.46619 0.0
H221 H 0.47541 0.80076 0.93636 0.0
C222 C 0.46472 0.79152 0.97188 0.0
C223 C 0.44149 0.78145 0.95226 0.0
C224 C 0.47365 0.79035 0.03823 0.0
H225 H 0.40914 0.76355 0.98444 0.0
C226 C 0.42745 0.77029 0.99917 0.0
C227 C 0.43586 0.76921 0.06541 0.0
C228 C 0.45904 0.77918 0.08446 0.0
C229 C 0.49706 0.80255 0.06225 0.0
H230 H 0.46569 0.77845 0.13564 0.0
C231 C 0.52006 0.79611 0.03613 0.0
C232 C 0.54236 0.80592 0.0657 0.0
C233 C 0.49638 0.81967 0.11601 0.0
H234 H 0.47897 0.82503 0.13665 0.0
C235 C 0.51805 0.82965 0.14472 0.0
H236 H 0.52046 0.78309 0.99421 0.0
C237 C 0.54078 0.82261 0.12073 0.0
H238 H 0.55712 0.82991 0.14702 0.0
H239 H 0.51727 0.84249 0.18693 0.0
H240 H 0.16166 0.23233 0.13153 0.0
H241 H 0.19936 0.30264 0.16057 0.0
H242 H 0.16652 0.3177 0.23274 0.0
H243 H 0.09843 0.25654 0.13205 0.0
H244 H 0.08729 0.23113 0.17685 0.0
H245 H 0.11259 0.22655 0.12289 0.0
H246 H 0.13975 0.20981 0.2198 0.0
H247 H 0.11448 0.21406 0.27366 0.0
H248 H 0.14384 0.22828 0.29557 0.0
H249 H 0.13124 0.32409 0.30782 0.0
H250 H 0.09782 0.32023 0.38584 0.0
H251 H 0.08307 0.24592 0.30773 0.0
C252 C 0.16291 0.251 0.15244 0.0
C253 C 0.18312 0.26631 0.14024 0.0
C254 C 0.18413 0.29053 0.16926 0.0
C255 C 0.16546 0.29932 0.20996 0.0
C256 C 0.14585 0.28372 0.22102 0.0
C257 C 0.14451 0.26003 0.19332 0.0
C258 C 0.12243 0.24638 0.21672 0.0
C259 C 0.1041 0.23976 0.15865 0.0
C260 C 0.13062 0.22328 0.25364 0.0
C261 C 0.11185 0.26588 0.26317 0.0
C262 C 0.12544 0.28741 0.26425 0.0
C263 C 0.12026 0.30745 0.30671 0.0
C264 C 0.10124 0.30514 0.3507 0.0
C265 C 0.08768 0.28293 0.35203 0.0
C266 C 0.09266 0.26335 0.30638 0.0
H267 H 0.25948 0.66598 0.61624 0.0
H268 H 0.28734 0.72786 0.74031 0.0
H269 H 0.28908 0.70187 0.83675 0.0
H270 H 0.22021 0.64248 0.73858 0.0
H271 H 0.22561 0.61044 0.7166 0.0
H272 H 0.22762 0.63334 0.65516 0.0
H273 H 0.27195 0.61866 0.63145 0.0
H274 H 0.27011 0.59577 0.69303 0.0
H275 H 0.2949 0.61787 0.69854 0.0
H276 H 0.28844 0.67034 0.91906 0.0
H277 H 0.28229 0.63489 0.98767 0.0
H278 H 0.25235 0.59264 0.81569 0.0
C279 C 0.26599 0.67391 0.66377 0.0
C280 C 0.27319 0.69897 0.67085 0.0
C281 C 0.28146 0.70882 0.73383 0.0
C282 C 0.2827 0.69416 0.7889 0.0
C283 C 0.27537 0.66968 0.78063 0.0
C284 C 0.26694 0.65954 0.72013 0.0
C285 C 0.25912 0.63289 0.72673 0.0
C286 C 0.2315 0.6296 0.70817 0.0
C287 C 0.27497 0.61526 0.68495 0.0
C288 C 0.26447 0.62984 0.80034 0.0
C289 C 0.2741 0.65133 0.8298 0.0
C290 C 0.28067 0.65346 0.89687 0.0
C291 C 0.2769 0.63323 0.93552 0.0
C292 C 0.26628 0.61113 0.9075 0.0
C293 C 0.26039 0.60929 0.83857 0.0
H294 H 0.83926 0.80913 0.23193 0.0
H295 H 0.83013 0.73542 0.14365 0.0
H296 H 0.86629 0.72116 0.21066 0.0
H297 H 0.90679 0.80935 0.25229 0.0
H298 H 0.90695 0.82524 0.33226 0.0
H299 H 0.8822 0.83048 0.27203 0.0
H300 H 0.85018 0.81833 0.35606 0.0
H301 H 0.87479 0.81333 0.41662 0.0
H302 H 0.85309 0.78899 0.39439 0.0
H303 H 0.90282 0.71469 0.28855 0.0
H304 H 0.93287 0.71471 0.38404 0.0
H305 H 0.9163 0.79165 0.42886 0.0
C306 C 0.84516 0.79009 0.22633 0.0
C307 C 0.8322 0.77336 0.18233 0.0
C308 C 0.83993 0.74845 0.17718 0.0
C309 C 0.86053 0.74026 0.21458 0.0
C310 C 0.87295 0.75715 0.25773 0.0
C311 C 0.86531 0.78143 0.26477 0.0
C312 C 0.88026 0.79509 0.31973 0.0
C313 C 0.89492 0.8163 0.29242 0.0
C314 C 0.86359 0.80447 0.37496 0.0
C315 C 0.89729 0.77463 0.34293 0.0
C316 C 0.89318 0.75307 0.30536 0.0
C317 C 0.90629 0.73149 0.31814 0.0
C318 C 0.92346 0.73171 0.3721 0.0
C319 C 0.92704 0.75321 0.41332 0.0
C320 C 0.91409 0.77504 0.39764 0.0
H321 H 0.71792 0.35251 0.71125 0.0
H322 H 0.79273 0.33584 0.65765 0.0
H323 H 0.80834 0.36956 0.73475 0.0
H324 H 0.72429 0.41914 0.73489 0.0
H325 H 0.70545 0.42093 0.806 0.0
H326 H 0.70004 0.39698 0.74273 0.0
H327 H 0.70516 0.3637 0.83059 0.0
H328 H 0.71034 0.38754 0.8941 0.0
H329 H 0.73282 0.36332 0.88335 0.0
H330 H 0.81557 0.40501 0.8179 0.0
H331 H 0.81466 0.43568 0.91187 0.0
H332 H 0.73543 0.42703 0.91717 0.0
C333 C 0.73755 0.3562 0.71563 0.0
C334 C 0.75424 0.34198 0.67858 0.0
C335 C 0.77981 0.34677 0.68586 0.0
C336 C 0.78875 0.36591 0.72909 0.0
C337 C 0.77184 0.37976 0.76506 0.0
C338 C 0.7468 0.37488 0.75959 0.0
C339 C 0.73275 0.39112 0.80765 0.0
C340 C 0.71456 0.40805 0.77059 0.0
C341 C 0.7195 0.37548 0.85683 0.0
C342 C 0.75379 0.40574 0.84149 0.0
C343 C 0.77612 0.39931 0.81521 0.0
C344 C 0.7982 0.41023 0.83877 0.0
C345 C 0.79751 0.42772 0.89172 0.0
C346 C 0.77497 0.43374 0.92108 0.0
C347 C 0.75284 0.42283 0.89505 0.0
H348 H 0.68289 0.29483 0.30095 0.0
H349 H 0.65262 0.2534 0.45666 0.0
H350 H 0.61618 0.24255 0.38291 0.0
H351 H 0.62323 0.31967 0.24048 0.0
H352 H 0.63191 0.31837 0.15552 0.0
H353 H 0.65512 0.32315 0.22124 0.0
H354 H 0.67944 0.28527 0.17648 0.0
H355 H 0.65635 0.28039 0.11072 0.0
H356 H 0.66417 0.25585 0.16528 0.0
H357 H 0.58562 0.2326 0.28693 0.0
H358 H 0.56224 0.2265 0.18076 0.0
H359 H 0.60942 0.27985 0.09379 0.0
C360 C 0.66851 0.28354 0.31944 0.0
C361 C 0.67054 0.27467 0.38398 0.0
C362 C 0.6513 0.26028 0.40716 0.0
C363 C 0.63059 0.25408 0.3657 0.0
C364 C 0.62917 0.26303 0.30201 0.0
C365 C 0.64743 0.27783 0.2795 0.0
C366 C 0.64146 0.28522 0.20931 0.0
C367 C 0.6377 0.31327 0.20651 0.0
C368 C 0.66155 0.27613 0.16273 0.0
C369 C 0.61745 0.27152 0.19487 0.0
C370 C 0.61068 0.25876 0.24874 0.0
C371 C 0.5904 0.24302 0.24492 0.0
C372 C 0.57701 0.23987 0.18413 0.0
C373 C 0.58368 0.25268 0.12781 0.0
C374 C 0.60379 0.26933 0.13474 0.0
H375 H 0.26939 0.2054 0.76978 0.0
H376 H 0.22296 0.16349 0.89299 0.0
H377 H 0.23087 0.12578 0.8248 0.0
H378 H 0.24863 0.17601 0.61793 0.0
H379 H 0.27821 0.17643 0.58096 0.0
H380 H 0.27076 0.19966 0.64298 0.0
H381 H 0.30996 0.18812 0.71303 0.0
H382 H 0.31751 0.1648 0.65119 0.0
H383 H 0.31462 0.15662 0.73586 0.0
H384 H 0.2425 0.09273 0.74035 0.0
H385 H 0.25463 0.06789 0.64148 0.0
H386 H 0.29256 0.13141 0.57206 0.0
C387 C 0.26117 0.18822 0.78285 0.0
C388 C 0.24561 0.18739 0.83682 0.0
C389 C 0.23486 0.1646 0.85167 0.0
C390 C 0.23936 0.14303 0.81348 0.0
C391 C 0.25456 0.14448 0.7602 0.0
C392 C 0.26519 0.16651 0.74459 0.0
C393 C 0.27941 0.16338 0.68207 0.0
C394 C 0.2686 0.17984 0.62779 0.0
C395 C 0.30702 0.16853 0.69643 0.0
C396 C 0.27485 0.13629 0.66463 0.0
C397 C 0.26076 0.1256 0.71075 0.0
C398 C 0.25366 0.10087 0.70407 0.0
C399 C 0.26072 0.08686 0.64801 0.0
C400 C 0.27445 0.09771 0.59908 0.0
C401 C 0.28193 0.12263 0.60848 0.0
H402 H 0.35351 0.77606 0.38387 0.0
H403 H 0.31179 0.71504 0.29101 0.0
H404 H 0.34195 0.71101 0.20327 0.0
H405 H 0.36668 0.80362 0.23346 0.0
H406 H 0.39713 0.81399 0.26055 0.0
H407 H 0.37393 0.81029 0.3201 0.0
H408 H 0.40305 0.78091 0.38473 0.0
H409 H 0.42629 0.78439 0.32495 0.0
H410 H 0.41553 0.75407 0.3425 0.0
H411 H 0.37526 0.71445 0.12397 0.0
H412 H 0.40739 0.72769 0.05094 0.0
H413 H 0.42647 0.78837 0.1901 0.0
C414 C 0.35105 0.76171 0.34537 0.0
C415 C 0.33057 0.74572 0.34391 0.0
C416 C 0.32746 0.72742 0.29249 0.0
C417 C 0.34455 0.7249 0.24287 0.0
C418 C 0.3645 0.74102 0.24509 0.0
C419 C 0.36774 0.75927 0.29447 0.0
C420 C 0.38956 0.77553 0.2816 0.0
C421 C 0.38132 0.80245 0.27342 0.0
C422 C 0.40981 0.7736 0.33674 0.0
C423 C 0.39778 0.76379 0.21686 0.0
C424 C 0.38332 0.74364 0.1975 0.0
C425 C 0.38674 0.73019 0.13857 0.0
C426 C 0.40498 0.73791 0.09729 0.0
C427 C 0.41939 0.75914 0.11454 0.0
C428 C 0.41605 0.77187 0.17596 0.0
H429 H 0.79277 0.85791 0.87947 0.0
H430 H 0.724 0.81816 0.83976 0.0
H431 H 0.71046 0.84925 0.76052 0.0
H432 H 0.76683 0.91996 0.86727 0.0
H433 H 0.79312 0.93162 0.82715 0.0
H434 H 0.79702 0.907 0.88384 0.0
H435 H 0.81732 0.87976 0.79313 0.0
H436 H 0.81364 0.90432 0.73641 0.0
H437 H 0.80106 0.87425 0.71432 0.0
H438 H 0.7053 0.88295 0.68077 0.0
H439 H 0.70945 0.91671 0.60369 0.0
H440 H 0.78102 0.93523 0.69578 0.0
C441 C 0.77479 0.85581 0.85449 0.0
C442 C 0.75949 0.8355 0.8659 0.0
C443 C 0.73613 0.83346 0.83185 0.0
C444 C 0.72819 0.85111 0.78691 0.0
C445 C 0.74374 0.87081 0.77668 0.0
C446 C 0.76654 0.87329 0.80942 0.0
C447 C 0.7801 0.89566 0.78715 0.0
C448 C 0.78452 0.91469 0.8448 0.0
C449 C 0.80447 0.88803 0.75588 0.0
C450 C 0.76153 0.90508 0.73594 0.0
C451 C 0.74061 0.89054 0.73107 0.0
C452 C 0.72145 0.89465 0.68467 0.0
C453 C 0.72393 0.91383 0.64119 0.0
C454 C 0.74537 0.92868 0.64454 0.0
C455 C 0.76419 0.9245 0.69334 0.0
H456 H 0.81751 0.75712 0.80838 0.0
H457 H 0.86478 0.77866 0.97975 0.0
H458 H 0.90126 0.7741 0.91236 0.0
H459 H 0.86057 0.71143 0.73723 0.0
H460 H 0.8523 0.71924 0.65344 0.0
H461 H 0.82994 0.72251 0.71639 0.0
H462 H 0.82358 0.76833 0.68834 0.0
H463 H 0.84614 0.7653 0.62597 0.0
H464 H 0.8498 0.78871 0.69142 0.0
H465 H 0.93236 0.77092 0.82466 0.0
H466 H 0.9562 0.76626 0.724 0.0
H467 H 0.88928 0.74464 0.6107 0.0
C468 C 0.83555 0.76043 0.83205 0.0
C469 C 0.83817 0.76833 0.89945 0.0
C470 C 0.86218 0.77267 0.92823 0.0
C471 C 0.88309 0.77014 0.89036 0.0
C472 C 0.87981 0.76303 0.82376 0.0
C473 C 0.85672 0.7579 0.79496 0.0
C474 C 0.85835 0.75117 0.72186 0.0
C475 C 0.84979 0.7245 0.70633 0.0
C476 C 0.84359 0.76948 0.67942 0.0
C477 C 0.88587 0.7538 0.71403 0.0
C478 C 0.8979 0.76066 0.77338 0.0
C479 C 0.92321 0.76516 0.77802 0.0
C480 C 0.93663 0.76236 0.72052 0.0
C481 C 0.92478 0.755 0.65905 0.0
C482 C 0.899 0.75062 0.65636 0.0
H483 H 0.76677 0.33151 0.3213 0.0
H484 H 0.71857 0.37241 0.45172 0.0
H485 H 0.72359 0.40958 0.38716 0.0
H486 H 0.8086 0.38207 0.29141 0.0
H487 H 0.81156 0.37273 0.20566 0.0
H488 H 0.80574 0.34999 0.26539 0.0
H489 H 0.76701 0.33529 0.19527 0.0
H490 H 0.77268 0.35799 0.13546 0.0
H491 H 0.74334 0.35732 0.17366 0.0
H492 H 0.73285 0.44216 0.30529 0.0
H493 H 0.74384 0.46636 0.20955 0.0
H494 H 0.78493 0.40367 0.13212 0.0
C495 C 0.75757 0.34838 0.33689 0.0
C496 C 0.74239 0.34908 0.39182 0.0
C497 C 0.73029 0.37142 0.40979 0.0
C498 C 0.7331 0.39267 0.37358 0.0
C499 C 0.74798 0.39129 0.31922 0.0
C500 C 0.75993 0.36967 0.30081 0.0
C501 C 0.77361 0.37259 0.2381 0.0
C502 C 0.80153 0.36915 0.25094 0.0
C503 C 0.76355 0.35474 0.18235 0.0
C504 C 0.76731 0.39912 0.22377 0.0
C505 C 0.75274 0.40974 0.27142 0.0
C506 C 0.74433 0.43404 0.26778 0.0
C507 C 0.7507 0.44768 0.21348 0.0
C508 C 0.76504 0.43684 0.16328 0.0
C509 C 0.77368 0.41237 0.16937 0.0
H510 H 0.19116 0.25579 0.75687 0.0
H511 H 0.1472 0.26823 0.92884 0.0
H512 H 0.11018 0.2748 0.85531 0.0
H513 H 0.1607 0.29968 0.65128 0.0
H514 H 0.16276 0.27988 0.57803 0.0
H515 H 0.18573 0.27788 0.64463 0.0
H516 H 0.17687 0.23113 0.65111 0.0
H517 H 0.15384 0.23301 0.58469 0.0
H518 H 0.1458 0.22101 0.66255 0.0
H519 H 0.07758 0.2796 0.7601 0.0
H520 H 0.05308 0.2813 0.65386 0.0
H521 H 0.11881 0.26206 0.54819 0.0
C522 C 0.17385 0.2603 0.7792 0.0
C523 C 0.17211 0.26179 0.84854 0.0
C524 C 0.14896 0.26712 0.87572 0.0
C525 C 0.12785 0.27088 0.83438 0.0
C526 C 0.13017 0.26894 0.76602 0.0
C527 C 0.15263 0.26364 0.73886 0.0
C528 C 0.1502 0.26123 0.66429 0.0
C529 C 0.16577 0.28084 0.63272 0.0
C530 C 0.15708 0.23504 0.63922 0.0
C531 C 0.12292 0.26616 0.65347 0.0
C532 C 0.11157 0.27075 0.71237 0.0
C533 C 0.08634 0.276 0.7137 0.0
C534 C 0.07253 0.27679 0.65316 0.0
C535 C 0.08397 0.27224 0.59226 0.0
C536 C 0.10945 0.26645 0.59331 0.0
H537 H 0.2934 0.66916 0.35731 0.0
H538 H 0.21697 0.6927 0.36159 0.0
H539 H 0.20474 0.65656 0.28904 0.0
H540 H 0.2917 0.65251 0.18999 0.0
H541 H 0.31258 0.62676 0.19784 0.0
H542 H 0.31439 0.65212 0.25777 0.0
H543 H 0.3091 0.62162 0.35142 0.0
H544 H 0.30685 0.59618 0.29129 0.0
H545 H 0.28263 0.60156 0.34827 0.0
H546 H 0.20152 0.62072 0.20595 0.0
H547 H 0.20813 0.59121 0.11188 0.0
H548 H 0.28649 0.59103 0.16131 0.0
C549 C 0.274 0.6664 0.34441 0.0
C550 C 0.25609 0.68363 0.36584 0.0
C551 C 0.231 0.6797 0.34607 0.0
C552 C 0.22387 0.65912 0.30526 0.0
C553 C 0.24204 0.6426 0.28452 0.0
C554 C 0.26663 0.64614 0.30317 0.0
C555 C 0.28291 0.62749 0.26807 0.0
C556 C 0.30147 0.6405 0.22592 0.0
C557 C 0.29615 0.61071 0.31774 0.0
C558 C 0.26375 0.61326 0.22526 0.0
C559 C 0.24021 0.62194 0.23641 0.0
C560 C 0.21977 0.61336 0.19802 0.0
C561 C 0.22361 0.59639 0.14514 0.0
C562 C 0.24767 0.58816 0.13114 0.0
C563 C 0.26782 0.5961 0.17312 0.0
H564 H 0.34874 0.73386 0.66573 0.0
H565 H 0.32976 0.81024 0.63292 0.0
H566 H 0.36498 0.82366 0.70809 0.0
H567 H 0.36209 0.74232 0.83537 0.0
H568 H 0.38663 0.71984 0.8379 0.0
H569 H 0.3621 0.71681 0.77544 0.0
H570 H 0.39431 0.71583 0.68449 0.0
H571 H 0.41895 0.7192 0.74689 0.0
H572 H 0.41602 0.74079 0.68168 0.0
H573 H 0.40101 0.82841 0.79353 0.0
H574 H 0.43049 0.82408 0.88963 0.0
H575 H 0.42444 0.74462 0.86741 0.0
C576 C 0.35224 0.75344 0.67317 0.0
C577 C 0.33667 0.77102 0.64275 0.0
C578 C 0.34151 0.79645 0.65547 0.0
C579 C 0.36158 0.80421 0.69772 0.0
C580 C 0.37653 0.78632 0.72711 0.0
C581 C 0.37187 0.76144 0.71571 0.0
C582 C 0.38887 0.74582 0.75819 0.0
C583 C 0.37404 0.7303 0.80446 0.0
C584 C 0.40552 0.72945 0.71523 0.0
C585 C 0.40362 0.76575 0.79637 0.0
C586 C 0.39664 0.78901 0.777 0.0
C587 C 0.4068 0.81028 0.80838 0.0
C588 C 0.42372 0.80768 0.86248 0.0
C589 C 0.42999 0.78403 0.88503 0.0
C590 C 0.42035 0.76289 0.85014 0.0
H591 H 0.73695 0.84021 0.21733 0.0
H592 H 0.79316 0.87359 0.10434 0.0
H593 H 0.79118 0.9115 0.17502 0.0
H594 H 0.70122 0.8988 0.24576 0.0
H595 H 0.69354 0.89055 0.32764 0.0
H596 H 0.69762 0.86682 0.26405 0.0
H597 H 0.73055 0.84571 0.33949 0.0
H598 H 0.7266 0.86934 0.40307 0.0
H599 H 0.75679 0.86327 0.37235 0.0
H600 H 0.78819 0.94284 0.26879 0.0
H601 H 0.78252 0.96591 0.37415 0.0
H602 H 0.72373 0.91559 0.41723 0.0
C603 C 0.74849 0.85568 0.20685 0.0
C604 C 0.76522 0.85388 0.1554 0.0
C605 C 0.78007 0.87453 0.1432 0.0
C606 C 0.77909 0.89621 0.18308 0.0
C607 C 0.7627 0.89729 0.23403 0.0
C608 C 0.7473 0.87777 0.24522 0.0
C609 C 0.73203 0.88344 0.30483 0.0
C610 C 0.70446 0.885 0.28432 0.0
C611 C 0.73679 0.86431 0.35806 0.0
C612 C 0.74221 0.90857 0.32723 0.0
C613 C 0.75984 0.91627 0.2857 0.0
C614 C 0.77389 0.9374 0.30075 0.0
C615 C 0.77036 0.95057 0.36081 0.0
C616 C 0.75271 0.94275 0.40506 0.0
C617 C 0.73773 0.92206 0.38577 0.0
H618 H 0.67408 0.29774 0.71318 0.0
H619 H 0.68979 0.22371 0.63716 0.0
H620 H 0.65657 0.20739 0.70314 0.0
H621 H 0.66372 0.28031 0.87847 0.0
H622 H 0.63985 0.30299 0.89123 0.0
H623 H 0.66381 0.30868 0.83515 0.0
H624 H 0.63068 0.3157 0.74155 0.0
H625 H 0.6066 0.3098 0.79721 0.0
H626 H 0.60814 0.29203 0.72029 0.0
H627 H 0.62081 0.19946 0.77668 0.0
H628 H 0.58942 0.19989 0.86213 0.0
H629 H 0.59933 0.27872 0.89459 0.0
C630 C 0.67043 0.2781 0.71018 0.0
C631 C 0.68433 0.26197 0.66975 0.0
C632 C 0.67935 0.23635 0.66799 0.0
C633 C 0.66043 0.22696 0.70491 0.0
C634 C 0.64693 0.24341 0.74401 0.0
C635 C 0.65201 0.26839 0.74768 0.0
C636 C 0.63596 0.282 0.79653 0.0
C637 C 0.65178 0.29421 0.85373 0.0
C638 C 0.61936 0.301 0.76179 0.0
C639 C 0.621 0.26081 0.81982 0.0
C640 C 0.62727 0.23874 0.78823 0.0
C641 C 0.6158 0.21664 0.80174 0.0
C642 C 0.5979 0.21705 0.84988 0.0
C643 C 0.59198 0.23933 0.88446 0.0
C644 C 0.60351 0.26146 0.86855 0.0
H645 H 0.26611 0.20493 0.20383 0.0
H646 H 0.2366 0.15775 0.04082 0.0
H647 H 0.24523 0.12117 0.10624 0.0
H648 H 0.31538 0.16265 0.25799 0.0
H649 H 0.31188 0.17062 0.34437 0.0
H650 H 0.3049 0.19305 0.283 0.0
H651 H 0.26103 0.19865 0.32716 0.0
H652 H 0.26784 0.1762 0.3884 0.0
H653 H 0.24145 0.17207 0.33178 0.0
H654 H 0.2542 0.0898 0.19242 0.0
H655 H 0.26328 0.06628 0.29262 0.0
H656 H 0.28855 0.13362 0.39736 0.0
C657 C 0.26173 0.18691 0.18153 0.0
C658 C 0.2506 0.18432 0.11714 0.0
C659 C 0.24507 0.16032 0.09007 0.0
C660 C 0.24996 0.13936 0.12678 0.0
C661 C 0.26057 0.14259 0.1904 0.0
C662 C 0.26655 0.16574 0.21742 0.0
C663 C 0.27701 0.16419 0.28775 0.0
C664 C 0.30389 0.17316 0.29359 0.0
C665 C 0.26087 0.17863 0.33663 0.0
C666 C 0.27545 0.13664 0.29644 0.0
C667 C 0.26605 0.12447 0.23967 0.0
C668 C 0.26189 0.09909 0.23694 0.0
C669 C 0.26722 0.08585 0.29404 0.0
C670 C 0.27659 0.09801 0.35313 0.0
C671 C 0.28111 0.12371 0.35346 0.0
H672 H 0.25036 0.33505 0.89345 0.0
H673 H 0.24355 0.32929 0.10476 0.0
H674 H 0.24554 0.37471 0.11947 0.0
H675 H 0.29519 0.38166 0.90668 0.0
H676 H 0.28401 0.39749 0.83471 0.0
H677 H 0.27873 0.36493 0.83981 0.0
H678 H 0.23172 0.37203 0.82093 0.0
H679 H 0.23687 0.4047 0.81602 0.0
H680 H 0.21604 0.39356 0.87485 0.0
H681 H 0.25079 0.42088 0.11206 0.0
H682 H 0.26284 0.46311 0.08424 0.0
H683 H 0.26795 0.43858 0.87888 0.0
C684 C 0.24876 0.34341 0.94257 0.0
C685 C 0.24656 0.32866 0.99791 0.0
C686 C 0.24521 0.34025 0.06167 0.0
C687 C 0.24617 0.36605 0.07046 0.0
C688 C 0.24869 0.3801 0.01507 0.0
C689 C 0.25015 0.36916 0.95239 0.0
C690 C 0.25522 0.38822 0.90205 0.0
C691 C 0.27974 0.38275 0.8689 0.0
C692 C 0.23367 0.38971 0.85041 0.0
C693 C 0.25687 0.41146 0.94631 0.0
C694 C 0.25256 0.40651 0.01115 0.0
C695 C 0.254 0.42499 0.06132 0.0
C696 C 0.2607 0.44896 0.0451 0.0
C697 C 0.26625 0.45413 0.9795 0.0
C698 C 0.26373 0.43518 0.92947 0.0
H699 H 0.19123 0.73646 0.59457 0.0
H700 H 0.18851 0.77596 0.41223 0.0
H701 H 0.14317 0.77319 0.40665 0.0
H702 H 0.14338 0.69419 0.54606 0.0
H703 H 0.13072 0.69349 0.62673 0.0
H704 H 0.16294 0.70011 0.61932 0.0
H705 H 0.15793 0.74105 0.6879 0.0
H706 H 0.12566 0.73456 0.69556 0.0
H707 H 0.13493 0.76311 0.66171 0.0
H708 H 0.09794 0.76468 0.4179 0.0
H709 H 0.05666 0.74948 0.4433 0.0
H710 H 0.0885 0.71567 0.61813 0.0
C711 C 0.18108 0.74481 0.55395 0.0
C712 C 0.19356 0.75654 0.50405 0.0
C713 C 0.1795 0.76687 0.45118 0.0
C714 C 0.15366 0.76548 0.4476 0.0
C715 C 0.14196 0.75364 0.49718 0.0
C716 C 0.15519 0.74344 0.54933 0.0
C717 C 0.13812 0.73067 0.59431 0.0
C718 C 0.14415 0.70298 0.59671 0.0
C719 C 0.13923 0.7431 0.664 0.0
C720 C 0.11334 0.73502 0.55881 0.0
C721 C 0.11591 0.7485 0.50323 0.0
C722 C 0.09567 0.75425 0.46162 0.0
C723 C 0.07224 0.74566 0.47665 0.0
C724 C 0.06921 0.73132 0.53259 0.0
C725 C 0.09012 0.72636 0.57456 0.0
H726 H 0.79485 0.69655 0.97486 0.0
H727 H 0.73995 0.70493 0.12361 0.0
H728 H 0.74151 0.66004 0.13978 0.0
H729 H 0.77414 0.63719 0.90383 0.0
H730 H 0.80502 0.62595 0.89214 0.0
H731 H 0.79856 0.65851 0.88973 0.0
H732 H 0.8325 0.66728 0.98173 0.0
H733 H 0.83912 0.63479 0.98431 0.0
H734 H 0.83132 0.65188 0.05873 0.0
H735 H 0.74966 0.61386 0.14088 0.0
H736 H 0.76598 0.57117 0.13242 0.0
H737 H 0.81594 0.59338 0.98464 0.0
C738 C 0.78296 0.68893 0.01039 0.0
C739 C 0.76714 0.7043 0.04761 0.0
C740 C 0.75221 0.69358 0.09441 0.0
C741 C 0.75289 0.66806 0.10377 0.0
C742 C 0.7687 0.65344 0.06629 0.0
C743 C 0.78359 0.66354 0.02084 0.0
C744 C 0.79987 0.64404 0.98924 0.0
C745 C 0.79404 0.64126 0.91429 0.0
C746 C 0.82732 0.64985 0.00444 0.0
C747 C 0.79195 0.62142 0.02427 0.0
C748 C 0.77377 0.62712 0.06802 0.0
C749 C 0.76386 0.6092 0.10661 0.0
C750 C 0.77312 0.58496 0.10121 0.0
C751 C 0.79227 0.57891 0.05808 0.0
C752 C 0.80144 0.59743 0.01851 0.0
H753 H 0.81981 0.26144 0.41488 0.0
H754 H 0.82381 0.29736 0.61067 0.0
H755 H 0.86925 0.29518 0.6118 0.0
H756 H 0.86812 0.21918 0.44346 0.0
H757 H 0.87997 0.2203 0.3619 0.0
H758 H 0.84784 0.22652 0.37401 0.0
H759 H 0.85184 0.26887 0.32084 0.0
H760 H 0.88399 0.26274 0.30827 0.0
H761 H 0.87498 0.29039 0.35349 0.0
H762 H 0.9145 0.2865 0.59473 0.0
H763 H 0.95542 0.27184 0.56072 0.0
H764 H 0.92187 0.24258 0.37526 0.0
C765 C 0.83021 0.26921 0.4576 0.0
C766 C 0.81811 0.2796 0.51264 0.0
C767 C 0.83255 0.28928 0.56784 0.0
C768 C 0.85843 0.28818 0.56894 0.0
C769 C 0.86974 0.27744 0.51438 0.0
C770 C 0.85609 0.26823 0.4596 0.0
C771 C 0.87268 0.2566 0.40869 0.0
C772 C 0.8668 0.22902 0.39633 0.0
C773 C 0.87076 0.27048 0.344 0.0
C774 C 0.89774 0.26032 0.44386 0.0
C775 C 0.89571 0.27252 0.50457 0.0
C776 C 0.91632 0.27717 0.54692 0.0
C777 C 0.93956 0.26888 0.527 0.0
C778 C 0.94203 0.25598 0.46533 0.0
C779 C 0.92073 0.2521 0.42309 0.0
H780 H 0.78445 0.20109 0.52549 0.0
H781 H 0.70798 0.20161 0.4544 0.0
H782 H 0.70721 0.15583 0.45471 0.0
H783 H 0.80174 0.14473 0.42786 0.0
H784 H 0.82293 0.13484 0.49266 0.0
H785 H 0.81747 0.16727 0.48226 0.0
H786 H 0.80545 0.17231 0.60452 0.0
H787 H 0.81071 0.13995 0.6152 0.0
H788 H 0.78124 0.15341 0.63349 0.0
H789 H 0.71395 0.10997 0.4781 0.0
H790 H 0.72813 0.06906 0.51384 0.0
H791 H 0.80166 0.09885 0.55505 0.0
C792 C 0.76767 0.1915 0.50903 0.0
C793 C 0.74624 0.20474 0.49011 0.0
C794 C 0.72461 0.19169 0.46864 0.0
C795 C 0.72403 0.16573 0.46883 0.0
C796 C 0.74544 0.15317 0.48886 0.0
C797 C 0.767 0.16569 0.50714 0.0
C798 C 0.78743 0.14814 0.52745 0.0
C799 C 0.80864 0.14878 0.47969 0.0
C800 C 0.79674 0.15379 0.59942 0.0
C801 C 0.7738 0.12382 0.52051 0.0
C802 C 0.7496 0.12696 0.49833 0.0
C803 C 0.73304 0.10725 0.49405 0.0
C804 C 0.74134 0.08395 0.51412 0.0
C805 C 0.76607 0.08043 0.53787 0.0
C806 C 0.78252 0.10067 0.53858 0.0
H807 H 0.32443 0.224 0.05359 0.0
H808 H 0.32011 0.2813 0.91017 0.0
H809 H 0.36536 0.28003 0.9028 0.0
H810 H 0.38284 0.24319 0.13704 0.0
H811 H 0.39356 0.212 0.1467 0.0
H812 H 0.36098 0.21867 0.14482 0.0
H813 H 0.35374 0.1864 0.04809 0.0
H814 H 0.38625 0.17955 0.04986 0.0
H815 H 0.37077 0.18878 0.97419 0.0
H816 H 0.41116 0.27184 0.90855 0.0
H817 H 0.45338 0.25465 0.91962 0.0
H818 H 0.42798 0.20191 0.05662 0.0
C819 C 0.33305 0.23648 0.02124 0.0
C820 C 0.31869 0.25287 0.98279 0.0
C821 C 0.33066 0.26857 0.94011 0.0
C822 C 0.35641 0.2681 0.93584 0.0
C823 C 0.37002 0.25169 0.97418 0.0
C824 C 0.35876 0.23601 0.01566 0.0
C825 C 0.3775 0.21899 0.04812 0.0
C826 C 0.37879 0.22349 0.12366 0.0
C827 C 0.37172 0.19182 0.02889 0.0
C828 C 0.40096 0.22735 0.0178 0.0
C829 C 0.39632 0.24649 0.97608 0.0
C830 C 0.41504 0.25693 0.94137 0.0
C831 C 0.43901 0.24717 0.94829 0.0
C832 C 0.44403 0.22697 0.98897 0.0
C833 C 0.42473 0.21731 0.02496 0.0
H834 H 0.29605 0.83174 0.40868 0.0
H835 H 0.23749 0.83516 0.5479 0.0
H836 H 0.23933 0.88049 0.55177 0.0
H837 H 0.33135 0.87999 0.48561 0.0
H838 H 0.3413 0.89262 0.41034 0.0
H839 H 0.3337 0.8604 0.41202 0.0
H840 H 0.30193 0.8652 0.3141 0.0
H841 H 0.3095 0.89747 0.31188 0.0
H842 H 0.27797 0.88821 0.32034 0.0
H843 H 0.24944 0.92527 0.54819 0.0
H844 H 0.26788 0.96636 0.5387 0.0
H845 H 0.31969 0.93487 0.40097 0.0
C846 C 0.28327 0.84208 0.43873 0.0
C847 C 0.26653 0.82981 0.47768 0.0
C848 C 0.2505 0.84405 0.51762 0.0
C849 C 0.25132 0.86988 0.52002 0.0
C850 C 0.26831 0.88142 0.48227 0.0
C851 C 0.28399 0.86806 0.44223 0.0
C852 C 0.30164 0.88515 0.41031 0.0
C853 C 0.32859 0.87918 0.43082 0.0
C854 C 0.2975 0.88393 0.33466 0.0
C855 C 0.29373 0.91001 0.43984 0.0
C856 C 0.27429 0.90744 0.48063 0.0
C857 C 0.26447 0.92758 0.51566 0.0
C858 C 0.27499 0.95095 0.50962 0.0
C859 C 0.29526 0.95409 0.46904 0.0
C860 C 0.30437 0.93323 0.43293 0.0
H861 H 0.68929 0.81501 0.06001 0.0
H862 H 0.6899 0.74118 0.96969 0.0
H863 H 0.6442 0.74083 0.96462 0.0
H864 H 0.63824 0.80833 0.15936 0.0
H865 H 0.62579 0.83866 0.14606 0.0
H866 H 0.6584 0.83321 0.14083 0.0
H867 H 0.65693 0.84976 0.02252 0.0
H868 H 0.62429 0.85535 0.02743 0.0
H869 H 0.63567 0.83634 0.96026 0.0
H870 H 0.59817 0.74736 0.98018 0.0
H871 H 0.55635 0.76106 0.0074 0.0
H872 H 0.58593 0.83276 0.07322 0.0
C873 C 0.67976 0.79884 0.03885 0.0
C874 C 0.69309 0.77805 0.01564 0.0
C875 C 0.68002 0.75732 0.98761 0.0
C876 C 0.65408 0.75695 0.98464 0.0
C877 C 0.64145 0.7777 0.00841 0.0
C878 C 0.65389 0.79843 0.03386 0.0
C879 C 0.63604 0.81841 0.05543 0.0
C880 C 0.63985 0.82503 0.12983 0.0
C881 C 0.63837 0.84132 0.01392 0.0
C882 C 0.61163 0.80543 0.04016 0.0
C883 C 0.61507 0.78194 0.01337 0.0
C884 C 0.59525 0.76594 0.99988 0.0
C885 C 0.57139 0.77403 0.01507 0.0
C886 C 0.56734 0.79811 0.04283 0.0
C887 C 0.58795 0.81407 0.0535 0.0
loop_
_geom_bond_atom_site_label_1
_geom_bond_atom_site_label_2
_geom_bond_distance
_geom_bond_site_symmetry_2
_ccdc_geom_bond_type
Fe0 O2 1.918 . S
Fe0 O5 1.997 . S
Fe0 O6 2.002 . S
Fe0 O11 1.976 . S
Fe0 O14 1.996 . S
Fe1 O2 1.918 1_556 S
Fe1 O9 1.997 . S
Fe1 O12 1.996 . S
Fe1 O16 1.976 . S
Fe1 O19 2.002 . S
O2 Fe0 1.918 . S
O2 Fe1 1.918 1_554 S
O2 Fe3 1.918 1_554 S
Fe3 O2 1.918 1_556 S
Fe3 O4 2.002 1_556 S
Fe3 O13 1.976 1_556 S
Fe3 O17 1.996 . S
Fe3 O20 1.997 . S
O4 Fe3 2.002 1_554 S
O4 C21 1.295 . S
O5 Fe0 1.997 . S
O5 C21 1.235 . S
O6 Fe0 2.002 . S
O6 C7 1.295 . S
C7 O6 1.295 . S
C7 O9 1.235 1_554 S
C8 O13 1.287 . S
C8 O14 1.255 . S
O9 Fe1 1.997 . S
O9 C7 1.235 1_556 S
C10 O16 1.287 . S
C10 O17 1.255 . S
O11 Fe0 1.976 . S
O11 C18 1.287 . S
O12 Fe1 1.996 . S
O12 C18 1.255 1_556 S
O13 Fe3 1.976 1_554 S
O13 C8 1.287 . S
O14 Fe0 1.996 . S
O14 C8 1.255 . S
C15 O19 1.295 . S
C15 O20 1.235 . S
O16 Fe1 1.976 . S
O16 C10 1.287 . S
O17 Fe3 1.996 . S
O17 C10 1.255 . S
C18 O11 1.287 . S
C18 O12 1.255 1_554 S
O19 Fe1 2.002 . S
O19 C15 1.295 . S
O20 Fe3 1.997 . S
O20 C15 1.235 . S
C21 O4 1.295 . S
C21 O5 1.235 . S
Fe22 O24 1.918 . S
Fe22 O27 1.997 . S
Fe22 O28 2.002 . S
Fe22 O33 1.976 . S
Fe22 O36 1.996 . S
Fe23 O24 1.918 . S
Fe23 O31 1.997 . S
Fe23 O34 1.996 . S
Fe23 O38 1.976 . S
Fe23 O41 2.002 . S
O24 Fe22 1.918 . S
O24 Fe23 1.918 . S
O24 Fe25 1.918 . S
Fe25 O24 1.918 . S
Fe25 O26 2.002 . S
Fe25 O35 1.976 . S
Fe25 O39 1.996 . S
Fe25 O42 1.997 . S
O26 Fe25 2.002 . S
O26 C43 1.295 . S
O27 Fe22 1.997 . S
O27 C43 1.235 . S
O28 Fe22 2.002 . S
O28 C29 1.295 . S
C29 O28 1.295 . S
C29 O31 1.235 . S
C30 O35 1.287 . S
C30 O36 1.255 . S
O31 Fe23 1.997 . S
O31 C29 1.235 . S
C32 O38 1.287 . S
C32 O39 1.255 . S
O33 Fe22 1.976 . S
O33 C40 1.287 . S
O34 Fe23 1.996 . S
O34 C40 1.255 . S
O35 Fe25 1.976 . S
O35 C30 1.287 . S
O36 Fe22 1.996 . S
O36 C30 1.255 . S
C37 O41 1.295 . S
C37 O42 1.235 . S
O38 Fe23 1.976 . S
O38 C32 1.287 . S
O39 Fe25 1.996 . S
O39 C32 1.255 . S
C40 O33 1.287 . S
C40 O34 1.255 . S
O41 Fe23 2.002 . S
O41 C37 1.295 . S
O42 Fe25 1.997 . S
O42 C37 1.235 . S
C43 O26 1.295 . S
C43 O27 1.235 . S
Fe44 O46 1.918 1_556 S
Fe44 O49 1.997 . S
Fe44 O50 2.002 . S
Fe44 O55 1.976 . S
Fe44 O58 1.996 . S
Fe45 O46 1.918 . S
Fe45 O53 1.997 . S
Fe45 O56 1.996 . S
Fe45 O60 1.976 . S
Fe45 O63 2.002 . S
O46 Fe44 1.918 1_554 S
O46 Fe45 1.918 . S
O46 Fe47 1.918 . S
Fe47 O46 1.918 . S
Fe47 O48 2.002 1_554 S
Fe47 O57 1.976 1_554 S
Fe47 O61 1.996 . S
Fe47 O64 1.997 . S
O48 Fe47 2.002 1_556 S
O48 C65 1.295 . S
O49 Fe44 1.997 . S
O49 C65 1.235 . S
O50 Fe44 2.002 . S
O50 C51 1.295 1_556 S
C51 O50 1.295 1_554 S
C51 O53 1.235 . S
C52 O57 1.287 . S
C52 O58 1.255 . S
O53 Fe45 1.997 . S
O53 C51 1.235 . S
C54 O60 1.287 . S
C54 O61 1.255 . S
O55 Fe44 1.976 . S
O55 C62 1.287 1_556 S
O56 Fe45 1.996 . S
O56 C62 1.255 . S
O57 Fe47 1.976 1_556 S
O57 C52 1.287 . S
O58 Fe44 1.996 . S
O58 C52 1.255 . S
C59 O63 1.295 . S
C59 O64 1.235 . S
O60 Fe45 1.976 . S
O60 C54 1.287 . S
O61 Fe47 1.996 . S
O61 C54 1.255 . S
C62 O55 1.287 1_554 S
C62 O56 1.255 . S
O63 Fe45 2.002 . S
O63 C59 1.295 . S
O64 Fe47 1.997 . S
O64 C59 1.235 . S
C65 O48 1.295 . S
C65 O49 1.235 . S
Fe66 O68 1.918 . S
Fe66 O71 1.997 . S
Fe66 O72 2.002 . S
Fe66 O77 1.976 . S
Fe66 O80 1.996 . S
Fe67 O68 1.918 . S
Fe67 O75 1.997 . S
Fe67 O78 1.996 . S
Fe67 O82 1.976 . S
Fe67 O85 2.002 . S
O68 Fe66 1.918 . S
O68 Fe67 1.918 . S
O68 Fe69 1.918 . S
Fe69 O68 1.918 . S
Fe69 O70 2.002 . S
Fe69 O79 1.976 . S
Fe69 O83 1.996 . S
Fe69 O86 1.997 . S
O70 Fe69 2.002 . S
O70 C87 1.295 . S
O71 Fe66 1.997 . S
O71 C87 1.235 . S
O72 Fe66 2.002 . S
O72 C73 1.295 . S
C73 O72 1.295 . S
C73 O75 1.235 . S
C74 O79 1.287 . S
C74 O80 1.255 . S
O75 Fe67 1.997 . S
O75 C73 1.235 . S
C76 O82 1.287 . S
C76 O83 1.255 . S
O77 Fe66 1.976 . S
O77 C84 1.287 . S
O78 Fe67 1.996 . S
O78 C84 1.255 . S
O79 Fe69 1.976 . S
O79 C74 1.287 . S
O80 Fe66 1.996 . S
O80 C74 1.255 . S
C81 O85 1.295 . S
C81 O86 1.235 . S
O82 Fe67 1.976 . S
O82 C76 1.287 . S
O83 Fe69 1.996 . S
O83 C76 1.255 . S
C84 O77 1.287 . S
C84 O78 1.255 . S
O85 Fe67 2.002 . S
O85 C81 1.295 . S
O86 Fe69 1.997 . S
O86 C81 1.235 . S
C87 O70 1.295 . S
C87 O71 1.235 . S
H88 C89 0.949 . S
C89 H88 0.949 . S
C89 C90 1.395 . S
C89 C91 1.391 1_554 S
C90 C89 1.395 . S
C90 C93 1.390 . S
C91 C89 1.391 1_556 S
C91 C95 1.387 . S
C91 C96 1.491 . S
H92 C93 0.950 . S
C93 C90 1.390 . S
C93 H92 0.950 . S
C93 C94 1.378 1_554 S
C94 C93 1.378 1_556 S
C94 C95 1.409 . S
C95 C91 1.387 . S
C95 C94 1.409 . S
C95 H97 0.951 . S
C96 C91 1.491 . S
C96 C98 1.382 1_556 S
C96 C100 1.404 . S
H97 C95 0.951 . S
C98 C96 1.382 1_554 S
C98 C99 1.390 1_554 S
C98 H103 0.949 . S
C99 C98 1.390 1_556 S
C99 C104 1.399 . S
C100 C96 1.404 . S
C100 H101 0.950 . S
C100 C102 1.375 . S
H101 C100 0.950 . S
C102 C100 1.375 . S
C102 C104 1.382 . S
C102 H106 0.950 . S
H103 C98 0.949 . S
C104 C99 1.399 . S
C104 C102 1.382 . S
C104 H105 0.952 . S
H105 C104 0.952 . S
H106 C102 0.950 . S
H107 C108 0.949 . S
C108 H107 0.949 . S
C108 C109 1.395 . S
C108 C110 1.391 . S
C109 C108 1.395 . S
C109 C112 1.390 . S
C110 C108 1.391 . S
C110 C114 1.387 . S
C110 C115 1.491 1_655 S
H111 C112 0.950 . S
C112 C109 1.390 . S
C112 H111 0.950 . S
C112 C113 1.378 . S
C113 C112 1.378 . S
C113 C114 1.409 . S
C114 C110 1.387 . S
C114 C113 1.409 . S
C114 H116 0.951 . S
C115 C110 1.491 1_455 S
C115 C117 1.382 . S
C115 C119 1.404 . S
H116 C114 0.951 . S
C117 C115 1.382 . S
C117 C118 1.390 . S
C117 H122 0.949 . S
C118 C117 1.390 . S
C118 C123 1.399 . S
C119 C115 1.404 . S
C119 H120 0.950 . S
C119 C121 1.375 . S
H120 C119 0.950 . S
C121 C119 1.375 . S
C121 C123 1.382 . S
C121 H125 0.950 . S
H122 C117 0.949 . S
C123 C118 1.399 . S
C123 C121 1.382 . S
C123 H124 0.952 . S
H124 C123 0.952 . S
H125 C121 0.950 . S
H126 C127 0.949 . S
C127 H126 0.949 . S
C127 C128 1.395 . S
C127 C129 1.391 1_556 S
C128 C127 1.395 . S
C128 C131 1.390 1_556 S
C129 C127 1.391 1_554 S
C129 C133 1.387 . S
C129 C134 1.491 . S
H130 C131 0.950 . S
C131 C128 1.390 1_554 S
C131 H130 0.950 . S
C131 C132 1.378 . S
C132 C131 1.378 . S
C132 C133 1.409 . S
C133 C129 1.387 . S
C133 C132 1.409 . S
C133 H135 0.951 . S
C134 C129 1.491 . S
C134 C136 1.382 . S
C134 C138 1.404 . S
H135 C133 0.951 . S
C136 C134 1.382 . S
C136 C137 1.390 . S
C136 H141 0.949 1_554 S
C137 C136 1.390 . S
C137 C142 1.399 . S
C138 C134 1.404 . S
C138 H139 0.950 . S
C138 C140 1.375 . S
H139 C138 0.950 . S
C140 C138 1.375 . S
C140 C142 1.382 . S
C140 H144 0.950 . S
H141 C136 0.949 1_556 S
C142 C137 1.399 . S
C142 C140 1.382 . S
C142 H143 0.952 . S
H143 C142 0.952 . S
H144 C140 0.950 . S
H145 C146 0.949 . S
C146 H145 0.949 . S
C146 C147 1.395 . S
C146 C148 1.391 . S
C147 C146 1.395 . S
C147 C150 1.390 . S
C148 C146 1.391 . S
C148 C152 1.387 . S
C148 C153 1.491 1_455 S
H149 C150 0.950 . S
C150 C147 1.390 . S
C150 H149 0.950 . S
C150 C151 1.378 . S
C151 C150 1.378 . S
C151 C152 1.409 . S
C152 C148 1.387 . S
C152 C151 1.409 . S
C152 H154 0.951 . S
C153 C148 1.491 1_655 S
C153 C155 1.382 . S
C153 C157 1.404 . S
H154 C152 0.951 . S
C155 C153 1.382 . S
C155 C156 1.390 . S
C155 H160 0.949 . S
C156 C155 1.390 . S
C156 C161 1.399 . S
C157 C153 1.404 . S
C157 H158 0.950 . S
C157 C159 1.375 . S
H158 C157 0.950 . S
C159 C157 1.375 . S
C159 C161 1.382 . S
C159 H163 0.950 . S
H160 C155 0.949 . S
C161 C156 1.399 . S
C161 C159 1.382 . S
C161 H162 0.952 . S
H162 C161 0.952 . S
H163 C159 0.950 . S
H164 C165 0.949 . S
C165 H164 0.949 . S
C165 C166 1.395 . S
C165 C167 1.391 . S
C166 C165 1.395 . S
C166 C169 1.390 . S
C167 C165 1.391 . S
C167 C171 1.387 . S
C167 C172 1.491 1_565 S
H168 C169 0.950 . S
C169 C166 1.390 . S
C169 H168 0.950 . S
C169 C170 1.378 . S
C170 C169 1.378 . S
C170 C171 1.409 . S
C171 C167 1.387 . S
C171 C170 1.409 . S
C171 H173 0.951 . S
C172 C167 1.491 1_545 S
C172 C174 1.382 . S
C172 C176 1.404 . S
H173 C171 0.951 . S
C174 C172 1.382 . S
C174 C175 1.390 . S
C174 H179 0.949 . S
C175 C174 1.390 . S
C175 C180 1.399 . S
C176 C172 1.404 . S
C176 H177 0.950 . S
C176 C178 1.375 . S
H177 C176 0.950 . S
C178 C176 1.375 . S
C178 C180 1.382 . S
C178 H182 0.950 . S
H179 C174 0.949 . S
C180 C175 1.399 . S
C180 C178 1.382 . S
C180 H181 0.952 . S
H181 C180 0.952 . S
H182 C178 0.950 . S
H183 C184 0.949 . S
C184 H183 0.949 . S
C184 C185 1.395 . S
C184 C186 1.391 1_554 S
C185 C184 1.395 . S
C185 C188 1.390 . S
C186 C184 1.391 1_556 S
C186 C190 1.387 . S
C186 C191 1.491 . S
H187 C188 0.950 . S
C188 C185 1.390 . S
C188 H187 0.950 . S
C188 C189 1.378 1_554 S
C189 C188 1.378 1_556 S
C189 C190 1.409 . S
C190 C186 1.387 . S
C190 C189 1.409 . S
C190 H192 0.951 . S
C191 C186 1.491 . S
C191 C193 1.382 1_556 S
C191 C195 1.404 . S
H192 C190 0.951 . S
C193 C191 1.382 1_554 S
C193 C194 1.390 1_554 S
C193 H198 0.949 . S
C194 C193 1.390 1_556 S
C194 C199 1.399 . S
C195 C191 1.404 . S
C195 H196 0.950 . S
C195 C197 1.375 . S
H196 C195 0.950 . S
C197 C195 1.375 . S
C197 C199 1.382 . S
C197 H201 0.950 . S
H198 C193 0.949 . S
C199 C194 1.399 . S
C199 C197 1.382 . S
C199 H200 0.952 . S
H200 C199 0.952 . S
H201 C197 0.950 . S
H202 C203 0.949 . S
C203 H202 0.949 . S
C203 C204 1.395 . S
C203 C205 1.391 . S
C204 C203 1.395 . S
C204 C207 1.390 . S
C205 C203 1.391 . S
C205 C209 1.387 . S
C205 C210 1.491 1_545 S
H206 C207 0.950 . S
C207 C204 1.390 . S
C207 H206 0.950 . S
C207 C208 1.378 . S
C208 C207 1.378 . S
C208 C209 1.409 . S
C209 C205 1.387 . S
C209 C208 1.409 . S
C209 H211 0.951 . S
C210 C205 1.491 1_565 S
C210 C212 1.382 . S
C210 C214 1.404 . S
H211 C209 0.951 . S
C212 C210 1.382 . S
C212 C213 1.390 . S
C212 H217 0.949 . S
C213 C212 1.390 . S
C213 C218 1.399 . S
C214 C210 1.404 . S
C214 H215 0.950 . S
C214 C216 1.375 . S
H215 C214 0.950 . S
C216 C214 1.375 . S
C216 C218 1.382 . S
C216 H220 0.950 . S
H217 C212 0.949 . S
C218 C213 1.399 . S
C218 C216 1.382 . S
C218 H219 0.952 . S
H219 C218 0.952 . S
H220 C216 0.950 . S
H221 C222 0.949 . S
C222 H221 0.949 . S
C222 C223 1.395 . S
C222 C224 1.391 1_556 S
C223 C222 1.395 . S
C223 C226 1.390 1_556 S
C224 C222 1.391 1_554 S
C224 C228 1.387 . S
C224 C229 1.491 . S
H225 C226 0.950 . S
C226 C223 1.390 1_554 S
C226 H225 0.950 . S
C226 C227 1.378 . S
C227 C226 1.378 . S
C227 C228 1.409 . S
C228 C224 1.387 . S
C228 C227 1.409 . S
C228 H230 0.951 . S
C229 C224 1.491 . S
C229 C231 1.382 . S
C229 C233 1.404 . S
H230 C228 0.951 . S
C231 C229 1.382 . S
C231 C232 1.390 . S
C231 H236 0.949 1_554 S
C232 C231 1.390 . S
C232 C237 1.399 . S
C233 C229 1.404 . S
C233 H234 0.950 . S
C233 C235 1.375 . S
H234 C233 0.950 . S
C235 C233 1.375 . S
C235 C237 1.382 . S
C235 H239 0.950 . S
H236 C231 0.949 1_556 S
C237 C232 1.399 . S
C237 C235 1.382 . S
C237 H238 0.952 . S
H238 C237 0.952 . S
H239 C235 0.950 . S
H240 C252 0.930 . S
H241 C254 0.930 . S
H242 C255 0.930 . S
H243 C259 0.959 . S
H244 C259 0.959 . S
H245 C259 0.961 . S
H246 C260 0.960 . S
H247 C260 0.961 . S
H248 C260 0.959 . S
H249 C263 0.929 . S
H250 C264 0.931 . S
H251 C266 0.930 . S
C252 H240 0.930 . S
C252 C253 1.399 . S
C252 C257 1.399 . S
C253 C252 1.399 . S
C253 C254 1.376 . S
C254 H241 0.930 . S
C254 C253 1.376 . S
C254 C255 1.388 . S
C255 H242 0.930 . S
C255 C254 1.388 . S
C255 C256 1.390 . S
C256 C255 1.390 . S
C256 C257 1.394 . S
C256 C262 1.465 . S
C257 C252 1.399 . S
C257 C256 1.394 . S
C257 C258 1.516 . S
C258 C257 1.516 . S
C258 C259 1.502 . S
C258 C260 1.561 . S
C258 C261 1.526 . S
C259 H243 0.959 . S
C259 H244 0.959 . S
C259 H245 0.961 . S
C259 C258 1.502 . S
C260 H246 0.960 . S
C260 H247 0.961 . S
C260 H248 0.959 . S
C260 C258 1.561 . S
C261 C258 1.526 . S
C261 C262 1.396 . S
C261 C266 1.390 . S
C262 C256 1.465 . S
C262 C261 1.396 . S
C262 C263 1.399 . S
C263 H249 0.929 . S
C263 C262 1.399 . S
C263 C264 1.385 . S
C264 H250 0.931 . S
C264 C263 1.385 . S
C264 C265 1.389 . S
C265 C264 1.389 . S
C265 C266 1.387 . S
C266 H251 0.930 . S
C266 C261 1.390 . S
C266 C265 1.387 . S
H267 C279 0.930 . S
H268 C281 0.930 . S
H269 C282 0.930 . S
H270 C286 0.959 . S
H271 C286 0.959 . S
H272 C286 0.961 . S
H273 C287 0.960 . S
H274 C287 0.961 . S
H275 C287 0.959 . S
H276 C290 0.929 . S
H277 C291 0.931 . S
H278 C293 0.930 . S
C279 H267 0.930 . S
C279 C280 1.399 . S
C279 C284 1.399 . S
C280 C279 1.399 . S
C280 C281 1.376 . S
C281 H268 0.930 . S
C281 C280 1.376 . S
C281 C282 1.388 . S
C282 H269 0.930 . S
C282 C281 1.388 . S
C282 C283 1.390 . S
C283 C282 1.390 . S
C283 C284 1.394 . S
C283 C289 1.465 . S
C284 C279 1.399 . S
C284 C283 1.394 . S
C284 C285 1.516 . S
C285 C284 1.516 . S
C285 C286 1.502 . S
C285 C287 1.561 . S
C285 C288 1.526 . S
C286 H270 0.959 . S
C286 H271 0.959 . S
C286 H272 0.961 . S
C286 C285 1.502 . S
C287 H273 0.960 . S
C287 H274 0.961 . S
C287 H275 0.959 . S
C287 C285 1.561 . S
C288 C285 1.526 . S
C288 C289 1.396 . S
C288 C293 1.390 . S
C289 C283 1.465 . S
C289 C288 1.396 . S
C289 C290 1.399 . S
C290 H276 0.929 . S
C290 C289 1.399 . S
C290 C291 1.385 . S
C291 H277 0.931 . S
C291 C290 1.385 . S
C291 C292 1.389 . S
C292 C291 1.389 . S
C292 C293 1.387 . S
C293 H278 0.930 . S
C293 C288 1.390 . S
C293 C292 1.387 . S
H294 C306 0.930 . S
H295 C308 0.930 . S
H296 C309 0.930 . S
H297 C313 0.959 . S
H298 C313 0.959 . S
H299 C313 0.961 . S
H300 C314 0.960 . S
H301 C314 0.961 . S
H302 C314 0.959 . S
H303 C317 0.929 . S
H304 C318 0.931 . S
H305 C320 0.930 . S
C306 H294 0.930 . S
C306 C307 1.399 . S
C306 C311 1.399 . S
C307 C306 1.399 . S
C307 C308 1.376 . S
C308 H295 0.930 . S
C308 C307 1.376 . S
C308 C309 1.388 . S
C309 H296 0.930 . S
C309 C308 1.388 . S
C309 C310 1.390 . S
C310 C309 1.390 . S
C310 C311 1.394 . S
C310 C316 1.465 . S
C311 C306 1.399 . S
C311 C310 1.394 . S
C311 C312 1.516 . S
C312 C311 1.516 . S
C312 C313 1.502 . S
C312 C314 1.561 . S
C312 C315 1.526 . S
C313 H297 0.959 . S
C313 H298 0.959 . S
C313 H299 0.961 . S
C313 C312 1.502 . S
C314 H300 0.960 . S
C314 H301 0.961 . S
C314 H302 0.959 . S
C314 C312 1.561 . S
C315 C312 1.526 . S
C315 C316 1.396 . S
C315 C320 1.390 . S
C316 C310 1.465 . S
C316 C315 1.396 . S
C316 C317 1.399 . S
C317 H303 0.929 . S
C317 C316 1.399 . S
C317 C318 1.385 . S
C318 H304 0.931 . S
C318 C317 1.385 . S
C318 C319 1.389 . S
C319 C318 1.389 . S
C319 C320 1.387 . S
C320 H305 0.930 . S
C320 C315 1.390 . S
C320 C319 1.387 . S
H321 C333 0.930 . S
H322 C335 0.930 . S
H323 C336 0.930 . S
H324 C340 0.959 . S
H325 C340 0.959 . S
H326 C340 0.961 . S
H327 C341 0.960 . S
H328 C341 0.961 . S
H329 C341 0.959 . S
H330 C344 0.929 . S
H331 C345 0.931 . S
H332 C347 0.930 . S
C333 H321 0.930 . S
C333 C334 1.399 . S
C333 C338 1.399 . S
C334 C333 1.399 . S
C334 C335 1.376 . S
C335 H322 0.930 . S
C335 C334 1.376 . S
C335 C336 1.388 . S
C336 H323 0.930 . S
C336 C335 1.388 . S
C336 C337 1.390 . S
C337 C336 1.390 . S
C337 C338 1.394 . S
C337 C343 1.465 . S
C338 C333 1.399 . S
C338 C337 1.394 . S
C338 C339 1.516 . S
C339 C338 1.516 . S
C339 C340 1.502 . S
C339 C341 1.561 . S
C339 C342 1.526 . S
C340 H324 0.959 . S
C340 H325 0.959 . S
C340 H326 0.961 . S
C340 C339 1.502 . S
C341 H327 0.960 . S
C341 H328 0.961 . S
C341 H329 0.959 . S
C341 C339 1.561 . S
C342 C339 1.526 . S
C342 C343 1.396 . S
C342 C347 1.390 . S
C343 C337 1.465 . S
C343 C342 1.396 . S
C343 C344 1.399 . S
C344 H330 0.929 . S
C344 C343 1.399 . S
C344 C345 1.385 . S
C345 H331 0.931 . S
C345 C344 1.385 . S
C345 C346 1.389 . S
C346 C345 1.389 . S
C346 C347 1.387 . S
C347 H332 0.930 . S
C347 C342 1.390 . S
C347 C346 1.387 . S
H348 C360 0.930 . S
H349 C362 0.930 . S
H350 C363 0.930 . S
H351 C367 0.959 . S
H352 C367 0.959 . S
H353 C367 0.961 . S
H354 C368 0.960 . S
H355 C368 0.961 . S
H356 C368 0.959 . S
H357 C371 0.929 . S
H358 C372 0.931 . S
H359 C374 0.930 . S
C360 H348 0.930 . S
C360 C361 1.399 . S
C360 C365 1.399 . S
C361 C360 1.399 . S
C361 C362 1.376 . S
C362 H349 0.930 . S
C362 C361 1.376 . S
C362 C363 1.388 . S
C363 H350 0.930 . S
C363 C362 1.388 . S
C363 C364 1.390 . S
C364 C363 1.390 . S
C364 C365 1.394 . S
C364 C370 1.465 . S
C365 C360 1.399 . S
C365 C364 1.394 . S
C365 C366 1.516 . S
C366 C365 1.516 . S
C366 C367 1.502 . S
C366 C368 1.561 . S
C366 C369 1.526 . S
C367 H351 0.959 . S
C367 H352 0.959 . S
C367 H353 0.961 . S
C367 C366 1.502 . S
C368 H354 0.960 . S
C368 H355 0.961 . S
C368 H356 0.959 . S
C368 C366 1.561 . S
C369 C366 1.526 . S
C369 C370 1.396 . S
C369 C374 1.390 . S
C370 C364 1.465 . S
C370 C369 1.396 . S
C370 C371 1.399 . S
C371 H357 0.929 . S
C371 C370 1.399 . S
C371 C372 1.385 . S
C372 H358 0.931 . S
C372 C371 1.385 . S
C372 C373 1.389 . S
C373 C372 1.389 . S
C373 C374 1.387 . S
C374 H359 0.930 . S
C374 C369 1.390 . S
C374 C373 1.387 . S
H375 C387 0.930 . S
H376 C389 0.930 . S
H377 C390 0.930 . S
H378 C394 0.959 . S
H379 C394 0.959 . S
H380 C394 0.961 . S
H381 C395 0.960 . S
H382 C395 0.961 . S
H383 C395 0.959 . S
H384 C398 0.929 . S
H385 C399 0.931 . S
H386 C401 0.930 . S
C387 H375 0.930 . S
C387 C388 1.399 . S
C387 C392 1.399 . S
C388 C387 1.399 . S
C388 C389 1.376 . S
C389 H376 0.930 . S
C389 C388 1.376 . S
C389 C390 1.388 . S
C390 H377 0.930 . S
C390 C389 1.388 . S
C390 C391 1.390 . S
C391 C390 1.390 . S
C391 C392 1.394 . S
C391 C397 1.465 . S
C392 C387 1.399 . S
C392 C391 1.394 . S
C392 C393 1.516 . S
C393 C392 1.516 . S
C393 C394 1.502 . S
C393 C395 1.561 . S
C393 C396 1.526 . S
C394 H378 0.959 . S
C394 H379 0.959 . S
C394 H380 0.961 . S
C394 C393 1.502 . S
C395 H381 0.960 . S
C395 H382 0.961 . S
C395 H383 0.959 . S
C395 C393 1.561 . S
C396 C393 1.526 . S
C396 C397 1.396 . S
C396 C401 1.390 . S
C397 C391 1.465 . S
C397 C396 1.396 . S
C397 C398 1.399 . S
C398 H384 0.929 . S
C398 C397 1.399 . S
C398 C399 1.385 . S
C399 H385 0.931 . S
C399 C398 1.385 . S
C399 C400 1.389 . S
C400 C399 1.389 . S
C400 C401 1.387 . S
C401 H386 0.930 . S
C401 C396 1.390 . S
C401 C400 1.387 . S
H402 C414 0.930 . S
H403 C416 0.930 . S
H404 C417 0.930 . S
H405 C421 0.959 . S
H406 C421 0.959 . S
H407 C421 0.961 . S
H408 C422 0.960 . S
H409 C422 0.961 . S
H410 C422 0.959 . S
H411 C425 0.929 . S
H412 C426 0.931 . S
H413 C428 0.930 . S
C414 H402 0.930 . S
C414 C415 1.399 . S
C414 C419 1.399 . S
C415 C414 1.399 . S
C415 C416 1.376 . S
C416 H403 0.930 . S
C416 C415 1.376 . S
C416 C417 1.388 . S
C417 H404 0.930 . S
C417 C416 1.388 . S
C417 C418 1.390 . S
C418 C417 1.390 . S
C418 C419 1.394 . S
C418 C424 1.465 . S
C419 C414 1.399 . S
C419 C418 1.394 . S
C419 C420 1.516 . S
C420 C419 1.516 . S
C420 C421 1.502 . S
C420 C422 1.561 . S
C420 C423 1.526 . S
C421 H405 0.959 . S
C421 H406 0.959 . S
C421 H407 0.961 . S
C421 C420 1.502 . S
C422 H408 0.960 . S
C422 H409 0.961 . S
C422 H410 0.959 . S
C422 C420 1.561 . S
C423 C420 1.526 . S
C423 C424 1.396 . S
C423 C428 1.390 . S
C424 C418 1.465 . S
C424 C423 1.396 . S
C424 C425 1.399 . S
C425 H411 0.929 . S
C425 C424 1.399 . S
C425 C426 1.385 . S
C426 H412 0.931 . S
C426 C425 1.385 . S
C426 C427 1.389 . S
C427 C426 1.389 . S
C427 C428 1.387 . S
C428 H413 0.930 . S
C428 C423 1.390 . S
C428 C427 1.387 . S
H429 C441 0.930 . S
H430 C443 0.930 . S
H431 C444 0.930 . S
H432 C448 0.959 . S
H433 C448 0.959 . S
H434 C448 0.961 . S
H435 C449 0.960 . S
H436 C449 0.961 . S
H437 C449 0.959 . S
H438 C452 0.929 . S
H439 C453 0.931 . S
H440 C455 0.930 . S
C441 H429 0.930 . S
C441 C442 1.399 . S
C441 C446 1.399 . S
C442 C441 1.399 . S
C442 C443 1.376 . S
C443 H430 0.930 . S
C443 C442 1.376 . S
C443 C444 1.388 . S
C444 H431 0.930 . S
C444 C443 1.388 . S
C444 C445 1.390 . S
C445 C444 1.390 . S
C445 C446 1.394 . S
C445 C451 1.465 . S
C446 C441 1.399 . S
C446 C445 1.394 . S
C446 C447 1.516 . S
C447 C446 1.516 . S
C447 C448 1.502 . S
C447 C449 1.561 . S
C447 C450 1.526 . S
C448 H432 0.959 . S
C448 H433 0.959 . S
C448 H434 0.961 . S
C448 C447 1.502 . S
C449 H435 0.960 . S
C449 H436 0.961 . S
C449 H437 0.959 . S
C449 C447 1.561 . S
C450 C447 1.526 . S
C450 C451 1.396 . S
C450 C455 1.390 . S
C451 C445 1.465 . S
C451 C450 1.396 . S
C451 C452 1.399 . S
C452 H438 0.929 . S
C452 C451 1.399 . S
C452 C453 1.385 . S
C453 H439 0.931 . S
C453 C452 1.385 . S
C453 C454 1.389 . S
C454 C453 1.389 . S
C454 C455 1.387 . S
C455 H440 0.930 . S
C455 C450 1.390 . S
C455 C454 1.387 . S
H456 C468 0.930 . S
H457 C470 0.930 . S
H458 C471 0.930 . S
H459 C475 0.959 . S
H460 C475 0.959 . S
H461 C475 0.961 . S
H462 C476 0.960 . S
H463 C476 0.961 . S
H464 C476 0.959 . S
H465 C479 0.929 . S
H466 C480 0.931 . S
H467 C482 0.930 . S
C468 H456 0.930 . S
C468 C469 1.399 . S
C468 C473 1.399 . S
C469 C468 1.399 . S
C469 C470 1.376 . S
C470 H457 0.930 . S
C470 C469 1.376 . S
C470 C471 1.388 . S
C471 H458 0.930 . S
C471 C470 1.388 . S
C471 C472 1.390 . S
C472 C471 1.390 . S
C472 C473 1.394 . S
C472 C478 1.465 . S
C473 C468 1.399 . S
C473 C472 1.394 . S
C473 C474 1.516 . S
C474 C473 1.516 . S
C474 C475 1.502 . S
C474 C476 1.561 . S
C474 C477 1.526 . S
C475 H459 0.959 . S
C475 H460 0.959 . S
C475 H461 0.961 . S
C475 C474 1.502 . S
C476 H462 0.960 . S
C476 H463 0.961 . S
C476 H464 0.959 . S
C476 C474 1.561 . S
C477 C474 1.526 . S
C477 C478 1.396 . S
C477 C482 1.390 . S
C478 C472 1.465 . S
C478 C477 1.396 . S
C478 C479 1.399 . S
C479 H465 0.929 . S
C479 C478 1.399 . S
C479 C480 1.385 . S
C480 H466 0.931 . S
C480 C479 1.385 . S
C480 C481 1.389 . S
C481 C480 1.389 . S
C481 C482 1.387 . S
C482 H467 0.930 . S
C482 C477 1.390 . S
C482 C481 1.387 . S
H483 C495 0.930 . S
H484 C497 0.930 . S
H485 C498 0.930 . S
H486 C502 0.959 . S
H487 C502 0.959 . S
H488 C502 0.961 . S
H489 C503 0.960 . S
H490 C503 0.961 . S
H491 C503 0.959 . S
H492 C506 0.929 . S
H493 C507 0.931 . S
H494 C509 0.930 . S
C495 H483 0.930 . S
C495 C496 1.399 . S
C495 C500 1.399 . S
C496 C495 1.399 . S
C496 C497 1.376 . S
C497 H484 0.930 . S
C497 C496 1.376 . S
C497 C498 1.388 . S
C498 H485 0.930 . S
C498 C497 1.388 . S
C498 C499 1.390 . S
C499 C498 1.390 . S
C499 C500 1.394 . S
C499 C505 1.465 . S
C500 C495 1.399 . S
C500 C499 1.394 . S
C500 C501 1.516 . S
C501 C500 1.516 . S
C501 C502 1.502 . S
C501 C503 1.561 . S
C501 C504 1.526 . S
C502 H486 0.959 . S
C502 H487 0.959 . S
C502 H488 0.961 . S
C502 C501 1.502 . S
C503 H489 0.960 . S
C503 H490 0.961 . S
C503 H491 0.959 . S
C503 C501 1.561 . S
C504 C501 1.526 . S
C504 C505 1.396 . S
C504 C509 1.390 . S
C505 C499 1.465 . S
C505 C504 1.396 . S
C505 C506 1.399 . S
C506 H492 0.929 . S
C506 C505 1.399 . S
C506 C507 1.385 . S
C507 H493 0.931 . S
C507 C506 1.385 . S
C507 C508 1.389 . S
C508 C507 1.389 . S
C508 C509 1.387 . S
C509 H494 0.930 . S
C509 C504 1.390 . S
C509 C508 1.387 . S
H510 C522 0.930 . S
H511 C524 0.930 . S
H512 C525 0.930 . S
H513 C529 0.959 . S
H514 C529 0.959 . S
H515 C529 0.961 . S
H516 C530 0.960 . S
H517 C530 0.961 . S
H518 C530 0.959 . S
H519 C533 0.929 . S
H520 C534 0.931 . S
H521 C536 0.930 . S
C522 H510 0.930 . S
C522 C523 1.399 . S
C522 C527 1.399 . S
C523 C522 1.399 . S
C523 C524 1.376 . S
C524 H511 0.930 . S
C524 C523 1.376 . S
C524 C525 1.388 . S
C525 H512 0.930 . S
C525 C524 1.388 . S
C525 C526 1.390 . S
C526 C525 1.390 . S
C526 C527 1.394 . S
C526 C532 1.465 . S
C527 C522 1.399 . S
C527 C526 1.394 . S
C527 C528 1.516 . S
C528 C527 1.516 . S
C528 C529 1.502 . S
C528 C530 1.561 . S
C528 C531 1.526 . S
C529 H513 0.959 . S
C529 H514 0.959 . S
C529 H515 0.961 . S
C529 C528 1.502 . S
C530 H516 0.960 . S
C530 H517 0.961 . S
C530 H518 0.959 . S
C530 C528 1.561 . S
C531 C528 1.526 . S
C531 C532 1.396 . S
C531 C536 1.390 . S
C532 C526 1.465 . S
C532 C531 1.396 . S
C532 C533 1.399 . S
C533 H519 0.929 . S
C533 C532 1.399 . S
C533 C534 1.385 . S
C534 H520 0.931 . S
C534 C533 1.385 . S
C534 C535 1.389 . S
C535 C534 1.389 . S
C535 C536 1.387 . S
C536 H521 0.930 . S
C536 C531 1.390 . S
C536 C535 1.387 . S
H537 C549 0.930 . S
H538 C551 0.930 . S
H539 C552 0.930 . S
H540 C556 0.959 . S
H541 C556 0.959 . S
H542 C556 0.961 . S
H543 C557 0.960 . S
H544 C557 0.961 . S
H545 C557 0.959 . S
H546 C560 0.929 . S
H547 C561 0.931 . S
H548 C563 0.930 . S
C549 H537 0.930 . S
C549 C550 1.399 . S
C549 C554 1.399 . S
C550 C549 1.399 . S
C550 C551 1.376 . S
C551 H538 0.930 . S
C551 C550 1.376 . S
C551 C552 1.388 . S
C552 H539 0.930 . S
C552 C551 1.388 . S
C552 C553 1.390 . S
C553 C552 1.390 . S
C553 C554 1.394 . S
C553 C559 1.465 . S
C554 C549 1.399 . S
C554 C553 1.394 . S
C554 C555 1.516 . S
C555 C554 1.516 . S
C555 C556 1.502 . S
C555 C557 1.561 . S
C555 C558 1.526 . S
C556 H540 0.959 . S
C556 H541 0.959 . S
C556 H542 0.961 . S
C556 C555 1.502 . S
C557 H543 0.960 . S
C557 H544 0.961 . S
C557 H545 0.959 . S
C557 C555 1.561 . S
C558 C555 1.526 . S
C558 C559 1.396 . S
C558 C563 1.390 . S
C559 C553 1.465 . S
C559 C558 1.396 . S
C559 C560 1.399 . S
C560 H546 0.929 . S
C560 C559 1.399 . S
C560 C561 1.385 . S
C561 H547 0.931 . S
C561 C560 1.385 . S
C561 C562 1.389 . S
C562 C561 1.389 . S
C562 C563 1.387 . S
C563 H548 0.930 . S
C563 C558 1.390 . S
C563 C562 1.387 . S
H564 C576 0.930 . S
H565 C578 0.930 . S
H566 C579 0.930 . S
H567 C583 0.959 . S
H568 C583 0.959 . S
H569 C583 0.961 . S
H570 C584 0.960 . S
H571 C584 0.961 . S
H572 C584 0.959 . S
H573 C587 0.929 . S
H574 C588 0.931 . S
H575 C590 0.930 . S
C576 H564 0.930 . S
C576 C577 1.399 . S
C576 C581 1.399 . S
C577 C576 1.399 . S
C577 C578 1.376 . S
C578 H565 0.930 . S
C578 C577 1.376 . S
C578 C579 1.388 . S
C579 H566 0.930 . S
C579 C578 1.388 . S
C579 C580 1.390 . S
C580 C579 1.390 . S
C580 C581 1.394 . S
C580 C586 1.465 . S
C581 C576 1.399 . S
C581 C580 1.394 . S
C581 C582 1.516 . S
C582 C581 1.516 . S
C582 C583 1.502 . S
C582 C584 1.561 . S
C582 C585 1.526 . S
C583 H567 0.959 . S
C583 H568 0.959 . S
C583 H569 0.961 . S
C583 C582 1.502 . S
C584 H570 0.960 . S
C584 H571 0.961 . S
C584 H572 0.959 . S
C584 C582 1.561 . S
C585 C582 1.526 . S
C585 C586 1.396 . S
C585 C590 1.390 . S
C586 C580 1.465 . S
C586 C585 1.396 . S
C586 C587 1.399 . S
C587 H573 0.929 . S
C587 C586 1.399 . S
C587 C588 1.385 . S
C588 H574 0.931 . S
C588 C587 1.385 . S
C588 C589 1.389 . S
C589 C588 1.389 . S
C589 C590 1.387 . S
C590 H575 0.930 . S
C590 C585 1.390 . S
C590 C589 1.387 . S
H591 C603 0.930 . S
H592 C605 0.930 . S
H593 C606 0.930 . S
H594 C610 0.959 . S
H595 C610 0.959 . S
H596 C610 0.961 . S
H597 C611 0.960 . S
H598 C611 0.961 . S
H599 C611 0.959 . S
H600 C614 0.929 . S
H601 C615 0.931 . S
H602 C617 0.930 . S
C603 H591 0.930 . S
C603 C604 1.399 . S
C603 C608 1.399 . S
C604 C603 1.399 . S
C604 C605 1.376 . S
C605 H592 0.930 . S
C605 C604 1.376 . S
C605 C606 1.388 . S
C606 H593 0.930 . S
C606 C605 1.388 . S
C606 C607 1.390 . S
C607 C606 1.390 . S
C607 C608 1.394 . S
C607 C613 1.465 . S
C608 C603 1.399 . S
C608 C607 1.394 . S
C608 C609 1.516 . S
C609 C608 1.516 . S
C609 C610 1.502 . S
C609 C611 1.561 . S
C609 C612 1.526 . S
C610 H594 0.959 . S
C610 H595 0.959 . S
C610 H596 0.961 . S
C610 C609 1.502 . S
C611 H597 0.960 . S
C611 H598 0.961 . S
C611 H599 0.959 . S
C611 C609 1.561 . S
C612 C609 1.526 . S
C612 C613 1.396 . S
C612 C617 1.390 . S
C613 C607 1.465 . S
C613 C612 1.396 . S
C613 C614 1.399 . S
C614 H600 0.929 . S
C614 C613 1.399 . S
C614 C615 1.385 . S
C615 H601 0.931 . S
C615 C614 1.385 . S
C615 C616 1.389 . S
C616 C615 1.389 . S
C616 C617 1.387 . S
C617 H602 0.930 . S
C617 C612 1.390 . S
C617 C616 1.387 . S
H618 C630 0.930 . S
H619 C632 0.930 . S
H620 C633 0.930 . S
H621 C637 0.959 . S
H622 C637 0.959 . S
H623 C637 0.961 . S
H624 C638 0.960 . S
H625 C638 0.961 . S
H626 C638 0.959 . S
H627 C641 0.929 . S
H628 C642 0.931 . S
H629 C644 0.930 . S
C630 H618 0.930 . S
C630 C631 1.399 . S
C630 C635 1.399 . S
C631 C630 1.399 . S
C631 C632 1.376 . S
C632 H619 0.930 . S
C632 C631 1.376 . S
C632 C633 1.388 . S
C633 H620 0.930 . S
C633 C632 1.388 . S
C633 C634 1.390 . S
C634 C633 1.390 . S
C634 C635 1.394 . S
C634 C640 1.465 . S
C635 C630 1.399 . S
C635 C634 1.394 . S
C635 C636 1.516 . S
C636 C635 1.516 . S
C636 C637 1.502 . S
C636 C638 1.561 . S
C636 C639 1.526 . S
C637 H621 0.959 . S
C637 H622 0.959 . S
C637 H623 0.961 . S
C637 C636 1.502 . S
C638 H624 0.960 . S
C638 H625 0.961 . S
C638 H626 0.959 . S
C638 C636 1.561 . S
C639 C636 1.526 . S
C639 C640 1.396 . S
C639 C644 1.390 . S
C640 C634 1.465 . S
C640 C639 1.396 . S
C640 C641 1.399 . S
C641 H627 0.929 . S
C641 C640 1.399 . S
C641 C642 1.385 . S
C642 H628 0.931 . S
C642 C641 1.385 . S
C642 C643 1.389 . S
C643 C642 1.389 . S
C643 C644 1.387 . S
C644 H629 0.930 . S
C644 C639 1.390 . S
C644 C643 1.387 . S
H645 C657 0.930 . S
H646 C659 0.930 . S
H647 C660 0.930 . S
H648 C664 0.959 . S
H649 C664 0.959 . S
H650 C664 0.961 . S
H651 C665 0.960 . S
H652 C665 0.961 . S
H653 C665 0.959 . S
H654 C668 0.929 . S
H655 C669 0.931 . S
H656 C671 0.930 . S
C657 H645 0.930 . S
C657 C658 1.399 . S
C657 C662 1.399 . S
C658 C657 1.399 . S
C658 C659 1.376 . S
C659 H646 0.930 . S
C659 C658 1.376 . S
C659 C660 1.388 . S
C660 H647 0.930 . S
C660 C659 1.388 . S
C660 C661 1.390 . S
C661 C660 1.390 . S
C661 C662 1.394 . S
C661 C667 1.465 . S
C662 C657 1.399 . S
C662 C661 1.394 . S
C662 C663 1.516 . S
C663 C662 1.516 . S
C663 C664 1.502 . S
C663 C665 1.561 . S
C663 C666 1.526 . S
C664 H648 0.959 . S
C664 H649 0.959 . S
C664 H650 0.961 . S
C664 C663 1.502 . S
C665 H651 0.960 . S
C665 H652 0.961 . S
C665 H653 0.959 . S
C665 C663 1.561 . S
C666 C663 1.526 . S
C666 C667 1.396 . S
C666 C671 1.390 . S
C667 C661 1.465 . S
C667 C666 1.396 . S
C667 C668 1.399 . S
C668 H654 0.929 . S
C668 C667 1.399 . S
C668 C669 1.385 . S
C669 H655 0.931 . S
C669 C668 1.385 . S
C669 C670 1.389 . S
C670 C669 1.389 . S
C670 C671 1.387 . S
C671 H656 0.930 . S
C671 C666 1.390 . S
C671 C670 1.387 . S
H672 C684 0.930 . S
H673 C686 0.930 . S
H674 C687 0.930 . S
H675 C691 0.959 . S
H676 C691 0.959 . S
H677 C691 0.961 . S
H678 C692 0.960 . S
H679 C692 0.961 . S
H680 C692 0.959 . S
H681 C695 0.929 . S
H682 C696 0.931 . S
H683 C698 0.930 . S
C684 H672 0.930 . S
C684 C685 1.399 1_556 S
C684 C689 1.399 . S
C685 C684 1.399 1_554 S
C685 C686 1.376 . S
C686 H673 0.930 . S
C686 C685 1.376 . S
C686 C687 1.388 . S
C687 H674 0.930 . S
C687 C686 1.388 . S
C687 C688 1.390 . S
C688 C687 1.390 . S
C688 C689 1.394 1_554 S
C688 C694 1.465 . S
C689 C684 1.399 . S
C689 C688 1.394 1_556 S
C689 C690 1.516 . S
C690 C689 1.516 . S
C690 C691 1.502 . S
C690 C692 1.561 . S
C690 C693 1.526 . S
C691 H675 0.959 . S
C691 H676 0.959 . S
C691 H677 0.961 . S
C691 C690 1.502 . S
C692 H678 0.960 . S
C692 H679 0.961 . S
C692 H680 0.959 . S
C692 C690 1.561 . S
C693 C690 1.526 . S
C693 C694 1.396 1_556 S
C693 C698 1.390 . S
C694 C688 1.465 . S
C694 C693 1.396 1_554 S
C694 C695 1.399 . S
C695 H681 0.929 . S
C695 C694 1.399 . S
C695 C696 1.385 . S
C696 H682 0.931 . S
C696 C695 1.385 . S
C696 C697 1.389 . S
C697 C696 1.389 . S
C697 C698 1.387 1_554 S
C698 H683 0.930 . S
C698 C693 1.390 . S
C698 C697 1.387 1_556 S
H699 C711 0.930 . S
H700 C713 0.930 . S
H701 C714 0.930 . S
H702 C718 0.959 . S
H703 C718 0.959 . S
H704 C718 0.961 . S
H705 C719 0.960 . S
H706 C719 0.961 . S
H707 C719 0.959 . S
H708 C722 0.929 . S
H709 C723 0.931 . S
H710 C725 0.930 . S
C711 H699 0.930 . S
C711 C712 1.399 . S
C711 C716 1.399 . S
C712 C711 1.399 . S
C712 C713 1.376 . S
C713 H700 0.930 . S
C713 C712 1.376 . S
C713 C714 1.388 . S
C714 H701 0.930 . S
C714 C713 1.388 . S
C714 C715 1.390 . S
C715 C714 1.390 . S
C715 C716 1.394 . S
C715 C721 1.465 . S
C716 C711 1.399 . S
C716 C715 1.394 . S
C716 C717 1.516 . S
C717 C716 1.516 . S
C717 C718 1.502 . S
C717 C719 1.561 . S
C717 C720 1.526 . S
C718 H702 0.959 . S
C718 H703 0.959 . S
C718 H704 0.961 . S
C718 C717 1.502 . S
C719 H705 0.960 . S
C719 H706 0.961 . S
C719 H707 0.959 . S
C719 C717 1.561 . S
C720 C717 1.526 . S
C720 C721 1.396 . S
C720 C725 1.390 . S
C721 C715 1.465 . S
C721 C720 1.396 . S
C721 C722 1.399 . S
C722 H708 0.929 . S
C722 C721 1.399 . S
C722 C723 1.385 . S
C723 H709 0.931 . S
C723 C722 1.385 . S
C723 C724 1.389 . S
C724 C723 1.389 . S
C724 C725 1.387 . S
C725 H710 0.930 . S
C725 C720 1.390 . S
C725 C724 1.387 . S
H726 C738 0.930 . S
H727 C740 0.930 . S
H728 C741 0.930 . S
H729 C745 0.959 . S
H730 C745 0.959 . S
H731 C745 0.961 . S
H732 C746 0.960 . S
H733 C746 0.961 . S
H734 C746 0.959 . S
H735 C749 0.929 . S
H736 C750 0.931 . S
H737 C752 0.930 . S
C738 H726 0.930 . S
C738 C739 1.399 1_556 S
C738 C743 1.399 . S
C739 C738 1.399 1_554 S
C739 C740 1.376 . S
C740 H727 0.930 . S
C740 C739 1.376 . S
C740 C741 1.388 . S
C741 H728 0.930 . S
C741 C740 1.388 . S
C741 C742 1.390 . S
C742 C741 1.390 . S
C742 C743 1.394 1_554 S
C742 C748 1.465 . S
C743 C738 1.399 . S
C743 C742 1.394 1_556 S
C743 C744 1.516 . S
C744 C743 1.516 . S
C744 C745 1.502 . S
C744 C746 1.561 . S
C744 C747 1.526 . S
C745 H729 0.959 . S
C745 H730 0.959 . S
C745 H731 0.961 . S
C745 C744 1.502 . S
C746 H732 0.960 . S
C746 H733 0.961 . S
C746 H734 0.959 . S
C746 C744 1.561 . S
C747 C744 1.526 . S
C747 C748 1.396 1_556 S
C747 C752 1.390 . S
C748 C742 1.465 . S
C748 C747 1.396 1_554 S
C748 C749 1.399 . S
C749 H735 0.929 . S
C749 C748 1.399 . S
C749 C750 1.385 . S
C750 H736 0.931 . S
C750 C749 1.385 . S
C750 C751 1.389 . S
C751 C750 1.389 . S
C751 C752 1.387 1_554 S
C752 H737 0.930 . S
C752 C747 1.390 . S
C752 C751 1.387 1_556 S
H753 C765 0.930 . S
H754 C767 0.930 . S
H755 C768 0.930 . S
H756 C772 0.959 . S
H757 C772 0.959 . S
H758 C772 0.961 . S
H759 C773 0.960 . S
H760 C773 0.961 . S
H761 C773 0.959 . S
H762 C776 0.929 . S
H763 C777 0.931 . S
H764 C779 0.930 . S
C765 H753 0.930 . S
C765 C766 1.399 . S
C765 C770 1.399 . S
C766 C765 1.399 . S
C766 C767 1.376 . S
C767 H754 0.930 . S
C767 C766 1.376 . S
C767 C768 1.388 . S
C768 H755 0.930 . S
C768 C767 1.388 . S
C768 C769 1.390 . S
C769 C768 1.390 . S
C769 C770 1.394 . S
C769 C775 1.465 . S
C770 C765 1.399 . S
C770 C769 1.394 . S
C770 C771 1.516 . S
C771 C770 1.516 . S
C771 C772 1.502 . S
C771 C773 1.561 . S
C771 C774 1.526 . S
C772 H756 0.959 . S
C772 H757 0.959 . S
C772 H758 0.961 . S
C772 C771 1.502 . S
C773 H759 0.960 . S
C773 H760 0.961 . S
C773 H761 0.959 . S
C773 C771 1.561 . S
C774 C771 1.526 . S
C774 C775 1.396 . S
C774 C779 1.390 . S
C775 C769 1.465 . S
C775 C774 1.396 . S
C775 C776 1.399 . S
C776 H762 0.929 . S
C776 C775 1.399 . S
C776 C777 1.385 . S
C777 H763 0.931 . S
C777 C776 1.385 . S
C777 C778 1.389 . S
C778 C777 1.389 . S
C778 C779 1.387 . S
C779 H764 0.930 . S
C779 C774 1.390 . S
C779 C778 1.387 . S
H780 C792 0.930 . S
H781 C794 0.930 . S
H782 C795 0.930 . S
H783 C799 0.959 . S
H784 C799 0.959 . S
H785 C799 0.961 . S
H786 C800 0.960 . S
H787 C800 0.961 . S
H788 C800 0.959 . S
H789 C803 0.929 . S
H790 C804 0.931 . S
H791 C806 0.930 . S
C792 H780 0.930 . S
C792 C793 1.399 . S
C792 C797 1.399 . S
C793 C792 1.399 . S
C793 C794 1.376 . S
C794 H781 0.930 . S
C794 C793 1.376 . S
C794 C795 1.388 . S
C795 H782 0.930 . S
C795 C794 1.388 . S
C795 C796 1.390 . S
C796 C795 1.390 . S
C796 C797 1.394 . S
C796 C802 1.465 . S
C797 C792 1.399 . S
C797 C796 1.394 . S
C797 C798 1.516 . S
C798 C797 1.516 . S
C798 C799 1.502 . S
C798 C800 1.561 . S
C798 C801 1.526 . S
C799 H783 0.959 . S
C799 H784 0.959 . S
C799 H785 0.961 . S
C799 C798 1.502 . S
C800 H786 0.960 . S
C800 H787 0.961 . S
C800 H788 0.959 . S
C800 C798 1.561 . S
C801 C798 1.526 . S
C801 C802 1.396 . S
C801 C806 1.390 . S
C802 C796 1.465 . S
C802 C801 1.396 . S
C802 C803 1.399 . S
C803 H789 0.929 . S
C803 C802 1.399 . S
C803 C804 1.385 . S
C804 H790 0.931 . S
C804 C803 1.385 . S
C804 C805 1.389 . S
C805 C804 1.389 . S
C805 C806 1.387 . S
C806 H791 0.930 . S
C806 C801 1.390 . S
C806 C805 1.387 . S
H807 C819 0.930 . S
H808 C821 0.930 . S
H809 C822 0.930 . S
H810 C826 0.959 . S
H811 C826 0.959 . S
H812 C826 0.961 . S
H813 C827 0.960 1_554 S
H814 C827 0.961 1_554 S
H815 C827 0.959 . S
H816 C830 0.929 . S
H817 C831 0.931 . S
H818 C833 0.930 . S
C819 H807 0.930 . S
C819 C820 1.400 . S
C819 C824 1.399 . S
C820 C819 1.400 . S
C820 C821 1.375 1_554 S
C821 H808 0.930 . S
C821 C820 1.375 1_556 S
C821 C822 1.388 . S
C822 H809 0.930 . S
C822 C821 1.388 . S
C822 C823 1.390 . S
C823 C822 1.390 . S
C823 C824 1.394 1_556 S
C823 C829 1.465 . S
C824 C819 1.399 . S
C824 C823 1.394 1_554 S
C824 C825 1.516 . S
C825 C824 1.516 . S
C825 C826 1.502 . S
C825 C827 1.561 1_554 S
C825 C828 1.526 . S
C826 H810 0.959 . S
C826 H811 0.959 . S
C826 H812 0.961 . S
C826 C825 1.502 . S
C827 H813 0.960 1_556 S
C827 H814 0.961 1_556 S
C827 H815 0.959 . S
C827 C825 1.561 1_556 S
C828 C825 1.526 . S
C828 C829 1.396 1_554 S
C828 C833 1.390 . S
C829 C823 1.465 . S
C829 C828 1.396 1_556 S
C829 C830 1.399 . S
C830 H816 0.929 . S
C830 C829 1.399 . S
C830 C831 1.385 . S
C831 H817 0.931 . S
C831 C830 1.385 . S
C831 C832 1.389 1_556 S
C832 C831 1.389 1_554 S
C832 C833 1.387 . S
C833 H818 0.930 . S
C833 C828 1.390 . S
C833 C832 1.387 . S
H834 C846 0.930 . S
H835 C848 0.930 . S
H836 C849 0.930 . S
H837 C853 0.959 . S
H838 C853 0.959 . S
H839 C853 0.961 . S
H840 C854 0.960 . S
H841 C854 0.961 . S
H842 C854 0.959 . S
H843 C857 0.929 . S
H844 C858 0.931 . S
H845 C860 0.930 . S
C846 H834 0.930 . S
C846 C847 1.399 . S
C846 C851 1.399 . S
C847 C846 1.399 . S
C847 C848 1.376 . S
C848 H835 0.930 . S
C848 C847 1.376 . S
C848 C849 1.388 . S
C849 H836 0.930 . S
C849 C848 1.388 . S
C849 C850 1.390 . S
C850 C849 1.390 . S
C850 C851 1.394 . S
C850 C856 1.465 . S
C851 C846 1.399 . S
C851 C850 1.394 . S
C851 C852 1.516 . S
C852 C851 1.516 . S
C852 C853 1.502 . S
C852 C854 1.561 . S
C852 C855 1.526 . S
C853 H837 0.959 . S
C853 H838 0.959 . S
C853 H839 0.961 . S
C853 C852 1.502 . S
C854 H840 0.960 . S
C854 H841 0.961 . S
C854 H842 0.959 . S
C854 C852 1.561 . S
C855 C852 1.526 . S
C855 C856 1.396 . S
C855 C860 1.390 . S
C856 C850 1.465 . S
C856 C855 1.396 . S
C856 C857 1.399 . S
C857 H843 0.929 . S
C857 C856 1.399 . S
C857 C858 1.385 . S
C858 H844 0.931 . S
C858 C857 1.385 . S
C858 C859 1.389 . S
C859 C858 1.389 . S
C859 C860 1.387 . S
C860 H845 0.930 . S
C860 C855 1.390 . S
C860 C859 1.387 . S
H861 C873 0.930 . S
H862 C875 0.930 . S
H863 C876 0.930 . S
H864 C880 0.959 1_554 S
H865 C880 0.959 . S
H866 C880 0.961 . S
H867 C881 0.960 . S
H868 C881 0.961 . S
H869 C881 0.959 . S
H870 C884 0.929 . S
H871 C885 0.931 . S
H872 C887 0.930 . S
C873 H861 0.930 . S
C873 C874 1.399 1_556 S
C873 C878 1.399 . S
C874 C873 1.399 1_554 S
C874 C875 1.376 . S
C875 H862 0.930 . S
C875 C874 1.376 . S
C875 C876 1.388 . S
C876 H863 0.930 . S
C876 C875 1.388 . S
C876 C877 1.390 . S
C877 C876 1.390 . S
C877 C878 1.394 1_554 S
C877 C883 1.465 . S
C878 C873 1.399 . S
C878 C877 1.394 1_556 S
C878 C879 1.516 . S
C879 C878 1.516 . S
C879 C880 1.502 . S
C879 C881 1.561 . S
C879 C882 1.526 . S
C880 H864 0.959 1_556 S
C880 H865 0.959 . S
C880 H866 0.961 . S
C880 C879 1.502 . S
C881 H867 0.960 . S
C881 H868 0.961 . S
C881 H869 0.959 . S
C881 C879 1.561 . S
C882 C879 1.526 . S
C882 C883 1.396 1_556 S
C882 C887 1.390 . S
C883 C877 1.465 . S
C883 C882 1.396 1_554 S
C883 C884 1.399 . S
C884 H870 0.929 . S
C884 C883 1.399 . S
C884 C885 1.385 . S
C885 H871 0.931 . S
C885 C884 1.385 . S
C885 C886 1.389 . S
C886 C885 1.389 . S
C886 C887 1.387 1_554 S
C887 H872 0.930 . S
C887 C882 1.390 . S
C887 C886 1.387 1_556 S
C253 C21 1.523 . S
C265 C151 1.526 . S
C280 C40 1.495 . S
C292 C94 1.481 . S
C319 C109 1.493 . S
C307 C54 1.517 . S
C334 C73 1.527 . S
C346 C128 1.476 . S
C373 C185 1.480 . S
C361 C74 1.505 . S
C400 C204 1.454 . S
C388 C10 1.527 . S
C427 C227 1.528 . S
C415 C37 1.522 . S
C454 C170 1.519 . S
C442 C65 1.519 . S
C469 C52 1.460 . S
C481 C113 1.466 . S
C496 C87 1.514 . S
C508 C132 1.529 . S
C523 C15 1.579 . S
C535 C147 1.557 . S
C562 C90 1.451 . S
C550 C32 1.516 . S
C577 C29 1.561 . S
C589 C223 1.515 . S
C616 C166 1.531 . S
C604 C59 1.544 . S
C643 C189 1.475 . S
C631 C84 1.483 . S
C658 C8 1.478 . S
C670 C208 1.483 . S
C697 C99 1.438 1_554 S
C685 C7 1.511 . S
C724 C118 1.316 . S
C712 C30 1.485 . S
C739 C62 1.492 . S
C751 C137 1.333 . S
C766 C81 1.524 . S
C778 C156 1.447 . S
C805 C175 1.306 . S
C793 C76 1.488 . S
C820 C18 1.472 . S
C832 C194 1.368 1_554 S
C847 C43 1.489 . S
C859 C213 1.450 . S
C874 C51 1.496 . S
C886 C232 1.333 . S
