# Generated by pormake.
# Topology nom, (4,4)-cn, num edge types: 1
# Building blocks:
#     Node 0, Type 0, BuildingBlock: AZAVOO_clean_linker_0, # of connection points: 4
#     Node 1, Type 0, BuildingBlock: AZAVOO_clean_linker_0, # of connection points: 4
#     Node 2, Type 0, BuildingBlock: AZAVOO_clean_linker_0, # of connection points: 4
#     Node 3, Type 0, BuildingBlock: AZAVOO_clean_linker_0, # of connection points: 4
#     Node 4, Type 0, BuildingBlock: AZAVOO_clean_linker_0, # of connection points: 4
#     Node 5, Type 0, BuildingBlock: AZAVOO_clean_linker_0, # of connection points: 4
#     Node 6, Type 1, BuildingBlock: KUFVIS_clean_sbu_0, # of connection points: 4
#     Node 7, Type 1, BuildingBlock: KUFVIS_clean_sbu_0, # of connection points: 4
#     Node 8, Type 1, BuildingBlock: KUFVIS_clean_sbu_0, # of connection points: 4
#     Node 9, Type 1, BuildingBlock: KUFVIS_clean_sbu_0, # of connection points: 4
#     Node 10, Type 1, BuildingBlock: KUFVIS_clean_sbu_0, # of connection points: 4
#     Node 11, Type 1, BuildingBlock: KUFVIS_clean_sbu_0, # of connection points: 4
#     Edge 12, Type (0, 1), BuildingBlock: ZUJKAS_clean_linker_0, # of connection points: 2
#     Edge 13, Type (0, 1), BuildingBlock: ZUJKAS_clean_linker_0, # of connection points: 2
#     Edge 14, Type (0, 1), BuildingBlock: ZUJKAS_clean_linker_0, # of connection points: 2
#     Edge 15, Type (0, 1), BuildingBlock: ZUJKAS_clean_linker_0, # of connection points: 2
#     Edge 16, Type (0, 1), BuildingBlock: ZUJKAS_clean_linker_0, # of connection points: 2
#     Edge 17, Type (0, 1), BuildingBlock: ZUJKAS_clean_linker_0, # of connection points: 2
#     Edge 18, Type (0, 1), BuildingBlock: ZUJKAS_clean_linker_0, # of connection points: 2
#     Edge 19, Type (0, 1), BuildingBlock: ZUJKAS_clean_linker_0, # of connection points: 2
#     Edge 20, Type (0, 1), BuildingBlock: ZUJKAS_clean_linker_0, # of connection points: 2
#     Edge 21, Type (0, 1), BuildingBlock: ZUJKAS_clean_linker_0, # of connection points: 2
#     Edge 22, Type (0, 1), BuildingBlock: ZUJKAS_clean_linker_0, # of connection points: 2
#     Edge 23, Type (0, 1), BuildingBlock: ZUJKAS_clean_linker_0, # of connection points: 2
#     Edge 24, Type (0, 1), BuildingBlock: ZUJKAS_clean_linker_0, # of connection points: 2
#     Edge 25, Type (0, 1), BuildingBlock: ZUJKAS_clean_linker_0, # of connection points: 2
#     Edge 26, Type (0, 1), BuildingBlock: ZUJKAS_clean_linker_0, # of connection points: 2
#     Edge 27, Type (0, 1), BuildingBlock: ZUJKAS_clean_linker_0, # of connection points: 2
#     Edge 28, Type (0, 1), BuildingBlock: ZUJKAS_clean_linker_0, # of connection points: 2
#     Edge 29, Type (0, 1), BuildingBlock: ZUJKAS_clean_linker_0, # of connection points: 2
#     Edge 30, Type (0, 1), BuildingBlock: ZUJKAS_clean_linker_0, # of connection points: 2
#     Edge 31, Type (0, 1), BuildingBlock: ZUJKAS_clean_linker_0, # of connection points: 2
#     Edge 32, Type (0, 1), BuildingBlock: ZUJKAS_clean_linker_0, # of connection points: 2
#     Edge 33, Type (0, 1), BuildingBlock: ZUJKAS_clean_linker_0, # of connection points: 2
#     Edge 34, Type (0, 1), BuildingBlock: ZUJKAS_clean_linker_0, # of connection points: 2
#     Edge 35, Type (0, 1), BuildingBlock: ZUJKAS_clean_linker_0, # of connection points: 2
# Relax obj value: 0.135
# Max RMSD: 0.224
# Mean RMSD: 0.145
data_MOF--net-nom--node1-KUFVIS_clean_sbu_0--node2-AZAVOO_clean_linker_0--edge1-ZUJKAS_clean_linker_0
_symmetry_space_group_name_H-M    P1
_symmetry_Int_Tables_number       1
_symmetry_cell_setting            triclinic
loop_
_symmetry_equiv_pos_as_xyz
'x, y, z'
_cell_length_a     59.513977
_cell_length_b     61.911188
_cell_length_c     75.228624
_cell_angle_alpha  90.666098
_cell_angle_beta   90.597103
_cell_angle_gamma 121.30967
loop_
_atom_site_label
_atom_site_type_symbol
_atom_site_fract_x
_atom_site_fract_y
_atom_site_fract_z
_atom_type_partial_charge
H0 H 0.07393 0.48503 0.20917 0.0
H1 H 0.18054 0.63613 0.38534 0.0
H2 H 0.00289 0.46527 0.2918 0.0
H3 H 0.97259 0.44552 0.26636 0.0
H4 H 0.96184 0.50932 0.26436 0.0
H5 H 0.99232 0.52899 0.28979 0.0
H6 H 0.06644 0.49365 0.28612 0.0
H7 H 0.07247 0.48552 0.25514 0.0
H8 H 0.04482 0.53425 0.23786 0.0
H9 H 0.03929 0.54251 0.26889 0.0
H10 H 0.11015 0.52923 0.31722 0.0
H11 H 0.15533 0.55309 0.30625 0.0
H12 H 0.1352 0.59942 0.27551 0.0
H13 H 0.09045 0.57576 0.2866 0.0
H14 H 0.08389 0.52392 0.35448 0.0
H15 H 0.1197 0.5488 0.37597 0.0
H16 H 0.1362 0.61737 0.34999 0.0
H17 H 0.10005 0.59226 0.32876 0.0
H18 H 0.02527 0.49708 0.36062 0.0
H19 H 0.0329 0.50665 0.39248 0.0
H20 H 0.05717 0.5844 0.38257 0.0
H21 H 0.04989 0.57465 0.35066 0.0
H22 H 0.97759 0.46909 0.32735 0.0
H23 H 0.93289 0.4558 0.33669 0.0
H24 H 0.95554 0.53421 0.34208 0.0
H25 H -0.00028 0.54719 0.33226 0.0
O26 O 0.07157 0.48863 0.22132 0.0
O27 O 0.05703 0.51371 0.21314 0.0
O28 O 0.15694 0.59002 0.38989 0.0
O29 O 0.16653 0.62581 0.37685 0.0
C30 C 0.02244 0.51284 0.30501 0.0
C31 C 0.0482 0.52297 0.29856 0.0
C32 C 0.07016 0.5376 0.30993 0.0
C33 C 0.06639 0.54126 0.32794 0.0
C34 C 0.04063 0.53125 0.33437 0.0
C35 C 0.01864 0.5174 0.32285 0.0
C36 C -0.00023 0.49853 0.29257 0.0
C37 C 0.99335 0.47458 0.28619 0.0
C38 C 0.97607 0.46336 0.27168 0.0
C39 C 0.9651 0.47604 0.26329 0.0
C40 C 0.97028 0.4993 0.27046 0.0
C41 C 0.98742 0.51042 0.28506 0.0
C42 C 0.05224 0.5185 0.27972 0.0
C43 C 0.06179 0.5026 0.27561 0.0
C44 C 0.06516 0.49796 0.25791 0.0
C45 C 0.05904 0.50917 0.24401 0.0
C46 C 0.04965 0.52526 0.24823 0.0
C47 C 0.04639 0.52995 0.26593 0.0
C48 C 0.09706 0.55075 0.30265 0.0
C49 C 0.11555 0.54445 0.30803 0.0
C50 C 0.14127 0.55807 0.3018 0.0
C51 C 0.14872 0.578 0.28995 0.0
C52 C 0.12993 0.58388 0.28436 0.0
C53 C 0.10439 0.57045 0.29071 0.0
C54 C 0.08942 0.5563 0.34008 0.0
C55 C 0.09535 0.54431 0.35342 0.0
C56 C 0.11579 0.55856 0.36568 0.0
C57 C 0.13078 0.58509 0.36473 0.0
C58 C 0.12504 0.59699 0.35112 0.0
C59 C 0.1045 0.58271 0.33892 0.0
C60 C 0.03726 0.53522 0.35339 0.0
C61 C 0.03124 0.51592 0.36542 0.0
C62 C 0.03566 0.52148 0.38362 0.0
C63 C 0.0461 0.54642 0.39002 0.0
C64 C 0.04961 0.56513 0.37802 0.0
C65 C 0.0452 0.55955 0.35982 0.0
C66 C 0.99186 0.50909 0.32916 0.0
C67 C 0.9728 0.48333 0.33055 0.0
C68 C 0.94737 0.4758 0.33597 0.0
C69 C 0.94063 0.49395 0.34004 0.0
C70 C 0.95994 0.51975 0.33877 0.0
C71 C 0.98527 0.52722 0.33334 0.0
C72 C 0.06245 0.50405 0.22522 0.0
C73 C 0.15218 0.60035 0.37793 0.0
H74 H 0.52464 0.07413 0.37914 0.0
H75 H 0.47999 0.14779 0.5675 0.0
H76 H 0.4993 0.00338 0.4647 0.0
H77 H 0.49373 0.9754 0.43964 0.0
H78 H 0.41097 0.94972 0.43651 0.0
H79 H 0.41678 0.97784 0.46175 0.0
H80 H 0.52164 0.06182 0.45623 0.0
H81 H 0.53088 0.07061 0.42464 0.0
H82 H 0.44746 0.03426 0.41318 0.0
H83 H 0.43855 0.02587 0.44484 0.0
H84 H 0.53002 0.09659 0.48925 0.0
H85 H 0.54967 0.13987 0.4787 0.0
H86 H 0.47519 0.12035 0.4543 0.0
H87 H 0.45579 0.07702 0.46484 0.0
H88 H 0.51836 0.07818 0.52398 0.0
H89 H 0.52667 0.10999 0.54693 0.0
H90 H 0.45323 0.10436 0.53253 0.0
H91 H 0.4451 0.07239 0.50974 0.0
H92 H 0.49987 0.02658 0.5304 0.0
H93 H 0.5034 0.03368 0.56239 0.0
H94 H 0.42646 0.02527 0.56196 0.0
H95 H 0.42429 0.02016 0.52963 0.0
H96 H 0.47788 0.97644 0.49739 0.0
H97 H 0.45585 0.93268 0.50759 0.0
H98 H 0.38659 0.93569 0.51929 0.0
H99 H 0.40859 0.97919 0.50891 0.0
O100 O 0.52056 0.07056 0.39157 0.0
O101 O 0.47746 0.05151 0.38638 0.0
O102 O 0.51487 0.13759 0.56529 0.0
O103 O 0.47742 0.13559 0.55831 0.0
C104 C 0.46308 0.01268 0.47794 0.0
C105 C 0.47392 0.03769 0.47192 0.0
C106 C 0.47982 0.05749 0.48413 0.0
C107 C 0.47513 0.05232 0.50235 0.0
C108 C 0.4643 0.02734 0.50837 0.0
C109 C 0.45781 0.00737 0.49615 0.0
C110 C 0.45842 0.99251 0.46501 0.0
C111 C 0.47985 0.9912 0.45889 0.0
C112 C 0.47662 0.97521 0.44461 0.0
C113 C 0.45193 0.96046 0.4361 0.0
C114 C 0.43024 0.96102 0.44276 0.0
C115 C 0.43345 0.97687 0.45721 0.0
C116 C 0.47945 0.04319 0.45278 0.0
C117 C 0.50542 0.05587 0.44687 0.0
C118 C 0.51062 0.06081 0.42882 0.0
C119 C 0.4899 0.05311 0.41638 0.0
C120 C 0.46387 0.04043 0.4224 0.0
C121 C 0.45872 0.03557 0.44046 0.0
C122 C 0.49148 0.08377 0.47788 0.0
C123 C 0.51795 0.10175 0.48172 0.0
C124 C 0.52909 0.12644 0.47572 0.0
C125 C 0.51397 0.13356 0.46569 0.0
C126 C 0.48743 0.1154 0.46182 0.0
C127 C 0.47628 0.09071 0.46789 0.0
C128 C 0.48113 0.07302 0.51527 0.0
C129 C 0.50419 0.08397 0.52576 0.0
C130 C 0.50885 0.10209 0.53886 0.0
C131 C 0.49055 0.10965 0.54161 0.0
C132 C 0.46769 0.09894 0.53079 0.0
C133 C 0.46304 0.08077 0.51772 0.0
C134 C 0.46192 0.02299 0.52775 0.0
C135 C 0.48343 0.02544 0.53733 0.0
C136 C 0.48534 0.02947 0.55572 0.0
C137 C 0.46544 0.03062 0.5649 0.0
C138 C 0.44257 0.02535 0.55535 0.0
C139 C 0.441 0.02194 0.53689 0.0
C140 C 0.44482 0.98097 0.50241 0.0
C141 C 0.45791 0.96757 0.50208 0.0
C142 C 0.44531 0.94261 0.50789 0.0
C143 C 0.41953 0.93079 0.5143 0.0
C144 C 0.40658 0.94439 0.51467 0.0
C145 C 0.41908 0.9692 0.50871 0.0
C146 C 0.49548 0.05829 0.39721 0.0
C147 C 0.49512 0.12847 0.55578 0.0
H148 H 0.58553 0.53048 0.76159 0.0
H149 H 0.55861 0.4305 0.57035 0.0
H150 H 0.56361 0.58139 0.67909 0.0
H151 H 0.55573 0.60067 0.70492 0.0
H152 H 0.4722 0.5471 0.69913 0.0
H153 H 0.48039 0.52766 0.67336 0.0
H154 H 0.58585 0.54397 0.68473 0.0
H155 H 0.59372 0.54221 0.71654 0.0
H156 H 0.50976 0.49984 0.72471 0.0
H157 H 0.50218 0.50142 0.69286 0.0
H158 H 0.59301 0.51551 0.65118 0.0
H159 H 0.60655 0.48649 0.66177 0.0
H160 H 0.52937 0.43861 0.68349 0.0
H161 H 0.51598 0.46744 0.67274 0.0
H162 H 0.58312 0.53493 0.61443 0.0
H163 H 0.59491 0.51463 0.59133 0.0
H164 H 0.52938 0.44173 0.60598 0.0
H165 H 0.5176 0.46234 0.62889 0.0
H166 H 0.55788 0.5681 0.61037 0.0
H167 H 0.56222 0.56819 0.57805 0.0
H168 H 0.50078 0.48923 0.57535 0.0
H169 H 0.49604 0.48963 0.60749 0.0
H170 H 0.53771 0.58923 0.64493 0.0
H171 H 0.51155 0.60773 0.636 0.0
H172 H 0.44853 0.5339 0.61833 0.0
H173 H 0.47446 0.51558 0.62751 0.0
O174 O 0.58198 0.53088 0.74905 0.0
O175 O 0.53865 0.50935 0.75256 0.0
O176 O 0.58927 0.47662 0.57358 0.0
O177 O 0.55458 0.43894 0.57957 0.0
C178 C 0.52813 0.53868 0.66125 0.0
C179 C 0.53881 0.52421 0.66721 0.0
C180 C 0.54493 0.51079 0.65485 0.0
C181 C 0.54149 0.51277 0.63649 0.0
C182 C 0.53013 0.5267 0.63058 0.0
C183 C 0.52286 0.53919 0.64297 0.0
C184 C 0.52258 0.55312 0.67446 0.0
C185 C 0.54357 0.57426 0.68315 0.0
C186 C 0.53901 0.58528 0.69784 0.0
C187 C 0.51336 0.57527 0.70411 0.0
C188 C 0.49219 0.55501 0.69469 0.0
C189 C 0.49678 0.54404 0.67992 0.0
C190 C 0.54347 0.52295 0.68653 0.0
C191 C 0.5692 0.53426 0.69342 0.0
C192 C 0.57362 0.53326 0.71159 0.0
C193 C 0.55236 0.52093 0.72318 0.0
C194 C 0.52657 0.50953 0.71617 0.0
C195 C 0.52219 0.51048 0.698 0.0
C196 C 0.55354 0.49358 0.66124 0.0
C197 C 0.57906 0.4987 0.65818 0.0
C198 C 0.58673 0.48214 0.66421 0.0
C199 C 0.56905 0.46039 0.67354 0.0
C200 C 0.54354 0.45542 0.67658 0.0
C201 C 0.53584 0.4718 0.67042 0.0
C202 C 0.54954 0.5001 0.62333 0.0
C203 C 0.57142 0.51457 0.61268 0.0
C204 C 0.5781 0.50292 0.59949 0.0
C205 C 0.56306 0.47654 0.59679 0.0
C206 C 0.54135 0.46207 0.60769 0.0
C207 C 0.53465 0.47377 0.62084 0.0
C208 C 0.52697 0.52875 0.61122 0.0
C209 C 0.54461 0.55116 0.60268 0.0
C210 C 0.54723 0.5511 0.58426 0.0
C211 C 0.53226 0.52858 0.5742 0.0
C212 C 0.51255 0.50692 0.58266 0.0
C213 C 0.50986 0.50706 0.60104 0.0
C214 C 0.50799 0.55105 0.63687 0.0
C215 C 0.51826 0.5771 0.63913 0.0
C216 C 0.50332 0.58762 0.63404 0.0
C217 C 0.47807 0.57227 0.62639 0.0
C218 C 0.46808 0.54627 0.62392 0.0
C219 C 0.48284 0.53577 0.62919 0.0
C220 C 0.55713 0.51998 0.74248 0.0
C221 C 0.56985 0.46414 0.58261 0.0
H222 H 0.06656 0.50822 0.93683 0.0
H223 H 0.16504 0.52288 0.74423 0.0
H224 H 0.99675 0.48992 0.85252 0.0
H225 H 0.96791 0.47391 0.87809 0.0
H226 H 0.95253 0.3988 0.86641 0.0
H227 H 0.98089 0.41498 0.84054 0.0
H228 H 0.05989 0.51878 0.86008 0.0
H229 H 0.06616 0.52206 0.89243 0.0
H230 H 0.03487 0.44155 0.8942 0.0
H231 H 0.02907 0.43862 0.86184 0.0
H232 H 0.10241 0.53534 0.82613 0.0
H233 H 0.14823 0.55062 0.835 0.0
H234 H 0.12482 0.47656 0.85421 0.0
H235 H 0.07938 0.46092 0.84444 0.0
H236 H 0.07457 0.52999 0.79123 0.0
H237 H 0.1092 0.5478 0.76912 0.0
H238 H 0.12231 0.48609 0.77708 0.0
H239 H 0.08729 0.46827 0.799 0.0
H240 H 0.0169 0.50331 0.78365 0.0
H241 H 0.02711 0.51475 0.75247 0.0
H242 H 0.04674 0.45702 0.74601 0.0
H243 H 0.03588 0.44542 0.77696 0.0
H244 H 0.96901 0.47273 0.81652 0.0
H245 H 0.92322 0.44621 0.80603 0.0
H246 H 0.94113 0.39217 0.78402 0.0
H247 H 0.98667 0.41868 0.79457 0.0
O248 O 0.06426 0.50656 0.92403 0.0
O249 O 0.04784 0.46507 0.92422 0.0
O250 O 0.14494 0.54843 0.75025 0.0
O251 O 0.1516 0.51646 0.75316 0.0
C252 C 0.013 0.46443 0.8322 0.0
C253 C 0.03906 0.47646 0.83911 0.0
C254 C 0.06048 0.4868 0.82749 0.0
C255 C 0.05591 0.48608 0.80899 0.0
C256 C 0.02985 0.47379 0.80205 0.0
C257 C 0.00835 0.46254 0.81362 0.0
C258 C 0.99092 0.45361 0.84476 0.0
C259 C 0.98648 0.46988 0.85519 0.0
C260 C 0.97027 0.46074 0.8699 0.0
C261 C 0.95836 0.43517 0.8745 0.0
C262 C 0.96131 0.41856 0.86321 0.0
C263 C 0.97745 0.42773 0.8484 0.0
C264 C 0.04389 0.47846 0.85866 0.0
C265 C 0.05457 0.50192 0.86749 0.0
C266 C 0.05805 0.50372 0.88596 0.0
C267 C 0.0509 0.48204 0.89592 0.0
C268 C 0.04049 0.45859 0.88695 0.0
C269 C 0.03711 0.45685 0.86848 0.0
C270 C 0.0876 0.49699 0.83456 0.0
C271 C 0.10717 0.52242 0.83225 0.0
C272 C 0.13319 0.53112 0.83733 0.0
C273 C 0.13973 0.51465 0.84523 0.0
C274 C 0.12002 0.48952 0.84821 0.0
C275 C 0.09416 0.48067 0.84272 0.0
C276 C 0.07841 0.49783 0.79665 0.0
C277 C 0.08502 0.52041 0.78822 0.0
C278 C 0.10481 0.53053 0.77561 0.0
C279 C 0.11847 0.51831 0.77129 0.0
C280 C 0.11212 0.49593 0.78006 0.0
C281 C 0.09224 0.48578 0.79264 0.0
C282 C 0.02588 0.4737 0.78256 0.0
C283 C 0.02212 0.49232 0.77523 0.0
C284 C 0.02836 0.49908 0.75751 0.0
C285 C 0.03837 0.48721 0.7469 0.0
C286 C 0.03905 0.46652 0.75376 0.0
C287 C 0.03275 0.45976 0.77146 0.0
C288 C 0.98112 0.44761 0.8063 0.0
C289 C 0.96301 0.45521 0.80936 0.0
C290 C 0.9369 0.44003 0.80341 0.0
C291 C 0.92859 0.41711 0.79421 0.0
C292 C 0.947 0.40988 0.79085 0.0
C293 C 0.973 0.42496 0.79689 0.0
C294 C 0.05421 0.48394 0.91557 0.0
C295 C 0.13912 0.52873 0.75761 0.0
H296 H 0.41093 0.9715 0.87176 0.0
H297 H 0.43653 0.85354 0.0421 0.0
H298 H 0.45534 0.03484 0.95665 0.0
H299 H 0.47383 0.06552 0.93277 0.0
H300 H 0.54958 0.07346 0.94213 0.0
H301 H 0.53069 0.0421 0.96543 0.0
H302 H 0.41606 0.97294 0.9495 0.0
H303 H 0.40606 0.96953 0.91758 0.0
H304 H 0.48773 0.99727 0.90652 0.0
H305 H 0.49735 0.00019 0.93843 0.0
H306 H 0.40402 0.92627 0.97813 0.0
H307 H 0.38758 0.88338 0.96618 0.0
H308 H 0.46233 0.90979 0.9412 0.0
H309 H 0.47856 0.95209 0.95332 0.0
H310 H 0.41846 0.94641 0.01642 0.0
H311 H 0.40492 0.90893 0.03431 0.0
H312 H 0.46864 0.90284 0.01291 0.0
H313 H 0.48204 0.94044 0.99521 0.0
H314 H 0.45005 0.99565 0.03145 0.0
H315 H 0.45654 0.98713 0.06215 0.0
H316 H 0.52483 0.98459 0.04633 0.0
H317 H 0.51702 0.99144 0.01561 0.0
H318 H 0.47755 0.05386 0.00022 0.0
H319 H 0.51019 0.09634 0.01173 0.0
H320 H 0.56882 0.07509 0.01319 0.0
H321 H 0.53632 0.03308 0.00172 0.0
O322 O 0.41528 0.97287 0.8843 0.0
O323 O 0.45753 0.98744 0.87935 0.0
O324 O 0.40891 0.87227 0.04571 0.0
O325 O 0.44135 0.86831 0.03511 0.0
C326 C 0.47929 0.01343 0.97397 0.0
C327 C 0.4634 0.98935 0.96569 0.0
C328 C 0.45416 0.96726 0.97569 0.0
C329 C 0.45978 0.96919 0.99411 0.0
C330 C 0.47555 0.99318 0.00241 0.0
C331 C 0.48562 0.0153 0.99231 0.0
C332 C 0.49166 0.03624 0.96277 0.0
C333 C 0.47609 0.04376 0.95385 0.0
C334 C 0.48671 0.06131 0.94024 0.0
C335 C 0.51309 0.07165 0.93542 0.0
C336 C 0.52908 0.06551 0.94535 0.0
C337 C 0.51843 0.04787 0.95885 0.0
C338 C 0.45746 0.98709 0.94627 0.0
C339 C 0.43173 0.97822 0.94015 0.0
C340 C 0.4261 0.97633 0.92191 0.0
C341 C 0.44612 0.98323 0.90949 0.0
C342 C 0.47187 0.99189 0.91571 0.0
C343 C 0.47744 0.99368 0.93394 0.0
C344 C 0.44242 0.94228 0.9665 0.0
C345 C 0.41658 0.92278 0.9698 0.0
C346 C 0.40728 0.89837 0.96302 0.0
C347 C 0.42363 0.89329 0.95269 0.0
C348 C 0.44907 0.91319 0.9488 0.0
C349 C 0.4584 0.93739 0.95573 0.0
C350 C 0.45115 0.94602 0.00453 0.0
C351 C 0.42941 0.9369 0.01561 0.0
C352 C 0.42174 0.91551 0.02581 0.0
C353 C 0.43572 0.90288 0.02504 0.0
C354 C 0.45745 0.91209 0.01381 0.0
C355 C 0.46511 0.9335 0.00366 0.0
C356 C 0.48322 0.99442 0.02137 0.0
C357 C 0.46679 0.99392 0.03477 0.0
C358 C 0.47059 0.98906 0.05232 0.0
C359 C 0.49105 0.98484 0.05673 0.0
C360 C 0.50853 0.98716 0.04338 0.0
C361 C 0.50443 0.99157 0.02585 0.0
C362 C 0.50447 0.04028 0.00053 0.0
C363 C 0.49737 0.05838 0.0033 0.0
C364 C 0.51603 0.0826 0.00975 0.0
C365 C 0.542 0.08896 0.01352 0.0
C366 C 0.54885 0.07061 0.01084 0.0
C367 C 0.53029 0.04655 0.00434 0.0
C368 C 0.4401 0.98134 0.89014 0.0
C369 C 0.42777 0.88025 0.03593 0.0
H370 H 0.57927 0.52898 0.03737 0.0
H371 H 0.66476 0.50949 0.22667 0.0
H372 H 0.53886 0.55854 0.12046 0.0
H373 H 0.5287 0.57774 0.09593 0.0
H374 H 0.59811 0.65001 0.10928 0.0
H375 H 0.60832 0.6304 0.13373 0.0
H376 H 0.56293 0.52296 0.11413 0.0
H377 H 0.56413 0.51797 0.0819 0.0
H378 H 0.62607 0.59652 0.07879 0.0
H379 H 0.62492 0.60114 0.11105 0.0
H380 H 0.58157 0.50262 0.14825 0.0
H381 H 0.60196 0.47936 0.13781 0.0
H382 H 0.66606 0.54839 0.11653 0.0
H383 H 0.64638 0.57165 0.12809 0.0
H384 H 0.56826 0.51481 0.18496 0.0
H385 H 0.58233 0.49503 0.20681 0.0
H386 H 0.6635 0.54763 0.19388 0.0
H387 H 0.64915 0.56754 0.1723 0.0
H388 H 0.54526 0.5473 0.19104 0.0
H389 H 0.54332 0.5399 0.22308 0.0
H390 H 0.62778 0.58933 0.2273 0.0
H391 H 0.62937 0.5969 0.19546 0.0
H392 H 0.53267 0.57664 0.15679 0.0
H393 H 0.51869 0.60549 0.16712 0.0
H394 H 0.59651 0.65587 0.18929 0.0
H395 H 0.61042 0.62713 0.17873 0.0
O396 O 0.57926 0.53133 0.05011 0.0
O397 O 0.61097 0.57185 0.04923 0.0
O398 O 0.61663 0.49058 0.22441 0.0
O399 O 0.65865 0.51681 0.21799 0.0
C400 C 0.58285 0.58035 0.14129 0.0
C401 C 0.59257 0.56544 0.13444 0.0
C402 C 0.60098 0.55329 0.14615 0.0
C403 C 0.59913 0.5556 0.16468 0.0
C404 C 0.58953 0.57064 0.1715 0.0
C405 C 0.58156 0.58319 0.15984 0.0
C406 C 0.57434 0.59309 0.12876 0.0
C407 C 0.55151 0.57863 0.11833 0.0
C408 C 0.54571 0.58967 0.10438 0.0
C409 C 0.5627 0.61537 0.10064 0.0
C410 C 0.58483 0.63012 0.11176 0.0
C411 C 0.59057 0.61905 0.12578 0.0
C412 C 0.59376 0.56242 0.1149 0.0
C413 C 0.57682 0.53902 0.10646 0.0
C414 C 0.57751 0.53625 0.08805 0.0
C415 C 0.59515 0.55686 0.07775 0.0
C416 C 0.61221 0.58027 0.08631 0.0
C417 C 0.61155 0.58299 0.10472 0.0
C418 C 0.61257 0.53883 0.13901 0.0
C419 C 0.60009 0.51268 0.14142 0.0
C420 C 0.61165 0.49939 0.13525 0.0
C421 C 0.63574 0.51198 0.12634 0.0
C422 C 0.6478 0.53813 0.12362 0.0
C423 C 0.63644 0.55144 0.13003 0.0
C424 C 0.6077 0.54263 0.1771 0.0
C425 C 0.58907 0.522 0.18686 0.0
C426 C 0.59716 0.51074 0.19932 0.0
C427 C 0.62406 0.51979 0.20212 0.0
C428 C 0.64264 0.54022 0.19207 0.0
C429 C 0.63452 0.55156 0.17969 0.0
C430 C 0.58747 0.57245 0.191 0.0
C431 C 0.56315 0.55732 0.19906 0.0
C432 C 0.56213 0.55292 0.21729 0.0
C433 C 0.58544 0.5637 0.22764 0.0
C434 C 0.60945 0.58087 0.21975 0.0
C435 C 0.61044 0.58522 0.20155 0.0
C436 C 0.57256 0.59981 0.16699 0.0
C437 C 0.54666 0.5939 0.1639 0.0
C438 C 0.53874 0.61039 0.16975 0.0
C439 C 0.55653 0.63293 0.17898 0.0
C440 C 0.58231 0.63851 0.18238 0.0
C441 C 0.59027 0.62215 0.17636 0.0
C442 C 0.59569 0.5539 0.05818 0.0
C443 C 0.63277 0.5081 0.21551 0.0
Mn444 Mn 0.64027 0.43398 0.40866 0.0
Mn445 Mn 0.68114 0.49616 0.41834 0.0
C446 C 0.62645 0.45445 0.42726 0.0
C447 C 0.62575 0.39178 0.41407 0.0
C448 C 0.6489 0.47678 0.38416 0.0
O449 O 0.67556 0.44043 0.40044 0.0
O450 O 0.70113 0.48151 0.40809 0.0
C451 C 0.71149 0.49025 0.4473 0.0
N452 N 0.69658 0.49962 0.44138 0.0
C453 C 0.701 0.52033 0.46958 0.0
C454 C 0.71655 0.51104 0.47594 0.0
C455 C 0.72173 0.49586 0.46477 0.0
C456 C 0.69129 0.51406 0.45207 0.0
H457 H 0.71554 0.47859 0.43874 0.0
C458 C 0.69788 0.46086 0.40158 0.0
O459 O 0.62232 0.39889 0.39861 0.0
O460 O 0.63794 0.40925 0.42624 0.0
N461 N 0.66539 0.51352 0.42846 0.0
C462 C 0.64945 0.5204 0.42045 0.0
C463 C 0.64241 0.53567 0.42983 0.0
C464 C 0.65203 0.54395 0.44726 0.0
C465 C 0.66849 0.53675 0.4552 0.0
C466 C 0.6751 0.52175 0.44513 0.0
H467 H 0.64223 0.51432 0.40698 0.0
O468 O 0.60959 0.43323 0.41941 0.0
O469 O 0.65126 0.46276 0.42462 0.0
O470 O 0.63797 0.45326 0.38744 0.0
O471 O 0.66556 0.49431 0.39469 0.0
C472 C 0.6784 0.54366 0.47276 0.0
C473 C 0.69454 0.53535 0.47998 0.0
H474 H 0.72448 0.51533 0.48941 0.0
H475 H 0.73363 0.48854 0.4696 0.0
H476 H 0.62967 0.54114 0.42362 0.0
H477 H 0.64659 0.55575 0.45446 0.0
H478 H 0.67351 0.55515 0.48089 0.0
H479 H 0.7018 0.54055 0.49356 0.0
Mn480 Mn 0.23488 0.62722 0.56828 0.0
Mn481 Mn 0.21216 0.56558 0.55945 0.0
C482 C 0.19967 0.60475 0.54872 0.0
C483 C 0.26433 0.66986 0.56277 0.0
C484 C 0.19904 0.58414 0.59295 0.0
O485 O 0.26447 0.62294 0.57763 0.0
O486 O 0.24826 0.58219 0.57 0.0
C487 C 0.24919 0.57228 0.53104 0.0
N488 N 0.22408 0.56214 0.53673 0.0
C489 C 0.20637 0.53907 0.50912 0.0
C490 C 0.23204 0.54918 0.50297 0.0
C491 C 0.25353 0.56598 0.51395 0.0
C492 C 0.20327 0.54633 0.52617 0.0
H493 H 0.26575 0.585 0.53951 0.0
C494 C 0.26635 0.60337 0.57671 0.0
O495 O 0.25289 0.66253 0.57799 0.0
O496 O 0.25884 0.65239 0.55086 0.0
N497 N 0.17756 0.5467 0.54913 0.0
C498 C 0.15409 0.53937 0.55683 0.0
C499 C 0.13059 0.52264 0.54758 0.0
C500 C 0.13148 0.51326 0.53068 0.0
C501 C 0.15588 0.52108 0.52302 0.0
C502 C 0.17862 0.53788 0.53283 0.0
H503 H 0.15329 0.54614 0.56996 0.0
O504 O 0.20406 0.62558 0.55626 0.0
O505 O 0.21656 0.59798 0.5524 0.0
O506 O 0.21192 0.60763 0.58935 0.0
O507 O 0.19832 0.56708 0.58282 0.0
C508 C 0.15854 0.51281 0.50608 0.0
C509 C 0.18375 0.52205 0.49903 0.0
H510 H 0.23547 0.54421 0.48985 0.0
H511 H 0.2734 0.5739 0.50929 0.0
H512 H 0.11184 0.51674 0.55355 0.0
H513 H 0.11329 0.50009 0.5237 0.0
H514 H 0.14131 0.49952 0.49827 0.0
H515 H 0.18551 0.51587 0.48586 0.0
Mn516 Mn 0.60458 0.22355 0.7372 0.0
Mn517 Mn 0.62372 0.18137 0.73135 0.0
C518 C 0.57972 0.18829 0.71928 0.0
C519 C 0.60677 0.26087 0.72949 0.0
C520 C 0.59805 0.18523 0.76493 0.0
O521 O 0.64265 0.24276 0.74573 0.0
O522 O 0.65468 0.21463 0.73906 0.0
C523 C 0.65843 0.20404 0.70057 0.0
N524 N 0.63717 0.18398 0.70801 0.0
C525 C 0.62812 0.15856 0.68141 0.0
C526 C 0.65003 0.1789 0.67351 0.0
C527 C 0.66521 0.20175 0.68312 0.0
C528 C 0.62244 0.1619 0.69889 0.0
H529 H 0.67008 0.22167 0.70789 0.0
C530 C 0.65986 0.23642 0.74471 0.0
O531 O 0.59984 0.25157 0.74525 0.0
O532 O 0.61271 0.24861 0.71827 0.0
N533 N 0.5958 0.14854 0.7237 0.0
C534 C 0.57436 0.13133 0.73283 0.0
C535 C 0.5566 0.10775 0.72484 0.0
C536 C 0.56113 0.10206 0.70761 0.0
C537 C 0.58345 0.11997 0.69854 0.0
C538 C 0.60058 0.14308 0.70723 0.0
H539 H 0.57073 0.13562 0.74606 0.0
O540 O 0.56934 0.20047 0.72597 0.0
O541 O 0.60445 0.19735 0.7231 0.0
O542 O 0.59389 0.2023 0.75954 0.0
O543 O 0.60967 0.17664 0.75564 0.0
C544 C 0.58905 0.11604 0.68106 0.0
C545 C 0.61136 0.13532 0.6725 0.0
H546 H 0.65521 0.17727 0.66001 0.0
H547 H 0.68206 0.21757 0.67707 0.0
H548 H 0.53939 0.09404 0.73191 0.0
H549 H 0.54724 0.08395 0.70142 0.0
H550 H 0.57609 0.0984 0.67397 0.0
H551 H 0.61524 0.13221 0.65897 0.0
Mn552 Mn 0.45801 0.65152 0.90887 0.0
Mn553 Mn 0.44517 0.59233 0.91467 0.0
C554 C 0.48272 0.64454 0.92909 0.0
C555 C 0.44851 0.68265 0.91533 0.0
C556 C 0.47293 0.62364 0.88249 0.0
O557 O 0.42174 0.62944 0.89789 0.0
O558 O 0.41304 0.59043 0.9046 0.0
C559 C 0.40563 0.57579 0.94293 0.0
N560 N 0.42915 0.58003 0.93712 0.0
C561 C 0.43733 0.56546 0.96455 0.0
C562 C 0.41311 0.56079 0.9708 0.0
C563 C 0.39723 0.56605 0.95996 0.0
C564 C 0.44462 0.57509 0.94745 0.0
H565 H 0.3934 0.57986 0.93465 0.0
C566 C 0.40646 0.60551 0.89819 0.0
O567 O 0.45925 0.68239 0.90045 0.0
O568 O 0.4437 0.66504 0.92654 0.0
N569 N 0.47455 0.59161 0.92449 0.0
C570 C 0.49805 0.59873 0.91693 0.0
C571 C 0.51654 0.59534 0.92622 0.0
C572 C 0.51063 0.58458 0.94313 0.0
C573 C 0.48636 0.5775 0.95069 0.0
C574 C 0.46863 0.58116 0.94074 0.0
H575 H 0.50265 0.60692 0.9039 0.0
O576 O 0.49183 0.66692 0.92266 0.0
O577 O 0.4594 0.62708 0.92347 0.0
O578 O 0.4742 0.64387 0.88779 0.0
O579 O 0.462 0.60328 0.89133 0.0
C580 C 0.47917 0.56725 0.96777 0.0
C581 C 0.45473 0.56134 0.97473 0.0
H582 H 0.40662 0.55339 0.98396 0.0
H583 H 0.37858 0.56262 0.96472 0.0
H584 H 0.53528 0.60096 0.92034 0.0
H585 H 0.52495 0.58197 0.95023 0.0
H586 H 0.49242 0.56413 0.97577 0.0
H587 H 0.44961 0.55386 0.988 0.0
Mn588 Mn 0.80582 0.37728 0.0716 0.0
Mn589 Mn 0.82822 0.33831 0.07974 0.0
C590 C 0.83883 0.38873 0.09259 0.0
C591 C 0.77598 0.39005 0.07673 0.0
C592 C 0.84115 0.3698 0.04655 0.0
O593 O 0.77725 0.34364 0.06094 0.0
O594 O 0.7918 0.31819 0.06966 0.0
C595 C 0.79247 0.30764 0.10837 0.0
N596 N 0.81731 0.32348 0.10256 0.0
C597 C 0.83614 0.32216 0.13069 0.0
C598 C 0.81077 0.30573 0.13694 0.0
C599 C 0.78884 0.29847 0.12574 0.0
C600 C 0.83855 0.33055 0.11321 0.0
H601 H 0.77556 0.3021 0.09982 0.0
C602 C 0.77448 0.32186 0.06237 0.0
O603 O 0.78859 0.39492 0.06192 0.0
O604 O 0.78043 0.37742 0.08845 0.0
N605 N 0.86308 0.35568 0.08979 0.0
C606 C 0.88603 0.37308 0.08217 0.0
C607 C 0.90979 0.38294 0.09183 0.0
C608 C 0.90971 0.37477 0.10917 0.0
C609 C 0.88584 0.35691 0.11676 0.0
C610 C 0.8628 0.34759 0.10644 0.0
H611 H 0.8862 0.37944 0.06884 0.0
O612 O 0.83558 0.40583 0.08527 0.0
O613 O 0.82264 0.36552 0.08733 0.0
O614 O 0.82994 0.38171 0.05117 0.0
O615 O 0.84103 0.35273 0.056 0.0
C616 C 0.88393 0.3483 0.13426 0.0
C617 C 0.8591 0.33099 0.14123 0.0
H618 H 0.80787 0.29875 0.15037 0.0
H619 H 0.76919 0.2859 0.1305 0.0
H620 H 0.92813 0.39682 0.08592 0.0
H621 H 0.92809 0.38247 0.11658 0.0
H622 H 0.9014 0.35513 0.14256 0.0
H623 H 0.85786 0.32483 0.15479 0.0
Mn624 Mn 0.44196 0.82076 0.24566 0.0
Mn625 Mn 0.50581 0.8625 0.25525 0.0
C626 C 0.453 0.85097 0.26771 0.0
C627 C 0.40435 0.78122 0.24909 0.0
C628 C 0.47735 0.86547 0.22251 0.0
O629 O 0.46096 0.80504 0.23417 0.0
O630 O 0.50251 0.8316 0.24404 0.0
C631 C 0.51549 0.8345 0.28292 0.0
N632 N 0.51541 0.8555 0.27782 0.0
C633 C 0.53157 0.87534 0.30661 0.0
C634 C 0.53196 0.85398 0.31214 0.0
C635 C 0.52383 0.83346 0.30025 0.0
C636 C 0.52315 0.87533 0.28916 0.0
H637 H 0.50918 0.81865 0.27383 0.0
C638 C 0.48498 0.81134 0.23588 0.0
O639 O 0.40794 0.7942 0.23485 0.0
O640 O 0.42275 0.79115 0.26129 0.0
N641 N 0.51153 0.89296 0.26636 0.0
C642 C 0.50845 0.91145 0.25929 0.0
C643 C 0.51525 0.93314 0.26956 0.0
C644 C 0.52522 0.93564 0.28696 0.0
C645 C 0.52803 0.91629 0.294 0.0
C646 C 0.52121 0.89523 0.28306 0.0
H647 H 0.50091 0.9097 0.2459 0.0
O648 O 0.42985 0.83983 0.26014 0.0
O649 O 0.46883 0.84378 0.26226 0.0
O650 O 0.4546 0.84727 0.22643 0.0
O651 O 0.49798 0.87192 0.2319 0.0
C652 C 0.53705 0.91692 0.31151 0.0
C653 C 0.53872 0.89642 0.31783 0.0
H654 H 0.53826 0.85305 0.32552 0.0
H655 H 0.52396 0.81686 0.30444 0.0
H656 H 0.5129 0.94795 0.26408 0.0
H657 H 0.53054 0.95248 0.29479 0.0
H658 H 0.54243 0.93294 0.32029 0.0
H659 H 0.54531 0.89697 0.33139 0.0
H660 H 0.19367 0.59735 0.31026 0.0
H661 H 0.23864 0.62795 0.30131 0.0
H662 H 0.21088 0.62492 0.24763 0.0
H663 H 0.1659 0.59429 0.25644 0.0
H664 H 0.27232 0.62793 0.27343 0.0
H665 H 0.24389 0.69971 0.26436 0.0
H666 H 0.22369 0.67073 0.27606 0.0
H667 H 0.22401 0.67047 0.25218 0.0
C668 C 0.19724 0.60279 0.29647 0.0
C669 C 0.17626 0.59368 0.28408 0.0
C670 C 0.2229 0.6203 0.2914 0.0
C671 C 0.22791 0.62894 0.2739 0.0
C672 C 0.20726 0.61877 0.26127 0.0
H673 H 0.36318 0.75562 0.2256 0.0
H674 H 0.32127 0.71661 0.23065 0.0
C675 C 0.18163 0.60134 0.26633 0.0
C676 C 0.2543 0.64994 0.26917 0.0
H677 H 0.28712 0.71165 0.25686 0.0
C678 C 0.27563 0.64624 0.26977 0.0
C679 C 0.25845 0.67379 0.26448 0.0
C680 C 0.23639 0.6791 0.26435 0.0
C681 C 0.3011 0.6658 0.26557 0.0
C682 C 0.30523 0.68967 0.26096 0.0
C683 C 0.28383 0.69326 0.26029 0.0
C684 C 0.33165 0.71159 0.25729 0.0
C685 C 0.32325 0.66066 0.26587 0.0
C686 C 0.35141 0.7216 0.27057 0.0
C687 C 0.37539 0.74388 0.26773 0.0
C688 C 0.37989 0.75664 0.2516 0.0
C689 C 0.36028 0.74626 0.23818 0.0
C690 C 0.33635 0.72396 0.24103 0.0
H691 H 0.31578 0.64009 0.26472 0.0
H692 H 0.3371 0.67048 0.25492 0.0
H693 H 0.33433 0.66777 0.27867 0.0
H694 H 0.34797 0.71267 0.28337 0.0
H695 H 0.39009 0.75146 0.27834 0.0
H696 H 0.50762 0.14905 0.43304 0.0
H697 H 0.52751 0.19247 0.42264 0.0
H698 H 0.56692 0.2208 0.4735 0.0
H699 H 0.54706 0.17754 0.48402 0.0
H700 H 0.52309 0.23202 0.43666 0.0
H701 H 0.62693 0.25644 0.43843 0.0
H702 H 0.59957 0.22428 0.43952 0.0
H703 H 0.61031 0.2445 0.45902 0.0
C704 C 0.52043 0.16454 0.44203 0.0
C705 C 0.52588 0.15985 0.45932 0.0
C706 C 0.53187 0.1893 0.43604 0.0
C707 C 0.54905 0.20981 0.44719 0.0
C708 C 0.55425 0.20522 0.46452 0.0
H709 H 0.63092 0.37206 0.44499 0.0
H710 H 0.61217 0.32748 0.4519 0.0
C711 C 0.54286 0.18049 0.47052 0.0
C712 C 0.56094 0.23606 0.44092 0.0
H713 H 0.61977 0.29061 0.43474 0.0
C714 C 0.54422 0.24478 0.43606 0.0
C715 C 0.58851 0.25263 0.44015 0.0
C716 C 0.6074 0.24397 0.44439 0.0
C717 C 0.55436 0.26991 0.43101 0.0
C718 C 0.58193 0.28658 0.43056 0.0
C719 C 0.59864 0.27776 0.43514 0.0
C720 C 0.59382 0.31351 0.42597 0.0
C721 C 0.53552 0.27864 0.42677 0.0
C722 C 0.59009 0.32041 0.40899 0.0
C723 C 0.6008 0.3459 0.40498 0.0
C724 C 0.61548 0.36488 0.4179 0.0
C725 C 0.61964 0.35789 0.43477 0.0
C726 C 0.60897 0.33244 0.43874 0.0
H727 H 0.51535 0.26514 0.43142 0.0
H728 H 0.54244 0.2975 0.43296 0.0
H729 H 0.53445 0.28032 0.41216 0.0
H730 H 0.57883 0.30608 0.39886 0.0
H731 H 0.59735 0.35069 0.39184 0.0
H732 H 0.4493 0.56349 0.59581 0.0
H733 H 0.41834 0.57713 0.58902 0.0
H734 H 0.43843 0.61852 0.63894 0.0
H735 H 0.46927 0.60461 0.64595 0.0
H736 H 0.38433 0.58511 0.63325 0.0
H737 H 0.42881 0.64564 0.57484 0.0
H738 H 0.42658 0.61566 0.57274 0.0
H739 H 0.44732 0.63784 0.58988 0.0
C740 C 0.44733 0.57572 0.60526 0.0
C741 C 0.46163 0.58293 0.62143 0.0
C742 C 0.42984 0.58371 0.60128 0.0
C743 C 0.42635 0.5991 0.61337 0.0
C744 C 0.44105 0.60685 0.62936 0.0
H745 H 0.31308 0.64586 0.58717 0.0
H746 H 0.35331 0.64797 0.59779 0.0
C747 C 0.45871 0.59898 0.63331 0.0
C748 C 0.40548 0.60489 0.60998 0.0
H749 H 0.38256 0.6289 0.5789 0.0
C750 C 0.38415 0.59509 0.62154 0.0
C751 C 0.4054 0.61811 0.5948 0.0
C752 C 0.42838 0.63014 0.58244 0.0
C753 C 0.36206 0.59688 0.61775 0.0
C754 C 0.36123 0.6086 0.60195 0.0
C755 C 0.38318 0.61972 0.59093 0.0
C756 C 0.33695 0.60759 0.59594 0.0
C757 C 0.33947 0.58568 0.63046 0.0
C758 C 0.31462 0.58423 0.59123 0.0
C759 C 0.29175 0.58293 0.5851 0.0
C760 C 0.29068 0.60502 0.58355 0.0
C761 C 0.31315 0.62847 0.5883 0.0
C762 C 0.33616 0.62974 0.59433 0.0
H763 H 0.34583 0.58364 0.64396 0.0
H764 H 0.33052 0.59753 0.63148 0.0
H765 H 0.3241 0.56661 0.62547 0.0
H766 H 0.31499 0.56696 0.59212 0.0
H767 H 0.27491 0.56455 0.58155 0.0
H768 H 0.8848 0.40444 0.81341 0.0
H769 H 0.8388 0.37469 0.80484 0.0
H770 H 0.86326 0.36144 0.75419 0.0
H771 H 0.90928 0.39156 0.7625 0.0
H772 H 0.81944 0.36873 0.75253 0.0
H773 H 0.8064 0.29694 0.80172 0.0
H774 H 0.81893 0.32828 0.81068 0.0
H775 H 0.83839 0.32256 0.79544 0.0
C776 C 0.88036 0.39545 0.80035 0.0
C777 C 0.90065 0.40024 0.78865 0.0
C778 C 0.85412 0.37829 0.79556 0.0
C779 C 0.84774 0.36563 0.779 0.0
C780 C 0.86785 0.37091 0.76708 0.0
H781 H 0.70277 0.23103 0.74446 0.0
H782 H 0.74826 0.26279 0.75255 0.0
C783 C 0.8941 0.388 0.77188 0.0
C784 C 0.82012 0.34662 0.77417 0.0
H785 H 0.76844 0.28891 0.78548 0.0
C786 C 0.80824 0.35128 0.75972 0.0
C787 C 0.80577 0.32376 0.78345 0.0
C788 C 0.81801 0.31737 0.7986 0.0
C789 C 0.78217 0.33375 0.75442 0.0
C790 C 0.76763 0.31115 0.76398 0.0
C791 C 0.77963 0.30637 0.77829 0.0
C792 C 0.74001 0.29203 0.75917 0.0
C793 C 0.77056 0.33932 0.73848 0.0
C794 C 0.72028 0.29791 0.76046 0.0
C795 C 0.69423 0.27982 0.75588 0.0
C796 C 0.6874 0.25544 0.74998 0.0
C797 C 0.70726 0.24958 0.74893 0.0
C798 C 0.73329 0.26769 0.75354 0.0
H799 H 0.78601 0.35434 0.7302 0.0
H800 H 0.75868 0.32206 0.73006 0.0
H801 H 0.75741 0.3459 0.74307 0.0
H802 H 0.72502 0.31647 0.76509 0.0
H803 H 0.6795 0.28502 0.75693 0.0
H804 H 0.43018 0.87639 0.92059 0.0
H805 H 0.42583 0.83561 0.91417 0.0
H806 H 0.395 0.81028 0.96647 0.0
H807 H 0.40006 0.85136 0.97318 0.0
H808 H 0.43851 0.80748 0.95956 0.0
H809 H 0.36645 0.76341 0.90375 0.0
H810 H 0.3915 0.79557 0.89968 0.0
H811 H 0.36892 0.78872 0.91748 0.0
C812 C 0.42194 0.86192 0.93058 0.0
C813 C 0.41561 0.86709 0.94742 0.0
C814 C 0.4192 0.83853 0.92682 0.0
C815 C 0.40987 0.81985 0.93979 0.0
C816 C 0.40206 0.82441 0.95624 0.0
H817 H 0.42347 0.68597 0.94446 0.0
H818 H 0.41168 0.71763 0.95084 0.0
C819 C 0.4048 0.84782 0.96002 0.0
C820 C 0.41195 0.79725 0.93707 0.0
H821 H 0.3956 0.74788 0.90842 0.0
C822 C 0.42877 0.79417 0.94856 0.0
C823 C 0.39941 0.78012 0.92262 0.0
C824 C 0.38036 0.78195 0.91028 0.0
C825 C 0.43422 0.77499 0.9456 0.0
C826 C 0.42216 0.75819 0.93091 0.0
C827 C 0.40485 0.76087 0.91964 0.0
C828 C 0.42809 0.73832 0.92671 0.0
C829 C 0.45371 0.77352 0.95776 0.0
C830 C 0.44064 0.73918 0.91083 0.0
C831 C 0.44732 0.72108 0.9071 0.0
C832 C 0.44146 0.70179 0.9192 0.0
C833 C 0.42847 0.70074 0.93496 0.0
C834 C 0.42175 0.71882 0.93865 0.0
H835 H 0.46555 0.79113 0.96588 0.0
H836 H 0.44293 0.75762 0.96698 0.0
H837 H 0.46731 0.76999 0.95002 0.0
H838 H 0.44564 0.7541 0.90144 0.0
H839 H 0.45719 0.72229 0.89481 0.0
H840 H 0.68832 0.52871 0.12677 0.0
H841 H 0.70952 0.50621 0.11671 0.0
H842 H 0.63368 0.44063 0.10352 0.0
H843 H 0.61232 0.46362 0.11242 0.0
H844 H 0.70586 0.46507 0.12938 0.0
H845 H 0.67256 0.44707 0.05876 0.0
H846 H 0.66851 0.46839 0.07301 0.0
H847 H 0.64588 0.4348 0.07401 0.0
C848 C 0.67611 0.50971 0.12134 0.0
C849 C 0.64858 0.4981 0.12026 0.0
C850 C 0.68828 0.49677 0.11576 0.0
C851 C 0.67324 0.47187 0.1091 0.0
C852 C 0.64574 0.46004 0.10821 0.0
H853 H 0.74021 0.37564 0.10318 0.0
H854 H 0.71325 0.3936 0.11063 0.0
C855 C 0.63353 0.4731 0.11358 0.0
C856 C 0.68645 0.45812 0.1038 0.0
H857 H 0.69412 0.42628 0.06933 0.0
C858 C 0.70333 0.45663 0.11623 0.0
C859 C 0.68336 0.44737 0.08657 0.0
C860 C 0.66681 0.44967 0.07226 0.0
C861 C 0.7173 0.44482 0.11192 0.0
C862 C 0.71357 0.43335 0.0949 0.0
C863 C 0.69668 0.4348 0.08245 0.0
C864 C 0.72797 0.4208 0.08949 0.0
C865 C 0.73658 0.44553 0.12549 0.0
C866 C 0.74413 0.4292 0.07458 0.0
C867 C 0.75912 0.41861 0.07008 0.0
C868 C 0.75834 0.39956 0.0805 0.0
C869 C 0.74145 0.39053 0.09505 0.0
C870 C 0.72617 0.40088 0.09938 0.0
H871 H 0.74252 0.46093 0.13556 0.0
H872 H 0.7272 0.42736 0.1326 0.0
H873 H 0.75456 0.44828 0.11905 0.0
H874 H 0.7457 0.44445 0.0667 0.0
H875 H 0.77193 0.42591 0.05877 0.0
H876 H 0.39035 0.91165 0.54416 0.0
H877 H 0.36641 0.86767 0.55365 0.0
H878 H 0.39351 0.84603 0.50768 0.0
H879 H 0.41775 0.89004 0.49824 0.0
H880 H 0.32668 0.82702 0.53633 0.0
H881 H 0.40982 0.81191 0.5469 0.0
H882 H 0.41458 0.84296 0.54427 0.0
H883 H 0.40899 0.82298 0.52511 0.0
C884 C 0.39128 0.89752 0.53611 0.0
C885 C 0.40597 0.9043 0.52046 0.0
C886 C 0.37768 0.87243 0.54158 0.0
C887 C 0.37847 0.85359 0.53153 0.0
C888 C 0.39316 0.86031 0.51591 0.0
H889 H 0.29338 0.69013 0.53303 0.0
H890 H 0.32155 0.73494 0.52613 0.0
C891 C 0.40695 0.88546 0.5105 0.0
C892 C 0.36274 0.82677 0.5369 0.0
H893 H 0.36673 0.77509 0.54675 0.0
C894 C 0.33549 0.81574 0.53875 0.0
C895 C 0.37424 0.81205 0.54004 0.0
C896 C 0.40355 0.82312 0.53916 0.0
C897 C 0.31936 0.79028 0.54331 0.0
C898 C 0.33082 0.77553 0.54624 0.0
C899 C 0.35805 0.7865 0.54446 0.0
C900 C 0.31468 0.74851 0.55088 0.0
C901 C 0.29008 0.77916 0.54456 0.0
C902 C 0.30188 0.74137 0.56722 0.0
C903 C 0.28584 0.71579 0.57124 0.0
C904 C 0.2823 0.69693 0.55895 0.0
C905 C 0.2956 0.70419 0.54274 0.0
C906 C 0.31174 0.72977 0.53878 0.0
H907 H 0.2838 0.79155 0.53856 0.0
H908 H 0.27912 0.7603 0.53783 0.0
H909 H 0.28454 0.77666 0.55876 0.0
H910 H 0.30418 0.7556 0.57681 0.0
H911 H 0.27593 0.71081 0.58385 0.0
H912 H 0.59529 0.44182 0.65544 0.0
H913 H 0.60484 0.40977 0.66536 0.0
H914 H 0.57014 0.40704 0.71597 0.0
H915 H 0.5604 0.43887 0.70612 0.0
H916 H 0.63376 0.40811 0.69449 0.0
H917 H 0.52814 0.33361 0.69817 0.0
H918 H 0.5393 0.3632 0.68723 0.0
H919 H 0.53697 0.3616 0.71105 0.0
C920 C 0.58998 0.43457 0.66875 0.0
C921 C 0.57682 0.4426 0.67994 0.0
C922 C 0.59537 0.41624 0.67437 0.0
C923 C 0.5877 0.40569 0.69125 0.0
C924 C 0.57562 0.41449 0.70272 0.0
H925 H 0.59185 0.28827 0.74942 0.0
H926 H 0.58941 0.32478 0.74021 0.0
C927 C 0.57009 0.43267 0.69709 0.0
C928 C 0.59169 0.38502 0.69676 0.0
H929 H 0.55872 0.32373 0.71013 0.0
C930 C 0.61739 0.38961 0.69783 0.0
C931 C 0.57023 0.36088 0.70101 0.0
C932 C 0.54209 0.35438 0.69916 0.0
C933 C 0.62223 0.37083 0.70349 0.0
C934 C 0.60078 0.34687 0.708 0.0
C935 C 0.57511 0.34223 0.70678 0.0
C936 C 0.60435 0.32613 0.7139 0.0
C937 C 0.65021 0.37685 0.70495 0.0
C938 C 0.61362 0.31488 0.70214 0.0
C939 C 0.61494 0.29395 0.70733 0.0
C940 C 0.60696 0.28393 0.72436 0.0
C941 C 0.59816 0.29556 0.73622 0.0
C942 C 0.59675 0.31641 0.73099 0.0
H943 H 0.66461 0.39753 0.7047 0.0
H944 H 0.65337 0.36923 0.7174 0.0
H945 H 0.65421 0.36783 0.69359 0.0
H946 H 0.61916 0.32187 0.68879 0.0
H947 H 0.62176 0.28537 0.69788 0.0
H948 H 0.17958 0.52923 0.82226 0.0
H949 H 0.2251 0.54161 0.82932 0.0
H950 H 0.20728 0.53299 0.88523 0.0
H951 H 0.16141 0.51918 0.87801 0.0
H952 H 0.26213 0.57945 0.84648 0.0
H953 H 0.24275 0.49397 0.88185 0.0
H954 H 0.21728 0.49539 0.86973 0.0
H955 H 0.226 0.5077 0.89222 0.0
C956 C 0.18552 0.52991 0.83603 0.0
C957 C 0.16728 0.52325 0.84964 0.0
C958 C 0.21142 0.53692 0.84006 0.0
C959 C 0.21952 0.53768 0.85779 0.0
C960 C 0.20132 0.53168 0.87142 0.0
H961 H 0.37797 0.62835 0.8978 0.0
H962 H 0.33297 0.61089 0.88694 0.0
C963 C 0.17527 0.5241 0.86735 0.0
C964 C 0.24724 0.54583 0.86204 0.0
H965 H 0.28567 0.53104 0.88672 0.0
C966 C 0.26726 0.56867 0.8551 0.0
C967 C 0.25408 0.53152 0.87292 0.0
C968 C 0.23387 0.50565 0.87942 0.0
C969 C 0.29381 0.57804 0.85924 0.0
C970 C 0.30047 0.56478 0.87132 0.0
C971 C 0.28056 0.54146 0.87771 0.0
C972 C 0.3278 0.57518 0.87796 0.0
C973 C 0.31436 0.6019 0.85043 0.0
C974 C 0.33951 0.56047 0.87734 0.0
C975 C 0.36506 0.57018 0.88405 0.0
C976 C 0.37939 0.59486 0.89126 0.0
C977 C 0.36756 0.60943 0.89199 0.0
C978 C 0.3419 0.59954 0.88566 0.0
H979 H 0.30718 0.60415 0.83729 0.0
H980 H 0.3187 0.6185 0.85887 0.0
H981 H 0.33289 0.60203 0.84847 0.0
H982 H 0.32892 0.54153 0.8716 0.0
H983 H 0.37372 0.55854 0.88336 0.0
H984 H 0.57971 0.10262 0.03943 0.0
H985 H 0.61683 0.14511 0.04649 0.0
H986 H 0.58776 0.17646 0.0082 0.0
H987 H 0.55072 0.13388 0.00073 0.0
H988 H 0.65121 0.17957 0.01338 0.0
H989 H 0.60855 0.21819 0.06065 0.0
H990 H 0.59675 0.18476 0.05971 0.0
H991 H 0.58961 0.19896 0.04164 0.0
C992 C 0.5811 0.11856 0.03258 0.0
C993 C 0.56242 0.11491 0.01942 0.0
C994 C 0.60221 0.14277 0.0367 0.0
C995 C 0.60487 0.16373 0.02785 0.0
C996 C 0.5858 0.1604 0.01522 0.0
H997 H 0.73272 0.32071 0.04547 0.0
H998 H 0.69131 0.2834 0.03538 0.0
C999 C 0.56464 0.13613 0.01105 0.0
C1000 C 0.62882 0.18871 0.03087 0.0
H1001 H 0.65411 0.24315 0.05564 0.0
C1002 C 0.65188 0.19362 0.02249 0.0
C1003 C 0.62935 0.20691 0.04259 0.0
C1004 C 0.60482 0.20216 0.05175 0.0
C1005 C 0.67581 0.21619 0.02589 0.0
C1006 C 0.67669 0.23395 0.03831 0.0
C1007 C 0.65337 0.22942 0.04619 0.0
C1008 C 0.70188 0.25659 0.04405 0.0
C1009 C 0.69995 0.22075 0.01623 0.0
C1010 C 0.72136 0.25379 0.0524 0.0
C1011 C 0.74503 0.27499 0.05813 0.0
C1012 C 0.74962 0.29946 0.05575 0.0
C1013 C 0.72993 0.30218 0.04745 0.0
C1014 C 0.70623 0.2809 0.0417 0.0
H1015 H 0.69464 0.20954 0.0036 0.0
H1016 H 0.71304 0.24107 0.0132 0.0
H1017 H 0.71112 0.21488 0.02474 0.0
H1018 H 0.71813 0.23515 0.05469 0.0
H1019 H 0.75958 0.2721 0.06461 0.0
H1020 H 0.5292 0.64919 0.15965 0.0
H1021 H 0.51699 0.6798 0.16887 0.0
H1022 H 0.55364 0.68798 0.22025 0.0
H1023 H 0.56579 0.65726 0.21119 0.0
H1024 H 0.49953 0.67985 0.21942 0.0
H1025 H 0.57181 0.75816 0.17737 0.0
H1026 H 0.55202 0.72762 0.16666 0.0
H1027 H 0.57555 0.73209 0.18363 0.0
C1028 C 0.53447 0.65737 0.17296 0.0
C1029 C 0.54848 0.65089 0.18471 0.0
C1030 C 0.52766 0.67495 0.17814 0.0
C1031 C 0.53466 0.68625 0.19515 0.0
C1032 C 0.54823 0.67952 0.20702 0.0
H1033 H 0.53334 0.81595 0.2381 0.0
H1034 H 0.54509 0.78548 0.22796 0.0
C1035 C 0.55523 0.66209 0.20181 0.0
C1036 C 0.52772 0.70503 0.20062 0.0
H1037 H 0.54185 0.76507 0.19311 0.0
C1038 C 0.50873 0.69848 0.21369 0.0
C1039 C 0.54002 0.72935 0.1932 0.0
C1040 C 0.56114 0.73744 0.17951 0.0
C1041 C 0.50145 0.71561 0.21943 0.0
C1042 C 0.51338 0.73979 0.21176 0.0
C1043 C 0.53263 0.74644 0.19884 0.0
C1044 C 0.50638 0.75858 0.21721 0.0
C1045 C 0.48136 0.70786 0.23384 0.0
C1046 C 0.48088 0.75374 0.21416 0.0
C1047 C 0.47406 0.77109 0.21991 0.0
C1048 C 0.49269 0.7937 0.22877 0.0
C1049 C 0.51846 0.79876 0.23136 0.0
C1050 C 0.52524 0.78137 0.22558 0.0
H1051 H 0.47866 0.69117 0.24112 0.0
H1052 H 0.48721 0.72365 0.24353 0.0
H1053 H 0.46213 0.70281 0.22776 0.0
H1054 H 0.46618 0.73644 0.20742 0.0
H1055 H 0.45407 0.76658 0.21758 0.0
H1056 H 0.91125 0.51404 0.3297 0.0
H1057 H 0.86809 0.50342 0.34029 0.0
H1058 H 0.86508 0.44516 0.37288 0.0
H1059 H 0.90877 0.45626 0.3628 0.0
H1060 H 0.81939 0.45811 0.33863 0.0
H1061 H 0.85383 0.48929 0.40845 0.0
H1062 H 0.87627 0.49696 0.39036 0.0
H1063 H 0.85999 0.46585 0.39951 0.0
C1064 C 0.90151 0.49908 0.33922 0.0
C1065 C 0.91361 0.48622 0.34559 0.0
C1066 C 0.87675 0.49289 0.34513 0.0
C1067 C 0.86357 0.47375 0.35755 0.0
C1068 C 0.87513 0.46027 0.36351 0.0
H1069 H 0.70056 0.42121 0.38722 0.0
H1070 H 0.73971 0.42187 0.3767 0.0
C1071 C 0.89997 0.46648 0.3576 0.0
C1072 C 0.83809 0.4686 0.36454 0.0
H1073 H 0.80892 0.47293 0.40213 0.0
C1074 C 0.81698 0.46113 0.35253 0.0
C1075 C 0.83517 0.47284 0.38266 0.0
C1076 C 0.85753 0.48188 0.39601 0.0
C1077 C 0.79311 0.45818 0.35812 0.0
C1078 C 0.79023 0.46247 0.37623 0.0
C1079 C 0.81118 0.4695 0.38828 0.0
C1080 C 0.76638 0.46162 0.38275 0.0
C1081 C 0.77158 0.45149 0.34448 0.0
C1082 C 0.76851 0.4836 0.38998 0.0
C1083 C 0.7463 0.48329 0.39609 0.0
C1084 C 0.7214 0.46093 0.39514 0.0
C1085 C 0.71937 0.43881 0.38805 0.0
C1086 C 0.74169 0.43916 0.38195 0.0
H1087 H 0.77889 0.45398 0.33068 0.0
H1088 H 0.75582 0.4314 0.34593 0.0
H1089 H 0.76275 0.46331 0.34651 0.0
H1090 H 0.78741 0.50112 0.39075 0.0
H1091 H 0.74871 0.50068 0.40151 0.0
H1092 H 0.02405 0.52047 0.42059 0.0
H1093 H 0.04497 0.5291 0.45017 0.0
H1094 H 0.11297 0.59628 0.4307 0.0
H1095 H 0.09254 0.58766 0.40118 0.0
H1096 H 0.09291 0.53152 0.45593 0.0
H1097 H 0.09963 0.62025 0.47865 0.0
H1098 H 0.07713 0.60012 0.46117 0.0
H1099 H 0.11127 0.62144 0.45653 0.0
C1100 C 0.04329 0.53729 0.4227 0.0
C1101 C 0.05656 0.55343 0.40855 0.0
C1102 C 0.05515 0.54224 0.43959 0.0
C1103 C 0.08036 0.5635 0.44266 0.0
C1104 C 0.09325 0.58012 0.42874 0.0
H1105 H 0.20568 0.59203 0.51517 0.0
H1106 H 0.1742 0.57888 0.49019 0.0
C1107 C 0.08147 0.57517 0.41185 0.0
C1108 C 0.0945 0.5668 0.45971 0.0
H1109 H 0.12695 0.60854 0.49409 0.0
C1110 C 0.1001 0.54821 0.4644 0.0
C1111 C 0.10374 0.58854 0.47074 0.0
C1112 C 0.09746 0.60865 0.46664 0.0
C1113 C 0.11542 0.55115 0.47955 0.0
C1114 C 0.12561 0.57333 0.49022 0.0
C1115 C 0.11927 0.59157 0.48585 0.0
C1116 C 0.14348 0.5784 0.50569 0.0
C1117 C 0.12047 0.53041 0.48403 0.0
C1118 C 0.13671 0.58248 0.52268 0.0
C1119 C 0.15463 0.58983 0.53694 0.0
C1120 C 0.1795 0.59299 0.53447 0.0
C1121 C 0.18619 0.58865 0.51754 0.0
C1122 C 0.16827 0.58127 0.50327 0.0
H1123 H 0.10643 0.51232 0.47703 0.0
H1124 H 0.14066 0.53605 0.48004 0.0
H1125 H 0.11884 0.52728 0.49854 0.0
H1126 H 0.1178 0.5806 0.52481 0.0
H1127 H 0.1493 0.59363 0.54982 0.0
H1128 H 0.49372 0.02473 0.59177 0.0
H1129 H 0.50873 0.04834 0.61982 0.0
H1130 H 0.46167 0.0814 0.60927 0.0
H1131 H 0.44883 0.06012 0.58046 0.0
H1132 H 0.50745 0.11642 0.61767 0.0
H1133 H 0.4804 0.04269 0.66768 0.0
H1134 H 0.50037 0.04053 0.65096 0.0
H1135 H 0.46835 0.03504 0.645 0.0
C1136 C 0.48647 0.03697 0.59538 0.0
C1137 C 0.47018 0.04056 0.5836 0.0
C1138 C 0.49471 0.05013 0.61167 0.0
C1139 C 0.48613 0.06649 0.61686 0.0
C1140 C 0.46857 0.06887 0.60563 0.0
H1141 H 0.52995 0.14736 0.7197 0.0
H1142 H 0.50581 0.11753 0.69496 0.0
C1143 C 0.4609 0.0563 0.58916 0.0
C1144 C 0.49774 0.08338 0.63281 0.0
H1145 H 0.5139 0.08514 0.67673 0.0
C1146 C 0.50843 0.10943 0.63063 0.0
C1147 C 0.49894 0.07442 0.64982 0.0
C1148 C 0.48613 0.04661 0.65354 0.0
C1149 C 0.52063 0.12674 0.6448 0.0
C1150 C 0.52335 0.11797 0.66149 0.0
C1151 C 0.51216 0.0919 0.66385 0.0
C1152 C 0.53795 0.13563 0.67657 0.0
C1153 C 0.53009 0.15422 0.64171 0.0
C1154 C 0.564 0.15554 0.67447 0.0
C1155 C 0.57754 0.17262 0.68845 0.0
C1156 C 0.56567 0.16948 0.70498 0.0
C1157 C 0.53961 0.14971 0.70713 0.0
C1158 C 0.52591 0.13272 0.69306 0.0
H1159 H 0.51884 0.15632 0.63068 0.0
H1160 H 0.52829 0.16357 0.65383 0.0
H1161 H 0.55106 0.16424 0.6379 0.0
H1162 H 0.57391 0.1579 0.66202 0.0
H1163 H 0.59733 0.18829 0.68636 0.0
H1164 H 0.48267 0.54638 0.73103 0.0
H1165 H 0.47958 0.56046 0.76091 0.0
H1166 H 0.53242 0.63799 0.74669 0.0
H1167 H 0.53544 0.6241 0.71655 0.0
H1168 H 0.53426 0.59917 0.78294 0.0
H1169 H 0.45924 0.62624 0.77233 0.0
H1170 H 0.45826 0.60112 0.7592 0.0
H1171 H 0.48392 0.63321 0.7559 0.0
C1172 C 0.49314 0.56647 0.73409 0.0
C1173 C 0.50921 0.58416 0.72143 0.0
C1174 C 0.49152 0.57443 0.7512 0.0
C1175 C 0.50579 0.60018 0.75587 0.0
C1176 C 0.52127 0.61802 0.7432 0.0
H1177 H 0.49505 0.66184 0.85837 0.0
H1178 H 0.50734 0.65931 0.82785 0.0
C1179 C 0.52299 0.61006 0.72607 0.0
C1180 C 0.50545 0.60808 0.77436 0.0
H1181 H 0.47356 0.62717 0.80177 0.0
C1182 C 0.52123 0.60556 0.78711 0.0
C1183 C 0.48861 0.61659 0.77954 0.0
C1184 C 0.47144 0.61953 0.76611 0.0
C1185 C 0.52008 0.61075 0.80515 0.0
C1186 C 0.50224 0.61807 0.81052 0.0
C1187 C 0.48719 0.62151 0.79762 0.0
C1188 C 0.49744 0.62048 0.82949 0.0
C1189 C 0.53786 0.6082 0.81829 0.0
C1190 C 0.48802 0.59954 0.84055 0.0
C1191 C 0.48106 0.6009 0.858 0.0
C1192 C 0.48311 0.62318 0.86468 0.0
C1193 C 0.49322 0.64437 0.85369 0.0
C1194 C 0.50022 0.64298 0.83622 0.0
H1195 H 0.55572 0.61071 0.81178 0.0
H1196 H 0.54404 0.62223 0.8294 0.0
H1197 H 0.52715 0.58897 0.82391 0.0
H1198 H 0.48518 0.58181 0.8355 0.0
H1199 H 0.47331 0.58419 0.86604 0.0
H1200 H 0.97393 0.46018 0.90655 0.0
H1201 H 0.95302 0.44589 0.9352 0.0
H1202 H 0.89271 0.37571 0.91079 0.0
H1203 H 0.91296 0.39038 0.88174 0.0
H1204 H 0.87251 0.39572 0.93348 0.0
H1205 H 0.9552 0.39428 0.96652 0.0
H1206 H 0.96532 0.42442 0.95712 0.0
H1207 H 0.95329 0.39698 0.94276 0.0
C1208 C 0.95599 0.44184 0.90717 0.0
C1209 C 0.94502 0.42648 0.89181 0.0
C1210 C 0.94432 0.43353 0.92364 0.0
C1211 C 0.92165 0.40953 0.9252 0.0
C1212 C 0.91038 0.39421 0.90989 0.0
H1213 H 0.86127 0.34444 0.02923 0.0
H1214 H 0.87976 0.35221 -0.00054 0.0
C1215 C 0.92201 0.40257 0.89334 0.0
C1216 C 0.90937 0.40088 0.94276 0.0
H1217 H 0.92268 0.39321 0.9857 0.0
C1218 C 0.88337 0.39491 0.94486 0.0
C1219 C 0.92341 0.39938 0.95753 0.0
C1220 C 0.95075 0.40384 0.95585 0.0
C1221 C 0.87138 0.38848 0.9615 0.0
C1222 C 0.88602 0.3886 0.97649 0.0
C1223 C 0.91164 0.39353 0.97425 0.0
C1224 C 0.87529 0.38419 0.99467 0.0
C1225 C 0.84312 0.38156 0.96283 0.0
C1226 C 0.8673 0.4 0.00202 0.0
C1227 C 0.85665 0.39558 0.01897 0.0
C1228 C 0.85404 0.37541 0.02904 0.0
C1229 C 0.86291 0.3601 0.02186 0.0
C1230 C 0.87345 0.36448 0.00483 0.0
H1231 H 0.83255 0.37485 0.9498 0.0
H1232 H 0.83244 0.36659 0.97274 0.0
H1233 H 0.8426 0.39852 0.96705 0.0
H1234 H 0.86926 0.41577 0.99462 0.0
H1235 H 0.85031 0.40793 0.02413 0.0
H1236 H 0.48113 0.99872 0.08932 0.0
H1237 H 0.4802 0.98058 0.11821 0.0
H1238 H 0.50453 0.93284 0.09373 0.0
H1239 H 0.50385 0.94953 0.06478 0.0
H1240 H 0.46416 0.90636 0.11438 0.0
H1241 H 0.53879 0.99226 0.15168 0.0
H1242 H 0.51268 0.99523 0.14233 0.0
H1243 H 0.53449 0.99167 0.12786 0.0
C1244 C 0.48628 0.98436 0.09008 0.0
C1245 C 0.49273 0.97576 0.07467 0.0
C1246 C 0.4861 0.97426 0.10666 0.0
C1247 C 0.49274 0.95564 0.1082 0.0
C1248 C 0.49954 0.94733 0.09291 0.0
H1249 H 0.52239 0.89838 0.20504 0.0
H1250 H 0.52601 0.92055 0.1775 0.0
C1251 C 0.49944 0.95715 0.07634 0.0
C1252 C 0.49097 0.9435 0.12545 0.0
H1253 H 0.51314 0.95523 0.16861 0.0
C1254 C 0.47497 0.91707 0.12621 0.0
C1255 C 0.5053 0.95743 0.14085 0.0
C1256 C 0.52399 0.98568 0.14065 0.0
C1257 C 0.47279 0.90417 0.1419 0.0
C1258 C 0.48635 0.91815 0.15747 0.0
C1259 C 0.50254 0.94457 0.15671 0.0
C1260 C 0.48421 0.90558 0.17457 0.0
C1261 C 0.45649 0.87563 0.14148 0.0
C1262 C 0.45959 0.89024 0.18226 0.0
C1263 C 0.4574 0.8773 0.19784 0.0
C1264 C 0.47989 0.8798 0.20625 0.0
C1265 C 0.50467 0.89594 0.19887 0.0
C1266 C 0.50679 0.90867 0.18315 0.0
H1267 H 0.45402 0.86784 0.12773 0.0
H1268 H 0.46555 0.86748 0.14993 0.0
H1269 H 0.43662 0.86935 0.14656 0.0
H1270 H 0.44198 0.88813 0.17614 0.0
H1271 H 0.43805 0.86536 0.2033 0.0
H1272 H 0.55873 0.51487 0.2384 0.0
H1273 H 0.56431 0.49849 0.26638 0.0
H1274 H 0.61936 0.57454 0.28511 0.0
H1275 H 0.61322 0.59117 0.25732 0.0
H1276 H 0.61222 0.50577 0.27695 0.0
H1277 H 0.5743 0.54258 0.32868 0.0
H1278 H 0.56627 0.54149 0.30534 0.0
H1279 H 0.59738 0.56646 0.31416 0.0
C1280 C 0.57127 0.52819 0.24872 0.0
C1281 C 0.58544 0.55435 0.24569 0.0
C1282 C 0.57462 0.51877 0.26464 0.0
C1283 C 0.59208 0.5353 0.27785 0.0
C1284 C 0.60542 0.56147 0.27521 0.0
H1285 H 0.66732 0.52474 0.37247 0.0
H1286 H 0.65246 0.53741 0.34647 0.0
C1287 C 0.60207 0.57094 0.25927 0.0
C1288 C 0.59852 0.52508 0.29348 0.0
H1289 H 0.60096 0.52656 0.33884 0.0
C1290 C 0.60947 0.51005 0.29049 0.0
C1291 C 0.59502 0.53083 0.31109 0.0
C1292 C 0.58237 0.54603 0.31506 0.0
C1293 C 0.61779 0.50121 0.30467 0.0
C1294 C 0.61469 0.50729 0.32228 0.0
C1295 C 0.60335 0.522 0.32529 0.0
C1296 C 0.62382 0.49922 0.33778 0.0
C1297 C 0.63065 0.48619 0.30067 0.0
C1298 C 0.61261 0.4735 0.34146 0.0
C1299 C 0.62114 0.46611 0.3563 0.0
C1300 C 0.64092 0.48436 0.36778 0.0
C1301 C 0.65213 0.51013 0.36393 0.0
C1302 C 0.64361 0.51746 0.34911 0.0
H1303 H 0.6369 0.48806 0.28663 0.0
H1304 H 0.64809 0.49235 0.30951 0.0
H1305 H 0.61641 0.46589 0.30305 0.0
H1306 H 0.59702 0.45916 0.333 0.0
H1307 H 0.61192 0.44613 0.35891 0.0
H1308 H 0.42764 0.95992 0.40506 0.0
H1309 H 0.42776 0.94045 0.37655 0.0
H1310 H 0.47181 0.91068 0.40077 0.0
H1311 H 0.47163 0.92997 0.42939 0.0
H1312 H 0.47749 0.95171 0.35945 0.0
H1313 H 0.40865 0.84963 0.3723 0.0
H1314 H 0.40806 0.87441 0.38482 0.0
H1315 H 0.43349 0.86767 0.38909 0.0
C1316 C 0.43683 0.94874 0.4044 0.0
C1317 C 0.44953 0.94634 0.41944 0.0
C1318 C 0.43703 0.93781 0.38811 0.0
C1319 C 0.44965 0.92405 0.38664 0.0
C1320 C 0.46175 0.92103 0.40172 0.0
H1321 H 0.46927 0.84302 0.29935 0.0
H1322 H 0.47148 0.86307 0.32809 0.0
C1323 C 0.46173 0.93213 0.418 0.0
C1324 C 0.45162 0.91424 0.3691 0.0
H1325 H 0.43104 0.85986 0.34512 0.0
C1326 C 0.4673 0.93164 0.35624 0.0
C1327 C 0.43848 0.88809 0.36512 0.0
C1328 C 0.42105 0.86876 0.37847 0.0
C1329 C 0.47049 0.92353 0.33947 0.0
C1330 C 0.45707 0.89732 0.33534 0.0
C1331 C 0.44139 0.87994 0.34828 0.0
C1332 C 0.45861 0.88739 0.31762 0.0
C1333 C 0.48879 0.94309 0.32659 0.0
C1334 C 0.45091 0.89456 0.30214 0.0
C1335 C 0.4503 0.88355 0.28566 0.0
C1336 C 0.45741 0.86527 0.28442 0.0
C1337 C 0.46489 0.85795 0.29989 0.0
C1338 C 0.46578 0.86913 0.31632 0.0
H1339 H 0.5033 0.96108 0.3335 0.0
H1340 H 0.49961 0.93608 0.31895 0.0
H1341 H 0.4772 0.94725 0.3171 0.0
H1342 H 0.44445 0.90798 0.30286 0.0
H1343 H 0.44367 0.88885 0.27395 0.0
H1344 H 0.50037 0.5031 0.54521 0.0
H1345 H 0.5139 0.49256 0.51728 0.0
H1346 H 0.59511 0.5377 0.53433 0.0
H1347 H 0.58197 0.54787 0.56226 0.0
H1348 H 0.56323 0.53143 0.49072 0.0
H1349 H 0.56653 0.45545 0.52743 0.0
H1350 H 0.54448 0.46611 0.53341 0.0
H1351 H 0.57895 0.48567 0.53845 0.0
C1352 C 0.52113 0.51115 0.54284 0.0
C1353 C 0.54009 0.52632 0.55595 0.0
C1354 C 0.52879 0.50521 0.52689 0.0
C1355 C 0.55544 0.51436 0.52391 0.0
C1356 C 0.57446 0.53064 0.53645 0.0
H1357 H 0.64418 0.46976 0.46114 0.0
H1358 H 0.62666 0.48609 0.4833 0.0
C1359 C 0.56688 0.53657 0.55235 0.0
C1360 C 0.56347 0.50487 0.50871 0.0
H1361 H 0.58275 0.4633 0.49841 0.0
C1362 C 0.56743 0.51647 0.49224 0.0
C1363 C 0.56874 0.48533 0.51093 0.0
C1364 C 0.56439 0.47221 0.52845 0.0
C1365 C 0.57757 0.5096 0.47792 0.0
C1366 C 0.58353 0.49035 0.48022 0.0
C1367 C 0.57864 0.47829 0.49666 0.0
C1368 C 0.5954 0.48262 0.46611 0.0
C1369 C 0.58222 0.52358 0.46077 0.0
C1370 C 0.58381 0.4752 0.44904 0.0
C1371 C 0.59462 0.46695 0.43619 0.0
C1372 C 0.61696 0.46566 0.44024 0.0
C1373 C 0.62787 0.47198 0.45746 0.0
C1374 C 0.61754 0.48088 0.47018 0.0
H1375 H 0.58623 0.54302 0.4632 0.0
H1376 H 0.59885 0.52489 0.45342 0.0
H1377 H 0.56426 0.51336 0.45221 0.0
H1378 H 0.56611 0.47528 0.44574 0.0
H1379 H 0.5853 0.46122 0.42313 0.0
H1380 H 0.03646 0.46287 0.71565 0.0
H1381 H 0.06354 0.48165 0.68945 0.0
H1382 H 0.09729 0.55585 0.71366 0.0
H1383 H 0.07112 0.53725 0.74008 0.0
H1384 H 0.06803 0.51824 0.66588 0.0
H1385 H 0.16184 0.55127 0.70311 0.0
H1386 H 0.13019 0.52913 0.71215 0.0
H1387 H 0.14176 0.56235 0.71218 0.0
C1388 C 0.04956 0.48319 0.71534 0.0
C1389 C 0.05161 0.49854 0.72995 0.0
C1390 C 0.06495 0.4939 0.70036 0.0
C1391 C 0.08276 0.52008 0.69978 0.0
C1392 C 0.08402 0.53555 0.71399 0.0
H1393 H 0.19676 0.61356 0.61975 0.0
H1394 H 0.16842 0.59913 0.64576 0.0
C1395 C 0.06871 0.52489 0.72897 0.0
C1396 C 0.10045 0.53112 0.68448 0.0
H1397 H 0.16519 0.56348 0.67307 0.0
C1398 C 0.08926 0.52814 0.66745 0.0
C1399 C 0.12817 0.544 0.68658 0.0
C1400 C 0.14127 0.54673 0.70445 0.0
C1401 C 0.10507 0.53779 0.65244 0.0
C1402 C 0.13272 0.55052 0.65454 0.0
C1403 C 0.14396 0.55382 0.67158 0.0
C1404 C 0.15023 0.55936 0.63907 0.0
C1405 C 0.09211 0.53439 0.63444 0.0
C1406 C 0.14969 0.54173 0.62697 0.0
C1407 C 0.16589 0.54983 0.61221 0.0
C1408 C 0.183 0.5758 0.60922 0.0
C1409 C 0.1838 0.59345 0.62159 0.0
C1410 C 0.16763 0.58526 0.63645 0.0
H1411 H 0.0714 0.52955 0.63555 0.0
H1412 H 0.10312 0.55183 0.62656 0.0
H1413 H 0.09209 0.51878 0.62703 0.0
H1414 H 0.13667 0.52165 0.62893 0.0
H1415 H 0.1647 0.53564 0.60304 0.0
H1416 H 0.5428 0.06712 0.91009 0.0
H1417 H 0.55692 0.08909 0.88197 0.0
H1418 H 0.51892 0.13046 0.89463 0.0
H1419 H 0.50518 0.10892 0.92317 0.0
H1420 H 0.52188 0.08741 0.85513 0.0
H1421 H 0.59365 0.18566 0.87876 0.0
H1422 H 0.58331 0.15854 0.89261 0.0
H1423 H 0.56179 0.17028 0.88875 0.0
C1424 C 0.53796 0.08133 0.90713 0.0
C1425 C 0.5231 0.08648 0.91896 0.0
C1426 C 0.54586 0.0937 0.89097 0.0
C1427 C 0.53916 0.11153 0.88631 0.0
C1428 C 0.52459 0.117 0.89812 0.0
H1429 H 0.57237 0.19799 0.78906 0.0
H1430 H 0.5568 0.18009 0.81836 0.0
C1431 C 0.5166 0.10456 0.91433 0.0
C1432 C 0.54636 0.12325 0.86864 0.0
H1433 H 0.58539 0.17907 0.84782 0.0
C1434 C 0.53572 0.10746 0.85351 0.0
C1435 C 0.56425 0.14941 0.86663 0.0
C1436 C 0.57663 0.16704 0.88251 0.0
C1437 C 0.54265 0.11711 0.83636 0.0
C1438 C 0.56113 0.14316 0.83433 0.0
C1439 C 0.57131 0.15908 0.84945 0.0
C1440 C 0.57068 0.15407 0.81662 0.0
C1441 C 0.52998 0.09935 0.82057 0.0
C1442 C 0.58397 0.14559 0.80605 0.0
C1443 C 0.59284 0.15569 0.78928 0.0
C1444 C 0.58879 0.17465 0.7828 0.0
C1445 C 0.57577 0.18336 0.79357 0.0
C1446 C 0.56688 0.1732 0.81034 0.0
H1447 H 0.5112 0.08209 0.82414 0.0
H1448 H 0.52603 0.10875 0.80954 0.0
H1449 H 0.54346 0.09332 0.8157 0.0
H1450 H 0.58758 0.1312 0.81081 0.0
H1451 H 0.60289 0.1486 0.78144 0.0
H1452 H 0.59944 0.64525 0.07655 0.0
H1453 H 0.59162 0.65749 0.04739 0.0
H1454 H 0.50866 0.61997 0.05795 0.0
H1455 H 0.51643 0.60839 0.08731 0.0
H1456 H 0.56123 0.62329 0.02137 0.0
H1457 H 0.52285 0.68566 0.03657 0.0
H1458 H 0.54029 0.67836 0.05289 0.0
H1459 H 0.50581 0.65659 0.04839 0.0
C1460 C 0.57966 0.64033 0.07289 0.0
C1461 C 0.55853 0.62589 0.08421 0.0
C1462 C 0.57522 0.64717 0.05618 0.0
C1463 C 0.54963 0.63986 0.05059 0.0
C1464 C 0.52864 0.62626 0.06214 0.0
H1465 H 0.45763 0.62474 0.95962 0.0
H1466 H 0.47699 0.62437 0.98829 0.0
C1467 C 0.53306 0.61942 0.07883 0.0
C1468 C 0.5443 0.64397 0.03208 0.0
H1469 H 0.51212 0.66585 0.00747 0.0
C1470 C 0.55087 0.63295 0.01825 0.0
C1471 C 0.53096 0.65672 0.0281 0.0
C1472 C 0.52482 0.67023 0.04227 0.0
C1473 C 0.543 0.63297 0.00061 0.0
C1474 C 0.52838 0.64454 0.99675 0.0
C1475 C 0.523 0.65666 0.01049 0.0
C1476 C 0.51694 0.64297 0.97887 0.0
C1477 C 0.54937 0.61962 0.98647 0.0
C1478 C 0.53292 0.65322 0.96397 0.0
C1479 C 0.5217 0.65279 0.94743 0.0
C1480 C 0.49441 0.64203 0.94561 0.0
C1481 C 0.47857 0.63206 0.96054 0.0
C1482 C 0.48967 0.63221 0.97696 0.0
H1483 H 0.55459 0.60632 0.99224 0.0
H1484 H 0.53252 0.60896 0.9771 0.0
H1485 H 0.56639 0.63385 0.97881 0.0
H1486 H 0.55407 0.66217 0.96523 0.0
H1487 H 0.53431 0.66128 0.93615 0.0
H1488 H 0.97181 0.5023 0.23307 0.0
H1489 H 0.95014 0.48571 0.20404 0.0
H1490 H 0.9046 0.41104 0.22555 0.0
H1491 H 0.92615 0.4275 0.25473 0.0
H1492 H 0.94799 0.43821 0.18538 0.0
H1493 H 0.85298 0.43217 0.19886 0.0
H1494 H 0.88318 0.45485 0.21035 0.0
H1495 H 0.86721 0.42203 0.21563 0.0
C1496 C 0.95685 0.48243 0.2317 0.0
C1497 C 0.95048 0.4662 0.24618 0.0
C1498 C 0.9447 0.47299 0.2151 0.0
C1499 C 0.92584 0.44724 0.21277 0.0
C1500 C 0.91911 0.431 0.2272 0.0
H1501 H 0.8218 0.36485 0.12374 0.0
H1502 H 0.84465 0.37728 0.1526 0.0
C1503 C 0.93142 0.4404 0.24379 0.0
C1504 C 0.91364 0.4373 0.19507 0.0
H1505 H 0.85779 0.41863 0.17062 0.0
C1506 C 0.92825 0.43383 0.18208 0.0
C1507 C 0.88793 0.4316 0.19099 0.0
C1508 C 0.87177 0.43537 0.2046 0.0
C1509 C 0.91763 0.42452 0.16499 0.0
C1510 C 0.89198 0.41918 0.16074 0.0
C1511 C 0.87741 0.42264 0.17386 0.0
C1512 C 0.87972 0.41013 0.14281 0.0
C1513 C 0.93384 0.42006 0.15186 0.0
C1514 C 0.8919 0.42426 0.12762 0.0
C1515 C 0.8791 0.41669 0.11101 0.0
C1516 C 0.85397 0.39492 0.10937 0.0
C1517 C 0.8417 0.38102 0.12455 0.0
C1518 C 0.85459 0.38832 0.14107 0.0
H1519 H 0.94858 0.41702 0.15869 0.0
H1520 H 0.92122 0.40345 0.1431 0.0
H1521 H 0.94465 0.43692 0.14343 0.0
H1522 H 0.91089 0.44161 0.12869 0.0
H1523 H 0.88852 0.42812 0.09952 0.0
loop_
_geom_bond_atom_site_label_1
_geom_bond_atom_site_label_2
_geom_bond_distance
_geom_bond_site_symmetry_2
_ccdc_geom_bond_type
H0 O26 0.856 . S
H1 O29 0.854 . S
H2 C37 0.930 1_455 S
H3 C38 0.930 . S
H4 C40 0.930 . S
H5 C41 0.930 . S
H6 C43 0.931 . S
H7 C44 0.930 . S
H8 C46 0.930 . S
H9 C47 0.929 . S
H10 C49 0.930 . S
H11 C50 0.931 . S
H12 C52 0.930 . S
H13 C53 0.929 . S
H14 C55 0.931 . S
H15 C56 0.930 . S
H16 C58 0.930 . S
H17 C59 0.932 . S
H18 C61 0.930 . S
H19 C62 0.929 . S
H20 C64 0.931 . S
H21 C65 0.930 . S
H22 C67 0.929 . S
H23 C68 0.931 . S
H24 C70 0.930 . S
H25 C71 0.929 1_455 S
O26 H0 0.856 . S
O26 C72 1.300 . S
O27 C72 1.209 . S
O28 C73 1.199 . S
O29 H1 0.854 . S
O29 C73 1.297 . S
C30 C31 1.404 . S
C30 C35 1.397 . S
C30 C36 1.492 . S
C31 C30 1.404 . S
C31 C32 1.396 . S
C31 C42 1.492 . S
C32 C31 1.396 . S
C32 C33 1.397 . S
C32 C48 1.509 . S
C33 C32 1.397 . S
C33 C34 1.412 . S
C33 C54 1.485 . S
C34 C33 1.412 . S
C34 C35 1.388 . S
C34 C60 1.490 . S
C35 C30 1.397 . S
C35 C34 1.388 . S
C35 C66 1.519 1_455 S
C36 C30 1.492 . S
C36 C37 1.363 1_455 S
C36 C41 1.390 1_455 S
C37 H2 0.930 1_655 S
C37 C36 1.363 1_655 S
C37 C38 1.372 . S
C38 H3 0.930 . S
C38 C37 1.372 . S
C38 C39 1.383 . S
C39 C38 1.383 . S
C39 C40 1.395 . S
C40 H4 0.930 . S
C40 C39 1.395 . S
C40 C41 1.362 . S
C41 H5 0.930 . S
C41 C36 1.390 1_655 S
C41 C40 1.362 . S
C42 C31 1.492 . S
C42 C43 1.377 . S
C42 C47 1.397 . S
C43 H6 0.931 . S
C43 C42 1.377 . S
C43 C44 1.376 . S
C44 H7 0.930 . S
C44 C43 1.376 . S
C44 C45 1.376 . S
C45 C44 1.376 . S
C45 C46 1.378 . S
C45 C72 1.486 . S
C46 H8 0.930 . S
C46 C45 1.378 . S
C46 C47 1.376 . S
C47 H9 0.929 . S
C47 C42 1.397 . S
C47 C46 1.376 . S
C48 C32 1.509 . S
C48 C49 1.391 . S
C48 C53 1.386 . S
C49 H10 0.930 . S
C49 C48 1.391 . S
C49 C50 1.375 . S
C50 H11 0.931 . S
C50 C49 1.375 . S
C50 C51 1.375 . S
C51 C50 1.375 . S
C51 C52 1.361 . S
C52 H12 0.930 . S
C52 C51 1.361 . S
C52 C53 1.399 . S
C53 H13 0.929 . S
C53 C48 1.386 . S
C53 C52 1.399 . S
C54 C33 1.485 . S
C54 C55 1.394 . S
C54 C59 1.360 . S
C55 H14 0.931 . S
C55 C54 1.394 . S
C55 C56 1.372 . S
C56 H15 0.930 . S
C56 C55 1.372 . S
C56 C57 1.397 . S
C57 C56 1.397 . S
C57 C58 1.390 . S
C57 C73 1.476 . S
C58 H16 0.930 . S
C58 C57 1.390 . S
C58 C59 1.366 . S
C59 H17 0.932 . S
C59 C54 1.360 . S
C59 C58 1.366 . S
C60 C34 1.490 . S
C60 C61 1.380 . S
C60 C65 1.386 . S
C61 H18 0.930 . S
C61 C60 1.380 . S
C61 C62 1.381 . S
C62 H19 0.929 . S
C62 C61 1.381 . S
C62 C63 1.371 . S
C63 C62 1.371 . S
C63 C64 1.380 . S
C64 H20 0.931 . S
C64 C63 1.380 . S
C64 C65 1.387 . S
C65 H21 0.930 . S
C65 C60 1.386 . S
C65 C64 1.387 . S
C66 C35 1.519 1_655 S
C66 C67 1.377 . S
C66 C71 1.361 . S
C67 H22 0.929 . S
C67 C66 1.377 . S
C67 C68 1.386 . S
C68 H23 0.931 . S
C68 C67 1.386 . S
C68 C69 1.363 . S
C69 C68 1.363 . S
C69 C70 1.385 . S
C70 H24 0.930 . S
C70 C69 1.385 . S
C70 C71 1.396 . S
C71 H25 0.929 1_655 S
C71 C66 1.361 . S
C71 C70 1.396 . S
C72 O26 1.300 . S
C72 O27 1.209 . S
C72 C45 1.486 . S
C73 O28 1.199 . S
C73 O29 1.297 . S
C73 C57 1.476 . S
H74 O100 0.856 . S
H75 O103 0.854 . S
H76 C111 0.930 . S
H77 C112 0.930 . S
H78 C114 0.930 . S
H79 C115 0.935 . S
H80 C117 0.931 . S
H81 C118 0.930 . S
H82 C120 0.930 . S
H83 C121 0.929 . S
H84 C123 0.930 . S
H85 C124 0.931 . S
H86 C126 0.930 . S
H87 C127 0.929 . S
H88 C129 0.931 . S
H89 C130 0.930 . S
H90 C132 0.930 . S
H91 C133 0.932 . S
H92 C135 0.930 . S
H93 C136 0.929 . S
H94 C138 0.931 . S
H95 C139 0.930 . S
H96 C141 0.929 1_545 S
H97 C142 0.931 . S
H98 C144 0.930 . S
H99 C145 0.929 . S
O100 H74 0.856 . S
O100 C146 1.300 . S
O101 C146 1.209 . S
O102 C147 1.199 . S
O103 H75 0.854 . S
O103 C147 1.297 . S
C104 C105 1.404 . S
C104 C109 1.397 . S
C104 C110 1.492 . S
C105 C104 1.404 . S
C105 C106 1.396 . S
C105 C116 1.492 . S
C106 C105 1.396 . S
C106 C107 1.397 . S
C106 C122 1.509 . S
C107 C106 1.397 . S
C107 C108 1.412 . S
C107 C128 1.485 . S
C108 C107 1.412 . S
C108 C109 1.388 . S
C108 C134 1.490 . S
C109 C104 1.397 . S
C109 C108 1.388 . S
C109 C140 1.519 . S
C110 C104 1.492 . S
C110 C111 1.363 . S
C110 C115 1.390 1_545 S
C111 H76 0.930 . S
C111 C110 1.363 . S
C111 C112 1.372 1_545 S
C112 H77 0.930 . S
C112 C111 1.372 1_565 S
C112 C113 1.383 . S
C113 C112 1.383 . S
C113 C114 1.395 . S
C114 H78 0.930 . S
C114 C113 1.395 . S
C114 C115 1.362 . S
C115 H79 0.935 . S
C115 C110 1.390 1_565 S
C115 C114 1.362 . S
C116 C105 1.492 . S
C116 C117 1.377 . S
C116 C121 1.397 . S
C117 H80 0.931 . S
C117 C116 1.377 . S
C117 C118 1.376 . S
C118 H81 0.930 . S
C118 C117 1.376 . S
C118 C119 1.376 . S
C119 C118 1.376 . S
C119 C120 1.378 . S
C119 C146 1.486 . S
C120 H82 0.930 . S
C120 C119 1.378 . S
C120 C121 1.376 . S
C121 H83 0.929 . S
C121 C116 1.397 . S
C121 C120 1.376 . S
C122 C106 1.509 . S
C122 C123 1.391 . S
C122 C127 1.386 . S
C123 H84 0.930 . S
C123 C122 1.391 . S
C123 C124 1.375 . S
C124 H85 0.931 . S
C124 C123 1.375 . S
C124 C125 1.375 . S
C125 C124 1.375 . S
C125 C126 1.361 . S
C126 H86 0.930 . S
C126 C125 1.361 . S
C126 C127 1.399 . S
C127 H87 0.929 . S
C127 C122 1.386 . S
C127 C126 1.399 . S
C128 C107 1.485 . S
C128 C129 1.394 . S
C128 C133 1.360 . S
C129 H88 0.931 . S
C129 C128 1.394 . S
C129 C130 1.372 . S
C130 H89 0.930 . S
C130 C129 1.372 . S
C130 C131 1.397 . S
C131 C130 1.397 . S
C131 C132 1.390 . S
C131 C147 1.476 . S
C132 H90 0.930 . S
C132 C131 1.390 . S
C132 C133 1.366 . S
C133 H91 0.932 . S
C133 C128 1.360 . S
C133 C132 1.366 . S
C134 C108 1.490 . S
C134 C135 1.380 . S
C134 C139 1.386 . S
C135 H92 0.930 . S
C135 C134 1.380 . S
C135 C136 1.381 . S
C136 H93 0.929 . S
C136 C135 1.381 . S
C136 C137 1.371 . S
C137 C136 1.371 . S
C137 C138 1.380 . S
C138 H94 0.931 . S
C138 C137 1.380 . S
C138 C139 1.387 . S
C139 H95 0.930 . S
C139 C134 1.386 . S
C139 C138 1.387 . S
C140 C109 1.519 . S
C140 C141 1.377 1_545 S
C140 C145 1.361 . S
C141 H96 0.929 1_565 S
C141 C140 1.377 1_565 S
C141 C142 1.386 . S
C142 H97 0.931 . S
C142 C141 1.386 . S
C142 C143 1.363 . S
C143 C142 1.363 . S
C143 C144 1.385 . S
C144 H98 0.930 . S
C144 C143 1.385 . S
C144 C145 1.396 1_565 S
C145 H99 0.929 . S
C145 C140 1.361 . S
C145 C144 1.396 1_545 S
C146 O100 1.300 . S
C146 O101 1.209 . S
C146 C119 1.486 . S
C147 O102 1.199 . S
C147 O103 1.297 . S
C147 C131 1.476 . S
H148 O174 0.856 . S
H149 O177 0.854 . S
H150 C185 0.930 . S
H151 C186 0.930 . S
H152 C188 0.930 . S
H153 C189 0.930 . S
H154 C191 0.931 . S
H155 C192 0.930 . S
H156 C194 0.930 . S
H157 C195 0.929 . S
H158 C197 0.930 . S
H159 C198 0.931 . S
H160 C200 0.930 . S
H161 C201 0.929 . S
H162 C203 0.931 . S
H163 C204 0.930 . S
H164 C206 0.930 . S
H165 C207 0.932 . S
H166 C209 0.930 . S
H167 C210 0.929 . S
H168 C212 0.931 . S
H169 C213 0.930 . S
H170 C215 0.929 . S
H171 C216 0.931 . S
H172 C218 0.930 . S
H173 C219 0.929 . S
O174 H148 0.856 . S
O174 C220 1.300 . S
O175 C220 1.209 . S
O176 C221 1.199 . S
O177 H149 0.854 . S
O177 C221 1.297 . S
C178 C179 1.404 . S
C178 C183 1.397 . S
C178 C184 1.492 . S
C179 C178 1.404 . S
C179 C180 1.396 . S
C179 C190 1.492 . S
C180 C179 1.396 . S
C180 C181 1.397 . S
C180 C196 1.509 . S
C181 C180 1.397 . S
C181 C182 1.412 . S
C181 C202 1.485 . S
C182 C181 1.412 . S
C182 C183 1.388 . S
C182 C208 1.490 . S
C183 C178 1.397 . S
C183 C182 1.388 . S
C183 C214 1.519 . S
C184 C178 1.492 . S
C184 C185 1.363 . S
C184 C189 1.390 . S
C185 H150 0.930 . S
C185 C184 1.363 . S
C185 C186 1.372 . S
C186 H151 0.930 . S
C186 C185 1.372 . S
C186 C187 1.383 . S
C187 C186 1.383 . S
C187 C188 1.395 . S
C188 H152 0.930 . S
C188 C187 1.395 . S
C188 C189 1.362 . S
C189 H153 0.930 . S
C189 C184 1.390 . S
C189 C188 1.362 . S
C190 C179 1.492 . S
C190 C191 1.377 . S
C190 C195 1.397 . S
C191 H154 0.931 . S
C191 C190 1.377 . S
C191 C192 1.376 . S
C192 H155 0.930 . S
C192 C191 1.376 . S
C192 C193 1.376 . S
C193 C192 1.376 . S
C193 C194 1.378 . S
C193 C220 1.486 . S
C194 H156 0.930 . S
C194 C193 1.378 . S
C194 C195 1.376 . S
C195 H157 0.929 . S
C195 C190 1.397 . S
C195 C194 1.376 . S
C196 C180 1.509 . S
C196 C197 1.391 . S
C196 C201 1.386 . S
C197 H158 0.930 . S
C197 C196 1.391 . S
C197 C198 1.375 . S
C198 H159 0.931 . S
C198 C197 1.375 . S
C198 C199 1.375 . S
C199 C198 1.375 . S
C199 C200 1.361 . S
C200 H160 0.930 . S
C200 C199 1.361 . S
C200 C201 1.399 . S
C201 H161 0.929 . S
C201 C196 1.386 . S
C201 C200 1.399 . S
C202 C181 1.485 . S
C202 C203 1.394 . S
C202 C207 1.360 . S
C203 H162 0.931 . S
C203 C202 1.394 . S
C203 C204 1.372 . S
C204 H163 0.930 . S
C204 C203 1.372 . S
C204 C205 1.397 . S
C205 C204 1.397 . S
C205 C206 1.390 . S
C205 C221 1.476 . S
C206 H164 0.930 . S
C206 C205 1.390 . S
C206 C207 1.366 . S
C207 H165 0.932 . S
C207 C202 1.360 . S
C207 C206 1.366 . S
C208 C182 1.490 . S
C208 C209 1.380 . S
C208 C213 1.386 . S
C209 H166 0.930 . S
C209 C208 1.380 . S
C209 C210 1.381 . S
C210 H167 0.929 . S
C210 C209 1.381 . S
C210 C211 1.371 . S
C211 C210 1.371 . S
C211 C212 1.380 . S
C212 H168 0.931 . S
C212 C211 1.380 . S
C212 C213 1.387 . S
C213 H169 0.930 . S
C213 C208 1.386 . S
C213 C212 1.387 . S
C214 C183 1.519 . S
C214 C215 1.377 . S
C214 C219 1.361 . S
C215 H170 0.929 . S
C215 C214 1.377 . S
C215 C216 1.386 . S
C216 H171 0.931 . S
C216 C215 1.386 . S
C216 C217 1.363 . S
C217 C216 1.363 . S
C217 C218 1.385 . S
C218 H172 0.930 . S
C218 C217 1.385 . S
C218 C219 1.396 . S
C219 H173 0.929 . S
C219 C214 1.361 . S
C219 C218 1.396 . S
C220 O174 1.300 . S
C220 O175 1.209 . S
C220 C193 1.486 . S
C221 O176 1.199 . S
C221 O177 1.297 . S
C221 C205 1.476 . S
H222 O248 0.856 . S
H223 O251 0.854 . S
H224 C259 0.928 1_455 S
H225 C260 0.930 . S
H226 C262 0.930 . S
H227 C263 0.930 . S
H228 C265 0.931 . S
H229 C266 0.930 . S
H230 C268 0.930 . S
H231 C269 0.929 . S
H232 C271 0.930 . S
H233 C272 0.931 . S
H234 C274 0.930 . S
H235 C275 0.929 . S
H236 C277 0.931 . S
H237 C278 0.930 . S
H238 C280 0.930 . S
H239 C281 0.932 . S
H240 C283 0.930 . S
H241 C284 0.929 . S
H242 C286 0.931 . S
H243 C287 0.930 . S
H244 C289 0.929 . S
H245 C290 0.931 . S
H246 C292 0.930 . S
H247 C293 0.889 1_455 S
O248 H222 0.856 . S
O248 C294 1.300 . S
O249 C294 1.209 . S
O250 C295 1.199 . S
O251 H223 0.854 . S
O251 C295 1.297 . S
C252 C253 1.404 . S
C252 C257 1.397 . S
C252 C258 1.492 . S
C253 C252 1.404 . S
C253 C254 1.396 . S
C253 C264 1.492 . S
C254 C253 1.396 . S
C254 C255 1.397 . S
C254 C270 1.509 . S
C255 C254 1.397 . S
C255 C256 1.412 . S
C255 C276 1.485 . S
C256 C255 1.412 . S
C256 C257 1.388 . S
C256 C282 1.490 . S
C257 C252 1.397 . S
C257 C256 1.388 . S
C257 C288 1.519 1_455 S
C258 C252 1.492 . S
C258 C259 1.357 1_455 S
C258 C263 1.390 1_455 S
C259 H224 0.928 1_655 S
C259 C258 1.357 1_655 S
C259 C260 1.381 . S
C260 H225 0.930 . S
C260 C259 1.381 . S
C260 C261 1.383 . S
C261 C260 1.383 . S
C261 C262 1.395 . S
C262 H226 0.930 . S
C262 C261 1.395 . S
C262 C263 1.362 . S
C263 H227 0.930 . S
C263 C258 1.390 1_655 S
C263 C262 1.362 . S
C264 C253 1.492 . S
C264 C265 1.377 . S
C264 C269 1.397 . S
C265 H228 0.931 . S
C265 C264 1.377 . S
C265 C266 1.376 . S
C266 H229 0.930 . S
C266 C265 1.376 . S
C266 C267 1.376 . S
C267 C266 1.376 . S
C267 C268 1.378 . S
C267 C294 1.486 . S
C268 H230 0.930 . S
C268 C267 1.378 . S
C268 C269 1.376 . S
C269 H231 0.929 . S
C269 C264 1.397 . S
C269 C268 1.376 . S
C270 C254 1.509 . S
C270 C271 1.391 . S
C270 C275 1.386 . S
C271 H232 0.930 . S
C271 C270 1.391 . S
C271 C272 1.375 . S
C272 H233 0.931 . S
C272 C271 1.375 . S
C272 C273 1.375 . S
C273 C272 1.375 . S
C273 C274 1.361 . S
C274 H234 0.930 . S
C274 C273 1.361 . S
C274 C275 1.399 . S
C275 H235 0.929 . S
C275 C270 1.386 . S
C275 C274 1.399 . S
C276 C255 1.485 . S
C276 C277 1.394 . S
C276 C281 1.360 . S
C277 H236 0.931 . S
C277 C276 1.394 . S
C277 C278 1.372 . S
C278 H237 0.930 . S
C278 C277 1.372 . S
C278 C279 1.397 . S
C279 C278 1.397 . S
C279 C280 1.390 . S
C279 C295 1.476 . S
C280 H238 0.930 . S
C280 C279 1.390 . S
C280 C281 1.366 . S
C281 H239 0.932 . S
C281 C276 1.360 . S
C281 C280 1.366 . S
C282 C256 1.490 . S
C282 C283 1.380 . S
C282 C287 1.386 . S
C283 H240 0.930 . S
C283 C282 1.380 . S
C283 C284 1.381 . S
C284 H241 0.929 . S
C284 C283 1.381 . S
C284 C285 1.371 . S
C285 C284 1.371 . S
C285 C286 1.380 . S
C286 H242 0.931 . S
C286 C285 1.380 . S
C286 C287 1.387 . S
C287 H243 0.930 . S
C287 C282 1.386 . S
C287 C286 1.387 . S
C288 C257 1.519 1_655 S
C288 C289 1.377 . S
C288 C293 1.361 . S
C289 H244 0.929 . S
C289 C288 1.377 . S
C289 C290 1.386 . S
C290 H245 0.931 . S
C290 C289 1.386 . S
C290 C291 1.363 . S
C291 C290 1.363 . S
C291 C292 1.385 . S
C292 H246 0.930 . S
C292 C291 1.385 . S
C292 C293 1.396 . S
C293 H247 0.889 1_655 S
C293 C288 1.361 . S
C293 C292 1.396 . S
C294 O248 1.300 . S
C294 O249 1.209 . S
C294 C267 1.486 . S
C295 O250 1.199 . S
C295 O251 1.297 . S
C295 C279 1.476 . S
H296 O322 0.856 . S
H297 O325 0.854 . S
H298 C333 0.930 . S
H299 C334 0.930 . S
H300 C336 0.930 . S
H301 C337 0.930 . S
H302 C339 0.931 . S
H303 C340 0.930 . S
H304 C342 0.930 . S
H305 C343 0.929 . S
H306 C345 0.930 . S
H307 C346 0.931 . S
H308 C348 0.930 . S
H309 C349 0.929 . S
H310 C351 0.931 . S
H311 C352 0.930 . S
H312 C354 0.930 . S
H313 C355 0.932 . S
H314 C357 0.930 . S
H315 C358 0.929 1_545 S
H316 C360 0.931 . S
H317 C361 0.930 . S
H318 C363 0.936 . S
H319 C364 0.931 . S
H320 C366 0.930 . S
H321 C367 0.929 . S
O322 H296 0.856 . S
O322 C368 1.300 . S
O323 C368 1.209 . S
O324 C369 1.199 . S
O325 H297 0.854 . S
O325 C369 1.297 . S
C326 C327 1.404 1_545 S
C326 C331 1.397 . S
C326 C332 1.492 . S
C327 C326 1.404 1_565 S
C327 C328 1.396 . S
C327 C338 1.492 . S
C328 C327 1.396 . S
C328 C329 1.397 . S
C328 C344 1.509 . S
C329 C328 1.397 . S
C329 C330 1.412 1_556 S
C329 C350 1.485 1_556 S
C330 C329 1.412 1_554 S
C330 C331 1.388 1_564 S
C330 C356 1.490 . S
C331 C326 1.397 . S
C331 C330 1.388 1_546 S
C331 C362 1.501 1_556 S
C332 C326 1.492 . S
C332 C333 1.363 . S
C332 C337 1.390 . S
C333 H298 0.930 . S
C333 C332 1.363 . S
C333 C334 1.372 . S
C334 H299 0.930 . S
C334 C333 1.372 . S
C334 C335 1.383 . S
C335 C334 1.383 . S
C335 C336 1.395 . S
C336 H300 0.930 . S
C336 C335 1.395 . S
C336 C337 1.362 . S
C337 H301 0.930 . S
C337 C332 1.390 . S
C337 C336 1.362 . S
C338 C327 1.492 . S
C338 C339 1.377 . S
C338 C343 1.397 . S
C339 H302 0.931 . S
C339 C338 1.377 . S
C339 C340 1.376 . S
C340 H303 0.930 . S
C340 C339 1.376 . S
C340 C341 1.376 . S
C341 C340 1.376 . S
C341 C342 1.378 . S
C341 C368 1.486 . S
C342 H304 0.930 . S
C342 C341 1.378 . S
C342 C343 1.376 . S
C343 H305 0.929 . S
C343 C338 1.397 . S
C343 C342 1.376 . S
C344 C328 1.509 . S
C344 C345 1.391 . S
C344 C349 1.386 . S
C345 H306 0.930 . S
C345 C344 1.391 . S
C345 C346 1.375 . S
C346 H307 0.931 . S
C346 C345 1.375 . S
C346 C347 1.375 . S
C347 C346 1.375 . S
C347 C348 1.361 . S
C348 H308 0.930 . S
C348 C347 1.361 . S
C348 C349 1.399 . S
C349 H309 0.929 . S
C349 C344 1.386 . S
C349 C348 1.399 . S
C350 C329 1.485 1_554 S
C350 C351 1.394 . S
C350 C355 1.360 . S
C351 H310 0.931 . S
C351 C350 1.394 . S
C351 C352 1.372 . S
C352 H311 0.930 . S
C352 C351 1.372 . S
C352 C353 1.397 . S
C353 C352 1.397 . S
C353 C354 1.390 . S
C353 C369 1.476 . S
C354 H312 0.930 . S
C354 C353 1.390 . S
C354 C355 1.366 . S
C355 H313 0.932 . S
C355 C350 1.360 . S
C355 C354 1.366 . S
C356 C330 1.490 . S
C356 C357 1.380 . S
C356 C361 1.386 . S
C357 H314 0.930 . S
C357 C356 1.380 . S
C357 C358 1.381 . S
C358 H315 0.929 1_565 S
C358 C357 1.381 . S
C358 C359 1.371 . S
C359 C358 1.371 . S
C359 C360 1.380 . S
C360 H316 0.931 . S
C360 C359 1.380 . S
C360 C361 1.387 . S
C361 H317 0.930 . S
C361 C356 1.386 . S
C361 C360 1.387 . S
C362 C331 1.501 1_554 S
C362 C363 1.374 1_554 S
C362 C367 1.383 . S
C363 H318 0.936 . S
C363 C362 1.374 1_556 S
C363 C364 1.381 1_556 S
C364 H319 0.931 . S
C364 C363 1.381 1_554 S
C364 C365 1.363 . S
C365 C364 1.363 . S
C365 C366 1.385 . S
C366 H320 0.930 . S
C366 C365 1.385 . S
C366 C367 1.396 . S
C367 H321 0.929 . S
C367 C362 1.383 . S
C367 C366 1.396 . S
C368 O322 1.300 . S
C368 O323 1.209 . S
C368 C341 1.486 . S
C369 O324 1.199 . S
C369 O325 1.297 . S
C369 C353 1.476 . S
H370 O396 0.856 . S
H371 O399 0.854 . S
H372 C407 0.930 . S
H373 C408 0.930 . S
H374 C410 0.930 . S
H375 C411 0.930 . S
H376 C413 0.931 . S
H377 C414 0.930 . S
H378 C416 0.930 . S
H379 C417 0.929 . S
H380 C419 0.930 . S
H381 C420 0.931 . S
H382 C422 0.930 . S
H383 C423 0.929 . S
H384 C425 0.931 . S
H385 C426 0.930 . S
H386 C428 0.930 . S
H387 C429 0.932 . S
H388 C431 0.930 . S
H389 C432 0.929 . S
H390 C434 0.931 . S
H391 C435 0.930 . S
H392 C437 0.929 . S
H393 C438 0.931 . S
H394 C440 0.930 . S
H395 C441 0.929 . S
O396 H370 0.856 . S
O396 C442 1.300 . S
O397 C442 1.209 . S
O398 C443 1.199 . S
O399 H371 0.854 . S
O399 C443 1.297 . S
C400 C401 1.404 . S
C400 C405 1.397 . S
C400 C406 1.492 . S
C401 C400 1.404 . S
C401 C402 1.396 . S
C401 C412 1.492 . S
C402 C401 1.396 . S
C402 C403 1.397 . S
C402 C418 1.509 . S
C403 C402 1.397 . S
C403 C404 1.412 . S
C403 C424 1.485 . S
C404 C403 1.412 . S
C404 C405 1.388 . S
C404 C430 1.490 . S
C405 C400 1.397 . S
C405 C404 1.388 . S
C405 C436 1.519 . S
C406 C400 1.492 . S
C406 C407 1.363 . S
C406 C411 1.390 . S
C407 H372 0.930 . S
C407 C406 1.363 . S
C407 C408 1.372 . S
C408 H373 0.930 . S
C408 C407 1.372 . S
C408 C409 1.383 . S
C409 C408 1.383 . S
C409 C410 1.395 . S
C410 H374 0.930 . S
C410 C409 1.395 . S
C410 C411 1.362 . S
C411 H375 0.930 . S
C411 C406 1.390 . S
C411 C410 1.362 . S
C412 C401 1.492 . S
C412 C413 1.377 . S
C412 C417 1.397 . S
C413 H376 0.931 . S
C413 C412 1.377 . S
C413 C414 1.376 . S
C414 H377 0.930 . S
C414 C413 1.376 . S
C414 C415 1.376 . S
C415 C414 1.376 . S
C415 C416 1.378 . S
C415 C442 1.486 . S
C416 H378 0.930 . S
C416 C415 1.378 . S
C416 C417 1.376 . S
C417 H379 0.929 . S
C417 C412 1.397 . S
C417 C416 1.376 . S
C418 C402 1.509 . S
C418 C419 1.391 . S
C418 C423 1.386 . S
C419 H380 0.930 . S
C419 C418 1.391 . S
C419 C420 1.375 . S
C420 H381 0.931 . S
C420 C419 1.375 . S
C420 C421 1.375 . S
C421 C420 1.375 . S
C421 C422 1.361 . S
C422 H382 0.930 . S
C422 C421 1.361 . S
C422 C423 1.399 . S
C423 H383 0.929 . S
C423 C418 1.386 . S
C423 C422 1.399 . S
C424 C403 1.485 . S
C424 C425 1.394 . S
C424 C429 1.360 . S
C425 H384 0.931 . S
C425 C424 1.394 . S
C425 C426 1.372 . S
C426 H385 0.930 . S
C426 C425 1.372 . S
C426 C427 1.397 . S
C427 C426 1.397 . S
C427 C428 1.390 . S
C427 C443 1.476 . S
C428 H386 0.930 . S
C428 C427 1.390 . S
C428 C429 1.366 . S
C429 H387 0.932 . S
C429 C424 1.360 . S
C429 C428 1.366 . S
C430 C404 1.490 . S
C430 C431 1.380 . S
C430 C435 1.386 . S
C431 H388 0.930 . S
C431 C430 1.380 . S
C431 C432 1.381 . S
C432 H389 0.929 . S
C432 C431 1.381 . S
C432 C433 1.371 . S
C433 C432 1.371 . S
C433 C434 1.380 . S
C434 H390 0.931 . S
C434 C433 1.380 . S
C434 C435 1.387 . S
C435 H391 0.930 . S
C435 C430 1.386 . S
C435 C434 1.387 . S
C436 C405 1.519 . S
C436 C437 1.377 . S
C436 C441 1.361 . S
C437 H392 0.929 . S
C437 C436 1.377 . S
C437 C438 1.386 . S
C438 H393 0.931 . S
C438 C437 1.386 . S
C438 C439 1.363 . S
C439 C438 1.363 . S
C439 C440 1.385 . S
C440 H394 0.930 . S
C440 C439 1.385 . S
C440 C441 1.396 . S
C441 H395 0.929 . S
C441 C436 1.361 . S
C441 C440 1.396 . S
C442 O396 1.300 . S
C442 O397 1.209 . S
C442 C415 1.486 . S
C443 O398 1.199 . S
C443 O399 1.297 . S
C443 C427 1.476 . S
Mn444 O449 2.095 . S
Mn444 O459 2.162 . S
Mn444 O460 2.297 . S
Mn444 O468 2.385 . S
Mn444 O469 2.209 . S
Mn444 O470 2.094 . S
Mn445 O450 2.121 . S
Mn445 N452 2.257 . S
Mn445 N461 2.282 . S
Mn445 O469 2.215 . S
Mn445 O471 2.117 . S
C446 O468 1.234 . S
C446 O469 1.283 . S
C447 O459 1.281 . S
C447 O460 1.236 . S
C448 O470 1.240 . S
C448 O471 1.264 . S
O449 Mn444 2.095 . S
O449 C458 1.250 . S
O450 Mn445 2.121 . S
O450 C458 1.258 . S
C451 N452 1.326 . S
C451 C455 1.460 . S
C451 H457 0.929 . S
N452 Mn445 2.257 . S
N452 C451 1.326 . S
N452 C456 1.362 . S
C453 C454 1.258 . S
C453 C456 1.431 . S
C453 C473 1.449 . S
C454 C453 1.258 . S
C454 C455 1.477 . S
C454 H474 0.931 . S
C455 C451 1.460 . S
C455 C454 1.477 . S
C455 H475 0.930 . S
C456 N452 1.362 . S
C456 C453 1.431 . S
C456 C466 1.476 . S
H457 C451 0.929 . S
C458 O449 1.250 . S
C458 O450 1.258 . S
O459 Mn444 2.162 . S
O459 C447 1.281 . S
O460 Mn444 2.297 . S
O460 C447 1.236 . S
N461 Mn445 2.282 . S
N461 C462 1.328 . S
N461 C466 1.318 . S
C462 N461 1.328 . S
C462 C463 1.457 . S
C462 H467 0.929 . S
C463 C462 1.457 . S
C463 C464 1.291 . S
C463 H476 0.931 . S
C464 C463 1.291 . S
C464 C465 1.373 . S
C464 H477 0.929 . S
C465 C464 1.373 . S
C465 C466 1.396 . S
C465 C472 1.403 . S
C466 C456 1.476 . S
C466 N461 1.318 . S
C466 C465 1.396 . S
H467 C462 0.929 . S
O468 Mn444 2.385 . S
O468 C446 1.234 . S
O469 Mn444 2.209 . S
O469 Mn445 2.215 . S
O469 C446 1.283 . S
O470 Mn444 2.094 . S
O470 C448 1.240 . S
O471 Mn445 2.117 . S
O471 C448 1.264 . S
C472 C465 1.403 . S
C472 C473 1.399 . S
C472 H478 0.929 . S
C473 C453 1.449 . S
C473 C472 1.399 . S
C473 H479 0.930 . S
H474 C454 0.931 . S
H475 C455 0.930 . S
H476 C463 0.931 . S
H477 C464 0.929 . S
H478 C472 0.929 . S
H479 C473 0.930 . S
Mn480 O485 2.095 . S
Mn480 O495 2.162 . S
Mn480 O496 2.297 . S
Mn480 O504 2.385 . S
Mn480 O505 2.209 . S
Mn480 O506 2.094 . S
Mn481 O486 2.121 . S
Mn481 N488 2.257 . S
Mn481 N497 2.282 . S
Mn481 O505 2.215 . S
Mn481 O507 2.117 . S
C482 O504 1.234 . S
C482 O505 1.283 . S
C483 O495 1.281 . S
C483 O496 1.236 . S
C484 O506 1.240 . S
C484 O507 1.264 . S
O485 Mn480 2.095 . S
O485 C494 1.250 . S
O486 Mn481 2.121 . S
O486 C494 1.258 . S
C487 N488 1.326 . S
C487 C491 1.460 . S
C487 H493 0.929 . S
N488 Mn481 2.257 . S
N488 C487 1.326 . S
N488 C492 1.362 . S
C489 C490 1.258 . S
C489 C492 1.431 . S
C489 C509 1.449 . S
C490 C489 1.258 . S
C490 C491 1.477 . S
C490 H510 0.931 . S
C491 C487 1.460 . S
C491 C490 1.477 . S
C491 H511 0.930 . S
C492 N488 1.362 . S
C492 C489 1.431 . S
C492 C502 1.476 . S
H493 C487 0.929 . S
C494 O485 1.250 . S
C494 O486 1.258 . S
O495 Mn480 2.162 . S
O495 C483 1.281 . S
O496 Mn480 2.297 . S
O496 C483 1.236 . S
N497 Mn481 2.282 . S
N497 C498 1.328 . S
N497 C502 1.318 . S
C498 N497 1.328 . S
C498 C499 1.457 . S
C498 H503 0.929 . S
C499 C498 1.457 . S
C499 C500 1.291 . S
C499 H512 0.931 . S
C500 C499 1.291 . S
C500 C501 1.373 . S
C500 H513 0.929 . S
C501 C500 1.373 . S
C501 C502 1.396 . S
C501 C508 1.403 . S
C502 C492 1.476 . S
C502 N497 1.318 . S
C502 C501 1.396 . S
H503 C498 0.929 . S
O504 Mn480 2.385 . S
O504 C482 1.234 . S
O505 Mn480 2.209 . S
O505 Mn481 2.215 . S
O505 C482 1.283 . S
O506 Mn480 2.094 . S
O506 C484 1.240 . S
O507 Mn481 2.117 . S
O507 C484 1.264 . S
C508 C501 1.403 . S
C508 C509 1.399 . S
C508 H514 0.929 . S
C509 C489 1.449 . S
C509 C508 1.399 . S
C509 H515 0.930 . S
H510 C490 0.931 . S
H511 C491 0.930 . S
H512 C499 0.931 . S
H513 C500 0.929 . S
H514 C508 0.929 . S
H515 C509 0.930 . S
Mn516 O521 2.095 . S
Mn516 O531 2.162 . S
Mn516 O532 2.297 . S
Mn516 O540 2.385 . S
Mn516 O541 2.209 . S
Mn516 O542 2.094 . S
Mn517 O522 2.121 . S
Mn517 N524 2.257 . S
Mn517 N533 2.282 . S
Mn517 O541 2.215 . S
Mn517 O543 2.117 . S
C518 O540 1.234 . S
C518 O541 1.283 . S
C519 O531 1.281 . S
C519 O532 1.236 . S
C520 O542 1.240 . S
C520 O543 1.264 . S
O521 Mn516 2.095 . S
O521 C530 1.250 . S
O522 Mn517 2.121 . S
O522 C530 1.258 . S
C523 N524 1.326 . S
C523 C527 1.460 . S
C523 H529 0.929 . S
N524 Mn517 2.257 . S
N524 C523 1.326 . S
N524 C528 1.362 . S
C525 C526 1.258 . S
C525 C528 1.431 . S
C525 C545 1.449 . S
C526 C525 1.258 . S
C526 C527 1.477 . S
C526 H546 0.931 . S
C527 C523 1.460 . S
C527 C526 1.477 . S
C527 H547 0.930 . S
C528 N524 1.362 . S
C528 C525 1.431 . S
C528 C538 1.476 . S
H529 C523 0.929 . S
C530 O521 1.250 . S
C530 O522 1.258 . S
O531 Mn516 2.162 . S
O531 C519 1.281 . S
O532 Mn516 2.297 . S
O532 C519 1.236 . S
N533 Mn517 2.282 . S
N533 C534 1.328 . S
N533 C538 1.318 . S
C534 N533 1.328 . S
C534 C535 1.457 . S
C534 H539 0.929 . S
C535 C534 1.457 . S
C535 C536 1.291 . S
C535 H548 0.931 . S
C536 C535 1.291 . S
C536 C537 1.373 . S
C536 H549 0.929 . S
C537 C536 1.373 . S
C537 C538 1.396 . S
C537 C544 1.403 . S
C538 C528 1.476 . S
C538 N533 1.318 . S
C538 C537 1.396 . S
H539 C534 0.929 . S
O540 Mn516 2.385 . S
O540 C518 1.234 . S
O541 Mn516 2.209 . S
O541 Mn517 2.215 . S
O541 C518 1.283 . S
O542 Mn516 2.094 . S
O542 C520 1.240 . S
O543 Mn517 2.117 . S
O543 C520 1.264 . S
C544 C537 1.403 . S
C544 C545 1.399 . S
C544 H550 0.929 . S
C545 C525 1.449 . S
C545 C544 1.399 . S
C545 H551 0.930 . S
H546 C526 0.931 . S
H547 C527 0.930 . S
H548 C535 0.931 . S
H549 C536 0.929 . S
H550 C544 0.929 . S
H551 C545 0.930 . S
Mn552 O557 2.095 . S
Mn552 O567 2.162 . S
Mn552 O568 2.297 . S
Mn552 O576 2.385 . S
Mn552 O577 2.209 . S
Mn552 O578 2.094 . S
Mn553 O558 2.121 . S
Mn553 N560 2.257 . S
Mn553 N569 2.282 . S
Mn553 O577 2.215 . S
Mn553 O579 2.117 . S
C554 O576 1.234 . S
C554 O577 1.283 . S
C555 O567 1.281 . S
C555 O568 1.236 . S
C556 O578 1.240 . S
C556 O579 1.264 . S
O557 Mn552 2.095 . S
O557 C566 1.250 . S
O558 Mn553 2.121 . S
O558 C566 1.258 . S
C559 N560 1.326 . S
C559 C563 1.460 . S
C559 H565 0.929 . S
N560 Mn553 2.257 . S
N560 C559 1.326 . S
N560 C564 1.362 . S
C561 C562 1.258 . S
C561 C564 1.431 . S
C561 C581 1.449 . S
C562 C561 1.258 . S
C562 C563 1.477 . S
C562 H582 0.931 . S
C563 C559 1.460 . S
C563 C562 1.477 . S
C563 H583 0.930 . S
C564 N560 1.362 . S
C564 C561 1.431 . S
C564 C574 1.476 . S
H565 C559 0.929 . S
C566 O557 1.250 . S
C566 O558 1.258 . S
O567 Mn552 2.162 . S
O567 C555 1.281 . S
O568 Mn552 2.297 . S
O568 C555 1.236 . S
N569 Mn553 2.282 . S
N569 C570 1.328 . S
N569 C574 1.318 . S
C570 N569 1.328 . S
C570 C571 1.457 . S
C570 H575 0.929 . S
C571 C570 1.457 . S
C571 C572 1.291 . S
C571 H584 0.931 . S
C572 C571 1.291 . S
C572 C573 1.373 . S
C572 H585 0.929 . S
C573 C572 1.373 . S
C573 C574 1.396 . S
C573 C580 1.403 . S
C574 C564 1.476 . S
C574 N569 1.318 . S
C574 C573 1.396 . S
H575 C570 0.929 . S
O576 Mn552 2.385 . S
O576 C554 1.234 . S
O577 Mn552 2.209 . S
O577 Mn553 2.215 . S
O577 C554 1.283 . S
O578 Mn552 2.094 . S
O578 C556 1.240 . S
O579 Mn553 2.117 . S
O579 C556 1.264 . S
C580 C573 1.403 . S
C580 C581 1.399 . S
C580 H586 0.929 . S
C581 C561 1.449 . S
C581 C580 1.399 . S
C581 H587 0.930 . S
H582 C562 0.931 . S
H583 C563 0.930 . S
H584 C571 0.931 . S
H585 C572 0.929 . S
H586 C580 0.929 . S
H587 C581 0.930 . S
Mn588 O593 2.095 . S
Mn588 O603 2.162 . S
Mn588 O604 2.297 . S
Mn588 O612 2.385 . S
Mn588 O613 2.209 . S
Mn588 O614 2.094 . S
Mn589 O594 2.121 . S
Mn589 N596 2.257 . S
Mn589 N605 2.282 . S
Mn589 O613 2.215 . S
Mn589 O615 2.117 . S
C590 O612 1.234 . S
C590 O613 1.283 . S
C591 O603 1.281 . S
C591 O604 1.236 . S
C592 O614 1.240 . S
C592 O615 1.264 . S
O593 Mn588 2.095 . S
O593 C602 1.250 . S
O594 Mn589 2.121 . S
O594 C602 1.258 . S
C595 N596 1.326 . S
C595 C599 1.460 . S
C595 H601 0.929 . S
N596 Mn589 2.257 . S
N596 C595 1.326 . S
N596 C600 1.362 . S
C597 C598 1.258 . S
C597 C600 1.431 . S
C597 C617 1.449 . S
C598 C597 1.258 . S
C598 C599 1.477 . S
C598 H618 0.931 . S
C599 C595 1.460 . S
C599 C598 1.477 . S
C599 H619 0.930 . S
C600 N596 1.362 . S
C600 C597 1.431 . S
C600 C610 1.476 . S
H601 C595 0.929 . S
C602 O593 1.250 . S
C602 O594 1.258 . S
O603 Mn588 2.162 . S
O603 C591 1.281 . S
O604 Mn588 2.297 . S
O604 C591 1.236 . S
N605 Mn589 2.282 . S
N605 C606 1.328 . S
N605 C610 1.318 . S
C606 N605 1.328 . S
C606 C607 1.457 . S
C606 H611 0.929 . S
C607 C606 1.457 . S
C607 C608 1.291 . S
C607 H620 0.931 . S
C608 C607 1.291 . S
C608 C609 1.373 . S
C608 H621 0.929 . S
C609 C608 1.373 . S
C609 C610 1.396 . S
C609 C616 1.403 . S
C610 C600 1.476 . S
C610 N605 1.318 . S
C610 C609 1.396 . S
H611 C606 0.929 . S
O612 Mn588 2.385 . S
O612 C590 1.234 . S
O613 Mn588 2.209 . S
O613 Mn589 2.215 . S
O613 C590 1.283 . S
O614 Mn588 2.094 . S
O614 C592 1.240 . S
O615 Mn589 2.117 . S
O615 C592 1.264 . S
C616 C609 1.403 . S
C616 C617 1.399 . S
C616 H622 0.929 . S
C617 C597 1.449 . S
C617 C616 1.399 . S
C617 H623 0.930 . S
H618 C598 0.931 . S
H619 C599 0.930 . S
H620 C607 0.931 . S
H621 C608 0.929 . S
H622 C616 0.929 . S
H623 C617 0.930 . S
Mn624 O629 2.095 . S
Mn624 O639 2.162 . S
Mn624 O640 2.297 . S
Mn624 O648 2.385 . S
Mn624 O649 2.209 . S
Mn624 O650 2.094 . S
Mn625 O630 2.121 . S
Mn625 N632 2.257 . S
Mn625 N641 2.282 . S
Mn625 O649 2.215 . S
Mn625 O651 2.117 . S
C626 O648 1.234 . S
C626 O649 1.283 . S
C627 O639 1.281 . S
C627 O640 1.236 . S
C628 O650 1.240 . S
C628 O651 1.264 . S
O629 Mn624 2.095 . S
O629 C638 1.250 . S
O630 Mn625 2.121 . S
O630 C638 1.258 . S
C631 N632 1.326 . S
C631 C635 1.460 . S
C631 H637 0.929 . S
N632 Mn625 2.257 . S
N632 C631 1.326 . S
N632 C636 1.362 . S
C633 C634 1.258 . S
C633 C636 1.431 . S
C633 C653 1.449 . S
C634 C633 1.258 . S
C634 C635 1.477 . S
C634 H654 0.931 . S
C635 C631 1.460 . S
C635 C634 1.477 . S
C635 H655 0.930 . S
C636 N632 1.362 . S
C636 C633 1.431 . S
C636 C646 1.476 . S
H637 C631 0.929 . S
C638 O629 1.250 . S
C638 O630 1.258 . S
O639 Mn624 2.162 . S
O639 C627 1.281 . S
O640 Mn624 2.297 . S
O640 C627 1.236 . S
N641 Mn625 2.282 . S
N641 C642 1.328 . S
N641 C646 1.318 . S
C642 N641 1.328 . S
C642 C643 1.457 . S
C642 H647 0.929 . S
C643 C642 1.457 . S
C643 C644 1.291 . S
C643 H656 0.931 . S
C644 C643 1.291 . S
C644 C645 1.373 . S
C644 H657 0.929 . S
C645 C644 1.373 . S
C645 C646 1.396 . S
C645 C652 1.403 . S
C646 C636 1.476 . S
C646 N641 1.318 . S
C646 C645 1.396 . S
H647 C642 0.929 . S
O648 Mn624 2.385 . S
O648 C626 1.234 . S
O649 Mn624 2.209 . S
O649 Mn625 2.215 . S
O649 C626 1.283 . S
O650 Mn624 2.094 . S
O650 C628 1.240 . S
O651 Mn625 2.117 . S
O651 C628 1.264 . S
C652 C645 1.403 . S
C652 C653 1.399 . S
C652 H658 0.929 . S
C653 C633 1.449 . S
C653 C652 1.399 . S
C653 H659 0.930 . S
H654 C634 0.931 . S
H655 C635 0.930 . S
H656 C643 0.931 . S
H657 C644 0.929 . S
H658 C652 0.929 . S
H659 C653 0.930 . S
H660 C668 0.929 . S
H661 C670 0.930 . S
H662 C672 0.930 . S
H663 C675 0.929 . S
H664 C678 0.930 . S
H665 C680 0.960 . S
H666 C680 0.960 . S
H667 C680 0.960 . S
C668 H660 0.929 . S
C668 C669 1.377 . S
C668 C670 1.384 . S
C669 C668 1.377 . S
C669 C675 1.390 . S
C670 H661 0.930 . S
C670 C668 1.384 . S
C670 C671 1.372 . S
C671 C670 1.372 . S
C671 C672 1.400 . S
C671 C676 1.490 . S
C672 H662 0.930 . S
C672 C671 1.400 . S
C672 C675 1.386 . S
H673 C689 0.930 . S
H674 C690 0.931 . S
C675 H663 0.929 . S
C675 C669 1.390 . S
C675 C672 1.386 . S
C676 C671 1.490 . S
C676 C678 1.395 . S
C676 C679 1.403 . S
H677 C683 0.930 . S
C678 H664 0.930 . S
C678 C676 1.395 . S
C678 C681 1.403 . S
C679 C676 1.403 . S
C679 C680 1.524 . S
C679 C683 1.400 . S
C680 H665 0.960 . S
C680 H666 0.960 . S
C680 H667 0.960 . S
C680 C679 1.524 . S
C681 C678 1.403 . S
C681 C682 1.392 . S
C681 C685 1.495 . S
C682 C681 1.392 . S
C682 C683 1.385 . S
C682 C684 1.478 . S
C683 H677 0.930 . S
C683 C679 1.400 . S
C683 C682 1.385 . S
C684 C682 1.478 . S
C684 C686 1.381 . S
C684 C690 1.383 . S
C685 C681 1.495 . S
C685 H691 0.959 . S
C685 H692 0.961 . S
C685 H693 0.960 . S
C686 C684 1.381 . S
C686 C687 1.394 . S
C686 H694 0.930 . S
C687 C686 1.394 . S
C687 C688 1.383 . S
C687 H695 0.929 . S
C688 C687 1.383 . S
C688 C689 1.377 . S
C689 H673 0.930 . S
C689 C688 1.377 . S
C689 C690 1.379 . S
C690 H674 0.931 . S
C690 C684 1.383 . S
C690 C689 1.379 . S
H691 C685 0.959 . S
H692 C685 0.961 . S
H693 C685 0.960 . S
H694 C686 0.930 . S
H695 C687 0.929 . S
H696 C704 0.929 . S
H697 C706 0.930 . S
H698 C708 0.930 . S
H699 C711 0.929 . S
H700 C714 0.930 . S
H701 C716 0.960 . S
H702 C716 0.960 . S
H703 C716 0.960 . S
C704 H696 0.929 . S
C704 C705 1.377 . S
C704 C706 1.384 . S
C705 C704 1.377 . S
C705 C711 1.390 . S
C706 H697 0.930 . S
C706 C704 1.384 . S
C706 C707 1.372 . S
C707 C706 1.372 . S
C707 C708 1.400 . S
C707 C712 1.490 . S
C708 H698 0.930 . S
C708 C707 1.400 . S
C708 C711 1.386 . S
H709 C725 0.930 . S
H710 C726 0.931 . S
C711 H699 0.929 . S
C711 C705 1.390 . S
C711 C708 1.386 . S
C712 C707 1.490 . S
C712 C714 1.395 . S
C712 C715 1.403 . S
H713 C719 0.930 . S
C714 H700 0.930 . S
C714 C712 1.395 . S
C714 C717 1.403 . S
C715 C712 1.403 . S
C715 C716 1.524 . S
C715 C719 1.400 . S
C716 H701 0.960 . S
C716 H702 0.960 . S
C716 H703 0.960 . S
C716 C715 1.524 . S
C717 C714 1.403 . S
C717 C718 1.392 . S
C717 C721 1.495 . S
C718 C717 1.392 . S
C718 C719 1.385 . S
C718 C720 1.478 . S
C719 H713 0.930 . S
C719 C715 1.400 . S
C719 C718 1.385 . S
C720 C718 1.478 . S
C720 C722 1.381 . S
C720 C726 1.383 . S
C721 C717 1.495 . S
C721 H727 0.959 . S
C721 H728 0.961 . S
C721 H729 0.960 . S
C722 C720 1.381 . S
C722 C723 1.394 . S
C722 H730 0.930 . S
C723 C722 1.394 . S
C723 C724 1.383 . S
C723 H731 0.929 . S
C724 C723 1.383 . S
C724 C725 1.377 . S
C725 H709 0.930 . S
C725 C724 1.377 . S
C725 C726 1.379 . S
C726 H710 0.931 . S
C726 C720 1.383 . S
C726 C725 1.379 . S
H727 C721 0.959 . S
H728 C721 0.961 . S
H729 C721 0.960 . S
H730 C722 0.930 . S
H731 C723 0.929 . S
H732 C740 0.929 . S
H733 C742 0.930 . S
H734 C744 0.930 . S
H735 C747 0.929 . S
H736 C750 0.930 . S
H737 C752 0.960 . S
H738 C752 0.960 . S
H739 C752 0.960 . S
C740 H732 0.929 . S
C740 C741 1.377 . S
C740 C742 1.384 . S
C741 C740 1.377 . S
C741 C747 1.390 . S
C742 H733 0.930 . S
C742 C740 1.384 . S
C742 C743 1.372 . S
C743 C742 1.372 . S
C743 C744 1.400 . S
C743 C748 1.490 . S
C744 H734 0.930 . S
C744 C743 1.400 . S
C744 C747 1.386 . S
H745 C761 0.930 . S
H746 C762 0.931 . S
C747 H735 0.929 . S
C747 C741 1.390 . S
C747 C744 1.386 . S
C748 C743 1.490 . S
C748 C750 1.395 . S
C748 C751 1.403 . S
H749 C755 0.930 . S
C750 H736 0.930 . S
C750 C748 1.395 . S
C750 C753 1.403 . S
C751 C748 1.403 . S
C751 C752 1.524 . S
C751 C755 1.400 . S
C752 H737 0.960 . S
C752 H738 0.960 . S
C752 H739 0.960 . S
C752 C751 1.524 . S
C753 C750 1.403 . S
C753 C754 1.392 . S
C753 C757 1.495 . S
C754 C753 1.392 . S
C754 C755 1.385 . S
C754 C756 1.478 . S
C755 H749 0.930 . S
C755 C751 1.400 . S
C755 C754 1.385 . S
C756 C754 1.478 . S
C756 C758 1.381 . S
C756 C762 1.383 . S
C757 C753 1.495 . S
C757 H763 0.959 . S
C757 H764 0.961 . S
C757 H765 0.960 . S
C758 C756 1.381 . S
C758 C759 1.394 . S
C758 H766 0.930 . S
C759 C758 1.394 . S
C759 C760 1.383 . S
C759 H767 0.929 . S
C760 C759 1.383 . S
C760 C761 1.377 . S
C761 H745 0.930 . S
C761 C760 1.377 . S
C761 C762 1.379 . S
C762 H746 0.931 . S
C762 C756 1.383 . S
C762 C761 1.379 . S
H763 C757 0.959 . S
H764 C757 0.961 . S
H765 C757 0.960 . S
H766 C758 0.930 . S
H767 C759 0.929 . S
H768 C776 0.929 . S
H769 C778 0.930 . S
H770 C780 0.930 . S
H771 C783 0.929 . S
H772 C786 0.930 . S
H773 C788 0.960 . S
H774 C788 0.960 . S
H775 C788 0.960 . S
C776 H768 0.929 . S
C776 C777 1.377 . S
C776 C778 1.384 . S
C777 C776 1.377 . S
C777 C783 1.390 . S
C778 H769 0.930 . S
C778 C776 1.384 . S
C778 C779 1.372 . S
C779 C778 1.372 . S
C779 C780 1.400 . S
C779 C784 1.490 . S
C780 H770 0.930 . S
C780 C779 1.400 . S
C780 C783 1.386 . S
H781 C797 0.930 . S
H782 C798 0.931 . S
C783 H771 0.929 . S
C783 C777 1.390 . S
C783 C780 1.386 . S
C784 C779 1.490 . S
C784 C786 1.395 . S
C784 C787 1.403 . S
H785 C791 0.930 . S
C786 H772 0.930 . S
C786 C784 1.395 . S
C786 C789 1.403 . S
C787 C784 1.403 . S
C787 C788 1.524 . S
C787 C791 1.400 . S
C788 H773 0.960 . S
C788 H774 0.960 . S
C788 H775 0.960 . S
C788 C787 1.524 . S
C789 C786 1.403 . S
C789 C790 1.392 . S
C789 C793 1.495 . S
C790 C789 1.392 . S
C790 C791 1.385 . S
C790 C792 1.478 . S
C791 H785 0.930 . S
C791 C787 1.400 . S
C791 C790 1.385 . S
C792 C790 1.478 . S
C792 C794 1.381 . S
C792 C798 1.383 . S
C793 C789 1.495 . S
C793 H799 0.959 . S
C793 H800 0.961 . S
C793 H801 0.960 . S
C794 C792 1.381 . S
C794 C795 1.394 . S
C794 H802 0.930 . S
C795 C794 1.394 . S
C795 C796 1.383 . S
C795 H803 0.929 . S
C796 C795 1.383 . S
C796 C797 1.377 . S
C797 H781 0.930 . S
C797 C796 1.377 . S
C797 C798 1.379 . S
C798 H782 0.931 . S
C798 C792 1.383 . S
C798 C797 1.379 . S
H799 C793 0.959 . S
H800 C793 0.961 . S
H801 C793 0.960 . S
H802 C794 0.930 . S
H803 C795 0.929 . S
H804 C812 0.929 . S
H805 C814 0.930 . S
H806 C816 0.930 . S
H807 C819 0.929 . S
H808 C822 0.930 . S
H809 C824 0.960 . S
H810 C824 0.960 . S
H811 C824 0.960 . S
C812 H804 0.929 . S
C812 C813 1.377 . S
C812 C814 1.384 . S
C813 C812 1.377 . S
C813 C819 1.390 . S
C814 H805 0.930 . S
C814 C812 1.384 . S
C814 C815 1.372 . S
C815 C814 1.372 . S
C815 C816 1.400 . S
C815 C820 1.490 . S
C816 H806 0.930 . S
C816 C815 1.400 . S
C816 C819 1.386 . S
H817 C833 0.930 . S
H818 C834 0.931 . S
C819 H807 0.929 . S
C819 C813 1.390 . S
C819 C816 1.386 . S
C820 C815 1.490 . S
C820 C822 1.395 . S
C820 C823 1.403 . S
H821 C827 0.930 . S
C822 H808 0.930 . S
C822 C820 1.395 . S
C822 C825 1.403 . S
C823 C820 1.403 . S
C823 C824 1.524 . S
C823 C827 1.400 . S
C824 H809 0.960 . S
C824 H810 0.960 . S
C824 H811 0.960 . S
C824 C823 1.524 . S
C825 C822 1.403 . S
C825 C826 1.392 . S
C825 C829 1.495 . S
C826 C825 1.392 . S
C826 C827 1.385 . S
C826 C828 1.478 . S
C827 H821 0.930 . S
C827 C823 1.400 . S
C827 C826 1.385 . S
C828 C826 1.478 . S
C828 C830 1.381 . S
C828 C834 1.383 . S
C829 C825 1.495 . S
C829 H835 0.959 . S
C829 H836 0.961 . S
C829 H837 0.960 . S
C830 C828 1.381 . S
C830 C831 1.394 . S
C830 H838 0.930 . S
C831 C830 1.394 . S
C831 C832 1.383 . S
C831 H839 0.929 . S
C832 C831 1.383 . S
C832 C833 1.377 . S
C833 H817 0.930 . S
C833 C832 1.377 . S
C833 C834 1.379 . S
C834 H818 0.931 . S
C834 C828 1.383 . S
C834 C833 1.379 . S
H835 C829 0.959 . S
H836 C829 0.961 . S
H837 C829 0.960 . S
H838 C830 0.930 . S
H839 C831 0.929 . S
H840 C848 0.929 . S
H841 C850 0.930 . S
H842 C852 0.930 . S
H843 C855 0.929 . S
H844 C858 0.930 . S
H845 C860 0.960 . S
H846 C860 0.960 . S
H847 C860 0.960 . S
C848 H840 0.929 . S
C848 C849 1.377 . S
C848 C850 1.384 . S
C849 C848 1.377 . S
C849 C855 1.390 . S
C850 H841 0.930 . S
C850 C848 1.384 . S
C850 C851 1.372 . S
C851 C850 1.372 . S
C851 C852 1.400 . S
C851 C856 1.490 . S
C852 H842 0.930 . S
C852 C851 1.400 . S
C852 C855 1.386 . S
H853 C869 0.930 . S
H854 C870 0.931 . S
C855 H843 0.929 . S
C855 C849 1.390 . S
C855 C852 1.386 . S
C856 C851 1.490 . S
C856 C858 1.395 . S
C856 C859 1.403 . S
H857 C863 0.930 . S
C858 H844 0.930 . S
C858 C856 1.395 . S
C858 C861 1.403 . S
C859 C856 1.403 . S
C859 C860 1.524 . S
C859 C863 1.400 . S
C860 H845 0.960 . S
C860 H846 0.960 . S
C860 H847 0.960 . S
C860 C859 1.524 . S
C861 C858 1.403 . S
C861 C862 1.392 . S
C861 C865 1.495 . S
C862 C861 1.392 . S
C862 C863 1.385 . S
C862 C864 1.478 . S
C863 H857 0.930 . S
C863 C859 1.400 . S
C863 C862 1.385 . S
C864 C862 1.478 . S
C864 C866 1.381 . S
C864 C870 1.383 . S
C865 C861 1.495 . S
C865 H871 0.959 . S
C865 H872 0.961 . S
C865 H873 0.960 . S
C866 C864 1.381 . S
C866 C867 1.394 . S
C866 H874 0.930 . S
C867 C866 1.394 . S
C867 C868 1.383 . S
C867 H875 0.929 . S
C868 C867 1.383 . S
C868 C869 1.377 . S
C869 H853 0.930 . S
C869 C868 1.377 . S
C869 C870 1.379 . S
C870 H854 0.931 . S
C870 C864 1.383 . S
C870 C869 1.379 . S
H871 C865 0.959 . S
H872 C865 0.961 . S
H873 C865 0.960 . S
H874 C866 0.930 . S
H875 C867 0.929 . S
H876 C884 0.929 . S
H877 C886 0.930 . S
H878 C888 0.930 . S
H879 C891 0.929 . S
H880 C894 0.930 . S
H881 C896 0.960 . S
H882 C896 0.960 . S
H883 C896 0.960 . S
C884 H876 0.929 . S
C884 C885 1.377 . S
C884 C886 1.384 . S
C885 C884 1.377 . S
C885 C891 1.390 . S
C886 H877 0.930 . S
C886 C884 1.384 . S
C886 C887 1.372 . S
C887 C886 1.372 . S
C887 C888 1.400 . S
C887 C892 1.490 . S
C888 H878 0.930 . S
C888 C887 1.400 . S
C888 C891 1.386 . S
H889 C905 0.930 . S
H890 C906 0.931 . S
C891 H879 0.929 . S
C891 C885 1.390 . S
C891 C888 1.386 . S
C892 C887 1.490 . S
C892 C894 1.395 . S
C892 C895 1.403 . S
H893 C899 0.930 . S
C894 H880 0.930 . S
C894 C892 1.395 . S
C894 C897 1.403 . S
C895 C892 1.403 . S
C895 C896 1.524 . S
C895 C899 1.400 . S
C896 H881 0.960 . S
C896 H882 0.960 . S
C896 H883 0.960 . S
C896 C895 1.524 . S
C897 C894 1.403 . S
C897 C898 1.392 . S
C897 C901 1.495 . S
C898 C897 1.392 . S
C898 C899 1.385 . S
C898 C900 1.478 . S
C899 H893 0.930 . S
C899 C895 1.400 . S
C899 C898 1.385 . S
C900 C898 1.478 . S
C900 C902 1.381 . S
C900 C906 1.383 . S
C901 C897 1.495 . S
C901 H907 0.959 . S
C901 H908 0.961 . S
C901 H909 0.960 . S
C902 C900 1.381 . S
C902 C903 1.394 . S
C902 H910 0.930 . S
C903 C902 1.394 . S
C903 C904 1.383 . S
C903 H911 0.929 . S
C904 C903 1.383 . S
C904 C905 1.377 . S
C905 H889 0.930 . S
C905 C904 1.377 . S
C905 C906 1.379 . S
C906 H890 0.931 . S
C906 C900 1.383 . S
C906 C905 1.379 . S
H907 C901 0.959 . S
H908 C901 0.961 . S
H909 C901 0.960 . S
H910 C902 0.930 . S
H911 C903 0.929 . S
H912 C920 0.929 . S
H913 C922 0.930 . S
H914 C924 0.930 . S
H915 C927 0.929 . S
H916 C930 0.930 . S
H917 C932 0.960 . S
H918 C932 0.960 . S
H919 C932 0.960 . S
C920 H912 0.929 . S
C920 C921 1.377 . S
C920 C922 1.384 . S
C921 C920 1.377 . S
C921 C927 1.390 . S
C922 H913 0.930 . S
C922 C920 1.384 . S
C922 C923 1.372 . S
C923 C922 1.372 . S
C923 C924 1.400 . S
C923 C928 1.490 . S
C924 H914 0.930 . S
C924 C923 1.400 . S
C924 C927 1.386 . S
H925 C941 0.930 . S
H926 C942 0.931 . S
C927 H915 0.929 . S
C927 C921 1.390 . S
C927 C924 1.386 . S
C928 C923 1.490 . S
C928 C930 1.395 . S
C928 C931 1.403 . S
H929 C935 0.930 . S
C930 H916 0.930 . S
C930 C928 1.395 . S
C930 C933 1.403 . S
C931 C928 1.403 . S
C931 C932 1.524 . S
C931 C935 1.400 . S
C932 H917 0.960 . S
C932 H918 0.960 . S
C932 H919 0.960 . S
C932 C931 1.524 . S
C933 C930 1.403 . S
C933 C934 1.392 . S
C933 C937 1.495 . S
C934 C933 1.392 . S
C934 C935 1.385 . S
C934 C936 1.478 . S
C935 H929 0.930 . S
C935 C931 1.400 . S
C935 C934 1.385 . S
C936 C934 1.478 . S
C936 C938 1.381 . S
C936 C942 1.383 . S
C937 C933 1.495 . S
C937 H943 0.959 . S
C937 H944 0.961 . S
C937 H945 0.960 . S
C938 C936 1.381 . S
C938 C939 1.394 . S
C938 H946 0.930 . S
C939 C938 1.394 . S
C939 C940 1.383 . S
C939 H947 0.929 . S
C940 C939 1.383 . S
C940 C941 1.377 . S
C941 H925 0.930 . S
C941 C940 1.377 . S
C941 C942 1.379 . S
C942 H926 0.931 . S
C942 C936 1.383 . S
C942 C941 1.379 . S
H943 C937 0.959 . S
H944 C937 0.961 . S
H945 C937 0.960 . S
H946 C938 0.930 . S
H947 C939 0.929 . S
H948 C956 0.929 . S
H949 C958 0.930 . S
H950 C960 0.930 . S
H951 C963 0.929 . S
H952 C966 0.930 . S
H953 C968 0.960 . S
H954 C968 0.960 . S
H955 C968 0.960 . S
C956 H948 0.929 . S
C956 C957 1.377 . S
C956 C958 1.384 . S
C957 C956 1.377 . S
C957 C963 1.390 . S
C958 H949 0.930 . S
C958 C956 1.384 . S
C958 C959 1.372 . S
C959 C958 1.372 . S
C959 C960 1.400 . S
C959 C964 1.490 . S
C960 H950 0.930 . S
C960 C959 1.400 . S
C960 C963 1.386 . S
H961 C977 0.930 . S
H962 C978 0.931 . S
C963 H951 0.929 . S
C963 C957 1.390 . S
C963 C960 1.386 . S
C964 C959 1.490 . S
C964 C966 1.395 . S
C964 C967 1.403 . S
H965 C971 0.930 . S
C966 H952 0.930 . S
C966 C964 1.395 . S
C966 C969 1.403 . S
C967 C964 1.403 . S
C967 C968 1.524 . S
C967 C971 1.400 . S
C968 H953 0.960 . S
C968 H954 0.960 . S
C968 H955 0.960 . S
C968 C967 1.524 . S
C969 C966 1.403 . S
C969 C970 1.392 . S
C969 C973 1.495 . S
C970 C969 1.392 . S
C970 C971 1.385 . S
C970 C972 1.478 . S
C971 H965 0.930 . S
C971 C967 1.400 . S
C971 C970 1.385 . S
C972 C970 1.478 . S
C972 C974 1.381 . S
C972 C978 1.383 . S
C973 C969 1.495 . S
C973 H979 0.959 . S
C973 H980 0.961 . S
C973 H981 0.960 . S
C974 C972 1.381 . S
C974 C975 1.394 . S
C974 H982 0.930 . S
C975 C974 1.394 . S
C975 C976 1.383 . S
C975 H983 0.929 . S
C976 C975 1.383 . S
C976 C977 1.377 . S
C977 H961 0.930 . S
C977 C976 1.377 . S
C977 C978 1.379 . S
C978 H962 0.931 . S
C978 C972 1.383 . S
C978 C977 1.379 . S
H979 C973 0.959 . S
H980 C973 0.961 . S
H981 C973 0.960 . S
H982 C974 0.930 . S
H983 C975 0.929 . S
H984 C992 0.929 . S
H985 C994 0.930 . S
H986 C996 0.930 . S
H987 C999 0.896 1_556 S
H988 C1002 0.930 . S
H989 C1004 0.960 . S
H990 C1004 0.960 . S
H991 C1004 0.960 . S
C992 H984 0.929 . S
C992 C993 1.377 . S
C992 C994 1.384 . S
C993 C992 1.377 . S
C993 C999 1.390 . S
C994 H985 0.930 . S
C994 C992 1.384 . S
C994 C995 1.372 . S
C995 C994 1.372 . S
C995 C996 1.400 . S
C995 C1000 1.490 . S
C996 H986 0.930 . S
C996 C995 1.400 . S
C996 C999 1.386 . S
H997 C1013 0.930 . S
H998 C1014 0.931 . S
C999 H987 0.896 1_554 S
C999 C993 1.390 . S
C999 C996 1.386 . S
C1000 C995 1.490 . S
C1000 C1002 1.395 . S
C1000 C1003 1.403 . S
H1001 C1007 0.930 . S
C1002 H988 0.930 . S
C1002 C1000 1.395 . S
C1002 C1005 1.403 . S
C1003 C1000 1.403 . S
C1003 C1004 1.524 . S
C1003 C1007 1.400 . S
C1004 H989 0.960 . S
C1004 H990 0.960 . S
C1004 H991 0.960 . S
C1004 C1003 1.524 . S
C1005 C1002 1.403 . S
C1005 C1006 1.392 . S
C1005 C1009 1.495 . S
C1006 C1005 1.392 . S
C1006 C1007 1.385 . S
C1006 C1008 1.478 . S
C1007 H1001 0.930 . S
C1007 C1003 1.400 . S
C1007 C1006 1.385 . S
C1008 C1006 1.478 . S
C1008 C1010 1.381 . S
C1008 C1014 1.383 . S
C1009 C1005 1.495 . S
C1009 H1015 0.959 . S
C1009 H1016 0.961 . S
C1009 H1017 0.960 . S
C1010 C1008 1.381 . S
C1010 C1011 1.394 . S
C1010 H1018 0.930 . S
C1011 C1010 1.394 . S
C1011 C1012 1.383 . S
C1011 H1019 0.929 . S
C1012 C1011 1.383 . S
C1012 C1013 1.377 . S
C1013 H997 0.930 . S
C1013 C1012 1.377 . S
C1013 C1014 1.379 . S
C1014 H998 0.931 . S
C1014 C1008 1.383 . S
C1014 C1013 1.379 . S
H1015 C1009 0.959 . S
H1016 C1009 0.961 . S
H1017 C1009 0.960 . S
H1018 C1010 0.930 . S
H1019 C1011 0.929 . S
H1020 C1028 0.929 . S
H1021 C1030 0.930 . S
H1022 C1032 0.930 . S
H1023 C1035 0.929 . S
H1024 C1038 0.930 . S
H1025 C1040 0.960 . S
H1026 C1040 0.960 . S
H1027 C1040 0.960 . S
C1028 H1020 0.929 . S
C1028 C1029 1.377 . S
C1028 C1030 1.384 . S
C1029 C1028 1.377 . S
C1029 C1035 1.390 . S
C1030 H1021 0.930 . S
C1030 C1028 1.384 . S
C1030 C1031 1.372 . S
C1031 C1030 1.372 . S
C1031 C1032 1.400 . S
C1031 C1036 1.490 . S
C1032 H1022 0.930 . S
C1032 C1031 1.400 . S
C1032 C1035 1.386 . S
H1033 C1049 0.930 . S
H1034 C1050 0.931 . S
C1035 H1023 0.929 . S
C1035 C1029 1.390 . S
C1035 C1032 1.386 . S
C1036 C1031 1.490 . S
C1036 C1038 1.395 . S
C1036 C1039 1.403 . S
H1037 C1043 0.930 . S
C1038 H1024 0.930 . S
C1038 C1036 1.395 . S
C1038 C1041 1.403 . S
C1039 C1036 1.403 . S
C1039 C1040 1.524 . S
C1039 C1043 1.400 . S
C1040 H1025 0.960 . S
C1040 H1026 0.960 . S
C1040 H1027 0.960 . S
C1040 C1039 1.524 . S
C1041 C1038 1.403 . S
C1041 C1042 1.392 . S
C1041 C1045 1.495 . S
C1042 C1041 1.392 . S
C1042 C1043 1.385 . S
C1042 C1044 1.478 . S
C1043 H1037 0.930 . S
C1043 C1039 1.400 . S
C1043 C1042 1.385 . S
C1044 C1042 1.478 . S
C1044 C1046 1.381 . S
C1044 C1050 1.383 . S
C1045 C1041 1.495 . S
C1045 H1051 0.959 . S
C1045 H1052 0.961 . S
C1045 H1053 0.960 . S
C1046 C1044 1.381 . S
C1046 C1047 1.394 . S
C1046 H1054 0.930 . S
C1047 C1046 1.394 . S
C1047 C1048 1.383 . S
C1047 H1055 0.929 . S
C1048 C1047 1.383 . S
C1048 C1049 1.377 . S
C1049 H1033 0.930 . S
C1049 C1048 1.377 . S
C1049 C1050 1.379 . S
C1050 H1034 0.931 . S
C1050 C1044 1.383 . S
C1050 C1049 1.379 . S
H1051 C1045 0.959 . S
H1052 C1045 0.961 . S
H1053 C1045 0.960 . S
H1054 C1046 0.930 . S
H1055 C1047 0.929 . S
H1056 C1064 0.929 . S
H1057 C1066 0.930 . S
H1058 C1068 0.930 . S
H1059 C1071 0.929 . S
H1060 C1074 0.930 . S
H1061 C1076 0.960 . S
H1062 C1076 0.960 . S
H1063 C1076 0.960 . S
C1064 H1056 0.929 . S
C1064 C1065 1.377 . S
C1064 C1066 1.384 . S
C1065 C1064 1.377 . S
C1065 C1071 1.390 . S
C1066 H1057 0.930 . S
C1066 C1064 1.384 . S
C1066 C1067 1.372 . S
C1067 C1066 1.372 . S
C1067 C1068 1.400 . S
C1067 C1072 1.490 . S
C1068 H1058 0.930 . S
C1068 C1067 1.400 . S
C1068 C1071 1.386 . S
H1069 C1085 0.930 . S
H1070 C1086 0.931 . S
C1071 H1059 0.929 . S
C1071 C1065 1.390 . S
C1071 C1068 1.386 . S
C1072 C1067 1.490 . S
C1072 C1074 1.395 . S
C1072 C1075 1.403 . S
H1073 C1079 0.930 . S
C1074 H1060 0.930 . S
C1074 C1072 1.395 . S
C1074 C1077 1.403 . S
C1075 C1072 1.403 . S
C1075 C1076 1.524 . S
C1075 C1079 1.400 . S
C1076 H1061 0.960 . S
C1076 H1062 0.960 . S
C1076 H1063 0.960 . S
C1076 C1075 1.524 . S
C1077 C1074 1.403 . S
C1077 C1078 1.392 . S
C1077 C1081 1.495 . S
C1078 C1077 1.392 . S
C1078 C1079 1.385 . S
C1078 C1080 1.478 . S
C1079 H1073 0.930 . S
C1079 C1075 1.400 . S
C1079 C1078 1.385 . S
C1080 C1078 1.478 . S
C1080 C1082 1.381 . S
C1080 C1086 1.383 . S
C1081 C1077 1.495 . S
C1081 H1087 0.959 . S
C1081 H1088 0.961 . S
C1081 H1089 0.960 . S
C1082 C1080 1.381 . S
C1082 C1083 1.394 . S
C1082 H1090 0.930 . S
C1083 C1082 1.394 . S
C1083 C1084 1.383 . S
C1083 H1091 0.929 . S
C1084 C1083 1.383 . S
C1084 C1085 1.377 . S
C1085 H1069 0.930 . S
C1085 C1084 1.377 . S
C1085 C1086 1.379 . S
C1086 H1070 0.931 . S
C1086 C1080 1.383 . S
C1086 C1085 1.379 . S
H1087 C1081 0.959 . S
H1088 C1081 0.961 . S
H1089 C1081 0.960 . S
H1090 C1082 0.930 . S
H1091 C1083 0.929 . S
H1092 C1100 0.929 . S
H1093 C1102 0.930 . S
H1094 C1104 0.930 . S
H1095 C1107 0.929 . S
H1096 C1110 0.930 . S
H1097 C1112 0.960 . S
H1098 C1112 0.960 . S
H1099 C1112 0.960 . S
C1100 H1092 0.929 . S
C1100 C1101 1.377 . S
C1100 C1102 1.384 . S
C1101 C1100 1.377 . S
C1101 C1107 1.390 . S
C1102 H1093 0.930 . S
C1102 C1100 1.384 . S
C1102 C1103 1.372 . S
C1103 C1102 1.372 . S
C1103 C1104 1.400 . S
C1103 C1108 1.490 . S
C1104 H1094 0.930 . S
C1104 C1103 1.400 . S
C1104 C1107 1.386 . S
H1105 C1121 0.930 . S
H1106 C1122 0.931 . S
C1107 H1095 0.929 . S
C1107 C1101 1.390 . S
C1107 C1104 1.386 . S
C1108 C1103 1.490 . S
C1108 C1110 1.395 . S
C1108 C1111 1.403 . S
H1109 C1115 0.930 . S
C1110 H1096 0.930 . S
C1110 C1108 1.395 . S
C1110 C1113 1.403 . S
C1111 C1108 1.403 . S
C1111 C1112 1.524 . S
C1111 C1115 1.400 . S
C1112 H1097 0.960 . S
C1112 H1098 0.960 . S
C1112 H1099 0.960 . S
C1112 C1111 1.524 . S
C1113 C1110 1.403 . S
C1113 C1114 1.392 . S
C1113 C1117 1.495 . S
C1114 C1113 1.392 . S
C1114 C1115 1.385 . S
C1114 C1116 1.478 . S
C1115 H1109 0.930 . S
C1115 C1111 1.400 . S
C1115 C1114 1.385 . S
C1116 C1114 1.478 . S
C1116 C1118 1.381 . S
C1116 C1122 1.383 . S
C1117 C1113 1.495 . S
C1117 H1123 0.959 . S
C1117 H1124 0.961 . S
C1117 H1125 0.960 . S
C1118 C1116 1.381 . S
C1118 C1119 1.394 . S
C1118 H1126 0.930 . S
C1119 C1118 1.394 . S
C1119 C1120 1.383 . S
C1119 H1127 0.929 . S
C1120 C1119 1.383 . S
C1120 C1121 1.377 . S
C1121 H1105 0.930 . S
C1121 C1120 1.377 . S
C1121 C1122 1.379 . S
C1122 H1106 0.931 . S
C1122 C1116 1.383 . S
C1122 C1121 1.379 . S
H1123 C1117 0.959 . S
H1124 C1117 0.961 . S
H1125 C1117 0.960 . S
H1126 C1118 0.930 . S
H1127 C1119 0.929 . S
H1128 C1136 0.929 . S
H1129 C1138 0.930 . S
H1130 C1140 0.930 . S
H1131 C1143 0.929 . S
H1132 C1146 0.930 . S
H1133 C1148 0.960 . S
H1134 C1148 0.960 . S
H1135 C1148 0.960 . S
C1136 H1128 0.929 . S
C1136 C1137 1.377 . S
C1136 C1138 1.384 . S
C1137 C1136 1.377 . S
C1137 C1143 1.390 . S
C1138 H1129 0.930 . S
C1138 C1136 1.384 . S
C1138 C1139 1.372 . S
C1139 C1138 1.372 . S
C1139 C1140 1.400 . S
C1139 C1144 1.490 . S
C1140 H1130 0.930 . S
C1140 C1139 1.400 . S
C1140 C1143 1.386 . S
H1141 C1157 0.930 . S
H1142 C1158 0.931 . S
C1143 H1131 0.929 . S
C1143 C1137 1.390 . S
C1143 C1140 1.386 . S
C1144 C1139 1.490 . S
C1144 C1146 1.395 . S
C1144 C1147 1.403 . S
H1145 C1151 0.930 . S
C1146 H1132 0.930 . S
C1146 C1144 1.395 . S
C1146 C1149 1.403 . S
C1147 C1144 1.403 . S
C1147 C1148 1.524 . S
C1147 C1151 1.400 . S
C1148 H1133 0.960 . S
C1148 H1134 0.960 . S
C1148 H1135 0.960 . S
C1148 C1147 1.524 . S
C1149 C1146 1.403 . S
C1149 C1150 1.392 . S
C1149 C1153 1.495 . S
C1150 C1149 1.392 . S
C1150 C1151 1.385 . S
C1150 C1152 1.478 . S
C1151 H1145 0.930 . S
C1151 C1147 1.400 . S
C1151 C1150 1.385 . S
C1152 C1150 1.478 . S
C1152 C1154 1.381 . S
C1152 C1158 1.383 . S
C1153 C1149 1.495 . S
C1153 H1159 0.959 . S
C1153 H1160 0.961 . S
C1153 H1161 0.960 . S
C1154 C1152 1.381 . S
C1154 C1155 1.394 . S
C1154 H1162 0.930 . S
C1155 C1154 1.394 . S
C1155 C1156 1.383 . S
C1155 H1163 0.929 . S
C1156 C1155 1.383 . S
C1156 C1157 1.377 . S
C1157 H1141 0.930 . S
C1157 C1156 1.377 . S
C1157 C1158 1.379 . S
C1158 H1142 0.931 . S
C1158 C1152 1.383 . S
C1158 C1157 1.379 . S
H1159 C1153 0.959 . S
H1160 C1153 0.961 . S
H1161 C1153 0.960 . S
H1162 C1154 0.930 . S
H1163 C1155 0.929 . S
H1164 C1172 0.929 . S
H1165 C1174 0.930 . S
H1166 C1176 0.930 . S
H1167 C1179 0.929 . S
H1168 C1182 0.930 . S
H1169 C1184 0.960 . S
H1170 C1184 0.960 . S
H1171 C1184 0.960 . S
C1172 H1164 0.929 . S
C1172 C1173 1.377 . S
C1172 C1174 1.384 . S
C1173 C1172 1.377 . S
C1173 C1179 1.390 . S
C1174 H1165 0.930 . S
C1174 C1172 1.384 . S
C1174 C1175 1.372 . S
C1175 C1174 1.372 . S
C1175 C1176 1.400 . S
C1175 C1180 1.490 . S
C1176 H1166 0.930 . S
C1176 C1175 1.400 . S
C1176 C1179 1.386 . S
H1177 C1193 0.930 . S
H1178 C1194 0.931 . S
C1179 H1167 0.929 . S
C1179 C1173 1.390 . S
C1179 C1176 1.386 . S
C1180 C1175 1.490 . S
C1180 C1182 1.395 . S
C1180 C1183 1.403 . S
H1181 C1187 0.930 . S
C1182 H1168 0.930 . S
C1182 C1180 1.395 . S
C1182 C1185 1.403 . S
C1183 C1180 1.403 . S
C1183 C1184 1.524 . S
C1183 C1187 1.400 . S
C1184 H1169 0.960 . S
C1184 H1170 0.960 . S
C1184 H1171 0.960 . S
C1184 C1183 1.524 . S
C1185 C1182 1.403 . S
C1185 C1186 1.392 . S
C1185 C1189 1.495 . S
C1186 C1185 1.392 . S
C1186 C1187 1.385 . S
C1186 C1188 1.478 . S
C1187 H1181 0.930 . S
C1187 C1183 1.400 . S
C1187 C1186 1.385 . S
C1188 C1186 1.478 . S
C1188 C1190 1.381 . S
C1188 C1194 1.383 . S
C1189 C1185 1.495 . S
C1189 H1195 0.959 . S
C1189 H1196 0.961 . S
C1189 H1197 0.960 . S
C1190 C1188 1.381 . S
C1190 C1191 1.394 . S
C1190 H1198 0.930 . S
C1191 C1190 1.394 . S
C1191 C1192 1.383 . S
C1191 H1199 0.929 . S
C1192 C1191 1.383 . S
C1192 C1193 1.377 . S
C1193 H1177 0.930 . S
C1193 C1192 1.377 . S
C1193 C1194 1.379 . S
C1194 H1178 0.931 . S
C1194 C1188 1.383 . S
C1194 C1193 1.379 . S
H1195 C1189 0.959 . S
H1196 C1189 0.961 . S
H1197 C1189 0.960 . S
H1198 C1190 0.930 . S
H1199 C1191 0.929 . S
H1200 C1208 0.929 . S
H1201 C1210 0.930 . S
H1202 C1212 0.930 . S
H1203 C1215 0.929 . S
H1204 C1218 0.930 . S
H1205 C1220 0.960 . S
H1206 C1220 0.960 . S
H1207 C1220 0.960 . S
C1208 H1200 0.929 . S
C1208 C1209 1.377 . S
C1208 C1210 1.384 . S
C1209 C1208 1.377 . S
C1209 C1215 1.390 . S
C1210 H1201 0.930 . S
C1210 C1208 1.384 . S
C1210 C1211 1.372 . S
C1211 C1210 1.372 . S
C1211 C1212 1.400 . S
C1211 C1216 1.490 . S
C1212 H1202 0.930 . S
C1212 C1211 1.400 . S
C1212 C1215 1.386 . S
H1213 C1229 0.930 . S
H1214 C1230 0.931 . S
C1215 H1203 0.929 . S
C1215 C1209 1.390 . S
C1215 C1212 1.386 . S
C1216 C1211 1.490 . S
C1216 C1218 1.395 . S
C1216 C1219 1.403 . S
H1217 C1223 0.930 . S
C1218 H1204 0.930 . S
C1218 C1216 1.395 . S
C1218 C1221 1.403 . S
C1219 C1216 1.403 . S
C1219 C1220 1.524 . S
C1219 C1223 1.400 . S
C1220 H1205 0.960 . S
C1220 H1206 0.960 . S
C1220 H1207 0.960 . S
C1220 C1219 1.524 . S
C1221 C1218 1.403 . S
C1221 C1222 1.392 . S
C1221 C1225 1.495 . S
C1222 C1221 1.392 . S
C1222 C1223 1.385 . S
C1222 C1224 1.478 . S
C1223 H1217 0.930 . S
C1223 C1219 1.400 . S
C1223 C1222 1.385 . S
C1224 C1222 1.478 . S
C1224 C1226 1.381 1_556 S
C1224 C1230 1.383 . S
C1225 C1221 1.495 . S
C1225 H1231 0.959 . S
C1225 H1232 0.961 . S
C1225 H1233 0.960 . S
C1226 C1224 1.381 1_554 S
C1226 C1227 1.394 . S
C1226 H1234 0.930 . S
C1227 C1226 1.394 . S
C1227 C1228 1.383 . S
C1227 H1235 0.929 . S
C1228 C1227 1.383 . S
C1228 C1229 1.377 . S
C1229 H1213 0.930 . S
C1229 C1228 1.377 . S
C1229 C1230 1.379 1_554 S
C1230 H1214 0.931 . S
C1230 C1224 1.383 . S
C1230 C1229 1.379 1_556 S
H1231 C1225 0.959 . S
H1232 C1225 0.961 . S
H1233 C1225 0.960 . S
H1234 C1226 0.930 . S
H1235 C1227 0.929 . S
H1236 C1244 0.927 . S
H1237 C1246 0.930 . S
H1238 C1248 0.930 . S
H1239 C1251 0.929 . S
H1240 C1254 0.930 . S
H1241 C1256 0.960 . S
H1242 C1256 0.960 . S
H1243 C1256 0.960 . S
C1244 H1236 0.927 . S
C1244 C1245 1.377 . S
C1244 C1246 1.384 . S
C1245 C1244 1.377 . S
C1245 C1251 1.390 . S
C1246 H1237 0.930 . S
C1246 C1244 1.384 . S
C1246 C1247 1.372 . S
C1247 C1246 1.372 . S
C1247 C1248 1.400 . S
C1247 C1252 1.490 . S
C1248 H1238 0.930 . S
C1248 C1247 1.400 . S
C1248 C1251 1.386 . S
H1249 C1265 0.930 . S
H1250 C1266 0.931 . S
C1251 H1239 0.929 . S
C1251 C1245 1.390 . S
C1251 C1248 1.386 . S
C1252 C1247 1.490 . S
C1252 C1254 1.395 . S
C1252 C1255 1.403 . S
H1253 C1259 0.930 . S
C1254 H1240 0.930 . S
C1254 C1252 1.395 . S
C1254 C1257 1.403 . S
C1255 C1252 1.403 . S
C1255 C1256 1.524 . S
C1255 C1259 1.400 . S
C1256 H1241 0.960 . S
C1256 H1242 0.960 . S
C1256 H1243 0.960 . S
C1256 C1255 1.524 . S
C1257 C1254 1.403 . S
C1257 C1258 1.392 . S
C1257 C1261 1.495 . S
C1258 C1257 1.392 . S
C1258 C1259 1.385 . S
C1258 C1260 1.478 . S
C1259 H1253 0.930 . S
C1259 C1255 1.400 . S
C1259 C1258 1.385 . S
C1260 C1258 1.478 . S
C1260 C1262 1.381 . S
C1260 C1266 1.383 . S
C1261 C1257 1.495 . S
C1261 H1267 0.959 . S
C1261 H1268 0.961 . S
C1261 H1269 0.960 . S
C1262 C1260 1.381 . S
C1262 C1263 1.394 . S
C1262 H1270 0.930 . S
C1263 C1262 1.394 . S
C1263 C1264 1.383 . S
C1263 H1271 0.929 . S
C1264 C1263 1.383 . S
C1264 C1265 1.377 . S
C1265 H1249 0.930 . S
C1265 C1264 1.377 . S
C1265 C1266 1.379 . S
C1266 H1250 0.931 . S
C1266 C1260 1.383 . S
C1266 C1265 1.379 . S
H1267 C1261 0.959 . S
H1268 C1261 0.961 . S
H1269 C1261 0.960 . S
H1270 C1262 0.930 . S
H1271 C1263 0.929 . S
H1272 C1280 0.929 . S
H1273 C1282 0.930 . S
H1274 C1284 0.930 . S
H1275 C1287 0.929 . S
H1276 C1290 0.930 . S
H1277 C1292 0.960 . S
H1278 C1292 0.960 . S
H1279 C1292 0.960 . S
C1280 H1272 0.929 . S
C1280 C1281 1.377 . S
C1280 C1282 1.384 . S
C1281 C1280 1.377 . S
C1281 C1287 1.390 . S
C1282 H1273 0.930 . S
C1282 C1280 1.384 . S
C1282 C1283 1.372 . S
C1283 C1282 1.372 . S
C1283 C1284 1.400 . S
C1283 C1288 1.490 . S
C1284 H1274 0.930 . S
C1284 C1283 1.400 . S
C1284 C1287 1.386 . S
H1285 C1301 0.930 . S
H1286 C1302 0.931 . S
C1287 H1275 0.929 . S
C1287 C1281 1.390 . S
C1287 C1284 1.386 . S
C1288 C1283 1.490 . S
C1288 C1290 1.395 . S
C1288 C1291 1.403 . S
H1289 C1295 0.930 . S
C1290 H1276 0.930 . S
C1290 C1288 1.395 . S
C1290 C1293 1.403 . S
C1291 C1288 1.403 . S
C1291 C1292 1.524 . S
C1291 C1295 1.400 . S
C1292 H1277 0.960 . S
C1292 H1278 0.960 . S
C1292 H1279 0.960 . S
C1292 C1291 1.524 . S
C1293 C1290 1.403 . S
C1293 C1294 1.392 . S
C1293 C1297 1.495 . S
C1294 C1293 1.392 . S
C1294 C1295 1.385 . S
C1294 C1296 1.478 . S
C1295 H1289 0.930 . S
C1295 C1291 1.400 . S
C1295 C1294 1.385 . S
C1296 C1294 1.478 . S
C1296 C1298 1.381 . S
C1296 C1302 1.383 . S
C1297 C1293 1.495 . S
C1297 H1303 0.959 . S
C1297 H1304 0.961 . S
C1297 H1305 0.960 . S
C1298 C1296 1.381 . S
C1298 C1299 1.394 . S
C1298 H1306 0.930 . S
C1299 C1298 1.394 . S
C1299 C1300 1.383 . S
C1299 H1307 0.929 . S
C1300 C1299 1.383 . S
C1300 C1301 1.377 . S
C1301 H1285 0.930 . S
C1301 C1300 1.377 . S
C1301 C1302 1.379 . S
C1302 H1286 0.931 . S
C1302 C1296 1.383 . S
C1302 C1301 1.379 . S
H1303 C1297 0.959 . S
H1304 C1297 0.961 . S
H1305 C1297 0.960 . S
H1306 C1298 0.930 . S
H1307 C1299 0.929 . S
H1308 C1316 0.929 . S
H1309 C1318 0.930 . S
H1310 C1320 0.930 . S
H1311 C1323 0.929 . S
H1312 C1326 0.930 . S
H1313 C1328 0.960 . S
H1314 C1328 0.960 . S
H1315 C1328 0.960 . S
C1316 H1308 0.929 . S
C1316 C1317 1.377 . S
C1316 C1318 1.384 . S
C1317 C1316 1.377 . S
C1317 C1323 1.390 . S
C1318 H1309 0.930 . S
C1318 C1316 1.384 . S
C1318 C1319 1.372 . S
C1319 C1318 1.372 . S
C1319 C1320 1.400 . S
C1319 C1324 1.490 . S
C1320 H1310 0.930 . S
C1320 C1319 1.400 . S
C1320 C1323 1.386 . S
H1321 C1337 0.930 . S
H1322 C1338 0.931 . S
C1323 H1311 0.929 . S
C1323 C1317 1.390 . S
C1323 C1320 1.386 . S
C1324 C1319 1.490 . S
C1324 C1326 1.395 . S
C1324 C1327 1.403 . S
H1325 C1331 0.930 . S
C1326 H1312 0.930 . S
C1326 C1324 1.395 . S
C1326 C1329 1.403 . S
C1327 C1324 1.403 . S
C1327 C1328 1.524 . S
C1327 C1331 1.400 . S
C1328 H1313 0.960 . S
C1328 H1314 0.960 . S
C1328 H1315 0.960 . S
C1328 C1327 1.524 . S
C1329 C1326 1.403 . S
C1329 C1330 1.392 . S
C1329 C1333 1.495 . S
C1330 C1329 1.392 . S
C1330 C1331 1.385 . S
C1330 C1332 1.478 . S
C1331 H1325 0.930 . S
C1331 C1327 1.400 . S
C1331 C1330 1.385 . S
C1332 C1330 1.478 . S
C1332 C1334 1.381 . S
C1332 C1338 1.383 . S
C1333 C1329 1.495 . S
C1333 H1339 0.959 . S
C1333 H1340 0.961 . S
C1333 H1341 0.960 . S
C1334 C1332 1.381 . S
C1334 C1335 1.394 . S
C1334 H1342 0.930 . S
C1335 C1334 1.394 . S
C1335 C1336 1.383 . S
C1335 H1343 0.929 . S
C1336 C1335 1.383 . S
C1336 C1337 1.377 . S
C1337 H1321 0.930 . S
C1337 C1336 1.377 . S
C1337 C1338 1.379 . S
C1338 H1322 0.931 . S
C1338 C1332 1.383 . S
C1338 C1337 1.379 . S
H1339 C1333 0.959 . S
H1340 C1333 0.961 . S
H1341 C1333 0.960 . S
H1342 C1334 0.930 . S
H1343 C1335 0.929 . S
H1344 C1352 0.929 . S
H1345 C1354 0.930 . S
H1346 C1356 0.930 . S
H1347 C1359 0.929 . S
H1348 C1362 0.930 . S
H1349 C1364 0.960 . S
H1350 C1364 0.960 . S
H1351 C1364 0.960 . S
C1352 H1344 0.929 . S
C1352 C1353 1.377 . S
C1352 C1354 1.384 . S
C1353 C1352 1.377 . S
C1353 C1359 1.390 . S
C1354 H1345 0.930 . S
C1354 C1352 1.384 . S
C1354 C1355 1.372 . S
C1355 C1354 1.372 . S
C1355 C1356 1.400 . S
C1355 C1360 1.490 . S
C1356 H1346 0.930 . S
C1356 C1355 1.400 . S
C1356 C1359 1.386 . S
H1357 C1373 0.930 . S
H1358 C1374 0.931 . S
C1359 H1347 0.929 . S
C1359 C1353 1.390 . S
C1359 C1356 1.386 . S
C1360 C1355 1.490 . S
C1360 C1362 1.395 . S
C1360 C1363 1.403 . S
H1361 C1367 0.930 . S
C1362 H1348 0.930 . S
C1362 C1360 1.395 . S
C1362 C1365 1.403 . S
C1363 C1360 1.403 . S
C1363 C1364 1.524 . S
C1363 C1367 1.400 . S
C1364 H1349 0.960 . S
C1364 H1350 0.960 . S
C1364 H1351 0.960 . S
C1364 C1363 1.524 . S
C1365 C1362 1.403 . S
C1365 C1366 1.392 . S
C1365 C1369 1.495 . S
C1366 C1365 1.392 . S
C1366 C1367 1.385 . S
C1366 C1368 1.478 . S
C1367 H1361 0.930 . S
C1367 C1363 1.400 . S
C1367 C1366 1.385 . S
C1368 C1366 1.478 . S
C1368 C1370 1.381 . S
C1368 C1374 1.383 . S
C1369 C1365 1.495 . S
C1369 H1375 0.959 . S
C1369 H1376 0.961 . S
C1369 H1377 0.960 . S
C1370 C1368 1.381 . S
C1370 C1371 1.394 . S
C1370 H1378 0.930 . S
C1371 C1370 1.394 . S
C1371 C1372 1.383 . S
C1371 H1379 0.929 . S
C1372 C1371 1.383 . S
C1372 C1373 1.377 . S
C1373 H1357 0.930 . S
C1373 C1372 1.377 . S
C1373 C1374 1.379 . S
C1374 H1358 0.931 . S
C1374 C1368 1.383 . S
C1374 C1373 1.379 . S
H1375 C1369 0.959 . S
H1376 C1369 0.961 . S
H1377 C1369 0.960 . S
H1378 C1370 0.930 . S
H1379 C1371 0.929 . S
H1380 C1388 0.929 . S
H1381 C1390 0.930 . S
H1382 C1392 0.930 . S
H1383 C1395 0.929 . S
H1384 C1398 0.930 . S
H1385 C1400 0.960 . S
H1386 C1400 0.960 . S
H1387 C1400 0.960 . S
C1388 H1380 0.929 . S
C1388 C1389 1.377 . S
C1388 C1390 1.384 . S
C1389 C1388 1.377 . S
C1389 C1395 1.390 . S
C1390 H1381 0.930 . S
C1390 C1388 1.384 . S
C1390 C1391 1.372 . S
C1391 C1390 1.372 . S
C1391 C1392 1.400 . S
C1391 C1396 1.490 . S
C1392 H1382 0.930 . S
C1392 C1391 1.400 . S
C1392 C1395 1.386 . S
H1393 C1409 0.930 . S
H1394 C1410 0.931 . S
C1395 H1383 0.929 . S
C1395 C1389 1.390 . S
C1395 C1392 1.386 . S
C1396 C1391 1.490 . S
C1396 C1398 1.395 . S
C1396 C1399 1.403 . S
H1397 C1403 0.930 . S
C1398 H1384 0.930 . S
C1398 C1396 1.395 . S
C1398 C1401 1.403 . S
C1399 C1396 1.403 . S
C1399 C1400 1.524 . S
C1399 C1403 1.400 . S
C1400 H1385 0.960 . S
C1400 H1386 0.960 . S
C1400 H1387 0.960 . S
C1400 C1399 1.524 . S
C1401 C1398 1.403 . S
C1401 C1402 1.392 . S
C1401 C1405 1.495 . S
C1402 C1401 1.392 . S
C1402 C1403 1.385 . S
C1402 C1404 1.478 . S
C1403 H1397 0.930 . S
C1403 C1399 1.400 . S
C1403 C1402 1.385 . S
C1404 C1402 1.478 . S
C1404 C1406 1.381 . S
C1404 C1410 1.383 . S
C1405 C1401 1.495 . S
C1405 H1411 0.959 . S
C1405 H1412 0.961 . S
C1405 H1413 0.960 . S
C1406 C1404 1.381 . S
C1406 C1407 1.394 . S
C1406 H1414 0.930 . S
C1407 C1406 1.394 . S
C1407 C1408 1.383 . S
C1407 H1415 0.929 . S
C1408 C1407 1.383 . S
C1408 C1409 1.377 . S
C1409 H1393 0.930 . S
C1409 C1408 1.377 . S
C1409 C1410 1.379 . S
C1410 H1394 0.931 . S
C1410 C1404 1.383 . S
C1410 C1409 1.379 . S
H1411 C1405 0.959 . S
H1412 C1405 0.961 . S
H1413 C1405 0.960 . S
H1414 C1406 0.930 . S
H1415 C1407 0.929 . S
H1416 C1424 0.929 . S
H1417 C1426 0.930 . S
H1418 C1428 0.930 . S
H1419 C1431 0.929 . S
H1420 C1434 0.930 . S
H1421 C1436 0.960 . S
H1422 C1436 0.960 . S
H1423 C1436 0.960 . S
C1424 H1416 0.929 . S
C1424 C1425 1.377 . S
C1424 C1426 1.384 . S
C1425 C1424 1.377 . S
C1425 C1431 1.390 . S
C1426 H1417 0.930 . S
C1426 C1424 1.384 . S
C1426 C1427 1.372 . S
C1427 C1426 1.372 . S
C1427 C1428 1.400 . S
C1427 C1432 1.490 . S
C1428 H1418 0.930 . S
C1428 C1427 1.400 . S
C1428 C1431 1.386 . S
H1429 C1445 0.930 . S
H1430 C1446 0.931 . S
C1431 H1419 0.929 . S
C1431 C1425 1.390 . S
C1431 C1428 1.386 . S
C1432 C1427 1.490 . S
C1432 C1434 1.395 . S
C1432 C1435 1.403 . S
H1433 C1439 0.930 . S
C1434 H1420 0.930 . S
C1434 C1432 1.395 . S
C1434 C1437 1.403 . S
C1435 C1432 1.403 . S
C1435 C1436 1.524 . S
C1435 C1439 1.400 . S
C1436 H1421 0.960 . S
C1436 H1422 0.960 . S
C1436 H1423 0.960 . S
C1436 C1435 1.524 . S
C1437 C1434 1.403 . S
C1437 C1438 1.392 . S
C1437 C1441 1.495 . S
C1438 C1437 1.392 . S
C1438 C1439 1.385 . S
C1438 C1440 1.478 . S
C1439 H1433 0.930 . S
C1439 C1435 1.400 . S
C1439 C1438 1.385 . S
C1440 C1438 1.478 . S
C1440 C1442 1.381 . S
C1440 C1446 1.383 . S
C1441 C1437 1.495 . S
C1441 H1447 0.959 . S
C1441 H1448 0.961 . S
C1441 H1449 0.960 . S
C1442 C1440 1.381 . S
C1442 C1443 1.394 . S
C1442 H1450 0.930 . S
C1443 C1442 1.394 . S
C1443 C1444 1.383 . S
C1443 H1451 0.929 . S
C1444 C1443 1.383 . S
C1444 C1445 1.377 . S
C1445 H1429 0.930 . S
C1445 C1444 1.377 . S
C1445 C1446 1.379 . S
C1446 H1430 0.931 . S
C1446 C1440 1.383 . S
C1446 C1445 1.379 . S
H1447 C1441 0.959 . S
H1448 C1441 0.961 . S
H1449 C1441 0.960 . S
H1450 C1442 0.930 . S
H1451 C1443 0.929 . S
H1452 C1460 0.929 . S
H1453 C1462 0.930 . S
H1454 C1464 0.930 . S
H1455 C1467 0.929 . S
H1456 C1470 0.930 . S
H1457 C1472 0.960 . S
H1458 C1472 0.960 . S
H1459 C1472 0.960 . S
C1460 H1452 0.929 . S
C1460 C1461 1.377 . S
C1460 C1462 1.384 . S
C1461 C1460 1.377 . S
C1461 C1467 1.390 . S
C1462 H1453 0.930 . S
C1462 C1460 1.384 . S
C1462 C1463 1.372 . S
C1463 C1462 1.372 . S
C1463 C1464 1.400 . S
C1463 C1468 1.490 . S
C1464 H1454 0.930 . S
C1464 C1463 1.400 . S
C1464 C1467 1.386 . S
H1465 C1481 0.930 . S
H1466 C1482 0.931 . S
C1467 H1455 0.929 . S
C1467 C1461 1.390 . S
C1467 C1464 1.386 . S
C1468 C1463 1.490 . S
C1468 C1470 1.395 . S
C1468 C1471 1.403 . S
H1469 C1475 0.930 . S
C1470 H1456 0.930 . S
C1470 C1468 1.395 . S
C1470 C1473 1.407 1_554 S
C1471 C1468 1.403 . S
C1471 C1472 1.524 . S
C1471 C1475 1.400 . S
C1472 H1457 0.960 . S
C1472 H1458 0.960 . S
C1472 H1459 0.960 . S
C1472 C1471 1.524 . S
C1473 C1470 1.407 1_556 S
C1473 C1474 1.392 . S
C1473 C1477 1.493 . S
C1474 C1473 1.392 . S
C1474 C1475 1.385 1_556 S
C1474 C1476 1.478 . S
C1475 H1469 0.930 . S
C1475 C1471 1.400 . S
C1475 C1474 1.385 1_554 S
C1476 C1474 1.478 . S
C1476 C1478 1.381 . S
C1476 C1482 1.383 . S
C1477 C1473 1.493 . S
C1477 H1483 0.959 . S
C1477 H1484 0.961 . S
C1477 H1485 0.960 . S
C1478 C1476 1.381 . S
C1478 C1479 1.394 . S
C1478 H1486 0.930 . S
C1479 C1478 1.394 . S
C1479 C1480 1.383 . S
C1479 H1487 0.929 . S
C1480 C1479 1.383 . S
C1480 C1481 1.377 . S
C1481 H1465 0.930 . S
C1481 C1480 1.377 . S
C1481 C1482 1.379 . S
C1482 H1466 0.931 . S
C1482 C1476 1.383 . S
C1482 C1481 1.379 . S
H1483 C1477 0.959 . S
H1484 C1477 0.961 . S
H1485 C1477 0.960 . S
H1486 C1478 0.930 . S
H1487 C1479 0.929 . S
H1488 C1496 0.929 . S
H1489 C1498 0.930 . S
H1490 C1500 0.930 . S
H1491 C1503 0.929 . S
H1492 C1506 0.930 . S
H1493 C1508 0.960 . S
H1494 C1508 0.960 . S
H1495 C1508 0.960 . S
C1496 H1488 0.929 . S
C1496 C1497 1.377 . S
C1496 C1498 1.384 . S
C1497 C1496 1.377 . S
C1497 C1503 1.390 . S
C1498 H1489 0.930 . S
C1498 C1496 1.384 . S
C1498 C1499 1.372 . S
C1499 C1498 1.372 . S
C1499 C1500 1.400 . S
C1499 C1504 1.490 . S
C1500 H1490 0.930 . S
C1500 C1499 1.400 . S
C1500 C1503 1.386 . S
H1501 C1517 0.930 . S
H1502 C1518 0.931 . S
C1503 H1491 0.929 . S
C1503 C1497 1.390 . S
C1503 C1500 1.386 . S
C1504 C1499 1.490 . S
C1504 C1506 1.395 . S
C1504 C1507 1.403 . S
H1505 C1511 0.930 . S
C1506 H1492 0.930 . S
C1506 C1504 1.395 . S
C1506 C1509 1.403 . S
C1507 C1504 1.403 . S
C1507 C1508 1.524 . S
C1507 C1511 1.400 . S
C1508 H1493 0.960 . S
C1508 H1494 0.960 . S
C1508 H1495 0.960 . S
C1508 C1507 1.524 . S
C1509 C1506 1.403 . S
C1509 C1510 1.392 . S
C1509 C1513 1.495 . S
C1510 C1509 1.392 . S
C1510 C1511 1.385 . S
C1510 C1512 1.478 . S
C1511 H1505 0.930 . S
C1511 C1507 1.400 . S
C1511 C1510 1.385 . S
C1512 C1510 1.478 . S
C1512 C1514 1.381 . S
C1512 C1518 1.383 . S
C1513 C1509 1.495 . S
C1513 H1519 0.959 . S
C1513 H1520 0.961 . S
C1513 H1521 0.960 . S
C1514 C1512 1.381 . S
C1514 C1515 1.394 . S
C1514 H1522 0.930 . S
C1515 C1514 1.394 . S
C1515 C1516 1.383 . S
C1515 H1523 0.929 . S
C1516 C1515 1.383 . S
C1516 C1517 1.377 . S
C1517 H1501 0.930 . S
C1517 C1516 1.377 . S
C1517 C1518 1.379 . S
C1518 H1502 0.931 . S
C1518 C1512 1.383 . S
C1518 C1517 1.379 . S
H1519 C1513 0.959 . S
H1520 C1513 0.961 . S
H1521 C1513 0.960 . S
H1522 C1514 0.930 . S
H1523 C1515 0.929 . S
C688 C627 1.299 . S
C669 C51 1.290 . S
C705 C125 1.426 . S
C724 C447 1.430 . S
C741 C217 2.762 . S
C760 C494 2.735 . S
C777 C291 1.483 . S
C796 C530 1.473 . S
C832 C555 0.758 . S
C813 C347 0.734 . S
C849 C421 0.765 . S
C868 C591 0.771 . S
C885 C143 2.408 . S
C904 C483 2.405 . S
C921 C199 1.484 . S
C940 C519 1.485 . S
C957 C273 0.297 . S
C976 C566 0.467 . S
C1012 C602 1.643 . S
C993 C365 1.667 . S
C1048 C638 1.802 . S
C1029 C439 1.825 . S
C1084 C458 2.580 . S
C1065 C69 2.555 . S
C1101 C63 1.336 . S
C1120 C482 1.416 . S
C1137 C137 1.481 . S
C1156 C518 1.533 . S
C1192 C556 1.326 . S
C1173 C187 1.275 . S
C1209 C261 1.437 . S
C1228 C592 1.473 . S
C1264 C628 1.421 . S
C1245 C359 1.331 . S
C1300 C448 0.994 . S
C1281 C433 0.968 . S
C1336 C626 1.564 . S
C1317 C113 1.566 . S
C1353 C211 1.210 . S
C1372 C446 1.274 . S
C1408 C484 1.460 . S
C1389 C285 1.401 . S
C1425 C335 1.302 . S
C1444 C520 1.372 . S
C1461 C409 1.306 . S
C1480 C554 1.324 . S
C1497 C39 1.650 . S
C1516 C590 1.692 . S
