# Generated by pormake.
# Topology eea, (3,6)-cn, num edge types: 1
# Building blocks:
#     Node 0, Type 0, BuildingBlock: BETDIP_clean_linker_0, # of connection points: 3
#     Node 1, Type 0, BuildingBlock: BETDIP_clean_linker_0, # of connection points: 3
#     Node 2, Type 0, BuildingBlock: BETDIP_clean_linker_0, # of connection points: 3
#     Node 3, Type 0, BuildingBlock: BETDIP_clean_linker_0, # of connection points: 3
#     Node 4, Type 0, BuildingBlock: BETDIP_clean_linker_0, # of connection points: 3
#     Node 5, Type 0, BuildingBlock: BETDIP_clean_linker_0, # of connection points: 3
#     Node 6, Type 0, BuildingBlock: BETDIP_clean_linker_0, # of connection points: 3
#     Node 7, Type 0, BuildingBlock: BETDIP_clean_linker_0, # of connection points: 3
#     Node 8, Type 0, BuildingBlock: BETDIP_clean_linker_0, # of connection points: 3
#     Node 9, Type 0, BuildingBlock: BETDIP_clean_linker_0, # of connection points: 3
#     Node 10, Type 0, BuildingBlock: BETDIP_clean_linker_0, # of connection points: 3
#     Node 11, Type 0, BuildingBlock: BETDIP_clean_linker_0, # of connection points: 3
#     Node 12, Type 0, BuildingBlock: BETDIP_clean_linker_0, # of connection points: 3
#     Node 13, Type 0, BuildingBlock: BETDIP_clean_linker_0, # of connection points: 3
#     Node 14, Type 0, BuildingBlock: BETDIP_clean_linker_0, # of connection points: 3
#     Node 15, Type 0, BuildingBlock: BETDIP_clean_linker_0, # of connection points: 3
#     Node 16, Type 0, BuildingBlock: BETDIP_clean_linker_0, # of connection points: 3
#     Node 17, Type 0, BuildingBlock: BETDIP_clean_linker_0, # of connection points: 3
#     Node 18, Type 1, BuildingBlock: KUMJIN_clean_sbu_0, # of connection points: 6
#     Node 19, Type 1, BuildingBlock: KUMJIN_clean_sbu_0, # of connection points: 6
#     Node 20, Type 1, BuildingBlock: KUMJIN_clean_sbu_0, # of connection points: 6
#     Node 21, Type 1, BuildingBlock: KUMJIN_clean_sbu_0, # of connection points: 6
#     Node 22, Type 1, BuildingBlock: KUMJIN_clean_sbu_0, # of connection points: 6
#     Node 23, Type 1, BuildingBlock: KUMJIN_clean_sbu_0, # of connection points: 6
#     Node 24, Type 1, BuildingBlock: KUMJIN_clean_sbu_0, # of connection points: 6
#     Node 25, Type 1, BuildingBlock: KUMJIN_clean_sbu_0, # of connection points: 6
#     Node 26, Type 1, BuildingBlock: KUMJIN_clean_sbu_0, # of connection points: 6
#     Edge 27, Type (0, 1), BuildingBlock: XUDNAN_clean_linker_2, # of connection points: 2
#     Edge 28, Type (0, 1), BuildingBlock: XUDNAN_clean_linker_2, # of connection points: 2
#     Edge 29, Type (0, 1), BuildingBlock: XUDNAN_clean_linker_2, # of connection points: 2
#     Edge 30, Type (0, 1), BuildingBlock: XUDNAN_clean_linker_2, # of connection points: 2
#     Edge 31, Type (0, 1), BuildingBlock: XUDNAN_clean_linker_2, # of connection points: 2
#     Edge 32, Type (0, 1), BuildingBlock: XUDNAN_clean_linker_2, # of connection points: 2
#     Edge 33, Type (0, 1), BuildingBlock: XUDNAN_clean_linker_2, # of connection points: 2
#     Edge 34, Type (0, 1), BuildingBlock: XUDNAN_clean_linker_2, # of connection points: 2
#     Edge 35, Type (0, 1), BuildingBlock: XUDNAN_clean_linker_2, # of connection points: 2
#     Edge 36, Type (0, 1), BuildingBlock: XUDNAN_clean_linker_2, # of connection points: 2
#     Edge 37, Type (0, 1), BuildingBlock: XUDNAN_clean_linker_2, # of connection points: 2
#     Edge 38, Type (0, 1), BuildingBlock: XUDNAN_clean_linker_2, # of connection points: 2
#     Edge 39, Type (0, 1), BuildingBlock: XUDNAN_clean_linker_2, # of connection points: 2
#     Edge 40, Type (0, 1), BuildingBlock: XUDNAN_clean_linker_2, # of connection points: 2
#     Edge 41, Type (0, 1), BuildingBlock: XUDNAN_clean_linker_2, # of connection points: 2
#     Edge 42, Type (0, 1), BuildingBlock: XUDNAN_clean_linker_2, # of connection points: 2
#     Edge 43, Type (0, 1), BuildingBlock: XUDNAN_clean_linker_2, # of connection points: 2
#     Edge 44, Type (0, 1), BuildingBlock: XUDNAN_clean_linker_2, # of connection points: 2
#     Edge 45, Type (0, 1), BuildingBlock: XUDNAN_clean_linker_2, # of connection points: 2
#     Edge 46, Type (0, 1), BuildingBlock: XUDNAN_clean_linker_2, # of connection points: 2
#     Edge 47, Type (0, 1), BuildingBlock: XUDNAN_clean_linker_2, # of connection points: 2
#     Edge 48, Type (0, 1), BuildingBlock: XUDNAN_clean_linker_2, # of connection points: 2
#     Edge 49, Type (0, 1), BuildingBlock: XUDNAN_clean_linker_2, # of connection points: 2
#     Edge 50, Type (0, 1), BuildingBlock: XUDNAN_clean_linker_2, # of connection points: 2
#     Edge 51, Type (0, 1), BuildingBlock: XUDNAN_clean_linker_2, # of connection points: 2
#     Edge 52, Type (0, 1), BuildingBlock: XUDNAN_clean_linker_2, # of connection points: 2
#     Edge 53, Type (0, 1), BuildingBlock: XUDNAN_clean_linker_2, # of connection points: 2
#     Edge 54, Type (0, 1), BuildingBlock: XUDNAN_clean_linker_2, # of connection points: 2
#     Edge 55, Type (0, 1), BuildingBlock: XUDNAN_clean_linker_2, # of connection points: 2
#     Edge 56, Type (0, 1), BuildingBlock: XUDNAN_clean_linker_2, # of connection points: 2
#     Edge 57, Type (0, 1), BuildingBlock: XUDNAN_clean_linker_2, # of connection points: 2
#     Edge 58, Type (0, 1), BuildingBlock: XUDNAN_clean_linker_2, # of connection points: 2
#     Edge 59, Type (0, 1), BuildingBlock: XUDNAN_clean_linker_2, # of connection points: 2
#     Edge 60, Type (0, 1), BuildingBlock: XUDNAN_clean_linker_2, # of connection points: 2
#     Edge 61, Type (0, 1), BuildingBlock: XUDNAN_clean_linker_2, # of connection points: 2
#     Edge 62, Type (0, 1), BuildingBlock: XUDNAN_clean_linker_2, # of connection points: 2
#     Edge 63, Type (0, 1), BuildingBlock: XUDNAN_clean_linker_2, # of connection points: 2
#     Edge 64, Type (0, 1), BuildingBlock: XUDNAN_clean_linker_2, # of connection points: 2
#     Edge 65, Type (0, 1), BuildingBlock: XUDNAN_clean_linker_2, # of connection points: 2
#     Edge 66, Type (0, 1), BuildingBlock: XUDNAN_clean_linker_2, # of connection points: 2
#     Edge 67, Type (0, 1), BuildingBlock: XUDNAN_clean_linker_2, # of connection points: 2
#     Edge 68, Type (0, 1), BuildingBlock: XUDNAN_clean_linker_2, # of connection points: 2
#     Edge 69, Type (0, 1), BuildingBlock: XUDNAN_clean_linker_2, # of connection points: 2
#     Edge 70, Type (0, 1), BuildingBlock: XUDNAN_clean_linker_2, # of connection points: 2
#     Edge 71, Type (0, 1), BuildingBlock: XUDNAN_clean_linker_2, # of connection points: 2
#     Edge 72, Type (0, 1), BuildingBlock: XUDNAN_clean_linker_2, # of connection points: 2
#     Edge 73, Type (0, 1), BuildingBlock: XUDNAN_clean_linker_2, # of connection points: 2
#     Edge 74, Type (0, 1), BuildingBlock: XUDNAN_clean_linker_2, # of connection points: 2
#     Edge 75, Type (0, 1), BuildingBlock: XUDNAN_clean_linker_2, # of connection points: 2
#     Edge 76, Type (0, 1), BuildingBlock: XUDNAN_clean_linker_2, # of connection points: 2
#     Edge 77, Type (0, 1), BuildingBlock: XUDNAN_clean_linker_2, # of connection points: 2
#     Edge 78, Type (0, 1), BuildingBlock: XUDNAN_clean_linker_2, # of connection points: 2
#     Edge 79, Type (0, 1), BuildingBlock: XUDNAN_clean_linker_2, # of connection points: 2
#     Edge 80, Type (0, 1), BuildingBlock: XUDNAN_clean_linker_2, # of connection points: 2
# Relax obj value: 0.025
# Max RMSD: 0.166
# Mean RMSD: 0.120
data_MOF--net-eea--node1-KUMJIN_clean_sbu_0--node2-BETDIP_clean_linker_0--edge1-XUDNAN_clean_linker_2
_symmetry_space_group_name_H-M    P1
_symmetry_Int_Tables_number       1
_symmetry_cell_setting            triclinic
loop_
_symmetry_equiv_pos_as_xyz
'x, y, z'
_cell_length_a     54.498957
_cell_length_b     55.754764
_cell_length_c     66.754012
_cell_angle_alpha  90.273747
_cell_angle_beta   90.025275
_cell_angle_gamma 120.11433
loop_
_atom_site_label
_atom_site_type_symbol
_atom_site_fract_x
_atom_site_fract_y
_atom_site_fract_z
_atom_type_partial_charge
H0 H 0.2205 0.09283 0.38765 0.0
H1 H 0.23697 0.13973 0.44252 0.0
H2 H 0.25454 0.07298 0.43896 0.0
H3 H 0.24113 0.17308 0.42138 0.0
C4 C 0.22508 0.16204 0.40997 0.0
C5 C 0.22762 0.09661 0.40311 0.0
C6 C 0.23768 0.08043 0.41201 0.0
C7 C 0.22796 0.11855 0.41376 0.0
C8 C 0.23743 0.12354 0.43382 0.0
C9 C 0.24667 0.10687 0.44304 0.0
C10 C 0.24687 0.08553 0.432 0.0
N11 N 0.2183 0.13489 0.40393 0.0
H12 H 0.93034 0.12685 0.37451 0.0
H13 H 0.8795 0.10177 0.42782 0.0
H14 H 0.95267 0.18357 0.42393 0.0
H15 H 0.87265 0.05954 0.41911 0.0
C16 C 0.86919 0.05938 0.40308 0.0
C17 C 0.92666 0.13117 0.38972 0.0
C18 C 0.94382 0.15773 0.39801 0.0
C19 C 0.9041 0.1104 0.40078 0.0
C20 C 0.89829 0.11688 0.42005 0.0
C21 C 0.91556 0.14322 0.42882 0.0
C22 C 0.93867 0.16322 0.41764 0.0
N23 N 0.88625 0.08384 0.39178 0.0
H24 H 0.89537 0.81002 0.38364 0.0
H25 H 0.92605 0.78702 0.43499 0.0
H26 H 0.84481 0.78262 0.43725 0.0
H27 H 0.96967 0.83815 0.41581 0.0
C28 C 0.96605 0.82225 0.40481 0.0
C29 C 0.89235 0.8027 0.39895 0.0
C30 C 0.86751 0.7969 0.40936 0.0
C31 C 0.91359 0.79953 0.40829 0.0
C32 C 0.90983 0.79008 0.4281 0.0
C33 C 0.88483 0.78338 0.43865 0.0
C34 C 0.86374 0.78683 0.42909 0.0
N35 N 0.93812 0.80461 0.39738 0.0
H36 H 0.09691 0.20884 0.65125 0.0
H37 H 0.14884 0.22534 0.59913 0.0
H38 H 0.07224 0.22976 0.59558 0.0
H39 H 0.14882 0.18297 0.61966 0.0
C40 C 0.15814 0.19811 0.63172 0.0
C41 C 0.10057 0.21407 0.6355 0.0
C42 C 0.08113 0.21843 0.62448 0.0
C43 C 0.12464 0.21603 0.62636 0.0
C44 C 0.12979 0.22307 0.60601 0.0
C45 C 0.11134 0.22876 0.59488 0.0
C46 C 0.08702 0.22634 0.60425 0.0
N47 N 0.14442 0.21275 0.63824 0.0
H48 H 0.80533 0.88254 0.65014 0.0
H49 H 0.79181 0.921 0.59904 0.0
H50 H 0.76742 0.83501 0.59636 0.0
H51 H 0.82881 0.95933 0.61208 0.0
C52 C 0.82408 0.95662 0.62799 0.0
C53 C 0.79817 0.88116 0.63481 0.0
C54 C 0.78585 0.85573 0.62446 0.0
C55 C 0.80112 0.90494 0.62562 0.0
C56 C 0.79103 0.90313 0.60596 0.0
C57 C 0.7788 0.87798 0.59532 0.0
C58 C 0.77628 0.85435 0.60467 0.0
N59 N 0.81308 0.93006 0.6368 0.0
H60 H 0.13402 0.928 0.64803 0.0
H61 H 0.09848 0.86644 0.60123 0.0
H62 H 0.18031 0.93901 0.59332 0.0
H63 H 0.08317 0.83899 0.63108 0.0
C64 C 0.07308 0.84982 0.6375 0.0
C65 C 0.13553 0.92095 0.63318 0.0
C66 C 0.16041 0.9364 0.62177 0.0
C67 C 0.1132 0.89546 0.62593 0.0
C68 C 0.11555 0.886 0.6068 0.0
C69 C 0.13974 0.90145 0.59488 0.0
C70 C 0.16181 0.92668 0.6025 0.0
N71 N 0.08856 0.87945 0.63795 0.0
H72 H 0.89434 0.43721 0.71385 0.0
H73 H 0.92212 0.48052 0.77004 0.0
H74 H 0.91924 0.40279 0.76215 0.0
H75 H 0.89616 0.49982 0.75935 0.0
C76 C 0.90027 0.50223 0.74336 0.0
C77 C 0.90211 0.4383 0.72896 0.0
C78 C 0.90584 0.41681 0.73642 0.0
C79 C 0.9076 0.46111 0.74096 0.0
C80 C 0.91731 0.46276 0.7607 0.0
C81 C 0.92099 0.44144 0.76847 0.0
C82 C 0.91539 0.41868 0.75626 0.0
N83 N 0.90385 0.4823 0.73242 0.0
H84 H 0.6003 0.46391 0.72074 0.0
H85 H 0.54741 0.448 0.77276 0.0
H86 H 0.61798 0.52945 0.7627 0.0
H87 H 0.54112 0.40511 0.76923 0.0
C88 C 0.53764 0.40185 0.75318 0.0
C89 C 0.59569 0.47087 0.73468 0.0
C90 C 0.61197 0.49896 0.74045 0.0
C91 C 0.57276 0.45192 0.74659 0.0
C92 C 0.56605 0.46168 0.76417 0.0
C93 C 0.58214 0.48962 0.7701 0.0
C94 C 0.60532 0.50784 0.75829 0.0
N95 N 0.55539 0.42381 0.73996 0.0
H96 H 0.56506 0.1489 0.71472 0.0
H97 H 0.59195 0.11656 0.76292 0.0
H98 H 0.51411 0.11832 0.76785 0.0
H99 H 0.61187 0.10549 0.73644 0.0
C100 C 0.62129 0.12488 0.72824 0.0
C101 C 0.5614 0.13956 0.72942 0.0
C102 C 0.53679 0.13371 0.74015 0.0
C103 C 0.58106 0.13282 0.73729 0.0
C104 C 0.57654 0.12117 0.75656 0.0
C105 C 0.55252 0.11594 0.76785 0.0
C106 C 0.5325 0.12183 0.7593 0.0
N107 N 0.60572 0.13899 0.72594 0.0
H108 H 0.75578 0.53554 0.98529 0.0
H109 H 0.80802 0.54702 0.93393 0.0
H110 H 0.73917 0.56397 0.92998 0.0
H111 H 0.80543 0.50412 0.95459 0.0
C112 C 0.81547 0.51991 0.96616 0.0
C113 C 0.76034 0.54044 0.96956 0.0
C114 C 0.74376 0.54835 0.95829 0.0
C115 C 0.78338 0.53962 0.96076 0.0
C116 C 0.78992 0.5471 0.94054 0.0
C117 C 0.77429 0.55619 0.9292 0.0
C118 C 0.75101 0.55637 0.93823 0.0
N119 N 0.80172 0.53446 0.97296 0.0
H120 H 0.47949 0.23239 0.97665 0.0
H121 H 0.43542 0.23914 0.92572 0.0
H122 H 0.43727 0.16422 0.93472 0.0
H123 H 0.47048 0.28339 0.9269 0.0
C124 C 0.4725 0.28804 0.94284 0.0
C125 C 0.46739 0.2233 0.96309 0.0
C126 C 0.459 0.19572 0.95757 0.0
C127 C 0.4603 0.23961 0.95115 0.0
C128 C 0.44294 0.22759 0.93419 0.0
C129 C 0.43411 0.2002 0.92849 0.0
C130 C 0.44288 0.18478 0.93991 0.0
N131 N 0.47013 0.26773 0.95676 0.0
H132 H 0.79829 0.25764 0.98374 0.0
H133 H 0.76245 0.20607 0.9313 0.0
H134 H 0.84735 0.27525 0.92962 0.0
H135 H 0.74608 0.17277 0.95834 0.0
C136 C 0.73688 0.18264 0.96725 0.0
C137 C 0.80014 0.25299 0.96822 0.0
C138 C 0.82569 0.26936 0.95783 0.0
C139 C 0.77753 0.22952 0.95899 0.0
C140 C 0.77999 0.22358 0.93878 0.0
C141 C 0.80516 0.24004 0.92818 0.0
C142 C 0.8279 0.26261 0.93785 0.0
N143 N 0.75271 0.21192 0.97025 0.0
H144 H 0.54706 0.75239 0.05613 0.0
H145 H 0.57702 0.81486 0.10246 0.0
H146 H 0.59342 0.74767 0.10687 0.0
H147 H 0.54182 0.82083 0.09221 0.0
C148 C 0.54183 0.8185 0.07605 0.0
C149 C 0.55752 0.7603 0.07043 0.0
C150 C 0.57012 0.74697 0.08045 0.0
C151 C 0.55919 0.78445 0.07847 0.0
C152 C 0.57421 0.79558 0.09649 0.0
C153 C 0.58639 0.78228 0.10682 0.0
C154 C 0.5838 0.7578 0.09892 0.0
N155 N 0.54721 0.79808 0.06757 0.0
H156 H 0.26123 0.80332 0.0539 0.0
H157 H 0.21051 0.77979 0.10723 0.0
H158 H 0.2893 0.85716 0.1056 0.0
H159 H 0.19267 0.73684 0.09484 0.0
C160 C 0.19261 0.73903 0.0787 0.0
C161 C 0.25814 0.80779 0.06921 0.0
C162 C 0.27846 0.83266 0.0785 0.0
C163 C 0.23378 0.78843 0.07947 0.0
C164 C 0.22937 0.79435 0.09922 0.0
C165 C 0.2493 0.81911 0.10879 0.0
C166 C 0.27376 0.83813 0.09829 0.0
N167 N 0.21394 0.76361 0.06931 0.0
H168 H 0.23279 0.48063 0.04652 0.0
H169 H 0.26063 0.45573 0.09869 0.0
H170 H 0.18313 0.45864 0.10048 0.0
H171 H 0.30748 0.50059 0.07933 0.0
C172 C 0.3016 0.48557 0.06722 0.0
C173 C 0.22963 0.47401 0.06201 0.0
C174 C 0.20561 0.47057 0.07244 0.0
C175 C 0.2497 0.46898 0.07144 0.0
C176 C 0.24542 0.46 0.09148 0.0
C177 C 0.22133 0.45609 0.10207 0.0
C178 C 0.20165 0.46148 0.0924 0.0
N179 N 0.27301 0.4713 0.06019 0.0
H180 H 0.42173 0.86577 0.31951 0.0
H181 H 0.47569 0.88775 0.26789 0.0
H182 H 0.40558 0.90291 0.26852 0.0
H183 H 0.50883 0.9015 0.29544 0.0
C184 C 0.4982 0.88132 0.30262 0.0
C185 C 0.42694 0.87395 0.30444 0.0
C186 C 0.41051 0.88358 0.29494 0.0
C187 C 0.45093 0.87609 0.29495 0.0
C188 C 0.45778 0.88702 0.2755 0.0
C189 C 0.44157 0.89668 0.26567 0.0
C190 C 0.41784 0.89482 0.27557 0.0
N191 N 0.46822 0.86756 0.30519 0.0
H192 H 0.13638 0.55169 0.31687 0.0
H193 H 0.1017 0.5777 0.26918 0.0
H194 H 0.11149 0.50665 0.2612 0.0
H195 H 0.09542 0.60224 0.29242 0.0
C196 C 0.11139 0.60713 0.30388 0.0
C197 C 0.12709 0.54848 0.30205 0.0
C198 C 0.12544 0.52727 0.2897 0.0
C199 C 0.11797 0.56648 0.29503 0.0
C200 C 0.10729 0.56317 0.27531 0.0
C201 C 0.10522 0.54179 0.26292 0.0
C202 C 0.11366 0.52362 0.27049 0.0
N203 N 0.12196 0.58884 0.30765 0.0
H204 H 0.46078 0.57712 0.31346 0.0
H205 H 0.43328 0.52148 0.26341 0.0
H206 H 0.51877 0.59109 0.26519 0.0
H207 H 0.41164 0.48993 0.29051 0.0
C208 C 0.40217 0.50076 0.29785 0.0
C209 C 0.46544 0.57118 0.2991 0.0
C210 C 0.49231 0.58744 0.29027 0.0
C211 C 0.4446 0.54686 0.28984 0.0
C212 C 0.45012 0.53939 0.27097 0.0
C213 C 0.47681 0.5551 0.26171 0.0
C214 C 0.49779 0.57921 0.27159 0.0
N215 N 0.41824 0.53019 0.29977 0.0
Eu216 Eu 0.49246 0.99835 0.99035 0.0
C217 C 0.55575 0.08004 0.05957 0.0
C218 C 0.60393 0.08902 0.05566 0.0
C219 C 0.59569 0.12515 0.06865 0.0
C220 C 0.57435 0.07098 0.05377 0.0
C221 C 0.56631 0.10693 0.06761 0.0
C222 C 0.61443 0.11625 0.06266 0.0
C223 C 0.51804 0.09512 0.07479 0.0
N224 N 0.52736 0.06218 0.05837 0.0
C225 C 0.50853 0.0687 0.06676 0.0
C226 C 0.54702 0.11449 0.0749 0.0
Eu227 Eu 0.51342 0.01892 0.04324 0.0
N228 N 0.56368 0.04448 0.04691 0.0
C229 C 0.58153 0.03432 0.0433 0.0
C230 C 0.62218 0.0791 0.05077 0.0
C231 C 0.61091 0.05154 0.04489 0.0
H232 H 0.48608 0.05375 0.06654 0.0
H233 H 0.62489 0.04354 0.04144 0.0
H234 H 0.63707 0.13041 0.06394 0.0
H235 H 0.50303 0.10054 0.08086 0.0
H236 H 0.57377 0.01323 0.03867 0.0
H237 H 0.37959 0.96561 0.99359 0.0
H238 H 0.64499 0.09238 0.05189 0.0
H239 H 0.52326 0.9694 0.96454 0.0
H240 H 0.43091 0.99839 0.99615 0.0
H241 H 0.51 0.92502 0.94737 0.0
H242 H 0.60416 0.14599 0.07453 0.0
H243 H 0.36213 0.9175 0.98199 0.0
H244 H 0.37329 0.88214 0.96793 0.0
H245 H 0.55434 0.13494 0.08117 0.0
H246 H 0.40887 0.87104 0.95522 0.0
N247 N 0.44266 0.96889 0.98701 0.0
C248 C 0.4237 0.97749 0.99111 0.0
C249 C 0.38475 0.93178 0.98319 0.0
C250 C 0.4043 0.92371 0.97759 0.0
C251 C 0.39452 0.95894 0.98967 0.0
C252 C 0.4335 0.94305 0.97962 0.0
H253 H 0.45988 0.88718 0.94698 0.0
N254 N 0.48119 0.95642 0.9739 0.0
C255 C 0.49389 0.92792 0.95459 0.0
C256 C 0.45344 0.93663 0.97278 0.0
C257 C 0.50133 0.953 0.96426 0.0
C258 C 0.4656 0.90658 0.95447 0.0
C259 C 0.44486 0.91095 0.96331 0.0
O260 O 0.51526 0.014 0.96208 0.0
O261 O 0.52605 0.02808 0.01124 0.0
O262 O 0.50718 0.05222 0.02907 0.0
O263 O 0.48147 0.03132 0.99985 0.0
O264 O 0.53986 0.01486 0.9872 0.0
O265 O 0.47847 0.01782 0.96827 0.0
O266 O 0.49286 0.98147 0.06187 0.0
O267 O 0.47951 0.99022 0.02247 0.0
O268 O 0.49873 0.96482 1.00458 0.0
O269 O 0.5259 0.98744 0.03313 0.0
O270 O 0.46721 0.00759 0.04475 0.0
O271 O 0.51895 0.02097 0.07587 0.0
C272 C 0.54797 0.03112 1.0026 0.0
C273 C 0.48728 0.01189 0.9344 0.0
C274 C 0.49183 0.0208 0.89825 0.0
C275 C 0.50099 0.02962 0.91814 0.0
C276 C 0.46879 0.99383 0.89508 0.0
C277 C 0.46414 0.98534 0.93076 0.0
C278 C 0.45504 0.97638 0.91122 0.0
C279 C 0.49239 0.05174 0.01323 0.0
C280 C 0.4975 0.02106 0.95504 0.0
C281 C 0.41587 0.89104 0.96219 0.0
C282 C 0.39562 0.89738 0.9694 0.0
C283 C 0.45812 0.98918 0.0306 0.0
C284 C 0.4803 0.98757 0.09479 0.0
C285 C 0.48247 0.97563 0.1128 0.0
C286 C 0.46268 0.96952 0.12844 0.0
C287 C 0.44053 0.97522 0.12553 0.0
C288 C 0.45823 0.99343 0.09259 0.0
C289 C 0.43838 0.98703 0.10775 0.0
C290 C 0.51451 0.96634 0.02025 0.0
C291 C 0.50165 0.99475 0.07878 0.0
H292 H 0.51855 0.0503 0.92107 0.0
H293 H 0.46154 0.98594 0.88009 0.0
H294 H 0.45311 0.97152 0.943 0.0
H295 H 0.43733 0.95573 0.90855 0.0
H296 H 0.49961 0.97126 0.11464 0.0
H297 H 0.4253 0.97141 0.13726 0.0
H298 H 0.4564 0.00337 0.07937 0.0
H299 H 0.42153 0.99176 0.10588 0.0
Eu300 Eu 0.03227 0.50813 0.99026 0.0
C301 C 0.93144 0.45996 0.05053 0.0
C302 C 0.91048 0.48933 0.04986 0.0
C303 C 0.88109 0.44023 0.05717 0.0
C304 C 0.9341 0.48568 0.04738 0.0
C305 C 0.90498 0.43701 0.05569 0.0
C306 C 0.88388 0.46638 0.05441 0.0
C307 C 0.92818 0.40998 0.05928 0.0
N308 N 0.95504 0.45767 0.04941 0.0
C309 C 0.95403 0.43343 0.05442 0.0
C310 C 0.90349 0.4117 0.05973 0.0
Eu311 Eu 0.99758 0.49794 0.03985 0.0
N312 N 0.96015 0.50751 0.04325 0.0
C313 C 0.96453 0.53384 0.0431 0.0
C314 C 0.9145 0.5161 0.04839 0.0
C315 C 0.94175 0.53851 0.04536 0.0
H316 H 0.97303 0.43195 0.054 0.0
H317 H 0.94522 0.55938 0.04472 0.0
H318 H 0.86543 0.46874 0.05618 0.0
H319 H 0.92733 0.39062 0.06269 0.0
H320 H 0.98557 0.55128 0.04081 0.0
H321 H 0.07897 0.44127 0.99502 0.0
H322 H 0.89688 0.51977 0.05014 0.0
H323 H 0.05925 0.56946 0.96789 0.0
H324 H 0.04075 0.45243 0.99562 0.0
H325 H 0.1056 0.60728 0.9561 0.0
H326 H 0.86054 0.42281 0.06099 0.0
H327 H 0.12816 0.4778 0.98753 0.0
H328 H 0.16184 0.52703 0.9774 0.0
H329 H 0.88352 0.39354 0.06362 0.0
H330 H 0.16922 0.57248 0.96697 0.0
N331 N 0.06779 0.49521 0.98907 0.0
C332 C 0.06195 0.46865 0.99223 0.0
C333 C 0.11139 0.48286 0.98774 0.0
C334 C 0.11697 0.50963 0.98331 0.0
C335 C 0.08366 0.46218 0.99193 0.0
C336 C 0.09438 0.51514 0.98397 0.0
H337 H 0.14826 0.6025 0.95865 0.0
N338 N 0.07587 0.54434 0.97788 0.0
C339 C 0.10401 0.58874 0.96247 0.0
C340 C 0.0986 0.54065 0.97832 0.0
C341 C 0.07783 0.56734 0.96917 0.0
C342 C 0.12804 0.586 0.96399 0.0
C343 C 0.12542 0.56146 0.97157 0.0
O344 O 0.01775 0.51317 0.96092 0.0
O345 O 0.99611 0.50589 0.00741 0.0
O346 O 0.96859 0.46222 0.01937 0.0
O347 O 1.00321 0.46274 0.99889 0.0
O348 O 0.01193 0.53455 0.98453 0.0
O349 O 0.0183 0.47554 0.96751 0.0
O350 O 0.01042 0.49075 0.0691 0.0
O351 O 0.03522 0.50298 0.02309 0.0
O352 O 0.05858 0.54799 0.00764 0.0
O353 O 0.02759 0.54431 0.03358 0.0
O354 O 0.02014 0.47341 0.04519 0.0
O355 O 0.0077 0.52784 0.06418 0.0
C356 C 0.99316 0.52421 0.99848 0.0
C357 C 0.02626 0.491 0.93408 0.0
C358 C 0.01939 0.48259 0.89812 0.0
C359 C 0.00821 0.48061 0.91741 0.0
C360 C 0.04892 0.49508 0.89574 0.0
C361 C 0.05564 0.50311 0.9315 0.0
C362 C 0.06689 0.50515 0.91239 0.0
C363 C 0.97728 0.45001 0.00649 0.0
C364 C 0.01413 0.4898 0.9539 0.0
C365 C 0.14836 0.55665 0.97186 0.0
C366 C 0.14415 0.53076 0.97776 0.0
C367 C 0.03998 0.48593 0.03218 0.0
C368 C 1.0001 0.50985 0.09712 0.0
C369 C 0.01787 0.51595 0.11381 0.0
C370 C 1.00683 0.51111 0.13339 0.0
C371 C 0.97757 0.50085 0.13589 0.0
C372 C 0.97104 0.49963 0.09987 0.0
C373 C 0.9599 0.49535 0.11922 0.0
C374 C 0.05103 0.55854 0.0227 0.0
C375 C 0.01238 0.51305 0.07708 0.0
H376 H 0.9855 0.47145 0.91942 0.0
H377 H 0.05805 0.49671 0.88105 0.0
H378 H 0.06984 0.51105 0.94419 0.0
H379 H 0.08959 0.51458 0.91048 0.0
H380 H 0.04038 0.52431 0.11141 0.0
H381 H 0.96815 0.49644 0.15066 0.0
H382 H 0.957 0.49475 0.08715 0.0
H383 H 0.93741 0.48728 0.12131 0.0
Eu384 Eu 0.53298 0.50795 0.03656 0.0
C385 C 0.48208 0.56416 0.9832 0.0
C386 C 0.43145 0.53245 0.98134 0.0
C387 C 0.44987 0.58213 0.97951 0.0
C388 C 0.45934 0.5374 0.98368 0.0
C389 C 0.47766 0.58683 0.9808 0.0
C390 C 0.42681 0.55497 0.97966 0.0
C391 C 0.52851 0.61687 0.97942 0.0
N392 N 0.50864 0.56791 0.98407 0.0
C393 C 0.53181 0.5937 0.98154 0.0
C394 C 0.50132 0.61345 0.9792 0.0
Eu395 Eu 0.51256 0.52785 0.989 0.0
N396 N 0.46463 0.51614 0.98493 0.0
C397 C 0.44324 0.48944 0.98224 0.0
C398 C 0.40918 0.50501 0.97998 0.0
C399 C 0.41518 0.48344 0.98005 0.0
H400 H 0.5529 0.59653 0.9818 0.0
H401 H 0.39821 0.46217 0.97848 0.0
H402 H 0.40551 0.55158 0.97805 0.0
H403 H 0.54694 0.63733 0.97793 0.0
H404 H 0.44761 0.47259 0.98227 0.0
H405 H 0.64726 0.57656 0.04565 0.0
H406 H 0.38744 0.50031 0.97826 0.0
H407 H 0.49424 0.4403 0.04674 0.0
H408 H 0.59761 0.56465 0.0412 0.0
H409 H 0.50123 0.40075 0.05397 0.0
H410 H 0.44602 0.59928 0.97782 0.0
H411 H 0.65914 0.53938 0.04899 0.0
H412 H 0.64217 0.48856 0.05233 0.0
H413 H 0.49882 0.63142 0.9774 0.0
H414 H 0.60239 0.4406 0.05443 0.0
N415 N 0.58137 0.5211 0.04076 0.0
C416 C 0.60238 0.54817 0.04237 0.0
C417 C 0.63726 0.53402 0.04684 0.0
C418 C 0.61542 0.50633 0.04667 0.0
C419 C 0.63064 0.55504 0.045 0.0
C420 C 0.58732 0.50048 0.04366 0.0
H421 H 0.54975 0.40768 0.05531 0.0
N422 N 0.53829 0.46923 0.0437 0.0
C423 C 0.51938 0.42111 0.05142 0.0
C424 C 0.56503 0.47364 0.04514 0.0
C425 C 0.5155 0.44358 0.04737 0.0
C426 C 0.54678 0.42509 0.0521 0.0
C427 C 0.57007 0.4517 0.04932 0.0
O428 O 0.51448 0.49407 0.06646 0.0
O429 O 0.4998 0.51217 0.02007 0.0
O430 O 0.51714 0.55819 0.01334 0.0
O431 O 0.55008 0.55465 0.03339 0.0
O432 O 0.4852 0.47924 0.03944 0.0
O433 O 0.54429 0.5374 0.0612 0.0
O434 O 0.53488 0.54241 0.96046 0.0
O435 O 0.54539 0.52201 1.00499 0.0
O436 O 0.52527 0.47509 0.01303 0.0
O437 O 0.49563 0.48134 0.99103 0.0
O438 O 0.56026 0.55624 0.98667 0.0
O439 O 0.4973 0.50191 0.96214 0.0
C440 C 0.4776 0.49184 0.02699 0.0
C441 C 0.54228 0.52133 0.09408 0.0
C442 C 0.54151 0.5263 0.13041 0.0
C443 C 0.52789 0.52105 0.11166 0.0
C444 C 0.56949 0.53153 0.13145 0.0
C445 C 0.57008 0.52609 0.09546 0.0
C446 C 0.58357 0.53118 0.11407 0.0
C447 C 0.53734 0.56824 0.0271 0.0
C448 C 0.52887 0.51875 0.0744 0.0
C449 C 0.59807 0.45719 0.05134 0.0
C450 C 0.6207 0.48449 0.05015 0.0
C451 C 0.56765 0.54252 0.99823 0.0
C452 C 0.50692 0.52525 0.93119 0.0
C453 C 0.51944 0.5235 0.91319 0.0
C454 C 0.51075 0.52894 0.89469 0.0
C455 C 0.48903 0.5356 0.89451 0.0
C456 C 0.48539 0.53202 0.9306 0.0
C457 C 0.47644 0.53704 0.91233 0.0
C458 C 0.50695 0.46672 0.99789 0.0
C459 C 0.51671 0.52041 0.9505 0.0
H460 H 0.50639 0.51735 0.11073 0.0
H461 H 0.58027 0.5355 0.14577 0.0
H462 H 0.58152 0.52632 0.08217 0.0
H463 H 0.60509 0.53504 0.11501 0.0
H464 H 0.53631 0.51857 0.91364 0.0
H465 H 0.48168 0.53961 0.88052 0.0
H466 H 0.47553 0.53347 0.94424 0.0
H467 H 0.45976 0.5422 0.91199 0.0
Eu468 Eu 0.15654 0.32289 0.32035 0.0
C469 C 0.21155 0.41295 0.38786 0.0
C470 C 0.26037 0.42344 0.38874 0.0
C471 C 0.24898 0.45909 0.39752 0.0
C472 C 0.23136 0.40472 0.38509 0.0
C473 C 0.22002 0.44005 0.39454 0.0
C474 C 0.26912 0.45081 0.39459 0.0
C475 C 0.1705 0.42679 0.39632 0.0
N476 N 0.18379 0.39401 0.38494 0.0
C477 C 0.16317 0.40013 0.38981 0.0
C478 C 0.19908 0.44696 0.39847 0.0
Eu479 Eu 0.17298 0.34982 0.37273 0.0
N480 N 0.22216 0.37812 0.37944 0.0
C481 C 0.24066 0.36836 0.37851 0.0
C482 C 0.27963 0.41394 0.38672 0.0
C483 C 0.26967 0.38618 0.38183 0.0
H484 H 0.14105 0.38461 0.38807 0.0
H485 H 0.28433 0.37851 0.38052 0.0
H486 H 0.29134 0.46556 0.39729 0.0
H487 H 0.15412 0.43177 0.39965 0.0
H488 H 0.23333 0.34702 0.37463 0.0
H489 H 0.04533 0.29157 0.30795 0.0
H490 H 0.30211 0.4277 0.38927 0.0
H491 H 0.19113 0.28988 0.30678 0.0
H492 H 0.09582 0.3241 0.31538 0.0
H493 H 0.1801 0.24327 0.2953 0.0
H494 H 0.25595 0.48009 0.40247 0.0
H495 H 0.02919 0.2424 0.3002 0.0
H496 H 0.04175 0.20542 0.29363 0.0
H497 H 0.20471 0.46757 0.40358 0.0
H498 H 0.07845 0.1923 0.29002 0.0
N499 N 0.108 0.2935 0.31252 0.0
C500 C 0.08907 0.30272 0.31198 0.0
C501 C 0.05138 0.25659 0.30347 0.0
C502 C 0.07127 0.24774 0.30271 0.0
C503 C 0.06042 0.28434 0.30778 0.0
C504 C 0.09985 0.26701 0.30722 0.0
H505 H 0.13015 0.20641 0.29026 0.0
N506 N 0.14788 0.27922 0.30856 0.0
C507 C 0.16311 0.24757 0.29807 0.0
C508 C 0.12045 0.25965 0.30511 0.0
C509 C 0.1693 0.27394 0.30451 0.0
C510 C 0.13488 0.2268 0.2953 0.0
C511 C 0.11314 0.2328 0.29853 0.0
O512 O 0.18332 0.33603 0.2937 0.0
O513 O 0.18848 0.35397 0.34137 0.0
O514 O 0.17211 0.38291 0.35376 0.0
O515 O 0.14538 0.35674 0.32609 0.0
O516 O 0.2037 0.33723 0.32077 0.0
O517 O 0.14671 0.34143 0.29498 0.0
O518 O 0.14649 0.33674 0.39955 0.0
O519 O 0.14062 0.31924 0.3516 0.0
O520 O 0.15464 0.28914 0.33994 0.0
O521 O 0.18385 0.31575 0.36631 0.0
O522 O 0.12629 0.33682 0.37243 0.0
O523 O 0.1826 0.33072 0.39785 0.0
C524 C 0.21089 0.35539 0.33491 0.0
C525 C 0.1619 0.33594 0.26288 0.0
C526 C 0.16748 0.34909 0.22744 0.0
C527 C 0.17235 0.35646 0.24794 0.0
C528 C 0.1519 0.32077 0.22227 0.0
C529 C 0.1464 0.30792 0.25731 0.0
C530 C 0.14146 0.30043 0.2371 0.0
C531 C 0.15752 0.37972 0.33712 0.0
C532 C 0.16785 0.34407 0.28414 0.0
C533 C 0.08454 0.21313 0.2949 0.0
C534 C 0.06365 0.22059 0.29696 0.0
C535 C 0.11879 0.31923 0.35787 0.0
C536 C 0.169 0.33777 0.43003 0.0
C537 C 0.15906 0.31809 0.44556 0.0
C538 C 0.16488 0.32666 0.4658 0.0
C539 C 0.18097 0.35521 0.47014 0.0
C540 C 0.18511 0.36605 0.43479 0.0
C541 C 0.19102 0.37468 0.45474 0.0
C542 C 0.17056 0.29233 0.3558 0.0
C543 C 0.16199 0.32866 0.409 0.0
H544 H 0.18456 0.37811 0.25231 0.0
H545 H 0.1473 0.31429 0.20674 0.0
H546 H 0.13819 0.29187 0.26856 0.0
H547 H 0.12941 0.27874 0.2329 0.0
H548 H 0.14648 0.29622 0.44189 0.0
H549 H 0.1862 0.3625 0.48547 0.0
H550 H 0.19303 0.38147 0.42312 0.0
H551 H 0.2035 0.39656 0.45828 0.0
Eu552 Eu 0.69228 0.8299 0.32567 0.0
C553 C 0.59282 0.78729 0.38866 0.0
C554 C 0.57388 0.81805 0.3848 0.0
C555 C 0.54325 0.77087 0.39624 0.0
C556 C 0.59657 0.81276 0.38327 0.0
C557 C 0.56637 0.76632 0.39583 0.0
C558 C 0.54701 0.79672 0.39072 0.0
C559 C 0.58855 0.73945 0.40412 0.0
N560 N 0.6157 0.78384 0.38849 0.0
C561 C 0.61436 0.76101 0.39705 0.0
C562 C 0.56429 0.7419 0.40318 0.0
Eu563 Eu 0.65862 0.82044 0.37563 0.0
N564 N 0.6229 0.83295 0.37787 0.0
C565 C 0.62847 0.85956 0.37542 0.0
C566 C 0.57914 0.84488 0.38105 0.0
C567 C 0.60668 0.86582 0.3767 0.0
H568 H 0.63313 0.75914 0.39785 0.0
H569 H 0.61117 0.88681 0.37427 0.0
H570 H 0.52925 0.80028 0.39173 0.0
H571 H 0.5874 0.72102 0.41033 0.0
H572 H 0.64953 0.87602 0.37193 0.0
H573 H 0.73397 0.75895 0.3303 0.0
H574 H 0.5623 0.8498 0.38202 0.0
H575 H 0.72339 0.8941 0.307 0.0
H576 H 0.69709 0.77212 0.33049 0.0
H577 H 0.77142 0.9313 0.29729 0.0
H578 H 0.52267 0.7549 0.40146 0.0
H579 H 0.78404 0.79441 0.32422 0.0
H580 H 0.81984 0.84372 0.31581 0.0
H581 H 0.54436 0.72528 0.40882 0.0
H582 H 0.8301 0.89068 0.30702 0.0
N583 N 0.72594 0.81485 0.32497 0.0
C584 C 0.71877 0.78783 0.32768 0.0
C585 C 0.76791 0.80034 0.32421 0.0
C586 C 0.7749 0.8277 0.32038 0.0
C587 C 0.73966 0.78025 0.32761 0.0
C588 C 0.75312 0.83437 0.32073 0.0
H589 H 0.81215 0.92344 0.29983 0.0
N590 N 0.73724 0.86612 0.31549 0.0
C591 C 0.76823 0.91163 0.3026 0.0
C592 C 0.75897 0.86085 0.31593 0.0
C593 C 0.74114 0.89059 0.30804 0.0
C594 C 0.79118 0.90714 0.30411 0.0
C595 C 0.78664 0.88133 0.31047 0.0
O596 O 0.68142 0.83921 0.29635 0.0
O597 O 0.65504 0.82536 0.34275 0.0
O598 O 0.63136 0.7803 0.35879 0.0
O599 O 0.65993 0.78394 0.33127 0.0
O600 O 0.67099 0.85544 0.32068 0.0
O601 O 0.68139 0.80072 0.30076 0.0
O602 O 0.67385 0.81511 0.4046 0.0
O603 O 0.6953 0.82446 0.35834 0.0
O604 O 0.72012 0.86863 0.34411 0.0
O605 O 0.68709 0.86613 0.36741 0.0
O606 O 0.68061 0.7954 0.38077 0.0
O607 O 0.67212 0.85237 0.39883 0.0
C608 C 0.65125 0.84317 0.33383 0.0
C609 C 0.69376 0.82128 0.26868 0.0
C610 C 0.69422 0.82633 0.23241 0.0
C611 C 0.67973 0.82027 0.25077 0.0
C612 C 0.72278 0.83318 0.23211 0.0
C613 C 0.72215 0.82768 0.26807 0.0
C614 C 0.73656 0.83361 0.24986 0.0
C615 C 0.6375 0.76975 0.34301 0.0
C616 C 0.67898 0.81699 0.28789 0.0
C617 C 0.80863 0.87513 0.31094 0.0
C618 C 0.80278 0.84838 0.31591 0.0
C619 C 0.69994 0.80727 0.3673 0.0
C620 C 0.66602 0.83665 0.43222 0.0
C621 C 0.68476 0.84513 0.44853 0.0
C622 C 0.67479 0.84344 0.4682 0.0
C623 C 0.64561 0.83289 0.47128 0.0
C624 C 0.63703 0.82633 0.43551 0.0
C625 C 0.62691 0.82445 0.45499 0.0
C626 C 0.71192 0.8799 0.35818 0.0
C627 C 0.67718 0.83819 0.41199 0.0
H628 H 0.65782 0.81543 0.25116 0.0
H629 H 0.7343 0.83789 0.21812 0.0
H630 H 0.73322 0.82824 0.28162 0.0
H631 H 0.75851 0.83869 0.24952 0.0
H632 H 0.70709 0.85271 0.44588 0.0
H633 H 0.63732 0.83157 0.48623 0.0
H634 H 0.6223 0.81975 0.42309 0.0
H635 H 0.60451 0.81649 0.45748 0.0
Eu636 Eu 0.20391 0.84942 0.38376 0.0
C637 C 0.14844 0.88668 0.32128 0.0
C638 C 0.09768 0.85664 0.32414 0.0
C639 C 0.11697 0.90501 0.3152 0.0
C640 C 0.12548 0.86112 0.32574 0.0
C641 C 0.14446 0.90878 0.31548 0.0
C642 C 0.09359 0.87891 0.31941 0.0
C643 C 0.19452 0.93542 0.30814 0.0
N644 N 0.17458 0.88934 0.32129 0.0
C645 C 0.19729 0.91274 0.31371 0.0
C646 C 0.16807 0.93362 0.30937 0.0
Eu647 Eu 0.17808 0.85079 0.33289 0.0
N648 N 0.13024 0.84003 0.32994 0.0
C649 C 0.10811 0.81344 0.33088 0.0
C650 C 0.07486 0.82967 0.3264 0.0
C651 C 0.08013 0.80787 0.32926 0.0
H652 H 0.21785 0.91438 0.31277 0.0
H653 H 0.06265 0.78681 0.33048 0.0
H654 H 0.0724 0.87596 0.31834 0.0
H655 H 0.21277 0.95426 0.30287 0.0
H656 H 0.11195 0.79646 0.3333 0.0
H657 H 0.2365 0.94075 0.43131 0.0
H658 H 0.05317 0.82534 0.32528 0.0
H659 H 0.24073 0.81785 0.37171 0.0
H660 H 0.20283 0.8983 0.41289 0.0
H661 H 0.28962 0.82661 0.3739 0.0
H662 H 0.11348 0.92182 0.31101 0.0
H663 H 0.28761 0.95577 0.43183 0.0
H664 H 0.32652 0.94603 0.42261 0.0
H665 H 0.16593 0.95114 0.3049 0.0
H666 H 0.34092 0.91484 0.40713 0.0
N667 N 0.23474 0.89006 0.4023 0.0
C668 C 0.2251 0.90469 0.41298 0.0
C669 C 0.27294 0.93718 0.42365 0.0
C670 C 0.28235 0.921 0.41391 0.0
C671 C 0.2441 0.92875 0.42342 0.0
C672 C 0.2624 0.89705 0.40343 0.0
H673 H 0.32725 0.87009 0.38923 0.0
N674 N 0.25035 0.8561 0.38553 0.0
C675 C 0.28456 0.84175 0.37974 0.0
C676 C 0.27044 0.8795 0.39477 0.0
C677 C 0.2568 0.83685 0.37856 0.0
C678 C 0.30574 0.86631 0.3884 0.0
C679 C 0.29876 0.8854 0.3963 0.0
O680 O 0.20484 0.81888 0.40376 0.0
O681 O 0.16554 0.83783 0.36453 0.0
O682 O 0.18894 0.89046 0.35016 0.0
O683 O 0.22258 0.89375 0.37341 0.0
O684 O 0.16916 0.85897 0.3911 0.0
O685 O 0.17738 0.83508 0.4106 0.0
O686 O 0.20008 0.85307 0.30487 0.0
O687 O 0.21218 0.84956 0.35106 0.0
O688 O 0.1931 0.80972 0.367 0.0
O689 O 0.1606 0.80596 0.34287 0.0
O690 O 0.22517 0.87768 0.32761 0.0
O691 O 0.15695 0.82052 0.30877 0.0
C692 C 0.15356 0.84737 0.3756 0.0
C693 C 0.19829 0.82541 0.43834 0.0
C694 C 0.19456 0.83825 0.47309 0.0
C695 C 0.18575 0.8345 0.45282 0.0
C696 C 0.21613 0.83263 0.47856 0.0
C697 C 0.21983 0.82015 0.44438 0.0
C698 C 0.22867 0.82382 0.46431 0.0
C699 C 0.2103 0.90477 0.36273 0.0
C700 C 0.18849 0.82075 0.41714 0.0
C701 C 0.31901 0.90982 0.40599 0.0
C702 C 0.31082 0.92759 0.41478 0.0
C703 C 0.2336 0.86818 0.34191 0.0
C704 C 0.17129 0.83828 0.2761 0.0
C705 C 0.18575 0.83587 0.25948 0.0
C706 C 0.18037 0.84195 0.24004 0.0
C707 C 0.1602 0.85044 0.23757 0.0
C708 C 0.15134 0.84686 0.27327 0.0
C709 C 0.14582 0.85282 0.25408 0.0
C710 C 0.17299 0.79509 0.35367 0.0
C711 C 0.17797 0.83277 0.29634 0.0
H712 H 0.16928 0.83881 0.44825 0.0
H713 H 0.22306 0.83449 0.49398 0.0
H714 H 0.22981 0.81303 0.43373 0.0
H715 H 0.24517 0.81952 0.4688 0.0
H716 H 0.20105 0.82912 0.26174 0.0
H717 H 0.15586 0.85573 0.22291 0.0
H718 H 0.14012 0.84905 0.28587 0.0
H719 H 0.13049 0.85954 0.25201 0.0
Eu720 Eu 0.82644 0.66004 0.65883 0.0
C721 C 0.88131 0.75451 0.72161 0.0
C722 C 0.93147 0.76955 0.71986 0.0
C723 C 0.91656 0.80295 0.72754 0.0
C724 C 0.90277 0.74839 0.71813 0.0
C725 C 0.88808 0.78172 0.72685 0.0
C726 C 0.93819 0.79689 0.72406 0.0
C727 C 0.83817 0.76458 0.73235 0.0
N728 N 0.85389 0.73365 0.72098 0.0
C729 C 0.83249 0.73794 0.72725 0.0
C730 C 0.86604 0.78666 0.73183 0.0
Eu731 Eu 0.84625 0.69005 0.71004 0.0
N732 N 0.89574 0.72175 0.71388 0.0
C733 C 0.91644 0.71467 0.71315 0.0
C734 C 0.95265 0.76259 0.71772 0.0
C735 C 0.94507 0.73497 0.71474 0.0
H736 H 0.81086 0.72095 0.7275 0.0
H737 H 0.9613 0.72927 0.71359 0.0
H738 H 0.9601 0.81339 0.72513 0.0
H739 H 0.82107 0.76808 0.73664 0.0
H740 H 0.91155 0.69361 0.71101 0.0
H741 H 0.71105 0.61065 0.65206 0.0
H742 H 0.97489 0.77825 0.71884 0.0
H743 H 0.86652 0.63709 0.63784 0.0
H744 H 0.76003 0.64946 0.65557 0.0
H745 H 0.86247 0.59274 0.627 0.0
H746 H 0.92212 0.82402 0.73129 0.0
H747 H 0.70197 0.56278 0.64775 0.0
H748 H 0.72181 0.53118 0.64181 0.0
H749 H 0.8704 0.80729 0.73585 0.0
H750 H 0.76342 0.52626 0.63474 0.0
N751 N 0.77867 0.62391 0.65429 0.0
C752 C 0.75647 0.62874 0.6538 0.0
C753 C 0.72355 0.57977 0.6494 0.0
C754 C 0.74655 0.57529 0.64802 0.0
C755 C 0.7286 0.60675 0.65175 0.0
C756 C 0.7742 0.59817 0.65029 0.0
H757 H 0.81605 0.54932 0.62859 0.0
N758 N 0.82328 0.61865 0.64639 0.0
C759 C 0.844 0.59314 0.63252 0.0
C760 C 0.7974 0.59545 0.64616 0.0
C761 C 0.84624 0.6182 0.63866 0.0
C762 C 0.8178 0.56867 0.63352 0.0
C763 C 0.7939 0.56972 0.63989 0.0
O764 O 0.8493 0.67569 0.6306 0.0
O765 O 0.85833 0.69522 0.67783 0.0
O766 O 0.83409 0.71682 0.69169 0.0
O767 O 0.80712 0.68697 0.66569 0.0
O768 O 0.87447 0.68137 0.65565 0.0
O769 O 0.80938 0.67428 0.63497 0.0
O770 O 0.83195 0.65491 0.73066 0.0
O771 O 0.81302 0.65603 0.69116 0.0
O772 O 0.83827 0.63308 0.67679 0.0
O773 O 0.8653 0.6629 0.703 0.0
O774 O 0.79919 0.67409 0.71243 0.0
O775 O 0.85102 0.69629 0.74252 0.0
C776 C 0.88108 0.69952 0.66971 0.0
C777 C 0.82187 0.66993 0.60177 0.0
C778 C 0.82696 0.68011 0.56585 0.0
C779 C 0.83376 0.68892 0.58597 0.0
C780 C 0.80778 0.65186 0.56196 0.0
C781 C 0.80287 0.64193 0.59752 0.0
C782 C 0.79584 0.63301 0.57769 0.0
C783 C 0.81603 0.70977 0.67656 0.0
C784 C 0.82991 0.67967 0.62254 0.0
C785 C 0.76656 0.54631 0.63923 0.0
C786 C 0.74287 0.5491 0.64327 0.0
C787 C 0.79125 0.65489 0.69897 0.0
C788 C 0.81643 0.66049 0.76263 0.0
C789 C 0.81836 0.64649 0.77957 0.0
C790 C 0.79815 0.6382 0.79516 0.0
C791 C 0.77582 0.64388 0.79321 0.0
C792 C 0.7941 0.66608 0.7613 0.0
C793 C 0.77383 0.65759 0.7764 0.0
C794 C 0.85639 0.64025 0.6919 0.0
C795 C 0.83827 0.67004 0.74679 0.0
H796 H 0.8482 0.71058 0.58942 0.0
H797 H 0.80239 0.64417 0.54673 0.0
H798 H 0.79358 0.62701 0.60951 0.0
H799 H 0.78125 0.61134 0.57447 0.0
H800 H 0.83566 0.64223 0.78061 0.0
H801 H 0.76025 0.6385 0.80495 0.0
H802 H 0.79248 0.67739 0.74878 0.0
H803 H 0.75675 0.66211 0.77526 0.0
Eu804 Eu 0.3672 0.18041 0.66331 0.0
C805 C 0.26033 0.12048 0.71719 0.0
C806 C 0.23971 0.15013 0.71868 0.0
C807 C 0.20937 0.10013 0.72113 0.0
C808 C 0.26349 0.14669 0.71637 0.0
C809 C 0.23332 0.09696 0.71999 0.0
C810 C 0.21257 0.12667 0.72053 0.0
C811 C 0.25594 0.06921 0.72207 0.0
N812 N 0.28393 0.11817 0.71636 0.0
C813 C 0.28229 0.09317 0.71943 0.0
C814 C 0.23132 0.07108 0.7222 0.0
Eu815 Eu 0.32759 0.15959 0.71123 0.0
N816 N 0.29007 0.16894 0.71505 0.0
C817 C 0.29461 0.19512 0.71777 0.0
C818 C 0.24407 0.17705 0.71993 0.0
C819 C 0.2717 0.19963 0.71989 0.0
H820 H 0.30128 0.09165 0.71928 0.0
H821 H 0.27536 0.22051 0.72144 0.0
H822 H 0.19402 0.1289 0.72208 0.0
H823 H 0.25463 0.04935 0.72402 0.0
H824 H 0.31593 0.21268 0.71777 0.0
H825 H 0.41412 0.11375 0.65931 0.0
H826 H 0.22637 0.18059 0.72162 0.0
H827 H 0.39609 0.2471 0.65053 0.0
H828 H 0.37566 0.12443 0.66226 0.0
H829 H 0.4431 0.28693 0.64239 0.0
H830 H 0.1884 0.08228 0.72307 0.0
H831 H 0.46354 0.15155 0.65438 0.0
H832 H 0.49756 0.20233 0.6491 0.0
H833 H 0.21096 0.05251 0.72443 0.0
H834 H 0.50551 0.24952 0.64461 0.0
N835 N 0.40283 0.16806 0.65951 0.0
C836 C 0.39699 0.1412 0.65998 0.0
C837 C 0.44667 0.15639 0.6556 0.0
C838 C 0.45233 0.18372 0.65405 0.0
C839 C 0.41881 0.13501 0.65835 0.0
C840 C 0.42962 0.18891 0.65594 0.0
H841 H 0.48529 0.28122 0.64185 0.0
N842 N 0.41155 0.21923 0.6548 0.0
C843 C 0.44093 0.26696 0.64563 0.0
C844 C 0.43414 0.21537 0.65359 0.0
C845 C 0.41432 0.24433 0.65021 0.0
C846 C 0.46469 0.26366 0.64537 0.0
C847 C 0.46142 0.23752 0.64907 0.0
O848 O 0.35465 0.19197 0.6356 0.0
O849 O 0.32924 0.1745 0.68014 0.0
O850 O 0.30084 0.12808 0.68739 0.0
O851 O 0.33715 0.13336 0.66639 0.0
O852 O 0.34877 0.20887 0.66177 0.0
O853 O 0.35504 0.1534 0.63694 0.0
O854 O 0.33621 0.14581 0.7396 0.0
O855 O 0.36647 0.16779 0.6949 0.0
O856 O 0.39289 0.21514 0.68558 0.0
O857 O 0.35844 0.2067 0.70991 0.0
O858 O 0.35006 0.1344 0.71377 0.0
O859 O 0.3356 0.18436 0.73844 0.0
C860 C 0.3281 0.1953 0.67398 0.0
C861 C 0.36226 0.17484 0.60536 0.0
C862 C 0.35323 0.16704 0.56946 0.0
C863 C 0.34338 0.16243 0.58932 0.0
C864 C 0.3824 0.18443 0.56591 0.0
C865 C 0.39131 0.19194 0.60163 0.0
C866 C 0.40128 0.1967 0.58194 0.0
C867 C 0.31064 0.11888 0.67298 0.0
C868 C 0.35092 0.17017 0.62577 0.0
C869 C 0.48434 0.23272 0.64788 0.0
C870 C 0.4798 0.20585 0.6504 0.0
C871 C 0.37082 0.14934 0.70193 0.0
C872 C 0.32161 0.15915 0.76871 0.0
C873 C 0.33554 0.16077 0.7868 0.0
C874 C 0.32037 0.15278 0.80492 0.0
C875 C 0.29111 0.14338 0.80468 0.0
C876 C 0.29246 0.14983 0.7688 0.0
C877 C 0.27733 0.14203 0.78672 0.0
C878 C 0.38375 0.22269 0.70153 0.0
C879 C 0.33758 0.16644 0.74984 0.0
H880 H 0.3209 0.14948 0.59232 0.0
H881 H 0.39065 0.18819 0.55079 0.0
H882 H 0.40615 0.20166 0.61386 0.0
H883 H 0.42371 0.20993 0.57908 0.0
H884 H 0.35803 0.16772 0.78671 0.0
H885 H 0.27896 0.13734 0.81842 0.0
H886 H 0.28139 0.14851 0.75508 0.0
H887 H 0.25483 0.13486 0.78669 0.0
Eu888 Eu 0.86882 0.18728 0.70518 0.0
C889 C 0.79999 0.19984 0.63481 0.0
C890 C 0.75268 0.16122 0.64039 0.0
C891 C 0.75889 0.20326 0.62492 0.0
C892 C 0.78242 0.1734 0.64195 0.0
C893 C 0.78845 0.21479 0.62571 0.0
C894 C 0.74103 0.17653 0.63228 0.0
C895 C 0.83608 0.25028 0.61714 0.0
N896 N 0.82841 0.21036 0.63574 0.0
C897 C 0.84645 0.23459 0.62622 0.0
C898 C 0.80695 0.24054 0.61715 0.0
Eu899 Eu 0.84476 0.18338 0.65213 0.0
N900 N 0.79437 0.15918 0.64971 0.0
C901 C 0.77769 0.13187 0.65472 0.0
C902 C 0.73553 0.13382 0.64664 0.0
C903 C 0.74813 0.11896 0.65353 0.0
H904 H 0.86903 0.24216 0.62626 0.0
H905 H 0.73507 0.09758 0.65807 0.0
H906 H 0.71825 0.16763 0.63119 0.0
H907 H 0.85053 0.26985 0.61015 0.0
H908 H 0.78679 0.11994 0.66025 0.0
H909 H 0.97886 0.27147 0.69633 0.0
H910 H 0.71262 0.12378 0.6458 0.0
H911 H 0.84469 0.12987 0.73244 0.0
H912 H 0.92712 0.24973 0.69504 0.0
H913 H 0.86303 0.10262 0.74941 0.0
H914 H 0.74962 0.21455 0.6182 0.0
H915 H 1.0011 0.24547 0.70941 0.0
H916 H 0.99528 0.20231 0.72545 0.0
H917 H 0.79892 0.25267 0.61004 0.0
H918 H 0.9638 0.1563 0.73985 0.0
N919 N 0.91932 0.21103 0.70689 0.0
C920 C 0.93615 0.23792 0.70096 0.0
C921 C 0.97819 0.23571 0.70895 0.0
C922 C 0.96095 0.20881 0.71611 0.0
C923 C 0.96571 0.25046 0.70161 0.0
C924 C 0.93122 0.19696 0.715 0.0
H925 H 0.91451 0.11914 0.74911 0.0
N926 N 0.88523 0.16079 0.72217 0.0
C927 C 0.8775 0.12172 0.74188 0.0
C928 C 0.9136 0.17101 0.72286 0.0
C929 C 0.8672 0.13718 0.73232 0.0
C930 C 0.90654 0.13109 0.74164 0.0
C931 C 0.92507 0.15626 0.73237 0.0
O932 O 0.84881 0.18007 0.73476 0.0
O933 O 0.83434 0.18251 0.68458 0.0
O934 O 0.85205 0.22426 0.66459 0.0
O935 O 0.87743 0.22925 0.69419 0.0
O936 O 0.82178 0.15709 0.70935 0.0
O937 O 0.87853 0.22181 0.72529 0.0
O938 O 0.86362 0.19116 0.62207 0.0
O939 O 0.87894 0.18793 0.67271 0.0
O940 O 0.86086 0.14607 0.69326 0.0
O941 O 0.83632 0.14131 0.66322 0.0
O942 O 0.89204 0.21292 0.64784 0.0
O943 O 0.83637 0.14913 0.63219 0.0
C944 C 0.81294 0.16446 0.69391 0.0
C945 C 0.87612 0.21273 0.75997 0.0
C946 C 0.87286 0.22055 0.79585 0.0
C947 C 0.86015 0.21221 0.7767 0.0
C948 C 0.9019 0.22907 0.79776 0.0
C949 C 0.90477 0.22073 0.76245 0.0
C950 C 0.91751 0.22882 0.78125 0.0
C951 C 0.86728 0.23873 0.68022 0.0
C952 C 0.86299 0.20613 0.73991 0.0
C953 C 0.9546 0.16746 0.73282 0.0
C954 C 0.97251 0.19366 0.72466 0.0
C955 C 0.90062 0.20526 0.66326 0.0
C956 C 0.83682 0.157 0.59737 0.0
C957 C 0.85334 0.16144 0.58008 0.0
C958 C 0.84023 0.15174 0.56128 0.0
C959 C 0.81053 0.13786 0.55989 0.0
C960 C 0.80714 0.14355 0.59559 0.0
C961 C 0.79414 0.13404 0.57694 0.0
C962 C 0.84594 0.13165 0.6775 0.0
C963 C 0.85062 0.16495 0.61723 0.0
H964 H 0.83788 0.20533 0.77462 0.0
H965 H 0.91293 0.23652 0.81189 0.0
H966 H 0.91741 0.22118 0.7498 0.0
H967 H 0.93976 0.23538 0.783 0.0
H968 H 0.87627 0.17188 0.58129 0.0
H969 H 0.80006 0.13034 0.54555 0.0
H970 H 0.79398 0.14003 0.60864 0.0
H971 H 0.77126 0.12352 0.57571 0.0
H972 H 0.30514 0.88985 0.07761 0.0
H973 H 0.31228 0.82025 0.05552 0.0
H974 H 0.35739 0.8527 0.03901 0.0
H975 H 0.33556 0.93379 0.03344 0.0
H976 H 0.35389 0.96528 0.048 0.0
H977 H 0.32125 0.93658 0.05712 0.0
H978 H 0.3466 0.93663 0.09013 0.0
H979 H 0.37906 0.96543 0.08101 0.0
H980 H 0.37833 0.93419 0.08882 0.0
H981 H 0.40366 0.89253 0.02748 0.0
H982 H 0.44693 0.93695 0.02059 0.0
H983 H 0.40949 0.98122 0.04874 0.0
C984 C 0.31615 0.88143 0.06924 0.0
C985 C 0.30504 0.85242 0.06782 0.0
C986 C 0.32007 0.84231 0.0566 0.0
C987 C 0.3458 0.8606 0.04724 0.0
C988 C 0.35622 0.88901 0.04907 0.0
C989 C 0.34182 0.89941 0.05968 0.0
C990 C 0.35807 0.93089 0.05973 0.0
C991 C 0.34118 0.9423 0.04893 0.0
C992 C 0.36598 0.94245 0.0812 0.0
C993 C 0.38413 0.93653 0.04786 0.0
C994 C 0.38257 0.91206 0.04182 0.0
C995 C 0.40482 0.91182 0.03174 0.0
C996 C 0.42929 0.93723 0.02777 0.0
C997 C 0.4312 0.96265 0.03343 0.0
C998 C 0.40828 0.96217 0.04369 0.0
H999 H 0.14752 0.43779 0.07059 0.0
H1000 H 0.2168 0.51815 0.05302 0.0
H1001 H 0.18222 0.53073 0.03986 0.0
H1002 H 0.10244 0.42881 0.02686 0.0
H1003 H 0.07009 0.41144 0.04111 0.0
H1004 H 0.10031 0.4085 0.04842 0.0
H1005 H 0.09875 0.4266 0.08396 0.0
H1006 H 0.0686 0.42966 0.07678 0.0
H1007 H 0.09996 0.45936 0.08668 0.0
H1008 H 0.13946 0.53608 0.03178 0.0
H1009 H 0.09253 0.53174 0.02599 0.0
H1010 H 0.05129 0.44676 0.04656 0.0
C1011 C 0.15539 0.45794 0.06381 0.0
C1012 C 0.18487 0.47705 0.06287 0.0
C1013 C 0.19434 0.50314 0.05377 0.0
C1014 C 0.17484 0.5105 0.04635 0.0
C1015 C 0.1459 0.49135 0.04781 0.0
C1016 C 0.13623 0.46541 0.056 0.0
C1017 C 0.10407 0.44856 0.05571 0.0
C1018 C 0.09362 0.4228 0.04222 0.0
C1019 C 0.09216 0.44059 0.07705 0.0
C1020 C 0.09708 0.4693 0.04661 0.0
C1021 C 0.12148 0.49392 0.04221 0.0
C1022 C 0.12028 0.51666 0.03475 0.0
C1023 C 0.09352 0.51398 0.0314 0.0
C1024 C 0.06828 0.48858 0.03506 0.0
C1025 C 0.07024 0.46617 0.04307 0.0
H1026 H 0.5268 0.701 0.06108 0.0
H1027 H 0.61507 0.73829 0.0792 0.0
H1028 H 0.61614 0.69719 0.06693 0.0
H1029 H 0.50612 0.63181 0.07435 0.0
H1030 H 0.48301 0.61571 0.05314 0.0
H1031 H 0.48895 0.64854 0.06253 0.0
H1032 H 0.50598 0.67065 0.02737 0.0
H1033 H 0.49889 0.63737 0.01813 0.0
H1034 H 0.53355 0.66743 0.01489 0.0
H1035 H 0.60731 0.65138 0.05514 0.0
H1036 H 0.58978 0.60412 0.04209 0.0
H1037 H 0.50789 0.59637 0.02963 0.0
C1038 C 0.54644 0.70066 0.06217 0.0
C1039 C 0.57074 0.72277 0.07141 0.0
C1040 C 0.59599 0.72141 0.07264 0.0
C1041 C 0.5969 0.69821 0.06557 0.0
C1042 C 0.5725 0.67656 0.05702 0.0
C1043 C 0.54781 0.6776 0.05502 0.0
C1044 C 0.52453 0.65106 0.04548 0.0
C1045 C 0.49916 0.63589 0.05973 0.0
C1046 C 0.51521 0.657 0.02526 0.0
C1047 C 0.54002 0.635 0.04269 0.0
C1048 C 0.56762 0.65014 0.04956 0.0
C1049 C 0.58583 0.63939 0.04951 0.0
C1050 C 0.57561 0.61245 0.04218 0.0
C1051 C 0.54753 0.59659 0.03483 0.0
C1052 C 0.52957 0.60814 0.03499 0.0
H1053 H 0.8292 0.31383 0.97913 0.0
H1054 H 0.87929 0.27802 0.95828 0.0
H1055 H 0.92276 0.31895 0.97073 0.0
H1056 H 0.87746 0.38241 0.96535 0.0
H1057 H 0.87202 0.39888 0.98683 0.0
H1058 H 0.84403 0.36556 0.97839 0.0
H1059 H 0.84139 0.34501 0.01366 0.0
H1060 H 0.86909 0.37854 0.02212 0.0
H1061 H 0.87317 0.34858 0.02487 0.0
H1062 H 0.96099 0.3649 0.98183 0.0
H1063 H 0.99228 0.41318 0.99263 0.0
H1064 H 0.91868 0.42036 0.00755 0.0
C1065 C 0.84927 0.3144 0.97768 0.0
C1066 C 0.85091 0.29275 0.96771 0.0
C1067 C 0.8776 0.29443 0.96574 0.0
C1068 C 0.90239 0.31754 0.97283 0.0
C1069 C 0.90026 0.33886 0.98204 0.0
C1070 C 0.87444 0.33753 0.98472 0.0
C1071 C 0.87863 0.36425 0.99416 0.0
C1072 C 0.86737 0.37861 0.98036 0.0
C1073 C 0.86474 0.35875 0.01494 0.0
C1074 C 0.91078 0.38089 0.99584 0.0
C1075 C 0.92269 0.36568 0.98882 0.0
C1076 C 0.95194 0.37691 0.98764 0.0
C1077 C 0.96956 0.40445 0.99372 0.0
C1078 C 0.958 0.42056 1.00102 0.0
C1079 C 0.92815 0.40844 1.00229 0.0
H1080 H 0.68891 0.50785 0.96754 0.0
H1081 H 0.7472 0.59645 0.9699 0.0
H1082 H 0.70928 0.60363 0.98379 0.0
H1083 H 0.62861 0.51208 0.95166 0.0
H1084 H 0.60327 0.48291 0.96615 0.0
H1085 H 0.63551 0.48457 0.95786 0.0
H1086 H 0.64631 0.47843 0.99422 0.0
H1087 H 0.61536 0.47864 1.00354 0.0
H1088 H 0.65019 0.50336 0.01297 0.0
H1089 H 0.66469 0.60197 0.99395 0.0
H1090 H 0.61576 0.59169 1.00027 0.0
H1091 H 0.58507 0.50385 0.99294 0.0
C1092 C 0.69366 0.52865 0.97135 0.0
C1093 C 0.72103 0.55167 0.96792 0.0
C1094 C 0.72644 0.57864 0.97262 0.0
C1095 C 0.70504 0.58287 0.98052 0.0
C1096 C 0.67821 0.55988 0.98361 0.0
C1097 C 0.67234 0.53326 0.97917 0.0
C1098 C 0.64116 0.51245 0.98293 0.0
C1099 C 0.62626 0.49711 0.96349 0.0
C1100 C 0.63803 0.49198 0.99941 0.0
C1101 C 0.63041 0.53158 0.9899 0.0
C1102 C 0.65229 0.55885 0.99015 0.0
C1103 C 0.64751 0.58069 0.99423 0.0
C1104 C 0.61966 0.57466 0.9978 0.0
C1105 C 0.59683 0.547 0.99772 0.0
C1106 C 0.60231 0.5251 0.9939 0.0
H1107 H 0.43015 0.13847 0.9617 0.0
H1108 H 0.50677 0.21296 0.98135 0.0
H1109 H 0.52057 0.18409 1.00059 0.0
H1110 H 0.4176 0.0963 0.00556 0.0
H1111 H 0.40744 0.06518 0.99125 0.0
H1112 H 0.40131 0.09171 0.98126 0.0
H1113 H 0.42978 0.09447 0.9494 0.0
H1114 H 0.43585 0.06788 0.95923 0.0
H1115 H 0.46548 0.1008 0.95195 0.0
H1116 H 0.52704 0.14694 0.01691 0.0
H1117 H 0.52831 0.1047 0.02586 0.0
H1118 H 0.45087 0.05473 0.99191 0.0
C1119 C 0.45001 0.14902 0.96983 0.0
C1120 C 0.46714 0.17835 0.96991 0.0
C1121 C 0.49265 0.19074 0.9813 0.0
C1122 C 0.50087 0.17446 0.99223 0.0
C1123 C 0.48368 0.14572 0.99143 0.0
C1124 C 0.45899 0.13311 0.98028 0.0
C1125 C 0.44567 0.10183 0.98031 0.0
C1126 C 0.41626 0.08794 0.99019 0.0
C1127 C 0.44412 0.09059 0.95896 0.0
C1128 C 0.4669 0.0988 0.99309 0.0
C1129 C 0.48833 0.12434 0.99973 0.0
C1130 C 0.51038 0.12685 0.01178 0.0
C1131 C 0.51084 0.10271 0.01685 0.0
C1132 C 0.48969 0.07644 0.00955 0.0
C1133 C 0.46733 0.07453 0.99766 0.0
H1134 H 0.70803 0.12652 0.96848 0.0
H1135 H 0.70233 0.19818 0.98698 0.0
H1136 H 0.65423 0.16705 1.00052 0.0
H1137 H 0.63801 0.08527 0.95217 0.0
H1138 H 0.63394 0.05307 0.96123 0.0
H1139 H 0.66854 0.08096 0.95458 0.0
H1140 H 0.68732 0.07957 0.99004 0.0
H1141 H 0.6527 0.05158 0.99676 0.0
H1142 H 0.66948 0.08272 0.01179 0.0
H1143 H 0.6047 0.12747 0.00921 0.0
H1144 H 0.55931 0.08347 0.013 0.0
H1145 H 0.59843 0.03796 0.98993 0.0
C1146 C 0.69678 0.13565 0.97562 0.0
C1147 C 0.70887 0.16472 0.97672 0.0
C1148 C 0.69352 0.17595 0.98607 0.0
C1149 C 0.6662 0.15841 0.99381 0.0
C1150 C 0.65474 0.12974 0.99228 0.0
C1151 C 0.66973 0.11848 0.98357 0.0
C1152 C 0.65246 0.0871 0.98312 0.0
C1153 C 0.64797 0.07596 0.96149 0.0
C1154 C 0.66633 0.07451 0.99621 0.0
C1155 C 0.62501 0.08237 0.99228 0.0
C1156 C 0.62674 0.10717 0.99766 0.0
C1157 C 0.60338 0.10797 1.00541 0.0
C1158 C 0.57769 0.08285 0.00762 0.0
C1159 C 0.57565 0.05726 1.00237 0.0
C1160 C 0.59965 0.05717 0.99455 0.0
H1161 H 0.83389 0.48272 0.97138 0.0
H1162 H 0.85889 0.56907 0.98033 0.0
H1163 H 0.90636 0.57899 0.99167 0.0
H1164 H 0.87057 0.47869 0.01576 0.0
H1165 H 0.88194 0.45611 1.005 0.0
H1166 H 0.84937 0.45396 0.99674 0.0
H1167 H 0.86523 0.46274 0.96009 0.0
H1168 H 0.89722 0.46298 0.96718 0.0
H1169 H 0.8993 0.49197 0.95382 0.0
H1170 H 0.9531 0.58069 0.99646 0.0
H1171 H 0.99366 0.57279 1.00045 0.0
H1172 H 0.93701 0.48431 0.994 0.0
C1173 C 0.8493 0.50362 0.97601 0.0
C1174 C 0.8428 0.52518 0.97498 0.0
C1175 C 0.86338 0.55225 0.98117 0.0
C1176 C 0.89042 0.55808 0.98754 0.0
C1177 C 0.89631 0.53644 0.98819 0.0
C1178 C 0.87613 0.5096 0.98306 0.0
C1179 C 0.88784 0.49009 0.9855 0.0
C1180 C 0.87148 0.46841 1.00172 0.0
C1181 C 0.88737 0.47614 0.96545 0.0
C1182 C 0.91803 0.51031 0.99216 0.0
C1183 C 0.92256 0.53703 0.99325 0.0
C1184 C 0.94958 0.55978 0.99641 0.0
C1185 C 0.97247 0.55514 0.99864 0.0
C1186 C 0.96816 0.52792 0.99854 0.0
C1187 C 0.94056 0.5052 0.99526 0.0
H1188 H 0.49696 0.31946 0.97723 0.0
H1189 H 0.4527 0.31601 0.92231 0.0
H1190 H 0.45527 0.36017 0.93127 0.0
H1191 H 0.46674 0.35163 0.00899 0.0
H1192 H 0.49958 0.37367 0.02199 0.0
H1193 H 0.49257 0.34073 0.01206 0.0
H1194 H 0.53968 0.36567 0.99214 0.0
H1195 H 0.54646 0.39859 1.00201 0.0
H1196 H 0.54577 0.39331 0.9753 0.0
H1197 H 0.46151 0.40345 0.94593 0.0
H1198 H 0.47485 0.44659 0.964 0.0
H1199 H 0.51967 0.42587 0.00829 0.0
C1200 C 0.4876 0.32797 0.96728 0.0
C1201 C 0.47424 0.31427 0.94919 0.0
C1202 C 0.46282 0.3262 0.93626 0.0
C1203 C 0.46412 0.35119 0.94124 0.0
C1204 C 0.47742 0.3643 0.95907 0.0
C1205 C 0.48936 0.35345 0.97181 0.0
C1206 C 0.50385 0.37292 0.98944 0.0
C1207 C 0.48984 0.35889 0.0093 0.0
C1208 C 0.53584 0.38323 0.98973 0.0
C1209 C 0.49812 0.39626 0.98453 0.0
C1210 C 0.48246 0.39049 0.96709 0.0
C1211 C 0.47392 0.40834 0.95955 0.0
C1212 C 0.48169 0.43291 0.97001 0.0
C1213 C 0.49833 0.43985 0.98773 0.0
C1214 C 0.50672 0.42118 0.99499 0.0
H1215 H 0.15349 0.68778 0.09231 0.0
H1216 H 0.18414 0.73614 0.03791 0.0
H1217 H 0.14924 0.69582 0.01812 0.0
H1218 H 0.1427 0.62407 0.07131 0.0
H1219 H 0.11105 0.60241 0.08547 0.0
H1220 H 0.13758 0.63541 0.09549 0.0
H1221 H 0.09958 0.65002 0.09951 0.0
H1222 H 0.07297 0.61707 0.08941 0.0
H1223 H 0.07884 0.6488 0.07808 0.0
H1224 H 0.11205 0.65012 1.0041 0.0
H1225 H 0.07587 0.60164 0.9967 0.0
H1226 H 0.06932 0.58213 0.05989 0.0
C1227 C 0.15269 0.68987 0.07624 0.0
C1228 C 0.1715 0.71508 0.06665 0.0
C1229 C 0.16999 0.71706 0.04559 0.0
C1230 C 0.15017 0.69427 0.03422 0.0
C1231 C 0.13198 0.66968 0.04413 0.0
C1232 C 0.13305 0.66728 0.06465 0.0
C1233 C 0.11168 0.63819 0.07148 0.0
C1234 C 0.12665 0.6242 0.08153 0.0
C1235 C 0.08945 0.63855 0.08545 0.0
C1236 C 0.09861 0.62455 0.05156 0.0
C1237 C 0.11059 0.64317 0.03601 0.0
C1238 C 0.10261 0.63536 0.01616 0.0
C1239 C 0.08226 0.6077 0.01205 0.0
C1240 C 0.07019 0.5881 0.02763 0.0
C1241 C 0.07808 0.59679 0.04769 0.0
H1242 H 0.35802 0.52444 0.06361 0.0
H1243 H 0.29606 0.43952 0.04819 0.0
H1244 H 0.33417 0.43304 0.03371 0.0
H1245 H 0.39978 0.53713 0.01785 0.0
H1246 H 0.43386 0.55863 0.02959 0.0
H1247 H 0.4027 0.55811 0.03927 0.0
H1248 H 0.40992 0.5438 0.07432 0.0
H1249 H 0.44215 0.54577 0.0657 0.0
H1250 H 0.41486 0.51434 0.07701 0.0
H1251 H 0.37978 0.43382 0.02589 0.0
H1252 H 0.42891 0.4436 0.02074 0.0
H1253 H 0.46113 0.52979 0.03632 0.0
C1254 C 0.35252 0.5046 0.05695 0.0
C1255 C 0.32411 0.48242 0.05704 0.0
C1256 C 0.31763 0.4568 0.04816 0.0
C1257 C 0.33916 0.45294 0.03995 0.0
C1258 C 0.367 0.47513 0.04023 0.0
C1259 C 0.37368 0.50067 0.04811 0.0
C1260 C 0.40531 0.52114 0.04633 0.0
C1261 C 0.41077 0.5452 0.03243 0.0
C1262 C 0.41885 0.53188 0.06708 0.0
C1263 C 0.41552 0.50284 0.03693 0.0
C1264 C 0.39305 0.47627 0.03375 0.0
C1265 C 0.3974 0.45474 0.02763 0.0
C1266 C 0.42533 0.46045 0.02474 0.0
C1267 C 0.44858 0.48764 0.0272 0.0
C1268 C 0.44358 0.50915 0.03329 0.0
H1269 H 0.54168 0.8647 0.08857 0.0
H1270 H 0.53172 0.8157 0.03533 0.0
H1271 H 0.5241 0.84851 0.01505 0.0
H1272 H 0.48941 0.88355 0.07625 0.0
H1273 H 0.50978 0.91816 0.08637 0.0
H1274 H 0.51395 0.89057 0.09657 0.0
H1275 H 0.56802 0.91904 0.0898 0.0
H1276 H 0.56397 0.94667 0.07952 0.0
H1277 H 0.58042 0.93139 0.06484 0.0
H1278 H 0.51574 0.88601 1.00097 0.0
H1279 H 0.5099 0.92616 0.9939 0.0
H1280 H 0.52819 0.95207 0.05605 0.0
C1281 C 0.53783 0.86088 0.07263 0.0
C1282 C 0.53715 0.83766 0.0635 0.0
C1283 C 0.5323 0.83337 0.04262 0.0
C1284 C 0.52793 0.85188 0.031 0.0
C1285 C 0.52879 0.87465 0.0405 0.0
C1286 C 0.53381 0.8793 0.06083 0.0
C1287 C 0.53419 0.90555 0.06738 0.0
C1288 C 0.51042 0.89906 0.08253 0.0
C1289 C 0.56339 0.92693 0.07588 0.0
C1290 C 0.52848 0.91494 0.04756 0.0
C1291 C 0.52518 0.89674 0.03228 0.0
C1292 C 0.5186 0.90053 0.01281 0.0
C1293 C 0.5153 0.92347 0.0089 0.0
C1294 C 0.51897 0.94262 0.02425 0.0
C1295 C 0.52577 0.93819 0.04382 0.0
H1296 H 0.99578 0.16715 0.38403 0.0
H1297 H 0.94027 0.20181 0.3858 0.0
H1298 H 0.97754 0.2448 0.37028 0.0
H1299 H 0.05691 0.22654 0.39816 0.0
H1300 H 0.08106 0.22237 0.38204 0.0
H1301 H 0.04863 0.19244 0.3899 0.0
H1302 H 0.03524 0.17835 0.35287 0.0
H1303 H 0.06725 0.20868 0.34461 0.0
H1304 H 0.03316 0.20223 0.33582 0.0
H1305 H 0.02223 0.28621 0.36083 0.0
H1306 H 0.07187 0.32353 0.35648 0.0
H1307 H 0.09963 0.26315 0.35871 0.0
C1308 C 0.99131 0.18349 0.38043 0.0
C1309 C 0.96507 0.18115 0.3858 0.0
C1310 C 0.96013 0.20319 0.38155 0.0
C1311 C 0.98115 0.22763 0.37271 0.0
C1312 C 1.00707 0.22975 0.36806 0.0
C1313 C 0.01226 0.20824 0.37154 0.0
C1314 C 0.04301 0.21717 0.36682 0.0
C1315 C 0.05829 0.21447 0.38533 0.0
C1316 C 0.04477 0.20062 0.34897 0.0
C1317 C 0.0545 0.24737 0.36127 0.0
C1318 C 0.0332 0.25397 0.36183 0.0
C1319 C 0.03893 0.28115 0.35969 0.0
C1320 C 0.06714 0.30222 0.35726 0.0
C1321 C 0.0893 0.29605 0.35655 0.0
C1322 C 0.08287 0.2682 0.35827 0.0
H1323 H 0.80961 0.7624 0.40672 0.0
H1324 H 0.87737 0.8447 0.39128 0.0
H1325 H 0.84211 0.85595 0.37768 0.0
H1326 H 0.76598 0.75351 0.36206 0.0
H1327 H 0.73305 0.73459 0.37548 0.0
H1328 H 0.76366 0.73266 0.38333 0.0
H1329 H 0.75952 0.74881 0.41902 0.0
H1330 H 0.72896 0.75083 0.41128 0.0
H1331 H 0.75915 0.78077 0.42212 0.0
H1332 H 0.79913 0.8597 0.36885 0.0
H1333 H 0.75197 0.85411 0.36236 0.0
H1334 H 0.71206 0.76838 0.38112 0.0
C1335 C 0.81697 0.78271 0.40034 0.0
C1336 C 0.84622 0.80272 0.40006 0.0
C1337 C 0.85509 0.82902 0.3915 0.0
C1338 C 0.83522 0.83561 0.38382 0.0
C1339 C 0.80654 0.81554 0.38451 0.0
C1340 C 0.79743 0.78947 0.39226 0.0
C1341 C 0.76537 0.77167 0.39114 0.0
C1342 C 0.7565 0.74662 0.37717 0.0
C1343 C 0.7525 0.76249 0.41214 0.0
C1344 C 0.75782 0.79206 0.38212 0.0
C1345 C 0.78188 0.81726 0.37843 0.0
C1346 C 0.78021 0.83983 0.37123 0.0
C1347 C 0.75329 0.83642 0.36744 0.0
C1348 C 0.72839 0.81047 0.37038 0.0
C1349 C 0.73079 0.78819 0.37813 0.0
H1350 H 0.19574 0.03561 0.39142 0.0
H1351 H 0.28485 0.07646 0.40752 0.0
H1352 H 0.28853 0.03794 0.39244 0.0
H1353 H 0.18007 0.96921 0.40365 0.0
H1354 H 0.15565 0.95143 0.38337 0.0
H1355 H 0.16063 0.98402 0.39242 0.0
H1356 H 0.17374 0.00428 0.35657 0.0
H1357 H 0.16863 0.97157 0.34748 0.0
H1358 H 0.20184 1.00299 0.34327 0.0
H1359 H 0.28145 0.99313 0.38071 0.0
H1360 H 0.26421 0.9444 0.37156 0.0
H1361 H 0.17977 0.9317 0.36177 0.0
C1362 C 0.21615 0.03672 0.39115 0.0
C1363 C 0.24009 0.05896 0.40051 0.0
C1364 C 0.26633 0.05953 0.40041 0.0
C1365 C 0.26864 0.03785 0.39181 0.0
C1366 C 0.24455 0.0158 0.38323 0.0
C1367 C 0.2188 0.01506 0.38262 0.0
C1368 C 0.1957 0.9876 0.37409 0.0
C1369 C 0.17161 0.97217 0.38929 0.0
C1370 C 0.18431 0.99188 0.35416 0.0
C1371 C 0.21233 0.97278 0.3708 0.0
C1372 C 0.24052 0.98962 0.376 0.0
C1373 C 0.25961 0.97994 0.37612 0.0
C1374 C 0.2496 0.95222 0.37098 0.0
C1375 C 0.22081 0.93452 0.36575 0.0
C1376 C 0.20205 0.94506 0.36525 0.0
H1377 H 0.52995 0.6395 0.27531 0.0
H1378 H 0.50589 0.59124 0.33 0.0
H1379 H 0.54175 0.632 0.34878 0.0
H1380 H 0.60608 0.68018 0.28633 0.0
H1381 H 0.61009 0.71159 0.27566 0.0
H1382 H 0.58322 0.67834 0.26613 0.0
H1383 H 0.54478 0.69172 0.27278 0.0
H1384 H 0.57153 0.72497 0.28231 0.0
H1385 H 0.54134 0.70269 0.29756 0.0
H1386 H 0.57887 0.67786 0.36201 0.0
H1387 H 0.61493 0.7265 0.3689 0.0
H1388 H 0.6158 0.7462 0.30612 0.0
C1389 C 0.5325 0.63746 0.29119 0.0
C1390 C 0.51491 0.61212 0.30119 0.0
C1391 C 0.51873 0.61045 0.32204 0.0
C1392 C 0.53921 0.63346 0.33283 0.0
C1393 C 0.55591 0.65813 0.32261 0.0
C1394 C 0.55289 0.66036 0.30227 0.0
C1395 C 0.57312 0.6897 0.29516 0.0
C1396 C 0.59439 0.68996 0.27991 0.0
C1397 C 0.55671 0.70305 0.28644 0.0
C1398 C 0.58775 0.70356 0.31472 0.0
C1399 C 0.57747 0.68485 0.33032 0.0
C1400 C 0.58701 0.69271 0.34992 0.0
C1401 C 0.60727 0.72048 0.35376 0.0
C1402 C 0.61778 0.74019 0.33818 0.0
C1403 C 0.60823 0.73149 0.31832 0.0
H1404 H 0.35405 0.84368 0.29628 0.0
H1405 H 0.41506 0.9257 0.31803 0.0
H1406 H 0.37668 0.9288 0.33561 0.0
H1407 H 0.29849 0.85766 0.28659 0.0
H1408 H 0.27036 0.82416 0.29444 0.0
H1409 H 0.3029 0.82776 0.28488 0.0
H1410 H 0.30851 0.80578 0.31725 0.0
H1411 H 0.27647 0.80281 0.32746 0.0
H1412 H 0.30937 0.82126 0.34118 0.0
H1413 H 0.33117 0.92479 0.34801 0.0
H1414 H 0.28181 0.91367 0.35451 0.0
H1415 H 0.25017 0.83351 0.32614 0.0
C1416 C 0.35922 0.86208 0.30498 0.0
C1417 C 0.38739 0.88445 0.30598 0.0
C1418 C 0.39354 0.90837 0.31724 0.0
C1419 C 0.37192 0.91025 0.32728 0.0
C1420 C 0.34425 0.88792 0.32599 0.0
C1421 C 0.33783 0.86424 0.31517 0.0
C1422 C 0.30616 0.84378 0.31542 0.0
C1423 C 0.29375 0.83802 0.29407 0.0
C1424 C 0.29974 0.81681 0.32596 0.0
C1425 C 0.29573 0.85988 0.32769 0.0
C1426 C 0.31808 0.88526 0.33372 0.0
C1427 C 0.31358 0.90472 0.34379 0.0
C1428 C 0.28556 0.89823 0.34752 0.0
C1429 C 0.26246 0.8723 0.34168 0.0
C1430 C 0.26763 0.85291 0.33164 0.0
H1431 H 0.11775 0.49889 0.32526 0.0
H1432 H 0.16024 0.51591 0.26774 0.0
H1433 H 0.1756 0.48224 0.27504 0.0
H1434 H 0.17161 0.48808 0.35297 0.0
H1435 H 0.1449 0.46066 0.36801 0.0
H1436 H 0.13965 0.48839 0.35944 0.0
H1437 H 0.09191 0.45236 0.34319 0.0
H1438 H 0.09715 0.4246 0.35155 0.0
H1439 H 0.09133 0.4277 0.32534 0.0
H1440 H 0.18077 0.44302 0.28588 0.0
H1441 H 0.17959 0.40249 0.30162 0.0
H1442 H 0.1366 0.41145 0.35327 0.0
C1443 C 0.13091 0.496 0.3145 0.0
C1444 C 0.13756 0.50978 0.29584 0.0
C1445 C 0.15454 0.50525 0.28199 0.0
C1446 C 0.16351 0.48629 0.28603 0.0
C1447 C 0.15576 0.47228 0.30416 0.0
C1448 C 0.1403 0.47714 0.31838 0.0
C1449 C 0.13383 0.45807 0.33624 0.0
C1450 C 0.14837 0.47481 0.35529 0.0
C1451 C 0.10164 0.43959 0.33925 0.0
C1452 C 0.14717 0.44119 0.32941 0.0
C1453 C 0.15974 0.4499 0.31085 0.0
C1454 C 0.17154 0.43634 0.30058 0.0
C1455 C 0.17059 0.41328 0.30953 0.0
C1456 C 0.15819 0.4042 0.32858 0.0
C1457 C 0.14659 0.41843 0.3388 0.0
H1458 H 0.37229 0.44481 0.30187 0.0
H1459 H 0.36763 0.51884 0.31414 0.0
H1460 H 0.31913 0.48979 0.32762 0.0
H1461 H 0.30214 0.4026 0.2855 0.0
H1462 H 0.29737 0.37133 0.29694 0.0
H1463 H 0.33226 0.39808 0.28968 0.0
H1464 H 0.35035 0.40026 0.32599 0.0
H1465 H 0.31543 0.37344 0.3333 0.0
H1466 H 0.33248 0.4061 0.34655 0.0
H1467 H 0.26926 0.45196 0.33679 0.0
H1468 H 0.22328 0.40913 0.34153 0.0
H1469 H 0.26142 0.35991 0.325 0.0
C1470 C 0.36115 0.4549 0.30762 0.0
C1471 C 0.37369 0.48404 0.30699 0.0
C1472 C 0.35848 0.49656 0.31456 0.0
C1473 C 0.33093 0.48021 0.32226 0.0
C1474 C 0.31908 0.45144 0.32252 0.0
C1475 C 0.33385 0.43894 0.31555 0.0
C1476 C 0.3161 0.40763 0.31685 0.0
C1477 C 0.31171 0.39413 0.29601 0.0
C1478 C 0.32939 0.39619 0.33155 0.0
C1479 C 0.28869 0.40435 0.32505 0.0
C1480 C 0.29084 0.42983 0.32837 0.0
C1481 C 0.2676 0.43194 0.33466 0.0
C1482 C 0.24153 0.40744 0.33747 0.0
C1483 C 0.23897 0.38112 0.33434 0.0
C1484 C 0.26296 0.37972 0.32807 0.0
H1485 H 0.55545 0.90799 0.30428 0.0
H1486 H 0.48094 0.82889 0.31745 0.0
H1487 H 0.51189 0.81033 0.32795 0.0
H1488 H 0.5976 0.88198 0.28407 0.0
H1489 H 0.63029 0.90888 0.29486 0.0
H1490 H 0.60214 0.91576 0.28913 0.0
H1491 H 0.60286 0.93124 0.32576 0.0
H1492 H 0.63063 0.92395 0.332 0.0
H1493 H 0.5979 0.90786 0.3459 0.0
H1494 H 0.55201 0.79988 0.33487 0.0
H1495 H 0.59705 0.79956 0.33944 0.0
H1496 H 0.6445 0.8862 0.3229 0.0
C1497 C 0.54565 0.88681 0.30953 0.0
C1498 C 0.51586 0.86987 0.31008 0.0
C1499 C 0.50375 0.84226 0.31699 0.0
C1500 C 0.52117 0.83156 0.32294 0.0
C1501 C 0.55059 0.84882 0.32202 0.0
C1502 C 0.56266 0.87596 0.31564 0.0
C1503 C 0.59472 0.89035 0.31588 0.0
C1504 C 0.60689 0.89978 0.29473 0.0
C1505 C 0.60727 0.91479 0.33077 0.0
C1506 C 0.59896 0.86701 0.32307 0.0
C1507 C 0.57333 0.84314 0.32653 0.0
C1508 C 0.57214 0.8186 0.33248 0.0
C1509 C 0.59778 0.81861 0.33514 0.0
C1510 C 0.62417 0.8431 0.33212 0.0
C1511 C 0.62461 0.86738 0.32575 0.0
H1512 H 0.09917 0.64819 0.29735 0.0
H1513 H 0.14857 0.62562 0.33576 0.0
H1514 H 0.16782 0.67041 0.35358 0.0
H1515 H 0.15188 0.71926 0.29217 0.0
H1516 H 0.12719 0.73184 0.29246 0.0
H1517 H 0.116 0.69737 0.28343 0.0
H1518 H 0.07483 0.67711 0.30906 0.0
H1519 H 0.08591 0.71155 0.31816 0.0
H1520 H 0.08254 0.68519 0.3353 0.0
H1521 H 0.18295 0.71811 0.36644 0.0
H1522 H 0.19368 0.76586 0.3732 0.0
H1523 H 0.13483 0.75799 0.32621 0.0
C1524 C 0.11384 0.65263 0.30965 0.0
C1525 C 0.1223 0.63344 0.31522 0.0
C1526 C 0.14174 0.63998 0.33124 0.0
C1527 C 0.15276 0.66536 0.34148 0.0
C1528 C 0.14413 0.68393 0.33552 0.0
C1529 C 0.12513 0.67792 0.31997 0.0
C1530 C 0.12015 0.70193 0.31609 0.0
C1531 C 0.12936 0.71327 0.29477 0.0
C1532 C 0.08901 0.69343 0.31989 0.0
C1533 C 0.13957 0.72249 0.33174 0.0
C1534 C 0.15304 0.71159 0.34285 0.0
C1535 C 0.17242 0.72682 0.3579 0.0
C1536 C 0.17838 0.75398 0.36162 0.0
C1537 C 0.16509 0.76577 0.35027 0.0
C1538 C 0.14525 0.74961 0.33523 0.0
H1539 H 0.86104 0.02073 0.37393 0.0
H1540 H 0.81694 0.04549 0.41571 0.0
H1541 H 0.77132 0.00429 0.40626 0.0
H1542 H 0.80368 0.98848 0.33527 0.0
H1543 H 0.81032 0.96041 0.33046 0.0
H1544 H 0.83895 0.99379 0.3383 0.0
H1545 H 0.84959 0.97041 0.36791 0.0
H1546 H 0.82081 0.93712 0.36016 0.0
H1547 H 0.82167 0.94954 0.38528 0.0
H1548 H 0.73143 0.95928 0.39456 0.0
H1549 H 0.69929 0.9121 0.38213 0.0
H1550 H 0.76866 0.91408 0.34869 0.0
C1551 C 0.84158 0.01775 0.38056 0.0
C1552 C 0.84217 0.0365 0.39516 0.0
C1553 C 0.81665 0.03154 0.40423 0.0
C1554 C 0.79071 0.00823 0.39895 0.0
C1555 C 0.7907 0.98982 0.38475 0.0
C1556 C 0.81541 0.99416 0.37567 0.0
C1557 C 0.80958 0.96968 0.36227 0.0
C1558 C 0.81601 0.97863 0.34027 0.0
C1559 C 0.82641 0.95588 0.36934 0.0
C1560 C 0.77793 0.95083 0.36555 0.0
C1561 C 0.76752 0.96311 0.37838 0.0
C1562 C 0.73926 0.94954 0.38436 0.0
C1563 C 0.72114 0.92261 0.37721 0.0
C1564 C 0.73124 0.90925 0.36426 0.0
C1565 C 0.76007 0.92378 0.35826 0.0
H1566 H 0.02048 0.86471 0.40069 0.0
H1567 H 0.967 0.77611 0.39176 0.0
H1568 H 0.00911 0.77293 0.38183 0.0
H1569 H 0.06586 0.87461 0.35749 0.0
H1570 H 0.09796 0.90107 0.36926 0.0
H1571 H 0.06418 0.89736 0.37597 0.0
H1572 H 0.07195 0.89126 0.41324 0.0
H1573 H 0.10631 0.89606 0.40723 0.0
H1574 H 0.08088 0.86541 0.42039 0.0
H1575 H 0.05813 0.77887 0.37759 0.0
H1576 H 0.10921 0.79447 0.37355 0.0
H1577 H 0.12995 0.87976 0.38112 0.0
C1578 C 0.01768 0.84472 0.39641 0.0
C1579 C 0.99061 0.82062 0.39701 0.0
C1580 C 0.98758 0.79481 0.39125 0.0
C1581 C 0.01138 0.79282 0.38569 0.0
C1582 C 0.0379 0.81695 0.38548 0.0
C1583 C 0.04107 0.84253 0.39022 0.0
C1584 C 0.0718 0.86536 0.38837 0.0
C1585 C 0.07517 0.88583 0.37178 0.0
C1586 C 0.08341 0.88039 0.40851 0.0
C1587 C 0.08555 0.84855 0.38248 0.0
C1588 C 0.06569 0.82061 0.38113 0.0
C1589 C 0.07371 0.80076 0.37789 0.0
C1590 C 0.10268 0.80976 0.37552 0.0
C1591 C 0.12312 0.83834 0.37584 0.0
C1592 C 0.11447 0.85788 0.37975 0.0
H1593 H 0.23868 0.21571 0.41542 0.0
H1594 H 0.18306 0.14152 0.38124 0.0
H1595 H 0.1626 0.16667 0.36411 0.0
H1596 H 0.18862 0.23969 0.42203 0.0
H1597 H 0.21498 0.27578 0.41932 0.0
H1598 H 0.22491 0.25182 0.42917 0.0
H1599 H 0.26325 0.2663 0.40164 0.0
H1600 H 0.25344 0.29031 0.39172 0.0
H1601 H 0.25315 0.26408 0.37567 0.0
H1602 H 0.14808 0.19985 0.35081 0.0
H1603 H 0.14134 0.2389 0.34166 0.0
H1604 H 0.2074 0.292 0.38385 0.0
C1605 C 0.22214 0.20479 0.40436 0.0
C1606 C 0.21245 0.17672 0.39964 0.0
C1607 C 0.19085 0.16305 0.38506 0.0
C1608 C 0.17906 0.17715 0.37528 0.0
C1609 C 0.18914 0.20487 0.38024 0.0
C1610 C 0.21023 0.21858 0.3944 0.0
C1611 C 0.21759 0.24852 0.39674 0.0
C1612 C 0.21113 0.25428 0.41808 0.0
C1613 C 0.2487 0.26847 0.3911 0.0
C1614 C 0.19743 0.24953 0.38161 0.0
C1615 C 0.18112 0.22411 0.37233 0.0
C1616 C 0.16087 0.2199 0.35789 0.0
C1617 C 0.15733 0.24231 0.3527 0.0
C1618 C 0.17415 0.26871 0.36177 0.0
C1619 C 0.19429 0.27217 0.37654 0.0
H1620 H 0.66444 0.50611 0.72966 0.0
H1621 H 0.60981 0.54128 0.723 0.0
H1622 H 0.64887 0.58276 0.70724 0.0
H1623 H 0.72494 0.5665 0.74345 0.0
H1624 H 0.7501 0.56069 0.72989 0.0
H1625 H 0.71689 0.53166 0.73769 0.0
H1626 H 0.70634 0.51414 0.70118 0.0
H1627 H 0.73907 0.54348 0.69275 0.0
H1628 H 0.70575 0.53625 0.68184 0.0
H1629 H 0.69492 0.62354 0.69931 0.0
H1630 H 0.74502 0.6599 0.6953 0.0
H1631 H 0.77107 0.59889 0.7036 0.0
C1632 C 0.66054 0.52211 0.7241 0.0
C1633 C 0.63401 0.52041 0.72729 0.0
C1634 C 0.62986 0.54211 0.72048 0.0
C1635 C 0.65194 0.56575 0.71153 0.0
C1636 C 0.67813 0.56738 0.70924 0.0
C1637 C 0.68253 0.546 0.71493 0.0
C1638 C 0.71352 0.55428 0.71202 0.0
C1639 C 0.72715 0.55322 0.73195 0.0
C1640 C 0.71635 0.53595 0.69599 0.0
C1641 C 0.72591 0.58396 0.70474 0.0
C1642 C 0.70497 0.59096 0.70328 0.0
C1643 C 0.71137 0.61808 0.69961 0.0
C1644 C 0.73985 0.6386 0.69737 0.0
C1645 C 0.76163 0.6319 0.69816 0.0
C1646 C 0.75459 0.60418 0.7018 0.0
H1647 H 0.47906 0.1 0.73645 0.0
H1648 H 0.54751 0.18356 0.7251 0.0
H1649 H 0.51273 0.19642 0.71293 0.0
H1650 H 0.43675 0.09586 0.69219 0.0
H1651 H 0.40346 0.07564 0.70497 0.0
H1652 H 0.43384 0.07289 0.71214 0.0
H1653 H 0.42869 0.08537 0.74879 0.0
H1654 H 0.3984 0.08826 0.74169 0.0
H1655 H 0.42833 0.11699 0.75384 0.0
H1656 H 0.47 0.20121 0.70515 0.0
H1657 H 0.42314 0.19647 0.69922 0.0
H1658 H 0.38244 0.1089 0.71292 0.0
C1659 C 0.48668 0.12095 0.73129 0.0
C1660 C 0.51596 0.14085 0.73176 0.0
C1661 C 0.5252 0.16799 0.72475 0.0
C1662 C 0.50559 0.17549 0.71788 0.0
C1663 C 0.47684 0.15546 0.7178 0.0
C1664 C 0.46743 0.12863 0.72402 0.0
C1665 C 0.4354 0.11104 0.72231 0.0
C1666 C 0.42687 0.08746 0.70699 0.0
C1667 C 0.42192 0.09976 0.74288 0.0
C1668 C 0.42817 0.13235 0.7147 0.0
C1669 C 0.45239 0.15786 0.71225 0.0
C1670 C 0.45098 0.18116 0.70656 0.0
C1671 C 0.4242 0.17824 0.70308 0.0
C1672 C 0.39915 0.15209 0.70476 0.0
C1673 C 0.40128 0.12897 0.71091 0.0
H1674 H 0.88332 0.36255 0.74803 0.0
H1675 H 0.91481 0.4157 0.6958 0.0
H1676 H 0.90504 0.37519 0.67495 0.0
H1677 H 0.91602 0.32297 0.73596 0.0
H1678 H 0.88739 0.2911 0.74575 0.0
H1679 H 0.89438 0.32383 0.75606 0.0
H1680 H 0.8424 0.31084 0.7487 0.0
H1681 H 0.83533 0.27811 0.7383 0.0
H1682 H 0.82857 0.30123 0.72359 0.0
H1683 H 0.89269 0.32838 0.65986 0.0
H1684 H 0.88224 0.28039 0.65278 0.0
H1685 H 0.86249 0.2599 0.71544 0.0
C1686 C 0.88841 0.36589 0.73225 0.0
C1687 C 0.89973 0.39245 0.72363 0.0
C1688 C 0.90557 0.39554 0.70278 0.0
C1689 C 0.90024 0.37265 0.69079 0.0
C1690 C 0.8893 0.34686 0.69987 0.0
C1691 C 0.8837 0.34347 0.72018 0.0
C1692 C 0.87361 0.31403 0.72661 0.0
C1693 C 0.89408 0.31293 0.742 0.0
C1694 C 0.84317 0.30025 0.73478 0.0
C1695 C 0.87469 0.30143 0.7068 0.0
C1696 C 0.88335 0.32046 0.69144 0.0
C1697 C 0.88588 0.31331 0.67178 0.0
C1698 C 0.87978 0.28605 0.66785 0.0
C1699 C 0.87176 0.26669 0.68359 0.0
C1700 C 0.86895 0.27448 0.70319 0.0
H1701 H 0.16362 0.98117 0.64314 0.0
H1702 H 0.21547 0.94899 0.61903 0.0
H1703 H 0.25859 0.99151 0.62968 0.0
H1704 H 0.20991 0.05198 0.62904 0.0
H1705 H 0.20445 0.06691 0.65141 0.0
H1706 H 0.17696 0.03355 0.64255 0.0
H1707 H 0.17626 0.01116 0.67687 0.0
H1708 H 0.20258 0.04508 0.68555 0.0
H1709 H 0.20921 0.01654 0.68728 0.0
H1710 H 0.29639 0.03819 0.64086 0.0
H1711 H 0.32678 0.08537 0.65426 0.0
H1712 H 0.25187 0.088 0.673 0.0
C1713 C 0.18404 0.98295 0.64036 0.0
C1714 C 0.186 0.96171 0.62995 0.0
C1715 C 0.21326 0.96506 0.62656 0.0
C1716 C 0.23797 0.98914 0.63265 0.0
C1717 C 0.23539 0.00988 0.64239 0.0
C1718 C 0.20919 0.00705 0.64645 0.0
C1719 C 0.21278 0.03294 0.65696 0.0
C1720 C 0.20028 0.04718 0.64422 0.0
C1721 C 0.19943 0.02599 0.67792 0.0
C1722 C 0.24498 0.05054 0.65817 0.0
C1723 C 0.25749 0.03682 0.64948 0.0
C1724 C 0.28686 0.04906 0.6479 0.0
C1725 C 0.30399 0.07598 0.6555 0.0
C1726 C 0.29186 0.09045 0.66482 0.0
C1727 C 0.26186 0.07741 0.66618 0.0
H1728 H 0.05537 0.25029 0.6219 0.0
H1729 H 0.04555 0.17494 0.64818 0.0
H1730 H 0.99999 0.16512 0.66297 0.0
H1731 H 0.02339 0.26811 0.66398 0.0
H1732 H 1.00646 0.28125 0.64775 0.0
H1733 H 0.03929 0.2834 0.64028 0.0
H1734 H 0.01552 0.25705 0.60732 0.0
H1735 H 0.98271 0.25485 0.61475 0.0
H1736 H 0.9835 0.22374 0.60858 0.0
H1737 H 0.95357 0.16121 0.67244 0.0
H1738 H 0.91041 0.16441 0.67676 0.0
H1739 H 0.9505 0.24313 0.64578 0.0
C1740 C 0.04368 0.2318 0.63085 0.0
C1741 C 0.05416 0.21344 0.63394 0.0
C1742 C 0.03823 0.18953 0.64582 0.0
C1743 C 0.01225 0.18371 0.65425 0.0
C1744 C 1.00248 0.20213 0.65086 0.0
C1745 C 0.01777 0.22581 0.63958 0.0
C1746 C 1.00206 0.24179 0.63785 0.0
C1747 C 0.01881 0.27033 0.64807 0.0
C1748 C 0.99556 0.2445 0.61581 0.0
C1749 C 0.9752 0.22293 0.64935 0.0
C1750 C 0.97598 0.20026 0.65684 0.0
C1751 C 0.95299 0.17916 0.66699 0.0
C1752 C 0.92856 0.18123 0.66948 0.0
C1753 C 0.92741 0.20448 0.66224 0.0
C1754 C 0.95108 0.2255 0.65197 0.0
H1755 H 0.82542 0.85189 0.64763 0.0
H1756 H 0.74053 0.8029 0.62294 0.0
H1757 H 0.73738 0.76058 0.6369 0.0
H1758 H 0.8482 0.80525 0.63729 0.0
H1759 H 0.86847 0.81127 0.65999 0.0
H1760 H 0.86304 0.83821 0.65007 0.0
H1761 H 0.84146 0.84134 0.68392 0.0
H1762 H 0.84686 0.81435 0.69393 0.0
H1763 H 0.81202 0.81055 0.69431 0.0
H1764 H 0.7452 0.72348 0.65003 0.0
H1765 H 0.76341 0.69358 0.66196 0.0
H1766 H 0.84254 0.76631 0.67952 0.0
C1767 C 0.80589 0.83236 0.64561 0.0
C1768 C 0.78321 0.83067 0.63417 0.0
C1769 C 0.75828 0.80463 0.63145 0.0
C1770 C 0.75618 0.78052 0.63948 0.0
C1771 C 0.77908 0.78285 0.65039 0.0
C1772 C 0.80339 0.80809 0.65363 0.0
C1773 C 0.82565 0.80454 0.66472 0.0
C1774 C 0.85294 0.81546 0.65227 0.0
C1775 C 0.83186 0.81853 0.68545 0.0
C1776 C 0.81038 0.77328 0.66655 0.0
C1777 C 0.78344 0.76125 0.65835 0.0
C1778 C 0.76606 0.73263 0.65679 0.0
C1779 C 0.77664 0.71583 0.66348 0.0
C1780 C 0.80429 0.72771 0.67167 0.0
C1781 C 0.82112 0.75676 0.67364 0.0
H1782 H 0.04418 0.7941 0.64216 0.0
H1783 H 0.03579 0.8667 0.65091 0.0
H1784 H 0.98609 0.83648 0.66216 0.0
H1785 H 0.9761 0.74996 0.62262 0.0
H1786 H 0.97146 0.71928 0.63497 0.0
H1787 H 1.00654 0.74685 0.62897 0.0
H1788 H 0.02134 0.74989 0.66619 0.0
H1789 H 0.9862 0.72244 0.67244 0.0
H1790 H 1.00124 0.75534 0.68529 0.0
H1791 H 0.93525 0.79675 0.67004 0.0
H1792 H 0.89001 0.75246 0.67461 0.0
H1793 H 0.93304 0.70675 0.66149 0.0
C1794 C 0.03199 0.80369 0.64668 0.0
C1795 C 0.04388 0.83276 0.64571 0.0
C1796 C 0.02721 0.84451 0.65163 0.0
C1797 C 0.99893 0.82746 0.65803 0.0
C1798 C 0.98774 0.79874 0.65858 0.0
C1799 C 1.00397 0.78706 0.65321 0.0
C1800 C 0.98709 0.75572 0.65458 0.0
C1801 C 0.98519 0.74217 0.63406 0.0
C1802 C 0.99972 0.74524 0.67058 0.0
C1803 C 0.95853 0.75136 0.66105 0.0
C1804 C 0.95921 0.77635 0.66343 0.0
C1805 C 0.93476 0.77719 0.66852 0.0
C1806 C 0.90917 0.75195 0.67121 0.0
C1807 C 0.90828 0.72623 0.66905 0.0
C1808 C 0.9333 0.72612 0.66375 0.0
H1809 H 0.17504 0.15968 0.63602 0.0
H1810 H 0.19889 0.24444 0.65088 0.0
H1811 H 0.2434 0.25155 0.66616 0.0
H1812 H 0.20364 0.14776 0.6826 0.0
H1813 H 0.21608 0.12655 0.671 0.0
H1814 H 0.18527 0.12659 0.66117 0.0
H1815 H 0.20754 0.1408 0.62616 0.0
H1816 H 0.23802 0.13955 0.6351 0.0
H1817 H 0.24249 0.17065 0.62355 0.0
H1818 H 0.2881 0.25164 0.67461 0.0
H1819 H 0.32785 0.24292 0.68005 0.0
H1820 H 0.27318 0.15642 0.66444 0.0
C1821 C 0.18954 0.17959 0.64275 0.0
C1822 C 0.18365 0.20156 0.64228 0.0
C1823 C 0.20295 0.22732 0.65122 0.0
C1824 C 0.22828 0.23154 0.6599 0.0
C1825 C 0.23363 0.20956 0.66 0.0
C1826 C 0.21457 0.18388 0.65205 0.0
C1827 C 0.22562 0.16382 0.65412 0.0
C1828 C 0.20653 0.13974 0.66805 0.0
C1829 C 0.2286 0.15309 0.6335 0.0
C1830 C 0.25438 0.18259 0.66366 0.0
C1831 C 0.25859 0.20896 0.66676 0.0
C1832 C 0.28473 0.23088 0.67294 0.0
C1833 C 0.30716 0.22579 0.67598 0.0
C1834 C 0.30309 0.19882 0.67354 0.0
C1835 C 0.27632 0.17689 0.66741 0.0
H1836 H 0.83395 0.0058 0.61345 0.0
H1837 H 0.82136 0.961 0.66897 0.0
H1838 H 0.82569 1.00116 0.688 0.0
H1839 H 0.88493 0.07369 0.63217 0.0
H1840 H 0.87085 0.09111 0.61749 0.0
H1841 H 0.86772 0.05918 0.60852 0.0
H1842 H 0.81321 0.03774 0.60545 0.0
H1843 H 0.81622 0.06957 0.61453 0.0
H1844 H 0.79319 0.03739 0.62705 0.0
H1845 H 0.83164 0.04665 0.70083 0.0
H1846 H 0.83742 0.09314 0.70623 0.0
H1847 H 0.84457 0.10686 0.6421 0.0
C1848 C 0.8323 0.00457 0.62963 0.0
C1849 C 0.82746 0.9805 0.63979 0.0
C1850 C 0.82511 0.97935 0.66093 0.0
C1851 C 0.82754 1.00203 0.67184 0.0
C1852 C 0.8321 0.02546 0.66133 0.0
C1853 C 0.83436 0.02681 0.64068 0.0
C1854 C 0.83854 0.05401 0.63288 0.0
C1855 C 0.86722 0.07046 0.62214 0.0
C1856 C 0.81381 0.04939 0.61917 0.0
C1857 C 0.8383 0.06778 0.65235 0.0
C1858 C 0.83476 0.05114 0.66863 0.0
C1859 C 0.83441 0.05984 0.68819 0.0
C1860 C 0.83787 0.08631 0.69114 0.0
C1861 C 0.84139 0.10352 0.67461 0.0
C1862 C 0.84145 0.09399 0.65502 0.0
H1863 H 0.52742 0.36954 0.71873 0.0
H1864 H 0.48862 0.3768 0.77338 0.0
H1865 H 0.44444 0.33359 0.76495 0.0
H1866 H 0.46302 0.33792 0.68708 0.0
H1867 H 0.47199 0.31454 0.67474 0.0
H1868 H 0.49969 0.34757 0.68391 0.0
H1869 H 0.52029 0.32244 0.70459 0.0
H1870 H 0.49242 0.28945 0.6955 0.0
H1871 H 0.49776 0.29594 0.72208 0.0
H1872 H 0.40499 0.28948 0.75144 0.0
H1873 H 0.37324 0.24507 0.73475 0.0
H1874 H 0.43785 0.26312 0.68982 0.0
C1875 C 0.50938 0.36219 0.72866 0.0
C1876 C 0.51117 0.3767 0.74657 0.0
C1877 C 0.48752 0.36608 0.75953 0.0
C1878 C 0.46233 0.3416 0.75484 0.0
C1879 C 0.46118 0.32754 0.73726 0.0
C1880 C 0.48408 0.33718 0.72441 0.0
C1881 C 0.47759 0.3167 0.70728 0.0
C1882 C 0.4781 0.32998 0.68706 0.0
C1883 C 0.49825 0.30547 0.70738 0.0
C1884 C 0.44765 0.29415 0.71265 0.0
C1885 C 0.43857 0.30113 0.72985 0.0
C1886 C 0.41184 0.28377 0.73793 0.0
C1887 C 0.39392 0.25847 0.7283 0.0
C1888 C 0.40277 0.25039 0.71081 0.0
C1889 C 0.43012 0.26866 0.70295 0.0
H1890 H 0.65226 0.09907 0.72819 0.0
H1891 H 0.65478 0.17416 0.70827 0.0
H1892 H 0.70328 0.19146 0.69508 0.0
H1893 H 0.72272 0.12992 0.74495 0.0
H1894 H 0.7282 0.10217 0.73662 0.0
H1895 H 0.69311 0.09504 0.743 0.0
H1896 H 0.67497 0.07328 0.70782 0.0
H1897 H 0.71009 0.08041 0.70131 0.0
H1898 H 0.69219 0.09327 0.6858 0.0
H1899 H 0.75331 0.20177 0.6862 0.0
H1900 H 0.79955 0.20385 0.68243 0.0
H1901 H 0.76356 0.12163 0.70771 0.0
C1902 C 0.66292 0.11903 0.72083 0.0
C1903 C 0.64975 0.13523 0.7192 0.0
C1904 C 0.6644 0.16132 0.70961 0.0
C1905 C 0.69195 0.17129 0.70205 0.0
C1906 C 0.70445 0.15484 0.70408 0.0
C1907 C 0.69027 0.12917 0.71315 0.0
C1908 C 0.7086 0.11587 0.71414 0.0
C1909 C 0.71344 0.11045 0.73597 0.0
C1910 C 0.69568 0.08912 0.70152 0.0
C1911 C 0.73565 0.13837 0.7048 0.0
C1912 C 0.73283 0.1606 0.69885 0.0
C1913 C 0.75553 0.18428 0.69054 0.0
C1914 C 0.78169 0.18524 0.68836 0.0
C1915 C 0.78485 0.16257 0.69428 0.0
C1916 C 0.76152 0.13899 0.70267 0.0
H1917 H 0.88111 0.53558 0.75799 0.0
H1918 H 0.91493 0.5184 0.70443 0.0
H1919 H 0.90991 0.55403 0.68617 0.0
H1920 H 0.82869 0.54458 0.7332 0.0
H1921 H 0.83229 0.57219 0.74934 0.0
H1922 H 0.84039 0.54673 0.75875 0.0
H1923 H 0.89067 0.58586 0.769 0.0
H1924 H 0.88266 0.61142 0.7596 0.0
H1925 H 0.91328 0.61046 0.75048 0.0
H1926 H 0.89989 0.59008 0.67335 0.0
H1927 H 0.88415 0.62375 0.66659 0.0
H1928 H 0.85527 0.61678 0.72783 0.0
C1929 C 0.88773 0.53961 0.74248 0.0
C1930 C 0.89839 0.52432 0.73261 0.0
C1931 C 0.90661 0.52983 0.71227 0.0
C1932 C 0.90395 0.5501 0.70179 0.0
C1933 C 0.89306 0.56462 0.71187 0.0
C1934 C 0.88504 0.55968 0.73174 0.0
C1935 C 0.87267 0.57731 0.73871 0.0
C1936 C 0.84167 0.55911 0.74539 0.0
C1937 C 0.89092 0.59746 0.75544 0.0
C1938 C 0.87467 0.59262 0.71956 0.0
C1939 C 0.8867 0.58511 0.70432 0.0
C1940 C 0.89027 0.59598 0.68512 0.0
C1941 C 0.88088 0.61472 0.6813 0.0
C1942 C 0.86782 0.62206 0.6965 0.0
C1943 C 0.86519 0.61135 0.71597 0.0
H1944 H 0.40755 0.89063 0.23305 0.0
H1945 H 0.49548 0.93236 0.25254 0.0
H1946 H 0.51057 0.953 0.21905 0.0
H1947 H 0.41978 0.87578 0.18234 0.0
H1948 H 0.39341 0.88228 0.17145 0.0
H1949 H 0.38938 0.86998 0.19682 0.0
H1950 H 0.38559 0.91207 0.20931 0.0
H1951 H 0.38943 0.92438 0.18398 0.0
H1952 H 0.41331 0.94666 0.20323 0.0
H1953 H 0.51625 0.9702 0.1836 0.0
H1954 H 0.51172 0.98424 0.14941 0.0
H1955 H 0.42027 0.93099 0.15266 0.0
C1956 C 0.42997 0.9042 0.23031 0.0
C1957 C 0.45032 0.9096 0.24546 0.0
C1958 C 0.47948 0.92741 0.24114 0.0
C1959 C 0.48829 0.93935 0.22215 0.0
C1960 C 0.46775 0.93338 0.20753 0.0
C1961 C 0.43918 0.91631 0.21139 0.0
C1962 C 0.42142 0.91378 0.19314 0.0
C1963 C 0.40504 0.88366 0.18549 0.0
C1964 C 0.40125 0.92489 0.19769 0.0
C1965 C 0.44445 0.93235 0.17855 0.0
C1966 C 0.47103 0.94331 0.1871 0.0
C1967 C 0.49553 0.96158 0.1767 0.0
C1968 C 0.49276 0.96927 0.15718 0.0
C1969 C 0.46567 0.95877 0.14821 0.0
C1970 C 0.44131 0.93966 0.15906 0.0
H1971 H 0.06105 0.54693 0.24729 0.0
H1972 H 0.12816 0.53038 0.23044 0.0
H1973 H 0.11056 0.52147 0.19573 0.0
H1974 H 1.00709 0.49591 0.2166 0.0
H1975 H 0.99179 0.51675 0.20947 0.0
H1976 H 0.01005 0.52296 0.23308 0.0
H1977 H 0.04344 0.57434 0.22353 0.0
H1978 H 0.02509 0.56836 0.19995 0.0
H1979 H 0.06295 0.58244 0.20037 0.0
H1980 H 0.08392 0.51064 0.1638 0.0
H1981 H 0.05199 0.50227 0.13537 0.0
H1982 H 1.00415 0.52967 0.17151 0.0
C1983 C 0.07229 0.54187 0.23622 0.0
C1984 C 0.09571 0.5389 0.24171 0.0
C1985 C 0.10974 0.53209 0.22676 0.0
C1986 C 0.10005 0.52718 0.20695 0.0
C1987 C 0.07654 0.52956 0.20216 0.0
C1988 C 0.06304 0.53713 0.21623 0.0
C1989 C 0.03807 0.53801 0.20696 0.0
C1990 C 0.0101 0.51716 0.21713 0.0
C1991 C 0.04267 0.56755 0.20775 0.0
C1992 C 0.03943 0.52924 0.18563 0.0
C1993 C 0.06177 0.52444 0.18328 0.0
C1994 C 0.0667 0.51491 0.16529 0.0
C1995 C 0.04849 0.51042 0.14915 0.0
C1996 C 0.02573 0.5158 0.15092 0.0
C1997 C 0.02123 0.52529 0.16954 0.0
H1998 H 0.51282 0.58698 0.23092 0.0
H1999 H 0.45508 0.50143 0.2479 0.0
H2000 H 0.46278 0.48566 0.21541 0.0
H2001 H 0.49647 0.58064 0.17834 0.0
H2002 H 0.53276 0.60254 0.17066 0.0
H2003 H 0.52128 0.60778 0.19477 0.0
H2004 H 0.56083 0.60253 0.21214 0.0
H2005 H 0.57257 0.59751 0.18809 0.0
H2006 H 0.56326 0.57192 0.20741 0.0
H2007 H 0.47595 0.47867 0.18078 0.0
H2008 H 0.49842 0.48097 0.14802 0.0
H2009 H 0.55145 0.56997 0.1548 0.0
C2010 C 0.50189 0.5649 0.228 0.0
C2011 C 0.48269 0.54566 0.2421 0.0
C2012 C 0.46899 0.51692 0.2373 0.0
C2013 C 0.47342 0.50761 0.21885 0.0
C2014 C 0.49211 0.52711 0.20533 0.0
C2015 C 0.50655 0.55511 0.20979 0.0
C2016 C 0.52686 0.57154 0.19306 0.0
C2017 C 0.51885 0.59182 0.18365 0.0
C2018 C 0.55771 0.58677 0.20063 0.0
C2019 C 0.52155 0.54835 0.17856 0.0
C2020 C 0.50105 0.52293 0.18581 0.0
C2021 C 0.49213 0.49844 0.17499 0.0
C2022 C 0.50486 0.49991 0.15642 0.0
C2023 C 0.52651 0.52558 0.14904 0.0
C2024 C 0.53487 0.55011 0.1602 0.0
H2025 H 0.96655 0.48492 0.78699 0.0
H2026 H 0.89782 0.40096 0.79679 0.0
H2027 H 0.91482 0.40269 0.83143 0.0
H2028 H 0.01907 0.47802 0.81396 0.0
H2029 H 0.03627 0.51272 0.82412 0.0
H2030 H 0.01789 0.50537 0.80049 0.0
H2031 H 0.98705 0.52517 0.81408 0.0
H2032 H 1.00542 0.53268 0.83775 0.0
H2033 H 0.96732 0.51149 0.83691 0.0
H2034 H 0.93942 0.41355 0.86484 0.0
H2035 H 0.97116 0.43211 0.89433 0.0
H2036 H 0.02452 0.50849 0.86234 0.0
C2037 C 0.95493 0.46705 0.79653 0.0
C2038 C 0.93083 0.44284 0.78934 0.0
C2039 C 0.91641 0.41964 0.80208 0.0
C2040 C 0.92583 0.42048 0.82175 0.0
C2041 C 0.94978 0.44462 0.82836 0.0
C2042 C 0.96421 0.46744 0.81613 0.0
C2043 C 0.98996 0.49044 0.82665 0.0
C2044 C 0.01742 0.49701 0.81565 0.0
C2045 C 0.98726 0.51648 0.82898 0.0
C2046 C 0.98783 0.47693 0.84667 0.0
C2047 C 0.96436 0.45061 0.84743 0.0
C2048 C 0.95786 0.43414 0.86443 0.0
C2049 C 0.97592 0.44485 0.8811 0.0
C2050 C 1.00027 0.47164 0.88054 0.0
C2051 C 1.0062 0.48782 0.86308 0.0
H2052 H 0.56309 0.46545 0.80734 0.0
H2053 H 0.58118 0.53811 0.77252 0.0
H2054 H 0.56736 0.55668 0.80112 0.0
H2055 H 0.50114 0.45859 0.83173 0.0
H2056 H 0.50826 0.44777 0.85537 0.0
H2057 H 0.52077 0.44048 0.83245 0.0
H2058 H 0.57202 0.46554 0.84655 0.0
H2059 H 0.55968 0.47301 0.86949 0.0
H2060 H 0.58751 0.50082 0.85536 0.0
H2061 H 0.55029 0.56701 0.8327 0.0
H2062 H 0.53017 0.56814 0.86553 0.0
H2063 H 0.52232 0.48894 0.88052 0.0
C2064 C 0.56413 0.48526 0.80574 0.0
C2065 C 0.57363 0.50045 0.78768 0.0
C2066 C 0.57466 0.52632 0.78628 0.0
C2067 C 0.56668 0.53701 0.80243 0.0
C2068 C 0.55762 0.52165 0.81999 0.0
C2069 C 0.55622 0.49633 0.8218 0.0
C2070 C 0.54503 0.48386 0.84229 0.0
C2071 C 0.51714 0.45603 0.84034 0.0
C2072 C 0.5674 0.48062 0.85412 0.0
C2073 C 0.5401 0.50603 0.85157 0.0
C2074 C 0.54762 0.52765 0.83839 0.0
C2075 C 0.54438 0.55024 0.84317 0.0
C2076 C 0.53283 0.55065 0.86183 0.0
C2077 C 0.52462 0.52863 0.87556 0.0
C2078 C 0.52868 0.5062 0.87041 0.0
H2079 H 0.50304 0.07802 0.78682 0.0
H2080 H 0.59377 0.12984 0.79659 0.0
H2081 H 0.58817 0.11187 0.83095 0.0
H2082 H 0.48239 0.08737 0.83671 0.0
H2083 H 0.45309 0.0523 0.83807 0.0
H2084 H 0.46429 0.06917 0.81415 0.0
H2085 H 0.47072 0.02883 0.80107 0.0
H2086 H 0.45963 0.01189 0.82495 0.0
H2087 H 0.49334 0.01955 0.81463 0.0
H2088 H 0.57283 0.08723 0.86419 0.0
H2089 H 0.54886 0.05822 0.89359 0.0
H2090 H 0.46781 0.02502 0.86295 0.0
C2091 C 0.52174 0.08586 0.79621 0.0
C2092 C 0.54891 0.10523 0.78878 0.0
C2093 C 0.57279 0.11458 0.80164 0.0
C2094 C 0.56981 0.10467 0.8213 0.0
C2095 C 0.54278 0.08555 0.82806 0.0
C2096 C 0.51914 0.07635 0.81594 0.0
C2097 C 0.49247 0.05572 0.82685 0.0
C2098 C 0.47185 0.06681 0.82908 0.0
C2099 C 0.47821 0.02732 0.81624 0.0
C2100 C 0.50485 0.05455 0.84693 0.0
C2101 C 0.53389 0.07191 0.84734 0.0
C2102 C 0.55004 0.07376 0.8641 0.0
C2103 C 0.53616 0.05731 0.88083 0.0
C2104 C 0.50633 0.03925 0.88078 0.0
C2105 C 0.49063 0.03824 0.86354 0.0
H2106 H 0.11018 0.27227 0.57667 0.0
H2107 H 0.12773 0.20573 0.56512 0.0
H2108 H 0.14057 0.22175 0.53017 0.0
H2109 H 0.08086 0.27214 0.52729 0.0
H2110 H 0.0971 0.30936 0.52673 0.0
H2111 H 0.08741 0.29144 0.55034 0.0
H2112 H 0.13904 0.32193 0.56307 0.0
H2113 H 0.14889 0.3399 0.53951 0.0
H2114 H 0.1678 0.32337 0.54876 0.0
H2115 H 0.15293 0.24609 0.49658 0.0
H2116 H 0.16618 0.27812 0.46787 0.0
H2117 H 0.14126 0.32913 0.50161 0.0
C2118 C 0.11627 0.2608 0.56668 0.0
C2119 C 0.11779 0.23763 0.57358 0.0
C2120 C 0.1265 0.22357 0.56017 0.0
C2121 C 0.13369 0.23244 0.54026 0.0
C2122 C 0.1322 0.2555 0.53398 0.0
C2123 C 0.12379 0.26954 0.54683 0.0
C2124 C 0.12548 0.29461 0.5367 0.0
C2125 C 0.09595 0.2917 0.53517 0.0
C2126 C 0.14656 0.32154 0.54766 0.0
C2127 C 0.13646 0.29268 0.51625 0.0
C2128 C 0.13989 0.26981 0.51487 0.0
C2129 C 0.15019 0.26399 0.49748 0.0
C2130 C 0.15753 0.28222 0.4812 0.0
C2131 C 0.15481 0.30617 0.48245 0.0
C2132 C 0.14381 0.31114 0.5002 0.0
H2133 H 0.72861 0.83796 0.57863 0.0
H2134 H 0.80571 0.91495 0.56511 0.0
H2135 H 0.78776 0.91409 0.53099 0.0
H2136 H 0.71988 0.80627 0.52925 0.0
H2137 H 0.68178 0.7902 0.52965 0.0
H2138 H 0.7012 0.79639 0.55276 0.0
H2139 H 0.67812 0.824 0.56644 0.0
H2140 H 0.65879 0.81807 0.54333 0.0
H2141 H 0.68131 0.85296 0.55239 0.0
H2142 H 0.76099 0.90568 0.49882 0.0
H2143 H 0.72722 0.89007 0.47051 0.0
H2144 H 0.66775 0.81816 0.50472 0.0
C2145 C 0.74188 0.85441 0.56839 0.0
C2146 C 0.76854 0.87656 0.57451 0.0
C2147 C 0.78509 0.89795 0.56078 0.0
C2148 C 0.77515 0.89757 0.54136 0.0
C2149 C 0.74863 0.87564 0.53588 0.0
C2150 C 0.73225 0.8544 0.54895 0.0
C2151 C 0.70422 0.83362 0.53944 0.0
C2152 C 0.70163 0.80492 0.53767 0.0
C2153 C 0.67913 0.83209 0.55109 0.0
C2154 C 0.70731 0.84665 0.51906 0.0
C2155 C 0.73315 0.87081 0.5173 0.0
C2156 C 0.74077 0.88669 0.49995 0.0
C2157 C 0.7215 0.87759 0.48393 0.0
C2158 C 0.69489 0.85285 0.48536 0.0
C2159 C 0.6878 0.83727 0.50322 0.0
H2160 H 0.18771 0.90577 0.57736 0.0
H2161 H 0.09784 0.87316 0.56655 0.0
H2162 H 0.10209 0.85461 0.53389 0.0
H2163 H 0.20993 0.92712 0.52583 0.0
H2164 H 0.23742 0.91817 0.5269 0.0
H2165 H 0.22719 0.92904 0.54931 0.0
H2166 H 0.21718 0.88368 0.5669 0.0
H2167 H 0.22725 0.87263 0.54454 0.0
H2168 H 0.19289 0.85073 0.5555 0.0
H2169 H 0.11607 0.83784 0.50269 0.0
H2170 H 0.13851 0.82492 0.47589 0.0
H2171 H 0.21985 0.87187 0.50612 0.0
C2172 C 0.16893 0.89518 0.56806 0.0
C2173 C 0.14238 0.89096 0.57474 0.0
C2174 C 0.11835 0.87635 0.56207 0.0
C2175 C 0.12059 0.8659 0.54336 0.0
C2176 C 0.14706 0.87041 0.53734 0.0
C2177 C 0.17084 0.88489 0.54928 0.0
C2178 C 0.1968 0.88674 0.53946 0.0
C2179 C 0.21915 0.91707 0.53512 0.0
C2180 C 0.20925 0.8726 0.55237 0.0
C2181 C 0.18388 0.87067 0.52026 0.0
C2182 C 0.15518 0.86143 0.51927 0.0
C2183 C 0.13861 0.84528 0.50323 0.0
C2184 C 0.15165 0.8382 0.48795 0.0
C2185 C 0.18108 0.84731 0.48869 0.0
C2186 C 0.19728 0.86413 0.50505 0.0
H2187 H 0.58347 0.7569 0.14262 0.0
H2188 H 0.62836 0.836 0.11222 0.0
H2189 H 0.65925 0.85661 0.14187 0.0
H2190 H 0.58643 0.78552 0.19284 0.0
H2191 H 0.59133 0.75948 0.20511 0.0
H2192 H 0.57171 0.75138 0.18193 0.0
H2193 H 0.60531 0.73625 0.16617 0.0
H2194 H 0.62504 0.74434 0.18926 0.0
H2195 H 0.64302 0.76012 0.16621 0.0
H2196 H 0.68791 0.86741 0.17341 0.0
H2197 H 0.71061 0.86844 0.20579 0.0
H2198 H 0.64596 0.78305 0.21643 0.0
C2199 C 0.59966 0.77861 0.14232 0.0
C2200 C 0.60351 0.79492 0.12519 0.0
C2201 C 0.62485 0.82327 0.1253 0.0
C2202 C 0.64255 0.8351 0.14203 0.0
C2203 C 0.63841 0.81839 0.15859 0.0
C2204 C 0.6173 0.79084 0.15898 0.0
C2205 C 0.61773 0.77733 0.17852 0.0
C2206 C 0.59016 0.76788 0.1903 0.0
C2207 C 0.6231 0.75308 0.17481 0.0
C2208 C 0.64278 0.80141 0.18887 0.0
C2209 C 0.65443 0.82489 0.17709 0.0
C2210 C 0.67875 0.84929 0.1829 0.0
C2211 C 0.69153 0.84968 0.20122 0.0
C2212 C 0.6798 0.82593 0.21355 0.0
C2213 C 0.65499 0.8016 0.20737 0.0
H2214 H 0.1996 0.81023 0.12602 0.0
H2215 H 0.28848 0.84087 0.13929 0.0
H2216 H 0.28065 0.84989 0.17431 0.0
H2217 H 0.19148 0.8585 0.15687 0.0
H2218 H 0.15611 0.83351 0.16479 0.0
H2219 H 0.16884 0.8297 0.14077 0.0
H2220 H 0.15753 0.78018 0.1503 0.0
H2221 H 0.14474 0.78382 0.17435 0.0
H2222 H 0.1724 0.77512 0.17293 0.0
H2223 H 0.26287 0.8553 0.20809 0.0
H2224 H 0.23683 0.85761 0.23763 0.0
H2225 H 0.15933 0.82193 0.20237 0.0
C2226 C 0.2174 0.81864 0.13631 0.0
C2227 C 0.24468 0.82487 0.12985 0.0
C2228 C 0.26747 0.83627 0.14378 0.0
C2229 C 0.26319 0.84129 0.16374 0.0
C2230 C 0.236 0.83478 0.1696 0.0
C2231 C 0.21351 0.82372 0.15627 0.0
C2232 C 0.18639 0.81862 0.1663 0.0
C2233 C 0.17505 0.83613 0.15661 0.0
C2234 C 0.16395 0.78759 0.16595 0.0
C2235 C 0.19713 0.82857 0.18736 0.0
C2236 C 0.22578 0.83777 0.18899 0.0
C2237 C 0.2404 0.84805 0.207 0.0
C2238 C 0.22537 0.8491 0.22374 0.0
C2239 C 0.19599 0.83993 0.22239 0.0
C2240 C 0.18182 0.82942 0.2039 0.0
H2241 H 0.22252 0.41107 0.11777 0.0
H2242 H 0.20766 0.47814 0.13386 0.0
H2243 H 0.19521 0.45977 0.16827 0.0
H2244 H 0.1647 0.35901 0.14466 0.0
H2245 H 0.18263 0.34084 0.15244 0.0
H2246 H 0.19297 0.36061 0.12965 0.0
H2247 H 0.24476 0.38886 0.14254 0.0
H2248 H 0.23459 0.36906 0.16535 0.0
H2249 H 0.25189 0.40635 0.16643 0.0
H2250 H 0.18188 0.4327 0.20048 0.0
H2251 H 0.16746 0.39837 0.22766 0.0
H2252 H 0.19059 0.34852 0.19073 0.0
C2253 C 0.21721 0.42217 0.12868 0.0
C2254 C 0.21622 0.44615 0.12318 0.0
C2255 C 0.20851 0.45973 0.13775 0.0
C2256 C 0.20151 0.44951 0.15734 0.0
C2257 C 0.20221 0.42557 0.16221 0.0
C2258 C 0.20988 0.41206 0.14831 0.0
C2259 C 0.20729 0.38582 0.15707 0.0
C2260 C 0.1856 0.36005 0.14525 0.0
C2261 C 0.23637 0.38764 0.1579 0.0
C2262 C 0.19657 0.38647 0.17794 0.0
C2263 C 0.19408 0.40973 0.18067 0.0
C2264 C 0.18398 0.41453 0.19856 0.0
C2265 C 0.17597 0.39495 0.21398 0.0
C2266 C 0.17788 0.37068 0.21145 0.0
C2267 C 0.18862 0.36669 0.19316 0.0
H2268 H 0.74119 0.55046 0.89604 0.0
H2269 H 0.82886 0.58916 0.91582 0.0
H2270 H 0.84465 0.6109 0.88273 0.0
H2271 H 0.75341 0.5384 0.84378 0.0
H2272 H 0.72754 0.5465 0.83412 0.0
H2273 H 0.72317 0.53184 0.85876 0.0
H2274 H 0.72022 0.57321 0.87387 0.0
H2275 H 0.72458 0.58797 0.84931 0.0
H2276 H 0.74852 0.60808 0.86925 0.0
H2277 H 0.85091 0.63163 0.84825 0.0
H2278 H 0.84691 0.64983 0.81553 0.0
H2279 H 0.7553 0.59728 0.81788 0.0
C2280 C 0.76373 0.56334 0.89341 0.0
C2281 C 0.78373 0.56776 0.90863 0.0
C2282 C 0.81305 0.58481 0.90439 0.0
C2283 C 0.82227 0.59745 0.88562 0.0
C2284 C 0.802 0.59287 0.87108 0.0
C2285 C 0.77333 0.57614 0.87473 0.0
C2286 C 0.75585 0.57568 0.85688 0.0
C2287 C 0.739 0.54636 0.84785 0.0
C2288 C 0.73614 0.58691 0.86268 0.0
C2289 C 0.77913 0.59526 0.84284 0.0
C2290 C 0.80561 0.60478 0.85123 0.0
C2291 C 0.83028 0.62402 0.84142 0.0
C2292 C 0.82779 0.63412 0.82272 0.0
C2293 C 0.80081 0.62506 0.81394 0.0
C2294 C 0.77628 0.60493 0.82413 0.0
H2295 H 0.43685 0.22333 0.89157 0.0
H2296 H 0.38767 0.14814 0.92594 0.0
H2297 H 0.35457 0.12712 0.89749 0.0
H2298 H 0.37814 0.22376 0.86861 0.0
H2299 H 0.39547 0.2365 0.84486 0.0
H2300 H 0.41621 0.24511 0.86751 0.0
H2301 H 0.44578 0.22485 0.85234 0.0
H2302 H 0.42509 0.21614 0.82963 0.0
H2303 H 0.42794 0.18966 0.84306 0.0
H2304 H 0.32533 0.11521 0.86618 0.0
H2305 H 0.30252 0.11279 0.83365 0.0
H2306 H 0.37058 0.19558 0.81947 0.0
C2307 C 0.41914 0.20243 0.89309 0.0
C2308 C 0.41492 0.18734 0.91097 0.0
C2309 C 0.39159 0.15996 0.9123 0.0
C2310 C 0.37259 0.14788 0.89626 0.0
C2311 C 0.37725 0.16339 0.87893 0.0
C2312 C 0.40001 0.19001 0.87719 0.0
C2313 C 0.39981 0.20239 0.85706 0.0
C2314 C 0.39725 0.22848 0.85968 0.0
C2315 C 0.42622 0.20862 0.8448 0.0
C2316 C 0.37315 0.17871 0.84788 0.0
C2317 C 0.3605 0.15641 0.86075 0.0
C2318 C 0.33513 0.13247 0.85592 0.0
C2319 C 0.32227 0.13134 0.83748 0.0
C2320 C 0.33481 0.15396 0.82406 0.0
C2321 C 0.36072 0.17783 0.82932 0.0
H2322 H 0.84335 0.22702 0.91265 0.0
H2323 H 0.77403 0.23998 0.89612 0.0
H2324 H 0.78212 0.23436 0.86024 0.0
H2325 H 0.88903 0.26296 0.8729 0.0
H2326 H 0.90181 0.23903 0.8694 0.0
H2327 H 0.88954 0.24262 0.89364 0.0
H2328 H 0.85359 0.18983 0.89431 0.0
H2329 H 0.86593 0.18604 0.87012 0.0
H2330 H 0.8288 0.17402 0.8739 0.0
H2331 H 0.80162 0.23239 0.82609 0.0
H2332 H 0.82759 0.23009 0.7967 0.0
H2333 H 0.88079 0.21311 0.83591 0.0
C2334 C 0.82967 0.22827 0.90143 0.0
C2335 C 0.80808 0.23391 0.90699 0.0
C2336 C 0.79054 0.23547 0.89204 0.0
C2337 C 0.79506 0.2324 0.87169 0.0
C2338 C 0.81686 0.22725 0.86664 0.0
C2339 C 0.83352 0.22468 0.88113 0.0
C2340 C 0.85559 0.21921 0.87179 0.0
C2341 C 0.88577 0.24233 0.87726 0.0
C2342 C 0.85067 0.19057 0.87789 0.0
C2343 C 0.84931 0.21988 0.84976 0.0
C2344 C 0.827 0.22466 0.84707 0.0
C2345 C 0.81868 0.22798 0.82803 0.0
C2346 C 0.83353 0.2264 0.81134 0.0
C2347 C 0.85633 0.22113 0.81366 0.0
C2348 C 0.86385 0.2175 0.83329 0.0
H2349 H 0.2872 0.15549 0.46029 0.0
H2350 H 0.22921 0.06872 0.47289 0.0
H2351 H 0.24879 0.07524 0.50719 0.0
H2352 H 0.346 0.15962 0.48547 0.0
H2353 H 0.35933 0.19427 0.49507 0.0
H2354 H 0.33898 0.18365 0.47221 0.0
H2355 H 0.30353 0.19701 0.48711 0.0
H2356 H 0.32395 0.20794 0.50998 0.0
H2357 H 0.28669 0.18249 0.51073 0.0
H2358 H 0.27628 0.09041 0.53923 0.0
H2359 H 0.31002 0.11324 0.56711 0.0
H2360 H 0.35092 0.19014 0.53366 0.0
C2361 C 0.27827 0.13807 0.47047 0.0
C2362 C 0.2566 0.11165 0.4641 0.0
C2363 C 0.24581 0.08912 0.47758 0.0
C2364 C 0.25675 0.09264 0.49705 0.0
C2365 C 0.27853 0.11881 0.50277 0.0
C2366 C 0.28917 0.14118 0.48992 0.0
C2367 C 0.31371 0.16668 0.49944 0.0
C2368 C 0.34112 0.17663 0.48732 0.0
C2369 C 0.30653 0.1899 0.50197 0.0
C2370 C 0.31545 0.15504 0.51952 0.0
C2371 C 0.29479 0.12746 0.52118 0.0
C2372 C 0.2924 0.11207 0.53818 0.0
C2373 C 0.31161 0.12523 0.55396 0.0
C2374 C 0.33304 0.15348 0.55259 0.0
C2375 C 0.3349 0.16848 0.53509 0.0
H2376 H 0.88795 0.10813 0.46096 0.0
H2377 H 0.92634 0.19448 0.44296 0.0
H2378 H 0.91553 0.20624 0.47593 0.0
H2379 H 0.82907 0.10741 0.48515 0.0
H2380 H 0.82649 0.08389 0.50456 0.0
H2381 H 0.84038 0.08259 0.48037 0.0
H2382 H 0.88622 0.08927 0.49727 0.0
H2383 H 0.87254 0.09081 0.52152 0.0
H2384 H 0.9064 0.11879 0.51346 0.0
H2385 H 0.90001 0.209 0.511 0.0
H2386 H 0.87571 0.2012 0.54373 0.0
H2387 H 0.84219 0.11278 0.53728 0.0
C2388 C 0.89406 0.12955 0.46371 0.0
C2389 C 0.90874 0.15033 0.44908 0.0
C2390 C 0.91621 0.17808 0.45384 0.0
C2391 C 0.90989 0.18506 0.4726 0.0
C2392 C 0.89547 0.16408 0.48651 0.0
C2393 C 0.88719 0.13681 0.48217 0.0
C2394 C 0.86973 0.11786 0.4991 0.0
C2395 C 0.83963 0.09669 0.49186 0.0
C2396 C 0.88462 0.10333 0.50839 0.0
C2397 C 0.86935 0.13874 0.51355 0.0
C2398 C 0.88484 0.16538 0.50618 0.0
C2399 C 0.88777 0.18823 0.5169 0.0
C2400 C 0.87404 0.18367 0.53547 0.0
C2401 C 0.85723 0.15647 0.5429 0.0
C2402 C 0.85503 0.13378 0.53186 0.0
H2403 H 0.83635 0.74135 0.45591 0.0
H2404 H 0.92448 0.80134 0.46883 0.0
H2405 H 0.91891 0.78239 0.50292 0.0
H2406 H 0.80915 0.74302 0.5057 0.0
H2407 H 0.78361 0.70644 0.50546 0.0
H2408 H 0.79429 0.72538 0.48229 0.0
H2409 H 0.8088 0.69084 0.46835 0.0
H2410 H 0.79832 0.67188 0.49149 0.0
H2411 H 0.8338 0.68505 0.48213 0.0
H2412 H 0.90436 0.75566 0.53517 0.0
H2413 H 0.88185 0.7234 0.56327 0.0
H2414 H 0.80258 0.68188 0.52996 0.0
C2415 C 0.85437 0.7508 0.46599 0.0
C2416 C 0.88091 0.77281 0.45959 0.0
C2417 C 0.90405 0.78423 0.47322 0.0
C2418 C 0.90105 0.77373 0.49269 0.0
C2419 C 0.87473 0.75184 0.49841 0.0
C2420 C 0.85175 0.74059 0.48551 0.0
C2421 C 0.82596 0.71673 0.49526 0.0
C2422 C 0.80183 0.7233 0.4973 0.0
C2423 C 0.81616 0.68952 0.48361 0.0
C2424 C 0.83815 0.71612 0.51555 0.0
C2425 C 0.86627 0.73661 0.51709 0.0
C2426 C 0.88225 0.73971 0.53422 0.0
C2427 C 0.86917 0.72135 0.55019 0.0
C2428 C 0.84032 0.70008 0.549 0.0
C2429 C 0.8247 0.69768 0.53139 0.0
loop_
_geom_bond_atom_site_label_1
_geom_bond_atom_site_label_2
_geom_bond_distance
_geom_bond_site_symmetry_2
_ccdc_geom_bond_type
H0 C5 0.930 . S
H1 C8 0.930 . S
H2 C10 0.930 . S
H3 C4 1.016 . S
C4 H3 1.016 . S
C4 N11 1.286 . S
C5 H0 0.930 . S
C5 C6 1.397 . S
C5 C7 1.361 . S
C6 C5 1.397 . S
C6 C10 1.390 . S
C7 C5 1.361 . S
C7 C8 1.393 . S
C7 N11 1.413 . S
C8 H1 0.930 . S
C8 C7 1.393 . S
C8 C9 1.399 . S
C9 C8 1.399 . S
C9 C10 1.381 . S
C10 H2 0.930 . S
C10 C6 1.390 . S
C10 C9 1.381 . S
N11 C4 1.286 . S
N11 C7 1.413 . S
H12 C17 0.930 . S
H13 C20 0.930 . S
H14 C22 0.930 . S
H15 C16 1.016 . S
C16 H15 1.016 . S
C16 N23 1.286 . S
C17 H12 0.930 . S
C17 C18 1.397 . S
C17 C19 1.361 . S
C18 C17 1.397 . S
C18 C22 1.390 . S
C19 C17 1.361 . S
C19 C20 1.393 . S
C19 N23 1.413 . S
C20 H13 0.930 . S
C20 C19 1.393 . S
C20 C21 1.399 . S
C21 C20 1.399 . S
C21 C22 1.381 . S
C22 H14 0.930 . S
C22 C18 1.390 . S
C22 C21 1.381 . S
N23 C16 1.286 . S
N23 C19 1.413 . S
H24 C29 0.930 . S
H25 C32 0.930 . S
H26 C34 0.930 . S
H27 C28 1.016 . S
C28 H27 1.016 . S
C28 N35 1.286 . S
C29 H24 0.930 . S
C29 C30 1.397 . S
C29 C31 1.361 . S
C30 C29 1.397 . S
C30 C34 1.390 . S
C31 C29 1.361 . S
C31 C32 1.393 . S
C31 N35 1.413 . S
C32 H25 0.930 . S
C32 C31 1.393 . S
C32 C33 1.399 . S
C33 C32 1.399 . S
C33 C34 1.381 . S
C34 H26 0.930 . S
C34 C30 1.390 . S
C34 C33 1.381 . S
N35 C28 1.286 . S
N35 C31 1.413 . S
H36 C41 0.930 . S
H37 C44 0.930 . S
H38 C46 0.930 . S
H39 C40 1.016 . S
C40 H39 1.016 . S
C40 N47 1.286 . S
C41 H36 0.930 . S
C41 C42 1.397 . S
C41 C43 1.361 . S
C42 C41 1.397 . S
C42 C46 1.390 . S
C43 C41 1.361 . S
C43 C44 1.393 . S
C43 N47 1.413 . S
C44 H37 0.930 . S
C44 C43 1.393 . S
C44 C45 1.399 . S
C45 C44 1.399 . S
C45 C46 1.381 . S
C46 H38 0.930 . S
C46 C42 1.390 . S
C46 C45 1.381 . S
N47 C40 1.286 . S
N47 C43 1.413 . S
H48 C53 0.930 . S
H49 C56 0.930 . S
H50 C58 0.930 . S
H51 C52 1.016 . S
C52 H51 1.016 . S
C52 N59 1.286 . S
C53 H48 0.930 . S
C53 C54 1.397 . S
C53 C55 1.361 . S
C54 C53 1.397 . S
C54 C58 1.390 . S
C55 C53 1.361 . S
C55 C56 1.393 . S
C55 N59 1.413 . S
C56 H49 0.930 . S
C56 C55 1.393 . S
C56 C57 1.399 . S
C57 C56 1.399 . S
C57 C58 1.381 . S
C58 H50 0.930 . S
C58 C54 1.390 . S
C58 C57 1.381 . S
N59 C52 1.286 . S
N59 C55 1.413 . S
H60 C65 0.930 . S
H61 C68 0.930 . S
H62 C70 0.930 . S
H63 C64 1.016 . S
C64 H63 1.016 . S
C64 N71 1.286 . S
C65 H60 0.930 . S
C65 C66 1.397 . S
C65 C67 1.361 . S
C66 C65 1.397 . S
C66 C70 1.390 . S
C67 C65 1.361 . S
C67 C68 1.393 . S
C67 N71 1.413 . S
C68 H61 0.930 . S
C68 C67 1.393 . S
C68 C69 1.399 . S
C69 C68 1.399 . S
C69 C70 1.381 . S
C70 H62 0.930 . S
C70 C66 1.390 . S
C70 C69 1.381 . S
N71 C64 1.286 . S
N71 C67 1.413 . S
H72 C77 0.930 . S
H73 C80 0.930 . S
H74 C82 0.930 . S
H75 C76 1.016 . S
C76 H75 1.016 . S
C76 N83 1.286 . S
C77 H72 0.930 . S
C77 C78 1.397 . S
C77 C79 1.361 . S
C78 C77 1.397 . S
C78 C82 1.390 . S
C79 C77 1.361 . S
C79 C80 1.393 . S
C79 N83 1.413 . S
C80 H73 0.930 . S
C80 C79 1.393 . S
C80 C81 1.399 . S
C81 C80 1.399 . S
C81 C82 1.381 . S
C82 H74 0.930 . S
C82 C78 1.390 . S
C82 C81 1.381 . S
N83 C76 1.286 . S
N83 C79 1.413 . S
H84 C89 0.930 . S
H85 C92 0.930 . S
H86 C94 0.930 . S
H87 C88 1.016 . S
C88 H87 1.016 . S
C88 N95 1.286 . S
C89 H84 0.930 . S
C89 C90 1.397 . S
C89 C91 1.361 . S
C90 C89 1.397 . S
C90 C94 1.390 . S
C91 C89 1.361 . S
C91 C92 1.393 . S
C91 N95 1.413 . S
C92 H85 0.930 . S
C92 C91 1.393 . S
C92 C93 1.399 . S
C93 C92 1.399 . S
C93 C94 1.381 . S
C94 H86 0.930 . S
C94 C90 1.390 . S
C94 C93 1.381 . S
N95 C88 1.286 . S
N95 C91 1.413 . S
H96 C101 0.930 . S
H97 C104 0.930 . S
H98 C106 0.930 . S
H99 C100 1.016 . S
C100 H99 1.016 . S
C100 N107 1.286 . S
C101 H96 0.930 . S
C101 C102 1.397 . S
C101 C103 1.361 . S
C102 C101 1.397 . S
C102 C106 1.390 . S
C103 C101 1.361 . S
C103 C104 1.393 . S
C103 N107 1.413 . S
C104 H97 0.930 . S
C104 C103 1.393 . S
C104 C105 1.399 . S
C105 C104 1.399 . S
C105 C106 1.381 . S
C106 H98 0.930 . S
C106 C102 1.390 . S
C106 C105 1.381 . S
N107 C100 1.286 . S
N107 C103 1.413 . S
H108 C113 0.930 . S
H109 C116 0.930 . S
H110 C118 0.930 . S
H111 C112 1.016 . S
C112 H111 1.016 . S
C112 N119 1.286 . S
C113 H108 0.930 . S
C113 C114 1.397 . S
C113 C115 1.361 . S
C114 C113 1.397 . S
C114 C118 1.390 . S
C115 C113 1.361 . S
C115 C116 1.393 . S
C115 N119 1.413 . S
C116 H109 0.930 . S
C116 C115 1.393 . S
C116 C117 1.399 . S
C117 C116 1.399 . S
C117 C118 1.381 . S
C118 H110 0.930 . S
C118 C114 1.390 . S
C118 C117 1.381 . S
N119 C112 1.286 . S
N119 C115 1.413 . S
H120 C125 0.930 . S
H121 C128 0.930 . S
H122 C130 0.930 . S
H123 C124 1.016 . S
C124 H123 1.016 . S
C124 N131 1.286 . S
C125 H120 0.930 . S
C125 C126 1.397 . S
C125 C127 1.361 . S
C126 C125 1.397 . S
C126 C130 1.390 . S
C127 C125 1.361 . S
C127 C128 1.393 . S
C127 N131 1.413 . S
C128 H121 0.930 . S
C128 C127 1.393 . S
C128 C129 1.399 . S
C129 C128 1.399 . S
C129 C130 1.381 . S
C130 H122 0.930 . S
C130 C126 1.390 . S
C130 C129 1.381 . S
N131 C124 1.286 . S
N131 C127 1.413 . S
H132 C137 0.930 . S
H133 C140 0.930 . S
H134 C142 0.930 . S
H135 C136 1.016 . S
C136 H135 1.016 . S
C136 N143 1.286 . S
C137 H132 0.930 . S
C137 C138 1.397 . S
C137 C139 1.361 . S
C138 C137 1.397 . S
C138 C142 1.390 . S
C139 C137 1.361 . S
C139 C140 1.393 . S
C139 N143 1.413 . S
C140 H133 0.930 . S
C140 C139 1.393 . S
C140 C141 1.399 . S
C141 C140 1.399 . S
C141 C142 1.381 . S
C142 H134 0.930 . S
C142 C138 1.390 . S
C142 C141 1.381 . S
N143 C136 1.286 . S
N143 C139 1.413 . S
H144 C149 0.930 . S
H145 C152 0.930 . S
H146 C154 0.930 . S
H147 C148 1.016 . S
C148 H147 1.016 . S
C148 N155 1.286 . S
C149 H144 0.930 . S
C149 C150 1.397 . S
C149 C151 1.361 . S
C150 C149 1.397 . S
C150 C154 1.390 . S
C151 C149 1.361 . S
C151 C152 1.393 . S
C151 N155 1.413 . S
C152 H145 0.930 . S
C152 C151 1.393 . S
C152 C153 1.399 . S
C153 C152 1.399 . S
C153 C154 1.381 . S
C154 H146 0.930 . S
C154 C150 1.390 . S
C154 C153 1.381 . S
N155 C148 1.286 . S
N155 C151 1.413 . S
H156 C161 0.930 . S
H157 C164 0.930 . S
H158 C166 0.930 . S
H159 C160 1.016 . S
C160 H159 1.016 . S
C160 N167 1.286 . S
C161 H156 0.930 . S
C161 C162 1.397 . S
C161 C163 1.361 . S
C162 C161 1.397 . S
C162 C166 1.390 . S
C163 C161 1.361 . S
C163 C164 1.393 . S
C163 N167 1.413 . S
C164 H157 0.930 . S
C164 C163 1.393 . S
C164 C165 1.399 . S
C165 C164 1.399 . S
C165 C166 1.381 . S
C166 H158 0.930 . S
C166 C162 1.390 . S
C166 C165 1.381 . S
N167 C160 1.286 . S
N167 C163 1.413 . S
H168 C173 0.930 . S
H169 C176 0.930 . S
H170 C178 0.930 . S
H171 C172 1.016 . S
C172 H171 1.016 . S
C172 N179 1.286 . S
C173 H168 0.930 . S
C173 C174 1.397 . S
C173 C175 1.361 . S
C174 C173 1.397 . S
C174 C178 1.390 . S
C175 C173 1.361 . S
C175 C176 1.393 . S
C175 N179 1.413 . S
C176 H169 0.930 . S
C176 C175 1.393 . S
C176 C177 1.399 . S
C177 C176 1.399 . S
C177 C178 1.381 . S
C178 H170 0.930 . S
C178 C174 1.390 . S
C178 C177 1.381 . S
N179 C172 1.286 . S
N179 C175 1.413 . S
H180 C185 0.930 . S
H181 C188 0.930 . S
H182 C190 0.930 . S
H183 C184 1.016 . S
C184 H183 1.016 . S
C184 N191 1.286 . S
C185 H180 0.930 . S
C185 C186 1.397 . S
C185 C187 1.361 . S
C186 C185 1.397 . S
C186 C190 1.390 . S
C187 C185 1.361 . S
C187 C188 1.393 . S
C187 N191 1.413 . S
C188 H181 0.930 . S
C188 C187 1.393 . S
C188 C189 1.399 . S
C189 C188 1.399 . S
C189 C190 1.381 . S
C190 H182 0.930 . S
C190 C186 1.390 . S
C190 C189 1.381 . S
N191 C184 1.286 . S
N191 C187 1.413 . S
H192 C197 0.930 . S
H193 C200 0.930 . S
H194 C202 0.930 . S
H195 C196 1.016 . S
C196 H195 1.016 . S
C196 N203 1.286 . S
C197 H192 0.930 . S
C197 C198 1.397 . S
C197 C199 1.361 . S
C198 C197 1.397 . S
C198 C202 1.390 . S
C199 C197 1.361 . S
C199 C200 1.393 . S
C199 N203 1.413 . S
C200 H193 0.930 . S
C200 C199 1.393 . S
C200 C201 1.399 . S
C201 C200 1.399 . S
C201 C202 1.381 . S
C202 H194 0.930 . S
C202 C198 1.390 . S
C202 C201 1.381 . S
N203 C196 1.286 . S
N203 C199 1.413 . S
H204 C209 0.930 . S
H205 C212 0.930 . S
H206 C214 0.930 . S
H207 C208 1.016 . S
C208 H207 1.016 . S
C208 N215 1.286 . S
C209 H204 0.930 . S
C209 C210 1.397 . S
C209 C211 1.361 . S
C210 C209 1.397 . S
C210 C214 1.390 . S
C211 C209 1.361 . S
C211 C212 1.393 . S
C211 N215 1.413 . S
C212 H205 0.930 . S
C212 C211 1.393 . S
C212 C213 1.399 . S
C213 C212 1.399 . S
C213 C214 1.381 . S
C214 H206 0.930 . S
C214 C210 1.390 . S
C214 C213 1.381 . S
N215 C208 1.286 . S
N215 C211 1.413 . S
Eu216 N247 2.657 . S
Eu216 N254 2.609 . S
Eu216 O260 2.558 . S
Eu216 O261 2.612 1_566 S
Eu216 O263 2.339 1_565 S
Eu216 O264 2.563 1_565 S
Eu216 O265 2.419 1_565 S
Eu216 O267 2.380 1_556 S
Eu216 O268 2.429 . S
Eu216 C280 2.847 1_565 S
C217 C220 1.429 . S
C217 C221 1.411 . S
C217 N224 1.377 . S
C218 C220 1.420 . S
C218 C222 1.423 . S
C218 C230 1.392 . S
C219 C221 1.420 . S
C219 C222 1.351 . S
C219 H242 0.931 . S
C220 C217 1.429 . S
C220 C218 1.420 . S
C220 N228 1.362 . S
C221 C217 1.411 . S
C221 C219 1.420 . S
C221 C226 1.395 . S
C222 C218 1.423 . S
C222 C219 1.351 . S
C222 H234 0.930 . S
C223 C225 1.400 . S
C223 C226 1.386 . S
C223 H235 0.930 . S
N224 C217 1.377 . S
N224 C225 1.321 . S
N224 Eu227 2.609 . S
C225 C223 1.400 . S
C225 N224 1.321 . S
C225 H232 0.930 . S
C226 C221 1.395 . S
C226 C223 1.386 . S
C226 H245 0.930 . S
Eu227 N224 2.609 . S
Eu227 N228 2.657 . S
Eu227 O261 2.380 . S
Eu227 O262 2.432 . S
Eu227 O266 2.558 . S
Eu227 O267 2.612 1_545 S
Eu227 O269 2.339 1_545 S
Eu227 O270 2.563 1_545 S
Eu227 O271 2.419 1_545 S
Eu227 C291 2.848 . S
N228 C220 1.362 . S
N228 Eu227 2.657 . S
N228 C229 1.334 . S
C229 N228 1.334 . S
C229 C231 1.413 . S
C229 H236 0.929 . S
C230 C218 1.392 . S
C230 C231 1.367 . S
C230 H238 0.930 . S
C231 C229 1.413 . S
C231 C230 1.367 . S
C231 H233 0.930 . S
H232 C225 0.930 . S
H233 C231 0.930 . S
H234 C222 0.930 . S
H235 C223 0.930 . S
H236 C229 0.929 . S
H237 C251 0.930 . S
H238 C230 0.930 . S
H239 C257 0.930 . S
H240 C248 0.929 . S
H241 C255 0.930 . S
H242 C219 0.931 . S
H243 C249 0.930 . S
H244 C282 0.930 . S
H245 C226 0.930 . S
H246 C281 0.931 . S
N247 Eu216 2.657 . S
N247 C248 1.334 . S
N247 C252 1.362 . S
C248 H240 0.929 . S
C248 N247 1.334 . S
C248 C251 1.413 . S
C249 H243 0.930 . S
C249 C250 1.392 . S
C249 C251 1.367 . S
C250 C249 1.392 . S
C250 C252 1.420 . S
C250 C282 1.423 . S
C251 H237 0.930 . S
C251 C248 1.413 . S
C251 C249 1.367 . S
C252 N247 1.362 . S
C252 C250 1.420 . S
C252 C256 1.429 . S
H253 C258 0.930 . S
N254 Eu216 2.609 . S
N254 C256 1.377 . S
N254 C257 1.321 . S
C255 H241 0.930 . S
C255 C257 1.400 . S
C255 C258 1.386 . S
C256 C252 1.429 . S
C256 N254 1.377 . S
C256 C259 1.411 . S
C257 H239 0.930 . S
C257 N254 1.321 . S
C257 C255 1.400 . S
C258 H253 0.930 . S
C258 C255 1.386 . S
C258 C259 1.395 . S
C259 C256 1.411 . S
C259 C258 1.395 . S
C259 C281 1.420 . S
O260 Eu216 2.558 . S
O260 C280 1.245 1_565 S
O261 Eu216 2.612 1_544 S
O261 Eu227 2.380 . S
O261 C272 1.276 1_554 S
O262 Eu227 2.432 . S
O262 C279 1.264 . S
O263 Eu216 2.339 1_545 S
O263 C279 1.254 1_556 S
O264 Eu216 2.563 1_545 S
O264 C272 1.235 . S
O265 Eu216 2.419 1_545 S
O265 C280 1.259 . S
O266 Eu227 2.558 . S
O266 C291 1.257 . S
O267 Eu216 2.380 1_554 S
O267 Eu227 2.612 1_565 S
O267 C283 1.276 . S
O268 Eu216 2.429 . S
O268 C290 1.270 1_556 S
O269 Eu227 2.339 1_565 S
O269 C290 1.254 . S
O270 Eu227 2.563 1_565 S
O270 C283 1.235 . S
O271 Eu227 2.419 1_565 S
O271 C291 1.249 1_565 S
C272 O261 1.276 1_556 S
C272 O264 1.235 . S
C273 C275 1.393 . S
C273 C277 1.395 1_545 S
C273 C280 1.494 . S
C274 C275 1.392 . S
C274 C276 1.386 . S
C275 C273 1.393 . S
C275 C274 1.392 . S
C275 H292 0.930 . S
C276 C274 1.386 . S
C276 C278 1.395 1_545 S
C276 H293 0.930 . S
C277 C273 1.395 1_565 S
C277 C278 1.379 . S
C277 H294 0.930 . S
C278 C276 1.395 1_565 S
C278 C277 1.379 . S
C278 H295 0.930 . S
C279 O262 1.264 . S
C279 O263 1.254 1_554 S
C280 Eu216 2.847 1_545 S
C280 O260 1.245 1_545 S
C280 O265 1.259 . S
C280 C273 1.494 . S
C281 H246 0.931 . S
C281 C259 1.420 . S
C281 C282 1.351 . S
C282 H244 0.930 . S
C282 C250 1.423 . S
C282 C281 1.351 . S
C283 O267 1.276 . S
C283 O270 1.235 . S
C284 C285 1.393 1_545 S
C284 C288 1.395 . S
C284 C291 1.492 . S
C285 C284 1.393 1_565 S
C285 C286 1.392 . S
C285 H296 0.930 . S
C286 C285 1.392 . S
C286 C287 1.386 . S
C287 C286 1.386 . S
C287 C289 1.395 1_565 S
C287 H297 0.930 . S
C288 C284 1.395 . S
C288 C289 1.379 . S
C288 H298 0.930 . S
C289 C287 1.395 1_545 S
C289 C288 1.379 . S
C289 H299 0.930 . S
C290 O268 1.270 1_554 S
C290 O269 1.254 . S
C291 Eu227 2.848 . S
C291 O266 1.257 . S
C291 O271 1.249 1_545 S
C291 C284 1.492 . S
H292 C275 0.930 . S
H293 C276 0.930 . S
H294 C277 0.930 . S
H295 C278 0.930 . S
H296 C285 0.930 . S
H297 C287 0.930 . S
H298 C288 0.930 . S
H299 C289 0.930 . S
Eu300 N331 2.657 . S
Eu300 N338 2.609 . S
Eu300 O344 2.558 . S
Eu300 O345 2.612 1_456 S
Eu300 O347 2.339 1_455 S
Eu300 O348 2.563 1_455 S
Eu300 O349 2.422 . S
Eu300 O351 2.380 1_556 S
Eu300 O352 2.403 1_556 S
Eu300 C364 2.848 . S
C301 C304 1.429 . S
C301 C305 1.411 . S
C301 N308 1.377 . S
C302 C304 1.420 . S
C302 C306 1.423 . S
C302 C314 1.392 . S
C303 C305 1.420 . S
C303 C306 1.351 . S
C303 H326 0.931 . S
C304 C301 1.429 . S
C304 C302 1.420 . S
C304 N312 1.362 . S
C305 C301 1.411 . S
C305 C303 1.420 . S
C305 C310 1.395 . S
C306 C302 1.423 . S
C306 C303 1.351 . S
C306 H318 0.930 . S
C307 C309 1.400 . S
C307 C310 1.386 . S
C307 H319 0.930 . S
N308 C301 1.377 . S
N308 C309 1.321 . S
N308 Eu311 2.609 . S
C309 C307 1.400 . S
C309 N308 1.321 . S
C309 H316 0.930 . S
C310 C305 1.395 . S
C310 C307 1.386 . S
C310 H329 0.930 . S
Eu311 N308 2.609 . S
Eu311 N312 2.657 . S
Eu311 O345 2.380 . S
Eu311 O346 2.432 . S
Eu311 O350 2.558 . S
Eu311 O351 2.612 1_655 S
Eu311 O353 2.339 1_655 S
Eu311 O354 2.563 1_655 S
Eu311 O355 2.419 1_655 S
Eu311 C375 2.848 . S
N312 C304 1.362 . S
N312 Eu311 2.657 . S
N312 C313 1.334 . S
C313 N312 1.334 . S
C313 C315 1.413 . S
C313 H320 0.929 . S
C314 C302 1.392 . S
C314 C315 1.367 . S
C314 H322 0.930 . S
C315 C313 1.413 . S
C315 C314 1.367 . S
C315 H317 0.930 . S
H316 C309 0.930 . S
H317 C315 0.930 . S
H318 C306 0.930 . S
H319 C307 0.930 . S
H320 C313 0.929 . S
H321 C335 0.930 . S
H322 C314 0.930 . S
H323 C341 0.930 . S
H324 C332 0.929 . S
H325 C339 0.930 . S
H326 C303 0.931 . S
H327 C333 0.930 . S
H328 C366 0.930 . S
H329 C310 0.930 . S
H330 C365 0.931 . S
N331 Eu300 2.657 . S
N331 C332 1.334 . S
N331 C336 1.362 . S
C332 H324 0.929 . S
C332 N331 1.334 . S
C332 C335 1.413 . S
C333 H327 0.930 . S
C333 C334 1.392 . S
C333 C335 1.367 . S
C334 C333 1.392 . S
C334 C336 1.420 . S
C334 C366 1.423 . S
C335 H321 0.930 . S
C335 C332 1.413 . S
C335 C333 1.367 . S
C336 N331 1.362 . S
C336 C334 1.420 . S
C336 C340 1.429 . S
H337 C342 0.930 . S
N338 Eu300 2.609 . S
N338 C340 1.377 . S
N338 C341 1.321 . S
C339 H325 0.930 . S
C339 C341 1.400 . S
C339 C342 1.386 . S
C340 C336 1.429 . S
C340 N338 1.377 . S
C340 C343 1.411 . S
C341 H323 0.930 . S
C341 N338 1.321 . S
C341 C339 1.400 . S
C342 H337 0.930 . S
C342 C339 1.386 . S
C342 C343 1.395 . S
C343 C340 1.411 . S
C343 C342 1.395 . S
C343 C365 1.420 . S
O344 Eu300 2.558 . S
O344 C364 1.257 . S
O345 Eu300 2.612 1_654 S
O345 Eu311 2.380 . S
O345 C356 1.276 1_554 S
O346 Eu311 2.432 . S
O346 C363 1.264 . S
O347 Eu300 2.339 1_655 S
O347 C363 1.254 1_556 S
O348 Eu300 2.563 1_655 S
O348 C356 1.235 . S
O349 Eu300 2.422 . S
O349 C364 1.248 . S
O350 Eu311 2.558 . S
O350 C375 1.257 . S
O351 Eu300 2.380 1_554 S
O351 Eu311 2.612 1_455 S
O351 C367 1.276 . S
O352 Eu300 2.403 1_554 S
O352 C374 1.323 . S
O353 Eu311 2.339 1_455 S
O353 C374 1.254 . S
O354 Eu311 2.563 1_455 S
O354 C367 1.235 . S
O355 Eu311 2.419 1_455 S
O355 C375 1.249 1_455 S
C356 O345 1.276 1_556 S
C356 O348 1.235 . S
C357 C359 1.393 1_455 S
C357 C361 1.395 . S
C357 C364 1.492 . S
C358 C359 1.392 . S
C358 C360 1.386 . S
C359 C357 1.393 1_655 S
C359 C358 1.392 . S
C359 H376 0.930 . S
C360 C358 1.386 . S
C360 C362 1.395 1_655 S
C360 H377 0.930 . S
C361 C357 1.395 . S
C361 C362 1.379 . S
C361 H378 0.930 . S
C362 C360 1.395 1_455 S
C362 C361 1.379 . S
C362 H379 0.930 . S
C363 O346 1.264 . S
C363 O347 1.254 1_554 S
C364 Eu300 2.848 . S
C364 O344 1.257 . S
C364 O349 1.248 . S
C364 C357 1.492 . S
C365 H330 0.931 . S
C365 C343 1.420 . S
C365 C366 1.351 . S
C366 H328 0.930 . S
C366 C334 1.423 . S
C366 C365 1.351 . S
C367 O351 1.276 . S
C367 O354 1.235 . S
C368 C369 1.393 . S
C368 C372 1.395 1_455 S
C368 C375 1.492 1_455 S
C369 C368 1.393 . S
C369 C370 1.392 . S
C369 H380 0.930 . S
C370 C369 1.392 . S
C370 C371 1.386 . S
C371 C370 1.386 . S
C371 C373 1.395 1_455 S
C371 H381 0.930 . S
C372 C368 1.395 1_655 S
C372 C373 1.379 . S
C372 H382 0.930 . S
C373 C371 1.395 1_655 S
C373 C372 1.379 . S
C373 H383 0.930 . S
C374 O352 1.323 . S
C374 O353 1.254 . S
C375 Eu311 2.848 . S
C375 O350 1.257 . S
C375 O355 1.249 1_655 S
C375 C368 1.492 1_655 S
H376 C359 0.930 . S
H377 C360 0.930 . S
H378 C361 0.930 . S
H379 C362 0.930 . S
H380 C369 0.930 . S
H381 C371 0.930 . S
H382 C372 0.930 . S
H383 C373 0.930 . S
Eu384 N415 2.657 . S
Eu384 N422 2.609 . S
Eu384 O428 2.558 . S
Eu384 O429 2.612 . S
Eu384 O431 2.339 . S
Eu384 O432 2.563 . S
Eu384 O433 2.419 . S
Eu384 O435 2.380 . S
Eu384 O436 2.432 . S
Eu384 C448 2.848 . S
C385 C388 1.429 . S
C385 C389 1.411 . S
C385 N392 1.377 . S
C386 C388 1.420 . S
C386 C390 1.423 . S
C386 C398 1.392 . S
C387 C389 1.420 . S
C387 C390 1.351 . S
C387 H410 0.931 . S
C388 C385 1.429 . S
C388 C386 1.420 . S
C388 N396 1.362 . S
C389 C385 1.411 . S
C389 C387 1.420 . S
C389 C394 1.395 . S
C390 C386 1.423 . S
C390 C387 1.351 . S
C390 H402 0.930 . S
C391 C393 1.400 . S
C391 C394 1.386 . S
C391 H403 0.930 . S
N392 C385 1.377 . S
N392 C393 1.321 . S
N392 Eu395 2.609 . S
C393 C391 1.400 . S
C393 N392 1.321 . S
C393 H400 0.930 . S
C394 C389 1.395 . S
C394 C391 1.386 . S
C394 H413 0.930 . S
Eu395 N392 2.609 . S
Eu395 N396 2.657 . S
Eu395 O429 2.380 1_556 S
Eu395 O430 2.432 1_556 S
Eu395 O434 2.558 . S
Eu395 O435 2.612 1_556 S
Eu395 O437 2.339 . S
Eu395 O438 2.563 . S
Eu395 O439 2.419 . S
Eu395 C459 2.848 . S
N396 C388 1.362 . S
N396 Eu395 2.657 . S
N396 C397 1.334 . S
C397 N396 1.334 . S
C397 C399 1.413 . S
C397 H404 0.929 . S
C398 C386 1.392 . S
C398 C399 1.367 . S
C398 H406 0.930 . S
C399 C397 1.413 . S
C399 C398 1.367 . S
C399 H401 0.930 . S
H400 C393 0.930 . S
H401 C399 0.930 . S
H402 C390 0.930 . S
H403 C391 0.930 . S
H404 C397 0.929 . S
H405 C419 0.930 . S
H406 C398 0.930 . S
H407 C425 0.930 . S
H408 C416 0.929 . S
H409 C423 0.930 . S
H410 C387 0.931 . S
H411 C417 0.930 . S
H412 C450 0.930 . S
H413 C394 0.930 . S
H414 C449 0.931 . S
N415 Eu384 2.657 . S
N415 C416 1.334 . S
N415 C420 1.362 . S
C416 H408 0.929 . S
C416 N415 1.334 . S
C416 C419 1.413 . S
C417 H411 0.930 . S
C417 C418 1.392 . S
C417 C419 1.367 . S
C418 C417 1.392 . S
C418 C420 1.420 . S
C418 C450 1.423 . S
C419 H405 0.930 . S
C419 C416 1.413 . S
C419 C417 1.367 . S
C420 N415 1.362 . S
C420 C418 1.420 . S
C420 C424 1.429 . S
H421 C426 0.930 . S
N422 Eu384 2.609 . S
N422 C424 1.377 . S
N422 C425 1.321 . S
C423 H409 0.930 . S
C423 C425 1.400 . S
C423 C426 1.386 . S
C424 C420 1.429 . S
C424 N422 1.377 . S
C424 C427 1.411 . S
C425 H407 0.930 . S
C425 N422 1.321 . S
C425 C423 1.400 . S
C426 H421 0.930 . S
C426 C423 1.386 . S
C426 C427 1.395 . S
C427 C424 1.411 . S
C427 C426 1.395 . S
C427 C449 1.420 . S
O428 Eu384 2.558 . S
O428 C448 1.257 . S
O429 Eu384 2.612 . S
O429 Eu395 2.380 1_554 S
O429 C440 1.276 . S
O430 Eu395 2.432 1_554 S
O430 C447 1.264 . S
O431 Eu384 2.339 . S
O431 C447 1.254 . S
O432 Eu384 2.563 . S
O432 C440 1.235 . S
O433 Eu384 2.419 . S
O433 C448 1.249 . S
O434 Eu395 2.558 . S
O434 C459 1.257 . S
O435 Eu384 2.380 . S
O435 Eu395 2.612 1_554 S
O435 C451 1.276 1_554 S
O436 Eu384 2.432 . S
O436 C458 1.264 . S
O437 Eu395 2.339 . S
O437 C458 1.254 1_556 S
O438 Eu395 2.563 . S
O438 C451 1.235 . S
O439 Eu395 2.419 . S
O439 C459 1.249 . S
C440 O429 1.276 . S
C440 O432 1.235 . S
C441 C443 1.393 . S
C441 C445 1.395 . S
C441 C448 1.492 . S
C442 C443 1.392 . S
C442 C444 1.386 . S
C443 C441 1.393 . S
C443 C442 1.392 . S
C443 H460 0.930 . S
C444 C442 1.386 . S
C444 C446 1.395 . S
C444 H461 0.930 . S
C445 C441 1.395 . S
C445 C446 1.379 . S
C445 H462 0.930 . S
C446 C444 1.395 . S
C446 C445 1.379 . S
C446 H463 0.930 . S
C447 O430 1.264 . S
C447 O431 1.254 . S
C448 Eu384 2.848 . S
C448 O428 1.257 . S
C448 O433 1.249 . S
C448 C441 1.492 . S
C449 H414 0.931 . S
C449 C427 1.420 . S
C449 C450 1.351 . S
C450 H412 0.930 . S
C450 C418 1.423 . S
C450 C449 1.351 . S
C451 O435 1.276 1_556 S
C451 O438 1.235 . S
C452 C453 1.393 . S
C452 C456 1.395 . S
C452 C459 1.492 . S
C453 C452 1.393 . S
C453 C454 1.392 . S
C453 H464 0.930 . S
C454 C453 1.392 . S
C454 C455 1.386 . S
C455 C454 1.386 . S
C455 C457 1.395 . S
C455 H465 0.930 . S
C456 C452 1.395 . S
C456 C457 1.379 . S
C456 H466 0.930 . S
C457 C455 1.395 . S
C457 C456 1.379 . S
C457 H467 0.930 . S
C458 O436 1.264 . S
C458 O437 1.254 1_554 S
C459 Eu395 2.848 . S
C459 O434 1.257 . S
C459 O439 1.249 . S
C459 C452 1.492 . S
H460 C443 0.930 . S
H461 C444 0.930 . S
H462 C445 0.930 . S
H463 C446 0.930 . S
H464 C453 0.930 . S
H465 C455 0.930 . S
H466 C456 0.930 . S
H467 C457 0.930 . S
Eu468 N499 2.657 . S
Eu468 N506 2.609 . S
Eu468 O512 2.558 . S
Eu468 O513 2.612 . S
Eu468 O515 2.339 . S
Eu468 O516 2.563 . S
Eu468 O517 2.419 . S
Eu468 O519 2.380 . S
Eu468 O520 2.432 . S
Eu468 C532 2.848 . S
C469 C472 1.429 . S
C469 C473 1.411 . S
C469 N476 1.377 . S
C470 C472 1.420 . S
C470 C474 1.423 . S
C470 C482 1.392 . S
C471 C473 1.420 . S
C471 C474 1.351 . S
C471 H494 0.931 . S
C472 C469 1.429 . S
C472 C470 1.420 . S
C472 N480 1.362 . S
C473 C469 1.411 . S
C473 C471 1.420 . S
C473 C478 1.395 . S
C474 C470 1.423 . S
C474 C471 1.351 . S
C474 H486 0.930 . S
C475 C477 1.400 . S
C475 C478 1.386 . S
C475 H487 0.930 . S
N476 C469 1.377 . S
N476 C477 1.321 . S
N476 Eu479 2.609 . S
C477 C475 1.400 . S
C477 N476 1.321 . S
C477 H484 0.930 . S
C478 C473 1.395 . S
C478 C475 1.386 . S
C478 H497 0.930 . S
Eu479 N476 2.609 . S
Eu479 N480 2.657 . S
Eu479 O513 2.380 . S
Eu479 O514 2.432 . S
Eu479 O518 2.558 . S
Eu479 O519 2.612 . S
Eu479 O521 2.339 . S
Eu479 O522 2.563 . S
Eu479 O523 2.419 . S
Eu479 C543 2.848 . S
N480 C472 1.362 . S
N480 Eu479 2.657 . S
N480 C481 1.334 . S
C481 N480 1.334 . S
C481 C483 1.413 . S
C481 H488 0.929 . S
C482 C470 1.392 . S
C482 C483 1.367 . S
C482 H490 0.930 . S
C483 C481 1.413 . S
C483 C482 1.367 . S
C483 H485 0.930 . S
H484 C477 0.930 . S
H485 C483 0.930 . S
H486 C474 0.930 . S
H487 C475 0.930 . S
H488 C481 0.929 . S
H489 C503 0.930 . S
H490 C482 0.930 . S
H491 C509 0.930 . S
H492 C500 0.929 . S
H493 C507 0.930 . S
H494 C471 0.931 . S
H495 C501 0.930 1_655 S
H496 C534 0.924 1_655 S
H497 C478 0.930 . S
H498 C533 0.931 . S
N499 Eu468 2.657 . S
N499 C500 1.334 . S
N499 C504 1.362 . S
C500 H492 0.929 . S
C500 N499 1.334 . S
C500 C503 1.413 . S
C501 H495 0.930 1_455 S
C501 C502 1.392 . S
C501 C503 1.367 . S
C502 C501 1.392 . S
C502 C504 1.420 . S
C502 C534 1.423 . S
C503 H489 0.930 . S
C503 C500 1.413 . S
C503 C501 1.367 . S
C504 N499 1.362 . S
C504 C502 1.420 . S
C504 C508 1.429 . S
H505 C510 0.930 . S
N506 Eu468 2.609 . S
N506 C508 1.377 . S
N506 C509 1.321 . S
C507 H493 0.930 . S
C507 C509 1.400 . S
C507 C510 1.386 . S
C508 C504 1.429 . S
C508 N506 1.377 . S
C508 C511 1.411 . S
C509 H491 0.930 . S
C509 N506 1.321 . S
C509 C507 1.400 . S
C510 H505 0.930 . S
C510 C507 1.386 . S
C510 C511 1.395 . S
C511 C508 1.411 . S
C511 C510 1.395 . S
C511 C533 1.420 . S
O512 Eu468 2.558 . S
O512 C532 1.257 . S
O513 Eu468 2.612 . S
O513 Eu479 2.380 . S
O513 C524 1.276 . S
O514 Eu479 2.432 . S
O514 C531 1.264 . S
O515 Eu468 2.339 . S
O515 C531 1.254 . S
O516 Eu468 2.563 . S
O516 C524 1.235 . S
O517 Eu468 2.419 . S
O517 C532 1.249 . S
O518 Eu479 2.558 . S
O518 C543 1.257 . S
O519 Eu468 2.380 . S
O519 Eu479 2.612 . S
O519 C535 1.276 . S
O520 Eu468 2.432 . S
O520 C542 1.264 . S
O521 Eu479 2.339 . S
O521 C542 1.254 . S
O522 Eu479 2.563 . S
O522 C535 1.235 . S
O523 Eu479 2.419 . S
O523 C543 1.249 . S
C524 O513 1.276 . S
C524 O516 1.235 . S
C525 C527 1.393 . S
C525 C529 1.395 . S
C525 C532 1.492 . S
C526 C527 1.392 . S
C526 C528 1.386 . S
C527 C525 1.393 . S
C527 C526 1.392 . S
C527 H544 0.930 . S
C528 C526 1.386 . S
C528 C530 1.395 . S
C528 H545 0.930 . S
C529 C525 1.395 . S
C529 C530 1.379 . S
C529 H546 0.930 . S
C530 C528 1.395 . S
C530 C529 1.379 . S
C530 H547 0.930 . S
C531 O514 1.264 . S
C531 O515 1.254 . S
C532 Eu468 2.848 . S
C532 O512 1.257 . S
C532 O517 1.249 . S
C532 C525 1.492 . S
C533 H498 0.931 . S
C533 C511 1.420 . S
C533 C534 1.351 . S
C534 H496 0.924 1_455 S
C534 C502 1.423 . S
C534 C533 1.351 . S
C535 O519 1.276 . S
C535 O522 1.235 . S
C536 C537 1.393 . S
C536 C540 1.395 . S
C536 C543 1.492 . S
C537 C536 1.393 . S
C537 C538 1.392 . S
C537 H548 0.930 . S
C538 C537 1.392 . S
C538 C539 1.386 . S
C539 C538 1.386 . S
C539 C541 1.395 . S
C539 H549 0.930 . S
C540 C536 1.395 . S
C540 C541 1.379 . S
C540 H550 0.930 . S
C541 C539 1.395 . S
C541 C540 1.379 . S
C541 H551 0.930 . S
C542 O520 1.264 . S
C542 O521 1.254 . S
C543 Eu479 2.848 . S
C543 O518 1.257 . S
C543 O523 1.249 . S
C543 C536 1.492 . S
H544 C527 0.930 . S
H545 C528 0.930 . S
H546 C529 0.930 . S
H547 C530 0.930 . S
H548 C537 0.930 . S
H549 C539 0.930 . S
H550 C540 0.930 . S
H551 C541 0.930 . S
Eu552 N583 2.657 . S
Eu552 N590 2.609 . S
Eu552 O596 2.558 . S
Eu552 O597 2.612 . S
Eu552 O599 2.339 . S
Eu552 O600 2.563 . S
Eu552 O601 2.419 . S
Eu552 O603 2.380 . S
Eu552 O604 2.432 . S
Eu552 C616 2.848 . S
C553 C556 1.429 . S
C553 C557 1.411 . S
C553 N560 1.377 . S
C554 C556 1.420 . S
C554 C558 1.423 . S
C554 C566 1.392 . S
C555 C557 1.420 . S
C555 C558 1.351 . S
C555 H578 0.931 . S
C556 C553 1.429 . S
C556 C554 1.420 . S
C556 N564 1.362 . S
C557 C553 1.411 . S
C557 C555 1.420 . S
C557 C562 1.395 . S
C558 C554 1.423 . S
C558 C555 1.351 . S
C558 H570 0.930 . S
C559 C561 1.400 . S
C559 C562 1.386 . S
C559 H571 0.930 . S
N560 C553 1.377 . S
N560 C561 1.321 . S
N560 Eu563 2.609 . S
C561 C559 1.400 . S
C561 N560 1.321 . S
C561 H568 0.930 . S
C562 C557 1.395 . S
C562 C559 1.386 . S
C562 H581 0.930 . S
Eu563 N560 2.609 . S
Eu563 N564 2.657 . S
Eu563 O597 2.380 . S
Eu563 O598 2.432 . S
Eu563 O602 2.558 . S
Eu563 O603 2.612 . S
Eu563 O605 2.339 . S
Eu563 O606 2.563 . S
Eu563 O607 2.419 . S
Eu563 C627 2.848 . S
N564 C556 1.362 . S
N564 Eu563 2.657 . S
N564 C565 1.334 . S
C565 N564 1.334 . S
C565 C567 1.413 . S
C565 H572 0.929 . S
C566 C554 1.392 . S
C566 C567 1.367 . S
C566 H574 0.930 . S
C567 C565 1.413 . S
C567 C566 1.367 . S
C567 H569 0.930 . S
H568 C561 0.930 . S
H569 C567 0.930 . S
H570 C558 0.930 . S
H571 C559 0.930 . S
H572 C565 0.929 . S
H573 C587 0.930 . S
H574 C566 0.930 . S
H575 C593 0.930 . S
H576 C584 0.929 . S
H577 C591 0.930 . S
H578 C555 0.931 . S
H579 C585 0.930 . S
H580 C618 0.930 . S
H581 C562 0.930 . S
H582 C617 0.931 . S
N583 Eu552 2.657 . S
N583 C584 1.334 . S
N583 C588 1.362 . S
C584 H576 0.929 . S
C584 N583 1.334 . S
C584 C587 1.413 . S
C585 H579 0.930 . S
C585 C586 1.392 . S
C585 C587 1.367 . S
C586 C585 1.392 . S
C586 C588 1.420 . S
C586 C618 1.423 . S
C587 H573 0.930 . S
C587 C584 1.413 . S
C587 C585 1.367 . S
C588 N583 1.362 . S
C588 C586 1.420 . S
C588 C592 1.429 . S
H589 C594 0.930 . S
N590 Eu552 2.609 . S
N590 C592 1.377 . S
N590 C593 1.321 . S
C591 H577 0.930 . S
C591 C593 1.400 . S
C591 C594 1.386 . S
C592 C588 1.429 . S
C592 N590 1.377 . S
C592 C595 1.411 . S
C593 H575 0.930 . S
C593 N590 1.321 . S
C593 C591 1.400 . S
C594 H589 0.930 . S
C594 C591 1.386 . S
C594 C595 1.395 . S
C595 C592 1.411 . S
C595 C594 1.395 . S
C595 C617 1.420 . S
O596 Eu552 2.558 . S
O596 C616 1.257 . S
O597 Eu552 2.612 . S
O597 Eu563 2.380 . S
O597 C608 1.276 . S
O598 Eu563 2.432 . S
O598 C615 1.264 . S
O599 Eu552 2.339 . S
O599 C615 1.254 . S
O600 Eu552 2.563 . S
O600 C608 1.235 . S
O601 Eu552 2.419 . S
O601 C616 1.249 . S
O602 Eu563 2.558 . S
O602 C627 1.257 . S
O603 Eu552 2.380 . S
O603 Eu563 2.612 . S
O603 C619 1.276 . S
O604 Eu552 2.432 . S
O604 C626 1.264 . S
O605 Eu563 2.339 . S
O605 C626 1.254 . S
O606 Eu563 2.563 . S
O606 C619 1.235 . S
O607 Eu563 2.419 . S
O607 C627 1.249 . S
C608 O597 1.276 . S
C608 O600 1.235 . S
C609 C611 1.393 . S
C609 C613 1.395 . S
C609 C616 1.492 . S
C610 C611 1.392 . S
C610 C612 1.386 . S
C611 C609 1.393 . S
C611 C610 1.392 . S
C611 H628 0.930 . S
C612 C610 1.386 . S
C612 C614 1.395 . S
C612 H629 0.930 . S
C613 C609 1.395 . S
C613 C614 1.379 . S
C613 H630 0.930 . S
C614 C612 1.395 . S
C614 C613 1.379 . S
C614 H631 0.930 . S
C615 O598 1.264 . S
C615 O599 1.254 . S
C616 Eu552 2.848 . S
C616 O596 1.257 . S
C616 O601 1.249 . S
C616 C609 1.492 . S
C617 H582 0.931 . S
C617 C595 1.420 . S
C617 C618 1.351 . S
C618 H580 0.930 . S
C618 C586 1.423 . S
C618 C617 1.351 . S
C619 O603 1.276 . S
C619 O606 1.235 . S
C620 C621 1.393 . S
C620 C624 1.395 . S
C620 C627 1.492 . S
C621 C620 1.393 . S
C621 C622 1.392 . S
C621 H632 0.930 . S
C622 C621 1.392 . S
C622 C623 1.386 . S
C623 C622 1.386 . S
C623 C625 1.395 . S
C623 H633 0.930 . S
C624 C620 1.395 . S
C624 C625 1.379 . S
C624 H634 0.930 . S
C625 C623 1.395 . S
C625 C624 1.379 . S
C625 H635 0.930 . S
C626 O604 1.264 . S
C626 O605 1.254 . S
C627 Eu563 2.848 . S
C627 O602 1.257 . S
C627 O607 1.249 . S
C627 C620 1.492 . S
H628 C611 0.930 . S
H629 C612 0.930 . S
H630 C613 0.930 . S
H631 C614 0.930 . S
H632 C621 0.930 . S
H633 C623 0.930 . S
H634 C624 0.930 . S
H635 C625 0.930 . S
Eu636 N667 2.657 . S
Eu636 N674 2.609 . S
Eu636 O680 2.558 . S
Eu636 O681 2.612 . S
Eu636 O683 2.339 . S
Eu636 O684 2.563 . S
Eu636 O685 2.419 . S
Eu636 O687 2.380 . S
Eu636 O688 2.432 . S
Eu636 C700 2.848 . S
C637 C640 1.429 . S
C637 C641 1.411 . S
C637 N644 1.377 . S
C638 C640 1.420 . S
C638 C642 1.423 . S
C638 C650 1.392 . S
C639 C641 1.420 . S
C639 C642 1.351 . S
C639 H662 0.931 . S
C640 C637 1.429 . S
C640 C638 1.420 . S
C640 N648 1.362 . S
C641 C637 1.411 . S
C641 C639 1.420 . S
C641 C646 1.395 . S
C642 C638 1.423 . S
C642 C639 1.351 . S
C642 H654 0.930 . S
C643 C645 1.400 . S
C643 C646 1.386 . S
C643 H655 0.930 . S
N644 C637 1.377 . S
N644 C645 1.321 . S
N644 Eu647 2.609 . S
C645 C643 1.400 . S
C645 N644 1.321 . S
C645 H652 0.930 . S
C646 C641 1.395 . S
C646 C643 1.386 . S
C646 H665 0.930 . S
Eu647 N644 2.609 . S
Eu647 N648 2.657 . S
Eu647 O681 2.380 . S
Eu647 O682 2.432 . S
Eu647 O686 2.558 . S
Eu647 O687 2.612 . S
Eu647 O689 2.339 . S
Eu647 O690 2.563 . S
Eu647 O691 2.419 . S
Eu647 C711 2.848 . S
N648 C640 1.362 . S
N648 Eu647 2.657 . S
N648 C649 1.334 . S
C649 N648 1.334 . S
C649 C651 1.413 . S
C649 H656 0.929 . S
C650 C638 1.392 . S
C650 C651 1.367 . S
C650 H658 0.930 . S
C651 C649 1.413 . S
C651 C650 1.367 . S
C651 H653 0.930 . S
H652 C645 0.930 . S
H653 C651 0.930 . S
H654 C642 0.930 . S
H655 C643 0.930 . S
H656 C649 0.929 . S
H657 C671 0.930 . S
H658 C650 0.930 . S
H659 C677 0.930 . S
H660 C668 0.929 . S
H661 C675 0.930 . S
H662 C639 0.931 . S
H663 C669 0.930 . S
H664 C702 0.930 . S
H665 C646 0.930 . S
H666 C701 0.931 . S
N667 Eu636 2.657 . S
N667 C668 1.334 . S
N667 C672 1.362 . S
C668 H660 0.929 . S
C668 N667 1.334 . S
C668 C671 1.413 . S
C669 H663 0.930 . S
C669 C670 1.392 . S
C669 C671 1.367 . S
C670 C669 1.392 . S
C670 C672 1.420 . S
C670 C702 1.423 . S
C671 H657 0.930 . S
C671 C668 1.413 . S
C671 C669 1.367 . S
C672 N667 1.362 . S
C672 C670 1.420 . S
C672 C676 1.429 . S
H673 C678 0.930 . S
N674 Eu636 2.609 . S
N674 C676 1.377 . S
N674 C677 1.321 . S
C675 H661 0.930 . S
C675 C677 1.400 . S
C675 C678 1.386 . S
C676 C672 1.429 . S
C676 N674 1.377 . S
C676 C679 1.411 . S
C677 H659 0.930 . S
C677 N674 1.321 . S
C677 C675 1.400 . S
C678 H673 0.930 . S
C678 C675 1.386 . S
C678 C679 1.395 . S
C679 C676 1.411 . S
C679 C678 1.395 . S
C679 C701 1.420 . S
O680 Eu636 2.558 . S
O680 C700 1.257 . S
O681 Eu636 2.612 . S
O681 Eu647 2.380 . S
O681 C692 1.276 . S
O682 Eu647 2.432 . S
O682 C699 1.264 . S
O683 Eu636 2.339 . S
O683 C699 1.254 . S
O684 Eu636 2.563 . S
O684 C692 1.235 . S
O685 Eu636 2.419 . S
O685 C700 1.249 . S
O686 Eu647 2.558 . S
O686 C711 1.257 . S
O687 Eu636 2.380 . S
O687 Eu647 2.612 . S
O687 C703 1.276 . S
O688 Eu636 2.432 . S
O688 C710 1.264 . S
O689 Eu647 2.339 . S
O689 C710 1.254 . S
O690 Eu647 2.563 . S
O690 C703 1.235 . S
O691 Eu647 2.419 . S
O691 C711 1.249 . S
C692 O681 1.276 . S
C692 O684 1.235 . S
C693 C695 1.393 . S
C693 C697 1.395 . S
C693 C700 1.492 . S
C694 C695 1.392 . S
C694 C696 1.386 . S
C695 C693 1.393 . S
C695 C694 1.392 . S
C695 H712 0.930 . S
C696 C694 1.386 . S
C696 C698 1.395 . S
C696 H713 0.930 . S
C697 C693 1.395 . S
C697 C698 1.379 . S
C697 H714 0.930 . S
C698 C696 1.395 . S
C698 C697 1.379 . S
C698 H715 0.930 . S
C699 O682 1.264 . S
C699 O683 1.254 . S
C700 Eu636 2.848 . S
C700 O680 1.257 . S
C700 O685 1.249 . S
C700 C693 1.492 . S
C701 H666 0.931 . S
C701 C679 1.420 . S
C701 C702 1.351 . S
C702 H664 0.930 . S
C702 C670 1.423 . S
C702 C701 1.351 . S
C703 O687 1.276 . S
C703 O690 1.235 . S
C704 C705 1.393 . S
C704 C708 1.395 . S
C704 C711 1.492 . S
C705 C704 1.393 . S
C705 C706 1.392 . S
C705 H716 0.930 . S
C706 C705 1.392 . S
C706 C707 1.386 . S
C707 C706 1.386 . S
C707 C709 1.395 . S
C707 H717 0.930 . S
C708 C704 1.395 . S
C708 C709 1.379 . S
C708 H718 0.930 . S
C709 C707 1.395 . S
C709 C708 1.379 . S
C709 H719 0.930 . S
C710 O688 1.264 . S
C710 O689 1.254 . S
C711 Eu647 2.848 . S
C711 O686 1.257 . S
C711 O691 1.249 . S
C711 C704 1.492 . S
H712 C695 0.930 . S
H713 C696 0.930 . S
H714 C697 0.930 . S
H715 C698 0.930 . S
H716 C705 0.930 . S
H717 C707 0.930 . S
H718 C708 0.930 . S
H719 C709 0.930 . S
Eu720 N751 2.657 . S
Eu720 N758 2.609 . S
Eu720 O764 2.558 . S
Eu720 O765 2.612 . S
Eu720 O767 2.339 . S
Eu720 O768 2.563 . S
Eu720 O769 2.419 . S
Eu720 O771 2.380 . S
Eu720 O772 2.432 . S
Eu720 C784 2.848 . S
C721 C724 1.429 . S
C721 C725 1.411 . S
C721 N728 1.377 . S
C722 C724 1.420 . S
C722 C726 1.423 . S
C722 C734 1.392 . S
C723 C725 1.420 . S
C723 C726 1.351 . S
C723 H746 0.931 . S
C724 C721 1.429 . S
C724 C722 1.420 . S
C724 N732 1.362 . S
C725 C721 1.411 . S
C725 C723 1.420 . S
C725 C730 1.395 . S
C726 C722 1.423 . S
C726 C723 1.351 . S
C726 H738 0.930 . S
C727 C729 1.400 . S
C727 C730 1.386 . S
C727 H739 0.930 . S
N728 C721 1.377 . S
N728 C729 1.321 . S
N728 Eu731 2.609 . S
C729 C727 1.400 . S
C729 N728 1.321 . S
C729 H736 0.930 . S
C730 C725 1.395 . S
C730 C727 1.386 . S
C730 H749 0.930 . S
Eu731 N728 2.609 . S
Eu731 N732 2.657 . S
Eu731 O765 2.380 . S
Eu731 O766 2.432 . S
Eu731 O770 2.558 . S
Eu731 O771 2.612 . S
Eu731 O773 2.339 . S
Eu731 O774 2.563 . S
Eu731 O775 2.419 . S
Eu731 C795 2.848 . S
N732 C724 1.362 . S
N732 Eu731 2.657 . S
N732 C733 1.334 . S
C733 N732 1.334 . S
C733 C735 1.413 . S
C733 H740 0.929 . S
C734 C722 1.392 . S
C734 C735 1.367 . S
C734 H742 0.930 . S
C735 C733 1.413 . S
C735 C734 1.367 . S
C735 H737 0.930 . S
H736 C729 0.930 . S
H737 C735 0.930 . S
H738 C726 0.930 . S
H739 C727 0.930 . S
H740 C733 0.929 . S
H741 C755 0.930 . S
H742 C734 0.930 . S
H743 C761 0.930 . S
H744 C752 0.929 . S
H745 C759 0.930 . S
H746 C723 0.931 . S
H747 C753 0.930 . S
H748 C786 0.930 . S
H749 C730 0.930 . S
H750 C785 0.931 . S
N751 Eu720 2.657 . S
N751 C752 1.334 . S
N751 C756 1.362 . S
C752 H744 0.929 . S
C752 N751 1.334 . S
C752 C755 1.413 . S
C753 H747 0.930 . S
C753 C754 1.392 . S
C753 C755 1.367 . S
C754 C753 1.392 . S
C754 C756 1.420 . S
C754 C786 1.423 . S
C755 H741 0.930 . S
C755 C752 1.413 . S
C755 C753 1.367 . S
C756 N751 1.362 . S
C756 C754 1.420 . S
C756 C760 1.429 . S
H757 C762 0.930 . S
N758 Eu720 2.609 . S
N758 C760 1.377 . S
N758 C761 1.321 . S
C759 H745 0.930 . S
C759 C761 1.400 . S
C759 C762 1.386 . S
C760 C756 1.429 . S
C760 N758 1.377 . S
C760 C763 1.411 . S
C761 H743 0.930 . S
C761 N758 1.321 . S
C761 C759 1.400 . S
C762 H757 0.930 . S
C762 C759 1.386 . S
C762 C763 1.395 . S
C763 C760 1.411 . S
C763 C762 1.395 . S
C763 C785 1.420 . S
O764 Eu720 2.558 . S
O764 C784 1.257 . S
O765 Eu720 2.612 . S
O765 Eu731 2.380 . S
O765 C776 1.276 . S
O766 Eu731 2.432 . S
O766 C783 1.264 . S
O767 Eu720 2.339 . S
O767 C783 1.254 . S
O768 Eu720 2.563 . S
O768 C776 1.235 . S
O769 Eu720 2.419 . S
O769 C784 1.249 . S
O770 Eu731 2.558 . S
O770 C795 1.257 . S
O771 Eu720 2.380 . S
O771 Eu731 2.612 . S
O771 C787 1.276 . S
O772 Eu720 2.432 . S
O772 C794 1.264 . S
O773 Eu731 2.339 . S
O773 C794 1.254 . S
O774 Eu731 2.563 . S
O774 C787 1.235 . S
O775 Eu731 2.419 . S
O775 C795 1.249 . S
C776 O765 1.276 . S
C776 O768 1.235 . S
C777 C779 1.393 . S
C777 C781 1.395 . S
C777 C784 1.492 . S
C778 C779 1.392 . S
C778 C780 1.386 . S
C779 C777 1.393 . S
C779 C778 1.392 . S
C779 H796 0.930 . S
C780 C778 1.386 . S
C780 C782 1.395 . S
C780 H797 0.930 . S
C781 C777 1.395 . S
C781 C782 1.379 . S
C781 H798 0.930 . S
C782 C780 1.395 . S
C782 C781 1.379 . S
C782 H799 0.930 . S
C783 O766 1.264 . S
C783 O767 1.254 . S
C784 Eu720 2.848 . S
C784 O764 1.257 . S
C784 O769 1.249 . S
C784 C777 1.492 . S
C785 H750 0.931 . S
C785 C763 1.420 . S
C785 C786 1.351 . S
C786 H748 0.930 . S
C786 C754 1.423 . S
C786 C785 1.351 . S
C787 O771 1.276 . S
C787 O774 1.235 . S
C788 C789 1.393 . S
C788 C792 1.395 . S
C788 C795 1.492 . S
C789 C788 1.393 . S
C789 C790 1.392 . S
C789 H800 0.930 . S
C790 C789 1.392 . S
C790 C791 1.386 . S
C791 C790 1.386 . S
C791 C793 1.395 . S
C791 H801 0.930 . S
C792 C788 1.395 . S
C792 C793 1.379 . S
C792 H802 0.930 . S
C793 C791 1.395 . S
C793 C792 1.379 . S
C793 H803 0.930 . S
C794 O772 1.264 . S
C794 O773 1.254 . S
C795 Eu731 2.848 . S
C795 O770 1.257 . S
C795 O775 1.249 . S
C795 C788 1.492 . S
H796 C779 0.930 . S
H797 C780 0.930 . S
H798 C781 0.930 . S
H799 C782 0.930 . S
H800 C789 0.930 . S
H801 C791 0.930 . S
H802 C792 0.930 . S
H803 C793 0.930 . S
Eu804 N835 2.657 . S
Eu804 N842 2.609 . S
Eu804 O848 2.558 . S
Eu804 O849 2.612 . S
Eu804 O851 2.339 . S
Eu804 O852 2.563 . S
Eu804 O853 2.419 . S
Eu804 O855 2.380 . S
Eu804 O856 2.432 . S
Eu804 C868 2.848 . S
C805 C808 1.429 . S
C805 C809 1.411 . S
C805 N812 1.377 . S
C806 C808 1.420 . S
C806 C810 1.423 . S
C806 C818 1.392 . S
C807 C809 1.420 . S
C807 C810 1.351 . S
C807 H830 0.931 . S
C808 C805 1.429 . S
C808 C806 1.420 . S
C808 N816 1.362 . S
C809 C805 1.411 . S
C809 C807 1.420 . S
C809 C814 1.395 . S
C810 C806 1.423 . S
C810 C807 1.351 . S
C810 H822 0.930 . S
C811 C813 1.400 . S
C811 C814 1.386 . S
C811 H823 0.930 . S
N812 C805 1.377 . S
N812 C813 1.321 . S
N812 Eu815 2.609 . S
C813 C811 1.400 . S
C813 N812 1.321 . S
C813 H820 0.930 . S
C814 C809 1.395 . S
C814 C811 1.386 . S
C814 H833 0.930 . S
Eu815 N812 2.609 . S
Eu815 N816 2.657 . S
Eu815 O849 2.380 . S
Eu815 O850 2.432 . S
Eu815 O854 2.558 . S
Eu815 O855 2.612 . S
Eu815 O857 2.339 . S
Eu815 O858 2.563 . S
Eu815 O859 2.419 . S
Eu815 C879 2.848 . S
N816 C808 1.362 . S
N816 Eu815 2.657 . S
N816 C817 1.334 . S
C817 N816 1.334 . S
C817 C819 1.413 . S
C817 H824 0.929 . S
C818 C806 1.392 . S
C818 C819 1.367 . S
C818 H826 0.930 . S
C819 C817 1.413 . S
C819 C818 1.367 . S
C819 H821 0.930 . S
H820 C813 0.930 . S
H821 C819 0.930 . S
H822 C810 0.930 . S
H823 C811 0.930 . S
H824 C817 0.929 . S
H825 C839 0.930 . S
H826 C818 0.930 . S
H827 C845 0.930 . S
H828 C836 0.929 . S
H829 C843 0.930 . S
H830 C807 0.931 . S
H831 C837 0.930 . S
H832 C870 0.930 . S
H833 C814 0.930 . S
H834 C869 0.931 . S
N835 Eu804 2.657 . S
N835 C836 1.334 . S
N835 C840 1.362 . S
C836 H828 0.929 . S
C836 N835 1.334 . S
C836 C839 1.413 . S
C837 H831 0.930 . S
C837 C838 1.392 . S
C837 C839 1.367 . S
C838 C837 1.392 . S
C838 C840 1.420 . S
C838 C870 1.423 . S
C839 H825 0.930 . S
C839 C836 1.413 . S
C839 C837 1.367 . S
C840 N835 1.362 . S
C840 C838 1.420 . S
C840 C844 1.429 . S
H841 C846 0.930 . S
N842 Eu804 2.609 . S
N842 C844 1.377 . S
N842 C845 1.321 . S
C843 H829 0.930 . S
C843 C845 1.400 . S
C843 C846 1.386 . S
C844 C840 1.429 . S
C844 N842 1.377 . S
C844 C847 1.411 . S
C845 H827 0.930 . S
C845 N842 1.321 . S
C845 C843 1.400 . S
C846 H841 0.930 . S
C846 C843 1.386 . S
C846 C847 1.395 . S
C847 C844 1.411 . S
C847 C846 1.395 . S
C847 C869 1.420 . S
O848 Eu804 2.558 . S
O848 C868 1.257 . S
O849 Eu804 2.612 . S
O849 Eu815 2.380 . S
O849 C860 1.276 . S
O850 Eu815 2.432 . S
O850 C867 1.264 . S
O851 Eu804 2.339 . S
O851 C867 1.254 . S
O852 Eu804 2.563 . S
O852 C860 1.235 . S
O853 Eu804 2.419 . S
O853 C868 1.249 . S
O854 Eu815 2.558 . S
O854 C879 1.257 . S
O855 Eu804 2.380 . S
O855 Eu815 2.612 . S
O855 C871 1.276 . S
O856 Eu804 2.432 . S
O856 C878 1.264 . S
O857 Eu815 2.339 . S
O857 C878 1.254 . S
O858 Eu815 2.563 . S
O858 C871 1.235 . S
O859 Eu815 2.419 . S
O859 C879 1.249 . S
C860 O849 1.276 . S
C860 O852 1.235 . S
C861 C863 1.393 . S
C861 C865 1.395 . S
C861 C868 1.492 . S
C862 C863 1.392 . S
C862 C864 1.386 . S
C863 C861 1.393 . S
C863 C862 1.392 . S
C863 H880 0.930 . S
C864 C862 1.386 . S
C864 C866 1.395 . S
C864 H881 0.930 . S
C865 C861 1.395 . S
C865 C866 1.379 . S
C865 H882 0.930 . S
C866 C864 1.395 . S
C866 C865 1.379 . S
C866 H883 0.930 . S
C867 O850 1.264 . S
C867 O851 1.254 . S
C868 Eu804 2.848 . S
C868 O848 1.257 . S
C868 O853 1.249 . S
C868 C861 1.492 . S
C869 H834 0.931 . S
C869 C847 1.420 . S
C869 C870 1.351 . S
C870 H832 0.930 . S
C870 C838 1.423 . S
C870 C869 1.351 . S
C871 O855 1.276 . S
C871 O858 1.235 . S
C872 C873 1.393 . S
C872 C876 1.395 . S
C872 C879 1.492 . S
C873 C872 1.393 . S
C873 C874 1.392 . S
C873 H884 0.930 . S
C874 C873 1.392 . S
C874 C875 1.386 . S
C875 C874 1.386 . S
C875 C877 1.395 . S
C875 H885 0.930 . S
C876 C872 1.395 . S
C876 C877 1.379 . S
C876 H886 0.930 . S
C877 C875 1.395 . S
C877 C876 1.379 . S
C877 H887 0.930 . S
C878 O856 1.264 . S
C878 O857 1.254 . S
C879 Eu815 2.848 . S
C879 O854 1.257 . S
C879 O859 1.249 . S
C879 C872 1.492 . S
H880 C863 0.930 . S
H881 C864 0.930 . S
H882 C865 0.930 . S
H883 C866 0.930 . S
H884 C873 0.930 . S
H885 C875 0.930 . S
H886 C876 0.930 . S
H887 C877 0.930 . S
Eu888 N919 2.657 . S
Eu888 N926 2.609 . S
Eu888 O932 2.558 . S
Eu888 O933 2.612 . S
Eu888 O935 2.339 . S
Eu888 O936 2.563 . S
Eu888 O937 2.419 . S
Eu888 O939 2.380 . S
Eu888 O940 2.432 . S
Eu888 C952 2.848 . S
C889 C892 1.429 . S
C889 C893 1.411 . S
C889 N896 1.377 . S
C890 C892 1.420 . S
C890 C894 1.423 . S
C890 C902 1.392 . S
C891 C893 1.420 . S
C891 C894 1.351 . S
C891 H914 0.931 . S
C892 C889 1.429 . S
C892 C890 1.420 . S
C892 N900 1.362 . S
C893 C889 1.411 . S
C893 C891 1.420 . S
C893 C898 1.395 . S
C894 C890 1.423 . S
C894 C891 1.351 . S
C894 H906 0.930 . S
C895 C897 1.400 . S
C895 C898 1.386 . S
C895 H907 0.930 . S
N896 C889 1.377 . S
N896 C897 1.321 . S
N896 Eu899 2.609 . S
C897 C895 1.400 . S
C897 N896 1.321 . S
C897 H904 0.930 . S
C898 C893 1.395 . S
C898 C895 1.386 . S
C898 H917 0.930 . S
Eu899 N896 2.609 . S
Eu899 N900 2.657 . S
Eu899 O933 2.380 . S
Eu899 O934 2.432 . S
Eu899 O938 2.558 . S
Eu899 O939 2.612 . S
Eu899 O941 2.339 . S
Eu899 O942 2.563 . S
Eu899 O943 2.419 . S
Eu899 C963 2.848 . S
N900 C892 1.362 . S
N900 Eu899 2.657 . S
N900 C901 1.334 . S
C901 N900 1.334 . S
C901 C903 1.413 . S
C901 H908 0.929 . S
C902 C890 1.392 . S
C902 C903 1.367 . S
C902 H910 0.930 . S
C903 C901 1.413 . S
C903 C902 1.367 . S
C903 H905 0.930 . S
H904 C897 0.930 . S
H905 C903 0.930 . S
H906 C894 0.930 . S
H907 C895 0.930 . S
H908 C901 0.929 . S
H909 C923 0.930 . S
H910 C902 0.930 . S
H911 C929 0.930 . S
H912 C920 0.929 . S
H913 C927 0.930 . S
H914 C891 0.931 . S
H915 C921 0.930 1_455 S
H916 C954 0.930 1_455 S
H917 C898 0.930 . S
H918 C953 0.931 . S
N919 Eu888 2.657 . S
N919 C920 1.334 . S
N919 C924 1.362 . S
C920 H912 0.929 . S
C920 N919 1.334 . S
C920 C923 1.413 . S
C921 H915 0.930 1_655 S
C921 C922 1.392 . S
C921 C923 1.367 . S
C922 C921 1.392 . S
C922 C924 1.420 . S
C922 C954 1.423 . S
C923 H909 0.930 . S
C923 C920 1.413 . S
C923 C921 1.367 . S
C924 N919 1.362 . S
C924 C922 1.420 . S
C924 C928 1.429 . S
H925 C930 0.930 . S
N926 Eu888 2.609 . S
N926 C928 1.377 . S
N926 C929 1.321 . S
C927 H913 0.930 . S
C927 C929 1.400 . S
C927 C930 1.386 . S
C928 C924 1.429 . S
C928 N926 1.377 . S
C928 C931 1.411 . S
C929 H911 0.930 . S
C929 N926 1.321 . S
C929 C927 1.400 . S
C930 H925 0.930 . S
C930 C927 1.386 . S
C930 C931 1.395 . S
C931 C928 1.411 . S
C931 C930 1.395 . S
C931 C953 1.420 . S
O932 Eu888 2.558 . S
O932 C952 1.257 . S
O933 Eu888 2.612 . S
O933 Eu899 2.380 . S
O933 C944 1.276 . S
O934 Eu899 2.432 . S
O934 C951 1.264 . S
O935 Eu888 2.339 . S
O935 C951 1.254 . S
O936 Eu888 2.563 . S
O936 C944 1.235 . S
O937 Eu888 2.419 . S
O937 C952 1.249 . S
O938 Eu899 2.558 . S
O938 C963 1.257 . S
O939 Eu888 2.380 . S
O939 Eu899 2.612 . S
O939 C955 1.276 . S
O940 Eu888 2.432 . S
O940 C962 1.264 . S
O941 Eu899 2.339 . S
O941 C962 1.254 . S
O942 Eu899 2.563 . S
O942 C955 1.235 . S
O943 Eu899 2.419 . S
O943 C963 1.249 . S
C944 O933 1.276 . S
C944 O936 1.235 . S
C945 C947 1.393 . S
C945 C949 1.395 . S
C945 C952 1.492 . S
C946 C947 1.392 . S
C946 C948 1.386 . S
C947 C945 1.393 . S
C947 C946 1.392 . S
C947 H964 0.930 . S
C948 C946 1.386 . S
C948 C950 1.395 . S
C948 H965 0.930 . S
C949 C945 1.395 . S
C949 C950 1.379 . S
C949 H966 0.930 . S
C950 C948 1.395 . S
C950 C949 1.379 . S
C950 H967 0.930 . S
C951 O934 1.264 . S
C951 O935 1.254 . S
C952 Eu888 2.848 . S
C952 O932 1.257 . S
C952 O937 1.249 . S
C952 C945 1.492 . S
C953 H918 0.931 . S
C953 C931 1.420 . S
C953 C954 1.351 . S
C954 H916 0.930 1_655 S
C954 C922 1.423 . S
C954 C953 1.351 . S
C955 O939 1.276 . S
C955 O942 1.235 . S
C956 C957 1.393 . S
C956 C960 1.395 . S
C956 C963 1.492 . S
C957 C956 1.393 . S
C957 C958 1.392 . S
C957 H968 0.930 . S
C958 C957 1.392 . S
C958 C959 1.386 . S
C959 C958 1.386 . S
C959 C961 1.395 . S
C959 H969 0.930 . S
C960 C956 1.395 . S
C960 C961 1.379 . S
C960 H970 0.930 . S
C961 C959 1.395 . S
C961 C960 1.379 . S
C961 H971 0.930 . S
C962 O940 1.264 . S
C962 O941 1.254 . S
C963 Eu899 2.848 . S
C963 O938 1.257 . S
C963 O943 1.249 . S
C963 C956 1.492 . S
H964 C947 0.930 . S
H965 C948 0.930 . S
H966 C949 0.930 . S
H967 C950 0.930 . S
H968 C957 0.930 . S
H969 C959 0.930 . S
H970 C960 0.930 . S
H971 C961 0.930 . S
H972 C984 0.930 . S
H973 C986 0.930 . S
H974 C987 0.930 . S
H975 C991 0.959 . S
H976 C991 0.959 . S
H977 C991 0.961 . S
H978 C992 0.960 . S
H979 C992 0.961 . S
H980 C992 0.959 . S
H981 C995 0.967 . S
H982 C996 0.931 1_556 S
H983 C998 0.930 . S
C984 H972 0.930 . S
C984 C985 1.399 . S
C984 C989 1.399 . S
C985 C984 1.399 . S
C985 C986 1.376 . S
C986 H973 0.930 . S
C986 C985 1.376 . S
C986 C987 1.388 . S
C987 H974 0.930 . S
C987 C986 1.388 . S
C987 C988 1.390 . S
C988 C987 1.390 . S
C988 C989 1.394 . S
C988 C994 1.465 . S
C989 C984 1.399 . S
C989 C988 1.394 . S
C989 C990 1.516 . S
C990 C989 1.516 . S
C990 C991 1.502 . S
C990 C992 1.561 . S
C990 C993 1.526 . S
C991 H975 0.959 . S
C991 H976 0.959 . S
C991 H977 0.961 . S
C991 C990 1.502 . S
C992 H978 0.960 . S
C992 H979 0.961 . S
C992 H980 0.959 . S
C992 C990 1.561 . S
C993 C990 1.526 . S
C993 C994 1.396 . S
C993 C998 1.390 . S
C994 C988 1.465 . S
C994 C993 1.396 . S
C994 C995 1.399 . S
C995 H981 0.967 . S
C995 C994 1.399 . S
C995 C996 1.385 . S
C996 H982 0.931 1_554 S
C996 C995 1.385 . S
C996 C997 1.389 . S
C997 C996 1.389 . S
C997 C998 1.387 . S
C998 H983 0.930 . S
C998 C993 1.390 . S
C998 C997 1.387 . S
H999 C1011 0.930 . S
H1000 C1013 0.930 . S
H1001 C1014 0.930 . S
H1002 C1018 0.959 . S
H1003 C1018 0.959 . S
H1004 C1018 0.961 . S
H1005 C1019 0.960 . S
H1006 C1019 0.961 . S
H1007 C1019 0.959 . S
H1008 C1022 0.929 . S
H1009 C1023 0.931 . S
H1010 C1025 0.930 . S
C1011 H999 0.930 . S
C1011 C1012 1.399 . S
C1011 C1016 1.399 . S
C1012 C1011 1.399 . S
C1012 C1013 1.376 . S
C1013 H1000 0.930 . S
C1013 C1012 1.376 . S
C1013 C1014 1.388 . S
C1014 H1001 0.930 . S
C1014 C1013 1.388 . S
C1014 C1015 1.390 . S
C1015 C1014 1.390 . S
C1015 C1016 1.394 . S
C1015 C1021 1.465 . S
C1016 C1011 1.399 . S
C1016 C1015 1.394 . S
C1016 C1017 1.516 . S
C1017 C1016 1.516 . S
C1017 C1018 1.502 . S
C1017 C1019 1.561 . S
C1017 C1020 1.526 . S
C1018 H1002 0.959 . S
C1018 H1003 0.959 . S
C1018 H1004 0.961 . S
C1018 C1017 1.502 . S
C1019 H1005 0.960 . S
C1019 H1006 0.961 . S
C1019 H1007 0.959 . S
C1019 C1017 1.561 . S
C1020 C1017 1.526 . S
C1020 C1021 1.396 . S
C1020 C1025 1.390 . S
C1021 C1015 1.465 . S
C1021 C1020 1.396 . S
C1021 C1022 1.399 . S
C1022 H1008 0.929 . S
C1022 C1021 1.399 . S
C1022 C1023 1.385 . S
C1023 H1009 0.931 . S
C1023 C1022 1.385 . S
C1023 C1024 1.389 . S
C1024 C1023 1.389 . S
C1024 C1025 1.387 . S
C1025 H1010 0.930 . S
C1025 C1020 1.390 . S
C1025 C1024 1.387 . S
H1026 C1038 0.930 . S
H1027 C1040 0.930 . S
H1028 C1041 0.930 . S
H1029 C1045 0.959 . S
H1030 C1045 0.959 1_556 S
H1031 C1045 0.961 . S
H1032 C1046 0.972 . S
H1033 C1046 0.961 1_556 S
H1034 C1046 0.959 . S
H1035 C1049 0.929 . S
H1036 C1050 0.931 . S
H1037 C1052 0.930 . S
C1038 H1026 0.930 . S
C1038 C1039 1.399 . S
C1038 C1043 1.399 . S
C1039 C1038 1.399 . S
C1039 C1040 1.376 . S
C1040 H1027 0.930 . S
C1040 C1039 1.376 . S
C1040 C1041 1.388 . S
C1041 H1028 0.930 . S
C1041 C1040 1.388 . S
C1041 C1042 1.390 . S
C1042 C1041 1.390 . S
C1042 C1043 1.394 . S
C1042 C1048 1.465 . S
C1043 C1038 1.399 . S
C1043 C1042 1.394 . S
C1043 C1044 1.516 . S
C1044 C1043 1.516 . S
C1044 C1045 1.502 . S
C1044 C1046 1.561 . S
C1044 C1047 1.526 . S
C1045 H1029 0.959 . S
C1045 H1030 0.959 1_554 S
C1045 H1031 0.961 . S
C1045 C1044 1.502 . S
C1046 H1032 0.972 . S
C1046 H1033 0.961 1_554 S
C1046 H1034 0.959 . S
C1046 C1044 1.561 . S
C1047 C1044 1.526 . S
C1047 C1048 1.396 . S
C1047 C1052 1.390 . S
C1048 C1042 1.465 . S
C1048 C1047 1.396 . S
C1048 C1049 1.399 . S
C1049 H1035 0.929 . S
C1049 C1048 1.399 . S
C1049 C1050 1.385 . S
C1050 H1036 0.931 . S
C1050 C1049 1.385 . S
C1050 C1051 1.389 . S
C1051 C1050 1.389 . S
C1051 C1052 1.387 . S
C1052 H1037 0.930 . S
C1052 C1047 1.390 . S
C1052 C1051 1.387 . S
H1053 C1065 0.930 . S
H1054 C1067 0.930 . S
H1055 C1068 0.930 . S
H1056 C1072 0.959 . S
H1057 C1072 0.959 . S
H1058 C1072 0.961 . S
H1059 C1073 0.960 . S
H1060 C1073 0.961 . S
H1061 C1073 0.959 . S
H1062 C1076 0.929 . S
H1063 C1077 0.931 . S
H1064 C1079 0.930 . S
C1065 H1053 0.930 . S
C1065 C1066 1.399 . S
C1065 C1070 1.399 . S
C1066 C1065 1.399 . S
C1066 C1067 1.376 . S
C1067 H1054 0.930 . S
C1067 C1066 1.376 . S
C1067 C1068 1.388 . S
C1068 H1055 0.930 . S
C1068 C1067 1.388 . S
C1068 C1069 1.390 . S
C1069 C1068 1.390 . S
C1069 C1070 1.394 . S
C1069 C1075 1.465 . S
C1070 C1065 1.399 . S
C1070 C1069 1.394 . S
C1070 C1071 1.516 1_556 S
C1071 C1070 1.516 1_554 S
C1071 C1072 1.502 . S
C1071 C1073 1.561 . S
C1071 C1074 1.526 1_554 S
C1072 H1056 0.959 . S
C1072 H1057 0.959 . S
C1072 H1058 0.961 . S
C1072 C1071 1.502 . S
C1073 H1059 0.960 . S
C1073 H1060 0.961 . S
C1073 H1061 0.959 . S
C1073 C1071 1.561 . S
C1074 C1071 1.526 1_556 S
C1074 C1075 1.396 . S
C1074 C1079 1.390 1_556 S
C1075 C1069 1.465 . S
C1075 C1074 1.396 . S
C1075 C1076 1.399 . S
C1076 H1062 0.929 . S
C1076 C1075 1.399 . S
C1076 C1077 1.385 . S
C1077 H1063 0.931 . S
C1077 C1076 1.385 . S
C1077 C1078 1.389 . S
C1078 C1077 1.389 . S
C1078 C1079 1.387 1_556 S
C1079 H1064 0.930 . S
C1079 C1074 1.390 1_554 S
C1079 C1078 1.387 1_554 S
H1080 C1092 0.930 . S
H1081 C1094 0.930 . S
H1082 C1095 0.930 . S
H1083 C1099 0.959 . S
H1084 C1099 0.959 . S
H1085 C1099 0.961 . S
H1086 C1100 0.960 . S
H1087 C1100 0.961 1_554 S
H1088 C1100 0.959 1_554 S
H1089 C1103 0.929 . S
H1090 C1104 0.931 . S
H1091 C1106 0.930 . S
C1092 H1080 0.930 . S
C1092 C1093 1.399 . S
C1092 C1097 1.399 . S
C1093 C1092 1.399 . S
C1093 C1094 1.376 . S
C1094 H1081 0.930 . S
C1094 C1093 1.376 . S
C1094 C1095 1.388 . S
C1095 H1082 0.930 . S
C1095 C1094 1.388 . S
C1095 C1096 1.390 . S
C1096 C1095 1.390 . S
C1096 C1097 1.394 . S
C1096 C1102 1.465 . S
C1097 C1092 1.399 . S
C1097 C1096 1.394 . S
C1097 C1098 1.516 . S
C1098 C1097 1.516 . S
C1098 C1099 1.502 . S
C1098 C1100 1.561 . S
C1098 C1101 1.526 . S
C1099 H1083 0.959 . S
C1099 H1084 0.959 . S
C1099 H1085 0.961 . S
C1099 C1098 1.502 . S
C1100 H1086 0.960 . S
C1100 H1087 0.961 1_556 S
C1100 H1088 0.959 1_556 S
C1100 C1098 1.561 . S
C1101 C1098 1.526 . S
C1101 C1102 1.396 . S
C1101 C1106 1.390 . S
C1102 C1096 1.465 . S
C1102 C1101 1.396 . S
C1102 C1103 1.399 . S
C1103 H1089 0.929 . S
C1103 C1102 1.399 . S
C1103 C1104 1.385 . S
C1104 H1090 0.931 . S
C1104 C1103 1.385 . S
C1104 C1105 1.389 . S
C1105 C1104 1.389 . S
C1105 C1106 1.387 . S
C1106 H1091 0.930 . S
C1106 C1101 1.390 . S
C1106 C1105 1.387 . S
H1107 C1119 0.930 . S
H1108 C1121 0.930 . S
H1109 C1122 0.930 1_554 S
H1110 C1126 0.959 . S
H1111 C1126 0.959 . S
H1112 C1126 0.961 . S
H1113 C1127 0.960 . S
H1114 C1127 0.961 . S
H1115 C1127 0.959 . S
H1116 C1130 0.929 . S
H1117 C1131 0.931 . S
H1118 C1133 0.930 . S
C1119 H1107 0.930 . S
C1119 C1120 1.399 . S
C1119 C1124 1.399 . S
C1120 C1119 1.399 . S
C1120 C1121 1.376 . S
C1121 H1108 0.930 . S
C1121 C1120 1.376 . S
C1121 C1122 1.388 . S
C1122 H1109 0.930 1_556 S
C1122 C1121 1.388 . S
C1122 C1123 1.390 . S
C1123 C1122 1.390 . S
C1123 C1124 1.394 . S
C1123 C1129 1.465 . S
C1124 C1119 1.399 . S
C1124 C1123 1.394 . S
C1124 C1125 1.516 . S
C1125 C1124 1.516 . S
C1125 C1126 1.502 . S
C1125 C1127 1.561 . S
C1125 C1128 1.526 . S
C1126 H1110 0.959 . S
C1126 H1111 0.959 . S
C1126 H1112 0.961 . S
C1126 C1125 1.502 . S
C1127 H1113 0.960 . S
C1127 H1114 0.961 . S
C1127 H1115 0.959 . S
C1127 C1125 1.561 . S
C1128 C1125 1.526 . S
C1128 C1129 1.396 . S
C1128 C1133 1.390 . S
C1129 C1123 1.465 . S
C1129 C1128 1.396 . S
C1129 C1130 1.399 1_556 S
C1130 H1116 0.929 . S
C1130 C1129 1.399 1_554 S
C1130 C1131 1.385 . S
C1131 H1117 0.931 . S
C1131 C1130 1.385 . S
C1131 C1132 1.389 1_554 S
C1132 C1131 1.389 1_556 S
C1132 C1133 1.387 . S
C1133 H1118 0.930 . S
C1133 C1128 1.390 . S
C1133 C1132 1.387 . S
H1134 C1146 0.930 . S
H1135 C1148 0.930 . S
H1136 C1149 0.930 . S
H1137 C1153 0.959 . S
H1138 C1153 0.959 . S
H1139 C1153 0.961 . S
H1140 C1154 0.960 . S
H1141 C1154 0.961 . S
H1142 C1154 0.959 . S
H1143 C1157 0.929 . S
H1144 C1158 0.931 . S
H1145 C1160 0.930 . S
C1146 H1134 0.930 . S
C1146 C1147 1.399 . S
C1146 C1151 1.399 . S
C1147 C1146 1.399 . S
C1147 C1148 1.376 . S
C1148 H1135 0.930 . S
C1148 C1147 1.376 . S
C1148 C1149 1.388 . S
C1149 H1136 0.930 . S
C1149 C1148 1.388 . S
C1149 C1150 1.390 . S
C1150 C1149 1.390 . S
C1150 C1151 1.394 . S
C1150 C1156 1.465 . S
C1151 C1146 1.399 . S
C1151 C1150 1.394 . S
C1151 C1152 1.516 1_556 S
C1152 C1151 1.516 1_554 S
C1152 C1153 1.502 . S
C1152 C1154 1.561 . S
C1152 C1155 1.526 1_554 S
C1153 H1137 0.959 . S
C1153 H1138 0.959 . S
C1153 H1139 0.961 . S
C1153 C1152 1.502 . S
C1154 H1140 0.960 . S
C1154 H1141 0.961 . S
C1154 H1142 0.959 . S
C1154 C1152 1.561 . S
C1155 C1152 1.526 1_556 S
C1155 C1156 1.396 . S
C1155 C1160 1.390 1_556 S
C1156 C1150 1.465 . S
C1156 C1155 1.396 . S
C1156 C1157 1.399 . S
C1157 H1143 0.929 . S
C1157 C1156 1.399 . S
C1157 C1158 1.385 . S
C1158 H1144 0.931 . S
C1158 C1157 1.385 . S
C1158 C1159 1.389 . S
C1159 C1158 1.389 . S
C1159 C1160 1.387 1_556 S
C1160 H1145 0.930 . S
C1160 C1155 1.390 1_554 S
C1160 C1159 1.387 1_554 S
H1161 C1173 0.930 . S
H1162 C1175 0.930 . S
H1163 C1176 0.930 . S
H1164 C1180 0.959 1_554 S
H1165 C1180 0.959 . S
H1166 C1180 0.961 . S
H1167 C1181 0.960 . S
H1168 C1181 0.961 . S
H1169 C1181 0.959 . S
H1170 C1184 0.929 . S
H1171 C1185 0.931 . S
H1172 C1187 0.930 . S
C1173 H1161 0.930 . S
C1173 C1174 1.399 . S
C1173 C1178 1.399 . S
C1174 C1173 1.399 . S
C1174 C1175 1.376 . S
C1175 H1162 0.930 . S
C1175 C1174 1.376 . S
C1175 C1176 1.388 . S
C1176 H1163 0.930 . S
C1176 C1175 1.388 . S
C1176 C1177 1.390 . S
C1177 C1176 1.390 . S
C1177 C1178 1.394 . S
C1177 C1183 1.465 . S
C1178 C1173 1.399 . S
C1178 C1177 1.394 . S
C1178 C1179 1.516 . S
C1179 C1178 1.516 . S
C1179 C1180 1.502 . S
C1179 C1181 1.561 . S
C1179 C1182 1.526 . S
C1180 H1164 0.959 1_556 S
C1180 H1165 0.959 . S
C1180 H1166 0.961 . S
C1180 C1179 1.502 . S
C1181 H1167 0.960 . S
C1181 H1168 0.961 . S
C1181 H1169 0.959 . S
C1181 C1179 1.561 . S
C1182 C1179 1.526 . S
C1182 C1183 1.396 . S
C1182 C1187 1.390 . S
C1183 C1177 1.465 . S
C1183 C1182 1.396 . S
C1183 C1184 1.399 . S
C1184 H1170 0.929 . S
C1184 C1183 1.399 . S
C1184 C1185 1.385 . S
C1185 H1171 0.931 . S
C1185 C1184 1.385 . S
C1185 C1186 1.389 . S
C1186 C1185 1.389 . S
C1186 C1187 1.387 . S
C1187 H1172 0.930 . S
C1187 C1182 1.390 . S
C1187 C1186 1.387 . S
H1188 C1200 0.930 1_554 S
H1189 C1202 0.930 . S
H1190 C1203 0.930 . S
H1191 C1207 0.959 . S
H1192 C1207 0.959 . S
H1193 C1207 0.961 . S
H1194 C1208 0.960 . S
H1195 C1208 0.961 . S
H1196 C1208 0.959 . S
H1197 C1211 0.929 . S
H1198 C1212 0.931 . S
H1199 C1214 0.930 . S
C1200 H1188 0.930 1_556 S
C1200 C1201 1.399 . S
C1200 C1205 1.399 . S
C1201 C1200 1.399 . S
C1201 C1202 1.376 . S
C1202 H1189 0.930 . S
C1202 C1201 1.376 . S
C1202 C1203 1.388 . S
C1203 H1190 0.930 . S
C1203 C1202 1.388 . S
C1203 C1204 1.390 . S
C1204 C1203 1.390 . S
C1204 C1205 1.394 . S
C1204 C1210 1.465 . S
C1205 C1200 1.399 . S
C1205 C1204 1.394 . S
C1205 C1206 1.516 1_556 S
C1206 C1205 1.516 1_554 S
C1206 C1207 1.502 . S
C1206 C1208 1.561 . S
C1206 C1209 1.526 1_554 S
C1207 H1191 0.959 . S
C1207 H1192 0.959 . S
C1207 H1193 0.961 . S
C1207 C1206 1.502 . S
C1208 H1194 0.960 . S
C1208 H1195 0.961 . S
C1208 H1196 0.959 . S
C1208 C1206 1.561 . S
C1209 C1206 1.526 1_556 S
C1209 C1210 1.396 . S
C1209 C1214 1.390 1_556 S
C1210 C1204 1.465 . S
C1210 C1209 1.396 . S
C1210 C1211 1.399 . S
C1211 H1197 0.929 . S
C1211 C1210 1.399 . S
C1211 C1212 1.385 . S
C1212 H1198 0.931 . S
C1212 C1211 1.385 . S
C1212 C1213 1.389 . S
C1213 C1212 1.389 . S
C1213 C1214 1.387 1_556 S
C1214 H1199 0.930 . S
C1214 C1209 1.390 1_554 S
C1214 C1213 1.387 1_554 S
H1215 C1227 0.930 . S
H1216 C1229 0.930 . S
H1217 C1230 0.930 . S
H1218 C1234 0.959 . S
H1219 C1234 0.959 . S
H1220 C1234 0.961 . S
H1221 C1235 0.960 . S
H1222 C1235 0.961 . S
H1223 C1235 0.959 . S
H1224 C1238 0.933 1_556 S
H1225 C1239 0.931 1_556 S
H1226 C1241 0.930 . S
C1227 H1215 0.930 . S
C1227 C1228 1.399 . S
C1227 C1232 1.399 . S
C1228 C1227 1.399 . S
C1228 C1229 1.376 . S
C1229 H1216 0.930 . S
C1229 C1228 1.376 . S
C1229 C1230 1.388 . S
C1230 H1217 0.930 . S
C1230 C1229 1.388 . S
C1230 C1231 1.390 . S
C1231 C1230 1.390 . S
C1231 C1232 1.394 . S
C1231 C1237 1.465 . S
C1232 C1227 1.399 . S
C1232 C1231 1.394 . S
C1232 C1233 1.516 . S
C1233 C1232 1.516 . S
C1233 C1234 1.502 . S
C1233 C1235 1.561 . S
C1233 C1236 1.526 . S
C1234 H1218 0.959 . S
C1234 H1219 0.959 . S
C1234 H1220 0.961 . S
C1234 C1233 1.502 . S
C1235 H1221 0.960 . S
C1235 H1222 0.961 . S
C1235 H1223 0.959 . S
C1235 C1233 1.561 . S
C1236 C1233 1.526 . S
C1236 C1237 1.396 . S
C1236 C1241 1.390 . S
C1237 C1231 1.465 . S
C1237 C1236 1.396 . S
C1237 C1238 1.399 . S
C1238 H1224 0.933 1_554 S
C1238 C1237 1.399 . S
C1238 C1239 1.385 . S
C1239 H1225 0.931 1_554 S
C1239 C1238 1.385 . S
C1239 C1240 1.389 . S
C1240 C1239 1.389 . S
C1240 C1241 1.387 . S
C1241 H1226 0.930 . S
C1241 C1236 1.390 . S
C1241 C1240 1.387 . S
H1242 C1254 0.930 . S
H1243 C1256 0.930 . S
H1244 C1257 0.930 . S
H1245 C1261 0.959 . S
H1246 C1261 0.959 . S
H1247 C1261 0.961 . S
H1248 C1262 0.960 . S
H1249 C1262 0.961 . S
H1250 C1262 0.959 . S
H1251 C1265 0.929 . S
H1252 C1266 0.931 . S
H1253 C1268 0.930 . S
C1254 H1242 0.930 . S
C1254 C1255 1.399 . S
C1254 C1259 1.399 . S
C1255 C1254 1.399 . S
C1255 C1256 1.376 . S
C1256 H1243 0.930 . S
C1256 C1255 1.376 . S
C1256 C1257 1.388 . S
C1257 H1244 0.930 . S
C1257 C1256 1.388 . S
C1257 C1258 1.390 . S
C1258 C1257 1.390 . S
C1258 C1259 1.394 . S
C1258 C1264 1.465 . S
C1259 C1254 1.399 . S
C1259 C1258 1.394 . S
C1259 C1260 1.516 . S
C1260 C1259 1.516 . S
C1260 C1261 1.502 . S
C1260 C1262 1.561 . S
C1260 C1263 1.526 . S
C1261 H1245 0.959 . S
C1261 H1246 0.959 . S
C1261 H1247 0.961 . S
C1261 C1260 1.502 . S
C1262 H1248 0.960 . S
C1262 H1249 0.961 . S
C1262 H1250 0.959 . S
C1262 C1260 1.561 . S
C1263 C1260 1.526 . S
C1263 C1264 1.396 . S
C1263 C1268 1.390 . S
C1264 C1258 1.465 . S
C1264 C1263 1.396 . S
C1264 C1265 1.399 . S
C1265 H1251 0.929 . S
C1265 C1264 1.399 . S
C1265 C1266 1.385 . S
C1266 H1252 0.931 . S
C1266 C1265 1.385 . S
C1266 C1267 1.389 . S
C1267 C1266 1.389 . S
C1267 C1268 1.387 . S
C1268 H1253 0.930 . S
C1268 C1263 1.390 . S
C1268 C1267 1.387 . S
H1269 C1281 0.930 . S
H1270 C1283 0.930 . S
H1271 C1284 0.930 . S
H1272 C1288 0.959 . S
H1273 C1288 0.959 . S
H1274 C1288 0.961 . S
H1275 C1289 0.960 . S
H1276 C1289 0.961 . S
H1277 C1289 0.959 . S
H1278 C1292 0.929 1_556 S
H1279 C1293 0.931 1_556 S
H1280 C1295 0.930 . S
C1281 H1269 0.930 . S
C1281 C1282 1.399 . S
C1281 C1286 1.399 . S
C1282 C1281 1.399 . S
C1282 C1283 1.376 . S
C1283 H1270 0.930 . S
C1283 C1282 1.376 . S
C1283 C1284 1.388 . S
C1284 H1271 0.930 . S
C1284 C1283 1.388 . S
C1284 C1285 1.390 . S
C1285 C1284 1.390 . S
C1285 C1286 1.394 . S
C1285 C1291 1.465 . S
C1286 C1281 1.399 . S
C1286 C1285 1.394 . S
C1286 C1287 1.516 . S
C1287 C1286 1.516 . S
C1287 C1288 1.502 . S
C1287 C1289 1.561 . S
C1287 C1290 1.526 . S
C1288 H1272 0.959 . S
C1288 H1273 0.959 . S
C1288 H1274 0.961 . S
C1288 C1287 1.502 . S
C1289 H1275 0.960 . S
C1289 H1276 0.961 . S
C1289 H1277 0.959 . S
C1289 C1287 1.561 . S
C1290 C1287 1.526 . S
C1290 C1291 1.396 . S
C1290 C1295 1.390 . S
C1291 C1285 1.465 . S
C1291 C1290 1.396 . S
C1291 C1292 1.399 . S
C1292 H1278 0.929 1_554 S
C1292 C1291 1.399 . S
C1292 C1293 1.385 . S
C1293 H1279 0.931 1_554 S
C1293 C1292 1.385 . S
C1293 C1294 1.389 . S
C1294 C1293 1.389 . S
C1294 C1295 1.387 . S
C1295 H1280 0.930 . S
C1295 C1290 1.390 . S
C1295 C1294 1.387 . S
H1296 C1308 0.930 . S
H1297 C1310 0.930 . S
H1298 C1311 0.930 . S
H1299 C1315 0.959 . S
H1300 C1315 0.959 . S
H1301 C1315 0.961 . S
H1302 C1316 0.960 . S
H1303 C1316 0.961 1_455 S
H1304 C1316 0.959 . S
H1305 C1319 0.929 . S
H1306 C1320 0.931 . S
H1307 C1322 0.930 . S
C1308 H1296 0.930 . S
C1308 C1309 1.399 . S
C1308 C1313 1.399 . S
C1309 C1308 1.399 . S
C1309 C1310 1.376 . S
C1310 H1297 0.930 . S
C1310 C1309 1.376 . S
C1310 C1311 1.388 . S
C1311 H1298 0.930 . S
C1311 C1310 1.388 . S
C1311 C1312 1.390 . S
C1312 C1311 1.390 . S
C1312 C1313 1.394 . S
C1312 C1318 1.465 1_655 S
C1313 C1308 1.399 . S
C1313 C1312 1.394 . S
C1313 C1314 1.516 1_655 S
C1314 C1313 1.516 1_455 S
C1314 C1315 1.502 . S
C1314 C1316 1.561 1_455 S
C1314 C1317 1.526 . S
C1315 H1299 0.959 . S
C1315 H1300 0.959 . S
C1315 H1301 0.961 . S
C1315 C1314 1.502 . S
C1316 H1302 0.960 . S
C1316 H1303 0.961 1_655 S
C1316 H1304 0.959 . S
C1316 C1314 1.561 1_655 S
C1317 C1314 1.526 . S
C1317 C1318 1.396 . S
C1317 C1322 1.390 . S
C1318 C1312 1.465 1_455 S
C1318 C1317 1.396 . S
C1318 C1319 1.399 . S
C1319 H1305 0.929 . S
C1319 C1318 1.399 . S
C1319 C1320 1.385 . S
C1320 H1306 0.931 . S
C1320 C1319 1.385 . S
C1320 C1321 1.389 . S
C1321 C1320 1.389 . S
C1321 C1322 1.387 . S
C1322 H1307 0.930 . S
C1322 C1317 1.390 . S
C1322 C1321 1.387 . S
H1323 C1335 0.930 . S
H1324 C1337 0.930 . S
H1325 C1338 0.930 . S
H1326 C1342 0.959 . S
H1327 C1342 0.959 . S
H1328 C1342 0.961 . S
H1329 C1343 0.960 . S
H1330 C1343 0.961 . S
H1331 C1343 0.959 . S
H1332 C1346 0.929 . S
H1333 C1347 0.931 . S
H1334 C1349 0.930 . S
C1335 H1323 0.930 . S
C1335 C1336 1.399 . S
C1335 C1340 1.399 . S
C1336 C1335 1.399 . S
C1336 C1337 1.376 . S
C1337 H1324 0.930 . S
C1337 C1336 1.376 . S
C1337 C1338 1.388 . S
C1338 H1325 0.930 . S
C1338 C1337 1.388 . S
C1338 C1339 1.390 . S
C1339 C1338 1.390 . S
C1339 C1340 1.394 . S
C1339 C1345 1.465 . S
C1340 C1335 1.399 . S
C1340 C1339 1.394 . S
C1340 C1341 1.516 . S
C1341 C1340 1.516 . S
C1341 C1342 1.502 . S
C1341 C1343 1.561 . S
C1341 C1344 1.526 . S
C1342 H1326 0.959 . S
C1342 H1327 0.959 . S
C1342 H1328 0.961 . S
C1342 C1341 1.502 . S
C1343 H1329 0.960 . S
C1343 H1330 0.961 . S
C1343 H1331 0.959 . S
C1343 C1341 1.561 . S
C1344 C1341 1.526 . S
C1344 C1345 1.396 . S
C1344 C1349 1.390 . S
C1345 C1339 1.465 . S
C1345 C1344 1.396 . S
C1345 C1346 1.399 . S
C1346 H1332 0.929 . S
C1346 C1345 1.399 . S
C1346 C1347 1.385 . S
C1347 H1333 0.931 . S
C1347 C1346 1.385 . S
C1347 C1348 1.389 . S
C1348 C1347 1.389 . S
C1348 C1349 1.387 . S
C1349 H1334 0.930 . S
C1349 C1344 1.390 . S
C1349 C1348 1.387 . S
H1350 C1362 0.930 . S
H1351 C1364 0.930 . S
H1352 C1365 0.930 . S
H1353 C1369 0.952 1_565 S
H1354 C1369 0.942 1_565 S
H1355 C1369 0.989 . S
H1356 C1370 0.960 . S
H1357 C1370 0.961 . S
H1358 C1370 0.959 . S
H1359 C1373 0.929 . S
H1360 C1374 0.931 . S
H1361 C1376 0.930 . S
C1362 H1350 0.930 . S
C1362 C1363 1.399 . S
C1362 C1367 1.399 . S
C1363 C1362 1.399 . S
C1363 C1364 1.376 . S
C1364 H1351 0.930 . S
C1364 C1363 1.376 . S
C1364 C1365 1.388 . S
C1365 H1352 0.930 . S
C1365 C1364 1.388 . S
C1365 C1366 1.390 . S
C1366 C1365 1.390 . S
C1366 C1367 1.394 . S
C1366 C1372 1.465 1_545 S
C1367 C1362 1.399 . S
C1367 C1366 1.394 . S
C1367 C1368 1.516 . S
C1368 C1367 1.516 . S
C1368 C1369 1.498 . S
C1368 C1370 1.561 . S
C1368 C1371 1.526 1_545 S
C1369 H1353 0.952 1_545 S
C1369 H1354 0.942 1_545 S
C1369 H1355 0.989 . S
C1369 C1368 1.498 . S
C1370 H1356 0.960 . S
C1370 H1357 0.961 . S
C1370 H1358 0.959 . S
C1370 C1368 1.561 . S
C1371 C1368 1.526 1_565 S
C1371 C1372 1.396 . S
C1371 C1376 1.390 . S
C1372 C1366 1.465 1_565 S
C1372 C1371 1.396 . S
C1372 C1373 1.399 . S
C1373 H1359 0.929 . S
C1373 C1372 1.399 . S
C1373 C1374 1.385 . S
C1374 H1360 0.931 . S
C1374 C1373 1.385 . S
C1374 C1375 1.389 . S
C1375 C1374 1.389 . S
C1375 C1376 1.387 . S
C1376 H1361 0.930 . S
C1376 C1371 1.390 . S
C1376 C1375 1.387 . S
H1377 C1389 0.930 . S
H1378 C1391 0.930 . S
H1379 C1392 0.930 . S
H1380 C1396 0.959 . S
H1381 C1396 0.959 . S
H1382 C1396 0.961 . S
H1383 C1397 0.960 . S
H1384 C1397 0.961 . S
H1385 C1397 0.959 . S
H1386 C1400 0.929 . S
H1387 C1401 0.931 . S
H1388 C1403 0.930 . S
C1389 H1377 0.930 . S
C1389 C1390 1.399 . S
C1389 C1394 1.399 . S
C1390 C1389 1.399 . S
C1390 C1391 1.376 . S
C1391 H1378 0.930 . S
C1391 C1390 1.376 . S
C1391 C1392 1.388 . S
C1392 H1379 0.930 . S
C1392 C1391 1.388 . S
C1392 C1393 1.390 . S
C1393 C1392 1.390 . S
C1393 C1394 1.394 . S
C1393 C1399 1.465 . S
C1394 C1389 1.399 . S
C1394 C1393 1.394 . S
C1394 C1395 1.516 . S
C1395 C1394 1.516 . S
C1395 C1396 1.502 . S
C1395 C1397 1.561 . S
C1395 C1398 1.526 . S
C1396 H1380 0.959 . S
C1396 H1381 0.959 . S
C1396 H1382 0.961 . S
C1396 C1395 1.502 . S
C1397 H1383 0.960 . S
C1397 H1384 0.961 . S
C1397 H1385 0.959 . S
C1397 C1395 1.561 . S
C1398 C1395 1.526 . S
C1398 C1399 1.396 . S
C1398 C1403 1.390 . S
C1399 C1393 1.465 . S
C1399 C1398 1.396 . S
C1399 C1400 1.399 . S
C1400 H1386 0.929 . S
C1400 C1399 1.399 . S
C1400 C1401 1.385 . S
C1401 H1387 0.931 . S
C1401 C1400 1.385 . S
C1401 C1402 1.389 . S
C1402 C1401 1.389 . S
C1402 C1403 1.387 . S
C1403 H1388 0.930 . S
C1403 C1398 1.390 . S
C1403 C1402 1.387 . S
H1404 C1416 0.930 . S
H1405 C1418 0.930 . S
H1406 C1419 0.930 . S
H1407 C1423 0.959 . S
H1408 C1423 0.959 . S
H1409 C1423 0.961 . S
H1410 C1424 0.960 . S
H1411 C1424 0.961 . S
H1412 C1424 0.959 . S
H1413 C1427 0.929 . S
H1414 C1428 0.931 . S
H1415 C1430 0.930 . S
C1416 H1404 0.930 . S
C1416 C1417 1.399 . S
C1416 C1421 1.399 . S
C1417 C1416 1.399 . S
C1417 C1418 1.376 . S
C1418 H1405 0.930 . S
C1418 C1417 1.376 . S
C1418 C1419 1.388 . S
C1419 H1406 0.930 . S
C1419 C1418 1.388 . S
C1419 C1420 1.390 . S
C1420 C1419 1.390 . S
C1420 C1421 1.394 . S
C1420 C1426 1.465 . S
C1421 C1416 1.399 . S
C1421 C1420 1.394 . S
C1421 C1422 1.516 . S
C1422 C1421 1.516 . S
C1422 C1423 1.502 . S
C1422 C1424 1.561 . S
C1422 C1425 1.526 . S
C1423 H1407 0.959 . S
C1423 H1408 0.959 . S
C1423 H1409 0.961 . S
C1423 C1422 1.502 . S
C1424 H1410 0.960 . S
C1424 H1411 0.961 . S
C1424 H1412 0.959 . S
C1424 C1422 1.561 . S
C1425 C1422 1.526 . S
C1425 C1426 1.396 . S
C1425 C1430 1.390 . S
C1426 C1420 1.465 . S
C1426 C1425 1.396 . S
C1426 C1427 1.399 . S
C1427 H1413 0.929 . S
C1427 C1426 1.399 . S
C1427 C1428 1.385 . S
C1428 H1414 0.931 . S
C1428 C1427 1.385 . S
C1428 C1429 1.389 . S
C1429 C1428 1.389 . S
C1429 C1430 1.387 . S
C1430 H1415 0.930 . S
C1430 C1425 1.390 . S
C1430 C1429 1.387 . S
H1431 C1443 0.930 . S
H1432 C1445 0.930 . S
H1433 C1446 0.930 . S
H1434 C1450 0.959 . S
H1435 C1450 0.959 . S
H1436 C1450 0.961 . S
H1437 C1451 0.960 . S
H1438 C1451 0.961 . S
H1439 C1451 0.959 . S
H1440 C1454 0.929 . S
H1441 C1455 0.931 . S
H1442 C1457 0.930 . S
C1443 H1431 0.930 . S
C1443 C1444 1.399 . S
C1443 C1448 1.399 . S
C1444 C1443 1.399 . S
C1444 C1445 1.376 . S
C1445 H1432 0.930 . S
C1445 C1444 1.376 . S
C1445 C1446 1.388 . S
C1446 H1433 0.930 . S
C1446 C1445 1.388 . S
C1446 C1447 1.390 . S
C1447 C1446 1.390 . S
C1447 C1448 1.394 . S
C1447 C1453 1.465 . S
C1448 C1443 1.399 . S
C1448 C1447 1.394 . S
C1448 C1449 1.516 . S
C1449 C1448 1.516 . S
C1449 C1450 1.502 . S
C1449 C1451 1.561 . S
C1449 C1452 1.526 . S
C1450 H1434 0.959 . S
C1450 H1435 0.959 . S
C1450 H1436 0.961 . S
C1450 C1449 1.502 . S
C1451 H1437 0.960 . S
C1451 H1438 0.961 . S
C1451 H1439 0.959 . S
C1451 C1449 1.561 . S
C1452 C1449 1.526 . S
C1452 C1453 1.396 . S
C1452 C1457 1.390 . S
C1453 C1447 1.465 . S
C1453 C1452 1.396 . S
C1453 C1454 1.399 . S
C1454 H1440 0.929 . S
C1454 C1453 1.399 . S
C1454 C1455 1.385 . S
C1455 H1441 0.931 . S
C1455 C1454 1.385 . S
C1455 C1456 1.389 . S
C1456 C1455 1.389 . S
C1456 C1457 1.387 . S
C1457 H1442 0.930 . S
C1457 C1452 1.390 . S
C1457 C1456 1.387 . S
H1458 C1470 0.930 . S
H1459 C1472 0.930 . S
H1460 C1473 0.930 . S
H1461 C1477 0.959 . S
H1462 C1477 0.959 . S
H1463 C1477 0.961 . S
H1464 C1478 0.960 . S
H1465 C1478 0.961 . S
H1466 C1478 0.959 . S
H1467 C1481 0.929 . S
H1468 C1482 0.931 . S
H1469 C1484 0.930 . S
C1470 H1458 0.930 . S
C1470 C1471 1.399 . S
C1470 C1475 1.399 . S
C1471 C1470 1.399 . S
C1471 C1472 1.376 . S
C1472 H1459 0.930 . S
C1472 C1471 1.376 . S
C1472 C1473 1.388 . S
C1473 H1460 0.930 . S
C1473 C1472 1.388 . S
C1473 C1474 1.390 . S
C1474 C1473 1.390 . S
C1474 C1475 1.394 . S
C1474 C1480 1.465 . S
C1475 C1470 1.399 . S
C1475 C1474 1.394 . S
C1475 C1476 1.516 . S
C1476 C1475 1.516 . S
C1476 C1477 1.502 . S
C1476 C1478 1.561 . S
C1476 C1479 1.526 . S
C1477 H1461 0.959 . S
C1477 H1462 0.959 . S
C1477 H1463 0.961 . S
C1477 C1476 1.502 . S
C1478 H1464 0.960 . S
C1478 H1465 0.961 . S
C1478 H1466 0.959 . S
C1478 C1476 1.561 . S
C1479 C1476 1.526 . S
C1479 C1480 1.396 . S
C1479 C1484 1.390 . S
C1480 C1474 1.465 . S
C1480 C1479 1.396 . S
C1480 C1481 1.399 . S
C1481 H1467 0.929 . S
C1481 C1480 1.399 . S
C1481 C1482 1.385 . S
C1482 H1468 0.931 . S
C1482 C1481 1.385 . S
C1482 C1483 1.389 . S
C1483 C1482 1.389 . S
C1483 C1484 1.387 . S
C1484 H1469 0.930 . S
C1484 C1479 1.390 . S
C1484 C1483 1.387 . S
H1485 C1497 0.930 . S
H1486 C1499 0.930 . S
H1487 C1500 0.930 . S
H1488 C1504 0.959 . S
H1489 C1504 0.959 . S
H1490 C1504 0.961 . S
H1491 C1505 0.960 . S
H1492 C1505 0.961 . S
H1493 C1505 0.959 . S
H1494 C1508 0.929 . S
H1495 C1509 0.931 . S
H1496 C1511 0.930 . S
C1497 H1485 0.930 . S
C1497 C1498 1.399 . S
C1497 C1502 1.399 . S
C1498 C1497 1.399 . S
C1498 C1499 1.376 . S
C1499 H1486 0.930 . S
C1499 C1498 1.376 . S
C1499 C1500 1.388 . S
C1500 H1487 0.930 . S
C1500 C1499 1.388 . S
C1500 C1501 1.390 . S
C1501 C1500 1.390 . S
C1501 C1502 1.394 . S
C1501 C1507 1.465 . S
C1502 C1497 1.399 . S
C1502 C1501 1.394 . S
C1502 C1503 1.516 . S
C1503 C1502 1.516 . S
C1503 C1504 1.502 . S
C1503 C1505 1.561 . S
C1503 C1506 1.526 . S
C1504 H1488 0.959 . S
C1504 H1489 0.959 . S
C1504 H1490 0.961 . S
C1504 C1503 1.502 . S
C1505 H1491 0.960 . S
C1505 H1492 0.961 . S
C1505 H1493 0.959 . S
C1505 C1503 1.561 . S
C1506 C1503 1.526 . S
C1506 C1507 1.396 . S
C1506 C1511 1.390 . S
C1507 C1501 1.465 . S
C1507 C1506 1.396 . S
C1507 C1508 1.399 . S
C1508 H1494 0.929 . S
C1508 C1507 1.399 . S
C1508 C1509 1.385 . S
C1509 H1495 0.931 . S
C1509 C1508 1.385 . S
C1509 C1510 1.389 . S
C1510 C1509 1.389 . S
C1510 C1511 1.387 . S
C1511 H1496 0.930 . S
C1511 C1506 1.390 . S
C1511 C1510 1.387 . S
H1512 C1524 0.930 . S
H1513 C1526 0.930 . S
H1514 C1527 0.930 . S
H1515 C1531 0.959 . S
H1516 C1531 0.959 . S
H1517 C1531 0.961 . S
H1518 C1532 0.960 . S
H1519 C1532 0.961 . S
H1520 C1532 0.959 . S
H1521 C1535 0.929 . S
H1522 C1536 0.931 . S
H1523 C1538 0.930 . S
C1524 H1512 0.930 . S
C1524 C1525 1.399 . S
C1524 C1529 1.399 . S
C1525 C1524 1.399 . S
C1525 C1526 1.376 . S
C1526 H1513 0.930 . S
C1526 C1525 1.376 . S
C1526 C1527 1.388 . S
C1527 H1514 0.930 . S
C1527 C1526 1.388 . S
C1527 C1528 1.390 . S
C1528 C1527 1.390 . S
C1528 C1529 1.394 . S
C1528 C1534 1.465 . S
C1529 C1524 1.399 . S
C1529 C1528 1.394 . S
C1529 C1530 1.516 . S
C1530 C1529 1.516 . S
C1530 C1531 1.502 . S
C1530 C1532 1.561 . S
C1530 C1533 1.526 . S
C1531 H1515 0.959 . S
C1531 H1516 0.959 . S
C1531 H1517 0.961 . S
C1531 C1530 1.502 . S
C1532 H1518 0.960 . S
C1532 H1519 0.961 . S
C1532 H1520 0.959 . S
C1532 C1530 1.561 . S
C1533 C1530 1.526 . S
C1533 C1534 1.396 . S
C1533 C1538 1.390 . S
C1534 C1528 1.465 . S
C1534 C1533 1.396 . S
C1534 C1535 1.399 . S
C1535 H1521 0.929 . S
C1535 C1534 1.399 . S
C1535 C1536 1.385 . S
C1536 H1522 0.931 . S
C1536 C1535 1.385 . S
C1536 C1537 1.389 . S
C1537 C1536 1.389 . S
C1537 C1538 1.387 . S
C1538 H1523 0.930 . S
C1538 C1533 1.390 . S
C1538 C1537 1.387 . S
H1539 C1551 0.930 . S
H1540 C1553 0.930 . S
H1541 C1554 0.930 . S
H1542 C1558 0.959 . S
H1543 C1558 0.959 . S
H1544 C1558 0.961 . S
H1545 C1559 0.960 . S
H1546 C1559 0.961 . S
H1547 C1559 0.959 . S
H1548 C1562 0.929 . S
H1549 C1563 0.931 . S
H1550 C1565 0.930 . S
C1551 H1539 0.930 . S
C1551 C1552 1.399 . S
C1551 C1556 1.399 1_545 S
C1552 C1551 1.399 . S
C1552 C1553 1.376 . S
C1553 H1540 0.930 . S
C1553 C1552 1.376 . S
C1553 C1554 1.388 1_545 S
C1554 H1541 0.930 . S
C1554 C1553 1.388 1_565 S
C1554 C1555 1.390 . S
C1555 C1554 1.390 . S
C1555 C1556 1.394 . S
C1555 C1561 1.465 . S
C1556 C1551 1.399 1_565 S
C1556 C1555 1.394 . S
C1556 C1557 1.516 . S
C1557 C1556 1.516 . S
C1557 C1558 1.502 . S
C1557 C1559 1.561 . S
C1557 C1560 1.526 . S
C1558 H1542 0.959 . S
C1558 H1543 0.959 . S
C1558 H1544 0.961 . S
C1558 C1557 1.502 . S
C1559 H1545 0.960 . S
C1559 H1546 0.961 . S
C1559 H1547 0.959 . S
C1559 C1557 1.561 . S
C1560 C1557 1.526 . S
C1560 C1561 1.396 . S
C1560 C1565 1.390 . S
C1561 C1555 1.465 . S
C1561 C1560 1.396 . S
C1561 C1562 1.399 . S
C1562 H1548 0.929 . S
C1562 C1561 1.399 . S
C1562 C1563 1.385 . S
C1563 H1549 0.931 . S
C1563 C1562 1.385 . S
C1563 C1564 1.389 . S
C1564 C1563 1.389 . S
C1564 C1565 1.387 . S
C1565 H1550 0.930 . S
C1565 C1560 1.390 . S
C1565 C1564 1.387 . S
H1566 C1578 0.930 . S
H1567 C1580 0.930 . S
H1568 C1581 0.930 . S
H1569 C1585 0.959 . S
H1570 C1585 0.959 . S
H1571 C1585 0.961 . S
H1572 C1586 0.960 . S
H1573 C1586 0.961 . S
H1574 C1586 0.959 . S
H1575 C1589 0.929 . S
H1576 C1590 0.931 . S
H1577 C1592 0.930 . S
C1578 H1566 0.930 . S
C1578 C1579 1.399 1_455 S
C1578 C1583 1.399 . S
C1579 C1578 1.399 1_655 S
C1579 C1580 1.376 . S
C1580 H1567 0.930 . S
C1580 C1579 1.376 . S
C1580 C1581 1.388 1_655 S
C1581 H1568 0.930 . S
C1581 C1580 1.388 1_455 S
C1581 C1582 1.390 . S
C1582 C1581 1.390 . S
C1582 C1583 1.394 . S
C1582 C1588 1.465 . S
C1583 C1578 1.399 . S
C1583 C1582 1.394 . S
C1583 C1584 1.516 . S
C1584 C1583 1.516 . S
C1584 C1585 1.502 . S
C1584 C1586 1.561 . S
C1584 C1587 1.526 . S
C1585 H1569 0.959 . S
C1585 H1570 0.959 . S
C1585 H1571 0.961 . S
C1585 C1584 1.502 . S
C1586 H1572 0.960 . S
C1586 H1573 0.961 . S
C1586 H1574 0.959 . S
C1586 C1584 1.561 . S
C1587 C1584 1.526 . S
C1587 C1588 1.396 . S
C1587 C1592 1.390 . S
C1588 C1582 1.465 . S
C1588 C1587 1.396 . S
C1588 C1589 1.399 . S
C1589 H1575 0.929 . S
C1589 C1588 1.399 . S
C1589 C1590 1.385 . S
C1590 H1576 0.931 . S
C1590 C1589 1.385 . S
C1590 C1591 1.389 . S
C1591 C1590 1.389 . S
C1591 C1592 1.387 . S
C1592 H1577 0.930 . S
C1592 C1587 1.390 . S
C1592 C1591 1.387 . S
H1593 C1605 0.930 . S
H1594 C1607 0.930 . S
H1595 C1608 0.930 . S
H1596 C1612 0.959 . S
H1597 C1612 0.959 . S
H1598 C1612 0.961 . S
H1599 C1613 0.960 . S
H1600 C1613 0.961 . S
H1601 C1613 0.959 . S
H1602 C1616 0.929 . S
H1603 C1617 0.931 . S
H1604 C1619 0.930 . S
C1605 H1593 0.930 . S
C1605 C1606 1.399 . S
C1605 C1610 1.399 . S
C1606 C1605 1.399 . S
C1606 C1607 1.376 . S
C1607 H1594 0.930 . S
C1607 C1606 1.376 . S
C1607 C1608 1.388 . S
C1608 H1595 0.930 . S
C1608 C1607 1.388 . S
C1608 C1609 1.390 . S
C1609 C1608 1.390 . S
C1609 C1610 1.394 . S
C1609 C1615 1.465 . S
C1610 C1605 1.399 . S
C1610 C1609 1.394 . S
C1610 C1611 1.516 . S
C1611 C1610 1.516 . S
C1611 C1612 1.502 . S
C1611 C1613 1.561 . S
C1611 C1614 1.526 . S
C1612 H1596 0.959 . S
C1612 H1597 0.959 . S
C1612 H1598 0.961 . S
C1612 C1611 1.502 . S
C1613 H1599 0.960 . S
C1613 H1600 0.961 . S
C1613 H1601 0.959 . S
C1613 C1611 1.561 . S
C1614 C1611 1.526 . S
C1614 C1615 1.396 . S
C1614 C1619 1.390 . S
C1615 C1609 1.465 . S
C1615 C1614 1.396 . S
C1615 C1616 1.399 . S
C1616 H1602 0.929 . S
C1616 C1615 1.399 . S
C1616 C1617 1.385 . S
C1617 H1603 0.931 . S
C1617 C1616 1.385 . S
C1617 C1618 1.389 . S
C1618 C1617 1.389 . S
C1618 C1619 1.387 . S
C1619 H1604 0.930 . S
C1619 C1614 1.390 . S
C1619 C1618 1.387 . S
H1620 C1632 0.930 . S
H1621 C1634 0.930 . S
H1622 C1635 0.930 . S
H1623 C1639 0.959 . S
H1624 C1639 0.959 . S
H1625 C1639 0.961 . S
H1626 C1640 0.960 . S
H1627 C1640 0.961 . S
H1628 C1640 0.959 . S
H1629 C1643 0.929 . S
H1630 C1644 0.931 . S
H1631 C1646 0.930 . S
C1632 H1620 0.930 . S
C1632 C1633 1.399 . S
C1632 C1637 1.399 . S
C1633 C1632 1.399 . S
C1633 C1634 1.376 . S
C1634 H1621 0.930 . S
C1634 C1633 1.376 . S
C1634 C1635 1.388 . S
C1635 H1622 0.930 . S
C1635 C1634 1.388 . S
C1635 C1636 1.390 . S
C1636 C1635 1.390 . S
C1636 C1637 1.394 . S
C1636 C1642 1.465 . S
C1637 C1632 1.399 . S
C1637 C1636 1.394 . S
C1637 C1638 1.516 . S
C1638 C1637 1.516 . S
C1638 C1639 1.502 . S
C1638 C1640 1.561 . S
C1638 C1641 1.526 . S
C1639 H1623 0.959 . S
C1639 H1624 0.959 . S
C1639 H1625 0.961 . S
C1639 C1638 1.502 . S
C1640 H1626 0.960 . S
C1640 H1627 0.961 . S
C1640 H1628 0.959 . S
C1640 C1638 1.561 . S
C1641 C1638 1.526 . S
C1641 C1642 1.396 . S
C1641 C1646 1.390 . S
C1642 C1636 1.465 . S
C1642 C1641 1.396 . S
C1642 C1643 1.399 . S
C1643 H1629 0.929 . S
C1643 C1642 1.399 . S
C1643 C1644 1.385 . S
C1644 H1630 0.931 . S
C1644 C1643 1.385 . S
C1644 C1645 1.389 . S
C1645 C1644 1.389 . S
C1645 C1646 1.387 . S
C1646 H1631 0.930 . S
C1646 C1641 1.390 . S
C1646 C1645 1.387 . S
H1647 C1659 0.930 . S
H1648 C1661 0.930 . S
H1649 C1662 0.930 . S
H1650 C1666 0.959 . S
H1651 C1666 0.959 . S
H1652 C1666 0.961 . S
H1653 C1667 0.960 . S
H1654 C1667 0.961 . S
H1655 C1667 0.959 . S
H1656 C1670 0.929 . S
H1657 C1671 0.931 . S
H1658 C1673 0.930 . S
C1659 H1647 0.930 . S
C1659 C1660 1.399 . S
C1659 C1664 1.399 . S
C1660 C1659 1.399 . S
C1660 C1661 1.376 . S
C1661 H1648 0.930 . S
C1661 C1660 1.376 . S
C1661 C1662 1.388 . S
C1662 H1649 0.930 . S
C1662 C1661 1.388 . S
C1662 C1663 1.390 . S
C1663 C1662 1.390 . S
C1663 C1664 1.394 . S
C1663 C1669 1.465 . S
C1664 C1659 1.399 . S
C1664 C1663 1.394 . S
C1664 C1665 1.516 . S
C1665 C1664 1.516 . S
C1665 C1666 1.502 . S
C1665 C1667 1.561 . S
C1665 C1668 1.526 . S
C1666 H1650 0.959 . S
C1666 H1651 0.959 . S
C1666 H1652 0.961 . S
C1666 C1665 1.502 . S
C1667 H1653 0.960 . S
C1667 H1654 0.961 . S
C1667 H1655 0.959 . S
C1667 C1665 1.561 . S
C1668 C1665 1.526 . S
C1668 C1669 1.396 . S
C1668 C1673 1.390 . S
C1669 C1663 1.465 . S
C1669 C1668 1.396 . S
C1669 C1670 1.399 . S
C1670 H1656 0.929 . S
C1670 C1669 1.399 . S
C1670 C1671 1.385 . S
C1671 H1657 0.931 . S
C1671 C1670 1.385 . S
C1671 C1672 1.389 . S
C1672 C1671 1.389 . S
C1672 C1673 1.387 . S
C1673 H1658 0.930 . S
C1673 C1668 1.390 . S
C1673 C1672 1.387 . S
H1674 C1686 0.930 . S
H1675 C1688 0.930 . S
H1676 C1689 0.930 . S
H1677 C1693 0.959 . S
H1678 C1693 0.959 . S
H1679 C1693 0.961 . S
H1680 C1694 0.960 . S
H1681 C1694 0.961 . S
H1682 C1694 0.959 . S
H1683 C1697 0.929 . S
H1684 C1698 0.931 . S
H1685 C1700 0.930 . S
C1686 H1674 0.930 . S
C1686 C1687 1.399 . S
C1686 C1691 1.399 . S
C1687 C1686 1.399 . S
C1687 C1688 1.376 . S
C1688 H1675 0.930 . S
C1688 C1687 1.376 . S
C1688 C1689 1.388 . S
C1689 H1676 0.930 . S
C1689 C1688 1.388 . S
C1689 C1690 1.390 . S
C1690 C1689 1.390 . S
C1690 C1691 1.394 . S
C1690 C1696 1.465 . S
C1691 C1686 1.399 . S
C1691 C1690 1.394 . S
C1691 C1692 1.516 . S
C1692 C1691 1.516 . S
C1692 C1693 1.502 . S
C1692 C1694 1.561 . S
C1692 C1695 1.526 . S
C1693 H1677 0.959 . S
C1693 H1678 0.959 . S
C1693 H1679 0.961 . S
C1693 C1692 1.502 . S
C1694 H1680 0.960 . S
C1694 H1681 0.961 . S
C1694 H1682 0.959 . S
C1694 C1692 1.561 . S
C1695 C1692 1.526 . S
C1695 C1696 1.396 . S
C1695 C1700 1.390 . S
C1696 C1690 1.465 . S
C1696 C1695 1.396 . S
C1696 C1697 1.399 . S
C1697 H1683 0.929 . S
C1697 C1696 1.399 . S
C1697 C1698 1.385 . S
C1698 H1684 0.931 . S
C1698 C1697 1.385 . S
C1698 C1699 1.389 . S
C1699 C1698 1.389 . S
C1699 C1700 1.387 . S
C1700 H1685 0.930 . S
C1700 C1695 1.390 . S
C1700 C1699 1.387 . S
H1701 C1713 0.930 . S
H1702 C1715 0.930 . S
H1703 C1716 0.930 . S
H1704 C1720 0.959 . S
H1705 C1720 0.959 . S
H1706 C1720 0.961 . S
H1707 C1721 0.960 . S
H1708 C1721 0.961 1_545 S
H1709 C1721 0.959 . S
H1710 C1724 0.929 . S
H1711 C1725 0.931 . S
H1712 C1727 0.930 . S
C1713 H1701 0.930 . S
C1713 C1714 1.399 . S
C1713 C1718 1.399 . S
C1714 C1713 1.399 . S
C1714 C1715 1.376 . S
C1715 H1702 0.930 . S
C1715 C1714 1.376 . S
C1715 C1716 1.388 . S
C1716 H1703 0.930 . S
C1716 C1715 1.388 . S
C1716 C1717 1.390 . S
C1717 C1716 1.390 . S
C1717 C1718 1.394 . S
C1717 C1723 1.465 1_565 S
C1718 C1713 1.399 . S
C1718 C1717 1.394 . S
C1718 C1719 1.516 1_565 S
C1719 C1718 1.516 1_545 S
C1719 C1720 1.502 . S
C1719 C1721 1.561 1_545 S
C1719 C1722 1.526 . S
C1720 H1704 0.959 . S
C1720 H1705 0.959 . S
C1720 H1706 0.961 . S
C1720 C1719 1.502 . S
C1721 H1707 0.960 . S
C1721 H1708 0.961 1_565 S
C1721 H1709 0.959 . S
C1721 C1719 1.561 1_565 S
C1722 C1719 1.526 . S
C1722 C1723 1.396 . S
C1722 C1727 1.390 . S
C1723 C1717 1.465 1_545 S
C1723 C1722 1.396 . S
C1723 C1724 1.399 . S
C1724 H1710 0.929 . S
C1724 C1723 1.399 . S
C1724 C1725 1.385 . S
C1725 H1711 0.931 . S
C1725 C1724 1.385 . S
C1725 C1726 1.389 . S
C1726 C1725 1.389 . S
C1726 C1727 1.387 . S
C1727 H1712 0.930 . S
C1727 C1722 1.390 . S
C1727 C1726 1.387 . S
H1728 C1740 0.930 . S
H1729 C1742 0.930 . S
H1730 C1743 0.930 1_655 S
H1731 C1747 0.959 . S
H1732 C1747 0.959 . S
H1733 C1747 0.961 . S
H1734 C1748 0.960 . S
H1735 C1748 0.961 . S
H1736 C1748 0.959 . S
H1737 C1751 0.929 . S
H1738 C1752 0.931 . S
H1739 C1754 0.930 . S
C1740 H1728 0.930 . S
C1740 C1741 1.399 . S
C1740 C1745 1.399 . S
C1741 C1740 1.399 . S
C1741 C1742 1.376 . S
C1742 H1729 0.930 . S
C1742 C1741 1.376 . S
C1742 C1743 1.388 . S
C1743 H1730 0.930 1_455 S
C1743 C1742 1.388 . S
C1743 C1744 1.390 . S
C1744 C1743 1.390 . S
C1744 C1745 1.394 . S
C1744 C1750 1.465 1_455 S
C1745 C1740 1.399 . S
C1745 C1744 1.394 . S
C1745 C1746 1.516 . S
C1746 C1745 1.516 . S
C1746 C1747 1.502 . S
C1746 C1748 1.561 . S
C1746 C1749 1.526 1_455 S
C1747 H1731 0.959 . S
C1747 H1732 0.959 . S
C1747 H1733 0.961 . S
C1747 C1746 1.502 . S
C1748 H1734 0.960 . S
C1748 H1735 0.961 . S
C1748 H1736 0.959 . S
C1748 C1746 1.561 . S
C1749 C1746 1.526 1_655 S
C1749 C1750 1.396 . S
C1749 C1754 1.390 . S
C1750 C1744 1.465 1_655 S
C1750 C1749 1.396 . S
C1750 C1751 1.399 . S
C1751 H1737 0.929 . S
C1751 C1750 1.399 . S
C1751 C1752 1.385 . S
C1752 H1738 0.931 . S
C1752 C1751 1.385 . S
C1752 C1753 1.389 . S
C1753 C1752 1.389 . S
C1753 C1754 1.387 . S
C1754 H1739 0.930 . S
C1754 C1749 1.390 . S
C1754 C1753 1.387 . S
H1755 C1767 0.930 . S
H1756 C1769 0.930 . S
H1757 C1770 0.930 . S
H1758 C1774 0.959 . S
H1759 C1774 0.959 . S
H1760 C1774 0.961 . S
H1761 C1775 0.960 . S
H1762 C1775 0.961 . S
H1763 C1775 0.959 . S
H1764 C1778 0.929 . S
H1765 C1779 0.931 . S
H1766 C1781 0.930 . S
C1767 H1755 0.930 . S
C1767 C1768 1.399 . S
C1767 C1772 1.399 . S
C1768 C1767 1.399 . S
C1768 C1769 1.376 . S
C1769 H1756 0.930 . S
C1769 C1768 1.376 . S
C1769 C1770 1.388 . S
C1770 H1757 0.930 . S
C1770 C1769 1.388 . S
C1770 C1771 1.390 . S
C1771 C1770 1.390 . S
C1771 C1772 1.394 . S
C1771 C1777 1.465 . S
C1772 C1767 1.399 . S
C1772 C1771 1.394 . S
C1772 C1773 1.516 . S
C1773 C1772 1.516 . S
C1773 C1774 1.502 . S
C1773 C1775 1.561 . S
C1773 C1776 1.526 . S
C1774 H1758 0.959 . S
C1774 H1759 0.959 . S
C1774 H1760 0.961 . S
C1774 C1773 1.502 . S
C1775 H1761 0.960 . S
C1775 H1762 0.961 . S
C1775 H1763 0.959 . S
C1775 C1773 1.561 . S
C1776 C1773 1.526 . S
C1776 C1777 1.396 . S
C1776 C1781 1.390 . S
C1777 C1771 1.465 . S
C1777 C1776 1.396 . S
C1777 C1778 1.399 . S
C1778 H1764 0.929 . S
C1778 C1777 1.399 . S
C1778 C1779 1.385 . S
C1779 H1765 0.931 . S
C1779 C1778 1.385 . S
C1779 C1780 1.389 . S
C1780 C1779 1.389 . S
C1780 C1781 1.387 . S
C1781 H1766 0.930 . S
C1781 C1776 1.390 . S
C1781 C1780 1.387 . S
H1782 C1794 0.947 . S
H1783 C1796 0.930 1_455 S
H1784 C1797 0.930 . S
H1785 C1801 0.959 . S
H1786 C1801 0.959 . S
H1787 C1801 0.961 . S
H1788 C1802 0.960 . S
H1789 C1802 0.961 . S
H1790 C1802 0.959 . S
H1791 C1805 0.929 . S
H1792 C1806 0.931 . S
H1793 C1808 0.930 . S
C1794 H1782 0.947 . S
C1794 C1795 1.410 . S
C1794 C1799 1.372 1_455 S
C1795 C1794 1.410 . S
C1795 C1796 1.376 1_455 S
C1796 H1783 0.930 1_655 S
C1796 C1795 1.376 1_655 S
C1796 C1797 1.388 . S
C1797 H1784 0.930 . S
C1797 C1796 1.388 . S
C1797 C1798 1.390 . S
C1798 C1797 1.390 . S
C1798 C1799 1.394 . S
C1798 C1804 1.465 . S
C1799 C1794 1.372 1_655 S
C1799 C1798 1.394 . S
C1799 C1800 1.516 . S
C1800 C1799 1.516 . S
C1800 C1801 1.502 . S
C1800 C1802 1.561 . S
C1800 C1803 1.526 . S
C1801 H1785 0.959 . S
C1801 H1786 0.959 . S
C1801 H1787 0.961 . S
C1801 C1800 1.502 . S
C1802 H1788 0.960 . S
C1802 H1789 0.961 . S
C1802 H1790 0.959 . S
C1802 C1800 1.561 . S
C1803 C1800 1.526 . S
C1803 C1804 1.396 . S
C1803 C1808 1.390 . S
C1804 C1798 1.465 . S
C1804 C1803 1.396 . S
C1804 C1805 1.399 . S
C1805 H1791 0.929 . S
C1805 C1804 1.399 . S
C1805 C1806 1.385 . S
C1806 H1792 0.931 . S
C1806 C1805 1.385 . S
C1806 C1807 1.389 . S
C1807 C1806 1.389 . S
C1807 C1808 1.387 . S
C1808 H1793 0.930 . S
C1808 C1803 1.390 . S
C1808 C1807 1.387 . S
H1809 C1821 0.930 . S
H1810 C1823 0.930 . S
H1811 C1824 0.930 . S
H1812 C1828 0.959 . S
H1813 C1828 0.959 . S
H1814 C1828 0.961 . S
H1815 C1829 0.960 . S
H1816 C1829 0.961 . S
H1817 C1829 0.959 . S
H1818 C1832 0.929 . S
H1819 C1833 0.931 . S
H1820 C1835 0.930 . S
C1821 H1809 0.930 . S
C1821 C1822 1.399 . S
C1821 C1826 1.399 . S
C1822 C1821 1.399 . S
C1822 C1823 1.376 . S
C1823 H1810 0.930 . S
C1823 C1822 1.376 . S
C1823 C1824 1.388 . S
C1824 H1811 0.930 . S
C1824 C1823 1.388 . S
C1824 C1825 1.390 . S
C1825 C1824 1.390 . S
C1825 C1826 1.394 . S
C1825 C1831 1.465 . S
C1826 C1821 1.399 . S
C1826 C1825 1.394 . S
C1826 C1827 1.516 . S
C1827 C1826 1.516 . S
C1827 C1828 1.502 . S
C1827 C1829 1.561 . S
C1827 C1830 1.526 . S
C1828 H1812 0.959 . S
C1828 H1813 0.959 . S
C1828 H1814 0.961 . S
C1828 C1827 1.502 . S
C1829 H1815 0.960 . S
C1829 H1816 0.961 . S
C1829 H1817 0.959 . S
C1829 C1827 1.561 . S
C1830 C1827 1.526 . S
C1830 C1831 1.396 . S
C1830 C1835 1.390 . S
C1831 C1825 1.465 . S
C1831 C1830 1.396 . S
C1831 C1832 1.399 . S
C1832 H1818 0.929 . S
C1832 C1831 1.399 . S
C1832 C1833 1.385 . S
C1833 H1819 0.931 . S
C1833 C1832 1.385 . S
C1833 C1834 1.389 . S
C1834 C1833 1.389 . S
C1834 C1835 1.387 . S
C1835 H1820 0.930 . S
C1835 C1830 1.390 . S
C1835 C1834 1.387 . S
H1836 C1848 0.930 . S
H1837 C1850 0.930 . S
H1838 C1851 0.930 . S
H1839 C1855 0.959 . S
H1840 C1855 0.959 . S
H1841 C1855 0.961 . S
H1842 C1856 0.960 . S
H1843 C1856 0.961 . S
H1844 C1856 0.959 . S
H1845 C1859 0.929 . S
H1846 C1860 0.931 . S
H1847 C1862 0.930 . S
C1848 H1836 0.930 . S
C1848 C1849 1.399 1_545 S
C1848 C1853 1.399 . S
C1849 C1848 1.399 1_565 S
C1849 C1850 1.376 . S
C1850 H1837 0.930 . S
C1850 C1849 1.376 . S
C1850 C1851 1.388 1_565 S
C1851 H1838 0.930 . S
C1851 C1850 1.388 1_545 S
C1851 C1852 1.390 . S
C1852 C1851 1.390 . S
C1852 C1853 1.394 . S
C1852 C1858 1.465 . S
C1853 C1848 1.399 . S
C1853 C1852 1.394 . S
C1853 C1854 1.516 . S
C1854 C1853 1.516 . S
C1854 C1855 1.502 . S
C1854 C1856 1.561 . S
C1854 C1857 1.526 . S
C1855 H1839 0.959 . S
C1855 H1840 0.959 . S
C1855 H1841 0.961 . S
C1855 C1854 1.502 . S
C1856 H1842 0.960 . S
C1856 H1843 0.961 . S
C1856 H1844 0.959 . S
C1856 C1854 1.561 . S
C1857 C1854 1.526 . S
C1857 C1858 1.396 . S
C1857 C1862 1.390 . S
C1858 C1852 1.465 . S
C1858 C1857 1.396 . S
C1858 C1859 1.399 . S
C1859 H1845 0.929 . S
C1859 C1858 1.399 . S
C1859 C1860 1.385 . S
C1860 H1846 0.931 . S
C1860 C1859 1.385 . S
C1860 C1861 1.389 . S
C1861 C1860 1.389 . S
C1861 C1862 1.387 . S
C1862 H1847 0.930 . S
C1862 C1857 1.390 . S
C1862 C1861 1.387 . S
H1863 C1875 0.930 . S
H1864 C1877 0.930 . S
H1865 C1878 0.930 . S
H1866 C1882 0.959 . S
H1867 C1882 0.959 . S
H1868 C1882 0.961 . S
H1869 C1883 0.960 . S
H1870 C1883 0.961 . S
H1871 C1883 0.959 . S
H1872 C1886 0.929 . S
H1873 C1887 0.931 . S
H1874 C1889 0.930 . S
C1875 H1863 0.930 . S
C1875 C1876 1.399 . S
C1875 C1880 1.399 . S
C1876 C1875 1.399 . S
C1876 C1877 1.376 . S
C1877 H1864 0.930 . S
C1877 C1876 1.376 . S
C1877 C1878 1.388 . S
C1878 H1865 0.930 . S
C1878 C1877 1.388 . S
C1878 C1879 1.390 . S
C1879 C1878 1.390 . S
C1879 C1880 1.394 . S
C1879 C1885 1.465 . S
C1880 C1875 1.399 . S
C1880 C1879 1.394 . S
C1880 C1881 1.516 . S
C1881 C1880 1.516 . S
C1881 C1882 1.502 . S
C1881 C1883 1.561 . S
C1881 C1884 1.526 . S
C1882 H1866 0.959 . S
C1882 H1867 0.959 . S
C1882 H1868 0.961 . S
C1882 C1881 1.502 . S
C1883 H1869 0.960 . S
C1883 H1870 0.961 . S
C1883 H1871 0.959 . S
C1883 C1881 1.561 . S
C1884 C1881 1.526 . S
C1884 C1885 1.396 . S
C1884 C1889 1.390 . S
C1885 C1879 1.465 . S
C1885 C1884 1.396 . S
C1885 C1886 1.399 . S
C1886 H1872 0.929 . S
C1886 C1885 1.399 . S
C1886 C1887 1.385 . S
C1887 H1873 0.931 . S
C1887 C1886 1.385 . S
C1887 C1888 1.389 . S
C1888 C1887 1.389 . S
C1888 C1889 1.387 . S
C1889 H1874 0.930 . S
C1889 C1884 1.390 . S
C1889 C1888 1.387 . S
H1890 C1902 0.930 . S
H1891 C1904 0.930 . S
H1892 C1905 0.930 . S
H1893 C1909 0.959 . S
H1894 C1909 0.959 . S
H1895 C1909 0.961 . S
H1896 C1910 0.960 . S
H1897 C1910 0.961 . S
H1898 C1910 0.959 . S
H1899 C1913 0.929 . S
H1900 C1914 0.931 . S
H1901 C1916 0.930 . S
C1902 H1890 0.930 . S
C1902 C1903 1.399 . S
C1902 C1907 1.399 . S
C1903 C1902 1.399 . S
C1903 C1904 1.376 . S
C1904 H1891 0.930 . S
C1904 C1903 1.376 . S
C1904 C1905 1.388 . S
C1905 H1892 0.930 . S
C1905 C1904 1.388 . S
C1905 C1906 1.390 . S
C1906 C1905 1.390 . S
C1906 C1907 1.394 . S
C1906 C1912 1.465 . S
C1907 C1902 1.399 . S
C1907 C1906 1.394 . S
C1907 C1908 1.516 . S
C1908 C1907 1.516 . S
C1908 C1909 1.502 . S
C1908 C1910 1.561 . S
C1908 C1911 1.526 . S
C1909 H1893 0.959 . S
C1909 H1894 0.959 . S
C1909 H1895 0.961 . S
C1909 C1908 1.502 . S
C1910 H1896 0.960 . S
C1910 H1897 0.961 . S
C1910 H1898 0.959 . S
C1910 C1908 1.561 . S
C1911 C1908 1.526 . S
C1911 C1912 1.396 . S
C1911 C1916 1.390 . S
C1912 C1906 1.465 . S
C1912 C1911 1.396 . S
C1912 C1913 1.399 . S
C1913 H1899 0.929 . S
C1913 C1912 1.399 . S
C1913 C1914 1.385 . S
C1914 H1900 0.931 . S
C1914 C1913 1.385 . S
C1914 C1915 1.389 . S
C1915 C1914 1.389 . S
C1915 C1916 1.387 . S
C1916 H1901 0.930 . S
C1916 C1911 1.390 . S
C1916 C1915 1.387 . S
H1917 C1929 0.930 . S
H1918 C1931 0.930 . S
H1919 C1932 0.930 . S
H1920 C1936 0.959 . S
H1921 C1936 0.959 . S
H1922 C1936 0.961 . S
H1923 C1937 0.960 . S
H1924 C1937 0.961 . S
H1925 C1937 0.959 . S
H1926 C1940 0.929 . S
H1927 C1941 0.931 . S
H1928 C1943 0.930 . S
C1929 H1917 0.930 . S
C1929 C1930 1.399 . S
C1929 C1934 1.399 . S
C1930 C1929 1.399 . S
C1930 C1931 1.376 . S
C1931 H1918 0.930 . S
C1931 C1930 1.376 . S
C1931 C1932 1.388 . S
C1932 H1919 0.930 . S
C1932 C1931 1.388 . S
C1932 C1933 1.390 . S
C1933 C1932 1.390 . S
C1933 C1934 1.394 . S
C1933 C1939 1.465 . S
C1934 C1929 1.399 . S
C1934 C1933 1.394 . S
C1934 C1935 1.516 . S
C1935 C1934 1.516 . S
C1935 C1936 1.502 . S
C1935 C1937 1.561 . S
C1935 C1938 1.526 . S
C1936 H1920 0.959 . S
C1936 H1921 0.959 . S
C1936 H1922 0.961 . S
C1936 C1935 1.502 . S
C1937 H1923 0.960 . S
C1937 H1924 0.961 . S
C1937 H1925 0.959 . S
C1937 C1935 1.561 . S
C1938 C1935 1.526 . S
C1938 C1939 1.396 . S
C1938 C1943 1.390 . S
C1939 C1933 1.465 . S
C1939 C1938 1.396 . S
C1939 C1940 1.399 . S
C1940 H1926 0.929 . S
C1940 C1939 1.399 . S
C1940 C1941 1.385 . S
C1941 H1927 0.931 . S
C1941 C1940 1.385 . S
C1941 C1942 1.389 . S
C1942 C1941 1.389 . S
C1942 C1943 1.387 . S
C1943 H1928 0.930 . S
C1943 C1938 1.390 . S
C1943 C1942 1.387 . S
H1944 C1956 0.930 . S
H1945 C1958 0.930 . S
H1946 C1959 0.930 . S
H1947 C1963 0.959 . S
H1948 C1963 0.959 . S
H1949 C1963 0.961 . S
H1950 C1964 0.960 . S
H1951 C1964 0.961 . S
H1952 C1964 0.959 . S
H1953 C1967 0.929 . S
H1954 C1968 0.931 . S
H1955 C1970 0.930 . S
C1956 H1944 0.930 . S
C1956 C1957 1.399 . S
C1956 C1961 1.399 . S
C1957 C1956 1.399 . S
C1957 C1958 1.376 . S
C1958 H1945 0.930 . S
C1958 C1957 1.376 . S
C1958 C1959 1.388 . S
C1959 H1946 0.930 . S
C1959 C1958 1.388 . S
C1959 C1960 1.390 . S
C1960 C1959 1.390 . S
C1960 C1961 1.394 . S
C1960 C1966 1.465 . S
C1961 C1956 1.399 . S
C1961 C1960 1.394 . S
C1961 C1962 1.516 . S
C1962 C1961 1.516 . S
C1962 C1963 1.502 . S
C1962 C1964 1.561 . S
C1962 C1965 1.526 . S
C1963 H1947 0.959 . S
C1963 H1948 0.959 . S
C1963 H1949 0.961 . S
C1963 C1962 1.502 . S
C1964 H1950 0.960 . S
C1964 H1951 0.961 . S
C1964 H1952 0.959 . S
C1964 C1962 1.561 . S
C1965 C1962 1.526 . S
C1965 C1966 1.396 . S
C1965 C1970 1.390 . S
C1966 C1960 1.465 . S
C1966 C1965 1.396 . S
C1966 C1967 1.399 . S
C1967 H1953 0.929 . S
C1967 C1966 1.399 . S
C1967 C1968 1.385 . S
C1968 H1954 0.931 . S
C1968 C1967 1.385 . S
C1968 C1969 1.389 . S
C1969 C1968 1.389 . S
C1969 C1970 1.387 . S
C1970 H1955 0.930 . S
C1970 C1965 1.390 . S
C1970 C1969 1.387 . S
H1971 C1983 0.930 . S
H1972 C1985 0.930 . S
H1973 C1986 0.930 . S
H1974 C1990 0.959 . S
H1975 C1990 0.959 . S
H1976 C1990 0.961 . S
H1977 C1991 0.960 . S
H1978 C1991 0.961 . S
H1979 C1991 0.959 . S
H1980 C1994 0.929 . S
H1981 C1995 0.931 . S
H1982 C1997 0.930 . S
C1983 H1971 0.930 . S
C1983 C1984 1.399 . S
C1983 C1988 1.399 . S
C1984 C1983 1.399 . S
C1984 C1985 1.376 . S
C1985 H1972 0.930 . S
C1985 C1984 1.376 . S
C1985 C1986 1.388 . S
C1986 H1973 0.930 . S
C1986 C1985 1.388 . S
C1986 C1987 1.390 . S
C1987 C1986 1.390 . S
C1987 C1988 1.394 . S
C1987 C1993 1.465 . S
C1988 C1983 1.399 . S
C1988 C1987 1.394 . S
C1988 C1989 1.516 . S
C1989 C1988 1.516 . S
C1989 C1990 1.502 . S
C1989 C1991 1.561 . S
C1989 C1992 1.526 . S
C1990 H1974 0.959 . S
C1990 H1975 0.959 . S
C1990 H1976 0.961 . S
C1990 C1989 1.502 . S
C1991 H1977 0.960 . S
C1991 H1978 0.961 . S
C1991 H1979 0.959 . S
C1991 C1989 1.561 . S
C1992 C1989 1.526 . S
C1992 C1993 1.396 . S
C1992 C1997 1.390 . S
C1993 C1987 1.465 . S
C1993 C1992 1.396 . S
C1993 C1994 1.399 . S
C1994 H1980 0.929 . S
C1994 C1993 1.399 . S
C1994 C1995 1.385 . S
C1995 H1981 0.931 . S
C1995 C1994 1.385 . S
C1995 C1996 1.389 . S
C1996 C1995 1.389 . S
C1996 C1997 1.387 . S
C1997 H1982 0.930 . S
C1997 C1992 1.390 . S
C1997 C1996 1.387 . S
H1998 C2010 0.930 . S
H1999 C2012 0.930 . S
H2000 C2013 0.930 . S
H2001 C2017 0.959 . S
H2002 C2017 0.959 . S
H2003 C2017 0.961 . S
H2004 C2018 0.960 . S
H2005 C2018 0.961 . S
H2006 C2018 0.959 . S
H2007 C2021 0.929 . S
H2008 C2022 0.931 . S
H2009 C2024 0.930 . S
C2010 H1998 0.930 . S
C2010 C2011 1.399 . S
C2010 C2015 1.399 . S
C2011 C2010 1.399 . S
C2011 C2012 1.376 . S
C2012 H1999 0.930 . S
C2012 C2011 1.376 . S
C2012 C2013 1.388 . S
C2013 H2000 0.930 . S
C2013 C2012 1.388 . S
C2013 C2014 1.390 . S
C2014 C2013 1.390 . S
C2014 C2015 1.394 . S
C2014 C2020 1.465 . S
C2015 C2010 1.399 . S
C2015 C2014 1.394 . S
C2015 C2016 1.516 . S
C2016 C2015 1.516 . S
C2016 C2017 1.502 . S
C2016 C2018 1.561 . S
C2016 C2019 1.526 . S
C2017 H2001 0.959 . S
C2017 H2002 0.959 . S
C2017 H2003 0.961 . S
C2017 C2016 1.502 . S
C2018 H2004 0.960 . S
C2018 H2005 0.961 . S
C2018 H2006 0.959 . S
C2018 C2016 1.561 . S
C2019 C2016 1.526 . S
C2019 C2020 1.396 . S
C2019 C2024 1.390 . S
C2020 C2014 1.465 . S
C2020 C2019 1.396 . S
C2020 C2021 1.399 . S
C2021 H2007 0.929 . S
C2021 C2020 1.399 . S
C2021 C2022 1.385 . S
C2022 H2008 0.931 . S
C2022 C2021 1.385 . S
C2022 C2023 1.389 . S
C2023 C2022 1.389 . S
C2023 C2024 1.387 . S
C2024 H2009 0.930 . S
C2024 C2019 1.390 . S
C2024 C2023 1.387 . S
H2025 C2037 0.930 . S
H2026 C2039 0.930 . S
H2027 C2040 0.930 . S
H2028 C2044 0.959 . S
H2029 C2044 0.959 . S
H2030 C2044 0.961 . S
H2031 C2045 0.960 . S
H2032 C2045 0.961 . S
H2033 C2045 0.959 . S
H2034 C2048 0.929 . S
H2035 C2049 0.931 . S
H2036 C2051 0.930 . S
C2037 H2025 0.930 . S
C2037 C2038 1.399 . S
C2037 C2042 1.399 . S
C2038 C2037 1.399 . S
C2038 C2039 1.376 . S
C2039 H2026 0.930 . S
C2039 C2038 1.376 . S
C2039 C2040 1.388 . S
C2040 H2027 0.930 . S
C2040 C2039 1.388 . S
C2040 C2041 1.390 . S
C2041 C2040 1.390 . S
C2041 C2042 1.394 . S
C2041 C2047 1.465 . S
C2042 C2037 1.399 . S
C2042 C2041 1.394 . S
C2042 C2043 1.516 . S
C2043 C2042 1.516 . S
C2043 C2044 1.502 . S
C2043 C2045 1.561 . S
C2043 C2046 1.526 . S
C2044 H2028 0.959 . S
C2044 H2029 0.959 . S
C2044 H2030 0.961 . S
C2044 C2043 1.502 . S
C2045 H2031 0.960 . S
C2045 H2032 0.961 . S
C2045 H2033 0.959 . S
C2045 C2043 1.561 . S
C2046 C2043 1.526 . S
C2046 C2047 1.396 . S
C2046 C2051 1.390 . S
C2047 C2041 1.465 . S
C2047 C2046 1.396 . S
C2047 C2048 1.399 . S
C2048 H2034 0.929 . S
C2048 C2047 1.399 . S
C2048 C2049 1.385 . S
C2049 H2035 0.931 . S
C2049 C2048 1.385 . S
C2049 C2050 1.389 . S
C2050 C2049 1.389 . S
C2050 C2051 1.387 . S
C2051 H2036 0.930 . S
C2051 C2046 1.390 . S
C2051 C2050 1.387 . S
H2052 C2064 0.930 . S
H2053 C2066 0.930 . S
H2054 C2067 0.930 . S
H2055 C2071 0.959 . S
H2056 C2071 0.959 . S
H2057 C2071 0.961 . S
H2058 C2072 0.960 . S
H2059 C2072 0.961 . S
H2060 C2072 0.959 . S
H2061 C2075 0.929 . S
H2062 C2076 0.931 . S
H2063 C2078 0.930 . S
C2064 H2052 0.930 . S
C2064 C2065 1.399 . S
C2064 C2069 1.399 . S
C2065 C2064 1.399 . S
C2065 C2066 1.376 . S
C2066 H2053 0.930 . S
C2066 C2065 1.376 . S
C2066 C2067 1.388 . S
C2067 H2054 0.930 . S
C2067 C2066 1.388 . S
C2067 C2068 1.390 . S
C2068 C2067 1.390 . S
C2068 C2069 1.394 . S
C2068 C2074 1.465 . S
C2069 C2064 1.399 . S
C2069 C2068 1.394 . S
C2069 C2070 1.516 . S
C2070 C2069 1.516 . S
C2070 C2071 1.502 . S
C2070 C2072 1.561 . S
C2070 C2073 1.526 . S
C2071 H2055 0.959 . S
C2071 H2056 0.959 . S
C2071 H2057 0.961 . S
C2071 C2070 1.502 . S
C2072 H2058 0.960 . S
C2072 H2059 0.961 . S
C2072 H2060 0.959 . S
C2072 C2070 1.561 . S
C2073 C2070 1.526 . S
C2073 C2074 1.396 . S
C2073 C2078 1.390 . S
C2074 C2068 1.465 . S
C2074 C2073 1.396 . S
C2074 C2075 1.399 . S
C2075 H2061 0.929 . S
C2075 C2074 1.399 . S
C2075 C2076 1.385 . S
C2076 H2062 0.931 . S
C2076 C2075 1.385 . S
C2076 C2077 1.389 . S
C2077 C2076 1.389 . S
C2077 C2078 1.387 . S
C2078 H2063 0.930 . S
C2078 C2073 1.390 . S
C2078 C2077 1.387 . S
H2079 C2091 0.930 . S
H2080 C2093 0.930 . S
H2081 C2094 0.930 . S
H2082 C2098 0.959 . S
H2083 C2098 0.959 . S
H2084 C2098 0.961 . S
H2085 C2099 0.960 . S
H2086 C2099 0.961 . S
H2087 C2099 0.959 . S
H2088 C2102 0.929 . S
H2089 C2103 0.931 . S
H2090 C2105 0.930 . S
C2091 H2079 0.930 . S
C2091 C2092 1.399 . S
C2091 C2096 1.399 . S
C2092 C2091 1.399 . S
C2092 C2093 1.376 . S
C2093 H2080 0.930 . S
C2093 C2092 1.376 . S
C2093 C2094 1.388 . S
C2094 H2081 0.930 . S
C2094 C2093 1.388 . S
C2094 C2095 1.390 . S
C2095 C2094 1.390 . S
C2095 C2096 1.394 . S
C2095 C2101 1.465 . S
C2096 C2091 1.399 . S
C2096 C2095 1.394 . S
C2096 C2097 1.516 . S
C2097 C2096 1.516 . S
C2097 C2098 1.502 . S
C2097 C2099 1.561 . S
C2097 C2100 1.526 . S
C2098 H2082 0.959 . S
C2098 H2083 0.959 . S
C2098 H2084 0.961 . S
C2098 C2097 1.502 . S
C2099 H2085 0.960 . S
C2099 H2086 0.961 . S
C2099 H2087 0.959 . S
C2099 C2097 1.561 . S
C2100 C2097 1.526 . S
C2100 C2101 1.396 . S
C2100 C2105 1.390 . S
C2101 C2095 1.465 . S
C2101 C2100 1.396 . S
C2101 C2102 1.399 . S
C2102 H2088 0.929 . S
C2102 C2101 1.399 . S
C2102 C2103 1.385 . S
C2103 H2089 0.931 . S
C2103 C2102 1.385 . S
C2103 C2104 1.389 . S
C2104 C2103 1.389 . S
C2104 C2105 1.387 . S
C2105 H2090 0.930 . S
C2105 C2100 1.390 . S
C2105 C2104 1.387 . S
H2106 C2118 0.930 . S
H2107 C2120 0.930 . S
H2108 C2121 0.930 . S
H2109 C2125 0.959 . S
H2110 C2125 0.959 . S
H2111 C2125 0.961 . S
H2112 C2126 0.960 . S
H2113 C2126 0.961 . S
H2114 C2126 0.959 . S
H2115 C2129 0.929 . S
H2116 C2130 0.931 . S
H2117 C2132 0.930 . S
C2118 H2106 0.930 . S
C2118 C2119 1.399 . S
C2118 C2123 1.399 . S
C2119 C2118 1.399 . S
C2119 C2120 1.376 . S
C2120 H2107 0.930 . S
C2120 C2119 1.376 . S
C2120 C2121 1.388 . S
C2121 H2108 0.930 . S
C2121 C2120 1.388 . S
C2121 C2122 1.390 . S
C2122 C2121 1.390 . S
C2122 C2123 1.394 . S
C2122 C2128 1.465 . S
C2123 C2118 1.399 . S
C2123 C2122 1.394 . S
C2123 C2124 1.516 . S
C2124 C2123 1.516 . S
C2124 C2125 1.502 . S
C2124 C2126 1.561 . S
C2124 C2127 1.526 . S
C2125 H2109 0.959 . S
C2125 H2110 0.959 . S
C2125 H2111 0.961 . S
C2125 C2124 1.502 . S
C2126 H2112 0.960 . S
C2126 H2113 0.961 . S
C2126 H2114 0.959 . S
C2126 C2124 1.561 . S
C2127 C2124 1.526 . S
C2127 C2128 1.396 . S
C2127 C2132 1.390 . S
C2128 C2122 1.465 . S
C2128 C2127 1.396 . S
C2128 C2129 1.399 . S
C2129 H2115 0.929 . S
C2129 C2128 1.399 . S
C2129 C2130 1.385 . S
C2130 H2116 0.931 . S
C2130 C2129 1.385 . S
C2130 C2131 1.389 . S
C2131 C2130 1.389 . S
C2131 C2132 1.387 . S
C2132 H2117 0.930 . S
C2132 C2127 1.390 . S
C2132 C2131 1.387 . S
H2133 C2145 0.930 . S
H2134 C2147 0.930 . S
H2135 C2148 0.930 . S
H2136 C2152 0.959 . S
H2137 C2152 0.959 . S
H2138 C2152 0.961 . S
H2139 C2153 0.960 . S
H2140 C2153 0.961 . S
H2141 C2153 0.959 . S
H2142 C2156 0.929 . S
H2143 C2157 0.931 . S
H2144 C2159 0.930 . S
C2145 H2133 0.930 . S
C2145 C2146 1.399 . S
C2145 C2150 1.399 . S
C2146 C2145 1.399 . S
C2146 C2147 1.376 . S
C2147 H2134 0.930 . S
C2147 C2146 1.376 . S
C2147 C2148 1.388 . S
C2148 H2135 0.930 . S
C2148 C2147 1.388 . S
C2148 C2149 1.390 . S
C2149 C2148 1.390 . S
C2149 C2150 1.394 . S
C2149 C2155 1.465 . S
C2150 C2145 1.399 . S
C2150 C2149 1.394 . S
C2150 C2151 1.516 . S
C2151 C2150 1.516 . S
C2151 C2152 1.502 . S
C2151 C2153 1.561 . S
C2151 C2154 1.526 . S
C2152 H2136 0.959 . S
C2152 H2137 0.959 . S
C2152 H2138 0.961 . S
C2152 C2151 1.502 . S
C2153 H2139 0.960 . S
C2153 H2140 0.961 . S
C2153 H2141 0.959 . S
C2153 C2151 1.561 . S
C2154 C2151 1.526 . S
C2154 C2155 1.396 . S
C2154 C2159 1.390 . S
C2155 C2149 1.465 . S
C2155 C2154 1.396 . S
C2155 C2156 1.399 . S
C2156 H2142 0.929 . S
C2156 C2155 1.399 . S
C2156 C2157 1.385 . S
C2157 H2143 0.931 . S
C2157 C2156 1.385 . S
C2157 C2158 1.389 . S
C2158 C2157 1.389 . S
C2158 C2159 1.387 . S
C2159 H2144 0.930 . S
C2159 C2154 1.390 . S
C2159 C2158 1.387 . S
H2160 C2172 0.930 . S
H2161 C2174 0.930 . S
H2162 C2175 0.930 . S
H2163 C2179 0.959 . S
H2164 C2179 0.959 . S
H2165 C2179 0.961 . S
H2166 C2180 0.960 . S
H2167 C2180 0.961 . S
H2168 C2180 0.959 . S
H2169 C2183 0.929 . S
H2170 C2184 0.931 . S
H2171 C2186 0.930 . S
C2172 H2160 0.930 . S
C2172 C2173 1.399 . S
C2172 C2177 1.399 . S
C2173 C2172 1.399 . S
C2173 C2174 1.376 . S
C2174 H2161 0.930 . S
C2174 C2173 1.376 . S
C2174 C2175 1.388 . S
C2175 H2162 0.930 . S
C2175 C2174 1.388 . S
C2175 C2176 1.390 . S
C2176 C2175 1.390 . S
C2176 C2177 1.394 . S
C2176 C2182 1.465 . S
C2177 C2172 1.399 . S
C2177 C2176 1.394 . S
C2177 C2178 1.516 . S
C2178 C2177 1.516 . S
C2178 C2179 1.502 . S
C2178 C2180 1.561 . S
C2178 C2181 1.526 . S
C2179 H2163 0.959 . S
C2179 H2164 0.959 . S
C2179 H2165 0.961 . S
C2179 C2178 1.502 . S
C2180 H2166 0.960 . S
C2180 H2167 0.961 . S
C2180 H2168 0.959 . S
C2180 C2178 1.561 . S
C2181 C2178 1.526 . S
C2181 C2182 1.396 . S
C2181 C2186 1.390 . S
C2182 C2176 1.465 . S
C2182 C2181 1.396 . S
C2182 C2183 1.399 . S
C2183 H2169 0.929 . S
C2183 C2182 1.399 . S
C2183 C2184 1.385 . S
C2184 H2170 0.931 . S
C2184 C2183 1.385 . S
C2184 C2185 1.389 . S
C2185 C2184 1.389 . S
C2185 C2186 1.387 . S
C2186 H2171 0.930 . S
C2186 C2181 1.390 . S
C2186 C2185 1.387 . S
H2187 C2199 0.930 . S
H2188 C2201 0.930 . S
H2189 C2202 0.930 . S
H2190 C2206 0.959 . S
H2191 C2206 0.959 . S
H2192 C2206 0.961 . S
H2193 C2207 0.960 . S
H2194 C2207 0.961 . S
H2195 C2207 0.959 . S
H2196 C2210 0.929 . S
H2197 C2211 0.931 . S
H2198 C2213 0.930 . S
C2199 H2187 0.930 . S
C2199 C2200 1.399 . S
C2199 C2204 1.399 . S
C2200 C2199 1.399 . S
C2200 C2201 1.376 . S
C2201 H2188 0.930 . S
C2201 C2200 1.376 . S
C2201 C2202 1.388 . S
C2202 H2189 0.930 . S
C2202 C2201 1.388 . S
C2202 C2203 1.390 . S
C2203 C2202 1.390 . S
C2203 C2204 1.394 . S
C2203 C2209 1.465 . S
C2204 C2199 1.399 . S
C2204 C2203 1.394 . S
C2204 C2205 1.516 . S
C2205 C2204 1.516 . S
C2205 C2206 1.502 . S
C2205 C2207 1.561 . S
C2205 C2208 1.526 . S
C2206 H2190 0.959 . S
C2206 H2191 0.959 . S
C2206 H2192 0.961 . S
C2206 C2205 1.502 . S
C2207 H2193 0.960 . S
C2207 H2194 0.961 . S
C2207 H2195 0.959 . S
C2207 C2205 1.561 . S
C2208 C2205 1.526 . S
C2208 C2209 1.396 . S
C2208 C2213 1.390 . S
C2209 C2203 1.465 . S
C2209 C2208 1.396 . S
C2209 C2210 1.399 . S
C2210 H2196 0.929 . S
C2210 C2209 1.399 . S
C2210 C2211 1.385 . S
C2211 H2197 0.931 . S
C2211 C2210 1.385 . S
C2211 C2212 1.389 . S
C2212 C2211 1.389 . S
C2212 C2213 1.387 . S
C2213 H2198 0.930 . S
C2213 C2208 1.390 . S
C2213 C2212 1.387 . S
H2214 C2226 0.930 . S
H2215 C2228 0.930 . S
H2216 C2229 0.930 . S
H2217 C2233 0.959 . S
H2218 C2233 0.959 . S
H2219 C2233 0.961 . S
H2220 C2234 0.960 . S
H2221 C2234 0.961 . S
H2222 C2234 0.959 . S
H2223 C2237 0.929 . S
H2224 C2238 0.931 . S
H2225 C2240 0.930 . S
C2226 H2214 0.930 . S
C2226 C2227 1.399 . S
C2226 C2231 1.399 . S
C2227 C2226 1.399 . S
C2227 C2228 1.376 . S
C2228 H2215 0.930 . S
C2228 C2227 1.376 . S
C2228 C2229 1.388 . S
C2229 H2216 0.930 . S
C2229 C2228 1.388 . S
C2229 C2230 1.390 . S
C2230 C2229 1.390 . S
C2230 C2231 1.394 . S
C2230 C2236 1.465 . S
C2231 C2226 1.399 . S
C2231 C2230 1.394 . S
C2231 C2232 1.516 . S
C2232 C2231 1.516 . S
C2232 C2233 1.502 . S
C2232 C2234 1.561 . S
C2232 C2235 1.526 . S
C2233 H2217 0.959 . S
C2233 H2218 0.959 . S
C2233 H2219 0.961 . S
C2233 C2232 1.502 . S
C2234 H2220 0.960 . S
C2234 H2221 0.961 . S
C2234 H2222 0.959 . S
C2234 C2232 1.561 . S
C2235 C2232 1.526 . S
C2235 C2236 1.396 . S
C2235 C2240 1.390 . S
C2236 C2230 1.465 . S
C2236 C2235 1.396 . S
C2236 C2237 1.399 . S
C2237 H2223 0.929 . S
C2237 C2236 1.399 . S
C2237 C2238 1.385 . S
C2238 H2224 0.931 . S
C2238 C2237 1.385 . S
C2238 C2239 1.389 . S
C2239 C2238 1.389 . S
C2239 C2240 1.387 . S
C2240 H2225 0.930 . S
C2240 C2235 1.390 . S
C2240 C2239 1.387 . S
H2241 C2253 0.930 . S
H2242 C2255 0.930 . S
H2243 C2256 0.930 . S
H2244 C2260 0.959 . S
H2245 C2260 0.959 . S
H2246 C2260 0.961 . S
H2247 C2261 0.960 . S
H2248 C2261 0.961 . S
H2249 C2261 0.959 . S
H2250 C2264 0.929 . S
H2251 C2265 0.931 . S
H2252 C2267 0.930 . S
C2253 H2241 0.930 . S
C2253 C2254 1.399 . S
C2253 C2258 1.399 . S
C2254 C2253 1.399 . S
C2254 C2255 1.376 . S
C2255 H2242 0.930 . S
C2255 C2254 1.376 . S
C2255 C2256 1.388 . S
C2256 H2243 0.930 . S
C2256 C2255 1.388 . S
C2256 C2257 1.390 . S
C2257 C2256 1.390 . S
C2257 C2258 1.394 . S
C2257 C2263 1.465 . S
C2258 C2253 1.399 . S
C2258 C2257 1.394 . S
C2258 C2259 1.516 . S
C2259 C2258 1.516 . S
C2259 C2260 1.502 . S
C2259 C2261 1.561 . S
C2259 C2262 1.526 . S
C2260 H2244 0.959 . S
C2260 H2245 0.959 . S
C2260 H2246 0.961 . S
C2260 C2259 1.502 . S
C2261 H2247 0.960 . S
C2261 H2248 0.961 . S
C2261 H2249 0.959 . S
C2261 C2259 1.561 . S
C2262 C2259 1.526 . S
C2262 C2263 1.396 . S
C2262 C2267 1.390 . S
C2263 C2257 1.465 . S
C2263 C2262 1.396 . S
C2263 C2264 1.399 . S
C2264 H2250 0.929 . S
C2264 C2263 1.399 . S
C2264 C2265 1.385 . S
C2265 H2251 0.931 . S
C2265 C2264 1.385 . S
C2265 C2266 1.389 . S
C2266 C2265 1.389 . S
C2266 C2267 1.387 . S
C2267 H2252 0.930 . S
C2267 C2262 1.390 . S
C2267 C2266 1.387 . S
H2268 C2280 0.930 . S
H2269 C2282 0.930 . S
H2270 C2283 0.930 . S
H2271 C2287 0.959 . S
H2272 C2287 0.959 . S
H2273 C2287 0.961 . S
H2274 C2288 0.960 . S
H2275 C2288 0.961 . S
H2276 C2288 0.959 . S
H2277 C2291 0.929 . S
H2278 C2292 0.931 . S
H2279 C2294 0.930 . S
C2280 H2268 0.930 . S
C2280 C2281 1.399 . S
C2280 C2285 1.399 . S
C2281 C2280 1.399 . S
C2281 C2282 1.376 . S
C2282 H2269 0.930 . S
C2282 C2281 1.376 . S
C2282 C2283 1.388 . S
C2283 H2270 0.930 . S
C2283 C2282 1.388 . S
C2283 C2284 1.390 . S
C2284 C2283 1.390 . S
C2284 C2285 1.394 . S
C2284 C2290 1.465 . S
C2285 C2280 1.399 . S
C2285 C2284 1.394 . S
C2285 C2286 1.516 . S
C2286 C2285 1.516 . S
C2286 C2287 1.502 . S
C2286 C2288 1.561 . S
C2286 C2289 1.526 . S
C2287 H2271 0.959 . S
C2287 H2272 0.959 . S
C2287 H2273 0.961 . S
C2287 C2286 1.502 . S
C2288 H2274 0.960 . S
C2288 H2275 0.961 . S
C2288 H2276 0.959 . S
C2288 C2286 1.561 . S
C2289 C2286 1.526 . S
C2289 C2290 1.396 . S
C2289 C2294 1.390 . S
C2290 C2284 1.465 . S
C2290 C2289 1.396 . S
C2290 C2291 1.399 . S
C2291 H2277 0.929 . S
C2291 C2290 1.399 . S
C2291 C2292 1.385 . S
C2292 H2278 0.931 . S
C2292 C2291 1.385 . S
C2292 C2293 1.389 . S
C2293 C2292 1.389 . S
C2293 C2294 1.387 . S
C2294 H2279 0.930 . S
C2294 C2289 1.390 . S
C2294 C2293 1.387 . S
H2295 C2307 0.930 . S
H2296 C2309 0.930 . S
H2297 C2310 0.930 . S
H2298 C2314 0.959 . S
H2299 C2314 0.959 . S
H2300 C2314 0.961 . S
H2301 C2315 0.960 . S
H2302 C2315 0.961 . S
H2303 C2315 0.959 . S
H2304 C2318 0.929 . S
H2305 C2319 0.931 . S
H2306 C2321 0.930 . S
C2307 H2295 0.930 . S
C2307 C2308 1.399 . S
C2307 C2312 1.399 . S
C2308 C2307 1.399 . S
C2308 C2309 1.376 . S
C2309 H2296 0.930 . S
C2309 C2308 1.376 . S
C2309 C2310 1.388 . S
C2310 H2297 0.930 . S
C2310 C2309 1.388 . S
C2310 C2311 1.390 . S
C2311 C2310 1.390 . S
C2311 C2312 1.394 . S
C2311 C2317 1.465 . S
C2312 C2307 1.399 . S
C2312 C2311 1.394 . S
C2312 C2313 1.516 . S
C2313 C2312 1.516 . S
C2313 C2314 1.502 . S
C2313 C2315 1.561 . S
C2313 C2316 1.526 . S
C2314 H2298 0.959 . S
C2314 H2299 0.959 . S
C2314 H2300 0.961 . S
C2314 C2313 1.502 . S
C2315 H2301 0.960 . S
C2315 H2302 0.961 . S
C2315 H2303 0.959 . S
C2315 C2313 1.561 . S
C2316 C2313 1.526 . S
C2316 C2317 1.396 . S
C2316 C2321 1.390 . S
C2317 C2311 1.465 . S
C2317 C2316 1.396 . S
C2317 C2318 1.399 . S
C2318 H2304 0.929 . S
C2318 C2317 1.399 . S
C2318 C2319 1.385 . S
C2319 H2305 0.931 . S
C2319 C2318 1.385 . S
C2319 C2320 1.389 . S
C2320 C2319 1.389 . S
C2320 C2321 1.387 . S
C2321 H2306 0.930 . S
C2321 C2316 1.390 . S
C2321 C2320 1.387 . S
H2322 C2334 0.930 . S
H2323 C2336 0.930 . S
H2324 C2337 0.930 . S
H2325 C2341 0.959 . S
H2326 C2341 0.959 . S
H2327 C2341 0.961 . S
H2328 C2342 0.960 . S
H2329 C2342 0.961 . S
H2330 C2342 0.959 . S
H2331 C2345 0.929 . S
H2332 C2346 0.931 . S
H2333 C2348 0.930 . S
C2334 H2322 0.930 . S
C2334 C2335 1.399 . S
C2334 C2339 1.399 . S
C2335 C2334 1.399 . S
C2335 C2336 1.376 . S
C2336 H2323 0.930 . S
C2336 C2335 1.376 . S
C2336 C2337 1.388 . S
C2337 H2324 0.930 . S
C2337 C2336 1.388 . S
C2337 C2338 1.390 . S
C2338 C2337 1.390 . S
C2338 C2339 1.394 . S
C2338 C2344 1.465 . S
C2339 C2334 1.399 . S
C2339 C2338 1.394 . S
C2339 C2340 1.516 . S
C2340 C2339 1.516 . S
C2340 C2341 1.502 . S
C2340 C2342 1.561 . S
C2340 C2343 1.526 . S
C2341 H2325 0.959 . S
C2341 H2326 0.959 . S
C2341 H2327 0.961 . S
C2341 C2340 1.502 . S
C2342 H2328 0.960 . S
C2342 H2329 0.961 . S
C2342 H2330 0.959 . S
C2342 C2340 1.561 . S
C2343 C2340 1.526 . S
C2343 C2344 1.396 . S
C2343 C2348 1.390 . S
C2344 C2338 1.465 . S
C2344 C2343 1.396 . S
C2344 C2345 1.399 . S
C2345 H2331 0.929 . S
C2345 C2344 1.399 . S
C2345 C2346 1.385 . S
C2346 H2332 0.931 . S
C2346 C2345 1.385 . S
C2346 C2347 1.389 . S
C2347 C2346 1.389 . S
C2347 C2348 1.387 . S
C2348 H2333 0.930 . S
C2348 C2343 1.390 . S
C2348 C2347 1.387 . S
H2349 C2361 0.930 . S
H2350 C2363 0.930 . S
H2351 C2364 0.930 . S
H2352 C2368 0.959 . S
H2353 C2368 0.959 . S
H2354 C2368 0.961 . S
H2355 C2369 0.960 . S
H2356 C2369 0.961 . S
H2357 C2369 0.959 . S
H2358 C2372 0.929 . S
H2359 C2373 0.931 . S
H2360 C2375 0.930 . S
C2361 H2349 0.930 . S
C2361 C2362 1.399 . S
C2361 C2366 1.399 . S
C2362 C2361 1.399 . S
C2362 C2363 1.376 . S
C2363 H2350 0.930 . S
C2363 C2362 1.376 . S
C2363 C2364 1.388 . S
C2364 H2351 0.930 . S
C2364 C2363 1.388 . S
C2364 C2365 1.390 . S
C2365 C2364 1.390 . S
C2365 C2366 1.394 . S
C2365 C2371 1.465 . S
C2366 C2361 1.399 . S
C2366 C2365 1.394 . S
C2366 C2367 1.516 . S
C2367 C2366 1.516 . S
C2367 C2368 1.502 . S
C2367 C2369 1.561 . S
C2367 C2370 1.526 . S
C2368 H2352 0.959 . S
C2368 H2353 0.959 . S
C2368 H2354 0.961 . S
C2368 C2367 1.502 . S
C2369 H2355 0.960 . S
C2369 H2356 0.961 . S
C2369 H2357 0.959 . S
C2369 C2367 1.561 . S
C2370 C2367 1.526 . S
C2370 C2371 1.396 . S
C2370 C2375 1.390 . S
C2371 C2365 1.465 . S
C2371 C2370 1.396 . S
C2371 C2372 1.399 . S
C2372 H2358 0.929 . S
C2372 C2371 1.399 . S
C2372 C2373 1.385 . S
C2373 H2359 0.931 . S
C2373 C2372 1.385 . S
C2373 C2374 1.389 . S
C2374 C2373 1.389 . S
C2374 C2375 1.387 . S
C2375 H2360 0.930 . S
C2375 C2370 1.390 . S
C2375 C2374 1.387 . S
H2376 C2388 0.930 . S
H2377 C2390 0.930 . S
H2378 C2391 0.930 . S
H2379 C2395 0.959 . S
H2380 C2395 0.959 . S
H2381 C2395 0.961 . S
H2382 C2396 0.960 . S
H2383 C2396 0.961 . S
H2384 C2396 0.959 . S
H2385 C2399 0.929 . S
H2386 C2400 0.931 . S
H2387 C2402 0.930 . S
C2388 H2376 0.930 . S
C2388 C2389 1.399 . S
C2388 C2393 1.399 . S
C2389 C2388 1.399 . S
C2389 C2390 1.376 . S
C2390 H2377 0.930 . S
C2390 C2389 1.376 . S
C2390 C2391 1.388 . S
C2391 H2378 0.930 . S
C2391 C2390 1.388 . S
C2391 C2392 1.390 . S
C2392 C2391 1.390 . S
C2392 C2393 1.394 . S
C2392 C2398 1.465 . S
C2393 C2388 1.399 . S
C2393 C2392 1.394 . S
C2393 C2394 1.516 . S
C2394 C2393 1.516 . S
C2394 C2395 1.502 . S
C2394 C2396 1.561 . S
C2394 C2397 1.526 . S
C2395 H2379 0.959 . S
C2395 H2380 0.959 . S
C2395 H2381 0.961 . S
C2395 C2394 1.502 . S
C2396 H2382 0.960 . S
C2396 H2383 0.961 . S
C2396 H2384 0.959 . S
C2396 C2394 1.561 . S
C2397 C2394 1.526 . S
C2397 C2398 1.396 . S
C2397 C2402 1.390 . S
C2398 C2392 1.465 . S
C2398 C2397 1.396 . S
C2398 C2399 1.399 . S
C2399 H2385 0.929 . S
C2399 C2398 1.399 . S
C2399 C2400 1.385 . S
C2400 H2386 0.931 . S
C2400 C2399 1.385 . S
C2400 C2401 1.389 . S
C2401 C2400 1.389 . S
C2401 C2402 1.387 . S
C2402 H2387 0.930 . S
C2402 C2397 1.390 . S
C2402 C2401 1.387 . S
H2403 C2415 0.930 . S
H2404 C2417 0.930 . S
H2405 C2418 0.930 . S
H2406 C2422 0.959 . S
H2407 C2422 0.959 . S
H2408 C2422 0.961 . S
H2409 C2423 0.960 . S
H2410 C2423 0.961 . S
H2411 C2423 0.959 . S
H2412 C2426 0.929 . S
H2413 C2427 0.931 . S
H2414 C2429 0.930 . S
C2415 H2403 0.930 . S
C2415 C2416 1.399 . S
C2415 C2420 1.399 . S
C2416 C2415 1.399 . S
C2416 C2417 1.376 . S
C2417 H2404 0.930 . S
C2417 C2416 1.376 . S
C2417 C2418 1.388 . S
C2418 H2405 0.930 . S
C2418 C2417 1.388 . S
C2418 C2419 1.390 . S
C2419 C2418 1.390 . S
C2419 C2420 1.394 . S
C2419 C2425 1.465 . S
C2420 C2415 1.399 . S
C2420 C2419 1.394 . S
C2420 C2421 1.516 . S
C2421 C2420 1.516 . S
C2421 C2422 1.502 . S
C2421 C2423 1.561 . S
C2421 C2424 1.526 . S
C2422 H2406 0.959 . S
C2422 H2407 0.959 . S
C2422 H2408 0.961 . S
C2422 C2421 1.502 . S
C2423 H2409 0.960 . S
C2423 H2410 0.961 . S
C2423 H2411 0.959 . S
C2423 C2421 1.561 . S
C2424 C2421 1.526 . S
C2424 C2425 1.396 . S
C2424 C2429 1.390 . S
C2425 C2419 1.465 . S
C2425 C2424 1.396 . S
C2425 C2426 1.399 . S
C2426 H2412 0.929 . S
C2426 C2425 1.399 . S
C2426 C2427 1.385 . S
C2427 H2413 0.931 . S
C2427 C2426 1.385 . S
C2427 C2428 1.389 . S
C2428 C2427 1.389 . S
C2428 C2429 1.387 . S
C2429 H2414 0.930 . S
C2429 C2424 1.390 . S
C2429 C2428 1.387 . S
C985 C162 1.458 . S
C997 C283 1.432 . S
C1012 C174 1.472 . S
C1024 C367 1.407 . S
C1039 C150 1.426 . S
C1051 C447 1.439 . S
C1066 C138 1.407 . S
C1078 C363 1.422 1_556 S
C1105 C451 1.377 . S
C1093 C114 1.423 . S
C1120 C126 1.414 . S
C1132 C279 1.392 1_556 S
C1159 C272 1.409 . S
C1147 C136 1.466 . S
C1186 C356 1.435 . S
C1174 C112 1.502 . S
C1201 C124 1.483 . S
C1213 C458 1.505 1_556 S
C1228 C160 1.496 . S
C1240 C374 1.418 . S
C1255 C172 1.476 . S
C1267 C440 1.421 . S
C1294 C290 1.411 . S
C1282 C148 1.485 . S
C1321 C535 1.354 . S
C1309 C18 1.433 . S
C1336 C30 1.476 . S
C1348 C619 1.418 . S
C1363 C6 1.426 . S
C1375 C699 1.435 . S
C1390 C210 1.435 . S
C1402 C615 1.410 . S
C1417 C186 1.425 . S
C1429 C703 1.383 . S
C1444 C198 1.388 . S
C1456 C531 1.407 . S
C1471 C208 1.504 . S
C1483 C524 1.476 . S
C1498 C184 1.508 . S
C1510 C608 1.470 . S
C1537 C710 1.503 . S
C1525 C196 1.482 . S
C1552 C16 1.452 . S
C1564 C626 1.463 . S
C1591 C692 1.382 . S
C1579 C28 1.455 . S
C1606 C4 1.486 . S
C1618 C542 1.416 . S
C1645 C787 1.366 . S
C1633 C90 1.435 . S
C1660 C102 1.479 . S
C1672 C871 1.428 . S
C1699 C951 1.430 . S
C1687 C78 1.455 . S
C1726 C867 1.411 . S
C1714 C66 1.408 . S
C1753 C955 1.368 . S
C1741 C42 1.433 . S
C1768 C54 1.388 . S
C1780 C783 1.386 . S
C1795 C64 1.467 . S
C1807 C776 1.412 . S
C1822 C40 1.508 . S
C1834 C860 1.444 . S
C1861 C962 1.454 . S
C1849 C52 1.531 . S
C1876 C88 1.470 . S
C1888 C878 1.486 . S
C1903 C100 1.460 . S
C1915 C944 1.419 . S
C1930 C76 1.482 . S
C1942 C794 1.402 . S
C1957 C189 1.543 . S
C1969 C286 1.393 . S
C1996 C370 1.481 . S
C1984 C201 1.606 . S
C2011 C213 1.574 . S
C2023 C442 1.323 . S
C2038 C81 1.587 . S
C2050 C358 1.462 . S
C2065 C93 1.564 . S
C2077 C454 1.425 . S
C2104 C274 1.416 . S
C2092 C105 1.545 . S
C2119 C45 1.581 . S
C2131 C538 1.473 . S
C2146 C57 1.640 . S
C2158 C622 1.515 . S
C2173 C69 1.580 . S
C2185 C694 1.437 . S
C2200 C153 1.594 . S
C2212 C610 1.330 . S
C2239 C706 1.500 . S
C2227 C165 1.586 . S
C2254 C177 1.520 . S
C2266 C526 1.413 . S
C2281 C117 1.544 . S
C2293 C790 1.392 . S
C2308 C129 1.604 . S
C2320 C874 1.465 . S
C2347 C946 1.448 . S
C2335 C141 1.575 . S
C2362 C9 1.581 . S
C2374 C862 1.456 . S
C2389 C21 1.564 . S
C2401 C958 1.423 . S
C2416 C33 1.542 . S
C2428 C778 1.423 . S
