# Generated by pormake.
# Topology dag, (6,3)-cn, num edge types: 1
# Building blocks:
#     Node 0, Type 0, BuildingBlock: IZENUY_clean_sbu_0, # of connection points: 6
#     Node 1, Type 0, BuildingBlock: IZENUY_clean_sbu_0, # of connection points: 6
#     Node 2, Type 0, BuildingBlock: IZENUY_clean_sbu_0, # of connection points: 6
#     Node 3, Type 0, BuildingBlock: IZENUY_clean_sbu_0, # of connection points: 6
#     Node 4, Type 1, BuildingBlock: BETDAH_clean_linker_0, # of connection points: 3
#     Node 5, Type 1, BuildingBlock: BETDAH_clean_linker_0, # of connection points: 3
#     Node 6, Type 1, BuildingBlock: BETDAH_clean_linker_0, # of connection points: 3
#     Node 7, Type 1, BuildingBlock: BETDAH_clean_linker_0, # of connection points: 3
#     Node 8, Type 1, BuildingBlock: BETDAH_clean_linker_0, # of connection points: 3
#     Node 9, Type 1, BuildingBlock: BETDAH_clean_linker_0, # of connection points: 3
#     Node 10, Type 1, BuildingBlock: BETDAH_clean_linker_0, # of connection points: 3
#     Node 11, Type 1, BuildingBlock: BETDAH_clean_linker_0, # of connection points: 3
#     Edge 12, Type (0, 1), BuildingBlock: XUDNAN_clean_linker_2, # of connection points: 2
#     Edge 13, Type (0, 1), BuildingBlock: XUDNAN_clean_linker_2, # of connection points: 2
#     Edge 14, Type (0, 1), BuildingBlock: XUDNAN_clean_linker_2, # of connection points: 2
#     Edge 15, Type (0, 1), BuildingBlock: XUDNAN_clean_linker_2, # of connection points: 2
#     Edge 16, Type (0, 1), BuildingBlock: XUDNAN_clean_linker_2, # of connection points: 2
#     Edge 17, Type (0, 1), BuildingBlock: XUDNAN_clean_linker_2, # of connection points: 2
#     Edge 18, Type (0, 1), BuildingBlock: XUDNAN_clean_linker_2, # of connection points: 2
#     Edge 19, Type (0, 1), BuildingBlock: XUDNAN_clean_linker_2, # of connection points: 2
#     Edge 20, Type (0, 1), BuildingBlock: XUDNAN_clean_linker_2, # of connection points: 2
#     Edge 21, Type (0, 1), BuildingBlock: XUDNAN_clean_linker_2, # of connection points: 2
#     Edge 22, Type (0, 1), BuildingBlock: XUDNAN_clean_linker_2, # of connection points: 2
#     Edge 23, Type (0, 1), BuildingBlock: XUDNAN_clean_linker_2, # of connection points: 2
#     Edge 24, Type (0, 1), BuildingBlock: XUDNAN_clean_linker_2, # of connection points: 2
#     Edge 25, Type (0, 1), BuildingBlock: XUDNAN_clean_linker_2, # of connection points: 2
#     Edge 26, Type (0, 1), BuildingBlock: XUDNAN_clean_linker_2, # of connection points: 2
#     Edge 27, Type (0, 1), BuildingBlock: XUDNAN_clean_linker_2, # of connection points: 2
#     Edge 28, Type (0, 1), BuildingBlock: XUDNAN_clean_linker_2, # of connection points: 2
#     Edge 29, Type (0, 1), BuildingBlock: XUDNAN_clean_linker_2, # of connection points: 2
#     Edge 30, Type (0, 1), BuildingBlock: XUDNAN_clean_linker_2, # of connection points: 2
#     Edge 31, Type (0, 1), BuildingBlock: XUDNAN_clean_linker_2, # of connection points: 2
#     Edge 32, Type (0, 1), BuildingBlock: XUDNAN_clean_linker_2, # of connection points: 2
#     Edge 33, Type (0, 1), BuildingBlock: XUDNAN_clean_linker_2, # of connection points: 2
#     Edge 34, Type (0, 1), BuildingBlock: XUDNAN_clean_linker_2, # of connection points: 2
#     Edge 35, Type (0, 1), BuildingBlock: XUDNAN_clean_linker_2, # of connection points: 2
# Relax obj value: 0.094
# Max RMSD: 0.103
# Mean RMSD: 0.088
data_MOF--net-dag--node1-IZENUY_clean_sbu_0--node2-BETDAH_clean_linker_0--edge1-XUDNAN_clean_linker_2
_symmetry_space_group_name_H-M    P1
_symmetry_Int_Tables_number       1
_symmetry_cell_setting            triclinic
loop_
_symmetry_equiv_pos_as_xyz
'x, y, z'
_cell_length_a     38.645925
_cell_length_b     41.03342
_cell_length_c     35.511974
_cell_angle_alpha  93.794175
_cell_angle_beta   90.139182
_cell_angle_gamma 89.978173
loop_
_atom_site_label
_atom_site_type_symbol
_atom_site_fract_x
_atom_site_fract_y
_atom_site_fract_z
_atom_type_partial_charge
Fe0 Fe 0.20751 0.86342 0.06839 0.0
Fe1 Fe 0.13347 0.88875 0.06085 0.0
O2 O 0.16286 0.85567 0.05968 0.0
Fe3 Fe 0.14786 0.81518 0.05 0.0
O4 O 0.17899 0.79716 0.08214 0.0
O5 O 0.20695 0.83935 0.10914 0.0
O6 O 0.20017 0.89978 0.10102 0.0
C7 C 0.17394 0.90783 0.12089 0.0
C8 C 0.20864 0.81223 0.01068 0.0
O9 O 0.144 0.89986 0.10974 0.0
C10 C 0.11009 0.8521 0.99888 0.0
O11 O 0.2106 0.88819 0.02795 0.0
O12 O 0.16485 0.91783 0.04375 0.0
O13 O 0.17628 0.8092 0.00983 0.0
O14 O 0.22333 0.82854 0.0377 0.0
C15 C 0.09466 0.83956 0.09398 0.0
O16 O 0.12078 0.87956 0.01219 0.0
O17 O 0.11444 0.82643 0.0163 0.0
C18 C 0.1925 0.91349 0.02498 0.0
O19 O 0.09672 0.86601 0.07787 0.0
O20 O 0.11763 0.81789 0.08917 0.0
C21 C 0.19705 0.81006 0.1091 0.0
Fe22 Fe 0.67096 0.66802 0.48027 0.0
Fe23 Fe 0.60723 0.71216 0.49622 0.0
O24 O 0.62602 0.67265 0.48936 0.0
Fe25 Fe 0.59965 0.63769 0.492 0.0
O26 O 0.62447 0.62398 0.53112 0.0
O27 O 0.67567 0.63071 0.50595 0.0
O28 O 0.68193 0.69071 0.52409 0.0
C29 C 0.67181 0.71915 0.53413 0.0
C30 C 0.6454 0.619 0.43219 0.0
O31 O 0.64584 0.73149 0.5185 0.0
C32 C 0.55689 0.67584 0.45263 0.0
O33 O 0.67407 0.70457 0.4531 0.0
O34 O 0.62055 0.72269 0.44977 0.0
O35 O 0.62437 0.61207 0.45764 0.0
O36 O 0.66357 0.64455 0.4357 0.0
C37 C 0.57408 0.68036 0.55096 0.0
O38 O 0.56512 0.70005 0.47496 0.0
O39 O 0.57329 0.64932 0.45305 0.0
C40 C 0.65111 0.72119 0.4374 0.0
O41 O 0.59267 0.70431 0.54344 0.0
O42 O 0.56983 0.65653 0.52698 0.0
C43 C 0.65662 0.61887 0.53067 0.0
Fe44 Fe 0.86138 0.18582 0.98877 0.0
Fe45 Fe 0.86619 0.1125 0.99785 0.0
O46 O 0.84112 0.14726 0.98978 0.0
Fe47 Fe 0.79587 0.14343 0.98243 0.0
O48 O 0.79304 0.17676 0.95009 0.0
O49 O 0.84743 0.18955 0.94059 0.0
O50 O 0.90243 0.1698 0.96946 0.0
C51 C 0.90923 0.14318 0.95091 0.0
C52 C 0.79868 0.19997 0.02748 0.0
O53 O 0.89221 0.11771 0.95623 0.0
C54 C 0.80975 0.09912 0.03934 0.0
O55 O 0.87693 0.18429 0.03696 0.0
O56 O 0.89755 0.13442 0.02895 0.0
O57 O 0.7871 0.17115 0.02336 0.0
O58 O 0.82393 0.20887 0.00792 0.0
C59 C 0.81865 0.08895 0.94173 0.0
O60 O 0.84173 0.10509 0.03974 0.0
O61 O 0.79063 0.10925 0.0134 0.0
C62 C 0.89548 0.16149 0.04811 0.0
O63 O 0.83934 0.0842 0.96847 0.0
O64 O 0.80203 0.1154 0.94089 0.0
C65 C 0.8163 0.18869 0.92997 0.0
Fe66 Fe 0.39101 0.36583 0.56622 0.0
Fe67 Fe 0.31982 0.3351 0.57677 0.0
O68 O 0.36479 0.3307 0.56837 0.0
Fe69 Fe 0.38412 0.29146 0.5624 0.0
O70 O 0.42546 0.30447 0.5847 0.0
O71 O 0.41566 0.35491 0.60703 0.0
O72 O 0.3646 0.39232 0.59782 0.0
C73 C 0.34354 0.38586 0.62329 0.0
C74 C 0.42009 0.32243 0.50983 0.0
O75 O 0.32681 0.35946 0.6211 0.0
C76 C 0.31981 0.28302 0.52397 0.0
O77 O 0.36763 0.37851 0.52567 0.0
O78 O 0.31553 0.37152 0.54936 0.0
O79 O 0.39972 0.29926 0.51545 0.0
O80 O 0.42265 0.34652 0.53374 0.0
C81 C 0.33976 0.28327 0.62125 0.0
O82 O 0.30918 0.31138 0.53354 0.0
O83 O 0.34624 0.27142 0.53948 0.0
C84 C 0.33531 0.38288 0.52492 0.0
O85 O 0.3167 0.29935 0.60507 0.0
O86 O 0.37018 0.28118 0.60863 0.0
C87 C 0.43199 0.32837 0.60813 0.0
H88 H 0.09198 0.10781 0.20534 0.0
H89 H 0.15068 0.12452 0.30785 0.0
H90 H 0.06697 0.1889 0.28368 0.0
C91 C 0.09694 0.12233 0.2314 0.0
C92 C 0.07618 0.14971 0.24114 0.0
C93 C 0.12351 0.1128 0.25545 0.0
C94 C 0.13034 0.13179 0.28909 0.0
C95 C 0.11023 0.15969 0.29876 0.0
C96 C 0.08299 0.16803 0.27515 0.0
N97 N 0.11555 0.17932 0.33269 0.0
C98 C 0.14675 0.18219 0.35218 0.0
H99 H 0.40914 0.59083 0.72055 0.0
H100 H 0.43325 0.66431 0.80878 0.0
H101 H 0.3599 0.58917 0.82905 0.0
C102 C 0.40518 0.60144 0.74891 0.0
C103 C 0.38217 0.58627 0.77299 0.0
C104 C 0.42379 0.62967 0.76118 0.0
C105 C 0.41867 0.64309 0.79819 0.0
C106 C 0.39545 0.62864 0.82233 0.0
C107 C 0.37739 0.60029 0.80984 0.0
N108 N 0.39233 0.64127 0.86017 0.0
C109 C 0.36682 0.66378 0.87095 0.0
H110 H 0.8591 0.8988 0.13954 0.0
H111 H 0.8332 0.80472 0.17861 0.0
H112 H 0.75407 0.8765 0.16875 0.0
C113 C 0.84052 0.88246 0.15106 0.0
C114 C 0.80568 0.89233 0.15449 0.0
C115 C 0.85124 0.85111 0.16021 0.0
C116 C 0.82609 0.82916 0.17176 0.0
C117 C 0.79129 0.8383 0.17445 0.0
C118 C 0.78116 0.8699 0.16649 0.0
N119 N 0.76618 0.81431 0.18093 0.0
C120 C 0.74921 0.81315 0.21515 0.0
H121 H 0.64474 0.4237 0.66209 0.0
H122 H 0.68356 0.3549 0.73809 0.0
H123 H 0.74299 0.44049 0.71691 0.0
C124 C 0.66479 0.4161 0.68105 0.0
C125 C 0.6943 0.4356 0.68716 0.0
C126 C 0.66068 0.38701 0.69925 0.0
C127 C 0.6867 0.37724 0.72383 0.0
C128 C 0.71663 0.39651 0.7299 0.0
C129 C 0.72009 0.4256 0.71172 0.0
N130 N 0.74363 0.38775 0.75439 0.0
C131 C 0.74818 0.35675 0.7671 0.0
H132 H 0.59466 0.40834 0.34545 0.0
H133 H 0.6859 0.38905 0.27738 0.0
H134 H 0.62383 0.30998 0.3124 0.0
C135 C 0.61166 0.39169 0.32945 0.0
C136 C 0.60489 0.3581 0.32937 0.0
C137 C 0.64074 0.40365 0.31078 0.0
C138 C 0.66301 0.38089 0.29153 0.0
C139 C 0.6568 0.34716 0.29236 0.0
C140 C 0.6278 0.33603 0.31105 0.0
N141 N 0.68172 0.3239 0.27928 0.0
C142 C 0.69332 0.32064 0.24233 0.0
H143 H 0.14883 0.08908 0.88753 0.0
H144 H 0.15583 0.19085 0.86584 0.0
H145 H 0.24623 0.13902 0.8996 0.0
C146 C 0.16417 0.11084 0.88427 0.0
C147 C 0.19941 0.11047 0.89351 0.0
C148 C 0.14804 0.13962 0.87416 0.0
C149 C 0.1679 0.16817 0.87281 0.0
C150 C 0.20337 0.16773 0.88115 0.0
C151 C 0.21918 0.13887 0.89145 0.0
N152 N 0.22255 0.19699 0.88173 0.0
C153 C 0.24304 0.20359 0.85126 0.0
H154 H 0.35154 0.57618 0.3853 0.0
H155 H 0.30598 0.64954 0.32016 0.0
H156 H 0.24457 0.56846 0.352 0.0
C157 C 0.3293 0.58553 0.37086 0.0
C158 C 0.29777 0.56851 0.37107 0.0
C159 C 0.33242 0.61493 0.35304 0.0
C160 C 0.30365 0.62694 0.33406 0.0
C161 C 0.27206 0.60971 0.33315 0.0
C162 C 0.26929 0.58089 0.35195 0.0
N163 N 0.24238 0.62076 0.31407 0.0
C164 C 0.24222 0.6477 0.29241 0.0
H165 H 0.91161 0.90595 0.8383 0.0
H166 H 0.92773 0.8131 0.7771 0.0
H167 H 0.83689 0.86981 0.75627 0.0
C168 C 0.90322 0.88678 0.81788 0.0
C169 C 0.87161 0.89053 0.79905 0.0
C170 C 0.92386 0.85892 0.81071 0.0
C171 C 0.91281 0.8352 0.78288 0.0
C172 C 0.88194 0.83904 0.76278 0.0
C173 C 0.86118 0.86686 0.77094 0.0
N174 N 0.8727 0.81395 0.73515 0.0
C175 C 0.84204 0.81233 0.71457 0.0
H176 H 0.18559 0.97123 0.11014 0.0
H177 H 0.16497 0.90451 0.1967 0.0
H178 H 0.16005 0.95138 0.24433 0.0
H179 H 0.231 0.03752 0.17069 0.0
H180 H 0.20994 0.06842 0.14501 0.0
H181 H 0.22014 0.02922 0.12168 0.0
H182 H 0.15456 0.02286 0.10235 0.0
H183 H 0.14574 0.06188 0.12638 0.0
H184 H 0.12229 0.02622 0.13889 0.0
H185 H 0.15041 0.00569 0.28037 0.0
H186 H 0.13135 0.06178 0.3003 0.0
H187 H 0.15458 0.09272 0.18883 0.0
C188 C 0.18144 0.96661 0.13947 0.0
C189 C 0.17673 0.93453 0.15033 0.0
C190 C 0.16954 0.92907 0.18836 0.0
C191 C 0.16676 0.9555 0.21546 0.0
C192 C 0.1708 0.98712 0.20376 0.0
C193 C 0.17782 0.99272 0.16654 0.0
C194 C 0.17579 0.02872 0.15986 0.0
C195 C 0.21132 0.04175 0.14864 0.0
C196 C 0.14796 0.0353 0.13013 0.0
C197 C 0.16537 0.04249 0.19877 0.0
C198 C 0.16353 0.01828 0.22399 0.0
C199 C 0.15229 0.0249 0.26102 0.0
C200 C 0.14167 0.05683 0.27217 0.0
C201 C 0.14176 0.08151 0.24616 0.0
C202 C 0.15462 0.07434 0.20936 0.0
H203 H 0.5509 0.62745 0.58536 0.0
H204 H 0.55388 0.7333 0.59763 0.0
H205 H 0.51817 0.73225 0.65552 0.0
H206 H 0.46473 0.61749 0.61333 0.0
H207 H 0.47296 0.58139 0.63822 0.0
H208 H 0.50012 0.59077 0.59931 0.0
H209 H 0.55407 0.58872 0.64208 0.0
H210 H 0.52738 0.5795 0.68149 0.0
H211 H 0.55612 0.61415 0.68544 0.0
H212 H 0.47726 0.71898 0.70888 0.0
H213 H 0.43794 0.69499 0.75435 0.0
H214 H 0.46654 0.59786 0.70887 0.0
C215 C 0.54422 0.65046 0.60031 0.0
C216 C 0.55485 0.68049 0.5869 0.0
C217 C 0.54597 0.71003 0.60749 0.0
C218 C 0.52569 0.70964 0.64032 0.0
C219 C 0.51513 0.67951 0.6524 0.0
C220 C 0.52454 0.65047 0.63319 0.0
C221 C 0.50962 0.62132 0.65136 0.0
C222 C 0.48542 0.6016 0.62392 0.0
C223 C 0.53853 0.59966 0.66599 0.0
C224 C 0.48965 0.63842 0.68344 0.0
C225 C 0.49298 0.67195 0.68364 0.0
C226 C 0.47497 0.69273 0.70935 0.0
C227 C 0.45279 0.67884 0.73523 0.0
C228 C 0.4489 0.64445 0.73535 0.0
C229 C 0.46827 0.62421 0.7094 0.0
H230 H 0.84403 0.07167 0.09694 0.0
H231 H 0.74729 0.06713 0.03444 0.0
H232 H 0.73173 0.01674 0.06468 0.0
H233 H 0.86329 0.99133 0.08531 0.0
H234 H 0.88186 0.98702 0.13132 0.0
H235 H 0.88244 0.02607 0.11125 0.0
H236 H 0.85081 0.05246 0.16975 0.0
H237 H 0.85054 0.01353 0.1905 0.0
H238 H 0.81056 0.0353 0.18468 0.0
H239 H 0.73186 0.96188 0.09221 0.0
H240 H 0.74616 0.90894 0.11728 0.0
H241 H 0.84167 0.95021 0.16415 0.0
C242 C 0.81901 0.06075 0.09053 0.0
C243 C 0.79687 0.07346 0.06331 0.0
C244 C 0.76459 0.05809 0.0554 0.0
C245 C 0.75553 0.02937 0.07242 0.0
C246 C 0.77875 0.01663 0.09774 0.0
C247 C 0.80958 0.03217 0.10729 0.0
C248 C 0.83158 0.01192 0.13229 0.0
C249 C 0.86685 0.0036 0.11392 0.0
C250 C 0.83612 0.02934 0.17165 0.0
C251 C 0.80907 0.98186 0.13383 0.0
C252 C 0.77853 0.98516 0.11415 0.0
C253 C 0.75524 0.95935 0.1086 0.0
C254 C 0.76357 0.92931 0.12314 0.0
C255 C 0.79501 0.92523 0.14299 0.0
C256 C 0.81749 0.95229 0.14904 0.0
H257 H 0.49548 0.33503 0.57871 0.0
H258 H 0.4415 0.32478 0.68389 0.0
H259 H 0.49722 0.33049 0.71882 0.0
H260 H 0.57767 0.29505 0.60195 0.0
H261 H 0.60305 0.32455 0.57865 0.0
H262 H 0.56 0.31448 0.56208 0.0
H263 H 0.54219 0.37611 0.57012 0.0
H264 H 0.58577 0.3855 0.585 0.0
H265 H 0.54988 0.39829 0.61476 0.0
H266 H 0.55816 0.34252 0.74221 0.0
H267 H 0.61735 0.36454 0.75266 0.0
H268 H 0.63038 0.36847 0.63187 0.0
C269 C 0.49572 0.33311 0.609 0.0
C270 C 0.46477 0.3288 0.62884 0.0
C271 C 0.46535 0.32757 0.66848 0.0
C272 C 0.49679 0.33067 0.68836 0.0
C273 C 0.52709 0.33527 0.66802 0.0
C274 C 0.52667 0.33673 0.6292 0.0
C275 C 0.56171 0.34592 0.61434 0.0
C276 C 0.57648 0.31834 0.58768 0.0
C277 C 0.55978 0.37836 0.59492 0.0
C278 C 0.58195 0.34976 0.65084 0.0
C279 C 0.56177 0.34309 0.6815 0.0
C280 C 0.57433 0.34735 0.71837 0.0
C281 C 0.60799 0.3597 0.72407 0.0
C282 C 0.62834 0.36803 0.69306 0.0
C283 C 0.6154 0.36207 0.65604 0.0
H284 H 0.59792 0.58106 0.39405 0.0
H285 H 0.70813 0.59897 0.40339 0.0
H286 H 0.71941 0.54857 0.36292 0.0
H287 H 0.59935 0.5003 0.40281 0.0
H288 H 0.5659 0.48901 0.36897 0.0
H289 H 0.5663 0.5293 0.39199 0.0
H290 H 0.56714 0.55487 0.32731 0.0
H291 H 0.56626 0.51455 0.30382 0.0
H292 H 0.60008 0.54278 0.29333 0.0
H293 H 0.7183 0.49051 0.33439 0.0
H294 H 0.7052 0.43301 0.31584 0.0
H295 H 0.59537 0.45577 0.3177 0.0
C296 C 0.62436 0.57494 0.38631 0.0
C297 C 0.65218 0.59383 0.4015 0.0
C298 C 0.68649 0.58502 0.39145 0.0
C299 C 0.69308 0.55639 0.3686 0.0
C300 C 0.66503 0.5375 0.35524 0.0
C301 C 0.63127 0.54695 0.36292 0.0
C302 C 0.60576 0.52124 0.34792 0.0
C303 C 0.58302 0.50927 0.37983 0.0
C304 C 0.58351 0.53414 0.3162 0.0
C305 C 0.63043 0.49491 0.33274 0.0
C306 C 0.66449 0.50474 0.33693 0.0
C307 C 0.69174 0.48292 0.32972 0.0
C308 C 0.68396 0.45015 0.31892 0.0
C309 C 0.64914 0.43937 0.31515 0.0
C310 C 0.62229 0.46271 0.32065 0.0
H311 H 0.96313 0.18613 0.95196 0.0
H312 H 0.92686 0.09459 0.89759 0.0
H313 H 0.98207 0.08874 0.86273 0.0
H314 H 0.01608 0.21351 0.87205 0.0
H315 H 0.04932 0.22969 0.90371 0.0
H316 H 0.00482 0.22969 0.91885 0.0
H317 H 0.02211 0.1978 0.97669 0.0
H318 H 0.0665 0.19784 0.96184 0.0
H319 H 0.0452 0.15973 0.96931 0.0
H320 H 0.04339 0.08942 0.84028 0.0
H321 H 0.10687 0.0946 0.83531 0.0
H322 H 0.10325 0.18484 0.90597 0.0
C323 C 0.96635 0.1653 0.93192 0.0
C324 C 0.94063 0.14093 0.92724 0.0
C325 C 0.94623 0.1136 0.9015 0.0
C326 C 0.97738 0.11021 0.88139 0.0
C327 C 0.00254 0.13438 0.88732 0.0
C328 C 0.99734 0.16139 0.91201 0.0
C329 C 0.02987 0.18174 0.91708 0.0
C330 C 0.0247 0.21567 0.90201 0.0
C331 C 0.0416 0.1844 0.95868 0.0
C332 C 0.05464 0.1613 0.89254 0.0
C333 C 0.03821 0.13447 0.87493 0.0
C334 C 0.0564 0.1106 0.85341 0.0
C335 C 0.09242 0.11368 0.85085 0.0
C336 C 0.10988 0.14022 0.87007 0.0
C337 C 0.09052 0.16479 0.89014 0.0
H338 H 0.35463 0.44592 0.52399 0.0
H339 H 0.28548 0.37369 0.47063 0.0
H340 H 0.26539 0.41433 0.42642 0.0
H341 H 0.29523 0.51511 0.51782 0.0
H342 H 0.32989 0.54325 0.51005 0.0
H343 H 0.33748 0.50859 0.53758 0.0
H344 H 0.38811 0.49036 0.49324 0.0
H345 H 0.38055 0.52478 0.46544 0.0
H346 H 0.38033 0.48399 0.44321 0.0
H347 H 0.25783 0.46186 0.38448 0.0
H348 H 0.2599 0.51287 0.35134 0.0
H349 H 0.32941 0.55506 0.43772 0.0
C350 C 0.3351 0.43885 0.50307 0.0
C351 C 0.32168 0.40692 0.50008 0.0
C352 C 0.29592 0.39824 0.47296 0.0
C353 C 0.28446 0.42109 0.44789 0.0
C354 C 0.29854 0.45249 0.45124 0.0
C355 C 0.32286 0.46147 0.47863 0.0
C356 C 0.33393 0.4966 0.47662 0.0
C357 C 0.3235 0.51709 0.51265 0.0
C358 C 0.37304 0.49905 0.46917 0.0
C359 C 0.31295 0.50578 0.44296 0.0
C360 C 0.29274 0.4801 0.42858 0.0
C361 C 0.27303 0.48235 0.39594 0.0
C362 C 0.27424 0.51153 0.37741 0.0
C363 C 0.29484 0.53818 0.39174 0.0
C364 C 0.31381 0.53518 0.42543 0.0
H365 H 0.04698 0.88006 0.99221 0.0
H366 H 0.12272 0.81956 0.9311 0.0
H367 H 0.08409 0.81568 0.87496 0.0
H368 H 0.97347 0.83446 0.95675 0.0
H369 H 0.94585 0.86976 0.95521 0.0
H370 H 0.98056 0.86957 0.9891 0.0
H371 H 0.00507 0.92275 0.96393 0.0
H372 H 0.97045 0.92304 0.92992 0.0
H373 H 0.01479 0.92396 0.91442 0.0
H374 H 0.03721 0.81992 0.82525 0.0
H375 H 0.98456 0.82785 0.78762 0.0
H376 H 0.93708 0.87989 0.88492 0.0
C377 C 0.05546 0.86638 0.96675 0.0
C378 C 0.08783 0.85057 0.96531 0.0
C379 C 0.09801 0.83207 0.93221 0.0
C380 C 0.0763 0.82979 0.90036 0.0
C381 C 0.04434 0.84563 0.90259 0.0
C382 C 0.03378 0.8632 0.93514 0.0
C383 C 0.99738 0.87614 0.93117 0.0
C384 C 0.97288 0.8616 0.95974 0.0
C385 C 0.99692 0.9137 0.93508 0.0
C386 C 0.98918 0.8634 0.89118 0.0
C387 C 0.01667 0.84622 0.87498 0.0
C388 C 0.01535 0.833 0.83783 0.0
C389 C 0.98509 0.83741 0.81676 0.0
C390 C 0.95622 0.85444 0.83302 0.0
C391 C 0.95858 0.86731 0.87096 0.0
H392 H 0.82043 0.02481 0.95386 0.0
H393 H 0.80498 0.09151 0.86576 0.0
H394 H 0.8064 0.04467 0.81769 0.0
H395 H 0.88147 0.97839 0.90973 0.0
H396 H 0.86788 0.93999 0.92667 0.0
H397 H 0.85822 0.9774 0.9536 0.0
H398 H 0.7929 0.96292 0.95221 0.0
H399 H 0.80239 0.92518 0.92531 0.0
H400 H 0.77161 0.95347 0.9076 0.0
H401 H 0.82081 0.99133 0.7793 0.0
H402 H 0.84591 0.93814 0.75552 0.0
H403 H 0.85013 0.90758 0.86976 0.0
C404 C 0.81629 0.02947 0.92451 0.0
C405 C 0.81256 0.06162 0.91337 0.0
C406 C 0.80745 0.06691 0.87479 0.0
C407 C 0.80826 0.04046 0.84739 0.0
C408 C 0.81344 0.00901 0.8593 0.0
C409 C 0.81678 0.00352 0.89716 0.0
C410 C 0.82586 0.96841 0.90298 0.0
C411 C 0.86039 0.96594 0.92448 0.0
C412 C 0.79643 0.9515 0.92321 0.0
C413 C 0.82902 0.95518 0.86247 0.0
C414 C 0.82121 0.97861 0.83746 0.0
C415 C 0.8261 0.97262 0.79861 0.0
C416 C 0.84025 0.94238 0.78529 0.0
C417 C 0.84963 0.91891 0.8109 0.0
C418 C 0.84271 0.92507 0.84964 0.0
H419 H 0.48067 0.35525 0.50598 0.0
H420 H 0.41616 0.2843 0.44283 0.0
H421 H 0.45782 0.28367 0.38957 0.0
H422 H 0.50369 0.40199 0.43156 0.0
H423 H 0.54744 0.4093 0.44767 0.0
H424 H 0.51387 0.40222 0.48116 0.0
H425 H 0.54879 0.35396 0.50602 0.0
H426 H 0.58281 0.3615 0.47316 0.0
H427 H 0.56347 0.32153 0.47333 0.0
H428 H 0.50624 0.29347 0.34219 0.0
H429 H 0.55632 0.31234 0.30578 0.0
H430 H 0.58727 0.37653 0.4018 0.0
C431 C 0.47518 0.33945 0.48103 0.0
C432 C 0.44505 0.31999 0.47834 0.0
C433 C 0.43916 0.29936 0.4454 0.0
C434 C 0.46263 0.29889 0.4151 0.0
C435 C 0.49189 0.31887 0.4186 0.0
C436 C 0.49824 0.33852 0.45098 0.0
C437 C 0.531 0.35819 0.44798 0.0
C438 C 0.52352 0.3951 0.45233 0.0
C439 C 0.55813 0.34819 0.47682 0.0
C440 C 0.54167 0.34753 0.40827 0.0
C441 C 0.51919 0.32452 0.39179 0.0
C442 C 0.52402 0.31136 0.35494 0.0
C443 C 0.55247 0.32215 0.33453 0.0
C444 C 0.57534 0.34607 0.35096 0.0
C445 C 0.56988 0.3586 0.38836 0.0
H446 H 0.17811 0.9777 0.03877 0.0
H447 H 0.23563 0.91046 0.9632 0.0
H448 H 0.25187 0.95645 0.92472 0.0
H449 H 0.14157 0.02266 0.97224 0.0
H450 H 0.14432 0.06141 0.99911 0.0
H451 H 0.14215 0.02433 0.02312 0.0
H452 H 0.19907 0.03969 0.05864 0.0
H453 H 0.20138 0.07703 0.03484 0.0
H454 H 0.23728 0.04888 0.03243 0.0
H455 H 0.25405 0.00897 0.88982 0.0
H456 H 0.24202 0.06225 0.86278 0.0
H457 H 0.1848 0.09375 0.96321 0.0
C458 C 0.19465 0.97266 0.01449 0.0
C459 C 0.20551 0.9406 0.00374 0.0
C460 C 0.22719 0.93497 0.9719 0.0
C461 C 0.23657 0.96093 0.95002 0.0
C462 C 0.22466 0.99227 0.961 0.0
C463 C 0.20454 0.99815 0.99288 0.0
C464 C 0.19264 0.03321 0.99744 0.0
C465 C 0.15283 0.0355 0.99797 0.0
C466 C 0.20857 0.05074 0.03294 0.0
C467 C 0.20762 0.04592 0.9621 0.0
C468 C 0.22655 0.02228 0.94159 0.0
C469 C 0.24004 0.02787 0.90611 0.0
C470 C 0.23324 0.05808 0.891 0.0
C471 C 0.2131 0.08188 0.91145 0.0
C472 C 0.20098 0.076 0.94765 0.0
H473 H 0.52949 0.62637 0.4065 0.0
H474 H 0.51051 0.72644 0.44885 0.0
H475 H 0.45321 0.72459 0.41773 0.0
H476 H 0.48123 0.62977 0.31539 0.0
H477 H 0.46523 0.58877 0.31842 0.0
H478 H 0.50694 0.60002 0.33806 0.0
H479 H 0.48783 0.58069 0.40278 0.0
H480 H 0.44618 0.56946 0.38354 0.0
H481 H 0.44912 0.59751 0.42467 0.0
H482 H 0.3948 0.70894 0.39036 0.0
H483 H 0.34058 0.68049 0.37108 0.0
H484 H 0.39839 0.59115 0.34583 0.0
C485 C 0.51374 0.64825 0.40848 0.0
C486 C 0.52457 0.67658 0.43013 0.0
C487 C 0.50287 0.70448 0.43233 0.0
C488 C 0.47031 0.7037 0.41461 0.0
C489 C 0.46 0.67498 0.39447 0.0
C490 C 0.48126 0.64784 0.39112 0.0
C491 C 0.46292 0.61883 0.3716 0.0
C492 C 0.48011 0.60877 0.33361 0.0
C493 C 0.46142 0.58995 0.39719 0.0
C494 C 0.42748 0.63341 0.366 0.0
C495 C 0.4264 0.66599 0.37867 0.0
C496 C 0.39552 0.68366 0.37959 0.0
C497 C 0.36485 0.66734 0.36842 0.0
C498 C 0.36529 0.63363 0.35691 0.0
C499 C 0.39726 0.61694 0.35445 0.0
H500 H 0.33691 0.45023 0.61419 0.0
H501 H 0.33677 0.37956 0.69951 0.0
H502 H 0.3378 0.42486 0.74955 0.0
H503 H 0.39557 0.502 0.6549 0.0
H504 H 0.37572 0.53939 0.64187 0.0
H505 H 0.36824 0.5021 0.61366 0.0
H506 H 0.30211 0.50908 0.62193 0.0
H507 H 0.30919 0.54678 0.6499 0.0
H508 H 0.28405 0.51463 0.66869 0.0
H509 H 0.35059 0.47773 0.78878 0.0
H510 H 0.37013 0.53231 0.8135 0.0
H511 H 0.35703 0.56832 0.70214 0.0
C512 C 0.33592 0.44436 0.64347 0.0
C513 C 0.33661 0.4116 0.65323 0.0
C514 C 0.33573 0.40461 0.69166 0.0
C515 C 0.33642 0.43018 0.72014 0.0
C516 C 0.33712 0.46239 0.7095 0.0
C517 C 0.33606 0.46944 0.67197 0.0
C518 C 0.34001 0.50564 0.66742 0.0
C519 C 0.37177 0.51266 0.64305 0.0
C520 C 0.30685 0.51986 0.65103 0.0
C521 C 0.34534 0.51784 0.70811 0.0
C522 C 0.3433 0.49271 0.7321 0.0
C523 C 0.35124 0.49773 0.77039 0.0
C524 C 0.3622 0.52895 0.78425 0.0
C525 C 0.36519 0.55483 0.75986 0.0
C526 C 0.35537 0.54917 0.72161 0.0
H527 H 0.0515 0.88314 0.13064 0.0
H528 H 0.06311 0.78006 0.09788 0.0
H529 H 0.00282 0.77038 0.11769 0.0
H530 H 0.99313 0.87234 0.21361 0.0
H531 H 0.96886 0.90846 0.20428 0.0
H532 H 0.01426 0.90598 0.19293 0.0
H533 H 0.99998 0.91844 0.12401 0.0
H534 H 0.95459 0.92035 0.13484 0.0
H535 H 0.96993 0.89258 0.09708 0.0
H536 H 0.93856 0.77428 0.12952 0.0
H537 H 0.87764 0.78986 0.13923 0.0
H538 H 0.90949 0.88967 0.17032 0.0
C539 C 0.04166 0.85837 0.12875 0.0
C540 C 0.06186 0.83231 0.11286 0.0
C541 C 0.04814 0.80027 0.11044 0.0
C542 C 0.0139 0.7946 0.12146 0.0
C543 C 0.99416 0.82112 0.13561 0.0
C544 C 0.00785 0.85225 0.14017 0.0
C545 C 0.9808 0.87692 0.15386 0.0
C546 C 0.9898 0.89179 0.19353 0.0
C547 C 0.97606 0.90362 0.12577 0.0
C548 C 0.94933 0.85509 0.15463 0.0
C549 C 0.9575 0.82301 0.1441 0.0
C550 C 0.93202 0.79913 0.13901 0.0
C551 C 0.89734 0.80827 0.14483 0.0
C552 C 0.88831 0.84105 0.15603 0.0
C553 C 0.91505 0.86446 0.16155 0.0
H554 H 0.62309 0.58906 0.58686 0.0
H555 H 0.72312 0.59526 0.53231 0.0
H556 H 0.7457 0.55244 0.57149 0.0
H557 H 0.65705 0.57173 0.68193 0.0
H558 H 0.6212 0.54485 0.68949 0.0
H559 H 0.61566 0.57907 0.66072 0.0
H560 H 0.59318 0.53875 0.60636 0.0
H561 H 0.60012 0.5047 0.63484 0.0
H562 H 0.62045 0.50531 0.58926 0.0
H563 H 0.75553 0.50514 0.61222 0.0
H564 H 0.75148 0.45709 0.65058 0.0
H565 H 0.64515 0.48248 0.67826 0.0
C566 C 0.64993 0.58185 0.5835 0.0
C567 C 0.67131 0.59549 0.5564 0.0
C568 C 0.70624 0.58522 0.5529 0.0
C569 C 0.71933 0.56095 0.5751 0.0
C570 C 0.69728 0.54749 0.60091 0.0
C571 C 0.6634 0.55778 0.6054 0.0
C572 C 0.64433 0.53807 0.63328 0.0
C573 C 0.63394 0.55971 0.66844 0.0
C574 C 0.61267 0.52068 0.61481 0.0
C575 C 0.67231 0.51408 0.64252 0.0
C576 C 0.70288 0.52025 0.62416 0.0
C577 C 0.73189 0.50036 0.62715 0.0
C578 C 0.7294 0.47322 0.64907 0.0
C579 C 0.69802 0.46609 0.66733 0.0
C580 C 0.66941 0.48722 0.66444 0.0
H581 H 0.92771 0.1155 0.08765 0.0
H582 H 0.9158 0.22033 0.083 0.0
H583 H 0.95881 0.22906 0.13449 0.0
H584 H 0.93873 0.11567 0.19028 0.0
H585 H 0.96983 0.08288 0.18646 0.0
H586 H 0.93643 0.08532 0.15127 0.0
H587 H 0.98321 0.0845 0.09904 0.0
H588 H 0.01675 0.08239 0.13402 0.0
H589 H 0.01718 0.11468 0.10199 0.0
H590 H 0.00731 0.22588 0.18247 0.0
H591 H 0.05462 0.2113 0.2251 0.0
H592 H 0.03194 0.10847 0.20002 0.0
C593 C 0.93384 0.14034 0.09769 0.0
C594 C 0.91854 0.16726 0.08121 0.0
C595 C 0.92713 0.19935 0.0953 0.0
C596 C 0.95157 0.20452 0.12447 0.0
C597 C 0.96673 0.17736 0.1395 0.0
C598 C 0.95781 0.1459 0.12688 0.0
C599 C 0.97835 0.12082 0.14691 0.0
C600 C 0.95441 0.09995 0.17011 0.0
C601 C 1.00016 0.09935 0.11881 0.0
C602 C 0.00094 0.14304 0.17216 0.0
C603 C 0.99385 0.17556 0.16761 0.0
C604 C 0.01268 0.2005 0.1867 0.0
C605 C 0.03944 0.19194 0.21101 0.0
C606 C 0.04712 0.15871 0.21613 0.0
C607 C 0.02719 0.1341 0.19656 0.0
H608 H 0.18099 0.74601 0.11941 0.0
H609 H 0.23917 0.82879 0.16888 0.0
H610 H 0.25804 0.79571 0.22064 0.0
H611 H 0.15127 0.7171 0.20635 0.0
H612 H 0.15495 0.67454 0.19074 0.0
H613 H 0.14673 0.7045 0.15698 0.0
H614 H 0.20074 0.68468 0.11885 0.0
H615 H 0.20916 0.65465 0.1525 0.0
H616 H 0.24219 0.68372 0.14215 0.0
H617 H 0.27004 0.75388 0.26767 0.0
H618 H 0.27354 0.70599 0.30672 0.0
H619 H 0.20758 0.65096 0.22684 0.0
C620 C 0.19782 0.75719 0.141 0.0
C621 C 0.20866 0.79 0.13993 0.0
C622 C 0.23054 0.80369 0.16895 0.0
C623 C 0.24145 0.7851 0.19851 0.0
C624 C 0.23025 0.75287 0.1987 0.0
C625 C 0.20892 0.73902 0.17074 0.0
C626 C 0.20013 0.70401 0.17787 0.0
C627 C 0.16095 0.69981 0.18331 0.0
C628 C 0.21389 0.68037 0.14594 0.0
C629 C 0.21974 0.7004 0.2143 0.0
C630 C 0.23705 0.72883 0.22581 0.0
C631 C 0.25668 0.73147 0.2589 0.0
C632 C 0.25854 0.7043 0.28084 0.0
C633 C 0.24087 0.67522 0.26943 0.0
C634 C 0.22135 0.67313 0.23585 0.0
H635 H 0.7289 0.70018 0.57301 0.0
H636 H 0.66125 0.78318 0.5598 0.0
H637 H 0.69655 0.81626 0.60627 0.0
H638 H 0.74374 0.7149 0.67308 0.0
H639 H 0.78827 0.70189 0.67014 0.0
H640 H 0.75703 0.68482 0.63668 0.0
H641 H 0.79502 0.7025 0.58154 0.0
H642 H 0.82637 0.71963 0.61479 0.0
H643 H 0.80766 0.74469 0.58022 0.0
H644 H 0.74101 0.84079 0.65338 0.0
H645 H 0.79048 0.85393 0.69675 0.0
H646 H 0.8278 0.75466 0.67837 0.0
C647 C 0.72133 0.72527 0.57988 0.0
C648 C 0.69228 0.73906 0.56261 0.0
C649 C 0.68339 0.77203 0.57259 0.0
C650 C 0.70327 0.79103 0.59899 0.0
C651 C 0.73188 0.77666 0.61526 0.0
C652 C 0.74078 0.74449 0.60608 0.0
C653 C 0.77296 0.73481 0.62694 0.0
C654 C 0.76501 0.70749 0.65328 0.0
C655 C 0.80223 0.72483 0.59921 0.0
C656 C 0.78106 0.76664 0.6491 0.0
C657 C 0.75708 0.79056 0.64217 0.0
C658 C 0.75979 0.82218 0.65912 0.0
C659 C 0.78782 0.82946 0.68363 0.0
C660 C 0.81245 0.80517 0.69068 0.0
C661 C 0.80898 0.77349 0.67339 0.0
H662 H 0.75107 0.18909 0.08265 0.0
H663 H 0.80868 0.26612 0.03273 0.0
H664 H 0.78367 0.30662 0.0793 0.0
H665 H 0.67316 0.23769 0.10725 0.0
H666 H 0.66721 0.21862 0.15107 0.0
H667 H 0.687 0.19612 0.11146 0.0
H668 H 0.74046 0.18452 0.15271 0.0
H669 H 0.72089 0.20695 0.19237 0.0
H670 H 0.76327 0.21822 0.17659 0.0
H671 H 0.75609 0.33826 0.13449 0.0
H672 H 0.72834 0.35792 0.19484 0.0
H673 H 0.68904 0.26059 0.20841 0.0
C674 C 0.75794 0.21455 0.08106 0.0
C675 C 0.78173 0.22439 0.05391 0.0
C676 C 0.7905 0.25792 0.05324 0.0
C677 C 0.77632 0.28118 0.07949 0.0
C678 C 0.75335 0.2706 0.10623 0.0
C679 C 0.74415 0.23809 0.10716 0.0
C680 C 0.7207 0.23278 0.14027 0.0
C681 C 0.68489 0.22059 0.12669 0.0
C682 C 0.73734 0.20924 0.16706 0.0
C683 C 0.71879 0.26723 0.15825 0.0
C684 C 0.7375 0.28881 0.138 0.0
C685 C 0.74096 0.3217 0.15029 0.0
C686 C 0.72519 0.33268 0.18442 0.0
C687 C 0.70644 0.31072 0.20549 0.0
C688 C 0.70288 0.27782 0.19215 0.0
H689 H 0.27849 0.28602 0.66002 0.0
H690 H 0.38093 0.24238 0.65991 0.0
H691 H 0.36676 0.21604 0.71842 0.0
H692 H 0.27339 0.30399 0.75886 0.0
H693 H 0.22789 0.29485 0.76182 0.0
H694 H 0.24547 0.30893 0.7189 0.0
H695 H 0.22122 0.25763 0.68126 0.0
H696 H 0.20341 0.24342 0.72404 0.0
H697 H 0.23233 0.21762 0.69566 0.0
H698 H 0.342 0.19575 0.77807 0.0
H699 H 0.30787 0.183 0.83442 0.0
H700 H 0.22236 0.24024 0.79543 0.0
C701 C 0.29786 0.27065 0.67201 0.0
C702 C 0.33076 0.26615 0.65523 0.0
C703 C 0.35549 0.24612 0.67215 0.0
C704 C 0.3477 0.23105 0.70539 0.0
C705 C 0.31513 0.23626 0.72133 0.0
C706 C 0.29059 0.25553 0.70518 0.0
C707 C 0.25786 0.25799 0.72846 0.0
C708 C 0.25076 0.29355 0.74286 0.0
C709 C 0.22688 0.24328 0.70601 0.0
C710 C 0.26788 0.23723 0.76038 0.0
C711 C 0.30099 0.22482 0.75574 0.0
C712 C 0.31603 0.20524 0.78196 0.0
C713 C 0.29662 0.19817 0.81375 0.0
C714 C 0.26286 0.21078 0.81874 0.0
C715 C 0.24827 0.23042 0.79188 0.0
H716 H 0.7127 0.72031 0.39902 0.0
H717 H 0.61128 0.76606 0.40302 0.0
H718 H 0.62711 0.7978 0.34898 0.0
H719 H 0.76127 0.79133 0.37254 0.0
H720 H 0.78981 0.76739 0.34162 0.0
H721 H 0.77126 0.74976 0.3821 0.0
H722 H 0.74597 0.70223 0.33882 0.0
H723 H 0.76451 0.71962 0.29827 0.0
H724 H 0.71874 0.71135 0.29958 0.0
H725 H 0.65306 0.82279 0.29254 0.0
H726 H 0.68679 0.8374 0.23667 0.0
H727 H 0.77066 0.77522 0.26958 0.0
C728 C 0.6939 0.73724 0.38884 0.0
C729 C 0.6608 0.74078 0.40545 0.0
C730 C 0.63684 0.76293 0.39087 0.0
C731 C 0.64562 0.78118 0.36024 0.0
C732 C 0.67843 0.77702 0.3445 0.0
C733 C 0.70217 0.75554 0.35825 0.0
C734 C 0.73508 0.75438 0.33517 0.0
C735 C 0.76619 0.76644 0.35931 0.0
C736 C 0.74142 0.71985 0.31688 0.0
C737 C 0.72599 0.77823 0.30595 0.0
C738 C 0.69331 0.79127 0.31199 0.0
C739 C 0.67879 0.81299 0.28775 0.0
C740 C 0.69804 0.8212 0.25626 0.0
C741 C 0.73119 0.80765 0.24954 0.0
C742 C 0.74547 0.78621 0.27474 0.0
H743 H 0.75886 0.2263 0.92073 0.0
H744 H 0.85327 0.19223 0.86542 0.0
H745 H 0.84104 0.22677 0.81252 0.0
H746 H 0.7062 0.2371 0.83382 0.0
H747 H 0.68662 0.27409 0.85404 0.0
H748 H 0.69933 0.24238 0.88405 0.0
H749 H 0.73669 0.28404 0.92423 0.0
H750 H 0.72424 0.31578 0.89436 0.0
H751 H 0.76941 0.30705 0.90146 0.0
H752 H 0.82231 0.26891 0.76953 0.0
H753 H 0.79992 0.31817 0.74096 0.0
H754 H 0.7191 0.32711 0.82528 0.0
C755 C 0.77629 0.22538 0.89684 0.0
C756 C 0.8067 0.2063 0.89666 0.0
C757 C 0.82969 0.20654 0.86575 0.0
C758 C 0.82287 0.22593 0.83557 0.0
C759 C 0.79308 0.24512 0.83693 0.0
C760 C 0.77018 0.24511 0.8668 0.0
C761 C 0.74244 0.27093 0.86365 0.0
C762 C 0.70651 0.25517 0.85858 0.0
C763 C 0.74327 0.29592 0.89795 0.0
C764 C 0.75393 0.2861 0.82799 0.0
C765 C 0.78278 0.27035 0.81261 0.0
C766 C 0.79942 0.2811 0.78092 0.0
C767 C 0.7866 0.309 0.76491 0.0
C768 C 0.75773 0.32579 0.78084 0.0
C769 C 0.74087 0.31408 0.81235 0.0
H770 H 0.26125 0.29998 0.48619 0.0
H771 H 0.33171 0.219 0.49913 0.0
H772 H 0.29604 0.18426 0.45469 0.0
H773 H 0.18386 0.25355 0.48326 0.0
H774 H 0.16313 0.27732 0.44874 0.0
H775 H 0.19509 0.29594 0.48021 0.0
H776 H 0.23054 0.31329 0.42298 0.0
H777 H 0.19863 0.29478 0.39129 0.0
H778 H 0.24339 0.28281 0.38682 0.0
H779 H 0.25078 0.15771 0.41 0.0
H780 H 0.2002 0.1424 0.36908 0.0
H781 H 0.16045 0.24092 0.3862 0.0
C782 C 0.2694 0.275 0.47962 0.0
C783 C 0.29933 0.26226 0.49628 0.0
C784 C 0.30892 0.22937 0.48678 0.0
C785 C 0.28881 0.20943 0.46153 0.0
C786 C 0.25928 0.22275 0.44592 0.0
C787 C 0.24972 0.25483 0.45458 0.0
C788 C 0.21651 0.26323 0.43477 0.0
C789 C 0.18797 0.27308 0.46346 0.0
C790 C 0.22265 0.29012 0.40734 0.0
C791 C 0.20861 0.2308 0.41383 0.0
C792 C 0.23358 0.20768 0.42042 0.0
C793 C 0.23122 0.17568 0.40451 0.0
C794 C 0.20255 0.16717 0.3814 0.0
C795 C 0.17692 0.19062 0.37468 0.0
C796 C 0.18003 0.22271 0.39092 0.0
H797 H 0.27659 0.7928 0.01557 0.0
H798 H 0.18707 0.78754 0.94135 0.0
H799 H 0.21938 0.75149 0.89552 0.0
H800 H 0.34304 0.79063 0.94119 0.0
H801 H 0.3717 0.76532 0.96677 0.0
H802 H 0.3427 0.79328 0.99207 0.0
H803 H 0.31745 0.74548 0.02746 0.0
H804 H 0.34618 0.71736 0.00216 0.0
H805 H 0.30016 0.71026 0.00075 0.0
H806 H 0.25984 0.71307 0.85963 0.0
H807 H 0.30607 0.67486 0.83649 0.0
H808 H 0.36877 0.70419 0.93417 0.0
C809 C 0.26404 0.78461 0.98934 0.0
C810 C 0.22935 0.79311 0.98197 0.0
C811 C 0.21362 0.78133 0.94762 0.0
C812 C 0.23178 0.76091 0.92135 0.0
C813 C 0.26567 0.75241 0.9298 0.0
C814 C 0.28172 0.76392 0.9629 0.0
C815 C 0.31761 0.74946 0.96618 0.0
C816 C 0.34541 0.77627 0.96656 0.0
C817 C 0.32049 0.72945 0.00121 0.0
C818 C 0.319 0.72766 0.93006 0.0
C819 C 0.28888 0.72993 0.90931 0.0
C820 C 0.28365 0.7113 0.87545 0.0
C821 C 0.30989 0.6897 0.86255 0.0
C822 C 0.34065 0.68698 0.8836 0.0
C823 C 0.34539 0.70621 0.91758 0.0
loop_
_geom_bond_atom_site_label_1
_geom_bond_atom_site_label_2
_geom_bond_distance
_geom_bond_site_symmetry_2
_ccdc_geom_bond_type
Fe0 O2 1.918 . S
Fe0 O5 1.997 . S
Fe0 O6 2.002 . S
Fe0 O11 1.976 . S
Fe0 O14 1.996 . S
Fe1 O2 1.918 . S
Fe1 O9 1.997 . S
Fe1 O12 1.996 . S
Fe1 O16 1.976 1_554 S
Fe1 O19 2.002 . S
O2 Fe0 1.918 . S
O2 Fe1 1.918 . S
O2 Fe3 1.918 . S
Fe3 O2 1.918 . S
Fe3 O4 2.002 . S
Fe3 O13 1.976 . S
Fe3 O17 1.996 1_554 S
Fe3 O20 1.997 . S
O4 Fe3 2.002 . S
O4 C21 1.295 . S
O5 Fe0 1.997 . S
O5 C21 1.235 . S
O6 Fe0 2.002 . S
O6 C7 1.295 . S
C7 O6 1.295 . S
C7 O9 1.235 . S
C8 O13 1.287 . S
C8 O14 1.255 . S
O9 Fe1 1.997 . S
O9 C7 1.235 . S
C10 O16 1.287 . S
C10 O17 1.255 . S
O11 Fe0 1.976 . S
O11 C18 1.287 . S
O12 Fe1 1.996 . S
O12 C18 1.255 . S
O13 Fe3 1.976 . S
O13 C8 1.287 . S
O14 Fe0 1.996 . S
O14 C8 1.255 . S
C15 O19 1.295 . S
C15 O20 1.235 . S
O16 Fe1 1.976 1_556 S
O16 C10 1.287 . S
O17 Fe3 1.996 1_556 S
O17 C10 1.255 . S
C18 O11 1.287 . S
C18 O12 1.255 . S
O19 Fe1 2.002 . S
O19 C15 1.295 . S
O20 Fe3 1.997 . S
O20 C15 1.235 . S
C21 O4 1.295 . S
C21 O5 1.235 . S
Fe22 O24 1.918 . S
Fe22 O27 1.997 . S
Fe22 O28 2.002 . S
Fe22 O33 1.976 . S
Fe22 O36 1.996 . S
Fe23 O24 1.918 . S
Fe23 O31 1.997 . S
Fe23 O34 1.996 . S
Fe23 O38 1.976 . S
Fe23 O41 2.002 . S
O24 Fe22 1.918 . S
O24 Fe23 1.918 . S
O24 Fe25 1.918 . S
Fe25 O24 1.918 . S
Fe25 O26 2.002 . S
Fe25 O35 1.976 . S
Fe25 O39 1.996 . S
Fe25 O42 1.997 . S
O26 Fe25 2.002 . S
O26 C43 1.295 . S
O27 Fe22 1.997 . S
O27 C43 1.235 . S
O28 Fe22 2.002 . S
O28 C29 1.295 . S
C29 O28 1.295 . S
C29 O31 1.235 . S
C30 O35 1.287 . S
C30 O36 1.255 . S
O31 Fe23 1.997 . S
O31 C29 1.235 . S
C32 O38 1.287 . S
C32 O39 1.255 . S
O33 Fe22 1.976 . S
O33 C40 1.287 . S
O34 Fe23 1.996 . S
O34 C40 1.255 . S
O35 Fe25 1.976 . S
O35 C30 1.287 . S
O36 Fe22 1.996 . S
O36 C30 1.255 . S
C37 O41 1.295 . S
C37 O42 1.235 . S
O38 Fe23 1.976 . S
O38 C32 1.287 . S
O39 Fe25 1.996 . S
O39 C32 1.255 . S
C40 O33 1.287 . S
C40 O34 1.255 . S
O41 Fe23 2.002 . S
O41 C37 1.295 . S
O42 Fe25 1.997 . S
O42 C37 1.235 . S
C43 O26 1.295 . S
C43 O27 1.235 . S
Fe44 O46 1.918 . S
Fe44 O49 1.997 1_554 S
Fe44 O50 2.002 1_554 S
Fe44 O55 1.976 . S
Fe44 O58 1.996 . S
Fe45 O46 1.918 . S
Fe45 O53 1.997 1_554 S
Fe45 O56 1.996 . S
Fe45 O60 1.976 . S
Fe45 O63 2.002 1_554 S
O46 Fe44 1.918 . S
O46 Fe45 1.918 . S
O46 Fe47 1.918 1_554 S
Fe47 O46 1.918 1_556 S
Fe47 O48 2.002 . S
Fe47 O57 1.976 1_556 S
Fe47 O61 1.996 1_556 S
Fe47 O64 1.997 . S
O48 Fe47 2.002 . S
O48 C65 1.295 . S
O49 Fe44 1.997 1_556 S
O49 C65 1.235 . S
O50 Fe44 2.002 1_556 S
O50 C51 1.295 . S
C51 O50 1.295 . S
C51 O53 1.235 . S
C52 O57 1.287 . S
C52 O58 1.255 . S
O53 Fe45 1.997 1_556 S
O53 C51 1.235 . S
C54 O60 1.287 . S
C54 O61 1.255 . S
O55 Fe44 1.976 . S
O55 C62 1.287 . S
O56 Fe45 1.996 . S
O56 C62 1.255 . S
O57 Fe47 1.976 1_554 S
O57 C52 1.287 . S
O58 Fe44 1.996 . S
O58 C52 1.255 . S
C59 O63 1.295 . S
C59 O64 1.235 . S
O60 Fe45 1.976 . S
O60 C54 1.287 . S
O61 Fe47 1.996 1_554 S
O61 C54 1.255 . S
C62 O55 1.287 . S
C62 O56 1.255 . S
O63 Fe45 2.002 1_556 S
O63 C59 1.295 . S
O64 Fe47 1.997 . S
O64 C59 1.235 . S
C65 O48 1.295 . S
C65 O49 1.235 . S
Fe66 O68 1.918 . S
Fe66 O71 1.997 . S
Fe66 O72 2.002 . S
Fe66 O77 1.976 . S
Fe66 O80 1.996 . S
Fe67 O68 1.918 . S
Fe67 O75 1.997 . S
Fe67 O78 1.996 . S
Fe67 O82 1.976 . S
Fe67 O85 2.002 . S
O68 Fe66 1.918 . S
O68 Fe67 1.918 . S
O68 Fe69 1.918 . S
Fe69 O68 1.918 . S
Fe69 O70 2.002 . S
Fe69 O79 1.976 . S
Fe69 O83 1.996 . S
Fe69 O86 1.997 . S
O70 Fe69 2.002 . S
O70 C87 1.295 . S
O71 Fe66 1.997 . S
O71 C87 1.235 . S
O72 Fe66 2.002 . S
O72 C73 1.295 . S
C73 O72 1.295 . S
C73 O75 1.235 . S
C74 O79 1.287 . S
C74 O80 1.255 . S
O75 Fe67 1.997 . S
O75 C73 1.235 . S
C76 O82 1.287 . S
C76 O83 1.255 . S
O77 Fe66 1.976 . S
O77 C84 1.287 . S
O78 Fe67 1.996 . S
O78 C84 1.255 . S
O79 Fe69 1.976 . S
O79 C74 1.287 . S
O80 Fe66 1.996 . S
O80 C74 1.255 . S
C81 O85 1.295 . S
C81 O86 1.235 . S
O82 Fe67 1.976 . S
O82 C76 1.287 . S
O83 Fe69 1.996 . S
O83 C76 1.255 . S
C84 O77 1.287 . S
C84 O78 1.255 . S
O85 Fe67 2.002 . S
O85 C81 1.295 . S
O86 Fe69 1.997 . S
O86 C81 1.235 . S
C87 O70 1.295 . S
C87 O71 1.235 . S
H88 C91 0.929 . S
H89 C94 0.929 . S
H90 C96 0.930 . S
C91 H88 0.929 . S
C91 C92 1.398 . S
C91 C93 1.396 . S
C92 C91 1.398 . S
C92 C96 1.407 . S
C93 C91 1.396 . S
C93 C94 1.394 . S
C94 H89 0.929 . S
C94 C93 1.394 . S
C94 C95 1.382 . S
C95 C94 1.382 . S
C95 C96 1.392 . S
C95 N97 1.420 . S
C96 H90 0.930 . S
C96 C92 1.407 . S
C96 C95 1.392 . S
N97 C95 1.420 . S
N97 C98 1.244 . S
C98 N97 1.244 . S
H99 C102 0.929 . S
H100 C105 0.929 . S
H101 C107 0.930 . S
C102 H99 0.929 . S
C102 C103 1.398 . S
C102 C104 1.396 . S
C103 C102 1.398 . S
C103 C107 1.407 . S
C104 C102 1.396 . S
C104 C105 1.394 . S
C105 H100 0.929 . S
C105 C104 1.394 . S
C105 C106 1.382 . S
C106 C105 1.382 . S
C106 C107 1.392 . S
C106 N108 1.420 . S
C107 H101 0.930 . S
C107 C103 1.407 . S
C107 C106 1.392 . S
N108 C106 1.420 . S
N108 C109 1.244 . S
C109 N108 1.244 . S
H110 C113 0.929 . S
H111 C116 0.929 . S
H112 C118 0.930 . S
C113 H110 0.929 . S
C113 C114 1.398 . S
C113 C115 1.396 . S
C114 C113 1.398 . S
C114 C118 1.407 . S
C115 C113 1.396 . S
C115 C116 1.394 . S
C116 H111 0.929 . S
C116 C115 1.394 . S
C116 C117 1.382 . S
C117 C116 1.382 . S
C117 C118 1.392 . S
C117 N119 1.420 . S
C118 H112 0.930 . S
C118 C114 1.407 . S
C118 C117 1.392 . S
N119 C117 1.420 . S
N119 C120 1.244 . S
C120 N119 1.244 . S
H121 C124 0.929 . S
H122 C127 0.929 . S
H123 C129 0.930 . S
C124 H121 0.929 . S
C124 C125 1.398 . S
C124 C126 1.396 . S
C125 C124 1.398 . S
C125 C129 1.407 . S
C126 C124 1.396 . S
C126 C127 1.394 . S
C127 H122 0.929 . S
C127 C126 1.394 . S
C127 C128 1.382 . S
C128 C127 1.382 . S
C128 C129 1.392 . S
C128 N130 1.420 . S
C129 H123 0.930 . S
C129 C125 1.407 . S
C129 C128 1.392 . S
N130 C128 1.420 . S
N130 C131 1.244 . S
C131 N130 1.244 . S
H132 C135 0.929 . S
H133 C138 0.929 . S
H134 C140 0.930 . S
C135 H132 0.929 . S
C135 C136 1.398 . S
C135 C137 1.396 . S
C136 C135 1.398 . S
C136 C140 1.407 . S
C137 C135 1.396 . S
C137 C138 1.394 . S
C138 H133 0.929 . S
C138 C137 1.394 . S
C138 C139 1.382 . S
C139 C138 1.382 . S
C139 C140 1.392 . S
C139 N141 1.420 . S
C140 H134 0.930 . S
C140 C136 1.407 . S
C140 C139 1.392 . S
N141 C139 1.420 . S
N141 C142 1.244 . S
C142 N141 1.244 . S
H143 C146 0.929 . S
H144 C149 0.929 . S
H145 C151 0.930 . S
C146 H143 0.929 . S
C146 C147 1.398 . S
C146 C148 1.396 . S
C147 C146 1.398 . S
C147 C151 1.407 . S
C148 C146 1.396 . S
C148 C149 1.394 . S
C149 H144 0.929 . S
C149 C148 1.394 . S
C149 C150 1.382 . S
C150 C149 1.382 . S
C150 C151 1.392 . S
C150 N152 1.420 . S
C151 H145 0.930 . S
C151 C147 1.407 . S
C151 C150 1.392 . S
N152 C150 1.420 . S
N152 C153 1.244 . S
C153 N152 1.244 . S
H154 C157 0.929 . S
H155 C160 0.929 . S
H156 C162 0.930 . S
C157 H154 0.929 . S
C157 C158 1.398 . S
C157 C159 1.396 . S
C158 C157 1.398 . S
C158 C162 1.407 . S
C159 C157 1.396 . S
C159 C160 1.394 . S
C160 H155 0.929 . S
C160 C159 1.394 . S
C160 C161 1.382 . S
C161 C160 1.382 . S
C161 C162 1.392 . S
C161 N163 1.420 . S
C162 H156 0.930 . S
C162 C158 1.407 . S
C162 C161 1.392 . S
N163 C161 1.420 . S
N163 C164 1.244 . S
C164 N163 1.244 . S
H165 C168 0.929 . S
H166 C171 0.929 . S
H167 C173 0.930 . S
C168 H165 0.929 . S
C168 C169 1.398 . S
C168 C170 1.396 . S
C169 C168 1.398 . S
C169 C173 1.407 . S
C170 C168 1.396 . S
C170 C171 1.394 . S
C171 H166 0.929 . S
C171 C170 1.394 . S
C171 C172 1.382 . S
C172 C171 1.382 . S
C172 C173 1.392 . S
C172 N174 1.420 . S
C173 H167 0.930 . S
C173 C169 1.407 . S
C173 C172 1.392 . S
N174 C172 1.420 . S
N174 C175 1.244 . S
C175 N174 1.244 . S
H176 C188 0.930 . S
H177 C190 0.930 . S
H178 C191 0.930 . S
H179 C195 0.959 . S
H180 C195 0.959 . S
H181 C195 0.961 . S
H182 C196 0.960 . S
H183 C196 0.961 . S
H184 C196 0.959 . S
H185 C199 0.929 . S
H186 C200 0.931 . S
H187 C202 0.930 . S
C188 H176 0.930 . S
C188 C189 1.399 . S
C188 C193 1.399 . S
C189 C188 1.399 . S
C189 C190 1.376 . S
C190 H177 0.930 . S
C190 C189 1.376 . S
C190 C191 1.388 . S
C191 H178 0.930 . S
C191 C190 1.388 . S
C191 C192 1.390 . S
C192 C191 1.390 . S
C192 C193 1.394 . S
C192 C198 1.465 1_565 S
C193 C188 1.399 . S
C193 C192 1.394 . S
C193 C194 1.516 1_565 S
C194 C193 1.516 1_545 S
C194 C195 1.502 . S
C194 C196 1.561 . S
C194 C197 1.526 . S
C195 H179 0.959 . S
C195 H180 0.959 . S
C195 H181 0.961 . S
C195 C194 1.502 . S
C196 H182 0.960 . S
C196 H183 0.961 . S
C196 H184 0.959 . S
C196 C194 1.561 . S
C197 C194 1.526 . S
C197 C198 1.396 . S
C197 C202 1.390 . S
C198 C192 1.465 1_545 S
C198 C197 1.396 . S
C198 C199 1.399 . S
C199 H185 0.929 . S
C199 C198 1.399 . S
C199 C200 1.385 . S
C200 H186 0.931 . S
C200 C199 1.385 . S
C200 C201 1.389 . S
C201 C200 1.389 . S
C201 C202 1.387 . S
C202 H187 0.930 . S
C202 C197 1.390 . S
C202 C201 1.387 . S
H203 C215 0.930 . S
H204 C217 0.930 . S
H205 C218 0.930 . S
H206 C222 0.959 . S
H207 C222 0.959 . S
H208 C222 0.961 . S
H209 C223 0.960 . S
H210 C223 0.961 . S
H211 C223 0.959 . S
H212 C226 0.929 . S
H213 C227 0.931 . S
H214 C229 0.930 . S
C215 H203 0.930 . S
C215 C216 1.399 . S
C215 C220 1.399 . S
C216 C215 1.399 . S
C216 C217 1.376 . S
C217 H204 0.930 . S
C217 C216 1.376 . S
C217 C218 1.388 . S
C218 H205 0.930 . S
C218 C217 1.388 . S
C218 C219 1.390 . S
C219 C218 1.390 . S
C219 C220 1.394 . S
C219 C225 1.465 . S
C220 C215 1.399 . S
C220 C219 1.394 . S
C220 C221 1.516 . S
C221 C220 1.516 . S
C221 C222 1.502 . S
C221 C223 1.561 . S
C221 C224 1.526 . S
C222 H206 0.959 . S
C222 H207 0.959 . S
C222 H208 0.961 . S
C222 C221 1.502 . S
C223 H209 0.960 . S
C223 H210 0.961 . S
C223 H211 0.959 . S
C223 C221 1.561 . S
C224 C221 1.526 . S
C224 C225 1.396 . S
C224 C229 1.390 . S
C225 C219 1.465 . S
C225 C224 1.396 . S
C225 C226 1.399 . S
C226 H212 0.929 . S
C226 C225 1.399 . S
C226 C227 1.385 . S
C227 H213 0.931 . S
C227 C226 1.385 . S
C227 C228 1.389 . S
C228 C227 1.389 . S
C228 C229 1.387 . S
C229 H214 0.930 . S
C229 C224 1.390 . S
C229 C228 1.387 . S
H230 C242 0.930 . S
H231 C244 0.930 . S
H232 C245 0.930 . S
H233 C249 0.959 . S
H234 C249 0.959 . S
H235 C249 0.961 . S
H236 C250 0.960 . S
H237 C250 0.963 . S
H238 C250 0.959 1_565 S
H239 C253 0.929 . S
H240 C254 0.931 . S
H241 C256 0.930 . S
C242 H230 0.930 . S
C242 C243 1.399 . S
C242 C247 1.399 . S
C243 C242 1.399 . S
C243 C244 1.376 . S
C244 H231 0.930 . S
C244 C243 1.376 . S
C244 C245 1.388 1_545 S
C245 H232 0.930 . S
C245 C244 1.388 1_565 S
C245 C246 1.390 . S
C246 C245 1.390 . S
C246 C247 1.394 1_565 S
C246 C252 1.465 . S
C247 C242 1.399 . S
C247 C246 1.394 1_545 S
C247 C248 1.516 . S
C248 C247 1.516 . S
C248 C249 1.502 . S
C248 C250 1.561 . S
C248 C251 1.526 1_545 S
C249 H233 0.959 . S
C249 H234 0.959 . S
C249 H235 0.961 . S
C249 C248 1.502 . S
C250 H236 0.960 . S
C250 H237 0.963 . S
C250 H238 0.959 1_545 S
C250 C248 1.561 . S
C251 C248 1.526 1_565 S
C251 C252 1.396 . S
C251 C256 1.390 . S
C252 C246 1.465 . S
C252 C251 1.396 . S
C252 C253 1.399 . S
C253 H239 0.929 . S
C253 C252 1.399 . S
C253 C254 1.385 . S
C254 H240 0.931 . S
C254 C253 1.385 . S
C254 C255 1.389 . S
C255 C254 1.389 . S
C255 C256 1.387 . S
C256 H241 0.930 . S
C256 C251 1.390 . S
C256 C255 1.387 . S
H257 C269 0.930 . S
H258 C271 0.930 . S
H259 C272 0.930 . S
H260 C276 0.959 . S
H261 C276 0.959 . S
H262 C276 0.961 . S
H263 C277 0.960 . S
H264 C277 0.961 . S
H265 C277 0.959 . S
H266 C280 0.929 . S
H267 C281 0.931 . S
H268 C283 0.930 . S
C269 H257 0.930 . S
C269 C270 1.399 . S
C269 C274 1.399 . S
C270 C269 1.399 . S
C270 C271 1.376 . S
C271 H258 0.930 . S
C271 C270 1.376 . S
C271 C272 1.388 . S
C272 H259 0.930 . S
C272 C271 1.388 . S
C272 C273 1.390 . S
C273 C272 1.390 . S
C273 C274 1.394 . S
C273 C279 1.465 . S
C274 C269 1.399 . S
C274 C273 1.394 . S
C274 C275 1.516 . S
C275 C274 1.516 . S
C275 C276 1.502 . S
C275 C277 1.561 . S
C275 C278 1.526 . S
C276 H260 0.959 . S
C276 H261 0.959 . S
C276 H262 0.961 . S
C276 C275 1.502 . S
C277 H263 0.960 . S
C277 H264 0.961 . S
C277 H265 0.959 . S
C277 C275 1.561 . S
C278 C275 1.526 . S
C278 C279 1.396 . S
C278 C283 1.390 . S
C279 C273 1.465 . S
C279 C278 1.396 . S
C279 C280 1.399 . S
C280 H266 0.929 . S
C280 C279 1.399 . S
C280 C281 1.385 . S
C281 H267 0.931 . S
C281 C280 1.385 . S
C281 C282 1.389 . S
C282 C281 1.389 . S
C282 C283 1.387 . S
C283 H268 0.930 . S
C283 C278 1.390 . S
C283 C282 1.387 . S
H284 C296 0.930 . S
H285 C298 0.930 . S
H286 C299 0.930 . S
H287 C303 0.959 . S
H288 C303 0.959 . S
H289 C303 0.961 . S
H290 C304 0.960 . S
H291 C304 0.961 . S
H292 C304 0.959 . S
H293 C307 0.929 . S
H294 C308 0.931 . S
H295 C310 0.930 . S
C296 H284 0.930 . S
C296 C297 1.399 . S
C296 C301 1.399 . S
C297 C296 1.399 . S
C297 C298 1.376 . S
C298 H285 0.930 . S
C298 C297 1.376 . S
C298 C299 1.388 . S
C299 H286 0.930 . S
C299 C298 1.388 . S
C299 C300 1.390 . S
C300 C299 1.390 . S
C300 C301 1.394 . S
C300 C306 1.465 . S
C301 C296 1.399 . S
C301 C300 1.394 . S
C301 C302 1.516 . S
C302 C301 1.516 . S
C302 C303 1.502 . S
C302 C304 1.561 . S
C302 C305 1.526 . S
C303 H287 0.959 . S
C303 H288 0.959 . S
C303 H289 0.961 . S
C303 C302 1.502 . S
C304 H290 0.960 . S
C304 H291 0.961 . S
C304 H292 0.959 . S
C304 C302 1.561 . S
C305 C302 1.526 . S
C305 C306 1.396 . S
C305 C310 1.390 . S
C306 C300 1.465 . S
C306 C305 1.396 . S
C306 C307 1.399 . S
C307 H293 0.929 . S
C307 C306 1.399 . S
C307 C308 1.385 . S
C308 H294 0.931 . S
C308 C307 1.385 . S
C308 C309 1.389 . S
C309 C308 1.389 . S
C309 C310 1.387 . S
C310 H295 0.930 . S
C310 C305 1.390 . S
C310 C309 1.387 . S
H311 C323 0.936 . S
H312 C325 0.930 . S
H313 C326 0.930 . S
H314 C330 0.959 . S
H315 C330 0.959 . S
H316 C330 0.961 . S
H317 C331 0.960 . S
H318 C331 0.961 . S
H319 C331 0.959 . S
H320 C334 0.929 . S
H321 C335 0.931 . S
H322 C337 0.930 . S
C323 H311 0.936 . S
C323 C324 1.406 . S
C323 C328 1.386 1_655 S
C324 C323 1.406 . S
C324 C325 1.376 . S
C325 H312 0.930 . S
C325 C324 1.376 . S
C325 C326 1.388 1_655 S
C326 H313 0.930 . S
C326 C325 1.388 1_455 S
C326 C327 1.390 . S
C327 C326 1.390 . S
C327 C328 1.394 . S
C327 C333 1.465 . S
C328 C323 1.386 1_455 S
C328 C327 1.394 . S
C328 C329 1.516 . S
C329 C328 1.516 . S
C329 C330 1.502 . S
C329 C331 1.561 . S
C329 C332 1.526 . S
C330 H314 0.959 . S
C330 H315 0.959 . S
C330 H316 0.961 . S
C330 C329 1.502 . S
C331 H317 0.960 . S
C331 H318 0.961 . S
C331 H319 0.959 . S
C331 C329 1.561 . S
C332 C329 1.526 . S
C332 C333 1.396 . S
C332 C337 1.390 . S
C333 C327 1.465 . S
C333 C332 1.396 . S
C333 C334 1.399 . S
C334 H320 0.929 . S
C334 C333 1.399 . S
C334 C335 1.385 . S
C335 H321 0.931 . S
C335 C334 1.385 . S
C335 C336 1.389 . S
C336 C335 1.389 . S
C336 C337 1.387 . S
C337 H322 0.930 . S
C337 C332 1.390 . S
C337 C336 1.387 . S
H338 C350 0.930 . S
H339 C352 0.930 . S
H340 C353 0.930 . S
H341 C357 0.959 . S
H342 C357 0.959 . S
H343 C357 0.961 . S
H344 C358 0.960 . S
H345 C358 0.961 . S
H346 C358 0.959 . S
H347 C361 0.929 . S
H348 C362 0.931 . S
H349 C364 0.930 . S
C350 H338 0.930 . S
C350 C351 1.399 . S
C350 C355 1.399 . S
C351 C350 1.399 . S
C351 C352 1.376 . S
C352 H339 0.930 . S
C352 C351 1.376 . S
C352 C353 1.388 . S
C353 H340 0.930 . S
C353 C352 1.388 . S
C353 C354 1.390 . S
C354 C353 1.390 . S
C354 C355 1.394 . S
C354 C360 1.465 . S
C355 C350 1.399 . S
C355 C354 1.394 . S
C355 C356 1.516 . S
C356 C355 1.516 . S
C356 C357 1.502 . S
C356 C358 1.561 . S
C356 C359 1.526 . S
C357 H341 0.959 . S
C357 H342 0.959 . S
C357 H343 0.961 . S
C357 C356 1.502 . S
C358 H344 0.960 . S
C358 H345 0.961 . S
C358 H346 0.959 . S
C358 C356 1.561 . S
C359 C356 1.526 . S
C359 C360 1.396 . S
C359 C364 1.390 . S
C360 C354 1.465 . S
C360 C359 1.396 . S
C360 C361 1.399 . S
C361 H347 0.929 . S
C361 C360 1.399 . S
C361 C362 1.385 . S
C362 H348 0.931 . S
C362 C361 1.385 . S
C362 C363 1.389 . S
C363 C362 1.389 . S
C363 C364 1.387 . S
C364 H349 0.930 . S
C364 C359 1.390 . S
C364 C363 1.387 . S
H365 C377 0.930 . S
H366 C379 0.930 . S
H367 C380 0.930 . S
H368 C384 0.959 . S
H369 C384 0.959 . S
H370 C384 0.961 . S
H371 C385 0.960 . S
H372 C385 0.961 . S
H373 C385 0.959 . S
H374 C388 0.918 1_455 S
H375 C389 0.931 . S
H376 C391 0.930 . S
C377 H365 0.930 . S
C377 C378 1.399 . S
C377 C382 1.399 . S
C378 C377 1.399 . S
C378 C379 1.376 . S
C379 H366 0.930 . S
C379 C378 1.376 . S
C379 C380 1.388 . S
C380 H367 0.930 . S
C380 C379 1.388 . S
C380 C381 1.390 . S
C381 C380 1.390 . S
C381 C382 1.394 . S
C381 C387 1.465 1_455 S
C382 C377 1.399 . S
C382 C381 1.394 . S
C382 C383 1.516 1_455 S
C383 C382 1.516 1_655 S
C383 C384 1.502 . S
C383 C385 1.561 1_655 S
C383 C386 1.526 . S
C384 H368 0.959 . S
C384 H369 0.959 . S
C384 H370 0.961 . S
C384 C383 1.502 . S
C385 H371 0.960 . S
C385 H372 0.961 . S
C385 H373 0.959 . S
C385 C383 1.561 1_455 S
C386 C383 1.526 . S
C386 C387 1.396 . S
C386 C391 1.390 . S
C387 C381 1.465 1_655 S
C387 C386 1.396 . S
C387 C388 1.399 . S
C388 H374 0.918 1_655 S
C388 C387 1.399 . S
C388 C389 1.385 . S
C389 H375 0.931 . S
C389 C388 1.385 . S
C389 C390 1.389 . S
C390 C389 1.389 . S
C390 C391 1.387 . S
C391 H376 0.930 . S
C391 C386 1.390 . S
C391 C390 1.387 . S
H392 C404 0.930 . S
H393 C406 0.930 . S
H394 C407 0.930 . S
H395 C411 0.959 . S
H396 C411 0.959 . S
H397 C411 0.961 . S
H398 C412 0.960 . S
H399 C412 0.961 . S
H400 C412 0.959 . S
H401 C415 0.929 1_545 S
H402 C416 0.931 . S
H403 C418 0.930 . S
C404 H392 0.930 . S
C404 C405 1.399 . S
C404 C409 1.399 . S
C405 C404 1.399 . S
C405 C406 1.376 . S
C406 H393 0.930 . S
C406 C405 1.376 . S
C406 C407 1.388 . S
C407 H394 0.930 . S
C407 C406 1.388 . S
C407 C408 1.390 . S
C408 C407 1.390 . S
C408 C409 1.394 . S
C408 C414 1.465 1_545 S
C409 C404 1.399 . S
C409 C408 1.394 . S
C409 C410 1.516 1_545 S
C410 C409 1.516 1_565 S
C410 C411 1.502 . S
C410 C412 1.561 . S
C410 C413 1.526 . S
C411 H395 0.959 . S
C411 H396 0.959 . S
C411 H397 0.961 . S
C411 C410 1.502 . S
C412 H398 0.960 . S
C412 H399 0.961 . S
C412 H400 0.959 . S
C412 C410 1.561 . S
C413 C410 1.526 . S
C413 C414 1.396 . S
C413 C418 1.390 . S
C414 C408 1.465 1_565 S
C414 C413 1.396 . S
C414 C415 1.399 . S
C415 H401 0.929 1_565 S
C415 C414 1.399 . S
C415 C416 1.385 . S
C416 H402 0.931 . S
C416 C415 1.385 . S
C416 C417 1.389 . S
C417 C416 1.389 . S
C417 C418 1.387 . S
C418 H403 0.930 . S
C418 C413 1.390 . S
C418 C417 1.387 . S
H419 C431 0.930 . S
H420 C433 0.930 . S
H421 C434 0.930 . S
H422 C438 0.959 . S
H423 C438 0.959 . S
H424 C438 0.961 . S
H425 C439 0.960 . S
H426 C439 0.961 . S
H427 C439 0.959 . S
H428 C442 0.929 . S
H429 C443 0.931 . S
H430 C445 0.930 . S
C431 H419 0.930 . S
C431 C432 1.399 . S
C431 C436 1.399 . S
C432 C431 1.399 . S
C432 C433 1.376 . S
C433 H420 0.930 . S
C433 C432 1.376 . S
C433 C434 1.388 . S
C434 H421 0.930 . S
C434 C433 1.388 . S
C434 C435 1.390 . S
C435 C434 1.390 . S
C435 C436 1.394 . S
C435 C441 1.465 . S
C436 C431 1.399 . S
C436 C435 1.394 . S
C436 C437 1.516 . S
C437 C436 1.516 . S
C437 C438 1.502 . S
C437 C439 1.561 . S
C437 C440 1.526 . S
C438 H422 0.959 . S
C438 H423 0.959 . S
C438 H424 0.961 . S
C438 C437 1.502 . S
C439 H425 0.960 . S
C439 H426 0.961 . S
C439 H427 0.959 . S
C439 C437 1.561 . S
C440 C437 1.526 . S
C440 C441 1.396 . S
C440 C445 1.390 . S
C441 C435 1.465 . S
C441 C440 1.396 . S
C441 C442 1.399 . S
C442 H428 0.929 . S
C442 C441 1.399 . S
C442 C443 1.385 . S
C443 H429 0.931 . S
C443 C442 1.385 . S
C443 C444 1.389 . S
C444 C443 1.389 . S
C444 C445 1.387 . S
C445 H430 0.930 . S
C445 C440 1.390 . S
C445 C444 1.387 . S
H446 C458 0.930 . S
H447 C460 0.930 . S
H448 C461 0.930 . S
H449 C465 0.946 1_556 S
H450 C465 0.959 . S
H451 C465 0.961 . S
H452 C466 0.960 . S
H453 C466 0.961 . S
H454 C466 0.959 . S
H455 C469 0.929 . S
H456 C470 0.931 . S
H457 C472 0.930 . S
C458 H446 0.930 . S
C458 C459 1.399 1_554 S
C458 C463 1.399 1_564 S
C459 C458 1.399 1_556 S
C459 C460 1.376 . S
C460 H447 0.930 . S
C460 C459 1.376 . S
C460 C461 1.388 . S
C461 H448 0.930 . S
C461 C460 1.388 . S
C461 C462 1.407 . S
C462 C461 1.407 . S
C462 C463 1.391 1_565 S
C462 C468 1.449 1_565 S
C463 C458 1.399 1_546 S
C463 C462 1.391 1_545 S
C463 C464 1.516 . S
C464 C463 1.516 . S
C464 C465 1.502 1_556 S
C464 C466 1.561 1_556 S
C464 C467 1.526 . S
C465 H449 0.946 1_554 S
C465 H450 0.959 . S
C465 H451 0.961 . S
C465 C464 1.502 1_554 S
C466 H452 0.960 . S
C466 H453 0.961 . S
C466 H454 0.959 . S
C466 C464 1.561 1_554 S
C467 C464 1.526 . S
C467 C468 1.396 . S
C467 C472 1.390 . S
C468 C462 1.449 1_545 S
C468 C467 1.396 . S
C468 C469 1.399 . S
C469 H455 0.929 . S
C469 C468 1.399 . S
C469 C470 1.385 . S
C470 H456 0.931 . S
C470 C469 1.385 . S
C470 C471 1.389 . S
C471 C470 1.389 . S
C471 C472 1.387 . S
C472 H457 0.930 . S
C472 C467 1.390 . S
C472 C471 1.387 . S
H473 C485 0.930 . S
H474 C487 0.930 . S
H475 C488 0.930 . S
H476 C492 0.959 . S
H477 C492 0.959 . S
H478 C492 0.961 . S
H479 C493 0.960 . S
H480 C493 0.961 . S
H481 C493 0.959 . S
H482 C496 0.929 . S
H483 C497 0.931 . S
H484 C499 0.930 . S
C485 H473 0.930 . S
C485 C486 1.399 . S
C485 C490 1.399 . S
C486 C485 1.399 . S
C486 C487 1.376 . S
C487 H474 0.930 . S
C487 C486 1.376 . S
C487 C488 1.388 . S
C488 H475 0.930 . S
C488 C487 1.388 . S
C488 C489 1.390 . S
C489 C488 1.390 . S
C489 C490 1.394 . S
C489 C495 1.465 . S
C490 C485 1.399 . S
C490 C489 1.394 . S
C490 C491 1.516 . S
C491 C490 1.516 . S
C491 C492 1.502 . S
C491 C493 1.561 . S
C491 C494 1.526 . S
C492 H476 0.959 . S
C492 H477 0.959 . S
C492 H478 0.961 . S
C492 C491 1.502 . S
C493 H479 0.960 . S
C493 H480 0.961 . S
C493 H481 0.959 . S
C493 C491 1.561 . S
C494 C491 1.526 . S
C494 C495 1.396 . S
C494 C499 1.390 . S
C495 C489 1.465 . S
C495 C494 1.396 . S
C495 C496 1.399 . S
C496 H482 0.929 . S
C496 C495 1.399 . S
C496 C497 1.385 . S
C497 H483 0.931 . S
C497 C496 1.385 . S
C497 C498 1.389 . S
C498 C497 1.389 . S
C498 C499 1.387 . S
C499 H484 0.930 . S
C499 C494 1.390 . S
C499 C498 1.387 . S
H500 C512 0.930 . S
H501 C514 0.930 . S
H502 C515 0.930 . S
H503 C519 0.959 . S
H504 C519 0.959 . S
H505 C519 0.961 . S
H506 C520 0.960 . S
H507 C520 0.961 . S
H508 C520 0.959 . S
H509 C523 0.929 . S
H510 C524 0.931 . S
H511 C526 0.930 . S
C512 H500 0.930 . S
C512 C513 1.399 . S
C512 C517 1.399 . S
C513 C512 1.399 . S
C513 C514 1.376 . S
C514 H501 0.930 . S
C514 C513 1.376 . S
C514 C515 1.388 . S
C515 H502 0.930 . S
C515 C514 1.388 . S
C515 C516 1.390 . S
C516 C515 1.390 . S
C516 C517 1.394 . S
C516 C522 1.465 . S
C517 C512 1.399 . S
C517 C516 1.394 . S
C517 C518 1.516 . S
C518 C517 1.516 . S
C518 C519 1.502 . S
C518 C520 1.561 . S
C518 C521 1.526 . S
C519 H503 0.959 . S
C519 H504 0.959 . S
C519 H505 0.961 . S
C519 C518 1.502 . S
C520 H506 0.960 . S
C520 H507 0.961 . S
C520 H508 0.959 . S
C520 C518 1.561 . S
C521 C518 1.526 . S
C521 C522 1.396 . S
C521 C526 1.390 . S
C522 C516 1.465 . S
C522 C521 1.396 . S
C522 C523 1.399 . S
C523 H509 0.929 . S
C523 C522 1.399 . S
C523 C524 1.385 . S
C524 H510 0.931 . S
C524 C523 1.385 . S
C524 C525 1.389 . S
C525 C524 1.389 . S
C525 C526 1.387 . S
C526 H511 0.930 . S
C526 C521 1.390 . S
C526 C525 1.387 . S
H527 C539 0.931 . S
H528 C541 0.930 . S
H529 C542 0.930 . S
H530 C546 0.959 . S
H531 C546 0.959 . S
H532 C546 0.961 . S
H533 C547 0.960 . S
H534 C547 0.961 . S
H535 C547 0.959 . S
H536 C550 0.929 . S
H537 C551 0.931 . S
H538 C553 0.930 . S
C539 H527 0.931 . S
C539 C540 1.401 . S
C539 C544 1.395 1_455 S
C540 C539 1.401 . S
C540 C541 1.376 . S
C541 H528 0.930 . S
C541 C540 1.376 . S
C541 C542 1.388 1_455 S
C542 H529 0.930 . S
C542 C541 1.388 1_655 S
C542 C543 1.390 . S
C543 C542 1.390 . S
C543 C544 1.394 . S
C543 C549 1.465 . S
C544 C539 1.395 1_655 S
C544 C543 1.394 . S
C544 C545 1.516 . S
C545 C544 1.516 . S
C545 C546 1.502 . S
C545 C547 1.561 . S
C545 C548 1.526 . S
C546 H530 0.959 . S
C546 H531 0.959 . S
C546 H532 0.961 . S
C546 C545 1.502 . S
C547 H533 0.960 . S
C547 H534 0.961 . S
C547 H535 0.959 . S
C547 C545 1.561 . S
C548 C545 1.526 . S
C548 C549 1.396 . S
C548 C553 1.390 . S
C549 C543 1.465 . S
C549 C548 1.396 . S
C549 C550 1.399 . S
C550 H536 0.929 . S
C550 C549 1.399 . S
C550 C551 1.385 . S
C551 H537 0.931 . S
C551 C550 1.385 . S
C551 C552 1.389 . S
C552 C551 1.389 . S
C552 C553 1.387 . S
C553 H538 0.930 . S
C553 C548 1.390 . S
C553 C552 1.387 . S
H554 C566 0.930 . S
H555 C568 0.930 . S
H556 C569 0.930 . S
H557 C573 0.959 . S
H558 C573 0.959 . S
H559 C573 0.961 . S
H560 C574 0.960 . S
H561 C574 0.961 . S
H562 C574 0.959 . S
H563 C577 0.929 . S
H564 C578 0.931 . S
H565 C580 0.930 . S
C566 H554 0.930 . S
C566 C567 1.399 . S
C566 C571 1.399 . S
C567 C566 1.399 . S
C567 C568 1.376 . S
C568 H555 0.930 . S
C568 C567 1.376 . S
C568 C569 1.388 . S
C569 H556 0.930 . S
C569 C568 1.388 . S
C569 C570 1.390 . S
C570 C569 1.390 . S
C570 C571 1.394 . S
C570 C576 1.465 . S
C571 C566 1.399 . S
C571 C570 1.394 . S
C571 C572 1.516 . S
C572 C571 1.516 . S
C572 C573 1.502 . S
C572 C574 1.561 . S
C572 C575 1.526 . S
C573 H557 0.959 . S
C573 H558 0.959 . S
C573 H559 0.961 . S
C573 C572 1.502 . S
C574 H560 0.960 . S
C574 H561 0.961 . S
C574 H562 0.959 . S
C574 C572 1.561 . S
C575 C572 1.526 . S
C575 C576 1.396 . S
C575 C580 1.390 . S
C576 C570 1.465 . S
C576 C575 1.396 . S
C576 C577 1.399 . S
C577 H563 0.929 . S
C577 C576 1.399 . S
C577 C578 1.385 . S
C578 H564 0.931 . S
C578 C577 1.385 . S
C578 C579 1.389 . S
C579 C578 1.389 . S
C579 C580 1.387 . S
C580 H565 0.930 . S
C580 C575 1.390 . S
C580 C579 1.387 . S
H581 C593 0.930 . S
H582 C595 0.930 . S
H583 C596 0.930 1_455 S
H584 C600 0.959 . S
H585 C600 0.959 . S
H586 C600 0.961 . S
H587 C601 0.975 . S
H588 C601 0.955 1_455 S
H589 C601 0.939 1_455 S
H590 C604 0.929 . S
H591 C605 0.931 . S
H592 C607 0.930 . S
C593 H581 0.930 . S
C593 C594 1.399 . S
C593 C598 1.399 . S
C594 C593 1.399 . S
C594 C595 1.376 . S
C595 H582 0.930 . S
C595 C594 1.376 . S
C595 C596 1.388 . S
C596 H583 0.930 1_655 S
C596 C595 1.388 . S
C596 C597 1.390 . S
C597 C596 1.390 . S
C597 C598 1.394 . S
C597 C603 1.465 1_655 S
C598 C593 1.399 . S
C598 C597 1.394 . S
C598 C599 1.516 . S
C599 C598 1.516 . S
C599 C600 1.502 . S
C599 C601 1.573 . S
C599 C602 1.526 1_655 S
C600 H584 0.959 . S
C600 H585 0.959 . S
C600 H586 0.961 . S
C600 C599 1.502 . S
C601 H587 0.975 . S
C601 H588 0.955 1_655 S
C601 H589 0.939 1_655 S
C601 C599 1.573 . S
C602 C599 1.526 1_455 S
C602 C603 1.396 . S
C602 C607 1.390 . S
C603 C597 1.465 1_455 S
C603 C602 1.396 . S
C603 C604 1.399 . S
C604 H590 0.929 . S
C604 C603 1.399 . S
C604 C605 1.385 . S
C605 H591 0.931 . S
C605 C604 1.385 . S
C605 C606 1.389 . S
C606 C605 1.389 . S
C606 C607 1.387 . S
C607 H592 0.930 . S
C607 C602 1.390 . S
C607 C606 1.387 . S
H608 C620 0.930 . S
H609 C622 0.930 . S
H610 C623 0.930 . S
H611 C627 0.959 . S
H612 C627 0.959 . S
H613 C627 0.961 . S
H614 C628 0.960 . S
H615 C628 0.961 . S
H616 C628 0.959 . S
H617 C631 0.929 . S
H618 C632 0.931 . S
H619 C634 0.930 . S
C620 H608 0.930 . S
C620 C621 1.399 . S
C620 C625 1.399 . S
C621 C620 1.399 . S
C621 C622 1.376 . S
C622 H609 0.930 . S
C622 C621 1.376 . S
C622 C623 1.388 . S
C623 H610 0.930 . S
C623 C622 1.388 . S
C623 C624 1.390 . S
C624 C623 1.390 . S
C624 C625 1.394 . S
C624 C630 1.465 . S
C625 C620 1.399 . S
C625 C624 1.394 . S
C625 C626 1.516 . S
C626 C625 1.516 . S
C626 C627 1.502 . S
C626 C628 1.561 . S
C626 C629 1.526 . S
C627 H611 0.959 . S
C627 H612 0.959 . S
C627 H613 0.961 . S
C627 C626 1.502 . S
C628 H614 0.960 . S
C628 H615 0.961 . S
C628 H616 0.959 . S
C628 C626 1.561 . S
C629 C626 1.526 . S
C629 C630 1.396 . S
C629 C634 1.390 . S
C630 C624 1.465 . S
C630 C629 1.396 . S
C630 C631 1.399 . S
C631 H617 0.929 . S
C631 C630 1.399 . S
C631 C632 1.385 . S
C632 H618 0.931 . S
C632 C631 1.385 . S
C632 C633 1.389 . S
C633 C632 1.389 . S
C633 C634 1.387 . S
C634 H619 0.930 . S
C634 C629 1.390 . S
C634 C633 1.387 . S
H635 C647 0.930 . S
H636 C649 0.930 . S
H637 C650 0.930 . S
H638 C654 0.959 . S
H639 C654 0.959 . S
H640 C654 0.961 . S
H641 C655 0.960 . S
H642 C655 0.961 . S
H643 C655 0.959 . S
H644 C658 0.929 . S
H645 C659 0.931 . S
H646 C661 0.930 . S
C647 H635 0.930 . S
C647 C648 1.399 . S
C647 C652 1.399 . S
C648 C647 1.399 . S
C648 C649 1.376 . S
C649 H636 0.930 . S
C649 C648 1.376 . S
C649 C650 1.388 . S
C650 H637 0.930 . S
C650 C649 1.388 . S
C650 C651 1.390 . S
C651 C650 1.390 . S
C651 C652 1.394 . S
C651 C657 1.465 . S
C652 C647 1.399 . S
C652 C651 1.394 . S
C652 C653 1.516 . S
C653 C652 1.516 . S
C653 C654 1.502 . S
C653 C655 1.561 . S
C653 C656 1.526 . S
C654 H638 0.959 . S
C654 H639 0.959 . S
C654 H640 0.961 . S
C654 C653 1.502 . S
C655 H641 0.960 . S
C655 H642 0.961 . S
C655 H643 0.959 . S
C655 C653 1.561 . S
C656 C653 1.526 . S
C656 C657 1.396 . S
C656 C661 1.390 . S
C657 C651 1.465 . S
C657 C656 1.396 . S
C657 C658 1.399 . S
C658 H644 0.929 . S
C658 C657 1.399 . S
C658 C659 1.385 . S
C659 H645 0.931 . S
C659 C658 1.385 . S
C659 C660 1.389 . S
C660 C659 1.389 . S
C660 C661 1.387 . S
C661 H646 0.930 . S
C661 C656 1.390 . S
C661 C660 1.387 . S
H662 C674 0.930 . S
H663 C676 0.930 . S
H664 C677 0.930 . S
H665 C681 0.959 . S
H666 C681 0.959 . S
H667 C681 0.961 . S
H668 C682 0.960 . S
H669 C682 0.961 . S
H670 C682 0.959 . S
H671 C685 0.929 . S
H672 C686 0.931 . S
H673 C688 0.930 . S
C674 H662 0.930 . S
C674 C675 1.399 . S
C674 C679 1.399 . S
C675 C674 1.399 . S
C675 C676 1.376 . S
C676 H663 0.930 . S
C676 C675 1.376 . S
C676 C677 1.388 . S
C677 H664 0.930 . S
C677 C676 1.388 . S
C677 C678 1.390 . S
C678 C677 1.390 . S
C678 C679 1.394 . S
C678 C684 1.465 . S
C679 C674 1.399 . S
C679 C678 1.394 . S
C679 C680 1.516 . S
C680 C679 1.516 . S
C680 C681 1.502 . S
C680 C682 1.561 . S
C680 C683 1.526 . S
C681 H665 0.959 . S
C681 H666 0.959 . S
C681 H667 0.961 . S
C681 C680 1.502 . S
C682 H668 0.960 . S
C682 H669 0.961 . S
C682 H670 0.959 . S
C682 C680 1.561 . S
C683 C680 1.526 . S
C683 C684 1.396 . S
C683 C688 1.390 . S
C684 C678 1.465 . S
C684 C683 1.396 . S
C684 C685 1.399 . S
C685 H671 0.929 . S
C685 C684 1.399 . S
C685 C686 1.385 . S
C686 H672 0.931 . S
C686 C685 1.385 . S
C686 C687 1.389 . S
C687 C686 1.389 . S
C687 C688 1.387 . S
C688 H673 0.930 . S
C688 C683 1.390 . S
C688 C687 1.387 . S
H689 C701 0.930 . S
H690 C703 0.930 . S
H691 C704 0.930 . S
H692 C708 0.959 . S
H693 C708 0.959 . S
H694 C708 0.961 . S
H695 C709 0.960 . S
H696 C709 0.961 . S
H697 C709 0.959 . S
H698 C712 0.929 . S
H699 C713 0.931 . S
H700 C715 0.930 . S
C701 H689 0.930 . S
C701 C702 1.399 . S
C701 C706 1.399 . S
C702 C701 1.399 . S
C702 C703 1.376 . S
C703 H690 0.930 . S
C703 C702 1.376 . S
C703 C704 1.388 . S
C704 H691 0.930 . S
C704 C703 1.388 . S
C704 C705 1.390 . S
C705 C704 1.390 . S
C705 C706 1.394 . S
C705 C711 1.465 . S
C706 C701 1.399 . S
C706 C705 1.394 . S
C706 C707 1.516 . S
C707 C706 1.516 . S
C707 C708 1.502 . S
C707 C709 1.561 . S
C707 C710 1.526 . S
C708 H692 0.959 . S
C708 H693 0.959 . S
C708 H694 0.961 . S
C708 C707 1.502 . S
C709 H695 0.960 . S
C709 H696 0.961 . S
C709 H697 0.959 . S
C709 C707 1.561 . S
C710 C707 1.526 . S
C710 C711 1.396 . S
C710 C715 1.390 . S
C711 C705 1.465 . S
C711 C710 1.396 . S
C711 C712 1.399 . S
C712 H698 0.929 . S
C712 C711 1.399 . S
C712 C713 1.385 . S
C713 H699 0.931 . S
C713 C712 1.385 . S
C713 C714 1.389 . S
C714 C713 1.389 . S
C714 C715 1.387 . S
C715 H700 0.930 . S
C715 C710 1.390 . S
C715 C714 1.387 . S
H716 C728 0.930 . S
H717 C730 0.930 . S
H718 C731 0.930 . S
H719 C735 0.959 . S
H720 C735 0.959 . S
H721 C735 0.961 . S
H722 C736 0.960 . S
H723 C736 0.961 . S
H724 C736 0.959 . S
H725 C739 0.929 . S
H726 C740 0.931 . S
H727 C742 0.930 . S
C728 H716 0.930 . S
C728 C729 1.399 . S
C728 C733 1.399 . S
C729 C728 1.399 . S
C729 C730 1.376 . S
C730 H717 0.930 . S
C730 C729 1.376 . S
C730 C731 1.388 . S
C731 H718 0.930 . S
C731 C730 1.388 . S
C731 C732 1.390 . S
C732 C731 1.390 . S
C732 C733 1.394 . S
C732 C738 1.465 . S
C733 C728 1.399 . S
C733 C732 1.394 . S
C733 C734 1.516 . S
C734 C733 1.516 . S
C734 C735 1.502 . S
C734 C736 1.561 . S
C734 C737 1.526 . S
C735 H719 0.959 . S
C735 H720 0.959 . S
C735 H721 0.961 . S
C735 C734 1.502 . S
C736 H722 0.960 . S
C736 H723 0.961 . S
C736 H724 0.959 . S
C736 C734 1.561 . S
C737 C734 1.526 . S
C737 C738 1.396 . S
C737 C742 1.390 . S
C738 C732 1.465 . S
C738 C737 1.396 . S
C738 C739 1.399 . S
C739 H725 0.929 . S
C739 C738 1.399 . S
C739 C740 1.385 . S
C740 H726 0.931 . S
C740 C739 1.385 . S
C740 C741 1.389 . S
C741 C740 1.389 . S
C741 C742 1.387 . S
C742 H727 0.930 . S
C742 C737 1.390 . S
C742 C741 1.387 . S
H743 C755 0.930 . S
H744 C757 0.930 . S
H745 C758 0.930 . S
H746 C762 0.959 . S
H747 C762 0.959 . S
H748 C762 0.961 . S
H749 C763 0.960 . S
H750 C763 0.961 . S
H751 C763 0.959 . S
H752 C766 0.929 . S
H753 C767 0.931 . S
H754 C769 0.930 . S
C755 H743 0.930 . S
C755 C756 1.399 . S
C755 C760 1.399 . S
C756 C755 1.399 . S
C756 C757 1.376 . S
C757 H744 0.930 . S
C757 C756 1.376 . S
C757 C758 1.388 . S
C758 H745 0.930 . S
C758 C757 1.388 . S
C758 C759 1.390 . S
C759 C758 1.390 . S
C759 C760 1.394 . S
C759 C765 1.465 . S
C760 C755 1.399 . S
C760 C759 1.394 . S
C760 C761 1.516 . S
C761 C760 1.516 . S
C761 C762 1.502 . S
C761 C763 1.561 . S
C761 C764 1.526 . S
C762 H746 0.959 . S
C762 H747 0.959 . S
C762 H748 0.961 . S
C762 C761 1.502 . S
C763 H749 0.960 . S
C763 H750 0.961 . S
C763 H751 0.959 . S
C763 C761 1.561 . S
C764 C761 1.526 . S
C764 C765 1.396 . S
C764 C769 1.390 . S
C765 C759 1.465 . S
C765 C764 1.396 . S
C765 C766 1.399 . S
C766 H752 0.929 . S
C766 C765 1.399 . S
C766 C767 1.385 . S
C767 H753 0.931 . S
C767 C766 1.385 . S
C767 C768 1.389 . S
C768 C767 1.389 . S
C768 C769 1.387 . S
C769 H754 0.930 . S
C769 C764 1.390 . S
C769 C768 1.387 . S
H770 C782 0.930 . S
H771 C784 0.930 . S
H772 C785 0.930 . S
H773 C789 0.959 . S
H774 C789 0.959 . S
H775 C789 0.961 . S
H776 C790 0.960 . S
H777 C790 0.961 . S
H778 C790 0.959 . S
H779 C793 0.929 . S
H780 C794 0.931 . S
H781 C796 0.930 . S
C782 H770 0.930 . S
C782 C783 1.399 . S
C782 C787 1.399 . S
C783 C782 1.399 . S
C783 C784 1.376 . S
C784 H771 0.930 . S
C784 C783 1.376 . S
C784 C785 1.388 . S
C785 H772 0.930 . S
C785 C784 1.388 . S
C785 C786 1.390 . S
C786 C785 1.390 . S
C786 C787 1.394 . S
C786 C792 1.465 . S
C787 C782 1.399 . S
C787 C786 1.394 . S
C787 C788 1.516 . S
C788 C787 1.516 . S
C788 C789 1.502 . S
C788 C790 1.561 . S
C788 C791 1.526 . S
C789 H773 0.959 . S
C789 H774 0.959 . S
C789 H775 0.961 . S
C789 C788 1.502 . S
C790 H776 0.960 . S
C790 H777 0.961 . S
C790 H778 0.959 . S
C790 C788 1.561 . S
C791 C788 1.526 . S
C791 C792 1.396 . S
C791 C796 1.390 . S
C792 C786 1.465 . S
C792 C791 1.396 . S
C792 C793 1.399 . S
C793 H779 0.929 . S
C793 C792 1.399 . S
C793 C794 1.385 . S
C794 H780 0.931 . S
C794 C793 1.385 . S
C794 C795 1.389 . S
C795 C794 1.389 . S
C795 C796 1.387 . S
C796 H781 0.930 . S
C796 C791 1.390 . S
C796 C795 1.387 . S
H797 C809 0.930 1_554 S
H798 C811 0.930 . S
H799 C812 0.930 . S
H800 C816 0.959 . S
H801 C816 0.959 1_554 S
H802 C816 0.961 1_554 S
H803 C817 0.960 . S
H804 C817 0.961 . S
H805 C817 0.959 1_556 S
H806 C820 0.929 . S
H807 C821 0.931 . S
H808 C823 0.930 . S
C809 H797 0.930 1_556 S
C809 C810 1.399 . S
C809 C814 1.399 . S
C810 C809 1.399 . S
C810 C811 1.376 . S
C811 H798 0.930 . S
C811 C810 1.376 . S
C811 C812 1.388 . S
C812 H799 0.930 . S
C812 C811 1.388 . S
C812 C813 1.390 . S
C813 C812 1.390 . S
C813 C814 1.394 . S
C813 C819 1.465 . S
C814 C809 1.399 . S
C814 C813 1.394 . S
C814 C815 1.516 . S
C815 C814 1.516 . S
C815 C816 1.502 . S
C815 C817 1.561 1_556 S
C815 C818 1.526 . S
C816 H800 0.959 . S
C816 H801 0.959 1_556 S
C816 H802 0.961 1_556 S
C816 C815 1.502 . S
C817 H803 0.960 . S
C817 H804 0.961 . S
C817 H805 0.959 1_554 S
C817 C815 1.561 1_554 S
C818 C815 1.526 . S
C818 C819 1.396 . S
C818 C823 1.390 . S
C819 C813 1.465 . S
C819 C818 1.396 . S
C819 C820 1.399 . S
C820 H806 0.929 . S
C820 C819 1.399 . S
C820 C821 1.385 . S
C821 H807 0.931 . S
C821 C820 1.385 . S
C821 C822 1.389 . S
C822 C821 1.389 . S
C822 C823 1.387 . S
C823 H808 0.930 . S
C823 C818 1.390 . S
C823 C822 1.387 . S
C189 C7 1.448 . S
C201 C93 1.385 . S
C216 C37 1.374 . S
C228 C104 1.263 . S
C243 C54 1.321 . S
C255 C114 1.256 . S
C282 C126 1.332 . S
C270 C87 1.375 . S
C309 C137 1.310 . S
C297 C30 1.410 . S
C324 C51 1.383 . S
C336 C148 1.342 . S
C351 C84 1.385 . S
C363 C158 1.295 . S
C378 C10 1.371 . S
C390 C170 1.332 . S
C405 C59 1.352 . S
C417 C169 1.345 . S
C444 C136 1.139 . S
C432 C74 1.180 . S
C471 C147 1.303 . S
C459 C18 1.353 1_556 S
C486 C32 1.404 . S
C498 C159 1.402 . S
C525 C103 1.271 . S
C513 C73 1.309 . S
C540 C15 1.386 . S
C552 C115 1.407 . S
C579 C125 1.295 . S
C567 C43 1.329 . S
C606 C92 1.153 . S
C594 C62 1.195 . S
C633 C164 1.435 . S
C621 C21 1.468 . S
C660 C175 1.444 . S
C648 C29 1.404 . S
C675 C52 1.340 . S
C687 C142 1.349 . S
C714 C153 1.370 . S
C702 C81 1.408 . S
C741 C120 1.423 . S
C729 C40 1.440 . S
C756 C65 1.425 . S
C768 C131 1.409 . S
C795 C98 1.335 . S
C783 C76 1.356 . S
C822 C109 1.415 . S
C810 C8 1.444 1_556 S
