# Generated by pormake.
# Topology bwt, (3,3)-cn, num edge types: 1
# Building blocks:
#     Node 0, Type 0, BuildingBlock: OLANEW_clean_sbu_2, # of connection points: 3
#     Node 1, Type 0, BuildingBlock: OLANEW_clean_sbu_2, # of connection points: 3
#     Node 2, Type 0, BuildingBlock: OLANEW_clean_sbu_2, # of connection points: 3
#     Node 3, Type 0, BuildingBlock: OLANEW_clean_sbu_2, # of connection points: 3
#     Node 4, Type 0, BuildingBlock: OLANEW_clean_sbu_2, # of connection points: 3
#     Node 5, Type 0, BuildingBlock: OLANEW_clean_sbu_2, # of connection points: 3
#     Node 6, Type 0, BuildingBlock: OLANEW_clean_sbu_2, # of connection points: 3
#     Node 7, Type 0, BuildingBlock: OLANEW_clean_sbu_2, # of connection points: 3
#     Node 8, Type 0, BuildingBlock: OLANEW_clean_sbu_2, # of connection points: 3
#     Node 9, Type 0, BuildingBlock: OLANEW_clean_sbu_2, # of connection points: 3
#     Node 10, Type 0, BuildingBlock: OLANEW_clean_sbu_2, # of connection points: 3
#     Node 11, Type 0, BuildingBlock: OLANEW_clean_sbu_2, # of connection points: 3
#     Node 12, Type 0, BuildingBlock: OLANEW_clean_sbu_2, # of connection points: 3
#     Node 13, Type 0, BuildingBlock: OLANEW_clean_sbu_2, # of connection points: 3
#     Node 14, Type 0, BuildingBlock: OLANEW_clean_sbu_2, # of connection points: 3
#     Node 15, Type 0, BuildingBlock: OLANEW_clean_sbu_2, # of connection points: 3
#     Node 16, Type 0, BuildingBlock: OLANEW_clean_sbu_2, # of connection points: 3
#     Node 17, Type 0, BuildingBlock: OLANEW_clean_sbu_2, # of connection points: 3
#     Node 18, Type 0, BuildingBlock: OLANEW_clean_sbu_2, # of connection points: 3
#     Node 19, Type 0, BuildingBlock: OLANEW_clean_sbu_2, # of connection points: 3
#     Node 20, Type 0, BuildingBlock: OLANEW_clean_sbu_2, # of connection points: 3
#     Node 21, Type 0, BuildingBlock: OLANEW_clean_sbu_2, # of connection points: 3
#     Node 22, Type 0, BuildingBlock: OLANEW_clean_sbu_2, # of connection points: 3
#     Node 23, Type 0, BuildingBlock: OLANEW_clean_sbu_2, # of connection points: 3
#     Node 24, Type 1, BuildingBlock: VETTIZ_charged_linker_0, # of connection points: 3
#     Node 25, Type 1, BuildingBlock: VETTIZ_charged_linker_0, # of connection points: 3
#     Node 26, Type 1, BuildingBlock: VETTIZ_charged_linker_0, # of connection points: 3
#     Node 27, Type 1, BuildingBlock: VETTIZ_charged_linker_0, # of connection points: 3
#     Node 28, Type 1, BuildingBlock: VETTIZ_charged_linker_0, # of connection points: 3
#     Node 29, Type 1, BuildingBlock: VETTIZ_charged_linker_0, # of connection points: 3
#     Node 30, Type 1, BuildingBlock: VETTIZ_charged_linker_0, # of connection points: 3
#     Node 31, Type 1, BuildingBlock: VETTIZ_charged_linker_0, # of connection points: 3
#     Node 32, Type 1, BuildingBlock: VETTIZ_charged_linker_0, # of connection points: 3
#     Node 33, Type 1, BuildingBlock: VETTIZ_charged_linker_0, # of connection points: 3
#     Node 34, Type 1, BuildingBlock: VETTIZ_charged_linker_0, # of connection points: 3
#     Node 35, Type 1, BuildingBlock: VETTIZ_charged_linker_0, # of connection points: 3
#     Node 36, Type 1, BuildingBlock: VETTIZ_charged_linker_0, # of connection points: 3
#     Node 37, Type 1, BuildingBlock: VETTIZ_charged_linker_0, # of connection points: 3
#     Node 38, Type 1, BuildingBlock: VETTIZ_charged_linker_0, # of connection points: 3
#     Node 39, Type 1, BuildingBlock: VETTIZ_charged_linker_0, # of connection points: 3
#     Node 40, Type 1, BuildingBlock: VETTIZ_charged_linker_0, # of connection points: 3
#     Node 41, Type 1, BuildingBlock: VETTIZ_charged_linker_0, # of connection points: 3
#     Node 42, Type 1, BuildingBlock: VETTIZ_charged_linker_0, # of connection points: 3
#     Node 43, Type 1, BuildingBlock: VETTIZ_charged_linker_0, # of connection points: 3
#     Node 44, Type 1, BuildingBlock: VETTIZ_charged_linker_0, # of connection points: 3
#     Node 45, Type 1, BuildingBlock: VETTIZ_charged_linker_0, # of connection points: 3
#     Node 46, Type 1, BuildingBlock: VETTIZ_charged_linker_0, # of connection points: 3
#     Node 47, Type 1, BuildingBlock: VETTIZ_charged_linker_0, # of connection points: 3
#     Edge 48, Type (0, 1), None
#     Edge 49, Type (0, 1), None
#     Edge 50, Type (0, 1), None
#     Edge 51, Type (0, 1), None
#     Edge 52, Type (0, 1), None
#     Edge 53, Type (0, 1), None
#     Edge 54, Type (0, 1), None
#     Edge 55, Type (0, 1), None
#     Edge 56, Type (0, 1), None
#     Edge 57, Type (0, 1), None
#     Edge 58, Type (0, 1), None
#     Edge 59, Type (0, 1), None
#     Edge 60, Type (0, 1), None
#     Edge 61, Type (0, 1), None
#     Edge 62, Type (0, 1), None
#     Edge 63, Type (0, 1), None
#     Edge 64, Type (0, 1), None
#     Edge 65, Type (0, 1), None
#     Edge 66, Type (0, 1), None
#     Edge 67, Type (0, 1), None
#     Edge 68, Type (0, 1), None
#     Edge 69, Type (0, 1), None
#     Edge 70, Type (0, 1), None
#     Edge 71, Type (0, 1), None
#     Edge 72, Type (0, 1), None
#     Edge 73, Type (0, 1), None
#     Edge 74, Type (0, 1), None
#     Edge 75, Type (0, 1), None
#     Edge 76, Type (0, 1), None
#     Edge 77, Type (0, 1), None
#     Edge 78, Type (0, 1), None
#     Edge 79, Type (0, 1), None
#     Edge 80, Type (0, 1), None
#     Edge 81, Type (0, 1), None
#     Edge 82, Type (0, 1), None
#     Edge 83, Type (0, 1), None
#     Edge 84, Type (0, 1), None
#     Edge 85, Type (0, 1), None
#     Edge 86, Type (0, 1), None
#     Edge 87, Type (0, 1), None
#     Edge 88, Type (0, 1), None
#     Edge 89, Type (0, 1), None
#     Edge 90, Type (0, 1), None
#     Edge 91, Type (0, 1), None
#     Edge 92, Type (0, 1), None
#     Edge 93, Type (0, 1), None
#     Edge 94, Type (0, 1), None
#     Edge 95, Type (0, 1), None
#     Edge 96, Type (0, 1), None
#     Edge 97, Type (0, 1), None
#     Edge 98, Type (0, 1), None
#     Edge 99, Type (0, 1), None
#     Edge 100, Type (0, 1), None
#     Edge 101, Type (0, 1), None
#     Edge 102, Type (0, 1), None
#     Edge 103, Type (0, 1), None
#     Edge 104, Type (0, 1), None
#     Edge 105, Type (0, 1), None
#     Edge 106, Type (0, 1), None
#     Edge 107, Type (0, 1), None
#     Edge 108, Type (0, 1), None
#     Edge 109, Type (0, 1), None
#     Edge 110, Type (0, 1), None
#     Edge 111, Type (0, 1), None
#     Edge 112, Type (0, 1), None
#     Edge 113, Type (0, 1), None
#     Edge 114, Type (0, 1), None
#     Edge 115, Type (0, 1), None
#     Edge 116, Type (0, 1), None
#     Edge 117, Type (0, 1), None
#     Edge 118, Type (0, 1), None
#     Edge 119, Type (0, 1), None
# Relax obj value: 0.135
# Max RMSD: 0.141
# Mean RMSD: 0.101
data_MOF--net-bwt--node1-OLANEW_clean_sbu_2--node2-VETTIZ_charged_linker_0--edge1-none
_symmetry_space_group_name_H-M    P1
_symmetry_Int_Tables_number       1
_symmetry_cell_setting            triclinic
loop_
_symmetry_equiv_pos_as_xyz
'x, y, z'
_cell_length_a     39.480476
_cell_length_b     39.457176
_cell_length_c     39.461786
_cell_angle_alpha  93.811588
_cell_angle_beta   93.881931
_cell_angle_gamma 93.857064
loop_
_atom_site_label
_atom_site_type_symbol
_atom_site_fract_x
_atom_site_fract_y
_atom_site_fract_z
_atom_type_partial_charge
O0 O 0.2421 0.5454 0.29553 0.0
Cd1 Cd 0.2199 0.54662 0.23613 0.0
O2 O 0.29683 0.55335 0.28775 0.0
Cd3 Cd 0.35108 0.55645 0.30628 0.0
O4 O 0.40463 0.5463 0.31854 0.0
C5 C 0.41117 0.51514 0.31676 0.0
O6 O 0.386 0.49194 0.30841 0.0
C7 C 0.27298 0.54894 0.30751 0.0
C8 C 0.16541 0.49775 0.2202 0.0
O9 O 0.16003 0.52779 0.23208 0.0
O10 O 0.19623 0.49118 0.21577 0.0
O11 O 0.18155 0.52505 0.76805 0.0
Cd12 Cd 0.17591 0.5153 0.70584 0.0
O13 O 0.16869 0.47185 0.77855 0.0
Cd14 Cd 0.14496 0.46311 0.727 0.0
O15 O 0.09785 0.48414 0.70925 0.0
C16 C 0.06998 0.47062 0.71811 0.0
O17 O 0.07042 0.44224 0.73374 0.0
C18 C 0.17902 0.50215 0.78919 0.0
C19 C 0.24042 0.52233 0.68086 0.0
O20 O 0.2282 0.49363 0.68981 0.0
O21 O 0.22183 0.54768 0.68299 0.0
O22 O 0.79029 0.9411 0.70757 0.0
Cd23 Cd 0.80617 0.96649 0.76513 0.0
O24 O 0.78834 0.99168 0.68735 0.0
Cd25 Cd 0.82399 0.01855 0.72634 0.0
O26 O 0.87491 0.04459 0.7289 0.0
C27 C 0.89796 0.02647 0.71825 0.0
O28 O 0.89001 0.99407 0.70936 0.0
C29 C 0.78188 0.95957 0.68363 0.0
C30 C 0.75143 0.00182 0.78638 0.0
O31 O 0.75199 0.96969 0.78909 0.0
O32 O 0.77714 0.0174 0.77464 0.0
O33 O 0.73284 0.05684 0.30795 0.0
Cd34 Cd 0.74409 0.05531 0.36919 0.0
O35 O 0.68963 0.01868 0.30796 0.0
Cd36 Cd 0.64926 0.98471 0.28046 0.0
O37 O 0.60618 0.95489 0.25264 0.0
C38 C 0.5784 0.96845 0.2459 0.0
O39 O 0.57605 0.00063 0.25572 0.0
C40 C 0.71003 0.03666 0.29174 0.0
C41 C 0.79912 0.01525 0.37596 0.0
O42 O 0.76857 0.00164 0.37391 0.0
O43 O 0.80338 0.04779 0.37658 0.0
O44 O 0.265 0.31854 0.52784 0.0
Cd45 Cd 0.20376 0.30317 0.52476 0.0
O46 O 0.27049 0.3233 0.58376 0.0
Cd47 Cd 0.21651 0.33192 0.58169 0.0
O48 O 0.20419 0.37462 0.55194 0.0
C49 C 0.21592 0.40352 0.5654 0.0
O50 O 0.22972 0.40541 0.59679 0.0
C51 C 0.284 0.32202 0.55538 0.0
C52 C 0.19586 0.23239 0.51509 0.0
O53 O 0.19605 0.25116 0.4898 0.0
O54 O 0.19813 0.24715 0.54516 0.0
O55 O 0.22283 0.86635 0.07594 0.0
Cd56 Cd 0.27666 0.90149 0.08782 0.0
O57 O 0.24524 0.81793 0.08576 0.0
Cd58 Cd 0.24018 0.76202 0.08629 0.0
O59 O 0.23376 0.70643 0.07532 0.0
C60 C 0.22918 0.69572 0.04413 0.0
O61 O 0.2285 0.71818 0.02099 0.0
C62 C 0.21945 0.83426 0.07794 0.0
C63 C 0.28801 0.9477 0.03826 0.0
O64 O 0.29825 0.91755 0.03564 0.0
O65 O 0.2723 0.95628 0.06454 0.0
O66 O 0.74687 0.18343 0.43611 0.0
Cd67 Cd 0.68529 0.18441 0.4275 0.0
O68 O 0.75316 0.14349 0.39579 0.0
Cd69 Cd 0.70023 0.12296 0.39466 0.0
O70 O 0.68513 0.08059 0.42466 0.0
C71 C 0.68016 0.04963 0.41312 0.0
O72 O 0.67899 0.0422 0.38012 0.0
C73 C 0.76608 0.16625 0.41818 0.0
C74 C 0.66907 0.249 0.45165 0.0
O75 O 0.67158 0.22458 0.47131 0.0
O76 O 0.67314 0.24274 0.41996 0.0
O77 O 0.79337 0.76623 0.96561 0.0
Cd78 Cd 0.84593 0.78677 0.99964 0.0
O79 O 0.76643 0.75867 0.01181 0.0
Cd80 Cd 0.79744 0.79873 0.04202 0.0
O81 O 0.7946 0.85044 0.06382 0.0
C82 C 0.79214 0.87371 0.04322 0.0
O83 O 0.79419 0.86592 0.01056 0.0
C84 C 0.76783 0.75378 0.9798 0.0
C85 C 0.86264 0.73524 0.04169 0.0
O86 O 0.87097 0.73453 0.01085 0.0
O87 O 0.84779 0.76102 0.05311 0.0
O88 O 0.57348 0.25588 0.25957 0.0
Cd89 Cd 0.58082 0.19964 0.23216 0.0
O90 O 0.58743 0.24597 0.31297 0.0
Cd91 Cd 0.58993 0.26536 0.36659 0.0
O92 O 0.57737 0.2843 0.41739 0.0
C93 C 0.54944 0.29825 0.41971 0.0
O94 O 0.53022 0.30142 0.39174 0.0
C95 C 0.57731 0.26582 0.29097 0.0
C96 C 0.53245 0.19125 0.17688 0.0
O97 O 0.56322 0.2016 0.17254 0.0
O98 O 0.52529 0.18342 0.20671 0.0
O99 O 0.06542 0.31161 0.7351 0.0
Cd100 Cd 0.08292 0.37046 0.75618 0.0
O101 O 0.08348 0.31415 0.68367 0.0
Cd102 Cd 0.08605 0.28945 0.63263 0.0
O103 O 0.0699 0.26085 0.58424 0.0
C104 C 0.03817 0.25276 0.57924 0.0
O105 O 0.0181 0.26161 0.60306 0.0
C106 C 0.06942 0.29735 0.70596 0.0
C107 C 0.06787 0.37609 0.82433 0.0
O108 O 0.04635 0.38322 0.80053 0.0
O109 O 0.09721 0.36782 0.81604 0.0
O110 O 0.39066 0.68702 0.12839 0.0
Cd111 Cd 0.40027 0.62716 0.13332 0.0
O112 O 0.44449 0.69933 0.1197 0.0
Cd113 Cd 0.45596 0.64999 0.09678 0.0
O114 O 0.49159 0.64001 0.05783 0.0
C115 C 0.48504 0.64827 0.02756 0.0
O116 O 0.45504 0.65907 0.01925 0.0
C117 C 0.41563 0.70885 0.12716 0.0
C118 C 0.41941 0.62287 0.20238 0.0
O119 O 0.44176 0.62669 0.18059 0.0
O120 O 0.388 0.61949 0.19133 0.0
O121 O 0.95662 0.74367 0.76184 0.0
Cd122 Cd 0.97179 0.80486 0.77064 0.0
O123 O 0.91071 0.74652 0.79001 0.0
Cd124 Cd 0.93195 0.79451 0.81605 0.0
O125 O 0.96595 0.80778 0.86171 0.0
C126 C 0.95652 0.79339 0.88771 0.0
O127 O 0.92731 0.77501 0.8851 0.0
C128 C 0.92917 0.72953 0.77101 0.0
C129 C 0.00274 0.82544 0.71343 0.0
O130 O 0.97035 0.82494 0.71457 0.0
O131 O 0.02036 0.81718 0.73971 0.0
O132 O 0.68357 0.40847 0.73468 0.0
Cd133 Cd 0.70615 0.42484 0.7928 0.0
O134 O 0.63363 0.42922 0.73916 0.0
Cd135 Cd 0.58017 0.43432 0.72224 0.0
O136 O 0.53719 0.41067 0.74632 0.0
C137 C 0.50483 0.40852 0.74331 0.0
O138 O 0.48871 0.39035 0.76476 0.0
C139 C 0.65454 0.41421 0.72133 0.0
C140 C 0.77113 0.45509 0.78749 0.0
O141 O 0.76638 0.42291 0.78987 0.0
O142 O 0.74532 0.47304 0.78899 0.0
O143 O 0.80483 0.58393 0.29557 0.0
Cd144 Cd 0.78466 0.58558 0.3531 0.0
O145 O 0.8325 0.53787 0.30234 0.0
Cd146 Cd 0.8606 0.49465 0.2832 0.0
O147 O 0.84372 0.44711 0.253 0.0
C148 C 0.85509 0.42281 0.23533 0.0
O149 O 0.83295 0.39855 0.22161 0.0
C150 C 0.82228 0.56065 0.2834 0.0
C151 C 0.72583 0.54208 0.3547 0.0
O152 O 0.72352 0.57352 0.34918 0.0
O153 O 0.75567 0.53163 0.35982 0.0
O154 O 0.21691 0.00929 0.26963 0.0
Cd155 Cd 0.20862 0.99009 0.20943 0.0
O156 O 0.16667 0.99113 0.28566 0.0
Cd157 Cd 0.13462 0.99648 0.32872 0.0
O158 O 0.13454 0.02889 0.37603 0.0
C159 C 0.10954 0.03591 0.39319 0.0
O160 O 0.11471 0.05791 0.41982 0.0
C161 C 0.19622 0.00577 0.2926 0.0
C162 C 0.27028 0.96711 0.19087 0.0
O163 O 0.26501 0.99881 0.19128 0.0
O164 O 0.24598 0.94618 0.19802 0.0
O165 O 0.27593 0.01402 0.72302 0.0
Cd166 Cd 0.25402 0.99495 0.6654 0.0
O167 O 0.31675 0.98027 0.73463 0.0
Cd168 Cd 0.36159 0.96782 0.76568 0.0
O169 O 0.41399 0.98291 0.78431 0.0
C170 C 0.43943 0.96477 0.7841 0.0
O171 O 0.43496 0.93238 0.77358 0.0
C172 C 0.29936 0.00497 0.7434 0.0
C173 C 0.19682 0.03171 0.655 0.0
O174 O 0.19427 0.0017 0.66557 0.0
O175 O 0.22626 0.04378 0.64795 0.0
O176 O 0.68713 0.65713 0.39746 0.0
Cd177 Cd 0.74421 0.67968 0.41908 0.0
O178 O 0.67682 0.61856 0.43437 0.0
Cd179 Cd 0.63825 0.58252 0.45274 0.0
O180 O 0.5844 0.56394 0.44819 0.0
C181 C 0.56894 0.53791 0.45889 0.0
O182 O 0.53605 0.53215 0.45152 0.0
C183 C 0.66716 0.63482 0.40906 0.0
C184 C 0.74105 0.74878 0.43952 0.0
O185 O 0.7446 0.73912 0.4084 0.0
O186 O 0.73976 0.72595 0.46113 0.0
O187 O 0.84265 0.24426 0.99833 0.0
Cd188 Cd 0.7811 0.23218 0.99205 0.0
O189 O 0.83384 0.29787 0.99283 0.0
Cd190 Cd 0.8521 0.35138 0.99611 0.0
O191 O 0.86308 0.40224 0.0205 0.0
C192 C 0.8755 0.42799 0.00668 0.0
O193 O 0.88318 0.42481 0.97481 0.0
C194 C 0.85436 0.27487 0.9973 0.0
C195 C 0.76369 0.179 0.03163 0.0
O196 O 0.77123 0.17335 0.00077 0.0
O197 O 0.76364 0.21 0.04359 0.0
O198 O 0.2884 0.79563 0.60719 0.0
Cd199 Cd 0.34267 0.76949 0.60742 0.0
O200 O 0.29897 0.84304 0.58131 0.0
Cd201 Cd 0.27535 0.88994 0.56826 0.0
O202 O 0.23458 0.91292 0.59482 0.0
C203 C 0.21669 0.93812 0.59059 0.0
O204 O 0.19449 0.94495 0.61298 0.0
C205 C 0.27866 0.82285 0.59537 0.0
C206 C 0.32947 0.70171 0.58176 0.0
O207 O 0.32958 0.70955 0.6138 0.0
O208 O 0.3362 0.72568 0.56235 0.0
O209 O 0.26671 0.30121 0.09567 0.0
Cd210 Cd 0.21732 0.33179 0.11117 0.0
O211 O 0.23471 0.27969 0.05108 0.0
Cd212 Cd 0.22066 0.24679 0.0047 0.0
O213 O 0.19327 0.23596 0.95504 0.0
C214 C 0.19682 0.21347 0.93121 0.0
O215 O 0.17799 0.21417 0.90253 0.0
C216 C 0.26326 0.2822 0.06819 0.0
C217 C 0.20637 0.38393 0.06805 0.0
O218 O 0.22324 0.39013 0.09695 0.0
O219 O 0.1944 0.35328 0.05979 0.0
O220 O 0.52452 0.68697 0.64613 0.0
Cd221 Cd 0.54188 0.74315 0.67345 0.0
O222 O 0.48658 0.70313 0.60831 0.0
Cd223 Cd 0.44375 0.69833 0.56899 0.0
O224 O 0.40147 0.71393 0.53519 0.0
C225 C 0.39547 0.71178 0.5029 0.0
O226 O 0.36771 0.72424 0.49013 0.0
C227 C 0.50093 0.67941 0.62279 0.0
C228 C 0.5529 0.73373 0.74287 0.0
O229 O 0.52308 0.73819 0.72978 0.0
O230 O 0.57763 0.73492 0.72345 0.0
O231 O 0.92798 0.7589 0.26809 0.0
Cd232 Cd 0.92792 0.70257 0.23889 0.0
O233 O 0.97279 0.74526 0.29869 0.0
Cd234 Cd 0.01149 0.75897 0.34022 0.0
O235 O 0.04078 0.7846 0.3843 0.0
C236 C 0.02569 0.80039 0.40732 0.0
O237 O 0.9924 0.80105 0.40403 0.0
C238 C 0.95205 0.76718 0.29068 0.0
C239 C 0.95865 0.71003 0.17814 0.0
O240 O 0.9265 0.71157 0.17979 0.0
O241 O 0.97651 0.7045 0.20529 0.0
O242 O 0.59967 0.26533 0.80036 0.0
Cd243 Cd 0.59331 0.32549 0.79249 0.0
O244 O 0.55626 0.26297 0.83263 0.0
Cd245 Cd 0.51773 0.23247 0.85813 0.0
O246 O 0.47959 0.18914 0.84819 0.0
C247 C 0.45826 0.17531 0.86668 0.0
O248 O 0.43636 0.15096 0.85276 0.0
C249 C 0.57866 0.24809 0.81657 0.0
C250 C 0.55189 0.32991 0.73274 0.0
O251 O 0.58431 0.33013 0.73208 0.0
O252 O 0.53918 0.32838 0.76168 0.0
O253 O 0.03428 0.18761 0.20578 0.0
Cd254 Cd 0.05382 0.13346 0.22369 0.0
O255 O 0.07351 0.19451 0.16968 0.0
Cd256 Cd 0.10207 0.2207 0.13245 0.0
O257 O 0.14683 0.22223 0.10298 0.0
C258 C 0.15479 0.23642 0.07633 0.0
O259 O 0.18465 0.23112 0.06507 0.0
C260 C 0.04852 0.20561 0.18454 0.0
C261 C 0.02535 0.12331 0.28526 0.0
O262 O 0.05498 0.13862 0.28487 0.0
O263 O 0.01022 0.11143 0.25676 0.0
C264 C 0.2335 0.46466 0.55993 0.0
C265 C 0.22031 0.43301 0.54443 0.0
C266 C 0.21533 0.42903 0.5086 0.0
C267 C 0.24045 0.48632 0.50448 0.0
C268 C 0.24352 0.49072 0.5396 0.0
C269 C 0.26022 0.52495 0.55224 0.0
H270 H 0.33214 0.67738 0.51601 0.0
C271 C 0.25668 0.51707 0.4911 0.0
C272 C 0.26803 0.53993 0.51902 0.0
H273 H 0.30563 0.64625 0.61428 0.0
H274 H 0.28628 0.59018 0.58877 0.0
H275 H 0.36687 0.61403 0.49315 0.0
H276 H 0.26525 0.64246 0.47223 0.0
H277 H 0.28213 0.62833 0.43382 0.0
H278 H 0.30348 0.66367 0.45921 0.0
H279 H 0.35548 0.63511 0.45572 0.0
H280 H 0.35232 0.58936 0.45537 0.0
C281 C 0.29328 0.51922 0.57367 0.0
C282 C 0.23419 0.54494 0.57175 0.0
C283 C 0.26317 0.52578 0.36357 0.0
C284 C 0.28042 0.54946 0.34455 0.0
C285 C 0.30236 0.57567 0.36155 0.0
C286 C 0.30546 0.57955 0.39718 0.0
C287 C 0.2865 0.55693 0.41589 0.0
C288 C 0.26715 0.5296 0.3992 0.0
C289 C 0.25223 0.50597 0.42366 0.0
C290 C 0.26381 0.52507 0.45762 0.0
C291 C 0.28315 0.55527 0.45272 0.0
C292 C 0.26855 0.47144 0.41905 0.0
C293 C 0.21301 0.50341 0.4173 0.0
C294 C 0.32269 0.65847 0.53221 0.0
C295 C 0.32036 0.66644 0.56714 0.0
C296 C 0.30755 0.64092 0.58723 0.0
C297 C 0.29616 0.60843 0.57236 0.0
C298 C 0.29791 0.60127 0.53714 0.0
C299 C 0.31154 0.62599 0.51783 0.0
C300 C 0.31102 0.61434 0.48074 0.0
C301 C 0.2934 0.57897 0.48072 0.0
C302 C 0.28588 0.57137 0.51374 0.0
C303 C 0.34826 0.61323 0.47058 0.0
C304 C 0.28947 0.6384 0.46019 0.0
H305 H 0.22156 0.45083 0.46141 0.0
H306 H 0.23732 0.46869 0.58739 0.0
H307 H 0.20751 0.53563 0.56337 0.0
H308 H 0.23558 0.57227 0.56691 0.0
H309 H 0.23767 0.54228 0.59957 0.0
H310 H 0.30848 0.50077 0.55985 0.0
H311 H 0.28747 0.50874 0.59817 0.0
H312 H 0.30994 0.5427 0.57892 0.0
H313 H 0.24678 0.50493 0.35095 0.0
H314 H 0.31589 0.5941 0.34728 0.0
H315 H 0.32186 0.60044 0.40884 0.0
H316 H 0.29464 0.47489 0.41017 0.0
H317 H 0.25324 0.45372 0.39996 0.0
H318 H 0.27208 0.45895 0.44315 0.0
H319 H 0.20365 0.52902 0.41383 0.0
H320 H 0.19988 0.49365 0.43888 0.0
H321 H 0.20469 0.4868 0.39398 0.0
H322 H 0.20507 0.40494 0.49598 0.0
C323 C 0.22529 0.45555 0.48855 0.0
C324 C 0.20825 0.44562 0.05557 0.0
C325 C 0.20202 0.41101 0.04426 0.0
C326 C 0.19253 0.4023 0.00955 0.0
C327 C 0.19782 0.46182 0.99767 0.0
C328 C 0.20571 0.47056 0.03193 0.0
C329 C 0.21084 0.5086 0.03951 0.0
H330 H 0.21989 0.66621 0.97952 0.0
C331 C 0.19897 0.49342 0.97957 0.0
C332 C 0.20629 0.52106 0.00396 0.0
H333 H 0.22834 0.64146 0.08474 0.0
H334 H 0.22058 0.58132 0.06691 0.0
H335 H 0.26559 0.61073 0.9524 0.0
H336 H 0.15713 0.61188 0.9554 0.0
H337 H 0.16522 0.59393 0.91503 0.0
H338 H 0.18155 0.63688 0.92805 0.0
H339 H 0.24035 0.63128 0.92148 0.0
H340 H 0.24837 0.58682 0.91545 0.0
C341 C 0.24743 0.51727 0.05573 0.0
C342 C 0.18258 0.5199 0.06225 0.0
C343 C 0.18419 0.4865 0.85 0.0
C344 C 0.1861 0.51141 0.82611 0.0
C345 C 0.19346 0.54581 0.83793 0.0
C346 C 0.19827 0.55535 0.8728 0.0
C347 C 0.19587 0.5303 0.89636 0.0
C348 C 0.18928 0.49649 0.88486 0.0
C349 C 0.18871 0.47337 0.91372 0.0
C350 C 0.19573 0.49902 0.94434 0.0
C351 C 0.19967 0.53226 0.93395 0.0
C352 C 0.21791 0.44935 0.90997 0.0
C353 C 0.15272 0.4548 0.91294 0.0
C354 C 0.22002 0.64796 0.99885 0.0
C355 C 0.22463 0.65875 0.03362 0.0
C356 C 0.22476 0.63391 0.05778 0.0
C357 C 0.22018 0.59898 0.04737 0.0
C358 C 0.21539 0.5887 0.01242 0.0
C359 C 0.21545 0.61316 0.98892 0.0
C360 C 0.21011 0.59795 0.95289 0.0
C361 C 0.20611 0.5603 0.95851 0.0
C362 C 0.20934 0.55486 0.99338 0.0
C363 C 0.24254 0.60722 0.93431 0.0
C364 C 0.17694 0.61085 0.93667 0.0
H365 H 0.18351 0.41911 0.96013 0.0
H366 H 0.215 0.45316 0.08219 0.0
H367 H 0.15833 0.5041 0.05553 0.0
H368 H 0.1761 0.54631 0.05888 0.0
H369 H 0.1899 0.51724 0.08958 0.0
H370 H 0.26584 0.50216 0.04219 0.0
H371 H 0.24938 0.51133 0.08289 0.0
H372 H 0.25636 0.54416 0.05409 0.0
H373 H 0.17867 0.45983 0.84184 0.0
H374 H 0.19503 0.56558 0.82021 0.0
H375 H 0.20347 0.58196 0.88002 0.0
H376 H 0.24098 0.46334 0.90166 0.0
H377 H 0.21036 0.42793 0.89065 0.0
H378 H 0.22642 0.43887 0.93406 0.0
H379 H 0.13287 0.47094 0.9028 0.0
H380 H 0.14513 0.44929 0.93859 0.0
H381 H 0.15093 0.43068 0.89652 0.0
H382 H 0.18746 0.37587 0.00022 0.0
C383 C 0.19045 0.42746 0.98625 0.0
C384 C 0.6884 0.98881 0.42564 0.0
C385 C 0.68282 0.02248 0.43712 0.0
C386 C 0.68375 0.03109 0.47241 0.0
C387 C 0.69983 0.97471 0.48407 0.0
C388 C 0.69675 0.96534 0.4496 0.0
C389 C 0.7046 0.92874 0.4423 0.0
H390 H 0.74981 0.7798 0.50381 0.0
C391 C 0.71151 0.94565 0.50218 0.0
C392 C 0.71371 0.91824 0.47807 0.0
H393 H 0.72481 0.79982 0.399 0.0
H394 H 0.71665 0.85849 0.41619 0.0
H395 H 0.79771 0.84816 0.51957 0.0
H396 H 0.69315 0.82337 0.53871 0.0
H397 H 0.71375 0.84533 0.57558 0.0
H398 H 0.72831 0.80517 0.56034 0.0
H399 H 0.78637 0.8231 0.55392 0.0
H400 H 0.79102 0.86901 0.5589 0.0
C401 C 0.7354 0.9282 0.42002 0.0
C402 C 0.67188 0.90884 0.42569 0.0
C403 C 0.75143 0.96476 0.62702 0.0
C404 C 0.76638 0.94404 0.65056 0.0
C405 C 0.76824 0.90913 0.64117 0.0
C406 C 0.75696 0.89556 0.6082 0.0
C407 C 0.74366 0.91712 0.5844 0.0
C408 C 0.74034 0.95089 0.59434 0.0
C409 C 0.72553 0.97017 0.56604 0.0
C410 C 0.72194 0.94278 0.5369 0.0
C411 C 0.73264 0.91181 0.5477 0.0
C412 C 0.75182 0.99968 0.55974 0.0
C413 C 0.69047 0.98171 0.57597 0.0
C414 C 0.74237 0.79676 0.48459 0.0
C415 C 0.73756 0.78504 0.45006 0.0
C416 C 0.72859 0.80818 0.42578 0.0
C417 C 0.72366 0.84221 0.43582 0.0
C418 C 0.72803 0.8534 0.47051 0.0
C419 C 0.73779 0.83091 0.49415 0.0
C420 C 0.74324 0.8477 0.52963 0.0
C421 C 0.7335 0.88348 0.52367 0.0
C422 C 0.72448 0.88674 0.48898 0.0
C423 C 0.78144 0.84689 0.54146 0.0
C424 C 0.71856 0.82945 0.55254 0.0
H425 H 0.69323 0.01595 0.52226 0.0
H426 H 0.6877 0.98127 0.39869 0.0
H427 H 0.6489 0.91803 0.43719 0.0
H428 H 0.67103 0.8814 0.4297 0.0
H429 H 0.66896 0.91216 0.39793 0.0
H430 H 0.75466 0.94947 0.4286 0.0
H431 H 0.72739 0.93108 0.39289 0.0
H432 H 0.7491 0.90484 0.42172 0.0
H433 H 0.7491 0.99156 0.63358 0.0
H434 H 0.77947 0.89255 0.65892 0.0
H435 H 0.75966 0.86897 0.6023 0.0
H436 H 0.77798 0.99074 0.56035 0.0
H437 H 0.75172 0.02094 0.57965 0.0
H438 H 0.74767 0.00999 0.53465 0.0
H439 H 0.6795 0.96577 0.59533 0.0
H440 H 0.67107 0.9789 0.55413 0.0
H441 H 0.69258 0.00854 0.58682 0.0
H442 H 0.67921 0.05662 0.48203 0.0
C443 C 0.69207 0.00742 0.49585 0.0
C444 C 0.76199 0.11706 0.04129 0.0
C445 C 0.75659 0.15049 0.05313 0.0
C446 C 0.74569 0.15647 0.08616 0.0
C447 C 0.74664 0.09635 0.09512 0.0
C448 C 0.75703 0.09056 0.06264 0.0
C449 C 0.76313 0.05385 0.05438 0.0
H450 H 0.76985 0.89401 0.10495 0.0
C451 C 0.74443 0.06339 0.11081 0.0
C452 C 0.75396 0.03839 0.087 0.0
H453 H 0.79489 0.93118 0.00837 0.0
H454 H 0.77935 0.98713 0.02673 0.0
H455 H 0.8022 0.96297 0.15402 0.0
H456 H 0.70293 0.92736 0.10879 0.0
H457 H 0.6958 0.95257 0.14565 0.0
H458 H 0.71817 0.91433 0.14938 0.0
H459 H 0.77877 0.92464 0.1638 0.0
H460 H 0.77204 0.96491 0.18507 0.0
C461 C 0.80137 0.05173 0.04826 0.0
C462 C 0.7383 0.04006 0.02371 0.0
C463 C 0.71586 0.05812 0.23413 0.0
C464 C 0.7107 0.03076 0.25465 0.0
C465 C 0.71074 0.99717 0.24021 0.0
C466 C 0.7177 0.99085 0.20617 0.0
C467 C 0.72457 0.01841 0.18636 0.0
C468 C 0.72205 0.05131 0.19987 0.0
C469 C 0.72748 0.07711 0.17399 0.0
C470 C 0.73532 0.05432 0.14336 0.0
C471 C 0.73444 0.02009 0.15112 0.0
C472 C 0.75841 0.10182 0.18719 0.0
C473 C 0.69383 0.09458 0.16762 0.0
C474 C 0.77242 0.91433 0.08794 0.0
C475 C 0.78404 0.90827 0.05532 0.0
C476 C 0.78621 0.93522 0.03368 0.0
C477 C 0.77713 0.96772 0.04439 0.0
C478 C 0.76562 0.9734 0.07708 0.0
C479 C 0.76319 0.9469 0.09816 0.0
C480 C 0.7494 0.95742 0.1316 0.0
C481 C 0.7449 0.9949 0.12742 0.0
C482 C 0.75458 0.00406 0.09553 0.0
C483 C 0.77683 0.95217 0.16034 0.0
C484 C 0.7149 0.93683 0.1343 0.0
H485 H 0.73256 0.13573 0.13213 0.0
H486 H 0.77064 0.1116 0.01616 0.0
H487 H 0.71317 0.05103 0.02533 0.0
H488 H 0.7326 0.01222 0.02285 0.0
H489 H 0.74839 0.04683 0.99925 0.0
H490 H 0.81741 0.07182 0.06424 0.0
H491 H 0.8061 0.05522 0.02124 0.0
H492 H 0.81143 0.02761 0.05557 0.0
H493 H 0.71564 0.08416 0.24468 0.0
H494 H 0.70723 0.97578 0.25577 0.0
H495 H 0.71842 0.96478 0.19687 0.0
H496 H 0.77919 0.08757 0.19863 0.0
H497 H 0.75124 0.12074 0.20708 0.0
H498 H 0.76984 0.11558 0.16686 0.0
H499 H 0.67132 0.0772 0.17174 0.0
H500 H 0.68955 0.1014 0.14103 0.0
H501 H 0.69308 0.11774 0.18509 0.0
H502 H 0.74137 0.18202 0.0959 0.0
C503 C 0.74058 0.12956 0.10717 0.0
C504 C 0.50252 0.31317 0.45617 0.0
C505 C 0.53706 0.30775 0.45342 0.0
C506 C 0.55895 0.30966 0.48333 0.0
C507 C 0.5116 0.32027 0.51787 0.0
C508 C 0.49033 0.31882 0.48842 0.0
C509 C 0.45369 0.32142 0.4956 0.0
H510 H 0.33295 0.32797 0.6088 0.0
C511 C 0.49029 0.32399 0.54728 0.0
C512 C 0.45632 0.3244 0.53421 0.0
H513 H 0.31989 0.32186 0.4987 0.0
H514 H 0.3805 0.324 0.49538 0.0
H515 H 0.38658 0.27633 0.61496 0.0
H516 H 0.39988 0.38528 0.61411 0.0
H517 H 0.42809 0.37265 0.6465 0.0
H518 H 0.38291 0.36392 0.64873 0.0
H519 H 0.38168 0.30375 0.65215 0.0
H520 H 0.4225 0.28895 0.64259 0.0
C521 C 0.43328 0.28808 0.48079 0.0
C522 C 0.44158 0.35428 0.48074 0.0
C523 C 0.54359 0.32989 0.66908 0.0
C524 C 0.52969 0.3307 0.701 0.0
C525 C 0.49412 0.33121 0.70225 0.0
C526 C 0.47284 0.33139 0.67239 0.0
C527 C 0.48707 0.33018 0.64068 0.0
C528 C 0.52185 0.32931 0.63937 0.0
C529 C 0.53218 0.32602 0.60334 0.0
C530 C 0.49803 0.32599 0.58317 0.0
C531 C 0.47171 0.32839 0.60533 0.0
C532 C 0.54846 0.2916 0.59831 0.0
C533 C 0.55572 0.35772 0.59791 0.0
C534 C 0.34315 0.32719 0.58398 0.0
C535 C 0.32145 0.32443 0.55399 0.0
C536 C 0.33591 0.3237 0.52224 0.0
C537 C 0.37122 0.32495 0.52032 0.0
C538 C 0.39254 0.3268 0.55044 0.0
C539 C 0.37847 0.32832 0.58158 0.0
C540 C 0.40517 0.32998 0.61083 0.0
C541 C 0.43742 0.32849 0.59201 0.0
C542 C 0.42984 0.32675 0.55669 0.0
C543 C 0.39875 0.29836 0.63151 0.0
C544 C 0.40399 0.3646 0.63146 0.0
H545 H 0.56448 0.31773 0.53707 0.0
H546 H 0.48486 0.3115 0.43378 0.0
H547 H 0.46205 0.37528 0.48456 0.0
H548 H 0.41981 0.36423 0.49339 0.0
H549 H 0.43466 0.35008 0.45295 0.0
H550 H 0.44947 0.26605 0.48087 0.0
H551 H 0.42334 0.29029 0.45408 0.0
H552 H 0.41195 0.28047 0.49604 0.0
H553 H 0.57076 0.32896 0.66716 0.0
H554 H 0.4826 0.33128 0.72637 0.0
H555 H 0.44605 0.33194 0.67518 0.0
H556 H 0.53374 0.27131 0.61055 0.0
H557 H 0.57487 0.29331 0.61016 0.0
H558 H 0.54843 0.28204 0.57145 0.0
H559 H 0.54391 0.38121 0.60676 0.0
H560 H 0.56056 0.36075 0.57109 0.0
H561 H 0.58036 0.35702 0.6129 0.0
H562 H 0.58558 0.30535 0.48197 0.0
C563 C 0.54652 0.31644 0.51542 0.0
C564 C 0.16315 0.82227 0.0448 0.0
C565 C 0.18534 0.81644 0.07285 0.0
C566 C 0.17408 0.7947 0.09727 0.0
C567 C 0.11825 0.78708 0.06722 0.0
C568 C 0.12995 0.80675 0.04213 0.0
C569 C 0.10333 0.80845 0.01317 0.0
H570 H 0.94112 0.76842 0.94779 0.0
C571 C 0.08212 0.77628 0.058 0.0
C572 C 0.07333 0.78807 0.02596 0.0
H573 H 0.02304 0.81958 0.89908 0.0
H574 H 0.0609 0.81605 0.94942 0.0
H575 H 0.97915 0.7127 0.97652 0.0
H576 H 0.96165 0.81061 0.02426 0.0
H577 H 0.95285 0.77965 0.05304 0.0
H578 H 0.9286 0.77767 0.0126 0.0
H579 H 0.93956 0.72049 0.99437 0.0
H580 H 0.97502 0.70631 0.01967 0.0
C581 C 0.1162 0.79079 0.98071 0.0
C582 C 0.09608 0.84619 0.00994 0.0
C583 C 0.00976 0.72544 0.14636 0.0
C584 C 0.97464 0.71659 0.14623 0.0
C585 C 0.95426 0.71648 0.11556 0.0
C586 C 0.96805 0.72686 0.08592 0.0
C587 C 0.00268 0.73794 0.08696 0.0
C588 C 0.02318 0.73618 0.11652 0.0
C589 C 0.05951 0.7486 0.11259 0.0
C590 C 0.05694 0.75961 0.07633 0.0
C591 C 0.02356 0.75342 0.06162 0.0
C592 C 0.08223 0.71828 0.11629 0.0
C593 C 0.06911 0.7791 0.13903 0.0
C594 C 0.96715 0.77907 0.94791 0.0
C595 C 0.97909 0.79415 0.91932 0.0
C596 C 0.01316 0.80782 0.92077 0.0
C597 C 0.03518 0.80554 0.94993 0.0
C598 C 0.02297 0.78954 0.97798 0.0
C599 C 0.98935 0.77698 0.9767 0.0
C600 C 0.9805 0.76099 0.00872 0.0
C601 C 0.0148 0.76436 0.02885 0.0
C602 C 0.03952 0.78158 0.01104 0.0
C603 C 0.96765 0.72323 0.99958 0.0
C604 C 0.95438 0.78302 0.02568 0.0
H605 H 0.13328 0.7643 0.1144 0.0
H606 H 0.17154 0.83834 0.02533 0.0
H607 H 0.09399 0.85923 0.03552 0.0
H608 H 0.0718 0.84931 0.99535 0.0
H609 H 0.11693 0.85998 0.99774 0.0
H610 H 0.13262 0.76995 0.98717 0.0
H611 H 0.13145 0.80914 0.96666 0.0
H612 H 0.0953 0.77821 0.96333 0.0
H613 H 0.02616 0.72541 0.16949 0.0
H614 H 0.92741 0.709 0.1147 0.0
H615 H 0.95097 0.72656 0.06357 0.0
H616 H 0.06731 0.69335 0.11071 0.0
H617 H 0.0944 0.71845 0.14253 0.0
H618 H 0.10221 0.71812 0.09789 0.0
H619 H 0.04871 0.79723 0.13882 0.0
H620 H 0.09257 0.79405 0.13399 0.0
H621 H 0.07245 0.77034 0.16515 0.0
H622 H 0.19088 0.78995 0.11905 0.0
C623 C 0.14063 0.78006 0.09466 0.0
C624 C 0.98815 0.23036 0.54001 0.0
C625 C 0.02364 0.23467 0.54688 0.0
C626 C 0.04484 0.22205 0.52232 0.0
C627 C 0.99529 0.2013 0.48502 0.0
C628 C 0.97461 0.21383 0.5091 0.0
C629 C 0.93744 0.20823 0.49763 0.0
H630 H 0.81473 0.1431 0.37838 0.0
C631 C 0.97304 0.18536 0.45575 0.0
C632 C 0.9391 0.18937 0.46311 0.0
H633 H 0.80198 0.20064 0.47325 0.0
H634 H 0.86286 0.20612 0.48592 0.0
H635 H 0.8812 0.19291 0.35877 0.0
H636 H 0.86519 0.09764 0.40312 0.0
H637 H 0.90479 0.09542 0.3857 0.0
H638 H 0.86705 0.09926 0.35798 0.0
H639 H 0.86147 0.15447 0.33693 0.0
H640 H 0.90676 0.16362 0.33912 0.0
C641 C 0.9228 0.24351 0.49467 0.0
C642 C 0.91987 0.18565 0.5229 0.0
C643 C 0.02276 0.13846 0.34792 0.0
C644 C 0.00713 0.12347 0.31682 0.0
C645 C 0.97225 0.11275 0.31496 0.0
C646 C 0.95251 0.12009 0.34223 0.0
C647 C 0.96773 0.13828 0.37172 0.0
C648 C 0.00256 0.14537 0.37515 0.0
C649 C 0.01413 0.16305 0.40948 0.0
C650 C 0.98016 0.16805 0.42453 0.0
C651 C 0.9532 0.15373 0.40197 0.0
C652 C 0.03384 0.19731 0.40403 0.0
C653 C 0.03511 0.13823 0.42948 0.0
C654 C 0.82501 0.15708 0.40179 0.0
C655 C 0.80346 0.17142 0.42479 0.0
C656 C 0.818 0.18946 0.45496 0.0
C657 C 0.85339 0.19253 0.46235 0.0
C658 C 0.87459 0.17773 0.43919 0.0
C659 C 0.86025 0.16076 0.40936 0.0
C660 C 0.88649 0.14721 0.38734 0.0
C661 C 0.91902 0.15851 0.409 0.0
C662 C 0.91197 0.17635 0.43932 0.0
C663 C 0.88396 0.16519 0.35361 0.0
C664 C 0.88057 0.10789 0.38298 0.0
H665 H 0.04832 0.1967 0.4737 0.0
H666 H 0.97108 0.24003 0.55811 0.0
H667 H 0.93609 0.16485 0.52997 0.0
H668 H 0.89548 0.17275 0.51212 0.0
H669 H 0.91534 0.20082 0.54669 0.0
H670 H 0.9426 0.26288 0.488 0.0
H671 H 0.91302 0.25287 0.51906 0.0
H672 H 0.90241 0.24337 0.47404 0.0
H673 H 0.04969 0.1463 0.35042 0.0
H674 H 0.95966 0.10045 0.29168 0.0
H675 H 0.92587 0.11253 0.33876 0.0
H676 H 0.02224 0.2092 0.38167 0.0
H677 H 0.06082 0.19354 0.39937 0.0
H678 H 0.03314 0.21647 0.42559 0.0
H679 H 0.02251 0.11203 0.42613 0.0
H680 H 0.03725 0.14455 0.4572 0.0
H681 H 0.06106 0.13726 0.42032 0.0
H682 H 0.07228 0.22511 0.52691 0.0
C683 C 0.03087 0.20537 0.49148 0.0
C684 C 0.71204 0.71965 0.97556 0.0
C685 C 0.73799 0.73682 0.95928 0.0
C686 C 0.73335 0.74058 0.92404 0.0
C687 C 0.67574 0.7147 0.92315 0.0
C688 C 0.68124 0.70898 0.95716 0.0
C689 C 0.65014 0.69309 0.97152 0.0
H690 H 0.48015 0.66229 0.96007 0.0
C691 C 0.63955 0.70477 0.91279 0.0
C692 C 0.62447 0.69194 0.94094 0.0
H693 H 0.55281 0.64232 0.04222 0.0
H694 H 0.599 0.65695 0.00804 0.0
H695 H 0.51761 0.72957 0.93706 0.0
H696 H 0.52428 0.625 0.90005 0.0
H697 H 0.52307 0.65012 0.8649 0.0
H698 H 0.48719 0.64766 0.89085 0.0
H699 H 0.48294 0.70522 0.91295 0.0
H700 H 0.51619 0.72745 0.89228 0.0
C701 C 0.64052 0.71734 0.00134 0.0
C702 C 0.65781 0.65691 0.9817 0.0
C703 C 0.5916 0.7285 0.79483 0.0
C704 C 0.5585 0.72612 0.77897 0.0
C705 C 0.53099 0.71528 0.79762 0.0
C706 C 0.53648 0.7063 0.8313 0.0
C707 C 0.56981 0.7085 0.84669 0.0
C708 C 0.59661 0.71982 0.82855 0.0
C709 C 0.63008 0.72222 0.84939 0.0
C710 C 0.61922 0.70906 0.88253 0.0
C711 C 0.58389 0.701 0.88091 0.0
C712 C 0.64364 0.76024 0.85365 0.0
C713 C 0.6541 0.69825 0.8318 0.0
C714 C 0.50602 0.66084 0.97058 0.0
C715 C 0.51275 0.65181 0.00424 0.0
C716 C 0.5468 0.6495 0.0166 0.0
C717 C 0.57369 0.65823 0.99678 0.0
C718 C 0.56664 0.66952 0.96423 0.0
C719 C 0.53335 0.66926 0.95096 0.0
C720 C 0.53117 0.68002 0.91493 0.0
C721 C 0.56858 0.68803 0.90949 0.0
C722 C 0.58903 0.68252 0.93884 0.0
C723 C 0.51075 0.71213 0.91392 0.0
C724 C 0.51541 0.64934 0.89124 0.0
H725 H 0.69991 0.73405 0.87933 0.0
H726 H 0.71505 0.71586 0.0025 0.0
H727 H 0.67916 0.64683 0.96801 0.0
H728 H 0.636 0.63799 0.97476 0.0
H729 H 0.66495 0.65687 0.00941 0.0
H730 H 0.64181 0.74415 0.99409 0.0
H731 H 0.65827 0.71607 0.02422 0.0
H732 H 0.61442 0.71202 0.00877 0.0
H733 H 0.61323 0.73713 0.78139 0.0
H734 H 0.50523 0.71317 0.78596 0.0
H735 H 0.51457 0.69805 0.84407 0.0
H736 H 0.62247 0.77747 0.85234 0.0
H737 H 0.66065 0.76665 0.83336 0.0
H738 H 0.65723 0.76738 0.87877 0.0
H739 H 0.63992 0.67393 0.82176 0.0
H740 H 0.6748 0.6908 0.8494 0.0
H741 H 0.66542 0.71014 0.81005 0.0
H742 H 0.75305 0.75348 0.91081 0.0
C743 C 0.70235 0.72955 0.90587 0.0
C744 C 0.6621 0.52924 0.34974 0.0
C745 C 0.69522 0.51801 0.35369 0.0
C746 C 0.69913 0.48292 0.35556 0.0
C747 C 0.63816 0.47065 0.34666 0.0
C748 C 0.63397 0.50513 0.34642 0.0
C749 C 0.59683 0.51223 0.34286 0.0
H750 H 0.43234 0.45092 0.31019 0.0
C751 C 0.60433 0.45211 0.34075 0.0
C752 C 0.57982 0.47627 0.33918 0.0
H753 H 0.46986 0.55547 0.33699 0.0
H754 H 0.52754 0.53767 0.34429 0.0
H755 H 0.48717 0.43256 0.2625 0.0
H756 H 0.48111 0.41774 0.36896 0.0
H757 H 0.49288 0.37971 0.34842 0.0
H758 H 0.45281 0.396 0.33573 0.0
H759 H 0.46235 0.39715 0.27659 0.0
H760 H 0.50688 0.39487 0.26947 0.0
C761 C 0.59028 0.53118 0.31028 0.0
C762 C 0.58788 0.53217 0.37574 0.0
C763 C 0.59695 0.32404 0.31464 0.0
C764 C 0.57019 0.30071 0.3017 0.0
C765 C 0.53704 0.31147 0.2973 0.0
C766 C 0.53061 0.34543 0.30571 0.0
C767 C 0.55785 0.36893 0.31776 0.0
C768 C 0.59034 0.35805 0.32184 0.0
C769 C 0.61655 0.38683 0.33224 0.0
C770 C 0.59448 0.41691 0.33393 0.0
C771 C 0.56011 0.40621 0.32579 0.0
C772 C 0.64168 0.38891 0.30373 0.0
C773 C 0.63313 0.38025 0.36764 0.0
C774 C 0.45284 0.47015 0.31765 0.0
C775 C 0.44645 0.50472 0.3226 0.0
C776 C 0.47405 0.52872 0.33259 0.0
C777 C 0.50747 0.51844 0.33675 0.0
C778 C 0.51341 0.48389 0.3307 0.0
C779 C 0.48619 0.46037 0.32195 0.0
C780 C 0.49698 0.42464 0.31728 0.0
C781 C 0.53512 0.43045 0.3253 0.0
C782 C 0.54478 0.46525 0.33258 0.0
C783 C 0.48778 0.4113 0.27966 0.0
C784 C 0.48001 0.40311 0.34376 0.0
H785 H 0.67573 0.43299 0.35335 0.0
H786 H 0.65815 0.55609 0.34903 0.0
H787 H 0.60696 0.52941 0.39724 0.0
H788 H 0.56322 0.52246 0.3845 0.0
H789 H 0.58703 0.55978 0.37229 0.0
H790 H 0.60153 0.51806 0.28836 0.0
H791 H 0.60191 0.55772 0.31368 0.0
H792 H 0.5629 0.53203 0.30293 0.0
H793 H 0.62273 0.31627 0.31766 0.0
H794 H 0.51618 0.29359 0.28723 0.0
H795 H 0.50484 0.35219 0.30188 0.0
H796 H 0.62811 0.38278 0.27819 0.0
H797 H 0.6616 0.37055 0.30691 0.0
H798 H 0.65415 0.41454 0.30226 0.0
H799 H 0.61415 0.36801 0.38343 0.0
H800 H 0.64275 0.40395 0.38255 0.0
H801 H 0.65419 0.36312 0.36538 0.0
H802 H 0.7242 0.47352 0.35895 0.0
C803 C 0.67088 0.45931 0.3522 0.0
C804 C 0.13491 0.03869 0.66052 0.0
C805 C 0.16714 0.05264 0.65338 0.0
C806 C 0.17127 0.08752 0.64764 0.0
C807 C 0.11294 0.09469 0.66068 0.0
C808 C 0.1083 0.06009 0.66407 0.0
C809 C 0.07307 0.04972 0.67369 0.0
H810 H 0.92013 0.09439 0.72222 0.0
C811 C 0.08157 0.11032 0.67004 0.0
C812 C 0.05806 0.08408 0.67753 0.0
H813 H 0.95326 0.99326 0.70114 0.0
H814 H 0.00795 0.01716 0.68784 0.0
H815 H 0.98886 0.12508 0.76252 0.0
H816 H 0.95353 0.12815 0.65719 0.0
H817 H 0.96953 0.16936 0.67332 0.0
H818 H 0.93389 0.14892 0.6919 0.0
H819 H 0.95941 0.15506 0.74912 0.0
H820 H 0.00489 0.16426 0.74942 0.0
C821 C 0.07626 0.03278 0.70799 0.0
C822 C 0.0547 0.02653 0.64378 0.0
C823 C 0.08117 0.23906 0.68391 0.0
C824 C 0.05885 0.26091 0.69876 0.0
C825 C 0.02782 0.24714 0.7094 0.0
C826 C 0.0192 0.21193 0.70542 0.0
C827 C 0.04221 0.19022 0.69133 0.0
C828 C 0.0726 0.20393 0.68084 0.0
C829 C 0.09545 0.17699 0.66964 0.0
C830 C 0.07374 0.14482 0.67499 0.0
C831 C 0.04238 0.15269 0.68725 0.0
C832 C 0.12866 0.18112 0.69345 0.0
C833 C 0.10094 0.18033 0.63149 0.0
C834 C 0.93929 0.07743 0.715 0.0
C835 C 0.93226 0.04184 0.71274 0.0
C836 C 0.95788 0.02072 0.70306 0.0
C837 C 0.98968 0.03465 0.69517 0.0
C838 C 0.99616 0.07017 0.69695 0.0
C839 C 0.97125 0.091 0.70676 0.0
C840 C 0.98279 0.1282 0.70666 0.0
C841 C 0.01821 0.12608 0.69406 0.0
C842 C 0.02595 0.09201 0.68886 0.0
C843 C 0.98391 0.14427 0.7437 0.0
C844 C 0.95868 0.14482 0.68111 0.0
H845 H 0.14924 0.13507 0.64729 0.0
H846 H 0.13075 0.01189 0.66455 0.0
H847 H 0.06512 0.03201 0.61905 0.0
H848 H 0.02731 0.03075 0.64004 0.0
H849 H 0.05758 0.99919 0.64749 0.0
H850 H 0.09625 0.04693 0.72572 0.0
H851 H 0.08339 0.00611 0.70414 0.0
H852 H 0.05282 0.03278 0.72167 0.0
H853 H 0.10572 0.24889 0.67664 0.0
H854 H 0.01041 0.26364 0.72114 0.0
H855 H 0.9953 0.20291 0.71415 0.0
H856 H 0.12403 0.19252 0.71913 0.0
H857 H 0.14845 0.19793 0.68293 0.0
H858 H 0.13924 0.1566 0.69852 0.0
H859 H 0.07679 0.18564 0.61725 0.0
H860 H 0.1089 0.1567 0.61874 0.0
H861 H 0.12008 0.20158 0.62816 0.0
H862 H 0.19572 0.09887 0.64173 0.0
C863 C 0.1443 0.10857 0.6511 0.0
C864 C 0.51686 0.96177 0.22424 0.0
C865 C 0.5487 0.9479 0.22844 0.0
C866 C 0.55168 0.91381 0.21656 0.0
C867 C 0.49155 0.90757 0.19837 0.0
C868 C 0.48871 0.94118 0.20933 0.0
C869 C 0.45272 0.9514 0.20428 0.0
H870 H 0.28553 0.90308 0.16971 0.0
C871 C 0.45729 0.8926 0.1859 0.0
C872 C 0.43436 0.91811 0.18929 0.0
H873 H 0.33146 0.00434 0.19866 0.0
H874 H 0.38752 0.98366 0.19607 0.0
H875 H 0.33922 0.88715 0.11142 0.0
H876 H 0.33308 0.86293 0.21563 0.0
H877 H 0.34605 0.82668 0.19324 0.0
H878 H 0.30523 0.84215 0.18155 0.0
H879 H 0.30875 0.85538 0.12396 0.0
H880 H 0.35097 0.84523 0.11387 0.0
C881 C 0.45199 0.97946 0.17862 0.0
C882 C 0.44068 0.96238 0.23964 0.0
C883 C 0.44088 0.76734 0.14556 0.0
C884 C 0.41187 0.7453 0.13585 0.0
C885 C 0.3795 0.75832 0.13544 0.0
C886 C 0.37612 0.79285 0.1444 0.0
C887 C 0.40539 0.81452 0.15429 0.0
C888 C 0.43705 0.80158 0.1549 0.0
C889 C 0.46517 0.82783 0.16775 0.0
C890 C 0.44527 0.85897 0.17377 0.0
C891 C 0.41034 0.85103 0.16579 0.0
C892 C 0.48972 0.83232 0.13912 0.0
C893 C 0.48204 0.81628 0.20135 0.0
C894 C 0.30769 0.9208 0.17533 0.0
C895 C 0.30416 0.95522 0.18492 0.0
C896 C 0.33356 0.97766 0.19134 0.0
C897 C 0.36609 0.96557 0.19008 0.0
C898 C 0.36923 0.93074 0.18211 0.0
C899 C 0.34032 0.90925 0.17377 0.0
C900 C 0.34854 0.87335 0.16439 0.0
C901 C 0.38707 0.87662 0.16955 0.0
C902 C 0.39907 0.91016 0.18045 0.0
C903 C 0.33611 0.86446 0.12654 0.0
C904 C 0.3323 0.84979 0.18972 0.0
H905 H 0.5273 0.86788 0.19321 0.0
H906 H 0.51367 0.98789 0.23296 0.0
H907 H 0.44837 0.94428 0.2587 0.0
H908 H 0.41281 0.96254 0.23991 0.0
H909 H 0.45215 0.98811 0.24883 0.0
H910 H 0.47195 0.97657 0.16024 0.0
H911 H 0.45654 0.00526 0.19189 0.0
H912 H 0.42781 0.97812 0.16255 0.0
H913 H 0.46609 0.75801 0.14672 0.0
H914 H 0.35678 0.74182 0.1281 0.0
H915 H 0.35081 0.80124 0.14361 0.0
H916 H 0.47524 0.83193 0.11389 0.0
H917 H 0.50722 0.81144 0.13792 0.0
H918 H 0.50495 0.85698 0.14196 0.0
H919 H 0.46373 0.80032 0.21486 0.0
H920 H 0.49049 0.83783 0.22 0.0
H921 H 0.50401 0.80096 0.1964 0.0
H922 H 0.57589 0.90252 0.21921 0.0
C923 C 0.52337 0.89367 0.20148 0.0
C924 C 0.008 0.47473 0.7263 0.0
C925 C 0.03902 0.48979 0.71703 0.0
C926 C 0.04104 0.52449 0.71025 0.0
C927 C 0.98331 0.52944 0.72624 0.0
C928 C 0.98052 0.49493 0.73057 0.0
C929 C 0.94603 0.48326 0.74133 0.0
H930 H 0.79 0.5228 0.786 0.0
C931 C 0.95136 0.54375 0.73575 0.0
C932 C 0.9292 0.51673 0.74414 0.0
H933 H 0.82868 0.42298 0.77444 0.0
H934 H 0.88269 0.44822 0.75994 0.0
H935 H 0.85573 0.55804 0.82603 0.0
H936 H 0.82143 0.5528 0.72005 0.0
H937 H 0.83683 0.59511 0.73212 0.0
H938 H 0.80155 0.57638 0.75277 0.0
H939 H 0.82534 0.58584 0.80994 0.0
H940 H 0.87059 0.59678 0.81117 0.0
C941 C 0.95093 0.46788 0.7763 0.0
C942 C 0.92824 0.45825 0.7126 0.0
C943 C 0.94496 0.67208 0.7493 0.0
C944 C 0.92053 0.69275 0.76241 0.0
C945 C 0.88888 0.67741 0.76989 0.0
C946 C 0.8822 0.642 0.76569 0.0
C947 C 0.90753 0.62157 0.75423 0.0
C948 C 0.93809 0.63669 0.74574 0.0
C949 C 0.96252 0.61088 0.73529 0.0
C950 C 0.94182 0.5778 0.73967 0.0
C951 C 0.90966 0.58427 0.7507 0.0
C952 C 0.99461 0.61607 0.76047 0.0
C953 C 0.96958 0.61495 0.69756 0.0
C954 C 0.81011 0.50635 0.78044 0.0
C955 C 0.80497 0.47083 0.78122 0.0
C956 C 0.83196 0.45042 0.77405 0.0
C957 C 0.86326 0.46512 0.76541 0.0
C958 C 0.86775 0.50063 0.76407 0.0
C959 C 0.84152 0.52062 0.77185 0.0
C960 C 0.85101 0.55791 0.76973 0.0
C961 C 0.8868 0.55691 0.75812 0.0
C962 C 0.89653 0.52334 0.75494 0.0
C963 C 0.8505 0.57584 0.8059 0.0
C964 C 0.82641 0.57158 0.74244 0.0
H965 H 0.01678 0.57079 0.71014 0.0
H966 H 0.00543 0.44803 0.73123 0.0
H967 H 0.93593 0.46508 0.68716 0.0
H968 H 0.90025 0.45896 0.71085 0.0
H969 H 0.93496 0.43173 0.71592 0.0
H970 H 0.97108 0.48312 0.79294 0.0
H971 H 0.9587 0.44137 0.77327 0.0
H972 H 0.92797 0.46801 0.79076 0.0
H973 H 0.96959 0.68301 0.74341 0.0
H974 H 0.86953 0.69274 0.7798 0.0
H975 H 0.85783 0.63186 0.77233 0.0
H976 H 0.98733 0.6208 0.78704 0.0
H977 H 0.01134 0.6383 0.75443 0.0
H978 H 0.00978 0.59366 0.76099 0.0
H979 H 0.94735 0.62452 0.68323 0.0
H980 H 0.97377 0.59046 0.68372 0.0
H981 H 0.99183 0.63328 0.69546 0.0
H982 H 0.06452 0.53673 0.70284 0.0
C983 C 0.01336 0.54435 0.71477 0.0
C984 C 0.59713 0.48403 0.46466 0.0
C985 C 0.58668 0.51446 0.4797 0.0
C986 C 0.58831 0.51988 0.5153 0.0
C987 C 0.60995 0.46437 0.52076 0.0
C988 C 0.60889 0.45938 0.4857 0.0
C989 C 0.61996 0.4249 0.47427 0.0
H990 H 0.67294 0.27232 0.51818 0.0
C991 C 0.62155 0.43335 0.53531 0.0
C992 C 0.6274 0.4099 0.50832 0.0
H993 H 0.65082 0.30383 0.41666 0.0
H994 H 0.63773 0.35921 0.44027 0.0
H995 H 0.71338 0.3505 0.54721 0.0
H996 H 0.61701 0.29475 0.55156 0.0
H997 H 0.62127 0.32289 0.58828 0.0
H998 H 0.65132 0.29099 0.58271 0.0
H999 H 0.70635 0.3123 0.56884 0.0
H1000 H 0.70147 0.35357 0.58955 0.0
C1001 C 0.65253 0.43076 0.4552 0.0
C1002 C 0.58993 0.405 0.45261 0.0
C1003 C 0.6334 0.42869 0.66378 0.0
C1004 C 0.64655 0.40479 0.68491 0.0
C1005 C 0.65706 0.37408 0.67027 0.0
C1006 C 0.65493 0.36741 0.63487 0.0
C1007 C 0.64284 0.39205 0.61389 0.0
C1008 C 0.63234 0.42206 0.62842 0.0
C1009 C 0.62276 0.44635 0.60222 0.0
C1010 C 0.62709 0.42498 0.56953 0.0
C1011 C 0.63916 0.39341 0.57653 0.0
C1012 C 0.6491 0.47756 0.607 0.0
C1013 C 0.58537 0.45521 0.60592 0.0
C1014 C 0.66532 0.29112 0.50093 0.0
C1015 C 0.66233 0.28346 0.46556 0.0
C1016 C 0.65301 0.30897 0.44406 0.0
C1017 C 0.64545 0.34115 0.45779 0.0
C1018 C 0.64763 0.34806 0.49333 0.0
C1019 C 0.65806 0.32335 0.51416 0.0
C1020 C 0.65927 0.33486 0.55125 0.0
C1021 C 0.6454 0.36968 0.54945 0.0
C1022 C 0.63944 0.37775 0.51547 0.0
C1023 C 0.69703 0.33785 0.56525 0.0
C1024 C 0.6362 0.30962 0.56957 0.0
H1025 H 0.59956 0.50009 0.56292 0.0
H1026 H 0.59512 0.4791 0.43722 0.0
H1027 H 0.5651 0.41144 0.46215 0.0
H1028 H 0.59009 0.37716 0.45392 0.0
H1029 H 0.58975 0.41125 0.42557 0.0
H1030 H 0.67143 0.44856 0.47078 0.0
H1031 H 0.64664 0.44237 0.43081 0.0
H1032 H 0.66551 0.40734 0.44988 0.0
H1033 H 0.62619 0.45295 0.67445 0.0
H1034 H 0.66765 0.35557 0.68627 0.0
H1035 H 0.66352 0.34369 0.62522 0.0
H1036 H 0.6753 0.46931 0.61179 0.0
H1037 H 0.64377 0.49485 0.62908 0.0
H1038 H 0.65009 0.49232 0.58425 0.0
H1039 H 0.57139 0.43702 0.62125 0.0
H1040 H 0.57044 0.45407 0.58099 0.0
H1041 H 0.58428 0.48094 0.61882 0.0
H1042 H 0.57946 0.54294 0.5271 0.0
C1043 C 0.59978 0.49492 0.53595 0.0
C1044 C 0.87637 0.67488 0.04734 0.0
C1045 C 0.86707 0.70583 0.06245 0.0
C1046 C 0.85882 0.70739 0.09672 0.0
C1047 C 0.86669 0.64722 0.09933 0.0
C1048 C 0.87551 0.6459 0.06599 0.0
C1049 C 0.88043 0.61019 0.05234 0.0
H1050 H 0.86439 0.4414 0.07336 0.0
C1051 C 0.86489 0.61214 0.11035 0.0
C1052 C 0.87255 0.59026 0.0828 0.0
H1053 H 0.89318 0.49061 0.98377 0.0
H1054 H 0.89237 0.54577 0.01425 0.0
H1055 H 0.9137 0.49468 0.1291 0.0
H1056 H 0.80877 0.48459 0.09072 0.0
H1057 H 0.80865 0.50186 0.13279 0.0
H1058 H 0.8241 0.46025 0.1246 0.0
H1059 H 0.88395 0.46057 0.13807 0.0
H1060 H 0.88849 0.50017 0.16391 0.0
C1061 C 0.91804 0.60856 0.04396 0.0
C1062 C 0.8542 0.60085 0.0215 0.0
C1063 C 0.83532 0.58978 0.23082 0.0
C1064 C 0.82943 0.55955 0.24715 0.0
C1065 C 0.8293 0.5281 0.22817 0.0
C1066 C 0.8377 0.52644 0.1943 0.0
C1067 C 0.84505 0.55674 0.17868 0.0
C1068 C 0.84282 0.58774 0.19654 0.0
C1069 C 0.84824 0.6171 0.17458 0.0
C1070 C 0.85603 0.59861 0.1413 0.0
C1071 C 0.85424 0.56332 0.14401 0.0
C1072 C 0.8792 0.64024 0.19037 0.0
C1073 C 0.81459 0.63519 0.17104 0.0
C1074 C 0.87079 0.46398 0.06026 0.0
C1075 C 0.87845 0.46162 0.02595 0.0
C1076 C 0.88693 0.49173 0.01011 0.0
C1077 C 0.88631 0.52372 0.02781 0.0
C1078 C 0.87692 0.52561 0.06161 0.0
C1079 C 0.87012 0.49598 0.07746 0.0
C1080 C 0.86035 0.50258 0.11329 0.0
C1081 C 0.86172 0.54115 0.11618 0.0
C1082 C 0.8713 0.55455 0.08587 0.0
C1083 C 0.8878 0.48869 0.13758 0.0
C1084 C 0.82371 0.48639 0.1158 0.0
H1085 H 0.85243 0.68108 0.14127 0.0
H1086 H 0.88241 0.67271 0.02094 0.0
H1087 H 0.82999 0.61306 0.02521 0.0
H1088 H 0.8466 0.57336 0.01789 0.0
H1089 H 0.86408 0.60953 0.9976 0.0
H1090 H 0.93525 0.62389 0.06359 0.0
H1091 H 0.92229 0.61887 0.01895 0.0
H1092 H 0.9267 0.58253 0.04393 0.0
H1093 H 0.83426 0.61442 0.24442 0.0
H1094 H 0.8217 0.50473 0.23921 0.0
H1095 H 0.83766 0.5016 0.18151 0.0
H1096 H 0.89989 0.62474 0.19987 0.0
H1097 H 0.87214 0.657 0.21212 0.0
H1098 H 0.89052 0.65608 0.17152 0.0
H1099 H 0.79209 0.61754 0.17451 0.0
H1100 H 0.80952 0.64419 0.14535 0.0
H1101 H 0.81454 0.65701 0.19032 0.0
H1102 H 0.85175 0.73097 0.10903 0.0
C1103 C 0.85895 0.67834 0.11533 0.0
C1104 C 0.2119 0.99396 0.56579 0.0
C1105 C 0.21996 0.95986 0.56175 0.0
C1106 C 0.2289 0.94684 0.52973 0.0
C1107 C 0.21884 0.00096 0.5061 0.0
C1108 C 0.2122 0.01416 0.53805 0.0
C1109 C 0.20643 0.05151 0.53889 0.0
H1110 H 0.19705 0.19488 0.45471 0.0
C1111 C 0.21608 0.02849 0.4826 0.0
C1112 C 0.20993 0.05841 0.50189 0.0
H1113 H 0.19427 0.18508 0.56305 0.0
H1114 H 0.1988 0.12435 0.55434 0.0
H1115 H 0.2558 0.14988 0.44326 0.0
H1116 H 0.14772 0.12525 0.43193 0.0
H1117 H 0.16518 0.10523 0.39677 0.0
H1118 H 0.16991 0.15093 0.40351 0.0
H1119 H 0.23009 0.16104 0.407 0.0
H1120 H 0.24853 0.1204 0.40779 0.0
C1121 C 0.2347 0.07141 0.56306 0.0
C1122 C 0.16986 0.05623 0.54933 0.0
C1123 C 0.20921 0.00091 0.35458 0.0
C1124 C 0.20521 0.02139 0.32701 0.0
C1125 C 0.20681 0.05695 0.33286 0.0
C1126 C 0.2104 0.07206 0.36612 0.0
C1127 C 0.21253 0.05129 0.39369 0.0
C1128 C 0.21323 0.01642 0.38774 0.0
C1129 C 0.21761 0.99877 0.42032 0.0
C1130 C 0.21659 0.02856 0.44666 0.0
C1131 C 0.21321 0.05909 0.43079 0.0
C1132 C 0.25274 0.98332 0.42179 0.0
C1133 C 0.1872 0.97217 0.42179 0.0
C1134 C 0.19705 0.17969 0.47659 0.0
C1135 C 0.19538 0.19488 0.50961 0.0
C1136 C 0.19559 0.17405 0.53733 0.0
C1137 C 0.19837 0.13881 0.53226 0.0
C1138 C 0.20105 0.12421 0.49915 0.0
C1139 C 0.20006 0.1446 0.47201 0.0
C1140 C 0.20367 0.12495 0.43867 0.0
C1141 C 0.20811 0.08955 0.45038 0.0
C1142 C 0.20631 0.08919 0.48574 0.0
C1143 C 0.236 0.1398 0.42303 0.0
C1144 C 0.1701 0.12666 0.41625 0.0
H1145 H 0.23432 0.95579 0.47774 0.0
H1146 H 0.20557 0.00482 0.59018 0.0
H1147 H 0.15139 0.03732 0.5346 0.0
H1148 H 0.16114 0.08151 0.54423 0.0
H1149 H 0.16797 0.05248 0.57678 0.0
H1150 H 0.25735 0.05645 0.56715 0.0
H1151 H 0.2254 0.07793 0.58843 0.0
H1152 H 0.24467 0.0951 0.55251 0.0
H1153 H 0.20848 0.97345 0.35035 0.0
H1154 H 0.20384 0.07295 0.31173 0.0
H1155 H 0.21054 0.09928 0.36906 0.0
H1156 H 0.27045 0.9959 0.40493 0.0
H1157 H 0.25022 0.95571 0.41367 0.0
H1158 H 0.26603 0.98704 0.44755 0.0
H1159 H 0.16271 0.98402 0.41712 0.0
H1160 H 0.1863 0.96122 0.44671 0.0
H1161 H 0.18821 0.95082 0.40215 0.0
H1162 H 0.23539 0.92069 0.52605 0.0
C1163 C 0.22808 0.96717 0.50175 0.0
C1164 C 0.282 0.00451 0.01347 0.0
C1165 C 0.29317 0.97127 0.01102 0.0
C1166 C 0.30847 0.96005 0.98145 0.0
C1167 C 0.29826 0.01303 0.95621 0.0
C1168 C 0.28497 0.025 0.98583 0.0
C1169 C 0.27366 0.06062 0.98338 0.0
H1170 H 0.2299 0.18396 0.88091 0.0
C1171 C 0.29535 0.03907 0.93122 0.0
C1172 C 0.28149 0.06745 0.94707 0.0
H1173 H 0.21832 0.18234 0.98881 0.0
H1174 H 0.25065 0.1321 0.99091 0.0
H1175 H 0.30613 0.16817 0.88284 0.0
H1176 H 0.21345 0.10489 0.86325 0.0
H1177 H 0.24087 0.09365 0.83175 0.0
H1178 H 0.22844 0.13648 0.836 0.0
H1179 H 0.28539 0.16179 0.84094 0.0
H1180 H 0.31692 0.13396 0.85574 0.0
C1181 C 0.29569 0.08482 0.00988 0.0
C1182 C 0.23507 0.05956 0.98828 0.0
C1183 C 0.31128 0.00639 0.80673 0.0
C1184 C 0.30528 0.02367 0.77714 0.0
C1185 C 0.29964 0.05858 0.78029 0.0
C1186 C 0.29766 0.0755 0.81228 0.0
C1187 C 0.30041 0.05716 0.84149 0.0
C1188 C 0.30866 0.02365 0.83865 0.0
C1189 C 0.31081 0.00848 0.87267 0.0
C1190 C 0.30106 0.03805 0.89602 0.0
C1191 C 0.2944 0.06619 0.8774 0.0
C1192 C 0.34806 0.9997 0.88082 0.0
C1193 C 0.28419 0.97755 0.87089 0.0
C1194 C 0.23456 0.17297 0.90509 0.0
C1195 C 0.22115 0.18673 0.93457 0.0
C1196 C 0.22837 0.17216 0.9657 0.0
C1197 C 0.24677 0.14278 0.96675 0.0
C1198 C 0.25788 0.12788 0.93637 0.0
C1199 C 0.25281 0.1439 0.90654 0.0
C1200 C 0.26643 0.12518 0.87664 0.0
C1201 C 0.2802 0.09482 0.89317 0.0
C1202 C 0.27444 0.09594 0.92802 0.0
C1203 C 0.29507 0.14836 0.86307 0.0
C1204 C 0.23597 0.11452 0.85028 0.0
H1205 H 0.3226 0.97046 0.93226 0.0
H1206 H 0.27065 0.01414 0.03607 0.0
H1207 H 0.22143 0.03756 0.97281 0.0
H1208 H 0.22302 0.08228 0.98003 0.0
H1209 H 0.23016 0.05676 0.01538 0.0
H1210 H 0.32217 0.07683 0.01282 0.0
H1211 H 0.28511 0.08487 0.03525 0.0
H1212 H 0.29839 0.11121 0.00212 0.0
H1213 H 0.31534 0.97949 0.80505 0.0
H1214 H 0.29532 0.07249 0.75781 0.0
H1215 H 0.2923 0.10179 0.81289 0.0
H1216 H 0.36632 0.0156 0.8672 0.0
H1217 H 0.35154 0.97262 0.87319 0.0
H1218 H 0.35644 0.00505 0.90813 0.0
H1219 H 0.25975 0.98381 0.85785 0.0
H1220 H 0.27759 0.96971 0.89602 0.0
H1221 H 0.29326 0.95522 0.85642 0.0
H1222 H 0.31774 0.93484 0.97897 0.0
C1223 C 0.31124 0.98077 0.95422 0.0
C1224 C 0.60643 0.63794 0.41932 0.0
C1225 C 0.63121 0.63191 0.39631 0.0
C1226 C 0.62168 0.62784 0.36118 0.0
C1227 C 0.56296 0.63569 0.3726 0.0
C1228 C 0.57271 0.64017 0.40699 0.0
C1229 C 0.54437 0.65111 0.4278 0.0
H1230 H 0.38091 0.68801 0.43656 0.0
C1231 C 0.52621 0.64083 0.36835 0.0
C1232 C 0.51533 0.65011 0.40056 0.0
H1233 H 0.46319 0.70242 0.51532 0.0
H1234 H 0.5012 0.67891 0.47716 0.0
H1235 H 0.42587 0.71412 0.37473 0.0
H1236 H 0.39943 0.6137 0.40658 0.0
H1237 H 0.39984 0.61056 0.36199 0.0
H1238 H 0.36955 0.6362 0.38205 0.0
H1239 H 0.38286 0.69582 0.37411 0.0
H1240 H 0.40877 0.68676 0.33955 0.0
C1241 C 0.55437 0.68769 0.44405 0.0
C1242 C 0.53756 0.62424 0.45373 0.0
C1243 C 0.46407 0.62532 0.25084 0.0
C1244 C 0.42952 0.62466 0.23934 0.0
C1245 C 0.40497 0.62785 0.26354 0.0
C1246 C 0.41481 0.63304 0.29846 0.0
C1247 C 0.44955 0.63519 0.30937 0.0
C1248 C 0.47343 0.63031 0.28577 0.0
C1249 C 0.50901 0.6311 0.30215 0.0
C1250 C 0.50247 0.63707 0.33948 0.0
C1251 C 0.46778 0.64097 0.34348 0.0
C1252 C 0.53004 0.66178 0.28971 0.0
C1253 C 0.52374 0.59631 0.2938 0.0
C1254 C 0.40708 0.68559 0.44565 0.0
C1255 C 0.41875 0.69623 0.47952 0.0
C1256 C 0.45306 0.69324 0.49005 0.0
C1257 C 0.47535 0.67982 0.46749 0.0
C1258 C 0.46336 0.66908 0.43389 0.0
C1259 C 0.4297 0.67197 0.42336 0.0
C1260 C 0.42192 0.66032 0.38624 0.0
C1261 C 0.4569 0.65127 0.37605 0.0
C1262 C 0.48078 0.65617 0.40426 0.0
C1263 C 0.40901 0.69067 0.36745 0.0
C1264 C 0.39618 0.62868 0.38381 0.0
H1265 H 0.58172 0.62641 0.32215 0.0
H1266 H 0.61352 0.64286 0.44631 0.0
H1267 H 0.53299 0.59862 0.44016 0.0
H1268 H 0.51462 0.62791 0.46755 0.0
H1269 H 0.55956 0.62404 0.47281 0.0
H1270 H 0.57526 0.70076 0.43118 0.0
H1271 H 0.56318 0.68729 0.47136 0.0
H1272 H 0.53315 0.70458 0.44162 0.0
H1273 H 0.48354 0.62237 0.23302 0.0
H1274 H 0.37815 0.62717 0.25543 0.0
H1275 H 0.39505 0.63566 0.31563 0.0
H1276 H 0.51537 0.68489 0.29073 0.0
H1277 H 0.53642 0.65654 0.26296 0.0
H1278 H 0.55388 0.66863 0.30567 0.0
H1279 H 0.50333 0.57579 0.28665 0.0
H1280 H 0.53843 0.58757 0.31596 0.0
H1281 H 0.5403 0.59744 0.27219 0.0
H1282 H 0.64073 0.62391 0.34307 0.0
C1283 C 0.58754 0.62937 0.34918 0.0
C1284 C 0.09629 0.25584 0.06084 0.0
C1285 C 0.13159 0.25765 0.05724 0.0
C1286 C 0.14495 0.27888 0.03324 0.0
C1287 C 0.08848 0.29359 0.01508 0.0
C1288 C 0.07528 0.2741 0.0396 0.0
C1289 C 0.03701 0.27346 0.03833 0.0
H1290 H 0.89005 0.31767 0.95982 0.0
C1291 C 0.05999 0.3071 0.9953 0.0
C1292 C 0.02969 0.29573 0.00902 0.0
H1293 H 0.9019 0.24981 0.04055 0.0
H1294 H 0.96314 0.26083 0.04278 0.0
H1295 H 0.95313 0.37678 0.98869 0.0
H1296 H 0.93952 0.28872 0.91841 0.0
H1297 H 0.97198 0.31392 0.90238 0.0
H1298 H 0.93052 0.33 0.90542 0.0
H1299 H 0.92833 0.37437 0.94865 0.0
H1300 H 0.97333 0.38679 0.95174 0.0
C1301 C 0.0269 0.29005 0.07245 0.0
C1302 C 0.02222 0.23611 0.0303 0.0
C1303 C 0.08026 0.36201 0.88482 0.0
C1304 C 0.05765 0.3733 0.85952 0.0
C1305 C 0.02372 0.37766 0.86693 0.0
C1306 C 0.01173 0.36803 0.89772 0.0
C1307 C 0.03377 0.35365 0.9213 0.0
C1308 C 0.06777 0.35228 0.91546 0.0
C1309 C 0.08735 0.33648 0.94374 0.0
C1310 C 0.05892 0.32644 0.96614 0.0
C1311 C 0.02762 0.3363 0.95258 0.0
C1312 C 0.11322 0.36422 0.96198 0.0
C1313 C 0.10376 0.30499 0.9281 0.0
C1314 C 0.90584 0.30601 0.97866 0.0
C1315 C 0.89135 0.28342 0.00049 0.0
C1316 C 0.91269 0.26746 0.02362 0.0
C1317 C 0.94817 0.27392 0.02485 0.0
C1318 C 0.96242 0.29595 0.00217 0.0
C1319 C 0.94125 0.31156 0.97961 0.0
C1320 C 0.9606 0.33141 0.95509 0.0
C1321 C 0.99698 0.3254 0.96676 0.0
C1322 C 0.99795 0.30497 0.9946 0.0
C1323 C 0.95346 0.36938 0.961 0.0
C1324 C 0.95017 0.31555 0.91839 0.0
H1325 H 0.13555 0.31218 0.99437 0.0
H1326 H 0.08496 0.2395 0.07852 0.0
H1327 H 0.04035 0.22041 0.01703 0.0
H1328 H 0.99907 0.23413 0.01265 0.0
H1329 H 0.01638 0.22381 0.05396 0.0
H1330 H 0.04179 0.31486 0.07871 0.0
H1331 H 0.03203 0.27343 0.0936 0.0
H1332 H 0.99992 0.29579 0.0718 0.0
H1333 H 0.10662 0.3589 0.88013 0.0
H1334 H 0.00587 0.38681 0.84818 0.0
H1335 H 0.98533 0.37066 0.90128 0.0
H1336 H 0.10429 0.39019 0.95973 0.0
H1337 H 0.13831 0.36386 0.95086 0.0
H1338 H 0.11671 0.36163 0.98973 0.0
H1339 H 0.08538 0.29 0.9093 0.0
H1340 H 0.11128 0.28701 0.94695 0.0
H1341 H 0.12655 0.31281 0.91469 0.0
H1342 H 0.17193 0.28113 0.02999 0.0
C1343 C 0.12373 0.29699 0.01243 0.0
C1344 C 0.2236 0.83354 0.56566 0.0
C1345 C 0.24278 0.82997 0.59627 0.0
C1346 C 0.22684 0.83082 0.62705 0.0
C1347 C 0.17268 0.83759 0.59632 0.0
C1348 C 0.18863 0.83689 0.5662 0.0
C1349 C 0.16388 0.83671 0.53551 0.0
H1350 H 0.00135 0.81652 0.46928 0.0
C1351 C 0.13578 0.83853 0.58774 0.0
C1352 C 0.13041 0.83762 0.5522 0.0
H1353 H 0.09396 0.8163 0.41668 0.0
H1354 H 0.12714 0.8321 0.46941 0.0
H1355 H 0.02777 0.77641 0.53095 0.0
H1356 H 0.02605 0.88464 0.52204 0.0
H1357 H 0.01643 0.87653 0.56371 0.0
H1358 H 0.98822 0.85857 0.52811 0.0
H1359 H 0.98904 0.79777 0.52739 0.0
H1360 H 0.01194 0.79503 0.56787 0.0
C1361 C 0.16647 0.8032 0.51303 0.0
C1362 C 0.17168 0.86962 0.51739 0.0
C1363 C 0.05488 0.83483 0.68191 0.0
C1364 C 0.01924 0.83301 0.682 0.0
C1365 C 0.99965 0.83594 0.65122 0.0
C1366 C 0.01531 0.83889 0.62057 0.0
C1367 C 0.05091 0.83871 0.62066 0.0
C1368 C 0.07008 0.83776 0.65116 0.0
C1369 C 0.10754 0.83793 0.64659 0.0
C1370 C 0.1077 0.83884 0.60827 0.0
C1371 C 0.07447 0.83884 0.59309 0.0
C1372 C 0.12061 0.80443 0.65937 0.0
C1373 C 0.12513 0.87089 0.66528 0.0
C1374 C 0.02876 0.82039 0.46913 0.0
C1375 C 0.04514 0.81462 0.43891 0.0
C1376 C 0.08081 0.82002 0.43972 0.0
C1377 C 0.10007 0.82911 0.47041 0.0
C1378 C 0.0836 0.83234 0.50078 0.0
C1379 C 0.04848 0.82893 0.4998 0.0
C1380 C 0.03562 0.83236 0.53489 0.0
C1381 C 0.0689 0.83693 0.55701 0.0
C1382 C 0.09681 0.83681 0.53678 0.0
C1383 C 0.0148 0.79883 0.54079 0.0
C1384 C 0.01527 0.86451 0.5375 0.0
H1385 H 0.18109 0.83542 0.65152 0.0
H1386 H 0.23533 0.83213 0.5416 0.0
H1387 H 0.17566 0.89195 0.5363 0.0
H1388 H 0.15058 0.8756 0.49948 0.0
H1389 H 0.1951 0.86795 0.50344 0.0
H1390 H 0.17848 0.78338 0.52756 0.0
H1391 H 0.18194 0.80767 0.49105 0.0
H1392 H 0.14124 0.79105 0.5035 0.0
H1393 H 0.07072 0.8329 0.70512 0.0
H1394 H 0.97212 0.83483 0.65062 0.0
H1395 H 0.99907 0.84021 0.59784 0.0
H1396 H 0.10001 0.78355 0.65717 0.0
H1397 H 0.13042 0.80792 0.68651 0.0
H1398 H 0.14059 0.79432 0.64403 0.0
H1399 H 0.10947 0.89291 0.66138 0.0
H1400 H 0.15 0.87827 0.65568 0.0
H1401 H 0.12868 0.86824 0.69312 0.0
H1402 H 0.24141 0.82792 0.65083 0.0
C1403 C 0.1919 0.83511 0.62731 0.0
C1404 C 0.42463 0.19427 0.91416 0.0
C1405 C 0.45626 0.18676 0.90263 0.0
C1406 C 0.48463 0.18682 0.92624 0.0
C1407 C 0.44878 0.19883 0.97267 0.0
C1408 C 0.42159 0.20081 0.94902 0.0
C1409 C 0.39013 0.21122 0.96513 0.0
H1410 H 0.31397 0.25782 0.10746 0.0
C1411 C 0.4363 0.20475 0.00698 0.0
C1412 C 0.40209 0.21254 0.00255 0.0
H1413 H 0.27805 0.26573 0.00259 0.0
H1414 H 0.32617 0.23736 0.98353 0.0
H1415 H 0.33649 0.18422 0.0986 0.0
H1416 H 0.39289 0.28097 0.09904 0.0
H1417 H 0.41482 0.25478 0.12634 0.0
H1418 H 0.37243 0.26467 0.13454 0.0
H1419 H 0.35674 0.20464 0.13729 0.0
H1420 H 0.37867 0.17578 0.11039 0.0
C1421 C 0.36114 0.18302 0.95591 0.0
C1422 C 0.38201 0.24678 0.95332 0.0
C1423 C 0.51225 0.19165 0.1149 0.0
C1424 C 0.50515 0.19176 0.14945 0.0
C1425 C 0.47147 0.19482 0.15825 0.0
C1426 C 0.44558 0.19953 0.13349 0.0
C1427 C 0.45323 0.20103 0.09943 0.0
C1428 C 0.48568 0.19567 0.09022 0.0
C1429 C 0.4877 0.19485 0.05209 0.0
C1430 C 0.45143 0.20189 0.04038 0.0
C1431 C 0.43183 0.20636 0.06852 0.0
C1432 C 0.49662 0.15877 0.03959 0.0
C1433 C 0.51379 0.22366 0.04394 0.0
C1434 C 0.31659 0.25346 0.0804 0.0
C1435 C 0.29199 0.26361 0.05654 0.0
C1436 C 0.29605 0.25724 0.02153 0.0
C1437 C 0.32447 0.24145 0.01047 0.0
C1438 C 0.34946 0.23251 0.03463 0.0
C1439 C 0.34502 0.23804 0.06893 0.0
C1440 C 0.37424 0.22701 0.09095 0.0
C1441 C 0.39806 0.21632 0.06414 0.0
C1442 C 0.38329 0.21934 0.0313 0.0
C1443 C 0.36102 0.19649 0.11053 0.0
C1444 C 0.3895 0.25832 0.11415 0.0
H1445 H 0.5033 0.19178 0.97831 0.0
H1446 H 0.40262 0.19495 0.8963 0.0
H1447 H 0.40421 0.26005 0.94261 0.0
H1448 H 0.37575 0.2644 0.97467 0.0
H1449 H 0.36068 0.24471 0.93326 0.0
H1450 H 0.37049 0.15743 0.95952 0.0
H1451 H 0.35138 0.18344 0.92891 0.0
H1452 H 0.33953 0.18528 0.9721 0.0
H1453 H 0.5378 0.18868 0.10731 0.0
H1454 H 0.46526 0.19486 0.18458 0.0
H1455 H 0.42073 0.20257 0.142 0.0
H1456 H 0.4817 0.13904 0.05238 0.0
H1457 H 0.52406 0.15539 0.04545 0.0
H1458 H 0.49041 0.15283 0.01211 0.0
H1459 H 0.51198 0.24684 0.06119 0.0
H1460 H 0.50924 0.23197 0.01796 0.0
H1461 H 0.54022 0.21576 0.04724 0.0
H1462 H 0.50921 0.181 0.91765 0.0
C1463 C 0.48101 0.19264 0.96134 0.0
C1464 C 0.4519 0.63607 0.61715 0.0
C1465 C 0.48718 0.64365 0.61797 0.0
C1466 C 0.50919 0.6174 0.62281 0.0
C1467 C 0.46123 0.57844 0.6319 0.0
C1468 C 0.43952 0.60347 0.62455 0.0
C1469 C 0.40314 0.59271 0.62984 0.0
H1470 H 0.28865 0.47599 0.68299 0.0
C1471 C 0.44083 0.54905 0.64314 0.0
C1472 C 0.40661 0.55707 0.64146 0.0
H1473 H 0.27211 0.57814 0.6553 0.0
H1474 H 0.33059 0.58595 0.64128 0.0
H1475 H 0.34197 0.45677 0.62099 0.0
H1476 H 0.34626 0.49045 0.72585 0.0
H1477 H 0.38706 0.47635 0.72199 0.0
H1478 H 0.35026 0.44663 0.71338 0.0
H1479 H 0.32976 0.43215 0.65545 0.0
H1480 H 0.37289 0.43441 0.64289 0.0
C1481 C 0.38253 0.592 0.5951 0.0
C1482 C 0.39046 0.61729 0.65793 0.0
C1483 C 0.4984 0.45489 0.70242 0.0
C1484 C 0.48469 0.42638 0.7179 0.0
C1485 C 0.44974 0.41644 0.71151 0.0
C1486 C 0.42821 0.43603 0.69274 0.0
C1487 C 0.44153 0.46618 0.68034 0.0
C1488 C 0.47625 0.47444 0.68366 0.0
C1489 C 0.48537 0.50724 0.66765 0.0
C1490 C 0.45017 0.51813 0.65656 0.0
C1491 C 0.42469 0.49418 0.66479 0.0
C1492 C 0.50663 0.49916 0.63687 0.0
C1493 C 0.50402 0.5326 0.69551 0.0
C1494 C 0.29743 0.49991 0.67344 0.0
C1495 C 0.27561 0.5264 0.67012 0.0
C1496 C 0.28837 0.55733 0.65822 0.0
C1497 C 0.3224 0.56188 0.65018 0.0
C1498 C 0.34411 0.53543 0.65447 0.0
C1499 C 0.33149 0.50512 0.666 0.0
C1500 C 0.35875 0.48087 0.67185 0.0
C1501 C 0.38997 0.50184 0.66232 0.0
C1502 C 0.38108 0.5334 0.65135 0.0
C1503 C 0.35047 0.44915 0.64668 0.0
C1504 C 0.36075 0.47294 0.71005 0.0
H1505 H 0.51434 0.56604 0.634 0.0
H1506 H 0.43443 0.65591 0.61445 0.0
H1507 H 0.41194 0.63092 0.67416 0.0
H1508 H 0.3753 0.60372 0.6761 0.0
H1509 H 0.37512 0.6369 0.64668 0.0
H1510 H 0.39567 0.57814 0.57493 0.0
H1511 H 0.37944 0.61825 0.58735 0.0
H1512 H 0.3572 0.57866 0.59537 0.0
H1513 H 0.52521 0.46288 0.70639 0.0
H1514 H 0.43864 0.39399 0.72213 0.0
H1515 H 0.40175 0.42761 0.68962 0.0
H1516 H 0.50241 0.47199 0.62708 0.0
H1517 H 0.53429 0.50432 0.64393 0.0
H1518 H 0.49946 0.51387 0.61486 0.0
H1519 H 0.48987 0.53329 0.71895 0.0
H1520 H 0.50632 0.55898 0.68794 0.0
H1521 H 0.53005 0.52498 0.70238 0.0
H1522 H 0.53652 0.62279 0.62364 0.0
C1523 C 0.49634 0.58467 0.62931 0.0
C1524 C 0.92875 0.82025 0.31509 0.0
C1525 C 0.9568 0.80223 0.30644 0.0
C1526 C 0.98976 0.81853 0.31157 0.0
C1527 C 0.96673 0.86989 0.33412 0.0
C1528 C 0.93431 0.85397 0.32901 0.0
C1529 C 0.90748 0.87722 0.33924 0.0
H1530 H 0.86626 0.03697 0.38247 0.0
C1531 C 0.96381 0.90533 0.34733 0.0
C1532 C 0.92914 0.90986 0.35042 0.0
H1533 H 0.79874 0.94561 0.36697 0.0
H1534 H 0.84695 0.91183 0.35949 0.0
H1535 H 0.91707 0.01299 0.4295 0.0
H1536 H 0.92044 0.01415 0.32095 0.0
H1537 H 0.95818 0.03414 0.34245 0.0
H1538 H 0.91792 0.0504 0.35017 0.0
H1539 H 0.93795 0.04817 0.411 0.0
H1540 H 0.96039 0.01156 0.42212 0.0
C1541 C 0.88948 0.86229 0.36922 0.0
C1542 C 0.88344 0.88126 0.30733 0.0
C1543 C 0.07021 0.98574 0.37141 0.0
C1544 C 0.07512 0.02004 0.38379 0.0
C1545 C 0.04665 0.03874 0.38932 0.0
C1546 C 0.01361 0.02343 0.38308 0.0
C1547 C 0.00897 0.98883 0.3717 0.0
C1548 C 0.03697 0.97059 0.36587 0.0
C1549 C 0.02703 0.93396 0.35424 0.0
C1550 C 0.98854 0.93308 0.35505 0.0
C1551 C 0.97819 0.96529 0.36515 0.0
C1552 C 0.04295 0.91114 0.38065 0.0
C1553 C 0.03831 0.92749 0.3176 0.0
C1554 C 0.86178 0.00975 0.37739 0.0
C1555 C 0.82862 0.99409 0.37489 0.0
C1556 C 0.82403 0.95838 0.36889 0.0
C1557 C 0.85203 0.93883 0.36433 0.0
C1558 C 0.88492 0.95517 0.36555 0.0
C1559 C 0.88938 0.98998 0.3727 0.0
C1560 C 0.92619 0.00294 0.37478 0.0
C1561 C 0.94317 0.97008 0.36789 0.0
C1562 C 0.91883 0.94238 0.36129 0.0
C1563 C 0.93605 0.01995 0.41107 0.0
C1564 C 0.93119 0.02686 0.34573 0.0
H1565 H 0.02063 0.86302 0.3288 0.0
H1566 H 0.90312 0.80835 0.31114 0.0
H1567 H 0.89839 0.8856 0.2849 0.0
H1568 H 0.8678 0.90323 0.31005 0.0
H1569 H 0.86616 0.85796 0.30104 0.0
H1570 H 0.9069 0.8474 0.38475 0.0
H1571 H 0.86693 0.84502 0.3599 0.0
H1572 H 0.88161 0.8823 0.38743 0.0
H1573 H 0.09171 0.97066 0.36744 0.0
H1574 H 0.05003 0.06528 0.39859 0.0
H1575 H 0.99305 0.0391 0.38765 0.0
H1576 H 0.0414 0.92255 0.40701 0.0
H1577 H 0.07022 0.90821 0.37673 0.0
H1578 H 0.02955 0.88562 0.3802 0.0
H1579 H 0.0387 0.95115 0.30374 0.0
H1580 H 0.02055 0.90922 0.30159 0.0
H1581 H 0.0643 0.91829 0.31793 0.0
H1582 H 0.01162 0.80556 0.30388 0.0
C1583 C 0.99491 0.8521 0.32559 0.0
C1584 C 0.68937 0.00219 0.79593 0.0
C1585 C 0.72124 0.02013 0.79464 0.0
C1586 C 0.72353 0.05597 0.79897 0.0
C1587 C 0.66262 0.05555 0.80362 0.0
C1588 C 0.66044 0.02035 0.80009 0.0
C1589 C 0.6242 0.00544 0.79898 0.0
H1590 H 0.45627 0.03245 0.79606 0.0
C1591 C 0.62776 0.06675 0.80484 0.0
C1592 C 0.60505 0.03748 0.80201 0.0
H1593 H 0.50099 0.9354 0.78809 0.0
H1594 H 0.55746 0.96433 0.79516 0.0
H1595 H 0.51088 0.06986 0.85664 0.0
H1596 H 0.49843 0.0654 0.74765 0.0
H1597 H 0.51981 0.10531 0.75903 0.0
H1598 H 0.47784 0.0959 0.77323 0.0
H1599 H 0.4772 0.08799 0.83264 0.0
H1600 H 0.51731 0.11169 0.84414 0.0
C1601 C 0.62049 0.98401 0.83012 0.0
C1602 C 0.61562 0.98509 0.76417 0.0
C1603 C 0.6079 0.19341 0.81488 0.0
C1604 C 0.57785 0.21067 0.8136 0.0
C1605 C 0.5463 0.19187 0.80751 0.0
C1606 C 0.5442 0.15639 0.80537 0.0
C1607 C 0.57416 0.13929 0.80806 0.0
C1608 C 0.60542 0.15763 0.81189 0.0
C1609 C 0.6344 0.13466 0.81089 0.0
C1610 C 0.61517 0.09968 0.80699 0.0
C1611 C 0.57999 0.10278 0.80577 0.0
C1612 C 0.65597 0.14037 0.84527 0.0
C1613 C 0.65438 0.14213 0.77935 0.0
C1614 C 0.4781 0.0172 0.79631 0.0
C1615 C 0.47407 0.98155 0.79156 0.0
C1616 C 0.50336 0.96293 0.79168 0.0
C1617 C 0.53611 0.97979 0.79566 0.0
C1618 C 0.53956 0.01563 0.79917 0.0
C1619 C 0.5107 0.03355 0.7997 0.0
C1620 C 0.51854 0.07135 0.80193 0.0
C1621 C 0.55704 0.07341 0.80331 0.0
C1622 C 0.56939 0.04084 0.80163 0.0
C1623 C 0.50521 0.0863 0.83542 0.0
C1624 C 0.50277 0.08546 0.76899 0.0
H1625 H 0.69782 0.10099 0.80656 0.0
H1626 H 0.68672 0.97466 0.79229 0.0
H1627 H 0.62805 0.99798 0.74353 0.0
H1628 H 0.5882 0.98318 0.75616 0.0
H1629 H 0.62462 0.95904 0.76457 0.0
H1630 H 0.63486 0.997 0.85313 0.0
H1631 H 0.63062 0.95864 0.82554 0.0
H1632 H 0.59394 0.98046 0.83706 0.0
H1633 H 0.63262 0.20738 0.8181 0.0
H1634 H 0.52313 0.20473 0.80363 0.0
H1635 H 0.51925 0.14377 0.80135 0.0
H1636 H 0.63921 0.14166 0.86682 0.0
H1637 H 0.6721 0.16467 0.84655 0.0
H1638 H 0.67244 0.11944 0.85014 0.0
H1639 H 0.63792 0.15247 0.75905 0.0
H1640 H 0.66365 0.11892 0.76692 0.0
H1641 H 0.67626 0.16111 0.78615 0.0
H1642 H 0.7478 0.07034 0.79822 0.0
C1643 C 0.69446 0.07373 0.80369 0.0
C1644 C 0.10331 0.47711 0.21894 0.0
C1645 C 0.13721 0.471 0.21256 0.0
C1646 C 0.14438 0.4384 0.19938 0.0
C1647 C 0.08543 0.41808 0.20145 0.0
C1648 C 0.07781 0.4503 0.21304 0.0
C1649 C 0.04038 0.45175 0.21845 0.0
H1650 H 0.8846 0.36596 0.21565 0.0
C1651 C 0.05403 0.39543 0.1993 0.0
C1652 C 0.0272 0.41498 0.20874 0.0
H1653 H 0.90844 0.47314 0.24322 0.0
H1654 H 0.96781 0.46663 0.23249 0.0
H1655 H 0.93029 0.36007 0.15087 0.0
H1656 H 0.94426 0.34126 0.25649 0.0
H1657 H 0.96818 0.3116 0.23566 0.0
H1658 H 0.92274 0.31013 0.22591 0.0
H1659 H 0.90872 0.32539 0.16983 0.0
H1660 H 0.94975 0.32134 0.15308 0.0
C1661 C 0.02516 0.47654 0.19381 0.0
C1662 C 0.03672 0.46197 0.25646 0.0
C1663 C 0.06165 0.26769 0.17877 0.0
C1664 C 0.03748 0.24005 0.17988 0.0
C1665 C 0.00292 0.24625 0.18151 0.0
C1666 C 0.99269 0.27958 0.18349 0.0
C1667 C 0.01738 0.3071 0.18477 0.0
C1668 C 0.05112 0.30094 0.18162 0.0
C1669 C 0.07398 0.33328 0.18512 0.0
C1670 C 0.04833 0.35976 0.19149 0.0
C1671 C 0.01541 0.34419 0.19164 0.0
C1672 C 0.0912 0.33726 0.15123 0.0
C1673 C 0.09939 0.33155 0.21656 0.0
C1674 C 0.90241 0.38824 0.21926 0.0
C1675 C 0.89175 0.42011 0.23027 0.0
C1676 C 0.91606 0.44822 0.23504 0.0
C1677 C 0.95042 0.44438 0.2286 0.0
C1678 C 0.96054 0.41205 0.21756 0.0
C1679 C 0.93645 0.38476 0.21325 0.0
C1680 C 0.95114 0.35194 0.20273 0.0
C1681 C 0.98808 0.36386 0.20048 0.0
C1682 C 0.99374 0.39908 0.20914 0.0
C1683 C 0.93407 0.33864 0.16738 0.0
C1684 C 0.94627 0.32722 0.23138 0.0
H1685 H 0.12594 0.38791 0.18383 0.0
H1686 H 0.09684 0.50198 0.22867 0.0
H1687 H 0.05465 0.44854 0.27293 0.0
H1688 H 0.01119 0.45488 0.2646 0.0
H1689 H 0.0425 0.48979 0.26215 0.0
H1690 H 0.03548 0.47302 0.16836 0.0
H1691 H 0.03151 0.50343 0.20359 0.0
H1692 H 0.99729 0.47223 0.18911 0.0
H1693 H 0.08848 0.26366 0.1783 0.0
H1694 H 0.9839 0.22526 0.18235 0.0
H1695 H 0.96607 0.28259 0.18531 0.0
H1696 H 0.07868 0.3199 0.13005 0.0
H1697 H 0.11834 0.33137 0.1537 0.0
H1698 H 0.08967 0.36328 0.14241 0.0
H1699 H 0.0859 0.32251 0.2385 0.0
H1700 H 0.11236 0.35644 0.22557 0.0
H1701 H 0.11915 0.31362 0.21097 0.0
H1702 H 0.17005 0.433 0.19381 0.0
C1703 C 0.11872 0.4121 0.19365 0.0
loop_
_geom_bond_atom_site_label_1
_geom_bond_atom_site_label_2
_geom_bond_distance
_geom_bond_site_symmetry_2
_ccdc_geom_bond_type
O0 Cd1 2.300 . S
O0 C7 1.275 . S
Cd1 O0 2.300 . S
Cd1 O9 2.381 . S
Cd1 O10 2.378 . S
O2 Cd3 2.385 . S
O2 C7 1.255 . S
Cd3 O2 2.385 . S
Cd3 O4 2.317 . S
O4 Cd3 2.317 . S
O4 C5 1.232 . S
C5 O4 1.232 . S
C5 O6 1.218 . S
O6 C5 1.218 . S
C7 O0 1.275 . S
C7 O2 1.255 . S
C8 O9 1.258 . S
C8 O10 1.256 . S
O9 Cd1 2.381 . S
O9 C8 1.258 . S
O10 Cd1 2.378 . S
O10 C8 1.256 . S
O11 Cd12 2.300 . S
O11 C18 1.275 . S
Cd12 O11 2.300 . S
Cd12 O20 2.381 . S
Cd12 O21 2.378 . S
O13 Cd14 2.385 . S
O13 C18 1.255 . S
Cd14 O13 2.385 . S
Cd14 O15 2.317 . S
O15 Cd14 2.317 . S
O15 C16 1.232 . S
C16 O15 1.232 . S
C16 O17 1.218 . S
O17 C16 1.218 . S
C18 O11 1.275 . S
C18 O13 1.255 . S
C19 O20 1.258 . S
C19 O21 1.256 . S
O20 Cd12 2.381 . S
O20 C19 1.258 . S
O21 Cd12 2.378 . S
O21 C19 1.256 . S
O22 Cd23 2.300 . S
O22 C29 1.275 . S
Cd23 O22 2.300 . S
Cd23 O31 2.381 1_565 S
Cd23 O32 2.378 . S
O24 Cd25 2.385 . S
O24 C29 1.255 . S
Cd25 O24 2.385 . S
Cd25 O26 2.317 . S
O26 Cd25 2.317 . S
O26 C27 1.232 . S
C27 O26 1.232 . S
C27 O28 1.218 . S
O28 C27 1.218 . S
C29 O22 1.275 . S
C29 O24 1.255 . S
C30 O31 1.258 . S
C30 O32 1.256 1_545 S
O31 Cd23 2.381 1_545 S
O31 C30 1.258 . S
O32 Cd23 2.378 . S
O32 C30 1.256 1_565 S
O33 Cd34 2.300 . S
O33 C40 1.275 . S
Cd34 O33 2.300 . S
Cd34 O42 2.381 1_545 S
Cd34 O43 2.378 . S
O35 Cd36 2.385 . S
O35 C40 1.255 . S
Cd36 O35 2.385 . S
Cd36 O37 2.317 . S
O37 Cd36 2.317 . S
O37 C38 1.232 . S
C38 O37 1.232 . S
C38 O39 1.218 . S
O39 C38 1.218 . S
C40 O33 1.275 . S
C40 O35 1.255 . S
C41 O42 1.258 . S
C41 O43 1.256 1_565 S
O42 Cd34 2.381 1_565 S
O42 C41 1.258 . S
O43 Cd34 2.378 . S
O43 C41 1.256 1_545 S
O44 Cd45 2.300 . S
O44 C51 1.275 . S
Cd45 O44 2.300 . S
Cd45 O53 2.381 . S
Cd45 O54 2.378 . S
O46 Cd47 2.385 . S
O46 C51 1.255 . S
Cd47 O46 2.385 . S
Cd47 O48 2.317 . S
O48 Cd47 2.317 . S
O48 C49 1.232 . S
C49 O48 1.232 . S
C49 O50 1.218 . S
O50 C49 1.218 . S
C51 O44 1.275 . S
C51 O46 1.255 . S
C52 O53 1.258 . S
C52 O54 1.256 . S
O53 Cd45 2.381 . S
O53 C52 1.258 . S
O54 Cd45 2.378 . S
O54 C52 1.256 . S
O55 Cd56 2.300 . S
O55 C62 1.275 . S
Cd56 O55 2.300 . S
Cd56 O64 2.381 1_554 S
Cd56 O65 2.378 . S
O57 Cd58 2.385 . S
O57 C62 1.255 . S
Cd58 O57 2.385 . S
Cd58 O59 2.317 . S
O59 Cd58 2.317 . S
O59 C60 1.232 . S
C60 O59 1.232 . S
C60 O61 1.218 . S
O61 C60 1.218 . S
C62 O55 1.275 . S
C62 O57 1.255 . S
C63 O64 1.258 . S
C63 O65 1.256 1_556 S
O64 Cd56 2.381 1_556 S
O64 C63 1.258 . S
O65 Cd56 2.378 . S
O65 C63 1.256 1_554 S
O66 Cd67 2.300 . S
O66 C73 1.275 . S
Cd67 O66 2.300 . S
Cd67 O75 2.381 . S
Cd67 O76 2.378 . S
O68 Cd69 2.385 . S
O68 C73 1.255 . S
Cd69 O68 2.385 . S
Cd69 O70 2.317 . S
O70 Cd69 2.317 . S
O70 C71 1.232 . S
C71 O70 1.232 . S
C71 O72 1.218 . S
O72 C71 1.218 . S
C73 O66 1.275 . S
C73 O68 1.255 . S
C74 O75 1.258 . S
C74 O76 1.256 . S
O75 Cd67 2.381 . S
O75 C74 1.258 . S
O76 Cd67 2.378 . S
O76 C74 1.256 . S
O77 Cd78 2.300 . S
O77 C84 1.275 . S
Cd78 O77 2.300 . S
Cd78 O86 2.381 1_556 S
Cd78 O87 2.378 . S
O79 Cd80 2.385 . S
O79 C84 1.255 . S
Cd80 O79 2.385 . S
Cd80 O81 2.317 . S
O81 Cd80 2.317 . S
O81 C82 1.232 . S
C82 O81 1.232 . S
C82 O83 1.218 . S
O83 C82 1.218 . S
C84 O77 1.275 . S
C84 O79 1.255 . S
C85 O86 1.258 . S
C85 O87 1.256 1_554 S
O86 Cd78 2.381 1_554 S
O86 C85 1.258 . S
O87 Cd78 2.378 . S
O87 C85 1.256 1_556 S
O88 Cd89 2.300 . S
O88 C95 1.275 . S
Cd89 O88 2.300 . S
Cd89 O97 2.381 . S
Cd89 O98 2.378 . S
O90 Cd91 2.385 . S
O90 C95 1.255 . S
Cd91 O90 2.385 . S
Cd91 O92 2.317 . S
O92 Cd91 2.317 . S
O92 C93 1.232 . S
C93 O92 1.232 . S
C93 O94 1.218 . S
O94 C93 1.218 . S
C95 O88 1.275 . S
C95 O90 1.255 . S
C96 O97 1.258 . S
C96 O98 1.256 . S
O97 Cd89 2.381 . S
O97 C96 1.258 . S
O98 Cd89 2.378 . S
O98 C96 1.256 . S
O99 Cd100 2.300 . S
O99 C106 1.275 . S
Cd100 O99 2.300 . S
Cd100 O108 2.381 1_455 S
Cd100 O109 2.378 . S
O101 Cd102 2.385 . S
O101 C106 1.255 . S
Cd102 O101 2.385 . S
Cd102 O103 2.317 . S
O103 Cd102 2.317 . S
O103 C104 1.232 . S
C104 O103 1.232 . S
C104 O105 1.218 . S
O105 C104 1.218 . S
C106 O99 1.275 . S
C106 O101 1.255 . S
C107 O108 1.258 . S
C107 O109 1.256 1_655 S
O108 Cd100 2.381 1_655 S
O108 C107 1.258 . S
O109 Cd100 2.378 . S
O109 C107 1.256 1_455 S
O110 Cd111 2.300 . S
O110 C117 1.275 . S
Cd111 O110 2.300 . S
Cd111 O119 2.381 . S
Cd111 O120 2.378 . S
O112 Cd113 2.385 . S
O112 C117 1.255 . S
Cd113 O112 2.385 . S
Cd113 O114 2.317 . S
O114 Cd113 2.317 . S
O114 C115 1.232 . S
C115 O114 1.232 . S
C115 O116 1.218 . S
O116 C115 1.218 . S
C117 O110 1.275 . S
C117 O112 1.255 . S
C118 O119 1.258 . S
C118 O120 1.256 . S
O119 Cd111 2.381 . S
O119 C118 1.258 . S
O120 Cd111 2.378 . S
O120 C118 1.256 . S
O121 Cd122 2.300 . S
O121 C128 1.275 . S
Cd122 O121 2.300 . S
Cd122 O130 2.381 1_655 S
Cd122 O131 2.378 . S
O123 Cd124 2.385 . S
O123 C128 1.255 . S
Cd124 O123 2.385 . S
Cd124 O125 2.317 . S
O125 Cd124 2.317 . S
O125 C126 1.232 . S
C126 O125 1.232 . S
C126 O127 1.218 . S
O127 C126 1.218 . S
C128 O121 1.275 . S
C128 O123 1.255 . S
C129 O130 1.258 . S
C129 O131 1.256 1_455 S
O130 Cd122 2.381 1_455 S
O130 C129 1.258 . S
O131 Cd122 2.378 . S
O131 C129 1.256 1_655 S
O132 Cd133 2.300 . S
O132 C139 1.275 . S
Cd133 O132 2.300 . S
Cd133 O141 2.381 . S
Cd133 O142 2.378 . S
O134 Cd135 2.385 . S
O134 C139 1.255 . S
Cd135 O134 2.385 . S
Cd135 O136 2.317 . S
O136 Cd135 2.317 . S
O136 C137 1.232 . S
C137 O136 1.232 . S
C137 O138 1.218 . S
O138 C137 1.218 . S
C139 O132 1.275 . S
C139 O134 1.255 . S
C140 O141 1.258 . S
C140 O142 1.256 . S
O141 Cd133 2.381 . S
O141 C140 1.258 . S
O142 Cd133 2.378 . S
O142 C140 1.256 . S
O143 Cd144 2.300 . S
O143 C150 1.275 . S
Cd144 O143 2.300 . S
Cd144 O152 2.381 . S
Cd144 O153 2.378 . S
O145 Cd146 2.385 . S
O145 C150 1.255 . S
Cd146 O145 2.385 . S
Cd146 O147 2.317 . S
O147 Cd146 2.317 . S
O147 C148 1.232 . S
C148 O147 1.232 . S
C148 O149 1.218 . S
O149 C148 1.218 . S
C150 O143 1.275 . S
C150 O145 1.255 . S
C151 O152 1.258 . S
C151 O153 1.256 . S
O152 Cd144 2.381 . S
O152 C151 1.258 . S
O153 Cd144 2.378 . S
O153 C151 1.256 . S
O154 Cd155 2.300 1_545 S
O154 C161 1.275 . S
Cd155 O154 2.300 1_565 S
Cd155 O163 2.381 1_565 S
Cd155 O164 2.378 . S
O156 Cd157 2.385 . S
O156 C161 1.255 1_565 S
Cd157 O156 2.385 . S
Cd157 O158 2.317 . S
O158 Cd157 2.317 . S
O158 C159 1.232 . S
C159 O158 1.232 . S
C159 O160 1.218 . S
O160 C159 1.218 . S
C161 O154 1.275 . S
C161 O156 1.255 1_545 S
C162 O163 1.258 1_565 S
C162 O164 1.256 . S
O163 Cd155 2.381 1_545 S
O163 C162 1.258 1_545 S
O164 Cd155 2.378 . S
O164 C162 1.256 . S
O165 Cd166 2.300 1_565 S
O165 C172 1.275 . S
Cd166 O165 2.300 1_545 S
Cd166 O174 2.381 1_545 S
Cd166 O175 2.378 . S
O167 Cd168 2.385 . S
O167 C172 1.255 1_545 S
Cd168 O167 2.385 . S
Cd168 O169 2.317 . S
O169 Cd168 2.317 . S
O169 C170 1.232 . S
C170 O169 1.232 . S
C170 O171 1.218 . S
O171 C170 1.218 . S
C172 O165 1.275 . S
C172 O167 1.255 1_565 S
C173 O174 1.258 1_545 S
C173 O175 1.256 . S
O174 Cd166 2.381 1_565 S
O174 C173 1.258 1_565 S
O175 Cd166 2.378 . S
O175 C173 1.256 . S
O176 Cd177 2.300 . S
O176 C183 1.275 . S
Cd177 O176 2.300 . S
Cd177 O185 2.381 . S
Cd177 O186 2.378 . S
O178 Cd179 2.385 . S
O178 C183 1.255 . S
Cd179 O178 2.385 . S
Cd179 O180 2.317 . S
O180 Cd179 2.317 . S
O180 C181 1.232 . S
C181 O180 1.232 . S
C181 O182 1.218 . S
O182 C181 1.218 . S
C183 O176 1.275 . S
C183 O178 1.255 . S
C184 O185 1.258 . S
C184 O186 1.256 . S
O185 Cd177 2.381 . S
O185 C184 1.258 . S
O186 Cd177 2.378 . S
O186 C184 1.256 . S
O187 Cd188 2.300 1_556 S
O187 C194 1.275 . S
Cd188 O187 2.300 1_554 S
Cd188 O196 2.381 1_554 S
Cd188 O197 2.378 . S
O189 Cd190 2.385 . S
O189 C194 1.255 1_554 S
Cd190 O189 2.385 . S
Cd190 O191 2.317 . S
O191 Cd190 2.317 . S
O191 C192 1.232 . S
C192 O191 1.232 . S
C192 O193 1.218 . S
O193 C192 1.218 . S
C194 O187 1.275 . S
C194 O189 1.255 1_556 S
C195 O196 1.258 1_554 S
C195 O197 1.256 . S
O196 Cd188 2.381 1_556 S
O196 C195 1.258 1_556 S
O197 Cd188 2.378 . S
O197 C195 1.256 . S
O198 Cd199 2.300 . S
O198 C205 1.275 . S
Cd199 O198 2.300 . S
Cd199 O207 2.381 . S
Cd199 O208 2.378 . S
O200 Cd201 2.385 . S
O200 C205 1.255 . S
Cd201 O200 2.385 . S
Cd201 O202 2.317 . S
O202 Cd201 2.317 . S
O202 C203 1.232 . S
C203 O202 1.232 . S
C203 O204 1.218 . S
O204 C203 1.218 . S
C205 O198 1.275 . S
C205 O200 1.255 . S
C206 O207 1.258 . S
C206 O208 1.256 . S
O207 Cd199 2.381 . S
O207 C206 1.258 . S
O208 Cd199 2.378 . S
O208 C206 1.256 . S
O209 Cd210 2.300 1_554 S
O209 C216 1.275 . S
Cd210 O209 2.300 1_556 S
Cd210 O218 2.381 1_556 S
Cd210 O219 2.378 . S
O211 Cd212 2.385 . S
O211 C216 1.255 1_556 S
Cd212 O211 2.385 . S
Cd212 O213 2.317 . S
O213 Cd212 2.317 . S
O213 C214 1.232 . S
C214 O213 1.232 . S
C214 O215 1.218 . S
O215 C214 1.218 . S
C216 O209 1.275 . S
C216 O211 1.255 1_554 S
C217 O218 1.258 1_556 S
C217 O219 1.256 . S
O218 Cd210 2.381 1_554 S
O218 C217 1.258 1_554 S
O219 Cd210 2.378 . S
O219 C217 1.256 . S
O220 Cd221 2.300 . S
O220 C227 1.275 . S
Cd221 O220 2.300 . S
Cd221 O229 2.381 . S
Cd221 O230 2.378 . S
O222 Cd223 2.385 . S
O222 C227 1.255 . S
Cd223 O222 2.385 . S
Cd223 O224 2.317 . S
O224 Cd223 2.317 . S
O224 C225 1.232 . S
C225 O224 1.232 . S
C225 O226 1.218 . S
O226 C225 1.218 . S
C227 O220 1.275 . S
C227 O222 1.255 . S
C228 O229 1.258 . S
C228 O230 1.256 . S
O229 Cd221 2.381 . S
O229 C228 1.258 . S
O230 Cd221 2.378 . S
O230 C228 1.256 . S
O231 Cd232 2.300 1_655 S
O231 C238 1.275 . S
Cd232 O231 2.300 1_455 S
Cd232 O240 2.381 1_455 S
Cd232 O241 2.378 . S
O233 Cd234 2.385 . S
O233 C238 1.255 1_455 S
Cd234 O233 2.385 . S
Cd234 O235 2.317 . S
O235 Cd234 2.317 . S
O235 C236 1.232 . S
C236 O235 1.232 . S
C236 O237 1.218 . S
O237 C236 1.218 . S
C238 O231 1.275 . S
C238 O233 1.255 1_655 S
C239 O240 1.258 1_455 S
C239 O241 1.256 . S
O240 Cd232 2.381 1_655 S
O240 C239 1.258 1_655 S
O241 Cd232 2.378 . S
O241 C239 1.256 . S
O242 Cd243 2.300 . S
O242 C249 1.275 . S
Cd243 O242 2.300 . S
Cd243 O251 2.381 . S
Cd243 O252 2.378 . S
O244 Cd245 2.385 . S
O244 C249 1.255 . S
Cd245 O244 2.385 . S
Cd245 O246 2.317 . S
O246 Cd245 2.317 . S
O246 C247 1.232 . S
C247 O246 1.232 . S
C247 O248 1.218 . S
O248 C247 1.218 . S
C249 O242 1.275 . S
C249 O244 1.255 . S
C250 O251 1.258 . S
C250 O252 1.256 . S
O251 Cd243 2.381 . S
O251 C250 1.258 . S
O252 Cd243 2.378 . S
O252 C250 1.256 . S
O253 Cd254 2.300 1_455 S
O253 C260 1.275 . S
Cd254 O253 2.300 1_655 S
Cd254 O262 2.381 1_655 S
Cd254 O263 2.378 . S
O255 Cd256 2.385 . S
O255 C260 1.255 1_655 S
Cd256 O255 2.385 . S
Cd256 O257 2.317 . S
O257 Cd256 2.317 . S
O257 C258 1.232 . S
C258 O257 1.232 . S
C258 O259 1.218 . S
O259 C258 1.218 . S
C260 O253 1.275 . S
C260 O255 1.255 1_455 S
C261 O262 1.258 1_655 S
C261 O263 1.256 . S
O262 Cd254 2.381 1_455 S
O262 C261 1.258 1_455 S
O263 Cd254 2.378 . S
O263 C261 1.256 . S
C264 C265 1.391 . S
C264 C268 1.391 . S
C264 H306 0.948 . S
C265 C264 1.391 . S
C265 C266 1.391 . S
C266 C265 1.391 . S
C266 H322 0.947 . S
C266 C323 1.392 . S
C267 C268 1.391 . S
C267 C271 1.397 . S
C267 C323 1.419 . S
C268 C264 1.391 . S
C268 C267 1.391 . S
C268 C269 1.399 . S
C269 C268 1.399 . S
C269 C272 1.396 . S
C269 C281 1.453 . S
C269 C282 1.684 . S
H270 C294 0.948 . S
C271 C267 1.397 . S
C271 C272 1.394 . S
C271 C290 1.723 . S
C272 C269 1.396 . S
C272 C271 1.394 . S
C272 C302 1.723 . S
H273 C296 0.947 . S
H274 C297 0.948 . S
H275 C303 0.982 . S
H276 C304 0.979 . S
H277 C304 0.980 . S
H278 C304 0.983 . S
H279 C303 0.979 . S
H280 C303 0.977 . S
C281 C269 1.453 . S
C281 H310 0.982 . S
C281 H311 0.979 . S
C281 H312 0.977 . S
C282 C269 1.684 . S
C282 H307 0.979 . S
C282 H308 0.980 . S
C282 H309 0.983 . S
C283 C284 1.391 . S
C283 C288 1.391 . S
C283 H313 0.948 . S
C284 C283 1.391 . S
C284 C285 1.391 . S
C285 C284 1.391 . S
C285 C286 1.392 . S
C285 H314 0.947 . S
C286 C285 1.392 . S
C286 C287 1.419 . S
C286 H315 0.948 . S
C287 C286 1.419 . S
C287 C288 1.391 . S
C287 C291 1.397 . S
C288 C283 1.391 . S
C288 C287 1.391 . S
C288 C289 1.399 . S
C289 C288 1.399 . S
C289 C290 1.396 . S
C289 C292 1.453 . S
C289 C293 1.684 . S
C290 C271 1.723 . S
C290 C289 1.396 . S
C290 C291 1.394 . S
C291 C287 1.397 . S
C291 C290 1.394 . S
C291 C301 1.723 . S
C292 C289 1.453 . S
C292 H316 0.982 . S
C292 H317 0.979 . S
C292 H318 0.977 . S
C293 C289 1.684 . S
C293 H319 0.979 . S
C293 H320 0.980 . S
C293 H321 0.983 . S
C294 H270 0.948 . S
C294 C295 1.391 . S
C294 C299 1.391 . S
C295 C294 1.391 . S
C295 C296 1.391 . S
C296 H273 0.947 . S
C296 C295 1.391 . S
C296 C297 1.392 . S
C297 H274 0.948 . S
C297 C296 1.392 . S
C297 C298 1.419 . S
C298 C297 1.419 . S
C298 C299 1.391 . S
C298 C302 1.397 . S
C299 C294 1.391 . S
C299 C298 1.391 . S
C299 C300 1.399 . S
C300 C299 1.399 . S
C300 C301 1.396 . S
C300 C303 1.453 . S
C300 C304 1.684 . S
C301 C291 1.723 . S
C301 C300 1.396 . S
C301 C302 1.394 . S
C302 C272 1.723 . S
C302 C298 1.397 . S
C302 C301 1.394 . S
C303 H275 0.982 . S
C303 H279 0.979 . S
C303 H280 0.977 . S
C303 C300 1.453 . S
C304 H276 0.979 . S
C304 H277 0.980 . S
C304 H278 0.983 . S
C304 C300 1.684 . S
H305 C323 0.948 . S
H306 C264 0.948 . S
H307 C282 0.979 . S
H308 C282 0.980 . S
H309 C282 0.983 . S
H310 C281 0.982 . S
H311 C281 0.979 . S
H312 C281 0.977 . S
H313 C283 0.948 . S
H314 C285 0.947 . S
H315 C286 0.948 . S
H316 C292 0.982 . S
H317 C292 0.979 . S
H318 C292 0.977 . S
H319 C293 0.979 . S
H320 C293 0.980 . S
H321 C293 0.983 . S
H322 C266 0.947 . S
C323 C266 1.392 . S
C323 C267 1.419 . S
C323 H305 0.948 . S
C324 C325 1.391 1_554 S
C324 C328 1.391 1_554 S
C324 H366 0.948 . S
C325 C324 1.391 1_556 S
C325 C326 1.391 . S
C326 C325 1.391 . S
C326 H382 0.947 . S
C326 C383 1.392 . S
C327 C328 1.391 . S
C327 C331 1.397 . S
C327 C383 1.419 . S
C328 C324 1.391 1_556 S
C328 C327 1.391 . S
C328 C329 1.399 . S
C329 C328 1.399 . S
C329 C332 1.396 . S
C329 C341 1.453 1_556 S
C329 C342 1.684 1_556 S
H330 C354 0.948 . S
C331 C327 1.397 . S
C331 C332 1.394 . S
C331 C350 1.723 . S
C332 C329 1.396 . S
C332 C331 1.394 . S
C332 C362 1.723 . S
H333 C356 0.947 . S
H334 C357 0.948 1_554 S
H335 C363 0.982 . S
H336 C364 0.979 . S
H337 C364 0.980 . S
H338 C364 0.983 . S
H339 C363 0.979 . S
H340 C363 0.977 . S
C341 C329 1.453 1_554 S
C341 H370 0.982 1_554 S
C341 H371 0.979 . S
C341 H372 0.977 . S
C342 C329 1.684 1_554 S
C342 H367 0.979 . S
C342 H368 0.980 . S
C342 H369 0.983 . S
C343 C344 1.391 . S
C343 C348 1.391 . S
C343 H373 0.948 . S
C344 C343 1.391 . S
C344 C345 1.391 . S
C345 C344 1.391 . S
C345 C346 1.392 . S
C345 H374 0.947 . S
C346 C345 1.392 . S
C346 C347 1.419 . S
C346 H375 0.948 . S
C347 C346 1.419 . S
C347 C348 1.391 . S
C347 C351 1.397 . S
C348 C343 1.391 . S
C348 C347 1.391 . S
C348 C349 1.399 . S
C349 C348 1.399 . S
C349 C350 1.396 . S
C349 C352 1.453 . S
C349 C353 1.684 . S
C350 C331 1.723 . S
C350 C349 1.396 . S
C350 C351 1.394 . S
C351 C347 1.397 . S
C351 C350 1.394 . S
C351 C361 1.723 . S
C352 C349 1.453 . S
C352 H376 0.982 . S
C352 H377 0.979 . S
C352 H378 0.977 . S
C353 C349 1.684 . S
C353 H379 0.979 . S
C353 H380 0.980 . S
C353 H381 0.983 . S
C354 H330 0.948 . S
C354 C355 1.391 . S
C354 C359 1.391 . S
C355 C354 1.391 . S
C355 C356 1.391 1_556 S
C356 H333 0.947 . S
C356 C355 1.391 1_554 S
C356 C357 1.392 1_554 S
C357 H334 0.948 1_556 S
C357 C356 1.392 1_556 S
C357 C358 1.419 . S
C358 C357 1.419 . S
C358 C359 1.391 . S
C358 C362 1.397 . S
C359 C354 1.391 . S
C359 C358 1.391 . S
C359 C360 1.399 . S
C360 C359 1.399 . S
C360 C361 1.396 . S
C360 C363 1.453 . S
C360 C364 1.684 . S
C361 C351 1.723 . S
C361 C360 1.396 . S
C361 C362 1.394 . S
C362 C332 1.723 . S
C362 C358 1.397 . S
C362 C361 1.394 . S
C363 H335 0.982 . S
C363 H339 0.979 . S
C363 H340 0.977 . S
C363 C360 1.453 . S
C364 H336 0.979 . S
C364 H337 0.980 . S
C364 H338 0.983 . S
C364 C360 1.684 . S
H365 C383 0.948 . S
H366 C324 0.948 . S
H367 C342 0.979 . S
H368 C342 0.980 . S
H369 C342 0.983 . S
H370 C341 0.982 1_556 S
H371 C341 0.979 . S
H372 C341 0.977 . S
H373 C343 0.948 . S
H374 C345 0.947 . S
H375 C346 0.948 . S
H376 C352 0.982 . S
H377 C352 0.979 . S
H378 C352 0.977 . S
H379 C353 0.979 . S
H380 C353 0.980 . S
H381 C353 0.983 . S
H382 C326 0.947 . S
C383 C326 1.392 . S
C383 C327 1.419 . S
C383 H365 0.948 . S
C384 C385 1.391 . S
C384 C388 1.391 . S
C384 H426 0.948 . S
C385 C384 1.391 . S
C385 C386 1.391 . S
C386 C385 1.391 . S
C386 H442 0.947 . S
C386 C443 1.392 . S
C387 C388 1.391 . S
C387 C391 1.397 . S
C387 C443 1.419 . S
C388 C384 1.391 . S
C388 C387 1.391 . S
C388 C389 1.399 . S
C389 C388 1.399 . S
C389 C392 1.396 . S
C389 C401 1.453 . S
C389 C402 1.684 . S
H390 C414 0.948 . S
C391 C387 1.397 . S
C391 C392 1.394 . S
C391 C410 1.723 . S
C392 C389 1.396 . S
C392 C391 1.394 . S
C392 C422 1.723 1_545 S
H393 C416 0.947 . S
H394 C417 0.948 . S
H395 C423 0.982 . S
H396 C424 0.979 . S
H397 C424 0.980 . S
H398 C424 0.983 . S
H399 C423 0.979 . S
H400 C423 0.977 . S
C401 C389 1.453 . S
C401 H430 0.982 . S
C401 H431 0.979 . S
C401 H432 0.977 1_545 S
C402 C389 1.684 . S
C402 H427 0.979 . S
C402 H428 0.980 1_545 S
C402 H429 0.983 . S
C403 C404 1.391 . S
C403 C408 1.391 . S
C403 H433 0.948 . S
C404 C403 1.391 . S
C404 C405 1.391 1_545 S
C405 C404 1.391 1_565 S
C405 C406 1.392 . S
C405 H434 0.947 . S
C406 C405 1.392 . S
C406 C407 1.419 . S
C406 H435 0.948 . S
C407 C406 1.419 . S
C407 C408 1.391 1_565 S
C407 C411 1.397 . S
C408 C403 1.391 . S
C408 C407 1.391 1_545 S
C408 C409 1.399 . S
C409 C408 1.399 . S
C409 C410 1.396 . S
C409 C412 1.453 . S
C409 C413 1.684 . S
C410 C391 1.723 . S
C410 C409 1.396 . S
C410 C411 1.394 1_545 S
C411 C407 1.397 . S
C411 C410 1.394 1_565 S
C411 C421 1.723 . S
C412 C409 1.453 . S
C412 H436 0.982 . S
C412 H437 0.979 . S
C412 H438 0.977 . S
C413 C409 1.684 . S
C413 H439 0.979 . S
C413 H440 0.980 . S
C413 H441 0.983 . S
C414 H390 0.948 . S
C414 C415 1.391 . S
C414 C419 1.391 . S
C415 C414 1.391 . S
C415 C416 1.391 . S
C416 H393 0.947 . S
C416 C415 1.391 . S
C416 C417 1.392 . S
C417 H394 0.948 . S
C417 C416 1.392 . S
C417 C418 1.419 . S
C418 C417 1.419 . S
C418 C419 1.391 . S
C418 C422 1.397 . S
C419 C414 1.391 . S
C419 C418 1.391 . S
C419 C420 1.399 . S
C420 C419 1.399 . S
C420 C421 1.396 . S
C420 C423 1.453 . S
C420 C424 1.684 . S
C421 C411 1.723 . S
C421 C420 1.396 . S
C421 C422 1.394 . S
C422 C392 1.723 1_565 S
C422 C418 1.397 . S
C422 C421 1.394 . S
C423 H395 0.982 . S
C423 H399 0.979 . S
C423 H400 0.977 . S
C423 C420 1.453 . S
C424 H396 0.979 . S
C424 H397 0.980 . S
C424 H398 0.983 . S
C424 C420 1.684 . S
H425 C443 0.948 . S
H426 C384 0.948 . S
H427 C402 0.979 . S
H428 C402 0.980 1_565 S
H429 C402 0.983 . S
H430 C401 0.982 . S
H431 C401 0.979 . S
H432 C401 0.977 1_565 S
H433 C403 0.948 . S
H434 C405 0.947 . S
H435 C406 0.948 . S
H436 C412 0.982 . S
H437 C412 0.979 . S
H438 C412 0.977 . S
H439 C413 0.979 . S
H440 C413 0.980 . S
H441 C413 0.983 . S
H442 C386 0.947 . S
C443 C386 1.392 . S
C443 C387 1.419 . S
C443 H425 0.948 . S
C444 C445 1.391 . S
C444 C448 1.391 . S
C444 H486 0.948 1_554 S
C445 C444 1.391 . S
C445 C446 1.391 . S
C446 C445 1.391 . S
C446 H502 0.947 . S
C446 C503 1.392 . S
C447 C448 1.391 . S
C447 C451 1.397 . S
C447 C503 1.419 . S
C448 C444 1.391 . S
C448 C447 1.391 . S
C448 C449 1.399 . S
C449 C448 1.399 . S
C449 C452 1.396 . S
C449 C461 1.453 1_554 S
C449 C462 1.684 1_554 S
H450 C474 0.948 . S
C451 C447 1.397 . S
C451 C452 1.394 . S
C451 C470 1.723 . S
C452 C449 1.396 . S
C452 C451 1.394 . S
C452 C482 1.723 1_545 S
H453 C476 0.947 . S
H454 C477 0.948 . S
H455 C483 0.982 . S
H456 C484 0.979 . S
H457 C484 0.980 . S
H458 C484 0.983 . S
H459 C483 0.979 . S
H460 C483 0.977 . S
C461 C449 1.453 1_556 S
C461 H490 0.982 1_556 S
C461 H491 0.979 . S
C461 H492 0.977 1_545 S
C462 C449 1.684 1_556 S
C462 H487 0.979 . S
C462 H488 0.980 1_545 S
C462 H489 0.983 . S
C463 C464 1.391 1_545 S
C463 C468 1.391 . S
C463 H493 0.948 . S
C464 C463 1.391 1_565 S
C464 C465 1.391 . S
C465 C464 1.391 . S
C465 C466 1.392 . S
C465 H494 0.947 . S
C466 C465 1.392 . S
C466 C467 1.419 . S
C466 H495 0.948 . S
C467 C466 1.419 . S
C467 C468 1.391 1_565 S
C467 C471 1.397 . S
C468 C463 1.391 . S
C468 C467 1.391 1_545 S
C468 C469 1.399 . S
C469 C468 1.399 . S
C469 C470 1.396 . S
C469 C472 1.453 . S
C469 C473 1.684 . S
C470 C451 1.723 . S
C470 C469 1.396 . S
C470 C471 1.394 1_545 S
C471 C467 1.397 . S
C471 C470 1.394 1_565 S
C471 C481 1.723 . S
C472 C469 1.453 . S
C472 H496 0.982 . S
C472 H497 0.979 . S
C472 H498 0.977 . S
C473 C469 1.684 . S
C473 H499 0.979 . S
C473 H500 0.980 . S
C473 H501 0.983 . S
C474 H450 0.948 . S
C474 C475 1.391 1_554 S
C474 C479 1.391 . S
C475 C474 1.391 1_556 S
C475 C476 1.391 . S
C476 H453 0.947 . S
C476 C475 1.391 . S
C476 C477 1.392 . S
C477 H454 0.948 . S
C477 C476 1.392 . S
C477 C478 1.419 1_556 S
C478 C477 1.419 1_554 S
C478 C479 1.391 . S
C478 C482 1.397 . S
C479 C474 1.391 . S
C479 C478 1.391 . S
C479 C480 1.399 . S
C480 C479 1.399 . S
C480 C481 1.396 . S
C480 C483 1.453 . S
C480 C484 1.684 . S
C481 C471 1.723 . S
C481 C480 1.396 . S
C481 C482 1.394 . S
C482 C452 1.723 1_565 S
C482 C478 1.397 . S
C482 C481 1.394 . S
C483 H455 0.982 . S
C483 H459 0.979 . S
C483 H460 0.977 . S
C483 C480 1.453 . S
C484 H456 0.979 . S
C484 H457 0.980 . S
C484 H458 0.983 . S
C484 C480 1.684 . S
H485 C503 0.948 . S
H486 C444 0.948 1_556 S
H487 C462 0.979 . S
H488 C462 0.980 1_565 S
H489 C462 0.983 . S
H490 C461 0.982 1_554 S
H491 C461 0.979 . S
H492 C461 0.977 1_565 S
H493 C463 0.948 . S
H494 C465 0.947 . S
H495 C466 0.948 . S
H496 C472 0.982 . S
H497 C472 0.979 . S
H498 C472 0.977 . S
H499 C473 0.979 . S
H500 C473 0.980 . S
H501 C473 0.983 . S
H502 C446 0.947 . S
C503 C446 1.392 . S
C503 C447 1.419 . S
C503 H485 0.948 . S
C504 C505 1.391 . S
C504 C508 1.391 . S
C504 H546 0.948 . S
C505 C504 1.391 . S
C505 C506 1.391 . S
C506 C505 1.391 . S
C506 H562 0.947 . S
C506 C563 1.392 . S
C507 C508 1.391 . S
C507 C511 1.397 . S
C507 C563 1.419 . S
C508 C504 1.391 . S
C508 C507 1.391 . S
C508 C509 1.399 . S
C509 C508 1.399 . S
C509 C512 1.396 . S
C509 C521 1.453 . S
C509 C522 1.684 . S
H510 C534 0.948 . S
C511 C507 1.397 . S
C511 C512 1.394 . S
C511 C530 1.723 . S
C512 C509 1.396 . S
C512 C511 1.394 . S
C512 C542 1.723 . S
H513 C536 0.947 . S
H514 C537 0.948 . S
H515 C543 0.982 . S
H516 C544 0.979 . S
H517 C544 0.980 . S
H518 C544 0.983 . S
H519 C543 0.979 . S
H520 C543 0.977 . S
C521 C509 1.453 . S
C521 H550 0.982 . S
C521 H551 0.979 . S
C521 H552 0.977 . S
C522 C509 1.684 . S
C522 H547 0.979 . S
C522 H548 0.980 . S
C522 H549 0.983 . S
C523 C524 1.391 . S
C523 C528 1.391 . S
C523 H553 0.948 . S
C524 C523 1.391 . S
C524 C525 1.391 . S
C525 C524 1.391 . S
C525 C526 1.392 . S
C525 H554 0.947 . S
C526 C525 1.392 . S
C526 C527 1.419 . S
C526 H555 0.948 . S
C527 C526 1.419 . S
C527 C528 1.391 . S
C527 C531 1.397 . S
C528 C523 1.391 . S
C528 C527 1.391 . S
C528 C529 1.399 . S
C529 C528 1.399 . S
C529 C530 1.396 . S
C529 C532 1.453 . S
C529 C533 1.684 . S
C530 C511 1.723 . S
C530 C529 1.396 . S
C530 C531 1.394 . S
C531 C527 1.397 . S
C531 C530 1.394 . S
C531 C541 1.723 . S
C532 C529 1.453 . S
C532 H556 0.982 . S
C532 H557 0.979 . S
C532 H558 0.977 . S
C533 C529 1.684 . S
C533 H559 0.979 . S
C533 H560 0.980 . S
C533 H561 0.983 . S
C534 H510 0.948 . S
C534 C535 1.391 . S
C534 C539 1.391 . S
C535 C534 1.391 . S
C535 C536 1.391 . S
C536 H513 0.947 . S
C536 C535 1.391 . S
C536 C537 1.392 . S
C537 H514 0.948 . S
C537 C536 1.392 . S
C537 C538 1.419 . S
C538 C537 1.419 . S
C538 C539 1.391 . S
C538 C542 1.397 . S
C539 C534 1.391 . S
C539 C538 1.391 . S
C539 C540 1.399 . S
C540 C539 1.399 . S
C540 C541 1.396 . S
C540 C543 1.453 . S
C540 C544 1.684 . S
C541 C531 1.723 . S
C541 C540 1.396 . S
C541 C542 1.394 . S
C542 C512 1.723 . S
C542 C538 1.397 . S
C542 C541 1.394 . S
C543 H515 0.982 . S
C543 H519 0.979 . S
C543 H520 0.977 . S
C543 C540 1.453 . S
C544 H516 0.979 . S
C544 H517 0.980 . S
C544 H518 0.983 . S
C544 C540 1.684 . S
H545 C563 0.948 . S
H546 C504 0.948 . S
H547 C522 0.979 . S
H548 C522 0.980 . S
H549 C522 0.983 . S
H550 C521 0.982 . S
H551 C521 0.979 . S
H552 C521 0.977 . S
H553 C523 0.948 . S
H554 C525 0.947 . S
H555 C526 0.948 . S
H556 C532 0.982 . S
H557 C532 0.979 . S
H558 C532 0.977 . S
H559 C533 0.979 . S
H560 C533 0.980 . S
H561 C533 0.983 . S
H562 C506 0.947 . S
C563 C506 1.392 . S
C563 C507 1.419 . S
C563 H545 0.948 . S
C564 C565 1.391 1_556 S
C564 C568 1.391 . S
C564 H606 0.948 . S
C565 C564 1.391 1_554 S
C565 C566 1.391 . S
C566 C565 1.391 . S
C566 H622 0.947 . S
C566 C623 1.392 . S
C567 C568 1.391 1_554 S
C567 C571 1.397 . S
C567 C623 1.419 . S
C568 C564 1.391 . S
C568 C567 1.391 1_556 S
C568 C569 1.399 . S
C569 C568 1.399 . S
C569 C572 1.396 . S
C569 C581 1.453 . S
C569 C582 1.684 . S
H570 C594 0.948 . S
C571 C567 1.397 . S
C571 C572 1.394 1_554 S
C571 C590 1.723 . S
C572 C569 1.396 . S
C572 C571 1.394 1_556 S
C572 C602 1.723 . S
H573 C596 0.947 . S
H574 C597 0.948 . S
H575 C603 0.982 . S
H576 C604 0.979 . S
H577 C604 0.980 1_554 S
H578 C604 0.983 . S
H579 C603 0.979 . S
H580 C603 0.977 1_554 S
C581 C569 1.453 . S
C581 H610 0.982 . S
C581 H611 0.979 . S
C581 H612 0.977 . S
C582 C569 1.684 . S
C582 H607 0.979 . S
C582 H608 0.980 . S
C582 H609 0.983 . S
C583 C584 1.391 . S
C583 C588 1.391 . S
C583 H613 0.948 . S
C584 C583 1.391 . S
C584 C585 1.391 1_455 S
C585 C584 1.391 1_655 S
C585 C586 1.392 1_655 S
C585 H614 0.947 . S
C586 C585 1.392 1_455 S
C586 C587 1.419 . S
C586 H615 0.948 1_455 S
C587 C586 1.419 . S
C587 C588 1.391 . S
C587 C591 1.397 . S
C588 C583 1.391 . S
C588 C587 1.391 . S
C588 C589 1.399 . S
C589 C588 1.399 . S
C589 C590 1.396 . S
C589 C592 1.453 . S
C589 C593 1.684 . S
C590 C571 1.723 . S
C590 C589 1.396 . S
C590 C591 1.394 . S
C591 C587 1.397 . S
C591 C590 1.394 . S
C591 C601 1.723 1_554 S
C592 C589 1.453 . S
C592 H616 0.982 . S
C592 H617 0.979 . S
C592 H618 0.977 . S
C593 C589 1.684 . S
C593 H619 0.979 . S
C593 H620 0.980 . S
C593 H621 0.983 . S
C594 H570 0.948 . S
C594 C595 1.391 1_655 S
C594 C599 1.391 1_655 S
C595 C594 1.391 1_455 S
C595 C596 1.391 . S
C596 H573 0.947 . S
C596 C595 1.391 . S
C596 C597 1.392 . S
C597 H574 0.948 . S
C597 C596 1.392 . S
C597 C598 1.419 . S
C598 C597 1.419 . S
C598 C599 1.391 . S
C598 C602 1.397 . S
C599 C594 1.391 1_455 S
C599 C598 1.391 . S
C599 C600 1.399 . S
C600 C599 1.399 . S
C600 C601 1.396 . S
C600 C603 1.453 1_455 S
C600 C604 1.684 1_455 S
C601 C591 1.723 1_556 S
C601 C600 1.396 . S
C601 C602 1.394 . S
C602 C572 1.723 . S
C602 C598 1.397 . S
C602 C601 1.394 . S
C603 H575 0.982 . S
C603 H579 0.979 . S
C603 H580 0.977 1_556 S
C603 C600 1.453 1_655 S
C604 H576 0.979 . S
C604 H577 0.980 1_556 S
C604 H578 0.983 . S
C604 C600 1.684 1_655 S
H605 C623 0.948 . S
H606 C564 0.948 . S
H607 C582 0.979 . S
H608 C582 0.980 . S
H609 C582 0.983 . S
H610 C581 0.982 . S
H611 C581 0.979 . S
H612 C581 0.977 . S
H613 C583 0.948 . S
H614 C585 0.947 . S
H615 C586 0.948 1_655 S
H616 C592 0.982 . S
H617 C592 0.979 . S
H618 C592 0.977 . S
H619 C593 0.979 . S
H620 C593 0.980 . S
H621 C593 0.983 . S
H622 C566 0.947 . S
C623 C566 1.392 . S
C623 C567 1.419 . S
C623 H605 0.948 . S
C624 C625 1.391 . S
C624 C628 1.391 . S
C624 H666 0.948 . S
C625 C624 1.391 . S
C625 C626 1.391 1_655 S
C626 C625 1.391 1_455 S
C626 H682 0.947 . S
C626 C683 1.392 1_455 S
C627 C628 1.391 . S
C627 C631 1.397 . S
C627 C683 1.419 . S
C628 C624 1.391 . S
C628 C627 1.391 . S
C628 C629 1.399 . S
C629 C628 1.399 . S
C629 C632 1.396 . S
C629 C641 1.453 . S
C629 C642 1.684 . S
H630 C654 0.948 . S
C631 C627 1.397 . S
C631 C632 1.394 . S
C631 C650 1.723 . S
C632 C629 1.396 . S
C632 C631 1.394 . S
C632 C662 1.723 . S
H633 C656 0.947 . S
H634 C657 0.948 . S
H635 C663 0.982 . S
H636 C664 0.979 . S
H637 C664 0.980 . S
H638 C664 0.983 . S
H639 C663 0.979 . S
H640 C663 0.977 . S
C641 C629 1.453 . S
C641 H670 0.982 . S
C641 H671 0.979 . S
C641 H672 0.977 . S
C642 C629 1.684 . S
C642 H667 0.979 . S
C642 H668 0.980 . S
C642 H669 0.983 . S
C643 C644 1.391 1_455 S
C643 C648 1.391 1_455 S
C643 H673 0.948 . S
C644 C643 1.391 1_655 S
C644 C645 1.391 . S
C645 C644 1.391 . S
C645 C646 1.392 . S
C645 H674 0.947 . S
C646 C645 1.392 . S
C646 C647 1.419 . S
C646 H675 0.948 . S
C647 C646 1.419 . S
C647 C648 1.391 . S
C647 C651 1.397 . S
C648 C643 1.391 1_655 S
C648 C647 1.391 . S
C648 C649 1.399 . S
C649 C648 1.399 . S
C649 C650 1.396 . S
C649 C652 1.453 1_655 S
C649 C653 1.684 1_655 S
C650 C631 1.723 . S
C650 C649 1.396 . S
C650 C651 1.394 . S
C651 C647 1.397 . S
C651 C650 1.394 . S
C651 C661 1.723 . S
C652 C649 1.453 1_455 S
C652 H676 0.982 1_455 S
C652 H677 0.979 . S
C652 H678 0.977 . S
C653 C649 1.684 1_455 S
C653 H679 0.979 . S
C653 H680 0.980 . S
C653 H681 0.983 . S
C654 H630 0.948 . S
C654 C655 1.391 . S
C654 C659 1.391 . S
C655 C654 1.391 . S
C655 C656 1.391 . S
C656 H633 0.947 . S
C656 C655 1.391 . S
C656 C657 1.392 . S
C657 H634 0.948 . S
C657 C656 1.392 . S
C657 C658 1.419 . S
C658 C657 1.419 . S
C658 C659 1.391 . S
C658 C662 1.397 . S
C659 C654 1.391 . S
C659 C658 1.391 . S
C659 C660 1.399 . S
C660 C659 1.399 . S
C660 C661 1.396 . S
C660 C663 1.453 . S
C660 C664 1.684 . S
C661 C651 1.723 . S
C661 C660 1.396 . S
C661 C662 1.394 . S
C662 C632 1.723 . S
C662 C658 1.397 . S
C662 C661 1.394 . S
C663 H635 0.982 . S
C663 H639 0.979 . S
C663 H640 0.977 . S
C663 C660 1.453 . S
C664 H636 0.979 . S
C664 H637 0.980 . S
C664 H638 0.983 . S
C664 C660 1.684 . S
H665 C683 0.948 1_455 S
H666 C624 0.948 . S
H667 C642 0.979 . S
H668 C642 0.980 . S
H669 C642 0.983 . S
H670 C641 0.982 . S
H671 C641 0.979 . S
H672 C641 0.977 . S
H673 C643 0.948 . S
H674 C645 0.947 . S
H675 C646 0.948 . S
H676 C652 0.982 1_655 S
H677 C652 0.979 . S
H678 C652 0.977 . S
H679 C653 0.979 . S
H680 C653 0.980 . S
H681 C653 0.983 . S
H682 C626 0.947 . S
C683 C626 1.392 1_655 S
C683 C627 1.419 . S
C683 H665 0.948 1_655 S
C684 C685 1.391 . S
C684 C688 1.391 . S
C684 H726 0.948 . S
C685 C684 1.391 . S
C685 C686 1.391 1_554 S
C686 C685 1.391 1_556 S
C686 H742 0.947 . S
C686 C743 1.392 . S
C687 C688 1.391 1_556 S
C687 C691 1.397 . S
C687 C743 1.419 . S
C688 C684 1.391 . S
C688 C687 1.391 1_554 S
C688 C689 1.399 . S
C689 C688 1.399 . S
C689 C692 1.396 . S
C689 C701 1.453 . S
C689 C702 1.684 . S
H690 C714 0.948 . S
C691 C687 1.397 . S
C691 C692 1.394 1_556 S
C691 C710 1.723 . S
C692 C689 1.396 . S
C692 C691 1.394 1_554 S
C692 C722 1.723 . S
H693 C716 0.947 . S
H694 C717 0.948 . S
H695 C723 0.982 . S
H696 C724 0.979 . S
H697 C724 0.980 1_556 S
H698 C724 0.983 . S
H699 C723 0.979 . S
H700 C723 0.977 1_556 S
C701 C689 1.453 . S
C701 H730 0.982 . S
C701 H731 0.979 . S
C701 H732 0.977 . S
C702 C689 1.684 . S
C702 H727 0.979 . S
C702 H728 0.980 . S
C702 H729 0.983 . S
C703 C704 1.391 . S
C703 C708 1.391 . S
C703 H733 0.948 . S
C704 C703 1.391 . S
C704 C705 1.391 . S
C705 C704 1.391 . S
C705 C706 1.392 . S
C705 H734 0.947 . S
C706 C705 1.392 . S
C706 C707 1.419 . S
C706 H735 0.948 . S
C707 C706 1.419 . S
C707 C708 1.391 . S
C707 C711 1.397 . S
C708 C703 1.391 . S
C708 C707 1.391 . S
C708 C709 1.399 . S
C709 C708 1.399 . S
C709 C710 1.396 . S
C709 C712 1.453 . S
C709 C713 1.684 . S
C710 C691 1.723 . S
C710 C709 1.396 . S
C710 C711 1.394 . S
C711 C707 1.397 . S
C711 C710 1.394 . S
C711 C721 1.723 1_556 S
C712 C709 1.453 . S
C712 H736 0.982 . S
C712 H737 0.979 . S
C712 H738 0.977 . S
C713 C709 1.684 . S
C713 H739 0.979 . S
C713 H740 0.980 . S
C713 H741 0.983 . S
C714 H690 0.948 . S
C714 C715 1.391 . S
C714 C719 1.391 . S
C715 C714 1.391 . S
C715 C716 1.391 . S
C716 H693 0.947 . S
C716 C715 1.391 . S
C716 C717 1.392 . S
C717 H694 0.948 . S
C717 C716 1.392 . S
C717 C718 1.419 . S
C718 C717 1.419 . S
C718 C719 1.391 . S
C718 C722 1.397 . S
C719 C714 1.391 . S
C719 C718 1.391 . S
C719 C720 1.399 . S
C720 C719 1.399 . S
C720 C721 1.396 . S
C720 C723 1.453 . S
C720 C724 1.684 . S
C721 C711 1.723 1_554 S
C721 C720 1.396 . S
C721 C722 1.394 . S
C722 C692 1.723 . S
C722 C718 1.397 . S
C722 C721 1.394 . S
C723 H695 0.982 . S
C723 H699 0.979 . S
C723 H700 0.977 1_554 S
C723 C720 1.453 . S
C724 H696 0.979 . S
C724 H697 0.980 1_554 S
C724 H698 0.983 . S
C724 C720 1.684 . S
H725 C743 0.948 . S
H726 C684 0.948 . S
H727 C702 0.979 . S
H728 C702 0.980 . S
H729 C702 0.983 . S
H730 C701 0.982 . S
H731 C701 0.979 . S
H732 C701 0.977 . S
H733 C703 0.948 . S
H734 C705 0.947 . S
H735 C706 0.948 . S
H736 C712 0.982 . S
H737 C712 0.979 . S
H738 C712 0.977 . S
H739 C713 0.979 . S
H740 C713 0.980 . S
H741 C713 0.983 . S
H742 C686 0.947 . S
C743 C686 1.392 . S
C743 C687 1.419 . S
C743 H725 0.948 . S
C744 C745 1.391 . S
C744 C748 1.391 . S
C744 H786 0.948 . S
C745 C744 1.391 . S
C745 C746 1.391 . S
C746 C745 1.391 . S
C746 H802 0.947 . S
C746 C803 1.392 . S
C747 C748 1.391 . S
C747 C751 1.397 . S
C747 C803 1.419 . S
C748 C744 1.391 . S
C748 C747 1.391 . S
C748 C749 1.399 . S
C749 C748 1.399 . S
C749 C752 1.396 . S
C749 C761 1.453 . S
C749 C762 1.684 . S
H750 C774 0.948 . S
C751 C747 1.397 . S
C751 C752 1.394 . S
C751 C770 1.723 . S
C752 C749 1.396 . S
C752 C751 1.394 . S
C752 C782 1.723 . S
H753 C776 0.947 . S
H754 C777 0.948 . S
H755 C783 0.982 . S
H756 C784 0.979 . S
H757 C784 0.980 . S
H758 C784 0.983 . S
H759 C783 0.979 . S
H760 C783 0.977 . S
C761 C749 1.453 . S
C761 H790 0.982 . S
C761 H791 0.979 . S
C761 H792 0.977 . S
C762 C749 1.684 . S
C762 H787 0.979 . S
C762 H788 0.980 . S
C762 H789 0.983 . S
C763 C764 1.391 . S
C763 C768 1.391 . S
C763 H793 0.948 . S
C764 C763 1.391 . S
C764 C765 1.391 . S
C765 C764 1.391 . S
C765 C766 1.392 . S
C765 H794 0.947 . S
C766 C765 1.392 . S
C766 C767 1.419 . S
C766 H795 0.948 . S
C767 C766 1.419 . S
C767 C768 1.391 . S
C767 C771 1.397 . S
C768 C763 1.391 . S
C768 C767 1.391 . S
C768 C769 1.399 . S
C769 C768 1.399 . S
C769 C770 1.396 . S
C769 C772 1.453 . S
C769 C773 1.684 . S
C770 C751 1.723 . S
C770 C769 1.396 . S
C770 C771 1.394 . S
C771 C767 1.397 . S
C771 C770 1.394 . S
C771 C781 1.723 . S
C772 C769 1.453 . S
C772 H796 0.982 . S
C772 H797 0.979 . S
C772 H798 0.977 . S
C773 C769 1.684 . S
C773 H799 0.979 . S
C773 H800 0.980 . S
C773 H801 0.983 . S
C774 H750 0.948 . S
C774 C775 1.391 . S
C774 C779 1.391 . S
C775 C774 1.391 . S
C775 C776 1.391 . S
C776 H753 0.947 . S
C776 C775 1.391 . S
C776 C777 1.392 . S
C777 H754 0.948 . S
C777 C776 1.392 . S
C777 C778 1.419 . S
C778 C777 1.419 . S
C778 C779 1.391 . S
C778 C782 1.397 . S
C779 C774 1.391 . S
C779 C778 1.391 . S
C779 C780 1.399 . S
C780 C779 1.399 . S
C780 C781 1.396 . S
C780 C783 1.453 . S
C780 C784 1.684 . S
C781 C771 1.723 . S
C781 C780 1.396 . S
C781 C782 1.394 . S
C782 C752 1.723 . S
C782 C778 1.397 . S
C782 C781 1.394 . S
C783 H755 0.982 . S
C783 H759 0.979 . S
C783 H760 0.977 . S
C783 C780 1.453 . S
C784 H756 0.979 . S
C784 H757 0.980 . S
C784 H758 0.983 . S
C784 C780 1.684 . S
H785 C803 0.948 . S
H786 C744 0.948 . S
H787 C762 0.979 . S
H788 C762 0.980 . S
H789 C762 0.983 . S
H790 C761 0.982 . S
H791 C761 0.979 . S
H792 C761 0.977 . S
H793 C763 0.948 . S
H794 C765 0.947 . S
H795 C766 0.948 . S
H796 C772 0.982 . S
H797 C772 0.979 . S
H798 C772 0.977 . S
H799 C773 0.979 . S
H800 C773 0.980 . S
H801 C773 0.983 . S
H802 C746 0.947 . S
C803 C746 1.392 . S
C803 C747 1.419 . S
C803 H785 0.948 . S
C804 C805 1.391 . S
C804 C808 1.391 . S
C804 H846 0.948 1_545 S
C805 C804 1.391 . S
C805 C806 1.391 . S
C806 C805 1.391 . S
C806 H862 0.947 . S
C806 C863 1.392 . S
C807 C808 1.391 . S
C807 C811 1.397 . S
C807 C863 1.419 . S
C808 C804 1.391 . S
C808 C807 1.391 . S
C808 C809 1.399 . S
C809 C808 1.399 . S
C809 C812 1.396 . S
C809 C821 1.453 1_545 S
C809 C822 1.684 1_545 S
H810 C834 0.948 . S
C811 C807 1.397 . S
C811 C812 1.394 . S
C811 C830 1.723 . S
C812 C809 1.396 . S
C812 C811 1.394 . S
C812 C842 1.723 1_455 S
H813 C836 0.947 . S
H814 C837 0.948 . S
H815 C843 0.982 . S
H816 C844 0.979 . S
H817 C844 0.980 . S
H818 C844 0.983 . S
H819 C843 0.979 . S
H820 C843 0.977 . S
C821 C809 1.453 1_565 S
C821 H850 0.982 1_565 S
C821 H851 0.979 . S
C821 H852 0.977 1_455 S
C822 C809 1.684 1_565 S
C822 H847 0.979 . S
C822 H848 0.980 1_455 S
C822 H849 0.983 . S
C823 C824 1.391 1_455 S
C823 C828 1.391 . S
C823 H853 0.948 . S
C824 C823 1.391 1_655 S
C824 C825 1.391 . S
C825 C824 1.391 . S
C825 C826 1.392 . S
C825 H854 0.947 . S
C826 C825 1.392 . S
C826 C827 1.419 . S
C826 H855 0.948 . S
C827 C826 1.419 . S
C827 C828 1.391 1_655 S
C827 C831 1.397 . S
C828 C823 1.391 . S
C828 C827 1.391 1_455 S
C828 C829 1.399 . S
C829 C828 1.399 . S
C829 C830 1.396 . S
C829 C832 1.453 . S
C829 C833 1.684 . S
C830 C811 1.723 . S
C830 C829 1.396 . S
C830 C831 1.394 1_455 S
C831 C827 1.397 . S
C831 C830 1.394 1_655 S
C831 C841 1.723 . S
C832 C829 1.453 . S
C832 H856 0.982 . S
C832 H857 0.979 . S
C832 H858 0.977 . S
C833 C829 1.684 . S
C833 H859 0.979 . S
C833 H860 0.980 . S
C833 H861 0.983 . S
C834 H810 0.948 . S
C834 C835 1.391 1_545 S
C834 C839 1.391 . S
C835 C834 1.391 1_565 S
C835 C836 1.391 . S
C836 H813 0.947 . S
C836 C835 1.391 . S
C836 C837 1.392 . S
C837 H814 0.948 . S
C837 C836 1.392 . S
C837 C838 1.419 1_565 S
C838 C837 1.419 1_545 S
C838 C839 1.391 . S
C838 C842 1.397 . S
C839 C834 1.391 . S
C839 C838 1.391 . S
C839 C840 1.399 . S
C840 C839 1.399 . S
C840 C841 1.396 . S
C840 C843 1.453 . S
C840 C844 1.684 . S
C841 C831 1.723 . S
C841 C840 1.396 . S
C841 C842 1.394 . S
C842 C812 1.723 1_655 S
C842 C838 1.397 . S
C842 C841 1.394 . S
C843 H815 0.982 . S
C843 H819 0.979 . S
C843 H820 0.977 . S
C843 C840 1.453 . S
C844 H816 0.979 . S
C844 H817 0.980 . S
C844 H818 0.983 . S
C844 C840 1.684 . S
H845 C863 0.948 . S
H846 C804 0.948 1_565 S
H847 C822 0.979 . S
H848 C822 0.980 1_655 S
H849 C822 0.983 . S
H850 C821 0.982 1_545 S
H851 C821 0.979 . S
H852 C821 0.977 1_655 S
H853 C823 0.948 . S
H854 C825 0.947 . S
H855 C826 0.948 . S
H856 C832 0.982 . S
H857 C832 0.979 . S
H858 C832 0.977 . S
H859 C833 0.979 . S
H860 C833 0.980 . S
H861 C833 0.983 . S
H862 C806 0.947 . S
C863 C806 1.392 . S
C863 C807 1.419 . S
C863 H845 0.948 . S
C864 C865 1.391 . S
C864 C868 1.391 . S
C864 H906 0.948 1_565 S
C865 C864 1.391 . S
C865 C866 1.391 . S
C866 C865 1.391 . S
C866 H922 0.947 . S
C866 C923 1.392 . S
C867 C868 1.391 . S
C867 C871 1.397 . S
C867 C923 1.419 . S
C868 C864 1.391 . S
C868 C867 1.391 . S
C868 C869 1.399 . S
C869 C868 1.399 . S
C869 C872 1.396 . S
C869 C881 1.453 1_565 S
C869 C882 1.684 1_565 S
H870 C894 0.948 . S
C871 C867 1.397 . S
C871 C872 1.394 . S
C871 C890 1.723 . S
C872 C869 1.396 . S
C872 C871 1.394 . S
C872 C902 1.723 . S
H873 C896 0.947 . S
H874 C897 0.962 . S
H875 C903 0.982 . S
H876 C904 0.979 . S
H877 C904 0.980 . S
H878 C904 0.983 . S
H879 C903 0.979 . S
H880 C903 0.977 . S
C881 C869 1.453 1_545 S
C881 H910 0.982 . S
C881 H911 0.979 . S
C881 H912 0.977 . S
C882 C869 1.684 1_545 S
C882 H907 0.996 . S
C882 H908 0.980 . S
C882 H909 0.983 . S
C883 C884 1.391 . S
C883 C888 1.391 . S
C883 H913 0.948 . S
C884 C883 1.391 . S
C884 C885 1.391 . S
C885 C884 1.391 . S
C885 C886 1.392 . S
C885 H914 0.947 . S
C886 C885 1.392 . S
C886 C887 1.419 . S
C886 H915 0.948 . S
C887 C886 1.419 . S
C887 C888 1.391 . S
C887 C891 1.397 . S
C888 C883 1.391 . S
C888 C887 1.391 . S
C888 C889 1.399 . S
C889 C888 1.399 . S
C889 C890 1.396 . S
C889 C892 1.453 . S
C889 C893 1.684 . S
C890 C871 1.723 . S
C890 C889 1.396 . S
C890 C891 1.394 . S
C891 C887 1.397 . S
C891 C890 1.394 . S
C891 C901 1.723 . S
C892 C889 1.453 . S
C892 H916 0.982 . S
C892 H917 0.979 . S
C892 H918 0.977 . S
C893 C889 1.684 . S
C893 H919 0.979 . S
C893 H920 0.980 . S
C893 H921 0.983 . S
C894 H870 0.948 . S
C894 C895 1.382 1_565 S
C894 C899 1.391 . S
C895 C894 1.382 1_545 S
C895 C896 1.395 . S
C896 H873 0.947 . S
C896 C895 1.395 . S
C896 C897 1.410 . S
C897 H874 0.962 . S
C897 C896 1.410 . S
C897 C898 1.388 1_545 S
C898 C897 1.388 1_565 S
C898 C899 1.391 . S
C898 C902 1.397 . S
C899 C894 1.391 . S
C899 C898 1.391 . S
C899 C900 1.399 . S
C900 C899 1.399 . S
C900 C901 1.396 . S
C900 C903 1.453 . S
C900 C904 1.684 . S
C901 C891 1.723 . S
C901 C900 1.396 . S
C901 C902 1.394 . S
C902 C872 1.723 . S
C902 C898 1.397 . S
C902 C901 1.394 . S
C903 H875 0.982 . S
C903 H879 0.979 . S
C903 H880 0.977 . S
C903 C900 1.453 . S
C904 H876 0.979 . S
C904 H877 0.980 . S
C904 H878 0.983 . S
C904 C900 1.684 . S
H905 C923 0.948 . S
H906 C864 0.948 1_545 S
H907 C882 0.996 . S
H908 C882 0.980 . S
H909 C882 0.983 . S
H910 C881 0.982 . S
H911 C881 0.979 . S
H912 C881 0.977 . S
H913 C883 0.948 . S
H914 C885 0.947 . S
H915 C886 0.948 . S
H916 C892 0.982 . S
H917 C892 0.979 . S
H918 C892 0.977 . S
H919 C893 0.979 . S
H920 C893 0.980 . S
H921 C893 0.983 . S
H922 C866 0.947 . S
C923 C866 1.392 . S
C923 C867 1.419 . S
C923 H905 0.948 . S
C924 C925 1.391 . S
C924 C928 1.391 . S
C924 H966 0.948 . S
C925 C924 1.391 . S
C925 C926 1.391 . S
C926 C925 1.391 . S
C926 H982 0.947 . S
C926 C983 1.392 . S
C927 C928 1.391 . S
C927 C931 1.397 . S
C927 C983 1.419 . S
C928 C924 1.391 . S
C928 C927 1.391 . S
C928 C929 1.399 . S
C929 C928 1.399 . S
C929 C932 1.396 . S
C929 C941 1.453 . S
C929 C942 1.684 . S
H930 C954 0.948 . S
C931 C927 1.397 . S
C931 C932 1.394 . S
C931 C950 1.723 . S
C932 C929 1.396 . S
C932 C931 1.394 . S
C932 C962 1.723 1_455 S
H933 C956 0.947 . S
H934 C957 0.948 . S
H935 C963 0.982 . S
H936 C964 0.979 . S
H937 C964 0.980 . S
H938 C964 0.983 . S
H939 C963 0.979 . S
H940 C963 0.977 . S
C941 C929 1.453 . S
C941 H970 0.982 . S
C941 H971 0.979 . S
C941 H972 0.977 1_455 S
C942 C929 1.684 . S
C942 H967 0.979 . S
C942 H968 0.980 1_455 S
C942 H969 0.983 . S
C943 C944 1.391 . S
C943 C948 1.391 . S
C943 H973 0.948 . S
C944 C943 1.391 . S
C944 C945 1.391 1_455 S
C945 C944 1.391 1_655 S
C945 C946 1.392 . S
C945 H974 0.947 . S
C946 C945 1.392 . S
C946 C947 1.419 . S
C946 H975 0.948 . S
C947 C946 1.419 . S
C947 C948 1.391 1_655 S
C947 C951 1.397 . S
C948 C943 1.391 . S
C948 C947 1.391 1_455 S
C948 C949 1.399 . S
C949 C948 1.399 . S
C949 C950 1.396 . S
C949 C952 1.453 . S
C949 C953 1.684 . S
C950 C931 1.723 . S
C950 C949 1.396 . S
C950 C951 1.394 1_455 S
C951 C947 1.397 . S
C951 C950 1.394 1_655 S
C951 C961 1.723 . S
C952 C949 1.453 . S
C952 H976 0.982 . S
C952 H977 0.979 . S
C952 H978 0.977 . S
C953 C949 1.684 . S
C953 H979 0.979 . S
C953 H980 0.980 . S
C953 H981 0.983 . S
C954 H930 0.948 . S
C954 C955 1.391 . S
C954 C959 1.391 . S
C955 C954 1.391 . S
C955 C956 1.391 . S
C956 H933 0.947 . S
C956 C955 1.391 . S
C956 C957 1.392 . S
C957 H934 0.948 . S
C957 C956 1.392 . S
C957 C958 1.419 . S
C958 C957 1.419 . S
C958 C959 1.391 . S
C958 C962 1.397 . S
C959 C954 1.391 . S
C959 C958 1.391 . S
C959 C960 1.399 . S
C960 C959 1.399 . S
C960 C961 1.396 . S
C960 C963 1.453 . S
C960 C964 1.684 . S
C961 C951 1.723 . S
C961 C960 1.396 . S
C961 C962 1.394 . S
C962 C932 1.723 1_655 S
C962 C958 1.397 . S
C962 C961 1.394 . S
C963 H935 0.982 . S
C963 H939 0.979 . S
C963 H940 0.977 . S
C963 C960 1.453 . S
C964 H936 0.979 . S
C964 H937 0.980 . S
C964 H938 0.983 . S
C964 C960 1.684 . S
H965 C983 0.948 . S
H966 C924 0.948 . S
H967 C942 0.979 . S
H968 C942 0.980 1_655 S
H969 C942 0.983 . S
H970 C941 0.982 . S
H971 C941 0.979 . S
H972 C941 0.977 1_655 S
H973 C943 0.948 . S
H974 C945 0.947 . S
H975 C946 0.948 . S
H976 C952 0.982 . S
H977 C952 0.979 . S
H978 C952 0.977 . S
H979 C953 0.979 . S
H980 C953 0.980 . S
H981 C953 0.983 . S
H982 C926 0.947 . S
C983 C926 1.392 . S
C983 C927 1.419 . S
C983 H965 0.948 . S
C984 C985 1.391 . S
C984 C988 1.391 . S
C984 H1026 0.948 . S
C985 C984 1.391 . S
C985 C986 1.391 . S
C986 C985 1.391 . S
C986 H1042 0.947 . S
C986 C1043 1.392 . S
C987 C988 1.391 . S
C987 C991 1.397 . S
C987 C1043 1.419 . S
C988 C984 1.391 . S
C988 C987 1.391 . S
C988 C989 1.399 . S
C989 C988 1.399 . S
C989 C992 1.396 . S
C989 C1001 1.453 . S
C989 C1002 1.684 . S
H990 C1014 0.948 . S
C991 C987 1.397 . S
C991 C992 1.394 . S
C991 C1010 1.723 . S
C992 C989 1.396 . S
C992 C991 1.394 . S
C992 C1022 1.723 . S
H993 C1016 0.947 . S
H994 C1017 0.948 . S
H995 C1023 0.982 . S
H996 C1024 0.979 . S
H997 C1024 0.980 . S
H998 C1024 0.983 . S
H999 C1023 0.979 . S
H1000 C1023 0.977 . S
C1001 C989 1.453 . S
C1001 H1030 0.982 . S
C1001 H1031 0.979 . S
C1001 H1032 0.977 . S
C1002 C989 1.684 . S
C1002 H1027 0.979 . S
C1002 H1028 0.980 . S
C1002 H1029 0.983 . S
C1003 C1004 1.391 . S
C1003 C1008 1.391 . S
C1003 H1033 0.948 . S
C1004 C1003 1.391 . S
C1004 C1005 1.391 . S
C1005 C1004 1.391 . S
C1005 C1006 1.392 . S
C1005 H1034 0.947 . S
C1006 C1005 1.392 . S
C1006 C1007 1.419 . S
C1006 H1035 0.948 . S
C1007 C1006 1.419 . S
C1007 C1008 1.391 . S
C1007 C1011 1.397 . S
C1008 C1003 1.391 . S
C1008 C1007 1.391 . S
C1008 C1009 1.399 . S
C1009 C1008 1.399 . S
C1009 C1010 1.396 . S
C1009 C1012 1.453 . S
C1009 C1013 1.684 . S
C1010 C991 1.723 . S
C1010 C1009 1.396 . S
C1010 C1011 1.394 . S
C1011 C1007 1.397 . S
C1011 C1010 1.394 . S
C1011 C1021 1.723 . S
C1012 C1009 1.453 . S
C1012 H1036 0.982 . S
C1012 H1037 0.979 . S
C1012 H1038 0.977 . S
C1013 C1009 1.684 . S
C1013 H1039 0.979 . S
C1013 H1040 0.980 . S
C1013 H1041 0.983 . S
C1014 H990 0.948 . S
C1014 C1015 1.391 . S
C1014 C1019 1.391 . S
C1015 C1014 1.391 . S
C1015 C1016 1.391 . S
C1016 H993 0.947 . S
C1016 C1015 1.391 . S
C1016 C1017 1.392 . S
C1017 H994 0.948 . S
C1017 C1016 1.392 . S
C1017 C1018 1.419 . S
C1018 C1017 1.419 . S
C1018 C1019 1.391 . S
C1018 C1022 1.397 . S
C1019 C1014 1.391 . S
C1019 C1018 1.391 . S
C1019 C1020 1.399 . S
C1020 C1019 1.399 . S
C1020 C1021 1.396 . S
C1020 C1023 1.453 . S
C1020 C1024 1.684 . S
C1021 C1011 1.723 . S
C1021 C1020 1.396 . S
C1021 C1022 1.394 . S
C1022 C992 1.723 . S
C1022 C1018 1.397 . S
C1022 C1021 1.394 . S
C1023 H995 0.982 . S
C1023 H999 0.979 . S
C1023 H1000 0.977 . S
C1023 C1020 1.453 . S
C1024 H996 0.979 . S
C1024 H997 0.980 . S
C1024 H998 0.983 . S
C1024 C1020 1.684 . S
H1025 C1043 0.948 . S
H1026 C984 0.948 . S
H1027 C1002 0.979 . S
H1028 C1002 0.980 . S
H1029 C1002 0.983 . S
H1030 C1001 0.982 . S
H1031 C1001 0.979 . S
H1032 C1001 0.977 . S
H1033 C1003 0.948 . S
H1034 C1005 0.947 . S
H1035 C1006 0.948 . S
H1036 C1012 0.982 . S
H1037 C1012 0.979 . S
H1038 C1012 0.977 . S
H1039 C1013 0.979 . S
H1040 C1013 0.980 . S
H1041 C1013 0.983 . S
H1042 C986 0.947 . S
C1043 C986 1.392 . S
C1043 C987 1.419 . S
C1043 H1025 0.948 . S
C1044 C1045 1.391 1_556 S
C1044 C1048 1.391 1_556 S
C1044 H1086 0.948 . S
C1045 C1044 1.391 1_554 S
C1045 C1046 1.391 . S
C1046 C1045 1.391 . S
C1046 H1102 0.947 . S
C1046 C1103 1.392 . S
C1047 C1048 1.391 . S
C1047 C1051 1.397 . S
C1047 C1103 1.419 . S
C1048 C1044 1.391 1_554 S
C1048 C1047 1.391 . S
C1048 C1049 1.399 . S
C1049 C1048 1.399 . S
C1049 C1052 1.396 . S
C1049 C1061 1.453 1_554 S
C1049 C1062 1.684 1_554 S
H1050 C1074 0.948 . S
C1051 C1047 1.397 . S
C1051 C1052 1.394 . S
C1051 C1070 1.723 . S
C1052 C1049 1.396 . S
C1052 C1051 1.394 . S
C1052 C1082 1.723 . S
H1053 C1076 0.947 . S
H1054 C1077 0.948 1_556 S
H1055 C1083 0.982 . S
H1056 C1084 0.979 . S
H1057 C1084 0.980 . S
H1058 C1084 0.983 . S
H1059 C1083 0.979 . S
H1060 C1083 0.977 . S
C1061 C1049 1.453 1_556 S
C1061 H1090 0.982 . S
C1061 H1091 0.979 . S
C1061 H1092 0.977 . S
C1062 C1049 1.684 1_556 S
C1062 H1087 0.979 . S
C1062 H1088 0.980 . S
C1062 H1089 0.983 . S
C1063 C1064 1.391 . S
C1063 C1068 1.391 . S
C1063 H1093 0.948 . S
C1064 C1063 1.391 . S
C1064 C1065 1.391 . S
C1065 C1064 1.391 . S
C1065 C1066 1.392 . S
C1065 H1094 0.947 . S
C1066 C1065 1.392 . S
C1066 C1067 1.419 . S
C1066 H1095 0.948 . S
C1067 C1066 1.419 . S
C1067 C1068 1.391 . S
C1067 C1071 1.397 . S
C1068 C1063 1.391 . S
C1068 C1067 1.391 . S
C1068 C1069 1.399 . S
C1069 C1068 1.399 . S
C1069 C1070 1.396 . S
C1069 C1072 1.453 . S
C1069 C1073 1.684 . S
C1070 C1051 1.723 . S
C1070 C1069 1.396 . S
C1070 C1071 1.394 . S
C1071 C1067 1.397 . S
C1071 C1070 1.394 . S
C1071 C1081 1.723 . S
C1072 C1069 1.453 . S
C1072 H1096 0.982 . S
C1072 H1097 0.979 . S
C1072 H1098 0.977 . S
C1073 C1069 1.684 . S
C1073 H1099 0.979 . S
C1073 H1100 0.980 . S
C1073 H1101 0.983 . S
C1074 H1050 0.948 . S
C1074 C1075 1.391 . S
C1074 C1079 1.391 . S
C1075 C1074 1.391 . S
C1075 C1076 1.391 1_554 S
C1076 H1053 0.947 . S
C1076 C1075 1.391 1_556 S
C1076 C1077 1.392 1_556 S
C1077 H1054 0.948 1_554 S
C1077 C1076 1.392 1_554 S
C1077 C1078 1.419 . S
C1078 C1077 1.419 . S
C1078 C1079 1.391 . S
C1078 C1082 1.397 . S
C1079 C1074 1.391 . S
C1079 C1078 1.391 . S
C1079 C1080 1.399 . S
C1080 C1079 1.399 . S
C1080 C1081 1.396 . S
C1080 C1083 1.453 . S
C1080 C1084 1.684 . S
C1081 C1071 1.723 . S
C1081 C1080 1.396 . S
C1081 C1082 1.394 . S
C1082 C1052 1.723 . S
C1082 C1078 1.397 . S
C1082 C1081 1.394 . S
C1083 H1055 0.982 . S
C1083 H1059 0.979 . S
C1083 H1060 0.977 . S
C1083 C1080 1.453 . S
C1084 H1056 0.979 . S
C1084 H1057 0.980 . S
C1084 H1058 0.983 . S
C1084 C1080 1.684 . S
H1085 C1103 0.948 . S
H1086 C1044 0.948 . S
H1087 C1062 0.979 . S
H1088 C1062 0.980 . S
H1089 C1062 0.983 . S
H1090 C1061 0.982 . S
H1091 C1061 0.979 . S
H1092 C1061 0.977 . S
H1093 C1063 0.948 . S
H1094 C1065 0.947 . S
H1095 C1066 0.948 . S
H1096 C1072 0.982 . S
H1097 C1072 0.979 . S
H1098 C1072 0.977 . S
H1099 C1073 0.979 . S
H1100 C1073 0.980 . S
H1101 C1073 0.983 . S
H1102 C1046 0.947 . S
C1103 C1046 1.392 . S
C1103 C1047 1.419 . S
C1103 H1085 0.948 . S
C1104 C1105 1.391 . S
C1104 C1108 1.391 . S
C1104 H1146 0.948 . S
C1105 C1104 1.391 . S
C1105 C1106 1.391 . S
C1106 C1105 1.391 . S
C1106 H1162 0.947 . S
C1106 C1163 1.392 . S
C1107 C1108 1.391 . S
C1107 C1111 1.397 . S
C1107 C1163 1.419 . S
C1108 C1104 1.391 . S
C1108 C1107 1.391 . S
C1108 C1109 1.399 . S
C1109 C1108 1.399 . S
C1109 C1112 1.396 . S
C1109 C1121 1.453 . S
C1109 C1122 1.684 . S
H1110 C1134 0.948 . S
C1111 C1107 1.397 . S
C1111 C1112 1.394 . S
C1111 C1130 1.723 . S
C1112 C1109 1.396 . S
C1112 C1111 1.394 . S
C1112 C1142 1.723 1_565 S
H1113 C1136 0.947 . S
H1114 C1137 0.948 . S
H1115 C1143 0.982 . S
H1116 C1144 0.979 . S
H1117 C1144 0.980 . S
H1118 C1144 0.983 . S
H1119 C1143 0.979 . S
H1120 C1143 0.977 . S
C1121 C1109 1.453 . S
C1121 H1150 0.982 . S
C1121 H1151 0.979 . S
C1121 H1152 0.977 1_565 S
C1122 C1109 1.684 . S
C1122 H1147 0.979 . S
C1122 H1148 0.980 1_565 S
C1122 H1149 0.983 . S
C1123 C1124 1.391 . S
C1123 C1128 1.391 . S
C1123 H1153 0.948 . S
C1124 C1123 1.391 . S
C1124 C1125 1.391 1_565 S
C1125 C1124 1.391 1_545 S
C1125 C1126 1.392 . S
C1125 H1154 0.947 . S
C1126 C1125 1.392 . S
C1126 C1127 1.419 . S
C1126 H1155 0.948 . S
C1127 C1126 1.419 . S
C1127 C1128 1.391 1_545 S
C1127 C1131 1.397 . S
C1128 C1123 1.391 . S
C1128 C1127 1.391 1_565 S
C1128 C1129 1.399 . S
C1129 C1128 1.399 . S
C1129 C1130 1.396 . S
C1129 C1132 1.453 . S
C1129 C1133 1.684 . S
C1130 C1111 1.723 . S
C1130 C1129 1.396 . S
C1130 C1131 1.394 1_565 S
C1131 C1127 1.397 . S
C1131 C1130 1.394 1_545 S
C1131 C1141 1.723 . S
C1132 C1129 1.453 . S
C1132 H1156 0.982 . S
C1132 H1157 0.979 . S
C1132 H1158 0.977 . S
C1133 C1129 1.684 . S
C1133 H1159 0.979 . S
C1133 H1160 0.980 . S
C1133 H1161 0.983 . S
C1134 H1110 0.948 . S
C1134 C1135 1.391 . S
C1134 C1139 1.391 . S
C1135 C1134 1.391 . S
C1135 C1136 1.391 . S
C1136 H1113 0.947 . S
C1136 C1135 1.391 . S
C1136 C1137 1.392 . S
C1137 H1114 0.948 . S
C1137 C1136 1.392 . S
C1137 C1138 1.419 . S
C1138 C1137 1.419 . S
C1138 C1139 1.391 . S
C1138 C1142 1.397 . S
C1139 C1134 1.391 . S
C1139 C1138 1.391 . S
C1139 C1140 1.399 . S
C1140 C1139 1.399 . S
C1140 C1141 1.396 . S
C1140 C1143 1.453 . S
C1140 C1144 1.684 . S
C1141 C1131 1.723 . S
C1141 C1140 1.396 . S
C1141 C1142 1.394 . S
C1142 C1112 1.723 1_545 S
C1142 C1138 1.397 . S
C1142 C1141 1.394 . S
C1143 H1115 0.982 . S
C1143 H1119 0.979 . S
C1143 H1120 0.977 . S
C1143 C1140 1.453 . S
C1144 H1116 0.979 . S
C1144 H1117 0.980 . S
C1144 H1118 0.983 . S
C1144 C1140 1.684 . S
H1145 C1163 0.948 . S
H1146 C1104 0.948 . S
H1147 C1122 0.979 . S
H1148 C1122 0.980 1_545 S
H1149 C1122 0.983 . S
H1150 C1121 0.982 . S
H1151 C1121 0.979 . S
H1152 C1121 0.977 1_545 S
H1153 C1123 0.948 . S
H1154 C1125 0.947 . S
H1155 C1126 0.948 . S
H1156 C1132 0.982 . S
H1157 C1132 0.979 . S
H1158 C1132 0.977 . S
H1159 C1133 0.979 . S
H1160 C1133 0.980 . S
H1161 C1133 0.983 . S
H1162 C1106 0.947 . S
C1163 C1106 1.392 . S
C1163 C1107 1.419 . S
C1163 H1145 0.948 . S
C1164 C1165 1.391 . S
C1164 C1168 1.391 . S
C1164 H1206 0.948 1_556 S
C1165 C1164 1.391 . S
C1165 C1166 1.391 . S
C1166 C1165 1.391 . S
C1166 H1222 0.947 . S
C1166 C1223 1.392 . S
C1167 C1168 1.391 . S
C1167 C1171 1.397 . S
C1167 C1223 1.419 . S
C1168 C1164 1.391 . S
C1168 C1167 1.391 . S
C1168 C1169 1.399 . S
C1169 C1168 1.399 . S
C1169 C1172 1.396 . S
C1169 C1181 1.453 1_556 S
C1169 C1182 1.684 1_556 S
H1170 C1194 0.948 . S
C1171 C1167 1.397 . S
C1171 C1172 1.394 . S
C1171 C1190 1.723 . S
C1172 C1169 1.396 . S
C1172 C1171 1.394 . S
C1172 C1202 1.723 1_565 S
H1173 C1196 0.947 . S
H1174 C1197 0.948 . S
H1175 C1203 0.982 . S
H1176 C1204 0.979 . S
H1177 C1204 0.980 . S
H1178 C1204 0.983 . S
H1179 C1203 0.979 . S
H1180 C1203 0.977 . S
C1181 C1169 1.453 1_554 S
C1181 H1210 0.987 . S
C1181 H1211 0.979 . S
C1181 H1212 0.977 1_565 S
C1182 C1169 1.684 1_554 S
C1182 H1207 0.979 . S
C1182 H1208 0.980 1_565 S
C1182 H1209 0.983 . S
C1183 C1184 1.391 1_565 S
C1183 C1188 1.391 . S
C1183 H1213 0.948 . S
C1184 C1183 1.391 1_545 S
C1184 C1185 1.391 . S
C1185 C1184 1.391 . S
C1185 C1186 1.392 . S
C1185 H1214 0.947 . S
C1186 C1185 1.392 . S
C1186 C1187 1.419 . S
C1186 H1215 0.948 . S
C1187 C1186 1.419 . S
C1187 C1188 1.391 1_545 S
C1187 C1191 1.397 . S
C1188 C1183 1.391 . S
C1188 C1187 1.391 1_565 S
C1188 C1189 1.399 . S
C1189 C1188 1.399 . S
C1189 C1190 1.396 . S
C1189 C1192 1.453 . S
C1189 C1193 1.684 . S
C1190 C1171 1.723 . S
C1190 C1189 1.396 . S
C1190 C1191 1.394 1_565 S
C1191 C1187 1.397 . S
C1191 C1190 1.394 1_545 S
C1191 C1201 1.723 . S
C1192 C1189 1.453 . S
C1192 H1216 0.982 . S
C1192 H1217 0.979 . S
C1192 H1218 0.977 . S
C1193 C1189 1.684 . S
C1193 H1219 0.979 . S
C1193 H1220 0.980 . S
C1193 H1221 0.983 . S
C1194 H1170 0.948 . S
C1194 C1195 1.391 1_556 S
C1194 C1199 1.391 . S
C1195 C1194 1.391 1_554 S
C1195 C1196 1.391 . S
C1196 H1173 0.947 . S
C1196 C1195 1.391 . S
C1196 C1197 1.392 . S
C1197 H1174 0.948 . S
C1197 C1196 1.392 . S
C1197 C1198 1.419 1_554 S
C1198 C1197 1.419 1_556 S
C1198 C1199 1.391 . S
C1198 C1202 1.397 . S
C1199 C1194 1.391 . S
C1199 C1198 1.391 . S
C1199 C1200 1.399 . S
C1200 C1199 1.399 . S
C1200 C1201 1.396 . S
C1200 C1203 1.453 . S
C1200 C1204 1.684 . S
C1201 C1191 1.723 . S
C1201 C1200 1.396 . S
C1201 C1202 1.394 . S
C1202 C1172 1.723 1_545 S
C1202 C1198 1.397 . S
C1202 C1201 1.394 . S
C1203 H1175 0.982 . S
C1203 H1179 0.979 . S
C1203 H1180 0.977 . S
C1203 C1200 1.453 . S
C1204 H1176 0.979 . S
C1204 H1177 0.980 . S
C1204 H1178 0.983 . S
C1204 C1200 1.684 . S
H1205 C1223 0.948 . S
H1206 C1164 0.948 1_554 S
H1207 C1182 0.979 . S
H1208 C1182 0.980 1_545 S
H1209 C1182 0.983 . S
H1210 C1181 0.987 . S
H1211 C1181 0.979 . S
H1212 C1181 0.977 1_545 S
H1213 C1183 0.948 . S
H1214 C1185 0.947 . S
H1215 C1186 0.948 . S
H1216 C1192 0.982 . S
H1217 C1192 0.979 . S
H1218 C1192 0.977 . S
H1219 C1193 0.979 . S
H1220 C1193 0.980 . S
H1221 C1193 0.983 . S
H1222 C1166 0.947 . S
C1223 C1166 1.392 . S
C1223 C1167 1.419 . S
C1223 H1205 0.948 . S
C1224 C1225 1.391 . S
C1224 C1228 1.391 . S
C1224 H1266 0.948 . S
C1225 C1224 1.391 . S
C1225 C1226 1.391 . S
C1226 C1225 1.391 . S
C1226 H1282 0.947 . S
C1226 C1283 1.392 . S
C1227 C1228 1.391 . S
C1227 C1231 1.397 . S
C1227 C1283 1.419 . S
C1228 C1224 1.391 . S
C1228 C1227 1.391 . S
C1228 C1229 1.399 . S
C1229 C1228 1.399 . S
C1229 C1232 1.396 . S
C1229 C1241 1.453 . S
C1229 C1242 1.684 . S
H1230 C1254 0.948 . S
C1231 C1227 1.397 . S
C1231 C1232 1.394 . S
C1231 C1250 1.723 . S
C1232 C1229 1.396 . S
C1232 C1231 1.394 . S
C1232 C1262 1.723 . S
H1233 C1256 0.947 . S
H1234 C1257 0.948 . S
H1235 C1263 0.982 . S
H1236 C1264 0.979 . S
H1237 C1264 0.980 . S
H1238 C1264 0.983 . S
H1239 C1263 0.979 . S
H1240 C1263 0.977 . S
C1241 C1229 1.453 . S
C1241 H1270 0.982 . S
C1241 H1271 0.979 . S
C1241 H1272 0.977 . S
C1242 C1229 1.684 . S
C1242 H1267 0.979 . S
C1242 H1268 0.980 . S
C1242 H1269 0.983 . S
C1243 C1244 1.391 . S
C1243 C1248 1.391 . S
C1243 H1273 0.948 . S
C1244 C1243 1.391 . S
C1244 C1245 1.391 . S
C1245 C1244 1.391 . S
C1245 C1246 1.392 . S
C1245 H1274 0.947 . S
C1246 C1245 1.392 . S
C1246 C1247 1.419 . S
C1246 H1275 0.948 . S
C1247 C1246 1.419 . S
C1247 C1248 1.391 . S
C1247 C1251 1.397 . S
C1248 C1243 1.391 . S
C1248 C1247 1.391 . S
C1248 C1249 1.399 . S
C1249 C1248 1.399 . S
C1249 C1250 1.396 . S
C1249 C1252 1.453 . S
C1249 C1253 1.684 . S
C1250 C1231 1.723 . S
C1250 C1249 1.396 . S
C1250 C1251 1.394 . S
C1251 C1247 1.397 . S
C1251 C1250 1.394 . S
C1251 C1261 1.723 . S
C1252 C1249 1.453 . S
C1252 H1276 0.982 . S
C1252 H1277 0.979 . S
C1252 H1278 0.977 . S
C1253 C1249 1.684 . S
C1253 H1279 0.979 . S
C1253 H1280 0.980 . S
C1253 H1281 0.983 . S
C1254 H1230 0.948 . S
C1254 C1255 1.391 . S
C1254 C1259 1.391 . S
C1255 C1254 1.391 . S
C1255 C1256 1.391 . S
C1256 H1233 0.947 . S
C1256 C1255 1.391 . S
C1256 C1257 1.392 . S
C1257 H1234 0.948 . S
C1257 C1256 1.392 . S
C1257 C1258 1.419 . S
C1258 C1257 1.419 . S
C1258 C1259 1.391 . S
C1258 C1262 1.397 . S
C1259 C1254 1.391 . S
C1259 C1258 1.391 . S
C1259 C1260 1.399 . S
C1260 C1259 1.399 . S
C1260 C1261 1.396 . S
C1260 C1263 1.453 . S
C1260 C1264 1.684 . S
C1261 C1251 1.723 . S
C1261 C1260 1.396 . S
C1261 C1262 1.394 . S
C1262 C1232 1.723 . S
C1262 C1258 1.397 . S
C1262 C1261 1.394 . S
C1263 H1235 0.982 . S
C1263 H1239 0.979 . S
C1263 H1240 0.977 . S
C1263 C1260 1.453 . S
C1264 H1236 0.979 . S
C1264 H1237 0.980 . S
C1264 H1238 0.983 . S
C1264 C1260 1.684 . S
H1265 C1283 0.948 . S
H1266 C1224 0.948 . S
H1267 C1242 0.979 . S
H1268 C1242 0.980 . S
H1269 C1242 0.983 . S
H1270 C1241 0.982 . S
H1271 C1241 0.979 . S
H1272 C1241 0.977 . S
H1273 C1243 0.948 . S
H1274 C1245 0.947 . S
H1275 C1246 0.948 . S
H1276 C1252 0.982 . S
H1277 C1252 0.979 . S
H1278 C1252 0.977 . S
H1279 C1253 0.979 . S
H1280 C1253 0.980 . S
H1281 C1253 0.983 . S
H1282 C1226 0.947 . S
C1283 C1226 1.392 . S
C1283 C1227 1.419 . S
C1283 H1265 0.948 . S
C1284 C1285 1.391 1_655 S
C1284 C1288 1.391 . S
C1284 H1326 0.948 . S
C1285 C1284 1.391 1_455 S
C1285 C1286 1.391 . S
C1286 C1285 1.391 . S
C1286 H1342 0.947 . S
C1286 C1343 1.392 . S
C1287 C1288 1.391 . S
C1287 C1291 1.397 . S
C1287 C1343 1.419 1_655 S
C1288 C1284 1.391 . S
C1288 C1287 1.391 . S
C1288 C1289 1.399 . S
C1289 C1288 1.399 . S
C1289 C1292 1.396 . S
C1289 C1301 1.453 . S
C1289 C1302 1.684 . S
H1290 C1314 0.948 . S
C1291 C1287 1.397 . S
C1291 C1292 1.394 . S
C1291 C1310 1.723 1_554 S
C1292 C1289 1.396 . S
C1292 C1291 1.394 . S
C1292 C1322 1.723 . S
H1293 C1316 0.947 . S
H1294 C1317 0.948 . S
H1295 C1323 0.982 . S
H1296 C1324 0.979 . S
H1297 C1324 0.980 . S
H1298 C1324 0.983 . S
H1299 C1323 0.979 . S
H1300 C1323 0.977 . S
C1301 C1289 1.453 . S
C1301 H1330 0.982 . S
C1301 H1331 0.979 . S
C1301 H1332 0.977 . S
C1302 C1289 1.684 . S
C1302 H1327 0.979 . S
C1302 H1328 0.980 . S
C1302 H1329 0.983 . S
C1303 C1304 1.391 . S
C1303 C1308 1.391 . S
C1303 H1333 0.948 1_655 S
C1304 C1303 1.391 . S
C1304 C1305 1.391 . S
C1305 C1304 1.391 . S
C1305 C1306 1.392 . S
C1305 H1334 0.947 . S
C1306 C1305 1.392 . S
C1306 C1307 1.419 . S
C1306 H1335 0.948 . S
C1307 C1306 1.419 . S
C1307 C1308 1.391 . S
C1307 C1311 1.397 . S
C1308 C1303 1.391 . S
C1308 C1307 1.391 . S
C1308 C1309 1.399 . S
C1309 C1308 1.399 . S
C1309 C1310 1.396 . S
C1309 C1312 1.453 1_655 S
C1309 C1313 1.684 1_655 S
C1310 C1291 1.723 1_556 S
C1310 C1309 1.396 . S
C1310 C1311 1.394 . S
C1311 C1307 1.397 . S
C1311 C1310 1.394 . S
C1311 C1321 1.723 . S
C1312 C1309 1.453 1_455 S
C1312 H1336 0.987 . S
C1312 H1337 0.979 . S
C1312 H1338 0.977 1_556 S
C1313 C1309 1.684 1_455 S
C1313 H1339 0.979 . S
C1313 H1340 0.980 1_556 S
C1313 H1341 0.983 . S
C1314 H1290 0.948 . S
C1314 C1315 1.391 1_556 S
C1314 C1319 1.391 . S
C1315 C1314 1.391 1_554 S
C1315 C1316 1.391 . S
C1316 H1293 0.947 . S
C1316 C1315 1.391 . S
C1316 C1317 1.392 . S
C1317 H1294 0.948 . S
C1317 C1316 1.392 . S
C1317 C1318 1.419 . S
C1318 C1317 1.419 . S
C1318 C1319 1.391 1_554 S
C1318 C1322 1.397 . S
C1319 C1314 1.391 . S
C1319 C1318 1.391 1_556 S
C1319 C1320 1.399 . S
C1320 C1319 1.399 . S
C1320 C1321 1.396 . S
C1320 C1323 1.453 . S
C1320 C1324 1.684 . S
C1321 C1311 1.723 . S
C1321 C1320 1.396 . S
C1321 C1322 1.394 1_556 S
C1322 C1292 1.723 . S
C1322 C1318 1.397 . S
C1322 C1321 1.394 1_554 S
C1323 H1295 0.982 . S
C1323 H1299 0.979 . S
C1323 H1300 0.977 . S
C1323 C1320 1.453 . S
C1324 H1296 0.979 . S
C1324 H1297 0.980 . S
C1324 H1298 0.983 . S
C1324 C1320 1.684 . S
H1325 C1343 0.948 . S
H1326 C1284 0.948 . S
H1327 C1302 0.979 . S
H1328 C1302 0.980 . S
H1329 C1302 0.983 . S
H1330 C1301 0.982 . S
H1331 C1301 0.979 . S
H1332 C1301 0.977 . S
H1333 C1303 0.948 1_455 S
H1334 C1305 0.947 . S
H1335 C1306 0.948 . S
H1336 C1312 0.987 . S
H1337 C1312 0.979 . S
H1338 C1312 0.977 1_554 S
H1339 C1313 0.979 . S
H1340 C1313 0.980 1_554 S
H1341 C1313 0.983 . S
H1342 C1286 0.947 . S
C1343 C1286 1.392 . S
C1343 C1287 1.419 1_455 S
C1343 H1325 0.948 . S
C1344 C1345 1.391 . S
C1344 C1348 1.391 . S
C1344 H1386 0.948 . S
C1345 C1344 1.391 . S
C1345 C1346 1.391 . S
C1346 C1345 1.391 . S
C1346 H1402 0.947 . S
C1346 C1403 1.392 . S
C1347 C1348 1.391 . S
C1347 C1351 1.397 . S
C1347 C1403 1.419 . S
C1348 C1344 1.391 . S
C1348 C1347 1.391 . S
C1348 C1349 1.399 . S
C1349 C1348 1.399 . S
C1349 C1352 1.396 . S
C1349 C1361 1.453 . S
C1349 C1362 1.684 . S
H1350 C1374 0.948 1_655 S
C1351 C1347 1.397 . S
C1351 C1352 1.394 . S
C1351 C1370 1.723 . S
C1352 C1349 1.396 . S
C1352 C1351 1.394 . S
C1352 C1382 1.723 . S
H1353 C1376 0.947 . S
H1354 C1377 0.948 . S
H1355 C1383 0.982 1_455 S
H1356 C1384 0.979 . S
H1357 C1384 0.980 . S
H1358 C1384 0.983 . S
H1359 C1383 0.979 . S
H1360 C1383 0.977 . S
C1361 C1349 1.453 . S
C1361 H1390 0.982 . S
C1361 H1391 0.979 . S
C1361 H1392 0.977 . S
C1362 C1349 1.684 . S
C1362 H1387 0.979 . S
C1362 H1388 0.980 . S
C1362 H1389 0.983 . S
C1363 C1364 1.391 1_455 S
C1363 C1368 1.391 . S
C1363 H1393 0.948 . S
C1364 C1363 1.391 1_655 S
C1364 C1365 1.391 . S
C1365 C1364 1.391 . S
C1365 C1366 1.392 . S
C1365 H1394 0.947 . S
C1366 C1365 1.392 . S
C1366 C1367 1.419 1_655 S
C1366 H1395 0.948 . S
C1367 C1366 1.419 1_455 S
C1367 C1368 1.391 . S
C1367 C1371 1.397 . S
C1368 C1363 1.391 . S
C1368 C1367 1.391 . S
C1368 C1369 1.399 . S
C1369 C1368 1.399 . S
C1369 C1370 1.396 . S
C1369 C1372 1.453 . S
C1369 C1373 1.684 . S
C1370 C1351 1.723 . S
C1370 C1369 1.396 . S
C1370 C1371 1.394 . S
C1371 C1367 1.397 . S
C1371 C1370 1.394 . S
C1371 C1381 1.723 . S
C1372 C1369 1.453 . S
C1372 H1396 0.982 . S
C1372 H1397 0.979 . S
C1372 H1398 0.977 . S
C1373 C1369 1.684 . S
C1373 H1399 0.979 . S
C1373 H1400 0.980 . S
C1373 H1401 0.983 . S
C1374 H1350 0.948 1_455 S
C1374 C1375 1.391 . S
C1374 C1379 1.391 . S
C1375 C1374 1.391 . S
C1375 C1376 1.391 . S
C1376 H1353 0.947 . S
C1376 C1375 1.391 . S
C1376 C1377 1.392 . S
C1377 H1354 0.948 . S
C1377 C1376 1.392 . S
C1377 C1378 1.419 . S
C1378 C1377 1.419 . S
C1378 C1379 1.391 . S
C1378 C1382 1.397 . S
C1379 C1374 1.391 . S
C1379 C1378 1.391 . S
C1379 C1380 1.399 . S
C1380 C1379 1.399 . S
C1380 C1381 1.396 . S
C1380 C1383 1.453 1_455 S
C1380 C1384 1.684 1_455 S
C1381 C1371 1.723 . S
C1381 C1380 1.396 . S
C1381 C1382 1.394 . S
C1382 C1352 1.723 . S
C1382 C1378 1.397 . S
C1382 C1381 1.394 . S
C1383 H1355 0.982 1_655 S
C1383 H1359 0.979 . S
C1383 H1360 0.977 . S
C1383 C1380 1.453 1_655 S
C1384 H1356 0.979 . S
C1384 H1357 0.980 . S
C1384 H1358 0.983 . S
C1384 C1380 1.684 1_655 S
H1385 C1403 0.948 . S
H1386 C1344 0.948 . S
H1387 C1362 0.979 . S
H1388 C1362 0.980 . S
H1389 C1362 0.983 . S
H1390 C1361 0.982 . S
H1391 C1361 0.979 . S
H1392 C1361 0.977 . S
H1393 C1363 0.948 . S
H1394 C1365 0.947 . S
H1395 C1366 0.948 . S
H1396 C1372 0.982 . S
H1397 C1372 0.979 . S
H1398 C1372 0.977 . S
H1399 C1373 0.979 . S
H1400 C1373 0.980 . S
H1401 C1373 0.983 . S
H1402 C1346 0.947 . S
C1403 C1346 1.392 . S
C1403 C1347 1.419 . S
C1403 H1385 0.948 . S
C1404 C1405 1.391 . S
C1404 C1408 1.391 . S
C1404 H1446 0.948 . S
C1405 C1404 1.391 . S
C1405 C1406 1.391 . S
C1406 C1405 1.391 . S
C1406 H1462 0.947 . S
C1406 C1463 1.392 . S
C1407 C1408 1.391 . S
C1407 C1411 1.397 . S
C1407 C1463 1.419 . S
C1408 C1404 1.391 . S
C1408 C1407 1.391 . S
C1408 C1409 1.399 . S
C1409 C1408 1.399 . S
C1409 C1412 1.396 . S
C1409 C1421 1.453 . S
C1409 C1422 1.684 . S
H1410 C1434 0.948 . S
C1411 C1407 1.397 . S
C1411 C1412 1.394 . S
C1411 C1430 1.723 1_556 S
C1412 C1409 1.396 . S
C1412 C1411 1.394 . S
C1412 C1442 1.723 . S
H1413 C1436 0.947 . S
H1414 C1437 0.948 . S
H1415 C1443 0.982 . S
H1416 C1444 0.979 . S
H1417 C1444 0.980 . S
H1418 C1444 0.983 . S
H1419 C1443 0.979 . S
H1420 C1443 0.977 . S
C1421 C1409 1.453 . S
C1421 H1450 0.982 . S
C1421 H1451 0.979 . S
C1421 H1452 0.977 . S
C1422 C1409 1.684 . S
C1422 H1447 0.979 . S
C1422 H1448 0.980 . S
C1422 H1449 0.983 . S
C1423 C1424 1.391 . S
C1423 C1428 1.391 . S
C1423 H1453 0.948 . S
C1424 C1423 1.391 . S
C1424 C1425 1.391 . S
C1425 C1424 1.391 . S
C1425 C1426 1.392 . S
C1425 H1454 0.947 . S
C1426 C1425 1.392 . S
C1426 C1427 1.419 . S
C1426 H1455 0.948 . S
C1427 C1426 1.419 . S
C1427 C1428 1.391 . S
C1427 C1431 1.397 . S
C1428 C1423 1.391 . S
C1428 C1427 1.391 . S
C1428 C1429 1.399 . S
C1429 C1428 1.399 . S
C1429 C1430 1.396 . S
C1429 C1432 1.453 . S
C1429 C1433 1.684 . S
C1430 C1411 1.723 1_554 S
C1430 C1429 1.396 . S
C1430 C1431 1.394 . S
C1431 C1427 1.397 . S
C1431 C1430 1.394 . S
C1431 C1441 1.723 . S
C1432 C1429 1.453 . S
C1432 H1456 0.982 . S
C1432 H1457 0.979 . S
C1432 H1458 0.977 . S
C1433 C1429 1.684 . S
C1433 H1459 0.979 . S
C1433 H1460 0.980 . S
C1433 H1461 0.983 . S
C1434 H1410 0.948 . S
C1434 C1435 1.391 1_554 S
C1434 C1439 1.391 . S
C1435 C1434 1.391 1_556 S
C1435 C1436 1.391 . S
C1436 H1413 0.947 . S
C1436 C1435 1.391 . S
C1436 C1437 1.392 . S
C1437 H1414 0.948 . S
C1437 C1436 1.392 . S
C1437 C1438 1.419 . S
C1438 C1437 1.419 . S
C1438 C1439 1.391 1_556 S
C1438 C1442 1.397 . S
C1439 C1434 1.391 . S
C1439 C1438 1.391 1_554 S
C1439 C1440 1.399 . S
C1440 C1439 1.399 . S
C1440 C1441 1.396 . S
C1440 C1443 1.453 . S
C1440 C1444 1.684 . S
C1441 C1431 1.723 . S
C1441 C1440 1.396 . S
C1441 C1442 1.394 1_554 S
C1442 C1412 1.723 . S
C1442 C1438 1.397 . S
C1442 C1441 1.394 1_556 S
C1443 H1415 0.982 . S
C1443 H1419 0.979 . S
C1443 H1420 0.977 . S
C1443 C1440 1.453 . S
C1444 H1416 0.979 . S
C1444 H1417 0.980 . S
C1444 H1418 0.983 . S
C1444 C1440 1.684 . S
H1445 C1463 0.948 . S
H1446 C1404 0.948 . S
H1447 C1422 0.979 . S
H1448 C1422 0.980 . S
H1449 C1422 0.983 . S
H1450 C1421 0.982 . S
H1451 C1421 0.979 . S
H1452 C1421 0.977 . S
H1453 C1423 0.948 . S
H1454 C1425 0.947 . S
H1455 C1426 0.948 . S
H1456 C1432 0.982 . S
H1457 C1432 0.979 . S
H1458 C1432 0.977 . S
H1459 C1433 0.979 . S
H1460 C1433 0.980 . S
H1461 C1433 0.983 . S
H1462 C1406 0.947 . S
C1463 C1406 1.392 . S
C1463 C1407 1.419 . S
C1463 H1445 0.948 . S
C1464 C1465 1.391 . S
C1464 C1468 1.391 . S
C1464 H1506 0.948 . S
C1465 C1464 1.391 . S
C1465 C1466 1.391 . S
C1466 C1465 1.391 . S
C1466 H1522 0.947 . S
C1466 C1523 1.392 . S
C1467 C1468 1.391 . S
C1467 C1471 1.397 . S
C1467 C1523 1.419 . S
C1468 C1464 1.391 . S
C1468 C1467 1.391 . S
C1468 C1469 1.399 . S
C1469 C1468 1.399 . S
C1469 C1472 1.396 . S
C1469 C1481 1.453 . S
C1469 C1482 1.684 . S
H1470 C1494 0.948 . S
C1471 C1467 1.397 . S
C1471 C1472 1.394 . S
C1471 C1490 1.723 . S
C1472 C1469 1.396 . S
C1472 C1471 1.394 . S
C1472 C1502 1.723 . S
H1473 C1496 0.947 . S
H1474 C1497 0.948 . S
H1475 C1503 0.982 . S
H1476 C1504 0.979 . S
H1477 C1504 0.980 . S
H1478 C1504 0.983 . S
H1479 C1503 0.979 . S
H1480 C1503 0.977 . S
C1481 C1469 1.453 . S
C1481 H1510 0.982 . S
C1481 H1511 0.979 . S
C1481 H1512 0.977 . S
C1482 C1469 1.684 . S
C1482 H1507 0.979 . S
C1482 H1508 0.980 . S
C1482 H1509 0.983 . S
C1483 C1484 1.391 . S
C1483 C1488 1.391 . S
C1483 H1513 0.948 . S
C1484 C1483 1.391 . S
C1484 C1485 1.391 . S
C1485 C1484 1.391 . S
C1485 C1486 1.392 . S
C1485 H1514 0.947 . S
C1486 C1485 1.392 . S
C1486 C1487 1.419 . S
C1486 H1515 0.948 . S
C1487 C1486 1.419 . S
C1487 C1488 1.391 . S
C1487 C1491 1.397 . S
C1488 C1483 1.391 . S
C1488 C1487 1.391 . S
C1488 C1489 1.399 . S
C1489 C1488 1.399 . S
C1489 C1490 1.396 . S
C1489 C1492 1.453 . S
C1489 C1493 1.684 . S
C1490 C1471 1.723 . S
C1490 C1489 1.396 . S
C1490 C1491 1.394 . S
C1491 C1487 1.397 . S
C1491 C1490 1.394 . S
C1491 C1501 1.723 . S
C1492 C1489 1.453 . S
C1492 H1516 0.982 . S
C1492 H1517 0.979 . S
C1492 H1518 0.977 . S
C1493 C1489 1.684 . S
C1493 H1519 0.979 . S
C1493 H1520 0.980 . S
C1493 H1521 0.983 . S
C1494 H1470 0.948 . S
C1494 C1495 1.391 . S
C1494 C1499 1.391 . S
C1495 C1494 1.391 . S
C1495 C1496 1.391 . S
C1496 H1473 0.947 . S
C1496 C1495 1.391 . S
C1496 C1497 1.392 . S
C1497 H1474 0.948 . S
C1497 C1496 1.392 . S
C1497 C1498 1.419 . S
C1498 C1497 1.419 . S
C1498 C1499 1.391 . S
C1498 C1502 1.397 . S
C1499 C1494 1.391 . S
C1499 C1498 1.391 . S
C1499 C1500 1.399 . S
C1500 C1499 1.399 . S
C1500 C1501 1.396 . S
C1500 C1503 1.453 . S
C1500 C1504 1.684 . S
C1501 C1491 1.723 . S
C1501 C1500 1.396 . S
C1501 C1502 1.394 . S
C1502 C1472 1.723 . S
C1502 C1498 1.397 . S
C1502 C1501 1.394 . S
C1503 H1475 0.982 . S
C1503 H1479 0.979 . S
C1503 H1480 0.977 . S
C1503 C1500 1.453 . S
C1504 H1476 0.979 . S
C1504 H1477 0.980 . S
C1504 H1478 0.983 . S
C1504 C1500 1.684 . S
H1505 C1523 0.948 . S
H1506 C1464 0.948 . S
H1507 C1482 0.979 . S
H1508 C1482 0.980 . S
H1509 C1482 0.983 . S
H1510 C1481 0.982 . S
H1511 C1481 0.979 . S
H1512 C1481 0.977 . S
H1513 C1483 0.948 . S
H1514 C1485 0.947 . S
H1515 C1486 0.948 . S
H1516 C1492 0.982 . S
H1517 C1492 0.979 . S
H1518 C1492 0.977 . S
H1519 C1493 0.979 . S
H1520 C1493 0.980 . S
H1521 C1493 0.983 . S
H1522 C1466 0.947 . S
C1523 C1466 1.392 . S
C1523 C1467 1.419 . S
C1523 H1505 0.948 . S
C1524 C1525 1.391 1_655 S
C1524 C1528 1.391 . S
C1524 H1566 0.948 . S
C1525 C1524 1.391 1_455 S
C1525 C1526 1.391 . S
C1526 C1525 1.391 . S
C1526 H1582 0.947 . S
C1526 C1583 1.392 . S
C1527 C1528 1.391 1_455 S
C1527 C1531 1.397 . S
C1527 C1583 1.419 . S
C1528 C1524 1.391 . S
C1528 C1527 1.391 1_655 S
C1528 C1529 1.399 . S
C1529 C1528 1.399 . S
C1529 C1532 1.396 . S
C1529 C1541 1.453 . S
C1529 C1542 1.684 . S
H1530 C1554 0.948 1_545 S
C1531 C1527 1.397 . S
C1531 C1532 1.394 1_455 S
C1531 C1550 1.723 . S
C1532 C1529 1.396 . S
C1532 C1531 1.394 1_655 S
C1532 C1562 1.723 . S
H1533 C1556 0.947 . S
H1534 C1557 0.948 . S
H1535 C1563 0.987 . S
H1536 C1564 0.979 . S
H1537 C1564 0.980 1_455 S
H1538 C1564 0.983 . S
H1539 C1563 0.979 . S
H1540 C1563 0.977 1_455 S
C1541 C1529 1.453 . S
C1541 H1570 0.982 . S
C1541 H1571 0.979 . S
C1541 H1572 0.977 . S
C1542 C1529 1.684 . S
C1542 H1567 0.979 . S
C1542 H1568 0.980 . S
C1542 H1569 0.983 . S
C1543 C1544 1.391 1_565 S
C1543 C1548 1.391 . S
C1543 H1573 0.948 . S
C1544 C1543 1.391 1_545 S
C1544 C1545 1.391 . S
C1545 C1544 1.391 . S
C1545 C1546 1.392 . S
C1545 H1574 0.947 . S
C1546 C1545 1.392 . S
C1546 C1547 1.419 1_545 S
C1546 H1575 0.948 . S
C1547 C1546 1.419 1_565 S
C1547 C1548 1.391 . S
C1547 C1551 1.397 . S
C1548 C1543 1.391 . S
C1548 C1547 1.391 . S
C1548 C1549 1.399 . S
C1549 C1548 1.399 . S
C1549 C1550 1.396 . S
C1549 C1552 1.453 . S
C1549 C1553 1.684 . S
C1550 C1531 1.723 . S
C1550 C1549 1.396 . S
C1550 C1551 1.394 . S
C1551 C1547 1.397 . S
C1551 C1550 1.394 . S
C1551 C1561 1.723 1_455 S
C1552 C1549 1.453 . S
C1552 H1576 0.982 . S
C1552 H1577 0.979 . S
C1552 H1578 0.977 . S
C1553 C1549 1.684 . S
C1553 H1579 0.979 . S
C1553 H1580 0.980 . S
C1553 H1581 0.983 . S
C1554 H1530 0.948 1_565 S
C1554 C1555 1.391 . S
C1554 C1559 1.391 . S
C1555 C1554 1.391 . S
C1555 C1556 1.391 . S
C1556 H1533 0.947 . S
C1556 C1555 1.391 . S
C1556 C1557 1.392 . S
C1557 H1534 0.948 . S
C1557 C1556 1.392 . S
C1557 C1558 1.419 . S
C1558 C1557 1.419 . S
C1558 C1559 1.391 . S
C1558 C1562 1.397 . S
C1559 C1554 1.391 . S
C1559 C1558 1.391 . S
C1559 C1560 1.399 . S
C1560 C1559 1.399 . S
C1560 C1561 1.396 . S
C1560 C1563 1.453 1_565 S
C1560 C1564 1.684 1_565 S
C1561 C1551 1.723 1_655 S
C1561 C1560 1.396 . S
C1561 C1562 1.394 . S
C1562 C1532 1.723 . S
C1562 C1558 1.397 . S
C1562 C1561 1.394 . S
C1563 H1535 0.987 . S
C1563 H1539 0.979 . S
C1563 H1540 0.977 1_655 S
C1563 C1560 1.453 1_545 S
C1564 H1536 0.979 . S
C1564 H1537 0.980 1_655 S
C1564 H1538 0.983 . S
C1564 C1560 1.684 1_545 S
H1565 C1583 0.948 . S
H1566 C1524 0.948 . S
H1567 C1542 0.979 . S
H1568 C1542 0.980 . S
H1569 C1542 0.983 . S
H1570 C1541 0.982 . S
H1571 C1541 0.979 . S
H1572 C1541 0.977 . S
H1573 C1543 0.948 . S
H1574 C1545 0.947 . S
H1575 C1546 0.948 . S
H1576 C1552 0.982 . S
H1577 C1552 0.979 . S
H1578 C1552 0.977 . S
H1579 C1553 0.979 . S
H1580 C1553 0.980 . S
H1581 C1553 0.983 . S
H1582 C1526 0.947 . S
C1583 C1526 1.392 . S
C1583 C1527 1.419 . S
C1583 H1565 0.948 . S
C1584 C1585 1.391 1_565 S
C1584 C1588 1.391 1_565 S
C1584 H1626 0.948 . S
C1585 C1584 1.391 1_545 S
C1585 C1586 1.391 . S
C1586 C1585 1.391 . S
C1586 H1642 0.947 . S
C1586 C1643 1.392 . S
C1587 C1588 1.391 . S
C1587 C1591 1.397 . S
C1587 C1643 1.419 . S
C1588 C1584 1.391 1_545 S
C1588 C1587 1.391 . S
C1588 C1589 1.399 . S
C1589 C1588 1.399 . S
C1589 C1592 1.396 . S
C1589 C1601 1.453 1_545 S
C1589 C1602 1.684 1_545 S
H1590 C1614 0.948 . S
C1591 C1587 1.397 . S
C1591 C1592 1.394 . S
C1591 C1610 1.723 . S
C1592 C1589 1.396 . S
C1592 C1591 1.394 . S
C1592 C1622 1.723 . S
H1593 C1616 0.947 . S
H1594 C1617 0.948 1_565 S
H1595 C1623 0.982 . S
H1596 C1624 0.979 . S
H1597 C1624 0.980 . S
H1598 C1624 0.983 . S
H1599 C1623 0.979 . S
H1600 C1623 0.977 . S
C1601 C1589 1.453 1_565 S
C1601 H1630 0.982 . S
C1601 H1631 0.979 . S
C1601 H1632 0.977 . S
C1602 C1589 1.684 1_565 S
C1602 H1627 0.979 . S
C1602 H1628 0.980 . S
C1602 H1629 0.983 . S
C1603 C1604 1.391 . S
C1603 C1608 1.391 . S
C1603 H1633 0.948 . S
C1604 C1603 1.391 . S
C1604 C1605 1.391 . S
C1605 C1604 1.391 . S
C1605 C1606 1.392 . S
C1605 H1634 0.947 . S
C1606 C1605 1.392 . S
C1606 C1607 1.419 . S
C1606 H1635 0.948 . S
C1607 C1606 1.419 . S
C1607 C1608 1.391 . S
C1607 C1611 1.397 . S
C1608 C1603 1.391 . S
C1608 C1607 1.391 . S
C1608 C1609 1.399 . S
C1609 C1608 1.399 . S
C1609 C1610 1.396 . S
C1609 C1612 1.453 . S
C1609 C1613 1.684 . S
C1610 C1591 1.723 . S
C1610 C1609 1.396 . S
C1610 C1611 1.394 . S
C1611 C1607 1.397 . S
C1611 C1610 1.394 . S
C1611 C1621 1.723 . S
C1612 C1609 1.453 . S
C1612 H1636 0.982 . S
C1612 H1637 0.979 . S
C1612 H1638 0.977 . S
C1613 C1609 1.684 . S
C1613 H1639 0.979 . S
C1613 H1640 0.980 . S
C1613 H1641 0.983 . S
C1614 H1590 0.948 . S
C1614 C1615 1.391 . S
C1614 C1619 1.391 . S
C1615 C1614 1.391 . S
C1615 C1616 1.391 1_545 S
C1616 H1593 0.947 . S
C1616 C1615 1.391 1_565 S
C1616 C1617 1.392 1_565 S
C1617 H1594 0.948 1_545 S
C1617 C1616 1.392 1_545 S
C1617 C1618 1.419 . S
C1618 C1617 1.419 . S
C1618 C1619 1.391 . S
C1618 C1622 1.397 . S
C1619 C1614 1.391 . S
C1619 C1618 1.391 . S
C1619 C1620 1.399 . S
C1620 C1619 1.399 . S
C1620 C1621 1.396 . S
C1620 C1623 1.453 . S
C1620 C1624 1.684 . S
C1621 C1611 1.723 . S
C1621 C1620 1.396 . S
C1621 C1622 1.394 . S
C1622 C1592 1.723 . S
C1622 C1618 1.397 . S
C1622 C1621 1.394 . S
C1623 H1595 0.982 . S
C1623 H1599 0.979 . S
C1623 H1600 0.977 . S
C1623 C1620 1.453 . S
C1624 H1596 0.979 . S
C1624 H1597 0.980 . S
C1624 H1598 0.983 . S
C1624 C1620 1.684 . S
H1625 C1643 0.948 . S
H1626 C1584 0.948 . S
H1627 C1602 0.979 . S
H1628 C1602 0.980 . S
H1629 C1602 0.983 . S
H1630 C1601 0.982 . S
H1631 C1601 0.979 . S
H1632 C1601 0.977 . S
H1633 C1603 0.948 . S
H1634 C1605 0.947 . S
H1635 C1606 0.948 . S
H1636 C1612 0.982 . S
H1637 C1612 0.979 . S
H1638 C1612 0.977 . S
H1639 C1613 0.979 . S
H1640 C1613 0.980 . S
H1641 C1613 0.983 . S
H1642 C1586 0.947 . S
C1643 C1586 1.392 . S
C1643 C1587 1.419 . S
C1643 H1625 0.948 . S
C1644 C1645 1.391 . S
C1644 C1648 1.391 . S
C1644 H1686 0.948 . S
C1645 C1644 1.391 . S
C1645 C1646 1.391 . S
C1646 C1645 1.391 . S
C1646 H1702 0.947 . S
C1646 C1703 1.392 . S
C1647 C1648 1.391 . S
C1647 C1651 1.397 . S
C1647 C1703 1.419 . S
C1648 C1644 1.391 . S
C1648 C1647 1.391 . S
C1648 C1649 1.399 . S
C1649 C1648 1.399 . S
C1649 C1652 1.396 . S
C1649 C1661 1.453 . S
C1649 C1662 1.684 . S
H1650 C1674 0.948 . S
C1651 C1647 1.397 . S
C1651 C1652 1.394 . S
C1651 C1670 1.723 . S
C1652 C1649 1.396 . S
C1652 C1651 1.394 . S
C1652 C1682 1.723 1_455 S
H1653 C1676 0.947 . S
H1654 C1677 0.948 . S
H1655 C1683 0.982 . S
H1656 C1684 0.979 . S
H1657 C1684 0.980 . S
H1658 C1684 0.983 . S
H1659 C1683 0.979 . S
H1660 C1683 0.977 . S
C1661 C1649 1.453 . S
C1661 H1690 0.982 . S
C1661 H1691 0.979 . S
C1661 H1692 0.977 . S
C1662 C1649 1.684 . S
C1662 H1687 0.979 . S
C1662 H1688 0.980 . S
C1662 H1689 0.983 . S
C1663 C1664 1.391 1_455 S
C1663 C1668 1.391 . S
C1663 H1693 0.948 . S
C1664 C1663 1.391 1_655 S
C1664 C1665 1.391 . S
C1665 C1664 1.391 . S
C1665 C1666 1.392 . S
C1665 H1694 0.947 . S
C1666 C1665 1.392 . S
C1666 C1667 1.419 . S
C1666 H1695 0.948 . S
C1667 C1666 1.419 . S
C1667 C1668 1.391 1_655 S
C1667 C1671 1.397 . S
C1668 C1663 1.391 . S
C1668 C1667 1.391 1_455 S
C1668 C1669 1.399 . S
C1669 C1668 1.399 . S
C1669 C1670 1.396 . S
C1669 C1672 1.453 . S
C1669 C1673 1.684 . S
C1670 C1651 1.723 . S
C1670 C1669 1.396 . S
C1670 C1671 1.394 1_455 S
C1671 C1667 1.397 . S
C1671 C1670 1.394 1_655 S
C1671 C1681 1.723 . S
C1672 C1669 1.453 . S
C1672 H1696 0.982 . S
C1672 H1697 0.979 . S
C1672 H1698 0.977 . S
C1673 C1669 1.684 . S
C1673 H1699 0.979 . S
C1673 H1700 0.980 . S
C1673 H1701 0.983 . S
C1674 H1650 0.948 . S
C1674 C1675 1.391 . S
C1674 C1679 1.391 . S
C1675 C1674 1.391 . S
C1675 C1676 1.391 . S
C1676 H1653 0.947 . S
C1676 C1675 1.391 . S
C1676 C1677 1.392 . S
C1677 H1654 0.948 . S
C1677 C1676 1.392 . S
C1677 C1678 1.419 . S
C1678 C1677 1.419 . S
C1678 C1679 1.391 . S
C1678 C1682 1.397 . S
C1679 C1674 1.391 . S
C1679 C1678 1.391 . S
C1679 C1680 1.399 . S
C1680 C1679 1.399 . S
C1680 C1681 1.396 . S
C1680 C1683 1.453 . S
C1680 C1684 1.684 . S
C1681 C1671 1.723 . S
C1681 C1680 1.396 . S
C1681 C1682 1.394 . S
C1682 C1652 1.723 1_655 S
C1682 C1678 1.397 . S
C1682 C1681 1.394 . S
C1683 H1655 0.982 . S
C1683 H1659 0.979 . S
C1683 H1660 0.977 . S
C1683 C1680 1.453 . S
C1684 H1656 0.979 . S
C1684 H1657 0.980 . S
C1684 H1658 0.983 . S
C1684 C1680 1.684 . S
H1685 C1703 0.948 . S
H1686 C1644 0.948 . S
H1687 C1662 0.979 . S
H1688 C1662 0.980 . S
H1689 C1662 0.983 . S
H1690 C1661 0.982 . S
H1691 C1661 0.979 . S
H1692 C1661 0.977 . S
H1693 C1663 0.948 . S
H1694 C1665 0.947 . S
H1695 C1666 0.948 . S
H1696 C1672 0.982 . S
H1697 C1672 0.979 . S
H1698 C1672 0.977 . S
H1699 C1673 0.979 . S
H1700 C1673 0.980 . S
H1701 C1673 0.983 . S
H1702 C1646 0.947 . S
C1703 C1646 1.392 . S
C1703 C1647 1.419 . S
C1703 H1685 0.948 . S
C1645 C8 2.090 . S
C1495 C19 1.868 . S
C1585 C30 1.626 . S
C1555 C41 2.269 . S
C1135 C52 2.298 . S
C63 C1165 2.269 . S
C1015 C74 2.027 . S
C85 C1045 1.626 . S
C1424 C96 2.090 . S
C107 C1304 2.269 . S
C118 C1244 2.027 . S
C1364 C129 1.896 1_655 S
C955 C140 2.340 . S
C151 C745 1.749 . S
C895 C162 1.936 1_545 S
C173 C805 2.132 . S
C415 C184 2.340 . S
C445 C195 2.132 . S
C206 C295 2.084 . S
C217 C325 1.632 . S
C228 C704 2.340 . S
C239 C584 2.354 . S
C524 C250 1.749 . S
C261 C644 1.632 . S
C284 C7 2.027 . S
C344 C18 2.944 . S
C29 C404 2.026 1_565 S
C40 C464 1.923 1_545 S
C535 C51 2.532 . S
C62 C565 1.485 . S
C655 C73 2.944 . S
C685 C84 2.026 1_554 S
C764 C95 2.533 . S
C106 C824 1.923 1_455 S
C117 C884 2.425 . S
C128 C944 2.026 1_655 S
C139 C1004 1.842 . S
C150 C1064 2.401 . S
C161 C1124 1.880 1_545 S
C172 C1184 1.401 1_565 S
C183 C1225 1.842 . S
C1315 C194 1.401 1_554 S
C1345 C205 2.218 . S
C1435 C216 1.966 1_556 S
C1465 C227 2.001 . S
C238 C1525 1.401 1_655 S
C249 C1604 2.401 . S
C260 C1664 1.966 1_455 S
C5 C775 2.460 . S
C925 C16 2.474 . S
C27 C835 2.257 . S
C865 C38 2.954 1_565 S
C49 C265 2.290 . S
C60 C355 3.081 1_554 S
C71 C385 2.474 . S
C82 C475 2.257 . S
C505 C93 2.460 . S
C625 C104 3.081 1_655 S
C115 C715 2.474 . S
C126 C595 1.964 1_655 S
C1484 C137 2.184 . S
C1675 C148 2.063 . S
C159 C1544 2.008 1_565 S
C1615 C170 2.420 . S
C181 C985 2.228 . S
C192 C1075 2.420 . S
C203 C1105 2.245 . S
C1195 C214 2.008 1_554 S
C1255 C225 2.228 . S
C1375 C236 2.575 . S
C247 C1405 2.063 . S
C1285 C258 2.008 1_455 S
