# Generated by pormake.
# Topology pts, (4,4)-cn, num edge types: 1
# Building blocks:
#     Node 0, Type 0, BuildingBlock: NAWXER_clean_linker_0, # of connection points: 4
#     Node 1, Type 0, BuildingBlock: NAWXER_clean_linker_0, # of connection points: 4
#     Node 2, Type 1, BuildingBlock: QUQFOY_clean_sbu_1, # of connection points: 4
#     Node 3, Type 1, BuildingBlock: QUQFOY_clean_sbu_1, # of connection points: 4
#     Edge 4, Type (0, 1), BuildingBlock: FUNLAD_clean_linker_1, # of connection points: 2
#     Edge 5, Type (0, 1), BuildingBlock: FUNLAD_clean_linker_1, # of connection points: 2
#     Edge 6, Type (0, 1), BuildingBlock: FUNLAD_clean_linker_1, # of connection points: 2
#     Edge 7, Type (0, 1), BuildingBlock: FUNLAD_clean_linker_1, # of connection points: 2
#     Edge 8, Type (0, 1), BuildingBlock: FUNLAD_clean_linker_1, # of connection points: 2
#     Edge 9, Type (0, 1), BuildingBlock: FUNLAD_clean_linker_1, # of connection points: 2
#     Edge 10, Type (0, 1), BuildingBlock: FUNLAD_clean_linker_1, # of connection points: 2
#     Edge 11, Type (0, 1), BuildingBlock: FUNLAD_clean_linker_1, # of connection points: 2
# Relax obj value: 0.095
# Max RMSD: 0.252
# Mean RMSD: 0.145
data_MOF--net-pts--node1-QUQFOY_clean_sbu_1--node2-NAWXER_clean_linker_0--edge1-FUNLAD_clean_linker_1
_symmetry_space_group_name_H-M    P1
_symmetry_Int_Tables_number       1
_symmetry_cell_setting            triclinic
loop_
_symmetry_equiv_pos_as_xyz
'x, y, z'
_cell_length_a     28.685479
_cell_length_b     31.500589
_cell_length_c     46.339911
_cell_angle_alpha  89.944708
_cell_angle_beta   90.070786
_cell_angle_gamma 90.050713
loop_
_atom_site_label
_atom_site_type_symbol
_atom_site_fract_x
_atom_site_fract_y
_atom_site_fract_z
_atom_type_partial_charge
C0 C 0.65952 0.04648 0.96292 0.0
C1 C 0.66581 0.02074 0.93851 0.0
C2 C 0.62058 0.04106 0.98069 0.0
C3 C 0.58779 0.00909 0.97468 0.0
C4 C 0.63349 0.98813 0.93295 0.0
C5 C 0.59476 0.98262 0.95074 0.0
C6 C 0.54396 1.00537 0.99132 0.0
C7 C 0.65635 0.97453 0.05566 0.0
C8 C 0.65822 1.00118 0.07991 0.0
C9 C 0.61887 0.97669 0.03643 0.0
C10 C 0.5829 0.00622 0.04076 0.0
C11 C 0.62232 0.03102 0.08408 0.0
C12 C 0.58489 0.0332 0.06481 0.0
C13 C 0.54146 0.00696 0.0217 0.0
C14 C 0.34295 0.96522 0.04953 0.0
C15 C 0.3356 0.9947 0.07181 0.0
C16 C 0.38222 0.96829 0.03175 0.0
C17 C 0.4144 1.00141 0.03568 0.0
C18 C 0.36739 0.02841 0.07518 0.0
C19 C 0.40655 0.03141 0.05747 0.0
C20 C 0.45826 1.00338 0.01905 0.0
C21 C 0.34456 0.02265 0.95182 0.0
C22 C 0.34924 0.99812 0.92666 0.0
C23 C 0.38005 0.02296 0.97261 0.0
C24 C 0.42007 0.99771 0.96896 0.0
C25 C 0.38911 0.97314 0.92299 0.0
C26 C 0.42388 0.97258 0.94402 0.0
C27 C 0.46083 1.00063 0.98863 0.0
H28 H 0.68407 0.07165 0.96778 0.0
H29 H 0.61547 0.06264 0.99858 0.0
H30 H 0.63795 0.96667 0.91495 0.0
H31 H 0.56996 0.95774 0.94567 0.0
H32 H 0.68352 0.95133 0.05188 0.0
H33 H 0.61758 0.95462 0.01855 0.0
H34 H 0.62301 0.053 0.10198 0.0
H35 H 0.55745 0.05612 0.06865 0.0
H36 H 0.31887 0.93912 0.04633 0.0
H37 H 0.388 0.94427 0.01545 0.0
H38 H 0.36226 0.05267 0.09136 0.0
H39 H 0.43093 0.05724 0.06086 0.0
H40 H 0.31462 0.04311 0.95476 0.0
H41 H 0.37689 0.04424 0.99081 0.0
H42 H 0.39354 0.95424 0.90365 0.0
H43 H 0.45449 0.95316 0.9404 0.0
N44 N 0.50365 1.00191 0.97616 0.0
N45 N 0.49869 0.0064 0.03429 0.0
C46 C 0.01741 0.64937 0.55518 0.0
C47 C 0.98459 0.65348 0.57756 0.0
C48 C 0.0172 0.61348 0.53743 0.0
C49 C 0.98379 0.5813 0.54137 0.0
C50 C 0.95211 0.62074 0.58194 0.0
C51 C 0.95165 0.58507 0.56403 0.0
C52 C 0.98351 0.54269 0.52303 0.0
C53 C 0.95235 0.65205 0.46426 0.0
C54 C 0.98569 0.65942 0.44263 0.0
C55 C 0.95297 0.6146 0.48043 0.0
C56 C 0.98744 0.58377 0.47565 0.0
C57 C 0.01955 0.62789 0.43736 0.0
C58 C 0.02024 0.59049 0.45369 0.0
C59 C 0.98823 0.5438 0.49261 0.0
C60 C 0.94855 0.36545 0.45672 0.0
C61 C 0.9875 0.35472 0.43996 0.0
C62 C 0.94881 0.40212 0.47366 0.0
C63 C 0.98777 0.42912 0.47372 0.0
C64 C 0.02645 0.38195 0.43991 0.0
C65 C 0.02635 0.41907 0.45649 0.0
C66 C 0.98788 0.46807 0.49146 0.0
C67 C 0.01143 0.35859 0.55216 0.0
C68 C 0.97264 0.35067 0.56993 0.0
C69 C 0.01443 0.39634 0.53636 0.0
C70 C 0.97881 0.4268 0.53807 0.0
C71 C 0.93687 0.38099 0.57133 0.0
C72 C 0.94023 0.419 0.55586 0.0
C73 C 0.98189 0.46699 0.52164 0.0
H74 H 0.04411 0.67313 0.55179 0.0
H75 H 0.04366 0.61062 0.5209 0.0
H76 H 0.92687 0.6228 0.59926 0.0
H77 H 0.92597 0.56045 0.56782 0.0
H78 H 0.92543 0.67528 0.4686 0.0
H79 H 0.92621 0.60964 0.49656 0.0
H80 H 0.04539 0.63137 0.4206 0.0
H81 H 0.04669 0.56684 0.44926 0.0
H82 H 0.91794 0.34527 0.45682 0.0
H83 H 0.91841 0.40966 0.48652 0.0
H84 H 0.0565 0.37519 0.42658 0.0
H85 H 0.05653 0.43976 0.45606 0.0
H86 H 0.03914 0.33549 0.55012 0.0
H87 H 0.04472 0.40189 0.52293 0.0
H88 H 0.90658 0.37554 0.58479 0.0
H89 H 0.91241 0.44212 0.55749 0.0
N90 N 0.97994 0.50428 0.5363 0.0
N91 N 0.9908 0.50637 0.47803 0.0
O92 O 0.93823 0.97087 0.23728 0.0
Cd93 Cd 0.00068 0.95732 0.2573 0.0
Cd94 Cd 0.00173 0.04455 0.26671 0.0
O95 O 0.93753 0.03962 0.24672 0.0
O96 O 0.00154 0.8946 0.26272 0.0
O97 O 0.00243 0.94 0.2992 0.0
C98 C 0.00241 0.9012 0.29013 0.0
C99 C 0.00667 0.08921 0.30687 0.0
C100 C 0.91867 0.00698 0.23564 0.0
C101 C 0.07839 0.00726 0.23011 0.0
O102 O 0.06047 0.04038 0.24106 0.0
O103 O 0.06046 0.97091 0.23447 0.0
O104 O 0.00229 0.10412 0.28112 0.0
O105 O 0.00829 0.04852 0.31005 0.0
O106 O 0.94121 0.04653 0.77617 0.0
Cd107 Cd 0.00262 0.05291 0.75326 0.0
Cd108 Cd 0.99182 0.96767 0.7465 0.0
O109 O 0.92816 0.97929 0.76532 0.0
O110 O 0.01055 0.11491 0.74641 0.0
O111 O 0.00039 0.06852 0.71105 0.0
C112 C 0.00629 0.10737 0.71923 0.0
C113 C 0.99439 0.92492 0.70543 0.0
C114 C 0.91574 0.01353 0.7775 0.0
C115 C 0.0733 0.99715 0.78187 0.0
O116 O 0.04847 0.96586 0.77399 0.0
O117 O 0.06288 0.03471 0.77421 0.0
O118 O 0.9867 0.90912 0.73065 0.0
O119 O 0.00047 0.96542 0.70334 0.0
H120 H 0.26557 0.97025 0.08343 0.0
C121 C 0.29458 0.98947 0.09107 0.0
H122 H 0.32239 0.02205 0.12717 0.0
H123 H 0.09488 0.02158 0.155 0.0
H124 H 0.08681 0.06614 0.11263 0.0
H125 H 0.15452 0.08157 0.08157 0.0
H126 H 0.23043 0.05184 0.09238 0.0
C127 C 0.29263 1.00571 0.11791 0.0
C128 C 0.25194 0.99813 0.13711 0.0
C129 C 0.2082 0.01714 0.13101 0.0
C130 C 0.16967 0.00989 0.14968 0.0
C131 C 0.12579 0.02741 0.14226 0.0
C132 C 0.12057 0.05285 0.11787 0.0
C133 C 0.15864 0.06141 0.10033 0.0
C134 C 0.20202 0.0439 0.10671 0.0
H135 H 0.13446 0.04322 0.20852 0.0
C136 C 0.11918 0.01183 0.21102 0.0
H137 H 0.12178 0.94752 0.19802 0.0
H138 H 0.33063 0.95614 0.15462 0.0
H139 H 0.33918 0.91317 0.19776 0.0
H140 H 0.27315 0.90291 0.23112 0.0
H141 H 0.19808 0.93539 0.22145 0.0
C142 C 0.13607 0.97927 0.1955 0.0
C143 C 0.17554 0.98526 0.17509 0.0
C144 C 0.2192 0.96619 0.18112 0.0
C145 C 0.25742 0.97258 0.16209 0.0
C146 C 0.30056 0.95282 0.16852 0.0
C147 C 0.30594 0.92798 0.19318 0.0
C148 C 0.26875 0.92216 0.21194 0.0
C149 C 0.22582 0.94096 0.20611 0.0
H150 H 0.93335 0.29904 0.59137 0.0
C151 C 0.96822 0.31101 0.58702 0.0
H152 H 0.04009 0.3033 0.5956 0.0
H153 H 0.92934 0.18789 0.69603 0.0
H154 H 0.8932 0.25368 0.7112 0.0
H155 H 0.90819 0.32044 0.68491 0.0
H156 H 0.95789 0.32142 0.64277 0.0
C157 C 0.00502 0.29143 0.59919 0.0
C158 C -0.00035 0.25243 0.61722 0.0
C159 C 0.97314 0.25322 0.64309 0.0
C160 C 0.96761 0.21549 0.65966 0.0
C161 C 0.93728 0.21621 0.68377 0.0
C162 C 0.91591 0.25369 0.69256 0.0
C163 C 0.92412 0.2912 0.67766 0.0
C164 C 0.95241 0.29118 0.65326 0.0
H165 H 0.0201 0.17344 0.70667 0.0
C166 C 0.00777 0.14301 0.69865 0.0
H167 H 0.97971 0.10996 0.66302 0.0
H168 H 0.05112 0.23923 0.5683 0.0
H169 H 0.0905 0.17424 0.55466 0.0
H170 H 0.08609 0.11052 0.58551 0.0
H171 H 0.0418 0.11121 0.63001 0.0
C172 C 0.99193 0.14019 0.67141 0.0
C173 C 0.99214 0.17803 0.65192 0.0
C174 C 0.01863 0.17724 0.62611 0.0
C175 C 0.02202 0.21432 0.60863 0.0
C176 C 0.04802 0.21231 0.58269 0.0
C177 C 0.07072 0.17515 0.57454 0.0
C178 C 0.06819 0.13925 0.59189 0.0
C179 C 0.04257 0.1401 0.61739 0.0
H180 H 0.72941 0.98105 0.09224 0.0
C181 C 0.69835 0.99716 0.10004 0.0
H182 H 0.6664 0.02407 0.13695 0.0
H183 H 0.79788 0.93363 0.22697 0.0
H184 H 0.72433 0.89782 0.23579 0.0
H185 H 0.65665 0.90985 0.20393 0.0
H186 H 0.66197 0.95795 0.16316 0.0
C187 C 0.69776 0.01076 0.12756 0.0
C188 C 0.73857 1.00411 0.1469 0.0
C189 C 0.73488 0.97573 0.17057 0.0
C190 C 0.77407 0.96834 0.18872 0.0
C191 C 0.76933 0.9401 0.21234 0.0
C192 C 0.7273 0.91936 0.21767 0.0
C193 C 0.68918 0.92617 0.19974 0.0
C194 C 0.69271 0.95394 0.17643 0.0
H195 H 0.85881 0.04343 0.21896 0.0
C196 C 0.87517 0.0123 0.21906 0.0
H197 H 0.8732 0.94994 0.20222 0.0
H198 H 0.75597 0.06449 0.10559 0.0
H199 H 0.83033 0.09786 0.09547 0.0
H200 H 0.90001 0.08046 0.12439 0.0
H201 H 0.89546 0.03034 0.16395 0.0
C202 C 0.85771 0.98141 0.20224 0.0
C203 C 0.81689 0.98921 0.18312 0.0
C204 C 0.82079 0.01718 0.15919 0.0
C205 C 0.78124 0.02551 0.14155 0.0
C206 C 0.78535 0.05555 0.11891 0.0
C207 C 0.82779 0.07519 0.11297 0.0
C208 C 0.86696 0.06552 0.12932 0.0
C209 C 0.86374 0.03688 0.15215 0.0
H210 H 0.96896 0.68564 0.61883 0.0
C211 C 0.98474 0.69014 0.5977 0.0
H212 H 0.01535 0.73557 0.56968 0.0
H213 H 0.92213 0.88148 0.6472 0.0
H214 H 0.87078 0.88284 0.60567 0.0
H215 H 0.8789 0.83011 0.56668 0.0
H216 H 0.9383 0.77535 0.56918 0.0
C217 C 0.00214 0.72861 0.5911 0.0
C218 C 0.00125 0.76349 0.61273 0.0
C219 C 0.96756 0.79619 0.61047 0.0
C220 C 0.96357 0.82717 0.63269 0.0
C221 C 0.92777 0.85795 0.63062 0.0
C222 C 0.89779 0.85893 0.60695 0.0
C223 C 0.90231 0.8292 0.58501 0.0
C224 C 0.93657 0.79799 0.5867 0.0
H225 H 0.00681 0.91123 0.65918 0.0
C226 C 0.99697 0.89728 0.67975 0.0
H227 H 0.97949 0.84127 0.70228 0.0
H228 H 0.0731 0.70798 0.62184 0.0
H229 H 0.12623 0.70755 0.66262 0.0
H230 H 0.11994 0.76146 0.701 0.0
H231 H 0.06057 0.81612 0.69883 0.0
C232 C 0.98808 0.85543 0.68156 0.0
C233 C 0.99424 0.82593 0.65676 0.0
C234 C 0.02924 0.7942 0.65833 0.0
C235 C 0.03281 0.76304 0.63627 0.0
C236 C 0.06837 0.732 0.63825 0.0
C237 C 0.09926 0.73151 0.66146 0.0
C238 C 0.09572 0.76186 0.68307 0.0
C239 C 0.06131 0.79297 0.6816 0.0
H240 H 0.32829 0.99994 0.8809 0.0
C241 C 0.31499 1.00043 0.90287 0.0
H242 H 0.25501 1.00072 0.9291 0.0
H243 H 0.11692 0.08324 0.84006 0.0
H244 H 0.11615 0.13363 0.87939 0.0
H245 H 0.17069 0.12647 0.92027 0.0
H246 H 0.22575 0.06838 0.92228 0.0
C247 C 0.26873 1.00089 0.90725 0.0
C248 C 0.23543 1.00442 0.8826 0.0
C249 C 0.20424 0.03928 0.88137 0.0
C250 C 0.17384 0.04419 0.85731 0.0
C251 C 0.14176 0.07842 0.85731 0.0
C252 C 0.14077 0.10761 0.87985 0.0
C253 C 0.1714 0.10353 0.90289 0.0
C254 C 0.20282 0.06989 0.90377 0.0
H255 H 0.11301 0.9593 0.81337 0.0
C256 C 0.11173 0.9898 0.80241 0.0
H257 H 0.14108 0.05086 0.79862 0.0
H258 H 0.28292 0.92878 0.88072 0.0
H259 H 0.28812 0.88106 0.83985 0.0
H260 H 0.24502 0.89597 0.79487 0.0
H261 H 0.19502 0.9577 0.791 0.0
C262 C 0.14279 0.02015 0.80927 0.0
C263 C 0.17572 0.015 0.83399 0.0
C264 C 0.20777 0.98069 0.83492 0.0
C265 C 0.2358 0.97416 0.85987 0.0
C266 C 0.26347 0.93699 0.86151 0.0
C267 C 0.26639 0.90905 0.83831 0.0
C268 C 0.24191 0.9173 0.81306 0.0
C269 C 0.21293 0.95265 0.81125 0.0
H270 H 0.95176 0.30714 0.41275 0.0
C271 C 0.98547 0.31629 0.42154 0.0
H272 H 0.0567 0.30017 0.42495 0.0
H273 H 0.94126 0.13348 0.36772 0.0
H274 H 0.89997 0.12972 0.41319 0.0
H275 H 0.91524 0.18188 0.45174 0.0
H276 H 0.97098 0.23887 0.44463 0.0
C277 C 0.02292 0.292 0.41591 0.0
C278 C 0.02018 0.2557 0.3953 0.0
C279 C 0.98978 0.22092 0.40052 0.0
C280 C 0.98322 0.18924 0.37898 0.0
C281 C 0.94955 0.1571 0.38381 0.0
C282 C 0.92528 0.15474 0.40979 0.0
C283 C 0.9337 0.18422 0.43144 0.0
C284 C 0.96552 0.21698 0.42698 0.0
H285 H 0.02163 0.10504 0.35253 0.0
C286 C 0.01062 0.11801 0.33188 0.0
H287 H 0.99111 0.17258 0.30848 0.0
H288 H 0.0834 0.31656 0.37901 0.0
H289 H 0.12946 0.3172 0.33528 0.0
H290 H 0.12234 0.2596 0.29953 0.0
H291 H 0.06867 0.20126 0.30718 0.0
C292 C 0.00139 0.15973 0.32932 0.0
C293 C 0.00952 0.19082 0.35305 0.0
C294 C 0.04215 0.22412 0.34871 0.0
C295 C 0.04714 0.25678 0.36968 0.0
C296 C 0.07872 0.29045 0.36414 0.0
C297 C 0.10539 0.2913 0.33906 0.0
C298 C 0.10132 0.25892 0.31892 0.0
C299 C 0.07017 0.22569 0.32355 0.0
H300 H 0.73697 0.04393 0.92849 0.0
C301 C 0.70645 0.02836 0.9194 0.0
H302 H 0.6752 1.00588 0.88091 0.0
H303 H 0.80716 0.10117 0.79448 0.0
H304 H 0.73628 0.14265 0.78945 0.0
H305 H 0.67002 0.1317 0.82254 0.0
H306 H 0.67409 0.07911 0.86078 0.0
C307 C 0.70642 0.01815 0.89122 0.0
C308 C 0.74752 0.02635 0.87252 0.0
C309 C 0.74468 0.05747 0.85046 0.0
C310 C 0.78302 0.06411 0.83157 0.0
C311 C 0.7791 0.09504 0.80951 0.0
C312 C 0.73865 0.11905 0.80639 0.0
C313 C 0.70132 0.11286 0.82501 0.0
C314 C 0.70409 0.0825 0.84683 0.0
H315 H 0.85214 0.98444 0.79526 0.0
C316 C 0.87331 0.0131 0.79534 0.0
H317 H 0.88335 0.07354 0.81434 0.0
H318 H 0.76357 0.96204 0.91134 0.0
H319 H 0.83574 0.92335 0.91786 0.0
H320 H 0.90418 0.93863 0.88738 0.0
H321 H 0.90046 0.99215 0.84983 0.0
C322 C 0.8629 0.0445 0.81383 0.0
C323 C 0.82405 0.03961 0.83479 0.0
C324 C 0.82761 0.00964 0.85758 0.0
C325 C 0.7889 1.00226 0.87604 0.0
C326 C 0.79243 0.97022 0.89742 0.0
C327 C 0.83361 0.94753 0.9013 0.0
C328 C 0.87208 0.95602 0.88407 0.0
C329 C 0.86934 0.98666 0.86245 0.0
H330 H 0.95275 0.72012 0.42971 0.0
C331 C 0.98263 0.6997 0.42575 0.0
H332 H 0.04564 0.6947 0.40203 0.0
H333 H 0.91994 0.83253 0.32536 0.0
H334 H 0.86513 0.77491 0.31802 0.0
H335 H 0.87639 0.70587 0.34219 0.0
H336 H 0.94172 0.69445 0.37439 0.0
C337 C 0.01394 0.71242 0.40589 0.0
C338 C 0.00813 0.75313 0.3898 0.0
C339 C 0.9709 0.75846 0.3699 0.0
C340 C 0.966 0.79736 0.35456 0.0
C341 C 0.92673 0.80289 0.33637 0.0
C342 C 0.89475 0.77019 0.33216 0.0
C343 C 0.90097 0.7314 0.34587 0.0
C344 C 0.93853 0.7254 0.3645 0.0
H345 H 0.0069 0.83325 0.30052 0.0
C346 C 0.0033 0.86464 0.31 0.0
H347 H 0.99598 0.89938 0.34868 0.0
H348 H 0.08182 0.75434 0.42737 0.0
H349 H 0.13789 0.81129 0.43354 0.0
H350 H 0.13192 0.87709 0.40488 0.0
H351 H 0.06963 0.88654 0.37006 0.0
C352 C -0.00129 0.86826 0.33874 0.0
C353 C 3e-05 0.82983 0.35763 0.0
C354 C 0.03681 0.82474 0.37781 0.0
C355 C 0.04072 0.78646 0.39399 0.0
C356 C 0.07756 0.78245 0.4142 0.0
C357 C 0.10995 0.81494 0.41801 0.0
C358 C 0.10656 0.85201 0.4019 0.0
C359 C 0.07056 0.85701 0.38198 0.0
loop_
_geom_bond_atom_site_label_1
_geom_bond_atom_site_label_2
_geom_bond_distance
_geom_bond_site_symmetry_2
_ccdc_geom_bond_type
C0 C1 1.384 1_545 S
C0 C2 1.384 . S
C0 H28 0.931 . S
C1 C0 1.384 1_565 S
C1 C4 1.382 . S
C2 C0 1.384 . S
C2 C3 1.381 1_545 S
C2 H29 0.930 . S
C3 C2 1.381 1_565 S
C3 C5 1.381 . S
C3 C6 1.487 . S
C4 C1 1.382 . S
C4 C5 1.387 . S
C4 H30 0.930 . S
C5 C3 1.381 . S
C5 C4 1.387 . S
C5 H31 0.931 . S
C6 C3 1.487 . S
C6 C13 1.399 1_566 S
C6 N44 1.343 . S
C7 C8 1.384 1_565 S
C7 C9 1.384 . S
C7 H32 0.931 . S
C8 C7 1.384 1_545 S
C8 C11 1.382 . S
C9 C7 1.384 . S
C9 C10 1.381 1_565 S
C9 H33 0.930 . S
C10 C9 1.381 1_545 S
C10 C12 1.381 . S
C10 C13 1.487 . S
C11 C8 1.382 . S
C11 C12 1.387 . S
C11 H34 0.930 . S
C12 C10 1.381 . S
C12 C11 1.387 . S
C12 H35 0.931 . S
C13 C6 1.399 1_544 S
C13 C10 1.487 . S
C13 N45 1.343 . S
C14 C15 1.384 1_565 S
C14 C16 1.384 . S
C14 H36 0.931 . S
C15 C14 1.384 1_545 S
C15 C18 1.382 . S
C16 C14 1.384 . S
C16 C17 1.381 1_565 S
C16 H37 0.930 . S
C17 C16 1.381 1_545 S
C17 C19 1.381 . S
C17 C20 1.487 . S
C18 C15 1.382 . S
C18 C19 1.387 . S
C18 H38 0.930 . S
C19 C17 1.381 . S
C19 C18 1.387 . S
C19 H39 0.931 . S
C20 C17 1.487 . S
C20 C27 1.399 1_544 S
C20 N45 1.343 . S
C21 C22 1.384 1_545 S
C21 C23 1.384 . S
C21 H40 0.931 . S
C22 C21 1.384 1_565 S
C22 C25 1.382 . S
C23 C21 1.384 . S
C23 C24 1.381 1_545 S
C23 H41 0.930 . S
C24 C23 1.381 1_565 S
C24 C26 1.381 . S
C24 C27 1.487 . S
C25 C22 1.382 . S
C25 C26 1.387 . S
C25 H42 0.930 . S
C26 C24 1.381 . S
C26 C25 1.387 . S
C26 H43 0.931 . S
C27 C20 1.399 1_566 S
C27 C24 1.487 . S
C27 N44 1.343 . S
H28 C0 0.931 . S
H29 C2 0.930 . S
H30 C4 0.930 . S
H31 C5 0.931 . S
H32 C7 0.931 . S
H33 C9 0.930 . S
H34 C11 0.930 . S
H35 C12 0.931 . S
H36 C14 0.931 . S
H37 C16 0.930 . S
H38 C18 0.930 . S
H39 C19 0.931 . S
H40 C21 0.931 . S
H41 C23 0.930 . S
H42 C25 0.930 . S
H43 C26 0.931 . S
N44 C6 1.343 . S
N44 C27 1.343 . S
N45 C13 1.343 . S
N45 C20 1.343 . S
C46 C47 1.384 1_455 S
C46 C48 1.384 . S
C46 H74 0.931 . S
C47 C46 1.384 1_655 S
C47 C50 1.382 . S
C48 C46 1.384 . S
C48 C49 1.381 1_455 S
C48 H75 0.930 . S
C49 C48 1.381 1_655 S
C49 C51 1.381 . S
C49 C52 1.487 . S
C50 C47 1.382 . S
C50 C51 1.387 . S
C50 H76 0.930 . S
C51 C49 1.381 . S
C51 C50 1.387 . S
C51 H77 0.931 . S
C52 C49 1.487 . S
C52 C59 1.399 1_655 S
C52 N90 1.343 . S
C53 C54 1.384 1_655 S
C53 C55 1.384 . S
C53 H78 0.931 . S
C54 C53 1.384 1_455 S
C54 C57 1.382 . S
C55 C53 1.384 . S
C55 C56 1.381 1_655 S
C55 H79 0.930 . S
C56 C55 1.381 1_455 S
C56 C58 1.381 . S
C56 C59 1.487 . S
C57 C54 1.382 . S
C57 C58 1.387 . S
C57 H80 0.930 . S
C58 C56 1.381 . S
C58 C57 1.387 . S
C58 H81 0.931 . S
C59 C52 1.399 1_455 S
C59 C56 1.487 . S
C59 N91 1.343 . S
C60 C61 1.384 1_655 S
C60 C62 1.384 . S
C60 H82 0.931 . S
C61 C60 1.384 1_455 S
C61 C64 1.382 . S
C62 C60 1.384 . S
C62 C63 1.381 1_655 S
C62 H83 0.930 . S
C63 C62 1.381 1_455 S
C63 C65 1.381 . S
C63 C66 1.487 . S
C64 C61 1.382 . S
C64 C65 1.387 . S
C64 H84 0.930 . S
C65 C63 1.381 . S
C65 C64 1.387 . S
C65 H85 0.931 . S
C66 C63 1.487 . S
C66 C73 1.399 1_455 S
C66 N91 1.343 . S
C67 C68 1.384 1_455 S
C67 C69 1.384 . S
C67 H86 0.931 . S
C68 C67 1.384 1_655 S
C68 C71 1.382 . S
C69 C67 1.384 . S
C69 C70 1.381 1_455 S
C69 H87 0.930 . S
C70 C69 1.381 1_655 S
C70 C72 1.381 . S
C70 C73 1.487 . S
C71 C68 1.382 . S
C71 C72 1.387 . S
C71 H88 0.930 . S
C72 C70 1.381 . S
C72 C71 1.387 . S
C72 H89 0.931 . S
C73 C66 1.399 1_655 S
C73 C70 1.487 . S
C73 N90 1.343 . S
H74 C46 0.931 . S
H75 C48 0.930 . S
H76 C50 0.930 . S
H77 C51 0.931 . S
H78 C53 0.931 . S
H79 C55 0.930 . S
H80 C57 0.930 . S
H81 C58 0.931 . S
H82 C60 0.931 . S
H83 C62 0.930 . S
H84 C64 0.930 . S
H85 C65 0.931 . S
H86 C67 0.931 . S
H87 C69 0.930 . S
H88 C71 0.930 . S
H89 C72 0.931 . S
N90 C52 1.343 . S
N90 C73 1.343 . S
N91 C59 1.343 . S
N91 C66 1.343 . S
O92 Cd93 2.223 1_655 S
O92 C100 1.315 . S
Cd93 O92 2.223 1_455 S
Cd93 O96 2.297 1_455 S
Cd93 O97 2.439 1_455 S
Cd93 O103 2.240 1_565 S
Cd94 O95 2.240 1_545 S
Cd94 O102 2.223 1_655 S
Cd94 O104 2.297 1_655 S
Cd94 O105 2.439 1_655 S
O95 Cd94 2.240 1_565 S
O95 C100 1.279 . S
O96 Cd93 2.297 1_655 S
O96 C98 1.247 . S
O97 Cd93 2.439 1_655 S
O97 C98 1.208 . S
C98 O96 1.247 . S
C98 O97 1.208 . S
C99 O104 1.247 . S
C99 O105 1.208 . S
C100 O92 1.315 . S
C100 O95 1.279 . S
C101 O102 1.315 . S
C101 O103 1.279 . S
O102 Cd94 2.223 1_455 S
O102 C101 1.315 . S
O103 Cd93 2.240 1_545 S
O103 C101 1.279 . S
O104 Cd94 2.297 1_455 S
O104 C99 1.247 . S
O105 Cd94 2.439 1_455 S
O105 C99 1.208 . S
O106 Cd107 2.223 1_655 S
O106 C114 1.315 . S
Cd107 O106 2.223 1_455 S
Cd107 O110 2.297 1_455 S
Cd107 O111 2.439 1_455 S
Cd107 O117 2.240 1_545 S
Cd108 O109 2.240 1_565 S
Cd108 O116 2.223 1_655 S
Cd108 O118 2.297 1_655 S
Cd108 O119 2.439 1_655 S
O109 Cd108 2.240 1_545 S
O109 C114 1.279 . S
O110 Cd107 2.297 1_655 S
O110 C112 1.247 . S
O111 Cd107 2.439 1_655 S
O111 C112 1.208 . S
C112 O110 1.247 . S
C112 O111 1.208 . S
C113 O118 1.247 . S
C113 O119 1.208 . S
C114 O106 1.315 . S
C114 O109 1.279 . S
C115 O116 1.315 . S
C115 O117 1.279 . S
O116 Cd108 2.223 1_455 S
O116 C115 1.315 . S
O117 Cd107 2.240 1_565 S
O117 C115 1.279 . S
O118 Cd108 2.297 1_455 S
O118 C113 1.247 . S
O119 Cd108 2.439 1_455 S
O119 C113 1.208 . S
H120 C121 0.965 . S
C121 H120 0.965 . S
C121 C127 1.254 1_565 S
H122 C127 0.950 . S
H123 C131 0.949 . S
H124 C132 0.950 . S
H125 C133 0.951 . S
H126 C134 0.951 . S
C127 C121 1.254 1_545 S
C127 H122 0.950 . S
C127 C128 1.478 . S
C128 C127 1.478 . S
C128 C129 1.397 . S
C128 C145 1.394 1_545 S
C129 C128 1.397 . S
C129 C130 1.438 . S
C129 C134 1.429 . S
C130 C129 1.438 . S
C130 C131 1.428 . S
C130 C143 1.394 . S
C131 H123 0.949 . S
C131 C130 1.428 . S
C131 C132 1.345 . S
C132 H124 0.950 . S
C132 C131 1.345 . S
C132 C133 1.424 . S
C133 H125 0.951 . S
C133 C132 1.424 . S
C133 C134 1.347 . S
C134 H126 0.951 . S
C134 C129 1.429 . S
C134 C133 1.347 . S
H135 C136 0.951 . S
C136 H135 0.951 . S
C136 C142 1.265 . S
H137 C142 0.950 1_565 S
H138 C146 0.949 . S
H139 C147 0.950 . S
H140 C148 0.951 . S
H141 C149 0.951 . S
C142 C136 1.265 . S
C142 H137 0.950 1_545 S
C142 C143 1.478 . S
C143 C130 1.394 . S
C143 C142 1.478 . S
C143 C144 1.397 1_545 S
C144 C143 1.397 1_565 S
C144 C145 1.438 . S
C144 C149 1.429 . S
C145 C128 1.394 1_565 S
C145 C144 1.438 . S
C145 C146 1.428 . S
C146 H138 0.949 . S
C146 C145 1.428 . S
C146 C147 1.345 . S
C147 H139 0.950 . S
C147 C146 1.345 . S
C147 C148 1.424 . S
C148 H140 0.951 . S
C148 C147 1.424 . S
C148 C149 1.347 . S
C149 H141 0.951 . S
C149 C144 1.429 . S
C149 C148 1.347 . S
H150 C151 0.951 . S
C151 H150 0.951 . S
C151 C157 1.265 1_655 S
H152 C157 0.950 . S
H153 C161 0.949 . S
H154 C162 0.950 . S
H155 C163 0.951 1_455 S
H156 C164 0.951 . S
C157 C151 1.265 1_455 S
C157 H152 0.950 . S
C157 C158 1.478 1_455 S
C158 C157 1.478 1_655 S
C158 C159 1.397 . S
C158 C175 1.394 . S
C159 C158 1.397 . S
C159 C160 1.438 . S
C159 C164 1.429 1_655 S
C160 C159 1.438 . S
C160 C161 1.428 . S
C160 C173 1.394 . S
C161 H153 0.949 . S
C161 C160 1.428 . S
C161 C162 1.345 . S
C162 H154 0.950 . S
C162 C161 1.345 . S
C162 C163 1.424 . S
C163 H155 0.951 1_655 S
C163 C162 1.424 . S
C163 C164 1.347 1_655 S
C164 H156 0.951 . S
C164 C159 1.429 1_455 S
C164 C163 1.347 1_455 S
H165 C166 0.951 1_455 S
C166 H165 0.951 1_655 S
C166 C172 1.265 . S
H167 C172 0.950 . S
H168 C176 0.949 1_455 S
H169 C177 0.950 . S
H170 C178 0.951 . S
H171 C179 0.951 . S
C172 C166 1.265 . S
C172 H167 0.950 . S
C172 C173 1.478 . S
C173 C160 1.394 . S
C173 C172 1.478 . S
C173 C174 1.397 . S
C174 C173 1.397 . S
C174 C175 1.438 . S
C174 C179 1.429 . S
C175 C158 1.394 . S
C175 C174 1.438 . S
C175 C176 1.428 . S
C176 H168 0.949 1_655 S
C176 C175 1.428 . S
C176 C177 1.345 . S
C177 H169 0.950 . S
C177 C176 1.345 . S
C177 C178 1.424 . S
C178 H170 0.951 . S
C178 C177 1.424 . S
C178 C179 1.347 . S
C179 H171 0.951 . S
C179 C174 1.429 . S
C179 C178 1.347 . S
H180 C181 0.951 1_545 S
C181 H180 0.951 1_565 S
C181 C187 1.265 . S
H182 C187 0.950 . S
H183 C191 0.949 . S
H184 C192 0.950 . S
H185 C193 0.951 . S
H186 C194 0.951 . S
C187 C181 1.265 . S
C187 H182 0.950 . S
C187 C188 1.478 . S
C188 C187 1.478 . S
C188 C189 1.397 . S
C188 C205 1.394 1_565 S
C189 C188 1.397 . S
C189 C190 1.438 . S
C189 C194 1.429 . S
C190 C189 1.438 . S
C190 C191 1.428 . S
C190 C203 1.394 . S
C191 H183 0.949 . S
C191 C190 1.428 . S
C191 C192 1.345 . S
C192 H184 0.950 . S
C192 C191 1.345 . S
C192 C193 1.424 . S
C193 H185 0.951 . S
C193 C192 1.424 . S
C193 C194 1.347 . S
C194 H186 0.951 . S
C194 C189 1.429 . S
C194 C193 1.347 . S
H195 C196 0.951 . S
C196 H195 0.951 . S
C196 C202 1.265 . S
H197 C202 0.950 . S
H198 C206 0.949 . S
H199 C207 0.950 . S
H200 C208 0.951 . S
H201 C209 0.951 . S
C202 C196 1.265 . S
C202 H197 0.950 . S
C202 C203 1.478 . S
C203 C190 1.394 . S
C203 C202 1.478 . S
C203 C204 1.397 1_565 S
C204 C203 1.397 1_545 S
C204 C205 1.438 . S
C204 C209 1.429 . S
C205 C188 1.394 1_545 S
C205 C204 1.438 . S
C205 C206 1.428 . S
C206 H198 0.949 . S
C206 C205 1.428 . S
C206 C207 1.345 . S
C207 H199 0.950 . S
C207 C206 1.345 . S
C207 C208 1.424 . S
C208 H200 0.951 . S
C208 C207 1.424 . S
C208 C209 1.347 . S
C209 H201 0.951 . S
C209 C204 1.429 . S
C209 C208 1.347 . S
H210 C211 0.951 . S
C211 H210 0.951 . S
C211 C217 1.265 1_655 S
H212 C217 0.950 . S
H213 C221 0.949 . S
H214 C222 0.950 . S
H215 C223 0.951 . S
H216 C224 0.951 . S
C217 C211 1.265 1_455 S
C217 H212 0.950 . S
C217 C218 1.478 . S
C218 C217 1.478 . S
C218 C219 1.396 . S
C218 C235 1.394 . S
C219 C218 1.396 . S
C219 C220 1.438 1_455 S
C219 C224 1.430 1_455 S
C220 C219 1.438 1_655 S
C220 C221 1.438 . S
C220 C233 1.386 1_655 S
C221 H213 0.949 . S
C221 C220 1.438 . S
C221 C222 1.345 . S
C222 H214 0.950 . S
C222 C221 1.345 . S
C222 C223 1.424 . S
C223 H215 0.951 . S
C223 C222 1.424 . S
C223 C224 1.347 . S
C224 H216 0.951 . S
C224 C219 1.430 1_655 S
C224 C223 1.347 . S
H225 C226 0.951 . S
C226 H225 0.951 . S
C226 C232 1.265 . S
H227 C232 0.950 1_655 S
H228 C236 0.949 . S
H229 C237 0.950 . S
H230 C238 0.951 . S
H231 C239 0.951 . S
C232 C226 1.265 . S
C232 H227 0.950 1_455 S
C232 C233 1.478 . S
C233 C220 1.386 1_455 S
C233 C232 1.478 . S
C233 C234 1.397 . S
C234 C233 1.397 . S
C234 C235 1.438 . S
C234 C239 1.429 . S
C235 C218 1.394 . S
C235 C234 1.438 . S
C235 C236 1.428 . S
C236 H228 0.949 . S
C236 C235 1.428 . S
C236 C237 1.345 . S
C237 H229 0.950 . S
C237 C236 1.345 . S
C237 C238 1.424 . S
C238 H230 0.951 . S
C238 C237 1.424 . S
C238 C239 1.347 . S
C239 H231 0.951 . S
C239 C234 1.429 . S
C239 C238 1.347 . S
H240 C241 0.951 . S
C241 H240 0.951 . S
C241 C247 1.265 . S
H242 C247 0.950 . S
H243 C251 0.949 . S
H244 C252 0.950 . S
H245 C253 0.951 . S
H246 C254 0.951 . S
C247 C241 1.265 . S
C247 H242 0.950 . S
C247 C248 1.478 . S
C248 C247 1.478 . S
C248 C249 1.397 1_565 S
C248 C265 1.394 . S
C249 C248 1.397 1_545 S
C249 C250 1.438 . S
C249 C254 1.429 . S
C250 C249 1.438 . S
C250 C251 1.428 . S
C250 C263 1.394 1_545 S
C251 H243 0.949 . S
C251 C250 1.428 . S
C251 C252 1.345 . S
C252 H244 0.950 . S
C252 C251 1.345 . S
C252 C253 1.424 . S
C253 H245 0.951 . S
C253 C252 1.424 . S
C253 C254 1.347 . S
C254 H246 0.951 . S
C254 C249 1.429 . S
C254 C253 1.347 . S
H255 C256 0.951 . S
C256 H255 0.951 . S
C256 C262 1.265 . S
H257 C262 0.950 . S
H258 C266 0.949 . S
H259 C267 0.950 . S
H260 C268 0.951 . S
H261 C269 0.951 . S
C262 C256 1.265 . S
C262 H257 0.950 . S
C262 C263 1.478 . S
C263 C250 1.394 1_565 S
C263 C262 1.478 . S
C263 C264 1.397 . S
C264 C263 1.397 . S
C264 C265 1.438 . S
C264 C269 1.429 . S
C265 C248 1.394 . S
C265 C264 1.438 . S
C265 C266 1.428 . S
C266 H258 0.949 . S
C266 C265 1.428 . S
C266 C267 1.345 . S
C267 H259 0.950 . S
C267 C266 1.345 . S
C267 C268 1.424 . S
C268 H260 0.951 . S
C268 C267 1.424 . S
C268 C269 1.347 . S
C269 H261 0.951 . S
C269 C264 1.429 . S
C269 C268 1.347 . S
H270 C271 0.951 . S
C271 H270 0.951 . S
C271 C277 1.265 1_655 S
H272 C277 0.950 . S
H273 C281 0.949 . S
H274 C282 0.950 . S
H275 C283 0.951 . S
H276 C284 0.951 . S
C277 C271 1.265 1_455 S
C277 H272 0.950 . S
C277 C278 1.478 . S
C278 C277 1.478 . S
C278 C279 1.397 . S
C278 C295 1.394 . S
C279 C278 1.397 . S
C279 C280 1.438 . S
C279 C284 1.429 . S
C280 C279 1.438 . S
C280 C281 1.428 . S
C280 C293 1.394 . S
C281 H273 0.949 . S
C281 C280 1.428 . S
C281 C282 1.345 . S
C282 H274 0.950 . S
C282 C281 1.345 . S
C282 C283 1.424 . S
C283 H275 0.951 . S
C283 C282 1.424 . S
C283 C284 1.347 . S
C284 H276 0.951 . S
C284 C279 1.429 . S
C284 C283 1.347 . S
H285 C286 0.951 . S
C286 H285 0.951 . S
C286 C292 1.265 . S
H287 C292 0.950 1_655 S
H288 C296 0.949 . S
H289 C297 0.950 . S
H290 C298 0.951 . S
H291 C299 0.951 . S
C292 C286 1.265 . S
C292 H287 0.950 1_455 S
C292 C293 1.478 . S
C293 C280 1.394 . S
C293 C292 1.478 . S
C293 C294 1.397 . S
C294 C293 1.397 . S
C294 C295 1.438 . S
C294 C299 1.429 1_455 S
C295 C278 1.394 . S
C295 C294 1.438 . S
C295 C296 1.428 . S
C296 H288 0.949 . S
C296 C295 1.428 . S
C296 C297 1.345 1_455 S
C297 H289 0.950 . S
C297 C296 1.345 1_655 S
C297 C298 1.424 . S
C298 H290 0.951 . S
C298 C297 1.424 . S
C298 C299 1.347 . S
C299 H291 0.951 . S
C299 C294 1.429 1_655 S
C299 C298 1.347 . S
H300 C301 0.953 . S
C301 H300 0.953 . S
C301 C307 1.263 1_565 S
H302 C307 0.950 . S
H303 C311 0.949 . S
H304 C312 0.950 . S
H305 C313 0.951 . S
H306 C314 0.951 . S
C307 C301 1.263 1_545 S
C307 H302 0.950 . S
C307 C308 1.478 . S
C308 C307 1.478 . S
C308 C309 1.397 . S
C308 C325 1.394 1_545 S
C309 C308 1.397 . S
C309 C310 1.438 . S
C309 C314 1.429 . S
C310 C309 1.438 . S
C310 C311 1.428 . S
C310 C323 1.394 . S
C311 H303 0.949 . S
C311 C310 1.428 . S
C311 C312 1.345 . S
C312 H304 0.950 . S
C312 C311 1.345 . S
C312 C313 1.424 . S
C313 H305 0.951 . S
C313 C312 1.424 . S
C313 C314 1.347 . S
C314 H306 0.951 . S
C314 C309 1.429 . S
C314 C313 1.347 . S
H315 C316 0.951 . S
C316 H315 0.951 . S
C316 C322 1.265 . S
H317 C322 0.950 1_565 S
H318 C326 0.949 . S
H319 C327 0.950 . S
H320 C328 0.951 . S
H321 C329 0.951 . S
C322 C316 1.265 . S
C322 H317 0.950 1_545 S
C322 C323 1.478 . S
C323 C310 1.394 . S
C323 C322 1.478 . S
C323 C324 1.397 1_545 S
C324 C323 1.397 1_565 S
C324 C325 1.438 . S
C324 C329 1.429 . S
C325 C308 1.394 1_565 S
C325 C324 1.438 . S
C325 C326 1.428 . S
C326 H318 0.949 . S
C326 C325 1.428 . S
C326 C327 1.345 . S
C327 H319 0.950 . S
C327 C326 1.345 . S
C327 C328 1.424 . S
C328 H320 0.951 . S
C328 C327 1.424 . S
C328 C329 1.347 . S
C329 H321 0.951 . S
C329 C324 1.429 . S
C329 C328 1.347 . S
H330 C331 0.951 . S
C331 H330 0.951 . S
C331 C337 1.265 1_655 S
H332 C337 0.950 . S
H333 C341 0.949 1_655 S
H334 C342 0.950 . S
H335 C343 0.951 . S
H336 C344 0.951 . S
C337 C331 1.265 1_455 S
C337 H332 0.950 . S
C337 C338 1.471 1_455 S
C338 C337 1.471 1_655 S
C338 C339 1.393 1_655 S
C338 C355 1.405 . S
C339 C338 1.393 1_455 S
C339 C340 1.438 1_455 S
C339 C344 1.429 . S
C340 C339 1.438 1_655 S
C340 C341 1.428 1_655 S
C340 C353 1.394 . S
C341 H333 0.949 1_455 S
C341 C340 1.428 1_455 S
C341 C342 1.345 . S
C342 H334 0.950 . S
C342 C341 1.345 . S
C342 C343 1.424 . S
C343 H335 0.951 . S
C343 C342 1.424 . S
C343 C344 1.347 . S
C344 H336 0.951 . S
C344 C339 1.429 . S
C344 C343 1.347 . S
H345 C346 0.951 1_455 S
C346 H345 0.951 1_655 S
C346 C352 1.265 . S
H347 C352 0.950 . S
H348 C356 0.949 . S
H349 C357 0.950 . S
H350 C358 0.951 . S
H351 C359 0.951 . S
C352 C346 1.265 . S
C352 H347 0.950 . S
C352 C353 1.478 . S
C353 C340 1.394 . S
C353 C352 1.478 . S
C353 C354 1.397 . S
C354 C353 1.397 . S
C354 C355 1.438 . S
C354 C359 1.429 . S
C355 C338 1.405 . S
C355 C354 1.438 . S
C355 C356 1.428 . S
C356 H348 0.949 . S
C356 C355 1.428 . S
C356 C357 1.345 . S
C357 H349 0.950 . S
C357 C356 1.345 . S
C357 C358 1.424 . S
C358 H350 0.951 . S
C358 C357 1.424 . S
C358 C359 1.347 . S
C359 H351 0.951 . S
C359 C354 1.429 . S
C359 C358 1.347 . S
C136 C101 1.587 . S
C121 C15 1.593 1_565 S
C166 C112 1.474 . S
C151 C68 1.571 . S
C196 C100 1.588 . S
C181 C8 1.594 1_565 S
C226 C113 1.568 . S
C211 C47 1.596 . S
C256 C115 1.599 . S
C241 C22 1.595 . S
C286 C99 1.567 . S
C271 C61 1.598 1_655 S
C316 C114 1.587 . S
C301 C1 1.600 . S
C331 C54 1.584 1_655 S
C346 C98 1.480 . S
