# Generated by pormake.
# Topology csq, (4,8)-cn, num edge types: 1
# Building blocks:
#     Node 0, Type 0, BuildingBlock: MIFKUJ_clean_linker_1, # of connection points: 4
#     Node 1, Type 0, BuildingBlock: MIFKUJ_clean_linker_1, # of connection points: 4
#     Node 2, Type 0, BuildingBlock: MIFKUJ_clean_linker_1, # of connection points: 4
#     Node 3, Type 0, BuildingBlock: MIFKUJ_clean_linker_1, # of connection points: 4
#     Node 4, Type 0, BuildingBlock: MIFKUJ_clean_linker_1, # of connection points: 4
#     Node 5, Type 0, BuildingBlock: MIFKUJ_clean_linker_1, # of connection points: 4
#     Node 6, Type 1, BuildingBlock: TAGTUT_clean_sbu_1, # of connection points: 8
#     Node 7, Type 1, BuildingBlock: TAGTUT_clean_sbu_1, # of connection points: 8
#     Node 8, Type 1, BuildingBlock: TAGTUT_clean_sbu_1, # of connection points: 8
#     Edge 9, Type (0, 1), None
#     Edge 10, Type (0, 1), None
#     Edge 11, Type (0, 1), None
#     Edge 12, Type (0, 1), None
#     Edge 13, Type (0, 1), None
#     Edge 14, Type (0, 1), None
#     Edge 15, Type (0, 1), None
#     Edge 16, Type (0, 1), None
#     Edge 17, Type (0, 1), None
#     Edge 18, Type (0, 1), None
#     Edge 19, Type (0, 1), None
#     Edge 20, Type (0, 1), None
#     Edge 21, Type (0, 1), None
#     Edge 22, Type (0, 1), None
#     Edge 23, Type (0, 1), None
#     Edge 24, Type (0, 1), None
#     Edge 25, Type (0, 1), None
#     Edge 26, Type (0, 1), None
#     Edge 27, Type (0, 1), None
#     Edge 28, Type (0, 1), None
#     Edge 29, Type (0, 1), None
#     Edge 30, Type (0, 1), None
#     Edge 31, Type (0, 1), None
#     Edge 32, Type (0, 1), None
# Relax obj value: 0.036
# Max RMSD: 0.120
# Mean RMSD: 0.057
data_MOF--net-csq--node1-TAGTUT_clean_sbu_1--node2-MIFKUJ_clean_linker_1--edge1-none
_symmetry_space_group_name_H-M    P1
_symmetry_Int_Tables_number       1
_symmetry_cell_setting            triclinic
loop_
_symmetry_equiv_pos_as_xyz
'x, y, z'
_cell_length_a     36.063566
_cell_length_b     35.286005
_cell_length_c     12.331373
_cell_angle_alpha  94.509053
_cell_angle_beta   91.854341
_cell_angle_gamma 119.89091
loop_
_atom_site_label
_atom_site_type_symbol
_atom_site_fract_x
_atom_site_fract_y
_atom_site_fract_z
_atom_type_partial_charge
H0 H 0.27598 0.40759 0.314 0.0
H1 H 0.33493 0.40896 0.42142 0.0
H2 H 0.36977 0.53666 0.58213 0.0
H3 H 0.31041 0.53515 0.47536 0.0
H4 H 0.22468 0.48047 0.44486 0.0
H5 H 0.24557 0.40788 0.03066 0.0
H6 H 0.29633 0.40493 0.90883 0.0
H7 H 0.39968 0.52063 0.09571 0.0
H8 H 0.34842 0.52368 0.21663 0.0
H9 H 0.19813 0.54753 0.09089 0.0
H10 H 0.15033 0.54383 0.93876 0.0
H11 H 0.08204 0.40205 0.92021 0.0
H12 H 0.12821 0.40611 0.07588 0.0
H13 H 0.23043 0.47281 0.04332 0.0
H14 H 0.169 0.54152 0.2701 0.0
H15 H 0.11196 0.54742 0.35571 0.0
H16 H 0.08669 0.43879 0.53806 0.0
H17 H 0.14313 0.4315 0.44775 0.0
C18 C 0.29007 0.47195 0.38424 0.0
C19 C 0.29559 0.43534 0.37436 0.0
C20 C 0.3284 0.43563 0.43773 0.0
C21 C 0.3562 0.47266 0.51071 0.0
C22 C 0.34795 0.50733 0.52851 0.0
C23 C 0.31483 0.5069 0.46564 0.0
C24 C 0.25854 0.47398 0.30999 0.0
C25 C 0.22562 0.47854 0.35683 0.0
C26 C 0.26019 0.47115 0.19481 0.0
C27 C 0.29299 0.46567 0.13449 0.0
C28 C 0.27928 0.43242 0.04635 0.0
C29 C 0.30833 0.43108 0.97542 0.0
C30 C 0.35217 0.46293 0.99047 0.0
C31 C 0.36611 0.49571 0.08034 0.0
C32 C 0.33689 0.49712 0.1512 0.0
C33 C 0.16456 0.47719 0.09867 0.0
C34 C 0.17214 0.51579 0.05547 0.0
C35 C 0.14611 0.5136 0.96629 0.0
C36 C 0.11355 0.47264 0.91616 0.0
C37 C 0.10781 0.43397 0.95547 0.0
C38 C 0.13295 0.43627 0.04667 0.0
C39 C 0.19653 0.47861 0.17765 0.0
C40 C 0.22929 0.47424 0.13144 0.0
C41 C 0.19391 0.48047 0.2924 0.0
C42 C 0.15951 0.48481 0.34783 0.0
C43 C 0.15084 0.5182 0.32625 0.0
C44 C 0.11876 0.52223 0.37762 0.0
C45 C 0.09495 0.49374 0.45433 0.0
C46 C 0.10489 0.46167 0.48076 0.0
C47 C 0.13683 0.45722 0.42787 0.0
H48 H 0.82296 0.34992 0.09136 0.0
H49 H 0.89291 0.40556 0.04259 0.0
H50 H 0.92442 0.30444 0.95457 0.0
H51 H 0.85471 0.24891 0.00969 0.0
H52 H 0.76054 0.22749 0.9511 0.0
H53 H 0.80702 0.34612 0.30821 0.0
H54 H 0.86939 0.40561 0.42009 0.0
H55 H 0.93403 0.33039 0.39 0.0
H56 H 0.87183 0.27157 0.2759 0.0
H57 H 0.7361 0.15012 0.34062 0.0
H58 H 0.6847 0.10387 0.46376 0.0
H59 H 0.59471 0.14139 0.34376 0.0
H60 H 0.64629 0.18699 0.22005 0.0
H61 H 0.76375 0.24034 0.35563 0.0
H62 H 0.68654 0.10925 0.09975 0.0
H63 H 0.62421 0.05034 0.98925 0.0
H64 H 0.61836 0.14456 0.79732 0.0
H65 H 0.68093 0.20421 0.91026 0.0
C66 C 0.83376 0.29556 0.05166 0.0
C67 C 0.84498 0.33985 0.06125 0.0
C68 C 0.88532 0.3716 0.03644 0.0
C69 C 0.91437 0.35924 0.99776 0.0
C70 C 0.90279 0.3147 0.98661 0.0
C71 C 0.86274 0.28299 0.01455 0.0
C72 C 0.7961 0.26432 0.10286 0.0
C73 C 0.76036 0.22995 0.03927 0.0
C74 C 0.79701 0.26844 0.2172 0.0
C75 C 0.83464 0.30423 0.28584 0.0
C76 C 0.83479 0.34269 0.32539 0.0
C77 C 0.87075 0.37693 0.38765 0.0
C78 C 0.90681 0.37283 0.41347 0.0
C79 C 0.90685 0.33463 0.37116 0.0
C80 C 0.8712 0.30078 0.30726 0.0
C81 C 0.69408 0.17042 0.2687 0.0
C82 C 0.70502 0.1479 0.34059 0.0
C83 C 0.67612 0.12243 0.41282 0.0
C84 C 0.63575 0.11914 0.41432 0.0
C85 C 0.62565 0.14328 0.34493 0.0
C86 C 0.65454 0.16854 0.2723 0.0
C87 C 0.72726 0.20189 0.20517 0.0
C88 C 0.76265 0.2373 0.26709 0.0
C89 C 0.72506 0.19825 0.08873 0.0
C90 C 0.68792 0.16172 0.01694 0.0
C91 C 0.67198 0.11764 0.0347 0.0
C92 C 0.63667 0.08375 0.9696 0.0
C93 C 0.61628 0.09261 0.88367 0.0
C94 C 0.63363 0.13644 0.86132 0.0
C95 C 0.6691 0.1706 0.92721 0.0
H96 H 0.58476 0.73409 0.9502 0.0
H97 H 0.5979 0.6756 0.87634 0.0
H98 H 0.46301 0.58071 0.88641 0.0
H99 H 0.45018 0.63939 0.95296 0.0
H100 H 0.51379 0.75157 0.84181 0.0
H101 H 0.57329 0.74311 0.22868 0.0
H102 H 0.58163 0.6892 0.3242 0.0
H103 H 0.44769 0.59386 0.24056 0.0
H104 H 0.43922 0.6488 0.14872 0.0
H105 H 0.44153 0.81758 0.14265 0.0
H106 H 0.454 0.89009 0.21636 0.0
H107 H 0.59018 0.94505 0.19257 0.0
H108 H 0.5775 0.87291 0.1176 0.0
H109 H 0.49875 0.77262 0.23817 0.0
H110 H 0.44547 0.81413 0.9221 0.0
H111 H 0.455 0.87765 0.83404 0.0
H112 H 0.58388 0.90917 0.77 0.0
H113 H 0.57437 0.84605 0.86147 0.0
C114 C 0.51642 0.69073 0.95407 0.0
C115 C 0.55826 0.70054 0.93602 0.0
C116 C 0.56584 0.66713 0.89655 0.0
C117 C 0.5316 0.62363 0.876 0.0
C118 C 0.49026 0.61376 0.90235 0.0
C119 C 0.48261 0.64727 0.93862 0.0
C120 C 0.5085 0.72561 0.99717 0.0
C121 C 0.50937 0.75567 0.92764 0.0
C122 C 0.50294 0.73041 0.10909 0.0
C123 C 0.50557 0.70022 0.18281 0.0
C124 C 0.5455 0.71098 0.23321 0.0
C125 C 0.55033 0.67985 0.28614 0.0
C126 C 0.51552 0.63691 0.28789 0.0
C127 C 0.47533 0.6263 0.23855 0.0
C128 C 0.4703 0.6579 0.18775 0.0
C129 C 0.50885 0.8401 0.12939 0.0
C130 C 0.47392 0.84546 0.15279 0.0
C131 C 0.48094 0.88697 0.19094 0.0
C132 C 0.523 0.92296 0.20793 0.0
C133 C 0.5575 0.91783 0.17788 0.0
C134 C 0.55043 0.87661 0.13863 0.0
C135 C 0.50232 0.79766 0.08197 0.0
C136 C 0.5002 0.7669 0.15113 0.0
C137 C 0.5058 0.79161 0.96917 0.0
C138 C 0.50911 0.82513 0.89778 0.0
C139 C 0.4757 0.83459 0.88849 0.0
C140 C 0.48146 0.87138 0.83956 0.0
C141 C 0.52054 0.89916 0.79674 0.0
C142 C 0.55354 0.88881 0.8032 0.0
C143 C 0.54792 0.85226 0.85361 0.0
H144 H 0.7767 0.44961 0.22176 0.0
H145 H 0.8246 0.45352 0.37392 0.0
H146 H 0.89282 0.59527 0.39137 0.0
H147 H 0.84653 0.591 0.23571 0.0
H148 H 0.74421 0.52405 0.26877 0.0
H149 H 0.8059 0.45561 0.04236 0.0
H150 H 0.86299 0.44979 0.95673 0.0
H151 H 0.88788 0.55815 0.77373 0.0
H152 H 0.83137 0.56535 0.86402 0.0
H153 H 0.6984 0.58895 0.99788 0.0
H154 H 0.63937 0.58743 0.89045 0.0
H155 H 0.60465 0.45972 0.73011 0.0
H156 H 0.66409 0.46137 0.83688 0.0
H157 H 0.74987 0.51625 0.8672 0.0
H158 H 0.72878 0.58875 0.2813 0.0
H159 H 0.67794 0.59153 0.40311 0.0
H160 H 0.57477 0.47565 0.21634 0.0
H161 H 0.62612 0.47275 0.09544 0.0
C162 C 0.81021 0.51991 0.21345 0.0
C163 C 0.80269 0.48139 0.25696 0.0
C164 C 0.82879 0.4837 0.34615 0.0
C165 C 0.86135 0.52472 0.39598 0.0
C166 C 0.86704 0.56332 0.35636 0.0
C167 C 0.84183 0.56089 0.26515 0.0
C168 C 0.77816 0.51836 0.13445 0.0
C169 C 0.74533 0.5226 0.18065 0.0
C170 C 0.78075 0.51644 0.01969 0.0
C171 C 0.81519 0.51217 0.96427 0.0
C172 C 0.82399 0.47889 0.98605 0.0
C173 C 0.85609 0.47491 0.93468 0.0
C174 C 0.87981 0.50335 0.85779 0.0
C175 C 0.86975 0.53532 0.83117 0.0
C176 C 0.83778 0.53971 0.88405 0.0
C177 C 0.68438 0.5246 0.92782 0.0
C178 C 0.67879 0.56117 0.9376 0.0
C179 C 0.64595 0.56079 0.87422 0.0
C180 C 0.61816 0.52372 0.80133 0.0
C181 C 0.62647 0.48908 0.78365 0.0
C182 C 0.65963 0.4896 0.84652 0.0
C183 C 0.71597 0.52266 1.00206 0.0
C184 C 0.74895 0.51821 0.95524 0.0
C185 C 0.71433 0.52552 0.11725 0.0
C186 C 0.68146 0.53087 0.17754 0.0
C187 C 0.6951 0.56412 0.26564 0.0
C188 C 0.666 0.56537 0.33656 0.0
C189 C 0.62219 0.53342 0.32153 0.0
C190 C 0.60833 0.50063 0.2317 0.0
C191 C 0.63759 0.49931 0.16085 0.0
H192 H 0.23916 0.84648 0.97108 0.0
H193 H 0.29057 0.89271 0.84797 0.0
H194 H 0.38065 0.8554 0.96857 0.0
H195 H 0.32904 0.80979 0.09224 0.0
H196 H 0.21151 0.75634 0.95649 0.0
H197 H 0.2888 0.88754 0.21199 0.0
H198 H 0.35111 0.94648 0.32251 0.0
H199 H 0.35684 0.85233 0.51496 0.0
H200 H 0.29429 0.79265 0.40201 0.0
H201 H 0.15193 0.64689 0.22066 0.0
H202 H 0.08191 0.59146 0.26951 0.0
H203 H 0.05096 0.69295 0.35804 0.0
H204 H 0.12074 0.74829 0.30282 0.0
H205 H 0.2147 0.76944 0.36101 0.0
H206 H 0.1679 0.65061 1.00355 0.0
H207 H 0.1054 0.59128 0.89167 0.0
H208 H 0.04115 0.66686 0.92268 0.0
H209 H 0.10347 0.72551 0.03674 0.0
C210 C 0.28121 0.82627 0.04328 0.0
C211 C 0.27025 0.84873 0.97124 0.0
C212 C 0.29917 0.8742 0.89903 0.0
C213 C 0.33956 0.87755 0.89772 0.0
C214 C 0.34968 0.85346 0.96725 0.0
C215 C 0.32078 0.8282 0.03985 0.0
C216 C 0.24803 0.79483 0.10688 0.0
C217 C 0.21261 0.75942 0.04502 0.0
C218 C 0.25022 0.79855 0.22332 0.0
C219 C 0.28737 0.8351 0.29506 0.0
C220 C 0.30333 0.87916 0.27715 0.0
C221 C 0.33862 0.91307 0.34226 0.0
C222 C 0.35897 0.90424 0.42835 0.0
C223 C 0.3416 0.86043 0.45083 0.0
C224 C 0.30614 0.82625 0.38493 0.0
C225 C 0.14141 0.70144 0.26057 0.0
C226 C 0.13002 0.65709 0.2509 0.0
C227 C 0.08964 0.62546 0.27575 0.0
C228 C 0.06073 0.63798 0.3146 0.0
C229 C 0.07248 0.68258 0.32588 0.0
C230 C 0.11258 0.71417 0.29787 0.0
C231 C 0.17911 0.73257 0.20931 0.0
C232 C 0.21488 0.76692 0.27283 0.0
C233 C 0.1782 0.72837 0.09496 0.0
C234 C 0.14049 0.69266 0.02637 0.0
C235 C 0.14019 0.65415 0.98657 0.0
C236 C 0.10415 0.62 0.92432 0.0
C237 C 0.06816 0.62425 0.89876 0.0
C238 C 0.06826 0.66251 0.94132 0.0
C239 C 0.10399 0.69626 1.00521 0.0
H240 H 0.53326 0.1792 0.16936 0.0
H241 H 0.52104 0.10679 0.0957 0.0
H242 H 0.38483 0.05134 0.11995 0.0
H243 H 0.39726 0.12338 0.1949 0.0
H244 H 0.47579 0.22379 0.07386 0.0
H245 H 0.52936 0.18272 0.39006 0.0
H246 H 0.52007 0.11929 0.47813 0.0
H247 H 0.39109 0.08738 0.54241 0.0
H248 H 0.40037 0.15041 0.45087 0.0
H249 H 0.38972 0.26239 0.36096 0.0
H250 H 0.37651 0.32084 0.43477 0.0
H251 H 0.51147 0.41574 0.42602 0.0
H252 H 0.52436 0.35709 0.35944 0.0
H253 H 0.46084 0.24501 0.47022 0.0
H254 H 0.40125 0.25312 0.08265 0.0
H255 H 0.39283 0.30695 0.987 0.0
H256 H 0.52663 0.40258 0.07161 0.0
H257 H 0.53519 0.34772 0.16356 0.0
C258 C 0.46591 0.15644 0.18287 0.0
C259 C 0.50092 0.15124 0.15935 0.0
C260 C 0.49405 0.10978 0.12122 0.0
C261 C 0.45205 0.07368 0.10437 0.0
C262 C 0.41747 0.07865 0.13455 0.0
C263 C 0.42439 0.11982 0.17379 0.0
C264 C 0.47229 0.19884 0.23015 0.0
C265 C 0.47434 0.22954 0.1609 0.0
C266 C 0.46883 0.20494 0.34295 0.0
C267 C 0.46566 0.17151 0.41447 0.0
C268 C 0.49916 0.16219 0.42375 0.0
C269 C 0.49354 0.12545 0.47269 0.0
C270 C 0.4545 0.09759 0.51556 0.0
C271 C 0.42141 0.1078 0.50918 0.0
C272 C 0.4269 0.1443 0.45873 0.0
C273 C 0.45809 0.30575 0.35775 0.0
C274 C 0.41622 0.29594 0.37539 0.0
C275 C 0.4086 0.32933 0.41484 0.0
C276 C 0.44284 0.37281 0.43576 0.0
C277 C 0.48422 0.3827 0.40978 0.0
C278 C 0.4919 0.3492 0.37351 0.0
C279 C 0.46605 0.27088 0.31475 0.0
C280 C 0.46522 0.24087 0.38438 0.0
C281 C 0.47157 0.26602 0.20283 0.0
C282 C 0.46891 0.29616 0.12902 0.0
C283 C 0.429 0.28529 0.07829 0.0
C284 C 0.42412 0.31638 0.02529 0.0
C285 C 0.45886 0.35938 0.02378 0.0
C286 C 0.49904 0.37009 0.07342 0.0
C287 C 0.50412 0.33855 0.1243 0.0
C288 C 0.95094 0.391 0.94447 0.0
C289 C 0.07781 0.47022 0.85105 0.0
C290 C 0.03459 0.59309 0.8132 0.0
Mg291 Mg -0.00923 0.41294 0.72517 0.0
O292 O 0.97517 0.45573 0.76002 0.0
Mg293 Mg 0.00191 0.49669 0.89696 0.0
Mg294 Mg -0.01261 0.49858 0.65601 0.0
O295 O -0.00036 0.54148 0.55217 0.0
Mg296 Mg -0.0158 0.58441 0.58709 0.0
Mg297 Mg 0.97294 0.50059 0.41519 0.0
C298 C 0.94032 0.40413 0.49897 0.0
C299 C 0.05583 0.49381 0.48886 0.0
O300 O 0.96685 0.43213 0.97672 0.0
O301 O 0.95708 0.37668 0.85222 0.0
O302 O 0.06114 0.49105 0.89652 0.0
O303 O 0.05769 0.4393 0.77368 0.0
O304 O 0.9578 0.38862 0.56081 0.0
O305 O 0.94473 0.44241 0.52271 0.0
C306 C 0.91896 0.50335 0.82323 0.0
O307 O 0.92833 0.50388 0.72309 0.0
O308 O 0.94237 0.50111 0.8989 0.0
O309 O 0.00809 0.56516 0.33558 0.0
O310 O 0.018 0.62066 0.46014 0.0
O311 O 0.91377 0.50631 0.41568 0.0
C312 C 0.0241 0.6063 0.36786 0.0
O313 O 0.91731 0.55818 0.53829 0.0
O314 O 0.0172 0.60874 0.75151 0.0
C315 C 0.89715 0.52722 0.46104 0.0
O316 O 0.03 0.55475 0.78915 0.0
O317 O 0.04645 0.49327 0.589 0.0
O318 O 0.03245 0.49609 0.41321 0.0
C319 C 0.44358 0.03816 0.02123 0.0
C320 C 0.37419 0.91307 0.84524 0.0
C321 C 0.52506 0.9357 0.73555 0.0
Mg322 Mg 0.41242 0.00474 0.77706 0.0
O323 O 0.46808 0.01321 0.79021 0.0
Mg324 Mg 0.48111 0.97904 0.89258 0.0
Mg325 Mg 0.48761 -0.00156 0.65606 0.0
O326 O 0.50717 0.98364 0.52202 0.0
Mg327 Mg 0.56279 0.99196 0.53515 0.0
Mg328 Mg 0.49417 0.01779 0.41961 0.0
C329 C 0.45011 0.06108 0.57665 0.0
C330 C 0.4025 0.93966 0.47489 0.0
O331 O 0.46679 0.01987 0.02366 0.0
O332 O 0.42028 0.03517 0.93687 0.0
O333 O 0.41216 0.92565 0.88356 0.0
O334 O 0.36598 0.93654 0.78596 0.0
O335 O 0.42061 0.04565 0.64354 0.0
O336 O 0.47889 0.04971 0.57208 0.0
C337 C 0.57274 0.05721 0.83722 0.0
O338 O 0.55822 0.0528 0.73706 0.0
O339 O 0.54924 0.03231 0.90527 0.0
O340 O 0.50843 0.97689 0.28861 0.0
O341 O 0.55484 0.96147 0.37538 0.0
O342 O 0.56315 0.07111 0.42862 0.0
C343 C 0.53156 0.95852 0.29103 0.0
O344 O 0.60931 0.06012 0.52604 0.0
O345 O 0.55458 0.95101 0.66866 0.0
C346 C 0.60112 0.08363 0.46683 0.0
O347 O 0.49641 0.94724 0.73994 0.0
O348 O 0.41701 0.94406 0.57506 0.0
O349 O 0.42602 0.96456 0.40687 0.0
C350 C 0.52068 0.60518 0.35003 0.0
C351 C 0.59056 0.53641 0.39244 0.0
C352 C 0.43868 0.40452 0.51088 0.0
Mg353 Mg 0.56168 0.58728 0.55222 0.0
O354 O 0.50496 0.54034 0.5431 0.0
Mg355 Mg 0.48389 0.49957 0.40527 0.0
Mg356 Mg 0.48718 0.49819 0.65603 0.0
O357 O 0.46936 0.45599 0.76882 0.0
Mg358 Mg 0.41263 0.409 0.75958 0.0
Mg359 Mg 0.49043 0.49671 0.90665 0.0
C360 C 0.53567 0.59183 0.80099 0.0
C361 C 0.57411 0.5141 0.78483 0.0
O362 O 0.49687 0.5633 0.32242 0.0
O363 O 0.54753 0.62115 0.4347 0.0
O364 O 0.55063 0.51145 0.36346 0.0
O365 O 0.60327 0.56648 0.473 0.0
O366 O 0.5618 0.60821 0.72612 0.0
O367 O 0.50412 0.55207 0.7903 0.0
C368 C 0.40024 0.48223 0.52718 0.0
O369 O 0.41822 0.48595 0.62182 0.0
O370 O 0.41953 0.48685 0.44052 0.0
O371 O 0.47745 0.43296 0.98933 0.0
O372 O 0.4268 0.37512 0.87702 0.0
O373 O 0.42369 0.48481 0.94845 0.0
C374 C 0.45366 0.39109 0.96169 0.0
O375 O 0.37103 0.4298 0.83895 0.0
O376 O 0.4125 0.38805 0.5856 0.0
C377 C 0.38377 0.45987 0.91952 0.0
O378 O 0.47019 0.4443 0.52194 0.0
O379 O 0.55615 0.51043 0.6902 0.0
O380 O 0.5548 0.50945 0.87145 0.0
loop_
_geom_bond_atom_site_label_1
_geom_bond_atom_site_label_2
_geom_bond_distance
_geom_bond_site_symmetry_2
_ccdc_geom_bond_type
H0 C19 0.949 . S
H1 C20 0.950 . S
H2 C22 0.950 . S
H3 C23 0.950 . S
H4 C25 0.950 . S
H5 C28 0.950 . S
H6 C29 0.950 . S
H7 C31 0.951 . S
H8 C32 0.949 . S
H9 C34 0.949 . S
H10 C35 0.950 . S
H11 C37 0.950 . S
H12 C38 0.950 . S
H13 C40 0.950 . S
H14 C43 0.950 . S
H15 C44 0.950 . S
H16 C46 0.951 . S
H17 C47 0.949 . S
C18 C19 1.376 . S
C18 C23 1.386 . S
C18 C24 1.483 . S
C19 H0 0.949 . S
C19 C18 1.376 . S
C19 C20 1.397 . S
C20 H1 0.950 . S
C20 C19 1.397 . S
C20 C21 1.391 . S
C21 C20 1.391 . S
C21 C22 1.405 . S
C22 H2 0.950 . S
C22 C21 1.405 . S
C22 C23 1.367 . S
C23 H3 0.950 . S
C23 C18 1.386 . S
C23 C22 1.367 . S
C24 C18 1.483 . S
C24 C25 1.382 . S
C24 C26 1.403 . S
C25 H4 0.950 . S
C25 C24 1.382 . S
C25 C41 1.411 . S
C26 C24 1.403 . S
C26 C27 1.489 . S
C26 C40 1.411 . S
C27 C26 1.489 . S
C27 C28 1.383 . S
C27 C32 1.382 . S
C28 H5 0.950 . S
C28 C27 1.383 . S
C28 C29 1.395 . S
C29 H6 0.950 . S
C29 C28 1.395 . S
C29 C30 1.288 1_554 S
C30 C29 1.288 1_556 S
C30 C31 1.392 . S
C31 H7 0.951 . S
C31 C30 1.392 . S
C31 C32 1.392 1_556 S
C32 H8 0.949 . S
C32 C27 1.382 . S
C32 C31 1.392 1_554 S
C33 C34 1.376 . S
C33 C38 1.386 . S
C33 C39 1.483 . S
C34 H9 0.949 . S
C34 C33 1.376 . S
C34 C35 1.397 1_554 S
C35 H10 0.950 . S
C35 C34 1.397 1_556 S
C35 C36 1.391 . S
C36 C35 1.391 . S
C36 C37 1.405 1_556 S
C37 H11 0.950 . S
C37 C36 1.405 1_554 S
C37 C38 1.367 . S
C38 H12 0.950 . S
C38 C33 1.386 . S
C38 C37 1.367 . S
C39 C33 1.483 . S
C39 C40 1.382 . S
C39 C41 1.403 . S
C40 H13 0.950 . S
C40 C26 1.411 . S
C40 C39 1.382 . S
C41 C25 1.411 . S
C41 C39 1.403 . S
C41 C42 1.489 . S
C42 C41 1.489 . S
C42 C43 1.383 . S
C42 C47 1.382 . S
C43 H14 0.950 . S
C43 C42 1.383 . S
C43 C44 1.395 . S
C44 H15 0.950 . S
C44 C43 1.395 . S
C44 C45 1.288 . S
C45 C44 1.288 . S
C45 C46 1.392 . S
C46 H16 0.951 . S
C46 C45 1.392 . S
C46 C47 1.392 . S
C47 H17 0.949 . S
C47 C42 1.382 . S
C47 C46 1.392 . S
H48 C67 0.949 1_556 S
H49 C68 0.950 . S
H50 C70 0.950 . S
H51 C71 0.950 . S
H52 C73 0.950 1_556 S
H53 C76 0.950 . S
H54 C77 0.950 . S
H55 C79 0.951 . S
H56 C80 0.949 . S
H57 C82 0.949 . S
H58 C83 0.950 . S
H59 C85 0.950 . S
H60 C86 0.950 . S
H61 C88 0.950 . S
H62 C91 0.950 . S
H63 C92 0.950 . S
H64 C94 0.951 . S
H65 C95 0.949 . S
C66 C67 1.376 . S
C66 C71 1.386 . S
C66 C72 1.483 . S
C67 H48 0.949 1_554 S
C67 C66 1.376 . S
C67 C68 1.397 1_554 S
C68 H49 0.950 . S
C68 C67 1.397 1_556 S
C68 C69 1.391 . S
C69 C68 1.391 . S
C69 C70 1.405 1_556 S
C70 H50 0.950 . S
C70 C69 1.405 1_554 S
C70 C71 1.367 . S
C71 H51 0.950 . S
C71 C66 1.386 . S
C71 C70 1.367 . S
C72 C66 1.483 . S
C72 C73 1.382 . S
C72 C74 1.403 . S
C73 H52 0.950 1_554 S
C73 C72 1.382 . S
C73 C89 1.411 . S
C74 C72 1.403 . S
C74 C75 1.489 . S
C74 C88 1.411 . S
C75 C74 1.489 . S
C75 C76 1.383 . S
C75 C80 1.382 . S
C76 H53 0.950 . S
C76 C75 1.383 . S
C76 C77 1.395 . S
C77 H54 0.950 . S
C77 C76 1.395 . S
C77 C78 1.288 . S
C78 C77 1.288 . S
C78 C79 1.392 . S
C79 H55 0.951 . S
C79 C78 1.392 . S
C79 C80 1.392 . S
C80 H56 0.949 . S
C80 C75 1.382 . S
C80 C79 1.392 . S
C81 C82 1.376 . S
C81 C86 1.386 . S
C81 C87 1.483 . S
C82 H57 0.949 . S
C82 C81 1.376 . S
C82 C83 1.397 . S
C83 H58 0.950 . S
C83 C82 1.397 . S
C83 C84 1.391 . S
C84 C83 1.391 . S
C84 C85 1.405 . S
C85 H59 0.950 . S
C85 C84 1.405 . S
C85 C86 1.367 . S
C86 H60 0.950 . S
C86 C81 1.386 . S
C86 C85 1.367 . S
C87 C81 1.483 . S
C87 C88 1.382 . S
C87 C89 1.403 . S
C88 H61 0.950 . S
C88 C74 1.411 . S
C88 C87 1.382 . S
C89 C73 1.411 . S
C89 C87 1.403 . S
C89 C90 1.489 . S
C90 C89 1.489 . S
C90 C91 1.383 . S
C90 C95 1.382 1_554 S
C91 H62 0.950 . S
C91 C90 1.383 . S
C91 C92 1.395 1_554 S
C92 H63 0.950 . S
C92 C91 1.395 1_556 S
C92 C93 1.288 . S
C93 C92 1.288 . S
C93 C94 1.392 . S
C94 H64 0.951 . S
C94 C93 1.392 . S
C94 C95 1.392 . S
C95 H65 0.949 . S
C95 C90 1.382 1_556 S
C95 C94 1.392 . S
H96 C115 0.949 . S
H97 C116 0.950 . S
H98 C118 0.950 . S
H99 C119 0.950 . S
H100 C121 0.950 . S
H101 C124 0.950 . S
H102 C125 0.950 . S
H103 C127 0.951 . S
H104 C128 0.949 . S
H105 C130 0.949 . S
H106 C131 0.950 . S
H107 C133 0.950 . S
H108 C134 0.950 . S
H109 C136 0.950 . S
H110 C139 0.950 . S
H111 C140 0.950 . S
H112 C142 0.951 . S
H113 C143 0.949 . S
C114 C115 1.376 . S
C114 C119 1.386 . S
C114 C120 1.483 . S
C115 H96 0.949 . S
C115 C114 1.376 . S
C115 C116 1.397 . S
C116 H97 0.950 . S
C116 C115 1.397 . S
C116 C117 1.391 . S
C117 C116 1.391 . S
C117 C118 1.405 . S
C118 H98 0.950 . S
C118 C117 1.405 . S
C118 C119 1.367 . S
C119 H99 0.950 . S
C119 C114 1.386 . S
C119 C118 1.367 . S
C120 C114 1.483 . S
C120 C121 1.382 . S
C120 C122 1.403 1_556 S
C121 H100 0.950 . S
C121 C120 1.382 . S
C121 C137 1.411 . S
C122 C120 1.403 1_554 S
C122 C123 1.489 . S
C122 C136 1.411 . S
C123 C122 1.489 . S
C123 C124 1.383 . S
C123 C128 1.382 . S
C124 H101 0.950 . S
C124 C123 1.383 . S
C124 C125 1.395 . S
C125 H102 0.950 . S
C125 C124 1.395 . S
C125 C126 1.288 . S
C126 C125 1.288 . S
C126 C127 1.392 . S
C127 H103 0.951 . S
C127 C126 1.392 . S
C127 C128 1.392 . S
C128 H104 0.949 . S
C128 C123 1.382 . S
C128 C127 1.392 . S
C129 C130 1.376 . S
C129 C134 1.386 . S
C129 C135 1.483 . S
C130 H105 0.949 . S
C130 C129 1.376 . S
C130 C131 1.397 . S
C131 H106 0.950 . S
C131 C130 1.397 . S
C131 C132 1.391 . S
C132 C131 1.391 . S
C132 C133 1.405 . S
C133 H107 0.950 . S
C133 C132 1.405 . S
C133 C134 1.367 . S
C134 H108 0.950 . S
C134 C129 1.386 . S
C134 C133 1.367 . S
C135 C129 1.483 . S
C135 C136 1.382 . S
C135 C137 1.403 1_554 S
C136 H109 0.950 . S
C136 C122 1.411 . S
C136 C135 1.382 . S
C137 C121 1.411 . S
C137 C135 1.403 1_556 S
C137 C138 1.489 . S
C138 C137 1.489 . S
C138 C139 1.383 . S
C138 C143 1.382 . S
C139 H110 0.950 . S
C139 C138 1.383 . S
C139 C140 1.395 . S
C140 H111 0.950 . S
C140 C139 1.395 . S
C140 C141 1.288 . S
C141 C140 1.288 . S
C141 C142 1.392 . S
C142 H112 0.951 . S
C142 C141 1.392 . S
C142 C143 1.392 . S
C143 H113 0.949 . S
C143 C138 1.382 . S
C143 C142 1.392 . S
H144 C163 0.949 . S
H145 C164 0.950 . S
H146 C166 0.950 . S
H147 C167 0.950 . S
H148 C169 0.950 . S
H149 C172 0.950 1_554 S
H150 C173 0.950 . S
H151 C175 0.951 . S
H152 C176 0.949 . S
H153 C178 0.949 . S
H154 C179 0.950 . S
H155 C181 0.950 . S
H156 C182 0.950 . S
H157 C184 0.950 . S
H158 C187 0.950 . S
H159 C188 0.950 . S
H160 C190 0.951 . S
H161 C191 0.949 . S
C162 C163 1.376 . S
C162 C167 1.386 . S
C162 C168 1.483 . S
C163 H144 0.949 . S
C163 C162 1.376 . S
C163 C164 1.397 . S
C164 H145 0.950 . S
C164 C163 1.397 . S
C164 C165 1.391 . S
C165 C164 1.391 . S
C165 C166 1.405 . S
C166 H146 0.950 . S
C166 C165 1.405 . S
C166 C167 1.367 . S
C167 H147 0.950 . S
C167 C162 1.386 . S
C167 C166 1.367 . S
C168 C162 1.483 . S
C168 C169 1.382 . S
C168 C170 1.403 . S
C169 H148 0.950 . S
C169 C168 1.382 . S
C169 C185 1.411 . S
C170 C168 1.403 . S
C170 C171 1.489 1_554 S
C170 C184 1.411 1_554 S
C171 C170 1.489 1_556 S
C171 C172 1.383 . S
C171 C176 1.382 . S
C172 H149 0.950 1_556 S
C172 C171 1.383 . S
C172 C173 1.395 . S
C173 H150 0.950 . S
C173 C172 1.395 . S
C173 C174 1.288 . S
C174 C173 1.288 . S
C174 C175 1.392 . S
C175 H151 0.951 . S
C175 C174 1.392 . S
C175 C176 1.392 . S
C176 H152 0.949 . S
C176 C171 1.382 . S
C176 C175 1.392 . S
C177 C178 1.376 . S
C177 C182 1.386 . S
C177 C183 1.483 1_556 S
C178 H153 0.949 . S
C178 C177 1.376 . S
C178 C179 1.397 . S
C179 H154 0.950 . S
C179 C178 1.397 . S
C179 C180 1.391 . S
C180 C179 1.391 . S
C180 C181 1.405 . S
C181 H155 0.950 . S
C181 C180 1.405 . S
C181 C182 1.367 . S
C182 H156 0.950 . S
C182 C177 1.386 . S
C182 C181 1.367 . S
C183 C177 1.483 1_554 S
C183 C184 1.382 1_554 S
C183 C185 1.403 . S
C184 H157 0.950 . S
C184 C170 1.411 1_556 S
C184 C183 1.382 1_556 S
C185 C169 1.411 . S
C185 C183 1.403 . S
C185 C186 1.489 . S
C186 C185 1.489 . S
C186 C187 1.383 . S
C186 C191 1.382 . S
C187 H158 0.950 . S
C187 C186 1.383 . S
C187 C188 1.395 . S
C188 H159 0.950 . S
C188 C187 1.395 . S
C188 C189 1.288 . S
C189 C188 1.288 . S
C189 C190 1.392 . S
C190 H160 0.951 . S
C190 C189 1.392 . S
C190 C191 1.392 . S
C191 H161 0.949 . S
C191 C186 1.382 . S
C191 C190 1.392 . S
H192 C211 0.949 . S
H193 C212 0.950 . S
H194 C214 0.950 . S
H195 C215 0.950 . S
H196 C217 0.950 1_556 S
H197 C220 0.950 . S
H198 C221 0.950 . S
H199 C223 0.951 . S
H200 C224 0.949 . S
H201 C226 0.949 . S
H202 C227 0.950 . S
H203 C229 0.950 . S
H204 C230 0.950 . S
H205 C232 0.950 . S
H206 C235 0.950 1_554 S
H207 C236 0.950 . S
H208 C238 0.951 . S
H209 C239 0.949 . S
C210 C211 1.376 1_554 S
C210 C215 1.386 . S
C210 C216 1.483 . S
C211 H192 0.949 . S
C211 C210 1.376 1_556 S
C211 C212 1.397 . S
C212 H193 0.950 . S
C212 C211 1.397 . S
C212 C213 1.391 . S
C213 C212 1.391 . S
C213 C214 1.405 . S
C214 H194 0.950 . S
C214 C213 1.405 . S
C214 C215 1.367 1_556 S
C215 H195 0.950 . S
C215 C210 1.386 . S
C215 C214 1.367 1_554 S
C216 C210 1.483 . S
C216 C217 1.382 . S
C216 C218 1.403 . S
C217 H196 0.950 1_554 S
C217 C216 1.382 . S
C217 C233 1.411 . S
C218 C216 1.403 . S
C218 C219 1.489 . S
C218 C232 1.411 . S
C219 C218 1.489 . S
C219 C220 1.383 . S
C219 C224 1.382 . S
C220 H197 0.950 . S
C220 C219 1.383 . S
C220 C221 1.395 . S
C221 H198 0.950 . S
C221 C220 1.395 . S
C221 C222 1.288 . S
C222 C221 1.288 . S
C222 C223 1.392 . S
C223 H199 0.951 . S
C223 C222 1.392 . S
C223 C224 1.392 . S
C224 H200 0.949 . S
C224 C219 1.382 . S
C224 C223 1.392 . S
C225 C226 1.376 . S
C225 C230 1.386 . S
C225 C231 1.483 . S
C226 H201 0.949 . S
C226 C225 1.376 . S
C226 C227 1.397 . S
C227 H202 0.950 . S
C227 C226 1.397 . S
C227 C228 1.391 . S
C228 C227 1.391 . S
C228 C229 1.405 . S
C229 H203 0.950 . S
C229 C228 1.405 . S
C229 C230 1.367 . S
C230 H204 0.950 . S
C230 C225 1.386 . S
C230 C229 1.367 . S
C231 C225 1.483 . S
C231 C232 1.382 . S
C231 C233 1.403 . S
C232 H205 0.950 . S
C232 C218 1.411 . S
C232 C231 1.382 . S
C233 C217 1.411 . S
C233 C231 1.403 . S
C233 C234 1.489 1_554 S
C234 C233 1.489 1_556 S
C234 C235 1.383 . S
C234 C239 1.382 . S
C235 H206 0.950 1_556 S
C235 C234 1.383 . S
C235 C236 1.395 . S
C236 H207 0.950 . S
C236 C235 1.395 . S
C236 C237 1.288 . S
C237 C236 1.288 . S
C237 C238 1.392 . S
C238 H208 0.951 . S
C238 C237 1.392 . S
C238 C239 1.392 . S
C239 H209 0.949 . S
C239 C234 1.382 . S
C239 C238 1.392 . S
H240 C259 0.949 . S
H241 C260 0.950 1_556 S
H242 C262 0.950 . S
H243 C263 0.950 . S
H244 C265 0.950 . S
H245 C268 0.950 . S
H246 C269 0.950 . S
H247 C271 0.951 . S
H248 C272 0.949 . S
H249 C274 0.949 . S
H250 C275 0.950 . S
H251 C277 0.950 . S
H252 C278 0.950 . S
H253 C280 0.950 . S
H254 C283 0.950 . S
H255 C284 0.950 . S
H256 C286 0.951 1_556 S
H257 C287 0.949 . S
C258 C259 1.376 . S
C258 C263 1.386 . S
C258 C264 1.483 . S
C259 H240 0.949 . S
C259 C258 1.376 . S
C259 C260 1.397 . S
C260 H241 0.950 1_554 S
C260 C259 1.397 . S
C260 C261 1.391 . S
C261 C260 1.391 . S
C261 C262 1.405 . S
C262 H242 0.950 . S
C262 C261 1.405 . S
C262 C263 1.367 . S
C263 H243 0.950 . S
C263 C258 1.386 . S
C263 C262 1.367 . S
C264 C258 1.483 . S
C264 C265 1.382 . S
C264 C266 1.403 . S
C265 H244 0.950 . S
C265 C264 1.382 . S
C265 C281 1.411 . S
C266 C264 1.403 . S
C266 C267 1.489 . S
C266 C280 1.411 . S
C267 C266 1.489 . S
C267 C268 1.383 . S
C267 C272 1.382 . S
C268 H245 0.950 . S
C268 C267 1.383 . S
C268 C269 1.395 . S
C269 H246 0.950 . S
C269 C268 1.395 . S
C269 C270 1.288 . S
C270 C269 1.288 . S
C270 C271 1.392 . S
C271 H247 0.951 . S
C271 C270 1.392 . S
C271 C272 1.392 . S
C272 H248 0.949 . S
C272 C267 1.382 . S
C272 C271 1.392 . S
C273 C274 1.376 . S
C273 C278 1.386 . S
C273 C279 1.483 . S
C274 H249 0.949 . S
C274 C273 1.376 . S
C274 C275 1.397 . S
C275 H250 0.950 . S
C275 C274 1.397 . S
C275 C276 1.391 . S
C276 C275 1.391 . S
C276 C277 1.405 . S
C277 H251 0.950 . S
C277 C276 1.405 . S
C277 C278 1.367 . S
C278 H252 0.950 . S
C278 C273 1.386 . S
C278 C277 1.367 . S
C279 C273 1.483 . S
C279 C280 1.382 . S
C279 C281 1.403 . S
C280 H253 0.950 . S
C280 C266 1.411 . S
C280 C279 1.382 . S
C281 C265 1.411 . S
C281 C279 1.403 . S
C281 C282 1.489 . S
C282 C281 1.489 . S
C282 C283 1.383 . S
C282 C287 1.382 . S
C283 H254 0.950 . S
C283 C282 1.383 . S
C283 C284 1.395 . S
C284 H255 0.950 . S
C284 C283 1.395 . S
C284 C285 1.288 . S
C285 C284 1.288 . S
C285 C286 1.392 . S
C286 H256 0.951 1_554 S
C286 C285 1.392 . S
C286 C287 1.392 . S
C287 H257 0.949 . S
C287 C282 1.382 . S
C287 C286 1.392 . S
C288 O300 1.241 . S
C288 O301 1.280 . S
C289 O302 1.277 . S
C289 O303 1.245 . S
C290 O314 1.247 . S
C290 O316 1.289 . S
Mg291 O292 1.926 . S
Mg291 O301 1.984 . S
Mg291 O303 1.988 1_655 S
Mg291 O304 2.061 . S
O292 Mg291 1.926 . S
O292 Mg293 1.986 1_655 S
O292 Mg294 1.917 1_655 S
Mg293 O292 1.986 1_455 S
Mg293 O300 2.042 1_455 S
Mg293 O302 2.041 . S
Mg293 O308 2.038 1_455 S
Mg293 O316 2.238 . S
Mg294 O292 1.917 1_455 S
Mg294 O295 1.917 . S
Mg294 O305 2.106 1_455 S
Mg294 O307 2.079 1_455 S
Mg294 O316 2.106 . S
Mg294 O317 2.079 . S
O295 Mg294 1.917 . S
O295 Mg296 1.926 . S
O295 Mg297 1.986 . S
Mg296 O295 1.926 . S
Mg296 O310 1.984 . S
Mg296 O313 1.988 1_455 S
Mg296 O314 2.061 . S
Mg297 O295 1.986 . S
Mg297 O305 2.238 1_455 S
Mg297 O309 2.042 . S
Mg297 O311 2.041 1_455 S
Mg297 O318 2.038 . S
C298 O304 1.247 . S
C298 O305 1.289 . S
C299 O317 1.245 . S
C299 O318 1.274 . S
O300 C288 1.241 . S
O300 Mg293 2.042 1_655 S
O301 C288 1.280 . S
O301 Mg291 1.984 . S
O302 C289 1.277 . S
O302 Mg293 2.041 . S
O303 C289 1.245 . S
O303 Mg291 1.988 1_455 S
O304 Mg291 2.061 . S
O304 C298 1.247 . S
O305 Mg294 2.106 1_655 S
O305 Mg297 2.238 1_655 S
O305 C298 1.289 . S
C306 O307 1.245 . S
C306 O308 1.274 . S
O307 Mg294 2.079 1_655 S
O307 C306 1.245 . S
O308 Mg293 2.038 1_655 S
O308 C306 1.274 . S
O309 Mg297 2.042 . S
O309 C312 1.241 . S
O310 Mg296 1.984 . S
O310 C312 1.280 . S
O311 Mg297 2.041 1_655 S
O311 C315 1.277 . S
C312 O309 1.241 . S
C312 O310 1.280 . S
O313 Mg296 1.988 1_655 S
O313 C315 1.245 . S
O314 C290 1.247 . S
O314 Mg296 2.061 . S
C315 O311 1.277 . S
C315 O313 1.245 . S
O316 C290 1.289 . S
O316 Mg293 2.238 . S
O316 Mg294 2.106 . S
O317 Mg294 2.079 . S
O317 C299 1.245 . S
O318 Mg297 2.038 . S
O318 C299 1.274 . S
C319 O331 1.241 . S
C319 O332 1.280 . S
C320 O333 1.277 . S
C320 O334 1.245 . S
C321 O345 1.247 . S
C321 O347 1.289 . S
Mg322 O323 1.926 . S
Mg322 O332 1.984 . S
Mg322 O334 1.988 1_545 S
Mg322 O335 2.061 . S
O323 Mg322 1.926 . S
O323 Mg324 1.986 . S
O323 Mg325 1.917 . S
Mg324 O323 1.986 . S
Mg324 O331 2.042 . S
Mg324 O333 2.041 1_545 S
Mg324 O339 2.038 . S
Mg324 O347 2.238 1_545 S
Mg325 O323 1.917 . S
Mg325 O326 1.917 1_545 S
Mg325 O336 2.106 . S
Mg325 O338 2.079 . S
Mg325 O347 2.106 1_545 S
Mg325 O348 2.079 1_545 S
O326 Mg325 1.917 1_565 S
O326 Mg327 1.926 . S
O326 Mg328 1.986 1_565 S
Mg327 O326 1.926 . S
Mg327 O341 1.984 . S
Mg327 O344 1.988 1_565 S
Mg327 O345 2.061 . S
Mg328 O326 1.986 1_545 S
Mg328 O336 2.238 . S
Mg328 O340 2.042 1_545 S
Mg328 O342 2.041 . S
Mg328 O349 2.038 1_545 S
C329 O335 1.247 . S
C329 O336 1.289 . S
C330 O348 1.245 . S
C330 O349 1.274 . S
O331 C319 1.241 . S
O331 Mg324 2.042 . S
O332 C319 1.280 . S
O332 Mg322 1.984 . S
O333 C320 1.277 . S
O333 Mg324 2.041 1_565 S
O334 C320 1.245 . S
O334 Mg322 1.988 1_565 S
O335 Mg322 2.061 . S
O335 C329 1.247 . S
O336 Mg325 2.106 . S
O336 Mg328 2.238 . S
O336 C329 1.289 . S
C337 O338 1.245 . S
C337 O339 1.274 . S
O338 Mg325 2.079 . S
O338 C337 1.245 . S
O339 Mg324 2.038 . S
O339 C337 1.274 . S
O340 Mg328 2.042 1_565 S
O340 C343 1.241 . S
O341 Mg327 1.984 . S
O341 C343 1.280 . S
O342 Mg328 2.041 . S
O342 C346 1.277 . S
C343 O340 1.241 . S
C343 O341 1.280 . S
O344 Mg327 1.988 1_545 S
O344 C346 1.245 . S
O345 C321 1.247 . S
O345 Mg327 2.061 . S
C346 O342 1.277 . S
C346 O344 1.245 . S
O347 C321 1.289 . S
O347 Mg324 2.238 1_565 S
O347 Mg325 2.106 1_565 S
O348 Mg325 2.079 1_565 S
O348 C330 1.245 . S
O349 Mg328 2.038 1_565 S
O349 C330 1.274 . S
C350 O362 1.241 . S
C350 O363 1.280 . S
C351 O364 1.277 . S
C351 O365 1.245 . S
C352 O376 1.247 . S
C352 O378 1.289 . S
Mg353 O354 1.926 . S
Mg353 O363 1.984 . S
Mg353 O365 1.988 . S
Mg353 O366 2.061 . S
O354 Mg353 1.926 . S
O354 Mg355 1.986 . S
O354 Mg356 1.917 . S
Mg355 O354 1.986 . S
Mg355 O362 2.042 . S
Mg355 O364 2.041 . S
Mg355 O370 2.038 . S
Mg355 O378 2.238 . S
Mg356 O354 1.917 . S
Mg356 O357 1.917 . S
Mg356 O367 2.106 . S
Mg356 O369 2.079 . S
Mg356 O378 2.106 . S
Mg356 O379 2.079 . S
O357 Mg356 1.917 . S
O357 Mg358 1.926 . S
O357 Mg359 1.986 . S
Mg358 O357 1.926 . S
Mg358 O372 1.984 . S
Mg358 O375 1.988 . S
Mg358 O376 2.061 . S
Mg359 O357 1.986 . S
Mg359 O367 2.238 . S
Mg359 O371 2.042 . S
Mg359 O373 2.041 . S
Mg359 O380 2.038 . S
C360 O366 1.247 . S
C360 O367 1.289 . S
C361 O379 1.245 . S
C361 O380 1.274 . S
O362 C350 1.241 . S
O362 Mg355 2.042 . S
O363 C350 1.280 . S
O363 Mg353 1.984 . S
O364 C351 1.277 . S
O364 Mg355 2.041 . S
O365 C351 1.245 . S
O365 Mg353 1.988 . S
O366 Mg353 2.061 . S
O366 C360 1.247 . S
O367 Mg356 2.106 . S
O367 Mg359 2.238 . S
O367 C360 1.289 . S
C368 O369 1.245 . S
C368 O370 1.274 . S
O369 Mg356 2.079 . S
O369 C368 1.245 . S
O370 Mg355 2.038 . S
O370 C368 1.274 . S
O371 Mg359 2.042 . S
O371 C374 1.241 . S
O372 Mg358 1.984 . S
O372 C374 1.280 . S
O373 Mg359 2.041 . S
O373 C377 1.277 . S
C374 O371 1.241 . S
C374 O372 1.280 . S
O375 Mg358 1.988 . S
O375 C377 1.245 . S
O376 C352 1.247 . S
O376 Mg358 2.061 . S
C377 O373 1.277 . S
C377 O375 1.245 . S
O378 C352 1.289 . S
O378 Mg355 2.238 . S
O378 Mg356 2.106 . S
O379 Mg356 2.079 . S
O379 C361 1.245 . S
O380 Mg359 2.038 . S
O380 C361 1.274 . S
C45 C299 2.496 . S
C84 C346 1.598 . S
C350 C126 1.820 . S
C315 C165 1.445 . S
C222 C330 2.251 . S
C352 C276 1.298 . S
C321 C141 1.918 . S
C180 C361 1.862 . S
C290 C237 1.790 . S
C261 C319 1.278 1_554 S
C30 C377 1.991 . S
C288 C69 1.538 . S
C306 C174 2.495 . S
C320 C213 1.598 . S
C374 C285 1.820 1_556 S
C289 C36 1.445 . S
C337 C93 2.251 . S
C117 C360 1.297 . S
C329 C270 1.917 . S
C368 C21 1.863 . S
C298 C78 1.791 . S
C343 C132 1.278 . S
C189 C351 1.992 . S
C228 C312 1.538 . S
