# Generated by pormake.
# Topology zzz, (3,6)-cn, num edge types: 1
# Building blocks:
#     Node 0, Type 0, BuildingBlock: PAMTOO_clean_linker_0, # of connection points: 3
#     Node 1, Type 0, BuildingBlock: PAMTOO_clean_linker_0, # of connection points: 3
#     Node 2, Type 0, BuildingBlock: PAMTOO_clean_linker_0, # of connection points: 3
#     Node 3, Type 0, BuildingBlock: PAMTOO_clean_linker_0, # of connection points: 3
#     Node 4, Type 0, BuildingBlock: PAMTOO_clean_linker_0, # of connection points: 3
#     Node 5, Type 0, BuildingBlock: PAMTOO_clean_linker_0, # of connection points: 3
#     Node 6, Type 0, BuildingBlock: PAMTOO_clean_linker_0, # of connection points: 3
#     Node 7, Type 0, BuildingBlock: PAMTOO_clean_linker_0, # of connection points: 3
#     Node 8, Type 1, BuildingBlock: PAMTUU_clean_sbu_0, # of connection points: 6
#     Node 9, Type 1, BuildingBlock: PAMTUU_clean_sbu_0, # of connection points: 6
#     Node 10, Type 1, BuildingBlock: PAMTUU_clean_sbu_0, # of connection points: 6
#     Node 11, Type 1, BuildingBlock: PAMTUU_clean_sbu_0, # of connection points: 6
#     Edge 12, Type (0, 1), BuildingBlock: KIFKEQ_clean_linker_1, # of connection points: 2
#     Edge 13, Type (0, 1), BuildingBlock: KIFKEQ_clean_linker_1, # of connection points: 2
#     Edge 14, Type (0, 1), BuildingBlock: KIFKEQ_clean_linker_1, # of connection points: 2
#     Edge 15, Type (0, 1), BuildingBlock: KIFKEQ_clean_linker_1, # of connection points: 2
#     Edge 16, Type (0, 1), BuildingBlock: KIFKEQ_clean_linker_1, # of connection points: 2
#     Edge 17, Type (0, 1), BuildingBlock: KIFKEQ_clean_linker_1, # of connection points: 2
#     Edge 18, Type (0, 1), BuildingBlock: KIFKEQ_clean_linker_1, # of connection points: 2
#     Edge 19, Type (0, 1), BuildingBlock: KIFKEQ_clean_linker_1, # of connection points: 2
#     Edge 20, Type (0, 1), BuildingBlock: KIFKEQ_clean_linker_1, # of connection points: 2
#     Edge 21, Type (0, 1), BuildingBlock: KIFKEQ_clean_linker_1, # of connection points: 2
#     Edge 22, Type (0, 1), BuildingBlock: KIFKEQ_clean_linker_1, # of connection points: 2
#     Edge 23, Type (0, 1), BuildingBlock: KIFKEQ_clean_linker_1, # of connection points: 2
#     Edge 24, Type (0, 1), BuildingBlock: KIFKEQ_clean_linker_1, # of connection points: 2
#     Edge 25, Type (0, 1), BuildingBlock: KIFKEQ_clean_linker_1, # of connection points: 2
#     Edge 26, Type (0, 1), BuildingBlock: KIFKEQ_clean_linker_1, # of connection points: 2
#     Edge 27, Type (0, 1), BuildingBlock: KIFKEQ_clean_linker_1, # of connection points: 2
#     Edge 28, Type (0, 1), BuildingBlock: KIFKEQ_clean_linker_1, # of connection points: 2
#     Edge 29, Type (0, 1), BuildingBlock: KIFKEQ_clean_linker_1, # of connection points: 2
#     Edge 30, Type (0, 1), BuildingBlock: KIFKEQ_clean_linker_1, # of connection points: 2
#     Edge 31, Type (0, 1), BuildingBlock: KIFKEQ_clean_linker_1, # of connection points: 2
#     Edge 32, Type (0, 1), BuildingBlock: KIFKEQ_clean_linker_1, # of connection points: 2
#     Edge 33, Type (0, 1), BuildingBlock: KIFKEQ_clean_linker_1, # of connection points: 2
#     Edge 34, Type (0, 1), BuildingBlock: KIFKEQ_clean_linker_1, # of connection points: 2
#     Edge 35, Type (0, 1), BuildingBlock: KIFKEQ_clean_linker_1, # of connection points: 2
# Relax obj value: 0.211
# Max RMSD: 0.224
# Mean RMSD: 0.119
data_MOF--net-zzz--node1-PAMTUU_clean_sbu_0--node2-PAMTOO_clean_linker_0--edge1-KIFKEQ_clean_linker_1
_symmetry_space_group_name_H-M    P1
_symmetry_Int_Tables_number       1
_symmetry_cell_setting            triclinic
loop_
_symmetry_equiv_pos_as_xyz
'x, y, z'
_cell_length_a     50.784303
_cell_length_b     55.190214
_cell_length_c     15.792204
_cell_angle_alpha  100.7989
_cell_angle_beta   90.257907
_cell_angle_gamma 91.069493
loop_
_atom_site_label
_atom_site_type_symbol
_atom_site_fract_x
_atom_site_fract_y
_atom_site_fract_z
_atom_type_partial_charge
H0 H 0.83229 0.54688 0.43873 0.0
H1 H 0.75251 0.54515 0.34236 0.0
H2 H 0.77558 0.49573 0.5087 0.0
H3 H 0.72252 0.47403 0.3718 0.0
C4 C 0.72987 0.48997 0.34442 0.0
O5 O 0.73649 0.5091 0.4124 0.0
H6 H 0.74774 0.48357 0.30661 0.0
C7 C 0.81208 0.54019 0.43746 0.0
C8 C 0.80616 0.5214 0.48328 0.0
C9 C 0.79318 0.5488 0.38506 0.0
C10 C 0.76746 0.53889 0.38192 0.0
C11 C 0.76108 0.51954 0.42443 0.0
C12 C 0.7804 0.51085 0.47623 0.0
H13 H 0.04392 0.80057 0.39023 0.0
H14 H 1.02415 0.7292 0.23991 0.0
H15 H 0.98895 0.75281 0.48846 0.0
H16 H 0.99016 0.6916 0.43617 0.0
C17 C 1.00257 0.69569 0.38261 0.0
O18 O 0.99276 0.71614 0.35522 0.0
H19 H 1.02296 0.69926 0.40918 0.0
C20 C 0.03409 0.78269 0.38438 0.0
C21 C 1.01674 0.77865 0.44901 0.0
C22 C 0.03673 0.76519 0.30839 0.0
C23 C 1.02273 0.7427 0.29903 0.0
C24 C 1.00618 0.7379 0.36511 0.0
C25 C 1.00269 0.75611 0.43938 0.0
H26 H 0.73779 0.04908 0.4544 0.0
H27 H 0.80551 0.03671 0.2915 0.0
H28 H 0.78243 0.98298 0.44413 0.0
H29 H 0.84781 0.986 0.40344 0.0
C30 C 0.84359 0.9989 0.35907 0.0
O31 O 0.81766 0.99475 0.33052 0.0
H32 H 0.84632 0.01797 0.3968 0.0
C33 C 0.75481 0.03813 0.43239 0.0
C34 C 0.75807 0.01549 0.4591 0.0
C35 C 0.7716 0.04583 0.37181 0.0
C36 C 0.79272 0.03107 0.33929 0.0
C37 C 0.79722 0.00873 0.36622 0.0
C38 C 0.77957 1.00065 0.42542 0.0
H39 H 0.52308 0.69754 0.19974 0.0
H40 H 0.51948 0.74877 0.02624 0.0
H41 H 0.55478 0.77112 0.27877 0.0
H42 H 0.51907 0.80934 0.21997 0.0
C43 C 0.52207 0.80412 0.14917 0.0
O44 O 0.54106 0.78612 0.13417 0.0
H45 H 0.50305 0.79658 0.11913 0.0
C46 C 0.52642 0.71602 0.18701 0.0
C47 C 0.53953 0.73354 0.24879 0.0
C48 C 0.51923 0.72116 0.10692 0.0
C49 C 0.52463 0.74471 0.08868 0.0
C50 C 0.53669 0.76313 0.15156 0.0
C51 C 0.54465 0.75733 0.23138 0.0
H52 H 0.23456 0.44128 0.21513 0.0
H53 H 0.31251 0.45033 0.32344 0.0
H54 H 0.28638 0.4981 0.15483 0.0
H55 H 0.31509 0.50565 0.37727 0.0
C56 C 0.33114 0.50557 0.32935 0.0
O57 O 0.32613 0.48775 0.25582 0.0
H58 H 0.33105 0.52398 0.31047 0.0
C59 C 0.25397 0.44994 0.21841 0.0
C60 C 0.25838 0.46925 0.17327 0.0
C61 C 0.27296 0.44358 0.27494 0.0
C62 C 0.29769 0.45538 0.28094 0.0
C63 C 0.30259 0.47536 0.24008 0.0
C64 C 0.28277 0.48255 0.18629 0.0
H65 H 0.03113 0.19548 0.28124 0.0
H66 H 0.03057 0.27286 0.38968 0.0
H67 H 0.07222 0.24713 0.1535 0.0
H68 H 0.09616 0.30142 0.25844 0.0
C69 C 0.08258 0.2971 0.30881 0.0
O70 O 0.0598 0.28629 0.26924 0.0
H71 H 0.0932 0.28423 0.34309 0.0
C72 C 0.03707 0.21429 0.27803 0.0
C73 C 0.05277 0.21881 0.20989 0.0
C74 C 1.02892 0.23357 0.34242 0.0
C75 C 0.03658 0.25786 0.33943 0.0
C76 C 0.05227 0.26277 0.27136 0.0
C77 C 0.06012 0.24326 0.20587 0.0
H78 H 0.33208 0.04843 0.27261 0.0
H79 H 0.25372 0.04363 0.37029 0.0
H80 H 0.27654 0.99516 0.13636 0.0
H81 H 0.24649 0.98491 0.32949 0.0
C82 C 0.22958 0.99015 0.29188 0.0
O83 O 0.23704 0.00869 0.24764 0.0
H84 H 0.22419 0.97336 0.24389 0.0
C85 C 0.31221 0.04071 0.26481 0.0
C86 C 0.30687 0.02125 0.19586 0.0
C87 C 0.2934 0.04876 0.32826 0.0
C88 C 0.26814 0.038 0.32045 0.0
C89 C 0.26176 0.0189 0.25135 0.0
C90 C 0.28118 0.0104 0.18848 0.0
H91 H 0.5406 0.30076 0.43225 0.0
H92 H 0.55058 0.24933 0.6027 0.0
H93 H 0.51116 0.22628 0.35699 0.0
H94 H 0.48944 0.20355 0.5055 0.0
C95 C 0.50785 0.20402 0.5443 0.0
O96 O 0.52856 0.21151 0.4978 0.0
H97 H 0.50542 0.21752 0.60547 0.0
C98 C 0.53832 0.28219 0.44534 0.0
C99 C 0.52515 0.26427 0.38521 0.0
C100 C 0.54742 0.27718 0.52365 0.0
C101 C 0.54367 0.25341 0.54199 0.0
C102 C 0.53091 0.23479 0.48145 0.0
C103 C 0.5213 0.24039 0.4032 0.0
Tb104 Tb 1.01224 0.00882 0.74338 0.0
Tb105 Tb 0.0532 0.99282 0.88167 0.0
C106 C 0.99235 0.99831 0.92126 0.0
C107 C 0.97938 0.0504 0.62575 0.0
C108 C 0.97549 0.09935 0.60017 0.0
C109 C 0.95546 0.08179 0.57023 0.0
C110 C 0.95737 0.05748 0.58326 0.0
C111 C 0.99938 0.06781 0.65562 0.0
C112 C 0.99746 0.09204 0.64297 0.0
C113 C 0.98082 0.0255 0.64521 0.0
O114 O 1.02259 0.042 0.83654 0.0
O115 O 0.06256 0.03158 0.88568 0.0
O116 O 0.07435 0.98892 0.75984 0.0
O117 O 0.05153 0.01571 0.69422 0.0
O118 O 0.06522 0.99276 0.00945 0.0
O119 O 0.08683 0.97315 0.90224 0.0
O120 O 1.02997 0.95995 0.82957 0.0
O121 O 1.01651 0.96917 0.7006 0.0
O122 O 0.98772 0.99473 0.8378 0.0
O123 O 1.01651 1.00271 0.95161 0.0
C124 C 0.04543 0.04825 0.87448 0.0
O125 O 1.00174 0.01314 0.61807 0.0
O126 O 0.97577 0.02433 0.72501 0.0
C127 C 0.07267 1.00269 0.70061 0.0
C128 C 0.08018 0.95313 0.01714 0.0
C129 C 0.07592 0.90511 0.05336 0.0
C130 C 0.09973 0.91881 0.06904 0.0
C131 C 0.10189 0.94259 0.05033 0.0
C132 C 0.05625 0.93988 1.00407 0.0
C133 C 0.05421 0.91607 0.02098 0.0
C134 C 0.08303 0.97627 0.98485 0.0
C135 C 1.02091 0.95307 0.75061 0.0
H136 H 0.93824 0.0869 0.53741 0.0
H137 H 0.94161 0.04431 0.5609 0.0
H138 H 1.01645 0.06268 0.68916 0.0
H139 H 1.01347 0.10494 0.66535 0.0
H140 H 0.11673 0.91116 0.09533 0.0
H141 H 0.1206 0.95251 0.05998 0.0
H142 H 0.0393 0.94765 0.97799 0.0
H143 H 0.03571 0.90607 0.00628 0.0
Tb144 Tb 0.52255 0.98628 0.73814 0.0
Tb145 Tb 0.54596 0.01784 0.91767 0.0
C146 C 0.53889 0.95935 0.88822 0.0
C147 C 0.47759 0.98023 0.56462 0.0
C148 C 0.43693 0.01347 0.55111 0.0
C149 C 0.43261 0.99353 0.59353 0.0
C150 C 0.45271 0.97708 0.60021 0.0
C151 C 0.48105 0.99876 0.5152 0.0
C152 C 0.46103 0.01535 0.50922 0.0
C153 C 0.50101 0.96906 0.59666 0.0
O154 O 0.48845 0.98892 0.82297 0.0
O155 O 0.50305 0.0191 0.93466 0.0
O156 O 0.54852 0.04133 0.82136 0.0
O157 O 0.51243 0.02492 0.74622 0.0
O158 O 0.56926 0.02193 0.02943 0.0
O159 O 0.54483 0.0516 1.00485 0.0
O160 O 0.58192 0.00636 0.84606 0.0
O161 O 0.56455 0.99049 0.71165 0.0
O162 O 0.53768 0.958 0.80411 0.0
O163 O 0.5382 0.98067 0.94221 0.0
C164 C 0.48413 1.00457 0.8949 0.0
O165 O 0.52228 0.98293 0.60366 0.0
O166 O 0.49764 0.95923 0.66502 0.0
C167 C 0.52935 0.04325 0.7676 0.0
C168 C 0.58566 0.06261 0.0726 0.0
C169 C 0.63016 0.09319 0.12293 0.0
C170 C 0.60603 0.09797 0.16587 0.0
C171 C 0.584 0.08267 0.14116 0.0
C172 C 0.60894 0.05903 0.02492 0.0
C173 C 0.63103 0.07409 0.05007 0.0
C174 C 0.56335 0.04514 0.05298 0.0
C175 C 0.58487 0.99758 0.76311 0.0
H176 H 0.41391 0.991 0.62375 0.0
H177 H 0.44922 0.96291 0.63816 0.0
H178 H 0.49995 1.00169 0.4868 0.0
H179 H 0.46502 0.0304 0.4756 0.0
H180 H 0.60452 0.11278 0.2212 0.0
H181 H 0.56596 0.08598 0.17752 0.0
H182 H 0.61044 0.04389 0.97063 0.0
H183 H 0.64924 0.06958 0.0158 0.0
Tb184 Tb 0.51571 0.48985 0.89188 0.0
Tb185 Tb 0.55487 0.50888 0.74751 0.0
C186 C 0.49422 0.49825 0.70943 0.0
C187 C 0.4901 0.44764 0.03149 0.0
C188 C 0.49296 0.40197 0.08833 0.0
C189 C 0.46961 0.41558 0.09747 0.0
C190 C 0.46819 0.43811 0.06899 0.0
C191 C 0.51362 0.43445 0.02392 0.0
C192 C 0.51503 0.41183 0.05178 0.0
C193 C 0.48739 0.46982 0.99255 0.0
O194 O 0.54266 0.46051 0.84612 0.0
O195 O 0.55338 0.46858 0.71302 0.0
O196 O 0.58121 0.50054 0.84838 0.0
O197 O 0.55218 0.50334 0.96134 0.0
O198 O 0.56481 0.5099 0.61887 0.0
O199 O 0.58724 0.531 0.72425 0.0
O200 O 0.54085 0.54156 0.83167 0.0
O201 O 0.50432 0.52803 0.89773 0.0
O202 O 0.49335 0.48483 0.77016 0.0
O203 O 0.51486 0.51223 0.70068 0.0
C204 C 0.55135 0.45331 0.76769 0.0
O205 O 0.50365 0.48832 0.01865 0.0
O206 O 0.48502 0.46533 0.90905 0.0
C207 C 0.57645 0.50266 0.93155 0.0
C208 C 0.57893 0.55023 0.6063 0.0
C209 C 0.57296 0.59577 0.54978 0.0
C210 C 0.59734 0.58373 0.54264 0.0
C211 C 0.60029 0.56126 0.57095 0.0
C212 C 0.55454 0.56195 0.61257 0.0
C213 C 0.55161 0.58447 0.58521 0.0
C214 C 0.5824 0.52748 0.64174 0.0
C215 C 0.51873 0.54568 0.87417 0.0
H216 H 0.45217 0.4085 0.12451 0.0
H217 H 0.44975 0.44782 0.07444 0.0
H218 H 0.53075 0.44148 0.9951 0.0
H219 H 0.53344 0.40209 0.04484 0.0
H220 H 0.61414 0.59153 0.51457 0.0
H221 H 0.61933 0.55259 0.56574 0.0
H222 H 0.53779 0.55379 0.6398 0.0
H223 H 0.53264 0.59319 0.59337 0.0
Tb224 Tb 0.0452 0.51124 0.76922 0.0
Tb225 Tb 1.01808 0.48153 0.90345 0.0
C226 C 1.01994 0.54012 0.93467 0.0
C227 C 0.09913 0.51804 0.64012 0.0
C228 C 0.13965 0.48377 0.59474 0.0
C229 C 0.12615 0.4937 0.531 0.0
C230 C 0.10579 0.51038 0.55347 0.0
C231 C 0.11422 0.50994 0.70389 0.0
C232 C 0.13384 0.49273 0.68167 0.0
C233 C 0.07297 0.52814 0.66328 0.0
O234 O 0.07342 0.51106 0.87507 0.0
O235 O 0.0603 0.47545 0.91707 0.0
O236 O 1.02233 0.45461 0.78514 0.0
O237 O 0.05787 0.47324 0.73616 0.0
O238 O 1.01313 0.47693 0.03174 0.0
O239 O 0.99199 0.45373 0.92776 0.0
O240 O 0.98518 0.49759 0.84472 0.0
O241 O 1.00474 0.50353 0.71971 0.0
O242 O 1.02389 0.53989 0.85246 0.0
O243 O 1.02198 0.52003 0.96747 0.0
C244 C 0.07862 0.49235 0.91281 0.0
O245 O 0.05374 0.51228 0.63985 0.0
O246 O 0.07034 0.53964 0.74288 0.0
C247 C 0.04261 0.45378 0.73396 0.0
C248 C 0.96705 0.47329 0.0451 0.0
C249 C 0.92307 0.50409 0.07543 0.0
C250 C 0.92217 0.48284 0.01059 0.0
C251 C 0.9438 0.46748 0.99619 0.0
C252 C 0.96713 0.49339 0.11462 0.0
C253 C 0.94538 0.50866 0.12948 0.0
C254 C 0.99226 0.46293 0.01009 0.0
C255 C 0.98338 0.50129 0.76504 0.0
H256 H 0.13069 0.4881 0.46337 0.0
H257 H 0.09429 0.51614 0.50305 0.0
H258 H 0.10965 0.5155 0.77131 0.0
H259 H 0.14341 0.48566 0.73311 0.0
H260 H 0.90528 0.47868 0.96792 0.0
H261 H 0.94296 0.45212 0.94223 0.0
H262 H 0.98463 0.49832 0.15402 0.0
H263 H 0.94632 0.52439 0.18203 0.0
H264 H 0.17671 0.99084 0.25024 0.0
H265 H 0.22961 1.00486 0.46868 0.0
H266 H 0.13887 0.99586 0.34771 0.0
H267 H 0.19201 0.01001 0.56632 0.0
H268 H 0.12174 0.9834 0.71022 0.0
H269 H 0.15872 0.98346 0.61291 0.0
H270 H 0.11295 0.02341 0.45565 0.0
H271 H 0.0756 0.02327 0.5536 0.0
C272 C 0.18023 0.99547 0.31913 0.0
C273 C 0.20621 0.99725 0.35155 0.0
C274 C 0.15852 0.99835 0.37523 0.0
C275 C 0.16217 1.003 0.46551 0.0
C276 C 0.18825 0.00593 0.49751 0.0
C277 C 0.20989 1.0032 0.44147 0.0
C278 C 0.11942 0.99229 0.65512 0.0
C279 C 0.09544 1.00332 0.64032 0.0
C280 C 0.14085 0.99248 0.5993 0.0
C281 C 0.13913 1.00355 0.52601 0.0
C282 C 0.11511 0.01456 0.51088 0.0
C283 C 0.09366 0.01458 0.56745 0.0
H284 H 0.47093 0.16844 0.55907 0.0
H285 H 0.55438 0.18356 0.58812 0.0
H286 H 0.47629 0.12986 0.61055 0.0
H287 H 0.56014 0.14441 0.63665 0.0
H288 H 0.55739 0.08684 0.81164 0.0
H289 H 0.55284 0.12453 0.75409 0.0
H290 H 0.49148 0.08926 0.58093 0.0
H291 H 0.49545 0.05188 0.64093 0.0
C292 C 0.49057 0.16319 0.57455 0.0
C293 C 0.51229 0.17881 0.56723 0.0
C294 C 0.4937 0.14096 0.604 0.0
C295 C 0.5187 0.13365 0.62769 0.0
C296 C 0.54051 0.14934 0.62005 0.0
C297 C 0.5373 0.1717 0.59103 0.0
C298 C 0.54291 0.0871 0.76129 0.0
C299 C 0.52673 0.06624 0.73135 0.0
C300 C 0.54042 0.10876 0.72756 0.0
C301 C 0.52179 0.11022 0.66232 0.0
C302 C 0.50577 0.08919 0.63193 0.0
C303 C 0.50814 0.06759 0.66612 0.0
H304 H 0.37587 0.53531 0.34851 0.0
H305 H 0.34491 0.46834 0.41596 0.0
H306 H 0.41481 0.533 0.43696 0.0
H307 H 0.38448 0.46497 0.50043 0.0
H308 H 0.44405 0.47953 0.7235 0.0
H309 H 0.40626 0.48019 0.62848 0.0
H310 H 0.45445 0.51573 0.46072 0.0
H311 H 0.49177 0.51608 0.55817 0.0
C312 C 0.37769 0.51967 0.38038 0.0
C313 C 0.35724 0.50182 0.37368 0.0
C314 C 0.40022 0.51825 0.43133 0.0
C315 C 0.40324 0.49879 0.47714 0.0
C316 C 0.38302 0.48054 0.46808 0.0
C317 C 0.36036 0.48215 0.41786 0.0
C318 C 0.44662 0.48747 0.66627 0.0
C319 C 0.47113 0.49781 0.6492 0.0
C320 C 0.42484 0.48769 0.61088 0.0
C321 C 0.42685 0.498 0.53567 0.0
C322 C 0.45159 0.50802 0.51823 0.0
C323 C 0.47324 0.50807 0.5742 0.0
H324 H 0.08275 0.34474 0.28153 0.0
H325 H 0.06733 0.30137 0.47694 0.0
H326 H 0.07295 0.38241 0.38444 0.0
H327 H 0.05775 0.33897 0.5806 0.0
H328 H 1.01627 0.40924 0.7136 0.0
H329 H 1.02539 0.37156 0.61086 0.0
H330 H 0.09179 0.40801 0.51468 0.0
H331 H 0.08249 0.44579 0.61639 0.0
C332 C 0.07735 0.34335 0.34674 0.0
C333 C 0.07613 0.32027 0.37185 0.0
C334 C 0.07186 0.36488 0.40581 0.0
C335 C 0.06475 0.36376 0.49107 0.0
C336 C 0.06299 0.34052 0.5154 0.0
C337 C 0.06858 0.31901 0.45635 0.0
C338 C 0.03285 0.40922 0.6707 0.0
C339 C 0.0486 0.43058 0.67333 0.0
C340 C 0.03815 0.38756 0.61201 0.0
C341 C 0.05928 0.38674 0.55429 0.0
C342 C 0.07513 0.40807 0.55732 0.0
C343 C 0.06988 0.42971 0.61614 0.0
H344 H 0.84277 0.01743 0.2069 0.0
H345 H 0.89045 0.97456 0.34788 0.0
H346 H 0.87785 0.01678 0.10035 0.0
H347 H 0.9253 0.97352 0.24152 0.0
H348 H 0.99439 1.00111 0.09709 0.0
H349 H 0.95805 1.00009 0.19683 0.0
H350 H 0.90264 0.99216 0.98491 0.0
H351 H 0.93907 0.99351 0.88507 0.0
C352 C 0.86048 0.00739 0.21416 0.0
C353 C 0.86346 0.99563 0.28533 0.0
C354 C 0.88071 0.00702 0.153 0.0
C355 C 0.90472 0.99519 0.16185 0.0
C356 C 0.90741 0.98314 0.23254 0.0
C357 C 0.88721 0.98345 0.29324 0.0
C358 C 0.97449 0.99912 0.07143 0.0
C359 C 0.96989 0.99738 0.98244 0.0
C360 C 0.95352 0.99837 0.12888 0.0
C361 C 0.92713 0.99593 0.0996 0.0
C362 C 0.92253 0.99428 0.01055 0.0
C363 C 0.94354 0.9949 0.95294 0.0
H364 H 0.54367 0.80706 0.99015 0.0
H365 H 0.51482 0.85245 0.22189 0.0
H366 H 0.55049 0.8439 0.92632 0.0
H367 H 0.52056 0.88898 0.15814 0.0
H368 H 0.55033 0.95452 0.05397 0.0
H369 H 0.54987 0.91728 0.11537 0.0
H370 H 0.5281 0.87409 0.86679 0.0
H371 H 0.52958 0.91141 0.8047 0.0
C372 C 0.53921 0.82497 0.02795 0.0
C373 C 0.52943 0.82687 0.1121 0.0
C374 C 0.54275 0.84612 0.99101 0.0
C375 C 0.53623 0.86973 0.03678 0.0
C376 C 0.52649 0.87143 0.12109 0.0
C377 C 0.52311 0.85038 0.15791 0.0
C378 C 0.54559 0.93709 0.01209 0.0
C379 C 0.53987 0.93614 0.92424 0.0
C380 C 0.54514 0.91561 0.04759 0.0
C381 C 0.53865 0.89241 0.99675 0.0
C382 C 0.53349 0.89141 0.90828 0.0
C383 C 0.53419 0.91292 0.87253 0.0
H384 H 0.68243 0.51355 0.38567 0.0
H385 H 0.72811 0.47966 0.16774 0.0
H386 H 0.64607 0.51891 0.28858 0.0
H387 H 0.69184 0.48399 0.07105 0.0
H388 H 0.62944 0.50835 0.90175 0.0
H389 H 0.66629 0.5087 1.00124 0.0
H390 H 0.61213 0.498 0.20179 0.0
H391 H 0.57527 0.49861 0.10291 0.0
C392 C 0.68487 0.50762 0.31686 0.0
C393 C 0.70851 0.4967 0.28463 0.0
C394 C 0.66384 0.51033 0.26088 0.0
C395 C 0.66562 0.50189 0.17086 0.0
C396 C 0.68953 0.49126 0.1391 0.0
C397 C 0.7105 0.4887 0.19489 0.0
C398 C 0.62532 0.50618 0.96717 0.0
C399 C 0.59916 0.50342 0.99362 0.0
C400 C 0.64661 0.50622 0.0246 0.0
C401 C 0.6426 0.50324 0.11056 0.0
C402 C 0.61634 0.50074 0.1371 0.0
C403 C 0.59503 0.50092 0.07981 0.0
H404 H 0.96608 0.65784 0.34449 0.0
H405 H 0.039 0.68486 0.2546 0.0
H406 H 0.96765 0.62121 0.23015 0.0
H407 H 0.04084 0.64818 0.14046 0.0
H408 H 1.02607 0.58738 0.90494 0.0
H409 H 1.01949 0.62596 0.00699 0.0
H410 H 0.99489 0.58452 0.20032 0.0
H411 H 1.00114 0.54616 0.09866 0.0
C412 C 0.98239 0.65592 0.29993 0.0
C413 C 1.00265 0.6739 0.30898 0.0
C414 C 0.98336 0.63495 0.23469 0.0
C415 C 1.0045 0.63164 0.17656 0.0
C416 C 1.0242 0.65021 0.18367 0.0
C417 C 1.02326 0.67112 0.2492 0.0
C418 C 1.01902 0.58654 0.96897 0.0
C419 C 1.01434 0.56367 0.99378 0.0
C420 C 1.01541 0.60863 0.0276 0.0
C421 C 1.00676 0.60835 0.11198 0.0
C422 C 1.00133 0.58546 0.13571 0.0
C423 C 1.00514 0.56343 0.0775 0.0
H424 H 0.97648 0.22407 0.34289 0.0
H425 H 0.04725 0.2259 0.49554 0.0
H426 H 0.9552 0.1968 0.42849 0.0
H427 H 1.0266 0.19813 0.57959 0.0
H428 H 0.9888 0.14273 0.70891 0.0
H429 H 0.99425 0.18348 0.67114 0.0
H430 H 0.96576 0.15388 0.4135 0.0
H431 H 0.96029 0.1135 0.45122 0.0
C432 C 0.98695 0.21959 0.39773 0.0
C433 C 1.01335 0.22701 0.4133 0.0
C434 C 0.97497 0.20372 0.44593 0.0
C435 C 0.98942 0.19476 0.50935 0.0
C436 C 1.01481 0.20469 0.53153 0.0
C437 C 1.02669 0.2207 0.48366 0.0
C438 C 0.98334 0.14509 0.64461 0.0
C439 C 0.97448 0.12482 0.58259 0.0
C440 C 0.98636 0.16844 0.62315 0.0
C441 C 0.9806 0.17196 0.53923 0.0
C442 C 0.96999 0.15202 0.47923 0.0
C443 C 0.96694 0.12874 0.5007 0.0
H444 H 0.28888 0.03736 0.48707 0.0
H445 H 0.32088 0.09284 0.35516 0.0
H446 H 0.326 0.04333 0.58526 0.0
H447 H 0.35826 0.09907 0.4545 0.0
H448 H 0.42325 0.03623 0.41841 0.0
H449 H 0.38579 0.06194 0.40967 0.0
H450 H 0.36566 0.05869 0.673 0.0
H451 H 0.40402 0.03321 0.68267 0.0
C452 C 0.30284 0.05218 0.48296 0.0
C453 C 0.30295 0.06363 0.41076 0.0
C454 C 0.32434 0.05561 0.5395 0.0
C455 C 0.34582 0.07055 0.52377 0.0
C456 C 0.34238 0.08671 0.46573 0.0
C457 C 0.32088 0.08324 0.40906 0.0
C458 C 0.4115 0.04167 0.47564 0.0
C459 C 0.41628 0.03212 0.55045 0.0
C460 C 0.39003 0.0567 0.47102 0.0
C461 C 0.37265 0.0624 0.54085 0.0
C462 C 0.37865 0.05455 0.61817 0.0
C463 C 0.40034 0.03963 0.62305 0.0
H464 H 0.59075 0.30505 0.5044 0.0
H465 H 0.5271 0.29804 0.67838 0.0
H466 H 0.5978 0.3481 0.57404 0.0
H467 H 0.53389 0.34111 0.74802 0.0
H468 H 0.5634 0.4277 0.60614 0.0
H469 H 0.56956 0.3833 0.56352 0.0
H470 H 0.56121 0.37489 0.82858 0.0
H471 H 0.55499 0.419 0.8711 0.0
C472 C 0.5791 0.31246 0.56027 0.0
C473 C 0.55842 0.29829 0.58629 0.0
C474 C 0.58282 0.3372 0.59915 0.0
C475 C 0.566 0.3482 0.66508 0.0
C476 C 0.54722 0.33322 0.69739 0.0
C477 C 0.54346 0.30844 0.65819 0.0
C478 C 0.56331 0.41645 0.65545 0.0
C479 C 0.55833 0.42695 0.74177 0.0
C480 C 0.56699 0.39099 0.63119 0.0
C481 C 0.56577 0.37551 0.69274 0.0
C482 C 0.56195 0.38621 0.77949 0.0
C483 C 0.55836 0.41158 0.8037 0.0
H484 H 0.24213 0.40114 0.25997 0.0
H485 H 0.28336 0.45611 0.44651 0.0
H486 H 0.21027 0.39526 0.3695 0.0
H487 H 0.25155 0.45144 0.55296 0.0
H488 H 0.18351 0.47418 0.68707 0.0
H489 H 0.21831 0.44593 0.63885 0.0
H490 H 0.17678 0.42189 0.39669 0.0
H491 H 0.14046 0.44738 0.44997 0.0
C492 C 0.24501 0.41122 0.32522 0.0
C493 C 0.26416 0.43022 0.34329 0.0
C494 C 0.22657 0.40812 0.38795 0.0
C495 C 0.22674 0.42455 0.46791 0.0
C496 C 0.24967 0.43909 0.49136 0.0
C497 C 0.26831 0.44183 0.42939 0.0
C498 C 0.1812 0.46223 0.62479 0.0
C499 C 0.15954 0.46417 0.57064 0.0
C500 C 0.20153 0.44608 0.59649 0.0
C501 C 0.20145 0.43249 0.51165 0.0
C502 C 0.17827 0.43223 0.4619 0.0
C503 C 0.15751 0.44762 0.49152 0.0
H504 H 0.08675 0.78365 0.30377 0.0
H505 H 1.0158 0.76647 0.15135 0.0
H506 H 0.10014 0.81329 0.21445 0.0
H507 H 1.0292 0.79605 0.06189 0.0
H508 H 0.03294 0.8834 0.11412 0.0
H509 H 1.02823 0.84188 0.1415 0.0
H510 H 0.10872 0.82718 0.06517 0.0
H511 H 0.11325 0.86877 0.03262 0.0
C512 C 0.07479 0.78523 0.24813 0.0
C513 C 0.05007 0.77318 0.23512 0.0
C514 C 0.08243 0.8022 0.19707 0.0
C515 C 0.06534 0.80732 0.13286 0.0
C516 C 0.04252 0.79258 0.11188 0.0
C517 C 0.03497 0.7755 0.16255 0.0
C518 C 0.0495 0.87126 0.10046 0.0
C519 C 0.07344 0.87954 0.07051 0.0
C520 C 0.04674 0.84736 0.11608 0.0
C521 C 0.06797 0.83118 0.10377 0.0
C522 C 0.092 0.83927 0.07421 0.0
C523 C 0.09464 0.86317 0.05683 0.0
H524 H 0.75803 0.09202 0.4544 0.0
H525 H 0.76718 0.04731 0.20156 0.0
H526 H 0.73043 0.12021 0.39292 0.0
H527 H 0.73925 0.0747 0.14057 0.0
H528 H 0.67462 0.10704 0.04232 0.0
H529 H 0.71906 0.11012 0.10347 0.0
H530 H 0.68645 0.10761 0.35416 0.0
H531 H 0.64282 0.10441 0.29393 0.0
C532 C 0.75493 0.08877 0.38523 0.0
C533 C 0.76399 0.06713 0.33301 0.0
C534 C 0.73913 0.10487 0.34997 0.0
C535 C 0.73173 0.09922 0.2624 0.0
C536 C 0.74429 0.07968 0.20837 0.0
C537 C 0.76032 0.06378 0.24346 0.0
C538 C 0.677 0.10794 0.11104 0.0
C539 C 0.6552 0.10448 0.16248 0.0
C540 C 0.70246 0.10982 0.14613 0.0
C541 C 0.70646 0.10822 0.2331 0.0
C542 C 0.68436 0.10881 0.28682 0.0
C543 C 0.65902 0.1069 0.25187 0.0
H544 H 0.47389 0.69456 0.11214 0.0
H545 H 0.54368 0.69932 0.96156 0.0
H546 H 0.46671 0.65171 0.04043 0.0
H547 H 0.53734 0.65645 0.8919 0.0
H548 H 0.49499 0.57055 0.02032 0.0
H549 H 0.48813 0.61505 0.05754 0.0
H550 H 0.51543 0.62315 0.80508 0.0
H551 H 0.5234 0.57919 0.77065 0.0
C552 C 0.48703 0.68668 0.06084 0.0
C553 C 0.50925 0.70019 0.0418 0.0
C554 C 0.48325 0.662 0.02098 0.0
C555 C 0.50177 0.65031 0.96185 0.0
C556 C 0.5225 0.66472 0.93662 0.0
C557 C 0.52613 0.68945 0.97603 0.0
C558 C 0.49907 0.58189 0.97266 0.0
C559 C 0.51019 0.57156 0.89334 0.0
C560 C 0.49501 0.60739 0.99351 0.0
C561 C 0.50158 0.6229 0.93467 0.0
C562 C 0.5108 0.61203 0.85292 0.0
C563 C 0.51529 0.58676 0.83298 0.0
H564 H 0.83194 0.58538 0.40147 0.0
H565 H 0.77484 0.54675 0.21863 0.0
H566 H 0.86245 0.58646 0.28528 0.0
H567 H 0.80411 0.55062 0.10204 0.0
H568 H 0.87085 0.49197 0.06241 0.0
H569 H 0.8343 0.51845 0.10215 0.0
H570 H 0.88729 0.5819 0.1568 0.0
H571 H 0.92444 0.55481 0.11514 0.0
C572 C 0.8253 0.57827 0.3361 0.0
C573 C 0.80219 0.5636 0.32033 0.0
C574 C 0.84273 0.57928 0.26875 0.0
C575 C 0.83649 0.56638 0.18532 0.0
C576 C 0.8101 0.55908 0.16697 0.0
C577 C 0.79312 0.55701 0.23455 0.0
C578 C 0.87477 0.51163 0.07996 0.0
C579 C 0.90062 0.52114 0.08772 0.0
C580 C 0.85362 0.52708 0.10221 0.0
C581 C 0.8577 0.55252 0.13376 0.0
C582 C 0.88343 0.5624 0.134 0.0
C583 C 0.90472 0.54683 0.11124 0.0
H584 H 0.04218 0.20907 0.03655 0.0
H585 H 0.08005 0.17951 0.23881 0.0
H586 H 0.04517 0.16883 0.94017 0.0
H587 H 0.08246 0.13939 0.14478 0.0
H588 H 0.09032 0.06918 0.95712 0.0
H589 H 0.09843 0.11241 0.02162 0.0
H590 H 1.02165 0.1305 0.93504 0.0
H591 H 1.01392 0.08759 0.86846 0.0
C592 C 0.0519 0.19417 0.0593 0.0
C593 C 0.06086 0.1973 0.1449 0.0
C594 C 0.05329 0.17103 1.00474 0.0
C595 C 0.06369 0.15067 0.03496 0.0
C596 C 0.07453 0.15454 0.11864 0.0
C597 C 0.07312 0.17756 0.17283 0.0
C598 C 0.07528 0.08242 0.95107 0.0
C599 C 0.0513 0.07477 0.90871 0.0
C600 C 0.07991 0.10725 0.98825 0.0
C601 C 0.06064 0.12503 0.98431 0.0
C602 C 0.03713 0.11749 0.93866 0.0
C603 C 0.03255 0.09272 0.90121 0.0
H604 H 0.31441 0.02062 0.02151 0.0
H605 H 0.35218 1.00268 0.24603 0.0
H606 H 0.35655 0.01538 0.94392 0.0
H607 H 0.39394 0.99761 0.16985 0.0
H608 H 0.46926 0.02579 0.05887 0.0
H609 H 0.42565 0.02654 0.12325 0.0
H610 H 0.39319 0.98663 0.88329 0.0
H611 H 0.43708 0.98576 0.81853 0.0
C612 C 0.33145 0.01477 0.05333 0.0
C613 C 0.32978 0.01188 0.13987 0.0
C614 C 0.35572 0.01196 0.00919 0.0
C615 C 0.37897 0.00652 0.05092 0.0
C616 C 0.37676 1.00231 0.13581 0.0
C617 C 0.35265 1.00488 0.17927 0.0
C618 C 0.45291 0.01718 0.01944 0.0
C619 C 0.45699 0.00562 0.93331 0.0
C620 C 0.42778 0.01746 0.05671 0.0
C621 C 0.40568 0.00645 0.00904 0.0
C622 C 0.4096 0.99534 0.92221 0.0
C623 C 0.43488 0.99475 0.88516 0.0
H624 H 0.47517 0.27724 0.35446 0.0
H625 H 0.55331 0.27307 0.24878 0.0
H626 H 0.46374 0.30765 0.26653 0.0
H627 H 0.54248 0.30384 0.16283 0.0
H628 H 0.51635 0.35949 0.00635 0.0
H629 H 0.51964 0.32022 0.05526 0.0
H630 H 0.47596 0.35018 0.28396 0.0
H631 H 0.47242 0.38916 0.23448 0.0
C632 C 0.48945 0.28188 0.30897 0.0
C633 C 0.51499 0.27253 0.30744 0.0
C634 C 0.48316 0.29977 0.26004 0.0
C635 C 0.50238 0.3088 0.20902 0.0
C636 C 0.52706 0.29741 0.20081 0.0
C637 C 0.53327 0.27951 0.24948 0.0
C638 C 0.50745 0.35767 0.06709 0.0
C639 C 0.49425 0.37762 0.11666 0.0
C640 C 0.50926 0.33508 0.09507 0.0
C641 C 0.49801 0.33181 0.17363 0.0
C642 C 0.48438 0.35165 0.22222 0.0
C643 C 0.48247 0.37417 0.19406 0.0
H644 H 0.23341 0.51382 0.18083 0.0
H645 H 0.23127 0.43822 0.04704 0.0
H646 H 0.19056 0.52038 0.11646 0.0
H647 H 0.18889 0.44463 0.98261 0.0
H648 H 0.09959 0.45344 0.97537 0.0
H649 H 0.14401 0.44961 0.03037 0.0
H650 H 0.1642 0.5226 0.98718 0.0
H651 H 0.11959 0.52655 0.93315 0.0
C652 C 0.22423 0.49883 0.13562 0.0
C653 C 0.23594 0.47551 0.11908 0.0
C654 C 0.19949 0.50249 0.09907 0.0
C655 C 0.18573 0.4829 0.04534 0.0
C656 C 0.19832 0.46004 0.0252 0.0
C657 C 0.22291 0.45643 0.06133 0.0
C658 C 0.1134 0.46875 0.97777 0.0
C659 C 0.10574 0.49028 0.94933 0.0
C660 C 0.13911 0.46649 0.00877 0.0
C661 C 0.15809 0.48571 0.01292 0.0
C662 C 0.15029 0.50741 0.98567 0.0
C663 C 0.12461 0.50962 0.95411 0.0
H664 H 0.97246 0.80575 0.47543 0.0
H665 H 0.05089 0.8002 0.57432 0.0
H666 H 0.96957 0.8477 0.55977 0.0
H667 H 0.04818 0.84193 0.65873 0.0
H668 H 0.0319 0.91465 0.83131 0.0
H669 H 1.02634 0.87067 0.7754 0.0
H670 H 0.99309 0.88654 0.54012 0.0
H671 H 0.99847 0.93072 0.59624 0.0
C672 C 0.9886 0.81315 0.51818 0.0
C673 C 1.01175 0.79972 0.51955 0.0
C674 C 0.98715 0.83727 0.56531 0.0
C675 C 1.00876 0.84825 0.61516 0.0
C676 C 0.0311 0.83399 0.62159 0.0
C677 C 0.03265 0.81004 0.57373 0.0
C678 C 1.02313 0.90887 0.76797 0.0
C679 C 1.0158 0.92633 0.71805 0.0
C680 C 1.02001 0.88359 0.73592 0.0
C681 C 1.00928 0.87507 0.65335 0.0
C682 C 1.00111 0.89249 0.60449 0.0
C683 C 1.0044 0.91783 0.63635 0.0
H684 H 0.74104 0.04134 0.61284 0.0
H685 H 0.72659 0.97335 0.4333 0.0
H686 H 0.70078 0.03474 0.6892 0.0
H687 H 0.68624 0.96624 0.51098 0.0
H688 H 0.59925 0.98077 0.59447 0.0
H689 H 0.64258 0.98188 0.52956 0.0
H690 H 0.67607 0.01309 0.77876 0.0
H691 H 0.63255 0.01244 0.84342 0.0
C692 C 0.72962 0.02453 0.5912 0.0
C693 C 0.73729 0.00782 0.51703 0.0
C694 C 0.70637 0.0207 0.6352 0.0
C695 C 0.68974 1.00002 0.60651 0.0
C696 C 0.69813 0.98261 0.53471 0.0
C697 C 0.72158 0.98643 0.49078 0.0
C698 C 0.61583 0.98773 0.63588 0.0
C699 C 0.61205 0.99662 0.72465 0.0
C700 C 0.64091 0.9882 0.59844 0.0
C701 C 0.66323 0.99763 0.64822 0.0
C702 C 0.65953 0.006 0.73745 0.0
C703 C 0.63442 0.0055 0.77495 0.0
H704 H 0.51036 0.72559 0.38454 0.0
H705 H 0.58864 0.71855 0.28034 0.0
H706 H 0.51987 0.69487 0.47292 0.0
H707 H 0.59826 0.68752 0.36767 0.0
H708 H 0.60866 0.63466 0.55875 0.0
H709 H 0.60307 0.6734 0.50733 0.0
H710 H 0.52404 0.65037 0.42297 0.0
H711 H 0.52969 0.61167 0.47206 0.0
C712 C 0.53008 0.71841 0.38407 0.0
C713 C 0.5489 0.72477 0.32666 0.0
C714 C 0.53539 0.7004 0.43327 0.0
C715 C 0.55963 0.68824 0.42592 0.0
C716 C 0.5794 0.69648 0.3752 0.0
C717 C 0.57404 0.71452 0.32584 0.0
C718 C 0.59012 0.63775 0.52874 0.0
C719 C 0.56963 0.61983 0.51996 0.0
C720 C 0.58689 0.66009 0.49973 0.0
C721 C 0.56299 0.66523 0.46193 0.0
C722 C 0.5425 0.64741 0.45374 0.0
C723 C 0.54578 0.62507 0.48198 0.0
H724 H 0.81769 0.53228 0.65661 0.0
H725 H 0.84654 0.4925 0.41536 0.0
H726 H 0.85984 0.52665 0.7262 0.0
H727 H 0.88844 0.48631 0.4842 0.0
H728 H 0.97052 0.50716 0.60011 0.0
H729 H 0.92693 0.50928 0.53671 0.0
H730 H 0.89113 0.50063 0.77701 0.0
H731 H 0.93477 0.49902 0.8408 0.0
C732 C 0.8327 0.52149 0.61924 0.0
C733 C 0.82846 0.51233 0.53086 0.0
C734 C 0.85706 0.51838 0.65892 0.0
C735 C 0.87805 0.50624 0.61111 0.0
C736 C 0.87321 0.49618 0.52338 0.0
C737 C 0.84892 0.4993 0.48397 0.0
C738 C 0.9534 0.50574 0.63968 0.0
C739 C 0.95648 0.50291 0.72595 0.0
C740 C 0.9282 0.50673 0.60291 0.0
C741 C 0.90508 0.50496 0.65099 0.0
C742 C 0.9082 0.50229 0.73755 0.0
C743 C 0.93342 0.50124 0.77426 0.0
loop_
_geom_bond_atom_site_label_1
_geom_bond_atom_site_label_2
_geom_bond_distance
_geom_bond_site_symmetry_2
_ccdc_geom_bond_type
H0 C7 0.929 . S
H1 C10 0.930 . S
H2 C12 0.929 . S
H3 C4 0.969 . S
C4 H3 0.969 . S
C4 O5 1.550 . S
C4 H6 0.973 . S
O5 C4 1.550 . S
O5 C11 1.412 . S
H6 C4 0.973 . S
C7 H0 0.929 . S
C7 C8 1.400 . S
C7 C9 1.364 . S
C8 C7 1.400 . S
C8 C12 1.377 . S
C9 C7 1.364 . S
C9 C10 1.374 . S
C10 H1 0.930 . S
C10 C9 1.374 . S
C10 C11 1.383 . S
C11 O5 1.412 . S
C11 C10 1.383 . S
C11 C12 1.394 . S
C12 H2 0.929 . S
C12 C8 1.377 . S
C12 C11 1.394 . S
H13 C20 0.928 . S
H14 C23 0.931 . S
H15 C25 0.928 . S
H16 C17 0.969 . S
C17 H16 0.969 . S
C17 O18 1.550 1_455 S
C17 H19 0.973 1_455 S
O18 C17 1.550 1_655 S
O18 C24 1.408 1_655 S
H19 C17 0.973 1_655 S
C20 H13 0.928 . S
C20 C21 1.400 1_655 S
C20 C22 1.364 . S
C21 C20 1.400 1_455 S
C21 C25 1.377 1_455 S
C22 C20 1.364 . S
C22 C23 1.375 . S
C23 H14 0.931 . S
C23 C22 1.375 . S
C23 C24 1.382 1_655 S
C24 O18 1.408 1_455 S
C24 C23 1.382 1_455 S
C24 C25 1.394 1_455 S
C25 H15 0.928 . S
C25 C21 1.377 1_655 S
C25 C24 1.394 1_655 S
H26 C33 0.928 1_565 S
H27 C36 0.937 . S
H28 C38 0.925 1_565 S
H29 C30 0.969 . S
C30 H29 0.969 . S
C30 O31 1.550 1_545 S
C30 H32 0.973 1_545 S
O31 C30 1.550 1_565 S
O31 C37 1.404 1_565 S
H32 C30 0.973 1_565 S
C33 H26 0.928 1_545 S
C33 C34 1.402 . S
C33 C35 1.363 . S
C34 C33 1.402 . S
C34 C38 1.377 . S
C35 C33 1.363 . S
C35 C36 1.374 1_545 S
C36 H27 0.937 . S
C36 C35 1.374 1_565 S
C36 C37 1.389 1_565 S
C37 O31 1.404 1_545 S
C37 C36 1.389 1_545 S
C37 C38 1.389 . S
C38 H28 0.925 1_545 S
C38 C34 1.377 . S
C38 C37 1.389 . S
H39 C46 0.929 . S
H40 C49 0.930 . S
H41 C51 0.929 . S
H42 C43 0.969 . S
C43 H42 0.969 . S
C43 O44 1.550 1_556 S
C43 H45 0.973 . S
O44 C43 1.550 1_554 S
O44 C50 1.412 . S
H45 C43 0.973 . S
C46 H39 0.929 . S
C46 C47 1.400 . S
C46 C48 1.364 1_554 S
C47 C46 1.400 . S
C47 C51 1.377 . S
C48 C46 1.364 1_556 S
C48 C49 1.374 . S
C49 H40 0.930 . S
C49 C48 1.374 . S
C49 C50 1.383 1_556 S
C50 O44 1.412 . S
C50 C49 1.383 1_554 S
C50 C51 1.394 . S
C51 H41 0.929 . S
C51 C47 1.377 . S
C51 C50 1.394 . S
H52 C59 0.929 . S
H53 C62 0.930 . S
H54 C64 0.929 . S
H55 C56 0.969 . S
C56 H55 0.969 . S
C56 O57 1.550 . S
C56 H58 0.973 . S
O57 C56 1.550 . S
O57 C63 1.412 . S
H58 C56 0.973 . S
C59 H52 0.929 . S
C59 C60 1.400 . S
C59 C61 1.364 . S
C60 C59 1.400 . S
C60 C64 1.377 . S
C61 C59 1.364 . S
C61 C62 1.374 . S
C62 H53 0.930 . S
C62 C61 1.374 . S
C62 C63 1.383 . S
C63 O57 1.412 . S
C63 C62 1.383 . S
C63 C64 1.394 . S
C64 H54 0.929 . S
C64 C60 1.377 . S
C64 C63 1.394 . S
H65 C72 0.929 . S
H66 C75 0.930 . S
H67 C77 0.929 . S
H68 C69 0.969 . S
C69 H68 0.969 . S
C69 O70 1.550 1_455 S
C69 H71 0.984 . S
O70 C69 1.550 1_655 S
O70 C76 1.412 1_655 S
H71 C69 0.984 . S
C72 H65 0.929 . S
C72 C73 1.400 . S
C72 C74 1.364 . S
C73 C72 1.400 . S
C73 C77 1.377 . S
C74 C72 1.364 . S
C74 C75 1.374 . S
C75 H66 0.930 . S
C75 C74 1.374 . S
C75 C76 1.383 . S
C76 O70 1.412 1_455 S
C76 C75 1.383 . S
C76 C77 1.394 . S
C77 H67 0.929 . S
C77 C73 1.377 . S
C77 C76 1.394 . S
H78 C85 0.928 1_565 S
H79 C88 0.923 . S
H80 C90 0.932 1_565 S
H81 C82 0.969 . S
C82 H81 0.969 . S
C82 O83 1.550 1_545 S
C82 H84 0.973 1_545 S
O83 C82 1.550 1_565 S
O83 C89 1.403 1_565 S
H84 C82 0.973 1_565 S
C85 H78 0.928 1_545 S
C85 C86 1.397 . S
C85 C87 1.365 . S
C86 C85 1.397 . S
C86 C90 1.377 . S
C87 C85 1.365 . S
C87 C88 1.374 1_545 S
C88 H79 0.923 . S
C88 C87 1.374 1_565 S
C88 C89 1.376 1_565 S
C89 O83 1.403 1_545 S
C89 C88 1.376 1_545 S
C89 C90 1.400 . S
C90 H80 0.932 1_545 S
C90 C86 1.377 . S
C90 C89 1.400 . S
H91 C98 0.929 . S
H92 C101 0.930 . S
H93 C103 0.929 . S
H94 C95 0.969 . S
C95 H94 0.969 . S
C95 O96 1.550 . S
C95 H97 0.973 . S
O96 C95 1.550 . S
O96 C102 1.412 . S
H97 C95 0.973 . S
C98 H91 0.929 . S
C98 C99 1.400 . S
C98 C100 1.364 . S
C99 C98 1.400 . S
C99 C103 1.377 . S
C100 C98 1.364 . S
C100 C101 1.374 . S
C101 H92 0.930 . S
C101 C100 1.374 . S
C101 C102 1.383 . S
C102 O96 1.412 . S
C102 C101 1.383 . S
C102 C103 1.394 . S
C103 H93 0.929 . S
C103 C99 1.377 . S
C103 C102 1.394 . S
Tb104 C113 2.764 . S
Tb104 O114 2.325 . S
Tb104 O117 2.303 1_655 S
Tb104 O121 2.322 1_545 S
Tb104 O122 2.349 . S
Tb104 O125 2.415 . S
Tb104 O126 2.399 . S
Tb105 O115 2.322 1_565 S
Tb105 O116 2.349 . S
Tb105 O118 2.415 . S
Tb105 O119 2.399 . S
Tb105 O120 2.325 . S
Tb105 O123 2.303 1_455 S
Tb105 C134 2.764 . S
C106 O122 1.268 . S
C106 O123 1.255 1_545 S
C107 C110 1.358 . S
C107 C111 1.332 . S
C107 C113 1.504 . S
C108 C109 1.373 . S
C108 C112 1.308 . S
C109 C108 1.373 . S
C109 C110 1.429 . S
C109 H136 0.932 . S
C110 C107 1.358 . S
C110 C109 1.429 . S
C110 H137 0.930 . S
C111 C107 1.332 . S
C111 C112 1.394 . S
C111 H138 0.932 1_655 S
C112 C108 1.308 . S
C112 C111 1.394 . S
C112 H139 0.929 1_655 S
C113 Tb104 2.764 . S
C113 C107 1.504 . S
C113 O125 1.239 . S
C113 O126 1.263 . S
O114 Tb104 2.325 . S
O114 C124 1.236 1_655 S
O115 Tb105 2.322 1_545 S
O115 C124 1.257 . S
O116 Tb105 2.349 . S
O116 C127 1.262 . S
O117 Tb104 2.303 1_455 S
O117 C127 1.256 1_545 S
O118 Tb105 2.415 . S
O118 C134 1.239 . S
O119 Tb105 2.399 . S
O119 C134 1.263 . S
O120 Tb105 2.325 . S
O120 C135 1.236 1_455 S
O121 Tb104 2.322 1_565 S
O121 C135 1.257 . S
O122 Tb104 2.349 . S
O122 C106 1.268 . S
O123 Tb105 2.303 1_655 S
O123 C106 1.255 1_565 S
C124 O114 1.236 1_455 S
C124 O115 1.257 . S
O125 Tb104 2.415 . S
O125 C113 1.239 . S
O126 Tb104 2.399 . S
O126 C113 1.263 . S
C127 O116 1.262 . S
C127 O117 1.256 1_565 S
C128 C131 1.358 . S
C128 C132 1.332 . S
C128 C134 1.504 1_554 S
C129 C130 1.373 . S
C129 C133 1.308 . S
C130 C129 1.373 . S
C130 C131 1.429 . S
C130 H140 0.932 . S
C131 C128 1.358 . S
C131 C130 1.429 . S
C131 H141 0.930 . S
C132 C128 1.332 . S
C132 C133 1.394 . S
C132 H142 0.932 1_455 S
C133 C129 1.308 . S
C133 C132 1.394 . S
C133 H143 0.906 1_455 S
C134 Tb105 2.764 . S
C134 O118 1.239 . S
C134 O119 1.263 . S
C134 C128 1.504 1_556 S
C135 O120 1.236 1_655 S
C135 O121 1.257 . S
H136 C109 0.932 . S
H137 C110 0.930 . S
H138 C111 0.932 1_455 S
H139 C112 0.929 1_455 S
H140 C130 0.932 . S
H141 C131 0.930 . S
H142 C132 0.932 1_655 S
H143 C133 0.906 1_655 S
Tb144 C153 2.764 . S
Tb144 O154 2.325 . S
Tb144 O157 2.303 1_565 S
Tb144 O161 2.322 . S
Tb144 O162 2.349 . S
Tb144 O165 2.415 1_565 S
Tb144 O166 2.399 . S
Tb145 O155 2.322 . S
Tb145 O156 2.349 . S
Tb145 O158 2.415 1_545 S
Tb145 O159 2.399 1_556 S
Tb145 O160 2.325 . S
Tb145 O163 2.303 1_545 S
Tb145 C174 2.764 1_556 S
C146 O162 1.261 . S
C146 O163 1.257 . S
C147 C150 1.358 . S
C147 C151 1.332 1_565 S
C147 C153 1.504 . S
C148 C149 1.373 . S
C148 C152 1.308 1_565 S
C149 C148 1.373 . S
C149 C150 1.429 . S
C149 H176 0.932 . S
C150 C147 1.358 . S
C150 C149 1.429 . S
C150 H177 0.930 . S
C151 C147 1.332 1_545 S
C151 C152 1.394 . S
C151 H178 0.932 . S
C152 C148 1.308 1_545 S
C152 C151 1.394 . S
C152 H179 0.929 . S
C153 Tb144 2.764 . S
C153 C147 1.504 . S
C153 O165 1.239 1_565 S
C153 O166 1.263 . S
O154 Tb144 2.325 . S
O154 C164 1.236 1_565 S
O155 Tb145 2.322 . S
O155 C164 1.257 . S
O156 Tb145 2.349 . S
O156 C167 1.261 . S
O157 Tb144 2.303 1_545 S
O157 C167 1.257 . S
O158 Tb145 2.415 1_565 S
O158 C174 1.239 1_566 S
O159 Tb145 2.399 1_554 S
O159 C174 1.263 . S
O160 Tb145 2.325 . S
O160 C175 1.236 1_545 S
O161 Tb144 2.322 . S
O161 C175 1.257 . S
O162 Tb144 2.349 . S
O162 C146 1.261 . S
O163 Tb145 2.303 1_565 S
O163 C146 1.257 . S
C164 O154 1.236 1_545 S
C164 O155 1.257 . S
O165 Tb144 2.415 1_545 S
O165 C153 1.239 1_545 S
O166 Tb144 2.399 . S
O166 C153 1.263 . S
C167 O156 1.261 . S
C167 O157 1.257 . S
C168 C171 1.358 . S
C168 C172 1.332 1_545 S
C168 C174 1.504 . S
C169 C170 1.373 . S
C169 C173 1.308 1_545 S
C170 C169 1.373 . S
C170 C171 1.429 . S
C170 H180 0.932 . S
C171 C168 1.358 . S
C171 C170 1.429 . S
C171 H181 0.930 . S
C172 C168 1.332 1_565 S
C172 C173 1.394 . S
C172 H182 0.932 . S
C173 C169 1.308 1_565 S
C173 C172 1.394 . S
C173 H183 0.929 . S
C174 Tb145 2.764 1_554 S
C174 O158 1.239 1_544 S
C174 O159 1.263 . S
C174 C168 1.504 . S
C175 O160 1.236 1_565 S
C175 O161 1.257 . S
H176 C149 0.932 . S
H177 C150 0.930 . S
H178 C151 0.932 . S
H179 C152 0.929 . S
H180 C170 0.932 . S
H181 C171 0.930 . S
H182 C172 0.932 . S
H183 C173 0.929 . S
Tb184 C193 2.764 1_556 S
Tb184 O194 2.325 . S
Tb184 O197 2.303 . S
Tb184 O201 2.322 . S
Tb184 O202 2.349 . S
Tb184 O205 2.415 1_556 S
Tb184 O206 2.399 . S
Tb185 O195 2.322 . S
Tb185 O196 2.349 . S
Tb185 O198 2.415 . S
Tb185 O199 2.399 . S
Tb185 O200 2.325 . S
Tb185 O203 2.303 . S
Tb185 C214 2.764 . S
C186 O202 1.261 . S
C186 O203 1.257 . S
C187 C190 1.358 . S
C187 C191 1.332 . S
C187 C193 1.504 . S
C188 C189 1.373 . S
C188 C192 1.308 . S
C189 C188 1.373 . S
C189 C190 1.429 . S
C189 H216 0.932 . S
C190 C187 1.358 . S
C190 C189 1.429 . S
C190 H217 0.930 . S
C191 C187 1.332 . S
C191 C192 1.394 . S
C191 H218 0.932 . S
C192 C188 1.308 . S
C192 C191 1.394 . S
C192 H219 0.929 . S
C193 Tb184 2.764 1_554 S
C193 C187 1.504 . S
C193 O205 1.239 . S
C193 O206 1.263 1_554 S
O194 Tb184 2.325 . S
O194 C204 1.236 . S
O195 Tb185 2.322 . S
O195 C204 1.257 . S
O196 Tb185 2.349 . S
O196 C207 1.261 . S
O197 Tb184 2.303 . S
O197 C207 1.257 . S
O198 Tb185 2.415 . S
O198 C214 1.239 . S
O199 Tb185 2.399 . S
O199 C214 1.263 . S
O200 Tb185 2.325 . S
O200 C215 1.236 . S
O201 Tb184 2.322 . S
O201 C215 1.257 . S
O202 Tb184 2.349 . S
O202 C186 1.261 . S
O203 Tb185 2.303 . S
O203 C186 1.257 . S
C204 O194 1.236 . S
C204 O195 1.257 . S
O205 Tb184 2.415 1_554 S
O205 C193 1.239 . S
O206 Tb184 2.399 . S
O206 C193 1.263 1_556 S
C207 O196 1.261 . S
C207 O197 1.257 . S
C208 C211 1.358 . S
C208 C212 1.332 . S
C208 C214 1.504 . S
C209 C210 1.373 . S
C209 C213 1.308 . S
C210 C209 1.373 . S
C210 C211 1.429 . S
C210 H220 0.932 . S
C211 C208 1.358 . S
C211 C210 1.429 . S
C211 H221 0.930 . S
C212 C208 1.332 . S
C212 C213 1.394 . S
C212 H222 0.932 . S
C213 C209 1.308 . S
C213 C212 1.394 . S
C213 H223 0.929 . S
C214 Tb185 2.764 . S
C214 O198 1.239 . S
C214 O199 1.263 . S
C214 C208 1.504 . S
C215 O200 1.236 . S
C215 O201 1.257 . S
H216 C189 0.932 . S
H217 C190 0.930 . S
H218 C191 0.932 . S
H219 C192 0.929 . S
H220 C210 0.932 . S
H221 C211 0.930 . S
H222 C212 0.932 . S
H223 C213 0.929 . S
Tb224 C233 2.764 . S
Tb224 O234 2.325 . S
Tb224 O237 2.303 . S
Tb224 O241 2.322 1_455 S
Tb224 O242 2.349 . S
Tb224 O245 2.415 . S
Tb224 O246 2.399 . S
Tb225 O235 2.322 1_655 S
Tb225 O236 2.349 . S
Tb225 O238 2.422 . S
Tb225 O239 2.399 . S
Tb225 O240 2.325 . S
Tb225 O243 2.303 . S
Tb225 C254 2.764 . S
C226 O242 1.261 . S
C226 O243 1.257 1_455 S
C227 C230 1.358 . S
C227 C231 1.332 . S
C227 C233 1.504 . S
C228 C229 1.373 . S
C228 C232 1.308 . S
C229 C228 1.373 . S
C229 C230 1.429 . S
C229 H256 0.932 . S
C230 C227 1.358 . S
C230 C229 1.429 . S
C230 H257 0.930 . S
C231 C227 1.332 . S
C231 C232 1.394 . S
C231 H258 0.932 . S
C232 C228 1.308 . S
C232 C231 1.394 . S
C232 H259 0.929 . S
C233 Tb224 2.764 . S
C233 C227 1.504 . S
C233 O245 1.239 . S
C233 O246 1.263 . S
O234 Tb224 2.325 . S
O234 C244 1.236 . S
O235 Tb225 2.322 1_455 S
O235 C244 1.257 . S
O236 Tb225 2.349 . S
O236 C247 1.263 . S
O237 Tb224 2.303 . S
O237 C247 1.256 1_455 S
O238 Tb225 2.422 . S
O238 C254 1.237 . S
O239 Tb225 2.399 . S
O239 C254 1.263 . S
O240 Tb225 2.325 . S
O240 C255 1.236 . S
O241 Tb224 2.322 1_655 S
O241 C255 1.257 . S
O242 Tb224 2.349 . S
O242 C226 1.261 . S
O243 Tb225 2.303 . S
O243 C226 1.257 1_655 S
C244 O234 1.236 . S
C244 O235 1.257 . S
O245 Tb224 2.415 . S
O245 C233 1.239 . S
O246 Tb224 2.399 . S
O246 C233 1.263 . S
C247 O236 1.263 . S
C247 O237 1.256 1_655 S
C248 C251 1.358 . S
C248 C252 1.332 . S
C248 C254 1.504 1_554 S
C249 C250 1.373 . S
C249 C253 1.308 . S
C250 C249 1.373 . S
C250 C251 1.429 . S
C250 H260 0.932 . S
C251 C248 1.358 . S
C251 C250 1.429 . S
C251 H261 0.930 . S
C252 C248 1.332 . S
C252 C253 1.394 . S
C252 H262 0.932 . S
C253 C249 1.308 . S
C253 C252 1.394 . S
C253 H263 0.929 . S
C254 Tb225 2.764 . S
C254 O238 1.237 . S
C254 O239 1.263 . S
C254 C248 1.504 1_556 S
C255 O240 1.236 . S
C255 O241 1.257 . S
H256 C229 0.932 . S
H257 C230 0.930 . S
H258 C231 0.932 . S
H259 C232 0.929 . S
H260 C250 0.932 . S
H261 C251 0.930 . S
H262 C252 0.932 . S
H263 C253 0.929 . S
H264 C272 0.950 . S
H265 C277 0.950 . S
H266 C274 0.950 . S
H267 C276 0.950 . S
H268 C278 0.950 . S
H269 C280 0.950 . S
H270 C282 0.950 . S
H271 C283 0.950 . S
C272 H264 0.950 . S
C272 C273 1.367 1_565 S
C272 C274 1.391 . S
C273 C272 1.367 1_545 S
C273 C277 1.408 . S
C274 H266 0.950 . S
C274 C272 1.391 . S
C274 C275 1.400 1_565 S
C275 C274 1.400 1_545 S
C275 C276 1.398 . S
C275 C281 1.491 . S
C276 H267 0.950 . S
C276 C275 1.398 . S
C276 C277 1.391 . S
C277 H265 0.950 . S
C277 C273 1.408 . S
C277 C276 1.391 . S
C278 H268 0.950 . S
C278 C279 1.386 . S
C278 C280 1.391 . S
C279 C278 1.386 . S
C279 C283 1.393 1_545 S
C280 H269 0.950 . S
C280 C278 1.391 . S
C280 C281 1.400 . S
C281 C275 1.491 . S
C281 C280 1.400 . S
C281 C282 1.398 1_545 S
C282 H270 0.950 . S
C282 C281 1.398 1_565 S
C282 C283 1.391 . S
C283 H271 0.950 . S
C283 C279 1.393 1_565 S
C283 C282 1.391 . S
H284 C292 0.950 . S
H285 C297 0.950 . S
H286 C294 0.950 . S
H287 C296 0.950 . S
H288 C298 0.950 . S
H289 C300 0.950 . S
H290 C302 0.950 . S
H291 C303 0.950 . S
C292 H284 0.950 . S
C292 C293 1.386 . S
C292 C294 1.391 . S
C293 C292 1.386 . S
C293 C297 1.393 . S
C294 H286 0.950 . S
C294 C292 1.391 . S
C294 C295 1.400 . S
C295 C294 1.400 . S
C295 C296 1.398 . S
C295 C301 1.491 . S
C296 H287 0.950 . S
C296 C295 1.398 . S
C296 C297 1.391 . S
C297 H285 0.950 . S
C297 C293 1.393 . S
C297 C296 1.391 . S
C298 H288 0.950 . S
C298 C299 1.386 . S
C298 C300 1.391 . S
C299 C298 1.386 . S
C299 C303 1.393 . S
C300 H289 0.950 . S
C300 C298 1.391 . S
C300 C301 1.400 . S
C301 C295 1.491 . S
C301 C300 1.400 . S
C301 C302 1.398 . S
C302 H290 0.950 . S
C302 C301 1.398 . S
C302 C303 1.391 . S
C303 H291 0.950 . S
C303 C299 1.393 . S
C303 C302 1.391 . S
H304 C312 0.950 . S
H305 C317 0.950 . S
H306 C314 0.950 . S
H307 C316 0.950 . S
H308 C318 0.950 . S
H309 C320 0.950 . S
H310 C322 0.950 . S
H311 C323 0.950 . S
C312 H304 0.950 . S
C312 C313 1.386 . S
C312 C314 1.391 . S
C313 C312 1.386 . S
C313 C317 1.393 . S
C314 H306 0.950 . S
C314 C312 1.391 . S
C314 C315 1.400 . S
C315 C314 1.400 . S
C315 C316 1.398 . S
C315 C321 1.491 . S
C316 H307 0.950 . S
C316 C315 1.398 . S
C316 C317 1.391 . S
C317 H305 0.950 . S
C317 C313 1.393 . S
C317 C316 1.391 . S
C318 H308 0.950 . S
C318 C319 1.386 . S
C318 C320 1.391 . S
C319 C318 1.386 . S
C319 C323 1.393 . S
C320 H309 0.950 . S
C320 C318 1.391 . S
C320 C321 1.400 . S
C321 C315 1.491 . S
C321 C320 1.400 . S
C321 C322 1.398 . S
C322 H310 0.950 . S
C322 C321 1.398 . S
C322 C323 1.391 . S
C323 H311 0.950 . S
C323 C319 1.393 . S
C323 C322 1.391 . S
H324 C332 0.950 . S
H325 C337 0.950 . S
H326 C334 0.950 . S
H327 C336 0.950 . S
H328 C338 0.950 . S
H329 C340 0.950 . S
H330 C342 0.953 . S
H331 C343 0.959 . S
C332 H324 0.950 . S
C332 C333 1.386 1_655 S
C332 C334 1.391 . S
C333 C332 1.386 1_455 S
C333 C337 1.393 . S
C334 H326 0.950 . S
C334 C332 1.391 . S
C334 C335 1.400 1_655 S
C335 C334 1.400 1_455 S
C335 C336 1.398 . S
C335 C341 1.491 . S
C336 H327 0.950 . S
C336 C335 1.398 . S
C336 C337 1.391 . S
C337 H325 0.950 . S
C337 C333 1.393 . S
C337 C336 1.391 . S
C338 H328 0.950 . S
C338 C339 1.386 . S
C338 C340 1.391 . S
C339 C338 1.386 . S
C339 C343 1.386 1_455 S
C340 H329 0.950 . S
C340 C338 1.391 . S
C340 C341 1.400 . S
C341 C335 1.491 . S
C341 C340 1.400 . S
C341 C342 1.395 1_455 S
C342 H330 0.953 . S
C342 C341 1.395 1_655 S
C342 C343 1.390 . S
C343 H331 0.959 . S
C343 C339 1.386 1_655 S
C343 C342 1.390 . S
H344 C352 0.949 . S
H345 C357 0.950 . S
H346 C354 0.943 . S
H347 C356 0.951 . S
H348 C358 0.950 . S
H349 C360 0.950 . S
H350 C362 0.950 . S
H351 C363 0.950 . S
C352 H344 0.949 . S
C352 C353 1.390 1_565 S
C352 C354 1.397 . S
C353 C352 1.390 1_545 S
C353 C357 1.392 . S
C354 H346 0.943 . S
C354 C352 1.397 . S
C354 C355 1.400 . S
C355 C354 1.400 . S
C355 C356 1.411 1_565 S
C355 C361 1.487 . S
C356 H347 0.951 . S
C356 C355 1.411 1_545 S
C356 C357 1.386 . S
C357 H345 0.950 . S
C357 C353 1.392 . S
C357 C356 1.386 . S
C358 H348 0.950 . S
C358 C359 1.386 1_554 S
C358 C360 1.391 . S
C359 C358 1.386 1_556 S
C359 C363 1.393 . S
C360 H349 0.950 . S
C360 C358 1.391 . S
C360 C361 1.400 . S
C361 C355 1.487 . S
C361 C360 1.400 . S
C361 C362 1.398 . S
C362 H350 0.950 . S
C362 C361 1.398 . S
C362 C363 1.391 1_554 S
C363 H351 0.950 . S
C363 C359 1.393 . S
C363 C362 1.391 1_556 S
H364 C372 0.950 . S
H365 C377 0.950 . S
H366 C374 0.950 . S
H367 C376 0.950 1_554 S
H368 C378 0.950 . S
H369 C380 0.950 1_554 S
H370 C382 0.950 . S
H371 C383 0.950 . S
C372 H364 0.950 . S
C372 C373 1.386 . S
C372 C374 1.391 . S
C373 C372 1.386 . S
C373 C377 1.393 1_556 S
C374 H366 0.950 . S
C374 C372 1.391 . S
C374 C375 1.400 . S
C375 C374 1.400 . S
C375 C376 1.398 . S
C375 C381 1.491 . S
C376 H367 0.950 1_556 S
C376 C375 1.398 . S
C376 C377 1.391 1_556 S
C377 H365 0.950 . S
C377 C373 1.393 1_554 S
C377 C376 1.391 1_554 S
C378 H368 0.950 . S
C378 C379 1.386 . S
C378 C380 1.391 . S
C379 C378 1.386 . S
C379 C383 1.393 . S
C380 H369 0.950 1_556 S
C380 C378 1.391 . S
C380 C381 1.400 . S
C381 C375 1.491 . S
C381 C380 1.400 . S
C381 C382 1.398 . S
C382 H370 0.950 . S
C382 C381 1.398 . S
C382 C383 1.391 . S
C383 H371 0.950 . S
C383 C379 1.393 . S
C383 C382 1.391 . S
H384 C392 0.950 . S
H385 C397 0.950 . S
H386 C394 0.950 . S
H387 C396 0.950 . S
H388 C398 0.950 . S
H389 C400 0.950 . S
H390 C402 0.950 . S
H391 C403 0.950 . S
C392 H384 0.950 . S
C392 C393 1.386 . S
C392 C394 1.391 . S
C393 C392 1.386 . S
C393 C397 1.393 . S
C394 H386 0.950 . S
C394 C392 1.391 . S
C394 C395 1.400 . S
C395 C394 1.400 . S
C395 C396 1.398 . S
C395 C401 1.491 . S
C396 H387 0.950 . S
C396 C395 1.398 . S
C396 C397 1.391 . S
C397 H385 0.950 . S
C397 C393 1.393 . S
C397 C396 1.391 . S
C398 H388 0.950 . S
C398 C399 1.386 . S
C398 C400 1.391 1_556 S
C399 C398 1.386 . S
C399 C403 1.393 1_556 S
C400 H389 0.950 . S
C400 C398 1.391 1_554 S
C400 C401 1.400 . S
C401 C395 1.491 . S
C401 C400 1.400 . S
C401 C402 1.398 . S
C402 H390 0.950 . S
C402 C401 1.398 . S
C402 C403 1.391 . S
C403 H391 0.950 . S
C403 C399 1.393 1_554 S
C403 C402 1.391 . S
H404 C412 0.950 . S
H405 C417 0.950 . S
H406 C414 0.950 . S
H407 C416 0.950 . S
H408 C418 0.950 . S
H409 C420 0.950 . S
H410 C422 0.950 . S
H411 C423 0.950 . S
C412 H404 0.950 . S
C412 C413 1.409 . S
C412 C414 1.391 . S
C413 C412 1.409 . S
C413 C417 1.370 1_655 S
C414 H406 0.950 . S
C414 C412 1.391 . S
C414 C415 1.405 . S
C415 C414 1.405 . S
C415 C416 1.394 1_655 S
C415 C421 1.489 1_655 S
C416 H407 0.950 . S
C416 C415 1.394 1_455 S
C416 C417 1.391 . S
C417 H405 0.950 . S
C417 C413 1.370 1_455 S
C417 C416 1.391 . S
C418 H408 0.950 . S
C418 C419 1.386 . S
C418 C420 1.391 1_556 S
C419 C418 1.386 . S
C419 C423 1.393 1_456 S
C420 H409 0.950 . S
C420 C418 1.391 1_554 S
C420 C421 1.415 . S
C421 C415 1.489 1_455 S
C421 C420 1.415 . S
C421 C422 1.385 1_455 S
C422 H410 0.950 . S
C422 C421 1.385 1_655 S
C422 C423 1.391 . S
C423 H411 0.950 . S
C423 C419 1.393 1_654 S
C423 C422 1.391 . S
H424 C432 0.950 . S
H425 C437 0.950 . S
H426 C434 0.950 . S
H427 C436 0.950 . S
H428 C438 0.950 . S
H429 C440 0.950 1_455 S
H430 C442 0.950 . S
H431 C443 0.950 . S
C432 H424 0.950 . S
C432 C433 1.386 1_655 S
C432 C434 1.391 . S
C433 C432 1.386 1_455 S
C433 C437 1.393 . S
C434 H426 0.950 . S
C434 C432 1.391 . S
C434 C435 1.400 . S
C435 C434 1.400 . S
C435 C436 1.398 1_655 S
C435 C441 1.491 . S
C436 H427 0.950 . S
C436 C435 1.398 1_455 S
C436 C437 1.391 . S
C437 H425 0.950 . S
C437 C433 1.393 . S
C437 C436 1.391 . S
C438 H428 0.950 . S
C438 C439 1.386 . S
C438 C440 1.391 . S
C439 C438 1.386 . S
C439 C443 1.393 . S
C440 H429 0.950 1_655 S
C440 C438 1.391 . S
C440 C441 1.400 . S
C441 C435 1.491 . S
C441 C440 1.400 . S
C441 C442 1.398 . S
C442 H430 0.950 . S
C442 C441 1.398 . S
C442 C443 1.391 . S
C443 H431 0.950 . S
C443 C439 1.393 . S
C443 C442 1.391 . S
H444 C452 0.950 . S
H445 C457 0.950 . S
H446 C454 0.950 . S
H447 C456 0.950 . S
H448 C458 0.960 . S
H449 C460 0.950 1_545 S
H450 C462 0.950 . S
H451 C463 0.950 . S
C452 H444 0.950 . S
C452 C453 1.356 1_565 S
C452 C454 1.391 . S
C453 C452 1.356 1_545 S
C453 C457 1.410 . S
C454 H446 0.950 . S
C454 C452 1.391 . S
C454 C455 1.400 . S
C455 C454 1.400 . S
C455 C456 1.398 1_565 S
C455 C461 1.491 . S
C456 H447 0.950 . S
C456 C455 1.398 1_545 S
C456 C457 1.391 . S
C457 H445 0.950 . S
C457 C453 1.410 . S
C457 C456 1.391 . S
C458 H448 0.960 . S
C458 C459 1.386 . S
C458 C460 1.391 . S
C459 C458 1.386 . S
C459 C463 1.393 . S
C460 H449 0.950 1_565 S
C460 C458 1.391 . S
C460 C461 1.400 . S
C461 C455 1.491 . S
C461 C460 1.400 . S
C461 C462 1.398 . S
C462 H450 0.950 . S
C462 C461 1.398 . S
C462 C463 1.391 . S
C463 H451 0.950 . S
C463 C459 1.393 . S
C463 C462 1.391 . S
H464 C472 0.950 . S
H465 C477 0.950 . S
H466 C474 0.950 . S
H467 C476 0.950 . S
H468 C478 0.950 . S
H469 C480 0.950 . S
H470 C482 0.950 . S
H471 C483 0.950 . S
C472 H464 0.950 . S
C472 C473 1.386 . S
C472 C474 1.391 . S
C473 C472 1.386 . S
C473 C477 1.393 . S
C474 H466 0.950 . S
C474 C472 1.391 . S
C474 C475 1.400 . S
C475 C474 1.400 . S
C475 C476 1.398 . S
C475 C481 1.491 . S
C476 H467 0.950 . S
C476 C475 1.398 . S
C476 C477 1.391 . S
C477 H465 0.950 . S
C477 C473 1.393 . S
C477 C476 1.391 . S
C478 H468 0.950 . S
C478 C479 1.386 . S
C478 C480 1.391 . S
C479 C478 1.386 . S
C479 C483 1.393 . S
C480 H469 0.950 . S
C480 C478 1.391 . S
C480 C481 1.400 . S
C481 C475 1.491 . S
C481 C480 1.400 . S
C481 C482 1.398 . S
C482 H470 0.950 . S
C482 C481 1.398 . S
C482 C483 1.391 . S
C483 H471 0.950 . S
C483 C479 1.393 . S
C483 C482 1.391 . S
H484 C492 0.950 . S
H485 C497 0.950 . S
H486 C494 0.950 . S
H487 C496 0.950 . S
H488 C498 0.950 . S
H489 C500 0.950 . S
H490 C502 0.950 . S
H491 C503 0.950 . S
C492 H484 0.950 . S
C492 C493 1.386 . S
C492 C494 1.391 . S
C493 C492 1.386 . S
C493 C497 1.393 . S
C494 H486 0.950 . S
C494 C492 1.391 . S
C494 C495 1.400 . S
C495 C494 1.400 . S
C495 C496 1.398 . S
C495 C501 1.491 . S
C496 H487 0.950 . S
C496 C495 1.398 . S
C496 C497 1.391 . S
C497 H485 0.950 . S
C497 C493 1.393 . S
C497 C496 1.391 . S
C498 H488 0.950 . S
C498 C499 1.386 . S
C498 C500 1.391 . S
C499 C498 1.386 . S
C499 C503 1.393 . S
C500 H489 0.950 . S
C500 C498 1.391 . S
C500 C501 1.400 . S
C501 C495 1.491 . S
C501 C500 1.400 . S
C501 C502 1.398 . S
C502 H490 0.950 . S
C502 C501 1.398 . S
C502 C503 1.391 . S
C503 H491 0.950 . S
C503 C499 1.393 . S
C503 C502 1.391 . S
H504 C512 0.950 . S
H505 C517 0.950 . S
H506 C514 0.950 . S
H507 C516 0.950 . S
H508 C518 0.950 . S
H509 C520 0.950 1_655 S
H510 C522 0.950 . S
H511 C523 0.950 . S
C512 H504 0.950 . S
C512 C513 1.377 1_455 S
C512 C514 1.391 . S
C513 C512 1.377 1_655 S
C513 C517 1.399 . S
C514 H506 0.950 . S
C514 C512 1.391 . S
C514 C515 1.400 . S
C515 C514 1.400 . S
C515 C516 1.398 1_455 S
C515 C521 1.491 . S
C516 H507 0.950 . S
C516 C515 1.398 1_655 S
C516 C517 1.391 . S
C517 H505 0.950 . S
C517 C513 1.399 . S
C517 C516 1.391 . S
C518 H508 0.950 . S
C518 C519 1.386 . S
C518 C520 1.391 . S
C519 C518 1.386 . S
C519 C523 1.393 . S
C520 H509 0.950 1_455 S
C520 C518 1.391 . S
C520 C521 1.400 . S
C521 C515 1.491 . S
C521 C520 1.400 . S
C521 C522 1.398 . S
C522 H510 0.950 . S
C522 C521 1.398 . S
C522 C523 1.391 . S
C523 H511 0.950 . S
C523 C519 1.393 . S
C523 C522 1.391 . S
H524 C532 0.950 . S
H525 C537 0.950 . S
H526 C534 0.950 . S
H527 C536 0.950 . S
H528 C538 0.950 1_565 S
H529 C540 0.933 1_565 S
H530 C542 0.950 . S
H531 C543 0.950 . S
C532 H524 0.950 . S
C532 C533 1.364 1_545 S
C532 C534 1.391 . S
C533 C532 1.364 1_565 S
C533 C537 1.403 . S
C534 H526 0.950 . S
C534 C532 1.391 . S
C534 C535 1.400 . S
C535 C534 1.400 . S
C535 C536 1.398 1_545 S
C535 C541 1.491 . S
C536 H527 0.950 . S
C536 C535 1.398 1_565 S
C536 C537 1.391 . S
C537 H525 0.950 . S
C537 C533 1.403 . S
C537 C536 1.391 . S
C538 H528 0.950 1_545 S
C538 C539 1.386 . S
C538 C540 1.400 . S
C539 C538 1.386 . S
C539 C543 1.393 . S
C540 H529 0.933 1_545 S
C540 C538 1.400 . S
C540 C541 1.409 . S
C541 C535 1.491 . S
C541 C540 1.409 . S
C541 C542 1.398 . S
C542 H530 0.950 . S
C542 C541 1.398 . S
C542 C543 1.391 . S
C543 H531 0.950 . S
C543 C539 1.393 . S
C543 C542 1.391 . S
H544 C552 0.950 . S
H545 C557 0.950 . S
H546 C554 0.950 . S
H547 C556 0.950 . S
H548 C558 0.950 . S
H549 C560 0.950 . S
H550 C562 0.950 . S
H551 C563 0.950 . S
C552 H544 0.950 . S
C552 C553 1.386 . S
C552 C554 1.391 . S
C553 C552 1.386 . S
C553 C557 1.393 . S
C554 H546 0.950 . S
C554 C552 1.391 . S
C554 C555 1.400 . S
C555 C554 1.400 . S
C555 C556 1.398 . S
C555 C561 1.491 . S
C556 H547 0.950 . S
C556 C555 1.398 . S
C556 C557 1.391 . S
C557 H545 0.950 . S
C557 C553 1.393 . S
C557 C556 1.391 . S
C558 H548 0.950 . S
C558 C559 1.386 . S
C558 C560 1.391 . S
C559 C558 1.386 . S
C559 C563 1.393 . S
C560 H549 0.950 . S
C560 C558 1.391 . S
C560 C561 1.400 . S
C561 C555 1.491 . S
C561 C560 1.400 . S
C561 C562 1.398 . S
C562 H550 0.950 . S
C562 C561 1.398 . S
C562 C563 1.391 . S
C563 H551 0.950 . S
C563 C559 1.393 . S
C563 C562 1.391 . S
H564 C572 0.950 . S
H565 C577 0.950 . S
H566 C574 0.950 . S
H567 C576 0.950 . S
H568 C578 0.950 . S
H569 C580 0.950 . S
H570 C582 0.950 . S
H571 C583 0.950 . S
C572 H564 0.950 . S
C572 C573 1.386 . S
C572 C574 1.391 . S
C573 C572 1.386 . S
C573 C577 1.393 . S
C574 H566 0.950 . S
C574 C572 1.391 . S
C574 C575 1.400 . S
C575 C574 1.400 . S
C575 C576 1.398 . S
C575 C581 1.491 . S
C576 H567 0.950 . S
C576 C575 1.398 . S
C576 C577 1.391 . S
C577 H565 0.950 . S
C577 C573 1.393 . S
C577 C576 1.391 . S
C578 H568 0.950 . S
C578 C579 1.386 . S
C578 C580 1.391 . S
C579 C578 1.386 . S
C579 C583 1.393 . S
C580 H569 0.950 . S
C580 C578 1.391 . S
C580 C581 1.400 . S
C581 C575 1.491 . S
C581 C580 1.400 . S
C581 C582 1.398 . S
C582 H570 0.950 . S
C582 C581 1.398 . S
C582 C583 1.391 . S
C583 H571 0.950 . S
C583 C579 1.393 . S
C583 C582 1.391 . S
H584 C592 0.950 . S
H585 C597 0.950 . S
H586 C594 0.950 . S
H587 C596 0.949 1_556 S
H588 C598 0.950 . S
H589 C600 0.950 . S
H590 C602 0.950 1_554 S
H591 C603 0.950 . S
C592 H584 0.950 . S
C592 C593 1.386 1_655 S
C592 C594 1.391 . S
C593 C592 1.386 1_455 S
C593 C597 1.393 . S
C594 H586 0.950 . S
C594 C592 1.391 . S
C594 C595 1.400 1_655 S
C595 C594 1.400 1_455 S
C595 C596 1.399 . S
C595 C601 1.491 1_554 S
C596 H587 0.949 1_554 S
C596 C595 1.399 . S
C596 C597 1.391 . S
C597 H585 0.950 . S
C597 C593 1.393 . S
C597 C596 1.391 . S
C598 H588 0.950 . S
C598 C599 1.386 . S
C598 C600 1.391 . S
C599 C598 1.386 . S
C599 C603 1.393 1_455 S
C600 H589 0.950 . S
C600 C598 1.391 . S
C600 C601 1.400 . S
C601 C595 1.491 1_556 S
C601 C600 1.400 . S
C601 C602 1.398 1_455 S
C602 H590 0.950 1_556 S
C602 C601 1.398 1_655 S
C602 C603 1.391 . S
C603 H591 0.950 . S
C603 C599 1.393 1_655 S
C603 C602 1.391 . S
H604 C612 0.950 . S
H605 C617 0.950 . S
H606 C614 0.950 . S
H607 C616 0.950 . S
H608 C618 0.950 1_554 S
H609 C620 0.959 . S
H610 C622 0.950 . S
H611 C623 0.950 . S
C612 H604 0.950 . S
C612 C613 1.386 1_556 S
C612 C614 1.391 . S
C613 C612 1.386 1_554 S
C613 C617 1.393 1_545 S
C614 H606 0.950 . S
C614 C612 1.391 . S
C614 C615 1.400 . S
C615 C614 1.400 . S
C615 C616 1.398 1_546 S
C615 C621 1.491 . S
C616 H607 0.950 . S
C616 C615 1.398 1_564 S
C616 C617 1.391 . S
C617 H605 0.950 . S
C617 C613 1.393 1_565 S
C617 C616 1.391 . S
C618 H608 0.950 1_556 S
C618 C619 1.386 1_565 S
C618 C620 1.388 1_556 S
C619 C618 1.386 1_545 S
C619 C623 1.393 . S
C620 H609 0.959 . S
C620 C618 1.388 1_554 S
C620 C621 1.394 1_564 S
C621 C615 1.491 . S
C621 C620 1.394 1_546 S
C621 C622 1.398 . S
C622 H610 0.950 . S
C622 C621 1.398 . S
C622 C623 1.391 . S
C623 H611 0.950 . S
C623 C619 1.393 . S
C623 C622 1.391 . S
H624 C632 0.950 . S
H625 C637 0.950 . S
H626 C634 0.950 . S
H627 C636 0.950 . S
H628 C638 0.950 . S
H629 C640 0.950 . S
H630 C642 0.950 . S
H631 C643 0.950 . S
C632 H624 0.950 . S
C632 C633 1.386 . S
C632 C634 1.391 . S
C633 C632 1.386 . S
C633 C637 1.393 . S
C634 H626 0.950 . S
C634 C632 1.391 . S
C634 C635 1.400 . S
C635 C634 1.400 . S
C635 C636 1.398 . S
C635 C641 1.491 . S
C636 H627 0.950 . S
C636 C635 1.398 . S
C636 C637 1.391 . S
C637 H625 0.950 . S
C637 C633 1.393 . S
C637 C636 1.391 . S
C638 H628 0.950 . S
C638 C639 1.386 . S
C638 C640 1.391 . S
C639 C638 1.386 . S
C639 C643 1.393 . S
C640 H629 0.950 . S
C640 C638 1.391 . S
C640 C641 1.400 . S
C641 C635 1.491 . S
C641 C640 1.400 . S
C641 C642 1.398 . S
C642 H630 0.950 . S
C642 C641 1.398 . S
C642 C643 1.391 . S
C643 H631 0.950 . S
C643 C639 1.393 . S
C643 C642 1.391 . S
H644 C652 0.950 . S
H645 C657 0.950 . S
H646 C654 0.950 . S
H647 C656 0.950 . S
H648 C658 0.950 . S
H649 C660 0.950 . S
H650 C662 0.950 . S
H651 C663 0.950 . S
C652 H644 0.950 . S
C652 C653 1.386 1_556 S
C652 C654 1.391 . S
C653 C652 1.386 1_554 S
C653 C657 1.393 . S
C654 H646 0.950 . S
C654 C652 1.391 . S
C654 C655 1.400 . S
C655 C654 1.400 . S
C655 C656 1.398 1_556 S
C655 C661 1.491 . S
C656 H647 0.950 . S
C656 C655 1.398 1_554 S
C656 C657 1.391 . S
C657 H645 0.950 . S
C657 C653 1.393 . S
C657 C656 1.391 . S
C658 H648 0.950 . S
C658 C659 1.386 . S
C658 C660 1.391 . S
C659 C658 1.386 . S
C659 C663 1.393 . S
C660 H649 0.950 . S
C660 C658 1.391 . S
C660 C661 1.400 . S
C661 C655 1.491 . S
C661 C660 1.400 . S
C661 C662 1.398 . S
C662 H650 0.950 . S
C662 C661 1.398 . S
C662 C663 1.391 . S
C663 H651 0.950 . S
C663 C659 1.393 . S
C663 C662 1.391 . S
H664 C672 0.950 . S
H665 C677 0.950 . S
H666 C674 0.950 . S
H667 C676 0.950 . S
H668 C678 0.950 . S
H669 C680 0.950 . S
H670 C682 0.950 . S
H671 C683 0.950 . S
C672 H664 0.950 . S
C672 C673 1.386 . S
C672 C674 1.391 . S
C673 C672 1.386 . S
C673 C677 1.393 1_655 S
C674 H666 0.950 . S
C674 C672 1.391 . S
C674 C675 1.400 . S
C675 C674 1.400 . S
C675 C676 1.398 1_655 S
C675 C681 1.491 . S
C676 H667 0.950 . S
C676 C675 1.398 1_455 S
C676 C677 1.391 . S
C677 H665 0.950 . S
C677 C673 1.393 1_455 S
C677 C676 1.391 . S
C678 H668 0.950 . S
C678 C679 1.386 1_455 S
C678 C680 1.391 . S
C679 C678 1.386 1_655 S
C679 C683 1.393 . S
C680 H669 0.950 . S
C680 C678 1.391 . S
C680 C681 1.400 1_455 S
C681 C675 1.491 . S
C681 C680 1.400 1_655 S
C681 C682 1.398 . S
C682 H670 0.950 . S
C682 C681 1.398 . S
C682 C683 1.391 . S
C683 H671 0.950 . S
C683 C679 1.393 . S
C683 C682 1.391 . S
H684 C692 0.950 . S
H685 C697 0.950 . S
H686 C694 0.950 . S
H687 C696 0.950 . S
H688 C698 0.950 . S
H689 C700 0.950 . S
H690 C702 0.950 . S
H691 C703 0.950 . S
C692 H684 0.950 . S
C692 C693 1.378 1_545 S
C692 C694 1.391 . S
C693 C692 1.378 1_565 S
C693 C697 1.401 . S
C694 H686 0.950 . S
C694 C692 1.391 . S
C694 C695 1.400 1_545 S
C695 C694 1.400 1_565 S
C695 C696 1.398 . S
C695 C701 1.491 . S
C696 H687 0.950 . S
C696 C695 1.398 . S
C696 C697 1.391 . S
C697 H685 0.950 . S
C697 C693 1.401 . S
C697 C696 1.391 . S
C698 H688 0.950 . S
C698 C699 1.386 . S
C698 C700 1.391 . S
C699 C698 1.386 . S
C699 C703 1.393 1_565 S
C700 H689 0.950 . S
C700 C698 1.391 . S
C700 C701 1.400 . S
C701 C695 1.491 . S
C701 C700 1.400 . S
C701 C702 1.398 1_565 S
C702 H690 0.950 . S
C702 C701 1.398 1_545 S
C702 C703 1.391 . S
C703 H691 0.950 . S
C703 C699 1.393 1_545 S
C703 C702 1.391 . S
H704 C712 0.950 . S
H705 C717 0.950 . S
H706 C714 0.950 . S
H707 C716 0.950 . S
H708 C718 0.950 . S
H709 C720 0.950 . S
H710 C722 0.950 . S
H711 C723 0.950 . S
C712 H704 0.950 . S
C712 C713 1.386 . S
C712 C714 1.391 . S
C713 C712 1.386 . S
C713 C717 1.393 . S
C714 H706 0.950 . S
C714 C712 1.391 . S
C714 C715 1.400 . S
C715 C714 1.400 . S
C715 C716 1.398 . S
C715 C721 1.491 . S
C716 H707 0.950 . S
C716 C715 1.398 . S
C716 C717 1.391 . S
C717 H705 0.950 . S
C717 C713 1.393 . S
C717 C716 1.391 . S
C718 H708 0.950 . S
C718 C719 1.386 . S
C718 C720 1.391 . S
C719 C718 1.386 . S
C719 C723 1.393 . S
C720 H709 0.950 . S
C720 C718 1.391 . S
C720 C721 1.400 . S
C721 C715 1.491 . S
C721 C720 1.400 . S
C721 C722 1.398 . S
C722 H710 0.950 . S
C722 C721 1.398 . S
C722 C723 1.391 . S
C723 H711 0.950 . S
C723 C719 1.393 . S
C723 C722 1.391 . S
H724 C732 0.950 . S
H725 C737 0.950 . S
H726 C734 0.950 . S
H727 C736 0.950 . S
H728 C738 0.950 . S
H729 C740 0.950 . S
H730 C742 0.950 . S
H731 C743 0.950 . S
C732 H724 0.950 . S
C732 C733 1.386 . S
C732 C734 1.391 . S
C733 C732 1.386 . S
C733 C737 1.393 . S
C734 H726 0.950 . S
C734 C732 1.391 . S
C734 C735 1.400 . S
C735 C734 1.400 . S
C735 C736 1.398 . S
C735 C741 1.491 . S
C736 H727 0.950 . S
C736 C735 1.398 . S
C736 C737 1.391 . S
C737 H725 0.950 . S
C737 C733 1.393 . S
C737 C736 1.391 . S
C738 H728 0.950 . S
C738 C739 1.386 . S
C738 C740 1.391 . S
C739 C738 1.386 . S
C739 C743 1.393 . S
C740 H729 0.950 . S
C740 C738 1.391 . S
C740 C741 1.400 . S
C741 C735 1.491 . S
C741 C740 1.400 . S
C741 C742 1.398 . S
C742 H730 0.950 . S
C742 C741 1.398 . S
C742 C743 1.391 . S
C743 H731 0.950 . S
C743 C739 1.393 . S
C743 C742 1.391 . S
C273 C82 1.701 . S
C279 C127 2.000 1_545 S
C299 C167 1.730 . S
C293 C95 1.698 . S
C319 C186 2.010 . S
C313 C56 1.741 . S
C339 C247 1.419 1_455 S
C333 C69 1.233 . S
C359 C106 2.003 1_565 S
C353 C30 1.717 . S
C373 C43 1.647 . S
C379 C146 1.736 . S
C393 C4 1.707 . S
C399 C207 2.014 . S
C413 C17 1.213 1_655 S
C419 C226 1.407 . S
C439 C108 0.878 . S
C433 C74 0.862 . S
C459 C148 0.329 . S
C453 C87 0.356 . S
C479 C204 0.926 . S
C473 C100 0.844 . S
C493 C61 0.486 . S
C499 C228 0.469 . S
C513 C22 0.884 . S
C519 C129 0.884 . S
C539 C169 0.350 . S
C533 C35 0.411 1_565 S
C559 C215 0.932 . S
C553 C48 0.908 . S
C573 C9 0.461 . S
C579 C249 0.464 . S
C593 C73 1.479 . S
C599 C124 1.596 . S
C613 C86 2.137 . S
C619 C164 2.341 . S
C639 C188 1.513 . S
C633 C99 1.494 . S
C659 C244 2.334 . S
C653 C60 2.152 . S
C673 C21 1.481 1_655 S
C679 C135 1.603 . S
C699 C175 2.348 . S
C693 C34 2.134 1_565 S
C719 C209 1.494 . S
C713 C47 1.494 . S
C733 C8 2.129 . S
C739 C255 2.335 . S
