# Generated by pormake.
# Topology apo, (3,6)-cn, num edge types: 1
# Building blocks:
#     Node 0, Type 0, BuildingBlock: BETDIP_clean_linker_0, # of connection points: 3
#     Node 1, Type 0, BuildingBlock: BETDIP_clean_linker_0, # of connection points: 3
#     Node 2, Type 0, BuildingBlock: BETDIP_clean_linker_0, # of connection points: 3
#     Node 3, Type 0, BuildingBlock: BETDIP_clean_linker_0, # of connection points: 3
#     Node 4, Type 0, BuildingBlock: BETDIP_clean_linker_0, # of connection points: 3
#     Node 5, Type 0, BuildingBlock: BETDIP_clean_linker_0, # of connection points: 3
#     Node 6, Type 0, BuildingBlock: BETDIP_clean_linker_0, # of connection points: 3
#     Node 7, Type 0, BuildingBlock: BETDIP_clean_linker_0, # of connection points: 3
#     Node 8, Type 1, BuildingBlock: KUMJIN_clean_sbu_1, # of connection points: 6
#     Node 9, Type 1, BuildingBlock: KUMJIN_clean_sbu_1, # of connection points: 6
#     Node 10, Type 1, BuildingBlock: KUMJIN_clean_sbu_1, # of connection points: 6
#     Node 11, Type 1, BuildingBlock: KUMJIN_clean_sbu_1, # of connection points: 6
#     Edge 12, Type (0, 1), BuildingBlock: OJICUG_clean_linker_0, # of connection points: 2
#     Edge 13, Type (0, 1), BuildingBlock: OJICUG_clean_linker_0, # of connection points: 2
#     Edge 14, Type (0, 1), BuildingBlock: OJICUG_clean_linker_0, # of connection points: 2
#     Edge 15, Type (0, 1), BuildingBlock: OJICUG_clean_linker_0, # of connection points: 2
#     Edge 16, Type (0, 1), BuildingBlock: OJICUG_clean_linker_0, # of connection points: 2
#     Edge 17, Type (0, 1), BuildingBlock: OJICUG_clean_linker_0, # of connection points: 2
#     Edge 18, Type (0, 1), BuildingBlock: OJICUG_clean_linker_0, # of connection points: 2
#     Edge 19, Type (0, 1), BuildingBlock: OJICUG_clean_linker_0, # of connection points: 2
#     Edge 20, Type (0, 1), BuildingBlock: OJICUG_clean_linker_0, # of connection points: 2
#     Edge 21, Type (0, 1), BuildingBlock: OJICUG_clean_linker_0, # of connection points: 2
#     Edge 22, Type (0, 1), BuildingBlock: OJICUG_clean_linker_0, # of connection points: 2
#     Edge 23, Type (0, 1), BuildingBlock: OJICUG_clean_linker_0, # of connection points: 2
#     Edge 24, Type (0, 1), BuildingBlock: OJICUG_clean_linker_0, # of connection points: 2
#     Edge 25, Type (0, 1), BuildingBlock: OJICUG_clean_linker_0, # of connection points: 2
#     Edge 26, Type (0, 1), BuildingBlock: OJICUG_clean_linker_0, # of connection points: 2
#     Edge 27, Type (0, 1), BuildingBlock: OJICUG_clean_linker_0, # of connection points: 2
#     Edge 28, Type (0, 1), BuildingBlock: OJICUG_clean_linker_0, # of connection points: 2
#     Edge 29, Type (0, 1), BuildingBlock: OJICUG_clean_linker_0, # of connection points: 2
#     Edge 30, Type (0, 1), BuildingBlock: OJICUG_clean_linker_0, # of connection points: 2
#     Edge 31, Type (0, 1), BuildingBlock: OJICUG_clean_linker_0, # of connection points: 2
#     Edge 32, Type (0, 1), BuildingBlock: OJICUG_clean_linker_0, # of connection points: 2
#     Edge 33, Type (0, 1), BuildingBlock: OJICUG_clean_linker_0, # of connection points: 2
#     Edge 34, Type (0, 1), BuildingBlock: OJICUG_clean_linker_0, # of connection points: 2
#     Edge 35, Type (0, 1), BuildingBlock: OJICUG_clean_linker_0, # of connection points: 2
# Relax obj value: 0.037
# Max RMSD: 0.218
# Mean RMSD: 0.168
data_MOF--net-apo--node1-KUMJIN_clean_sbu_1--node2-BETDIP_clean_linker_0--edge1-OJICUG_clean_linker_0
_symmetry_space_group_name_H-M    P1
_symmetry_Int_Tables_number       1
_symmetry_cell_setting            triclinic
loop_
_symmetry_equiv_pos_as_xyz
'x, y, z'
_cell_length_a     20.573545
_cell_length_b     30.409015
_cell_length_c     39.566363
_cell_angle_alpha  89.687171
_cell_angle_beta   89.997552
_cell_angle_gamma 90.912614
loop_
_atom_site_label
_atom_site_type_symbol
_atom_site_fract_x
_atom_site_fract_y
_atom_site_fract_z
_atom_type_partial_charge
H0 H 0.2342 0.35845 0.45544 0.0
H1 H 0.28635 0.40254 0.35535 0.0
H2 H 0.35107 0.47627 0.44126 0.0
H3 H 0.20363 0.3631 0.33916 0.0
C4 C 0.19772 0.33562 0.35654 0.0
C5 C 0.25902 0.38182 0.43895 0.0
C6 C 0.29329 0.41794 0.45287 0.0
C7 C 0.25444 0.37633 0.40382 0.0
C8 C 0.28654 0.40681 0.38245 0.0
C9 C 0.32118 0.44284 0.39574 0.0
C10 C 0.32449 0.44834 0.43097 0.0
N11 N 0.21802 0.33974 0.39084 0.0
H12 H 0.2231 0.16567 0.94626 0.0
H13 H 0.17466 0.11785 0.84713 0.0
H14 H 0.12156 0.04141 0.93472 0.0
H15 H 0.27878 0.14938 0.83806 0.0
C16 C 0.2716 0.18112 0.84989 0.0
C17 C 0.20015 0.14103 0.93034 0.0
C18 C 0.1718 0.10299 0.94501 0.0
C19 C 0.20313 0.14608 0.89509 0.0
C20 C 0.17417 0.11389 0.87437 0.0
C21 C 0.14414 0.07649 0.88859 0.0
C22 C 0.14363 0.07085 0.92383 0.0
N23 N 0.23706 0.18303 0.881 0.0
H24 H 0.71471 0.1452 0.5862 0.0
H25 H 0.72869 0.09277 0.68688 0.0
H26 H 0.82593 0.0289 0.60508 0.0
H27 H 0.63405 0.12601 0.69322 0.0
C28 C 0.64129 0.15678 0.67958 0.0
C29 C 0.73348 0.12071 0.60349 0.0
C30 C 0.77206 0.08649 0.59132 0.0
C31 C 0.71655 0.12277 0.63769 0.0
C32 C 0.74024 0.09098 0.66029 0.0
C33 C 0.77919 0.05668 0.64882 0.0
C34 C 0.79482 0.05469 0.6142 0.0
N35 N 0.67684 0.1577 0.64879 0.0
H36 H 0.76616 0.33571 0.09197 0.0
H37 H 0.74376 0.3918 0.19061 0.0
H38 H 0.65297 0.45234 0.1049 0.0
H39 H 0.83732 0.35964 0.20066 0.0
C40 C 0.83373 0.32872 0.18715 0.0
C41 C 0.74569 0.36062 0.10812 0.0
C42 C 0.70772 0.39419 0.09409 0.0
C43 C 0.76017 0.36003 0.14271 0.0
C44 C 0.73423 0.39241 0.16375 0.0
C45 C 0.69605 0.42607 0.15036 0.0
C46 C 0.6831 0.42677 0.11545 0.0
N47 N 0.80049 0.32633 0.15566 0.0
H48 H 0.70069 0.68215 0.59557 0.0
H49 H 0.68256 0.62084 0.692 0.0
H50 H 0.60594 0.55573 0.60304 0.0
H51 H 0.78819 0.64981 0.69641 0.0
C52 C 0.78215 0.68227 0.68533 0.0
C53 C 0.68297 0.65466 0.61072 0.0
C54 C 0.64851 0.61982 0.59555 0.0
C55 C 0.69808 0.65369 0.64495 0.0
C56 C 0.67511 0.61866 0.66507 0.0
C57 C 0.64195 0.58217 0.6507 0.0
C58 C 0.62985 0.58313 0.61541 0.0
N59 N 0.73762 0.68814 0.65831 0.0
H60 H 0.76653 0.84494 0.08647 0.0
H61 H 0.79837 0.88512 0.18921 0.0
H62 H 0.90086 0.951 0.10903 0.0
H63 H 0.69675 0.85616 0.19457 0.0
C64 C 0.69911 0.82607 0.17997 0.0
C65 C 0.79177 0.86596 0.10432 0.0
C66 C 0.83438 0.89965 0.09282 0.0
C67 C 0.77871 0.86024 0.13894 0.0
C68 C 0.80852 0.88874 0.16251 0.0
C69 C 0.85092 0.92257 0.15163 0.0
C70 C 0.86535 0.92644 0.11703 0.0
N71 N 0.7351 0.82579 0.14925 0.0
H72 H 0.26404 0.83341 0.44569 0.0
H73 H 0.23554 0.88827 0.34696 0.0
H74 H 0.17047 0.95816 0.4347 0.0
H75 H 0.23282 0.81766 0.33145 0.0
C76 C 0.2694 0.80269 0.3474 0.0
C77 C 0.24524 0.85944 0.42981 0.0
C78 C 0.21762 0.8967 0.44447 0.0
C79 C 0.24979 0.85548 0.39474 0.0
C80 C 0.22806 0.88987 0.37395 0.0
C81 C 0.1987 0.92712 0.38784 0.0
C82 C 0.19383 0.93021 0.42334 0.0
N83 N 0.27837 0.81716 0.38118 0.0
H84 H 0.26806 0.67671 0.9395 0.0
H85 H 0.30227 0.62165 0.84184 0.0
H86 H 0.36358 0.5526 0.93154 0.0
H87 H 0.29475 0.69184 0.82422 0.0
C88 C 0.25869 0.70575 0.84091 0.0
C89 C 0.28828 0.65081 0.92418 0.0
C90 C 0.31581 0.61401 0.93968 0.0
C91 C 0.28482 0.65435 0.88908 0.0
C92 C 0.30848 0.6202 0.86894 0.0
C93 C 0.33762 0.58316 0.88373 0.0
C94 C 0.34083 0.58039 0.91939 0.0
N95 N 0.25395 0.69168 0.8751 0.0
Eu96 Eu 0.07835 0.11583 0.23018 0.0
C97 C 0.81958 0.06248 0.28053 0.0
N98 N 0.84817 0.10335 0.28118 0.0
C99 C 0.7562 0.13324 0.2522 0.0
C100 C 0.7595 0.05537 0.26405 0.0
C101 C 0.81529 0.13887 0.26918 0.0
C102 C 0.72876 0.09123 0.24907 0.0
C103 C 0.81965 0.98552 0.29807 0.0
C104 C 0.84895 0.02772 0.29759 0.0
C105 C 0.76094 0.97829 0.28078 0.0
C106 C 0.73103 0.01306 0.26379 0.0
Eu107 Eu 0.94935 0.10742 0.31018 0.0
N108 N 0.90717 0.03506 0.31315 0.0
C109 C 0.8504 0.95176 0.31589 0.0
C110 C 0.93644 0.00277 0.33145 0.0
C111 C 0.90876 0.96052 0.33286 0.0
H112 H 0.83285 0.17191 0.27339 0.0
H113 H 0.93248 0.93473 0.34694 0.0
H114 H 0.20403 0.05854 0.26343 0.0
H115 H 0.07847 0.27781 0.17044 0.0
H116 H 0.98162 0.0097 0.34448 0.0
H117 H 0.82932 0.9189 0.31687 0.0
H118 H 0.03226 0.20566 0.18765 0.0
H119 H 0.73117 0.16148 0.24213 0.0
H120 H 0.73794 0.94599 0.28063 0.0
H121 H 0.68519 0.00705 0.25101 0.0
H122 H 0.31908 0.07111 0.27711 0.0
H123 H 0.6826 0.0871 0.23619 0.0
H124 H 0.19346 0.29615 0.1832 0.0
N125 N 0.18967 0.12341 0.24443 0.0
C126 C 0.21893 0.16202 0.23491 0.0
C127 C 0.29124 0.09718 0.26569 0.0
C128 C 0.28533 0.17022 0.24171 0.0
C129 C 0.22532 0.0905 0.25846 0.0
C130 C 0.32122 0.13736 0.25764 0.0
N131 N 0.11863 0.18474 0.21165 0.0
C132 C 0.08169 0.21398 0.19427 0.0
C133 C 0.21133 0.2339 0.20812 0.0
C134 C 0.18248 0.19346 0.21803 0.0
C135 C 0.17311 0.26469 0.19117 0.0
C136 C 0.10811 0.25455 0.18404 0.0
H137 H 0.37237 0.14235 0.26321 0.0
H138 H 0.36487 0.2175 0.23729 0.0
H139 H 0.30001 0.27332 0.20811 0.0
O140 O 0.08389 0.11942 0.17507 0.0
O141 O 0.09879 0.1664 0.27086 0.0
O142 O 0.02558 0.16199 0.3164 0.0
O143 O 0.1112 0.0596 0.20085 0.0
O144 O 0.97952 0.14767 0.22649 0.0
O145 O 0.9473 0.17073 0.27933 0.0
O146 O 0.95103 0.09359 0.36466 0.0
O147 O 0.96451 0.05068 0.27332 0.0
O148 O 0.97438 0.09355 0.22742 0.0
O149 O 0.8809 0.13842 0.34443 0.0
O150 O 0.05432 0.09088 0.31935 0.0
O151 O 0.08899 0.0603 0.26912 0.0
C152 C 0.0763 0.17943 0.30032 0.0
C153 C 0.16241 0.0762 0.14797 0.0
C154 C 0.2017 0.07692 0.08954 0.0
C155 C 0.26359 0.06527 0.10127 0.0
C156 C 0.22488 0.06521 0.15914 0.0
C157 C 0.27509 0.05981 0.13584 0.0
C158 C 0.1513 0.08258 0.11314 0.0
C159 C 0.95593 0.17775 0.24671 0.0
C160 C 0.10784 0.08037 0.17192 0.0
C161 C 0.31401 0.21061 0.23211 0.0
C162 C 0.2771 0.24238 0.21543 0.0
C163 C 0.95861 0.05574 0.24066 0.0
C164 C 0.84828 0.09499 0.39127 0.0
C165 C 0.80182 0.07477 0.4462 0.0
C166 C 0.75095 0.05234 0.42951 0.0
C167 C 0.79611 0.07326 0.37531 0.0
C168 C 0.85072 0.09598 0.42681 0.0
C169 C 0.74816 0.05175 0.39432 0.0
C170 C 0.08852 0.06229 0.30253 0.0
C171 C 0.89986 0.11672 0.37101 0.0
H172 H 0.3033 0.06092 0.08369 0.0
H173 H 0.23483 0.06054 0.18578 0.0
H174 H 0.32309 0.05119 0.14461 0.0
H175 H 0.10315 0.09107 0.10436 0.0
H176 H 0.71229 0.0362 0.4437 0.0
H177 H 0.79191 0.07331 0.34816 0.0
H178 H 0.89058 0.11307 0.43928 0.0
H179 H 0.70824 0.03501 0.38172 0.0
Eu180 Eu 0.4274 0.3849 0.73263 0.0
C181 C 0.71291 0.40073 0.77946 0.0
N182 N 0.67103 0.36561 0.78059 0.0
C183 C 0.75229 0.32012 0.75566 0.0
C184 C 0.77553 0.39706 0.76526 0.0
C185 C 0.69148 0.32508 0.77081 0.0
C186 C 0.79413 0.35643 0.75236 0.0
C187 C 0.73916 0.47558 0.79663 0.0
C188 C 0.69505 0.43969 0.79478 0.0
C189 C 0.80054 0.4725 0.78143 0.0
C190 C 0.81856 0.43341 0.76564 0.0
Eu191 Eu 0.56898 0.3782 0.80674 0.0
N192 N 0.63502 0.44203 0.80889 0.0
C193 C 0.72024 0.51341 0.81388 0.0
C194 C 0.61708 0.47808 0.82682 0.0
C195 C 0.65909 0.51453 0.82923 0.0
H196 H 0.66224 0.29601 0.77552 0.0
H197 H 0.64446 0.54335 0.84304 0.0
H198 H 0.31215 0.44416 0.76898 0.0
H199 H 0.41169 0.21805 0.68122 0.0
H200 H 0.57007 0.47859 0.83902 0.0
H201 H 0.75272 0.54168 0.81583 0.0
H202 H 0.45729 0.29296 0.68726 0.0
H203 H 0.7675 0.28804 0.74734 0.0
H204 H 0.83481 0.4999 0.78222 0.0
H205 H 0.86664 0.43121 0.75466 0.0
H206 H 0.20154 0.43319 0.79256 0.0
H207 H 0.84173 0.35229 0.7412 0.0
H208 H 0.30709 0.19814 0.70863 0.0
N209 N 0.32046 0.37775 0.75351 0.0
C210 C 0.29084 0.33776 0.75033 0.0
C211 C 0.22629 0.40602 0.78093 0.0
C212 C 0.22817 0.32985 0.76361 0.0
C213 C 0.28883 0.41213 0.76767 0.0
C214 C 0.19606 0.36458 0.77921 0.0
N215 N 0.38386 0.3138 0.72109 0.0
C216 C 0.41365 0.28405 0.70085 0.0
C217 C 0.29471 0.26267 0.73036 0.0
C218 C 0.32395 0.30463 0.73409 0.0
C219 C 0.32782 0.23079 0.71204 0.0
C220 C 0.387 0.24183 0.69667 0.0
H221 H 0.1478 0.35987 0.78971 0.0
H222 H 0.15188 0.28083 0.77127 0.0
H223 H 0.21009 0.22199 0.74209 0.0
O224 O 0.40073 0.38167 0.67925 0.0
O225 O 0.40171 0.36058 0.78563 0.0
O226 O 0.49187 0.32373 0.80407 0.0
O227 O 0.39616 0.44383 0.70529 0.0
O228 O 0.51832 0.34489 0.72233 0.0
O229 O 0.55169 0.31771 0.7742 0.0
O230 O 0.55851 0.3877 0.86151 0.0
O231 O 0.56958 0.43619 0.76962 0.0
O232 O 0.53329 0.39979 0.72356 0.0
O233 O 0.6288 0.34234 0.84274 0.0
O234 O 0.47702 0.415 0.81873 0.0
O235 O 0.438 0.44425 0.76798 0.0
C236 C 0.42842 0.32696 0.80079 0.0
C237 C 0.33084 0.43458 0.65546 0.0
C238 C 0.28466 0.4416 0.59859 0.0
C239 C 0.22886 0.46012 0.61285 0.0
C240 C 0.27441 0.45265 0.66915 0.0
C241 C 0.22372 0.46527 0.64786 0.0
C242 C 0.33538 0.42868 0.62022 0.0
C243 C 0.54471 0.31408 0.74122 0.0
C244 C 0.38685 0.42307 0.67687 0.0
C245 C 0.19975 0.28771 0.76092 0.0
C246 C 0.23299 0.25417 0.74439 0.0
C247 C 0.56123 0.43435 0.73679 0.0
C248 C 0.65749 0.38197 0.89175 0.0
C249 C 0.69601 0.40141 0.94829 0.0
C250 C 0.75249 0.4201 0.93382 0.0
C251 C 0.71543 0.39958 0.87816 0.0
C252 C 0.64827 0.38244 0.92703 0.0
C253 C 0.76213 0.41897 0.899 0.0
C254 C 0.44577 0.44515 0.80127 0.0
C255 C 0.60738 0.36285 0.86914 0.0
H256 H 0.18884 0.47011 0.59691 0.0
H257 H 0.2697 0.45728 0.69616 0.0
H258 H 0.18031 0.47931 0.65853 0.0
H259 H 0.37913 0.41496 0.60956 0.0
H260 H 0.79017 0.43451 0.94957 0.0
H261 H 0.72518 0.39787 0.85146 0.0
H262 H 0.60426 0.36823 0.93785 0.0
H263 H 0.80638 0.43264 0.88816 0.0
Eu264 Eu 0.05618 0.90125 0.72279 0.0
C265 C 0.79691 0.83 0.77932 0.0
N266 N 0.82293 0.87103 0.78335 0.0
C267 C 0.72151 0.90275 0.76692 0.0
C268 C 0.73297 0.82387 0.76712 0.0
C269 C 0.78465 0.9071 0.77968 0.0
C270 C 0.69605 0.86099 0.75986 0.0
C271 C 0.80457 0.75142 0.78938 0.0
C272 C 0.83223 0.79412 0.79016 0.0
C273 C 0.74251 0.74494 0.77533 0.0
C274 C 0.70688 0.78108 0.76409 0.0
Eu275 Eu 0.93295 0.87412 0.80168 0.0
N276 N 0.89254 0.80122 0.80307 0.0
C277 C 0.83967 0.71666 0.80338 0.0
C278 C 0.92563 0.76804 0.81838 0.0
C279 C 0.90007 0.72514 0.81839 0.0
H280 H 0.80253 0.93944 0.78652 0.0
H281 H 0.92701 0.69865 0.82983 0.0
H282 H 0.20173 0.88367 0.75694 0.0
H283 H 0.96243 0.05266 0.66704 0.0
H284 H 0.97241 0.77476 0.82986 0.0
H285 H 0.82007 0.68338 0.80328 0.0
H286 H 0.9696 0.97253 0.67592 0.0
H287 H 0.69221 0.93158 0.76301 0.0
H288 H 0.72096 0.71226 0.77386 0.0
H289 H 0.65823 0.77573 0.7543 0.0
H290 H 0.29724 0.9268 0.77705 0.0
H291 H 0.64679 0.85769 0.75041 0.0
H292 H 0.04402 0.10256 0.69316 0.0
N293 N 0.14899 0.94013 0.74229 0.0
C294 C 0.14929 0.98453 0.73845 0.0
C295 C 0.25577 0.94344 0.76646 0.0
C296 C 0.20226 0.01045 0.74978 0.0
C297 C 0.20178 0.91914 0.75516 0.0
C298 C 0.25569 0.98933 0.76415 0.0
N299 N 0.04828 0.97739 0.71049 0.0
C300 C 0.00276 0.99416 0.68916 0.0
C301 C 0.09654 0.04965 0.71708 0.0
C302 C 0.09683 0.00378 0.72257 0.0
C303 C 0.04601 0.06751 0.698 0.0
C304 C -0.00027 0.03948 0.68333 0.0
H305 H 0.29743 0.00809 0.77307 0.0
H306 H 0.24058 0.07691 0.75472 0.0
H307 H 0.14815 0.11126 0.7259 0.0
O308 O 0.07259 0.91134 0.66888 0.0
O309 O 0.07427 0.92625 0.77655 0.0
O310 O 0.97254 0.94293 0.79417 0.0
O311 O 0.12512 0.86066 0.69488 0.0
O312 O 0.94777 0.9094 0.71527 0.0
O313 O 0.91208 0.93278 0.76714 0.0
O314 O 0.97034 0.88478 0.85302 0.0
O315 O 0.96211 0.82083 0.7651 0.0
O316 O 0.96924 0.85544 0.71381 0.0
O317 O 0.86807 0.87347 0.84513 0.0
O318 O 0.03731 0.84996 0.80758 0.0
O319 O 0.08578 0.8426 0.75428 0.0
C320 C 0.0353 0.95025 0.79489 0.0
C321 C 0.17433 0.89441 0.64638 0.0
C322 C 0.22261 0.90762 0.59069 0.0
C323 C 0.27867 0.9248 0.60647 0.0
C324 C 0.23076 0.91148 0.66163 0.0
C325 C 0.28269 0.92648 0.64171 0.0
C326 C 0.17067 0.89231 0.61095 0.0
C327 C 0.90748 0.93182 0.73395 0.0
C328 C 0.11675 0.88157 0.66642 0.0
C329 C 0.20065 0.05635 0.74588 0.0
C330 C 0.14789 0.07592 0.72957 0.0
C331 C 0.95061 0.82183 0.73262 0.0
C332 C 0.89689 0.91758 0.89107 0.0
C333 C 0.8692 0.93882 0.94888 0.0
C334 C 0.85191 0.9806 0.93632 0.0
C335 C 0.88037 0.95948 0.87939 0.0
C336 C 0.89231 0.90754 0.92571 0.0
C337 C 0.85832 0.99087 0.90201 0.0
C338 C 0.08291 0.83472 0.78717 0.0
C339 C 0.91311 0.8829 0.86699 0.0
H340 H 0.31968 0.93646 0.59157 0.0
H341 H 0.23456 0.91364 0.68877 0.0
H342 H 0.32611 0.93968 0.65362 0.0
H343 H 0.1266 0.87978 0.59915 0.0
H344 H 0.832 0.00533 0.95272 0.0
H345 H 0.88295 0.96744 0.8527 0.0
H346 H 0.90627 0.87517 0.93431 0.0
H347 H 0.84471 0.02303 0.89281 0.0
Eu348 Eu 0.4393 0.60491 0.22124 0.0
C349 C 0.70505 0.65668 0.27706 0.0
N350 N 0.67487 0.61663 0.27889 0.0
C351 C 0.77027 0.58268 0.25667 0.0
C352 C 0.76807 0.6615 0.26334 0.0
C353 C 0.70823 0.57956 0.27102 0.0
C354 C 0.79983 0.62393 0.25216 0.0
C355 C 0.70649 0.73386 0.29237 0.0
C356 C 0.67485 0.69245 0.2913 0.0
C357 C 0.76771 0.73935 0.27711 0.0
C358 C 0.79838 0.70324 0.26253 0.0
Eu359 Eu 0.5672 0.61555 0.30089 0.0
N360 N 0.61527 0.68626 0.30541 0.0
C361 C 0.6762 0.7682 0.30944 0.0
C362 C 0.58683 0.71886 0.32352 0.0
C363 C 0.61655 0.76046 0.32552 0.0
H364 H 0.68758 0.54733 0.27602 0.0
H365 H 0.59338 0.78653 0.33932 0.0
H366 H 0.29899 0.63774 0.25376 0.0
H367 H 0.49804 0.44724 0.16353 0.0
H368 H 0.54067 0.71274 0.33584 0.0
H369 H 0.69901 0.8005 0.3109 0.0
H370 H 0.51089 0.52656 0.17469 0.0
H371 H 0.79566 0.55321 0.24961 0.0
H372 H 0.79244 0.77107 0.2772 0.0
H373 H 0.84646 0.70765 0.25173 0.0
H374 H 0.19115 0.60616 0.26909 0.0
H375 H 0.84824 0.62621 0.24144 0.0
H376 H 0.40102 0.40685 0.18501 0.0
N377 N 0.3364 0.57675 0.23747 0.0
C378 C 0.32428 0.53346 0.2315 0.0
C379 C 0.22827 0.58532 0.25873 0.0
C380 C 0.26376 0.51399 0.23995 0.0
C381 C 0.28926 0.60308 0.2502 0.0
C382 C 0.21559 0.5405 0.25382 0.0
N383 N 0.4289 0.52943 0.20708 0.0
C384 C 0.4715 0.50853 0.18649 0.0
C385 C 0.36084 0.46411 0.20915 0.0
C386 C 0.37247 0.5089 0.2165 0.0
C387 C 0.40805 0.44128 0.19116 0.0
C388 C 0.46302 0.46388 0.17915 0.0
H389 H 0.16838 0.5268 0.26056 0.0
H390 H 0.20711 0.45329 0.2406 0.0
H391 H 0.29203 0.40961 0.2135 0.0
O392 O 0.42877 0.60101 0.16668 0.0
O393 O 0.41101 0.57682 0.27323 0.0
O394 O 0.50908 0.55355 0.29152 0.0
O395 O 0.3784 0.6517 0.19346 0.0
O396 O 0.54467 0.58644 0.21426 0.0
O397 O 0.57319 0.55674 0.26552 0.0
O398 O 0.53976 0.61629 0.35452 0.0
O399 O 0.5508 0.67398 0.26609 0.0
O400 O 0.53438 0.64351 0.2139 0.0
O401 O 0.63105 0.58894 0.33965 0.0
O402 O 0.46627 0.64461 0.30866 0.0
O403 O 0.42454 0.66346 0.25544 0.0
C404 C 0.44586 0.55312 0.29411 0.0
C405 C 0.33145 0.62347 0.14241 0.0
C406 C 0.29092 0.6097 0.08529 0.0
C407 C 0.23041 0.597 0.09902 0.0
C408 C 0.2706 0.61101 0.15562 0.0
C409 C 0.22034 0.59796 0.13396 0.0
C410 C 0.34111 0.62312 0.10725 0.0
C411 C 0.57818 0.55865 0.23239 0.0
C412 C 0.38768 0.63275 0.1644 0.0
C413 C 0.25308 0.46897 0.234 0.0
C414 C 0.30156 0.44406 0.21869 0.0
C415 C 0.5574 0.67517 0.23316 0.0
C416 C 0.62861 0.62558 0.39178 0.0
C417 C 0.64577 0.64133 0.45151 0.0
C418 C 0.69114 0.67441 0.4425 0.0
C419 C 0.67547 0.65796 0.38345 0.0
C420 C 0.61447 0.61686 0.42598 0.0
C421 C 0.70609 0.68243 0.40867 0.0
C422 C 0.42681 0.66722 0.28875 0.0
C423 C 0.595 0.60086 0.36484 0.0
H424 H 0.19069 0.58687 0.08271 0.0
H425 H 0.26207 0.61076 0.18254 0.0
H426 H 0.17354 0.58823 0.1443 0.0
H427 H 0.38847 0.63205 0.09704 0.0
H428 H 0.71606 0.69346 0.46175 0.0
H429 H 0.68896 0.66416 0.3575 0.0
H430 H 0.57908 0.59149 0.43268 0.0
H431 H 0.74188 0.70746 0.40197 0.0
C432 C 0.17443 0.00667 0.37507 0.0
C433 C 0.17305 0.9623 0.36511 0.0
H434 H 0.14886 0.07295 0.36295 0.0
C435 C 0.1465 0.95178 0.3332 0.0
H436 H 0.19563 0.01644 0.39897 0.0
C437 C 0.12188 0.98455 0.31204 0.0
C438 C 0.1217 0.02842 0.32265 0.0
H439 H 0.14303 0.91802 0.32477 0.0
H440 H 0.10041 0.9753 0.28805 0.0
C441 C 0.14836 0.03921 0.35426 0.0
C442 C 0.39085 0.55718 0.82982 0.0
C443 C 0.36378 0.54749 0.86188 0.0
H444 H 0.43672 0.53227 0.78518 0.0
C445 C 0.36184 0.50336 0.87276 0.0
H446 H 0.39459 0.59072 0.82065 0.0
C447 C 0.38771 0.47024 0.85272 0.0
C448 C 0.41478 0.48015 0.82095 0.0
H449 H 0.34005 0.49413 0.89671 0.0
H450 H 0.38625 0.43667 0.86207 0.0
C451 C 0.41529 0.52377 0.80941 0.0
C452 C 0.57199 0.5135 0.66214 0.0
C453 C 0.621 0.54359 0.67254 0.0
H454 H 0.51702 0.45478 0.67337 0.0
C455 C 0.64978 0.53639 0.70448 0.0
H456 H 0.54673 0.51742 0.63841 0.0
C457 C 0.62863 0.50209 0.72551 0.0
C458 C 0.58127 0.47181 0.71474 0.0
H459 H 0.68938 0.5567 0.71372 0.0
H460 H 0.65046 0.49905 0.75005 0.0
C461 C 0.5537 0.47758 0.68259 0.0
C462 C 0.87962 1.00054 0.16573 0.0
C463 C 0.87721 0.95606 0.1756 0.0
H464 H 0.907 0.06633 0.17837 0.0
C465 C 0.90003 0.94455 0.20797 0.0
H466 H 0.86086 0.01087 0.14142 0.0
C467 C 0.92623 0.97681 0.22951 0.0
C468 C 0.92984 0.02103 0.21904 0.0
H469 H 0.89895 0.91058 0.21635 0.0
H470 H 0.94464 0.96707 0.25403 0.0
C471 C 0.90586 0.03247 0.18704 0.0
C472 C 0.80801 0.97894 0.66342 0.0
C473 C 0.80406 0.02324 0.67301 0.0
H474 H 0.84281 0.91492 0.67585 0.0
C475 C 0.82599 0.03547 0.70544 0.0
H476 H 0.78995 0.96808 0.6391 0.0
C477 C 0.85469 0.00462 0.72689 0.0
C478 C 0.86289 0.96127 0.71601 0.0
H479 H 0.82418 0.06934 0.71362 0.0
H480 H 0.87479 0.01543 0.75081 0.0
C481 C 0.83734 0.94834 0.68464 0.0
C482 C 0.6455 0.44993 0.20507 0.0
C483 C 0.67053 0.46071 0.17288 0.0
H484 H 0.59757 0.47294 0.24961 0.0
C485 C 0.67089 0.50488 0.16229 0.0
H486 H 0.64406 0.41616 0.2139 0.0
C487 C 0.64418 0.53717 0.1827 0.0
C488 C 0.61668 0.526 0.21414 0.0
H489 H 0.69122 0.51444 0.13804 0.0
H490 H 0.64312 0.57076 0.17344 0.0
C491 C 0.61918 0.48238 0.22563 0.0
C492 C 0.31587 0.49681 0.34799 0.0
C493 C 0.35316 0.47447 0.37211 0.0
H494 H 0.31562 0.54026 0.30545 0.0
C495 C 0.42106 0.47962 0.37148 0.0
H496 H 0.26336 0.4934 0.34802 0.0
C497 C 0.45123 0.5054 0.34629 0.0
C498 C 0.41396 0.52705 0.32158 0.0
H499 H 0.45083 0.46247 0.38971 0.0
H500 H 0.5038 0.50795 0.34601 0.0
C501 C 0.34589 0.52328 0.32335 0.0
C502 C 0.04921 0.04387 0.85773 0.0
C503 C 0.11534 0.04278 0.8662 0.0
H504 H 0.97211 0.01575 0.82804 0.0
C505 C 0.15484 0.01085 0.8517 0.0
H506 H 0.01812 0.06854 0.86853 0.0
C507 C 0.12861 0.98041 0.8289 0.0
C508 C 0.06264 0.98182 0.81974 0.0
H509 H 0.20608 0.00961 0.85792 0.0
H510 H 0.16 0.95567 0.81862 0.0
C511 C 0.02305 0.01367 0.83463 0.0
C512 C 0.15695 0.12836 1.00501 0.0
C513 C 0.17557 0.09558 0.98217 0.0
H514 H 0.14945 0.14775 0.05702 0.0
C515 C 0.20051 0.0561 0.99501 0.0
H516 H 0.13745 0.15905 0.9958 0.0
C517 C 0.20832 0.04996 0.02985 0.0
C518 C 0.19021 0.08281 0.05269 0.0
H519 H 0.21573 0.03041 0.97801 0.0
H520 H 0.22879 0.01952 0.03898 0.0
C521 C 0.16351 0.12182 0.03997 0.0
C522 C 0.27792 0.46533 0.50409 0.0
C523 C 0.29432 0.42452 0.49019 0.0
H524 H 0.26146 0.50256 0.54914 0.0
C525 C 0.30935 0.38968 0.51225 0.0
H526 H 0.26566 0.49269 0.48777 0.0
C527 C 0.30772 0.39548 0.54739 0.0
C528 C 0.28973 0.43599 0.56127 0.0
H529 H 0.32241 0.35791 0.50229 0.0
H530 H 0.319 0.36795 0.56373 0.0
C531 C 0.27507 0.47088 0.5392 0.0
C532 C 0.7063 0.43681 0.03969 0.0
C533 C 0.69716 0.39665 0.05693 0.0
H534 H 0.71237 0.46978 0.99179 0.0
C535 C 0.68139 0.35875 0.0382 0.0
H536 H 0.7189 0.46653 0.05334 0.0
C537 C 0.6772 0.36072 1.00287 0.0
C538 C 0.68955 0.4005 0.98565 0.0
H539 H 0.67345 0.32743 0.05083 0.0
H540 H 0.66733 0.33077 0.98897 0.0
C541 C 0.70284 0.43866 1.00446 0.0
C542 C 0.80297 0.12045 0.53527 0.0
C543 C 0.78606 0.08298 0.55455 0.0
H544 H 0.82196 0.14714 0.48588 0.0
C545 C 0.77943 0.04226 0.53816 0.0
H546 H 0.80911 0.15219 0.54723 0.0
C547 C 0.78692 0.03938 0.50314 0.0
C548 C 0.80162 0.07708 0.4837 0.0
H549 H 0.76607 0.01283 0.55224 0.0
H550 H 0.77996 0.00772 0.49115 0.0
C551 C 0.81099 0.11749 0.50021 0.0
C552 C 0.85769 0.95205 0.04442 0.0
C553 C 0.84435 0.90884 0.05583 0.0
H554 H 0.87969 0.9948 1.00311 0.0
C555 C 0.83986 0.87528 0.03152 0.0
H556 H 0.85983 0.97939 0.06178 0.0
C557 C 0.84773 0.88478 0.99701 0.0
C558 C 0.86182 0.928 0.98576 0.0
H559 H 0.8304 0.8415 0.039 0.0
H560 H 0.8417 0.85813 0.97923 0.0
C561 C 0.86753 0.96126 1.0102 0.0
C562 C 0.6165 0.66205 0.54389 0.0
C563 C 0.63531 0.62201 0.55861 0.0
H564 H 0.60481 0.69932 0.49829 0.0
C565 C 0.64806 0.58617 0.53739 0.0
H566 H 0.60497 0.69 0.55954 0.0
C567 C 0.64685 0.59142 0.50216 0.0
C568 C 0.63327 0.6326 0.48775 0.0
H569 H 0.66291 0.55497 0.54794 0.0
H570 H 0.66066 0.56421 0.48627 0.0
C571 C 0.616 0.66738 0.50888 0.0
C572 C 0.33732 0.64654 0.9967 0.0
C573 C 0.31582 0.61073 0.97712 0.0
H574 H 0.34643 0.67417 0.04619 0.0
C575 C 0.28902 0.57355 0.99347 0.0
H576 H 0.35828 0.67558 0.9847 0.0
C577 C 0.28151 0.57295 0.02865 0.0
C578 C 0.30159 0.60925 0.04815 0.0
H579 H 0.27162 0.54566 0.97893 0.0
H580 H 0.25957 0.54423 0.04061 0.0
C581 C 0.33069 0.64569 0.03185 0.0
C582 C 0.19424 0.86467 0.50191 0.0
C583 C 0.21488 0.90058 0.48187 0.0
H584 H 0.1804 0.83879 0.55193 0.0
C585 C 0.23596 0.9394 0.49788 0.0
H586 H 0.1773 0.83443 0.49027 0.0
C587 C 0.23809 0.94181 0.53318 0.0
C588 C 0.21839 0.90564 0.55322 0.0
H589 H 0.25253 0.96749 0.48309 0.0
H590 H 0.2552 0.972 0.54484 0.0
C591 C 0.19563 0.86725 0.53719 0.0
C592 C 0.16062 0.29026 0.30804 0.0
C593 C 0.16748 0.29474 0.34315 0.0
H594 H 0.1261 0.2506 0.26721 0.0
C595 C 0.1444 0.26075 0.36442 0.0
H596 H 0.17767 0.31605 0.29107 0.0
C597 C 0.11435 0.22313 0.35064 0.0
C598 C 0.10819 0.21861 0.31542 0.0
H599 H 0.14874 0.26344 0.39161 0.0
H600 H 0.09649 0.19744 0.36746 0.0
C601 C 0.13166 0.25258 0.29434 0.0
C602 C 0.29211 0.26271 0.84385 0.0
C603 C 0.3099 0.21922 0.83699 0.0
H604 H 0.31535 0.33142 0.83684 0.0
C605 C 0.36544 0.21171 0.81741 0.0
H606 H 0.24893 0.26934 0.8585 0.0
C607 C 0.40402 0.24689 0.80593 0.0
C608 C 0.38673 0.29031 0.81293 0.0
H609 H 0.37979 0.17848 0.81153 0.0
H610 H 0.44698 0.24018 0.79117 0.0
C611 C 0.32984 0.29808 0.83145 0.0
C612 C 0.61417 0.23697 0.67614 0.0
C613 C 0.61592 0.19735 0.69452 0.0
H614 H 0.58967 0.30527 0.6766 0.0
C615 C 0.59412 0.19642 0.72808 0.0
H616 H 0.63073 0.23856 0.65018 0.0
C617 C 0.57157 0.23452 0.74325 0.0
C618 C 0.56923 0.27411 0.72493 0.0
H619 H 0.59531 0.16626 0.74278 0.0
H620 H 0.55577 0.2329 0.76933 0.0
C621 C 0.59061 0.27505 0.6912 0.0
C622 C 0.89094 0.29221 0.23475 0.0
C623 C 0.86496 0.2898 0.20199 0.0
H624 H 0.93996 0.25828 0.27473 0.0
C625 C 0.86876 0.25023 0.18404 0.0
H626 H 0.88842 0.32241 0.24907 0.0
C627 C 0.89845 0.21377 0.1986 0.0
C628 C 0.92442 0.21619 0.23141 0.0
H629 H 0.84909 0.24739 0.15875 0.0
H630 H 0.90072 0.18359 0.18426 0.0
C631 C 0.92009 0.25561 0.24945 0.0
C632 C 0.82032 0.76129 0.68329 0.0
C633 C 0.82703 0.71817 0.69568 0.0
H634 H 0.85516 0.82818 0.68521 0.0
C635 C 0.87744 0.70905 0.7184 0.0
H636 H 0.78191 0.76928 0.6657 0.0
C637 C 0.91936 0.74261 0.72931 0.0
C638 C 0.91147 0.7859 0.71779 0.0
H639 H 0.88385 0.67604 0.72815 0.0
H640 H 0.9572 0.7349 0.74734 0.0
C641 C 0.86245 0.79491 0.6942 0.0
C642 C 0.66234 0.74656 0.17512 0.0
C643 C 0.66104 0.7872 0.19193 0.0
H644 H 0.63007 0.67892 0.17501 0.0
C645 C 0.62322 0.79094 0.22124 0.0
H646 H 0.69109 0.74269 0.15244 0.0
C647 C 0.58818 0.75478 0.23388 0.0
C648 C 0.59062 0.71385 0.21773 0.0
H649 H 0.6211 0.82188 0.23462 0.0
H650 H 0.55937 0.75883 0.25651 0.0
C651 C 0.62722 0.71016 0.18791 0.0
C652 C 0.35218 0.74321 0.35338 0.0
C653 C 0.30883 0.76711 0.33323 0.0
H654 H 0.42298 0.69246 0.35528 0.0
C655 C 0.30349 0.75736 0.29877 0.0
H656 H 0.35714 0.74996 0.38011 0.0
C657 C 0.34149 0.72478 0.28445 0.0
C658 C 0.38533 0.70088 0.3044 0.0
H659 H 0.27039 0.77538 0.28273 0.0
H660 H 0.33657 0.71859 0.25763 0.0
C661 C 0.38987 0.71023 0.33912 0.0
C662 C 0.16851 0.75931 0.8487 0.0
C663 C 0.21544 0.74018 0.82785 0.0
H664 H 0.09019 0.80433 0.85235 0.0
C665 C 0.22014 0.75344 0.79395 0.0
H666 H 0.16379 0.74983 0.87502 0.0
C667 C 0.17785 0.78472 0.78087 0.0
C668 C 0.12995 0.80336 0.8015 0.0
H669 H 0.25605 0.7392 0.77743 0.0
H670 H 0.18236 0.79382 0.75446 0.0
C671 C 0.12627 0.79062 0.83567 0.0
loop_
_geom_bond_atom_site_label_1
_geom_bond_atom_site_label_2
_geom_bond_distance
_geom_bond_site_symmetry_2
_ccdc_geom_bond_type
H0 C5 0.930 . S
H1 C8 0.930 . S
H2 C10 0.930 . S
H3 C4 1.016 . S
C4 H3 1.016 . S
C4 N11 1.286 . S
C5 H0 0.930 . S
C5 C6 1.397 . S
C5 C7 1.361 . S
C6 C5 1.397 . S
C6 C10 1.390 . S
C7 C5 1.361 . S
C7 C8 1.393 . S
C7 N11 1.413 . S
C8 H1 0.930 . S
C8 C7 1.393 . S
C8 C9 1.399 . S
C9 C8 1.399 . S
C9 C10 1.381 . S
C10 H2 0.930 . S
C10 C6 1.390 . S
C10 C9 1.381 . S
N11 C4 1.286 . S
N11 C7 1.413 . S
H12 C17 0.930 . S
H13 C20 0.930 . S
H14 C22 0.930 . S
H15 C16 1.016 . S
C16 H15 1.016 . S
C16 N23 1.286 . S
C17 H12 0.930 . S
C17 C18 1.397 . S
C17 C19 1.361 . S
C18 C17 1.397 . S
C18 C22 1.390 . S
C19 C17 1.361 . S
C19 C20 1.393 . S
C19 N23 1.413 . S
C20 H13 0.930 . S
C20 C19 1.393 . S
C20 C21 1.399 . S
C21 C20 1.399 . S
C21 C22 1.381 . S
C22 H14 0.930 . S
C22 C18 1.390 . S
C22 C21 1.381 . S
N23 C16 1.286 . S
N23 C19 1.413 . S
H24 C29 0.930 . S
H25 C32 0.930 . S
H26 C34 0.930 . S
H27 C28 1.016 . S
C28 H27 1.016 . S
C28 N35 1.286 . S
C29 H24 0.930 . S
C29 C30 1.397 . S
C29 C31 1.361 . S
C30 C29 1.397 . S
C30 C34 1.390 . S
C31 C29 1.361 . S
C31 C32 1.393 . S
C31 N35 1.413 . S
C32 H25 0.930 . S
C32 C31 1.393 . S
C32 C33 1.399 . S
C33 C32 1.399 . S
C33 C34 1.381 . S
C34 H26 0.930 . S
C34 C30 1.390 . S
C34 C33 1.381 . S
N35 C28 1.286 . S
N35 C31 1.413 . S
H36 C41 0.930 . S
H37 C44 0.930 . S
H38 C46 0.930 . S
H39 C40 1.016 . S
C40 H39 1.016 . S
C40 N47 1.286 . S
C41 H36 0.930 . S
C41 C42 1.397 . S
C41 C43 1.361 . S
C42 C41 1.397 . S
C42 C46 1.390 . S
C43 C41 1.361 . S
C43 C44 1.393 . S
C43 N47 1.413 . S
C44 H37 0.930 . S
C44 C43 1.393 . S
C44 C45 1.399 . S
C45 C44 1.399 . S
C45 C46 1.381 . S
C46 H38 0.930 . S
C46 C42 1.390 . S
C46 C45 1.381 . S
N47 C40 1.286 . S
N47 C43 1.413 . S
H48 C53 0.930 . S
H49 C56 0.930 . S
H50 C58 0.930 . S
H51 C52 1.016 . S
C52 H51 1.016 . S
C52 N59 1.286 . S
C53 H48 0.930 . S
C53 C54 1.397 . S
C53 C55 1.361 . S
C54 C53 1.397 . S
C54 C58 1.390 . S
C55 C53 1.361 . S
C55 C56 1.393 . S
C55 N59 1.413 . S
C56 H49 0.930 . S
C56 C55 1.393 . S
C56 C57 1.399 . S
C57 C56 1.399 . S
C57 C58 1.381 . S
C58 H50 0.930 . S
C58 C54 1.390 . S
C58 C57 1.381 . S
N59 C52 1.286 . S
N59 C55 1.413 . S
H60 C65 0.930 . S
H61 C68 0.930 . S
H62 C70 0.930 . S
H63 C64 1.016 . S
C64 H63 1.016 . S
C64 N71 1.286 . S
C65 H60 0.930 . S
C65 C66 1.397 . S
C65 C67 1.361 . S
C66 C65 1.397 . S
C66 C70 1.390 . S
C67 C65 1.361 . S
C67 C68 1.393 . S
C67 N71 1.413 . S
C68 H61 0.930 . S
C68 C67 1.393 . S
C68 C69 1.399 . S
C69 C68 1.399 . S
C69 C70 1.381 . S
C70 H62 0.930 . S
C70 C66 1.390 . S
C70 C69 1.381 . S
N71 C64 1.286 . S
N71 C67 1.413 . S
H72 C77 0.930 . S
H73 C80 0.930 . S
H74 C82 0.930 . S
H75 C76 1.016 . S
C76 H75 1.016 . S
C76 N83 1.286 . S
C77 H72 0.930 . S
C77 C78 1.397 . S
C77 C79 1.361 . S
C78 C77 1.397 . S
C78 C82 1.390 . S
C79 C77 1.361 . S
C79 C80 1.393 . S
C79 N83 1.413 . S
C80 H73 0.930 . S
C80 C79 1.393 . S
C80 C81 1.399 . S
C81 C80 1.399 . S
C81 C82 1.381 . S
C82 H74 0.930 . S
C82 C78 1.390 . S
C82 C81 1.381 . S
N83 C76 1.286 . S
N83 C79 1.413 . S
H84 C89 0.930 . S
H85 C92 0.930 . S
H86 C94 0.930 . S
H87 C88 1.016 . S
C88 H87 1.016 . S
C88 N95 1.286 . S
C89 H84 0.930 . S
C89 C90 1.397 . S
C89 C91 1.361 . S
C90 C89 1.397 . S
C90 C94 1.390 . S
C91 C89 1.361 . S
C91 C92 1.393 . S
C91 N95 1.413 . S
C92 H85 0.930 . S
C92 C91 1.393 . S
C92 C93 1.399 . S
C93 C92 1.399 . S
C93 C94 1.381 . S
C94 H86 0.930 . S
C94 C90 1.390 . S
C94 C93 1.381 . S
N95 C88 1.286 . S
N95 C91 1.413 . S
Eu96 N125 2.600 . S
Eu96 N131 2.562 . S
Eu96 O140 2.462 . S
Eu96 O141 2.373 . S
Eu96 O143 2.432 . S
Eu96 O144 2.291 1_455 S
Eu96 O148 2.335 1_455 S
Eu96 O151 2.372 . S
Eu96 C160 2.787 . S
C97 N98 1.365 . S
C97 C100 1.405 . S
C97 C104 1.448 . S
N98 C97 1.365 . S
N98 C101 1.319 . S
N98 Eu107 2.600 . S
C99 C101 1.397 . S
C99 C102 1.367 . S
C99 H119 0.931 . S
C100 C97 1.405 . S
C100 C102 1.403 . S
C100 C106 1.439 . S
C101 N98 1.319 . S
C101 C99 1.397 . S
C101 H112 0.930 . S
C102 C99 1.367 . S
C102 C100 1.403 . S
C102 H123 0.929 . S
C103 C104 1.430 1_565 S
C103 C105 1.387 . S
C103 C109 1.404 . S
C104 C97 1.448 . S
C104 C103 1.430 1_545 S
C104 N108 1.351 . S
C105 C103 1.387 . S
C105 C106 1.374 1_565 S
C105 H120 0.931 . S
C106 C100 1.439 . S
C106 C105 1.374 1_545 S
C106 H121 0.931 . S
Eu107 N98 2.600 . S
Eu107 N108 2.562 . S
Eu107 O142 2.335 1_655 S
Eu107 O145 2.372 . S
Eu107 O146 2.462 . S
Eu107 O147 2.373 . S
Eu107 O149 2.432 . S
Eu107 O150 2.291 1_655 S
Eu107 C171 2.787 . S
N108 C104 1.351 . S
N108 Eu107 2.562 . S
N108 C110 1.325 1_545 S
C109 C103 1.404 . S
C109 C111 1.366 . S
C109 H117 0.930 . S
C110 N108 1.325 1_565 S
C110 C111 1.416 . S
C110 H116 0.929 . S
C111 C109 1.366 . S
C111 C110 1.416 . S
C111 H113 0.930 . S
H112 C101 0.930 . S
H113 C111 0.930 . S
H114 C129 0.930 . S
H115 C136 0.930 . S
H116 C110 0.929 . S
H117 C109 0.930 . S
H118 C132 0.929 . S
H119 C99 0.931 . S
H120 C105 0.931 . S
H121 C106 0.931 . S
H122 C127 0.931 . S
H123 C102 0.929 . S
H124 C135 0.930 . S
N125 Eu96 2.600 . S
N125 C126 1.365 . S
N125 C129 1.319 . S
C126 N125 1.365 . S
C126 C128 1.405 . S
C126 C134 1.448 . S
C127 H122 0.931 . S
C127 C129 1.397 . S
C127 C130 1.367 . S
C128 C126 1.405 . S
C128 C130 1.403 . S
C128 C161 1.439 . S
C129 H114 0.930 . S
C129 N125 1.319 . S
C129 C127 1.397 . S
C130 C127 1.367 . S
C130 C128 1.403 . S
C130 H137 0.929 . S
N131 Eu96 2.562 . S
N131 C132 1.325 . S
N131 C134 1.351 . S
C132 H118 0.929 . S
C132 N131 1.325 . S
C132 C136 1.416 . S
C133 C134 1.430 . S
C133 C135 1.404 . S
C133 C162 1.387 . S
C134 C126 1.448 . S
C134 N131 1.351 . S
C134 C133 1.430 . S
C135 H124 0.930 . S
C135 C133 1.404 . S
C135 C136 1.366 . S
C136 H115 0.930 . S
C136 C132 1.416 . S
C136 C135 1.366 . S
H137 C130 0.929 . S
H138 C161 0.931 . S
H139 C162 0.931 . S
O140 Eu96 2.462 . S
O140 C160 1.252 . S
O141 Eu96 2.373 . S
O141 C152 1.249 . S
O142 Eu107 2.335 1_455 S
O142 C152 1.264 . S
O143 Eu96 2.432 . S
O143 C160 1.268 . S
O144 Eu96 2.291 1_655 S
O144 C159 1.255 . S
O145 Eu107 2.372 . S
O145 C159 1.257 . S
O146 Eu107 2.462 . S
O146 C171 1.252 . S
O147 Eu107 2.373 . S
O147 C163 1.249 . S
O148 Eu96 2.335 1_655 S
O148 C163 1.264 . S
O149 Eu107 2.432 . S
O149 C171 1.268 . S
O150 Eu107 2.291 1_455 S
O150 C170 1.255 . S
O151 Eu96 2.372 . S
O151 C170 1.257 . S
C152 O141 1.249 . S
C152 O142 1.264 . S
C153 C156 1.382 . S
C153 C158 1.390 . S
C153 C160 1.506 . S
C154 C155 1.398 . S
C154 C158 1.392 . S
C155 C154 1.398 . S
C155 C157 1.372 . S
C155 H172 0.931 . S
C156 C153 1.382 . S
C156 C157 1.390 . S
C156 H173 0.931 . S
C157 C155 1.372 . S
C157 C156 1.390 . S
C157 H174 0.930 1_545 S
C158 C153 1.390 . S
C158 C154 1.392 . S
C158 H175 0.930 . S
C159 O144 1.255 . S
C159 O145 1.257 . S
C160 Eu96 2.787 . S
C160 O140 1.252 . S
C160 O143 1.268 . S
C160 C153 1.506 . S
C161 C128 1.439 . S
C161 H138 0.931 . S
C161 C162 1.374 . S
C162 C133 1.387 . S
C162 H139 0.931 . S
C162 C161 1.374 . S
C163 O147 1.249 . S
C163 O148 1.264 . S
C164 C167 1.382 . S
C164 C168 1.390 . S
C164 C171 1.506 . S
C165 C166 1.398 . S
C165 C168 1.392 . S
C166 C165 1.398 . S
C166 C169 1.372 . S
C166 H176 0.931 . S
C167 C164 1.382 . S
C167 C169 1.390 . S
C167 H177 0.931 . S
C168 C164 1.390 . S
C168 C165 1.392 . S
C168 H178 0.930 . S
C169 C166 1.372 . S
C169 C167 1.390 . S
C169 H179 0.929 . S
C170 O150 1.255 . S
C170 O151 1.257 . S
C171 Eu107 2.787 . S
C171 O146 1.252 . S
C171 O149 1.268 . S
C171 C164 1.506 . S
H172 C155 0.931 . S
H173 C156 0.931 . S
H174 C157 0.930 1_565 S
H175 C158 0.930 . S
H176 C166 0.931 . S
H177 C167 0.931 . S
H178 C168 0.930 . S
H179 C169 0.929 . S
Eu180 N209 2.600 . S
Eu180 N215 2.562 . S
Eu180 O224 2.462 . S
Eu180 O225 2.373 . S
Eu180 O227 2.432 . S
Eu180 O228 2.291 . S
Eu180 O232 2.335 . S
Eu180 O235 2.372 . S
Eu180 C244 2.787 . S
C181 N182 1.365 . S
C181 C184 1.405 . S
C181 C188 1.448 . S
N182 C181 1.365 . S
N182 C185 1.319 . S
N182 Eu191 2.600 . S
C183 C185 1.397 . S
C183 C186 1.367 . S
C183 H203 0.931 . S
C184 C181 1.405 . S
C184 C186 1.403 . S
C184 C190 1.439 . S
C185 N182 1.319 . S
C185 C183 1.397 . S
C185 H196 0.930 . S
C186 C183 1.367 . S
C186 C184 1.403 . S
C186 H207 0.929 . S
C187 C188 1.430 . S
C187 C189 1.387 . S
C187 C193 1.404 . S
C188 C181 1.448 . S
C188 C187 1.430 . S
C188 N192 1.351 . S
C189 C187 1.387 . S
C189 C190 1.374 . S
C189 H204 0.931 . S
C190 C184 1.439 . S
C190 C189 1.374 . S
C190 H205 0.931 . S
Eu191 N182 2.600 . S
Eu191 N192 2.562 . S
Eu191 O226 2.335 . S
Eu191 O229 2.372 . S
Eu191 O230 2.462 . S
Eu191 O231 2.373 . S
Eu191 O233 2.432 . S
Eu191 O234 2.291 . S
Eu191 C255 2.787 . S
N192 C188 1.351 . S
N192 Eu191 2.562 . S
N192 C194 1.325 . S
C193 C187 1.404 . S
C193 C195 1.366 . S
C193 H201 0.930 . S
C194 N192 1.325 . S
C194 C195 1.416 . S
C194 H200 0.929 . S
C195 C193 1.366 . S
C195 C194 1.416 . S
C195 H197 0.930 . S
H196 C185 0.930 . S
H197 C195 0.930 . S
H198 C213 0.930 . S
H199 C220 0.930 . S
H200 C194 0.929 . S
H201 C193 0.930 . S
H202 C216 0.929 . S
H203 C183 0.931 . S
H204 C189 0.931 . S
H205 C190 0.931 . S
H206 C211 0.931 . S
H207 C186 0.929 . S
H208 C219 0.930 . S
N209 Eu180 2.600 . S
N209 C210 1.365 . S
N209 C213 1.319 . S
C210 N209 1.365 . S
C210 C212 1.405 . S
C210 C218 1.448 . S
C211 H206 0.931 . S
C211 C213 1.397 . S
C211 C214 1.367 . S
C212 C210 1.405 . S
C212 C214 1.403 . S
C212 C245 1.439 . S
C213 H198 0.930 . S
C213 N209 1.319 . S
C213 C211 1.397 . S
C214 C211 1.367 . S
C214 C212 1.403 . S
C214 H221 0.929 . S
N215 Eu180 2.562 . S
N215 C216 1.325 . S
N215 C218 1.351 . S
C216 H202 0.929 . S
C216 N215 1.325 . S
C216 C220 1.416 . S
C217 C218 1.430 . S
C217 C219 1.404 . S
C217 C246 1.387 . S
C218 C210 1.448 . S
C218 N215 1.351 . S
C218 C217 1.430 . S
C219 H208 0.930 . S
C219 C217 1.404 . S
C219 C220 1.366 . S
C220 H199 0.930 . S
C220 C216 1.416 . S
C220 C219 1.366 . S
H221 C214 0.929 . S
H222 C245 0.931 . S
H223 C246 0.931 . S
O224 Eu180 2.462 . S
O224 C244 1.252 . S
O225 Eu180 2.373 . S
O225 C236 1.249 . S
O226 Eu191 2.335 . S
O226 C236 1.264 . S
O227 Eu180 2.432 . S
O227 C244 1.268 . S
O228 Eu180 2.291 . S
O228 C243 1.255 . S
O229 Eu191 2.372 . S
O229 C243 1.257 . S
O230 Eu191 2.462 . S
O230 C255 1.252 . S
O231 Eu191 2.373 . S
O231 C247 1.249 . S
O232 Eu180 2.335 . S
O232 C247 1.264 . S
O233 Eu191 2.432 . S
O233 C255 1.268 . S
O234 Eu191 2.291 . S
O234 C254 1.255 . S
O235 Eu180 2.372 . S
O235 C254 1.257 . S
C236 O225 1.249 . S
C236 O226 1.264 . S
C237 C240 1.382 . S
C237 C242 1.390 . S
C237 C244 1.506 . S
C238 C239 1.398 . S
C238 C242 1.392 . S
C239 C238 1.398 . S
C239 C241 1.372 . S
C239 H256 0.931 . S
C240 C237 1.382 . S
C240 C241 1.390 . S
C240 H257 0.931 . S
C241 C239 1.372 . S
C241 C240 1.390 . S
C241 H258 0.929 . S
C242 C237 1.390 . S
C242 C238 1.392 . S
C242 H259 0.930 . S
C243 O228 1.255 . S
C243 O229 1.257 . S
C244 Eu180 2.787 . S
C244 O224 1.252 . S
C244 O227 1.268 . S
C244 C237 1.506 . S
C245 C212 1.439 . S
C245 H222 0.931 . S
C245 C246 1.374 . S
C246 C217 1.387 . S
C246 H223 0.931 . S
C246 C245 1.374 . S
C247 O231 1.249 . S
C247 O232 1.264 . S
C248 C251 1.382 . S
C248 C252 1.390 . S
C248 C255 1.506 . S
C249 C250 1.398 . S
C249 C252 1.392 . S
C250 C249 1.398 . S
C250 C253 1.372 . S
C250 H260 0.931 . S
C251 C248 1.382 . S
C251 C253 1.390 . S
C251 H261 0.931 . S
C252 C248 1.390 . S
C252 C249 1.392 . S
C252 H262 0.930 . S
C253 C250 1.372 . S
C253 C251 1.390 . S
C253 H263 0.929 . S
C254 O234 1.255 . S
C254 O235 1.257 . S
C255 Eu191 2.787 . S
C255 O230 1.252 . S
C255 O233 1.268 . S
C255 C248 1.506 . S
H256 C239 0.931 . S
H257 C240 0.931 . S
H258 C241 0.929 . S
H259 C242 0.930 . S
H260 C250 0.931 . S
H261 C251 0.931 . S
H262 C252 0.930 . S
H263 C253 0.929 . S
Eu264 N293 2.600 . S
Eu264 N299 2.562 . S
Eu264 O308 2.462 . S
Eu264 O309 2.373 . S
Eu264 O311 2.432 . S
Eu264 O312 2.288 1_455 S
Eu264 O316 2.336 . S
Eu264 O319 2.372 . S
Eu264 C328 2.787 . S
C265 N266 1.365 . S
C265 C268 1.405 . S
C265 C272 1.448 . S
N266 C265 1.365 . S
N266 C269 1.319 . S
N266 Eu275 2.600 . S
C267 C269 1.397 . S
C267 C270 1.367 . S
C267 H287 0.931 . S
C268 C265 1.405 . S
C268 C270 1.403 . S
C268 C274 1.439 . S
C269 N266 1.319 . S
C269 C267 1.397 . S
C269 H280 0.930 . S
C270 C267 1.367 . S
C270 C268 1.403 . S
C270 H291 0.929 . S
C271 C272 1.430 . S
C271 C273 1.387 . S
C271 C277 1.404 . S
C272 C265 1.448 . S
C272 C271 1.430 . S
C272 N276 1.351 . S
C273 C271 1.387 . S
C273 C274 1.374 . S
C273 H288 0.931 . S
C274 C268 1.439 . S
C274 C273 1.374 . S
C274 H289 0.931 . S
Eu275 N266 2.600 . S
Eu275 N276 2.562 . S
Eu275 O310 2.335 1_655 S
Eu275 O313 2.372 . S
Eu275 O314 2.462 . S
Eu275 O315 2.373 . S
Eu275 O317 2.432 . S
Eu275 O318 2.291 1_655 S
Eu275 C339 2.787 . S
N276 C272 1.351 . S
N276 Eu275 2.562 . S
N276 C278 1.325 . S
C277 C271 1.404 . S
C277 C279 1.366 . S
C277 H285 0.930 . S
C278 N276 1.325 . S
C278 C279 1.416 . S
C278 H284 0.929 . S
C279 C277 1.366 . S
C279 C278 1.416 . S
C279 H281 0.930 . S
H280 C269 0.930 . S
H281 C279 0.930 . S
H282 C297 0.930 . S
H283 C304 0.930 . S
H284 C278 0.929 . S
H285 C277 0.930 . S
H286 C300 0.929 . S
H287 C267 0.931 . S
H288 C273 0.931 . S
H289 C274 0.931 . S
H290 C295 0.931 . S
H291 C270 0.929 . S
H292 C303 0.930 . S
N293 Eu264 2.600 . S
N293 C294 1.365 . S
N293 C297 1.319 . S
C294 N293 1.365 . S
C294 C296 1.405 . S
C294 C302 1.448 . S
C295 H290 0.931 . S
C295 C297 1.397 . S
C295 C298 1.367 . S
C296 C294 1.405 . S
C296 C298 1.403 . S
C296 C329 1.439 . S
C297 H282 0.930 . S
C297 N293 1.319 . S
C297 C295 1.397 . S
C298 C295 1.367 . S
C298 C296 1.403 . S
C298 H305 0.929 . S
N299 Eu264 2.562 . S
N299 C300 1.325 1_565 S
N299 C302 1.351 . S
C300 H286 0.929 . S
C300 N299 1.325 1_545 S
C300 C304 1.416 . S
C301 C302 1.430 1_545 S
C301 C303 1.404 . S
C301 C330 1.387 . S
C302 C294 1.448 . S
C302 N299 1.351 . S
C302 C301 1.430 1_565 S
C303 H292 0.930 . S
C303 C301 1.404 . S
C303 C304 1.366 . S
C304 H283 0.930 . S
C304 C300 1.416 . S
C304 C303 1.366 . S
H305 C298 0.929 . S
H306 C329 0.931 . S
H307 C330 0.931 . S
O308 Eu264 2.462 . S
O308 C328 1.252 . S
O309 Eu264 2.373 . S
O309 C320 1.249 . S
O310 Eu275 2.335 1_455 S
O310 C320 1.264 . S
O311 Eu264 2.432 . S
O311 C328 1.268 . S
O312 Eu264 2.288 1_655 S
O312 C327 1.259 . S
O313 Eu275 2.372 . S
O313 C327 1.257 . S
O314 Eu275 2.462 . S
O314 C339 1.252 . S
O315 Eu275 2.373 . S
O315 C331 1.249 . S
O316 Eu264 2.336 . S
O316 C331 1.263 1_455 S
O317 Eu275 2.432 . S
O317 C339 1.268 . S
O318 Eu275 2.291 1_455 S
O318 C338 1.255 . S
O319 Eu264 2.372 . S
O319 C338 1.257 . S
C320 O309 1.249 . S
C320 O310 1.264 . S
C321 C324 1.382 . S
C321 C326 1.390 . S
C321 C328 1.506 . S
C322 C323 1.398 . S
C322 C326 1.392 . S
C323 C322 1.398 . S
C323 C325 1.372 . S
C323 H340 0.931 . S
C324 C321 1.382 . S
C324 C325 1.390 . S
C324 H341 0.931 . S
C325 C323 1.372 . S
C325 C324 1.390 . S
C325 H342 0.929 . S
C326 C321 1.390 . S
C326 C322 1.392 . S
C326 H343 0.930 . S
C327 O312 1.259 . S
C327 O313 1.257 . S
C328 Eu264 2.787 . S
C328 O308 1.252 . S
C328 O311 1.268 . S
C328 C321 1.506 . S
C329 C296 1.439 . S
C329 H306 0.931 . S
C329 C330 1.374 1_565 S
C330 C301 1.387 . S
C330 H307 0.931 . S
C330 C329 1.374 1_545 S
C331 O315 1.249 . S
C331 O316 1.263 1_655 S
C332 C335 1.382 . S
C332 C336 1.390 . S
C332 C339 1.506 . S
C333 C334 1.398 . S
C333 C336 1.392 . S
C334 C333 1.398 . S
C334 C337 1.372 . S
C334 H344 0.931 . S
C335 C332 1.382 . S
C335 C337 1.390 . S
C335 H345 0.931 . S
C336 C332 1.390 . S
C336 C333 1.392 . S
C336 H346 0.930 . S
C337 C334 1.372 . S
C337 C335 1.390 . S
C337 H347 0.930 1_565 S
C338 O318 1.255 . S
C338 O319 1.257 . S
C339 Eu275 2.787 . S
C339 O314 1.252 . S
C339 O317 1.268 . S
C339 C332 1.506 . S
H340 C323 0.931 . S
H341 C324 0.931 . S
H342 C325 0.929 . S
H343 C326 0.930 . S
H344 C334 0.931 . S
H345 C335 0.931 . S
H346 C336 0.930 . S
H347 C337 0.930 1_545 S
Eu348 N377 2.600 . S
Eu348 N383 2.562 . S
Eu348 O392 2.462 . S
Eu348 O393 2.373 . S
Eu348 O395 2.432 . S
Eu348 O396 2.291 . S
Eu348 O400 2.335 . S
Eu348 O403 2.372 . S
Eu348 C412 2.787 . S
C349 N350 1.365 . S
C349 C352 1.405 . S
C349 C356 1.448 . S
N350 C349 1.365 . S
N350 C353 1.319 . S
N350 Eu359 2.600 . S
C351 C353 1.397 . S
C351 C354 1.367 . S
C351 H371 0.931 . S
C352 C349 1.405 . S
C352 C354 1.403 . S
C352 C358 1.439 . S
C353 N350 1.319 . S
C353 C351 1.397 . S
C353 H364 0.930 . S
C354 C351 1.367 . S
C354 C352 1.403 . S
C354 H375 0.929 . S
C355 C356 1.430 . S
C355 C357 1.387 . S
C355 C361 1.404 . S
C356 C349 1.448 . S
C356 C355 1.430 . S
C356 N360 1.351 . S
C357 C355 1.387 . S
C357 C358 1.374 . S
C357 H372 0.931 . S
C358 C352 1.439 . S
C358 C357 1.374 . S
C358 H373 0.931 . S
Eu359 N350 2.600 . S
Eu359 N360 2.562 . S
Eu359 O394 2.335 . S
Eu359 O397 2.372 . S
Eu359 O398 2.462 . S
Eu359 O399 2.373 . S
Eu359 O401 2.432 . S
Eu359 O402 2.291 . S
Eu359 C423 2.787 . S
N360 C356 1.351 . S
N360 Eu359 2.562 . S
N360 C362 1.325 . S
C361 C355 1.404 . S
C361 C363 1.366 . S
C361 H369 0.930 . S
C362 N360 1.325 . S
C362 C363 1.416 . S
C362 H368 0.929 . S
C363 C361 1.366 . S
C363 C362 1.416 . S
C363 H365 0.930 . S
H364 C353 0.930 . S
H365 C363 0.930 . S
H366 C381 0.930 . S
H367 C388 0.930 . S
H368 C362 0.929 . S
H369 C361 0.930 . S
H370 C384 0.929 . S
H371 C351 0.931 . S
H372 C357 0.931 . S
H373 C358 0.931 . S
H374 C379 0.931 . S
H375 C354 0.929 . S
H376 C387 0.930 . S
N377 Eu348 2.600 . S
N377 C378 1.365 . S
N377 C381 1.319 . S
C378 N377 1.365 . S
C378 C380 1.405 . S
C378 C386 1.448 . S
C379 H374 0.931 . S
C379 C381 1.397 . S
C379 C382 1.367 . S
C380 C378 1.405 . S
C380 C382 1.403 . S
C380 C413 1.439 . S
C381 H366 0.930 . S
C381 N377 1.319 . S
C381 C379 1.397 . S
C382 C379 1.367 . S
C382 C380 1.403 . S
C382 H389 0.929 . S
N383 Eu348 2.562 . S
N383 C384 1.325 . S
N383 C386 1.351 . S
C384 H370 0.929 . S
C384 N383 1.325 . S
C384 C388 1.416 . S
C385 C386 1.430 . S
C385 C387 1.404 . S
C385 C414 1.387 . S
C386 C378 1.448 . S
C386 N383 1.351 . S
C386 C385 1.430 . S
C387 H376 0.930 . S
C387 C385 1.404 . S
C387 C388 1.366 . S
C388 H367 0.930 . S
C388 C384 1.416 . S
C388 C387 1.366 . S
H389 C382 0.929 . S
H390 C413 0.931 . S
H391 C414 0.931 . S
O392 Eu348 2.462 . S
O392 C412 1.252 . S
O393 Eu348 2.373 . S
O393 C404 1.249 . S
O394 Eu359 2.335 . S
O394 C404 1.264 . S
O395 Eu348 2.432 . S
O395 C412 1.268 . S
O396 Eu348 2.291 . S
O396 C411 1.255 . S
O397 Eu359 2.372 . S
O397 C411 1.257 . S
O398 Eu359 2.462 . S
O398 C423 1.252 . S
O399 Eu359 2.373 . S
O399 C415 1.249 . S
O400 Eu348 2.335 . S
O400 C415 1.264 . S
O401 Eu359 2.432 . S
O401 C423 1.268 . S
O402 Eu359 2.291 . S
O402 C422 1.255 . S
O403 Eu348 2.372 . S
O403 C422 1.257 . S
C404 O393 1.249 . S
C404 O394 1.264 . S
C405 C408 1.382 . S
C405 C410 1.390 . S
C405 C412 1.506 . S
C406 C407 1.398 . S
C406 C410 1.392 . S
C407 C406 1.398 . S
C407 C409 1.372 . S
C407 H424 0.931 . S
C408 C405 1.382 . S
C408 C409 1.390 . S
C408 H425 0.931 . S
C409 C407 1.372 . S
C409 C408 1.390 . S
C409 H426 0.929 . S
C410 C405 1.390 . S
C410 C406 1.392 . S
C410 H427 0.930 . S
C411 O396 1.255 . S
C411 O397 1.257 . S
C412 Eu348 2.787 . S
C412 O392 1.252 . S
C412 O395 1.268 . S
C412 C405 1.506 . S
C413 C380 1.439 . S
C413 H390 0.931 . S
C413 C414 1.374 . S
C414 C385 1.387 . S
C414 H391 0.931 . S
C414 C413 1.374 . S
C415 O399 1.249 . S
C415 O400 1.264 . S
C416 C419 1.382 . S
C416 C420 1.390 . S
C416 C423 1.506 . S
C417 C418 1.398 . S
C417 C420 1.392 . S
C418 C417 1.398 . S
C418 C421 1.372 . S
C418 H428 0.931 . S
C419 C416 1.382 . S
C419 C421 1.390 . S
C419 H429 0.931 . S
C420 C416 1.390 . S
C420 C417 1.392 . S
C420 H430 0.930 . S
C421 C418 1.372 . S
C421 C419 1.390 . S
C421 H431 0.929 . S
C422 O402 1.255 . S
C422 O403 1.257 . S
C423 Eu359 2.787 . S
C423 O398 1.252 . S
C423 O401 1.268 . S
C423 C416 1.506 . S
H424 C407 0.931 . S
H425 C408 0.931 . S
H426 C409 0.929 . S
H427 C410 0.930 . S
H428 C418 0.931 . S
H429 C419 0.931 . S
H430 C420 0.930 . S
H431 C421 0.929 . S
C432 C433 1.387 . S
C432 H436 0.950 . S
C432 C441 1.390 1_565 S
C433 C432 1.387 . S
C433 C435 1.387 . S
H434 C441 0.950 . S
C435 C433 1.387 . S
C435 C437 1.390 . S
C435 H439 0.950 . S
H436 C432 0.950 . S
C437 C435 1.390 . S
C437 C438 1.387 . S
C437 H440 0.950 . S
C438 C437 1.387 . S
C438 C441 1.387 1_565 S
H439 C435 0.950 . S
H440 C437 0.950 . S
C441 C432 1.390 1_545 S
C441 H434 0.950 . S
C441 C438 1.387 1_545 S
C442 C443 1.387 . S
C442 H446 0.950 . S
C442 C451 1.390 . S
C443 C442 1.387 . S
C443 C445 1.387 . S
H444 C451 0.950 . S
C445 C443 1.387 . S
C445 C447 1.390 . S
C445 H449 0.950 . S
H446 C442 0.950 . S
C447 C445 1.390 . S
C447 C448 1.387 . S
C447 H450 0.950 . S
C448 C447 1.387 . S
C448 C451 1.387 . S
H449 C445 0.950 . S
H450 C447 0.950 . S
C451 C442 1.390 . S
C451 H444 0.950 . S
C451 C448 1.387 . S
C452 C453 1.387 . S
C452 H456 0.950 . S
C452 C461 1.390 . S
C453 C452 1.387 . S
C453 C455 1.387 . S
H454 C461 0.950 . S
C455 C453 1.387 . S
C455 C457 1.390 . S
C455 H459 0.950 . S
H456 C452 0.950 . S
C457 C455 1.390 . S
C457 C458 1.387 . S
C457 H460 0.950 . S
C458 C457 1.387 . S
C458 C461 1.387 . S
H459 C455 0.950 . S
H460 C457 0.950 . S
C461 C452 1.390 . S
C461 H454 0.950 . S
C461 C458 1.387 . S
C462 C463 1.387 . S
C462 H466 0.950 . S
C462 C471 1.390 1_565 S
C463 C462 1.387 . S
C463 C465 1.387 . S
H464 C471 0.950 . S
C465 C463 1.387 . S
C465 C467 1.390 . S
C465 H469 0.950 . S
H466 C462 0.950 . S
C467 C465 1.390 . S
C467 C468 1.387 . S
C467 H470 0.950 . S
C468 C467 1.387 . S
C468 C471 1.387 1_565 S
H469 C465 0.950 . S
H470 C467 0.950 . S
C471 C462 1.390 1_545 S
C471 H464 0.950 . S
C471 C468 1.387 1_545 S
C472 C473 1.387 . S
C472 H476 0.950 . S
C472 C481 1.390 1_545 S
C473 C472 1.387 . S
C473 C475 1.387 . S
H474 C481 0.950 . S
C475 C473 1.387 . S
C475 C477 1.390 . S
C475 H479 0.950 . S
H476 C472 0.950 . S
C477 C475 1.390 . S
C477 C478 1.387 . S
C477 H480 0.950 . S
C478 C477 1.387 . S
C478 C481 1.387 1_545 S
H479 C475 0.950 . S
H480 C477 0.950 . S
C481 C472 1.390 1_565 S
C481 H474 0.950 . S
C481 C478 1.387 1_565 S
C482 C483 1.387 . S
C482 H486 0.950 . S
C482 C491 1.390 . S
C483 C482 1.387 . S
C483 C485 1.387 . S
H484 C491 0.950 . S
C485 C483 1.387 . S
C485 C487 1.390 . S
C485 H489 0.950 . S
H486 C482 0.950 . S
C487 C485 1.390 . S
C487 C488 1.387 . S
C487 H490 0.950 . S
C488 C487 1.387 . S
C488 C491 1.387 . S
H489 C485 0.950 . S
H490 C487 0.950 . S
C491 C482 1.390 . S
C491 H484 0.950 . S
C491 C488 1.387 . S
C492 C493 1.387 . S
C492 H496 0.950 . S
C492 C501 1.390 . S
C493 C492 1.387 . S
C493 C495 1.387 . S
H494 C501 0.950 . S
C495 C493 1.387 . S
C495 C497 1.390 . S
C495 H499 0.950 . S
H496 C492 0.950 . S
C497 C495 1.390 . S
C497 C498 1.387 . S
C497 H500 0.950 . S
C498 C497 1.387 . S
C498 C501 1.387 . S
H499 C495 0.950 . S
H500 C497 0.950 . S
C501 C492 1.390 . S
C501 H494 0.950 . S
C501 C498 1.387 . S
C502 C503 1.387 . S
C502 H506 0.950 . S
C502 C511 1.390 . S
C503 C502 1.387 . S
C503 C505 1.387 . S
H504 C511 0.950 1_565 S
C505 C503 1.387 . S
C505 C507 1.390 . S
C505 H509 0.950 . S
H506 C502 0.950 . S
C507 C505 1.390 . S
C507 C508 1.387 . S
C507 H510 0.950 . S
C508 C507 1.387 . S
C508 C511 1.387 . S
H509 C505 0.950 . S
H510 C507 0.950 . S
C511 C502 1.390 . S
C511 H504 0.950 1_545 S
C511 C508 1.387 . S
C512 C513 1.387 . S
C512 H516 0.950 . S
C512 C521 1.390 1_556 S
C513 C512 1.387 . S
C513 C515 1.387 . S
H514 C521 0.950 . S
C515 C513 1.387 . S
C515 C517 1.390 1_556 S
C515 H519 0.950 . S
H516 C512 0.950 . S
C517 C515 1.390 1_554 S
C517 C518 1.387 . S
C517 H520 0.950 . S
C518 C517 1.387 . S
C518 C521 1.387 . S
H519 C515 0.950 . S
H520 C517 0.950 . S
C521 C512 1.390 1_554 S
C521 H514 0.950 . S
C521 C518 1.387 . S
C522 C523 1.387 . S
C522 H526 0.950 . S
C522 C531 1.390 . S
C523 C522 1.387 . S
C523 C525 1.387 . S
H524 C531 0.950 . S
C525 C523 1.387 . S
C525 C527 1.390 . S
C525 H529 0.950 . S
H526 C522 0.950 . S
C527 C525 1.390 . S
C527 C528 1.387 . S
C527 H530 0.950 . S
C528 C527 1.387 . S
C528 C531 1.387 . S
H529 C525 0.950 . S
H530 C527 0.950 . S
C531 C522 1.390 . S
C531 H524 0.950 . S
C531 C528 1.387 . S
C532 C533 1.387 . S
C532 H536 0.950 . S
C532 C541 1.390 1_554 S
C533 C532 1.387 . S
C533 C535 1.387 . S
H534 C541 0.950 . S
C535 C533 1.387 . S
C535 C537 1.390 1_554 S
C535 H539 0.950 . S
H536 C532 0.950 . S
C537 C535 1.390 1_556 S
C537 C538 1.387 . S
C537 H540 0.950 . S
C538 C537 1.387 . S
C538 C541 1.387 . S
H539 C535 0.950 . S
H540 C537 0.950 . S
C541 C532 1.390 1_556 S
C541 H534 0.950 . S
C541 C538 1.387 . S
C542 C543 1.387 . S
C542 H546 0.950 . S
C542 C551 1.390 . S
C543 C542 1.387 . S
C543 C545 1.387 . S
H544 C551 0.950 . S
C545 C543 1.387 . S
C545 C547 1.390 . S
C545 H549 0.950 . S
H546 C542 0.950 . S
C547 C545 1.390 . S
C547 C548 1.387 . S
C547 H550 0.950 . S
C548 C547 1.387 . S
C548 C551 1.387 . S
H549 C545 0.950 . S
H550 C547 0.950 . S
C551 C542 1.390 . S
C551 H544 0.950 . S
C551 C548 1.387 . S
C552 C553 1.387 . S
C552 H556 0.950 . S
C552 C561 1.390 1_554 S
C553 C552 1.387 . S
C553 C555 1.387 . S
H554 C561 0.950 . S
C555 C553 1.387 . S
C555 C557 1.390 1_554 S
C555 H559 0.950 . S
H556 C552 0.950 . S
C557 C555 1.390 1_556 S
C557 C558 1.387 . S
C557 H560 0.950 . S
C558 C557 1.387 . S
C558 C561 1.387 . S
H559 C555 0.950 . S
H560 C557 0.950 . S
C561 C552 1.390 1_556 S
C561 H554 0.950 . S
C561 C558 1.387 . S
C562 C563 1.387 . S
C562 H566 0.950 . S
C562 C571 1.390 . S
C563 C562 1.387 . S
C563 C565 1.387 . S
H564 C571 0.950 . S
C565 C563 1.387 . S
C565 C567 1.390 . S
C565 H569 0.950 . S
H566 C562 0.950 . S
C567 C565 1.390 . S
C567 C568 1.387 . S
C567 H570 0.950 . S
C568 C567 1.387 . S
C568 C571 1.387 . S
H569 C565 0.950 . S
H570 C567 0.950 . S
C571 C562 1.390 . S
C571 H564 0.950 . S
C571 C568 1.387 . S
C572 C573 1.387 . S
C572 H576 0.950 . S
C572 C581 1.390 1_556 S
C573 C572 1.387 . S
C573 C575 1.387 . S
H574 C581 0.950 . S
C575 C573 1.387 . S
C575 C577 1.390 1_556 S
C575 H579 0.950 . S
H576 C572 0.950 . S
C577 C575 1.390 1_554 S
C577 C578 1.387 . S
C577 H580 0.950 . S
C578 C577 1.387 . S
C578 C581 1.387 . S
H579 C575 0.950 . S
H580 C577 0.950 . S
C581 C572 1.390 1_554 S
C581 H574 0.950 . S
C581 C578 1.387 . S
C582 C583 1.387 . S
C582 H586 0.950 . S
C582 C591 1.390 . S
C583 C582 1.387 . S
C583 C585 1.387 . S
H584 C591 0.950 . S
C585 C583 1.387 . S
C585 C587 1.390 . S
C585 H589 0.950 . S
H586 C582 0.950 . S
C587 C585 1.390 . S
C587 C588 1.387 . S
C587 H590 0.950 . S
C588 C587 1.387 . S
C588 C591 1.387 . S
H589 C585 0.950 . S
H590 C587 0.950 . S
C591 C582 1.390 . S
C591 H584 0.950 . S
C591 C588 1.387 . S
C592 C593 1.387 . S
C592 H596 0.950 . S
C592 C601 1.390 . S
C593 C592 1.387 . S
C593 C595 1.387 . S
H594 C601 0.950 . S
C595 C593 1.387 . S
C595 C597 1.390 . S
C595 H599 0.950 . S
H596 C592 0.950 . S
C597 C595 1.390 . S
C597 C598 1.387 . S
C597 H600 0.950 . S
C598 C597 1.387 . S
C598 C601 1.387 . S
H599 C595 0.950 . S
H600 C597 0.950 . S
C601 C592 1.390 . S
C601 H594 0.950 . S
C601 C598 1.387 . S
C602 C603 1.387 . S
C602 H606 0.950 . S
C602 C611 1.390 . S
C603 C602 1.387 . S
C603 C605 1.387 . S
H604 C611 0.950 . S
C605 C603 1.387 . S
C605 C607 1.390 . S
C605 H609 0.950 . S
H606 C602 0.950 . S
C607 C605 1.390 . S
C607 C608 1.387 . S
C607 H610 0.950 . S
C608 C607 1.387 . S
C608 C611 1.387 . S
H609 C605 0.950 . S
H610 C607 0.950 . S
C611 C602 1.390 . S
C611 H604 0.950 . S
C611 C608 1.387 . S
C612 C613 1.387 . S
C612 H616 0.950 . S
C612 C621 1.390 . S
C613 C612 1.387 . S
C613 C615 1.387 . S
H614 C621 0.950 . S
C615 C613 1.387 . S
C615 C617 1.390 . S
C615 H619 0.950 . S
H616 C612 0.950 . S
C617 C615 1.390 . S
C617 C618 1.387 . S
C617 H620 0.950 . S
C618 C617 1.387 . S
C618 C621 1.387 . S
H619 C615 0.950 . S
H620 C617 0.950 . S
C621 C612 1.390 . S
C621 H614 0.950 . S
C621 C618 1.387 . S
C622 C623 1.387 . S
C622 H626 0.950 . S
C622 C631 1.390 . S
C623 C622 1.387 . S
C623 C625 1.387 . S
H624 C631 0.950 . S
C625 C623 1.387 . S
C625 C627 1.390 . S
C625 H629 0.950 . S
H626 C622 0.950 . S
C627 C625 1.390 . S
C627 C628 1.387 . S
C627 H630 0.950 . S
C628 C627 1.387 . S
C628 C631 1.387 . S
H629 C625 0.950 . S
H630 C627 0.950 . S
C631 C622 1.390 . S
C631 H624 0.950 . S
C631 C628 1.387 . S
C632 C633 1.387 . S
C632 H636 0.950 . S
C632 C641 1.390 . S
C633 C632 1.387 . S
C633 C635 1.387 . S
H634 C641 0.950 . S
C635 C633 1.387 . S
C635 C637 1.390 . S
C635 H639 0.950 . S
H636 C632 0.950 . S
C637 C635 1.390 . S
C637 C638 1.387 . S
C637 H640 0.950 . S
C638 C637 1.387 . S
C638 C641 1.387 . S
H639 C635 0.950 . S
H640 C637 0.950 . S
C641 C632 1.390 . S
C641 H634 0.950 . S
C641 C638 1.387 . S
C642 C643 1.387 . S
C642 H646 0.950 . S
C642 C651 1.390 . S
C643 C642 1.387 . S
C643 C645 1.387 . S
H644 C651 0.950 . S
C645 C643 1.387 . S
C645 C647 1.390 . S
C645 H649 0.950 . S
H646 C642 0.950 . S
C647 C645 1.390 . S
C647 C648 1.387 . S
C647 H650 0.950 . S
C648 C647 1.387 . S
C648 C651 1.387 . S
H649 C645 0.950 . S
H650 C647 0.950 . S
C651 C642 1.390 . S
C651 H644 0.950 . S
C651 C648 1.387 . S
C652 C653 1.387 . S
C652 H656 0.950 . S
C652 C661 1.390 . S
C653 C652 1.387 . S
C653 C655 1.387 . S
H654 C661 0.950 . S
C655 C653 1.387 . S
C655 C657 1.390 . S
C655 H659 0.950 . S
H656 C652 0.950 . S
C657 C655 1.390 . S
C657 C658 1.387 . S
C657 H660 0.950 . S
C658 C657 1.387 . S
C658 C661 1.387 . S
H659 C655 0.950 . S
H660 C657 0.950 . S
C661 C652 1.390 . S
C661 H654 0.950 . S
C661 C658 1.387 . S
C662 C663 1.387 . S
C662 H666 0.950 . S
C662 C671 1.390 . S
C663 C662 1.387 . S
C663 C665 1.387 . S
H664 C671 0.950 . S
C665 C663 1.387 . S
C665 C667 1.390 . S
C665 H669 0.950 . S
H666 C662 0.950 . S
C667 C665 1.390 . S
C667 C668 1.387 . S
C667 H670 0.950 . S
C668 C667 1.387 . S
C668 C671 1.387 . S
H669 C665 0.950 . S
H670 C667 0.950 . S
C671 C662 1.390 . S
C671 H664 0.950 . S
C671 C668 1.387 . S
C433 C81 1.677 . S
C438 C170 1.665 1_565 S
C448 C254 1.667 . S
C443 C93 1.678 . S
C458 C247 1.663 . S
C453 C57 1.675 . S
C463 C69 1.674 . S
C468 C163 1.663 1_565 S
C478 C327 1.667 1_545 S
C473 C33 1.672 . S
C488 C411 1.666 . S
C483 C45 1.671 . S
C493 C9 1.669 . S
C498 C404 1.664 . S
C503 C21 1.669 . S
C508 C320 1.664 1_545 S
C518 C154 1.449 . S
C513 C18 1.604 . S
C528 C238 1.444 . S
C523 C6 1.602 . S
C538 C249 1.364 . S
C533 C42 1.602 . S
C548 C165 1.369 . S
C543 C30 1.604 . S
C558 C333 1.449 . S
C553 C66 1.612 . S
C563 C54 1.611 . S
C568 C417 1.445 . S
C578 C406 1.363 . S
C573 C90 1.609 . S
C583 C78 1.610 . S
C588 C322 1.366 . S
C598 C152 1.520 . S
C593 C4 1.504 . S
C608 C236 1.521 . S
C603 C16 1.504 . S
C613 C28 1.500 . S
C618 C243 1.492 . S
C628 C159 1.490 . S
C623 C40 1.501 . S
C638 C331 1.520 . S
C633 C52 1.497 . S
C643 C64 1.498 . S
C648 C415 1.521 . S
C653 C76 1.495 . S
C658 C422 1.491 . S
C663 C88 1.495 . S
C668 C338 1.490 . S
