# Generated by pormake.
# Topology pto, (3,4)-cn, num edge types: 1
# Building blocks:
#     Node 0, Type 0, BuildingBlock: MIDCAF_clean_linker_0, # of connection points: 3
#     Node 1, Type 0, BuildingBlock: MIDCAF_clean_linker_0, # of connection points: 3
#     Node 2, Type 0, BuildingBlock: MIDCAF_clean_linker_0, # of connection points: 3
#     Node 3, Type 0, BuildingBlock: MIDCAF_clean_linker_0, # of connection points: 3
#     Node 4, Type 0, BuildingBlock: MIDCAF_clean_linker_0, # of connection points: 3
#     Node 5, Type 0, BuildingBlock: MIDCAF_clean_linker_0, # of connection points: 3
#     Node 6, Type 0, BuildingBlock: MIDCAF_clean_linker_0, # of connection points: 3
#     Node 7, Type 0, BuildingBlock: MIDCAF_clean_linker_0, # of connection points: 3
#     Node 8, Type 1, BuildingBlock: KOZSID_clean_sbu_0, # of connection points: 4
#     Node 9, Type 1, BuildingBlock: KOZSID_clean_sbu_0, # of connection points: 4
#     Node 10, Type 1, BuildingBlock: KOZSID_clean_sbu_0, # of connection points: 4
#     Node 11, Type 1, BuildingBlock: KOZSID_clean_sbu_0, # of connection points: 4
#     Node 12, Type 1, BuildingBlock: KOZSID_clean_sbu_0, # of connection points: 4
#     Node 13, Type 1, BuildingBlock: KOZSID_clean_sbu_0, # of connection points: 4
#     Edge 14, Type (0, 1), BuildingBlock: ZUJKAS_clean_linker_0, # of connection points: 2
#     Edge 15, Type (0, 1), BuildingBlock: ZUJKAS_clean_linker_0, # of connection points: 2
#     Edge 16, Type (0, 1), BuildingBlock: ZUJKAS_clean_linker_0, # of connection points: 2
#     Edge 17, Type (0, 1), BuildingBlock: ZUJKAS_clean_linker_0, # of connection points: 2
#     Edge 18, Type (0, 1), BuildingBlock: ZUJKAS_clean_linker_0, # of connection points: 2
#     Edge 19, Type (0, 1), BuildingBlock: ZUJKAS_clean_linker_0, # of connection points: 2
#     Edge 20, Type (0, 1), BuildingBlock: ZUJKAS_clean_linker_0, # of connection points: 2
#     Edge 21, Type (0, 1), BuildingBlock: ZUJKAS_clean_linker_0, # of connection points: 2
#     Edge 22, Type (0, 1), BuildingBlock: ZUJKAS_clean_linker_0, # of connection points: 2
#     Edge 23, Type (0, 1), BuildingBlock: ZUJKAS_clean_linker_0, # of connection points: 2
#     Edge 24, Type (0, 1), BuildingBlock: ZUJKAS_clean_linker_0, # of connection points: 2
#     Edge 25, Type (0, 1), BuildingBlock: ZUJKAS_clean_linker_0, # of connection points: 2
#     Edge 26, Type (0, 1), BuildingBlock: ZUJKAS_clean_linker_0, # of connection points: 2
#     Edge 27, Type (0, 1), BuildingBlock: ZUJKAS_clean_linker_0, # of connection points: 2
#     Edge 28, Type (0, 1), BuildingBlock: ZUJKAS_clean_linker_0, # of connection points: 2
#     Edge 29, Type (0, 1), BuildingBlock: ZUJKAS_clean_linker_0, # of connection points: 2
#     Edge 30, Type (0, 1), BuildingBlock: ZUJKAS_clean_linker_0, # of connection points: 2
#     Edge 31, Type (0, 1), BuildingBlock: ZUJKAS_clean_linker_0, # of connection points: 2
#     Edge 32, Type (0, 1), BuildingBlock: ZUJKAS_clean_linker_0, # of connection points: 2
#     Edge 33, Type (0, 1), BuildingBlock: ZUJKAS_clean_linker_0, # of connection points: 2
#     Edge 34, Type (0, 1), BuildingBlock: ZUJKAS_clean_linker_0, # of connection points: 2
#     Edge 35, Type (0, 1), BuildingBlock: ZUJKAS_clean_linker_0, # of connection points: 2
#     Edge 36, Type (0, 1), BuildingBlock: ZUJKAS_clean_linker_0, # of connection points: 2
#     Edge 37, Type (0, 1), BuildingBlock: ZUJKAS_clean_linker_0, # of connection points: 2
# Relax obj value: 0.000
# Max RMSD: 0.018
# Mean RMSD: 0.008
data_MOF--net-pto--node1-KOZSID_clean_sbu_0--node2-MIDCAF_clean_linker_0--edge1-ZUJKAS_clean_linker_0
_symmetry_space_group_name_H-M    P1
_symmetry_Int_Tables_number       1
_symmetry_cell_setting            triclinic
loop_
_symmetry_equiv_pos_as_xyz
'x, y, z'
_cell_length_a     57.203515
_cell_length_b     77.399731
_cell_length_c     67.429148
_cell_angle_alpha  87.951493
_cell_angle_beta   87.970419
_cell_angle_gamma 92.311851
loop_
_atom_site_label
_atom_site_type_symbol
_atom_site_fract_x
_atom_site_fract_y
_atom_site_fract_z
_atom_type_partial_charge
C0 C 0.32703 0.24148 0.25291 0.0
C1 C 0.3276 0.25498 0.23838 0.0
C2 C 0.31376 0.2693 0.2415 0.0
C3 C 0.29959 0.27008 0.25874 0.0
H4 H 0.25244 0.30041 0.28674 0.0
H5 H 0.22925 0.32557 0.29262 0.0
H6 H 0.20773 0.30417 0.35074 0.0
H7 H 0.23104 0.27904 0.34503 0.0
H8 H 0.24138 0.24026 0.35605 0.0
H9 H 0.23586 0.21468 0.37805 0.0
H10 H 0.27944 0.18618 0.33829 0.0
H11 H 0.28545 0.21178 0.3165 0.0
H12 H 0.31271 0.23151 0.2809 0.0
H13 H 0.33731 0.23019 0.25084 0.0
H14 H 0.31403 0.28 0.23068 0.0
H15 H 0.28913 0.2813 0.26061 0.0
N16 N 0.27135 0.27147 0.29509 0.0
N17 N 0.25495 0.25804 0.32435 0.0
N18 N 0.28108 0.24324 0.30425 0.0
C19 C 0.2571 0.27205 0.31159 0.0
C20 C 0.26685 0.24357 0.32078 0.0
C21 C 0.28348 0.25713 0.29134 0.0
C22 C 0.24358 0.28763 0.31538 0.0
C23 C 0.24288 0.30106 0.30083 0.0
C24 C 0.22949 0.31545 0.30413 0.0
C25 C 0.21663 0.31681 0.32211 0.0
C26 C 0.21763 0.30356 0.3368 0.0
C27 C 0.23088 0.2891 0.33346 0.0
C28 C 0.26386 0.22813 0.33445 0.0
C29 C 0.24987 0.22857 0.35199 0.0
C30 C 0.24657 0.21386 0.36458 0.0
C31 C 0.25716 0.19837 0.35992 0.0
C32 C 0.27128 0.19796 0.34247 0.0
C33 C 0.27463 0.21266 0.32991 0.0
C34 C 0.29885 0.2565 0.27321 0.0
C35 C 0.31279 0.24221 0.2701 0.0
C36 C 0.21912 0.70124 0.7287 0.0
C37 C 0.20399 0.70042 0.71275 0.0
C38 C 0.20229 0.71513 0.70014 0.0
C39 C 0.2153 0.73036 0.70348 0.0
H40 H 0.22384 0.78124 0.68436 0.0
H41 H 0.21922 0.80722 0.66367 0.0
H42 H 0.27356 0.83382 0.69513 0.0
H43 H 0.27786 0.80806 0.71613 0.0
H44 H 0.29518 0.7914 0.75548 0.0
H45 H 0.32018 0.79284 0.78387 0.0
H46 H 0.30568 0.7384 0.79723 0.0
H47 H 0.28088 0.7368 0.76867 0.0
H48 H 0.24345 0.71662 0.74458 0.0
H49 H 0.2206 0.69021 0.73885 0.0
H50 H 0.19103 0.71485 0.68757 0.0
H51 H 0.21349 0.74144 0.69346 0.0
N52 N 0.24164 0.76186 0.71141 0.0
N53 N 0.2681 0.77736 0.73051 0.0
N54 N 0.25826 0.74827 0.73885 0.0
C55 C 0.25375 0.77684 0.7149 0.0
C56 C 0.27047 0.76315 0.74256 0.0
C57 C 0.24381 0.7475 0.7233 0.0
C58 C 0.25118 0.79252 0.70199 0.0
C59 C 0.23483 0.79261 0.68689 0.0
C60 C 0.23225 0.80749 0.67493 0.0
C61 C 0.24598 0.82262 0.67776 0.0
C62 C 0.26243 0.82249 0.69276 0.0
C63 C 0.26498 0.80764 0.70474 0.0
C64 C 0.28594 0.76398 0.75974 0.0
C65 C 0.29731 0.7797 0.7644 0.0
C66 C 0.31156 0.78057 0.78076 0.0
C67 C 0.31486 0.76575 0.79282 0.0
C68 C 0.30367 0.75001 0.7881 0.0
C69 C 0.28934 0.74913 0.77177 0.0
C70 C 0.23032 0.73124 0.71952 0.0
C71 C 0.23212 0.71646 0.73205 0.0
C72 C 0.71745 0.74848 0.24756 0.0
C73 C 0.70734 0.76411 0.24206 0.0
C74 C 0.71159 0.77868 0.25348 0.0
C75 C 0.72567 0.77766 0.26996 0.0
H76 H 0.74704 0.80516 0.31709 0.0
H77 H 0.75273 0.83022 0.33739 0.0
H78 H 0.80271 0.80281 0.37179 0.0
H79 H 0.79671 0.77755 0.35179 0.0
H80 H 0.80215 0.73747 0.34524 0.0
H81 H 0.82446 0.71177 0.35143 0.0
H82 H 0.80306 0.69158 0.29572 0.0
H83 H 0.78085 0.71727 0.28936 0.0
H84 H 0.73906 0.73518 0.26778 0.0
H85 H 0.71426 0.73694 0.23928 0.0
H86 H 0.70434 0.79099 0.2495 0.0
H87 H 0.72866 0.78919 0.2783 0.0
N88 N 0.75402 0.77479 0.30446 0.0
N89 N 0.77947 0.7593 0.3242 0.0
N90 N 0.76268 0.74639 0.29687 0.0
C91 C 0.76812 0.77405 0.32024 0.0
C92 C 0.77685 0.74541 0.3126 0.0
C93 C 0.75116 0.76102 0.29272 0.0
C94 C 0.77142 0.78928 0.33275 0.0
C95 C 0.75923 0.80441 0.32898 0.0
C96 C 0.7626 0.81885 0.34055 0.0
C97 C 0.77824 0.81854 0.35616 0.0
C98 C 0.79033 0.8034 0.36002 0.0
C99 C 0.78696 0.78894 0.34846 0.0
C100 C 0.78974 0.72951 0.31675 0.0
C101 C 0.80212 0.72755 0.3343 0.0
C102 C 0.8148 0.71278 0.33793 0.0
C103 C 0.81555 0.6997 0.32404 0.0
C104 C 0.803 0.70155 0.3066 0.0
C105 C 0.79017 0.71625 0.30303 0.0
C106 C 0.73592 0.76204 0.2754 0.0
C107 C 0.73159 0.74746 0.26401 0.0
C108 C 0.79599 0.22167 0.68835 0.0
C109 C 0.78034 0.20716 0.69017 0.0
C110 C 0.76146 0.20728 0.70409 0.0
C111 C 0.7585 0.22142 0.7161 0.0
H112 H 0.71906 0.23781 0.76392 0.0
H113 H 0.6925 0.23489 0.79295 0.0
H114 H 0.72622 0.28001 0.81725 0.0
H115 H 0.75219 0.2833 0.78793 0.0
H116 H 0.78358 0.30801 0.7585 0.0
H117 H 0.80637 0.33492 0.75176 0.0
H118 H 0.8356 0.31438 0.69801 0.0
H119 H 0.81257 0.28749 0.70452 0.0
H120 H 0.80549 0.24673 0.69859 0.0
H121 H 0.8109 0.22193 0.67797 0.0
H122 H 0.74881 0.19648 0.70564 0.0
H123 H 0.74378 0.22101 0.72669 0.0
N124 N 0.75625 0.24926 0.7435 0.0
N125 N 0.76705 0.27746 0.75214 0.0
N126 N 0.78434 0.26565 0.72393 0.0
C127 C 0.754 0.26257 0.75592 0.0
C128 C 0.78218 0.27914 0.73613 0.0
C129 C 0.77144 0.25066 0.72751 0.0
C130 C 0.73777 0.2608 0.77356 0.0
C131 C 0.7208 0.24713 0.77544 0.0
C132 C 0.70563 0.2454 0.79217 0.0
C133 C 0.7072 0.25719 0.80751 0.0
C134 C 0.7242 0.27085 0.8056 0.0
C135 C 0.73922 0.27268 0.7888 0.0
C136 C 0.7962 0.29551 0.73207 0.0
C137 C 0.79483 0.30917 0.74522 0.0
C138 C 0.808 0.3246 0.74142 0.0
C139 C 0.82281 0.32677 0.72437 0.0
C140 C 0.82415 0.31317 0.71117 0.0
C141 C 0.81103 0.29771 0.71499 0.0
C142 C 0.77425 0.23586 0.71439 0.0
C143 C 0.79293 0.23587 0.70026 0.0
C144 C 0.7014 0.78071 0.78837 0.0
C145 C 0.69824 0.76625 0.80154 0.0
C146 C 0.70957 0.75101 0.79708 0.0
C147 C 0.72402 0.75032 0.77999 0.0
H148 H 0.76442 0.71753 0.74784 0.0
H149 H 0.78593 0.69172 0.74123 0.0
H150 H 0.82704 0.72003 0.69488 0.0
H151 H 0.80519 0.74569 0.70108 0.0
H152 H 0.7959 0.78462 0.69128 0.0
H153 H 0.80305 0.81078 0.67037 0.0
H154 H 0.74582 0.83474 0.70078 0.0
H155 H 0.73846 0.80861 0.72161 0.0
H156 H 0.7179 0.79148 0.76157 0.0
H157 H 0.69263 0.79256 0.79122 0.0
H158 H 0.70769 0.7397 0.80703 0.0
H159 H 0.73269 0.73842 0.77717 0.0
N160 N 0.75503 0.74988 0.74513 0.0
N161 N 0.77384 0.76405 0.7173 0.0
N162 N 0.74724 0.77873 0.73706 0.0
C163 C 0.77022 0.74957 0.72919 0.0
C164 C 0.76237 0.77867 0.72109 0.0
C165 C 0.74347 0.76442 0.74918 0.0
C166 C 0.78306 0.73375 0.72502 0.0
C167 C 0.778 0.71827 0.73619 0.0
C168 C 0.79042 0.70347 0.73247 0.0
C169 C 0.80825 0.70379 0.71755 0.0
C170 C 0.81319 0.71923 0.70629 0.0
C171 C 0.80072 0.73401 0.70995 0.0
C172 C 0.7666 0.79447 0.70817 0.0
C173 C 0.78477 0.79542 0.6935 0.0
C174 C 0.78898 0.81045 0.68159 0.0
C175 C 0.77501 0.8248 0.68396 0.0
C176 C 0.75674 0.82382 0.69848 0.0
C177 C 0.75262 0.80885 0.7105 0.0
C178 C 0.72746 0.76487 0.76694 0.0
C179 C 0.71581 0.78003 0.77128 0.0
C180 C 0.79106 0.21473 0.36756 0.0
C181 C 0.78025 0.19882 0.36295 0.0
C182 C 0.76687 0.19799 0.3459 0.0
C183 C 0.76437 0.21273 0.33372 0.0
H184 H 0.73343 0.22927 0.28332 0.0
H185 H 0.70955 0.22764 0.25426 0.0
H186 H 0.72248 0.28242 0.24195 0.0
H187 H 0.74682 0.28405 0.27075 0.0
H188 H 0.78392 0.30435 0.29526 0.0
H189 H 0.80655 0.33079 0.30139 0.0
H190 H 0.8326 0.30684 0.35461 0.0
H191 H 0.81039 0.28025 0.34834 0.0
H192 H 0.79728 0.24148 0.35934 0.0
H193 H 0.80169 0.21574 0.38047 0.0
H194 H 0.75809 0.18597 0.34209 0.0
H195 H 0.7539 0.21158 0.32072 0.0
N196 N 0.75916 0.24356 0.30914 0.0
N197 N 0.76859 0.27279 0.3011 0.0
N198 N 0.78429 0.2594 0.32908 0.0
C199 C 0.75694 0.25776 0.29702 0.0
C200 C 0.78231 0.27373 0.31711 0.0
C201 C 0.77278 0.24427 0.32522 0.0
C202 C 0.74213 0.2568 0.27943 0.0
C203 C 0.73122 0.241 0.27446 0.0
C204 C 0.71739 0.24006 0.25783 0.0
C205 C 0.71408 0.25489 0.24577 0.0
C206 C 0.72493 0.2707 0.25075 0.0
C207 C 0.7388 0.27164 0.26737 0.0
C208 C 0.79536 0.29008 0.32124 0.0
C209 C 0.7944 0.30469 0.30831 0.0
C210 C 0.80727 0.31992 0.31189 0.0
C211 C 0.82142 0.32092 0.32847 0.0
C212 C 0.82214 0.30641 0.34154 0.0
C213 C 0.80928 0.29118 0.33798 0.0
C214 C 0.77525 0.22866 0.33826 0.0
C215 C 0.78862 0.22947 0.35535 0.0
C216 C 0.25945 0.20259 0.70052 0.0
C217 C 0.2492 0.20464 0.68201 0.0
C218 C 0.24225 0.22111 0.6758 0.0
C219 C 0.24531 0.23523 0.68794 0.0
H220 H 0.22746 0.28606 0.69399 0.0
H221 H 0.20543 0.31197 0.68809 0.0
H222 H 0.2231 0.32985 0.74582 0.0
H223 H 0.24504 0.30398 0.75186 0.0
H224 H 0.28692 0.28565 0.77344 0.0
H225 H 0.31112 0.28315 0.80227 0.0
H226 H 0.31952 0.22903 0.79149 0.0
H227 H 0.29582 0.23156 0.76237 0.0
H228 H 0.27068 0.21466 0.72677 0.0
H229 H 0.2652 0.19008 0.70559 0.0
H230 H 0.23415 0.22303 0.66165 0.0
H231 H 0.23966 0.24773 0.68273 0.0
N232 N 0.24802 0.26315 0.71544 0.0
N233 N 0.26384 0.27524 0.74366 0.0
N234 N 0.27203 0.24683 0.7357 0.0
C235 C 0.25043 0.27675 0.7275 0.0
C236 C 0.27477 0.26035 0.74784 0.0
C237 C 0.25873 0.24813 0.71945 0.0
C238 C 0.23796 0.29286 0.72345 0.0
C239 C 0.22674 0.29552 0.70542 0.0
C240 C 0.21422 0.31042 0.70197 0.0
C241 C 0.21247 0.32288 0.71653 0.0
C242 C 0.22393 0.32035 0.73442 0.0
C243 C 0.23662 0.30556 0.73781 0.0
C244 C 0.28938 0.25881 0.76551 0.0
C245 C 0.2939 0.2732 0.77718 0.0
C246 C 0.30769 0.27175 0.79381 0.0
C247 C 0.31725 0.25588 0.79923 0.0
C248 C 0.31272 0.2415 0.78758 0.0
C249 C 0.29899 0.24295 0.77092 0.0
C250 C 0.25561 0.23321 0.70648 0.0
C251 C 0.26272 0.21672 0.71258 0.0
C252 C 0.22308 0.69455 0.30314 0.0
C253 C 0.20517 0.69366 0.31801 0.0
C254 C 0.20105 0.70845 0.32892 0.0
C255 C 0.21436 0.7238 0.32492 0.0
H256 H 0.22453 0.77292 0.34425 0.0
H257 H 0.21896 0.79787 0.3646 0.0
H258 H 0.27394 0.82642 0.33037 0.0
H259 H 0.27922 0.80166 0.3097 0.0
H260 H 0.3031 0.78505 0.2729 0.0
H261 H 0.32855 0.78792 0.24314 0.0
H262 H 0.30556 0.7368 0.22648 0.0
H263 H 0.27987 0.73392 0.25607 0.0
H264 H 0.24992 0.7101 0.28747 0.0
H265 H 0.22698 0.68332 0.29467 0.0
H266 H 0.18719 0.70831 0.34029 0.0
H267 H 0.21049 0.73497 0.3335 0.0
N268 N 0.24314 0.75501 0.31686 0.0
N269 N 0.27051 0.77136 0.29654 0.0
N270 N 0.26087 0.74263 0.28921 0.0
C271 C 0.25547 0.77014 0.31263 0.0
C272 C 0.2733 0.75768 0.28473 0.0
C273 C 0.24578 0.74117 0.30526 0.0
C274 C 0.25231 0.78524 0.32527 0.0
C275 C 0.23547 0.7845 0.34103 0.0
C276 C 0.23233 0.79879 0.35279 0.0
C277 C 0.24598 0.81415 0.34911 0.0
C278 C 0.26288 0.81487 0.33341 0.0
C279 C 0.26599 0.8006 0.32163 0.0
C280 C 0.28933 0.75927 0.26692 0.0
C281 C 0.30345 0.77439 0.26294 0.0
C282 C 0.31816 0.77602 0.24592 0.0
C283 C 0.31902 0.76261 0.23244 0.0
C284 C 0.30505 0.74745 0.23646 0.0
C285 C 0.29043 0.74578 0.25352 0.0
C286 C 0.23206 0.72476 0.30986 0.0
C287 C 0.23633 0.70991 0.29908 0.0
C288 C 0.04963 0.53085 0.36152 0.0
C289 C 0.05839 0.53528 0.37968 0.0
C290 C 0.04575 0.5256 0.3939 0.0
C291 C 0.03018 0.51575 0.38365 0.0
N292 N 0.03219 0.51847 0.36372 0.0
Co293 Co 0.01341 0.5066 0.34322 0.0
N294 N 0.99356 0.49341 0.36423 0.0
C295 C 0.99458 0.49485 0.38412 0.0
C296 C 0.97854 0.48428 0.39478 0.0
C297 C 0.96663 0.47548 0.38088 0.0
C298 C 0.97625 0.48115 0.36249 0.0
N299 N 0.99516 0.49426 0.3227 0.0
C300 C 0.97821 0.48151 0.32492 0.0
C301 C 0.97113 0.47576 0.3067 0.0
C302 C 0.98407 0.48519 0.29247 0.0
C303 C 0.99835 0.49602 0.30273 0.0
N304 N 0.03273 0.52025 0.3222 0.0
C305 C 0.03054 0.51975 0.30231 0.0
C306 C 0.04522 0.53132 0.29165 0.0
C307 C 0.05738 0.53991 0.30555 0.0
C308 C 0.0495 0.53294 0.32397 0.0
N309 N 0.03605 0.48781 0.34292 0.0
C310 C 0.06655 0.46009 0.34213 0.0
C311 C 0.06158 0.46936 0.32473 0.0
C312 C 0.04642 0.48301 0.32546 0.0
C313 C 0.05635 0.46519 0.36 0.0
C314 C 0.04134 0.47899 0.36007 0.0
N315 N 0.99079 0.52539 0.34349 0.0
C316 C 0.96638 0.54509 0.32588 0.0
C317 C 0.96072 0.55339 0.34336 0.0
C318 C 0.96991 0.54712 0.36102 0.0
C319 C 0.98471 0.53319 0.36076 0.0
C320 C 0.98131 0.53129 0.32627 0.0
H321 H 0.99124 0.52911 0.37468 0.0
H322 H 0.98505 0.5257 0.31239 0.0
H323 H 0.04328 0.4894 0.31164 0.0
H324 H 0.03404 0.48215 0.37416 0.0
C325 C 0.01216 0.50503 0.39236 0.0
C326 C 0.05792 0.53918 0.34271 0.0
C327 C 0.96884 0.47408 0.34388 0.0
C328 C 0.01466 0.50815 0.29406 0.0
H329 H 0.07221 0.54479 0.38238 0.0
H330 H 0.04729 0.52603 0.40983 0.0
H331 H 0.97623 0.4828 0.41076 0.0
H332 H 0.95273 0.46573 0.38393 0.0
H333 H 0.95815 0.46566 0.30395 0.0
H334 H 0.9833 0.48417 0.27653 0.0
H335 H 0.04672 0.53339 0.27569 0.0
H336 H 0.07035 0.55029 0.30241 0.0
H337 H 0.06942 0.46617 0.31054 0.0
H338 H 0.05948 0.45835 0.37389 0.0
H339 H 0.95931 0.54918 0.31186 0.0
H340 H 0.96619 0.55316 0.37496 0.0
C341 C 0.04788 0.53955 0.71594 0.0
C342 C 0.05561 0.5449 0.73412 0.0
C343 C 0.04263 0.53556 0.74841 0.0
C344 C 0.02776 0.52513 0.7382 0.0
N345 N 0.03054 0.52711 0.71821 0.0
Co346 Co 0.01217 0.51481 0.69772 0.0
N347 N 0.99248 0.50158 0.7188 0.0
C348 C 0.99367 0.50288 0.73871 0.0
C349 C 0.97798 0.49206 0.7494 0.0
C350 C 0.9662 0.48316 0.73552 0.0
C351 C 0.97553 0.48904 0.7171 0.0
N352 N 0.99383 0.50246 0.67724 0.0
C353 C 0.97681 0.48976 0.67952 0.0
C354 C 0.96927 0.48429 0.66133 0.0
C355 C 0.982 0.49382 0.64705 0.0
C356 C 0.99659 0.50448 0.65726 0.0
N357 N 0.03183 0.52809 0.67664 0.0
C358 C 0.03042 0.52695 0.65674 0.0
C359 C 0.046 0.53787 0.64605 0.0
C360 C 0.05797 0.54663 0.65993 0.0
C361 C 0.04891 0.54054 0.67835 0.0
N362 N 0.03485 0.49606 0.69782 0.0
C363 C 0.06563 0.46848 0.69825 0.0
C364 C 0.0584 0.47578 0.68035 0.0
C365 C 0.0432 0.48947 0.68047 0.0
C366 C 0.05748 0.47546 0.7159 0.0
C367 C 0.04222 0.48906 0.71534 0.0
N368 N 0.98945 0.53358 0.69763 0.0
C369 C 0.96616 0.554 0.67983 0.0
C370 C 0.95837 0.56093 0.6976 0.0
C371 C 0.96613 0.5538 0.71537 0.0
C372 C 0.98143 0.54022 0.71505 0.0
C373 C 0.98164 0.54048 0.68019 0.0
H374 H 0.98657 0.53539 0.7291 0.0
H375 H 0.98718 0.53594 0.66615 0.0
H376 H 0.03828 0.49439 0.66635 0.0
H377 H 0.03655 0.49361 0.72932 0.0
C378 C 0.01039 0.51385 0.74696 0.0
C379 C 0.05688 0.54721 0.69699 0.0
C380 C 0.96808 0.48197 0.69849 0.0
C381 C 0.0138 0.5159 0.64852 0.0
H382 H 0.06896 0.55476 0.73681 0.0
H383 H 0.0436 0.53652 0.76434 0.0
H384 H 0.97568 0.49061 0.76538 0.0
H385 H 0.95251 0.47327 0.73862 0.0
H386 H 0.95625 0.4742 0.65863 0.0
H387 H 0.98112 0.49282 0.63112 0.0
H388 H 0.04816 0.53943 0.63006 0.0
H389 H 0.07168 0.55652 0.65686 0.0
H390 H 0.06405 0.47076 0.66625 0.0
H391 H 0.06292 0.47054 0.73018 0.0
H392 H 0.96074 0.5592 0.66567 0.0
H393 H 0.96027 0.55857 0.72953 0.0
C394 C 0.25337 0.98527 0.54737 0.0
C395 C 0.27501 0.98066 0.55408 0.0
C396 C 0.2915 0.9901 0.54277 0.0
C397 C 0.27906 -0.00012 0.52986 0.0
N398 N 0.25557 0.9974 0.53235 0.0
Co399 Co 0.23089 0.0087 0.51658 0.0
N400 N 0.25522 0.02146 0.49882 0.0
C401 C 0.27875 0.02035 0.49943 0.0
C402 C 0.29093 0.03099 0.48569 0.0
C403 C 0.27425 0.03958 0.47584 0.0
C404 C 0.25273 0.03361 0.48416 0.0
N405 N 0.20623 0.02025 0.50105 0.0
C406 C 0.20847 0.03274 0.48642 0.0
C407 C 0.18685 0.03771 0.48004 0.0
C408 C 0.17032 0.02828 0.49132 0.0
C409 C 0.18274 0.01811 0.50385 0.0
N410 N 0.20656 0.99569 0.53409 0.0
C411 C 0.18302 0.99636 0.53311 0.0
C412 C 0.17088 0.98548 0.54664 0.0
C413 C 0.18763 0.97714 0.5567 0.0
C414 C 0.20909 0.98346 0.54866 0.0
N415 N 0.23117 0.02825 0.53488 0.0
C416 C 0.23165 0.05708 0.55921 0.0
C417 C 0.21065 0.04825 0.55532 0.0
C418 C 0.21079 0.03402 0.54312 0.0
C419 C 0.2524 0.05107 0.55106 0.0
C420 C 0.25179 0.0367 0.53916 0.0
N421 N 0.23062 0.98916 0.49826 0.0
C422 C 0.20953 0.96776 0.47971 0.0
C423 C 0.23044 0.96061 0.47342 0.0
C424 C 0.25142 0.96815 0.47957 0.0
C425 C 0.25111 0.98226 0.49185 0.0
C426 C 0.21002 0.98192 0.49202 0.0
H427 H 0.26771 0.98729 0.49602 0.0
H428 H 0.1935 0.98665 0.49642 0.0
H429 H 0.1942 0.02803 0.5404 0.0
H430 H 0.26823 0.03277 0.5335 0.0
C431 C 0.28892 0.01041 0.51425 0.0
C432 C 0.23133 0.97704 0.55493 0.0
C433 C 0.23056 0.04069 0.47859 0.0
C434 C 0.17287 0.00694 0.51887 0.0
H435 H 0.27853 0.97114 0.56562 0.0
H436 H 0.31033 0.9895 0.54345 0.0
H437 H 0.30974 0.03278 0.4836 0.0
H438 H 0.27764 0.0495 0.46428 0.0
H439 H 0.18343 0.04739 0.46863 0.0
H440 H 0.1515 0.02901 0.49075 0.0
H441 H 0.15208 0.98359 0.54867 0.0
H442 H 0.18445 0.96731 0.56842 0.0
H443 H 0.19411 0.05251 0.56128 0.0
H444 H 0.26914 0.05735 0.55396 0.0
H445 H 0.19279 0.96229 0.47548 0.0
H446 H 0.26813 0.96329 0.47481 0.0
C447 C 0.47515 0.78929 0.04568 0.0
C448 C 0.46681 0.80515 0.05096 0.0
C449 C 0.47948 0.8175 0.03978 0.0
C450 C 0.49466 0.80851 0.02829 0.0
N451 N 0.49233 0.79114 0.03132 0.0
Co452 Co 0.51076 0.77318 0.0177 0.0
N453 N 0.53073 0.79141 0.00251 0.0
C454 C 0.52978 0.80877 0.00394 0.0
C455 C 0.54551 0.81798 0.99146 0.0
C456 C 0.55709 0.8058 0.9813 0.0
C457 C 0.54769 0.78981 0.98822 0.0
N458 N 0.52881 0.75521 0.00371 0.0
C459 C 0.54553 0.75708 0.98896 0.0
C460 C 0.55296 0.74121 0.98283 0.0
C461 C 0.54021 0.72883 0.99387 0.0
C462 C 0.52581 0.73781 0.00607 0.0
N463 N 0.49117 0.75494 0.03327 0.0
C464 C 0.49295 0.73758 0.03258 0.0
C465 C 0.478 0.72836 0.0457 0.0
C466 C 0.46612 0.74054 0.05558 0.0
C467 C 0.47447 0.75656 0.04778 0.0
N468 N 0.48812 0.77295 0.99606 0.0
C469 C 0.45799 0.77236 0.96385 0.0
C470 C 0.46341 0.75709 0.97404 0.0
C471 C 0.47836 0.75768 0.98994 0.0
C472 C 0.46752 0.78797 0.97036 0.0
C473 C 0.48236 0.78797 0.98638 0.0
N474 N 0.53343 0.7734 0.03935 0.0
C475 C 0.55733 0.75811 0.06247 0.0
C476 C 0.56398 0.77352 0.07125 0.0
C477 C 0.55537 0.78891 0.0636 0.0
C478 C 0.54034 0.78857 0.04773 0.0
C479 C 0.54216 0.75833 0.04671 0.0
H480 H 0.53444 0.80074 0.04258 0.0
H481 H 0.53757 0.74612 0.04091 0.0
H482 H 0.48189 0.74557 0.99692 0.0
H483 H 0.48918 0.80028 0.99047 0.0
C484 C 0.51251 0.81603 0.01578 0.0
C485 C 0.46672 0.77292 0.05523 0.0
C486 C 0.55449 0.77353 0.97997 0.0
C487 C 0.50912 0.73031 0.01968 0.0
H488 H 0.45327 0.80755 0.06203 0.0
H489 H 0.47822 0.83139 0.04036 0.0
H490 H 0.54772 0.8319 0.98948 0.0
H491 H 0.57048 0.80843 0.96973 0.0
H492 H 0.56607 0.73884 0.97137 0.0
H493 H 0.54111 0.71494 0.99294 0.0
H494 H 0.47625 0.71446 0.04806 0.0
H495 H 0.45309 0.73788 0.06743 0.0
H496 H 0.45612 0.74468 0.96982 0.0
H497 H 0.46402 0.80016 0.96288 0.0
H498 H 0.56337 0.74582 0.06801 0.0
H499 H 0.5603 0.80122 0.06975 0.0
C500 C 0.82501 0.98819 0.55299 0.0
C501 C 0.84689 0.98329 0.55886 0.0
C502 C 0.86303 0.9932 0.54771 0.0
C503 C 0.85018 0.00351 0.53568 0.0
N504 N 0.82676 0.00088 0.53857 0.0
Co505 Co 0.80165 0.01279 0.52392 0.0
N506 N 0.82547 0.02612 0.5062 0.0
C507 C 0.849 0.02492 0.50616 0.0
C508 C 0.8608 0.03583 0.49246 0.0
C509 C 0.84382 0.04465 0.48326 0.0
C510 C 0.82256 0.03856 0.49194 0.0
N511 N 0.77653 0.02502 0.50964 0.0
C512 C 0.77834 0.03784 0.49539 0.0
C513 C 0.75652 0.04318 0.48992 0.0
C514 C 0.74032 0.03359 0.50136 0.0
C515 C 0.75311 0.02299 0.51309 0.0
N516 N 0.77779 0.99912 0.54126 0.0
C517 C 0.7542 -0.00016 0.54081 0.0
C518 C 0.7424 0.98861 0.55417 0.0
C519 C 0.75942 0.97998 0.56352 0.0
C520 C 0.78071 0.98643 0.55521 0.0
N521 N 0.80257 0.03156 0.54325 0.0
C522 C 0.80336 0.05916 0.56938 0.0
C523 C 0.78245 0.05016 0.56566 0.0
C524 C 0.78243 0.03658 0.55261 0.0
C525 C 0.82395 0.05399 0.56002 0.0
C526 C 0.82319 0.04018 0.54724 0.0
N527 N 0.8007 0.99402 0.50461 0.0
C528 C 0.77857 0.97373 0.48542 0.0
C529 C 0.79904 0.96617 0.4788 0.0
C530 C 0.82041 0.97303 0.485 0.0
C531 C 0.82084 0.98686 0.49777 0.0
C532 C 0.77979 0.98751 0.49818 0.0
H533 H 0.83766 0.99139 0.50207 0.0
H534 H 0.76354 0.99256 0.50274 0.0
H535 H 0.76585 0.03051 0.55019 0.0
H536 H 0.83949 0.03681 0.54066 0.0
C537 C 0.85956 0.01452 0.52032 0.0
C538 C 0.80314 0.97975 0.56073 0.0
C539 C 0.80023 0.04566 0.48694 0.0
C540 C 0.74365 0.01114 0.52759 0.0
H541 H 0.85083 0.97327 0.56968 0.0
H542 H 0.88189 0.99253 0.54784 0.0
H543 H 0.87955 0.03757 0.48991 0.0
H544 H 0.8468 0.05474 0.47182 0.0
H545 H 0.75274 0.05312 0.47893 0.0
H546 H 0.72147 0.0344 0.50132 0.0
H547 H 0.72365 0.9868 0.55666 0.0
H548 H 0.75649 0.96991 0.575 0.0
H549 H 0.766 0.05383 0.57242 0.0
H550 H 0.84062 0.0605 0.56265 0.0
H551 H 0.76158 0.96911 0.48073 0.0
H552 H 0.83677 0.96755 0.48039 0.0
C553 C 0.48108 0.26372 0.05108 0.0
C554 C 0.47436 0.27976 0.0573 0.0
C555 C 0.48742 0.2919 0.04617 0.0
C556 C 0.5014 0.28264 0.03394 0.0
N557 N 0.49788 0.26529 0.03636 0.0
Co558 Co 0.51556 0.24701 0.02255 0.0
N559 N 0.53542 0.26493 0.00672 0.0
C560 C 0.53393 0.28232 0.0072 0.0
C561 C 0.54881 0.29129 0.99382 0.0
C562 C 0.56035 0.27892 0.98399 0.0
C563 C 0.55193 0.26303 0.99211 0.0
N564 N 0.53363 0.22874 0.00915 0.0
C565 C 0.55088 0.23029 0.99482 0.0
C566 C 0.55905 0.21429 0.98989 0.0
C567 C 0.54614 0.20216 0.00118 0.0
C568 C 0.53102 0.21141 0.01243 0.0
N569 N 0.49533 0.22909 0.03798 0.0
C570 C 0.49585 0.21171 0.03666 0.0
C571 C 0.47981 0.20275 0.04909 0.0
C572 C 0.46845 0.21514 0.05908 0.0
C573 C 0.47839 0.23098 0.0522 0.0
N574 N 0.49284 0.24684 0.00095 0.0
C575 C 0.46227 0.24679 0.96906 0.0
C576 C 0.47071 0.23137 0.97679 0.0
C577 C 0.48575 0.23167 0.99265 0.0
C578 C 0.46908 0.26221 0.97778 0.0
C579 C 0.48425 0.26194 0.99354 0.0
N580 N 0.53829 0.24719 0.04415 0.0
C581 C 0.55861 0.2321 0.06996 0.0
C582 C 0.56877 0.24763 0.07609 0.0
C583 C 0.56376 0.2629 0.06573 0.0
C584 C 0.54861 0.26239 0.04995 0.0
C585 C 0.54363 0.23217 0.05405 0.0
H586 H 0.54531 0.27449 0.04286 0.0
H587 H 0.53645 0.21991 0.05017 0.0
H588 H 0.49153 0.21948 0.99784 0.0
H589 H 0.48897 0.27415 0.99931 0.0
C590 C 0.51811 0.28986 0.02016 0.0
C591 C 0.47168 0.2474 0.06014 0.0
C592 C 0.55948 0.24649 0.98494 0.0
C593 C 0.51299 0.20416 0.02495 0.0
H594 H 0.4616 0.28244 0.0689 0.0
H595 H 0.48703 0.30582 0.04711 0.0
H596 H 0.55073 0.30517 0.99125 0.0
H597 H 0.57319 0.2814 0.97196 0.0
H598 H 0.57263 0.21164 0.97896 0.0
H599 H 0.54721 0.18824 0.00085 0.0
H600 H 0.47715 0.18886 0.05107 0.0
H601 H 0.45474 0.21278 0.07045 0.0
H602 H 0.46563 0.21906 0.97071 0.0
H603 H 0.46318 0.27452 0.97219 0.0
H604 H 0.56226 0.21989 0.07733 0.0
H605 H 0.57105 0.27528 0.07003 0.0
H606 H 0.18693 0.33147 0.29621 0.0
H607 H 0.16199 0.35597 0.30166 0.0
H608 H 0.1874 0.36031 0.36078 0.0
H609 H 0.21264 0.3359 0.35539 0.0
H610 H 0.12652 0.35788 0.33487 0.0
H611 H 0.19652 0.41012 0.33305 0.0
H612 H 0.20079 0.38948 0.32205 0.0
H613 H 0.20068 0.39113 0.34851 0.0
C614 C 0.18741 0.33777 0.31029 0.0
C615 C 0.2018 0.33182 0.32535 0.0
C616 C 0.17307 0.35167 0.31341 0.0
C617 C 0.17305 0.35998 0.33154 0.0
C618 C 0.18738 0.35413 0.34662 0.0
H619 H 0.09963 0.45084 0.36862 0.0
H620 H 0.12469 0.42597 0.36749 0.0
C621 C 0.20163 0.34014 0.34357 0.0
C622 C 0.15757 0.37453 0.33476 0.0
H623 H 0.15779 0.4183 0.33922 0.0
C624 C 0.1333 0.3711 0.33587 0.0
C625 C 0.16658 0.39168 0.33622 0.0
C626 C 0.19256 0.39597 0.3348 0.0
C627 C 0.11769 0.38444 0.33837 0.0
C628 C 0.12665 0.4017 0.33923 0.0
C629 C 0.15098 0.40507 0.3385 0.0
C630 C 0.11106 0.41651 0.3402 0.0
C631 C 0.09179 0.37988 0.34028 0.0
C632 C 0.09527 0.41953 0.32514 0.0
C633 C 0.08077 0.43359 0.32584 0.0
C634 C 0.08197 0.44508 0.34152 0.0
C635 C 0.098 0.44211 0.3565 0.0
C636 C 0.11245 0.42798 0.35581 0.0
H637 H 0.08837 0.3662 0.34551 0.0
H638 H 0.08278 0.38839 0.35075 0.0
H639 H 0.08401 0.38152 0.32553 0.0
H640 H 0.09426 0.41107 0.31272 0.0
H641 H 0.06848 0.43536 0.31417 0.0
H642 H 0.21762 0.66692 0.7157 0.0
H643 H 0.19376 0.64047 0.71126 0.0
H644 H 0.1345 0.67104 0.69806 0.0
H645 H 0.15812 0.69753 0.70264 0.0
H646 H 0.15229 0.62967 0.73248 0.0
H647 H 0.1374 0.63796 0.65185 0.0
H648 H 0.15996 0.65015 0.66404 0.0
H649 H 0.13001 0.65625 0.66613 0.0
C650 C 0.19949 0.66801 0.71189 0.0
C651 C 0.18979 0.68434 0.70948 0.0
C652 C 0.18594 0.6529 0.70926 0.0
C653 C 0.16249 0.65382 0.70404 0.0
C654 C 0.15272 0.67006 0.70163 0.0
H655 H 0.04653 0.58072 0.69012 0.0
H656 H 0.07302 0.60643 0.69149 0.0
C657 C 0.16625 0.68519 0.70426 0.0
C658 C 0.14792 0.63777 0.70201 0.0
H659 H 0.11472 0.61559 0.66951 0.0
C660 C 0.14421 0.6265 0.71868 0.0
C661 C 0.13739 0.63374 0.68399 0.0
C662 C 0.14151 0.64507 0.66542 0.0
C663 C 0.12974 0.61147 0.71797 0.0
C664 C 0.11909 0.60749 0.69998 0.0
C665 C 0.12294 0.6187 0.68326 0.0
C666 C 0.10347 0.59192 0.69837 0.0
C667 C 0.12543 0.60027 0.73663 0.0
C668 C 0.11197 0.5753 0.70139 0.0
C669 C 0.09688 0.5607 0.70065 0.0
C670 C 0.07319 0.56257 0.69674 0.0
C671 C 0.0648 0.57911 0.69318 0.0
C672 C 0.07986 0.59372 0.69395 0.0
H673 H 0.13015 0.60726 0.75013 0.0
H674 H 0.10679 0.5957 0.73826 0.0
H675 H 0.13632 0.58876 0.73579 0.0
H676 H 0.13022 0.57363 0.70444 0.0
H677 H 0.10359 0.54796 0.70332 0.0
H678 H 0.84525 0.68503 0.29759 0.0
H679 H 0.86926 0.65997 0.3033 0.0
H680 H 0.84251 0.65486 0.3639 0.0
H681 H 0.81825 0.67989 0.35828 0.0
H682 H 0.90386 0.65689 0.3362 0.0
H683 H 0.83243 0.60565 0.33805 0.0
H684 H 0.82953 0.62656 0.32578 0.0
H685 H 0.82807 0.62455 0.35236 0.0
C686 C 0.8443 0.67846 0.31207 0.0
C687 C 0.82981 0.68437 0.32747 0.0
C688 C 0.8581 0.66423 0.31533 0.0
C689 C 0.85748 0.65556 0.33396 0.0
C690 C 0.84305 0.66135 0.34938 0.0
H691 H 0.92657 0.5616 0.37071 0.0
H692 H 0.90224 0.5869 0.37003 0.0
C693 C 0.82935 0.67568 0.34618 0.0
C694 C 0.87238 0.64066 0.33727 0.0
H695 H 0.87072 0.59663 0.34271 0.0
C696 C 0.89667 0.6437 0.3377 0.0
C697 C 0.86282 0.62355 0.3394 0.0
C698 C 0.8368 0.61973 0.3388 0.0
C699 C 0.91178 0.63001 0.34009 0.0
C700 C 0.90232 0.61281 0.34153 0.0
C701 C 0.87794 0.60982 0.34154 0.0
C702 C 0.91746 0.59772 0.34224 0.0
C703 C 0.9377 0.63413 0.34124 0.0
C704 C 0.93389 0.59532 0.32676 0.0
C705 C 0.94799 0.58102 0.32721 0.0
C706 C 0.94571 0.56865 0.34304 0.0
C707 C 0.92903 0.57099 0.35845 0.0
C708 C 0.915 0.58538 0.35802 0.0
H709 H 0.9412 0.64749 0.34623 0.0
H710 H 0.94599 0.62491 0.35156 0.0
H711 H 0.94615 0.63322 0.32626 0.0
H712 H 0.93574 0.60446 0.31421 0.0
H713 H 0.96081 0.57974 0.3152 0.0
H714 H 0.84744 0.34549 0.75085 0.0
H715 H 0.87051 0.37251 0.74443 0.0
H716 H 0.85336 0.37206 0.68268 0.0
H717 H 0.83019 0.34499 0.68898 0.0
H718 H 0.90035 0.37909 0.68808 0.0
H719 H 0.84598 0.4207 0.73458 0.0
H720 H 0.85519 0.40178 0.74782 0.0
H721 H 0.83592 0.39947 0.72748 0.0
C722 C 0.84835 0.35124 0.73594 0.0
C723 C 0.83688 0.34316 0.72044 0.0
C724 C 0.86151 0.36669 0.73231 0.0
C725 C 0.86329 0.37444 0.71316 0.0
C726 C 0.8521 0.36632 0.69759 0.0
H727 H 0.92208 0.47948 0.68938 0.0
H728 H 0.89608 0.45333 0.69113 0.0
C729 C 0.83897 0.35083 0.7012 0.0
C730 C 0.87742 0.39075 0.70931 0.0
H731 H 0.88377 0.43241 0.72385 0.0
C732 C 0.89663 0.3908 0.69577 0.0
C733 C 0.8723 0.40608 0.71912 0.0
C734 C 0.85109 0.40711 0.73291 0.0
C735 C 0.91135 0.40562 0.69227 0.0
C736 C 0.90693 0.42067 0.70287 0.0
C737 C 0.88727 0.4208 0.7159 0.0
C738 C 0.92279 0.4363 0.70103 0.0
C739 C 0.9314 0.40506 0.67719 0.0
C740 C 0.94629 0.43538 0.70617 0.0
C741 C 0.96106 0.45022 0.70508 0.0
C742 C 0.95248 0.46619 0.69897 0.0
C743 C 0.92898 0.46719 0.69396 0.0
C744 C 0.91421 0.45233 0.69499 0.0
H745 H 0.92831 0.39477 0.66639 0.0
H746 H 0.93425 0.41766 0.66888 0.0
H747 H 0.94765 0.40219 0.68496 0.0
H748 H 0.95312 0.42323 0.71133 0.0
H749 H 0.97912 0.44929 0.70918 0.0
H750 H 0.21629 0.18626 0.37888 0.0
H751 H 0.20997 0.16019 0.4003 0.0
H752 H 0.28252 0.14834 0.39132 0.0
H753 H 0.28922 0.1747 0.37053 0.0
H754 H 0.21577 0.12623 0.39096 0.0
H755 H 0.27368 0.14486 0.45154 0.0
H756 H 0.2646 0.16025 0.43289 0.0
H757 H 0.28819 0.14627 0.42746 0.0
C758 C 0.231 0.17826 0.38173 0.0
C759 C 0.2533 0.18262 0.37307 0.0
C760 C 0.2273 0.1633 0.39384 0.0
C761 C 0.24584 0.15247 0.39761 0.0
C762 C 0.26807 0.1567 0.38891 0.0
H763 H 0.24056 0.04526 0.43891 0.0
H764 H 0.24263 0.07264 0.41923 0.0
C765 C 0.2718 0.17166 0.37683 0.0
C766 C 0.2418 0.13647 0.41018 0.0
H767 H 0.26038 0.11526 0.45159 0.0
C768 C 0.22539 0.12386 0.4043 0.0
C769 C 0.25413 0.13354 0.42772 0.0
C770 C 0.27097 0.14701 0.43542 0.0
C771 C 0.22143 0.10818 0.41522 0.0
C772 C 0.23455 0.10492 0.43225 0.0
C773 C 0.2505 0.11772 0.43841 0.0
C774 C 0.23225 0.08827 0.44381 0.0
C775 C 0.20308 0.09532 0.40853 0.0
C776 C 0.2261 0.08803 0.46417 0.0
C777 C 0.22519 0.07248 0.47538 0.0
C778 C 0.23053 0.05699 0.4664 0.0
C779 C 0.23637 0.05714 0.44602 0.0
C780 C 0.23738 0.0727 0.43482 0.0
H781 H 0.19015 0.10166 0.39907 0.0
H782 H 0.2117 0.08544 0.39961 0.0
H783 H 0.19357 0.08861 0.42142 0.0
H784 H 0.22218 0.09991 0.4714 0.0
H785 H 0.22066 0.07254 0.49112 0.0
H786 H 0.3162 0.79083 0.82037 0.0
H787 H 0.34095 0.79247 0.8492 0.0
H788 H 0.37149 0.74444 0.83401 0.0
H789 H 0.34718 0.74286 0.80492 0.0
H790 H 0.34281 0.76741 0.88136 0.0
H791 H 0.42854 0.77819 0.84052 0.0
H792 H 0.40097 0.78149 0.82899 0.0
H793 H 0.411 0.75999 0.83291 0.0
C794 C 0.32839 0.78072 0.82304 0.0
C795 C 0.32982 0.76675 0.81032 0.0
C796 C 0.34239 0.78163 0.83956 0.0
C797 C 0.35821 0.76869 0.84356 0.0
C798 C 0.35962 0.75468 0.83099 0.0
H799 H 0.45783 0.74908 0.93425 0.0
H800 H 0.43283 0.74828 0.90563 0.0
C801 C 0.34556 0.75372 0.8145 0.0
C802 C 0.37286 0.76963 0.86117 0.0
H803 H 0.42951 0.77291 0.87532 0.0
C804 C 0.36177 0.7687 0.88009 0.0
C805 C 0.39755 0.77129 0.85937 0.0
C806 C 0.41029 0.77295 0.83937 0.0
C807 C 0.37477 0.76899 0.89735 0.0
C808 C 0.39949 0.77062 0.89557 0.0
C809 C 0.41056 0.77165 0.87662 0.0
C810 C 0.41424 0.77108 0.91317 0.0
C811 C 0.36196 0.76708 0.91731 0.0
C812 C 0.41221 0.78426 0.92681 0.0
C813 C 0.4263 0.78466 0.94332 0.0
C814 C 0.44284 0.77195 0.9464 0.0
C815 C 0.44498 0.75888 0.93254 0.0
C816 C 0.43085 0.75848 0.91609 0.0
H817 H 0.34391 0.76145 0.91607 0.0
H818 H 0.37149 0.75875 0.92776 0.0
H819 H 0.36062 0.78002 0.92372 0.0
H820 H 0.39981 0.79431 0.92463 0.0
H821 H 0.4241 0.79484 0.95375 0.0
H822 H 0.78222 0.85257 0.34345 0.0
H823 H 0.7875 0.87798 0.36363 0.0
H824 H 0.788 0.84496 0.41647 0.0
H825 H 0.78245 0.81947 0.39646 0.0
H826 H 0.7579 0.88819 0.39488 0.0
H827 H 0.84741 0.87649 0.42017 0.0
H828 H 0.83499 0.86562 0.39949 0.0
H829 H 0.82683 0.85849 0.42452 0.0
C830 C 0.78335 0.8507 0.35938 0.0
C831 C 0.78193 0.83398 0.36835 0.0
C832 C 0.7865 0.86523 0.37085 0.0
C833 C 0.78846 0.86331 0.39148 0.0
C834 C 0.78704 0.84668 0.40051 0.0
H835 H 0.76772 0.93845 0.48124 0.0
H836 H 0.76547 0.91396 0.45942 0.0
C837 C 0.78386 0.83213 0.38905 0.0
C838 C 0.79105 0.87878 0.40364 0.0
H839 H 0.82701 0.89876 0.4359 0.0
C840 C 0.77305 0.89056 0.40378 0.0
C841 C 0.81097 0.8819 0.41503 0.0
C842 C 0.83128 0.87006 0.41472 0.0
C843 C 0.77418 0.90522 0.4154 0.0
C844 C 0.7937 0.90802 0.42734 0.0
C845 C 0.81198 0.89647 0.42684 0.0
C846 C 0.7953 0.9228 0.44062 0.0
C847 C 0.75456 0.91767 0.41472 0.0
C848 C 0.81316 0.93567 0.43751 0.0
C849 C 0.81445 0.94975 0.44991 0.0
C850 C 0.79798 0.95112 0.46572 0.0
C851 C 0.78038 0.93799 0.46896 0.0
C852 C 0.77908 0.92396 0.45654 0.0
H853 H 0.74397 0.91601 0.40137 0.0
H854 H 0.74278 0.91527 0.42805 0.0
H855 H 0.7615 0.93127 0.41476 0.0
H856 H 0.82588 0.93494 0.42531 0.0
H857 H 0.8281 0.95969 0.4469 0.0
H858 H 0.69147 0.22717 0.82742 0.0
H859 H 0.66508 0.22404 0.85671 0.0
H860 H 0.66171 0.27953 0.8584 0.0
H861 H 0.68694 0.28278 0.82847 0.0
H862 H 0.67066 0.23486 0.89348 0.0
H863 H 0.59337 0.26515 0.86219 0.0
H864 H 0.61811 0.25932 0.84688 0.0
H865 H 0.61907 0.27923 0.85991 0.0
C866 C 0.68476 0.23871 0.83376 0.0
C867 C 0.69124 0.25523 0.82545 0.0
C868 C 0.66983 0.2369 0.85063 0.0
C869 C 0.6611 0.25153 0.85956 0.0
C870 C 0.66778 0.26803 0.8515 0.0
H871 H 0.60534 0.25733 0.98024 0.0
H872 H 0.63009 0.25771 0.94973 0.0
C873 C 0.68252 0.26987 0.83453 0.0
C874 C 0.64559 0.24956 0.87767 0.0
H875 H 0.59295 0.26099 0.89749 0.0
C876 C 0.65358 0.24046 0.89432 0.0
C877 C 0.62314 0.25661 0.87864 0.0
C878 C 0.6128 0.26546 0.86088 0.0
C879 C 0.64 0.23857 0.91207 0.0
C880 C 0.61811 0.24642 0.91337 0.0
C881 C 0.60987 0.25515 0.89656 0.0
C882 C 0.60344 0.24582 0.93199 0.0
C883 C 0.64913 0.22797 0.92912 0.0
C884 C 0.5801 0.23945 0.93203 0.0
C885 C 0.56589 0.23957 0.9493 0.0
C886 C 0.57482 0.24607 0.96678 0.0
C887 C 0.59819 0.25228 0.96685 0.0
C888 C 0.61234 0.25233 0.94952 0.0
H889 H 0.66195 0.21858 0.92385 0.0
H890 H 0.65822 0.23672 0.93931 0.0
H891 H 0.63468 0.22074 0.93765 0.0
H892 H 0.57284 0.23443 0.91866 0.0
H893 H 0.54787 0.23473 0.94901 0.0
H894 H 0.2462 0.85618 0.68932 0.0
H895 H 0.24251 0.88235 0.66844 0.0
H896 H 0.23552 0.8513 0.617 0.0
H897 H 0.23956 0.82504 0.63768 0.0
H898 H 0.27185 0.89343 0.63479 0.0
H899 H 0.17885 0.88296 0.61536 0.0
H900 H 0.19147 0.87155 0.63595 0.0
H901 H 0.19726 0.8651 0.61099 0.0
C902 C 0.244 0.8549 0.67354 0.0
C903 C 0.24317 0.8385 0.66517 0.0
C904 C 0.24177 0.86986 0.66168 0.0
C905 C 0.23846 0.86871 0.64126 0.0
C906 C 0.2376 0.85241 0.63281 0.0
H907 H 0.22593 0.94381 0.54407 0.0
H908 H 0.22769 0.91744 0.5653 0.0
C909 C 0.23989 0.83743 0.64466 0.0
C910 C 0.23674 0.88464 0.6287 0.0
H911 H 0.20013 0.90642 0.59873 0.0
C912 C 0.25615 0.89634 0.62697 0.0
C913 C 0.21625 0.8883 0.61848 0.0
C914 C 0.19466 0.87641 0.62035 0.0
C915 C 0.25577 0.91151 0.61499 0.0
C916 C 0.23523 0.91524 0.60485 0.0
C917 C 0.21582 0.90353 0.60657 0.0
C918 C 0.23365 0.93115 0.59221 0.0
C919 C 0.27754 0.92321 0.61293 0.0
C920 C 0.23601 0.94754 0.60041 0.0
C921 C 0.23507 0.96252 0.58831 0.0
C922 C 0.2316 0.96126 0.56793 0.0
C923 C 0.2287 0.94493 0.55979 0.0
C924 C 0.22968 0.92996 0.57187 0.0
H925 H 0.29337 0.91638 0.61734 0.0
H926 H 0.28038 0.92839 0.59742 0.0
H927 H 0.27554 0.93431 0.62273 0.0
H928 H 0.23859 0.94873 0.61614 0.0
H929 H 0.23718 0.97507 0.59478 0.0
H930 H 0.66673 0.78135 0.23803 0.0
H931 H 0.64265 0.78331 0.2088 0.0
H932 H 0.69014 0.75137 0.17705 0.0
H933 H 0.71457 0.74957 0.20602 0.0
H934 H 0.65708 0.79586 0.16913 0.0
H935 H 0.62459 0.72713 0.17186 0.0
H936 H 0.63738 0.73726 0.19287 0.0
H937 H 0.65581 0.73046 0.17274 0.0
C938 C 0.67217 0.77484 0.22478 0.0
C939 C 0.69255 0.76524 0.2244 0.0
C940 C 0.65832 0.77591 0.20815 0.0
C941 C 0.66449 0.76731 0.19091 0.0
C942 C 0.68487 0.75784 0.19038 0.0
H943 H 0.60336 0.75519 0.07627 0.0
H944 H 0.6281 0.7544 0.10514 0.0
C945 C 0.69877 0.75679 0.20697 0.0
C946 C 0.6498 0.76845 0.17333 0.0
H947 H 0.61544 0.74423 0.14362 0.0
C948 C 0.64788 0.78461 0.16356 0.0
C949 C 0.63792 0.75372 0.16614 0.0
C950 C 0.6388 0.73616 0.17649 0.0
C951 C 0.63471 0.78638 0.14648 0.0
C952 C 0.62276 0.77165 0.1393 0.0
C953 C 0.62465 0.75549 0.14913 0.0
C954 C 0.60814 0.77265 0.12162 0.0
C955 C 0.63417 0.80392 0.13603 0.0
C956 C 0.58865 0.78308 0.12137 0.0
C957 C 0.57451 0.78357 0.10489 0.0
C958 C 0.57947 0.77347 0.08845 0.0
C959 C 0.59898 0.763 0.08878 0.0
C960 C 0.61317 0.76258 0.10522 0.0
H961 H 0.64912 0.81257 0.14005 0.0
H962 H 0.63462 0.80277 0.11965 0.0
H963 H 0.61776 0.81016 0.14047 0.0
H964 H 0.58411 0.79062 0.13406 0.0
H965 H 0.55937 0.79153 0.10522 0.0
H966 H 0.79488 0.20683 0.65093 0.0
H967 H 0.80055 0.18158 0.6307 0.0
H968 H 0.77876 0.1478 0.6807 0.0
H969 H 0.77376 0.17285 0.70129 0.0
H970 H 0.83024 0.14923 0.64331 0.0
H971 H 0.73547 0.1372 0.63005 0.0
H972 H 0.74756 0.15843 0.63525 0.0
H973 H 0.74389 0.14213 0.65479 0.0
C974 C 0.79157 0.19404 0.65773 0.0
C975 C 0.78379 0.1919 0.67775 0.0
C976 C 0.79471 0.17965 0.64611 0.0
C977 C 0.78995 0.16292 0.65425 0.0
C978 C 0.78234 0.16067 0.67418 0.0
H979 H 0.78104 0.06114 0.60563 0.0
H980 H 0.77933 0.08626 0.62657 0.0
C981 C 0.77934 0.17501 0.68585 0.0
C982 C 0.79272 0.14774 0.64187 0.0
H983 H 0.76156 0.11713 0.61758 0.0
C984 C 0.8153 0.14219 0.63759 0.0
C985 C 0.77312 0.13864 0.63465 0.0
C986 C 0.74857 0.14436 0.63876 0.0
C987 C 0.8188 0.12747 0.62643 0.0
C988 C 0.79917 0.1184 0.619 0.0
C989 C 0.77658 0.12407 0.62329 0.0
C990 C 0.80151 0.10297 0.60679 0.0
C991 C 0.84339 0.12152 0.62318 0.0
C992 C 0.81457 0.10401 0.58872 0.0
C993 C 0.8157 0.08963 0.57681 0.0
C994 C 0.80346 0.07405 0.5826 0.0
C995 C 0.7905 0.07302 0.60073 0.0
C996 C 0.78955 0.08734 0.61271 0.0
H997 H 0.85531 0.12664 0.63445 0.0
H998 H 0.84377 0.10718 0.62374 0.0
H999 H 0.8503 0.12636 0.60834 0.0
H1000 H 0.82344 0.11606 0.5836 0.0
H1001 H 0.82552 0.09087 0.56276 0.0
H1002 H 0.31604 0.26325 0.2003 0.0
H1003 H 0.34035 0.26134 0.16991 0.0
H1004 H 0.39689 0.2428 0.20442 0.0
H1005 H 0.37269 0.24465 0.23486 0.0
H1006 H 0.3832 0.27785 0.15963 0.0
H1007 H 0.39071 0.20653 0.16229 0.0
H1008 H 0.36953 0.21724 0.17749 0.0
H1009 H 0.39957 0.21679 0.18443 0.0
C1010 C 0.33369 0.25884 0.20142 0.0
C1011 C 0.34242 0.25402 0.21996 0.0
C1012 C 0.34751 0.25769 0.18405 0.0
C1013 C 0.37026 0.25165 0.18489 0.0
C1014 C 0.37917 0.24708 0.20339 0.0
H1015 H 0.48312 0.23928 0.09793 0.0
H1016 H 0.45814 0.24033 0.12827 0.0
C1017 C 0.36533 0.24817 0.22076 0.0
C1018 C 0.38486 0.25054 0.16643 0.0
H1019 H 0.41471 0.22248 0.13804 0.0
C1020 C 0.38999 0.26573 0.15484 0.0
C1021 C 0.39371 0.23471 0.16025 0.0
C1022 C 0.38796 0.21785 0.17165 0.0
C1023 C 0.40409 0.26559 0.13739 0.0
C1024 C 0.41297 0.24977 0.13126 0.0
C1025 C 0.40786 0.23457 0.14282 0.0
C1026 C 0.42777 0.24876 0.11292 0.0
C1027 C 0.40979 0.28241 0.12591 0.0
C1028 C 0.41878 0.25284 0.09429 0.0
C1029 C 0.43298 0.25223 0.07706 0.0
C1030 C 0.4563 0.24748 0.07827 0.0
C1031 C 0.46516 0.24303 0.09681 0.0
C1032 C 0.45095 0.24362 0.11403 0.0
H1033 H 0.40642 0.29379 0.13502 0.0
H1034 H 0.4284 0.2832 0.12054 0.0
H1035 H 0.39867 0.28317 0.11278 0.0
H1036 H 0.40079 0.25651 0.0931 0.0
H1037 H 0.42588 0.25557 0.06281 0.0
H1038 H 0.82349 0.69158 0.68185 0.0
H1039 H 0.84751 0.66662 0.67624 0.0
H1040 H 0.84799 0.65576 0.73937 0.0
H1041 H 0.82441 0.68085 0.74519 0.0
H1042 H 0.8927 0.66125 0.69164 0.0
H1043 H 0.82771 0.60885 0.71594 0.0
H1044 H 0.81948 0.63058 0.70949 0.0
H1045 H 0.8313 0.62576 0.73329 0.0
C1046 C 0.82877 0.68392 0.69456 0.0
C1047 C 0.82199 0.68822 0.71399 0.0
C1048 C 0.84236 0.66962 0.6913 0.0
C1049 C 0.84924 0.65925 0.70737 0.0
C1050 C 0.84244 0.66341 0.72675 0.0
H1051 H 0.96131 0.58972 0.71974 0.0
H1052 H 0.93457 0.61359 0.72056 0.0
C1053 C 0.82893 0.67774 0.73004 0.0
C1054 C 0.86444 0.64455 0.70398 0.0
H1055 H 0.86726 0.60082 0.71132 0.0
C1056 C 0.8871 0.64802 0.69578 0.0
C1057 C 0.85696 0.6273 0.70922 0.0
C1058 C 0.83246 0.62281 0.71731 0.0
C1059 C 0.90279 0.63472 0.69329 0.0
C1060 C 0.89563 0.61758 0.69929 0.0
C1061 C 0.87272 0.61402 0.70687 0.0
C1062 C 0.91193 0.60326 0.69843 0.0
C1063 C 0.92693 0.63909 0.68432 0.0
C1064 C 0.90783 0.58946 0.6859 0.0
C1065 C 0.92306 0.57578 0.68543 0.0
C1066 C 0.94244 0.57559 0.69769 0.0
C1067 C 0.94641 0.58943 0.71026 0.0
C1068 C 0.93129 0.60314 0.71062 0.0
H1069 H 0.92779 0.65187 0.6762 0.0
H1070 H 0.93967 0.6396 0.69634 0.0
H1071 H 0.93237 0.62905 0.67394 0.0
H1072 H 0.89287 0.5893 0.67649 0.0
H1073 H 0.91943 0.5652 0.67575 0.0
H1074 H 0.86658 0.32337 0.34046 0.0
H1075 H 0.89059 0.34965 0.34522 0.0
H1076 H 0.83335 0.38083 0.32801 0.0
H1077 H 0.80893 0.35462 0.32384 0.0
H1078 H 0.90318 0.37529 0.3164 0.0
H1079 H 0.85368 0.40245 0.37954 0.0
H1080 H 0.84945 0.38027 0.37254 0.0
H1081 H 0.83629 0.39736 0.3587 0.0
C1082 C 0.85893 0.33582 0.33804 0.0
C1083 C 0.83579 0.3369 0.33185 0.0
C1084 C 0.87273 0.35081 0.34064 0.0
C1085 C 0.86365 0.36717 0.33722 0.0
C1086 C 0.84056 0.36833 0.33109 0.0
H1087 H 0.92285 0.47229 0.33477 0.0
H1088 H 0.8971 0.44613 0.33358 0.0
C1089 C 0.82673 0.35333 0.32848 0.0
C1090 C 0.87874 0.38297 0.33912 0.0
H1091 H 0.88393 0.42059 0.36388 0.0
C1092 C 0.89906 0.38515 0.32686 0.0
C1093 C 0.87323 0.39583 0.35273 0.0
C1094 C 0.85209 0.39385 0.36677 0.0
C1095 C 0.91387 0.39999 0.3276 0.0
C1096 C 0.90838 0.41283 0.34122 0.0
C1097 C 0.88806 0.41068 0.35348 0.0
C1098 C 0.92355 0.42862 0.34285 0.0
C1099 C 0.93497 0.40197 0.3135 0.0
C1100 C 0.9467 0.42741 0.34885 0.0
C1101 C 0.9613 0.44227 0.34948 0.0
C1102 C 0.9529 0.4585 0.34422 0.0
C1103 C 0.92958 0.45981 0.33879 0.0
C1104 C 0.91496 0.44495 0.33814 0.0
H1105 H 0.93353 0.39319 0.30088 0.0
H1106 H 0.93735 0.4155 0.30749 0.0
H1107 H 0.95087 0.39874 0.3216 0.0
H1108 H 0.9535 0.41496 0.35288 0.0
H1109 H 0.97925 0.44109 0.35381 0.0
H1110 H 0.18086 0.33609 0.74248 0.0
H1111 H 0.15698 0.36123 0.73726 0.0
H1112 H 0.18821 0.36971 0.67836 0.0
H1113 H 0.2119 0.34435 0.6834 0.0
H1114 H 0.17034 0.39481 0.72979 0.0
H1115 H 0.11924 0.37039 0.66732 0.0
H1116 H 0.13695 0.35659 0.68219 0.0
H1117 H 0.15038 0.37068 0.66289 0.0
C1118 C 0.18267 0.34334 0.72844 0.0
C1119 C 0.1982 0.33824 0.71333 0.0
C1120 C 0.16897 0.35766 0.72544 0.0
C1121 C 0.17054 0.36719 0.70731 0.0
C1122 C 0.18627 0.36229 0.69228 0.0
H1123 H 0.10308 0.46271 0.673 0.0
H1124 H 0.12916 0.43837 0.67426 0.0
C1125 C 0.19985 0.34785 0.6952 0.0
C1126 C 0.15605 0.38249 0.70448 0.0
H1127 H 0.11363 0.39938 0.67603 0.0
C1128 C 0.15796 0.3958 0.71802 0.0
C1129 C 0.1399 0.38376 0.6891 0.0
C1130 C 0.13628 0.36954 0.67464 0.0
C1131 C 0.14408 0.41029 0.71667 0.0
C1132 C 0.12786 0.41147 0.70143 0.0
C1133 C 0.1262 0.39838 0.68764 0.0
C1134 C 0.11173 0.42586 0.70021 0.0
C1135 C 0.14672 0.42425 0.73158 0.0
C1136 C 0.09316 0.42663 0.71421 0.0
C1137 C 0.07808 0.44035 0.71342 0.0
C1138 C 0.08137 0.45363 0.69865 0.0
C1139 C 0.09988 0.45265 0.68446 0.0
C1140 C 0.11488 0.43882 0.68519 0.0
H1141 H 0.16278 0.42293 0.74021 0.0
H1142 H 0.14731 0.43725 0.724 0.0
H1143 H 0.13134 0.42345 0.74213 0.0
H1144 H 0.09033 0.41659 0.72576 0.0
H1145 H 0.06373 0.44047 0.72433 0.0
H1146 H 0.18808 0.67146 0.29078 0.0
H1147 H 0.1636 0.64513 0.29705 0.0
H1148 H 0.16378 0.65319 0.35999 0.0
H1149 H 0.18914 0.6792 0.35394 0.0
H1150 H 0.17076 0.61931 0.35102 0.0
H1151 H 0.09414 0.64378 0.31234 0.0
H1152 H 0.12049 0.64489 0.29701 0.0
H1153 H 0.11857 0.65774 0.31869 0.0
C1154 C 0.18317 0.66755 0.30599 0.0
C1155 C 0.19052 0.6775 0.32185 0.0
C1156 C 0.16891 0.65261 0.30952 0.0
C1157 C 0.1615 0.6474 0.32895 0.0
C1158 C 0.16914 0.65708 0.34486 0.0
H1159 H 0.04746 0.57106 0.35495 0.0
H1160 H 0.07308 0.59734 0.35363 0.0
C1161 C 0.18348 0.67201 0.34136 0.0
C1162 C 0.14591 0.63178 0.33264 0.0
H1163 H 0.09309 0.61362 0.32088 0.0
C1164 C 0.15371 0.61808 0.34454 0.0
C1165 C 0.12351 0.63035 0.32445 0.0
C1166 C 0.11355 0.64503 0.31258 0.0
C1167 C 0.13995 0.60277 0.34804 0.0
C1168 C 0.11803 0.60102 0.33906 0.0
C1169 C 0.11 0.61491 0.32759 0.0
C1170 C 0.10317 0.58488 0.34115 0.0
C1171 C 0.1489 0.58871 0.36149 0.0
C1172 C 0.11161 0.56918 0.33462 0.0
C1173 C 0.09707 0.5542 0.33553 0.0
C1174 C 0.07381 0.5548 0.3427 0.0
C1175 C 0.0654 0.57041 0.3494 0.0
C1176 C 0.07997 0.58536 0.34861 0.0
H1177 H 0.16207 0.59394 0.37167 0.0
H1178 H 0.13439 0.58203 0.37051 0.0
H1179 H 0.15749 0.57899 0.35231 0.0
H1180 H 0.12926 0.56859 0.3284 0.0
H1181 H 0.10378 0.54224 0.33028 0.0
H1182 H 0.8172 0.84133 0.67413 0.0
H1183 H 0.82445 0.8681 0.65398 0.0
H1184 H 0.75038 0.87095 0.64508 0.0
H1185 H 0.74301 0.84433 0.66534 0.0
H1186 H 0.8152 0.87577 0.61542 0.0
H1187 H 0.76672 0.91858 0.66492 0.0
H1188 H 0.77414 0.89698 0.67261 0.0
H1189 H 0.74911 0.90031 0.65771 0.0
C1190 C 0.80249 0.84765 0.66781 0.0
C1191 C 0.77952 0.84081 0.67142 0.0
C1192 C 0.80664 0.86296 0.65637 0.0
C1193 C 0.78792 0.87169 0.64836 0.0
C1194 C 0.76503 0.86469 0.65158 0.0
H1195 H 0.7901 0.94718 0.55099 0.0
H1196 H 0.78819 0.9209 0.57253 0.0
C1197 C 0.76084 0.84946 0.66311 0.0
C1198 C 0.79233 0.88794 0.63628 0.0
H1199 H 0.77719 0.93009 0.63234 0.0
C1200 C 0.80704 0.88769 0.61919 0.0
C1201 C 0.78202 0.90356 0.64142 0.0
C1202 C 0.76732 0.90497 0.66028 0.0
C1203 C 0.81114 0.90252 0.60675 0.0
C1204 C 0.7998 0.91787 0.61132 0.0
C1205 C 0.78568 0.91826 0.62874 0.0
C1206 C 0.80188 0.93359 0.59806 0.0
C1207 C 0.82772 0.90161 0.58894 0.0
C1208 C 0.80966 0.9495 0.60539 0.0
C1209 C 0.81044 0.9645 0.59318 0.0
C1210 C 0.80349 0.96377 0.57348 0.0
C1211 C 0.79577 0.9479 0.56611 0.0
C1212 C 0.79485 0.93293 0.57834 0.0
H1213 H 0.84022 0.89112 0.59096 0.0
H1214 H 0.81751 0.89879 0.57566 0.0
H1215 H 0.83782 0.91405 0.58604 0.0
H1216 H 0.81497 0.95031 0.6206 0.0
H1217 H 0.8162 0.97671 0.59913 0.0
H1218 H 0.67237 0.23677 0.24239 0.0
H1219 H 0.64846 0.23489 0.21313 0.0
H1220 H 0.69797 0.26935 0.18017 0.0
H1221 H 0.72243 0.27081 0.20911 0.0
H1222 H 0.62752 0.26138 0.19257 0.0
H1223 H 0.69059 0.22896 0.14335 0.0
H1224 H 0.69402 0.2301 0.16978 0.0
H1225 H 0.70224 0.24846 0.15358 0.0
C1226 C 0.67837 0.24375 0.22883 0.0
C1227 C 0.6994 0.25387 0.22807 0.0
C1228 C 0.6646 0.24275 0.21217 0.0
C1229 C 0.67163 0.25177 0.1944 0.0
C1230 C 0.69245 0.26202 0.19362 0.0
H1231 H 0.60985 0.26647 0.07974 0.0
H1232 H 0.63448 0.26753 0.10869 0.0
C1233 C 0.70626 0.26301 0.21026 0.0
C1234 C 0.65679 0.25084 0.17688 0.0
H1235 H 0.65667 0.23947 0.1284 0.0
C1236 C 0.63383 0.25651 0.17857 0.0
C1237 C 0.66511 0.24448 0.15863 0.0
C1238 C 0.68926 0.2375 0.15621 0.0
C1239 C 0.61908 0.25627 0.16239 0.0
C1240 C 0.62743 0.24999 0.14414 0.0
C1241 C 0.65037 0.24431 0.14243 0.0
C1242 C 0.61258 0.24918 0.12664 0.0
C1243 C 0.59483 0.26308 0.16481 0.0
C1244 C 0.59232 0.23833 0.12711 0.0
C1245 C 0.57819 0.23773 0.11065 0.0
C1246 C 0.58412 0.24795 0.09339 0.0
C1247 C 0.60464 0.25863 0.0929 0.0
C1248 C 0.61879 0.25918 0.10936 0.0
H1249 H 0.59308 0.27109 0.17809 0.0
H1250 H 0.59037 0.27096 0.15149 0.0
H1251 H 0.58188 0.25201 0.16662 0.0
H1252 H 0.58742 0.23033 0.14023 0.0
H1253 H 0.56241 0.22948 0.11156 0.0
H1254 H 0.25928 0.20319 0.6422 0.0
H1255 H 0.25463 0.17811 0.62125 0.0
H1256 H 0.22723 0.14717 0.67187 0.0
H1257 H 0.23175 0.17218 0.69294 0.0
H1258 H 0.2757 0.14247 0.63203 0.0
H1259 H 0.17911 0.14248 0.62383 0.0
H1260 H 0.19621 0.16195 0.62857 0.0
H1261 H 0.19051 0.14581 0.64805 0.0
C1262 C 0.25205 0.19109 0.64882 0.0
C1263 C 0.24588 0.18962 0.6692 0.0
C1264 C 0.2495 0.1768 0.63687 0.0
C1265 C 0.24047 0.16091 0.64505 0.0
C1266 C 0.23409 0.1594 0.66532 0.0
H1267 H 0.2085 0.06117 0.59483 0.0
H1268 H 0.21069 0.08637 0.61583 0.0
C1269 C 0.23683 0.17364 0.67732 0.0
C1270 C 0.23852 0.14569 0.63254 0.0
H1271 H 0.19917 0.11978 0.60937 0.0
C1272 C 0.25902 0.13749 0.627 0.0
C1273 C 0.21668 0.13922 0.62628 0.0
C1274 C 0.19428 0.14779 0.63185 0.0
C1275 C 0.25824 0.1228 0.61542 0.0
C1276 C 0.23641 0.11649 0.60874 0.0
C1277 C 0.21588 0.12467 0.61443 0.0
C1278 C 0.23457 0.10146 0.59577 0.0
C1279 C 0.28075 0.11395 0.61087 0.0
C1280 C 0.24683 0.10175 0.57735 0.0
C1281 C 0.24575 0.08737 0.56546 0.0
C1282 C 0.23206 0.07252 0.57159 0.0
C1283 C 0.21914 0.07246 0.58972 0.0
C1284 C 0.22042 0.08681 0.60172 0.0
H1285 H 0.29427 0.1171 0.62176 0.0
H1286 H 0.27784 0.09968 0.6109 0.0
H1287 H 0.28777 0.11846 0.59594 0.0
H1288 H 0.25729 0.1131 0.57218 0.0
H1289 H 0.25552 0.08789 0.55137 0.0
H1290 H 0.36427 0.77553 0.22873 0.0
H1291 H 0.38929 0.7786 0.19845 0.0
H1292 H 0.3335 0.75664 0.16474 0.0
H1293 H 0.30823 0.75383 0.19483 0.0
H1294 H 0.40234 0.75138 0.17297 0.0
H1295 H 0.35391 0.80216 0.13346 0.0
H1296 H 0.35016 0.79761 0.15987 0.0
H1297 H 0.33629 0.78365 0.14268 0.0
C1298 C 0.35725 0.77154 0.21482 0.0
C1299 C 0.33426 0.76448 0.21415 0.0
C1300 C 0.37159 0.77322 0.19758 0.0
C1301 C 0.36311 0.76805 0.17936 0.0
C1302 C 0.34023 0.76095 0.17863 0.0
H1303 H 0.42031 0.76365 0.05908 0.0
H1304 H 0.39536 0.76268 0.08959 0.0
C1305 C 0.32591 0.75919 0.19586 0.0
C1306 C 0.37845 0.76956 0.16119 0.0
H1307 H 0.38405 0.78908 0.11497 0.0
C1308 C 0.39846 0.75969 0.16032 0.0
C1309 C 0.37322 0.78038 0.14474 0.0
C1310 C 0.35234 0.79168 0.1452 0.0
C1311 C 0.41318 0.76006 0.1432 0.0
C1312 C 0.40796 0.77087 0.12671 0.0
C1313 C 0.38799 0.78081 0.12764 0.0
C1314 C 0.42288 0.7719 0.10828 0.0
C1315 C 0.43382 0.74851 0.14271 0.0
C1316 C 0.44643 0.77771 0.10865 0.0
C1317 C 0.46062 0.77817 0.09133 0.0
C1318 C 0.45138 0.77295 0.0734 0.0
C1319 C 0.42771 0.7676 0.07287 0.0
C1320 C 0.41353 0.76709 0.09021 0.0
H1321 H 0.43191 0.73791 0.15428 0.0
H1322 H 0.43605 0.74271 0.12797 0.0
H1323 H 0.44999 0.75631 0.14552 0.0
H1324 H 0.45385 0.78184 0.12235 0.0
H1325 H 0.47884 0.78247 0.09192 0.0
H1326 H 0.78837 0.16596 0.35154 0.0
H1327 H 0.79215 0.14004 0.37289 0.0
H1328 H 0.78268 0.17033 0.42478 0.0
H1329 H 0.77832 0.19624 0.40357 0.0
H1330 H 0.82525 0.13441 0.40298 0.0
H1331 H 0.73342 0.12995 0.43312 0.0
H1332 H 0.74231 0.14298 0.41119 0.0
H1333 H 0.74838 0.15061 0.4354 0.0
C1334 C 0.78684 0.16707 0.3675 0.0
C1335 C 0.78291 0.18313 0.37587 0.0
C1336 C 0.78916 0.15228 0.37965 0.0
C1337 C 0.7874 0.15326 0.40037 0.0
C1338 C 0.78375 0.16928 0.4088 0.0
H1339 H 0.79273 0.07818 0.49859 0.0
H1340 H 0.79072 0.10457 0.47745 0.0
C1341 C 0.78149 0.18409 0.39667 0.0
C1342 C 0.78963 0.13753 0.41317 0.0
H1343 H 0.75977 0.11068 0.44737 0.0
C1344 C 0.81094 0.12916 0.41265 0.0
C1345 C 0.77091 0.13078 0.42576 0.0
C1346 C 0.74738 0.13892 0.42635 0.0
C1347 C 0.81417 0.11433 0.42468 0.0
C1348 C 0.79542 0.10755 0.43723 0.0
C1349 C 0.77412 0.11594 0.43774 0.0
C1350 C 0.79745 0.09172 0.44994 0.0
C1351 C 0.83775 0.10626 0.42415 0.0
C1352 C 0.80172 0.07579 0.44144 0.0
C1353 C 0.80292 0.0608 0.45349 0.0
C1354 C 0.79973 0.06158 0.47414 0.0
C1355 C 0.79536 0.07744 0.48266 0.0
C1356 C 0.79418 0.09242 0.47063 0.0
H1357 H 0.85177 0.11546 0.41792 0.0
H1358 H 0.84253 0.10178 0.43925 0.0
H1359 H 0.83706 0.09489 0.4146 0.0
H1360 H 0.80377 0.07491 0.42549 0.0
H1361 H 0.80607 0.04859 0.44672 0.0
H1362 H 0.35733 0.23803 0.80319 0.0
H1363 H 0.38115 0.23534 0.83246 0.0
H1364 H 0.33488 0.26819 0.86427 0.0
H1365 H 0.31043 0.27037 0.83537 0.0
H1366 H 0.40475 0.26104 0.85177 0.0
H1367 H 0.33864 0.22696 0.90292 0.0
H1368 H 0.33504 0.22897 0.87646 0.0
H1369 H 0.3288 0.24674 0.89201 0.0
C1370 C 0.352 0.24446 0.81651 0.0
C1371 C 0.33188 0.25433 0.81696 0.0
C1372 C 0.36573 0.24301 0.83317 0.0
C1373 C 0.35958 0.25134 0.85063 0.0
C1374 C 0.33968 0.26135 0.85108 0.0
H1375 H 0.42316 0.26542 0.9638 0.0
H1376 H 0.39858 0.2663 0.93479 0.0
C1377 C 0.32589 0.26277 0.83445 0.0
C1378 C 0.37442 0.25 0.86815 0.0
H1379 H 0.37347 0.2377 0.91734 0.0
C1380 C 0.39797 0.25582 0.86607 0.0
C1381 C 0.3655 0.24319 0.88679 0.0
C1382 C 0.34068 0.23595 0.88969 0.0
C1383 C 0.41273 0.25537 0.88225 0.0
C1384 C 0.40374 0.24872 0.90091 0.0
C1385 C 0.38025 0.24283 0.903 0.0
C1386 C 0.41846 0.24791 0.9185 0.0
C1387 C 0.43768 0.26235 0.87939 0.0
C1388 C 0.43753 0.2371 0.91899 0.0
C1389 C 0.45161 0.23658 0.93551 0.0
C1390 C 0.44684 0.24689 0.95182 0.0
C1391 C 0.42747 0.25751 0.95136 0.0
C1392 C 0.41335 0.25796 0.93487 0.0
H1393 H 0.44038 0.27035 0.86542 0.0
H1394 H 0.44276 0.27029 0.89206 0.0
H1395 H 0.44955 0.25137 0.87867 0.0
H1396 H 0.44156 0.22908 0.90658 0.0
H1397 H 0.4665 0.22837 0.93534 0.0
H1398 H 0.23855 0.81445 0.38946 0.0
H1399 H 0.23368 0.83958 0.40996 0.0
H1400 H 0.24149 0.87337 0.35772 0.0
H1401 H 0.24605 0.84832 0.33703 0.0
H1402 H 0.26974 0.88321 0.38919 0.0
H1403 H 0.17692 0.87073 0.41438 0.0
H1404 H 0.19538 0.85276 0.41823 0.0
H1405 H 0.18993 0.86033 0.39338 0.0
C1406 C 0.23887 0.8272 0.38228 0.0
C1407 C 0.24265 0.82937 0.36159 0.0
C1408 C 0.23609 0.84154 0.39403 0.0
C1409 C 0.23694 0.85829 0.38531 0.0
C1410 C 0.24073 0.86053 0.3647 0.0
H1411 H 0.20286 0.95403 0.44187 0.0
H1412 H 0.20399 0.92927 0.42027 0.0
C1413 C 0.24347 0.8462 0.35293 0.0
C1414 C 0.23489 0.87354 0.39778 0.0
H1415 H 0.19822 0.89293 0.43043 0.0
C1416 C 0.25407 0.88539 0.39814 0.0
C1417 C 0.21433 0.87642 0.40925 0.0
C1418 C 0.19286 0.86449 0.40872 0.0
C1419 C 0.25345 0.89987 0.41005 0.0
C1420 C 0.23319 0.90243 0.42204 0.0
C1421 C 0.21379 0.89081 0.42133 0.0
C1422 C 0.23195 0.91705 0.43552 0.0
C1423 C 0.27439 0.91239 0.40959 0.0
C1424 C 0.24697 0.91815 0.45144 0.0
C1425 C 0.24629 0.93219 0.46385 0.0
C1426 C 0.23051 0.94539 0.4606 0.0
C1427 C 0.2151 0.94403 0.44487 0.0
C1428 C 0.21578 0.92995 0.43247 0.0
H1429 H 0.28599 0.91093 0.39623 0.0
H1430 H 0.26882 0.92596 0.40982 0.0
H1431 H 0.28476 0.90989 0.42291 0.0
H1432 H 0.25924 0.90813 0.45427 0.0
H1433 H 0.25805 0.93264 0.47608 0.0
H1434 H 0.69645 0.79292 0.82703 0.0
H1435 H 0.67235 0.79443 0.85755 0.0
H1436 H 0.64272 0.74333 0.84851 0.0
H1437 H 0.66665 0.74174 0.81786 0.0
H1438 H 0.62349 0.79183 0.86265 0.0
H1439 H 0.66583 0.73986 0.9055 0.0
H1440 H 0.67885 0.74978 0.88288 0.0
H1441 H 0.6556 0.73355 0.88183 0.0
C1442 C 0.68469 0.78204 0.83145 0.0
C1443 C 0.68351 0.76719 0.82004 0.0
C1444 C 0.67102 0.7829 0.84894 0.0
C1445 C 0.65601 0.7689 0.85542 0.0
C1446 C 0.65457 0.75413 0.84398 0.0
H1447 H 0.54075 0.7681 0.94259 0.0
H1448 H 0.5656 0.76749 0.91215 0.0
C1449 C 0.66825 0.75325 0.82648 0.0
C1450 C 0.64159 0.76991 0.87398 0.0
H1451 H 0.63125 0.75077 0.92002 0.0
C1452 C 0.62521 0.78289 0.87522 0.0
C1453 C 0.64411 0.75836 0.89042 0.0
C1454 C 0.66219 0.74469 0.89025 0.0
C1455 C 0.61096 0.78443 0.89239 0.0
C1456 C 0.61298 0.77255 0.90859 0.0
C1457 C 0.62964 0.75977 0.90749 0.0
C1458 C 0.59794 0.77314 0.92685 0.0
C1459 C 0.59407 0.7989 0.89315 0.0
C1460 C 0.60796 0.77619 0.94518 0.0
C1461 C 0.59381 0.77648 0.96248 0.0
C1462 C 0.56952 0.77364 0.96164 0.0
C1463 C 0.55948 0.77046 0.94339 0.0
C1464 C 0.57361 0.77019 0.92609 0.0
H1465 H 0.59873 0.8093 0.88175 0.0
H1466 H 0.57621 0.79366 0.89029 0.0
H1467 H 0.59362 0.80463 0.90801 0.0
H1468 H 0.62672 0.77839 0.94606 0.0
H1469 H 0.60178 0.77884 0.97652 0.0
loop_
_geom_bond_atom_site_label_1
_geom_bond_atom_site_label_2
_geom_bond_distance
_geom_bond_site_symmetry_2
_ccdc_geom_bond_type
C0 C1 1.384 . S
C0 H13 0.947 . S
C0 C35 1.382 . S
C1 C0 1.384 . S
C1 C2 1.378 . S
C2 C1 1.378 . S
C2 C3 1.378 . S
C2 H14 0.952 . S
C3 C2 1.378 . S
C3 H15 0.950 . S
C3 C34 1.383 . S
H4 C23 0.947 . S
H5 C24 0.946 . S
H6 C26 0.953 . S
H7 C27 0.945 . S
H8 C29 0.952 . S
H9 C30 0.949 . S
H10 C32 0.950 . S
H11 C33 0.948 . S
H12 C35 0.951 . S
H13 C0 0.947 . S
H14 C2 0.952 . S
H15 C3 0.950 . S
N16 C19 1.382 . S
N16 C21 1.363 . S
N17 C19 1.371 . S
N17 C20 1.372 . S
N18 C20 1.361 . S
N18 C21 1.377 . S
C19 N16 1.382 . S
C19 N17 1.371 . S
C19 C22 1.480 . S
C20 N17 1.372 . S
C20 N18 1.361 . S
C20 C28 1.457 . S
C21 N16 1.363 . S
C21 N18 1.377 . S
C21 C34 1.479 . S
C22 C19 1.480 . S
C22 C23 1.383 . S
C22 C27 1.385 . S
C23 H4 0.947 . S
C23 C22 1.383 . S
C23 C24 1.388 . S
C24 H5 0.946 . S
C24 C23 1.388 . S
C24 C25 1.384 . S
C25 C24 1.384 . S
C25 C26 1.377 . S
C26 H6 0.953 . S
C26 C25 1.377 . S
C26 C27 1.369 . S
C27 H7 0.945 . S
C27 C22 1.385 . S
C27 C26 1.369 . S
C28 C20 1.457 . S
C28 C29 1.372 . S
C28 C33 1.364 . S
C29 H8 0.952 . S
C29 C28 1.372 . S
C29 C30 1.389 . S
C30 H9 0.949 . S
C30 C29 1.389 . S
C30 C31 1.387 . S
C31 C30 1.387 . S
C31 C32 1.372 . S
C32 H10 0.950 . S
C32 C31 1.372 . S
C32 C33 1.379 . S
C33 H11 0.948 . S
C33 C28 1.364 . S
C33 C32 1.379 . S
C34 C3 1.383 . S
C34 C21 1.479 . S
C34 C35 1.398 . S
C35 C0 1.382 . S
C35 H12 0.951 . S
C35 C34 1.398 . S
C36 C37 1.384 . S
C36 H49 0.947 . S
C36 C71 1.382 . S
C37 C36 1.384 . S
C37 C38 1.378 . S
C38 C37 1.378 . S
C38 C39 1.378 . S
C38 H50 0.952 . S
C39 C38 1.378 . S
C39 H51 0.950 . S
C39 C70 1.383 . S
H40 C59 0.947 . S
H41 C60 0.946 . S
H42 C62 0.953 . S
H43 C63 0.945 . S
H44 C65 0.952 . S
H45 C66 0.949 . S
H46 C68 0.950 . S
H47 C69 0.948 . S
H48 C71 0.951 . S
H49 C36 0.947 . S
H50 C38 0.952 . S
H51 C39 0.950 . S
N52 C55 1.382 . S
N52 C57 1.363 . S
N53 C55 1.371 . S
N53 C56 1.372 . S
N54 C56 1.361 . S
N54 C57 1.377 . S
C55 N52 1.382 . S
C55 N53 1.371 . S
C55 C58 1.480 . S
C56 N53 1.372 . S
C56 N54 1.361 . S
C56 C64 1.457 . S
C57 N52 1.363 . S
C57 N54 1.377 . S
C57 C70 1.479 . S
C58 C55 1.480 . S
C58 C59 1.383 . S
C58 C63 1.385 . S
C59 H40 0.947 . S
C59 C58 1.383 . S
C59 C60 1.388 . S
C60 H41 0.946 . S
C60 C59 1.388 . S
C60 C61 1.384 . S
C61 C60 1.384 . S
C61 C62 1.377 . S
C62 H42 0.953 . S
C62 C61 1.377 . S
C62 C63 1.369 . S
C63 H43 0.945 . S
C63 C58 1.385 . S
C63 C62 1.369 . S
C64 C56 1.457 . S
C64 C65 1.372 . S
C64 C69 1.364 . S
C65 H44 0.952 . S
C65 C64 1.372 . S
C65 C66 1.389 . S
C66 H45 0.949 . S
C66 C65 1.389 . S
C66 C67 1.387 . S
C67 C66 1.387 . S
C67 C68 1.372 . S
C68 H46 0.950 . S
C68 C67 1.372 . S
C68 C69 1.379 . S
C69 H47 0.948 . S
C69 C64 1.364 . S
C69 C68 1.379 . S
C70 C39 1.383 . S
C70 C57 1.479 . S
C70 C71 1.398 . S
C71 C36 1.382 . S
C71 H48 0.951 . S
C71 C70 1.398 . S
C72 C73 1.384 . S
C72 H85 0.947 . S
C72 C107 1.382 . S
C73 C72 1.384 . S
C73 C74 1.378 . S
C74 C73 1.378 . S
C74 C75 1.378 . S
C74 H86 0.952 . S
C75 C74 1.378 . S
C75 H87 0.950 . S
C75 C106 1.383 . S
H76 C95 0.947 . S
H77 C96 0.946 . S
H78 C98 0.953 . S
H79 C99 0.945 . S
H80 C101 0.952 . S
H81 C102 0.949 . S
H82 C104 0.950 . S
H83 C105 0.948 . S
H84 C107 0.951 . S
H85 C72 0.947 . S
H86 C74 0.952 . S
H87 C75 0.950 . S
N88 C91 1.382 . S
N88 C93 1.363 . S
N89 C91 1.371 . S
N89 C92 1.372 . S
N90 C92 1.361 . S
N90 C93 1.377 . S
C91 N88 1.382 . S
C91 N89 1.371 . S
C91 C94 1.480 . S
C92 N89 1.372 . S
C92 N90 1.361 . S
C92 C100 1.457 . S
C93 N88 1.363 . S
C93 N90 1.377 . S
C93 C106 1.479 . S
C94 C91 1.480 . S
C94 C95 1.383 . S
C94 C99 1.385 . S
C95 H76 0.947 . S
C95 C94 1.383 . S
C95 C96 1.388 . S
C96 H77 0.946 . S
C96 C95 1.388 . S
C96 C97 1.384 . S
C97 C96 1.384 . S
C97 C98 1.377 . S
C98 H78 0.953 . S
C98 C97 1.377 . S
C98 C99 1.369 . S
C99 H79 0.945 . S
C99 C94 1.385 . S
C99 C98 1.369 . S
C100 C92 1.457 . S
C100 C101 1.372 . S
C100 C105 1.364 . S
C101 H80 0.952 . S
C101 C100 1.372 . S
C101 C102 1.389 . S
C102 H81 0.949 . S
C102 C101 1.389 . S
C102 C103 1.387 . S
C103 C102 1.387 . S
C103 C104 1.372 . S
C104 H82 0.950 . S
C104 C103 1.372 . S
C104 C105 1.379 . S
C105 H83 0.948 . S
C105 C100 1.364 . S
C105 C104 1.379 . S
C106 C75 1.383 . S
C106 C93 1.479 . S
C106 C107 1.398 . S
C107 C72 1.382 . S
C107 H84 0.951 . S
C107 C106 1.398 . S
C108 C109 1.384 . S
C108 H121 0.947 . S
C108 C143 1.382 . S
C109 C108 1.384 . S
C109 C110 1.378 . S
C110 C109 1.378 . S
C110 C111 1.378 . S
C110 H122 0.952 . S
C111 C110 1.378 . S
C111 H123 0.950 . S
C111 C142 1.383 . S
H112 C131 0.947 . S
H113 C132 0.946 . S
H114 C134 0.953 . S
H115 C135 0.945 . S
H116 C137 0.952 . S
H117 C138 0.949 . S
H118 C140 0.950 . S
H119 C141 0.948 . S
H120 C143 0.951 . S
H121 C108 0.947 . S
H122 C110 0.952 . S
H123 C111 0.950 . S
N124 C127 1.382 . S
N124 C129 1.363 . S
N125 C127 1.371 . S
N125 C128 1.372 . S
N126 C128 1.361 . S
N126 C129 1.377 . S
C127 N124 1.382 . S
C127 N125 1.371 . S
C127 C130 1.480 . S
C128 N125 1.372 . S
C128 N126 1.361 . S
C128 C136 1.457 . S
C129 N124 1.363 . S
C129 N126 1.377 . S
C129 C142 1.479 . S
C130 C127 1.480 . S
C130 C131 1.383 . S
C130 C135 1.385 . S
C131 H112 0.947 . S
C131 C130 1.383 . S
C131 C132 1.388 . S
C132 H113 0.946 . S
C132 C131 1.388 . S
C132 C133 1.384 . S
C133 C132 1.384 . S
C133 C134 1.377 . S
C134 H114 0.953 . S
C134 C133 1.377 . S
C134 C135 1.369 . S
C135 H115 0.945 . S
C135 C130 1.385 . S
C135 C134 1.369 . S
C136 C128 1.457 . S
C136 C137 1.372 . S
C136 C141 1.364 . S
C137 H116 0.952 . S
C137 C136 1.372 . S
C137 C138 1.389 . S
C138 H117 0.949 . S
C138 C137 1.389 . S
C138 C139 1.387 . S
C139 C138 1.387 . S
C139 C140 1.372 . S
C140 H118 0.950 . S
C140 C139 1.372 . S
C140 C141 1.379 . S
C141 H119 0.948 . S
C141 C136 1.364 . S
C141 C140 1.379 . S
C142 C111 1.383 . S
C142 C129 1.479 . S
C142 C143 1.398 . S
C143 C108 1.382 . S
C143 H120 0.951 . S
C143 C142 1.398 . S
C144 C145 1.384 . S
C144 H157 0.947 . S
C144 C179 1.382 . S
C145 C144 1.384 . S
C145 C146 1.378 . S
C146 C145 1.378 . S
C146 C147 1.378 . S
C146 H158 0.952 . S
C147 C146 1.378 . S
C147 H159 0.950 . S
C147 C178 1.383 . S
H148 C167 0.947 . S
H149 C168 0.946 . S
H150 C170 0.953 . S
H151 C171 0.945 . S
H152 C173 0.952 . S
H153 C174 0.949 . S
H154 C176 0.950 . S
H155 C177 0.948 . S
H156 C179 0.951 . S
H157 C144 0.947 . S
H158 C146 0.952 . S
H159 C147 0.950 . S
N160 C163 1.382 . S
N160 C165 1.363 . S
N161 C163 1.371 . S
N161 C164 1.372 . S
N162 C164 1.361 . S
N162 C165 1.377 . S
C163 N160 1.382 . S
C163 N161 1.371 . S
C163 C166 1.480 . S
C164 N161 1.372 . S
C164 N162 1.361 . S
C164 C172 1.457 . S
C165 N160 1.363 . S
C165 N162 1.377 . S
C165 C178 1.479 . S
C166 C163 1.480 . S
C166 C167 1.383 . S
C166 C171 1.385 . S
C167 H148 0.947 . S
C167 C166 1.383 . S
C167 C168 1.388 . S
C168 H149 0.946 . S
C168 C167 1.388 . S
C168 C169 1.384 . S
C169 C168 1.384 . S
C169 C170 1.377 . S
C170 H150 0.953 . S
C170 C169 1.377 . S
C170 C171 1.369 . S
C171 H151 0.945 . S
C171 C166 1.385 . S
C171 C170 1.369 . S
C172 C164 1.457 . S
C172 C173 1.372 . S
C172 C177 1.364 . S
C173 H152 0.952 . S
C173 C172 1.372 . S
C173 C174 1.389 . S
C174 H153 0.949 . S
C174 C173 1.389 . S
C174 C175 1.387 . S
C175 C174 1.387 . S
C175 C176 1.372 . S
C176 H154 0.950 . S
C176 C175 1.372 . S
C176 C177 1.379 . S
C177 H155 0.948 . S
C177 C172 1.364 . S
C177 C176 1.379 . S
C178 C147 1.383 . S
C178 C165 1.479 . S
C178 C179 1.398 . S
C179 C144 1.382 . S
C179 H156 0.951 . S
C179 C178 1.398 . S
C180 C181 1.384 . S
C180 H193 0.947 . S
C180 C215 1.382 . S
C181 C180 1.384 . S
C181 C182 1.378 . S
C182 C181 1.378 . S
C182 C183 1.378 . S
C182 H194 0.952 . S
C183 C182 1.378 . S
C183 H195 0.950 . S
C183 C214 1.383 . S
H184 C203 0.947 . S
H185 C204 0.946 . S
H186 C206 0.953 . S
H187 C207 0.945 . S
H188 C209 0.952 . S
H189 C210 0.949 . S
H190 C212 0.950 . S
H191 C213 0.948 . S
H192 C215 0.951 . S
H193 C180 0.947 . S
H194 C182 0.952 . S
H195 C183 0.950 . S
N196 C199 1.382 . S
N196 C201 1.363 . S
N197 C199 1.371 . S
N197 C200 1.372 . S
N198 C200 1.361 . S
N198 C201 1.377 . S
C199 N196 1.382 . S
C199 N197 1.371 . S
C199 C202 1.480 . S
C200 N197 1.372 . S
C200 N198 1.361 . S
C200 C208 1.457 . S
C201 N196 1.363 . S
C201 N198 1.377 . S
C201 C214 1.479 . S
C202 C199 1.480 . S
C202 C203 1.383 . S
C202 C207 1.385 . S
C203 H184 0.947 . S
C203 C202 1.383 . S
C203 C204 1.388 . S
C204 H185 0.946 . S
C204 C203 1.388 . S
C204 C205 1.384 . S
C205 C204 1.384 . S
C205 C206 1.377 . S
C206 H186 0.953 . S
C206 C205 1.377 . S
C206 C207 1.369 . S
C207 H187 0.945 . S
C207 C202 1.385 . S
C207 C206 1.369 . S
C208 C200 1.457 . S
C208 C209 1.372 . S
C208 C213 1.364 . S
C209 H188 0.952 . S
C209 C208 1.372 . S
C209 C210 1.389 . S
C210 H189 0.949 . S
C210 C209 1.389 . S
C210 C211 1.387 . S
C211 C210 1.387 . S
C211 C212 1.372 . S
C212 H190 0.950 . S
C212 C211 1.372 . S
C212 C213 1.379 . S
C213 H191 0.948 . S
C213 C208 1.364 . S
C213 C212 1.379 . S
C214 C183 1.383 . S
C214 C201 1.479 . S
C214 C215 1.398 . S
C215 C180 1.382 . S
C215 H192 0.951 . S
C215 C214 1.398 . S
C216 C217 1.384 . S
C216 H229 0.947 . S
C216 C251 1.382 . S
C217 C216 1.384 . S
C217 C218 1.378 . S
C218 C217 1.378 . S
C218 C219 1.378 . S
C218 H230 0.952 . S
C219 C218 1.378 . S
C219 H231 0.950 . S
C219 C250 1.383 . S
H220 C239 0.947 . S
H221 C240 0.946 . S
H222 C242 0.953 . S
H223 C243 0.945 . S
H224 C245 0.952 . S
H225 C246 0.949 . S
H226 C248 0.950 . S
H227 C249 0.948 . S
H228 C251 0.951 . S
H229 C216 0.947 . S
H230 C218 0.952 . S
H231 C219 0.950 . S
N232 C235 1.382 . S
N232 C237 1.363 . S
N233 C235 1.371 . S
N233 C236 1.372 . S
N234 C236 1.361 . S
N234 C237 1.377 . S
C235 N232 1.382 . S
C235 N233 1.371 . S
C235 C238 1.480 . S
C236 N233 1.372 . S
C236 N234 1.361 . S
C236 C244 1.457 . S
C237 N232 1.363 . S
C237 N234 1.377 . S
C237 C250 1.479 . S
C238 C235 1.480 . S
C238 C239 1.383 . S
C238 C243 1.385 . S
C239 H220 0.947 . S
C239 C238 1.383 . S
C239 C240 1.388 . S
C240 H221 0.946 . S
C240 C239 1.388 . S
C240 C241 1.384 . S
C241 C240 1.384 . S
C241 C242 1.377 . S
C242 H222 0.953 . S
C242 C241 1.377 . S
C242 C243 1.369 . S
C243 H223 0.945 . S
C243 C238 1.385 . S
C243 C242 1.369 . S
C244 C236 1.457 . S
C244 C245 1.372 . S
C244 C249 1.364 . S
C245 H224 0.952 . S
C245 C244 1.372 . S
C245 C246 1.389 . S
C246 H225 0.949 . S
C246 C245 1.389 . S
C246 C247 1.387 . S
C247 C246 1.387 . S
C247 C248 1.372 . S
C248 H226 0.950 . S
C248 C247 1.372 . S
C248 C249 1.379 . S
C249 H227 0.948 . S
C249 C244 1.364 . S
C249 C248 1.379 . S
C250 C219 1.383 . S
C250 C237 1.479 . S
C250 C251 1.398 . S
C251 C216 1.382 . S
C251 H228 0.951 . S
C251 C250 1.398 . S
C252 C253 1.384 . S
C252 H265 0.947 . S
C252 C287 1.382 . S
C253 C252 1.384 . S
C253 C254 1.378 . S
C254 C253 1.378 . S
C254 C255 1.378 . S
C254 H266 0.952 . S
C255 C254 1.378 . S
C255 H267 0.950 . S
C255 C286 1.383 . S
H256 C275 0.947 . S
H257 C276 0.946 . S
H258 C278 0.953 . S
H259 C279 0.945 . S
H260 C281 0.952 . S
H261 C282 0.949 . S
H262 C284 0.950 . S
H263 C285 0.948 . S
H264 C287 0.951 . S
H265 C252 0.947 . S
H266 C254 0.952 . S
H267 C255 0.950 . S
N268 C271 1.382 . S
N268 C273 1.363 . S
N269 C271 1.371 . S
N269 C272 1.372 . S
N270 C272 1.361 . S
N270 C273 1.377 . S
C271 N268 1.382 . S
C271 N269 1.371 . S
C271 C274 1.480 . S
C272 N269 1.372 . S
C272 N270 1.361 . S
C272 C280 1.457 . S
C273 N268 1.363 . S
C273 N270 1.377 . S
C273 C286 1.479 . S
C274 C271 1.480 . S
C274 C275 1.383 . S
C274 C279 1.385 . S
C275 H256 0.947 . S
C275 C274 1.383 . S
C275 C276 1.388 . S
C276 H257 0.946 . S
C276 C275 1.388 . S
C276 C277 1.384 . S
C277 C276 1.384 . S
C277 C278 1.377 . S
C278 H258 0.953 . S
C278 C277 1.377 . S
C278 C279 1.369 . S
C279 H259 0.945 . S
C279 C274 1.385 . S
C279 C278 1.369 . S
C280 C272 1.457 . S
C280 C281 1.372 . S
C280 C285 1.364 . S
C281 H260 0.952 . S
C281 C280 1.372 . S
C281 C282 1.389 . S
C282 H261 0.949 . S
C282 C281 1.389 . S
C282 C283 1.387 . S
C283 C282 1.387 . S
C283 C284 1.372 . S
C284 H262 0.950 . S
C284 C283 1.372 . S
C284 C285 1.379 . S
C285 H263 0.948 . S
C285 C280 1.364 . S
C285 C284 1.379 . S
C286 C255 1.383 . S
C286 C273 1.479 . S
C286 C287 1.398 . S
C287 C252 1.382 . S
C287 H264 0.951 . S
C287 C286 1.398 . S
C288 C289 1.443 . S
C288 N292 1.376 . S
C288 C326 1.389 . S
C289 C288 1.443 . S
C289 C290 1.340 . S
C289 H329 0.951 . S
C290 C289 1.340 . S
C290 C291 1.439 . S
C290 H330 0.950 . S
C291 C290 1.439 . S
C291 N292 1.374 . S
C291 C325 1.395 . S
N292 C288 1.376 . S
N292 C291 1.374 . S
N292 Co293 2.008 . S
Co293 N292 2.008 . S
Co293 N294 1.995 1_455 S
Co293 N299 2.008 . S
Co293 N304 1.995 . S
Co293 N309 2.282 . S
Co293 N315 2.282 1_455 S
N294 Co293 1.995 1_655 S
N294 C295 1.376 . S
N294 C298 1.383 . S
C295 N294 1.376 . S
C295 C296 1.446 . S
C295 C325 1.391 1_655 S
C296 C295 1.446 . S
C296 C297 1.339 . S
C296 H331 0.949 . S
C297 C296 1.339 . S
C297 C298 1.439 . S
C297 H332 0.950 . S
C298 N294 1.383 . S
C298 C297 1.439 . S
C298 C327 1.392 . S
N299 Co293 2.008 . S
N299 C300 1.376 1_455 S
N299 C303 1.374 . S
C300 N299 1.376 1_655 S
C300 C301 1.443 . S
C300 C327 1.389 . S
C301 C300 1.443 . S
C301 C302 1.340 . S
C301 H333 0.951 . S
C302 C301 1.340 . S
C302 C303 1.439 1_655 S
C302 H334 0.950 . S
C303 N299 1.374 . S
C303 C302 1.439 1_455 S
C303 C328 1.395 . S
N304 Co293 1.995 . S
N304 C305 1.376 . S
N304 C308 1.383 . S
C305 N304 1.376 . S
C305 C306 1.446 . S
C305 C328 1.391 . S
C306 C305 1.446 . S
C306 C307 1.339 . S
C306 H335 0.949 . S
C307 C306 1.339 . S
C307 C308 1.439 . S
C307 H336 0.950 . S
C308 N304 1.383 . S
C308 C307 1.439 . S
C308 C326 1.392 . S
N309 Co293 2.282 . S
N309 C312 1.332 . S
N309 C314 1.332 . S
C310 C311 1.386 . S
C310 C313 1.388 . S
C311 C310 1.386 . S
C311 C312 1.382 . S
C311 H337 0.950 . S
C312 N309 1.332 . S
C312 C311 1.382 . S
C312 H323 0.952 . S
C313 C310 1.388 . S
C313 C314 1.382 . S
C313 H338 0.950 . S
C314 N309 1.332 . S
C314 C313 1.382 . S
C314 H324 0.948 . S
N315 Co293 2.282 1_655 S
N315 C319 1.332 . S
N315 C320 1.332 . S
C316 C317 1.388 . S
C316 C320 1.382 . S
C316 H339 0.950 . S
C317 C316 1.388 . S
C317 C318 1.386 . S
C318 C317 1.386 . S
C318 C319 1.382 . S
C318 H340 0.950 . S
C319 N315 1.332 . S
C319 C318 1.382 . S
C319 H321 0.952 . S
C320 N315 1.332 . S
C320 C316 1.382 . S
C320 H322 0.948 . S
H321 C319 0.952 . S
H322 C320 0.948 . S
H323 C312 0.952 . S
H324 C314 0.948 . S
C325 C291 1.395 . S
C325 C295 1.391 1_455 S
C326 C288 1.389 . S
C326 C308 1.392 . S
C327 C298 1.392 . S
C327 C300 1.389 . S
C328 C303 1.395 . S
C328 C305 1.391 . S
H329 C289 0.951 . S
H330 C290 0.950 . S
H331 C296 0.949 . S
H332 C297 0.950 . S
H333 C301 0.951 . S
H334 C302 0.950 . S
H335 C306 0.949 . S
H336 C307 0.950 . S
H337 C311 0.950 . S
H338 C313 0.950 . S
H339 C316 0.950 . S
H340 C318 0.950 . S
C341 C342 1.443 . S
C341 N345 1.376 . S
C341 C379 1.389 . S
C342 C341 1.443 . S
C342 C343 1.340 . S
C342 H382 0.951 . S
C343 C342 1.340 . S
C343 C344 1.439 . S
C343 H383 0.950 . S
C344 C343 1.439 . S
C344 N345 1.374 . S
C344 C378 1.395 . S
N345 C341 1.376 . S
N345 C344 1.374 . S
N345 Co346 2.008 . S
Co346 N345 2.008 . S
Co346 N347 1.995 1_455 S
Co346 N352 2.008 1_455 S
Co346 N357 1.995 . S
Co346 N362 2.282 . S
Co346 N368 2.282 1_455 S
N347 Co346 1.995 1_655 S
N347 C348 1.376 . S
N347 C351 1.383 . S
C348 N347 1.376 . S
C348 C349 1.446 . S
C348 C378 1.391 1_655 S
C349 C348 1.446 . S
C349 C350 1.339 . S
C349 H384 0.949 . S
C350 C349 1.339 . S
C350 C351 1.439 . S
C350 H385 0.950 . S
C351 N347 1.383 . S
C351 C350 1.439 . S
C351 C380 1.392 . S
N352 Co346 2.008 1_655 S
N352 C353 1.376 . S
N352 C356 1.371 1_655 S
C353 N352 1.376 . S
C353 C354 1.443 . S
C353 C380 1.389 . S
C354 C353 1.443 . S
C354 C355 1.340 . S
C354 H386 0.951 . S
C355 C354 1.340 . S
C355 C356 1.433 1_655 S
C355 H387 0.950 . S
C356 N352 1.371 1_455 S
C356 C355 1.433 1_455 S
C356 C381 1.403 . S
N357 Co346 1.995 . S
N357 C358 1.376 . S
N357 C361 1.383 . S
C358 N357 1.376 . S
C358 C359 1.446 . S
C358 C381 1.391 . S
C359 C358 1.446 . S
C359 C360 1.339 . S
C359 H388 0.949 . S
C360 C359 1.339 . S
C360 C361 1.439 . S
C360 H389 0.950 . S
C361 N357 1.383 . S
C361 C360 1.439 . S
C361 C379 1.392 . S
N362 Co346 2.282 . S
N362 C365 1.332 . S
N362 C367 1.332 . S
C363 C364 1.386 . S
C363 C366 1.388 . S
C364 C363 1.386 . S
C364 C365 1.382 . S
C364 H390 0.950 . S
C365 N362 1.332 . S
C365 C364 1.382 . S
C365 H376 0.952 . S
C366 C363 1.388 . S
C366 C367 1.382 . S
C366 H391 0.950 . S
C367 N362 1.332 . S
C367 C366 1.382 . S
C367 H377 0.948 . S
N368 Co346 2.282 1_655 S
N368 C372 1.332 . S
N368 C373 1.332 . S
C369 C370 1.388 . S
C369 C373 1.382 . S
C369 H392 0.950 . S
C370 C369 1.388 . S
C370 C371 1.386 . S
C371 C370 1.386 . S
C371 C372 1.382 . S
C371 H393 0.950 . S
C372 N368 1.332 . S
C372 C371 1.382 . S
C372 H374 0.952 . S
C373 N368 1.332 . S
C373 C369 1.382 . S
C373 H375 0.948 . S
H374 C372 0.952 . S
H375 C373 0.948 . S
H376 C365 0.952 . S
H377 C367 0.948 . S
C378 C344 1.395 . S
C378 C348 1.391 1_455 S
C379 C341 1.389 . S
C379 C361 1.392 . S
C380 C351 1.392 . S
C380 C353 1.389 . S
C381 C356 1.403 . S
C381 C358 1.391 . S
H382 C342 0.951 . S
H383 C343 0.950 . S
H384 C349 0.949 . S
H385 C350 0.950 . S
H386 C354 0.951 . S
H387 C355 0.950 . S
H388 C359 0.949 . S
H389 C360 0.950 . S
H390 C364 0.950 . S
H391 C366 0.950 . S
H392 C369 0.950 . S
H393 C371 0.950 . S
C394 C395 1.443 . S
C394 N398 1.376 . S
C394 C432 1.389 . S
C395 C394 1.443 . S
C395 C396 1.340 . S
C395 H435 0.951 . S
C396 C395 1.340 . S
C396 C397 1.439 . S
C396 H436 0.950 . S
C397 C396 1.439 . S
C397 N398 1.374 . S
C397 C431 1.395 1_565 S
N398 C394 1.376 . S
N398 C397 1.374 . S
N398 Co399 2.008 1_565 S
Co399 N398 2.008 1_545 S
Co399 N400 1.995 . S
Co399 N405 2.008 . S
Co399 N410 1.995 1_545 S
Co399 N415 2.282 . S
Co399 N421 2.282 1_545 S
N400 Co399 1.995 . S
N400 C401 1.376 . S
N400 C404 1.383 . S
C401 N400 1.376 . S
C401 C402 1.446 . S
C401 C431 1.391 . S
C402 C401 1.446 . S
C402 C403 1.339 . S
C402 H437 0.949 . S
C403 C402 1.339 . S
C403 C404 1.439 . S
C403 H438 0.950 . S
C404 N400 1.383 . S
C404 C403 1.439 . S
C404 C433 1.392 . S
N405 Co399 2.008 . S
N405 C406 1.376 . S
N405 C409 1.374 . S
C406 N405 1.376 . S
C406 C407 1.443 . S
C406 C433 1.389 . S
C407 C406 1.443 . S
C407 C408 1.340 . S
C407 H439 0.951 . S
C408 C407 1.340 . S
C408 C409 1.439 . S
C408 H440 0.950 . S
C409 N405 1.374 . S
C409 C408 1.439 . S
C409 C434 1.395 . S
N410 Co399 1.995 1_565 S
N410 C411 1.376 . S
N410 C414 1.383 . S
C411 N410 1.376 . S
C411 C412 1.446 . S
C411 C434 1.391 1_565 S
C412 C411 1.446 . S
C412 C413 1.339 . S
C412 H441 0.949 . S
C413 C412 1.339 . S
C413 C414 1.439 . S
C413 H442 0.950 . S
C414 N410 1.383 . S
C414 C413 1.439 . S
C414 C432 1.392 . S
N415 Co399 2.282 . S
N415 C418 1.332 . S
N415 C420 1.332 . S
C416 C417 1.386 . S
C416 C419 1.388 . S
C417 C416 1.386 . S
C417 C418 1.382 . S
C417 H443 0.950 . S
C418 N415 1.332 . S
C418 C417 1.382 . S
C418 H429 0.952 . S
C419 C416 1.388 . S
C419 C420 1.382 . S
C419 H444 0.950 . S
C420 N415 1.332 . S
C420 C419 1.382 . S
C420 H430 0.948 . S
N421 Co399 2.282 1_565 S
N421 C425 1.332 . S
N421 C426 1.332 . S
C422 C423 1.388 . S
C422 C426 1.382 . S
C422 H445 0.950 . S
C423 C422 1.388 . S
C423 C424 1.386 . S
C424 C423 1.386 . S
C424 C425 1.382 . S
C424 H446 0.950 . S
C425 N421 1.332 . S
C425 C424 1.382 . S
C425 H427 0.952 . S
C426 N421 1.332 . S
C426 C422 1.382 . S
C426 H428 0.948 . S
H427 C425 0.952 . S
H428 C426 0.948 . S
H429 C418 0.952 . S
H430 C420 0.948 . S
C431 C397 1.395 1_545 S
C431 C401 1.391 . S
C432 C394 1.389 . S
C432 C414 1.392 . S
C433 C404 1.392 . S
C433 C406 1.389 . S
C434 C409 1.395 . S
C434 C411 1.391 1_545 S
H435 C395 0.951 . S
H436 C396 0.950 . S
H437 C402 0.949 . S
H438 C403 0.950 . S
H439 C407 0.951 . S
H440 C408 0.950 . S
H441 C412 0.949 . S
H442 C413 0.950 . S
H443 C417 0.950 . S
H444 C419 0.950 . S
H445 C422 0.950 . S
H446 C424 0.950 . S
C447 C448 1.443 . S
C447 N451 1.376 . S
C447 C485 1.389 . S
C448 C447 1.443 . S
C448 C449 1.340 . S
C448 H488 0.951 . S
C449 C448 1.340 . S
C449 C450 1.439 . S
C449 H489 0.950 . S
C450 C449 1.439 . S
C450 N451 1.374 . S
C450 C484 1.395 . S
N451 C447 1.376 . S
N451 C450 1.374 . S
N451 Co452 2.008 . S
Co452 N451 2.008 . S
Co452 N453 1.995 . S
Co452 N458 2.004 1_554 S
Co452 N463 1.995 . S
Co452 N468 2.282 1_554 S
Co452 N474 2.282 . S
N453 Co452 1.995 . S
N453 C454 1.376 . S
N453 C457 1.383 1_554 S
C454 N453 1.376 . S
C454 C455 1.446 1_554 S
C454 C484 1.391 . S
C455 C454 1.446 1_556 S
C455 C456 1.339 . S
C455 H490 0.949 . S
C456 C455 1.339 . S
C456 C457 1.439 . S
C456 H491 0.950 . S
C457 N453 1.383 1_556 S
C457 C456 1.439 . S
C457 C486 1.392 . S
N458 Co452 2.004 1_556 S
N458 C459 1.383 . S
N458 C462 1.374 1_556 S
C459 N458 1.383 . S
C459 C460 1.443 . S
C459 C486 1.389 . S
C460 C459 1.443 . S
C460 C461 1.340 . S
C460 H492 0.951 . S
C461 C460 1.340 . S
C461 C462 1.407 1_556 S
C461 H493 0.950 . S
C462 N458 1.374 1_554 S
C462 C461 1.407 1_554 S
C462 C487 1.422 . S
N463 Co452 1.995 . S
N463 C464 1.376 . S
N463 C467 1.383 . S
C464 N463 1.376 . S
C464 C465 1.446 . S
C464 C487 1.391 . S
C465 C464 1.446 . S
C465 C466 1.339 . S
C465 H494 0.949 . S
C466 C465 1.339 . S
C466 C467 1.439 . S
C466 H495 0.950 . S
C467 N463 1.383 . S
C467 C466 1.439 . S
C467 C485 1.392 . S
N468 Co452 2.282 1_556 S
N468 C471 1.332 . S
N468 C473 1.332 . S
C469 C470 1.386 . S
C469 C472 1.388 . S
C470 C469 1.386 . S
C470 C471 1.382 . S
C470 H496 0.950 . S
C471 N468 1.332 . S
C471 C470 1.382 . S
C471 H482 0.952 . S
C472 C469 1.388 . S
C472 C473 1.382 . S
C472 H497 0.950 . S
C473 N468 1.332 . S
C473 C472 1.382 . S
C473 H483 0.948 . S
N474 Co452 2.282 . S
N474 C478 1.332 . S
N474 C479 1.332 . S
C475 C476 1.388 . S
C475 C479 1.382 . S
C475 H498 0.950 . S
C476 C475 1.388 . S
C476 C477 1.386 . S
C477 C476 1.386 . S
C477 C478 1.382 . S
C477 H499 0.950 . S
C478 N474 1.332 . S
C478 C477 1.382 . S
C478 H480 0.952 . S
C479 N474 1.332 . S
C479 C475 1.382 . S
C479 H481 0.948 . S
H480 C478 0.952 . S
H481 C479 0.948 . S
H482 C471 0.952 . S
H483 C473 0.948 . S
C484 C450 1.395 . S
C484 C454 1.391 . S
C485 C447 1.389 . S
C485 C467 1.392 . S
C486 C457 1.392 . S
C486 C459 1.389 . S
C487 C462 1.422 . S
C487 C464 1.391 . S
H488 C448 0.951 . S
H489 C449 0.950 . S
H490 C455 0.949 . S
H491 C456 0.950 . S
H492 C460 0.951 . S
H493 C461 0.950 . S
H494 C465 0.949 . S
H495 C466 0.950 . S
H496 C470 0.950 . S
H497 C472 0.950 . S
H498 C475 0.950 . S
H499 C477 0.950 . S
C500 C501 1.443 . S
C500 N504 1.359 1_565 S
C500 C538 1.389 . S
C501 C500 1.443 . S
C501 C502 1.340 . S
C501 H541 0.951 . S
C502 C501 1.340 . S
C502 C503 1.439 1_565 S
C502 H542 0.950 . S
C503 C502 1.439 1_545 S
C503 N504 1.374 . S
C503 C537 1.395 . S
N504 C500 1.359 1_545 S
N504 C503 1.374 . S
N504 Co505 2.021 . S
Co505 N504 2.021 . S
Co505 N506 1.995 . S
Co505 N511 2.008 . S
Co505 N516 1.995 . S
Co505 N521 2.282 . S
Co505 N527 2.282 1_545 S
N506 Co505 1.995 . S
N506 C507 1.376 . S
N506 C510 1.383 . S
C507 N506 1.376 . S
C507 C508 1.446 . S
C507 C537 1.391 . S
C508 C507 1.446 . S
C508 C509 1.339 . S
C508 H543 0.949 . S
C509 C508 1.339 . S
C509 C510 1.439 . S
C509 H544 0.950 . S
C510 N506 1.383 . S
C510 C509 1.439 . S
C510 C539 1.392 . S
N511 Co505 2.008 . S
N511 C512 1.376 . S
N511 C515 1.374 . S
C512 N511 1.376 . S
C512 C513 1.443 . S
C512 C539 1.389 . S
C513 C512 1.443 . S
C513 C514 1.340 . S
C513 H545 0.951 . S
C514 C513 1.340 . S
C514 C515 1.439 . S
C514 H546 0.950 . S
C515 N511 1.374 . S
C515 C514 1.439 . S
C515 C540 1.395 . S
N516 Co505 1.995 . S
N516 C517 1.376 . S
N516 C520 1.383 1_545 S
C517 N516 1.376 . S
C517 C518 1.446 1_545 S
C517 C540 1.391 . S
C518 C517 1.446 1_565 S
C518 C519 1.339 . S
C518 H547 0.949 . S
C519 C518 1.339 . S
C519 C520 1.439 . S
C519 H548 0.950 . S
C520 N516 1.383 1_565 S
C520 C519 1.439 . S
C520 C538 1.392 . S
N521 Co505 2.282 . S
N521 C524 1.332 . S
N521 C526 1.332 . S
C522 C523 1.386 . S
C522 C525 1.388 . S
C523 C522 1.386 . S
C523 C524 1.382 . S
C523 H549 0.950 . S
C524 N521 1.332 . S
C524 C523 1.382 . S
C524 H535 0.952 . S
C525 C522 1.388 . S
C525 C526 1.382 . S
C525 H550 0.950 . S
C526 N521 1.332 . S
C526 C525 1.382 . S
C526 H536 0.948 . S
N527 Co505 2.282 1_565 S
N527 C531 1.332 . S
N527 C532 1.332 . S
C528 C529 1.388 . S
C528 C532 1.382 . S
C528 H551 0.950 . S
C529 C528 1.388 . S
C529 C530 1.386 . S
C530 C529 1.386 . S
C530 C531 1.382 . S
C530 H552 0.950 . S
C531 N527 1.332 . S
C531 C530 1.382 . S
C531 H533 0.952 . S
C532 N527 1.332 . S
C532 C528 1.382 . S
C532 H534 0.948 . S
H533 C531 0.952 . S
H534 C532 0.948 . S
H535 C524 0.952 . S
H536 C526 0.948 . S
C537 C503 1.395 . S
C537 C507 1.391 . S
C538 C500 1.389 . S
C538 C520 1.392 . S
C539 C510 1.392 . S
C539 C512 1.389 . S
C540 C515 1.395 . S
C540 C517 1.391 . S
H541 C501 0.951 . S
H542 C502 0.950 . S
H543 C508 0.949 . S
H544 C509 0.950 . S
H545 C513 0.951 . S
H546 C514 0.950 . S
H547 C518 0.949 . S
H548 C519 0.950 . S
H549 C523 0.950 . S
H550 C525 0.950 . S
H551 C528 0.950 . S
H552 C530 0.950 . S
C553 C554 1.443 . S
C553 N557 1.376 . S
C553 C591 1.389 . S
C554 C553 1.443 . S
C554 C555 1.340 . S
C554 H594 0.951 . S
C555 C554 1.340 . S
C555 C556 1.439 . S
C555 H595 0.950 . S
C556 C555 1.439 . S
C556 N557 1.374 . S
C556 C590 1.395 . S
N557 C553 1.376 . S
N557 C556 1.374 . S
N557 Co558 2.008 . S
Co558 N557 2.008 . S
Co558 N559 1.995 . S
Co558 N564 2.008 . S
Co558 N569 1.995 . S
Co558 N574 2.289 . S
Co558 N580 2.282 . S
N559 Co558 1.995 . S
N559 C560 1.376 . S
N559 C563 1.383 1_554 S
C560 N559 1.376 . S
C560 C561 1.446 1_554 S
C560 C590 1.391 . S
C561 C560 1.446 1_556 S
C561 C562 1.339 . S
C561 H596 0.949 . S
C562 C561 1.339 . S
C562 C563 1.439 . S
C562 H597 0.950 . S
C563 N559 1.383 1_556 S
C563 C562 1.439 . S
C563 C592 1.392 . S
N564 Co558 2.008 . S
N564 C565 1.376 1_554 S
N564 C568 1.374 . S
C565 N564 1.376 1_556 S
C565 C566 1.443 . S
C565 C592 1.389 . S
C566 C565 1.443 . S
C566 C567 1.340 . S
C566 H598 0.951 . S
C567 C566 1.340 . S
C567 C568 1.439 1_556 S
C567 H599 0.950 . S
C568 N564 1.374 . S
C568 C567 1.439 1_554 S
C568 C593 1.395 . S
N569 Co558 1.995 . S
N569 C570 1.376 . S
N569 C573 1.383 . S
C570 N569 1.376 . S
C570 C571 1.446 . S
C570 C593 1.391 . S
C571 C570 1.446 . S
C571 C572 1.339 . S
C571 H600 0.949 . S
C572 C571 1.339 . S
C572 C573 1.439 . S
C572 H601 0.950 . S
C573 N569 1.383 . S
C573 C572 1.439 . S
C573 C591 1.392 . S
N574 Co558 2.289 . S
N574 C577 1.329 1_554 S
N574 C579 1.327 1_554 S
C575 C576 1.386 . S
C575 C578 1.388 . S
C576 C575 1.386 . S
C576 C577 1.382 . S
C576 H602 0.950 . S
C577 N574 1.329 1_556 S
C577 C576 1.382 . S
C577 H588 0.952 1_556 S
C578 C575 1.388 . S
C578 C579 1.382 . S
C578 H603 0.950 . S
C579 N574 1.327 1_556 S
C579 C578 1.382 . S
C579 H589 0.948 . S
N580 Co558 2.282 . S
N580 C584 1.332 . S
N580 C585 1.332 . S
C581 C582 1.388 . S
C581 C585 1.382 . S
C581 H604 0.950 . S
C582 C581 1.388 . S
C582 C583 1.386 . S
C583 C582 1.386 . S
C583 C584 1.382 . S
C583 H605 0.950 . S
C584 N580 1.332 . S
C584 C583 1.382 . S
C584 H586 0.952 . S
C585 N580 1.332 . S
C585 C581 1.382 . S
C585 H587 0.948 . S
H586 C584 0.952 . S
H587 C585 0.948 . S
H588 C577 0.952 1_554 S
H589 C579 0.948 . S
C590 C556 1.395 . S
C590 C560 1.391 . S
C591 C553 1.389 . S
C591 C573 1.392 . S
C592 C563 1.392 . S
C592 C565 1.389 . S
C593 C568 1.395 . S
C593 C570 1.391 . S
H594 C554 0.951 . S
H595 C555 0.950 . S
H596 C561 0.949 . S
H597 C562 0.950 . S
H598 C566 0.951 . S
H599 C567 0.950 . S
H600 C571 0.949 . S
H601 C572 0.950 . S
H602 C576 0.950 . S
H603 C578 0.950 . S
H604 C581 0.950 . S
H605 C583 0.950 . S
H606 C614 0.929 . S
H607 C616 0.930 . S
H608 C618 0.930 . S
H609 C621 0.929 . S
H610 C624 0.930 . S
H611 C626 0.960 . S
H612 C626 0.960 . S
H613 C626 0.960 . S
C614 H606 0.929 . S
C614 C615 1.377 . S
C614 C616 1.384 . S
C615 C614 1.377 . S
C615 C621 1.390 . S
C616 H607 0.930 . S
C616 C614 1.384 . S
C616 C617 1.372 . S
C617 C616 1.372 . S
C617 C618 1.400 . S
C617 C622 1.490 . S
C618 H608 0.930 . S
C618 C617 1.400 . S
C618 C621 1.386 . S
H619 C635 0.930 . S
H620 C636 0.931 . S
C621 H609 0.929 . S
C621 C615 1.390 . S
C621 C618 1.386 . S
C622 C617 1.490 . S
C622 C624 1.395 . S
C622 C625 1.403 . S
H623 C629 0.930 . S
C624 H610 0.930 . S
C624 C622 1.395 . S
C624 C627 1.403 . S
C625 C622 1.403 . S
C625 C626 1.524 . S
C625 C629 1.400 . S
C626 H611 0.960 . S
C626 H612 0.960 . S
C626 H613 0.960 . S
C626 C625 1.524 . S
C627 C624 1.403 . S
C627 C628 1.392 . S
C627 C631 1.495 . S
C628 C627 1.392 . S
C628 C629 1.385 . S
C628 C630 1.478 . S
C629 H623 0.930 . S
C629 C625 1.400 . S
C629 C628 1.385 . S
C630 C628 1.478 . S
C630 C632 1.381 . S
C630 C636 1.383 . S
C631 C627 1.495 . S
C631 H637 0.959 . S
C631 H638 0.961 . S
C631 H639 0.960 . S
C632 C630 1.381 . S
C632 C633 1.394 . S
C632 H640 0.930 . S
C633 C632 1.394 . S
C633 C634 1.383 . S
C633 H641 0.929 . S
C634 C633 1.383 . S
C634 C635 1.377 . S
C635 H619 0.930 . S
C635 C634 1.377 . S
C635 C636 1.379 . S
C636 H620 0.931 . S
C636 C630 1.383 . S
C636 C635 1.379 . S
H637 C631 0.959 . S
H638 C631 0.961 . S
H639 C631 0.960 . S
H640 C632 0.930 . S
H641 C633 0.929 . S
H642 C650 0.929 . S
H643 C652 0.930 . S
H644 C654 0.930 . S
H645 C657 0.929 . S
H646 C660 0.930 . S
H647 C662 0.960 . S
H648 C662 0.960 . S
H649 C662 0.960 . S
C650 H642 0.929 . S
C650 C651 1.377 . S
C650 C652 1.384 . S
C651 C650 1.377 . S
C651 C657 1.390 . S
C652 H643 0.930 . S
C652 C650 1.384 . S
C652 C653 1.372 . S
C653 C652 1.372 . S
C653 C654 1.400 . S
C653 C658 1.490 . S
C654 H644 0.930 . S
C654 C653 1.400 . S
C654 C657 1.386 . S
H655 C671 0.930 . S
H656 C672 0.931 . S
C657 H645 0.929 . S
C657 C651 1.390 . S
C657 C654 1.386 . S
C658 C653 1.490 . S
C658 C660 1.395 . S
C658 C661 1.403 . S
H659 C665 0.930 . S
C660 H646 0.930 . S
C660 C658 1.395 . S
C660 C663 1.403 . S
C661 C658 1.403 . S
C661 C662 1.524 . S
C661 C665 1.400 . S
C662 H647 0.960 . S
C662 H648 0.960 . S
C662 H649 0.960 . S
C662 C661 1.524 . S
C663 C660 1.403 . S
C663 C664 1.392 . S
C663 C667 1.495 . S
C664 C663 1.392 . S
C664 C665 1.385 . S
C664 C666 1.478 . S
C665 H659 0.930 . S
C665 C661 1.400 . S
C665 C664 1.385 . S
C666 C664 1.478 . S
C666 C668 1.381 . S
C666 C672 1.383 . S
C667 C663 1.495 . S
C667 H673 0.959 . S
C667 H674 0.961 . S
C667 H675 0.960 . S
C668 C666 1.381 . S
C668 C669 1.394 . S
C668 H676 0.930 . S
C669 C668 1.394 . S
C669 C670 1.383 . S
C669 H677 0.929 . S
C670 C669 1.383 . S
C670 C671 1.377 . S
C671 H655 0.930 . S
C671 C670 1.377 . S
C671 C672 1.379 . S
C672 H656 0.931 . S
C672 C666 1.383 . S
C672 C671 1.379 . S
H673 C667 0.959 . S
H674 C667 0.961 . S
H675 C667 0.960 . S
H676 C668 0.930 . S
H677 C669 0.929 . S
H678 C686 0.929 . S
H679 C688 0.930 . S
H680 C690 0.930 . S
H681 C693 0.929 . S
H682 C696 0.930 . S
H683 C698 0.960 . S
H684 C698 0.960 . S
H685 C698 0.960 . S
C686 H678 0.929 . S
C686 C687 1.377 . S
C686 C688 1.384 . S
C687 C686 1.377 . S
C687 C693 1.390 . S
C688 H679 0.930 . S
C688 C686 1.384 . S
C688 C689 1.372 . S
C689 C688 1.372 . S
C689 C690 1.400 . S
C689 C694 1.490 . S
C690 H680 0.930 . S
C690 C689 1.400 . S
C690 C693 1.386 . S
H691 C707 0.930 . S
H692 C708 0.931 . S
C693 H681 0.929 . S
C693 C687 1.390 . S
C693 C690 1.386 . S
C694 C689 1.490 . S
C694 C696 1.395 . S
C694 C697 1.403 . S
H695 C701 0.930 . S
C696 H682 0.930 . S
C696 C694 1.395 . S
C696 C699 1.403 . S
C697 C694 1.403 . S
C697 C698 1.524 . S
C697 C701 1.400 . S
C698 H683 0.960 . S
C698 H684 0.960 . S
C698 H685 0.960 . S
C698 C697 1.524 . S
C699 C696 1.403 . S
C699 C700 1.392 . S
C699 C703 1.495 . S
C700 C699 1.392 . S
C700 C701 1.385 . S
C700 C702 1.478 . S
C701 H695 0.930 . S
C701 C697 1.400 . S
C701 C700 1.385 . S
C702 C700 1.478 . S
C702 C704 1.381 . S
C702 C708 1.383 . S
C703 C699 1.495 . S
C703 H709 0.959 . S
C703 H710 0.961 . S
C703 H711 0.960 . S
C704 C702 1.381 . S
C704 C705 1.394 . S
C704 H712 0.930 . S
C705 C704 1.394 . S
C705 C706 1.383 . S
C705 H713 0.929 . S
C706 C705 1.383 . S
C706 C707 1.377 . S
C707 H691 0.930 . S
C707 C706 1.377 . S
C707 C708 1.379 . S
C708 H692 0.931 . S
C708 C702 1.383 . S
C708 C707 1.379 . S
H709 C703 0.959 . S
H710 C703 0.961 . S
H711 C703 0.960 . S
H712 C704 0.930 . S
H713 C705 0.929 . S
H714 C722 0.929 . S
H715 C724 0.930 . S
H716 C726 0.930 . S
H717 C729 0.929 . S
H718 C732 0.930 . S
H719 C734 0.960 . S
H720 C734 0.960 . S
H721 C734 0.960 . S
C722 H714 0.929 . S
C722 C723 1.377 . S
C722 C724 1.384 . S
C723 C722 1.377 . S
C723 C729 1.390 . S
C724 H715 0.930 . S
C724 C722 1.384 . S
C724 C725 1.372 . S
C725 C724 1.372 . S
C725 C726 1.400 . S
C725 C730 1.490 . S
C726 H716 0.930 . S
C726 C725 1.400 . S
C726 C729 1.386 . S
H727 C743 0.930 . S
H728 C744 0.931 . S
C729 H717 0.929 . S
C729 C723 1.390 . S
C729 C726 1.386 . S
C730 C725 1.490 . S
C730 C732 1.395 . S
C730 C733 1.403 . S
H731 C737 0.930 . S
C732 H718 0.930 . S
C732 C730 1.395 . S
C732 C735 1.403 . S
C733 C730 1.403 . S
C733 C734 1.524 . S
C733 C737 1.400 . S
C734 H719 0.960 . S
C734 H720 0.960 . S
C734 H721 0.960 . S
C734 C733 1.524 . S
C735 C732 1.403 . S
C735 C736 1.392 . S
C735 C739 1.495 . S
C736 C735 1.392 . S
C736 C737 1.385 . S
C736 C738 1.478 . S
C737 H731 0.930 . S
C737 C733 1.400 . S
C737 C736 1.385 . S
C738 C736 1.478 . S
C738 C740 1.381 . S
C738 C744 1.383 . S
C739 C735 1.495 . S
C739 H745 0.959 . S
C739 H746 0.961 . S
C739 H747 0.960 . S
C740 C738 1.381 . S
C740 C741 1.394 . S
C740 H748 0.930 . S
C741 C740 1.394 . S
C741 C742 1.383 . S
C741 H749 0.929 . S
C742 C741 1.383 . S
C742 C743 1.377 . S
C743 H727 0.930 . S
C743 C742 1.377 . S
C743 C744 1.379 . S
C744 H728 0.931 . S
C744 C738 1.383 . S
C744 C743 1.379 . S
H745 C739 0.959 . S
H746 C739 0.961 . S
H747 C739 0.960 . S
H748 C740 0.930 . S
H749 C741 0.929 . S
H750 C758 0.929 . S
H751 C760 0.930 . S
H752 C762 0.930 . S
H753 C765 0.929 . S
H754 C768 0.930 . S
H755 C770 0.960 . S
H756 C770 0.960 . S
H757 C770 0.960 . S
C758 H750 0.929 . S
C758 C759 1.377 . S
C758 C760 1.384 . S
C759 C758 1.377 . S
C759 C765 1.390 . S
C760 H751 0.930 . S
C760 C758 1.384 . S
C760 C761 1.372 . S
C761 C760 1.372 . S
C761 C762 1.400 . S
C761 C766 1.490 . S
C762 H752 0.930 . S
C762 C761 1.400 . S
C762 C765 1.386 . S
H763 C779 0.930 . S
H764 C780 0.931 . S
C765 H753 0.929 . S
C765 C759 1.390 . S
C765 C762 1.386 . S
C766 C761 1.490 . S
C766 C768 1.395 . S
C766 C769 1.403 . S
H767 C773 0.930 . S
C768 H754 0.930 . S
C768 C766 1.395 . S
C768 C771 1.403 . S
C769 C766 1.403 . S
C769 C770 1.524 . S
C769 C773 1.400 . S
C770 H755 0.960 . S
C770 H756 0.960 . S
C770 H757 0.960 . S
C770 C769 1.524 . S
C771 C768 1.403 . S
C771 C772 1.392 . S
C771 C775 1.495 . S
C772 C771 1.392 . S
C772 C773 1.385 . S
C772 C774 1.478 . S
C773 H767 0.930 . S
C773 C769 1.400 . S
C773 C772 1.385 . S
C774 C772 1.478 . S
C774 C776 1.381 . S
C774 C780 1.383 . S
C775 C771 1.495 . S
C775 H781 0.959 . S
C775 H782 0.961 . S
C775 H783 0.960 . S
C776 C774 1.381 . S
C776 C777 1.394 . S
C776 H784 0.930 . S
C777 C776 1.394 . S
C777 C778 1.383 . S
C777 H785 0.929 . S
C778 C777 1.383 . S
C778 C779 1.377 . S
C779 H763 0.930 . S
C779 C778 1.377 . S
C779 C780 1.379 . S
C780 H764 0.931 . S
C780 C774 1.383 . S
C780 C779 1.379 . S
H781 C775 0.959 . S
H782 C775 0.961 . S
H783 C775 0.960 . S
H784 C776 0.930 . S
H785 C777 0.929 . S
H786 C794 0.929 . S
H787 C796 0.930 . S
H788 C798 0.930 . S
H789 C801 0.929 . S
H790 C804 0.930 . S
H791 C806 0.960 . S
H792 C806 0.960 . S
H793 C806 0.960 . S
C794 H786 0.929 . S
C794 C795 1.377 . S
C794 C796 1.384 . S
C795 C794 1.377 . S
C795 C801 1.390 . S
C796 H787 0.930 . S
C796 C794 1.384 . S
C796 C797 1.372 . S
C797 C796 1.372 . S
C797 C798 1.400 . S
C797 C802 1.490 . S
C798 H788 0.930 . S
C798 C797 1.400 . S
C798 C801 1.386 . S
H799 C815 0.930 . S
H800 C816 0.931 . S
C801 H789 0.929 . S
C801 C795 1.390 . S
C801 C798 1.386 . S
C802 C797 1.490 . S
C802 C804 1.395 . S
C802 C805 1.403 . S
H803 C809 0.930 . S
C804 H790 0.930 . S
C804 C802 1.395 . S
C804 C807 1.403 . S
C805 C802 1.403 . S
C805 C806 1.524 . S
C805 C809 1.400 . S
C806 H791 0.960 . S
C806 H792 0.960 . S
C806 H793 0.960 . S
C806 C805 1.524 . S
C807 C804 1.403 . S
C807 C808 1.392 . S
C807 C811 1.495 . S
C808 C807 1.392 . S
C808 C809 1.385 . S
C808 C810 1.478 . S
C809 H803 0.930 . S
C809 C805 1.400 . S
C809 C808 1.385 . S
C810 C808 1.478 . S
C810 C812 1.381 . S
C810 C816 1.383 . S
C811 C807 1.495 . S
C811 H817 0.959 . S
C811 H818 0.961 . S
C811 H819 0.960 . S
C812 C810 1.381 . S
C812 C813 1.394 . S
C812 H820 0.930 . S
C813 C812 1.394 . S
C813 C814 1.383 . S
C813 H821 0.929 . S
C814 C813 1.383 . S
C814 C815 1.377 . S
C815 H799 0.930 . S
C815 C814 1.377 . S
C815 C816 1.379 . S
C816 H800 0.931 . S
C816 C810 1.383 . S
C816 C815 1.379 . S
H817 C811 0.959 . S
H818 C811 0.961 . S
H819 C811 0.960 . S
H820 C812 0.930 . S
H821 C813 0.929 . S
H822 C830 0.929 . S
H823 C832 0.930 . S
H824 C834 0.930 . S
H825 C837 0.929 . S
H826 C840 0.930 . S
H827 C842 0.960 . S
H828 C842 0.960 . S
H829 C842 0.960 . S
C830 H822 0.929 . S
C830 C831 1.377 . S
C830 C832 1.384 . S
C831 C830 1.377 . S
C831 C837 1.390 . S
C832 H823 0.930 . S
C832 C830 1.384 . S
C832 C833 1.372 . S
C833 C832 1.372 . S
C833 C834 1.400 . S
C833 C838 1.490 . S
C834 H824 0.930 . S
C834 C833 1.400 . S
C834 C837 1.386 . S
H835 C851 0.930 . S
H836 C852 0.931 . S
C837 H825 0.929 . S
C837 C831 1.390 . S
C837 C834 1.386 . S
C838 C833 1.490 . S
C838 C840 1.395 . S
C838 C841 1.403 . S
H839 C845 0.930 . S
C840 H826 0.930 . S
C840 C838 1.395 . S
C840 C843 1.403 . S
C841 C838 1.403 . S
C841 C842 1.524 . S
C841 C845 1.400 . S
C842 H827 0.960 . S
C842 H828 0.960 . S
C842 H829 0.960 . S
C842 C841 1.524 . S
C843 C840 1.403 . S
C843 C844 1.392 . S
C843 C847 1.495 . S
C844 C843 1.392 . S
C844 C845 1.385 . S
C844 C846 1.478 . S
C845 H839 0.930 . S
C845 C841 1.400 . S
C845 C844 1.385 . S
C846 C844 1.478 . S
C846 C848 1.381 . S
C846 C852 1.383 . S
C847 C843 1.495 . S
C847 H853 0.959 . S
C847 H854 0.961 . S
C847 H855 0.960 . S
C848 C846 1.381 . S
C848 C849 1.394 . S
C848 H856 0.930 . S
C849 C848 1.394 . S
C849 C850 1.383 . S
C849 H857 0.929 . S
C850 C849 1.383 . S
C850 C851 1.377 . S
C851 H835 0.930 . S
C851 C850 1.377 . S
C851 C852 1.379 . S
C852 H836 0.931 . S
C852 C846 1.383 . S
C852 C851 1.379 . S
H853 C847 0.959 . S
H854 C847 0.961 . S
H855 C847 0.960 . S
H856 C848 0.930 . S
H857 C849 0.929 . S
H858 C866 0.929 . S
H859 C868 0.930 . S
H860 C870 0.930 . S
H861 C873 0.929 . S
H862 C876 0.930 . S
H863 C878 0.960 . S
H864 C878 0.960 . S
H865 C878 0.960 . S
C866 H858 0.929 . S
C866 C867 1.377 . S
C866 C868 1.384 . S
C867 C866 1.377 . S
C867 C873 1.390 . S
C868 H859 0.930 . S
C868 C866 1.384 . S
C868 C869 1.372 . S
C869 C868 1.372 . S
C869 C870 1.400 . S
C869 C874 1.490 . S
C870 H860 0.930 . S
C870 C869 1.400 . S
C870 C873 1.386 . S
H871 C887 0.930 . S
H872 C888 0.931 . S
C873 H861 0.929 . S
C873 C867 1.390 . S
C873 C870 1.386 . S
C874 C869 1.490 . S
C874 C876 1.395 . S
C874 C877 1.403 . S
H875 C881 0.930 . S
C876 H862 0.930 . S
C876 C874 1.395 . S
C876 C879 1.403 . S
C877 C874 1.403 . S
C877 C878 1.524 . S
C877 C881 1.400 . S
C878 H863 0.960 . S
C878 H864 0.960 . S
C878 H865 0.960 . S
C878 C877 1.524 . S
C879 C876 1.403 . S
C879 C880 1.392 . S
C879 C883 1.495 . S
C880 C879 1.392 . S
C880 C881 1.385 . S
C880 C882 1.478 . S
C881 H875 0.930 . S
C881 C877 1.400 . S
C881 C880 1.385 . S
C882 C880 1.478 . S
C882 C884 1.381 . S
C882 C888 1.383 . S
C883 C879 1.495 . S
C883 H889 0.959 . S
C883 H890 0.961 . S
C883 H891 0.960 . S
C884 C882 1.381 . S
C884 C885 1.394 . S
C884 H892 0.930 . S
C885 C884 1.394 . S
C885 C886 1.383 . S
C885 H893 0.929 . S
C886 C885 1.383 . S
C886 C887 1.377 . S
C887 H871 0.930 . S
C887 C886 1.377 . S
C887 C888 1.379 . S
C888 H872 0.931 . S
C888 C882 1.383 . S
C888 C887 1.379 . S
H889 C883 0.959 . S
H890 C883 0.961 . S
H891 C883 0.960 . S
H892 C884 0.930 . S
H893 C885 0.929 . S
H894 C902 0.929 . S
H895 C904 0.930 . S
H896 C906 0.930 . S
H897 C909 0.929 . S
H898 C912 0.930 . S
H899 C914 0.960 . S
H900 C914 0.960 . S
H901 C914 0.960 . S
C902 H894 0.929 . S
C902 C903 1.377 . S
C902 C904 1.384 . S
C903 C902 1.377 . S
C903 C909 1.390 . S
C904 H895 0.930 . S
C904 C902 1.384 . S
C904 C905 1.372 . S
C905 C904 1.372 . S
C905 C906 1.400 . S
C905 C910 1.490 . S
C906 H896 0.930 . S
C906 C905 1.400 . S
C906 C909 1.386 . S
H907 C923 0.930 . S
H908 C924 0.931 . S
C909 H897 0.929 . S
C909 C903 1.390 . S
C909 C906 1.386 . S
C910 C905 1.490 . S
C910 C912 1.395 . S
C910 C913 1.403 . S
H911 C917 0.930 . S
C912 H898 0.930 . S
C912 C910 1.395 . S
C912 C915 1.403 . S
C913 C910 1.403 . S
C913 C914 1.524 . S
C913 C917 1.400 . S
C914 H899 0.960 . S
C914 H900 0.960 . S
C914 H901 0.960 . S
C914 C913 1.524 . S
C915 C912 1.403 . S
C915 C916 1.392 . S
C915 C919 1.495 . S
C916 C915 1.392 . S
C916 C917 1.385 . S
C916 C918 1.478 . S
C917 H911 0.930 . S
C917 C913 1.400 . S
C917 C916 1.385 . S
C918 C916 1.478 . S
C918 C920 1.381 . S
C918 C924 1.383 . S
C919 C915 1.495 . S
C919 H925 0.959 . S
C919 H926 0.961 . S
C919 H927 0.960 . S
C920 C918 1.381 . S
C920 C921 1.394 . S
C920 H928 0.930 . S
C921 C920 1.394 . S
C921 C922 1.383 . S
C921 H929 0.929 . S
C922 C921 1.383 . S
C922 C923 1.377 . S
C923 H907 0.930 . S
C923 C922 1.377 . S
C923 C924 1.379 . S
C924 H908 0.931 . S
C924 C918 1.383 . S
C924 C923 1.379 . S
H925 C919 0.959 . S
H926 C919 0.961 . S
H927 C919 0.960 . S
H928 C920 0.930 . S
H929 C921 0.929 . S
H930 C938 0.929 . S
H931 C940 0.930 . S
H932 C942 0.930 . S
H933 C945 0.929 . S
H934 C948 0.930 . S
H935 C950 0.960 . S
H936 C950 0.960 . S
H937 C950 0.960 . S
C938 H930 0.929 . S
C938 C939 1.377 . S
C938 C940 1.384 . S
C939 C938 1.377 . S
C939 C945 1.390 . S
C940 H931 0.930 . S
C940 C938 1.384 . S
C940 C941 1.372 . S
C941 C940 1.372 . S
C941 C942 1.400 . S
C941 C946 1.490 . S
C942 H932 0.930 . S
C942 C941 1.400 . S
C942 C945 1.386 . S
H943 C959 0.930 . S
H944 C960 0.931 . S
C945 H933 0.929 . S
C945 C939 1.390 . S
C945 C942 1.386 . S
C946 C941 1.490 . S
C946 C948 1.395 . S
C946 C949 1.403 . S
H947 C953 0.930 . S
C948 H934 0.930 . S
C948 C946 1.395 . S
C948 C951 1.403 . S
C949 C946 1.403 . S
C949 C950 1.524 . S
C949 C953 1.400 . S
C950 H935 0.960 . S
C950 H936 0.960 . S
C950 H937 0.960 . S
C950 C949 1.524 . S
C951 C948 1.403 . S
C951 C952 1.392 . S
C951 C955 1.495 . S
C952 C951 1.392 . S
C952 C953 1.385 . S
C952 C954 1.478 . S
C953 H947 0.930 . S
C953 C949 1.400 . S
C953 C952 1.385 . S
C954 C952 1.478 . S
C954 C956 1.381 . S
C954 C960 1.383 . S
C955 C951 1.495 . S
C955 H961 0.959 . S
C955 H962 0.961 . S
C955 H963 0.960 . S
C956 C954 1.381 . S
C956 C957 1.394 . S
C956 H964 0.930 . S
C957 C956 1.394 . S
C957 C958 1.383 . S
C957 H965 0.929 . S
C958 C957 1.383 . S
C958 C959 1.377 . S
C959 H943 0.930 . S
C959 C958 1.377 . S
C959 C960 1.379 . S
C960 H944 0.931 . S
C960 C954 1.383 . S
C960 C959 1.379 . S
H961 C955 0.959 . S
H962 C955 0.961 . S
H963 C955 0.960 . S
H964 C956 0.930 . S
H965 C957 0.929 . S
H966 C974 0.929 . S
H967 C976 0.930 . S
H968 C978 0.930 . S
H969 C981 0.929 . S
H970 C984 0.930 . S
H971 C986 0.960 . S
H972 C986 0.960 . S
H973 C986 0.960 . S
C974 H966 0.929 . S
C974 C975 1.377 . S
C974 C976 1.384 . S
C975 C974 1.377 . S
C975 C981 1.390 . S
C976 H967 0.930 . S
C976 C974 1.384 . S
C976 C977 1.372 . S
C977 C976 1.372 . S
C977 C978 1.400 . S
C977 C982 1.490 . S
C978 H968 0.930 . S
C978 C977 1.400 . S
C978 C981 1.386 . S
H979 C995 0.930 . S
H980 C996 0.931 . S
C981 H969 0.929 . S
C981 C975 1.390 . S
C981 C978 1.386 . S
C982 C977 1.490 . S
C982 C984 1.395 . S
C982 C985 1.403 . S
H983 C989 0.930 . S
C984 H970 0.930 . S
C984 C982 1.395 . S
C984 C987 1.403 . S
C985 C982 1.403 . S
C985 C986 1.524 . S
C985 C989 1.400 . S
C986 H971 0.960 . S
C986 H972 0.960 . S
C986 H973 0.960 . S
C986 C985 1.524 . S
C987 C984 1.403 . S
C987 C988 1.392 . S
C987 C991 1.495 . S
C988 C987 1.392 . S
C988 C989 1.385 . S
C988 C990 1.478 . S
C989 H983 0.930 . S
C989 C985 1.400 . S
C989 C988 1.385 . S
C990 C988 1.478 . S
C990 C992 1.381 . S
C990 C996 1.383 . S
C991 C987 1.495 . S
C991 H997 0.959 . S
C991 H998 0.961 . S
C991 H999 0.960 . S
C992 C990 1.381 . S
C992 C993 1.394 . S
C992 H1000 0.930 . S
C993 C992 1.394 . S
C993 C994 1.383 . S
C993 H1001 0.929 . S
C994 C993 1.383 . S
C994 C995 1.377 . S
C995 H979 0.930 . S
C995 C994 1.377 . S
C995 C996 1.379 . S
C996 H980 0.931 . S
C996 C990 1.383 . S
C996 C995 1.379 . S
H997 C991 0.959 . S
H998 C991 0.961 . S
H999 C991 0.960 . S
H1000 C992 0.930 . S
H1001 C993 0.929 . S
H1002 C1010 0.929 . S
H1003 C1012 0.930 . S
H1004 C1014 0.930 . S
H1005 C1017 0.929 . S
H1006 C1020 0.930 . S
H1007 C1022 0.960 . S
H1008 C1022 0.960 . S
H1009 C1022 0.960 . S
C1010 H1002 0.929 . S
C1010 C1011 1.377 . S
C1010 C1012 1.384 . S
C1011 C1010 1.377 . S
C1011 C1017 1.390 . S
C1012 H1003 0.930 . S
C1012 C1010 1.384 . S
C1012 C1013 1.372 . S
C1013 C1012 1.372 . S
C1013 C1014 1.400 . S
C1013 C1018 1.490 . S
C1014 H1004 0.930 . S
C1014 C1013 1.400 . S
C1014 C1017 1.386 . S
H1015 C1031 0.930 . S
H1016 C1032 0.931 . S
C1017 H1005 0.929 . S
C1017 C1011 1.390 . S
C1017 C1014 1.386 . S
C1018 C1013 1.490 . S
C1018 C1020 1.395 . S
C1018 C1021 1.403 . S
H1019 C1025 0.930 . S
C1020 H1006 0.930 . S
C1020 C1018 1.395 . S
C1020 C1023 1.403 . S
C1021 C1018 1.403 . S
C1021 C1022 1.524 . S
C1021 C1025 1.400 . S
C1022 H1007 0.960 . S
C1022 H1008 0.960 . S
C1022 H1009 0.960 . S
C1022 C1021 1.524 . S
C1023 C1020 1.403 . S
C1023 C1024 1.392 . S
C1023 C1027 1.495 . S
C1024 C1023 1.392 . S
C1024 C1025 1.385 . S
C1024 C1026 1.478 . S
C1025 H1019 0.930 . S
C1025 C1021 1.400 . S
C1025 C1024 1.385 . S
C1026 C1024 1.478 . S
C1026 C1028 1.381 . S
C1026 C1032 1.383 . S
C1027 C1023 1.495 . S
C1027 H1033 0.959 . S
C1027 H1034 0.961 . S
C1027 H1035 0.960 . S
C1028 C1026 1.381 . S
C1028 C1029 1.394 . S
C1028 H1036 0.930 . S
C1029 C1028 1.394 . S
C1029 C1030 1.383 . S
C1029 H1037 0.929 . S
C1030 C1029 1.383 . S
C1030 C1031 1.377 . S
C1031 H1015 0.930 . S
C1031 C1030 1.377 . S
C1031 C1032 1.379 . S
C1032 H1016 0.931 . S
C1032 C1026 1.383 . S
C1032 C1031 1.379 . S
H1033 C1027 0.959 . S
H1034 C1027 0.961 . S
H1035 C1027 0.960 . S
H1036 C1028 0.930 . S
H1037 C1029 0.929 . S
H1038 C1046 0.929 . S
H1039 C1048 0.930 . S
H1040 C1050 0.930 . S
H1041 C1053 0.929 . S
H1042 C1056 0.930 . S
H1043 C1058 0.960 . S
H1044 C1058 0.960 . S
H1045 C1058 0.960 . S
C1046 H1038 0.929 . S
C1046 C1047 1.377 . S
C1046 C1048 1.384 . S
C1047 C1046 1.377 . S
C1047 C1053 1.390 . S
C1048 H1039 0.930 . S
C1048 C1046 1.384 . S
C1048 C1049 1.372 . S
C1049 C1048 1.372 . S
C1049 C1050 1.400 . S
C1049 C1054 1.490 . S
C1050 H1040 0.930 . S
C1050 C1049 1.400 . S
C1050 C1053 1.386 . S
H1051 C1067 0.930 . S
H1052 C1068 0.931 . S
C1053 H1041 0.929 . S
C1053 C1047 1.390 . S
C1053 C1050 1.386 . S
C1054 C1049 1.490 . S
C1054 C1056 1.395 . S
C1054 C1057 1.403 . S
H1055 C1061 0.930 . S
C1056 H1042 0.930 . S
C1056 C1054 1.395 . S
C1056 C1059 1.403 . S
C1057 C1054 1.403 . S
C1057 C1058 1.524 . S
C1057 C1061 1.400 . S
C1058 H1043 0.960 . S
C1058 H1044 0.960 . S
C1058 H1045 0.960 . S
C1058 C1057 1.524 . S
C1059 C1056 1.403 . S
C1059 C1060 1.392 . S
C1059 C1063 1.495 . S
C1060 C1059 1.392 . S
C1060 C1061 1.385 . S
C1060 C1062 1.478 . S
C1061 H1055 0.930 . S
C1061 C1057 1.400 . S
C1061 C1060 1.385 . S
C1062 C1060 1.478 . S
C1062 C1064 1.381 . S
C1062 C1068 1.383 . S
C1063 C1059 1.495 . S
C1063 H1069 0.959 . S
C1063 H1070 0.961 . S
C1063 H1071 0.960 . S
C1064 C1062 1.381 . S
C1064 C1065 1.394 . S
C1064 H1072 0.930 . S
C1065 C1064 1.394 . S
C1065 C1066 1.383 . S
C1065 H1073 0.929 . S
C1066 C1065 1.383 . S
C1066 C1067 1.377 . S
C1067 H1051 0.930 . S
C1067 C1066 1.377 . S
C1067 C1068 1.379 . S
C1068 H1052 0.931 . S
C1068 C1062 1.383 . S
C1068 C1067 1.379 . S
H1069 C1063 0.959 . S
H1070 C1063 0.961 . S
H1071 C1063 0.960 . S
H1072 C1064 0.930 . S
H1073 C1065 0.929 . S
H1074 C1082 0.929 . S
H1075 C1084 0.930 . S
H1076 C1086 0.930 . S
H1077 C1089 0.929 . S
H1078 C1092 0.930 . S
H1079 C1094 0.960 . S
H1080 C1094 0.960 . S
H1081 C1094 0.960 . S
C1082 H1074 0.929 . S
C1082 C1083 1.377 . S
C1082 C1084 1.384 . S
C1083 C1082 1.377 . S
C1083 C1089 1.390 . S
C1084 H1075 0.930 . S
C1084 C1082 1.384 . S
C1084 C1085 1.372 . S
C1085 C1084 1.372 . S
C1085 C1086 1.400 . S
C1085 C1090 1.490 . S
C1086 H1076 0.930 . S
C1086 C1085 1.400 . S
C1086 C1089 1.386 . S
H1087 C1103 0.930 . S
H1088 C1104 0.931 . S
C1089 H1077 0.929 . S
C1089 C1083 1.390 . S
C1089 C1086 1.386 . S
C1090 C1085 1.490 . S
C1090 C1092 1.395 . S
C1090 C1093 1.403 . S
H1091 C1097 0.930 . S
C1092 H1078 0.930 . S
C1092 C1090 1.395 . S
C1092 C1095 1.403 . S
C1093 C1090 1.403 . S
C1093 C1094 1.524 . S
C1093 C1097 1.400 . S
C1094 H1079 0.960 . S
C1094 H1080 0.960 . S
C1094 H1081 0.960 . S
C1094 C1093 1.524 . S
C1095 C1092 1.403 . S
C1095 C1096 1.392 . S
C1095 C1099 1.495 . S
C1096 C1095 1.392 . S
C1096 C1097 1.385 . S
C1096 C1098 1.478 . S
C1097 H1091 0.930 . S
C1097 C1093 1.400 . S
C1097 C1096 1.385 . S
C1098 C1096 1.478 . S
C1098 C1100 1.381 . S
C1098 C1104 1.383 . S
C1099 C1095 1.495 . S
C1099 H1105 0.959 . S
C1099 H1106 0.961 . S
C1099 H1107 0.960 . S
C1100 C1098 1.381 . S
C1100 C1101 1.394 . S
C1100 H1108 0.930 . S
C1101 C1100 1.394 . S
C1101 C1102 1.383 . S
C1101 H1109 0.929 . S
C1102 C1101 1.383 . S
C1102 C1103 1.377 . S
C1103 H1087 0.930 . S
C1103 C1102 1.377 . S
C1103 C1104 1.379 . S
C1104 H1088 0.931 . S
C1104 C1098 1.383 . S
C1104 C1103 1.379 . S
H1105 C1099 0.959 . S
H1106 C1099 0.961 . S
H1107 C1099 0.960 . S
H1108 C1100 0.930 . S
H1109 C1101 0.929 . S
H1110 C1118 0.929 . S
H1111 C1120 0.930 . S
H1112 C1122 0.930 . S
H1113 C1125 0.929 . S
H1114 C1128 0.930 . S
H1115 C1130 0.960 . S
H1116 C1130 0.960 . S
H1117 C1130 0.960 . S
C1118 H1110 0.929 . S
C1118 C1119 1.377 . S
C1118 C1120 1.384 . S
C1119 C1118 1.377 . S
C1119 C1125 1.390 . S
C1120 H1111 0.930 . S
C1120 C1118 1.384 . S
C1120 C1121 1.372 . S
C1121 C1120 1.372 . S
C1121 C1122 1.400 . S
C1121 C1126 1.490 . S
C1122 H1112 0.930 . S
C1122 C1121 1.400 . S
C1122 C1125 1.386 . S
H1123 C1139 0.930 . S
H1124 C1140 0.931 . S
C1125 H1113 0.929 . S
C1125 C1119 1.390 . S
C1125 C1122 1.386 . S
C1126 C1121 1.490 . S
C1126 C1128 1.395 . S
C1126 C1129 1.403 . S
H1127 C1133 0.930 . S
C1128 H1114 0.930 . S
C1128 C1126 1.395 . S
C1128 C1131 1.403 . S
C1129 C1126 1.403 . S
C1129 C1130 1.524 . S
C1129 C1133 1.400 . S
C1130 H1115 0.960 . S
C1130 H1116 0.960 . S
C1130 H1117 0.960 . S
C1130 C1129 1.524 . S
C1131 C1128 1.403 . S
C1131 C1132 1.392 . S
C1131 C1135 1.495 . S
C1132 C1131 1.392 . S
C1132 C1133 1.385 . S
C1132 C1134 1.478 . S
C1133 H1127 0.930 . S
C1133 C1129 1.400 . S
C1133 C1132 1.385 . S
C1134 C1132 1.478 . S
C1134 C1136 1.381 . S
C1134 C1140 1.383 . S
C1135 C1131 1.495 . S
C1135 H1141 0.959 . S
C1135 H1142 0.961 . S
C1135 H1143 0.960 . S
C1136 C1134 1.381 . S
C1136 C1137 1.394 . S
C1136 H1144 0.930 . S
C1137 C1136 1.394 . S
C1137 C1138 1.383 . S
C1137 H1145 0.929 . S
C1138 C1137 1.383 . S
C1138 C1139 1.377 . S
C1139 H1123 0.930 . S
C1139 C1138 1.377 . S
C1139 C1140 1.379 . S
C1140 H1124 0.931 . S
C1140 C1134 1.383 . S
C1140 C1139 1.379 . S
H1141 C1135 0.959 . S
H1142 C1135 0.961 . S
H1143 C1135 0.960 . S
H1144 C1136 0.930 . S
H1145 C1137 0.929 . S
H1146 C1154 0.929 . S
H1147 C1156 0.930 . S
H1148 C1158 0.930 . S
H1149 C1161 0.929 . S
H1150 C1164 0.930 . S
H1151 C1166 0.960 . S
H1152 C1166 0.960 . S
H1153 C1166 0.960 . S
C1154 H1146 0.929 . S
C1154 C1155 1.377 . S
C1154 C1156 1.384 . S
C1155 C1154 1.377 . S
C1155 C1161 1.390 . S
C1156 H1147 0.930 . S
C1156 C1154 1.384 . S
C1156 C1157 1.372 . S
C1157 C1156 1.372 . S
C1157 C1158 1.400 . S
C1157 C1162 1.490 . S
C1158 H1148 0.930 . S
C1158 C1157 1.400 . S
C1158 C1161 1.386 . S
H1159 C1175 0.930 . S
H1160 C1176 0.931 . S
C1161 H1149 0.929 . S
C1161 C1155 1.390 . S
C1161 C1158 1.386 . S
C1162 C1157 1.490 . S
C1162 C1164 1.395 . S
C1162 C1165 1.403 . S
H1163 C1169 0.930 . S
C1164 H1150 0.930 . S
C1164 C1162 1.395 . S
C1164 C1167 1.403 . S
C1165 C1162 1.403 . S
C1165 C1166 1.524 . S
C1165 C1169 1.400 . S
C1166 H1151 0.960 . S
C1166 H1152 0.960 . S
C1166 H1153 0.960 . S
C1166 C1165 1.524 . S
C1167 C1164 1.403 . S
C1167 C1168 1.392 . S
C1167 C1171 1.495 . S
C1168 C1167 1.392 . S
C1168 C1169 1.385 . S
C1168 C1170 1.478 . S
C1169 H1163 0.930 . S
C1169 C1165 1.400 . S
C1169 C1168 1.385 . S
C1170 C1168 1.478 . S
C1170 C1172 1.381 . S
C1170 C1176 1.383 . S
C1171 C1167 1.495 . S
C1171 H1177 0.959 . S
C1171 H1178 0.961 . S
C1171 H1179 0.960 . S
C1172 C1170 1.381 . S
C1172 C1173 1.394 . S
C1172 H1180 0.930 . S
C1173 C1172 1.394 . S
C1173 C1174 1.383 . S
C1173 H1181 0.929 . S
C1174 C1173 1.383 . S
C1174 C1175 1.377 . S
C1175 H1159 0.930 . S
C1175 C1174 1.377 . S
C1175 C1176 1.379 . S
C1176 H1160 0.931 . S
C1176 C1170 1.383 . S
C1176 C1175 1.379 . S
H1177 C1171 0.959 . S
H1178 C1171 0.961 . S
H1179 C1171 0.960 . S
H1180 C1172 0.930 . S
H1181 C1173 0.929 . S
H1182 C1190 0.929 . S
H1183 C1192 0.930 . S
H1184 C1194 0.930 . S
H1185 C1197 0.929 . S
H1186 C1200 0.930 . S
H1187 C1202 0.960 . S
H1188 C1202 0.960 . S
H1189 C1202 0.960 . S
C1190 H1182 0.929 . S
C1190 C1191 1.377 . S
C1190 C1192 1.384 . S
C1191 C1190 1.377 . S
C1191 C1197 1.390 . S
C1192 H1183 0.930 . S
C1192 C1190 1.384 . S
C1192 C1193 1.372 . S
C1193 C1192 1.372 . S
C1193 C1194 1.400 . S
C1193 C1198 1.490 . S
C1194 H1184 0.930 . S
C1194 C1193 1.400 . S
C1194 C1197 1.386 . S
H1195 C1211 0.930 . S
H1196 C1212 0.931 . S
C1197 H1185 0.929 . S
C1197 C1191 1.390 . S
C1197 C1194 1.386 . S
C1198 C1193 1.490 . S
C1198 C1200 1.395 . S
C1198 C1201 1.403 . S
H1199 C1205 0.930 . S
C1200 H1186 0.930 . S
C1200 C1198 1.395 . S
C1200 C1203 1.403 . S
C1201 C1198 1.403 . S
C1201 C1202 1.524 . S
C1201 C1205 1.400 . S
C1202 H1187 0.960 . S
C1202 H1188 0.960 . S
C1202 H1189 0.960 . S
C1202 C1201 1.524 . S
C1203 C1200 1.403 . S
C1203 C1204 1.392 . S
C1203 C1207 1.495 . S
C1204 C1203 1.392 . S
C1204 C1205 1.385 . S
C1204 C1206 1.478 . S
C1205 H1199 0.930 . S
C1205 C1201 1.400 . S
C1205 C1204 1.385 . S
C1206 C1204 1.478 . S
C1206 C1208 1.381 . S
C1206 C1212 1.383 . S
C1207 C1203 1.495 . S
C1207 H1213 0.959 . S
C1207 H1214 0.961 . S
C1207 H1215 0.960 . S
C1208 C1206 1.381 . S
C1208 C1209 1.394 . S
C1208 H1216 0.930 . S
C1209 C1208 1.394 . S
C1209 C1210 1.383 . S
C1209 H1217 0.929 . S
C1210 C1209 1.383 . S
C1210 C1211 1.377 . S
C1211 H1195 0.930 . S
C1211 C1210 1.377 . S
C1211 C1212 1.379 . S
C1212 H1196 0.931 . S
C1212 C1206 1.383 . S
C1212 C1211 1.379 . S
H1213 C1207 0.959 . S
H1214 C1207 0.961 . S
H1215 C1207 0.960 . S
H1216 C1208 0.930 . S
H1217 C1209 0.929 . S
H1218 C1226 0.929 . S
H1219 C1228 0.930 . S
H1220 C1230 0.930 . S
H1221 C1233 0.929 . S
H1222 C1236 0.930 . S
H1223 C1238 0.960 . S
H1224 C1238 0.960 . S
H1225 C1238 0.960 . S
C1226 H1218 0.929 . S
C1226 C1227 1.377 . S
C1226 C1228 1.384 . S
C1227 C1226 1.377 . S
C1227 C1233 1.390 . S
C1228 H1219 0.930 . S
C1228 C1226 1.384 . S
C1228 C1229 1.372 . S
C1229 C1228 1.372 . S
C1229 C1230 1.400 . S
C1229 C1234 1.490 . S
C1230 H1220 0.930 . S
C1230 C1229 1.400 . S
C1230 C1233 1.386 . S
H1231 C1247 0.930 . S
H1232 C1248 0.931 . S
C1233 H1221 0.929 . S
C1233 C1227 1.390 . S
C1233 C1230 1.386 . S
C1234 C1229 1.490 . S
C1234 C1236 1.395 . S
C1234 C1237 1.403 . S
H1235 C1241 0.930 . S
C1236 H1222 0.930 . S
C1236 C1234 1.395 . S
C1236 C1239 1.403 . S
C1237 C1234 1.403 . S
C1237 C1238 1.524 . S
C1237 C1241 1.400 . S
C1238 H1223 0.960 . S
C1238 H1224 0.960 . S
C1238 H1225 0.960 . S
C1238 C1237 1.524 . S
C1239 C1236 1.403 . S
C1239 C1240 1.392 . S
C1239 C1243 1.495 . S
C1240 C1239 1.392 . S
C1240 C1241 1.385 . S
C1240 C1242 1.478 . S
C1241 H1235 0.930 . S
C1241 C1237 1.400 . S
C1241 C1240 1.385 . S
C1242 C1240 1.478 . S
C1242 C1244 1.381 . S
C1242 C1248 1.383 . S
C1243 C1239 1.495 . S
C1243 H1249 0.959 . S
C1243 H1250 0.961 . S
C1243 H1251 0.960 . S
C1244 C1242 1.381 . S
C1244 C1245 1.394 . S
C1244 H1252 0.930 . S
C1245 C1244 1.394 . S
C1245 C1246 1.383 . S
C1245 H1253 0.929 . S
C1246 C1245 1.383 . S
C1246 C1247 1.377 . S
C1247 H1231 0.930 . S
C1247 C1246 1.377 . S
C1247 C1248 1.379 . S
C1248 H1232 0.931 . S
C1248 C1242 1.383 . S
C1248 C1247 1.379 . S
H1249 C1243 0.959 . S
H1250 C1243 0.961 . S
H1251 C1243 0.960 . S
H1252 C1244 0.930 . S
H1253 C1245 0.929 . S
H1254 C1262 0.929 . S
H1255 C1264 0.930 . S
H1256 C1266 0.930 . S
H1257 C1269 0.929 . S
H1258 C1272 0.930 . S
H1259 C1274 0.960 . S
H1260 C1274 0.960 . S
H1261 C1274 0.960 . S
C1262 H1254 0.929 . S
C1262 C1263 1.377 . S
C1262 C1264 1.384 . S
C1263 C1262 1.377 . S
C1263 C1269 1.390 . S
C1264 H1255 0.930 . S
C1264 C1262 1.384 . S
C1264 C1265 1.372 . S
C1265 C1264 1.372 . S
C1265 C1266 1.400 . S
C1265 C1270 1.490 . S
C1266 H1256 0.930 . S
C1266 C1265 1.400 . S
C1266 C1269 1.386 . S
H1267 C1283 0.930 . S
H1268 C1284 0.931 . S
C1269 H1257 0.929 . S
C1269 C1263 1.390 . S
C1269 C1266 1.386 . S
C1270 C1265 1.490 . S
C1270 C1272 1.395 . S
C1270 C1273 1.403 . S
H1271 C1277 0.930 . S
C1272 H1258 0.930 . S
C1272 C1270 1.395 . S
C1272 C1275 1.403 . S
C1273 C1270 1.403 . S
C1273 C1274 1.524 . S
C1273 C1277 1.400 . S
C1274 H1259 0.960 . S
C1274 H1260 0.960 . S
C1274 H1261 0.960 . S
C1274 C1273 1.524 . S
C1275 C1272 1.403 . S
C1275 C1276 1.392 . S
C1275 C1279 1.495 . S
C1276 C1275 1.392 . S
C1276 C1277 1.385 . S
C1276 C1278 1.478 . S
C1277 H1271 0.930 . S
C1277 C1273 1.400 . S
C1277 C1276 1.385 . S
C1278 C1276 1.478 . S
C1278 C1280 1.381 . S
C1278 C1284 1.383 . S
C1279 C1275 1.495 . S
C1279 H1285 0.959 . S
C1279 H1286 0.961 . S
C1279 H1287 0.960 . S
C1280 C1278 1.381 . S
C1280 C1281 1.394 . S
C1280 H1288 0.930 . S
C1281 C1280 1.394 . S
C1281 C1282 1.383 . S
C1281 H1289 0.929 . S
C1282 C1281 1.383 . S
C1282 C1283 1.377 . S
C1283 H1267 0.930 . S
C1283 C1282 1.377 . S
C1283 C1284 1.379 . S
C1284 H1268 0.931 . S
C1284 C1278 1.383 . S
C1284 C1283 1.379 . S
H1285 C1279 0.959 . S
H1286 C1279 0.961 . S
H1287 C1279 0.960 . S
H1288 C1280 0.930 . S
H1289 C1281 0.929 . S
H1290 C1298 0.929 . S
H1291 C1300 0.930 . S
H1292 C1302 0.930 . S
H1293 C1305 0.929 . S
H1294 C1308 0.930 . S
H1295 C1310 0.960 . S
H1296 C1310 0.960 . S
H1297 C1310 0.960 . S
C1298 H1290 0.929 . S
C1298 C1299 1.377 . S
C1298 C1300 1.384 . S
C1299 C1298 1.377 . S
C1299 C1305 1.390 . S
C1300 H1291 0.930 . S
C1300 C1298 1.384 . S
C1300 C1301 1.372 . S
C1301 C1300 1.372 . S
C1301 C1302 1.400 . S
C1301 C1306 1.490 . S
C1302 H1292 0.930 . S
C1302 C1301 1.400 . S
C1302 C1305 1.386 . S
H1303 C1319 0.930 . S
H1304 C1320 0.931 . S
C1305 H1293 0.929 . S
C1305 C1299 1.390 . S
C1305 C1302 1.386 . S
C1306 C1301 1.490 . S
C1306 C1308 1.395 . S
C1306 C1309 1.403 . S
H1307 C1313 0.930 . S
C1308 H1294 0.930 . S
C1308 C1306 1.395 . S
C1308 C1311 1.403 . S
C1309 C1306 1.403 . S
C1309 C1310 1.524 . S
C1309 C1313 1.400 . S
C1310 H1295 0.960 . S
C1310 H1296 0.960 . S
C1310 H1297 0.960 . S
C1310 C1309 1.524 . S
C1311 C1308 1.403 . S
C1311 C1312 1.392 . S
C1311 C1315 1.495 . S
C1312 C1311 1.392 . S
C1312 C1313 1.385 . S
C1312 C1314 1.478 . S
C1313 H1307 0.930 . S
C1313 C1309 1.400 . S
C1313 C1312 1.385 . S
C1314 C1312 1.478 . S
C1314 C1316 1.381 . S
C1314 C1320 1.383 . S
C1315 C1311 1.495 . S
C1315 H1321 0.959 . S
C1315 H1322 0.961 . S
C1315 H1323 0.960 . S
C1316 C1314 1.381 . S
C1316 C1317 1.394 . S
C1316 H1324 0.930 . S
C1317 C1316 1.394 . S
C1317 C1318 1.383 . S
C1317 H1325 0.929 . S
C1318 C1317 1.383 . S
C1318 C1319 1.377 . S
C1319 H1303 0.930 . S
C1319 C1318 1.377 . S
C1319 C1320 1.379 . S
C1320 H1304 0.931 . S
C1320 C1314 1.383 . S
C1320 C1319 1.379 . S
H1321 C1315 0.959 . S
H1322 C1315 0.961 . S
H1323 C1315 0.960 . S
H1324 C1316 0.930 . S
H1325 C1317 0.929 . S
H1326 C1334 0.929 . S
H1327 C1336 0.930 . S
H1328 C1338 0.930 . S
H1329 C1341 0.929 . S
H1330 C1344 0.930 . S
H1331 C1346 0.960 . S
H1332 C1346 0.960 . S
H1333 C1346 0.960 . S
C1334 H1326 0.929 . S
C1334 C1335 1.377 . S
C1334 C1336 1.384 . S
C1335 C1334 1.377 . S
C1335 C1341 1.390 . S
C1336 H1327 0.930 . S
C1336 C1334 1.384 . S
C1336 C1337 1.372 . S
C1337 C1336 1.372 . S
C1337 C1338 1.400 . S
C1337 C1342 1.490 . S
C1338 H1328 0.930 . S
C1338 C1337 1.400 . S
C1338 C1341 1.386 . S
H1339 C1355 0.930 . S
H1340 C1356 0.931 . S
C1341 H1329 0.929 . S
C1341 C1335 1.390 . S
C1341 C1338 1.386 . S
C1342 C1337 1.490 . S
C1342 C1344 1.395 . S
C1342 C1345 1.403 . S
H1343 C1349 0.930 . S
C1344 H1330 0.930 . S
C1344 C1342 1.395 . S
C1344 C1347 1.403 . S
C1345 C1342 1.403 . S
C1345 C1346 1.524 . S
C1345 C1349 1.400 . S
C1346 H1331 0.960 . S
C1346 H1332 0.960 . S
C1346 H1333 0.960 . S
C1346 C1345 1.524 . S
C1347 C1344 1.403 . S
C1347 C1348 1.392 . S
C1347 C1351 1.495 . S
C1348 C1347 1.392 . S
C1348 C1349 1.385 . S
C1348 C1350 1.478 . S
C1349 H1343 0.930 . S
C1349 C1345 1.400 . S
C1349 C1348 1.385 . S
C1350 C1348 1.478 . S
C1350 C1352 1.381 . S
C1350 C1356 1.383 . S
C1351 C1347 1.495 . S
C1351 H1357 0.959 . S
C1351 H1358 0.961 . S
C1351 H1359 0.960 . S
C1352 C1350 1.381 . S
C1352 C1353 1.394 . S
C1352 H1360 0.930 . S
C1353 C1352 1.394 . S
C1353 C1354 1.383 . S
C1353 H1361 0.929 . S
C1354 C1353 1.383 . S
C1354 C1355 1.377 . S
C1355 H1339 0.930 . S
C1355 C1354 1.377 . S
C1355 C1356 1.379 . S
C1356 H1340 0.931 . S
C1356 C1350 1.383 . S
C1356 C1355 1.379 . S
H1357 C1351 0.959 . S
H1358 C1351 0.961 . S
H1359 C1351 0.960 . S
H1360 C1352 0.930 . S
H1361 C1353 0.929 . S
H1362 C1370 0.929 . S
H1363 C1372 0.930 . S
H1364 C1374 0.930 . S
H1365 C1377 0.929 . S
H1366 C1380 0.930 . S
H1367 C1382 0.960 . S
H1368 C1382 0.960 . S
H1369 C1382 0.960 . S
C1370 H1362 0.929 . S
C1370 C1371 1.377 . S
C1370 C1372 1.384 . S
C1371 C1370 1.377 . S
C1371 C1377 1.390 . S
C1372 H1363 0.930 . S
C1372 C1370 1.384 . S
C1372 C1373 1.372 . S
C1373 C1372 1.372 . S
C1373 C1374 1.400 . S
C1373 C1378 1.490 . S
C1374 H1364 0.930 . S
C1374 C1373 1.400 . S
C1374 C1377 1.386 . S
H1375 C1391 0.930 . S
H1376 C1392 0.931 . S
C1377 H1365 0.929 . S
C1377 C1371 1.390 . S
C1377 C1374 1.386 . S
C1378 C1373 1.490 . S
C1378 C1380 1.395 . S
C1378 C1381 1.403 . S
H1379 C1385 0.930 . S
C1380 H1366 0.930 . S
C1380 C1378 1.395 . S
C1380 C1383 1.403 . S
C1381 C1378 1.403 . S
C1381 C1382 1.524 . S
C1381 C1385 1.400 . S
C1382 H1367 0.960 . S
C1382 H1368 0.960 . S
C1382 H1369 0.960 . S
C1382 C1381 1.524 . S
C1383 C1380 1.403 . S
C1383 C1384 1.392 . S
C1383 C1387 1.495 . S
C1384 C1383 1.392 . S
C1384 C1385 1.385 . S
C1384 C1386 1.478 . S
C1385 H1379 0.930 . S
C1385 C1381 1.400 . S
C1385 C1384 1.385 . S
C1386 C1384 1.478 . S
C1386 C1388 1.381 . S
C1386 C1392 1.383 . S
C1387 C1383 1.495 . S
C1387 H1393 0.959 . S
C1387 H1394 0.961 . S
C1387 H1395 0.960 . S
C1388 C1386 1.381 . S
C1388 C1389 1.394 . S
C1388 H1396 0.930 . S
C1389 C1388 1.394 . S
C1389 C1390 1.383 . S
C1389 H1397 0.929 . S
C1390 C1389 1.383 . S
C1390 C1391 1.377 . S
C1391 H1375 0.930 . S
C1391 C1390 1.377 . S
C1391 C1392 1.379 . S
C1392 H1376 0.931 . S
C1392 C1386 1.383 . S
C1392 C1391 1.379 . S
H1393 C1387 0.959 . S
H1394 C1387 0.961 . S
H1395 C1387 0.960 . S
H1396 C1388 0.930 . S
H1397 C1389 0.929 . S
H1398 C1406 0.929 . S
H1399 C1408 0.930 . S
H1400 C1410 0.930 . S
H1401 C1413 0.929 . S
H1402 C1416 0.930 . S
H1403 C1418 0.960 . S
H1404 C1418 0.960 . S
H1405 C1418 0.960 . S
C1406 H1398 0.929 . S
C1406 C1407 1.377 . S
C1406 C1408 1.384 . S
C1407 C1406 1.377 . S
C1407 C1413 1.390 . S
C1408 H1399 0.930 . S
C1408 C1406 1.384 . S
C1408 C1409 1.372 . S
C1409 C1408 1.372 . S
C1409 C1410 1.400 . S
C1409 C1414 1.490 . S
C1410 H1400 0.930 . S
C1410 C1409 1.400 . S
C1410 C1413 1.386 . S
H1411 C1427 0.930 . S
H1412 C1428 0.931 . S
C1413 H1401 0.929 . S
C1413 C1407 1.390 . S
C1413 C1410 1.386 . S
C1414 C1409 1.490 . S
C1414 C1416 1.395 . S
C1414 C1417 1.403 . S
H1415 C1421 0.930 . S
C1416 H1402 0.930 . S
C1416 C1414 1.395 . S
C1416 C1419 1.403 . S
C1417 C1414 1.403 . S
C1417 C1418 1.524 . S
C1417 C1421 1.400 . S
C1418 H1403 0.960 . S
C1418 H1404 0.960 . S
C1418 H1405 0.960 . S
C1418 C1417 1.524 . S
C1419 C1416 1.403 . S
C1419 C1420 1.392 . S
C1419 C1423 1.495 . S
C1420 C1419 1.392 . S
C1420 C1421 1.385 . S
C1420 C1422 1.478 . S
C1421 H1415 0.930 . S
C1421 C1417 1.400 . S
C1421 C1420 1.385 . S
C1422 C1420 1.478 . S
C1422 C1424 1.381 . S
C1422 C1428 1.383 . S
C1423 C1419 1.495 . S
C1423 H1429 0.959 . S
C1423 H1430 0.961 . S
C1423 H1431 0.960 . S
C1424 C1422 1.381 . S
C1424 C1425 1.394 . S
C1424 H1432 0.930 . S
C1425 C1424 1.394 . S
C1425 C1426 1.383 . S
C1425 H1433 0.929 . S
C1426 C1425 1.383 . S
C1426 C1427 1.377 . S
C1427 H1411 0.930 . S
C1427 C1426 1.377 . S
C1427 C1428 1.379 . S
C1428 H1412 0.931 . S
C1428 C1422 1.383 . S
C1428 C1427 1.379 . S
H1429 C1423 0.959 . S
H1430 C1423 0.961 . S
H1431 C1423 0.960 . S
H1432 C1424 0.930 . S
H1433 C1425 0.929 . S
H1434 C1442 0.929 . S
H1435 C1444 0.930 . S
H1436 C1446 0.930 . S
H1437 C1449 0.929 . S
H1438 C1452 0.930 . S
H1439 C1454 0.960 . S
H1440 C1454 0.960 . S
H1441 C1454 0.960 . S
C1442 H1434 0.929 . S
C1442 C1443 1.377 . S
C1442 C1444 1.384 . S
C1443 C1442 1.377 . S
C1443 C1449 1.390 . S
C1444 H1435 0.930 . S
C1444 C1442 1.384 . S
C1444 C1445 1.372 . S
C1445 C1444 1.372 . S
C1445 C1446 1.400 . S
C1445 C1450 1.490 . S
C1446 H1436 0.930 . S
C1446 C1445 1.400 . S
C1446 C1449 1.386 . S
H1447 C1463 0.930 . S
H1448 C1464 0.931 . S
C1449 H1437 0.929 . S
C1449 C1443 1.390 . S
C1449 C1446 1.386 . S
C1450 C1445 1.490 . S
C1450 C1452 1.395 . S
C1450 C1453 1.403 . S
H1451 C1457 0.930 . S
C1452 H1438 0.930 . S
C1452 C1450 1.395 . S
C1452 C1455 1.403 . S
C1453 C1450 1.403 . S
C1453 C1454 1.524 . S
C1453 C1457 1.400 . S
C1454 H1439 0.960 . S
C1454 H1440 0.960 . S
C1454 H1441 0.960 . S
C1454 C1453 1.524 . S
C1455 C1452 1.403 . S
C1455 C1456 1.392 . S
C1455 C1459 1.495 . S
C1456 C1455 1.392 . S
C1456 C1457 1.385 . S
C1456 C1458 1.478 . S
C1457 H1451 0.930 . S
C1457 C1453 1.400 . S
C1457 C1456 1.385 . S
C1458 C1456 1.478 . S
C1458 C1460 1.381 . S
C1458 C1464 1.383 . S
C1459 C1455 1.495 . S
C1459 H1465 0.959 . S
C1459 H1466 0.961 . S
C1459 H1467 0.960 . S
C1460 C1458 1.381 . S
C1460 C1461 1.394 . S
C1460 H1468 0.930 . S
C1461 C1460 1.394 . S
C1461 C1462 1.383 . S
C1461 H1469 0.929 . S
C1462 C1461 1.383 . S
C1462 C1463 1.377 . S
C1463 H1447 0.930 . S
C1463 C1462 1.377 . S
C1463 C1464 1.379 . S
C1464 H1448 0.931 . S
C1464 C1458 1.383 . S
C1464 C1463 1.379 . S
H1465 C1459 0.959 . S
H1466 C1459 0.961 . S
H1467 C1459 0.960 . S
H1468 C1460 0.930 . S
H1469 C1461 0.929 . S
C634 C310 1.560 . S
C615 C25 1.562 . S
C670 C379 1.536 . S
C651 C37 1.552 . S
C706 C317 1.570 . S
C687 C103 1.567 . S
C742 C380 1.558 . S
C723 C139 1.559 . S
C778 C433 1.545 . S
C759 C31 1.549 . S
C814 C469 1.521 . S
C795 C67 1.526 . S
C831 C97 1.559 . S
C850 C529 1.557 . S
C886 C592 1.513 . S
C867 C133 1.517 . S
C922 C432 1.527 . S
C903 C61 1.545 . S
C939 C73 1.526 . S
C958 C476 1.532 . S
C994 C522 1.562 . S
C975 C109 1.563 . S
C1030 C591 1.512 . S
C1011 C1 1.523 . S
C1047 C169 1.555 . S
C1066 C370 1.560 . S
C1102 C327 1.553 . S
C1083 C211 1.555 . S
C1119 C241 1.552 . S
C1138 C363 1.535 . S
C1155 C253 1.549 . S
C1174 C326 1.546 . S
C1210 C538 1.569 . S
C1191 C175 1.557 . S
C1246 C582 1.520 . S
C1227 C205 1.515 . S
C1282 C416 1.532 . S
C1263 C217 1.548 . S
C1299 C283 1.524 . S
C1318 C485 1.526 . S
C1354 C539 1.567 . S
C1335 C181 1.558 . S
C1390 C575 1.522 . S
C1371 C247 1.526 . S
C1426 C423 1.540 . S
C1407 C277 1.545 . S
C1443 C145 1.526 . S
C1462 C486 1.536 . S
