# Generated by pormake.
# Topology eea, (3,6)-cn, num edge types: 1
# Building blocks:
#     Node 0, Type 0, BuildingBlock: BETDAH_clean_linker_0, # of connection points: 3
#     Node 1, Type 0, BuildingBlock: BETDAH_clean_linker_0, # of connection points: 3
#     Node 2, Type 0, BuildingBlock: BETDAH_clean_linker_0, # of connection points: 3
#     Node 3, Type 0, BuildingBlock: BETDAH_clean_linker_0, # of connection points: 3
#     Node 4, Type 0, BuildingBlock: BETDAH_clean_linker_0, # of connection points: 3
#     Node 5, Type 0, BuildingBlock: BETDAH_clean_linker_0, # of connection points: 3
#     Node 6, Type 0, BuildingBlock: BETDAH_clean_linker_0, # of connection points: 3
#     Node 7, Type 0, BuildingBlock: BETDAH_clean_linker_0, # of connection points: 3
#     Node 8, Type 0, BuildingBlock: BETDAH_clean_linker_0, # of connection points: 3
#     Node 9, Type 0, BuildingBlock: BETDAH_clean_linker_0, # of connection points: 3
#     Node 10, Type 0, BuildingBlock: BETDAH_clean_linker_0, # of connection points: 3
#     Node 11, Type 0, BuildingBlock: BETDAH_clean_linker_0, # of connection points: 3
#     Node 12, Type 0, BuildingBlock: BETDAH_clean_linker_0, # of connection points: 3
#     Node 13, Type 0, BuildingBlock: BETDAH_clean_linker_0, # of connection points: 3
#     Node 14, Type 0, BuildingBlock: BETDAH_clean_linker_0, # of connection points: 3
#     Node 15, Type 0, BuildingBlock: BETDAH_clean_linker_0, # of connection points: 3
#     Node 16, Type 0, BuildingBlock: BETDAH_clean_linker_0, # of connection points: 3
#     Node 17, Type 0, BuildingBlock: BETDAH_clean_linker_0, # of connection points: 3
#     Node 18, Type 1, BuildingBlock: KUMBOL_clean_sbu_0, # of connection points: 6
#     Node 19, Type 1, BuildingBlock: KUMBOL_clean_sbu_0, # of connection points: 6
#     Node 20, Type 1, BuildingBlock: KUMBOL_clean_sbu_0, # of connection points: 6
#     Node 21, Type 1, BuildingBlock: KUMBOL_clean_sbu_0, # of connection points: 6
#     Node 22, Type 1, BuildingBlock: KUMBOL_clean_sbu_0, # of connection points: 6
#     Node 23, Type 1, BuildingBlock: KUMBOL_clean_sbu_0, # of connection points: 6
#     Node 24, Type 1, BuildingBlock: KUMBOL_clean_sbu_0, # of connection points: 6
#     Node 25, Type 1, BuildingBlock: KUMBOL_clean_sbu_0, # of connection points: 6
#     Node 26, Type 1, BuildingBlock: KUMBOL_clean_sbu_0, # of connection points: 6
#     Edge 27, Type (0, 1), BuildingBlock: KIFKEQ_clean_linker_1, # of connection points: 2
#     Edge 28, Type (0, 1), BuildingBlock: KIFKEQ_clean_linker_1, # of connection points: 2
#     Edge 29, Type (0, 1), BuildingBlock: KIFKEQ_clean_linker_1, # of connection points: 2
#     Edge 30, Type (0, 1), BuildingBlock: KIFKEQ_clean_linker_1, # of connection points: 2
#     Edge 31, Type (0, 1), BuildingBlock: KIFKEQ_clean_linker_1, # of connection points: 2
#     Edge 32, Type (0, 1), BuildingBlock: KIFKEQ_clean_linker_1, # of connection points: 2
#     Edge 33, Type (0, 1), BuildingBlock: KIFKEQ_clean_linker_1, # of connection points: 2
#     Edge 34, Type (0, 1), BuildingBlock: KIFKEQ_clean_linker_1, # of connection points: 2
#     Edge 35, Type (0, 1), BuildingBlock: KIFKEQ_clean_linker_1, # of connection points: 2
#     Edge 36, Type (0, 1), BuildingBlock: KIFKEQ_clean_linker_1, # of connection points: 2
#     Edge 37, Type (0, 1), BuildingBlock: KIFKEQ_clean_linker_1, # of connection points: 2
#     Edge 38, Type (0, 1), BuildingBlock: KIFKEQ_clean_linker_1, # of connection points: 2
#     Edge 39, Type (0, 1), BuildingBlock: KIFKEQ_clean_linker_1, # of connection points: 2
#     Edge 40, Type (0, 1), BuildingBlock: KIFKEQ_clean_linker_1, # of connection points: 2
#     Edge 41, Type (0, 1), BuildingBlock: KIFKEQ_clean_linker_1, # of connection points: 2
#     Edge 42, Type (0, 1), BuildingBlock: KIFKEQ_clean_linker_1, # of connection points: 2
#     Edge 43, Type (0, 1), BuildingBlock: KIFKEQ_clean_linker_1, # of connection points: 2
#     Edge 44, Type (0, 1), BuildingBlock: KIFKEQ_clean_linker_1, # of connection points: 2
#     Edge 45, Type (0, 1), BuildingBlock: KIFKEQ_clean_linker_1, # of connection points: 2
#     Edge 46, Type (0, 1), BuildingBlock: KIFKEQ_clean_linker_1, # of connection points: 2
#     Edge 47, Type (0, 1), BuildingBlock: KIFKEQ_clean_linker_1, # of connection points: 2
#     Edge 48, Type (0, 1), BuildingBlock: KIFKEQ_clean_linker_1, # of connection points: 2
#     Edge 49, Type (0, 1), BuildingBlock: KIFKEQ_clean_linker_1, # of connection points: 2
#     Edge 50, Type (0, 1), BuildingBlock: KIFKEQ_clean_linker_1, # of connection points: 2
#     Edge 51, Type (0, 1), BuildingBlock: KIFKEQ_clean_linker_1, # of connection points: 2
#     Edge 52, Type (0, 1), BuildingBlock: KIFKEQ_clean_linker_1, # of connection points: 2
#     Edge 53, Type (0, 1), BuildingBlock: KIFKEQ_clean_linker_1, # of connection points: 2
#     Edge 54, Type (0, 1), BuildingBlock: KIFKEQ_clean_linker_1, # of connection points: 2
#     Edge 55, Type (0, 1), BuildingBlock: KIFKEQ_clean_linker_1, # of connection points: 2
#     Edge 56, Type (0, 1), BuildingBlock: KIFKEQ_clean_linker_1, # of connection points: 2
#     Edge 57, Type (0, 1), BuildingBlock: KIFKEQ_clean_linker_1, # of connection points: 2
#     Edge 58, Type (0, 1), BuildingBlock: KIFKEQ_clean_linker_1, # of connection points: 2
#     Edge 59, Type (0, 1), BuildingBlock: KIFKEQ_clean_linker_1, # of connection points: 2
#     Edge 60, Type (0, 1), BuildingBlock: KIFKEQ_clean_linker_1, # of connection points: 2
#     Edge 61, Type (0, 1), BuildingBlock: KIFKEQ_clean_linker_1, # of connection points: 2
#     Edge 62, Type (0, 1), BuildingBlock: KIFKEQ_clean_linker_1, # of connection points: 2
#     Edge 63, Type (0, 1), BuildingBlock: KIFKEQ_clean_linker_1, # of connection points: 2
#     Edge 64, Type (0, 1), BuildingBlock: KIFKEQ_clean_linker_1, # of connection points: 2
#     Edge 65, Type (0, 1), BuildingBlock: KIFKEQ_clean_linker_1, # of connection points: 2
#     Edge 66, Type (0, 1), BuildingBlock: KIFKEQ_clean_linker_1, # of connection points: 2
#     Edge 67, Type (0, 1), BuildingBlock: KIFKEQ_clean_linker_1, # of connection points: 2
#     Edge 68, Type (0, 1), BuildingBlock: KIFKEQ_clean_linker_1, # of connection points: 2
#     Edge 69, Type (0, 1), BuildingBlock: KIFKEQ_clean_linker_1, # of connection points: 2
#     Edge 70, Type (0, 1), BuildingBlock: KIFKEQ_clean_linker_1, # of connection points: 2
#     Edge 71, Type (0, 1), BuildingBlock: KIFKEQ_clean_linker_1, # of connection points: 2
#     Edge 72, Type (0, 1), BuildingBlock: KIFKEQ_clean_linker_1, # of connection points: 2
#     Edge 73, Type (0, 1), BuildingBlock: KIFKEQ_clean_linker_1, # of connection points: 2
#     Edge 74, Type (0, 1), BuildingBlock: KIFKEQ_clean_linker_1, # of connection points: 2
#     Edge 75, Type (0, 1), BuildingBlock: KIFKEQ_clean_linker_1, # of connection points: 2
#     Edge 76, Type (0, 1), BuildingBlock: KIFKEQ_clean_linker_1, # of connection points: 2
#     Edge 77, Type (0, 1), BuildingBlock: KIFKEQ_clean_linker_1, # of connection points: 2
#     Edge 78, Type (0, 1), BuildingBlock: KIFKEQ_clean_linker_1, # of connection points: 2
#     Edge 79, Type (0, 1), BuildingBlock: KIFKEQ_clean_linker_1, # of connection points: 2
#     Edge 80, Type (0, 1), BuildingBlock: KIFKEQ_clean_linker_1, # of connection points: 2
# Relax obj value: 0.023
# Max RMSD: 0.162
# Mean RMSD: 0.118
data_MOF--net-eea--node1-KUMBOL_clean_sbu_0--node2-BETDAH_clean_linker_0--edge1-KIFKEQ_clean_linker_1
_symmetry_space_group_name_H-M    P1
_symmetry_Int_Tables_number       1
_symmetry_cell_setting            triclinic
loop_
_symmetry_equiv_pos_as_xyz
'x, y, z'
_cell_length_a     55.602054
_cell_length_b     56.936418
_cell_length_c     67.118875
_cell_angle_alpha  89.972518
_cell_angle_beta   89.962474
_cell_angle_gamma 119.95444
loop_
_atom_site_label
_atom_site_type_symbol
_atom_site_fract_x
_atom_site_fract_y
_atom_site_fract_z
_atom_type_partial_charge
H0 H 0.25167 0.07436 0.4419 0.0
H1 H 0.26432 0.15334 0.42701 0.0
H2 H 0.23198 0.09038 0.38315 0.0
C3 C 0.24968 0.08769 0.43134 0.0
C4 C 0.24031 0.07857 0.41185 0.0
C5 C 0.25835 0.11459 0.43697 0.0
C6 C 0.25708 0.13242 0.423 0.0
C7 C 0.24758 0.12344 0.40358 0.0
C8 C 0.23933 0.09678 0.3982 0.0
N9 N 0.24859 0.14124 0.38845 0.0
C10 C 0.24031 0.16039 0.39075 0.0
H11 H 0.94186 0.1834 0.43746 0.0
H12 H 0.88238 0.09806 0.43692 0.0
H13 H 0.94708 0.13131 0.39307 0.0
C14 C 0.93418 0.16363 0.43076 0.0
C15 C 0.94765 0.16062 0.41393 0.0
C16 C 0.91101 0.1411 0.43938 0.0
C17 C 0.90032 0.11542 0.43047 0.0
C18 C 0.91308 0.11221 0.41342 0.0
C19 C 0.93689 0.13458 0.40565 0.0
N20 N 0.90336 0.08677 0.40388 0.0
C21 C 0.87709 0.06409 0.406 0.0
H22 H 0.83335 0.76991 0.43817 0.0
H23 H 0.9138 0.77699 0.42998 0.0
H24 H 0.87958 0.80532 0.3846 0.0
C25 C 0.85186 0.77623 0.42925 0.0
C26 C 0.85395 0.78829 0.41061 0.0
C27 C 0.87311 0.77171 0.43635 0.0
C28 C 0.89734 0.78033 0.4247 0.0
C29 C 0.89962 0.79245 0.40588 0.0
C30 C 0.87777 0.79605 0.39904 0.0
N31 N 0.92296 0.80121 0.39298 0.0
C32 C 0.94734 0.80027 0.39591 0.0
H33 H 0.07044 0.23591 0.59834 0.0
H34 H 0.14514 0.23233 0.60928 0.0
H35 H 0.08267 0.20771 0.65476 0.0
C36 C 0.08288 0.23087 0.60794 0.0
C37 C 0.07333 0.22117 0.62732 0.0
C38 C 0.10905 0.23549 0.60131 0.0
C39 C 0.12521 0.22922 0.61422 0.0
C40 C 0.11551 0.2189 0.63346 0.0
C41 C 0.08989 0.21537 0.63985 0.0
N42 N 0.13062 0.21195 0.64712 0.0
C43 C 0.15584 0.21277 0.64392 0.0
H44 H 0.76881 0.83547 0.59661 0.0
H45 H 0.79469 0.9205 0.59498 0.0
H46 H 0.8313 0.89112 0.63721 0.0
C47 C 0.7812 0.85573 0.60262 0.0
C48 C 0.80007 0.86045 0.61815 0.0
C49 C 0.77942 0.87736 0.59399 0.0
C50 C 0.79587 0.90372 0.60157 0.0
C51 C 0.81447 0.90852 0.61723 0.0
C52 C 0.81675 0.88703 0.62517 0.0
N53 N 0.83221 0.93491 0.62473 0.0
C54 C 0.82451 0.9545 0.62696 0.0
H55 H 0.17711 0.93169 0.59982 0.0
H56 H 0.09322 0.86481 0.60443 0.0
H57 H 0.12274 0.93157 0.64539 0.0
C58 C 0.1572 0.92173 0.60737 0.0
C59 C 0.15265 0.93468 0.62353 0.0
C60 C 0.13585 0.89668 0.6002 0.0
C61 C 0.10977 0.88406 0.60983 0.0
C62 C 0.10523 0.89668 0.62634 0.0
C63 C 0.12653 0.92197 0.63278 0.0
N64 N 0.07947 0.88543 0.63664 0.0
C65 C 0.0582 0.85852 0.63642 0.0
H66 H 0.9212 0.4102 0.77478 0.0
H67 H 0.93292 0.48872 0.75948 0.0
H68 H 0.90166 0.42557 0.71577 0.0
C69 C 0.91919 0.42339 0.7641 0.0
C70 C 0.91 0.41409 0.74461 0.0
C71 C 0.92749 0.45024 0.76961 0.0
C72 C 0.92607 0.46786 0.75553 0.0
C73 C 0.9168 0.45873 0.7361 0.0
C74 C 0.90893 0.43212 0.73082 0.0
N75 N 0.91735 0.47626 0.7209 0.0
C76 C 0.90916 0.49547 0.72327 0.0
H77 H 0.61496 0.51333 0.77278 0.0
H78 H 0.53697 0.44028 0.76119 0.0
H79 H 0.59735 0.47714 0.71465 0.0
C80 C 0.601 0.49734 0.76282 0.0
C81 C 0.60919 0.4977 0.74294 0.0
C82 C 0.57471 0.47695 0.76969 0.0
C83 C 0.55736 0.45594 0.75644 0.0
C84 C 0.56572 0.45594 0.73664 0.0
C85 C 0.59125 0.47707 0.73001 0.0
N86 N 0.54874 0.43577 0.72259 0.0
C87 C 0.52658 0.41019 0.72704 0.0
H88 H 0.50422 0.1075 0.77377 0.0
H89 H 0.58318 0.11217 0.76363 0.0
H90 H 0.54448 0.13297 0.71686 0.0
C91 C 0.52159 0.11208 0.76409 0.0
C92 C 0.52157 0.1211 0.74454 0.0
C93 C 0.5435 0.10857 0.77128 0.0
C94 C 0.56611 0.11459 0.75844 0.0
C95 C 0.56648 0.12372 0.73882 0.0
C96 C 0.54419 0.12665 0.73212 0.0
N97 N 0.58817 0.12963 0.72489 0.0
C98 C 0.61378 0.13128 0.72813 0.0
H99 H 0.73711 0.56758 0.932 0.0
H100 H 0.81296 0.56673 0.94447 0.0
H101 H 0.75013 0.54285 0.98957 0.0
C102 C 0.74981 0.56335 0.94196 0.0
C103 C 0.74029 0.55435 0.96146 0.0
C104 C 0.77629 0.56844 0.93569 0.0
C105 C 0.79274 0.56318 0.94907 0.0
C106 C 0.78312 0.55368 0.96848 0.0
C107 C 0.75725 0.54981 0.97452 0.0
N108 N 0.7988 0.54847 0.98281 0.0
C109 C 0.82273 0.54683 0.97965 0.0
H110 H 0.43217 0.16714 0.9285 0.0
H111 H 0.41951 0.23288 0.9469 0.0
H112 H 0.45194 0.19817 0.98819 0.0
C113 C 0.43366 0.18158 0.93964 0.0
C114 C 0.44395 0.18109 0.95865 0.0
C115 C 0.42474 0.20023 0.93516 0.0
C116 C 0.42644 0.21853 0.95001 0.0
C117 C 0.43625 0.21766 0.96914 0.0
C118 C 0.44483 0.19897 0.97329 0.0
N119 N 0.43609 0.23395 0.985 0.0
C120 C 0.44154 0.26041 0.98298 0.0
H121 H 0.83915 0.26964 0.92812 0.0
H122 H 0.76307 0.19608 0.94208 0.0
H123 H 0.79686 0.26286 0.98328 0.0
C124 C 0.82189 0.25801 0.93815 0.0
C125 C 0.82052 0.26944 0.95632 0.0
C126 C 0.80118 0.23165 0.93282 0.0
C127 C 0.77896 0.21645 0.94605 0.0
C128 C 0.77733 0.22794 0.96426 0.0
C129 C 0.79806 0.25429 0.96913 0.0
N130 N 0.7556 0.21406 0.97834 0.0
C131 C 0.73242 0.18836 0.97639 0.0
H132 H 0.5961 0.74294 0.10494 0.0
H133 H 0.57862 0.80867 0.10186 0.0
H134 H 0.5393 0.74198 0.0611 0.0
C135 C 0.58592 0.7527 0.09778 0.0
C136 C 0.56748 0.73955 0.08198 0.0
C137 C 0.58989 0.77754 0.10523 0.0
C138 C 0.5759 0.78968 0.09618 0.0
C139 C 0.55773 0.77672 0.08016 0.0
C140 C 0.55352 0.75178 0.07338 0.0
N141 N 0.54188 0.78703 0.07111 0.0
C142 C 0.54904 0.8141 0.07016 0.0
H143 H 0.28213 0.84643 0.10834 0.0
H144 H 0.20407 0.77409 0.0962 0.0
H145 H 0.26489 0.81021 0.05005 0.0
C146 C 0.26825 0.83086 0.0981 0.0
C147 C 0.27706 0.83103 0.07837 0.0
C148 C 0.24179 0.81065 0.10481 0.0
C149 C 0.2246 0.78959 0.09158 0.0
C150 C 0.23332 0.78933 0.07195 0.0
C151 C 0.2591 0.81021 0.06546 0.0
N152 N 0.21638 0.76923 0.05785 0.0
C153 C 0.19402 0.74374 0.06225 0.0
H154 H 0.1679 0.43657 0.1042 0.0
H155 H 0.24818 0.44337 0.09579 0.0
H156 H 0.2142 0.47239 0.05073 0.0
C157 C 0.1864 0.44291 0.09527 0.0
C158 C 0.18855 0.45518 0.07671 0.0
C159 C 0.20757 0.43823 0.10227 0.0
C160 C 0.23178 0.44684 0.09058 0.0
C161 C 0.23411 0.45917 0.07185 0.0
C162 C 0.21235 0.46295 0.06512 0.0
N163 N 0.25743 0.46797 0.05893 0.0
C164 C 0.28163 0.46667 0.06171 0.0
H165 H 0.40157 0.90075 0.26627 0.0
H166 H 0.47884 0.90167 0.27689 0.0
H167 H 0.41689 0.87549 0.32277 0.0
C168 C 0.41517 0.89732 0.27587 0.0
C169 C 0.40624 0.88781 0.29535 0.0
C170 C 0.44159 0.90292 0.2689 0.0
C171 C 0.45847 0.8974 0.2817 0.0
C172 C 0.44938 0.88718 0.30108 0.0
C173 C 0.4236 0.88297 0.30776 0.0
N174 N 0.46538 0.88127 0.31466 0.0
C175 C 0.49053 0.88206 0.31111 0.0
H176 H 0.09308 0.49811 0.26591 0.0
H177 H 0.08247 0.56585 0.28153 0.0
H178 H 0.11237 0.53184 0.3251 0.0
C179 C 0.09506 0.51319 0.27663 0.0
C180 C 0.10416 0.51262 0.29613 0.0
C181 C 0.08705 0.53223 0.27117 0.0
C182 C 0.08873 0.5512 0.2854 0.0
C183 C 0.09759 0.55063 0.30487 0.0
C184 C 0.10519 0.53151 0.31004 0.0
N185 N 0.09736 0.5677 0.32011 0.0
C186 C 0.10468 0.59464 0.31751 0.0
H187 H 0.50917 0.60371 0.26375 0.0
H188 H 0.42695 0.53378 0.26901 0.0
H189 H 0.45755 0.59635 0.31352 0.0
C190 C 0.48965 0.59236 0.27164 0.0
C191 C 0.48584 0.60304 0.2894 0.0
C192 C 0.46845 0.56764 0.26377 0.0
C193 C 0.44352 0.55277 0.27475 0.0
C194 C 0.43974 0.56322 0.29282 0.0
C195 C 0.46074 0.58837 0.29973 0.0
N196 N 0.41503 0.54999 0.3044 0.0
C197 C 0.3933 0.52342 0.3026 0.0
Gd198 Gd 0.51594 0.02017 0.04452 0.0
Gd199 Gd 0.49467 0.98818 0.99452 0.0
C200 C 0.41002 0.91252 0.98481 0.0
C201 C 0.42285 0.87853 0.97699 0.0
C202 C 0.45849 0.92518 0.98335 0.0
C203 C 0.43837 0.93212 0.98672 0.0
C204 C 0.45104 0.89847 0.97796 0.0
C205 C 0.40236 0.88554 0.98044 0.0
C206 C 0.39031 0.92081 0.98671 0.0
C207 C 0.39916 0.94822 0.98955 0.0
N208 N 0.44659 0.95843 0.99064 0.0
C209 C 0.42754 0.96691 0.99118 0.0
H210 H 0.43392 0.98796 0.99345 0.0
C211 C 0.50608 0.93994 0.97866 0.0
N212 N 0.48545 0.94498 0.98428 0.0
C213 C 0.49977 0.91376 0.97324 0.0
C214 C 0.47214 0.89282 0.97315 0.0
H215 H 0.52749 0.95601 0.97892 0.0
H216 H 0.38068 0.87014 0.97913 0.0
H217 H 0.57673 0.02036 0.04492 0.0
H218 H 0.36833 0.90638 0.98542 0.0
H219 H 0.38413 0.95497 0.99057 0.0
H220 H 0.41668 0.85782 0.97308 0.0
H221 H 0.48317 0.05228 0.0603 0.0
H222 H 0.64231 0.10146 0.05469 0.0
H223 H 0.62646 0.05311 0.04833 0.0
H224 H 0.59406 0.14984 0.06814 0.0
H225 H 0.51622 0.90971 0.96923 0.0
H226 H 0.4673 0.87256 0.96893 0.0
H227 H 0.63002 0.13754 0.06187 0.0
H228 H 0.49446 0.09828 0.07077 0.0
N229 N 0.56406 0.04978 0.04865 0.0
C230 C 0.62033 0.08713 0.05318 0.0
C231 C 0.61146 0.05985 0.04965 0.0
C232 C 0.60065 0.09541 0.05538 0.0
C233 C 0.57231 0.07594 0.05314 0.0
C234 C 0.58309 0.04129 0.04773 0.0
N235 N 0.52526 0.06322 0.05527 0.0
C236 C 0.55222 0.08289 0.05661 0.0
C237 C 0.51092 0.09427 0.06675 0.0
C238 C 0.53858 0.11508 0.06729 0.0
C239 C 0.50461 0.06823 0.06086 0.0
C240 C 0.55969 0.10945 0.06246 0.0
H241 H 0.54344 0.13522 0.07187 0.0
O242 O 0.49421 0.01108 0.07305 0.0
O243 O 0.48295 0.98722 0.02633 0.0
O244 O 0.48185 0.01971 0.99997 0.0
O245 O 0.51119 0.04954 0.02434 0.0
O246 O 0.47015 0.00583 0.04665 0.0
O247 O 0.52656 0.00121 0.06842 0.0
O248 O 0.51663 0.99735 0.96612 0.0
O249 O 0.52745 0.02117 0.0127 0.0
O250 O 0.52893 0.9886 0.03894 0.0
O251 O 0.49905 0.95894 0.01474 0.0
O252 O 0.54068 0.0032 0.9922 0.0
O253 O 0.48321 0.00584 0.97022 0.0
C254 C 0.46179 0.98681 0.03358 0.0
C255 C 0.58788 0.12925 0.06385 0.0
C256 C 0.60835 0.12224 0.06028 0.0
C257 C 0.50893 0.00155 0.08106 0.0
C258 C 0.51935 0.01068 0.10147 0.0
C259 C 0.54256 0.03638 0.10456 0.0
C260 C 0.50672 0.9933 0.11796 0.0
C261 C 0.5177 0.0014 0.13735 0.0
C262 C 0.55331 0.04459 0.12369 0.0
C263 C 0.54114 0.02725 0.13993 0.0
C264 C 0.49402 0.0436 0.00901 0.0
C265 C 0.5488 0.02215 1.00531 0.0
C266 C 0.50135 0.00603 0.95781 0.0
C267 C 0.49139 0.99646 0.93741 0.0
C268 C 0.46959 0.96996 0.93425 0.0
C269 C 0.50299 0.01421 0.921 0.0
C270 C 0.49228 0.00564 0.90163 0.0
C271 C 0.45916 0.96133 0.91509 0.0
C272 C 0.47023 0.97905 0.89892 0.0
C273 C 0.51675 0.96485 0.02966 0.0
H274 H 0.55252 0.04999 0.09216 0.0
H275 H 0.48885 0.97336 0.11562 0.0
H276 H 0.57127 0.06445 0.12593 0.0
H277 H 0.5499 0.03421 0.15461 0.0
H278 H 0.46044 0.95607 0.94662 0.0
H279 H 0.51972 0.03478 0.92336 0.0
H280 H 0.44223 0.94088 0.91278 0.0
H281 H 0.46162 0.97194 0.88422 0.0
Gd282 Gd 0.99035 0.49627 0.04418 0.0
Gd283 Gd 0.02732 0.50869 0.99606 0.0
C284 C 0.10665 0.50399 0.99072 0.0
C285 C 0.14148 0.5511 0.98487 0.0
C286 C 0.09291 0.53811 0.98864 0.0
C287 C 0.086 0.51145 0.99155 0.0
C288 C 0.12061 0.55815 0.98476 0.0
C289 C 0.13451 0.52405 0.98787 0.0
C290 C 0.09857 0.4765 0.99216 0.0
C291 C 0.07042 0.45721 0.99359 0.0
N292 N 0.05886 0.49258 0.99407 0.0
C293 C 0.0507 0.46562 0.99428 0.0
H294 H 0.02904 0.4505 0.99555 0.0
C295 C 0.07741 0.56941 0.98301 0.0
N296 N 0.0722 0.54415 0.98846 0.0
C297 C 0.10458 0.59003 0.97915 0.0
C298 C 0.12635 0.58448 0.9803 0.0
H299 H 0.06066 0.57382 0.98223 0.0
H300 H 0.15071 0.51876 0.98741 0.0
H301 H 0.98859 0.55455 0.04391 0.0
H302 H 0.11379 0.46993 0.99167 0.0
H303 H 0.06389 0.43586 0.99431 0.0
H304 H 0.16294 0.56625 0.98213 0.0
H305 H 0.95736 0.43172 0.0591 0.0
H306 H 0.90414 0.53546 0.04929 0.0
H307 H 0.95394 0.56931 0.04542 0.0
H308 H 0.85528 0.43958 0.06094 0.0
H309 H 0.10873 0.61019 0.97533 0.0
H310 H 0.14737 0.60047 0.97724 0.0
H311 H 0.86735 0.48687 0.05477 0.0
H312 H 0.90966 0.39577 0.06741 0.0
N313 N 0.95885 0.51252 0.04633 0.0
C314 C 0.91931 0.52882 0.04865 0.0
C315 C 0.94739 0.54798 0.04652 0.0
C316 C 0.91124 0.5014 0.05059 0.0
C317 C 0.93181 0.49384 0.04953 0.0
C318 C 0.96703 0.53947 0.04568 0.0
N319 N 0.94568 0.4613 0.0529 0.0
C320 C 0.925 0.46734 0.05296 0.0
C321 C 0.91366 0.41579 0.06329 0.0
C322 C 0.89189 0.42135 0.06249 0.0
C323 C 0.94065 0.4362 0.05863 0.0
C324 C 0.89747 0.4475 0.05756 0.0
H325 H 0.87101 0.40553 0.06613 0.0
O326 O 0.99721 0.48405 0.07339 0.0
O327 O 0.02573 0.4976 0.02789 0.0
O328 O 0.99415 0.46421 1.00001 0.0
O329 O 0.96206 0.46304 0.02306 0.0
O330 O 0.00618 0.46672 0.04813 0.0
O331 O 0.00588 0.52515 0.06852 0.0
O332 O 0.01796 0.52074 0.96776 0.0
O333 O 0.99151 0.50672 0.01221 0.0
O334 O 0.02288 0.54086 0.03957 0.0
O335 O 0.05549 0.54134 0.01747 0.0
O336 O 0.01135 0.53809 0.99223 0.0
O337 O 0.01674 0.48224 0.97023 0.0
C338 C 0.02642 0.47777 0.03565 0.0
C339 C 0.87662 0.45459 0.05766 0.0
C340 C 0.8835 0.48151 0.05415 0.0
C341 C 1.00456 0.50748 0.08148 0.0
C342 C 0.99175 0.507 0.10078 0.0
C343 C 0.9647 0.50283 0.10167 0.0
C344 C 0.00694 0.51139 0.11848 0.0
C345 C 0.99534 0.51208 0.13701 0.0
C346 C 0.95301 0.50327 0.11996 0.0
C347 C 0.96821 0.50796 0.13752 0.0
C348 C 0.96905 0.45221 1.00825 0.0
C349 C 0.99073 0.5265 1.00441 0.0
C350 C 0.01466 0.49931 0.95838 0.0
C351 C 0.02841 0.50429 0.93886 0.0
C352 C 0.05742 0.51732 0.93746 0.0
C353 C 0.0124 0.49727 0.92136 0.0
C354 C 0.02534 0.50388 0.90255 0.0
C355 C 0.07034 0.52375 0.91883 0.0
C356 C 0.05446 0.5173 0.90146 0.0
C357 C 0.04815 0.55267 0.03165 0.0
H358 H 0.95271 0.49943 0.08824 0.0
H359 H 0.02794 0.51481 0.11779 0.0
H360 H 0.93211 0.50005 0.12053 0.0
H361 H 0.95861 0.50808 0.15154 0.0
H362 H 0.07007 0.52276 0.95071 0.0
H363 H 0.98996 0.4873 0.92239 0.0
H364 H 0.09275 0.53393 0.91785 0.0
H365 H 0.06488 0.52251 0.88715 0.0
Gd366 Gd 0.49972 0.51089 0.99426 0.0
Gd367 Gd 0.52262 0.4998 0.04337 0.0
C368 C 0.60619 0.50382 0.0513 0.0
C369 C 0.59216 0.45685 0.05852 0.0
C370 C 0.55739 0.4702 0.05321 0.0
C371 C 0.57803 0.49662 0.04989 0.0
C372 C 0.56417 0.45008 0.05797 0.0
C373 C 0.61314 0.48368 0.05518 0.0
C374 C 0.62649 0.53114 0.04938 0.0
C375 C 0.61842 0.55056 0.04692 0.0
N376 N 0.57053 0.51555 0.0464 0.0
C377 C 0.59019 0.54241 0.04573 0.0
H378 H 0.58437 0.55769 0.0437 0.0
C379 C 0.50959 0.43935 0.05801 0.0
N380 N 0.53063 0.46445 0.05267 0.0
C381 C 0.51524 0.41865 0.06274 0.0
C382 C 0.54263 0.42395 0.0625 0.0
H383 H 0.48836 0.43508 0.05803 0.0
H384 H 0.63467 0.48877 0.05613 0.0
H385 H 0.4383 0.45255 0.9949 0.0
H386 H 0.64836 0.53751 0.05029 0.0
H387 H 0.63392 0.57182 0.04582 0.0
H388 H 0.5978 0.44163 0.06197 0.0
H389 H 0.53303 0.57509 0.97857 0.0
H390 H 0.3735 0.47134 0.98713 0.0
H391 H 0.38863 0.43771 0.99264 0.0
H392 H 0.42287 0.56682 0.97378 0.0
H393 H 0.49846 0.39862 0.06651 0.0
H394 H 0.54695 0.4079 0.0662 0.0
H395 H 0.38648 0.51969 0.98034 0.0
H396 H 0.52225 0.6108 0.96912 0.0
N397 N 0.45163 0.49447 0.99124 0.0
C398 C 0.39544 0.47802 0.98808 0.0
C399 C 0.40391 0.45899 0.99115 0.0
C400 C 0.41545 0.50536 0.98569 0.0
C401 C 0.44373 0.51298 0.9872 0.0
C402 C 0.43222 0.46755 0.99241 0.0
N403 N 0.49092 0.5455 0.98423 0.0
C404 C 0.46407 0.53938 0.98355 0.0
C405 C 0.50568 0.59082 0.97322 0.0
C406 C 0.47818 0.58517 0.97334 0.0
C407 C 0.5117 0.57055 0.97851 0.0
C408 C 0.4569 0.55908 0.97827 0.0
H409 H 0.47355 0.60089 0.96921 0.0
O410 O 0.52014 0.5224 0.96532 0.0
O411 O 0.53331 0.50977 0.01141 0.0
O412 O 0.53638 0.54414 0.03791 0.0
O413 O 0.50583 0.54511 0.01451 0.0
O414 O 0.54575 0.54037 0.99078 0.0
O415 O 0.48686 0.48136 0.97039 0.0
O416 O 0.50154 0.48801 0.07202 0.0
O417 O 0.48928 0.5015 0.02629 0.0
O418 O 0.48625 0.46651 1.00003 0.0
O419 O 0.51817 0.46686 0.02268 0.0
O420 O 0.47643 0.4707 0.04677 0.0
O421 O 0.53652 0.52844 0.06791 0.0
C422 C 0.55442 0.52951 1.00364 0.0
C423 C 0.42881 0.55192 0.9776 0.0
C424 C 0.4081 0.52509 0.98133 0.0
C425 C 0.50421 0.49864 0.95747 0.0
C426 C 0.49306 0.49817 0.93748 0.0
C427 C 0.46928 0.5005 0.93517 0.0
C428 C 0.50589 0.49462 0.92055 0.0
C429 C 0.4947 0.49286 0.90139 0.0
C430 C 0.45822 0.49898 0.91624 0.0
C431 C 0.4707 0.49506 0.89947 0.0
C432 C 0.5242 0.55632 0.02908 0.0
C433 C 0.46799 0.48201 0.03411 0.0
C434 C 0.51828 0.51115 0.08042 0.0
C435 C 0.52849 0.50997 0.10042 0.0
C436 C 0.55016 0.50433 0.10275 0.0
C437 C 0.51686 0.51511 0.11736 0.0
C438 C 0.52733 0.51531 0.13652 0.0
C439 C 0.56039 0.5042 0.12171 0.0
C440 C 0.54923 0.50983 0.13848 0.0
C441 C 0.49933 0.455 0.00854 0.0
H442 H 0.45917 0.50329 0.94799 0.0
H443 H 0.5242 0.49268 0.92234 0.0
H444 H 0.43984 0.50076 0.91456 0.0
H445 H 0.46177 0.49407 0.88494 0.0
H446 H 0.5593 0.50026 0.08992 0.0
H447 H 0.50023 0.51966 0.11559 0.0
H448 H 0.57719 0.49992 0.12341 0.0
H449 H 0.55764 0.5098 0.15303 0.0
Gd450 Gd 0.18187 0.35296 0.3769 0.0
Gd451 Gd 0.15938 0.32142 0.32696 0.0
C452 C 0.07423 0.24659 0.31703 0.0
C453 C 0.08642 0.21229 0.30869 0.0
C454 C 0.12254 0.25863 0.31545 0.0
C455 C 0.10266 0.26591 0.31894 0.0
C456 C 0.11471 0.23189 0.30986 0.0
C457 C 0.06621 0.21963 0.3123 0.0
C458 C 0.05476 0.25509 0.31949 0.0
C459 C 0.0639 0.28243 0.32304 0.0
N460 N 0.11119 0.29217 0.32335 0.0
C461 C 0.09234 0.30086 0.32464 0.0
H462 H 0.09896 0.32185 0.32746 0.0
C463 C 0.17003 0.27269 0.31107 0.0
N464 N 0.14962 0.27809 0.31661 0.0
C465 C 0.16334 0.24644 0.30552 0.0
C466 C 0.13556 0.22585 0.30514 0.0
H467 H 0.19154 0.28851 0.31149 0.0
H468 H 0.04446 0.20444 0.31096 0.0
H469 H 0.24251 0.35293 0.37537 0.0
H470 H 0.03272 0.24087 0.31824 0.0
H471 H 0.04904 0.28932 0.32461 0.0
H472 H 0.07997 0.19157 0.3046 0.0
H473 H 0.15002 0.38495 0.39471 0.0
H474 H 0.3087 0.43384 0.38476 0.0
H475 H 0.29241 0.38551 0.37787 0.0
H476 H 0.26135 0.48228 0.40103 0.0
H477 H 0.1796 0.24209 0.30158 0.0
H478 H 0.13042 0.20555 0.30079 0.0
H479 H 0.2969 0.46994 0.39319 0.0
H480 H 0.16192 0.4308 0.40602 0.0
N481 N 0.23017 0.3824 0.38016 0.0
C482 C 0.28665 0.41958 0.38365 0.0
C483 C 0.27753 0.39232 0.37982 0.0
C484 C 0.26716 0.42792 0.38668 0.0
C485 C 0.23871 0.40855 0.38495 0.0
C486 C 0.24907 0.37384 0.37844 0.0
N487 N 0.19182 0.39591 0.38837 0.0
C488 C 0.21885 0.41552 0.38925 0.0
C489 C 0.17814 0.42682 0.40126 0.0
C490 C 0.20583 0.4476 0.40131 0.0
C491 C 0.17149 0.40087 0.39489 0.0
C492 C 0.22665 0.442 0.39553 0.0
H493 H 0.21096 0.46768 0.40626 0.0
O494 O 0.16034 0.34305 0.40552 0.0
O495 O 0.14825 0.32021 0.35895 0.0
O496 O 0.14728 0.35342 0.33272 0.0
O497 O 0.17637 0.38257 0.35755 0.0
O498 O 0.13627 0.33905 0.37964 0.0
O499 O 0.1935 0.33444 0.40053 0.0
O500 O 0.18115 0.33067 0.2985 0.0
O501 O 0.19265 0.35442 0.34486 0.0
O502 O 0.1943 0.32112 0.37062 0.0
O503 O 0.16323 0.29163 0.34693 0.0
O504 O 0.20529 0.33613 0.32421 0.0
O505 O 0.14725 0.33847 0.3026 0.0
C506 C 0.12736 0.31994 0.36661 0.0
C507 C 0.25492 0.46173 0.39643 0.0
C508 C 0.27515 0.45471 0.39197 0.0
C509 C 0.1757 0.33412 0.41333 0.0
C510 C 0.18614 0.34339 0.43373 0.0
C511 C 0.20918 0.36923 0.43674 0.0
C512 C 0.17364 0.32609 0.45028 0.0
C513 C 0.18462 0.33441 0.46965 0.0
C514 C 0.2199 0.37765 0.45585 0.0
C515 C 0.20788 0.36039 0.47215 0.0
C516 C 0.15925 0.37699 0.34222 0.0
C517 C 0.21381 0.35532 0.33717 0.0
C518 C 0.16543 0.33881 0.29014 0.0
C519 C 0.1553 0.3286 0.26987 0.0
C520 C 0.13438 0.30161 0.26712 0.0
C521 C 0.16602 0.34598 0.25317 0.0
C522 C 0.15532 0.33647 0.23391 0.0
C523 C 0.12403 0.29203 0.24811 0.0
C524 C 0.13426 0.30929 0.23166 0.0
C525 C 0.18137 0.29729 0.36148 0.0
H526 H 0.21902 0.38279 0.42429 0.0
H527 H 0.15589 0.30604 0.44802 0.0
H528 H 0.23773 0.39762 0.45803 0.0
H529 H 0.21665 0.36748 0.48681 0.0
H530 H 0.12592 0.28799 0.27969 0.0
H531 H 0.18206 0.36693 0.25522 0.0
H532 H 0.10785 0.27116 0.24614 0.0
H533 H 0.12576 0.30133 0.21708 0.0
Gd534 Gd 0.65696 0.83075 0.37665 0.0
Gd535 Gd 0.69369 0.84191 0.32862 0.0
C536 C 0.77052 0.83264 0.3245 0.0
C537 C 0.80725 0.87917 0.31923 0.0
C538 C 0.75925 0.86847 0.3221 0.0
C539 C 0.7509 0.84145 0.32499 0.0
C540 C 0.78742 0.88758 0.31872 0.0
C541 C 0.79882 0.85174 0.32213 0.0
C542 C 0.76103 0.80484 0.32577 0.0
C543 C 0.73255 0.78658 0.3267 0.0
N544 N 0.72338 0.82355 0.32704 0.0
C545 C 0.71389 0.79631 0.32709 0.0
H546 H 0.69199 0.78192 0.32798 0.0
C547 C 0.74623 0.90157 0.31621 0.0
N548 N 0.73951 0.87581 0.32149 0.0
C549 C 0.77393 0.92132 0.31287 0.0
C550 C 0.79468 0.91438 0.31438 0.0
H551 H 0.73024 0.90704 0.31523 0.0
H552 H 0.81423 0.8454 0.32196 0.0
H553 H 0.65595 0.88927 0.3757 0.0
H554 H 0.77543 0.79724 0.32552 0.0
H555 H 0.72494 0.765 0.32727 0.0
H556 H 0.82906 0.89359 0.31688 0.0
H557 H 0.62357 0.76628 0.39201 0.0
H558 H 0.57183 0.87117 0.38178 0.0
H559 H 0.62165 0.90457 0.37728 0.0
H560 H 0.52228 0.77547 0.39424 0.0
H561 H 0.77926 0.94186 0.30918 0.0
H562 H 0.81611 0.92968 0.31172 0.0
H563 H 0.53479 0.82281 0.38782 0.0
H564 H 0.57583 0.73083 0.40069 0.0
N565 N 0.62588 0.84743 0.37867 0.0
C566 C 0.58682 0.8643 0.38109 0.0
C567 C 0.61492 0.88322 0.3786 0.0
C568 C 0.5785 0.83684 0.38326 0.0
C569 C 0.59883 0.82897 0.38211 0.0
C570 C 0.63433 0.87443 0.37771 0.0
N571 N 0.61222 0.79601 0.38545 0.0
C572 C 0.59175 0.80238 0.3856 0.0
C573 C 0.57999 0.75083 0.39637 0.0
C574 C 0.55841 0.75668 0.39559 0.0
C575 C 0.607 0.77095 0.39147 0.0
C576 C 0.56422 0.78284 0.39048 0.0
H577 H 0.53753 0.74108 0.39945 0.0
O578 O 0.66713 0.81961 0.40503 0.0
O579 O 0.69209 0.83133 0.3605 0.0
O580 O 0.6594 0.79784 0.33264 0.0
O581 O 0.62792 0.79747 0.35591 0.0
O582 O 0.67182 0.80043 0.38064 0.0
O583 O 0.66863 0.85817 0.40195 0.0
O584 O 0.6895 0.85597 0.2994 0.0
O585 O 0.65848 0.84135 0.34463 0.0
O586 O 0.6905 0.87509 0.37215 0.0
O587 O 0.72236 0.87384 0.35027 0.0
O588 O 0.67884 0.87218 0.3244 0.0
O589 O 0.67889 0.81413 0.30358 0.0
C590 C 0.69227 0.81125 0.36828 0.0
C591 C 0.54362 0.79025 0.39073 0.0
C592 C 0.55075 0.81721 0.38709 0.0
C593 C 0.67088 0.84144 0.41404 0.0
C594 C 0.65778 0.83732 0.43375 0.0
C595 C 0.62895 0.82555 0.43561 0.0
C596 C 0.67429 0.84413 0.45095 0.0
C597 C 0.66214 0.83863 0.47011 0.0
C598 C 0.61668 0.82015 0.45443 0.0
C599 C 0.63303 0.82639 0.47155 0.0
C600 C 0.63448 0.78621 0.34116 0.0
C601 C 0.65826 0.86131 0.33664 0.0
C602 C 0.68189 0.83274 0.29084 0.0
C603 C 0.69588 0.83365 0.27201 0.0
C604 C 0.72334 0.83887 0.27199 0.0
C605 C 0.68149 0.8287 0.25387 0.0
C606 C 0.69433 0.8285 0.2358 0.0
C607 C 0.73625 0.83897 0.25414 0.0
C608 C 0.72186 0.83371 0.23616 0.0
C609 C 0.71583 0.88582 0.36445 0.0
H610 H 0.61593 0.8203 0.42257 0.0
H611 H 0.69661 0.85373 0.44929 0.0
H612 H 0.59436 0.81076 0.45576 0.0
H613 H 0.6227 0.82115 0.48587 0.0
H614 H 0.73472 0.84271 0.28575 0.0
H615 H 0.66017 0.82441 0.25387 0.0
H616 H 0.75745 0.843 0.25426 0.0
H617 H 0.73233 0.83391 0.22249 0.0
Gd618 Gd 0.16655 0.84599 0.32903 0.0
Gd619 Gd 0.18908 0.83465 0.37816 0.0
C620 C 0.27347 0.84027 0.38527 0.0
C621 C 0.26036 0.7934 0.39196 0.0
C622 C 0.2249 0.80595 0.3872 0.0
C623 C 0.24515 0.83258 0.38404 0.0
C624 C 0.23222 0.78614 0.39165 0.0
C625 C 0.28096 0.82043 0.38876 0.0
C626 C 0.29335 0.86777 0.3836 0.0
C627 C 0.28475 0.88686 0.38158 0.0
N628 N 0.23714 0.85122 0.38094 0.0
C629 C 0.25639 0.87822 0.38053 0.0
H630 H 0.25013 0.89323 0.37883 0.0
C631 C 0.17733 0.77446 0.39237 0.0
N632 N 0.19797 0.79972 0.38695 0.0
C633 C 0.18353 0.75404 0.39678 0.0
C634 C 0.21107 0.75981 0.39618 0.0
H635 H 0.15599 0.76987 0.39266 0.0
H636 H 0.3026 0.8259 0.38955 0.0
H637 H 0.10477 0.78805 0.32988 0.0
H638 H 0.31532 0.87452 0.38439 0.0
H639 H 0.29994 0.90823 0.3807 0.0
H640 H 0.26643 0.77842 0.39516 0.0
H641 H 0.20049 0.90974 0.31245 0.0
H642 H 0.04065 0.80762 0.32142 0.0
H643 H 0.05523 0.77369 0.32743 0.0
H644 H 0.09099 0.90276 0.30687 0.0
H645 H 0.16707 0.73388 0.40059 0.0
H646 H 0.21583 0.74399 0.39965 0.0
H647 H 0.0542 0.85597 0.31399 0.0
H648 H 0.19027 0.94548 0.30206 0.0
N649 N 0.11856 0.83002 0.32589 0.0
C650 C 0.06253 0.8141 0.32247 0.0
C651 C 0.07068 0.79489 0.32581 0.0
C652 C 0.08277 0.84131 0.31987 0.0
C653 C 0.11096 0.84867 0.32154 0.0
C654 C 0.09893 0.80318 0.32718 0.0
N655 N 0.15829 0.8807 0.3184 0.0
C656 C 0.13153 0.87489 0.31761 0.0
C657 C 0.17355 0.92574 0.30648 0.0
C658 C 0.14616 0.92045 0.3065 0.0
C659 C 0.17925 0.90544 0.31233 0.0
C660 C 0.12468 0.89465 0.31185 0.0
H661 H 0.14178 0.93619 0.30196 0.0
O662 O 0.18731 0.85696 0.30018 0.0
O663 O 0.20005 0.84479 0.34629 0.0
O664 O 0.20175 0.87889 0.37325 0.0
O665 O 0.17217 0.8802 0.3491 0.0
O666 O 0.21265 0.87557 0.32587 0.0
O667 O 0.15336 0.81628 0.30526 0.0
O668 O 0.16822 0.82205 0.40685 0.0
O669 O 0.15579 0.83641 0.36106 0.0
O670 O 0.15268 0.80154 0.3348 0.0
O671 O 0.18455 0.80173 0.35737 0.0
O672 O 0.1429 0.80549 0.38148 0.0
O673 O 0.20288 0.86273 0.40305 0.0
C674 C 0.22126 0.86462 0.3387 0.0
C675 C 0.09668 0.8878 0.31106 0.0
C676 C 0.07574 0.86117 0.31511 0.0
C677 C 0.17102 0.83328 0.29236 0.0
C678 C 0.16009 0.83302 0.27232 0.0
C679 C 0.13652 0.83568 0.26992 0.0
C680 C 0.17288 0.8293 0.25542 0.0
C681 C 0.16183 0.82768 0.23623 0.0
C682 C 0.12562 0.83432 0.25095 0.0
C683 C 0.13804 0.83022 0.23423 0.0
C684 C 0.18965 0.89104 0.36423 0.0
C685 C 0.13449 0.81687 0.36885 0.0
C686 C 0.18492 0.84503 0.41549 0.0
C687 C 0.19562 0.84338 0.4352 0.0
C688 C 0.21692 0.83711 0.43682 0.0
C689 C 0.18476 0.84854 0.45257 0.0
C690 C 0.19552 0.84793 0.47148 0.0
C691 C 0.22744 0.83618 0.45549 0.0
C692 C 0.21695 0.84165 0.47269 0.0
C693 C 0.16571 0.78995 0.34323 0.0
H694 H 0.12643 0.83859 0.28269 0.0
H695 H 0.19103 0.8271 0.25727 0.0
H696 H 0.10739 0.83636 0.24921 0.0
H697 H 0.12923 0.82935 0.21968 0.0
H698 H 0.22551 0.83308 0.42368 0.0
H699 H 0.16844 0.85361 0.45133 0.0
H700 H 0.24389 0.83132 0.45663 0.0
H701 H 0.22548 0.84076 0.48699 0.0
Gd702 Gd 0.84815 0.68667 0.71158 0.0
Gd703 Gd 0.82608 0.65559 0.66137 0.0
C704 C 0.74149 0.57986 0.65187 0.0
C705 C 0.75434 0.54595 0.64384 0.0
C706 C 0.78997 0.5926 0.65017 0.0
C707 C 0.76983 0.5995 0.65369 0.0
C708 C 0.78253 0.56591 0.64475 0.0
C709 C 0.73384 0.55291 0.64742 0.0
C710 C 0.72175 0.58809 0.65395 0.0
C711 C 0.73055 0.61547 0.65692 0.0
N712 N 0.77801 0.62578 0.65771 0.0
C713 C 0.75893 0.6342 0.65848 0.0
H714 H 0.76533 0.65523 0.6609 0.0
C715 C 0.83755 0.60743 0.64529 0.0
N716 N 0.81693 0.61244 0.651 0.0
C717 C 0.83125 0.58124 0.63991 0.0
C718 C 0.80363 0.56029 0.63987 0.0
H719 H 0.85895 0.62352 0.64548 0.0
H720 H 0.71217 0.53748 0.64616 0.0
H721 H 0.90894 0.68697 0.71083 0.0
H722 H 0.69976 0.57363 0.65274 0.0
H723 H 0.7155 0.62216 0.65812 0.0
H724 H 0.74818 0.52524 0.63989 0.0
H725 H 0.81557 0.71891 0.72764 0.0
H726 H 0.97467 0.76808 0.72035 0.0
H727 H 0.95875 0.71977 0.71372 0.0
H728 H 0.92663 0.81645 0.73471 0.0
H729 H 0.84769 0.57721 0.63585 0.0
H730 H 0.79879 0.54003 0.63565 0.0
H731 H 0.96248 0.80412 0.728 0.0
H732 H 0.82706 0.76505 0.73788 0.0
N733 N 0.89631 0.71629 0.71526 0.0
C734 C 0.95266 0.75372 0.71911 0.0
C735 C 0.94375 0.72647 0.71542 0.0
C736 C 0.933 0.76194 0.72174 0.0
C737 C 0.90462 0.74244 0.71984 0.0
C738 C 0.91535 0.70786 0.71381 0.0
N739 N 0.8576 0.72973 0.72245 0.0
C740 C 0.88459 0.74939 0.72359 0.0
C741 C 0.84345 0.76095 0.73383 0.0
C742 C 0.87113 0.78172 0.73424 0.0
C743 C 0.83702 0.73484 0.7281 0.0
C744 C 0.89216 0.77601 0.72935 0.0
H745 H 0.87608 0.80193 0.73873 0.0
O746 O 0.82677 0.67722 0.74023 0.0
O747 O 0.81491 0.6542 0.69331 0.0
O748 O 0.81348 0.68728 0.6675 0.0
O749 O 0.84365 0.71641 0.69183 0.0
O750 O 0.80229 0.67214 0.71429 0.0
O751 O 0.8595 0.66795 0.73521 0.0
O752 O 0.84781 0.66525 0.63289 0.0
O753 O 0.85914 0.68821 0.6796 0.0
O754 O 0.86091 0.6551 0.70522 0.0
O755 O 0.83022 0.62583 0.68122 0.0
O756 O 0.87213 0.67076 0.65856 0.0
O757 O 0.81384 0.6729 0.63723 0.0
C758 C 0.79381 0.65351 0.70091 0.0
C759 C 0.92038 0.79581 0.73048 0.0
C760 C 0.94078 0.78879 0.72666 0.0
C761 C 0.84187 0.66797 0.74802 0.0
C762 C 0.85244 0.67716 0.7684 0.0
C763 C 0.87533 0.70308 0.77143 0.0
C764 C 0.8402 0.6597 0.78489 0.0
C765 C 0.85128 0.66795 0.80425 0.0
C766 C 0.88616 0.71144 0.79052 0.0
C767 C 0.87439 0.69403 0.80677 0.0
C768 C 0.82608 0.71096 0.67686 0.0
C769 C 0.88045 0.68948 0.67188 0.0
C770 C 0.83197 0.67335 0.62466 0.0
C771 C 0.82172 0.66312 0.60441 0.0
C772 C 0.80079 0.63612 0.60172 0.0
C773 C 0.83235 0.68046 0.58767 0.0
C774 C 0.82155 0.67089 0.56844 0.0
C775 C 0.79033 0.62649 0.58274 0.0
C776 C 0.80047 0.64371 0.56625 0.0
C777 C 0.84829 0.63143 0.69584 0.0
H778 H 0.88496 0.71677 0.75901 0.0
H779 H 0.82258 0.63958 0.78261 0.0
H780 H 0.90387 0.73148 0.79272 0.0
H781 H 0.88322 0.70108 0.82143 0.0
H782 H 0.7924 0.62253 0.61431 0.0
H783 H 0.84841 0.70141 0.58967 0.0
H784 H 0.77414 0.60562 0.58081 0.0
H785 H 0.7919 0.63569 0.5517 0.0
Gd786 Gd 0.32265 0.16281 0.71025 0.0
Gd787 Gd 0.35974 0.17383 0.66235 0.0
C788 C 0.43878 0.16848 0.65782 0.0
C789 C 0.47388 0.21541 0.65168 0.0
C790 C 0.42536 0.20279 0.65516 0.0
C791 C 0.41826 0.17612 0.65835 0.0
C792 C 0.45314 0.22264 0.65126 0.0
C793 C 0.46671 0.18837 0.65498 0.0
C794 C 0.43052 0.14098 0.65957 0.0
C795 C 0.40232 0.12184 0.66103 0.0
N796 N 0.39106 0.15742 0.66087 0.0
C797 C 0.38273 0.13043 0.66141 0.0
H798 H 0.36104 0.11543 0.6627 0.0
C799 C 0.41018 0.23419 0.64889 0.0
N800 N 0.40478 0.20899 0.65468 0.0
C801 C 0.43743 0.25463 0.645 0.0
C802 C 0.45907 0.24893 0.64646 0.0
H803 H 0.39353 0.23872 0.64787 0.0
H804 H 0.48281 0.18294 0.65477 0.0
H805 H 0.32159 0.22144 0.70917 0.0
H806 H 0.44564 0.13427 0.65931 0.0
H807 H 0.39565 0.10047 0.662 0.0
H808 H 0.49539 0.23043 0.64894 0.0
H809 H 0.28899 0.0983 0.72531 0.0
H810 H 0.23752 0.20338 0.7149 0.0
H811 H 0.28737 0.23673 0.71055 0.0
H812 H 0.1878 0.10768 0.72733 0.0
H813 H 0.44173 0.27475 0.64091 0.0
H814 H 0.48015 0.26477 0.64337 0.0
H815 H 0.2004 0.15505 0.72091 0.0
H816 H 0.24114 0.0628 0.7337 0.0
N817 N 0.29154 0.17955 0.71211 0.0
C818 C 0.25249 0.19649 0.71431 0.0
C819 C 0.28061 0.21538 0.7119 0.0
C820 C 0.24414 0.16904 0.71653 0.0
C821 C 0.26446 0.16115 0.7155 0.0
C822 C 0.3 0.20656 0.71113 0.0
N823 N 0.27782 0.12825 0.71907 0.0
C824 C 0.25737 0.13461 0.71912 0.0
C825 C 0.24539 0.08289 0.72955 0.0
C826 C 0.22387 0.08881 0.72879 0.0
C827 C 0.27247 0.10305 0.72485 0.0
C828 C 0.22977 0.11504 0.72382 0.0
H829 H 0.20292 0.07318 0.73249 0.0
O830 O 0.32934 0.15105 0.73966 0.0
O831 O 0.35797 0.16342 0.69435 0.0
O832 O 0.32639 0.12951 0.66687 0.0
O833 O 0.29423 0.12941 0.68932 0.0
O834 O 0.33793 0.13297 0.71488 0.0
O835 O 0.33845 0.1922 0.73426 0.0
O836 O 0.35071 0.18537 0.63371 0.0
O837 O 0.32398 0.17257 0.67812 0.0
O838 O 0.35541 0.20718 0.70516 0.0
O839 O 0.38803 0.20683 0.68353 0.0
O840 O 0.34415 0.20344 0.65779 0.0
O841 O 0.34899 0.14673 0.63689 0.0
C842 C 0.3583 0.1436 0.70247 0.0
C843 C 0.20918 0.12247 0.72394 0.0
C844 C 0.21636 0.14943 0.72029 0.0
C845 C 0.33702 0.17472 0.74745 0.0
C846 C 0.32454 0.17484 0.76675 0.0
C847 C 0.29769 0.17115 0.76775 0.0
C848 C 0.33991 0.17925 0.78435 0.0
C849 C 0.32867 0.18034 0.80293 0.0
C850 C 0.28636 0.17205 0.7861 0.0
C851 C 0.30172 0.17669 0.80358 0.0
C852 C 0.30123 0.1179 0.67501 0.0
C853 C 0.32349 0.19232 0.66997 0.0
C854 C 0.3473 0.16367 0.62468 0.0
C855 C 0.36139 0.16818 0.60532 0.0
C856 C 0.3904 0.18123 0.60428 0.0
C857 C 0.34574 0.16053 0.58764 0.0
C858 C 0.35898 0.16638 0.56884 0.0
C859 C 0.40371 0.18713 0.58585 0.0
C860 C 0.38824 0.18004 0.56828 0.0
C861 C 0.38074 0.21862 0.69739 0.0
H862 H 0.28556 0.16774 0.75439 0.0
H863 H 0.36076 0.18232 0.78353 0.0
H864 H 0.26561 0.16918 0.78678 0.0
H865 H 0.29237 0.1771 0.81764 0.0
H866 H 0.40276 0.18714 0.61767 0.0
H867 H 0.3233 0.14999 0.58863 0.0
H868 H 0.42615 0.19755 0.58517 0.0
H869 H 0.39936 0.18568 0.55427 0.0
Gd870 Gd 0.8356 0.18222 0.66119 0.0
Gd871 Gd 0.85603 0.16902 0.71048 0.0
C872 C 0.9392 0.17261 0.71929 0.0
C873 C 0.92484 0.12558 0.72654 0.0
C874 C 0.89031 0.13908 0.72063 0.0
C875 C 0.91109 0.16552 0.71754 0.0
C876 C 0.8969 0.11891 0.72567 0.0
C877 C 0.94597 0.15239 0.72332 0.0
C878 C 0.9596 0.19994 0.71757 0.0
C879 C 0.95168 0.21947 0.71503 0.0
N880 N 0.90379 0.18458 0.71397 0.0
C881 C 0.92351 0.21142 0.71355 0.0
H882 H 0.91773 0.22674 0.71148 0.0
C883 C 0.84239 0.10839 0.72516 0.0
N884 N 0.86356 0.13339 0.71978 0.0
C885 C 0.84787 0.08768 0.73022 0.0
C886 C 0.87522 0.09285 0.73022 0.0
H887 H 0.8212 0.10423 0.72509 0.0
H888 H 0.96745 0.1574 0.72452 0.0
H889 H 0.7743 0.12418 0.66034 0.0
H890 H 0.98144 0.20623 0.71874 0.0
H891 H 0.96727 0.24072 0.71412 0.0
H892 H 0.93034 0.11031 0.73018 0.0
H893 H 0.86964 0.24654 0.64567 0.0
H894 H 0.70987 0.14375 0.65312 0.0
H895 H 0.72459 0.10966 0.65775 0.0
H896 H 0.76005 0.23961 0.64134 0.0
H897 H 0.831 0.06774 0.73407 0.0
H898 H 0.87941 0.07679 0.73418 0.0
H899 H 0.72331 0.19245 0.64732 0.0
H900 H 0.85934 0.28259 0.63628 0.0
N901 N 0.78774 0.16623 0.65782 0.0
C902 C 0.73176 0.15027 0.65425 0.0
C903 C 0.73999 0.13096 0.6568 0.0
C904 C 0.75193 0.17766 0.6525 0.0
C905 C 0.78013 0.18506 0.65423 0.0
C906 C 0.76825 0.13931 0.65825 0.0
N907 N 0.8275 0.21744 0.65173 0.0
C908 C 0.80069 0.21156 0.65107 0.0
C909 C 0.84266 0.26275 0.64052 0.0
C910 C 0.81527 0.25744 0.64085 0.0
C911 C 0.84842 0.2423 0.64582 0.0
C912 C 0.79381 0.23146 0.64585 0.0
H913 H 0.81085 0.2733 0.63672 0.0
O914 O 0.85898 0.19388 0.63348 0.0
O915 O 0.86831 0.18026 0.67885 0.0
O916 O 0.86922 0.21347 0.70619 0.0
O917 O 0.84052 0.21573 0.68176 0.0
O918 O 0.8817 0.21202 0.65916 0.0
O919 O 0.82083 0.15546 0.63541 0.0
O920 O 0.83186 0.15772 0.7378 0.0
O921 O 0.82338 0.17122 0.69285 0.0
O922 O 0.82313 0.13767 0.66537 0.0
O923 O 0.85257 0.13662 0.6897 0.0
O924 O 0.80995 0.13911 0.71225 0.0
O925 O 0.87123 0.19508 0.73663 0.0
C926 C 0.88981 0.20041 0.67182 0.0
C927 C 0.76578 0.22454 0.64509 0.0
C928 C 0.74486 0.19768 0.64847 0.0
C929 C 0.84099 0.17234 0.62388 0.0
C930 C 0.83329 0.17701 0.60385 0.0
C931 C 0.81753 0.18982 0.60165 0.0
C932 C 0.84255 0.16946 0.58675 0.0
C933 C 0.83651 0.17511 0.56744 0.0
C934 C 0.81155 0.19561 0.58273 0.0
C935 C 0.82111 0.18858 0.56579 0.0
C936 C 0.85748 0.22599 0.69723 0.0
C937 C 0.80187 0.15099 0.6998 0.0
C938 C 0.85022 0.17866 0.74773 0.0
C939 C 0.85641 0.17303 0.76794 0.0
C940 C 0.87105 0.15914 0.77069 0.0
C941 C 0.84626 0.18032 0.78467 0.0
C942 C 0.85011 0.17314 0.80403 0.0
C943 C 0.87506 0.15213 0.78984 0.0
C944 C 0.86451 0.15887 0.8064 0.0
C945 C 0.83562 0.12583 0.67434 0.0
H946 H 0.81005 0.19559 0.61453 0.0
H947 H 0.8543 0.15912 0.58859 0.0
H948 H 0.79968 0.20586 0.58119 0.0
H949 H 0.8167 0.19414 0.5514 0.0
H950 H 0.87913 0.15349 0.75808 0.0
H951 H 0.83482 0.19096 0.7826 0.0
H952 H 0.88628 0.1413 0.79184 0.0
H953 H 0.86791 0.15325 0.82111 0.0
H954 H 0.31263 0.82755 0.05139 0.0
H955 H 0.30397 0.88515 0.08822 0.0
H956 H 0.35546 0.86412 0.03756 0.0
H957 H 0.34783 0.92127 0.07563 0.0
H958 H 0.41374 0.98666 0.03891 0.0
H959 H 0.36865 0.94851 0.04795 0.0
H960 H 0.40252 0.89483 0.04382 0.0
H961 H 0.44728 0.93309 0.03382 0.0
C962 C 0.31981 0.84798 0.05661 0.0
C963 C 0.30448 0.85323 0.0709 0.0
C964 C 0.3447 0.86899 0.04883 0.0
C965 C 0.35524 0.89587 0.05528 0.0
C966 C 0.34021 0.90101 0.06988 0.0
C967 C 0.31517 0.88009 0.07745 0.0
C968 C 0.41127 0.96655 0.03954 0.0
C969 C 0.43385 0.96276 0.03551 0.0
C970 C 0.38553 0.94468 0.04499 0.0
C971 C 0.38188 0.91849 0.04712 0.0
C972 C 0.40432 0.91456 0.04227 0.0
C973 C 0.43005 0.93649 0.0365 0.0
H974 H 0.15983 0.4377 0.04169 0.0
H975 H 0.16597 0.48258 0.09503 0.0
H976 H 0.1215 0.44395 0.02991 0.0
H977 H 0.12828 0.48956 0.08294 0.0
H978 H 0.08075 0.51855 0.03842 0.0
H979 H 0.12113 0.51404 0.04735 0.0
H980 H 0.06898 0.4271 0.049 0.0
H981 H 0.02849 0.43162 0.0407 0.0
C982 C 0.15314 0.4491 0.05078 0.0
C983 C 0.16581 0.45958 0.06931 0.0
C984 C 0.13125 0.45264 0.04406 0.0
C985 C 0.12207 0.46734 0.05548 0.0
C986 C 0.13511 0.47831 0.07379 0.0
C987 C 0.15652 0.47419 0.08075 0.0
C988 C 0.07802 0.49848 0.04038 0.0
C989 C 0.05156 0.47537 0.03852 0.0
C990 C 0.10106 0.49593 0.04563 0.0
C991 C 0.09814 0.47021 0.0488 0.0
C992 C 0.07182 0.44712 0.04649 0.0
C993 C 0.04871 0.44971 0.04176 0.0
H994 H 0.51718 0.69543 0.07368 0.0
H995 H 0.60494 0.7228 0.07399 0.0
H996 H 0.50756 0.65182 0.06046 0.0
H997 H 0.59538 0.67909 0.06045 0.0
H998 H 0.56402 0.58776 0.05626 0.0
H999 H 0.57485 0.63185 0.06909 0.0
H1000 H 0.51263 0.63173 0.03047 0.0
H1001 H 0.50093 0.58704 0.01821 0.0
C1002 C 0.53446 0.69217 0.07076 0.0
C1003 C 0.56184 0.71262 0.07474 0.0
C1004 C 0.52895 0.66719 0.0631 0.0
C1005 C 0.55069 0.662 0.05918 0.0
C1006 C 0.5781 0.68232 0.06346 0.0
C1007 C 0.58361 0.70735 0.07121 0.0
C1008 C 0.55264 0.59709 0.05043 0.0
C1009 C 0.53164 0.5838 0.0361 0.0
C1010 C 0.55903 0.62254 0.05771 0.0
C1011 C 0.54463 0.63538 0.05084 0.0
C1012 C 0.52389 0.62227 0.0363 0.0
C1013 C 0.5174 0.59674 0.02908 0.0
H1014 H 0.81437 0.31151 0.96929 0.0
H1015 H 0.87651 0.28926 0.95705 0.0
H1016 H 0.85027 0.35592 0.98076 0.0
H1017 H 0.91254 0.33316 0.96945 0.0
H1018 H 0.97443 0.42273 0.97797 0.0
H1019 H 0.93894 0.37978 0.96421 0.0
H1020 H 0.87987 0.37762 1.00717 0.0
H1021 H 0.91471 0.42135 0.01985 0.0
C1022 C 0.83579 0.31617 0.96916 0.0
C1023 C 0.84267 0.29697 0.9623 0.0
C1024 C 0.85642 0.34156 0.9759 0.0
C1025 C 0.88449 0.34827 0.97631 0.0
C1026 C 0.89132 0.32906 0.96914 0.0
C1027 C 0.87068 0.30381 0.96208 0.0
C1028 C 0.95385 0.41312 0.98448 0.0
C1029 C 0.94765 0.42548 1.00027 0.0
C1030 C 0.93346 0.38827 0.97665 0.0
C1031 C 0.90634 0.37493 0.98452 0.0
C1032 C 0.90027 0.3873 1.0004 0.0
C1033 C 0.92051 0.41232 1.00799 0.0
H1034 H 0.68868 0.52273 0.9451 0.0
H1035 H 0.73043 0.57671 0.99422 0.0
H1036 H 0.64384 0.51518 0.95778 0.0
H1037 H 0.68578 0.56975 1.00656 0.0
H1038 H 0.60312 0.57599 0.9986 0.0
H1039 H 0.64834 0.5813 0.98977 0.0
H1040 H 0.61336 0.49459 0.99251 0.0
H1041 H 0.56817 0.48934 1.00198 0.0
C1042 C 0.68826 0.53307 0.95852 0.0
C1043 C 0.71307 0.55036 0.96863 0.0
C1044 C 0.66263 0.52857 0.96587 0.0
C1045 C 0.66132 0.54177 0.98322 0.0
C1046 C 0.68615 0.55927 0.99319 0.0
C1047 C 0.71167 0.56326 0.98612 0.0
C1048 C 0.60527 0.55812 0.99775 0.0
C1049 C 0.58227 0.53232 1.00131 0.0
C1050 C 0.63111 0.56116 0.99266 0.0
C1051 C 0.63434 0.53836 0.99035 0.0
C1052 C 0.61141 0.5125 0.99412 0.0
C1053 C 0.58565 0.50951 0.99972 0.0
H1054 H 0.49372 0.19145 0.97365 0.0
H1055 H 0.41345 0.12613 0.95605 0.0
H1056 H 0.50691 0.15877 0.9851 0.0
H1057 H 0.42572 0.09325 0.96846 0.0
H1058 H 0.46199 0.03921 0.97685 0.0
H1059 H 0.45188 0.07262 0.96339 0.0
H1060 H 0.49985 0.1281 0.01053 0.0
H1061 H 0.51181 0.09514 0.02314 0.0
C1062 C 0.47895 0.17 0.97223 0.0
C1063 C 0.45268 0.16121 0.96387 0.0
C1064 C 0.48633 0.15124 0.97899 0.0
C1065 C 0.46738 0.12322 0.97791 0.0
C1066 C 0.44114 0.11456 0.96926 0.0
C1067 C 0.434 0.13335 0.96216 0.0
C1068 C 0.47055 0.05853 0.98439 0.0
C1069 C 0.48752 0.06425 1.00132 0.0
C1070 C 0.46447 0.07773 0.97671 0.0
C1071 C 0.47472 0.10312 0.9859 0.0
C1072 C 0.49178 0.10892 1.00283 0.0
C1073 C 0.49833 0.08982 0.01032 0.0
H1074 H 0.7253 0.14343 0.99505 0.0
H1075 H 0.68161 0.17731 0.9643 0.0
H1076 H 0.68104 0.10325 1.00369 0.0
H1077 H 0.63722 0.13699 0.9725 0.0
H1078 H 0.5625 0.07552 1.00831 0.0
H1079 H 0.60758 0.11545 1.00129 0.0
H1080 H 0.64199 0.06358 0.98931 0.0
H1081 H 0.59712 0.02386 0.9969 0.0
C1082 C 0.70615 0.14189 0.98976 0.0
C1083 C 0.70667 0.16306 0.97876 0.0
C1084 C 0.68081 0.11897 0.99474 0.0
C1085 C 0.65549 0.1169 0.9889 0.0
C1086 C 0.65625 0.13806 0.97752 0.0
C1087 C 0.68162 0.16095 0.97255 0.0
C1088 C 0.57987 0.07275 1.00461 0.0
C1089 C 0.5765 0.04664 1.00352 0.0
C1090 C 0.60562 0.09559 1.00029 0.0
C1091 C 0.62844 0.09277 0.99458 0.0
C1092 C 0.62503 0.06659 0.99385 0.0
C1093 C 0.59932 0.04382 0.99815 0.0
H1094 H 0.82693 0.51291 1.00512 0.0
H1095 H 0.87184 0.5719 0.95935 0.0
H1096 H 0.8673 0.50768 0.01132 0.0
H1097 H 0.91234 0.5663 0.96505 0.0
H1098 H 0.98882 0.57207 0.99605 0.0
H1099 H 0.94811 0.57653 0.98922 0.0
H1100 H 0.89521 0.49028 0.99785 0.0
H1101 H 0.93602 0.4861 1.0049 0.0
C1102 C 0.84543 0.52445 0.99616 0.0
C1103 C 0.84633 0.54264 0.98168 0.0
C1104 C 0.86856 0.5214 0.99965 0.0
C1105 C 0.89323 0.53651 0.9887 0.0
C1106 C 0.89388 0.55455 0.97396 0.0
C1107 C 0.87065 0.55762 0.97052 0.0
C1108 C 0.96842 0.55414 0.99661 0.0
C1109 C 0.96556 0.52888 1.00153 0.0
C1110 C 0.94508 0.55662 0.99251 0.0
C1111 C 0.91821 0.53379 0.99294 0.0
C1112 C 0.91545 0.50841 0.99765 0.0
C1113 C 0.93885 0.50597 1.00177 0.0
H1114 H 0.46257 0.28987 0.01568 0.0
H1115 H 0.43859 0.29381 0.95525 0.0
H1116 H 0.47709 0.33758 0.02049 0.0
H1117 H 0.45359 0.34212 0.95982 0.0
H1118 H 0.45458 0.41874 0.98644 0.0
H1119 H 0.44083 0.37174 0.97883 0.0
H1120 H 0.51378 0.38159 0.0092 0.0
H1121 H 0.52742 0.4283 0.01689 0.0
C1122 C 0.46054 0.30115 1.00342 0.0
C1123 C 0.4496 0.28853 0.98514 0.0
C1124 C 0.46901 0.32847 1.00609 0.0
C1125 C 0.46674 0.34372 0.99048 0.0
C1126 C 0.45546 0.33086 0.97215 0.0
C1127 C 0.447 0.30337 0.96948 0.0
C1128 C 0.46776 0.41092 0.99139 0.0
C1129 C 0.49181 0.42712 1.00263 0.0
C1130 C 0.45994 0.38402 0.98693 0.0
C1131 C 0.47603 0.37284 0.99362 0.0
C1132 C 0.5006 0.38941 1.0042 0.0
C1133 C 0.50841 0.41621 0.00863 0.0
H1134 H 0.13978 0.72565 0.05524 0.0
H1135 H 0.19844 0.69953 0.06916 0.0
H1136 H 0.10356 0.67844 0.04993 0.0
H1137 H 0.1623 0.65224 0.06419 0.0
H1138 H 0.10412 0.57958 0.02492 0.0
H1139 H 0.13831 0.62526 0.03508 0.0
H1140 H 0.07423 0.63367 0.06502 0.0
H1141 H 0.03973 0.58802 0.05439 0.0
C1142 C 0.14462 0.70965 0.05768 0.0
C1143 C 0.17164 0.71596 0.06274 0.0
C1144 C 0.12395 0.68264 0.05465 0.0
C1145 C 0.13006 0.66152 0.05646 0.0
C1146 C 0.15698 0.668 0.06238 0.0
C1147 C 0.17759 0.69499 0.06544 0.0
C1148 C 0.09722 0.59115 0.03358 0.0
C1149 C 0.06906 0.58018 0.0386 0.0
C1150 C 0.11694 0.61729 0.03964 0.0
C1151 C 0.10907 0.63318 0.05093 0.0
C1152 C 0.08096 0.62209 0.05619 0.0
C1153 C 0.0612 0.59585 0.05017 0.0
H1154 H 0.31889 0.49766 0.03431 0.0
H1155 H 0.30525 0.44131 0.08173 0.0
H1156 H 0.36365 0.50135 0.02687 0.0
H1157 H 0.35059 0.44539 0.07475 0.0
H1158 H 0.4194 0.43711 0.0435 0.0
H1159 H 0.37451 0.4334 0.05055 0.0
H1160 H 0.40998 0.51905 0.03891 0.0
H1161 H 0.45472 0.52248 0.03167 0.0
C1162 C 0.32574 0.4863 0.0433 0.0
C1163 C 0.30879 0.46933 0.05864 0.0
C1164 C 0.35147 0.4885 0.03911 0.0
C1165 C 0.36099 0.47376 0.05019 0.0
C1166 C 0.34391 0.45682 0.06571 0.0
C1167 C 0.31803 0.45461 0.06987 0.0
C1168 C 0.41746 0.45506 0.04227 0.0
C1169 C 0.44042 0.47993 0.03658 0.0
C1170 C 0.39178 0.45302 0.04651 0.0
C1171 C 0.38842 0.47591 0.04542 0.0
C1172 C 0.41153 0.50086 0.03969 0.0
C1173 C 0.43723 0.50287 0.03545 0.0
H1174 H 0.54874 0.8512 0.09536 0.0
H1175 H 0.55284 0.83343 0.03343 0.0
H1176 H 0.54357 0.89011 0.08563 0.0
H1177 H 0.54763 0.87204 0.02363 0.0
H1178 H 0.49352 0.91225 0.01712 0.0
H1179 H 0.50593 0.87858 0.02697 0.0
H1180 H 0.56759 0.93606 0.06736 0.0
H1181 H 0.55572 0.97023 0.05716 0.0
C1182 C 0.54924 0.85613 0.07972 0.0
C1183 C 0.5513 0.83969 0.06508 0.0
C1184 C 0.54625 0.87827 0.07414 0.0
C1185 C 0.54488 0.88386 0.05387 0.0
C1186 C 0.54826 0.86798 0.03934 0.0
C1187 C 0.55148 0.84609 0.04492 0.0
C1188 C 0.51007 0.91798 0.02782 0.0
C1189 C 0.52395 0.94417 0.03601 0.0
C1190 C 0.51713 0.89862 0.03351 0.0
C1191 C 0.53793 0.90481 0.04778 0.0
C1192 C 0.55148 0.93077 0.05632 0.0
C1193 C 0.54467 0.95031 0.05042 0.0
H1194 H 0.96494 0.17001 0.37457 0.0
H1195 H 0.98902 0.20526 0.43341 0.0
H1196 H 0.00781 0.20728 0.36095 0.0
H1197 H 0.03069 0.24327 0.41927 0.0
H1198 H 0.08103 0.31989 0.37839 0.0
H1199 H 0.03675 0.28105 0.38868 0.0
H1200 H 0.06617 0.22683 0.37143 0.0
H1201 H 0.11116 0.26586 0.36204 0.0
C1202 C 0.97922 0.18548 0.38469 0.0
C1203 C 0.97322 0.18425 0.40526 0.0
C1204 C 1.0037 0.20693 0.37676 0.0
C1205 C 0.02242 0.22803 0.38908 0.0
C1206 C 0.01641 0.22724 0.40946 0.0
C1207 C 0.99231 0.20552 0.4175 0.0
C1208 C 0.0779 0.29965 0.37649 0.0
C1209 C 0.09939 0.2959 0.36908 0.0
C1210 C 0.05263 0.2775 0.38243 0.0
C1211 C 0.04816 0.25106 0.38085 0.0
C1212 C 0.06913 0.24708 0.37266 0.0
C1213 C 0.09474 0.26936 0.36713 0.0
H1214 H 0.83127 0.81576 0.4287 0.0
H1215 H 0.82515 0.77044 0.37562 0.0
H1216 H 0.79356 0.82261 0.41646 0.0
H1217 H 0.7868 0.77656 0.36369 0.0
H1218 H 0.69393 0.76488 0.37366 0.0
H1219 H 0.73416 0.76007 0.38236 0.0
H1220 H 0.78671 0.84696 0.38091 0.0
H1221 H 0.74666 0.85175 0.37162 0.0
C1222 C 0.82181 0.80723 0.41445 0.0
C1223 C 0.83113 0.79255 0.40312 0.0
C1224 C 0.80037 0.81127 0.40741 0.0
C1225 C 0.78733 0.80015 0.38912 0.0
C1226 C 0.79652 0.78535 0.37783 0.0
C1227 C 0.81845 0.7819 0.38463 0.0
C1228 C 0.71419 0.7829 0.37486 0.0
C1229 C 0.71725 0.80862 0.37152 0.0
C1230 C 0.73716 0.78014 0.37982 0.0
C1231 C 0.76352 0.80313 0.38228 0.0
C1232 C 0.76662 0.82891 0.37906 0.0
C1233 C 0.74375 0.83163 0.3736 0.0
H1234 H 0.21485 0.0312 0.43375 0.0
H1235 H 0.24861 0.06215 0.37523 0.0
H1236 H 0.20236 0.98554 0.42274 0.0
H1237 H 0.23444 0.01639 0.36416 0.0
H1238 H 0.17155 0.92461 0.34962 0.0
H1239 H 0.18379 0.96981 0.36138 0.0
H1240 H 0.23308 0.96341 0.40836 0.0
H1241 H 0.22207 0.91879 0.39617 0.0
C1242 C 0.21968 0.02843 0.41861 0.0
C1243 C 0.23258 0.05056 0.40539 0.0
C1244 C 0.21232 0.00224 0.41231 0.0
C1245 C 0.21722 0.99757 0.39258 0.0
C1246 C 0.23006 0.01948 0.37937 0.0
C1247 C 0.23797 0.04569 0.38574 0.0
C1248 C 0.18536 0.93292 0.36222 0.0
C1249 C 0.19627 0.91819 0.37161 0.0
C1250 C 0.19217 0.95872 0.36904 0.0
C1251 C 0.20937 0.96997 0.38573 0.0
C1252 C 0.21968 0.95506 0.3955 0.0
C1253 C 0.21341 0.92955 0.38842 0.0
H1254 H 0.47996 0.6455 0.30196 0.0
H1255 H 0.54131 0.62104 0.29388 0.0
H1256 H 0.51575 0.68954 0.31409 0.0
H1257 H 0.57714 0.66472 0.30676 0.0
H1258 H 0.63973 0.75477 0.31242 0.0
H1259 H 0.60414 0.71112 0.29974 0.0
H1260 H 0.54482 0.71215 0.3409 0.0
H1261 H 0.57989 0.75652 0.35258 0.0
C1262 C 0.50112 0.64948 0.30302 0.0
C1263 C 0.50782 0.62981 0.29699 0.0
C1264 C 0.52169 0.67472 0.31008 0.0
C1265 C 0.54952 0.68087 0.31156 0.0
C1266 C 0.55613 0.66104 0.30555 0.0
C1267 C 0.53557 0.63591 0.29824 0.0
C1268 C 0.61909 0.74573 0.31876 0.0
C1269 C 0.61288 0.75917 0.33375 0.0
C1270 C 0.59864 0.72048 0.31158 0.0
C1271 C 0.57145 0.70781 0.31928 0.0
C1272 C 0.56533 0.72127 0.33433 0.0
C1273 C 0.58567 0.74667 0.34132 0.0
H1274 H 0.35437 0.85663 0.27922 0.0
H1275 H 0.3967 0.90904 0.32897 0.0
H1276 H 0.30979 0.84942 0.29217 0.0
H1277 H 0.35227 0.90245 0.34157 0.0
H1278 H 0.27042 0.91072 0.33356 0.0
H1279 H 0.31537 0.91536 0.32469 0.0
H1280 H 0.2791 0.82848 0.32704 0.0
H1281 H 0.23421 0.8239 0.33657 0.0
C1282 C 0.35414 0.86665 0.29287 0.0
C1283 C 0.37905 0.88344 0.30305 0.0
C1284 C 0.32863 0.86236 0.30036 0.0
C1285 C 0.32755 0.87529 0.31792 0.0
C1286 C 0.35247 0.89219 0.32803 0.0
C1287 C 0.37786 0.89594 0.32082 0.0
C1288 C 0.27222 0.89267 0.3326 0.0
C1289 C 0.24894 0.86702 0.33611 0.0
C1290 C 0.29791 0.89532 0.32751 0.0
C1291 C 0.30073 0.87229 0.32509 0.0
C1292 C 0.2775 0.84657 0.32874 0.0
C1293 C 0.2519 0.84397 0.33436 0.0
H1294 H 0.13084 0.49163 0.274 0.0
H1295 H 0.09559 0.48706 0.33236 0.0
H1296 H 0.14507 0.45932 0.28481 0.0
H1297 H 0.11138 0.45626 0.34325 0.0
H1298 H 0.17512 0.4272 0.35827 0.0
H1299 H 0.162 0.46009 0.3469 0.0
H1300 H 0.11651 0.40751 0.29799 0.0
H1301 H 0.12838 0.37415 0.30965 0.0
C1302 C 0.12602 0.48378 0.28906 0.0
C1303 C 0.11223 0.49228 0.3023 0.0
C1304 C 0.13441 0.46548 0.29527 0.0
C1305 C 0.12963 0.4557 0.31493 0.0
C1306 C 0.11577 0.46397 0.32813 0.0
C1307 C 0.10687 0.48175 0.32184 0.0
C1308 C 0.16203 0.42243 0.34528 0.0
C1309 C 0.15242 0.39771 0.33519 0.0
C1310 C 0.15468 0.44135 0.3387 0.0
C1311 C 0.13826 0.43624 0.32159 0.0
C1312 C 0.12932 0.41196 0.31116 0.0
C1313 C 0.13609 0.39282 0.31797 0.0
H1314 H 0.38889 0.47913 0.32081 0.0
H1315 H 0.34139 0.51047 0.29218 0.0
H1316 H 0.34584 0.4384 0.3308 0.0
H1317 H 0.29824 0.46968 0.3018 0.0
H1318 H 0.22704 0.40857 0.34034 0.0
H1319 H 0.27121 0.44875 0.33183 0.0
H1320 H 0.30597 0.39772 0.31784 0.0
H1321 H 0.262 0.35772 0.32687 0.0
C1322 C 0.36916 0.4769 0.31624 0.0
C1323 C 0.36828 0.49754 0.30546 0.0
C1324 C 0.3445 0.45367 0.32202 0.0
C1325 C 0.31849 0.45079 0.31726 0.0
C1326 C 0.31783 0.47138 0.30602 0.0
C1327 C 0.3425 0.49453 0.30023 0.0
C1328 C 0.24431 0.40603 0.33587 0.0
C1329 C 0.24124 0.38005 0.33457 0.0
C1330 C 0.26953 0.42902 0.3307 0.0
C1331 C 0.29215 0.42651 0.32395 0.0
C1332 C 0.28915 0.40049 0.32313 0.0
C1333 C 0.26394 0.37756 0.32825 0.0
H1334 H 0.53876 0.91855 0.32821 0.0
H1335 H 0.49871 0.84157 0.29801 0.0
H1336 H 0.57914 0.91341 0.33488 0.0
H1337 H 0.53932 0.83644 0.30418 0.0
H1338 H 0.60296 0.82208 0.33764 0.0
H1339 H 0.56291 0.82768 0.33074 0.0
H1340 H 0.61807 0.9131 0.32004 0.0
H1341 H 0.65785 0.90744 0.32757 0.0
C1342 C 0.53896 0.90081 0.32259 0.0
C1343 C 0.51592 0.88068 0.31231 0.0
C1344 C 0.56208 0.89779 0.32642 0.0
C1345 C 0.56266 0.87445 0.32013 0.0
C1346 C 0.53959 0.85451 0.30951 0.0
C1347 C 0.51646 0.85758 0.3057 0.0
C1348 C 0.60644 0.8421 0.33414 0.0
C1349 C 0.63352 0.86447 0.33367 0.0
C1350 C 0.58349 0.84529 0.32988 0.0
C1351 C 0.58708 0.8709 0.3248 0.0
C1352 C 0.61431 0.89316 0.32419 0.0
C1353 C 0.63718 0.88994 0.32843 0.0
H1354 H 0.12956 0.62485 0.34927 0.0
H1355 H 0.10107 0.62811 0.29017 0.0
H1356 H 0.14527 0.6728 0.35401 0.0
H1357 H 0.11738 0.67669 0.2946 0.0
H1358 H 0.12027 0.75357 0.32184 0.0
H1359 H 0.10639 0.70663 0.31402 0.0
H1360 H 0.18057 0.71677 0.34264 0.0
H1361 H 0.19423 0.76341 0.35067 0.0
C1362 C 0.12693 0.63607 0.33724 0.0
C1363 C 0.11427 0.62314 0.31939 0.0
C1364 C 0.13607 0.66354 0.33986 0.0
C1365 C 0.13279 0.67868 0.32463 0.0
C1366 C 0.12005 0.66556 0.30666 0.0
C1367 C 0.11085 0.63791 0.30406 0.0
C1368 C 0.13369 0.74582 0.32636 0.0
C1369 C 0.15809 0.76209 0.33722 0.0
C1370 C 0.1258 0.71895 0.32177 0.0
C1371 C 0.14221 0.70784 0.32789 0.0
C1372 C 0.16714 0.72449 0.33809 0.0
C1373 C 0.17497 0.75126 0.3427 0.0
H1374 H 0.82641 0.05569 0.39533 0.0
H1375 H 0.87097 0.01492 0.41232 0.0
H1376 H 0.78559 0.01185 0.38701 0.0
H1377 H 0.83037 0.97115 0.4042 0.0
H1378 H 0.77162 0.90767 0.35945 0.0
H1379 H 0.80877 0.95047 0.37201 0.0
H1380 H 0.74858 0.96643 0.40023 0.0
H1381 H 0.71098 0.92335 0.38736 0.0
C1382 C 0.82712 0.03723 0.39776 0.0
C1383 C 0.85155 0.03843 0.40455 0.0
C1384 C 0.80384 0.01218 0.393 0.0
C1385 C 0.80484 0.98803 0.39475 0.0
C1386 C 0.82905 0.98938 0.40242 0.0
C1387 C 0.85218 0.01436 0.40725 0.0
C1388 C 0.76615 0.92028 0.36822 0.0
C1389 C 0.73823 0.9121 0.37225 0.0
C1390 C 0.78754 0.94474 0.37563 0.0
C1391 C 0.78168 0.9618 0.38726 0.0
C1392 C 0.75376 0.95377 0.39126 0.0
C1393 C 0.73225 0.92906 0.38395 0.0
H1394 H 0.98476 0.83161 0.36868 0.0
H1395 H 0.9712 0.77522 0.41605 0.0
H1396 H 0.02973 0.83567 0.36141 0.0
H1397 H 0.01675 0.77968 0.40925 0.0
H1398 H 0.08599 0.77189 0.37829 0.0
H1399 H 0.04099 0.76796 0.38524 0.0
H1400 H 0.07606 0.85352 0.37341 0.0
H1401 H 0.12092 0.85717 0.36626 0.0
C1402 C 0.99167 0.82032 0.37771 0.0
C1403 C 0.97467 0.80323 0.39298 0.0
C1404 C 0.01753 0.82274 0.37361 0.0
C1405 C 0.02714 0.80809 0.38472 0.0
C1406 C 0.01001 0.79105 0.40018 0.0
C1407 C 0.98401 0.78862 0.40424 0.0
C1408 C 0.08395 0.78979 0.37701 0.0
C1409 C 0.10685 0.81469 0.3713 0.0
C1410 C 0.0582 0.78761 0.38119 0.0
C1411 C 0.05467 0.81041 0.38001 0.0
C1412 C 0.07772 0.83539 0.37425 0.0
C1413 C 0.10351 0.83753 0.37007 0.0
H1414 H 0.21842 0.16723 0.3576 0.0
H1415 H 0.24012 0.19578 0.41798 0.0
H1416 H 0.20285 0.19976 0.35163 0.0
H1417 H 0.22388 0.22827 0.4123 0.0
H1418 H 0.22415 0.30345 0.38528 0.0
H1419 H 0.23699 0.26956 0.39368 0.0
H1420 H 0.16685 0.20957 0.3601 0.0
H1421 H 0.15424 0.24353 0.35143 0.0
C1422 C 0.21954 0.18042 0.36965 0.0
C1423 C 0.23034 0.1792 0.3882 0.0
C1424 C 0.21046 0.19891 0.3663 0.0
C1425 C 0.21195 0.21658 0.38151 0.0
C1426 C 0.22267 0.21512 0.40022 0.0
C1427 C 0.23181 0.19652 0.40354 0.0
C1428 C 0.21139 0.28302 0.37972 0.0
C1429 C 0.18842 0.27636 0.36738 0.0
C1430 C 0.21866 0.26351 0.38468 0.0
C1431 C 0.20309 0.23686 0.37747 0.0
C1432 C 0.17964 0.23004 0.36559 0.0
C1433 C 0.1724 0.24954 0.36061 0.0
H1434 H 0.66116 0.51503 0.75789 0.0
H1435 H 0.61792 0.53014 0.71072 0.0
H1436 H 0.70563 0.55113 0.74473 0.0
H1437 H 0.66227 0.56656 0.69785 0.0
H1438 H 0.74531 0.65269 0.70616 0.0
H1439 H 0.70005 0.61368 0.71454 0.0
H1440 H 0.73483 0.56101 0.71001 0.0
H1441 H 0.78005 0.60005 0.7011 0.0
C1442 C 0.66121 0.52615 0.74477 0.0
C1443 C 0.63615 0.51988 0.73535 0.0
C1444 C 0.68659 0.54657 0.73715 0.0
C1445 C 0.68732 0.56148 0.72022 0.0
C1446 C 0.66225 0.55532 0.71089 0.0
C1447 C 0.63695 0.53454 0.71824 0.0
C1448 C 0.74306 0.63266 0.70651 0.0
C1449 C 0.76598 0.62928 0.70269 0.0
C1450 C 0.71724 0.6104 0.71131 0.0
C1451 C 0.71403 0.5844 0.71302 0.0
C1452 C 0.73683 0.58088 0.70886 0.0
C1453 C 0.76257 0.60313 0.70359 0.0
H1454 H 0.46584 0.09043 0.75374 0.0
H1455 H 0.52297 0.15911 0.71811 0.0
H1456 H 0.42792 0.09661 0.74277 0.0
H1457 H 0.48447 0.1638 0.70572 0.0
H1458 H 0.41326 0.18331 0.7041 0.0
H1459 H 0.45275 0.17796 0.71333 0.0
H1460 H 0.3982 0.09117 0.71712 0.0
H1461 H 0.35883 0.09699 0.70885 0.0
C1462 C 0.47047 0.10689 0.74354 0.0
C1463 C 0.49785 0.12435 0.73705 0.0
C1464 C 0.44841 0.11013 0.73687 0.0
C1465 C 0.45277 0.13066 0.72315 0.0
C1466 C 0.4801 0.14795 0.71645 0.0
C1467 C 0.50227 0.14496 0.72336 0.0
C1468 C 0.40989 0.16311 0.70665 0.0
C1469 C 0.38302 0.14051 0.70548 0.0
C1470 C 0.43257 0.15995 0.71195 0.0
C1471 C 0.42895 0.13409 0.71622 0.0
C1472 C 0.40199 0.1115 0.7145 0.0
C1473 C 0.37936 0.11474 0.70951 0.0
H1474 H 0.88453 0.36695 0.76677 0.0
H1475 H 0.91837 0.39728 0.70815 0.0
H1476 H 0.8717 0.32111 0.75598 0.0
H1477 H 0.90382 0.35135 0.69731 0.0
H1478 H 0.83918 0.2597 0.68328 0.0
H1479 H 0.85219 0.30508 0.69503 0.0
H1480 H 0.90214 0.2983 0.74131 0.0
H1481 H 0.89041 0.25346 0.72905 0.0
C1482 C 0.88934 0.36401 0.75166 0.0
C1483 C 0.90233 0.38602 0.73834 0.0
C1484 C 0.88178 0.33772 0.74549 0.0
C1485 C 0.88654 0.33282 0.72579 0.0
C1486 C 0.89955 0.35462 0.71249 0.0
C1487 C 0.90767 0.38093 0.71874 0.0
C1488 C 0.85333 0.26797 0.6957 0.0
C1489 C 0.86428 0.2531 0.70482 0.0
C1490 C 0.86056 0.29387 0.70253 0.0
C1491 C 0.8782 0.30508 0.719 0.0
C1492 C 0.88844 0.28999 0.72859 0.0
C1493 C 0.88176 0.26436 0.72148 0.0
H1494 H 0.20751 0.95138 0.63021 0.0
H1495 H 0.14807 0.97901 0.63278 0.0
H1496 H 0.24352 0.99518 0.64284 0.0
H1497 H 0.18403 0.02297 0.64487 0.0
H1498 H 0.24615 0.08897 0.68514 0.0
H1499 H 0.21115 0.04472 0.67316 0.0
H1500 H 0.27211 0.04177 0.63484 0.0
H1501 H 0.30753 0.08551 0.64767 0.0
C1502 C 0.20223 0.96694 0.63328 0.0
C1503 C 0.1749 0.96166 0.63061 0.0
C1504 C 0.22289 0.99211 0.64048 0.0
C1505 C 0.21678 0.01273 0.64502 0.0
C1506 C 0.18947 0.00748 0.64201 0.0
C1507 C 0.16882 0.98228 0.63499 0.0
C1508 C 0.25227 0.07876 0.67441 0.0
C1509 C 0.27985 0.09079 0.66762 0.0
C1510 C 0.23202 0.05344 0.66728 0.0
C1511 C 0.23864 0.03953 0.65293 0.0
C1512 C 0.26624 0.0516 0.6461 0.0
C1513 C 0.28657 0.07685 0.65337 0.0
H1514 H 0.06453 0.24286 0.66094 0.0
H1515 H 0.02141 0.19138 0.61095 0.0
H1516 H 0.02047 0.23688 0.6738 0.0
H1517 H 0.97715 0.18476 0.62415 0.0
H1518 H 0.93927 0.24627 0.66712 0.0
H1519 H 0.98389 0.25054 0.65775 0.0
H1520 H 0.94669 0.16353 0.65901 0.0
H1521 H 0.90214 0.15929 0.66904 0.0
C1522 C 0.04559 0.23015 0.65276 0.0
C1523 C 0.04644 0.21768 0.63488 0.0
C1524 C 0.02041 0.22673 0.66013 0.0
C1525 C 0.99536 0.2102 0.65006 0.0
C1526 C 0.99611 0.19741 0.63232 0.0
C1527 C 0.02142 0.20137 0.62468 0.0
C1528 C 0.9408 0.2281 0.66582 0.0
C1529 C 0.91734 0.2025 0.66913 0.0
C1530 C 0.9663 0.23054 0.66043 0.0
C1531 C 0.96874 0.20738 0.65753 0.0
C1532 C 0.94537 0.18172 0.66106 0.0
C1533 C 0.91996 0.1793 0.66698 0.0
H1534 H 0.848 0.86082 0.62789 0.0
H1535 H 0.75886 0.80922 0.62815 0.0
H1536 H 0.85309 0.82477 0.64316 0.0
H1537 H 0.76395 0.77302 0.64352 0.0
H1538 H 0.78746 0.70622 0.64949 0.0
H1539 H 0.7806 0.74195 0.6358 0.0
H1540 H 0.84495 0.80025 0.67431 0.0
H1541 H 0.85245 0.7646 0.68766 0.0
C1542 C 0.82945 0.84184 0.63137 0.0
C1543 C 0.803 0.83796 0.62688 0.0
C1544 C 0.83238 0.82118 0.64019 0.0
C1545 C 0.80894 0.79605 0.64473 0.0
C1546 C 0.78246 0.79204 0.64006 0.0
C1547 C 0.77953 0.81276 0.63122 0.0
C1548 C 0.8001 0.72661 0.65516 0.0
C1549 C 0.82055 0.73247 0.66971 0.0
C1550 C 0.796 0.7471 0.64737 0.0
C1551 C 0.81226 0.77401 0.65389 0.0
C1552 C 0.83231 0.7798 0.66875 0.0
C1553 C 0.83642 0.75928 0.67657 0.0
H1554 H 0.05506 0.81549 0.65593 0.0
H1555 H 0.00593 0.84418 0.62621 0.0
H1556 H 0.01255 0.7745 0.66648 0.0
H1557 H 0.96339 0.80321 0.63643 0.0
H1558 H 0.89301 0.74247 0.67517 0.0
H1559 H 0.93694 0.78296 0.66689 0.0
H1560 H 0.97301 0.73288 0.65356 0.0
H1561 H 0.92917 0.69249 0.66234 0.0
C1562 C 0.03511 0.81265 0.65131 0.0
C1563 C 0.03358 0.83259 0.64004 0.0
C1564 C 0.01078 0.78929 0.65739 0.0
C1565 C 0.9845 0.78563 0.65246 0.0
C1566 C 0.98322 0.80554 0.64079 0.0
C1567 C 0.00753 0.8288 0.63468 0.0
C1568 C 0.9105 0.74018 0.67095 0.0
C1569 C 0.90782 0.71436 0.66972 0.0
C1570 C 0.9356 0.76335 0.66591 0.0
C1571 C 0.95849 0.7612 0.65934 0.0
C1572 C 0.95594 0.73536 0.65869 0.0
C1573 C 0.93083 0.71222 0.66367 0.0
H1574 H 0.16412 0.17231 0.63098 0.0
H1575 H 0.20384 0.24922 0.6613 0.0
H1576 H 0.20469 0.16719 0.6374 0.0
H1577 H 0.24418 0.24409 0.6682 0.0
H1578 H 0.32299 0.23834 0.66087 0.0
H1579 H 0.28316 0.24388 0.6533 0.0
H1580 H 0.22813 0.15849 0.66419 0.0
H1581 H 0.26824 0.153 0.67114 0.0
C1582 C 0.18178 0.1883 0.63876 0.0
C1583 C 0.18118 0.21138 0.64533 0.0
C1584 C 0.20488 0.18524 0.64271 0.0
C1585 C 0.22784 0.20517 0.65342 0.0
C1586 C 0.22719 0.22848 0.65968 0.0
C1587 C 0.2041 0.2315 0.65571 0.0
C1588 C 0.30233 0.22082 0.66178 0.0
C1589 C 0.29872 0.19539 0.66707 0.0
C1590 C 0.27944 0.22398 0.65751 0.0
C1591 C 0.25225 0.20168 0.65816 0.0
C1592 C 0.24869 0.17611 0.66331 0.0
C1593 C 0.27167 0.17298 0.6676 0.0
H1594 H 0.82419 0.99278 0.60301 0.0
H1595 H 0.81517 0.96535 0.66387 0.0
H1596 H 0.82328 0.03352 0.61415 0.0
H1597 H 0.81424 0.00576 0.67506 0.0
H1598 H 0.86087 0.09779 0.68659 0.0
H1599 H 0.85341 0.05451 0.67474 0.0
H1600 H 0.79336 0.05065 0.63221 0.0
H1601 H 0.80024 0.09415 0.64452 0.0
C1602 C 0.82139 0.99527 0.61869 0.0
C1603 C 0.81972 0.97621 0.63267 0.0
C1604 C 0.82082 0.01844 0.62506 0.0
C1605 C 0.81893 0.02286 0.64549 0.0
C1606 C 0.81601 0.003 0.65926 0.0
C1607 C 0.81639 0.97987 0.65289 0.0
C1608 C 0.84561 0.08763 0.67502 0.0
C1609 C 0.83074 0.0993 0.66684 0.0
C1610 C 0.84142 0.06277 0.66817 0.0
C1611 C 0.82256 0.04905 0.65272 0.0
C1612 C 0.80798 0.06081 0.64418 0.0
C1613 C 0.8119 0.08566 0.65127 0.0
H1614 H 0.53123 0.36611 0.73406 0.0
H1615 H 0.47234 0.39187 0.71998 0.0
H1616 H 0.4952 0.31873 0.72923 0.0
H1617 H 0.43623 0.3446 0.71479 0.0
H1618 H 0.37248 0.25441 0.71967 0.0
H1619 H 0.40703 0.30015 0.73 0.0
H1620 H 0.47103 0.29115 0.70049 0.0
H1621 H 0.43676 0.24531 0.69067 0.0
C1622 C 0.51035 0.36147 0.73032 0.0
C1623 C 0.5043 0.38236 0.72756 0.0
C1624 C 0.4898 0.33443 0.72734 0.0
C1625 C 0.46284 0.32782 0.72143 0.0
C1626 C 0.45665 0.34888 0.71951 0.0
C1627 C 0.47726 0.37593 0.72248 0.0
C1628 C 0.39394 0.26212 0.71547 0.0
C1629 C 0.40174 0.24623 0.70412 0.0
C1630 C 0.41373 0.28842 0.72132 0.0
C1631 C 0.44184 0.29939 0.71609 0.0
C1632 C 0.44966 0.28329 0.70502 0.0
C1633 C 0.42989 0.25706 0.69915 0.0
H1634 H 0.65221 0.16602 0.70271 0.0
H1635 H 0.63782 0.10565 0.74705 0.0
H1636 H 0.6976 0.17117 0.6952 0.0
H1637 H 0.68374 0.1112 0.74008 0.0
H1638 H 0.75313 0.10557 0.70781 0.0
H1639 H 0.70816 0.10137 0.71527 0.0
H1640 H 0.74377 0.1877 0.70691 0.0
H1641 H 0.78862 0.19162 0.69916 0.0
C1642 C 0.65908 0.15418 0.7111 0.0
C1643 C 0.6417 0.13561 0.72555 0.0
C1644 C 0.68517 0.15718 0.70685 0.0
C1645 C 0.69458 0.14163 0.71698 0.0
C1646 C 0.67716 0.12328 0.73174 0.0
C1647 C 0.65095 0.12024 0.73593 0.0
C1648 C 0.75121 0.12359 0.70738 0.0
C1649 C 0.77427 0.1488 0.70248 0.0
C1650 C 0.72548 0.12126 0.71187 0.0
C1651 C 0.72212 0.14419 0.71186 0.0
C1652 C 0.7453 0.16949 0.70687 0.0
C1653 C 0.77108 0.17178 0.70235 0.0
H1654 H 0.88735 0.50277 0.69023 0.0
H1655 H 0.90872 0.53036 0.75083 0.0
H1656 H 0.87137 0.53509 0.68469 0.0
H1657 H 0.89209 0.56263 0.7456 0.0
H1658 H 0.89129 0.63775 0.71945 0.0
H1659 H 0.90475 0.60415 0.72735 0.0
H1660 H 0.83489 0.54414 0.69357 0.0
H1661 H 0.82163 0.5778 0.68545 0.0
C1662 C 0.88834 0.51571 0.70241 0.0
C1663 C 0.89914 0.51428 0.72091 0.0
C1664 C 0.87902 0.53408 0.69932 0.0
C1665 C 0.88027 0.55139 0.71472 0.0
C1666 C 0.89105 0.54976 0.73337 0.0
C1667 C 0.90042 0.53128 0.73644 0.0
C1668 C 0.87872 0.61737 0.71375 0.0
C1669 C 0.85564 0.61063 0.70149 0.0
C1670 C 0.88635 0.59804 0.71841 0.0
C1671 C 0.87105 0.57147 0.71099 0.0
C1672 C 0.84749 0.56455 0.69921 0.0
C1673 C 0.83988 0.58388 0.69454 0.0
H1674 H 0.47516 0.895 0.24243 0.0
H1675 H 0.43138 0.93949 0.24901 0.0
H1676 H 0.49246 0.9164 0.21002 0.0
H1677 H 0.44778 0.95982 0.21637 0.0
H1678 H 0.46293 0.97348 0.14885 0.0
H1679 H 0.44351 0.94783 0.17978 0.0
H1680 H 0.52495 0.96336 0.19694 0.0
H1681 H 0.54426 0.98897 0.16618 0.0
C1682 C 0.46917 0.9093 0.2371 0.0
C1683 C 0.45168 0.91529 0.2486 0.0
C1684 C 0.47902 0.92147 0.21839 0.0
C1685 C 0.4714 0.93974 0.21049 0.0
C1686 C 0.45369 0.94549 0.2218 0.0
C1687 C 0.44417 0.93366 0.24059 0.0
C1688 C 0.47657 0.97107 0.15911 0.0
C1689 C 0.50516 0.98337 0.15507 0.0
C1690 C 0.46551 0.95658 0.17691 0.0
C1691 C 0.48268 0.95361 0.19093 0.0
C1692 C 0.51108 0.96506 0.18648 0.0
C1693 C 0.52218 0.97989 0.16888 0.0
H1694 H 0.10681 0.52686 0.23501 0.0
H1695 H 0.04067 0.53484 0.26181 0.0
H1696 H 0.08671 0.52382 0.20209 0.0
H1697 H 0.02015 0.5311 0.22915 0.0
H1698 H 1.00121 0.54683 0.16704 0.0
H1699 H 0.02517 0.55355 0.19869 0.0
H1700 H 0.04876 0.49466 0.18148 0.0
H1701 H 0.02543 0.48867 0.14951 0.0
C1702 C 0.08791 0.52787 0.23385 0.0
C1703 C 0.07541 0.53123 0.25101 0.0
C1704 C 0.0763 0.52601 0.21499 0.0
C1705 C 0.05175 0.52723 0.21284 0.0
C1706 C 0.03936 0.53065 0.23007 0.0
C1707 C 0.05109 0.53275 0.24886 0.0
C1708 C 0.01158 0.53537 0.17003 0.0
C1709 C 0.01129 0.5171 0.15583 0.0
C1710 C 0.02523 0.53912 0.18823 0.0
C1711 C 0.03873 0.52446 0.19285 0.0
C1712 C 0.03892 0.50658 0.17842 0.0
C1713 C 0.02548 0.50305 0.16009 0.0
H1714 H 0.49389 0.5986 0.23084 0.0
H1715 H 0.45249 0.5155 0.25129 0.0
H1716 H 0.50632 0.58499 0.19995 0.0
H1717 H 0.46408 0.50178 0.21966 0.0
H1718 H 0.47328 0.49229 0.14929 0.0
H1719 H 0.456 0.50325 0.17967 0.0
H1720 H 0.53959 0.56503 0.19425 0.0
H1721 H 0.5568 0.55379 0.1643 0.0
C1722 C 0.48739 0.57739 0.22881 0.0
C1723 C 0.47275 0.55828 0.24391 0.0
C1724 C 0.49438 0.56961 0.21099 0.0
C1725 C 0.48646 0.5424 0.2075 0.0
C1726 C 0.47044 0.52292 0.22198 0.0
C1727 C 0.46375 0.53079 0.24007 0.0
C1728 C 0.48786 0.50823 0.15901 0.0
C1729 C 0.51638 0.52221 0.15447 0.0
C1730 C 0.47802 0.51435 0.17642 0.0
C1731 C 0.49646 0.535 0.18929 0.0
C1732 C 0.52489 0.54911 0.18456 0.0
C1733 C 0.53475 0.54263 0.16747 0.0
H1734 H 0.90472 0.42858 0.80578 0.0
H1735 H 0.97783 0.49374 0.77844 0.0
H1736 H 0.92614 0.44279 0.83856 0.0
H1737 H 1.00015 0.50715 0.81088 0.0
H1738 H 0.02956 0.53806 0.87265 0.0
H1739 H 1.00375 0.52673 0.84145 0.0
H1740 H 0.95913 0.4423 0.85903 0.0
H1741 H 0.98389 0.45425 0.8907 0.0
C1742 C 0.92543 0.446 0.80686 0.0
C1743 C 0.93959 0.46015 0.78964 0.0
C1744 C 0.93789 0.45404 0.82562 0.0
C1745 C 0.96512 0.47609 0.82758 0.0
C1746 C 0.97902 0.49044 0.81022 0.0
C1747 C 0.96631 0.48272 0.79153 0.0
C1748 C 0.01402 0.51714 0.86981 0.0
C1749 C 0.0087 0.49701 0.88401 0.0
C1750 C 0.99933 0.51053 0.85185 0.0
C1751 C 0.97936 0.48348 0.84742 0.0
C1752 C 0.97389 0.46342 0.86188 0.0
C1753 C 0.98819 0.47017 0.88003 0.0
H1754 H 0.54181 0.43495 0.79527 0.0
H1755 H 0.58484 0.52239 0.79083 0.0
H1756 H 0.52353 0.43768 0.82775 0.0
H1757 H 0.56739 0.52494 0.82353 0.0
H1758 H 0.54969 0.51979 0.89081 0.0
H1759 H 0.5705 0.51507 0.85994 0.0
H1760 H 0.48994 0.45211 0.84027 0.0
H1761 H 0.46922 0.45681 0.87105 0.0
C1762 C 0.54745 0.45476 0.80114 0.0
C1763 C 0.56487 0.47843 0.79022 0.0
C1764 C 0.53704 0.45629 0.81983 0.0
C1765 C 0.54404 0.48153 0.82825 0.0
C1766 C 0.56192 0.50519 0.81761 0.0
C1767 C 0.57204 0.50368 0.79883 0.0
C1768 C 0.53652 0.50474 0.87998 0.0
C1769 C 0.5078 0.48877 0.88333 0.0
C1770 C 0.54838 0.50217 0.86225 0.0
C1771 C 0.53186 0.48326 0.84762 0.0
C1772 C 0.50328 0.46672 0.85128 0.0
C1773 C 0.49138 0.46957 0.86884 0.0
H1774 H 0.52382 0.12037 0.80521 0.0
H1775 H 0.5589 0.07198 0.78462 0.0
H1776 H 0.51384 0.09765 0.8374 0.0
H1777 H 0.54984 0.05003 0.81736 0.0
H1778 H 0.54535 0.03242 0.88657 0.0
H1779 H 0.56149 0.05976 0.85587 0.0
H1780 H 0.47932 0.04783 0.84673 0.0
H1781 H 0.46323 0.02021 0.87696 0.0
C1782 C 0.52957 0.10499 0.80751 0.0
C1783 C 0.54166 0.09769 0.79198 0.0
C1784 C 0.52395 0.09207 0.82607 0.0
C1785 C 0.53074 0.07181 0.82988 0.0
C1786 C 0.54442 0.06562 0.8149 0.0
C1787 C 0.5497 0.0783 0.79613 0.0
C1788 C 0.53091 0.03593 0.87805 0.0
C1789 C 0.50306 0.02428 0.88416 0.0
C1790 C 0.54006 0.05138 0.86044 0.0
C1791 C 0.52169 0.056 0.84888 0.0
C1792 C 0.49405 0.04486 0.85536 0.0
C1793 C 0.4848 0.029 0.87264 0.0
H1794 H 0.08154 0.22261 0.56539 0.0
H1795 H 0.161 0.27682 0.59184 0.0
H1796 H 0.09899 0.24382 0.53296 0.0
H1797 H 0.17824 0.29876 0.55978 0.0
H1798 H 0.21172 0.32167 0.49771 0.0
H1799 H 0.19333 0.2959 0.52834 0.0
H1800 H 0.11166 0.28198 0.51315 0.0
H1801 H 0.13017 0.30684 0.48197 0.0
C1802 C 0.10273 0.23918 0.56429 0.0
C1803 C 0.11989 0.24789 0.58126 0.0
C1804 C 0.11276 0.2515 0.54566 0.0
C1805 C 0.14019 0.27317 0.54345 0.0
C1806 C 0.15725 0.2818 0.56053 0.0
C1807 C 0.14733 0.26925 0.57906 0.0
C1808 C 0.18977 0.31288 0.50086 0.0
C1809 C 0.17244 0.31642 0.48743 0.0
C1810 C 0.17918 0.29825 0.51858 0.0
C1811 C 0.15094 0.28702 0.52366 0.0
C1812 C 0.13343 0.28995 0.50986 0.0
C1813 C 0.14402 0.3043 0.49193 0.0
H1814 H 0.79532 0.90246 0.55801 0.0
H1815 H 0.72398 0.8414 0.58992 0.0
H1816 H 0.7669 0.89337 0.52799 0.0
H1817 H 0.69534 0.83277 0.55998 0.0
H1818 H 0.65338 0.85468 0.50689 0.0
H1819 H 0.68098 0.86362 0.53709 0.0
H1820 H 0.73896 0.84806 0.50531 0.0
H1821 H 0.71066 0.83733 0.47535 0.0
C1822 C 0.77348 0.88732 0.55862 0.0
C1823 C 0.76176 0.87265 0.57623 0.0
C1824 C 0.75732 0.88203 0.54147 0.0
C1825 C 0.72901 0.86239 0.54174 0.0
C1826 C 0.71712 0.84809 0.55946 0.0
C1827 C 0.73345 0.85295 0.57651 0.0
C1828 C 0.6717 0.85263 0.50629 0.0
C1829 C 0.67957 0.84514 0.48848 0.0
C1830 C 0.68758 0.85796 0.52362 0.0
C1831 C 0.71205 0.85656 0.52346 0.0
C1832 C 0.72027 0.84951 0.50573 0.0
C1833 C 0.70409 0.84359 0.48851 0.0
H1834 H 0.1061 0.88114 0.56547 0.0
H1835 H 0.17795 0.88622 0.59404 0.0
H1836 H 0.11922 0.86861 0.53411 0.0
H1837 H 0.19054 0.87255 0.56317 0.0
H1838 H 0.22606 0.88203 0.50144 0.0
H1839 H 0.20981 0.89147 0.53238 0.0
H1840 H 0.1249 0.83694 0.51478 0.0
H1841 H 0.14146 0.82832 0.48332 0.0
C1842 C 0.12432 0.87889 0.56513 0.0
C1843 C 0.1411 0.88478 0.58213 0.0
C1844 C 0.1319 0.8717 0.54716 0.0
C1845 C 0.15629 0.86997 0.54587 0.0
C1846 C 0.17212 0.87446 0.5633 0.0
C1847 C 0.16477 0.88201 0.5811 0.0
C1848 C 0.20392 0.87203 0.50419 0.0
C1849 C 0.18507 0.8543 0.48998 0.0
C1850 C 0.19452 0.87727 0.52205 0.0
C1851 C 0.16595 0.86466 0.5264 0.0
C1852 C 0.14703 0.84722 0.51199 0.0
C1853 C 0.15649 0.84222 0.49394 0.0
H1854 H 0.64205 0.78634 0.11248 0.0
H1855 H 0.57616 0.79485 0.13905 0.0
H1856 H 0.66809 0.80085 0.14355 0.0
H1857 H 0.60155 0.80835 0.17047 0.0
H1858 H 0.66334 0.84992 0.22119 0.0
H1859 H 0.6398 0.84085 0.189 0.0
H1860 H 0.66669 0.7833 0.17535 0.0
H1861 H 0.69088 0.79319 0.20708 0.0
C1862 C 0.63321 0.79142 0.125 0.0
C1863 C 0.60707 0.7894 0.12337 0.0
C1864 C 0.64799 0.79952 0.1429 0.0
C1865 C 0.63681 0.80539 0.15975 0.0
C1866 C 0.61103 0.80428 0.15784 0.0
C1867 C 0.59641 0.79651 0.13982 0.0
C1868 C 0.6641 0.8353 0.21126 0.0
C1869 C 0.67907 0.82238 0.21659 0.0
C1870 C 0.65057 0.83004 0.19281 0.0
C1871 C 0.65144 0.81147 0.17937 0.0
C1872 C 0.6661 0.79827 0.18497 0.0
C1873 C 0.67986 0.80378 0.20325 0.0
H1874 H 0.25195 0.85625 0.12574 0.0
H1875 H 0.2084 0.76883 0.13038 0.0
H1876 H 0.23445 0.85907 0.15835 0.0
H1877 H 0.19008 0.77182 0.16276 0.0
H1878 H 0.13615 0.79161 0.20595 0.0
H1879 H 0.15673 0.78663 0.17519 0.0
H1880 H 0.23749 0.84923 0.19481 0.0
H1881 H 0.21683 0.8542 0.22567 0.0
C1882 C 0.239 0.83759 0.13375 0.0
C1883 C 0.23174 0.81228 0.12523 0.0
C1884 C 0.22886 0.83926 0.15249 0.0
C1885 C 0.21085 0.81569 0.16316 0.0
C1886 C 0.2037 0.79037 0.15481 0.0
C1887 C 0.21414 0.78868 0.13617 0.0
C1888 C 0.15832 0.80422 0.20374 0.0
C1889 C 0.17485 0.82339 0.2182 0.0
C1890 C 0.17014 0.80122 0.18618 0.0
C1891 C 0.19874 0.81758 0.18252 0.0
C1892 C 0.21536 0.83646 0.19713 0.0
C1893 C 0.20358 0.83918 0.21485 0.0
H1894 H 0.24102 0.45334 0.1356 0.0
H1895 H 0.16377 0.38934 0.11223 0.0
H1896 H 0.22998 0.43073 0.16823 0.0
H1897 H 0.15315 0.36622 0.14419 0.0
H1898 H 0.1238 0.34448 0.20684 0.0
H1899 H 0.13826 0.3698 0.1758 0.0
H1900 H 0.22361 0.3936 0.18866 0.0
H1901 H 0.20887 0.36886 0.22037 0.0
C1902 C 0.22194 0.43419 0.13736 0.0
C1903 C 0.20313 0.42325 0.12142 0.0
C1904 C 0.21555 0.42118 0.15606 0.0
C1905 C 0.19031 0.39679 0.15916 0.0
C1906 C 0.17231 0.38536 0.14278 0.0
C1907 C 0.17851 0.39848 0.12431 0.0
C1908 C 0.14568 0.35529 0.20311 0.0
C1909 C 0.16514 0.35447 0.216 0.0
C1910 C 0.15404 0.36966 0.18515 0.0
C1911 C 0.18214 0.38338 0.17927 0.0
C1912 C 0.20181 0.38341 0.19258 0.0
C1913 C 0.1934 0.36922 0.21078 0.0
H1914 H 0.74926 0.55459 0.89957 0.0
H1915 H 0.82797 0.61035 0.92634 0.0
H1916 H 0.76667 0.57589 0.86715 0.0
H1917 H 0.84515 0.63229 0.89427 0.0
H1918 H 0.87888 0.65581 0.83232 0.0
H1919 H 0.86074 0.62974 0.86286 0.0
H1920 H 0.77853 0.61413 0.8475 0.0
H1921 H 0.79681 0.63936 0.81642 0.0
C1922 C 0.77028 0.57148 0.89854 0.0
C1923 C 0.78723 0.58063 0.9156 0.0
C1924 C 0.78028 0.58385 0.87992 0.0
C1925 C 0.80746 0.60598 0.87782 0.0
C1926 C 0.82436 0.61499 0.89496 0.0
C1927 C 0.81447 0.60242 0.91349 0.0
C1928 C 0.85687 0.6466 0.83541 0.0
C1929 C 0.83933 0.6498 0.82197 0.0
C1930 C 0.84642 0.63178 0.85307 0.0
C1931 C 0.8181 0.61999 0.85807 0.0
C1932 C 0.80038 0.62255 0.84426 0.0
C1933 C 0.81084 0.63711 0.82639 0.0
H1934 H 0.37765 0.20232 0.92724 0.0
H1935 H 0.44368 0.19625 0.89831 0.0
H1936 H 0.35587 0.19873 0.89508 0.0
H1937 H 0.42226 0.19325 0.86597 0.0
H1938 H 0.35908 0.15699 0.81475 0.0
H1939 H 0.38339 0.16315 0.84627 0.0
H1940 H 0.35955 0.22142 0.8647 0.0
H1941 H 0.33474 0.21468 0.83341 0.0
C1942 C 0.38777 0.20068 0.91395 0.0
C1943 C 0.4124 0.19958 0.91534 0.0
C1944 C 0.3753 0.19866 0.89546 0.0
C1945 C 0.38724 0.19569 0.87782 0.0
C1946 C 0.41217 0.19503 0.87921 0.0
C1947 C 0.42453 0.19686 0.89775 0.0
C1948 C 0.35928 0.17129 0.82549 0.0
C1949 C 0.34483 0.1852 0.82164 0.0
C1950 C 0.37328 0.1749 0.84356 0.0
C1951 C 0.37338 0.1927 0.85817 0.0
C1952 C 0.35947 0.20711 0.85404 0.0
C1953 C 0.34529 0.20332 0.83606 0.0
H1954 H 0.80238 0.25175 0.89587 0.0
H1955 H 0.80584 0.1868 0.92618 0.0
H1956 H 0.81051 0.2362 0.86407 0.0
H1957 H 0.81579 0.17199 0.89467 0.0
H1958 H 0.81743 0.13971 0.83376 0.0
H1959 H 0.80174 0.15188 0.86393 0.0
H1960 H 0.84476 0.23586 0.84522 0.0
H1961 H 0.85886 0.2231 0.81459 0.0
C1962 C 0.80484 0.23404 0.89563 0.0
C1963 C 0.8034 0.2204 0.9134 0.0
C1964 C 0.80985 0.22525 0.87743 0.0
C1965 C 0.81424 0.20293 0.87657 0.0
C1966 C 0.81214 0.18896 0.89446 0.0
C1967 C 0.80653 0.19746 0.91262 0.0
C1968 C 0.82325 0.16072 0.8361 0.0
C1969 C 0.83934 0.18047 0.82185 0.0
C1970 C 0.81446 0.1678 0.8535 0.0
C1971 C 0.82203 0.19498 0.85733 0.0
C1972 C 0.83792 0.21464 0.84282 0.0
C1973 C 0.84621 0.20742 0.82523 0.0
H1974 H 0.30932 0.15756 0.44519 0.0
H1975 H 0.23638 0.09312 0.47341 0.0
H1976 H 0.33273 0.17052 0.47758 0.0
H1977 H 0.25961 0.10654 0.50593 0.0
H1978 H 0.30902 0.16414 0.56102 0.0
H1979 H 0.28317 0.15223 0.5297 0.0
H1980 H 0.34645 0.14076 0.50193 0.0
H1981 H 0.37152 0.15082 0.53331 0.0
C1982 C 0.29813 0.14656 0.45839 0.0
C1983 C 0.27106 0.12439 0.45685 0.0
C1984 C 0.31155 0.15385 0.47685 0.0
C1985 C 0.29795 0.13946 0.49418 0.0
C1986 C 0.27046 0.118 0.49279 0.0
C1987 C 0.25724 0.11032 0.47424 0.0
C1988 C 0.31727 0.15859 0.54842 0.0
C1989 C 0.34263 0.15867 0.54987 0.0
C1990 C 0.3025 0.15199 0.53043 0.0
C1991 C 0.31302 0.1459 0.51341 0.0
C1992 C 0.33815 0.14582 0.51478 0.0
C1993 C 0.35259 0.1518 0.5328 0.0
H1994 H 0.8917 0.17599 0.44652 0.0
H1995 H 0.90303 0.11398 0.47449 0.0
H1996 H 0.87284 0.18249 0.47777 0.0
H1997 H 0.8848 0.12095 0.50592 0.0
H1998 H 0.88497 0.17345 0.56177 0.0
H1999 H 0.9017 0.1633 0.5311 0.0
H2000 H 0.82837 0.15101 0.50021 0.0
H2001 H 0.81063 0.15943 0.53093 0.0
C2002 C 0.89012 0.16377 0.45936 0.0
C2003 C 0.89868 0.14441 0.45809 0.0
C2004 C 0.87929 0.16742 0.47719 0.0
C2005 C 0.87742 0.15225 0.49425 0.0
C2006 C 0.88613 0.13298 0.49302 0.0
C2007 C 0.89636 0.12888 0.47504 0.0
C2008 C 0.87202 0.16802 0.54862 0.0
C2009 C 0.84645 0.1676 0.549 0.0
C2010 C 0.88176 0.16237 0.531 0.0
C2011 C 0.86645 0.15665 0.51325 0.0
C2012 C 0.84079 0.15577 0.51362 0.0
C2013 C 0.83077 0.16083 0.53127 0.0
H2014 H 0.82924 0.72299 0.44661 0.0
H2015 H 0.90676 0.78703 0.4696 0.0
H2016 H 0.81879 0.70014 0.47867 0.0
H2017 H 0.89589 0.76469 0.50232 0.0
H2018 H 0.87503 0.70316 0.5547 0.0
H2019 H 0.88957 0.7277 0.5229 0.0
H2020 H 0.80417 0.70395 0.51031 0.0
H2021 H 0.78989 0.67883 0.54144 0.0
C2022 C 0.84407 0.7322 0.45862 0.0
C2023 C 0.86872 0.75691 0.4556 0.0
C2024 C 0.83797 0.71924 0.47716 0.0
C2025 C 0.85611 0.73075 0.49346 0.0
C2026 C 0.88136 0.75507 0.49022 0.0
C2027 C 0.88765 0.76794 0.47147 0.0
C2028 C 0.85951 0.7035 0.54515 0.0
C2029 C 0.83128 0.68881 0.55048 0.0
C2030 C 0.86781 0.71757 0.52689 0.0
C2031 C 0.84806 0.71748 0.51364 0.0
C2032 C 0.82 0.70385 0.51962 0.0
C2033 C 0.81176 0.68959 0.53763 0.0
loop_
_geom_bond_atom_site_label_1
_geom_bond_atom_site_label_2
_geom_bond_distance
_geom_bond_site_symmetry_2
_ccdc_geom_bond_type
H0 C3 0.929 . S
H1 C6 0.929 . S
H2 C8 0.930 . S
C3 H0 0.929 . S
C3 C4 1.398 . S
C3 C5 1.396 . S
C4 C3 1.398 . S
C4 C8 1.407 . S
C5 C3 1.396 . S
C5 C6 1.394 . S
C6 H1 0.929 . S
C6 C5 1.394 . S
C6 C7 1.382 . S
C7 C6 1.382 . S
C7 C8 1.392 . S
C7 N9 1.420 . S
C8 H2 0.930 . S
C8 C4 1.407 . S
C8 C7 1.392 . S
N9 C7 1.420 . S
N9 C10 1.244 . S
C10 N9 1.244 . S
H11 C14 0.929 . S
H12 C17 0.929 . S
H13 C19 0.930 . S
C14 H11 0.929 . S
C14 C15 1.398 . S
C14 C16 1.396 . S
C15 C14 1.398 . S
C15 C19 1.407 . S
C16 C14 1.396 . S
C16 C17 1.394 . S
C17 H12 0.929 . S
C17 C16 1.394 . S
C17 C18 1.382 . S
C18 C17 1.382 . S
C18 C19 1.392 . S
C18 N20 1.420 . S
C19 H13 0.930 . S
C19 C15 1.407 . S
C19 C18 1.392 . S
N20 C18 1.420 . S
N20 C21 1.244 . S
C21 N20 1.244 . S
H22 C25 0.929 . S
H23 C28 0.929 . S
H24 C30 0.930 . S
C25 H22 0.929 . S
C25 C26 1.398 . S
C25 C27 1.396 . S
C26 C25 1.398 . S
C26 C30 1.407 . S
C27 C25 1.396 . S
C27 C28 1.394 . S
C28 H23 0.929 . S
C28 C27 1.394 . S
C28 C29 1.382 . S
C29 C28 1.382 . S
C29 C30 1.392 . S
C29 N31 1.420 . S
C30 H24 0.930 . S
C30 C26 1.407 . S
C30 C29 1.392 . S
N31 C29 1.420 . S
N31 C32 1.244 . S
C32 N31 1.244 . S
H33 C36 0.929 . S
H34 C39 0.929 . S
H35 C41 0.930 . S
C36 H33 0.929 . S
C36 C37 1.398 . S
C36 C38 1.396 . S
C37 C36 1.398 . S
C37 C41 1.407 . S
C38 C36 1.396 . S
C38 C39 1.394 . S
C39 H34 0.929 . S
C39 C38 1.394 . S
C39 C40 1.382 . S
C40 C39 1.382 . S
C40 C41 1.392 . S
C40 N42 1.420 . S
C41 H35 0.930 . S
C41 C37 1.407 . S
C41 C40 1.392 . S
N42 C40 1.420 . S
N42 C43 1.244 . S
C43 N42 1.244 . S
H44 C47 0.929 . S
H45 C50 0.929 . S
H46 C52 0.930 . S
C47 H44 0.929 . S
C47 C48 1.398 . S
C47 C49 1.396 . S
C48 C47 1.398 . S
C48 C52 1.407 . S
C49 C47 1.396 . S
C49 C50 1.394 . S
C50 H45 0.929 . S
C50 C49 1.394 . S
C50 C51 1.382 . S
C51 C50 1.382 . S
C51 C52 1.392 . S
C51 N53 1.420 . S
C52 H46 0.930 . S
C52 C48 1.407 . S
C52 C51 1.392 . S
N53 C51 1.420 . S
N53 C54 1.244 . S
C54 N53 1.244 . S
H55 C58 0.929 . S
H56 C61 0.929 . S
H57 C63 0.930 . S
C58 H55 0.929 . S
C58 C59 1.398 . S
C58 C60 1.396 . S
C59 C58 1.398 . S
C59 C63 1.407 . S
C60 C58 1.396 . S
C60 C61 1.394 . S
C61 H56 0.929 . S
C61 C60 1.394 . S
C61 C62 1.382 . S
C62 C61 1.382 . S
C62 C63 1.392 . S
C62 N64 1.420 . S
C63 H57 0.930 . S
C63 C59 1.407 . S
C63 C62 1.392 . S
N64 C62 1.420 . S
N64 C65 1.244 . S
C65 N64 1.244 . S
H66 C69 0.929 . S
H67 C72 0.929 . S
H68 C74 0.930 . S
C69 H66 0.929 . S
C69 C70 1.398 . S
C69 C71 1.396 . S
C70 C69 1.398 . S
C70 C74 1.407 . S
C71 C69 1.396 . S
C71 C72 1.394 . S
C72 H67 0.929 . S
C72 C71 1.394 . S
C72 C73 1.382 . S
C73 C72 1.382 . S
C73 C74 1.392 . S
C73 N75 1.420 . S
C74 H68 0.930 . S
C74 C70 1.407 . S
C74 C73 1.392 . S
N75 C73 1.420 . S
N75 C76 1.244 . S
C76 N75 1.244 . S
H77 C80 0.929 . S
H78 C83 0.929 . S
H79 C85 0.930 . S
C80 H77 0.929 . S
C80 C81 1.398 . S
C80 C82 1.396 . S
C81 C80 1.398 . S
C81 C85 1.407 . S
C82 C80 1.396 . S
C82 C83 1.394 . S
C83 H78 0.929 . S
C83 C82 1.394 . S
C83 C84 1.382 . S
C84 C83 1.382 . S
C84 C85 1.392 . S
C84 N86 1.420 . S
C85 H79 0.930 . S
C85 C81 1.407 . S
C85 C84 1.392 . S
N86 C84 1.420 . S
N86 C87 1.244 . S
C87 N86 1.244 . S
H88 C91 0.929 . S
H89 C94 0.929 . S
H90 C96 0.930 . S
C91 H88 0.929 . S
C91 C92 1.398 . S
C91 C93 1.396 . S
C92 C91 1.398 . S
C92 C96 1.407 . S
C93 C91 1.396 . S
C93 C94 1.394 . S
C94 H89 0.929 . S
C94 C93 1.394 . S
C94 C95 1.382 . S
C95 C94 1.382 . S
C95 C96 1.392 . S
C95 N97 1.420 . S
C96 H90 0.930 . S
C96 C92 1.407 . S
C96 C95 1.392 . S
N97 C95 1.420 . S
N97 C98 1.244 . S
C98 N97 1.244 . S
H99 C102 0.929 . S
H100 C105 0.929 . S
H101 C107 0.930 . S
C102 H99 0.929 . S
C102 C103 1.398 . S
C102 C104 1.396 . S
C103 C102 1.398 . S
C103 C107 1.407 . S
C104 C102 1.396 . S
C104 C105 1.394 . S
C105 H100 0.929 . S
C105 C104 1.394 . S
C105 C106 1.382 . S
C106 C105 1.382 . S
C106 C107 1.392 . S
C106 N108 1.420 . S
C107 H101 0.930 . S
C107 C103 1.407 . S
C107 C106 1.392 . S
N108 C106 1.420 . S
N108 C109 1.244 . S
C109 N108 1.244 . S
H110 C113 0.929 . S
H111 C116 0.929 . S
H112 C118 0.930 . S
C113 H110 0.929 . S
C113 C114 1.398 . S
C113 C115 1.396 . S
C114 C113 1.398 . S
C114 C118 1.407 . S
C115 C113 1.396 . S
C115 C116 1.394 . S
C116 H111 0.929 . S
C116 C115 1.394 . S
C116 C117 1.382 . S
C117 C116 1.382 . S
C117 C118 1.392 . S
C117 N119 1.420 . S
C118 H112 0.930 . S
C118 C114 1.407 . S
C118 C117 1.392 . S
N119 C117 1.420 . S
N119 C120 1.244 . S
C120 N119 1.244 . S
H121 C124 0.929 . S
H122 C127 0.929 . S
H123 C129 0.930 . S
C124 H121 0.929 . S
C124 C125 1.398 . S
C124 C126 1.396 . S
C125 C124 1.398 . S
C125 C129 1.407 . S
C126 C124 1.396 . S
C126 C127 1.394 . S
C127 H122 0.929 . S
C127 C126 1.394 . S
C127 C128 1.382 . S
C128 C127 1.382 . S
C128 C129 1.392 . S
C128 N130 1.420 . S
C129 H123 0.930 . S
C129 C125 1.407 . S
C129 C128 1.392 . S
N130 C128 1.420 . S
N130 C131 1.244 . S
C131 N130 1.244 . S
H132 C135 0.929 . S
H133 C138 0.929 . S
H134 C140 0.930 . S
C135 H132 0.929 . S
C135 C136 1.398 . S
C135 C137 1.396 . S
C136 C135 1.398 . S
C136 C140 1.407 . S
C137 C135 1.396 . S
C137 C138 1.394 . S
C138 H133 0.929 . S
C138 C137 1.394 . S
C138 C139 1.382 . S
C139 C138 1.382 . S
C139 C140 1.392 . S
C139 N141 1.420 . S
C140 H134 0.930 . S
C140 C136 1.407 . S
C140 C139 1.392 . S
N141 C139 1.420 . S
N141 C142 1.244 . S
C142 N141 1.244 . S
H143 C146 0.929 . S
H144 C149 0.929 . S
H145 C151 0.930 . S
C146 H143 0.929 . S
C146 C147 1.398 . S
C146 C148 1.396 . S
C147 C146 1.398 . S
C147 C151 1.407 . S
C148 C146 1.396 . S
C148 C149 1.394 . S
C149 H144 0.929 . S
C149 C148 1.394 . S
C149 C150 1.382 . S
C150 C149 1.382 . S
C150 C151 1.392 . S
C150 N152 1.420 . S
C151 H145 0.930 . S
C151 C147 1.407 . S
C151 C150 1.392 . S
N152 C150 1.420 . S
N152 C153 1.244 . S
C153 N152 1.244 . S
H154 C157 0.929 . S
H155 C160 0.929 . S
H156 C162 0.930 . S
C157 H154 0.929 . S
C157 C158 1.398 . S
C157 C159 1.396 . S
C158 C157 1.398 . S
C158 C162 1.407 . S
C159 C157 1.396 . S
C159 C160 1.394 . S
C160 H155 0.929 . S
C160 C159 1.394 . S
C160 C161 1.382 . S
C161 C160 1.382 . S
C161 C162 1.392 . S
C161 N163 1.420 . S
C162 H156 0.930 . S
C162 C158 1.407 . S
C162 C161 1.392 . S
N163 C161 1.420 . S
N163 C164 1.244 . S
C164 N163 1.244 . S
H165 C168 0.929 . S
H166 C171 0.929 . S
H167 C173 0.930 . S
C168 H165 0.929 . S
C168 C169 1.398 . S
C168 C170 1.396 . S
C169 C168 1.398 . S
C169 C173 1.407 . S
C170 C168 1.396 . S
C170 C171 1.394 . S
C171 H166 0.929 . S
C171 C170 1.394 . S
C171 C172 1.382 . S
C172 C171 1.382 . S
C172 C173 1.392 . S
C172 N174 1.420 . S
C173 H167 0.930 . S
C173 C169 1.407 . S
C173 C172 1.392 . S
N174 C172 1.420 . S
N174 C175 1.244 . S
C175 N174 1.244 . S
H176 C179 0.929 . S
H177 C182 0.929 . S
H178 C184 0.930 . S
C179 H176 0.929 . S
C179 C180 1.398 . S
C179 C181 1.396 . S
C180 C179 1.398 . S
C180 C184 1.407 . S
C181 C179 1.396 . S
C181 C182 1.394 . S
C182 H177 0.929 . S
C182 C181 1.394 . S
C182 C183 1.382 . S
C183 C182 1.382 . S
C183 C184 1.392 . S
C183 N185 1.420 . S
C184 H178 0.930 . S
C184 C180 1.407 . S
C184 C183 1.392 . S
N185 C183 1.420 . S
N185 C186 1.244 . S
C186 N185 1.244 . S
H187 C190 0.929 . S
H188 C193 0.929 . S
H189 C195 0.930 . S
C190 H187 0.929 . S
C190 C191 1.398 . S
C190 C192 1.396 . S
C191 C190 1.398 . S
C191 C195 1.407 . S
C192 C190 1.396 . S
C192 C193 1.394 . S
C193 H188 0.929 . S
C193 C192 1.394 . S
C193 C194 1.382 . S
C194 C193 1.382 . S
C194 C195 1.392 . S
C194 N196 1.420 . S
C195 H189 0.930 . S
C195 C191 1.407 . S
C195 C194 1.392 . S
N196 C194 1.420 . S
N196 C197 1.244 . S
C197 N196 1.244 . S
Gd198 N229 2.661 . S
Gd198 N235 2.601 . S
Gd198 O242 2.545 . S
Gd198 O243 2.606 1_545 S
Gd198 O245 2.429 . S
Gd198 O246 2.545 1_545 S
Gd198 O247 2.412 1_545 S
Gd198 O249 2.362 . S
Gd198 O250 2.324 1_545 S
Gd198 C257 2.828 . S
Gd199 N208 2.661 . S
Gd199 N212 2.601 . S
Gd199 O243 2.362 1_556 S
Gd199 O244 2.324 1_565 S
Gd199 O248 2.545 . S
Gd199 O249 2.606 1_566 S
Gd199 O251 2.429 . S
Gd199 O252 2.545 1_565 S
Gd199 O253 2.412 1_565 S
Gd199 C266 2.828 1_565 S
C200 C203 1.417 . S
C200 C205 1.431 . S
C200 C206 1.412 . S
C201 C204 1.437 . S
C201 C205 1.317 . S
C201 H220 0.929 . S
C202 C203 1.426 . S
C202 C204 1.413 . S
C202 N212 1.359 . S
C203 C200 1.417 . S
C203 C202 1.426 . S
C203 N208 1.350 . S
C204 C201 1.437 . S
C204 C202 1.413 . S
C204 C214 1.391 . S
C205 C200 1.431 . S
C205 C201 1.317 . S
C205 H216 0.930 . S
C206 C200 1.412 . S
C206 C207 1.355 . S
C206 H218 0.930 . S
C207 C206 1.355 . S
C207 C209 1.402 . S
C207 H219 0.930 . S
N208 Gd199 2.661 . S
N208 C203 1.350 . S
N208 C209 1.307 . S
C209 C207 1.402 . S
C209 N208 1.307 . S
C209 H210 0.930 . S
H210 C209 0.930 . S
C211 N212 1.334 . S
C211 C213 1.394 . S
C211 H215 0.930 . S
N212 Gd199 2.601 . S
N212 C202 1.359 . S
N212 C211 1.334 . S
C213 C211 1.394 . S
C213 C214 1.359 . S
C213 H225 0.930 . S
C214 C204 1.391 . S
C214 C213 1.359 . S
C214 H226 0.929 . S
H215 C211 0.930 . S
H216 C205 0.930 . S
H217 C234 0.930 . S
H218 C206 0.930 . S
H219 C207 0.930 . S
H220 C201 0.929 . S
H221 C239 0.930 . S
H222 C230 0.930 . S
H223 C231 0.930 . S
H224 C255 0.929 . S
H225 C213 0.930 . S
H226 C214 0.929 . S
H227 C256 0.930 . S
H228 C237 0.930 . S
N229 Gd198 2.661 . S
N229 C233 1.350 . S
N229 C234 1.307 . S
C230 H222 0.930 . S
C230 C231 1.355 . S
C230 C232 1.412 . S
C231 H223 0.930 . S
C231 C230 1.355 . S
C231 C234 1.402 . S
C232 C230 1.412 . S
C232 C233 1.417 . S
C232 C256 1.431 . S
C233 N229 1.350 . S
C233 C232 1.417 . S
C233 C236 1.426 . S
C234 H217 0.930 . S
C234 N229 1.307 . S
C234 C231 1.402 . S
N235 Gd198 2.601 . S
N235 C236 1.359 . S
N235 C239 1.334 . S
C236 C233 1.426 . S
C236 N235 1.359 . S
C236 C240 1.413 . S
C237 H228 0.930 . S
C237 C238 1.359 . S
C237 C239 1.394 . S
C238 C237 1.359 . S
C238 C240 1.391 . S
C238 H241 0.929 . S
C239 H221 0.930 . S
C239 N235 1.334 . S
C239 C237 1.394 . S
C240 C236 1.413 . S
C240 C238 1.391 . S
C240 C255 1.437 . S
H241 C238 0.929 . S
O242 Gd198 2.545 . S
O242 C257 1.258 . S
O243 Gd198 2.606 1_565 S
O243 Gd199 2.362 1_554 S
O243 C254 1.284 . S
O244 Gd199 2.324 1_545 S
O244 C264 1.254 1_556 S
O245 Gd198 2.429 . S
O245 C264 1.268 . S
O246 Gd198 2.545 1_565 S
O246 C254 1.250 . S
O247 Gd198 2.412 1_565 S
O247 C257 1.252 1_565 S
O248 Gd199 2.545 . S
O248 C266 1.248 1_565 S
O249 Gd198 2.362 . S
O249 Gd199 2.606 1_544 S
O249 C265 1.284 1_554 S
O250 Gd198 2.324 1_565 S
O250 C273 1.254 . S
O251 Gd199 2.429 . S
O251 C273 1.269 1_556 S
O252 Gd199 2.545 1_545 S
O252 C265 1.250 . S
O253 Gd199 2.412 1_545 S
O253 C266 1.260 . S
C254 O243 1.284 . S
C254 O246 1.250 . S
C255 H224 0.929 . S
C255 C240 1.437 . S
C255 C256 1.317 . S
C256 H227 0.930 . S
C256 C232 1.431 . S
C256 C255 1.317 . S
C257 Gd198 2.828 . S
C257 O242 1.258 . S
C257 O247 1.252 1_545 S
C257 C258 1.497 . S
C258 C257 1.497 . S
C258 C259 1.395 . S
C258 C260 1.380 1_545 S
C259 C258 1.395 . S
C259 C262 1.398 . S
C259 H274 0.930 . S
C260 C258 1.380 1_565 S
C260 C261 1.391 . S
C260 H275 0.930 . S
C261 C260 1.391 . S
C261 C263 1.387 . S
C262 C259 1.398 . S
C262 C263 1.380 1_545 S
C262 H276 0.930 . S
C263 C261 1.387 . S
C263 C262 1.380 1_565 S
C263 H277 0.930 . S
C264 O244 1.254 1_554 S
C264 O245 1.268 . S
C265 O249 1.284 1_556 S
C265 O252 1.250 . S
C266 Gd199 2.828 1_545 S
C266 O248 1.248 1_545 S
C266 O253 1.260 . S
C266 C267 1.499 . S
C267 C266 1.499 . S
C267 C268 1.395 1_545 S
C267 C269 1.380 . S
C268 C267 1.395 1_565 S
C268 C271 1.398 . S
C268 H278 0.930 . S
C269 C267 1.380 . S
C269 C270 1.391 . S
C269 H279 0.930 . S
C270 C269 1.391 . S
C270 C272 1.387 . S
C271 C268 1.398 . S
C271 C272 1.380 1_565 S
C271 H280 0.930 . S
C272 C270 1.387 . S
C272 C271 1.380 1_545 S
C272 H281 0.930 . S
C273 O250 1.254 . S
C273 O251 1.269 1_554 S
H274 C259 0.930 . S
H275 C260 0.930 . S
H276 C262 0.930 . S
H277 C263 0.930 . S
H278 C268 0.930 . S
H279 C269 0.930 . S
H280 C271 0.930 . S
H281 C272 0.930 . S
Gd282 N313 2.661 . S
Gd282 N319 2.601 . S
Gd282 O326 2.545 . S
Gd282 O327 2.606 1_655 S
Gd282 O329 2.429 . S
Gd282 O330 2.545 1_655 S
Gd282 O331 2.412 1_655 S
Gd282 O333 2.362 . S
Gd282 O334 2.324 1_655 S
Gd282 C341 2.828 . S
Gd283 N292 2.661 . S
Gd283 N296 2.601 . S
Gd283 O327 2.362 1_556 S
Gd283 O328 2.324 1_455 S
Gd283 O332 2.545 . S
Gd283 O333 2.606 1_456 S
Gd283 O335 2.404 1_556 S
Gd283 O336 2.545 1_455 S
Gd283 O337 2.413 . S
Gd283 C350 2.828 . S
C284 C287 1.417 . S
C284 C289 1.431 . S
C284 C290 1.412 . S
C285 C288 1.437 . S
C285 C289 1.317 . S
C285 H304 0.929 . S
C286 C287 1.426 . S
C286 C288 1.413 . S
C286 N296 1.359 . S
C287 C284 1.417 . S
C287 C286 1.426 . S
C287 N292 1.350 . S
C288 C285 1.437 . S
C288 C286 1.413 . S
C288 C298 1.391 . S
C289 C284 1.431 . S
C289 C285 1.317 . S
C289 H300 0.930 . S
C290 C284 1.412 . S
C290 C291 1.355 . S
C290 H302 0.930 . S
C291 C290 1.355 . S
C291 C293 1.402 . S
C291 H303 0.930 . S
N292 Gd283 2.661 . S
N292 C287 1.350 . S
N292 C293 1.307 . S
C293 C291 1.402 . S
C293 N292 1.307 . S
C293 H294 0.930 . S
H294 C293 0.930 . S
C295 N296 1.334 . S
C295 C297 1.394 . S
C295 H299 0.930 . S
N296 Gd283 2.601 . S
N296 C286 1.359 . S
N296 C295 1.334 . S
C297 C295 1.394 . S
C297 C298 1.359 . S
C297 H309 0.930 . S
C298 C288 1.391 . S
C298 C297 1.359 . S
C298 H310 0.929 . S
H299 C295 0.930 . S
H300 C289 0.930 . S
H301 C318 0.930 . S
H302 C290 0.930 . S
H303 C291 0.930 . S
H304 C285 0.929 . S
H305 C323 0.930 . S
H306 C314 0.930 . S
H307 C315 0.930 . S
H308 C339 0.929 . S
H309 C297 0.930 . S
H310 C298 0.929 . S
H311 C340 0.930 . S
H312 C321 0.930 . S
N313 Gd282 2.661 . S
N313 C317 1.350 . S
N313 C318 1.307 . S
C314 H306 0.930 . S
C314 C315 1.355 . S
C314 C316 1.412 . S
C315 H307 0.930 . S
C315 C314 1.355 . S
C315 C318 1.402 . S
C316 C314 1.412 . S
C316 C317 1.417 . S
C316 C340 1.431 . S
C317 N313 1.350 . S
C317 C316 1.417 . S
C317 C320 1.426 . S
C318 H301 0.930 . S
C318 N313 1.307 . S
C318 C315 1.402 . S
N319 Gd282 2.601 . S
N319 C320 1.359 . S
N319 C323 1.334 . S
C320 C317 1.426 . S
C320 N319 1.359 . S
C320 C324 1.413 . S
C321 H312 0.930 . S
C321 C322 1.359 . S
C321 C323 1.394 . S
C322 C321 1.359 . S
C322 C324 1.391 . S
C322 H325 0.929 . S
C323 H305 0.930 . S
C323 N319 1.334 . S
C323 C321 1.394 . S
C324 C320 1.413 . S
C324 C322 1.391 . S
C324 C339 1.437 . S
H325 C322 0.929 . S
O326 Gd282 2.545 . S
O326 C341 1.258 . S
O327 Gd282 2.606 1_455 S
O327 Gd283 2.362 1_554 S
O327 C338 1.284 . S
O328 Gd283 2.324 1_655 S
O328 C348 1.254 1_556 S
O329 Gd282 2.429 . S
O329 C348 1.268 . S
O330 Gd282 2.545 1_455 S
O330 C338 1.250 . S
O331 Gd282 2.412 1_455 S
O331 C341 1.252 1_455 S
O332 Gd283 2.545 . S
O332 C350 1.258 . S
O333 Gd282 2.362 . S
O333 Gd283 2.606 1_654 S
O333 C349 1.284 1_554 S
O334 Gd282 2.324 1_455 S
O334 C357 1.254 . S
O335 Gd283 2.404 1_554 S
O335 C357 1.318 . S
O336 Gd283 2.545 1_655 S
O336 C349 1.250 . S
O337 Gd283 2.413 . S
O337 C350 1.252 . S
C338 O327 1.284 . S
C338 O330 1.250 . S
C339 H308 0.929 . S
C339 C324 1.437 . S
C339 C340 1.317 . S
C340 H311 0.930 . S
C340 C316 1.431 . S
C340 C339 1.317 . S
C341 Gd282 2.828 . S
C341 O326 1.258 . S
C341 O331 1.252 1_655 S
C341 C342 1.497 1_655 S
C342 C341 1.497 1_455 S
C342 C343 1.395 1_455 S
C342 C344 1.380 . S
C343 C342 1.395 1_655 S
C343 C346 1.398 . S
C343 H358 0.930 . S
C344 C342 1.380 . S
C344 C345 1.391 . S
C344 H359 0.930 . S
C345 C344 1.391 . S
C345 C347 1.387 . S
C346 C343 1.398 . S
C346 C347 1.380 1_655 S
C346 H360 0.930 . S
C347 C345 1.387 . S
C347 C346 1.380 1_455 S
C347 H361 0.930 . S
C348 O328 1.254 1_554 S
C348 O329 1.268 . S
C349 O333 1.284 1_556 S
C349 O336 1.250 . S
C350 Gd283 2.828 . S
C350 O332 1.258 . S
C350 O337 1.252 . S
C350 C351 1.497 . S
C351 C350 1.497 . S
C351 C352 1.395 . S
C351 C353 1.380 1_455 S
C352 C351 1.395 . S
C352 C355 1.398 . S
C352 H362 0.930 . S
C353 C351 1.380 1_655 S
C353 C354 1.391 . S
C353 H363 0.930 . S
C354 C353 1.391 . S
C354 C356 1.387 . S
C355 C352 1.398 . S
C355 C356 1.380 1_455 S
C355 H364 0.930 . S
C356 C354 1.387 . S
C356 C355 1.380 1_655 S
C356 H365 0.930 . S
C357 O334 1.254 . S
C357 O335 1.318 . S
H358 C343 0.930 . S
H359 C344 0.930 . S
H360 C346 0.930 . S
H361 C347 0.930 . S
H362 C352 0.930 . S
H363 C353 0.930 . S
H364 C355 0.930 . S
H365 C356 0.930 . S
Gd366 N397 2.661 . S
Gd366 N403 2.601 . S
Gd366 O410 2.545 . S
Gd366 O411 2.606 1_556 S
Gd366 O413 2.429 1_556 S
Gd366 O414 2.545 . S
Gd366 O415 2.412 . S
Gd366 O417 2.362 1_556 S
Gd366 O418 2.324 . S
Gd366 C425 2.828 . S
Gd367 N376 2.661 . S
Gd367 N380 2.601 . S
Gd367 O411 2.362 . S
Gd367 O412 2.324 . S
Gd367 O416 2.545 . S
Gd367 O417 2.606 . S
Gd367 O419 2.429 . S
Gd367 O420 2.545 . S
Gd367 O421 2.412 . S
Gd367 C434 2.828 . S
C368 C371 1.417 . S
C368 C373 1.431 . S
C368 C374 1.412 . S
C369 C372 1.437 . S
C369 C373 1.317 . S
C369 H388 0.929 . S
C370 C371 1.426 . S
C370 C372 1.413 . S
C370 N380 1.359 . S
C371 C368 1.417 . S
C371 C370 1.426 . S
C371 N376 1.350 . S
C372 C369 1.437 . S
C372 C370 1.413 . S
C372 C382 1.391 . S
C373 C368 1.431 . S
C373 C369 1.317 . S
C373 H384 0.930 . S
C374 C368 1.412 . S
C374 C375 1.355 . S
C374 H386 0.930 . S
C375 C374 1.355 . S
C375 C377 1.402 . S
C375 H387 0.930 . S
N376 Gd367 2.661 . S
N376 C371 1.350 . S
N376 C377 1.307 . S
C377 C375 1.402 . S
C377 N376 1.307 . S
C377 H378 0.930 . S
H378 C377 0.930 . S
C379 N380 1.334 . S
C379 C381 1.394 . S
C379 H383 0.930 . S
N380 Gd367 2.601 . S
N380 C370 1.359 . S
N380 C379 1.334 . S
C381 C379 1.394 . S
C381 C382 1.359 . S
C381 H393 0.930 . S
C382 C372 1.391 . S
C382 C381 1.359 . S
C382 H394 0.929 . S
H383 C379 0.930 . S
H384 C373 0.930 . S
H385 C402 0.930 . S
H386 C374 0.930 . S
H387 C375 0.930 . S
H388 C369 0.929 . S
H389 C407 0.930 . S
H390 C398 0.930 . S
H391 C399 0.930 . S
H392 C423 0.929 . S
H393 C381 0.930 . S
H394 C382 0.929 . S
H395 C424 0.930 . S
H396 C405 0.930 . S
N397 Gd366 2.661 . S
N397 C401 1.350 . S
N397 C402 1.307 . S
C398 H390 0.930 . S
C398 C399 1.355 . S
C398 C400 1.412 . S
C399 H391 0.930 . S
C399 C398 1.355 . S
C399 C402 1.402 . S
C400 C398 1.412 . S
C400 C401 1.417 . S
C400 C424 1.431 . S
C401 N397 1.350 . S
C401 C400 1.417 . S
C401 C404 1.426 . S
C402 H385 0.930 . S
C402 N397 1.307 . S
C402 C399 1.402 . S
N403 Gd366 2.601 . S
N403 C404 1.359 . S
N403 C407 1.334 . S
C404 C401 1.426 . S
C404 N403 1.359 . S
C404 C408 1.413 . S
C405 H396 0.930 . S
C405 C406 1.359 . S
C405 C407 1.394 . S
C406 C405 1.359 . S
C406 C408 1.391 . S
C406 H409 0.929 . S
C407 H389 0.930 . S
C407 N403 1.334 . S
C407 C405 1.394 . S
C408 C404 1.413 . S
C408 C406 1.391 . S
C408 C423 1.437 . S
H409 C406 0.929 . S
O410 Gd366 2.545 . S
O410 C425 1.258 . S
O411 Gd366 2.606 1_554 S
O411 Gd367 2.362 . S
O411 C422 1.284 1_554 S
O412 Gd367 2.324 . S
O412 C432 1.254 . S
O413 Gd366 2.429 1_554 S
O413 C432 1.268 . S
O414 Gd366 2.545 . S
O414 C422 1.250 . S
O415 Gd366 2.412 . S
O415 C425 1.252 . S
O416 Gd367 2.545 . S
O416 C434 1.258 . S
O417 Gd366 2.362 1_554 S
O417 Gd367 2.606 . S
O417 C433 1.284 . S
O418 Gd366 2.324 . S
O418 C441 1.254 1_556 S
O419 Gd367 2.429 . S
O419 C441 1.268 . S
O420 Gd367 2.545 . S
O420 C433 1.250 . S
O421 Gd367 2.412 . S
O421 C434 1.252 . S
C422 O411 1.284 1_556 S
C422 O414 1.250 . S
C423 H392 0.929 . S
C423 C408 1.437 . S
C423 C424 1.317 . S
C424 H395 0.930 . S
C424 C400 1.431 . S
C424 C423 1.317 . S
C425 Gd366 2.828 . S
C425 O410 1.258 . S
C425 O415 1.252 . S
C425 C426 1.497 . S
C426 C425 1.497 . S
C426 C427 1.395 . S
C426 C428 1.380 . S
C427 C426 1.395 . S
C427 C430 1.398 . S
C427 H442 0.930 . S
C428 C426 1.380 . S
C428 C429 1.391 . S
C428 H443 0.930 . S
C429 C428 1.391 . S
C429 C431 1.387 . S
C430 C427 1.398 . S
C430 C431 1.380 . S
C430 H444 0.930 . S
C431 C429 1.387 . S
C431 C430 1.380 . S
C431 H445 0.930 . S
C432 O412 1.254 . S
C432 O413 1.268 . S
C433 O417 1.284 . S
C433 O420 1.250 . S
C434 Gd367 2.828 . S
C434 O416 1.258 . S
C434 O421 1.252 . S
C434 C435 1.497 . S
C435 C434 1.497 . S
C435 C436 1.395 . S
C435 C437 1.380 . S
C436 C435 1.395 . S
C436 C439 1.398 . S
C436 H446 0.930 . S
C437 C435 1.380 . S
C437 C438 1.391 . S
C437 H447 0.930 . S
C438 C437 1.391 . S
C438 C440 1.387 . S
C439 C436 1.398 . S
C439 C440 1.380 . S
C439 H448 0.930 . S
C440 C438 1.387 . S
C440 C439 1.380 . S
C440 H449 0.930 . S
C441 O418 1.254 1_554 S
C441 O419 1.268 . S
H442 C427 0.930 . S
H443 C428 0.930 . S
H444 C430 0.930 . S
H445 C431 0.930 . S
H446 C436 0.930 . S
H447 C437 0.930 . S
H448 C439 0.930 . S
H449 C440 0.930 . S
Gd450 N481 2.661 . S
Gd450 N487 2.601 . S
Gd450 O494 2.545 . S
Gd450 O495 2.606 . S
Gd450 O497 2.429 . S
Gd450 O498 2.545 . S
Gd450 O499 2.412 . S
Gd450 O501 2.362 . S
Gd450 O502 2.324 . S
Gd450 C509 2.828 . S
Gd451 N460 2.661 . S
Gd451 N464 2.601 . S
Gd451 O495 2.362 . S
Gd451 O496 2.324 . S
Gd451 O500 2.545 . S
Gd451 O501 2.606 . S
Gd451 O503 2.429 . S
Gd451 O504 2.545 . S
Gd451 O505 2.412 . S
Gd451 C518 2.828 . S
C452 C455 1.417 . S
C452 C457 1.431 . S
C452 C458 1.412 . S
C453 C456 1.437 . S
C453 C457 1.317 . S
C453 H472 0.929 . S
C454 C455 1.426 . S
C454 C456 1.413 . S
C454 N464 1.359 . S
C455 C452 1.417 . S
C455 C454 1.426 . S
C455 N460 1.350 . S
C456 C453 1.437 . S
C456 C454 1.413 . S
C456 C466 1.391 . S
C457 C452 1.431 . S
C457 C453 1.317 . S
C457 H468 0.930 . S
C458 C452 1.412 . S
C458 C459 1.355 . S
C458 H470 0.930 . S
C459 C458 1.355 . S
C459 C461 1.402 . S
C459 H471 0.930 . S
N460 Gd451 2.661 . S
N460 C455 1.350 . S
N460 C461 1.307 . S
C461 C459 1.402 . S
C461 N460 1.307 . S
C461 H462 0.930 . S
H462 C461 0.930 . S
C463 N464 1.334 . S
C463 C465 1.394 . S
C463 H467 0.930 . S
N464 Gd451 2.601 . S
N464 C454 1.359 . S
N464 C463 1.334 . S
C465 C463 1.394 . S
C465 C466 1.359 . S
C465 H477 0.930 . S
C466 C456 1.391 . S
C466 C465 1.359 . S
C466 H478 0.929 . S
H467 C463 0.930 . S
H468 C457 0.930 . S
H469 C486 0.930 . S
H470 C458 0.930 . S
H471 C459 0.930 . S
H472 C453 0.929 . S
H473 C491 0.930 . S
H474 C482 0.930 . S
H475 C483 0.930 . S
H476 C507 0.929 . S
H477 C465 0.930 . S
H478 C466 0.929 . S
H479 C508 0.930 . S
H480 C489 0.930 . S
N481 Gd450 2.661 . S
N481 C485 1.350 . S
N481 C486 1.307 . S
C482 H474 0.930 . S
C482 C483 1.355 . S
C482 C484 1.412 . S
C483 H475 0.930 . S
C483 C482 1.355 . S
C483 C486 1.402 . S
C484 C482 1.412 . S
C484 C485 1.417 . S
C484 C508 1.431 . S
C485 N481 1.350 . S
C485 C484 1.417 . S
C485 C488 1.426 . S
C486 H469 0.930 . S
C486 N481 1.307 . S
C486 C483 1.402 . S
N487 Gd450 2.601 . S
N487 C488 1.359 . S
N487 C491 1.334 . S
C488 C485 1.426 . S
C488 N487 1.359 . S
C488 C492 1.413 . S
C489 H480 0.930 . S
C489 C490 1.359 . S
C489 C491 1.394 . S
C490 C489 1.359 . S
C490 C492 1.391 . S
C490 H493 0.929 . S
C491 H473 0.930 . S
C491 N487 1.334 . S
C491 C489 1.394 . S
C492 C488 1.413 . S
C492 C490 1.391 . S
C492 C507 1.437 . S
H493 C490 0.929 . S
O494 Gd450 2.545 . S
O494 C509 1.258 . S
O495 Gd450 2.606 . S
O495 Gd451 2.362 . S
O495 C506 1.284 . S
O496 Gd451 2.324 . S
O496 C516 1.254 . S
O497 Gd450 2.429 . S
O497 C516 1.268 . S
O498 Gd450 2.545 . S
O498 C506 1.250 . S
O499 Gd450 2.412 . S
O499 C509 1.252 . S
O500 Gd451 2.545 . S
O500 C518 1.258 . S
O501 Gd450 2.362 . S
O501 Gd451 2.606 . S
O501 C517 1.284 . S
O502 Gd450 2.324 . S
O502 C525 1.254 . S
O503 Gd451 2.429 . S
O503 C525 1.268 . S
O504 Gd451 2.545 . S
O504 C517 1.250 . S
O505 Gd451 2.412 . S
O505 C518 1.252 . S
C506 O495 1.284 . S
C506 O498 1.250 . S
C507 H476 0.929 . S
C507 C492 1.437 . S
C507 C508 1.317 . S
C508 H479 0.930 . S
C508 C484 1.431 . S
C508 C507 1.317 . S
C509 Gd450 2.828 . S
C509 O494 1.258 . S
C509 O499 1.252 . S
C509 C510 1.497 . S
C510 C509 1.497 . S
C510 C511 1.395 . S
C510 C512 1.380 . S
C511 C510 1.395 . S
C511 C514 1.398 . S
C511 H526 0.930 . S
C512 C510 1.380 . S
C512 C513 1.391 . S
C512 H527 0.930 . S
C513 C512 1.391 . S
C513 C515 1.387 . S
C514 C511 1.398 . S
C514 C515 1.380 . S
C514 H528 0.930 . S
C515 C513 1.387 . S
C515 C514 1.380 . S
C515 H529 0.930 . S
C516 O496 1.254 . S
C516 O497 1.268 . S
C517 O501 1.284 . S
C517 O504 1.250 . S
C518 Gd451 2.828 . S
C518 O500 1.258 . S
C518 O505 1.252 . S
C518 C519 1.497 . S
C519 C518 1.497 . S
C519 C520 1.395 . S
C519 C521 1.380 . S
C520 C519 1.395 . S
C520 C523 1.398 . S
C520 H530 0.930 . S
C521 C519 1.380 . S
C521 C522 1.391 . S
C521 H531 0.930 . S
C522 C521 1.391 . S
C522 C524 1.387 . S
C523 C520 1.398 . S
C523 C524 1.380 . S
C523 H532 0.930 . S
C524 C522 1.387 . S
C524 C523 1.380 . S
C524 H533 0.930 . S
C525 O502 1.254 . S
C525 O503 1.268 . S
H526 C511 0.930 . S
H527 C512 0.930 . S
H528 C514 0.930 . S
H529 C515 0.930 . S
H530 C520 0.930 . S
H531 C521 0.930 . S
H532 C523 0.930 . S
H533 C524 0.930 . S
Gd534 N565 2.661 . S
Gd534 N571 2.601 . S
Gd534 O578 2.545 . S
Gd534 O579 2.606 . S
Gd534 O581 2.429 . S
Gd534 O582 2.545 . S
Gd534 O583 2.412 . S
Gd534 O585 2.362 . S
Gd534 O586 2.324 . S
Gd534 C593 2.828 . S
Gd535 N544 2.661 . S
Gd535 N548 2.601 . S
Gd535 O579 2.362 . S
Gd535 O580 2.324 . S
Gd535 O584 2.545 . S
Gd535 O585 2.606 . S
Gd535 O587 2.429 . S
Gd535 O588 2.545 . S
Gd535 O589 2.412 . S
Gd535 C602 2.828 . S
C536 C539 1.417 . S
C536 C541 1.431 . S
C536 C542 1.412 . S
C537 C540 1.437 . S
C537 C541 1.317 . S
C537 H556 0.929 . S
C538 C539 1.426 . S
C538 C540 1.413 . S
C538 N548 1.359 . S
C539 C536 1.417 . S
C539 C538 1.426 . S
C539 N544 1.350 . S
C540 C537 1.437 . S
C540 C538 1.413 . S
C540 C550 1.391 . S
C541 C536 1.431 . S
C541 C537 1.317 . S
C541 H552 0.930 . S
C542 C536 1.412 . S
C542 C543 1.355 . S
C542 H554 0.930 . S
C543 C542 1.355 . S
C543 C545 1.402 . S
C543 H555 0.930 . S
N544 Gd535 2.661 . S
N544 C539 1.350 . S
N544 C545 1.307 . S
C545 C543 1.402 . S
C545 N544 1.307 . S
C545 H546 0.930 . S
H546 C545 0.930 . S
C547 N548 1.334 . S
C547 C549 1.394 . S
C547 H551 0.930 . S
N548 Gd535 2.601 . S
N548 C538 1.359 . S
N548 C547 1.334 . S
C549 C547 1.394 . S
C549 C550 1.359 . S
C549 H561 0.930 . S
C550 C540 1.391 . S
C550 C549 1.359 . S
C550 H562 0.929 . S
H551 C547 0.930 . S
H552 C541 0.930 . S
H553 C570 0.930 . S
H554 C542 0.930 . S
H555 C543 0.930 . S
H556 C537 0.929 . S
H557 C575 0.930 . S
H558 C566 0.930 . S
H559 C567 0.930 . S
H560 C591 0.929 . S
H561 C549 0.930 . S
H562 C550 0.929 . S
H563 C592 0.930 . S
H564 C573 0.930 . S
N565 Gd534 2.661 . S
N565 C569 1.350 . S
N565 C570 1.307 . S
C566 H558 0.930 . S
C566 C567 1.355 . S
C566 C568 1.412 . S
C567 H559 0.930 . S
C567 C566 1.355 . S
C567 C570 1.402 . S
C568 C566 1.412 . S
C568 C569 1.417 . S
C568 C592 1.431 . S
C569 N565 1.350 . S
C569 C568 1.417 . S
C569 C572 1.426 . S
C570 H553 0.930 . S
C570 N565 1.307 . S
C570 C567 1.402 . S
N571 Gd534 2.601 . S
N571 C572 1.359 . S
N571 C575 1.334 . S
C572 C569 1.426 . S
C572 N571 1.359 . S
C572 C576 1.413 . S
C573 H564 0.930 . S
C573 C574 1.359 . S
C573 C575 1.394 . S
C574 C573 1.359 . S
C574 C576 1.391 . S
C574 H577 0.929 . S
C575 H557 0.930 . S
C575 N571 1.334 . S
C575 C573 1.394 . S
C576 C572 1.413 . S
C576 C574 1.391 . S
C576 C591 1.437 . S
H577 C574 0.929 . S
O578 Gd534 2.545 . S
O578 C593 1.258 . S
O579 Gd534 2.606 . S
O579 Gd535 2.362 . S
O579 C590 1.284 . S
O580 Gd535 2.324 . S
O580 C600 1.254 . S
O581 Gd534 2.429 . S
O581 C600 1.268 . S
O582 Gd534 2.545 . S
O582 C590 1.250 . S
O583 Gd534 2.412 . S
O583 C593 1.252 . S
O584 Gd535 2.545 . S
O584 C602 1.258 . S
O585 Gd534 2.362 . S
O585 Gd535 2.606 . S
O585 C601 1.284 . S
O586 Gd534 2.324 . S
O586 C609 1.254 . S
O587 Gd535 2.429 . S
O587 C609 1.268 . S
O588 Gd535 2.545 . S
O588 C601 1.250 . S
O589 Gd535 2.412 . S
O589 C602 1.252 . S
C590 O579 1.284 . S
C590 O582 1.250 . S
C591 H560 0.929 . S
C591 C576 1.437 . S
C591 C592 1.317 . S
C592 H563 0.930 . S
C592 C568 1.431 . S
C592 C591 1.317 . S
C593 Gd534 2.828 . S
C593 O578 1.258 . S
C593 O583 1.252 . S
C593 C594 1.497 . S
C594 C593 1.497 . S
C594 C595 1.395 . S
C594 C596 1.380 . S
C595 C594 1.395 . S
C595 C598 1.398 . S
C595 H610 0.930 . S
C596 C594 1.380 . S
C596 C597 1.391 . S
C596 H611 0.930 . S
C597 C596 1.391 . S
C597 C599 1.387 . S
C598 C595 1.398 . S
C598 C599 1.380 . S
C598 H612 0.930 . S
C599 C597 1.387 . S
C599 C598 1.380 . S
C599 H613 0.930 . S
C600 O580 1.254 . S
C600 O581 1.268 . S
C601 O585 1.284 . S
C601 O588 1.250 . S
C602 Gd535 2.828 . S
C602 O584 1.258 . S
C602 O589 1.252 . S
C602 C603 1.497 . S
C603 C602 1.497 . S
C603 C604 1.395 . S
C603 C605 1.380 . S
C604 C603 1.395 . S
C604 C607 1.398 . S
C604 H614 0.930 . S
C605 C603 1.380 . S
C605 C606 1.391 . S
C605 H615 0.930 . S
C606 C605 1.391 . S
C606 C608 1.387 . S
C607 C604 1.398 . S
C607 C608 1.380 . S
C607 H616 0.930 . S
C608 C606 1.387 . S
C608 C607 1.380 . S
C608 H617 0.930 . S
C609 O586 1.254 . S
C609 O587 1.268 . S
H610 C595 0.930 . S
H611 C596 0.930 . S
H612 C598 0.930 . S
H613 C599 0.930 . S
H614 C604 0.930 . S
H615 C605 0.930 . S
H616 C607 0.930 . S
H617 C608 0.930 . S
Gd618 N649 2.661 . S
Gd618 N655 2.601 . S
Gd618 O662 2.545 . S
Gd618 O663 2.606 . S
Gd618 O665 2.429 . S
Gd618 O666 2.545 . S
Gd618 O667 2.412 . S
Gd618 O669 2.362 . S
Gd618 O670 2.324 . S
Gd618 C677 2.828 . S
Gd619 N628 2.661 . S
Gd619 N632 2.601 . S
Gd619 O663 2.362 . S
Gd619 O664 2.324 . S
Gd619 O668 2.545 . S
Gd619 O669 2.606 . S
Gd619 O671 2.429 . S
Gd619 O672 2.545 . S
Gd619 O673 2.412 . S
Gd619 C686 2.828 . S
C620 C623 1.417 . S
C620 C625 1.431 . S
C620 C626 1.412 . S
C621 C624 1.437 . S
C621 C625 1.317 . S
C621 H640 0.929 . S
C622 C623 1.426 . S
C622 C624 1.413 . S
C622 N632 1.359 . S
C623 C620 1.417 . S
C623 C622 1.426 . S
C623 N628 1.350 . S
C624 C621 1.437 . S
C624 C622 1.413 . S
C624 C634 1.391 . S
C625 C620 1.431 . S
C625 C621 1.317 . S
C625 H636 0.930 . S
C626 C620 1.412 . S
C626 C627 1.355 . S
C626 H638 0.930 . S
C627 C626 1.355 . S
C627 C629 1.402 . S
C627 H639 0.930 . S
N628 Gd619 2.661 . S
N628 C623 1.350 . S
N628 C629 1.307 . S
C629 C627 1.402 . S
C629 N628 1.307 . S
C629 H630 0.930 . S
H630 C629 0.930 . S
C631 N632 1.334 . S
C631 C633 1.394 . S
C631 H635 0.930 . S
N632 Gd619 2.601 . S
N632 C622 1.359 . S
N632 C631 1.334 . S
C633 C631 1.394 . S
C633 C634 1.359 . S
C633 H645 0.930 . S
C634 C624 1.391 . S
C634 C633 1.359 . S
C634 H646 0.929 . S
H635 C631 0.930 . S
H636 C625 0.930 . S
H637 C654 0.930 . S
H638 C626 0.930 . S
H639 C627 0.930 . S
H640 C621 0.929 . S
H641 C659 0.930 . S
H642 C650 0.930 . S
H643 C651 0.930 . S
H644 C675 0.929 . S
H645 C633 0.930 . S
H646 C634 0.929 . S
H647 C676 0.930 . S
H648 C657 0.930 . S
N649 Gd618 2.661 . S
N649 C653 1.350 . S
N649 C654 1.307 . S
C650 H642 0.930 . S
C650 C651 1.355 . S
C650 C652 1.412 . S
C651 H643 0.930 . S
C651 C650 1.355 . S
C651 C654 1.402 . S
C652 C650 1.412 . S
C652 C653 1.417 . S
C652 C676 1.431 . S
C653 N649 1.350 . S
C653 C652 1.417 . S
C653 C656 1.426 . S
C654 H637 0.930 . S
C654 N649 1.307 . S
C654 C651 1.402 . S
N655 Gd618 2.601 . S
N655 C656 1.359 . S
N655 C659 1.334 . S
C656 C653 1.426 . S
C656 N655 1.359 . S
C656 C660 1.413 . S
C657 H648 0.930 . S
C657 C658 1.359 . S
C657 C659 1.394 . S
C658 C657 1.359 . S
C658 C660 1.391 . S
C658 H661 0.929 . S
C659 H641 0.930 . S
C659 N655 1.334 . S
C659 C657 1.394 . S
C660 C656 1.413 . S
C660 C658 1.391 . S
C660 C675 1.437 . S
H661 C658 0.929 . S
O662 Gd618 2.545 . S
O662 C677 1.258 . S
O663 Gd618 2.606 . S
O663 Gd619 2.362 . S
O663 C674 1.284 . S
O664 Gd619 2.324 . S
O664 C684 1.254 . S
O665 Gd618 2.429 . S
O665 C684 1.268 . S
O666 Gd618 2.545 . S
O666 C674 1.250 . S
O667 Gd618 2.412 . S
O667 C677 1.252 . S
O668 Gd619 2.545 . S
O668 C686 1.258 . S
O669 Gd618 2.362 . S
O669 Gd619 2.606 . S
O669 C685 1.284 . S
O670 Gd618 2.324 . S
O670 C693 1.254 . S
O671 Gd619 2.429 . S
O671 C693 1.268 . S
O672 Gd619 2.545 . S
O672 C685 1.250 . S
O673 Gd619 2.412 . S
O673 C686 1.252 . S
C674 O663 1.284 . S
C674 O666 1.250 . S
C675 H644 0.929 . S
C675 C660 1.437 . S
C675 C676 1.317 . S
C676 H647 0.930 . S
C676 C652 1.431 . S
C676 C675 1.317 . S
C677 Gd618 2.828 . S
C677 O662 1.258 . S
C677 O667 1.252 . S
C677 C678 1.497 . S
C678 C677 1.497 . S
C678 C679 1.395 . S
C678 C680 1.380 . S
C679 C678 1.395 . S
C679 C682 1.398 . S
C679 H694 0.930 . S
C680 C678 1.380 . S
C680 C681 1.391 . S
C680 H695 0.930 . S
C681 C680 1.391 . S
C681 C683 1.387 . S
C682 C679 1.398 . S
C682 C683 1.380 . S
C682 H696 0.930 . S
C683 C681 1.387 . S
C683 C682 1.380 . S
C683 H697 0.930 . S
C684 O664 1.254 . S
C684 O665 1.268 . S
C685 O669 1.284 . S
C685 O672 1.250 . S
C686 Gd619 2.828 . S
C686 O668 1.258 . S
C686 O673 1.252 . S
C686 C687 1.497 . S
C687 C686 1.497 . S
C687 C688 1.395 . S
C687 C689 1.380 . S
C688 C687 1.395 . S
C688 C691 1.398 . S
C688 H698 0.930 . S
C689 C687 1.380 . S
C689 C690 1.391 . S
C689 H699 0.930 . S
C690 C689 1.391 . S
C690 C692 1.387 . S
C691 C688 1.398 . S
C691 C692 1.380 . S
C691 H700 0.930 . S
C692 C690 1.387 . S
C692 C691 1.380 . S
C692 H701 0.930 . S
C693 O670 1.254 . S
C693 O671 1.268 . S
H694 C679 0.930 . S
H695 C680 0.930 . S
H696 C682 0.930 . S
H697 C683 0.930 . S
H698 C688 0.930 . S
H699 C689 0.930 . S
H700 C691 0.930 . S
H701 C692 0.930 . S
Gd702 N733 2.661 . S
Gd702 N739 2.601 . S
Gd702 O746 2.545 . S
Gd702 O747 2.606 . S
Gd702 O749 2.429 . S
Gd702 O750 2.545 . S
Gd702 O751 2.412 . S
Gd702 O753 2.362 . S
Gd702 O754 2.324 . S
Gd702 C761 2.828 . S
Gd703 N712 2.661 . S
Gd703 N716 2.601 . S
Gd703 O747 2.362 . S
Gd703 O748 2.324 . S
Gd703 O752 2.545 . S
Gd703 O753 2.606 . S
Gd703 O755 2.429 . S
Gd703 O756 2.545 . S
Gd703 O757 2.412 . S
Gd703 C770 2.828 . S
C704 C707 1.417 . S
C704 C709 1.431 . S
C704 C710 1.412 . S
C705 C708 1.437 . S
C705 C709 1.317 . S
C705 H724 0.929 . S
C706 C707 1.426 . S
C706 C708 1.413 . S
C706 N716 1.359 . S
C707 C704 1.417 . S
C707 C706 1.426 . S
C707 N712 1.350 . S
C708 C705 1.437 . S
C708 C706 1.413 . S
C708 C718 1.391 . S
C709 C704 1.431 . S
C709 C705 1.317 . S
C709 H720 0.930 . S
C710 C704 1.412 . S
C710 C711 1.355 . S
C710 H722 0.930 . S
C711 C710 1.355 . S
C711 C713 1.402 . S
C711 H723 0.930 . S
N712 Gd703 2.661 . S
N712 C707 1.350 . S
N712 C713 1.307 . S
C713 C711 1.402 . S
C713 N712 1.307 . S
C713 H714 0.930 . S
H714 C713 0.930 . S
C715 N716 1.334 . S
C715 C717 1.394 . S
C715 H719 0.930 . S
N716 Gd703 2.601 . S
N716 C706 1.359 . S
N716 C715 1.334 . S
C717 C715 1.394 . S
C717 C718 1.359 . S
C717 H729 0.930 . S
C718 C708 1.391 . S
C718 C717 1.359 . S
C718 H730 0.929 . S
H719 C715 0.930 . S
H720 C709 0.930 . S
H721 C738 0.930 . S
H722 C710 0.930 . S
H723 C711 0.930 . S
H724 C705 0.929 . S
H725 C743 0.930 . S
H726 C734 0.930 . S
H727 C735 0.930 . S
H728 C759 0.929 . S
H729 C717 0.930 . S
H730 C718 0.929 . S
H731 C760 0.930 . S
H732 C741 0.930 . S
N733 Gd702 2.661 . S
N733 C737 1.350 . S
N733 C738 1.307 . S
C734 H726 0.930 . S
C734 C735 1.355 . S
C734 C736 1.412 . S
C735 H727 0.930 . S
C735 C734 1.355 . S
C735 C738 1.402 . S
C736 C734 1.412 . S
C736 C737 1.417 . S
C736 C760 1.431 . S
C737 N733 1.350 . S
C737 C736 1.417 . S
C737 C740 1.426 . S
C738 H721 0.930 . S
C738 N733 1.307 . S
C738 C735 1.402 . S
N739 Gd702 2.601 . S
N739 C740 1.359 . S
N739 C743 1.334 . S
C740 C737 1.426 . S
C740 N739 1.359 . S
C740 C744 1.413 . S
C741 H732 0.930 . S
C741 C742 1.359 . S
C741 C743 1.394 . S
C742 C741 1.359 . S
C742 C744 1.391 . S
C742 H745 0.929 . S
C743 H725 0.930 . S
C743 N739 1.334 . S
C743 C741 1.394 . S
C744 C740 1.413 . S
C744 C742 1.391 . S
C744 C759 1.437 . S
H745 C742 0.929 . S
O746 Gd702 2.545 . S
O746 C761 1.258 . S
O747 Gd702 2.606 . S
O747 Gd703 2.362 . S
O747 C758 1.284 . S
O748 Gd703 2.324 . S
O748 C768 1.254 . S
O749 Gd702 2.429 . S
O749 C768 1.268 . S
O750 Gd702 2.545 . S
O750 C758 1.250 . S
O751 Gd702 2.412 . S
O751 C761 1.252 . S
O752 Gd703 2.545 . S
O752 C770 1.258 . S
O753 Gd702 2.362 . S
O753 Gd703 2.606 . S
O753 C769 1.284 . S
O754 Gd702 2.324 . S
O754 C777 1.254 . S
O755 Gd703 2.429 . S
O755 C777 1.268 . S
O756 Gd703 2.545 . S
O756 C769 1.250 . S
O757 Gd703 2.412 . S
O757 C770 1.252 . S
C758 O747 1.284 . S
C758 O750 1.250 . S
C759 H728 0.929 . S
C759 C744 1.437 . S
C759 C760 1.317 . S
C760 H731 0.930 . S
C760 C736 1.431 . S
C760 C759 1.317 . S
C761 Gd702 2.828 . S
C761 O746 1.258 . S
C761 O751 1.252 . S
C761 C762 1.497 . S
C762 C761 1.497 . S
C762 C763 1.395 . S
C762 C764 1.380 . S
C763 C762 1.395 . S
C763 C766 1.398 . S
C763 H778 0.930 . S
C764 C762 1.380 . S
C764 C765 1.391 . S
C764 H779 0.930 . S
C765 C764 1.391 . S
C765 C767 1.387 . S
C766 C763 1.398 . S
C766 C767 1.380 . S
C766 H780 0.930 . S
C767 C765 1.387 . S
C767 C766 1.380 . S
C767 H781 0.930 . S
C768 O748 1.254 . S
C768 O749 1.268 . S
C769 O753 1.284 . S
C769 O756 1.250 . S
C770 Gd703 2.828 . S
C770 O752 1.258 . S
C770 O757 1.252 . S
C770 C771 1.497 . S
C771 C770 1.497 . S
C771 C772 1.395 . S
C771 C773 1.380 . S
C772 C771 1.395 . S
C772 C775 1.398 . S
C772 H782 0.930 . S
C773 C771 1.380 . S
C773 C774 1.391 . S
C773 H783 0.930 . S
C774 C773 1.391 . S
C774 C776 1.387 . S
C775 C772 1.398 . S
C775 C776 1.380 . S
C775 H784 0.930 . S
C776 C774 1.387 . S
C776 C775 1.380 . S
C776 H785 0.930 . S
C777 O754 1.254 . S
C777 O755 1.268 . S
H778 C763 0.930 . S
H779 C764 0.930 . S
H780 C766 0.930 . S
H781 C767 0.930 . S
H782 C772 0.930 . S
H783 C773 0.930 . S
H784 C775 0.930 . S
H785 C776 0.930 . S
Gd786 N817 2.661 . S
Gd786 N823 2.601 . S
Gd786 O830 2.545 . S
Gd786 O831 2.606 . S
Gd786 O833 2.429 . S
Gd786 O834 2.545 . S
Gd786 O835 2.412 . S
Gd786 O837 2.362 . S
Gd786 O838 2.324 . S
Gd786 C845 2.828 . S
Gd787 N796 2.661 . S
Gd787 N800 2.601 . S
Gd787 O831 2.362 . S
Gd787 O832 2.324 . S
Gd787 O836 2.545 . S
Gd787 O837 2.606 . S
Gd787 O839 2.429 . S
Gd787 O840 2.545 . S
Gd787 O841 2.412 . S
Gd787 C854 2.828 . S
C788 C791 1.417 . S
C788 C793 1.431 . S
C788 C794 1.412 . S
C789 C792 1.437 . S
C789 C793 1.317 . S
C789 H808 0.929 . S
C790 C791 1.426 . S
C790 C792 1.413 . S
C790 N800 1.359 . S
C791 C788 1.417 . S
C791 C790 1.426 . S
C791 N796 1.350 . S
C792 C789 1.437 . S
C792 C790 1.413 . S
C792 C802 1.391 . S
C793 C788 1.431 . S
C793 C789 1.317 . S
C793 H804 0.930 . S
C794 C788 1.412 . S
C794 C795 1.355 . S
C794 H806 0.930 . S
C795 C794 1.355 . S
C795 C797 1.402 . S
C795 H807 0.930 . S
N796 Gd787 2.661 . S
N796 C791 1.350 . S
N796 C797 1.307 . S
C797 C795 1.402 . S
C797 N796 1.307 . S
C797 H798 0.930 . S
H798 C797 0.930 . S
C799 N800 1.334 . S
C799 C801 1.394 . S
C799 H803 0.930 . S
N800 Gd787 2.601 . S
N800 C790 1.359 . S
N800 C799 1.334 . S
C801 C799 1.394 . S
C801 C802 1.359 . S
C801 H813 0.930 . S
C802 C792 1.391 . S
C802 C801 1.359 . S
C802 H814 0.929 . S
H803 C799 0.930 . S
H804 C793 0.930 . S
H805 C822 0.930 . S
H806 C794 0.930 . S
H807 C795 0.930 . S
H808 C789 0.929 . S
H809 C827 0.930 . S
H810 C818 0.930 . S
H811 C819 0.930 . S
H812 C843 0.929 . S
H813 C801 0.930 . S
H814 C802 0.929 . S
H815 C844 0.930 . S
H816 C825 0.930 . S
N817 Gd786 2.661 . S
N817 C821 1.350 . S
N817 C822 1.307 . S
C818 H810 0.930 . S
C818 C819 1.355 . S
C818 C820 1.412 . S
C819 H811 0.930 . S
C819 C818 1.355 . S
C819 C822 1.402 . S
C820 C818 1.412 . S
C820 C821 1.417 . S
C820 C844 1.431 . S
C821 N817 1.350 . S
C821 C820 1.417 . S
C821 C824 1.426 . S
C822 H805 0.930 . S
C822 N817 1.307 . S
C822 C819 1.402 . S
N823 Gd786 2.601 . S
N823 C824 1.359 . S
N823 C827 1.334 . S
C824 C821 1.426 . S
C824 N823 1.359 . S
C824 C828 1.413 . S
C825 H816 0.930 . S
C825 C826 1.359 . S
C825 C827 1.394 . S
C826 C825 1.359 . S
C826 C828 1.391 . S
C826 H829 0.929 . S
C827 H809 0.930 . S
C827 N823 1.334 . S
C827 C825 1.394 . S
C828 C824 1.413 . S
C828 C826 1.391 . S
C828 C843 1.437 . S
H829 C826 0.929 . S
O830 Gd786 2.545 . S
O830 C845 1.258 . S
O831 Gd786 2.606 . S
O831 Gd787 2.362 . S
O831 C842 1.284 . S
O832 Gd787 2.324 . S
O832 C852 1.254 . S
O833 Gd786 2.429 . S
O833 C852 1.268 . S
O834 Gd786 2.545 . S
O834 C842 1.250 . S
O835 Gd786 2.412 . S
O835 C845 1.252 . S
O836 Gd787 2.545 . S
O836 C854 1.258 . S
O837 Gd786 2.362 . S
O837 Gd787 2.606 . S
O837 C853 1.284 . S
O838 Gd786 2.324 . S
O838 C861 1.254 . S
O839 Gd787 2.429 . S
O839 C861 1.268 . S
O840 Gd787 2.545 . S
O840 C853 1.250 . S
O841 Gd787 2.412 . S
O841 C854 1.252 . S
C842 O831 1.284 . S
C842 O834 1.250 . S
C843 H812 0.929 . S
C843 C828 1.437 . S
C843 C844 1.317 . S
C844 H815 0.930 . S
C844 C820 1.431 . S
C844 C843 1.317 . S
C845 Gd786 2.828 . S
C845 O830 1.258 . S
C845 O835 1.252 . S
C845 C846 1.497 . S
C846 C845 1.497 . S
C846 C847 1.395 . S
C846 C848 1.380 . S
C847 C846 1.395 . S
C847 C850 1.398 . S
C847 H862 0.930 . S
C848 C846 1.380 . S
C848 C849 1.391 . S
C848 H863 0.930 . S
C849 C848 1.391 . S
C849 C851 1.387 . S
C850 C847 1.398 . S
C850 C851 1.380 . S
C850 H864 0.930 . S
C851 C849 1.387 . S
C851 C850 1.380 . S
C851 H865 0.930 . S
C852 O832 1.254 . S
C852 O833 1.268 . S
C853 O837 1.284 . S
C853 O840 1.250 . S
C854 Gd787 2.828 . S
C854 O836 1.258 . S
C854 O841 1.252 . S
C854 C855 1.497 . S
C855 C854 1.497 . S
C855 C856 1.395 . S
C855 C857 1.380 . S
C856 C855 1.395 . S
C856 C859 1.398 . S
C856 H866 0.930 . S
C857 C855 1.380 . S
C857 C858 1.391 . S
C857 H867 0.930 . S
C858 C857 1.391 . S
C858 C860 1.387 . S
C859 C856 1.398 . S
C859 C860 1.380 . S
C859 H868 0.930 . S
C860 C858 1.387 . S
C860 C859 1.380 . S
C860 H869 0.930 . S
C861 O838 1.254 . S
C861 O839 1.268 . S
H862 C847 0.930 . S
H863 C848 0.930 . S
H864 C850 0.930 . S
H865 C851 0.930 . S
H866 C856 0.930 . S
H867 C857 0.930 . S
H868 C859 0.930 . S
H869 C860 0.930 . S
Gd870 N901 2.661 . S
Gd870 N907 2.601 . S
Gd870 O914 2.545 . S
Gd870 O915 2.606 . S
Gd870 O917 2.429 . S
Gd870 O918 2.545 . S
Gd870 O919 2.412 . S
Gd870 O921 2.362 . S
Gd870 O922 2.324 . S
Gd870 C929 2.828 . S
Gd871 N880 2.661 . S
Gd871 N884 2.601 . S
Gd871 O915 2.362 . S
Gd871 O916 2.324 . S
Gd871 O920 2.545 . S
Gd871 O921 2.606 . S
Gd871 O923 2.429 . S
Gd871 O924 2.545 . S
Gd871 O925 2.412 . S
Gd871 C938 2.828 . S
C872 C875 1.417 . S
C872 C877 1.431 . S
C872 C878 1.412 . S
C873 C876 1.437 . S
C873 C877 1.317 . S
C873 H892 0.929 . S
C874 C875 1.426 . S
C874 C876 1.413 . S
C874 N884 1.359 . S
C875 C872 1.417 . S
C875 C874 1.426 . S
C875 N880 1.350 . S
C876 C873 1.437 . S
C876 C874 1.413 . S
C876 C886 1.391 . S
C877 C872 1.431 . S
C877 C873 1.317 . S
C877 H888 0.930 1_655 S
C878 C872 1.412 . S
C878 C879 1.355 . S
C878 H890 0.930 1_655 S
C879 C878 1.355 . S
C879 C881 1.402 . S
C879 H891 0.930 . S
N880 Gd871 2.661 . S
N880 C875 1.350 . S
N880 C881 1.307 . S
C881 C879 1.402 . S
C881 N880 1.307 . S
C881 H882 0.930 . S
H882 C881 0.930 . S
C883 N884 1.334 . S
C883 C885 1.394 . S
C883 H887 0.930 . S
N884 Gd871 2.601 . S
N884 C874 1.359 . S
N884 C883 1.334 . S
C885 C883 1.394 . S
C885 C886 1.359 . S
C885 H897 0.930 . S
C886 C876 1.391 . S
C886 C885 1.359 . S
C886 H898 0.929 . S
H887 C883 0.930 . S
H888 C877 0.930 1_455 S
H889 C906 0.930 . S
H890 C878 0.930 1_455 S
H891 C879 0.930 . S
H892 C873 0.929 . S
H893 C911 0.930 . S
H894 C902 0.930 . S
H895 C903 0.930 . S
H896 C927 0.929 . S
H897 C885 0.930 . S
H898 C886 0.929 . S
H899 C928 0.930 . S
H900 C909 0.930 . S
N901 Gd870 2.661 . S
N901 C905 1.350 . S
N901 C906 1.307 . S
C902 H894 0.930 . S
C902 C903 1.355 . S
C902 C904 1.412 . S
C903 H895 0.930 . S
C903 C902 1.355 . S
C903 C906 1.402 . S
C904 C902 1.412 . S
C904 C905 1.417 . S
C904 C928 1.431 . S
C905 N901 1.350 . S
C905 C904 1.417 . S
C905 C908 1.426 . S
C906 H889 0.930 . S
C906 N901 1.307 . S
C906 C903 1.402 . S
N907 Gd870 2.601 . S
N907 C908 1.359 . S
N907 C911 1.334 . S
C908 C905 1.426 . S
C908 N907 1.359 . S
C908 C912 1.413 . S
C909 H900 0.930 . S
C909 C910 1.359 . S
C909 C911 1.394 . S
C910 C909 1.359 . S
C910 C912 1.391 . S
C910 H913 0.929 . S
C911 H893 0.930 . S
C911 N907 1.334 . S
C911 C909 1.394 . S
C912 C908 1.413 . S
C912 C910 1.391 . S
C912 C927 1.437 . S
H913 C910 0.929 . S
O914 Gd870 2.545 . S
O914 C929 1.258 . S
O915 Gd870 2.606 . S
O915 Gd871 2.362 . S
O915 C926 1.284 . S
O916 Gd871 2.324 . S
O916 C936 1.254 . S
O917 Gd870 2.429 . S
O917 C936 1.268 . S
O918 Gd870 2.545 . S
O918 C926 1.250 . S
O919 Gd870 2.412 . S
O919 C929 1.252 . S
O920 Gd871 2.545 . S
O920 C938 1.258 . S
O921 Gd870 2.362 . S
O921 Gd871 2.606 . S
O921 C937 1.284 . S
O922 Gd870 2.324 . S
O922 C945 1.254 . S
O923 Gd871 2.429 . S
O923 C945 1.268 . S
O924 Gd871 2.545 . S
O924 C937 1.250 . S
O925 Gd871 2.412 . S
O925 C938 1.252 . S
C926 O915 1.284 . S
C926 O918 1.250 . S
C927 H896 0.929 . S
C927 C912 1.437 . S
C927 C928 1.317 . S
C928 H899 0.930 . S
C928 C904 1.431 . S
C928 C927 1.317 . S
C929 Gd870 2.828 . S
C929 O914 1.258 . S
C929 O919 1.252 . S
C929 C930 1.497 . S
C930 C929 1.497 . S
C930 C931 1.395 . S
C930 C932 1.380 . S
C931 C930 1.395 . S
C931 C934 1.398 . S
C931 H946 0.930 . S
C932 C930 1.380 . S
C932 C933 1.391 . S
C932 H947 0.930 . S
C933 C932 1.391 . S
C933 C935 1.387 . S
C934 C931 1.398 . S
C934 C935 1.380 . S
C934 H948 0.930 . S
C935 C933 1.387 . S
C935 C934 1.380 . S
C935 H949 0.930 . S
C936 O916 1.254 . S
C936 O917 1.268 . S
C937 O921 1.284 . S
C937 O924 1.250 . S
C938 Gd871 2.828 . S
C938 O920 1.258 . S
C938 O925 1.252 . S
C938 C939 1.497 . S
C939 C938 1.497 . S
C939 C940 1.395 . S
C939 C941 1.380 . S
C940 C939 1.395 . S
C940 C943 1.398 . S
C940 H950 0.930 . S
C941 C939 1.380 . S
C941 C942 1.391 . S
C941 H951 0.930 . S
C942 C941 1.391 . S
C942 C944 1.387 . S
C943 C940 1.398 . S
C943 C944 1.380 . S
C943 H952 0.930 . S
C944 C942 1.387 . S
C944 C943 1.380 . S
C944 H953 0.930 . S
C945 O922 1.254 . S
C945 O923 1.268 . S
H946 C931 0.930 . S
H947 C932 0.930 . S
H948 C934 0.930 . S
H949 C935 0.930 . S
H950 C940 0.930 . S
H951 C941 0.930 . S
H952 C943 0.930 . S
H953 C944 0.930 . S
H954 C962 0.950 . S
H955 C967 0.950 . S
H956 C964 0.950 . S
H957 C966 0.950 . S
H958 C968 0.950 . S
H959 C970 0.950 . S
H960 C972 0.950 . S
H961 C973 0.950 . S
C962 H954 0.950 . S
C962 C963 1.386 . S
C962 C964 1.391 . S
C963 C962 1.386 . S
C963 C967 1.393 . S
C964 H956 0.950 . S
C964 C962 1.391 . S
C964 C965 1.400 . S
C965 C964 1.400 . S
C965 C966 1.398 . S
C965 C971 1.491 . S
C966 H957 0.950 . S
C966 C965 1.398 . S
C966 C967 1.391 . S
C967 H955 0.950 . S
C967 C963 1.393 . S
C967 C966 1.391 . S
C968 H958 0.950 . S
C968 C969 1.386 . S
C968 C970 1.391 . S
C969 C968 1.386 . S
C969 C973 1.393 . S
C970 H959 0.950 . S
C970 C968 1.391 . S
C970 C971 1.400 . S
C971 C965 1.491 . S
C971 C970 1.400 . S
C971 C972 1.398 . S
C972 H960 0.950 . S
C972 C971 1.398 . S
C972 C973 1.391 . S
C973 H961 0.950 . S
C973 C969 1.393 . S
C973 C972 1.391 . S
H974 C982 0.950 . S
H975 C987 0.950 . S
H976 C984 0.950 . S
H977 C986 0.950 . S
H978 C988 0.950 . S
H979 C990 0.950 . S
H980 C992 0.950 . S
H981 C993 0.950 . S
C982 H974 0.950 . S
C982 C983 1.386 . S
C982 C984 1.391 . S
C983 C982 1.386 . S
C983 C987 1.393 . S
C984 H976 0.950 . S
C984 C982 1.391 . S
C984 C985 1.400 . S
C985 C984 1.400 . S
C985 C986 1.398 . S
C985 C991 1.491 . S
C986 H977 0.950 . S
C986 C985 1.398 . S
C986 C987 1.391 . S
C987 H975 0.950 . S
C987 C983 1.393 . S
C987 C986 1.391 . S
C988 H978 0.950 . S
C988 C989 1.386 . S
C988 C990 1.391 . S
C989 C988 1.386 . S
C989 C993 1.393 . S
C990 H979 0.950 . S
C990 C988 1.391 . S
C990 C991 1.400 . S
C991 C985 1.491 . S
C991 C990 1.400 . S
C991 C992 1.398 . S
C992 H980 0.950 . S
C992 C991 1.398 . S
C992 C993 1.391 . S
C993 H981 0.950 . S
C993 C989 1.393 . S
C993 C992 1.391 . S
H994 C1002 0.950 . S
H995 C1007 0.950 . S
H996 C1004 0.950 . S
H997 C1006 0.950 . S
H998 C1008 0.950 . S
H999 C1010 0.950 . S
H1000 C1012 0.950 . S
H1001 C1013 0.950 . S
C1002 H994 0.950 . S
C1002 C1003 1.386 . S
C1002 C1004 1.391 . S
C1003 C1002 1.386 . S
C1003 C1007 1.393 . S
C1004 H996 0.950 . S
C1004 C1002 1.391 . S
C1004 C1005 1.400 . S
C1005 C1004 1.400 . S
C1005 C1006 1.398 . S
C1005 C1011 1.491 . S
C1006 H997 0.950 . S
C1006 C1005 1.398 . S
C1006 C1007 1.391 . S
C1007 H995 0.950 . S
C1007 C1003 1.393 . S
C1007 C1006 1.391 . S
C1008 H998 0.950 . S
C1008 C1009 1.386 . S
C1008 C1010 1.391 . S
C1009 C1008 1.386 . S
C1009 C1013 1.393 . S
C1010 H999 0.950 . S
C1010 C1008 1.391 . S
C1010 C1011 1.400 . S
C1011 C1005 1.491 . S
C1011 C1010 1.400 . S
C1011 C1012 1.398 . S
C1012 H1000 0.950 . S
C1012 C1011 1.398 . S
C1012 C1013 1.391 . S
C1013 H1001 0.950 . S
C1013 C1009 1.393 . S
C1013 C1012 1.391 . S
H1014 C1022 0.950 . S
H1015 C1027 0.950 . S
H1016 C1024 0.950 . S
H1017 C1026 0.950 . S
H1018 C1028 0.950 . S
H1019 C1030 0.950 . S
H1020 C1032 0.950 . S
H1021 C1033 0.950 . S
C1022 H1014 0.950 . S
C1022 C1023 1.386 . S
C1022 C1024 1.391 . S
C1023 C1022 1.386 . S
C1023 C1027 1.393 . S
C1024 H1016 0.950 . S
C1024 C1022 1.391 . S
C1024 C1025 1.400 . S
C1025 C1024 1.400 . S
C1025 C1026 1.398 . S
C1025 C1031 1.491 . S
C1026 H1017 0.950 . S
C1026 C1025 1.398 . S
C1026 C1027 1.391 . S
C1027 H1015 0.950 . S
C1027 C1023 1.393 . S
C1027 C1026 1.391 . S
C1028 H1018 0.950 . S
C1028 C1029 1.386 . S
C1028 C1030 1.391 . S
C1029 C1028 1.386 . S
C1029 C1033 1.393 . S
C1030 H1019 0.950 . S
C1030 C1028 1.391 . S
C1030 C1031 1.400 . S
C1031 C1025 1.491 . S
C1031 C1030 1.400 . S
C1031 C1032 1.398 . S
C1032 H1020 0.950 . S
C1032 C1031 1.398 . S
C1032 C1033 1.391 . S
C1033 H1021 0.950 . S
C1033 C1029 1.393 . S
C1033 C1032 1.391 . S
H1034 C1042 0.950 . S
H1035 C1047 0.950 . S
H1036 C1044 0.950 . S
H1037 C1046 0.950 . S
H1038 C1048 0.950 . S
H1039 C1050 0.950 . S
H1040 C1052 0.950 . S
H1041 C1053 0.950 . S
C1042 H1034 0.950 . S
C1042 C1043 1.386 . S
C1042 C1044 1.391 . S
C1043 C1042 1.386 . S
C1043 C1047 1.393 . S
C1044 H1036 0.950 . S
C1044 C1042 1.391 . S
C1044 C1045 1.400 . S
C1045 C1044 1.400 . S
C1045 C1046 1.398 . S
C1045 C1051 1.491 . S
C1046 H1037 0.950 . S
C1046 C1045 1.398 . S
C1046 C1047 1.391 . S
C1047 H1035 0.950 . S
C1047 C1043 1.393 . S
C1047 C1046 1.391 . S
C1048 H1038 0.950 . S
C1048 C1049 1.386 . S
C1048 C1050 1.391 . S
C1049 C1048 1.386 . S
C1049 C1053 1.393 . S
C1050 H1039 0.950 . S
C1050 C1048 1.391 . S
C1050 C1051 1.400 . S
C1051 C1045 1.491 . S
C1051 C1050 1.400 . S
C1051 C1052 1.398 . S
C1052 H1040 0.950 . S
C1052 C1051 1.398 . S
C1052 C1053 1.391 . S
C1053 H1041 0.950 . S
C1053 C1049 1.393 . S
C1053 C1052 1.391 . S
H1054 C1062 0.950 . S
H1055 C1067 0.950 . S
H1056 C1064 0.950 . S
H1057 C1066 0.950 . S
H1058 C1068 0.931 1_554 S
H1059 C1070 0.950 . S
H1060 C1072 0.950 . S
H1061 C1073 0.950 . S
C1062 H1054 0.950 . S
C1062 C1063 1.386 . S
C1062 C1064 1.391 . S
C1063 C1062 1.386 . S
C1063 C1067 1.393 . S
C1064 H1056 0.950 . S
C1064 C1062 1.391 . S
C1064 C1065 1.400 . S
C1065 C1064 1.400 . S
C1065 C1066 1.398 . S
C1065 C1071 1.491 . S
C1066 H1057 0.950 . S
C1066 C1065 1.398 . S
C1066 C1067 1.391 . S
C1067 H1055 0.950 . S
C1067 C1063 1.393 . S
C1067 C1066 1.391 . S
C1068 H1058 0.931 1_556 S
C1068 C1069 1.386 . S
C1068 C1070 1.391 . S
C1069 C1068 1.386 . S
C1069 C1073 1.393 . S
C1070 H1059 0.950 . S
C1070 C1068 1.391 . S
C1070 C1071 1.400 . S
C1071 C1065 1.491 . S
C1071 C1070 1.400 . S
C1071 C1072 1.398 . S
C1072 H1060 0.950 . S
C1072 C1071 1.398 . S
C1072 C1073 1.391 . S
C1073 H1061 0.950 . S
C1073 C1069 1.393 . S
C1073 C1072 1.391 . S
H1074 C1082 0.950 . S
H1075 C1087 0.950 . S
H1076 C1084 0.954 . S
H1077 C1086 0.950 . S
H1078 C1088 0.950 . S
H1079 C1090 0.950 . S
H1080 C1092 0.927 1_554 S
H1081 C1093 0.950 . S
C1082 H1074 0.950 . S
C1082 C1083 1.386 . S
C1082 C1084 1.391 . S
C1083 C1082 1.386 . S
C1083 C1087 1.393 . S
C1084 H1076 0.954 . S
C1084 C1082 1.391 . S
C1084 C1085 1.400 . S
C1085 C1084 1.400 . S
C1085 C1086 1.398 . S
C1085 C1091 1.491 . S
C1086 H1077 0.950 . S
C1086 C1085 1.398 . S
C1086 C1087 1.391 . S
C1087 H1075 0.950 . S
C1087 C1083 1.393 . S
C1087 C1086 1.391 . S
C1088 H1078 0.950 . S
C1088 C1089 1.386 . S
C1088 C1090 1.391 . S
C1089 C1088 1.386 . S
C1089 C1093 1.393 1_556 S
C1090 H1079 0.950 . S
C1090 C1088 1.391 . S
C1090 C1091 1.400 . S
C1091 C1085 1.491 . S
C1091 C1090 1.400 . S
C1091 C1092 1.436 . S
C1092 H1080 0.927 1_556 S
C1092 C1091 1.436 . S
C1092 C1093 1.378 1_556 S
C1093 H1081 0.950 . S
C1093 C1089 1.393 1_554 S
C1093 C1092 1.378 1_554 S
H1094 C1102 0.950 . S
H1095 C1107 0.950 . S
H1096 C1104 0.950 . S
H1097 C1106 0.950 . S
H1098 C1108 0.950 . S
H1099 C1110 0.950 . S
H1100 C1112 0.952 1_554 S
H1101 C1113 0.961 . S
C1102 H1094 0.950 . S
C1102 C1103 1.386 . S
C1102 C1104 1.391 . S
C1103 C1102 1.386 . S
C1103 C1107 1.393 . S
C1104 H1096 0.950 . S
C1104 C1102 1.391 . S
C1104 C1105 1.400 . S
C1105 C1104 1.400 . S
C1105 C1106 1.398 . S
C1105 C1111 1.491 . S
C1106 H1097 0.950 . S
C1106 C1105 1.398 . S
C1106 C1107 1.391 . S
C1107 H1095 0.950 . S
C1107 C1103 1.393 . S
C1107 C1106 1.391 . S
C1108 H1098 0.950 . S
C1108 C1109 1.386 . S
C1108 C1110 1.391 . S
C1109 C1108 1.386 . S
C1109 C1113 1.387 1_556 S
C1110 H1099 0.950 . S
C1110 C1108 1.391 . S
C1110 C1111 1.400 . S
C1111 C1105 1.491 . S
C1111 C1110 1.400 . S
C1111 C1112 1.398 . S
C1112 H1100 0.952 1_556 S
C1112 C1111 1.398 . S
C1112 C1113 1.386 1_556 S
C1113 H1101 0.961 . S
C1113 C1109 1.387 1_554 S
C1113 C1112 1.386 1_554 S
H1114 C1122 0.950 . S
H1115 C1127 0.950 . S
H1116 C1124 0.950 1_554 S
H1117 C1126 0.950 . S
H1118 C1128 0.950 . S
H1119 C1130 0.950 . S
H1120 C1132 0.950 . S
H1121 C1133 0.950 . S
C1122 H1114 0.950 . S
C1122 C1123 1.386 . S
C1122 C1124 1.391 . S
C1123 C1122 1.386 . S
C1123 C1127 1.393 . S
C1124 H1116 0.950 1_556 S
C1124 C1122 1.391 . S
C1124 C1125 1.400 . S
C1125 C1124 1.400 . S
C1125 C1126 1.398 . S
C1125 C1131 1.491 . S
C1126 H1117 0.950 . S
C1126 C1125 1.398 . S
C1126 C1127 1.391 . S
C1127 H1115 0.950 . S
C1127 C1123 1.393 . S
C1127 C1126 1.391 . S
C1128 H1118 0.950 . S
C1128 C1129 1.386 . S
C1128 C1130 1.391 . S
C1129 C1128 1.386 . S
C1129 C1133 1.393 1_556 S
C1130 H1119 0.950 . S
C1130 C1128 1.391 . S
C1130 C1131 1.400 . S
C1131 C1125 1.491 . S
C1131 C1130 1.400 . S
C1131 C1132 1.398 1_556 S
C1132 H1120 0.950 . S
C1132 C1131 1.398 1_554 S
C1132 C1133 1.391 . S
C1133 H1121 0.950 . S
C1133 C1129 1.393 1_554 S
C1133 C1132 1.391 . S
H1134 C1142 0.950 . S
H1135 C1147 0.950 . S
H1136 C1144 0.950 . S
H1137 C1146 0.950 . S
H1138 C1148 0.950 . S
H1139 C1150 0.950 . S
H1140 C1152 0.950 . S
H1141 C1153 0.950 . S
C1142 H1134 0.950 . S
C1142 C1143 1.386 . S
C1142 C1144 1.391 . S
C1143 C1142 1.386 . S
C1143 C1147 1.393 . S
C1144 H1136 0.950 . S
C1144 C1142 1.391 . S
C1144 C1145 1.400 . S
C1145 C1144 1.400 . S
C1145 C1146 1.398 . S
C1145 C1151 1.491 . S
C1146 H1137 0.950 . S
C1146 C1145 1.398 . S
C1146 C1147 1.391 . S
C1147 H1135 0.950 . S
C1147 C1143 1.393 . S
C1147 C1146 1.391 . S
C1148 H1138 0.950 . S
C1148 C1149 1.386 . S
C1148 C1150 1.391 . S
C1149 C1148 1.386 . S
C1149 C1153 1.393 . S
C1150 H1139 0.950 . S
C1150 C1148 1.391 . S
C1150 C1151 1.400 . S
C1151 C1145 1.491 . S
C1151 C1150 1.400 . S
C1151 C1152 1.398 . S
C1152 H1140 0.950 . S
C1152 C1151 1.398 . S
C1152 C1153 1.391 . S
C1153 H1141 0.950 . S
C1153 C1149 1.393 . S
C1153 C1152 1.391 . S
H1154 C1162 0.950 . S
H1155 C1167 0.950 . S
H1156 C1164 0.950 . S
H1157 C1166 0.950 . S
H1158 C1168 0.950 . S
H1159 C1170 0.950 . S
H1160 C1172 0.950 . S
H1161 C1173 0.950 . S
C1162 H1154 0.950 . S
C1162 C1163 1.386 . S
C1162 C1164 1.391 . S
C1163 C1162 1.386 . S
C1163 C1167 1.393 . S
C1164 H1156 0.950 . S
C1164 C1162 1.391 . S
C1164 C1165 1.400 . S
C1165 C1164 1.400 . S
C1165 C1166 1.398 . S
C1165 C1171 1.491 . S
C1166 H1157 0.950 . S
C1166 C1165 1.398 . S
C1166 C1167 1.391 . S
C1167 H1155 0.950 . S
C1167 C1163 1.393 . S
C1167 C1166 1.391 . S
C1168 H1158 0.950 . S
C1168 C1169 1.386 . S
C1168 C1170 1.391 . S
C1169 C1168 1.386 . S
C1169 C1173 1.393 . S
C1170 H1159 0.950 . S
C1170 C1168 1.391 . S
C1170 C1171 1.400 . S
C1171 C1165 1.491 . S
C1171 C1170 1.400 . S
C1171 C1172 1.398 . S
C1172 H1160 0.950 . S
C1172 C1171 1.398 . S
C1172 C1173 1.391 . S
C1173 H1161 0.950 . S
C1173 C1169 1.393 . S
C1173 C1172 1.391 . S
H1174 C1182 0.950 . S
H1175 C1187 0.950 . S
H1176 C1184 0.950 . S
H1177 C1186 0.950 . S
H1178 C1188 0.950 1_556 S
H1179 C1190 0.950 . S
H1180 C1192 0.950 . S
H1181 C1193 0.950 . S
C1182 H1174 0.950 . S
C1182 C1183 1.386 . S
C1182 C1184 1.391 . S
C1183 C1182 1.386 . S
C1183 C1187 1.393 . S
C1184 H1176 0.950 . S
C1184 C1182 1.391 . S
C1184 C1185 1.400 . S
C1185 C1184 1.400 . S
C1185 C1186 1.398 . S
C1185 C1191 1.491 . S
C1186 H1177 0.950 . S
C1186 C1185 1.398 . S
C1186 C1187 1.391 . S
C1187 H1175 0.950 . S
C1187 C1183 1.393 . S
C1187 C1186 1.391 . S
C1188 H1178 0.950 1_554 S
C1188 C1189 1.386 . S
C1188 C1190 1.391 . S
C1189 C1188 1.386 . S
C1189 C1193 1.393 . S
C1190 H1179 0.950 . S
C1190 C1188 1.391 . S
C1190 C1191 1.400 . S
C1191 C1185 1.491 . S
C1191 C1190 1.400 . S
C1191 C1192 1.398 . S
C1192 H1180 0.950 . S
C1192 C1191 1.398 . S
C1192 C1193 1.391 . S
C1193 H1181 0.950 . S
C1193 C1189 1.393 . S
C1193 C1192 1.391 . S
H1194 C1202 0.950 . S
H1195 C1207 0.950 . S
H1196 C1204 0.950 . S
H1197 C1206 0.950 . S
H1198 C1208 0.950 . S
H1199 C1210 0.950 . S
H1200 C1212 0.950 . S
H1201 C1213 0.950 . S
C1202 H1194 0.950 . S
C1202 C1203 1.386 . S
C1202 C1204 1.391 . S
C1203 C1202 1.386 . S
C1203 C1207 1.393 . S
C1204 H1196 0.950 . S
C1204 C1202 1.391 . S
C1204 C1205 1.400 . S
C1205 C1204 1.400 . S
C1205 C1206 1.398 . S
C1205 C1211 1.491 1_655 S
C1206 H1197 0.950 . S
C1206 C1205 1.398 . S
C1206 C1207 1.391 . S
C1207 H1195 0.950 . S
C1207 C1203 1.393 . S
C1207 C1206 1.391 . S
C1208 H1198 0.950 . S
C1208 C1209 1.386 . S
C1208 C1210 1.391 . S
C1209 C1208 1.386 . S
C1209 C1213 1.393 . S
C1210 H1199 0.950 . S
C1210 C1208 1.391 . S
C1210 C1211 1.400 . S
C1211 C1205 1.491 1_455 S
C1211 C1210 1.400 . S
C1211 C1212 1.398 . S
C1212 H1200 0.950 . S
C1212 C1211 1.398 . S
C1212 C1213 1.391 . S
C1213 H1201 0.950 . S
C1213 C1209 1.393 . S
C1213 C1212 1.391 . S
H1214 C1222 0.950 . S
H1215 C1227 0.950 . S
H1216 C1224 0.950 . S
H1217 C1226 0.950 . S
H1218 C1228 0.950 . S
H1219 C1230 0.950 . S
H1220 C1232 0.950 . S
H1221 C1233 0.950 . S
C1222 H1214 0.950 . S
C1222 C1223 1.386 . S
C1222 C1224 1.391 . S
C1223 C1222 1.386 . S
C1223 C1227 1.393 . S
C1224 H1216 0.950 . S
C1224 C1222 1.391 . S
C1224 C1225 1.400 . S
C1225 C1224 1.400 . S
C1225 C1226 1.398 . S
C1225 C1231 1.491 . S
C1226 H1217 0.950 . S
C1226 C1225 1.398 . S
C1226 C1227 1.391 . S
C1227 H1215 0.950 . S
C1227 C1223 1.393 . S
C1227 C1226 1.391 . S
C1228 H1218 0.950 . S
C1228 C1229 1.386 . S
C1228 C1230 1.391 . S
C1229 C1228 1.386 . S
C1229 C1233 1.393 . S
C1230 H1219 0.950 . S
C1230 C1228 1.391 . S
C1230 C1231 1.400 . S
C1231 C1225 1.491 . S
C1231 C1230 1.400 . S
C1231 C1232 1.398 . S
C1232 H1220 0.950 . S
C1232 C1231 1.398 . S
C1232 C1233 1.391 . S
C1233 H1221 0.950 . S
C1233 C1229 1.393 . S
C1233 C1232 1.391 . S
H1234 C1242 0.950 . S
H1235 C1247 0.950 . S
H1236 C1244 0.950 . S
H1237 C1246 0.950 . S
H1238 C1248 0.950 . S
H1239 C1250 0.950 1_545 S
H1240 C1252 0.950 . S
H1241 C1253 0.950 . S
C1242 H1234 0.950 . S
C1242 C1243 1.386 . S
C1242 C1244 1.391 . S
C1243 C1242 1.386 . S
C1243 C1247 1.393 . S
C1244 H1236 0.950 . S
C1244 C1242 1.391 . S
C1244 C1245 1.400 . S
C1245 C1244 1.400 . S
C1245 C1246 1.398 . S
C1245 C1251 1.491 1_545 S
C1246 H1237 0.950 . S
C1246 C1245 1.398 . S
C1246 C1247 1.391 . S
C1247 H1235 0.950 . S
C1247 C1243 1.393 . S
C1247 C1246 1.391 . S
C1248 H1238 0.950 . S
C1248 C1249 1.386 . S
C1248 C1250 1.391 . S
C1249 C1248 1.386 . S
C1249 C1253 1.393 . S
C1250 H1239 0.950 1_565 S
C1250 C1248 1.391 . S
C1250 C1251 1.400 . S
C1251 C1245 1.491 1_565 S
C1251 C1250 1.400 . S
C1251 C1252 1.398 . S
C1252 H1240 0.950 . S
C1252 C1251 1.398 . S
C1252 C1253 1.391 . S
C1253 H1241 0.950 . S
C1253 C1249 1.393 . S
C1253 C1252 1.391 . S
H1254 C1262 0.950 . S
H1255 C1267 0.950 . S
H1256 C1264 0.950 . S
H1257 C1266 0.950 . S
H1258 C1268 0.950 . S
H1259 C1270 0.950 . S
H1260 C1272 0.950 . S
H1261 C1273 0.950 . S
C1262 H1254 0.950 . S
C1262 C1263 1.386 . S
C1262 C1264 1.391 . S
C1263 C1262 1.386 . S
C1263 C1267 1.393 . S
C1264 H1256 0.950 . S
C1264 C1262 1.391 . S
C1264 C1265 1.400 . S
C1265 C1264 1.400 . S
C1265 C1266 1.398 . S
C1265 C1271 1.491 . S
C1266 H1257 0.950 . S
C1266 C1265 1.398 . S
C1266 C1267 1.391 . S
C1267 H1255 0.950 . S
C1267 C1263 1.393 . S
C1267 C1266 1.391 . S
C1268 H1258 0.950 . S
C1268 C1269 1.386 . S
C1268 C1270 1.391 . S
C1269 C1268 1.386 . S
C1269 C1273 1.393 . S
C1270 H1259 0.950 . S
C1270 C1268 1.391 . S
C1270 C1271 1.400 . S
C1271 C1265 1.491 . S
C1271 C1270 1.400 . S
C1271 C1272 1.398 . S
C1272 H1260 0.950 . S
C1272 C1271 1.398 . S
C1272 C1273 1.391 . S
C1273 H1261 0.950 . S
C1273 C1269 1.393 . S
C1273 C1272 1.391 . S
H1274 C1282 0.950 . S
H1275 C1287 0.950 . S
H1276 C1284 0.950 . S
H1277 C1286 0.950 . S
H1278 C1288 0.950 . S
H1279 C1290 0.950 . S
H1280 C1292 0.950 . S
H1281 C1293 0.950 . S
C1282 H1274 0.950 . S
C1282 C1283 1.386 . S
C1282 C1284 1.391 . S
C1283 C1282 1.386 . S
C1283 C1287 1.393 . S
C1284 H1276 0.950 . S
C1284 C1282 1.391 . S
C1284 C1285 1.400 . S
C1285 C1284 1.400 . S
C1285 C1286 1.398 . S
C1285 C1291 1.491 . S
C1286 H1277 0.950 . S
C1286 C1285 1.398 . S
C1286 C1287 1.391 . S
C1287 H1275 0.950 . S
C1287 C1283 1.393 . S
C1287 C1286 1.391 . S
C1288 H1278 0.950 . S
C1288 C1289 1.386 . S
C1288 C1290 1.391 . S
C1289 C1288 1.386 . S
C1289 C1293 1.393 . S
C1290 H1279 0.950 . S
C1290 C1288 1.391 . S
C1290 C1291 1.400 . S
C1291 C1285 1.491 . S
C1291 C1290 1.400 . S
C1291 C1292 1.398 . S
C1292 H1280 0.950 . S
C1292 C1291 1.398 . S
C1292 C1293 1.391 . S
C1293 H1281 0.950 . S
C1293 C1289 1.393 . S
C1293 C1292 1.391 . S
H1294 C1302 0.950 . S
H1295 C1307 0.950 . S
H1296 C1304 0.950 . S
H1297 C1306 0.950 . S
H1298 C1308 0.950 . S
H1299 C1310 0.950 . S
H1300 C1312 0.950 . S
H1301 C1313 0.950 . S
C1302 H1294 0.950 . S
C1302 C1303 1.386 . S
C1302 C1304 1.391 . S
C1303 C1302 1.386 . S
C1303 C1307 1.393 . S
C1304 H1296 0.950 . S
C1304 C1302 1.391 . S
C1304 C1305 1.400 . S
C1305 C1304 1.400 . S
C1305 C1306 1.398 . S
C1305 C1311 1.491 . S
C1306 H1297 0.950 . S
C1306 C1305 1.398 . S
C1306 C1307 1.391 . S
C1307 H1295 0.950 . S
C1307 C1303 1.393 . S
C1307 C1306 1.391 . S
C1308 H1298 0.950 . S
C1308 C1309 1.386 . S
C1308 C1310 1.391 . S
C1309 C1308 1.386 . S
C1309 C1313 1.393 . S
C1310 H1299 0.950 . S
C1310 C1308 1.391 . S
C1310 C1311 1.400 . S
C1311 C1305 1.491 . S
C1311 C1310 1.400 . S
C1311 C1312 1.398 . S
C1312 H1300 0.950 . S
C1312 C1311 1.398 . S
C1312 C1313 1.391 . S
C1313 H1301 0.950 . S
C1313 C1309 1.393 . S
C1313 C1312 1.391 . S
H1314 C1322 0.950 . S
H1315 C1327 0.950 . S
H1316 C1324 0.950 . S
H1317 C1326 0.950 . S
H1318 C1328 0.950 . S
H1319 C1330 0.950 . S
H1320 C1332 0.950 . S
H1321 C1333 0.950 . S
C1322 H1314 0.950 . S
C1322 C1323 1.386 . S
C1322 C1324 1.391 . S
C1323 C1322 1.386 . S
C1323 C1327 1.393 . S
C1324 H1316 0.950 . S
C1324 C1322 1.391 . S
C1324 C1325 1.400 . S
C1325 C1324 1.400 . S
C1325 C1326 1.398 . S
C1325 C1331 1.491 . S
C1326 H1317 0.950 . S
C1326 C1325 1.398 . S
C1326 C1327 1.391 . S
C1327 H1315 0.950 . S
C1327 C1323 1.393 . S
C1327 C1326 1.391 . S
C1328 H1318 0.950 . S
C1328 C1329 1.386 . S
C1328 C1330 1.391 . S
C1329 C1328 1.386 . S
C1329 C1333 1.393 . S
C1330 H1319 0.950 . S
C1330 C1328 1.391 . S
C1330 C1331 1.400 . S
C1331 C1325 1.491 . S
C1331 C1330 1.400 . S
C1331 C1332 1.398 . S
C1332 H1320 0.950 . S
C1332 C1331 1.398 . S
C1332 C1333 1.391 . S
C1333 H1321 0.950 . S
C1333 C1329 1.393 . S
C1333 C1332 1.391 . S
H1334 C1342 0.950 . S
H1335 C1347 0.950 . S
H1336 C1344 0.950 . S
H1337 C1346 0.950 . S
H1338 C1348 0.950 . S
H1339 C1350 0.950 . S
H1340 C1352 0.950 . S
H1341 C1353 0.950 . S
C1342 H1334 0.950 . S
C1342 C1343 1.386 . S
C1342 C1344 1.391 . S
C1343 C1342 1.386 . S
C1343 C1347 1.393 . S
C1344 H1336 0.950 . S
C1344 C1342 1.391 . S
C1344 C1345 1.400 . S
C1345 C1344 1.400 . S
C1345 C1346 1.398 . S
C1345 C1351 1.491 . S
C1346 H1337 0.950 . S
C1346 C1345 1.398 . S
C1346 C1347 1.391 . S
C1347 H1335 0.950 . S
C1347 C1343 1.393 . S
C1347 C1346 1.391 . S
C1348 H1338 0.950 . S
C1348 C1349 1.386 . S
C1348 C1350 1.391 . S
C1349 C1348 1.386 . S
C1349 C1353 1.393 . S
C1350 H1339 0.950 . S
C1350 C1348 1.391 . S
C1350 C1351 1.400 . S
C1351 C1345 1.491 . S
C1351 C1350 1.400 . S
C1351 C1352 1.398 . S
C1352 H1340 0.950 . S
C1352 C1351 1.398 . S
C1352 C1353 1.391 . S
C1353 H1341 0.950 . S
C1353 C1349 1.393 . S
C1353 C1352 1.391 . S
H1354 C1362 0.950 . S
H1355 C1367 0.950 . S
H1356 C1364 0.950 . S
H1357 C1366 0.950 . S
H1358 C1368 0.950 . S
H1359 C1370 0.950 . S
H1360 C1372 0.950 . S
H1361 C1373 0.950 . S
C1362 H1354 0.950 . S
C1362 C1363 1.386 . S
C1362 C1364 1.391 . S
C1363 C1362 1.386 . S
C1363 C1367 1.393 . S
C1364 H1356 0.950 . S
C1364 C1362 1.391 . S
C1364 C1365 1.400 . S
C1365 C1364 1.400 . S
C1365 C1366 1.398 . S
C1365 C1371 1.491 . S
C1366 H1357 0.950 . S
C1366 C1365 1.398 . S
C1366 C1367 1.391 . S
C1367 H1355 0.950 . S
C1367 C1363 1.393 . S
C1367 C1366 1.391 . S
C1368 H1358 0.950 . S
C1368 C1369 1.386 . S
C1368 C1370 1.391 . S
C1369 C1368 1.386 . S
C1369 C1373 1.393 . S
C1370 H1359 0.950 . S
C1370 C1368 1.391 . S
C1370 C1371 1.400 . S
C1371 C1365 1.491 . S
C1371 C1370 1.400 . S
C1371 C1372 1.398 . S
C1372 H1360 0.950 . S
C1372 C1371 1.398 . S
C1372 C1373 1.391 . S
C1373 H1361 0.950 . S
C1373 C1369 1.393 . S
C1373 C1372 1.391 . S
H1374 C1382 0.950 . S
H1375 C1387 0.950 . S
H1376 C1384 0.950 . S
H1377 C1386 0.950 . S
H1378 C1388 0.950 . S
H1379 C1390 0.950 . S
H1380 C1392 0.950 . S
H1381 C1393 0.950 . S
C1382 H1374 0.950 . S
C1382 C1383 1.386 . S
C1382 C1384 1.391 1_545 S
C1383 C1382 1.386 . S
C1383 C1387 1.393 . S
C1384 H1376 0.950 . S
C1384 C1382 1.391 1_565 S
C1384 C1385 1.400 . S
C1385 C1384 1.400 . S
C1385 C1386 1.398 . S
C1385 C1391 1.491 . S
C1386 H1377 0.950 . S
C1386 C1385 1.398 . S
C1386 C1387 1.391 1_565 S
C1387 H1375 0.950 . S
C1387 C1383 1.393 . S
C1387 C1386 1.391 1_545 S
C1388 H1378 0.950 . S
C1388 C1389 1.386 . S
C1388 C1390 1.391 . S
C1389 C1388 1.386 . S
C1389 C1393 1.393 . S
C1390 H1379 0.950 . S
C1390 C1388 1.391 . S
C1390 C1391 1.400 . S
C1391 C1385 1.491 . S
C1391 C1390 1.400 . S
C1391 C1392 1.398 . S
C1392 H1380 0.950 . S
C1392 C1391 1.398 . S
C1392 C1393 1.391 . S
C1393 H1381 0.950 . S
C1393 C1389 1.393 . S
C1393 C1392 1.391 . S
H1394 C1402 0.950 1_655 S
H1395 C1407 0.950 . S
H1396 C1404 0.950 . S
H1397 C1406 0.950 . S
H1398 C1408 0.950 . S
H1399 C1410 0.950 . S
H1400 C1412 0.950 . S
H1401 C1413 0.950 . S
C1402 H1394 0.950 1_455 S
C1402 C1403 1.386 1_455 S
C1402 C1404 1.391 . S
C1403 C1402 1.386 1_655 S
C1403 C1407 1.393 1_655 S
C1404 H1396 0.950 . S
C1404 C1402 1.391 . S
C1404 C1405 1.400 . S
C1405 C1404 1.400 . S
C1405 C1406 1.398 . S
C1405 C1411 1.491 . S
C1406 H1397 0.950 . S
C1406 C1405 1.398 . S
C1406 C1407 1.391 . S
C1407 H1395 0.950 . S
C1407 C1403 1.393 1_455 S
C1407 C1406 1.391 . S
C1408 H1398 0.950 . S
C1408 C1409 1.386 . S
C1408 C1410 1.391 . S
C1409 C1408 1.386 . S
C1409 C1413 1.393 . S
C1410 H1399 0.950 . S
C1410 C1408 1.391 . S
C1410 C1411 1.400 . S
C1411 C1405 1.491 . S
C1411 C1410 1.400 . S
C1411 C1412 1.398 . S
C1412 H1400 0.950 . S
C1412 C1411 1.398 . S
C1412 C1413 1.391 . S
C1413 H1401 0.950 . S
C1413 C1409 1.393 . S
C1413 C1412 1.391 . S
H1414 C1422 0.950 . S
H1415 C1427 0.950 . S
H1416 C1424 0.950 . S
H1417 C1426 0.950 . S
H1418 C1428 0.950 . S
H1419 C1430 0.950 . S
H1420 C1432 0.950 . S
H1421 C1433 0.950 . S
C1422 H1414 0.950 . S
C1422 C1423 1.386 . S
C1422 C1424 1.391 . S
C1423 C1422 1.386 . S
C1423 C1427 1.393 . S
C1424 H1416 0.950 . S
C1424 C1422 1.391 . S
C1424 C1425 1.400 . S
C1425 C1424 1.400 . S
C1425 C1426 1.398 . S
C1425 C1431 1.491 . S
C1426 H1417 0.950 . S
C1426 C1425 1.398 . S
C1426 C1427 1.391 . S
C1427 H1415 0.950 . S
C1427 C1423 1.393 . S
C1427 C1426 1.391 . S
C1428 H1418 0.950 . S
C1428 C1429 1.386 . S
C1428 C1430 1.391 . S
C1429 C1428 1.386 . S
C1429 C1433 1.393 . S
C1430 H1419 0.950 . S
C1430 C1428 1.391 . S
C1430 C1431 1.400 . S
C1431 C1425 1.491 . S
C1431 C1430 1.400 . S
C1431 C1432 1.398 . S
C1432 H1420 0.950 . S
C1432 C1431 1.398 . S
C1432 C1433 1.391 . S
C1433 H1421 0.950 . S
C1433 C1429 1.393 . S
C1433 C1432 1.391 . S
H1434 C1442 0.950 . S
H1435 C1447 0.950 . S
H1436 C1444 0.950 . S
H1437 C1446 0.950 . S
H1438 C1448 0.950 . S
H1439 C1450 0.950 . S
H1440 C1452 0.950 . S
H1441 C1453 0.950 . S
C1442 H1434 0.950 . S
C1442 C1443 1.386 . S
C1442 C1444 1.391 . S
C1443 C1442 1.386 . S
C1443 C1447 1.393 . S
C1444 H1436 0.950 . S
C1444 C1442 1.391 . S
C1444 C1445 1.400 . S
C1445 C1444 1.400 . S
C1445 C1446 1.398 . S
C1445 C1451 1.491 . S
C1446 H1437 0.950 . S
C1446 C1445 1.398 . S
C1446 C1447 1.391 . S
C1447 H1435 0.950 . S
C1447 C1443 1.393 . S
C1447 C1446 1.391 . S
C1448 H1438 0.950 . S
C1448 C1449 1.386 . S
C1448 C1450 1.391 . S
C1449 C1448 1.386 . S
C1449 C1453 1.393 . S
C1450 H1439 0.950 . S
C1450 C1448 1.391 . S
C1450 C1451 1.400 . S
C1451 C1445 1.491 . S
C1451 C1450 1.400 . S
C1451 C1452 1.398 . S
C1452 H1440 0.950 . S
C1452 C1451 1.398 . S
C1452 C1453 1.391 . S
C1453 H1441 0.950 . S
C1453 C1449 1.393 . S
C1453 C1452 1.391 . S
H1454 C1462 0.950 . S
H1455 C1467 0.950 . S
H1456 C1464 0.950 . S
H1457 C1466 0.950 . S
H1458 C1468 0.950 . S
H1459 C1470 0.950 . S
H1460 C1472 0.950 . S
H1461 C1473 0.950 . S
C1462 H1454 0.950 . S
C1462 C1463 1.386 . S
C1462 C1464 1.391 . S
C1463 C1462 1.386 . S
C1463 C1467 1.393 . S
C1464 H1456 0.950 . S
C1464 C1462 1.391 . S
C1464 C1465 1.400 . S
C1465 C1464 1.400 . S
C1465 C1466 1.398 . S
C1465 C1471 1.491 . S
C1466 H1457 0.950 . S
C1466 C1465 1.398 . S
C1466 C1467 1.391 . S
C1467 H1455 0.950 . S
C1467 C1463 1.393 . S
C1467 C1466 1.391 . S
C1468 H1458 0.950 . S
C1468 C1469 1.386 . S
C1468 C1470 1.391 . S
C1469 C1468 1.386 . S
C1469 C1473 1.393 . S
C1470 H1459 0.950 . S
C1470 C1468 1.391 . S
C1470 C1471 1.400 . S
C1471 C1465 1.491 . S
C1471 C1470 1.400 . S
C1471 C1472 1.398 . S
C1472 H1460 0.950 . S
C1472 C1471 1.398 . S
C1472 C1473 1.391 . S
C1473 H1461 0.950 . S
C1473 C1469 1.393 . S
C1473 C1472 1.391 . S
H1474 C1482 0.950 . S
H1475 C1487 0.950 . S
H1476 C1484 0.950 . S
H1477 C1486 0.950 . S
H1478 C1488 0.950 . S
H1479 C1490 0.950 . S
H1480 C1492 0.950 . S
H1481 C1493 0.950 . S
C1482 H1474 0.950 . S
C1482 C1483 1.386 . S
C1482 C1484 1.391 . S
C1483 C1482 1.386 . S
C1483 C1487 1.393 . S
C1484 H1476 0.950 . S
C1484 C1482 1.391 . S
C1484 C1485 1.400 . S
C1485 C1484 1.400 . S
C1485 C1486 1.398 . S
C1485 C1491 1.491 . S
C1486 H1477 0.950 . S
C1486 C1485 1.398 . S
C1486 C1487 1.391 . S
C1487 H1475 0.950 . S
C1487 C1483 1.393 . S
C1487 C1486 1.391 . S
C1488 H1478 0.950 . S
C1488 C1489 1.386 . S
C1488 C1490 1.391 . S
C1489 C1488 1.386 . S
C1489 C1493 1.393 . S
C1490 H1479 0.950 . S
C1490 C1488 1.391 . S
C1490 C1491 1.400 . S
C1491 C1485 1.491 . S
C1491 C1490 1.400 . S
C1491 C1492 1.398 . S
C1492 H1480 0.950 . S
C1492 C1491 1.398 . S
C1492 C1493 1.391 . S
C1493 H1481 0.950 . S
C1493 C1489 1.393 . S
C1493 C1492 1.391 . S
H1494 C1502 0.950 . S
H1495 C1507 0.950 . S
H1496 C1504 0.950 . S
H1497 C1506 0.950 1_545 S
H1498 C1508 0.950 . S
H1499 C1510 0.950 . S
H1500 C1512 0.950 . S
H1501 C1513 0.950 . S
C1502 H1494 0.950 . S
C1502 C1503 1.386 . S
C1502 C1504 1.391 . S
C1503 C1502 1.386 . S
C1503 C1507 1.393 . S
C1504 H1496 0.950 . S
C1504 C1502 1.391 . S
C1504 C1505 1.400 . S
C1505 C1504 1.400 . S
C1505 C1506 1.398 . S
C1505 C1511 1.491 1_565 S
C1506 H1497 0.950 1_565 S
C1506 C1505 1.398 . S
C1506 C1507 1.391 . S
C1507 H1495 0.950 . S
C1507 C1503 1.393 . S
C1507 C1506 1.391 . S
C1508 H1498 0.950 . S
C1508 C1509 1.386 . S
C1508 C1510 1.391 . S
C1509 C1508 1.386 . S
C1509 C1513 1.393 . S
C1510 H1499 0.950 . S
C1510 C1508 1.391 . S
C1510 C1511 1.400 . S
C1511 C1505 1.491 1_545 S
C1511 C1510 1.400 . S
C1511 C1512 1.398 . S
C1512 H1500 0.950 . S
C1512 C1511 1.398 . S
C1512 C1513 1.391 . S
C1513 H1501 0.950 . S
C1513 C1509 1.393 . S
C1513 C1512 1.391 . S
H1514 C1522 0.950 . S
H1515 C1527 0.950 . S
H1516 C1524 0.950 . S
H1517 C1526 0.950 . S
H1518 C1528 0.950 . S
H1519 C1530 0.950 . S
H1520 C1532 0.950 . S
H1521 C1533 0.950 . S
C1522 H1514 0.950 . S
C1522 C1523 1.386 . S
C1522 C1524 1.391 . S
C1523 C1522 1.386 . S
C1523 C1527 1.393 . S
C1524 H1516 0.950 . S
C1524 C1522 1.391 . S
C1524 C1525 1.400 . S
C1525 C1524 1.400 . S
C1525 C1526 1.398 . S
C1525 C1531 1.491 1_455 S
C1526 H1517 0.950 . S
C1526 C1525 1.398 . S
C1526 C1527 1.391 . S
C1527 H1515 0.950 . S
C1527 C1523 1.393 . S
C1527 C1526 1.391 . S
C1528 H1518 0.950 . S
C1528 C1529 1.386 . S
C1528 C1530 1.391 . S
C1529 C1528 1.386 . S
C1529 C1533 1.393 . S
C1530 H1519 0.950 . S
C1530 C1528 1.391 . S
C1530 C1531 1.400 . S
C1531 C1525 1.491 1_655 S
C1531 C1530 1.400 . S
C1531 C1532 1.398 . S
C1532 H1520 0.950 . S
C1532 C1531 1.398 . S
C1532 C1533 1.391 . S
C1533 H1521 0.950 . S
C1533 C1529 1.393 . S
C1533 C1532 1.391 . S
H1534 C1542 0.950 . S
H1535 C1547 0.950 . S
H1536 C1544 0.950 . S
H1537 C1546 0.950 . S
H1538 C1548 0.950 . S
H1539 C1550 0.950 . S
H1540 C1552 0.950 . S
H1541 C1553 0.950 . S
C1542 H1534 0.950 . S
C1542 C1543 1.386 . S
C1542 C1544 1.391 . S
C1543 C1542 1.386 . S
C1543 C1547 1.393 . S
C1544 H1536 0.950 . S
C1544 C1542 1.391 . S
C1544 C1545 1.400 . S
C1545 C1544 1.400 . S
C1545 C1546 1.398 . S
C1545 C1551 1.491 . S
C1546 H1537 0.950 . S
C1546 C1545 1.398 . S
C1546 C1547 1.391 . S
C1547 H1535 0.950 . S
C1547 C1543 1.393 . S
C1547 C1546 1.391 . S
C1548 H1538 0.950 . S
C1548 C1549 1.386 . S
C1548 C1550 1.391 . S
C1549 C1548 1.386 . S
C1549 C1553 1.393 . S
C1550 H1539 0.950 . S
C1550 C1548 1.391 . S
C1550 C1551 1.400 . S
C1551 C1545 1.491 . S
C1551 C1550 1.400 . S
C1551 C1552 1.398 . S
C1552 H1540 0.950 . S
C1552 C1551 1.398 . S
C1552 C1553 1.391 . S
C1553 H1541 0.950 . S
C1553 C1549 1.393 . S
C1553 C1552 1.391 . S
H1554 C1562 0.950 . S
H1555 C1567 0.950 . S
H1556 C1564 0.950 . S
H1557 C1566 0.950 . S
H1558 C1568 0.950 . S
H1559 C1570 0.950 . S
H1560 C1572 0.950 . S
H1561 C1573 0.950 . S
C1562 H1554 0.950 . S
C1562 C1563 1.386 . S
C1562 C1564 1.391 1_455 S
C1563 C1562 1.386 . S
C1563 C1567 1.393 1_455 S
C1564 H1556 0.950 . S
C1564 C1562 1.391 1_655 S
C1564 C1565 1.400 . S
C1565 C1564 1.400 . S
C1565 C1566 1.398 . S
C1565 C1571 1.491 . S
C1566 H1557 0.950 . S
C1566 C1565 1.398 . S
C1566 C1567 1.391 . S
C1567 H1555 0.950 . S
C1567 C1563 1.393 1_655 S
C1567 C1566 1.391 . S
C1568 H1558 0.950 . S
C1568 C1569 1.386 . S
C1568 C1570 1.391 . S
C1569 C1568 1.386 . S
C1569 C1573 1.393 . S
C1570 H1559 0.950 . S
C1570 C1568 1.391 . S
C1570 C1571 1.400 . S
C1571 C1565 1.491 . S
C1571 C1570 1.400 . S
C1571 C1572 1.398 . S
C1572 H1560 0.950 . S
C1572 C1571 1.398 . S
C1572 C1573 1.391 . S
C1573 H1561 0.950 . S
C1573 C1569 1.393 . S
C1573 C1572 1.391 . S
H1574 C1582 0.950 . S
H1575 C1587 0.950 . S
H1576 C1584 0.950 . S
H1577 C1586 0.950 . S
H1578 C1588 0.950 . S
H1579 C1590 0.950 . S
H1580 C1592 0.950 . S
H1581 C1593 0.950 . S
C1582 H1574 0.950 . S
C1582 C1583 1.386 . S
C1582 C1584 1.391 . S
C1583 C1582 1.386 . S
C1583 C1587 1.393 . S
C1584 H1576 0.950 . S
C1584 C1582 1.391 . S
C1584 C1585 1.400 . S
C1585 C1584 1.400 . S
C1585 C1586 1.398 . S
C1585 C1591 1.491 . S
C1586 H1577 0.950 . S
C1586 C1585 1.398 . S
C1586 C1587 1.391 . S
C1587 H1575 0.950 . S
C1587 C1583 1.393 . S
C1587 C1586 1.391 . S
C1588 H1578 0.950 . S
C1588 C1589 1.386 . S
C1588 C1590 1.391 . S
C1589 C1588 1.386 . S
C1589 C1593 1.393 . S
C1590 H1579 0.950 . S
C1590 C1588 1.391 . S
C1590 C1591 1.400 . S
C1591 C1585 1.491 . S
C1591 C1590 1.400 . S
C1591 C1592 1.398 . S
C1592 H1580 0.950 . S
C1592 C1591 1.398 . S
C1592 C1593 1.391 . S
C1593 H1581 0.950 . S
C1593 C1589 1.393 . S
C1593 C1592 1.391 . S
H1594 C1602 0.950 . S
H1595 C1607 0.950 . S
H1596 C1604 0.950 . S
H1597 C1606 0.950 . S
H1598 C1608 0.950 . S
H1599 C1610 0.950 . S
H1600 C1612 0.950 . S
H1601 C1613 0.950 . S
C1602 H1594 0.950 . S
C1602 C1603 1.386 1_545 S
C1602 C1604 1.391 . S
C1603 C1602 1.386 1_565 S
C1603 C1607 1.393 . S
C1604 H1596 0.950 . S
C1604 C1602 1.391 . S
C1604 C1605 1.400 . S
C1605 C1604 1.400 . S
C1605 C1606 1.398 . S
C1605 C1611 1.491 . S
C1606 H1597 0.950 . S
C1606 C1605 1.398 . S
C1606 C1607 1.391 1_545 S
C1607 H1595 0.950 . S
C1607 C1603 1.393 . S
C1607 C1606 1.391 1_565 S
C1608 H1598 0.950 . S
C1608 C1609 1.386 . S
C1608 C1610 1.391 . S
C1609 C1608 1.386 . S
C1609 C1613 1.393 . S
C1610 H1599 0.950 . S
C1610 C1608 1.391 . S
C1610 C1611 1.400 . S
C1611 C1605 1.491 . S
C1611 C1610 1.400 . S
C1611 C1612 1.398 . S
C1612 H1600 0.950 . S
C1612 C1611 1.398 . S
C1612 C1613 1.391 . S
C1613 H1601 0.950 . S
C1613 C1609 1.393 . S
C1613 C1612 1.391 . S
H1614 C1622 0.950 . S
H1615 C1627 0.950 . S
H1616 C1624 0.950 . S
H1617 C1626 0.950 . S
H1618 C1628 0.950 . S
H1619 C1630 0.950 . S
H1620 C1632 0.950 . S
H1621 C1633 0.950 . S
C1622 H1614 0.950 . S
C1622 C1623 1.386 . S
C1622 C1624 1.391 . S
C1623 C1622 1.386 . S
C1623 C1627 1.393 . S
C1624 H1616 0.950 . S
C1624 C1622 1.391 . S
C1624 C1625 1.400 . S
C1625 C1624 1.400 . S
C1625 C1626 1.398 . S
C1625 C1631 1.491 . S
C1626 H1617 0.950 . S
C1626 C1625 1.398 . S
C1626 C1627 1.391 . S
C1627 H1615 0.950 . S
C1627 C1623 1.393 . S
C1627 C1626 1.391 . S
C1628 H1618 0.950 . S
C1628 C1629 1.386 . S
C1628 C1630 1.391 . S
C1629 C1628 1.386 . S
C1629 C1633 1.393 . S
C1630 H1619 0.950 . S
C1630 C1628 1.391 . S
C1630 C1631 1.400 . S
C1631 C1625 1.491 . S
C1631 C1630 1.400 . S
C1631 C1632 1.398 . S
C1632 H1620 0.950 . S
C1632 C1631 1.398 . S
C1632 C1633 1.391 . S
C1633 H1621 0.950 . S
C1633 C1629 1.393 . S
C1633 C1632 1.391 . S
H1634 C1642 0.950 . S
H1635 C1647 0.950 . S
H1636 C1644 0.950 . S
H1637 C1646 0.950 . S
H1638 C1648 0.950 . S
H1639 C1650 0.950 . S
H1640 C1652 0.950 . S
H1641 C1653 0.950 . S
C1642 H1634 0.950 . S
C1642 C1643 1.386 . S
C1642 C1644 1.391 . S
C1643 C1642 1.386 . S
C1643 C1647 1.393 . S
C1644 H1636 0.950 . S
C1644 C1642 1.391 . S
C1644 C1645 1.400 . S
C1645 C1644 1.400 . S
C1645 C1646 1.398 . S
C1645 C1651 1.491 . S
C1646 H1637 0.950 . S
C1646 C1645 1.398 . S
C1646 C1647 1.391 . S
C1647 H1635 0.950 . S
C1647 C1643 1.393 . S
C1647 C1646 1.391 . S
C1648 H1638 0.950 . S
C1648 C1649 1.386 . S
C1648 C1650 1.391 . S
C1649 C1648 1.386 . S
C1649 C1653 1.393 . S
C1650 H1639 0.950 . S
C1650 C1648 1.391 . S
C1650 C1651 1.400 . S
C1651 C1645 1.491 . S
C1651 C1650 1.400 . S
C1651 C1652 1.398 . S
C1652 H1640 0.950 . S
C1652 C1651 1.398 . S
C1652 C1653 1.391 . S
C1653 H1641 0.950 . S
C1653 C1649 1.393 . S
C1653 C1652 1.391 . S
H1654 C1662 0.950 . S
H1655 C1667 0.950 . S
H1656 C1664 0.950 . S
H1657 C1666 0.950 . S
H1658 C1668 0.950 . S
H1659 C1670 0.950 . S
H1660 C1672 0.950 . S
H1661 C1673 0.950 . S
C1662 H1654 0.950 . S
C1662 C1663 1.386 . S
C1662 C1664 1.391 . S
C1663 C1662 1.386 . S
C1663 C1667 1.393 . S
C1664 H1656 0.950 . S
C1664 C1662 1.391 . S
C1664 C1665 1.400 . S
C1665 C1664 1.400 . S
C1665 C1666 1.398 . S
C1665 C1671 1.491 . S
C1666 H1657 0.950 . S
C1666 C1665 1.398 . S
C1666 C1667 1.391 . S
C1667 H1655 0.950 . S
C1667 C1663 1.393 . S
C1667 C1666 1.391 . S
C1668 H1658 0.950 . S
C1668 C1669 1.386 . S
C1668 C1670 1.391 . S
C1669 C1668 1.386 . S
C1669 C1673 1.393 . S
C1670 H1659 0.950 . S
C1670 C1668 1.391 . S
C1670 C1671 1.400 . S
C1671 C1665 1.491 . S
C1671 C1670 1.400 . S
C1671 C1672 1.398 . S
C1672 H1660 0.950 . S
C1672 C1671 1.398 . S
C1672 C1673 1.391 . S
C1673 H1661 0.950 . S
C1673 C1669 1.393 . S
C1673 C1672 1.391 . S
H1674 C1682 0.950 . S
H1675 C1687 0.950 . S
H1676 C1684 0.950 . S
H1677 C1686 0.950 . S
H1678 C1688 0.950 . S
H1679 C1690 0.950 . S
H1680 C1692 0.950 . S
H1681 C1693 0.950 . S
C1682 H1674 0.950 . S
C1682 C1683 1.386 . S
C1682 C1684 1.391 . S
C1683 C1682 1.386 . S
C1683 C1687 1.393 . S
C1684 H1676 0.950 . S
C1684 C1682 1.391 . S
C1684 C1685 1.400 . S
C1685 C1684 1.400 . S
C1685 C1686 1.398 . S
C1685 C1691 1.491 . S
C1686 H1677 0.950 . S
C1686 C1685 1.398 . S
C1686 C1687 1.391 . S
C1687 H1675 0.950 . S
C1687 C1683 1.393 . S
C1687 C1686 1.391 . S
C1688 H1678 0.950 . S
C1688 C1689 1.386 . S
C1688 C1690 1.391 . S
C1689 C1688 1.386 . S
C1689 C1693 1.393 . S
C1690 H1679 0.950 . S
C1690 C1688 1.391 . S
C1690 C1691 1.400 . S
C1691 C1685 1.491 . S
C1691 C1690 1.400 . S
C1691 C1692 1.398 . S
C1692 H1680 0.950 . S
C1692 C1691 1.398 . S
C1692 C1693 1.391 . S
C1693 H1681 0.950 . S
C1693 C1689 1.393 . S
C1693 C1692 1.391 . S
H1694 C1702 0.950 . S
H1695 C1707 0.950 . S
H1696 C1704 0.950 . S
H1697 C1706 0.950 . S
H1698 C1708 0.950 . S
H1699 C1710 0.950 . S
H1700 C1712 0.950 . S
H1701 C1713 0.950 . S
C1702 H1694 0.950 . S
C1702 C1703 1.386 . S
C1702 C1704 1.391 . S
C1703 C1702 1.386 . S
C1703 C1707 1.393 . S
C1704 H1696 0.950 . S
C1704 C1702 1.391 . S
C1704 C1705 1.400 . S
C1705 C1704 1.400 . S
C1705 C1706 1.398 . S
C1705 C1711 1.491 . S
C1706 H1697 0.950 . S
C1706 C1705 1.398 . S
C1706 C1707 1.391 . S
C1707 H1695 0.950 . S
C1707 C1703 1.393 . S
C1707 C1706 1.391 . S
C1708 H1698 0.950 . S
C1708 C1709 1.386 . S
C1708 C1710 1.391 . S
C1709 C1708 1.386 . S
C1709 C1713 1.393 . S
C1710 H1699 0.950 . S
C1710 C1708 1.391 . S
C1710 C1711 1.400 . S
C1711 C1705 1.491 . S
C1711 C1710 1.400 . S
C1711 C1712 1.398 . S
C1712 H1700 0.950 . S
C1712 C1711 1.398 . S
C1712 C1713 1.391 . S
C1713 H1701 0.950 . S
C1713 C1709 1.393 . S
C1713 C1712 1.391 . S
H1714 C1722 0.950 . S
H1715 C1727 0.950 . S
H1716 C1724 0.950 . S
H1717 C1726 0.950 . S
H1718 C1728 0.950 . S
H1719 C1730 0.950 . S
H1720 C1732 0.950 . S
H1721 C1733 0.950 . S
C1722 H1714 0.950 . S
C1722 C1723 1.386 . S
C1722 C1724 1.391 . S
C1723 C1722 1.386 . S
C1723 C1727 1.393 . S
C1724 H1716 0.950 . S
C1724 C1722 1.391 . S
C1724 C1725 1.400 . S
C1725 C1724 1.400 . S
C1725 C1726 1.398 . S
C1725 C1731 1.491 . S
C1726 H1717 0.950 . S
C1726 C1725 1.398 . S
C1726 C1727 1.391 . S
C1727 H1715 0.950 . S
C1727 C1723 1.393 . S
C1727 C1726 1.391 . S
C1728 H1718 0.950 . S
C1728 C1729 1.386 . S
C1728 C1730 1.391 . S
C1729 C1728 1.386 . S
C1729 C1733 1.393 . S
C1730 H1719 0.950 . S
C1730 C1728 1.391 . S
C1730 C1731 1.400 . S
C1731 C1725 1.491 . S
C1731 C1730 1.400 . S
C1731 C1732 1.398 . S
C1732 H1720 0.950 . S
C1732 C1731 1.398 . S
C1732 C1733 1.391 . S
C1733 H1721 0.950 . S
C1733 C1729 1.393 . S
C1733 C1732 1.391 . S
H1734 C1742 0.950 . S
H1735 C1747 0.950 . S
H1736 C1744 0.950 . S
H1737 C1746 0.950 . S
H1738 C1748 0.950 . S
H1739 C1750 0.950 . S
H1740 C1752 0.950 . S
H1741 C1753 0.950 . S
C1742 H1734 0.950 . S
C1742 C1743 1.386 . S
C1742 C1744 1.391 . S
C1743 C1742 1.386 . S
C1743 C1747 1.393 . S
C1744 H1736 0.950 . S
C1744 C1742 1.391 . S
C1744 C1745 1.400 . S
C1745 C1744 1.400 . S
C1745 C1746 1.398 . S
C1745 C1751 1.491 . S
C1746 H1737 0.950 . S
C1746 C1745 1.398 . S
C1746 C1747 1.391 . S
C1747 H1735 0.950 . S
C1747 C1743 1.393 . S
C1747 C1746 1.391 . S
C1748 H1738 0.950 . S
C1748 C1749 1.386 . S
C1748 C1750 1.391 . S
C1749 C1748 1.386 . S
C1749 C1753 1.393 . S
C1750 H1739 0.950 . S
C1750 C1748 1.391 . S
C1750 C1751 1.400 . S
C1751 C1745 1.491 . S
C1751 C1750 1.400 . S
C1751 C1752 1.398 . S
C1752 H1740 0.950 . S
C1752 C1751 1.398 . S
C1752 C1753 1.391 . S
C1753 H1741 0.950 . S
C1753 C1749 1.393 . S
C1753 C1752 1.391 . S
H1754 C1762 0.950 . S
H1755 C1767 0.950 . S
H1756 C1764 0.950 . S
H1757 C1766 0.950 . S
H1758 C1768 0.950 . S
H1759 C1770 0.950 . S
H1760 C1772 0.950 . S
H1761 C1773 0.950 . S
C1762 H1754 0.950 . S
C1762 C1763 1.386 . S
C1762 C1764 1.391 . S
C1763 C1762 1.386 . S
C1763 C1767 1.393 . S
C1764 H1756 0.950 . S
C1764 C1762 1.391 . S
C1764 C1765 1.400 . S
C1765 C1764 1.400 . S
C1765 C1766 1.398 . S
C1765 C1771 1.491 . S
C1766 H1757 0.950 . S
C1766 C1765 1.398 . S
C1766 C1767 1.391 . S
C1767 H1755 0.950 . S
C1767 C1763 1.393 . S
C1767 C1766 1.391 . S
C1768 H1758 0.950 . S
C1768 C1769 1.386 . S
C1768 C1770 1.391 . S
C1769 C1768 1.386 . S
C1769 C1773 1.393 . S
C1770 H1759 0.950 . S
C1770 C1768 1.391 . S
C1770 C1771 1.400 . S
C1771 C1765 1.491 . S
C1771 C1770 1.400 . S
C1771 C1772 1.398 . S
C1772 H1760 0.950 . S
C1772 C1771 1.398 . S
C1772 C1773 1.391 . S
C1773 H1761 0.950 . S
C1773 C1769 1.393 . S
C1773 C1772 1.391 . S
H1774 C1782 0.950 . S
H1775 C1787 0.950 . S
H1776 C1784 0.950 . S
H1777 C1786 0.950 . S
H1778 C1788 0.950 . S
H1779 C1790 0.950 . S
H1780 C1792 0.950 . S
H1781 C1793 0.950 . S
C1782 H1774 0.950 . S
C1782 C1783 1.386 . S
C1782 C1784 1.391 . S
C1783 C1782 1.386 . S
C1783 C1787 1.393 . S
C1784 H1776 0.950 . S
C1784 C1782 1.391 . S
C1784 C1785 1.400 . S
C1785 C1784 1.400 . S
C1785 C1786 1.398 . S
C1785 C1791 1.491 . S
C1786 H1777 0.950 . S
C1786 C1785 1.398 . S
C1786 C1787 1.391 . S
C1787 H1775 0.950 . S
C1787 C1783 1.393 . S
C1787 C1786 1.391 . S
C1788 H1778 0.950 . S
C1788 C1789 1.386 . S
C1788 C1790 1.391 . S
C1789 C1788 1.386 . S
C1789 C1793 1.393 . S
C1790 H1779 0.950 . S
C1790 C1788 1.391 . S
C1790 C1791 1.400 . S
C1791 C1785 1.491 . S
C1791 C1790 1.400 . S
C1791 C1792 1.398 . S
C1792 H1780 0.950 . S
C1792 C1791 1.398 . S
C1792 C1793 1.391 . S
C1793 H1781 0.950 . S
C1793 C1789 1.393 . S
C1793 C1792 1.391 . S
H1794 C1802 0.950 . S
H1795 C1807 0.950 . S
H1796 C1804 0.950 . S
H1797 C1806 0.950 . S
H1798 C1808 0.950 . S
H1799 C1810 0.950 . S
H1800 C1812 0.950 . S
H1801 C1813 0.950 . S
C1802 H1794 0.950 . S
C1802 C1803 1.386 . S
C1802 C1804 1.391 . S
C1803 C1802 1.386 . S
C1803 C1807 1.393 . S
C1804 H1796 0.950 . S
C1804 C1802 1.391 . S
C1804 C1805 1.400 . S
C1805 C1804 1.400 . S
C1805 C1806 1.398 . S
C1805 C1811 1.491 . S
C1806 H1797 0.950 . S
C1806 C1805 1.398 . S
C1806 C1807 1.391 . S
C1807 H1795 0.950 . S
C1807 C1803 1.393 . S
C1807 C1806 1.391 . S
C1808 H1798 0.950 . S
C1808 C1809 1.386 . S
C1808 C1810 1.391 . S
C1809 C1808 1.386 . S
C1809 C1813 1.393 . S
C1810 H1799 0.950 . S
C1810 C1808 1.391 . S
C1810 C1811 1.400 . S
C1811 C1805 1.491 . S
C1811 C1810 1.400 . S
C1811 C1812 1.398 . S
C1812 H1800 0.950 . S
C1812 C1811 1.398 . S
C1812 C1813 1.391 . S
C1813 H1801 0.950 . S
C1813 C1809 1.393 . S
C1813 C1812 1.391 . S
H1814 C1822 0.950 . S
H1815 C1827 0.950 . S
H1816 C1824 0.950 . S
H1817 C1826 0.950 . S
H1818 C1828 0.950 . S
H1819 C1830 0.950 . S
H1820 C1832 0.950 . S
H1821 C1833 0.950 . S
C1822 H1814 0.950 . S
C1822 C1823 1.386 . S
C1822 C1824 1.391 . S
C1823 C1822 1.386 . S
C1823 C1827 1.393 . S
C1824 H1816 0.950 . S
C1824 C1822 1.391 . S
C1824 C1825 1.400 . S
C1825 C1824 1.400 . S
C1825 C1826 1.398 . S
C1825 C1831 1.491 . S
C1826 H1817 0.950 . S
C1826 C1825 1.398 . S
C1826 C1827 1.391 . S
C1827 H1815 0.950 . S
C1827 C1823 1.393 . S
C1827 C1826 1.391 . S
C1828 H1818 0.950 . S
C1828 C1829 1.386 . S
C1828 C1830 1.391 . S
C1829 C1828 1.386 . S
C1829 C1833 1.393 . S
C1830 H1819 0.950 . S
C1830 C1828 1.391 . S
C1830 C1831 1.400 . S
C1831 C1825 1.491 . S
C1831 C1830 1.400 . S
C1831 C1832 1.398 . S
C1832 H1820 0.950 . S
C1832 C1831 1.398 . S
C1832 C1833 1.391 . S
C1833 H1821 0.950 . S
C1833 C1829 1.393 . S
C1833 C1832 1.391 . S
H1834 C1842 0.950 . S
H1835 C1847 0.950 . S
H1836 C1844 0.950 . S
H1837 C1846 0.950 . S
H1838 C1848 0.950 . S
H1839 C1850 0.950 . S
H1840 C1852 0.950 . S
H1841 C1853 0.950 . S
C1842 H1834 0.950 . S
C1842 C1843 1.386 . S
C1842 C1844 1.391 . S
C1843 C1842 1.386 . S
C1843 C1847 1.393 . S
C1844 H1836 0.950 . S
C1844 C1842 1.391 . S
C1844 C1845 1.400 . S
C1845 C1844 1.400 . S
C1845 C1846 1.398 . S
C1845 C1851 1.491 . S
C1846 H1837 0.950 . S
C1846 C1845 1.398 . S
C1846 C1847 1.391 . S
C1847 H1835 0.950 . S
C1847 C1843 1.393 . S
C1847 C1846 1.391 . S
C1848 H1838 0.950 . S
C1848 C1849 1.386 . S
C1848 C1850 1.391 . S
C1849 C1848 1.386 . S
C1849 C1853 1.393 . S
C1850 H1839 0.950 . S
C1850 C1848 1.391 . S
C1850 C1851 1.400 . S
C1851 C1845 1.491 . S
C1851 C1850 1.400 . S
C1851 C1852 1.398 . S
C1852 H1840 0.950 . S
C1852 C1851 1.398 . S
C1852 C1853 1.391 . S
C1853 H1841 0.950 . S
C1853 C1849 1.393 . S
C1853 C1852 1.391 . S
H1854 C1862 0.950 . S
H1855 C1867 0.950 . S
H1856 C1864 0.950 . S
H1857 C1866 0.950 . S
H1858 C1868 0.950 . S
H1859 C1870 0.950 . S
H1860 C1872 0.950 . S
H1861 C1873 0.950 . S
C1862 H1854 0.950 . S
C1862 C1863 1.386 . S
C1862 C1864 1.391 . S
C1863 C1862 1.386 . S
C1863 C1867 1.393 . S
C1864 H1856 0.950 . S
C1864 C1862 1.391 . S
C1864 C1865 1.400 . S
C1865 C1864 1.400 . S
C1865 C1866 1.398 . S
C1865 C1871 1.491 . S
C1866 H1857 0.950 . S
C1866 C1865 1.398 . S
C1866 C1867 1.391 . S
C1867 H1855 0.950 . S
C1867 C1863 1.393 . S
C1867 C1866 1.391 . S
C1868 H1858 0.950 . S
C1868 C1869 1.386 . S
C1868 C1870 1.391 . S
C1869 C1868 1.386 . S
C1869 C1873 1.393 . S
C1870 H1859 0.950 . S
C1870 C1868 1.391 . S
C1870 C1871 1.400 . S
C1871 C1865 1.491 . S
C1871 C1870 1.400 . S
C1871 C1872 1.398 . S
C1872 H1860 0.950 . S
C1872 C1871 1.398 . S
C1872 C1873 1.391 . S
C1873 H1861 0.950 . S
C1873 C1869 1.393 . S
C1873 C1872 1.391 . S
H1874 C1882 0.950 . S
H1875 C1887 0.950 . S
H1876 C1884 0.950 . S
H1877 C1886 0.950 . S
H1878 C1888 0.950 . S
H1879 C1890 0.950 . S
H1880 C1892 0.950 . S
H1881 C1893 0.950 . S
C1882 H1874 0.950 . S
C1882 C1883 1.386 . S
C1882 C1884 1.391 . S
C1883 C1882 1.386 . S
C1883 C1887 1.393 . S
C1884 H1876 0.950 . S
C1884 C1882 1.391 . S
C1884 C1885 1.400 . S
C1885 C1884 1.400 . S
C1885 C1886 1.398 . S
C1885 C1891 1.491 . S
C1886 H1877 0.950 . S
C1886 C1885 1.398 . S
C1886 C1887 1.391 . S
C1887 H1875 0.950 . S
C1887 C1883 1.393 . S
C1887 C1886 1.391 . S
C1888 H1878 0.950 . S
C1888 C1889 1.386 . S
C1888 C1890 1.391 . S
C1889 C1888 1.386 . S
C1889 C1893 1.393 . S
C1890 H1879 0.950 . S
C1890 C1888 1.391 . S
C1890 C1891 1.400 . S
C1891 C1885 1.491 . S
C1891 C1890 1.400 . S
C1891 C1892 1.398 . S
C1892 H1880 0.950 . S
C1892 C1891 1.398 . S
C1892 C1893 1.391 . S
C1893 H1881 0.950 . S
C1893 C1889 1.393 . S
C1893 C1892 1.391 . S
H1894 C1902 0.950 . S
H1895 C1907 0.950 . S
H1896 C1904 0.950 . S
H1897 C1906 0.950 . S
H1898 C1908 0.950 . S
H1899 C1910 0.950 . S
H1900 C1912 0.950 . S
H1901 C1913 0.950 . S
C1902 H1894 0.950 . S
C1902 C1903 1.386 . S
C1902 C1904 1.391 . S
C1903 C1902 1.386 . S
C1903 C1907 1.393 . S
C1904 H1896 0.950 . S
C1904 C1902 1.391 . S
C1904 C1905 1.400 . S
C1905 C1904 1.400 . S
C1905 C1906 1.398 . S
C1905 C1911 1.491 . S
C1906 H1897 0.950 . S
C1906 C1905 1.398 . S
C1906 C1907 1.391 . S
C1907 H1895 0.950 . S
C1907 C1903 1.393 . S
C1907 C1906 1.391 . S
C1908 H1898 0.950 . S
C1908 C1909 1.386 . S
C1908 C1910 1.391 . S
C1909 C1908 1.386 . S
C1909 C1913 1.393 . S
C1910 H1899 0.950 . S
C1910 C1908 1.391 . S
C1910 C1911 1.400 . S
C1911 C1905 1.491 . S
C1911 C1910 1.400 . S
C1911 C1912 1.398 . S
C1912 H1900 0.950 . S
C1912 C1911 1.398 . S
C1912 C1913 1.391 . S
C1913 H1901 0.950 . S
C1913 C1909 1.393 . S
C1913 C1912 1.391 . S
H1914 C1922 0.950 . S
H1915 C1927 0.950 . S
H1916 C1924 0.950 . S
H1917 C1926 0.950 . S
H1918 C1928 0.950 . S
H1919 C1930 0.950 . S
H1920 C1932 0.950 . S
H1921 C1933 0.950 . S
C1922 H1914 0.950 . S
C1922 C1923 1.386 . S
C1922 C1924 1.391 . S
C1923 C1922 1.386 . S
C1923 C1927 1.393 . S
C1924 H1916 0.950 . S
C1924 C1922 1.391 . S
C1924 C1925 1.400 . S
C1925 C1924 1.400 . S
C1925 C1926 1.398 . S
C1925 C1931 1.491 . S
C1926 H1917 0.950 . S
C1926 C1925 1.398 . S
C1926 C1927 1.391 . S
C1927 H1915 0.950 . S
C1927 C1923 1.393 . S
C1927 C1926 1.391 . S
C1928 H1918 0.950 . S
C1928 C1929 1.386 . S
C1928 C1930 1.391 . S
C1929 C1928 1.386 . S
C1929 C1933 1.393 . S
C1930 H1919 0.950 . S
C1930 C1928 1.391 . S
C1930 C1931 1.400 . S
C1931 C1925 1.491 . S
C1931 C1930 1.400 . S
C1931 C1932 1.398 . S
C1932 H1920 0.950 . S
C1932 C1931 1.398 . S
C1932 C1933 1.391 . S
C1933 H1921 0.950 . S
C1933 C1929 1.393 . S
C1933 C1932 1.391 . S
H1934 C1942 0.950 . S
H1935 C1947 0.950 . S
H1936 C1944 0.950 . S
H1937 C1946 0.950 . S
H1938 C1948 0.950 . S
H1939 C1950 0.950 . S
H1940 C1952 0.950 . S
H1941 C1953 0.950 . S
C1942 H1934 0.950 . S
C1942 C1943 1.386 . S
C1942 C1944 1.391 . S
C1943 C1942 1.386 . S
C1943 C1947 1.393 . S
C1944 H1936 0.950 . S
C1944 C1942 1.391 . S
C1944 C1945 1.400 . S
C1945 C1944 1.400 . S
C1945 C1946 1.398 . S
C1945 C1951 1.491 . S
C1946 H1937 0.950 . S
C1946 C1945 1.398 . S
C1946 C1947 1.391 . S
C1947 H1935 0.950 . S
C1947 C1943 1.393 . S
C1947 C1946 1.391 . S
C1948 H1938 0.950 . S
C1948 C1949 1.386 . S
C1948 C1950 1.391 . S
C1949 C1948 1.386 . S
C1949 C1953 1.393 . S
C1950 H1939 0.950 . S
C1950 C1948 1.391 . S
C1950 C1951 1.400 . S
C1951 C1945 1.491 . S
C1951 C1950 1.400 . S
C1951 C1952 1.398 . S
C1952 H1940 0.950 . S
C1952 C1951 1.398 . S
C1952 C1953 1.391 . S
C1953 H1941 0.950 . S
C1953 C1949 1.393 . S
C1953 C1952 1.391 . S
H1954 C1962 0.950 . S
H1955 C1967 0.950 . S
H1956 C1964 0.950 . S
H1957 C1966 0.950 . S
H1958 C1968 0.950 . S
H1959 C1970 0.950 . S
H1960 C1972 0.950 . S
H1961 C1973 0.950 . S
C1962 H1954 0.950 . S
C1962 C1963 1.386 . S
C1962 C1964 1.391 . S
C1963 C1962 1.386 . S
C1963 C1967 1.393 . S
C1964 H1956 0.950 . S
C1964 C1962 1.391 . S
C1964 C1965 1.400 . S
C1965 C1964 1.400 . S
C1965 C1966 1.398 . S
C1965 C1971 1.491 . S
C1966 H1957 0.950 . S
C1966 C1965 1.398 . S
C1966 C1967 1.391 . S
C1967 H1955 0.950 . S
C1967 C1963 1.393 . S
C1967 C1966 1.391 . S
C1968 H1958 0.950 . S
C1968 C1969 1.386 . S
C1968 C1970 1.391 . S
C1969 C1968 1.386 . S
C1969 C1973 1.393 . S
C1970 H1959 0.950 . S
C1970 C1968 1.391 . S
C1970 C1971 1.400 . S
C1971 C1965 1.491 . S
C1971 C1970 1.400 . S
C1971 C1972 1.398 . S
C1972 H1960 0.950 . S
C1972 C1971 1.398 . S
C1972 C1973 1.391 . S
C1973 H1961 0.950 . S
C1973 C1969 1.393 . S
C1973 C1972 1.391 . S
H1974 C1982 0.950 . S
H1975 C1987 0.950 . S
H1976 C1984 0.950 . S
H1977 C1986 0.950 . S
H1978 C1988 0.950 . S
H1979 C1990 0.950 . S
H1980 C1992 0.950 . S
H1981 C1993 0.950 . S
C1982 H1974 0.950 . S
C1982 C1983 1.386 . S
C1982 C1984 1.391 . S
C1983 C1982 1.386 . S
C1983 C1987 1.393 . S
C1984 H1976 0.950 . S
C1984 C1982 1.391 . S
C1984 C1985 1.400 . S
C1985 C1984 1.400 . S
C1985 C1986 1.398 . S
C1985 C1991 1.491 . S
C1986 H1977 0.950 . S
C1986 C1985 1.398 . S
C1986 C1987 1.391 . S
C1987 H1975 0.950 . S
C1987 C1983 1.393 . S
C1987 C1986 1.391 . S
C1988 H1978 0.950 . S
C1988 C1989 1.386 . S
C1988 C1990 1.391 . S
C1989 C1988 1.386 . S
C1989 C1993 1.393 . S
C1990 H1979 0.950 . S
C1990 C1988 1.391 . S
C1990 C1991 1.400 . S
C1991 C1985 1.491 . S
C1991 C1990 1.400 . S
C1991 C1992 1.398 . S
C1992 H1980 0.950 . S
C1992 C1991 1.398 . S
C1992 C1993 1.391 . S
C1993 H1981 0.950 . S
C1993 C1989 1.393 . S
C1993 C1992 1.391 . S
H1994 C2002 0.950 . S
H1995 C2007 0.950 . S
H1996 C2004 0.950 . S
H1997 C2006 0.950 . S
H1998 C2008 0.950 . S
H1999 C2010 0.950 . S
H2000 C2012 0.950 . S
H2001 C2013 0.950 . S
C2002 H1994 0.950 . S
C2002 C2003 1.386 . S
C2002 C2004 1.391 . S
C2003 C2002 1.386 . S
C2003 C2007 1.393 . S
C2004 H1996 0.950 . S
C2004 C2002 1.391 . S
C2004 C2005 1.400 . S
C2005 C2004 1.400 . S
C2005 C2006 1.398 . S
C2005 C2011 1.491 . S
C2006 H1997 0.950 . S
C2006 C2005 1.398 . S
C2006 C2007 1.391 . S
C2007 H1995 0.950 . S
C2007 C2003 1.393 . S
C2007 C2006 1.391 . S
C2008 H1998 0.950 . S
C2008 C2009 1.386 . S
C2008 C2010 1.391 . S
C2009 C2008 1.386 . S
C2009 C2013 1.393 . S
C2010 H1999 0.950 . S
C2010 C2008 1.391 . S
C2010 C2011 1.400 . S
C2011 C2005 1.491 . S
C2011 C2010 1.400 . S
C2011 C2012 1.398 . S
C2012 H2000 0.950 . S
C2012 C2011 1.398 . S
C2012 C2013 1.391 . S
C2013 H2001 0.950 . S
C2013 C2009 1.393 . S
C2013 C2012 1.391 . S
H2014 C2022 0.950 . S
H2015 C2027 0.950 . S
H2016 C2024 0.950 . S
H2017 C2026 0.950 . S
H2018 C2028 0.950 . S
H2019 C2030 0.950 . S
H2020 C2032 0.950 . S
H2021 C2033 0.950 . S
C2022 H2014 0.950 . S
C2022 C2023 1.386 . S
C2022 C2024 1.391 . S
C2023 C2022 1.386 . S
C2023 C2027 1.393 . S
C2024 H2016 0.950 . S
C2024 C2022 1.391 . S
C2024 C2025 1.400 . S
C2025 C2024 1.400 . S
C2025 C2026 1.398 . S
C2025 C2031 1.491 . S
C2026 H2017 0.950 . S
C2026 C2025 1.398 . S
C2026 C2027 1.391 . S
C2027 H2015 0.950 . S
C2027 C2023 1.393 . S
C2027 C2026 1.391 . S
C2028 H2018 0.950 . S
C2028 C2029 1.386 . S
C2028 C2030 1.391 . S
C2029 C2028 1.386 . S
C2029 C2033 1.393 . S
C2030 H2019 0.950 . S
C2030 C2028 1.391 . S
C2030 C2031 1.400 . S
C2031 C2025 1.491 . S
C2031 C2030 1.400 . S
C2031 C2032 1.398 . S
C2032 H2020 0.950 . S
C2032 C2031 1.398 . S
C2032 C2033 1.391 . S
C2033 H2021 0.950 . S
C2033 C2029 1.393 . S
C2033 C2032 1.391 . S
C963 C147 1.449 . S
C969 C254 1.388 . S
C983 C158 1.470 . S
C989 C338 1.434 . S
C1003 C136 1.449 . S
C1009 C432 1.445 . S
C1023 C125 1.431 . S
C1029 C348 1.428 1_556 S
C1049 C422 1.361 . S
C1043 C103 1.438 . S
C1063 C114 1.410 . S
C1069 C264 1.401 1_556 S
C1089 C265 1.426 . S
C1083 C131 1.504 . S
C1109 C349 1.474 . S
C1103 C109 1.518 . S
C1123 C120 1.518 . S
C1129 C441 1.471 1_556 S
C1143 C153 1.496 . S
C1149 C357 1.459 . S
C1163 C164 1.472 . S
C1169 C433 1.418 . S
C1189 C273 1.443 . S
C1183 C142 1.468 . S
C1209 C506 1.395 . S
C1203 C15 1.447 . S
C1223 C26 1.480 . S
C1229 C590 1.410 . S
C1243 C4 1.450 . S
C1249 C684 1.438 . S
C1263 C191 1.432 . S
C1269 C600 1.427 . S
C1283 C169 1.438 . S
C1289 C674 1.370 . S
C1303 C180 1.408 . S
C1309 C516 1.393 . S
C1323 C197 1.506 . S
C1329 C517 1.425 . S
C1343 C175 1.530 . S
C1349 C601 1.452 . S
C1369 C693 1.477 . S
C1363 C186 1.508 . S
C1383 C21 1.496 . S
C1389 C609 1.460 . S
C1409 C685 1.414 . S
C1403 C32 1.473 . S
C1423 C10 1.473 . S
C1429 C525 1.427 . S
C1449 C758 1.377 . S
C1443 C81 1.454 . S
C1463 C92 1.473 . S
C1469 C842 1.434 . S
C1489 C936 1.434 . S
C1483 C70 1.449 . S
C1509 C852 1.419 . S
C1503 C59 1.425 . S
C1529 C926 1.378 . S
C1523 C37 1.431 . S
C1543 C48 1.407 . S
C1549 C768 1.406 . S
C1563 C65 1.505 . S
C1569 C769 1.425 . S
C1583 C43 1.519 . S
C1589 C853 1.481 . S
C1609 C945 1.490 . S
C1603 C54 1.515 . S
C1623 C87 1.489 . S
C1629 C861 1.442 . S
C1643 C98 1.470 . S
C1649 C937 1.425 . S
C1663 C76 1.469 . S
C1669 C777 1.421 . S
C1683 C170 1.551 . S
C1689 C261 1.430 . S
C1709 C345 1.490 . S
C1703 C181 1.613 . S
C1723 C192 1.560 . S
C1729 C438 1.399 . S
C1743 C71 1.579 . S
C1749 C354 1.395 . S
C1763 C82 1.575 . S
C1769 C429 1.424 . S
C1789 C270 1.382 . S
C1783 C93 1.525 . S
C1803 C38 1.550 . S
C1809 C513 1.451 . S
C1823 C49 1.607 . S
C1829 C597 1.467 . S
C1843 C60 1.557 . S
C1849 C690 1.368 . S
C1863 C137 1.590 . S
C1869 C606 1.414 . S
C1889 C681 1.456 . S
C1883 C148 1.578 . S
C1903 C159 1.526 . S
C1909 C522 1.342 . S
C1923 C104 1.553 . S
C1929 C765 1.457 . S
C1943 C115 1.618 . S
C1949 C849 1.458 . S
C1969 C942 1.385 . S
C1963 C126 1.557 . S
C1983 C5 1.590 . S
C1989 C858 1.413 . S
C2003 C16 1.581 . S
C2009 C933 1.441 . S
C2023 C27 1.533 . S
C2029 C774 1.384 . S
