# Generated by pormake.
# Topology zzz, (3,6)-cn, num edge types: 1
# Building blocks:
#     Node 0, Type 0, BuildingBlock: MIDCAF_clean_linker_0, # of connection points: 3
#     Node 1, Type 0, BuildingBlock: MIDCAF_clean_linker_0, # of connection points: 3
#     Node 2, Type 0, BuildingBlock: MIDCAF_clean_linker_0, # of connection points: 3
#     Node 3, Type 0, BuildingBlock: MIDCAF_clean_linker_0, # of connection points: 3
#     Node 4, Type 0, BuildingBlock: MIDCAF_clean_linker_0, # of connection points: 3
#     Node 5, Type 0, BuildingBlock: MIDCAF_clean_linker_0, # of connection points: 3
#     Node 6, Type 0, BuildingBlock: MIDCAF_clean_linker_0, # of connection points: 3
#     Node 7, Type 0, BuildingBlock: MIDCAF_clean_linker_0, # of connection points: 3
#     Node 8, Type 1, BuildingBlock: PAMTUU_clean_sbu_0, # of connection points: 6
#     Node 9, Type 1, BuildingBlock: PAMTUU_clean_sbu_0, # of connection points: 6
#     Node 10, Type 1, BuildingBlock: PAMTUU_clean_sbu_0, # of connection points: 6
#     Node 11, Type 1, BuildingBlock: PAMTUU_clean_sbu_0, # of connection points: 6
#     Edge 12, Type (0, 1), BuildingBlock: KIFKEQ_clean_linker_1, # of connection points: 2
#     Edge 13, Type (0, 1), BuildingBlock: KIFKEQ_clean_linker_1, # of connection points: 2
#     Edge 14, Type (0, 1), BuildingBlock: KIFKEQ_clean_linker_1, # of connection points: 2
#     Edge 15, Type (0, 1), BuildingBlock: KIFKEQ_clean_linker_1, # of connection points: 2
#     Edge 16, Type (0, 1), BuildingBlock: KIFKEQ_clean_linker_1, # of connection points: 2
#     Edge 17, Type (0, 1), BuildingBlock: KIFKEQ_clean_linker_1, # of connection points: 2
#     Edge 18, Type (0, 1), BuildingBlock: KIFKEQ_clean_linker_1, # of connection points: 2
#     Edge 19, Type (0, 1), BuildingBlock: KIFKEQ_clean_linker_1, # of connection points: 2
#     Edge 20, Type (0, 1), BuildingBlock: KIFKEQ_clean_linker_1, # of connection points: 2
#     Edge 21, Type (0, 1), BuildingBlock: KIFKEQ_clean_linker_1, # of connection points: 2
#     Edge 22, Type (0, 1), BuildingBlock: KIFKEQ_clean_linker_1, # of connection points: 2
#     Edge 23, Type (0, 1), BuildingBlock: KIFKEQ_clean_linker_1, # of connection points: 2
#     Edge 24, Type (0, 1), BuildingBlock: KIFKEQ_clean_linker_1, # of connection points: 2
#     Edge 25, Type (0, 1), BuildingBlock: KIFKEQ_clean_linker_1, # of connection points: 2
#     Edge 26, Type (0, 1), BuildingBlock: KIFKEQ_clean_linker_1, # of connection points: 2
#     Edge 27, Type (0, 1), BuildingBlock: KIFKEQ_clean_linker_1, # of connection points: 2
#     Edge 28, Type (0, 1), BuildingBlock: KIFKEQ_clean_linker_1, # of connection points: 2
#     Edge 29, Type (0, 1), BuildingBlock: KIFKEQ_clean_linker_1, # of connection points: 2
#     Edge 30, Type (0, 1), BuildingBlock: KIFKEQ_clean_linker_1, # of connection points: 2
#     Edge 31, Type (0, 1), BuildingBlock: KIFKEQ_clean_linker_1, # of connection points: 2
#     Edge 32, Type (0, 1), BuildingBlock: KIFKEQ_clean_linker_1, # of connection points: 2
#     Edge 33, Type (0, 1), BuildingBlock: KIFKEQ_clean_linker_1, # of connection points: 2
#     Edge 34, Type (0, 1), BuildingBlock: KIFKEQ_clean_linker_1, # of connection points: 2
#     Edge 35, Type (0, 1), BuildingBlock: KIFKEQ_clean_linker_1, # of connection points: 2
# Relax obj value: 0.383
# Max RMSD: 0.264
# Mean RMSD: 0.222
data_MOF--net-zzz--node1-PAMTUU_clean_sbu_0--node2-MIDCAF_clean_linker_0--edge1-KIFKEQ_clean_linker_1
_symmetry_space_group_name_H-M    P1
_symmetry_Int_Tables_number       1
_symmetry_cell_setting            triclinic
loop_
_symmetry_equiv_pos_as_xyz
'x, y, z'
_cell_length_a     58.313484
_cell_length_b     62.086796
_cell_length_c     20.870856
_cell_angle_alpha  98.543439
_cell_angle_beta   90.21554
_cell_angle_gamma 89.717061
loop_
_atom_site_label
_atom_site_type_symbol
_atom_site_fract_x
_atom_site_fract_y
_atom_site_fract_z
_atom_type_partial_charge
C0 C 0.82442 0.51322 0.47726 0.0
C1 C 0.82837 0.50106 0.52822 0.0
C2 C 0.81177 0.48575 0.53994 0.0
C3 C 0.7929 0.4813 0.49856 0.0
H4 H 0.73244 0.51979 0.2948 0.0
H5 H 0.69899 0.52962 0.23254 0.0
H6 H 0.67355 0.46396 0.22165 0.0
H7 H 0.7065 0.45439 0.28321 0.0
H8 H 0.75463 0.42444 0.20248 0.0
H9 H 0.77592 0.39858 0.12543 0.0
H10 H 0.83597 0.40891 0.24845 0.0
H11 H 0.81457 0.43355 0.32593 0.0
H12 H 0.80395 0.51686 0.39336 0.0
H13 H 0.83688 0.52505 0.46656 0.0
H14 H 0.814 0.47634 0.57928 0.0
H15 H 0.78151 0.46814 0.50586 0.0
N16 N 0.75601 0.49001 0.36941 0.0
N17 N 0.7524 0.45919 0.28907 0.0
N18 N 0.78388 0.46213 0.3589 0.0
C19 C 0.74397 0.47851 0.3191 0.0
C20 C 0.77238 0.45095 0.3083 0.0
C21 C 0.77596 0.48144 0.38986 0.0
C22 C 0.72204 0.48635 0.29411 0.0
C23 C 0.71931 0.50773 0.28057 0.0
C24 C 0.70031 0.51324 0.24422 0.0
C25 C 0.68354 0.49756 0.22171 0.0
C26 C 0.68585 0.47656 0.23855 0.0
C27 C 0.70484 0.47104 0.27384 0.0
C28 C 0.7831 0.43163 0.26945 0.0
C29 C 0.77221 0.42068 0.21381 0.0
C30 C 0.78447 0.40589 0.16941 0.0
C31 C 0.80792 0.402 0.17942 0.0
C32 C 0.81797 0.41125 0.23853 0.0
C33 C 0.80568 0.42574 0.2831 0.0
C34 C 0.78991 0.49218 0.44473 0.0
C35 C 0.80542 0.50871 0.43565 0.0
C36 C 0.95914 0.80371 0.48157 0.0
C37 C 0.97698 0.80519 0.52752 0.0
C38 C 0.99189 0.78723 0.52724 0.0
C39 C 0.99018 0.76905 0.47868 0.0
H40 H 0.99683 0.68912 0.36312 0.0
H41 H 0.99842 0.64986 0.32229 0.0
H42 H 0.95462 0.66013 0.16201 0.0
H43 H 0.95312 0.69882 0.20269 0.0
H44 H 0.01504 0.73686 0.1573 0.0
H45 H 0.03159 0.75702 0.07614 0.0
H46 H 0.99232 0.81387 0.15495 0.0
H47 H 0.97619 0.79403 0.23659 0.0
H48 H 0.94497 0.78592 0.39481 0.0
H49 H 0.9475 0.81725 0.47972 0.0
H50 H 1.00566 0.78775 0.56238 0.0
H51 H 1.00302 0.75629 0.4763 0.0
N52 N 0.97493 0.73247 0.35918 0.0
N53 N 0.98415 0.73099 0.24868 0.0
N54 N 0.98261 0.76456 0.3157 0.0
C55 C 0.97815 0.72068 0.29913 0.0
C56 C 0.98652 0.75288 0.25677 0.0
C57 C 0.97693 0.75461 0.36696 0.0
C58 C 0.97488 0.69689 0.2859 0.0
C59 C 0.98696 0.68273 0.32051 0.0
C60 C 0.98802 0.66034 0.29675 0.0
C61 C 0.97675 0.65184 0.23861 0.0
C62 C 0.96328 0.66595 0.20721 0.0
C63 C 0.9625 0.68819 0.23035 0.0
C64 C 0.99441 0.76395 0.20323 0.0
C65 C 1.00971 0.75355 0.15652 0.0
C66 C 0.01924 0.76505 0.11043 0.0
C67 C 1.01314 0.78689 0.1095 0.0
C68 C 0.99712 0.79696 0.15444 0.0
C69 C 0.988 0.78566 0.20127 0.0
C70 C 0.97362 0.76863 0.42963 0.0
C71 C 0.95761 0.78571 0.43294 0.0
C72 C 0.73585 0.0021 0.46219 0.0
C73 C 0.71669 0.01602 0.47479 0.0
C74 C 0.71656 0.03576 0.44983 0.0
C75 C 0.73454 0.04123 0.4116 0.0
H76 H 0.84848 0.03689 0.33192 0.0
H77 H 0.8836 0.02701 0.27075 0.0
H78 H 0.84502 0.98262 0.13233 0.0
H79 H 0.81003 0.99237 0.19463 0.0
H80 H 0.80009 0.06672 0.1636 0.0
H81 H 0.78382 0.0911 0.09362 0.0
H82 H 0.73185 0.11146 0.23725 0.0
H83 H 0.7482 0.08757 0.30724 0.0
H84 H 0.76816 0.99622 0.41239 0.0
H85 H 0.73645 0.98676 0.481 0.0
H86 H 0.70234 0.04706 0.4596 0.0
H87 H 0.7333 0.05661 0.39326 0.0
N88 N 0.79052 0.02087 0.33393 0.0
N89 N 0.80068 0.04486 0.26095 0.0
N90 N 0.76699 0.05075 0.32069 0.0
C91 C 0.80544 0.02709 0.28953 0.0
C92 C 0.78153 0.05682 0.27636 0.0
C93 C 0.77109 0.03298 0.35 0.0
C94 C 0.82666 0.01501 0.26887 0.0
C95 C 0.84778 0.02419 0.29029 0.0
C96 C 0.86781 0.01882 0.25445 0.0
C97 C 0.86713 0.0043 0.1958 0.0
C98 C 0.84628 0.99374 0.17737 0.0
C99 C 0.82623 0.99915 0.21337 0.0
C100 C 0.77507 0.07478 0.24034 0.0
C101 C 0.78559 0.07687 0.18102 0.0
C102 C 0.77626 0.09082 0.14082 0.0
C103 C 0.75637 0.10301 0.15939 0.0
C104 C 0.74728 0.10245 0.22143 0.0
C105 C 0.7565 0.08849 0.26139 0.0
C106 C 0.75337 0.02707 0.39617 0.0
C107 C 0.75399 0.00751 0.42288 0.0
C108 C 0.48482 0.69709 0.11254 0.0
C109 C 0.48712 0.69556 0.04508 0.0
C110 C 0.49356 0.71416 0.01855 0.0
C111 C 0.49919 0.73347 0.05895 0.0
H112 H 0.50456 0.80216 0.08223 0.0
H113 H 0.51089 0.83544 0.03795 0.0
H114 H 0.56172 0.85525 0.18575 0.0
H115 H 0.55496 0.82174 0.23175 0.0
H116 H 0.50659 0.75637 0.36982 0.0
H117 H 0.52051 0.73388 0.44824 0.0
H118 H 0.58884 0.73585 0.37026 0.0
H119 H 0.57471 0.75865 0.29195 0.0
H120 H 0.48986 0.71654 0.20486 0.0
H121 H 0.48002 0.68302 0.13447 0.0
H122 H 0.49523 0.71348 0.96661 0.0
H123 H 0.50527 0.74714 0.03714 0.0
N124 N 0.51351 0.77204 0.14834 0.0
N125 N 0.53419 0.7844 0.24381 0.0
N126 N 0.51745 0.74964 0.22816 0.0
C127 C 0.52557 0.78808 0.18536 0.0
C128 C 0.52979 0.76517 0.26544 0.0
C129 C 0.50938 0.75281 0.16947 0.0
C130 C 0.5294 0.80904 0.16041 0.0
C131 C 0.51716 0.81349 0.10561 0.0
C132 C 0.52087 0.83263 0.0798 0.0
C133 C 0.53709 0.84795 0.10752 0.0
C134 C 0.54905 0.84384 0.16326 0.0
C135 C 0.54523 0.82458 0.18949 0.0
C136 C 0.53966 0.75946 0.32568 0.0
C137 C 0.5248 0.75292 0.3718 0.0
C138 C 0.53279 0.73994 0.41647 0.0
C139 C 0.55574 0.73285 0.41495 0.0
C140 C 0.57102 0.74092 0.37223 0.0
C141 C 0.56305 0.75422 0.32808 0.0
C142 C 0.49873 0.7344 0.12663 0.0
C143 C 0.49064 0.71628 0.1529 0.0
C144 C 0.23942 0.4991 0.07305 0.0
C145 C 0.23037 0.4819 0.02844 0.0
C146 C 0.24224 0.46188 0.01962 0.0
C147 C 0.26114 0.45848 0.05846 0.0
H148 H 0.35596 0.45412 0.21219 0.0
H149 H 0.38969 0.46181 0.2817 0.0
H150 H 0.35348 0.51548 0.39359 0.0
H151 H 0.3201 0.50793 0.32272 0.0
H152 H 0.29409 0.44 0.37045 0.0
H153 H 0.26686 0.4331 0.45298 0.0
H154 H 0.21314 0.42443 0.30813 0.0
H155 H 0.24032 0.43023 0.226 0.0
H156 H 0.26384 0.5086 0.14966 0.0
H157 H 0.23075 0.51472 0.08147 0.0
H158 H 0.23618 0.4484 0.98486 0.0
H159 H 0.26864 0.44232 0.054 0.0
N160 N 0.30306 0.4779 0.18166 0.0
N161 N 0.30315 0.45735 0.26814 0.0
N162 N 0.27257 0.4543 0.19515 0.0
C163 C 0.31363 0.47168 0.23481 0.0
C164 C 0.28261 0.44859 0.24875 0.0
C165 C 0.28248 0.46875 0.16124 0.0
C166 C 0.33568 0.48081 0.26097 0.0
C167 C 0.35568 0.46817 0.24982 0.0
C168 C 0.37483 0.47234 0.29059 0.0
C169 C 0.37431 0.48908 0.34421 0.0
C170 C 0.35472 0.50259 0.35265 0.0
C171 C 0.3356 0.49841 0.31169 0.0
C172 C 0.2691 0.43676 0.29222 0.0
C173 C 0.27666 0.43576 0.3558 0.0
C174 C 0.261 0.43189 0.40329 0.0
C175 C 0.23756 0.42923 0.388 0.0
C176 C 0.23093 0.42669 0.32241 0.0
C177 C 0.24659 0.4303 0.27496 0.0
C178 C 0.26903 0.47507 0.10652 0.0
C179 C 0.25855 0.49569 0.11181 0.0
C180 C 0.04134 0.21166 0.02684 0.0
C181 C 0.06055 0.20115 0.99531 0.0
C182 C 0.08221 0.21096 1.00685 0.0
C183 C 0.08488 0.22948 0.05348 0.0
H184 H 0.03576 0.31059 0.21163 0.0
H185 H 0.02974 0.34722 0.2721 0.0
H186 H 0.09927 0.34713 0.34395 0.0
H187 H 0.10502 0.31061 0.28444 0.0
H188 H 0.06386 0.26425 0.39101 0.0
H189 H 0.05631 0.24133 0.47406 0.0
H190 H 0.07879 0.18479 0.34293 0.0
H191 H 0.08643 0.20754 0.26035 0.0
H192 H 0.0293 0.2367 0.10127 0.0
H193 H 0.02444 0.20453 0.01984 0.0
H194 H 0.09733 0.20357 0.98269 0.0
H195 H 0.10201 0.23546 0.06575 0.0
N196 N 0.06905 0.27365 0.16454 0.0
N197 N 0.07511 0.27241 0.2757 0.0
N198 N 0.07279 0.24007 0.20315 0.0
C199 C 0.0722 0.28413 0.22628 0.0
C200 C 0.07538 0.25038 0.26452 0.0
C201 C 0.06976 0.25143 0.15315 0.0
C202 C 0.07092 0.30799 0.243 0.0
C203 C 0.04999 0.31887 0.23809 0.0
C204 C 0.04649 0.33968 0.2733 0.0
C205 C 0.06398 0.34997 0.31321 0.0
C206 C 0.08553 0.33976 0.31328 0.0
C207 C 0.08887 0.31888 0.27909 0.0
C208 C 0.07542 0.23762 0.31881 0.0
C209 C 0.06779 0.24702 0.38056 0.0
C210 C 0.06334 0.23391 0.428 0.0
C211 C 0.06677 0.21129 0.41472 0.0
C212 C 0.07613 0.2022 0.35479 0.0
C213 C 0.08035 0.21522 0.30724 0.0
C214 C 0.06595 0.23875 0.08873 0.0
C215 C 0.04405 0.23022 0.07326 0.0
C216 C 0.34707 0.02672 0.18441 0.0
C217 C 0.34236 0.02443 0.11775 0.0
C218 C 0.31921 0.0223 0.09766 0.0
C219 C 0.30134 0.02281 0.14349 0.0
H220 H 0.22467 0.98746 0.28216 0.0
H221 H 0.18634 0.98521 0.32698 0.0
H222 H 0.18049 0.0553 0.35025 0.0
H223 H 0.21909 0.05734 0.30649 0.0
H224 H 0.25515 0.01687 0.47611 0.0
H225 H 0.26987 0.00905 0.57973 0.0
H226 H 0.33817 0.02539 0.5243 0.0
H227 H 0.32361 0.0333 0.42115 0.0
H228 H 0.33435 0.02902 0.28024 0.0
H229 H 0.36458 0.02786 0.20209 0.0
H230 H 0.31489 0.02053 0.04665 0.0
H231 H 0.28377 0.02121 0.12657 0.0
N232 N 0.26509 0.02433 0.24806 0.0
N233 N 0.25759 0.02516 0.35939 0.0
N234 N 0.29527 0.0265 0.32405 0.0
C235 C 0.24982 0.02428 0.2979 0.0
C236 C 0.28019 0.02632 0.37307 0.0
C237 C 0.28818 0.02555 0.2615 0.0
C238 C 0.22474 0.02255 0.28955 0.0
C239 C 0.21461 0.00227 0.29305 0.0
C240 C 0.19268 0.00103 0.31973 0.0
C241 C 0.18043 0.02012 0.34389 0.0
C242 C 0.18958 0.04028 0.33353 0.0
C243 C 0.21151 0.04146 0.30688 0.0
C244 C 0.28832 0.02529 0.43975 0.0
C245 C 0.27324 0.01927 0.48653 0.0
C246 C 0.28161 0.01479 0.54596 0.0
C247 C 0.30514 0.01649 0.55998 0.0
C248 C 0.31989 0.02414 0.51526 0.0
C249 C 0.31158 0.02844 0.45571 0.0
C250 C 0.30627 0.0253 0.21035 0.0
C251 C 0.32947 0.02721 0.22962 0.0
C252 C 0.53424 0.30646 0.43478 0.0
C253 C 0.53097 0.30959 0.50209 0.0
C254 C 0.52289 0.29214 0.5316 0.0
C255 C 0.51698 0.27233 0.49377 0.0
H256 H 0.48827 0.20882 0.49264 0.0
H257 H 0.48729 0.1751 0.53921 0.0
H258 H 0.49806 0.13811 0.34964 0.0
H259 H 0.49878 0.17204 0.3025 0.0
H260 H 0.45387 0.23739 0.23021 0.0
H261 H 0.44436 0.2586 0.14354 0.0
H262 H 0.5165 0.26382 0.10228 0.0
H263 H 0.52572 0.24266 0.18828 0.0
H264 H 0.53059 0.28532 0.34524 0.0
H265 H 0.54094 0.31942 0.41082 0.0
H266 H 0.52019 0.29412 0.58346 0.0
H267 H 0.50991 0.25945 0.51734 0.0
N268 N 0.50575 0.2314 0.40721 0.0
N269 N 0.49217 0.2155 0.30433 0.0
N270 N 0.50555 0.25149 0.32111 0.0
C271 C 0.49702 0.21387 0.36764 0.0
C272 C 0.49652 0.23448 0.28125 0.0
C273 C 0.51018 0.25023 0.38394 0.0
C274 C 0.4937 0.19313 0.39386 0.0
C275 C 0.49012 0.1935 0.46062 0.0
C276 C 0.48942 0.17416 0.48733 0.0
C277 C 0.49266 0.15395 0.44815 0.0
C278 C 0.49562 0.15347 0.38105 0.0
C279 C 0.49588 0.17287 0.35405 0.0
C280 C 0.4905 0.23818 0.2152 0.0
C281 C 0.46753 0.24206 0.20008 0.0
C282 C 0.46215 0.25454 0.15121 0.0
C283 C 0.47969 0.26326 0.11664 0.0
C284 C 0.50252 0.2573 0.12743 0.0
C285 C 0.50785 0.24503 0.17651 0.0
C286 C 0.51906 0.26974 0.42594 0.0
C287 C 0.52834 0.28684 0.39722 0.0
Tb288 Tb 1.00344 0.0101 0.71466 0.0
Tb289 Tb 0.04243 0.99388 0.80887 0.0
C290 C 0.99129 -0.00013 0.85379 0.0
C291 C 0.98165 0.0448 0.60723 0.0
C292 C 0.99676 0.08485 0.57579 0.0
C293 C 0.97383 0.08233 0.59379 0.0
C294 C 0.96635 0.06242 0.60977 0.0
C295 C 1.0041 0.04696 0.58492 0.0
C296 C 1.01155 0.06677 0.56924 0.0
C297 C 0.97628 0.02647 0.64159 0.0
O298 O 0.02479 0.0383 0.74695 0.0
O299 O 0.03854 0.0287 0.8418 0.0
O300 O 0.06118 0.00745 0.73408 0.0
O301 O 0.03381 0.00155 0.65494 0.0
O302 O 0.05512 0.99062 0.90136 0.0
O303 O 0.07362 0.97734 0.81517 0.0
O304 O 0.03161 0.96556 0.74141 0.0
O305 O 0.99539 0.976 0.71594 0.0
O306 O 0.98818 0.01299 0.81062 0.0
O307 O 1.00959 0.9874 0.8523 0.0
C308 C 0.03382 0.04358 0.80485 0.0
O309 O 0.98752 0.00837 0.62337 0.0
O310 O 0.97632 0.03166 0.70434 0.0
C311 C 0.05523 0.00533 0.6727 0.0
C312 C 0.07041 0.95543 0.89565 0.0
C313 C 0.06858 0.91208 0.9198 0.0
C314 C 0.08878 0.92434 0.93275 0.0
C315 C 0.08971 0.9459 0.92036 0.0
C316 C 0.05024 0.9433 0.8834 0.0
C317 C 0.04931 0.9219 0.89542 0.0
C318 C 0.07129 0.97726 0.87716 0.0
C319 C 1.01079 0.96073 0.7199 0.0
H320 H 0.9621 0.09606 0.59913 0.0
H321 H 0.94912 0.06119 0.62806 0.0
H322 H 0.01641 0.03377 0.58341 0.0
H323 H 0.02918 0.06816 0.55423 0.0
H324 H 0.10388 0.91716 0.9515 0.0
H325 H 0.1055 0.95499 0.92927 0.0
H326 H 0.03521 0.95033 0.8638 0.0
H327 H 0.03334 0.91312 0.88625 0.0
Tb328 Tb 0.52124 0.98641 0.74596 0.0
Tb329 Tb 0.54092 0.02635 0.84886 0.0
C330 C 0.5432 0.97882 0.87411 0.0
C331 C 0.47864 0.94715 0.68302 0.0
C332 C 0.43086 0.94504 0.69907 0.0
C333 C 0.44557 0.94456 0.75214 0.0
C334 C 0.46925 0.94564 0.74426 0.0
C335 C 0.4641 0.94551 0.62899 0.0
C336 C 0.44038 0.94445 0.63689 0.0
C337 C 0.50243 0.95455 0.67769 0.0
O338 O 0.49532 0.99254 0.8218 0.0
O339 O 0.50365 0.0281 0.86014 0.0
O340 O 0.53836 0.03808 0.75624 0.0
O341 O 0.50845 0.0166 0.71617 0.0
O342 O 0.56216 0.03688 0.92828 0.0
O343 O 0.54047 0.05968 0.88708 0.0
O344 O 0.57099 0.01284 0.79344 0.0
O345 O 0.5537 0.99368 0.70293 0.0
O346 O 0.5453 0.97401 0.81129 0.0
O347 O 0.53613 0.9983 0.89914 0.0
C348 C 0.48945 0.01153 0.8542 0.0
O349 O 0.50457 0.97357 0.65905 0.0
O350 O 0.51576 0.95268 0.72674 0.0
C351 C 0.52102 0.03411 0.71619 0.0
C352 C 0.57635 0.07233 0.92877 0.0
C353 C 0.61529 0.09931 0.94431 0.0
C354 C 0.59436 0.1064 0.97381 0.0
C355 C 0.57509 0.09295 0.96634 0.0
C356 C 0.59664 0.06583 0.89532 0.0
C357 C 0.61597 0.07915 0.90323 0.0
C358 C 0.55692 0.05733 0.92794 0.0
C359 C 0.57197 0.00258 0.73327 0.0
H360 H 0.43871 0.94477 0.80041 0.0
H361 H 0.48001 0.94685 0.78705 0.0
H362 H 0.47093 0.94675 0.58147 0.0
H363 H 0.42949 0.94504 0.59502 0.0
H364 H 0.59311 0.12198 1.00478 0.0
H365 H 0.55944 0.09834 0.99177 0.0
H366 H 0.59786 0.05004 0.8654 0.0
H367 H 0.63178 0.07299 0.88026 0.0
Tb368 Tb 0.51015 0.49094 0.83997 0.0
Tb369 Tb 0.54554 0.51268 0.74374 0.0
C370 C 0.49543 0.50044 0.7012 0.0
C371 C 0.4803 0.44854 0.9176 0.0
C372 C 0.47471 0.40481 0.93757 0.0
C373 C 0.46389 0.42192 0.97846 0.0
C374 C 0.46675 0.44357 0.96868 0.0
C375 C 0.4905 0.43153 0.87528 0.0
C376 C 0.48783 0.40986 0.8853 0.0
C377 C 0.48513 0.47148 0.91213 0.0
O378 O 0.5334 0.46517 0.79913 0.0
O379 O 0.54465 0.47809 0.7066 0.0
O380 O 0.56556 0.50144 0.82097 0.0
O381 O 0.53793 0.50715 0.89841 0.0
O382 O 0.57417 0.53271 0.73782 0.0
O383 O 0.55729 0.5169 0.65135 0.0
O384 O 0.52987 0.53996 0.80516 0.0
O385 O 0.49896 0.52472 0.85122 0.0
O386 O 0.49541 0.48619 0.74212 0.0
O387 O 0.51126 0.51555 0.70438 0.0
C388 C 0.54173 0.46199 0.74015 0.0
O389 O 0.50606 0.4777 0.926 0.0
O390 O 0.47775 0.47865 0.86018 0.0
C391 C 0.55966 0.50502 0.88229 0.0
C392 C 0.57197 0.55243 0.65008 0.0
C393 C 0.57165 0.59362 0.60725 0.0
C394 C 0.59224 0.5845 0.62663 0.0
C395 C 0.59238 0.56411 0.64764 0.0
C396 C 0.55134 0.56145 0.6312 0.0
C397 C 0.5512 0.58175 0.60964 0.0
C398 C 0.57239 0.5314 0.67511 0.0
C399 C 0.51052 0.54163 0.83768 0.0
H400 H 0.4539 0.41867 0.01957 0.0
H401 H 0.45886 0.45649 1.00209 0.0
H402 H 0.50091 0.43508 0.83535 0.0
H403 H 0.49619 0.39708 0.85249 0.0
H404 H 0.60826 0.59324 0.62665 0.0
H405 H 0.60844 0.55755 0.66275 0.0
H406 H 0.5353 0.55284 0.63326 0.0
H407 H 0.53505 0.58802 0.59428 0.0
Tb408 Tb 0.03525 0.5171 0.75748 0.0
Tb409 Tb 0.01921 0.47727 0.83271 0.0
C410 C 0.01439 0.52581 0.89832 0.0
C411 C 0.07129 0.53927 0.64829 0.0
C412 C 0.1093 0.51631 0.58925 0.0
C413 C 0.11252 0.53395 0.6391 0.0
C414 C 0.09367 0.54537 0.66829 0.0
C415 C 0.06834 0.52354 0.59301 0.0
C416 C 0.08712 0.51207 0.56413 0.0
C417 C 0.05209 0.54438 0.69418 0.0
O418 O 0.06659 0.50092 0.78386 0.0
O419 O 0.05295 0.48703 0.87166 0.0
O420 O 0.04014 0.463 0.75107 0.0
O421 O 0.03337 0.48832 0.68458 0.0
O422 O 1.01298 0.46351 0.91713 0.0
O423 O 1.00959 0.44445 0.82235 0.0
O424 O 0.99035 0.48366 0.77103 0.0
O425 O 0.9979 0.51892 0.75622 0.0
O426 O 0.02943 0.53151 0.8573 0.0
O427 O 1.00475 0.50648 0.88952 0.0
C428 C 0.07016 0.49351 0.83888 0.0
O429 O 0.03284 0.53433 0.67823 0.0
O430 O 0.05733 0.54359 0.7546 0.0
C431 C 0.03916 0.46854 0.69293 0.0
C432 C 0.98468 0.43584 0.90224 0.0
C433 C 0.9425 0.41752 0.93099 0.0
C434 C 0.96009 0.40428 0.90038 0.0
C435 C 0.98099 0.41337 0.88632 0.0
C436 C 0.96719 0.44916 0.93256 0.0
C437 C 0.94637 0.44006 0.94721 0.0
C438 C 1.00649 0.445 0.88426 0.0
C439 C 0.9839 0.50221 0.75287 0.0
H440 H 0.1295 0.53809 0.65814 0.0
H441 H 0.0965 0.55757 0.71036 0.0
H442 H 0.05137 0.51854 0.57568 0.0
H443 H 0.08395 0.49868 0.52562 0.0
H444 H 0.95762 0.38693 0.88657 0.0
H445 H 0.99426 0.40288 0.86231 0.0
H446 H 0.96958 0.46658 0.94489 0.0
H447 H 0.93341 0.45071 0.97199 0.0
H448 H 0.14494 0.99039 0.33187 0.0
H449 H 0.1702 0.04727 0.45598 0.0
H450 H 0.11437 0.98694 0.40973 0.0
H451 H 0.13945 0.04415 0.53242 0.0
H452 H 0.10061 0.01601 0.69133 0.0
H453 H 0.12949 0.01999 0.60988 0.0
H454 H 0.079 0.00416 0.45863 0.0
H455 H 0.05004 -0.0 0.54021 0.0
C456 C 0.14387 0.00229 0.37531 0.0
C457 C 0.1601 0.01915 0.3872 0.0
C458 C 0.12623 0.00039 0.41983 0.0
C459 C 0.12448 0.01517 0.47778 0.0
C460 C 0.14039 0.03228 0.48886 0.0
C461 C 0.15788 0.03426 0.44431 0.0
C462 C 0.09559 0.01335 0.64076 0.0
C463 C 0.07291 0.00765 0.62262 0.0
C464 C 0.11218 0.01578 0.59393 0.0
C465 C 0.10663 0.01249 0.52746 0.0
C466 C 0.08398 0.00665 0.50922 0.0
C467 C 0.06732 0.00435 0.55616 0.0
H468 H 0.46429 0.14022 0.53827 0.0
H469 H 0.52565 0.12234 0.42761 0.0
H470 H 0.47013 0.10932 0.59724 0.0
H471 H 0.53152 0.09154 0.48668 0.0
H472 H 0.54997 0.06377 0.67686 0.0
H473 H 0.54173 0.09055 0.60545 0.0
H474 H 0.47223 0.06707 0.58131 0.0
H475 H 0.48057 0.03988 0.65258 0.0
C476 C 0.47886 0.12953 0.52606 0.0
C477 C 0.49455 0.13375 0.47842 0.0
C478 C 0.48212 0.11178 0.55952 0.0
C479 C 0.50135 0.09808 0.54682 0.0
C480 C 0.51663 0.10191 0.4978 0.0
C481 C 0.51318 0.11944 0.46366 0.0
C482 C 0.53294 0.0642 0.65615 0.0
C483 C 0.5159 0.04972 0.67059 0.0
C484 C 0.52828 0.07946 0.61483 0.0
C485 C 0.50635 0.08088 0.58763 0.0
C486 C 0.48927 0.06637 0.60175 0.0
C487 C 0.49407 0.05078 0.64229 0.0
H488 H 0.39279 0.52647 0.41297 0.0
H489 H 0.39823 0.45635 0.39025 0.0
H490 H 0.42149 0.52942 0.49932 0.0
H491 H 0.42747 0.45932 0.47447 0.0
H492 H 0.46034 0.47095 0.67576 0.0
H493 H 0.43163 0.46866 0.58977 0.0
H494 H 0.46168 0.52441 0.52121 0.0
H495 H 0.49011 0.52697 0.6079 0.0
C496 C 0.40016 0.51167 0.426 0.0
C497 C 0.39311 0.49117 0.39411 0.0
C498 C 0.41682 0.51337 0.47528 0.0
C499 C 0.42686 0.49461 0.49437 0.0
C500 C 0.41998 0.47415 0.46194 0.0
C501 C 0.40339 0.47245 0.41269 0.0
C502 C 0.46083 0.48277 0.64249 0.0
C503 C 0.47764 0.49914 0.64906 0.0
C504 C 0.44441 0.48137 0.59273 0.0
C505 C 0.44427 0.4963 0.54802 0.0
C506 C 0.461 0.51276 0.55495 0.0
C507 C 0.47745 0.51415 0.60464 0.0
H508 H 0.02747 0.35671 0.39468 0.0
H509 H 0.08985 0.38702 0.34286 0.0
H510 H 0.02188 0.38615 0.48474 0.0
H511 H 0.08416 0.41662 0.4333 0.0
H512 H 0.04956 0.47536 0.56964 0.0
H513 H 0.05531 0.44791 0.4739 0.0
H514 H 0.04459 0.39697 0.59044 0.0
H515 H 0.03919 0.42428 0.68621 0.0
C516 C 0.03972 0.36992 0.40164 0.0
C517 C 0.05907 0.36958 0.3615 0.0
C518 C 0.03666 0.38663 0.45369 0.0
C519 C 0.0527 0.40355 0.46638 0.0
C520 C 0.07151 0.40379 0.42458 0.0
C521 C 0.07478 0.38686 0.37297 0.0
C522 C 0.0486 0.4583 0.5749 0.0
C523 C 0.04391 0.452 0.63555 0.0
C524 C 0.05193 0.44261 0.52011 0.0
C525 C 0.05018 0.42033 0.52464 0.0
C526 C 0.04575 0.41405 0.58538 0.0
C527 C 0.04283 0.42969 0.6403 0.0
H528 H 0.88445 0.96755 0.11991 0.0
H529 H 0.89482 0.03692 0.16717 0.0
H530 H 0.91505 0.96565 0.03885 0.0
H531 H 0.92539 0.03494 0.08752 0.0
H532 H 0.95551 0.02811 0.88351 0.0
H533 H 0.92679 0.02812 0.96774 0.0
H534 H 0.958 0.97085 0.02584 0.0
H535 H 0.98701 0.97079 0.94095 0.0
C536 C 0.89335 0.98234 0.11351 0.0
C537 C 0.88714 0.00237 0.15044 0.0
C538 C 0.91099 0.98123 0.06734 0.0
C539 C 0.92259 0.00017 0.05631 0.0
C540 C 0.91667 0.02007 0.09417 0.0
C541 C 0.89928 0.02115 0.14055 0.0
C542 C 0.95634 0.01546 0.91404 0.0
C543 C 0.97369 0.99947 0.90531 0.0
C544 C 0.93989 0.01556 0.96274 0.0
C545 C 0.94013 0.99957 1.00394 0.0
C546 C 0.95726 0.98335 0.99478 0.0
C547 C 0.97395 0.98339 0.94633 0.0
H548 H 0.5445 0.89007 0.16718 0.0
H549 H 0.53963 0.85091 0.9785 0.0
H550 H 0.54948 0.92265 0.11561 0.0
H551 H 0.54329 0.88327 0.92742 0.0
H552 H 0.5667 0.94071 0.84326 0.0
H553 H 0.56868 0.91019 0.90381 0.0
H554 H 0.52808 0.9464 0.05646 0.0
H555 H 0.52695 0.97736 0.9966 0.0
C556 C 0.54462 0.88837 0.11479 0.0
C557 C 0.54145 0.86784 0.0771 0.0
C558 C 0.54721 0.9071 0.08518 0.0
C559 C 0.54676 0.90571 0.01718 0.0
C560 C 0.54409 0.88507 0.97978 0.0
C561 C 0.54161 0.86646 0.00923 0.0
C562 C 0.55844 0.94228 0.89014 0.0
C563 C 0.54651 0.9614 0.91486 0.0
C564 C 0.55943 0.92468 0.92477 0.0
C565 C 0.54819 0.92557 0.98469 0.0
C566 C 0.53709 0.94511 0.01077 0.0
C567 C 0.53635 0.96287 0.97635 0.0
H568 H 0.68545 0.52029 0.11834 0.0
H569 H 0.6385 0.485 0.22333 0.0
H570 H 0.65543 0.52422 0.03877 0.0
H571 H 0.60881 0.48824 0.14293 0.0
H572 H 0.55378 0.51147 0.01425 0.0
H573 H 0.58303 0.51241 0.09844 0.0
H574 H 0.63556 0.5017 0.9517 0.0
H575 H 0.60636 0.5012 0.86756 0.0
C576 C 0.66865 0.51363 0.12503 0.0
C577 C 0.6645 0.50225 0.17731 0.0
C578 C 0.65149 0.51561 0.07882 0.0
C579 C 0.62965 0.50638 0.08377 0.0
C580 C 0.62529 0.49572 0.13745 0.0
C581 C 0.64243 0.49368 0.18343 0.0
C582 C 0.57158 0.50941 0.99983 0.0
C583 C 0.57762 0.50618 0.93385 0.0
C584 C 0.58839 0.50985 0.04826 0.0
C585 C 0.61177 0.50708 0.03221 0.0
C586 C 0.61782 0.50419 0.9662 0.0
C587 C 0.601 0.50373 0.91775 0.0
H588 H 0.94614 0.62268 0.17431 0.0
H589 H 0.01777 0.63018 0.22564 0.0
H590 H 0.95525 0.58974 0.09919 0.0
H591 H 0.02674 0.59694 0.15225 0.0
H592 H 0.03631 0.56385 0.94145 0.0
H593 H 0.02693 0.59092 0.03369 0.0
H594 H 0.9702 0.55162 0.08028 0.0
H595 H 0.97956 0.52423 0.98663 0.0
C596 C 0.96375 0.61702 0.17071 0.0
C597 C 0.98126 0.62926 0.20539 0.0
C598 C 0.96894 0.59804 0.12798 0.0
C599 C 0.99178 0.59092 0.11887 0.0
C600 C 1.00902 0.60222 0.1573 0.0
C601 C 1.00383 0.62115 0.20007 0.0
C602 C 0.02185 0.56082 0.97125 0.0
C603 C 1.00862 0.54185 0.95623 0.0
C604 C 0.01662 0.57631 0.02475 0.0
C605 C 0.99793 0.57339 0.06481 0.0
C606 C 0.98469 0.55437 0.05027 0.0
C607 C 0.99008 0.53867 0.99673 0.0
H608 H 0.08797 0.17586 0.45221 0.0
H609 H 0.02524 0.21347 0.4747 0.0
H610 H 0.07015 0.14763 0.50449 0.0
H611 H 1.00757 0.18549 0.52865 0.0
H612 H 0.97768 0.11462 0.50704 0.0
H613 H 0.99487 0.14845 0.48407 0.0
H614 H 0.05334 0.13753 0.60319 0.0
H615 H 0.03619 0.1037 0.62575 0.0
C616 C 0.07056 0.17831 0.46982 0.0
C617 C 0.05794 0.19673 0.45889 0.0
C618 C 0.06039 0.16223 0.50016 0.0
C619 C 0.03736 0.16426 0.52 0.0
C620 C 0.02524 0.18338 0.51304 0.0
C621 C 0.03546 0.1995 0.48288 0.0
C622 C 0.99401 0.11968 0.52907 0.0
C623 C 1.00583 0.1064 0.567 0.0
C624 C 1.00381 0.13907 0.51627 0.0
C625 C 0.02555 0.14553 0.54148 0.0
C626 C 0.03676 0.13278 0.58224 0.0
C627 C 0.027 0.11341 0.5949 0.0
H628 H 0.33848 0.03371 0.64447 0.0
H629 H 0.29469 0.97762 0.59827 0.0
H630 H 0.36325 0.01314 0.70723 0.0
H631 H 0.31912 0.95715 0.66278 0.0
H632 H 0.41174 0.97485 0.79312 0.0
H633 H 0.37375 0.99107 0.79035 0.0
H634 H 0.35672 0.94411 0.62284 0.0
H635 H 0.39438 0.92749 0.62706 0.0
C636 C 0.33367 0.01725 0.64995 0.0
C637 C 0.31506 0.00709 0.6151 0.0
C638 C 0.34772 0.00547 0.68651 0.0
C639 C 0.34341 0.98331 0.68869 0.0
C640 C 0.32307 0.97408 0.66099 0.0
C641 C 0.30899 0.98588 0.6244 0.0
C642 C 0.39952 0.96733 0.75761 0.0
C643 C 0.40618 0.95017 0.70931 0.0
C644 C 0.37779 0.97675 0.7558 0.0
C645 C 0.36242 0.96921 0.70559 0.0
C646 C 0.36811 0.95035 0.6623 0.0
C647 C 0.38982 0.94093 0.66415 0.0
H648 H 0.51699 0.3484 0.47031 0.0
H649 H 0.55286 0.32023 0.6194 0.0
H650 H 0.52328 0.3846 0.52929 0.0
H651 H 0.55944 0.35681 0.67885 0.0
H652 H 0.53905 0.42461 0.79488 0.0
H653 H 0.53843 0.38733 0.73885 0.0
H654 H 0.55357 0.41051 0.55846 0.0
H655 H 0.55322 0.44786 0.6139 0.0
C656 C 0.52652 0.34999 0.51541 0.0
C657 C 0.53468 0.33148 0.53986 0.0
C658 C 0.53021 0.37077 0.54915 0.0
C659 C 0.5422 0.37365 0.60829 0.0
C660 C 0.5501 0.35513 0.63344 0.0
C661 C 0.54633 0.33421 0.59955 0.0
C662 C 0.54238 0.42177 0.74332 0.0
C663 C 0.54564 0.4393 0.70862 0.0
C664 C 0.54224 0.40034 0.71131 0.0
C665 C 0.54554 0.39597 0.64398 0.0
C666 C 0.5504 0.41338 0.61014 0.0
C667 C 0.55041 0.43481 0.64205 0.0
H668 H 0.24014 0.45955 0.49705 0.0
H669 H 0.19424 0.41187 0.39353 0.0
H670 H 0.20806 0.47717 0.55675 0.0
H671 H 0.16185 0.43037 0.45224 0.0
H672 H 0.11849 0.49554 0.46669 0.0
H673 H 0.14845 0.46878 0.43375 0.0
H674 H 0.17337 0.47555 0.6307 0.0
H675 H 0.14287 0.50182 0.66456 0.0
C676 C 0.2234 0.45218 0.48873 0.0
C677 C 0.21978 0.43454 0.43894 0.0
C678 C 0.20493 0.46248 0.52291 0.0
C679 C 0.18248 0.45546 0.50771 0.0
C680 C 0.17903 0.43635 0.46367 0.0
C681 C 0.19757 0.4258 0.4301 0.0
C682 C 0.13013 0.49116 0.50322 0.0
C683 C 0.12837 0.50101 0.56814 0.0
C684 C 0.14719 0.47571 0.48442 0.0
C685 C 0.16299 0.46992 0.52993 0.0
C686 C 0.16134 0.47972 0.59478 0.0
C687 C 0.14409 0.495 0.61382 0.0
H688 H 0.05894 0.79261 0.09452 0.0
H689 H 0.99266 0.81094 0.02681 0.0
H690 H 0.07727 0.81934 0.03602 0.0
H691 H 1.01084 0.83746 0.96828 0.0
H692 H 0.04861 0.87727 0.84531 0.0
H693 H 0.0386 0.84247 0.87867 0.0
H694 H 0.07464 0.8609 0.05945 0.0
H695 H 0.08433 0.89587 0.02672 0.0
C696 C 0.04841 0.80194 0.06561 0.0
C697 C 0.02444 0.79988 0.06512 0.0
C698 C 0.05885 0.81727 0.03259 0.0
C699 C 0.04546 0.83045 0.99781 0.0
C700 C 0.02161 0.82735 0.9941 0.0
C701 C 1.01118 0.8123 0.02782 0.0
C702 C 0.05466 0.87376 0.89182 0.0
C703 C 0.06683 0.88947 0.93405 0.0
C704 C 0.04901 0.85383 0.91069 0.0
C705 C 0.05562 0.84914 0.97185 0.0
C706 C 0.06946 0.86405 0.01179 0.0
C707 C 0.075 0.88408 0.99308 0.0
H708 H 0.7478 0.08566 0.03407 0.0
H709 H 0.73284 0.14195 0.17597 0.0
H710 H 0.71569 0.09444 0.96905 0.0
H711 H 0.70042 0.15089 0.11014 0.0
H712 H 0.62732 0.11957 0.06462 0.0
H713 H 0.6653 0.13007 0.10279 0.0
H714 H 0.69127 0.11561 0.90742 0.0
H715 H 0.65273 0.10518 0.86855 0.0
C716 C 0.73834 0.10054 0.05 0.0
C717 C 0.74251 0.11278 0.11112 0.0
C718 C 0.71981 0.10562 0.01244 0.0
C719 C 0.70508 0.12305 0.03524 0.0
C720 C 0.71113 0.13702 0.09208 0.0
C721 C 0.72968 0.13191 0.12978 0.0
C722 C 0.64081 0.11948 0.02906 0.0
C723 C 0.63699 0.11106 0.9636 0.0
C724 C 0.66275 0.12559 0.05111 0.0
C725 C 0.68147 0.12336 0.00832 0.0
C726 C 0.67727 0.11713 0.94177 0.0
C727 C 0.65522 0.11106 0.91959 0.0
H728 H 0.51734 0.67842 0.95267 0.0
H729 H 0.45478 0.66362 0.04677 0.0
H730 H 0.51932 0.64134 0.89718 0.0
H731 H 0.45624 0.62632 0.98926 0.0
H732 H 0.51485 0.57705 0.77722 0.0
H733 H 0.50456 0.61454 0.81823 0.0
H734 H 0.47765 0.59395 0.99218 0.0
H735 H 0.48689 0.55617 0.94892 0.0
C736 C 0.50358 0.66737 0.95989 0.0
C737 C 0.48588 0.67395 1.00397 0.0
C738 C 0.50467 0.64602 0.92793 0.0
C739 C 0.48794 0.63069 0.93861 0.0
C740 C 0.46964 0.63755 0.98065 0.0
C741 C 0.46869 0.65894 0.01327 0.0
C742 C 0.50646 0.58054 0.82388 0.0
C743 C 0.50191 0.5638 0.86037 0.0
C744 C 0.50066 0.60205 0.84762 0.0
C745 C 0.49067 0.60744 0.90919 0.0
C746 C 0.48514 0.59047 0.94436 0.0
C747 C 0.49054 0.56881 0.91986 0.0
H748 H 0.80322 0.4046 0.0497 0.0
H749 H 0.84702 0.37714 0.18471 0.0
H750 H 0.83342 0.39978 0.96984 0.0
H751 H 0.87804 0.37456 0.10732 0.0
H752 H 0.93523 0.37847 0.97473 0.0
H753 H 0.8995 0.36518 0.01398 0.0
H754 H 0.86448 0.42256 0.96776 0.0
H755 H 0.89955 0.43477 0.92407 0.0
C756 C 0.81902 0.39697 0.06213 0.0
C757 C 0.82294 0.39216 0.12508 0.0
C758 C 0.83659 0.39458 0.01638 0.0
C759 C 0.85861 0.3879 0.03309 0.0
C760 C 0.8615 0.38014 0.09263 0.0
C761 C 0.84371 0.38195 0.13774 0.0
C762 C 0.91972 0.38788 0.97111 0.0
C763 C 0.92037 0.40796 0.94755 0.0
C764 C 0.89924 0.38035 0.99428 0.0
C765 C 0.87903 0.39287 0.99518 0.0
C766 C 0.87948 0.41222 0.96752 0.0
C767 C 0.89982 0.41955 0.94359 0.0
H768 H 0.0261 0.18462 0.91149 0.0
H769 H 0.08983 0.16661 0.99596 0.0
H770 H 0.02047 0.14676 0.86253 0.0
H771 H 0.08465 0.12913 0.94512 0.0
H772 H 0.0526 0.06115 0.92138 0.0
H773 H 0.05993 0.09936 0.96142 0.0
H774 H 0.0344 0.1171 0.78173 0.0
H775 H 0.02665 0.07886 0.74195 0.0
C776 C 0.03905 0.17268 0.91897 0.0
C777 C 0.0584 0.17878 0.95787 0.0
C778 C 0.03592 0.15098 0.89044 0.0
C779 C 0.05201 0.1348 0.90033 0.0
C780 C 0.07173 0.14106 0.93727 0.0
C781 C 0.07487 0.1627 0.96566 0.0
C782 C 0.04861 0.07315 0.89021 0.0
C783 C 0.03901 0.06684 0.82844 0.0
C784 C 0.05296 0.0951 0.91305 0.0
C785 C 0.04783 0.11137 0.87479 0.0
C786 C 0.03835 0.10506 0.81281 0.0
C787 C 0.03402 0.08308 0.78988 0.0
H788 H 0.38073 0.04993 0.13037 0.0
H789 H 0.34861 0.99852 0.99905 0.0
H790 H 0.41477 0.04693 0.06351 0.0
H791 H 0.38255 0.99623 0.92941 0.0
H792 H 0.45797 0.97978 0.8687 0.0
H793 H 0.42137 0.98378 0.92537 0.0
H794 H 0.4318 0.05332 0.96711 0.0
H795 H 0.46867 0.04916 0.91224 0.0
C796 C 0.38082 0.03806 0.08676 0.0
C797 C 0.3619 0.02424 0.07094 0.0
C798 C 0.40037 0.03652 0.04764 0.0
C799 C 0.4017 0.02126 0.9907 0.0
C800 C 0.38242 0.00796 0.97334 0.0
C801 C 0.36278 0.00946 0.01288 0.0
C802 C 0.45242 0.99595 0.88971 0.0
C803 C 0.4665 0.01411 0.88623 0.0
C804 C 0.43126 0.99828 0.92201 0.0
C805 C 0.42345 0.01888 0.95161 0.0
C806 C 0.43729 0.0371 0.94637 0.0
C807 C 0.4585 0.03474 0.91448 0.0
H808 H 0.4985 0.26965 1.00011 0.0
H809 H 0.45058 0.29783 0.14659 0.0
H810 H 0.49525 0.3021 0.94724 0.0
H811 H 0.44758 0.33022 0.09475 0.0
H812 H 0.43693 0.38333 0.97341 0.0
H813 H 0.4354 0.34718 1.00583 0.0
H814 H 0.50799 0.33889 0.96827 0.0
H815 H 0.50933 0.37478 0.93476 0.0
C816 C 0.48706 0.28264 0.02059 0.0
C817 C 0.47482 0.28108 0.07768 0.0
C818 C 0.48529 0.30133 0.99051 0.0
C819 C 0.47133 0.31899 0.01695 0.0
C820 C 0.45827 0.31693 0.07226 0.0
C821 C 0.45995 0.29824 0.10208 0.0
C822 C 0.45252 0.3737 0.97174 0.0
C823 C 0.47328 0.38201 0.95179 0.0
C824 C 0.45167 0.35297 0.99045 0.0
C825 C 0.47159 0.34005 0.99021 0.0
C826 C 0.49219 0.34813 0.96822 0.0
C827 C 0.493 0.3688 0.9491 0.0
H828 H 0.1961 0.45167 0.01003 0.0
H829 H 0.21237 0.51671 0.97532 0.0
H830 H 0.15848 0.45461 0.96167 0.0
H831 H 0.17414 0.51986 0.92796 0.0
H832 H 0.11041 0.50775 0.7904 0.0
H833 H 0.14933 0.50539 0.83356 0.0
H834 H 0.1228 0.47404 0.9889 0.0
H835 H 0.08417 0.47619 0.94584 0.0
C836 C 0.19179 0.46657 0.99145 0.0
C837 C 0.20752 0.48389 0.99633 0.0
C838 C 0.16999 0.46835 0.96437 0.0
C839 C 0.16309 0.48752 0.94112 0.0
C840 C 0.17888 0.50479 0.94497 0.0
C841 C 0.20075 0.50306 0.97262 0.0
C842 C 0.11288 0.50031 0.83372 0.0
C843 C 0.09403 0.49208 0.86437 0.0
C844 C 0.13522 0.4991 0.85872 0.0
C845 C 0.13932 0.48944 0.91469 0.0
C846 C 0.12043 0.48129 0.94523 0.0
C847 C 0.09817 0.48263 0.92059 0.0
H848 H 0.01847 0.82482 0.55384 0.0
H849 H 0.94614 0.83413 0.59276 0.0
H850 H 0.02592 0.86175 0.60621 0.0
H851 H 0.95362 0.87119 0.64602 0.0
H852 H 0.97269 0.94379 0.65318 0.0
H853 H 0.9642 0.90557 0.61539 0.0
H854 H 0.02675 0.88672 0.70443 0.0
H855 H 0.03556 0.92486 0.74027 0.0
C856 C 1.0042 0.83454 0.57519 0.0
C857 C 0.98169 0.82645 0.56894 0.0
C858 C 1.00847 0.85583 0.60519 0.0
C859 C 0.99036 0.86963 0.63001 0.0
C860 C 0.96794 0.86122 0.62632 0.0
C861 C 0.96366 0.83991 0.59609 0.0
C862 C 0.98459 0.93149 0.66484 0.0
C863 C 1.00492 0.93747 0.69915 0.0
C864 C 0.97964 0.90951 0.64359 0.0
C865 C 0.99482 0.89295 0.65652 0.0
C866 C 0.01485 0.89897 0.69242 0.0
C867 C 0.01987 0.92091 0.71321 0.0
H868 H 0.71528 0.00184 0.59397 0.0
H869 H 0.67185 0.01767 0.4397 0.0
H870 H 0.68107 0.9964 0.65818 0.0
H871 H 0.63796 0.01253 0.50329 0.0
H872 H 0.58029 0.98467 0.60735 0.0
H873 H 0.61573 0.98499 0.54631 0.0
H874 H 0.64969 0.01897 0.7156 0.0
H875 H 0.61417 0.01847 0.77732 0.0
C876 C 0.69846 0.00386 0.57347 0.0
C877 C 0.69629 0.01025 0.51183 0.0
C878 C 0.67886 0.00097 0.61043 0.0
C879 C 0.65668 0.00408 0.58609 0.0
C880 C 0.65466 0.00977 0.52354 0.0
C881 C 0.67413 0.01286 0.48714 0.0
C882 C 0.5953 0.99209 0.63198 0.0
C883 C 0.59418 0.00167 0.69742 0.0
C884 C 0.61567 0.99235 0.59672 0.0
C885 C 0.63561 0.00214 0.62573 0.0
C886 C 0.63475 0.01113 0.69173 0.0
C887 C 0.61429 0.01096 0.72706 0.0
H888 H 0.54619 0.72804 0.54082 0.0
H889 H 0.57979 0.69618 0.36823 0.0
H890 H 0.55235 0.69568 0.59258 0.0
H891 H 0.58535 0.66371 0.41865 0.0
H892 H 0.60423 0.611 0.53503 0.0
H893 H 0.6037 0.64614 0.49693 0.0
H894 H 0.53745 0.66019 0.58602 0.0
H895 H 0.53874 0.62576 0.62795 0.0
C896 C 0.5551 0.71419 0.51421 0.0
C897 C 0.56254 0.71471 0.45049 0.0
C898 C 0.55848 0.69555 0.54361 0.0
C899 C 0.56914 0.67686 0.50971 0.0
C900 C 0.57738 0.67779 0.44686 0.0
C901 C 0.57421 0.69649 0.4178 0.0
C902 C 0.58973 0.62173 0.54765 0.0
C903 C 0.57148 0.61536 0.58451 0.0
C904 C 0.58929 0.64185 0.52497 0.0
C905 C 0.57048 0.65611 0.53793 0.0
C906 C 0.55239 0.64987 0.57561 0.0
C907 C 0.55294 0.62985 0.5988 0.0
H908 H 0.85465 0.46753 0.55866 0.0
H909 H 0.85305 0.53768 0.57854 0.0
H910 H 0.89125 0.46892 0.61452 0.0
H911 H 0.88971 0.53925 0.63671 0.0
H912 H 0.96719 0.53227 0.67973 0.0
H913 H 0.92965 0.53289 0.62782 0.0
H914 H 0.90944 0.47683 0.71431 0.0
H915 H 0.94717 0.47574 0.76361 0.0
C916 C 0.86192 0.48334 0.57613 0.0
C917 C 0.85065 0.5025 0.56464 0.0
C918 C 0.88302 0.48417 0.60853 0.0
C919 C 0.8936 0.50421 0.63124 0.0
C920 C 0.88236 0.52345 0.61959 0.0
C921 C 0.86124 0.5226 0.58641 0.0
C922 C 0.95467 0.52016 0.68793 0.0
C923 C 0.96036 0.50384 0.72551 0.0
C924 C 0.93301 0.52056 0.6583 0.0
C925 C 0.91632 0.50477 0.66592 0.0
C926 C 0.92186 0.48895 0.70553 0.0
C927 C 0.94356 0.4884 0.7344 0.0
loop_
_geom_bond_atom_site_label_1
_geom_bond_atom_site_label_2
_geom_bond_distance
_geom_bond_site_symmetry_2
_ccdc_geom_bond_type
C0 C1 1.384 . S
C0 H13 0.947 . S
C0 C35 1.382 . S
C1 C0 1.384 . S
C1 C2 1.378 . S
C2 C1 1.378 . S
C2 C3 1.378 . S
C2 H14 0.952 . S
C3 C2 1.378 . S
C3 H15 0.950 . S
C3 C34 1.383 . S
H4 C23 0.947 . S
H5 C24 0.946 . S
H6 C26 0.953 . S
H7 C27 0.945 . S
H8 C29 0.952 . S
H9 C30 0.949 . S
H10 C32 0.950 . S
H11 C33 0.948 . S
H12 C35 0.951 . S
H13 C0 0.947 . S
H14 C2 0.952 . S
H15 C3 0.950 . S
N16 C19 1.382 . S
N16 C21 1.363 . S
N17 C19 1.371 . S
N17 C20 1.372 . S
N18 C20 1.361 . S
N18 C21 1.377 . S
C19 N16 1.382 . S
C19 N17 1.371 . S
C19 C22 1.480 . S
C20 N17 1.372 . S
C20 N18 1.361 . S
C20 C28 1.457 . S
C21 N16 1.363 . S
C21 N18 1.377 . S
C21 C34 1.479 . S
C22 C19 1.480 . S
C22 C23 1.383 . S
C22 C27 1.385 . S
C23 H4 0.947 . S
C23 C22 1.383 . S
C23 C24 1.388 . S
C24 H5 0.946 . S
C24 C23 1.388 . S
C24 C25 1.384 . S
C25 C24 1.384 . S
C25 C26 1.377 . S
C26 H6 0.953 . S
C26 C25 1.377 . S
C26 C27 1.369 . S
C27 H7 0.945 . S
C27 C22 1.385 . S
C27 C26 1.369 . S
C28 C20 1.457 . S
C28 C29 1.372 . S
C28 C33 1.364 . S
C29 H8 0.952 . S
C29 C28 1.372 . S
C29 C30 1.389 . S
C30 H9 0.949 . S
C30 C29 1.389 . S
C30 C31 1.387 . S
C31 C30 1.387 . S
C31 C32 1.372 . S
C32 H10 0.950 . S
C32 C31 1.372 . S
C32 C33 1.379 . S
C33 H11 0.948 . S
C33 C28 1.364 . S
C33 C32 1.379 . S
C34 C3 1.383 . S
C34 C21 1.479 . S
C34 C35 1.398 . S
C35 C0 1.382 . S
C35 H12 0.951 . S
C35 C34 1.398 . S
C36 C37 1.384 . S
C36 H49 0.947 . S
C36 C71 1.382 . S
C37 C36 1.384 . S
C37 C38 1.378 . S
C38 C37 1.378 . S
C38 C39 1.378 . S
C38 H50 0.952 . S
C39 C38 1.378 . S
C39 H51 0.950 . S
C39 C70 1.383 . S
H40 C59 0.947 . S
H41 C60 0.946 . S
H42 C62 0.953 . S
H43 C63 0.945 . S
H44 C65 0.952 . S
H45 C66 0.949 . S
H46 C68 0.950 . S
H47 C69 0.948 . S
H48 C71 0.951 . S
H49 C36 0.947 . S
H50 C38 0.952 . S
H51 C39 0.950 . S
N52 C55 1.382 . S
N52 C57 1.363 . S
N53 C55 1.371 . S
N53 C56 1.372 . S
N54 C56 1.361 . S
N54 C57 1.377 . S
C55 N52 1.382 . S
C55 N53 1.371 . S
C55 C58 1.480 . S
C56 N53 1.372 . S
C56 N54 1.361 . S
C56 C64 1.457 . S
C57 N52 1.363 . S
C57 N54 1.377 . S
C57 C70 1.479 . S
C58 C55 1.480 . S
C58 C59 1.383 . S
C58 C63 1.385 . S
C59 H40 0.947 . S
C59 C58 1.383 . S
C59 C60 1.388 . S
C60 H41 0.946 . S
C60 C59 1.388 . S
C60 C61 1.384 . S
C61 C60 1.384 . S
C61 C62 1.377 . S
C62 H42 0.953 . S
C62 C61 1.377 . S
C62 C63 1.369 . S
C63 H43 0.945 . S
C63 C58 1.385 . S
C63 C62 1.369 . S
C64 C56 1.457 . S
C64 C65 1.372 . S
C64 C69 1.364 . S
C65 H44 0.952 . S
C65 C64 1.372 . S
C65 C66 1.389 . S
C66 H45 0.949 . S
C66 C65 1.389 . S
C66 C67 1.387 . S
C67 C66 1.387 . S
C67 C68 1.372 . S
C68 H46 0.950 . S
C68 C67 1.372 . S
C68 C69 1.379 . S
C69 H47 0.948 . S
C69 C64 1.364 . S
C69 C68 1.379 . S
C70 C39 1.383 . S
C70 C57 1.479 . S
C70 C71 1.398 . S
C71 C36 1.382 . S
C71 H48 0.951 . S
C71 C70 1.398 . S
C72 C73 1.384 1_565 S
C72 H85 0.948 . S
C72 C107 1.381 1_565 S
C73 C72 1.384 1_545 S
C73 C74 1.378 . S
C74 C73 1.378 . S
C74 C75 1.378 . S
C74 H86 0.952 . S
C75 C74 1.378 . S
C75 H87 0.950 . S
C75 C106 1.383 . S
H76 C95 0.947 . S
H77 C96 0.955 . S
H78 C98 0.953 . S
H79 C99 0.945 . S
H80 C101 0.950 1_565 S
H81 C102 0.950 . S
H82 C104 0.950 . S
H83 C105 0.948 . S
H84 C107 0.951 1_565 S
H85 C72 0.948 . S
H86 C74 0.952 . S
H87 C75 0.950 . S
N88 C91 1.382 . S
N88 C93 1.363 . S
N89 C91 1.371 . S
N89 C92 1.372 . S
N90 C92 1.361 . S
N90 C93 1.377 . S
C91 N88 1.382 . S
C91 N89 1.371 . S
C91 C94 1.480 . S
C92 N89 1.372 . S
C92 N90 1.361 . S
C92 C100 1.457 . S
C93 N88 1.363 . S
C93 N90 1.377 . S
C93 C106 1.479 . S
C94 C91 1.480 . S
C94 C95 1.383 . S
C94 C99 1.385 . S
C95 H76 0.947 . S
C95 C94 1.383 . S
C95 C96 1.387 1_545 S
C96 H77 0.955 . S
C96 C95 1.387 1_565 S
C96 C97 1.377 1_565 S
C97 C96 1.377 1_545 S
C97 C98 1.377 . S
C98 H78 0.953 . S
C98 C97 1.377 . S
C98 C99 1.369 . S
C99 H79 0.945 . S
C99 C94 1.385 . S
C99 C98 1.369 . S
C100 C92 1.457 . S
C100 C101 1.373 . S
C100 C105 1.364 . S
C101 H80 0.950 1_545 S
C101 C100 1.373 . S
C101 C102 1.393 1_545 S
C102 H81 0.950 . S
C102 C101 1.393 1_565 S
C102 C103 1.385 1_565 S
C103 C102 1.385 1_545 S
C103 C104 1.372 . S
C104 H82 0.950 . S
C104 C103 1.372 . S
C104 C105 1.379 . S
C105 H83 0.948 . S
C105 C100 1.364 . S
C105 C104 1.379 . S
C106 C75 1.383 . S
C106 C93 1.479 . S
C106 C107 1.398 . S
C107 C72 1.381 1_545 S
C107 H84 0.951 1_545 S
C107 C106 1.398 . S
C108 C109 1.384 . S
C108 H121 0.947 . S
C108 C143 1.382 . S
C109 C108 1.384 . S
C109 C110 1.378 . S
C110 C109 1.378 . S
C110 C111 1.378 . S
C110 H122 0.952 . S
C111 C110 1.378 . S
C111 H123 0.950 . S
C111 C142 1.383 . S
H112 C131 0.947 . S
H113 C132 0.946 . S
H114 C134 0.953 . S
H115 C135 0.945 . S
H116 C137 0.952 . S
H117 C138 0.949 . S
H118 C140 0.950 . S
H119 C141 0.948 . S
H120 C143 0.951 . S
H121 C108 0.947 . S
H122 C110 0.952 . S
H123 C111 0.950 . S
N124 C127 1.382 . S
N124 C129 1.363 . S
N125 C127 1.371 1_554 S
N125 C128 1.372 . S
N126 C128 1.361 . S
N126 C129 1.377 1_554 S
C127 N124 1.382 . S
C127 N125 1.371 1_556 S
C127 C130 1.480 . S
C128 N125 1.372 . S
C128 N126 1.361 . S
C128 C136 1.457 . S
C129 N124 1.363 . S
C129 N126 1.377 1_556 S
C129 C142 1.479 . S
C130 C127 1.480 . S
C130 C131 1.383 . S
C130 C135 1.385 1_556 S
C131 H112 0.947 . S
C131 C130 1.383 . S
C131 C132 1.388 . S
C132 H113 0.946 . S
C132 C131 1.388 . S
C132 C133 1.384 . S
C133 C132 1.384 . S
C133 C134 1.377 1_556 S
C134 H114 0.953 . S
C134 C133 1.377 1_554 S
C134 C135 1.369 . S
C135 H115 0.945 . S
C135 C130 1.385 1_554 S
C135 C134 1.369 . S
C136 C128 1.457 . S
C136 C137 1.372 . S
C136 C141 1.364 . S
C137 H116 0.952 . S
C137 C136 1.372 . S
C137 C138 1.389 . S
C138 H117 0.949 . S
C138 C137 1.389 . S
C138 C139 1.387 . S
C139 C138 1.387 . S
C139 C140 1.372 . S
C140 H118 0.950 . S
C140 C139 1.372 . S
C140 C141 1.379 . S
C141 H119 0.948 . S
C141 C136 1.364 . S
C141 C140 1.379 . S
C142 C111 1.383 . S
C142 C129 1.479 . S
C142 C143 1.398 . S
C143 C108 1.382 . S
C143 H120 0.951 . S
C143 C142 1.398 . S
C144 C145 1.384 . S
C144 H157 0.947 . S
C144 C179 1.382 1_556 S
C145 C144 1.384 . S
C145 C146 1.378 . S
C146 C145 1.378 . S
C146 C147 1.378 . S
C146 H158 0.952 . S
C147 C146 1.378 . S
C147 H159 0.951 . S
C147 C178 1.383 1_556 S
H148 C167 0.947 . S
H149 C168 0.946 . S
H150 C170 0.953 . S
H151 C171 0.945 . S
H152 C173 0.952 . S
H153 C174 0.949 . S
H154 C176 0.950 . S
H155 C177 0.948 . S
H156 C179 0.951 . S
H157 C144 0.947 . S
H158 C146 0.952 . S
H159 C147 0.951 . S
N160 C163 1.382 . S
N160 C165 1.363 . S
N161 C163 1.371 . S
N161 C164 1.372 . S
N162 C164 1.361 . S
N162 C165 1.377 . S
C163 N160 1.382 . S
C163 N161 1.371 . S
C163 C166 1.480 . S
C164 N161 1.372 . S
C164 N162 1.361 . S
C164 C172 1.457 . S
C165 N160 1.363 . S
C165 N162 1.377 . S
C165 C178 1.479 . S
C166 C163 1.480 . S
C166 C167 1.383 . S
C166 C171 1.385 . S
C167 H148 0.947 . S
C167 C166 1.383 . S
C167 C168 1.388 . S
C168 H149 0.946 . S
C168 C167 1.388 . S
C168 C169 1.384 . S
C169 C168 1.384 . S
C169 C170 1.377 . S
C170 H150 0.953 . S
C170 C169 1.377 . S
C170 C171 1.369 . S
C171 H151 0.945 . S
C171 C166 1.385 . S
C171 C170 1.369 . S
C172 C164 1.457 . S
C172 C173 1.372 . S
C172 C177 1.364 . S
C173 H152 0.952 . S
C173 C172 1.372 . S
C173 C174 1.389 . S
C174 H153 0.949 . S
C174 C173 1.389 . S
C174 C175 1.387 . S
C175 C174 1.387 . S
C175 C176 1.372 . S
C176 H154 0.950 . S
C176 C175 1.372 . S
C176 C177 1.379 . S
C177 H155 0.948 . S
C177 C172 1.364 . S
C177 C176 1.379 . S
C178 C147 1.383 1_554 S
C178 C165 1.479 . S
C178 C179 1.398 . S
C179 C144 1.382 1_554 S
C179 H156 0.951 . S
C179 C178 1.398 . S
C180 C181 1.384 1_554 S
C180 H193 0.947 1_554 S
C180 C215 1.382 . S
C181 C180 1.384 1_556 S
C181 C182 1.378 . S
C182 C181 1.378 . S
C182 C183 1.378 1_556 S
C182 H194 0.952 . S
C183 C182 1.378 1_554 S
C183 H195 0.950 . S
C183 C214 1.383 . S
H184 C203 0.947 . S
H185 C204 0.946 . S
H186 C206 0.953 . S
H187 C207 0.945 . S
H188 C209 0.952 . S
H189 C210 0.949 . S
H190 C212 0.950 . S
H191 C213 0.948 . S
H192 C215 0.951 . S
H193 C180 0.947 1_556 S
H194 C182 0.952 . S
H195 C183 0.950 . S
N196 C199 1.382 . S
N196 C201 1.363 . S
N197 C199 1.371 . S
N197 C200 1.372 . S
N198 C200 1.361 . S
N198 C201 1.377 . S
C199 N196 1.382 . S
C199 N197 1.371 . S
C199 C202 1.480 . S
C200 N197 1.372 . S
C200 N198 1.361 . S
C200 C208 1.457 . S
C201 N196 1.363 . S
C201 N198 1.377 . S
C201 C214 1.479 . S
C202 C199 1.480 . S
C202 C203 1.383 . S
C202 C207 1.385 . S
C203 H184 0.947 . S
C203 C202 1.383 . S
C203 C204 1.388 . S
C204 H185 0.946 . S
C204 C203 1.388 . S
C204 C205 1.384 . S
C205 C204 1.384 . S
C205 C206 1.377 . S
C206 H186 0.953 . S
C206 C205 1.377 . S
C206 C207 1.369 . S
C207 H187 0.945 . S
C207 C202 1.385 . S
C207 C206 1.369 . S
C208 C200 1.457 . S
C208 C209 1.372 . S
C208 C213 1.364 . S
C209 H188 0.952 . S
C209 C208 1.372 . S
C209 C210 1.389 . S
C210 H189 0.949 . S
C210 C209 1.389 . S
C210 C211 1.387 . S
C211 C210 1.387 . S
C211 C212 1.372 . S
C212 H190 0.950 . S
C212 C211 1.372 . S
C212 C213 1.379 . S
C213 H191 0.948 . S
C213 C208 1.364 . S
C213 C212 1.379 . S
C214 C183 1.383 . S
C214 C201 1.479 . S
C214 C215 1.398 . S
C215 C180 1.382 . S
C215 H192 0.951 . S
C215 C214 1.398 . S
C216 C217 1.383 . S
C216 H229 0.947 1_545 S
C216 C251 1.384 1_556 S
C217 C216 1.383 . S
C217 C218 1.378 . S
C218 C217 1.378 . S
C218 C219 1.378 1_556 S
C218 H230 0.952 . S
C219 C218 1.378 1_554 S
C219 H231 0.950 . S
C219 C250 1.383 . S
H220 C239 0.947 . S
H221 C240 0.947 . S
H222 C242 0.953 . S
H223 C243 0.945 . S
H224 C245 0.946 1_565 S
H225 C246 0.958 . S
H226 C248 0.950 . S
H227 C249 0.948 . S
H228 C251 0.949 1_565 S
H229 C216 0.947 1_565 S
H230 C218 0.952 . S
H231 C219 0.950 . S
N232 C235 1.382 . S
N232 C237 1.363 . S
N233 C235 1.371 . S
N233 C236 1.372 . S
N234 C236 1.361 . S
N234 C237 1.377 . S
C235 N232 1.382 . S
C235 N233 1.371 . S
C235 C238 1.480 . S
C236 N233 1.372 . S
C236 N234 1.361 . S
C236 C244 1.457 . S
C237 N232 1.363 . S
C237 N234 1.377 . S
C237 C250 1.479 . S
C238 C235 1.480 . S
C238 C239 1.383 . S
C238 C243 1.385 . S
C239 H220 0.947 . S
C239 C238 1.383 . S
C239 C240 1.386 1_545 S
C240 H221 0.947 . S
C240 C239 1.386 1_565 S
C240 C241 1.385 1_565 S
C241 C240 1.385 1_545 S
C241 C242 1.377 . S
C242 H222 0.953 . S
C242 C241 1.377 . S
C242 C243 1.369 . S
C243 H223 0.945 . S
C243 C238 1.385 . S
C243 C242 1.369 . S
C244 C236 1.457 . S
C244 C245 1.383 . S
C244 C249 1.364 . S
C245 H224 0.946 1_545 S
C245 C244 1.383 . S
C245 C246 1.380 1_545 S
C246 H225 0.958 . S
C246 C245 1.380 1_565 S
C246 C247 1.382 1_565 S
C247 C246 1.382 1_545 S
C247 C248 1.372 . S
C248 H226 0.950 . S
C248 C247 1.372 . S
C248 C249 1.379 . S
C249 H227 0.948 . S
C249 C244 1.364 . S
C249 C248 1.379 . S
C250 C219 1.383 . S
C250 C237 1.479 . S
C250 C251 1.399 . S
C251 C216 1.384 1_554 S
C251 H228 0.949 1_545 S
C251 C250 1.399 . S
C252 C253 1.384 . S
C252 H265 0.947 . S
C252 C287 1.382 . S
C253 C252 1.384 . S
C253 C254 1.378 . S
C254 C253 1.378 . S
C254 C255 1.378 . S
C254 H266 0.952 . S
C255 C254 1.378 . S
C255 H267 0.950 . S
C255 C286 1.383 . S
H256 C275 0.947 . S
H257 C276 0.946 . S
H258 C278 0.953 . S
H259 C279 0.945 . S
H260 C281 0.952 . S
H261 C282 0.949 . S
H262 C284 0.950 . S
H263 C285 0.948 . S
H264 C287 0.951 . S
H265 C252 0.947 . S
H266 C254 0.952 . S
H267 C255 0.950 . S
N268 C271 1.382 . S
N268 C273 1.363 . S
N269 C271 1.371 . S
N269 C272 1.372 . S
N270 C272 1.361 . S
N270 C273 1.377 . S
C271 N268 1.382 . S
C271 N269 1.371 . S
C271 C274 1.480 . S
C272 N269 1.372 . S
C272 N270 1.361 . S
C272 C280 1.457 . S
C273 N268 1.363 . S
C273 N270 1.377 . S
C273 C286 1.479 . S
C274 C271 1.480 . S
C274 C275 1.383 . S
C274 C279 1.385 . S
C275 H256 0.947 . S
C275 C274 1.383 . S
C275 C276 1.388 . S
C276 H257 0.946 . S
C276 C275 1.388 . S
C276 C277 1.384 . S
C277 C276 1.384 . S
C277 C278 1.377 . S
C278 H258 0.953 . S
C278 C277 1.377 . S
C278 C279 1.369 . S
C279 H259 0.945 . S
C279 C274 1.385 . S
C279 C278 1.369 . S
C280 C272 1.457 . S
C280 C281 1.372 . S
C280 C285 1.364 . S
C281 H260 0.952 . S
C281 C280 1.372 . S
C281 C282 1.389 . S
C282 H261 0.949 . S
C282 C281 1.389 . S
C282 C283 1.387 . S
C283 C282 1.387 . S
C283 C284 1.372 . S
C284 H262 0.950 . S
C284 C283 1.372 . S
C284 C285 1.379 . S
C285 H263 0.948 . S
C285 C280 1.364 . S
C285 C284 1.379 . S
C286 C255 1.383 . S
C286 C273 1.479 . S
C286 C287 1.398 . S
C287 C252 1.382 . S
C287 H264 0.951 . S
C287 C286 1.398 . S
Tb288 C297 2.764 . S
Tb288 O298 2.325 1_655 S
Tb288 O301 2.303 1_655 S
Tb288 O305 2.322 1_545 S
Tb288 O306 2.349 . S
Tb288 O309 2.415 1_655 S
Tb288 O310 2.399 . S
Tb289 O299 2.322 1_565 S
Tb289 O300 2.349 . S
Tb289 O302 2.415 . S
Tb289 O303 2.399 . S
Tb289 O304 2.325 . S
Tb289 O307 2.303 1_455 S
Tb289 C318 2.764 . S
C290 O306 1.261 . S
C290 O307 1.257 1_545 S
C291 C294 1.358 . S
C291 C295 1.332 1_655 S
C291 C297 1.504 . S
C292 C293 1.373 . S
C292 C296 1.308 1_655 S
C293 C292 1.373 . S
C293 C294 1.429 . S
C293 H320 0.932 . S
C294 C291 1.358 . S
C294 C293 1.429 . S
C294 H321 0.930 . S
C295 C291 1.332 1_455 S
C295 C296 1.394 . S
C295 H322 0.932 . S
C296 C292 1.308 1_455 S
C296 C295 1.394 . S
C296 H323 0.929 . S
C297 Tb288 2.764 . S
C297 C291 1.504 . S
C297 O309 1.239 1_655 S
C297 O310 1.263 . S
O298 Tb288 2.325 1_455 S
O298 C308 1.236 . S
O299 Tb289 2.322 1_545 S
O299 C308 1.257 . S
O300 Tb289 2.349 . S
O300 C311 1.261 . S
O301 Tb288 2.303 1_455 S
O301 C311 1.257 1_545 S
O302 Tb289 2.415 . S
O302 C318 1.239 . S
O303 Tb289 2.399 . S
O303 C318 1.263 . S
O304 Tb289 2.325 . S
O304 C319 1.236 1_455 S
O305 Tb288 2.322 1_565 S
O305 C319 1.257 . S
O306 Tb288 2.349 . S
O306 C290 1.261 . S
O307 Tb289 2.303 1_655 S
O307 C290 1.257 1_565 S
C308 O298 1.236 . S
C308 O299 1.257 . S
O309 Tb288 2.415 1_455 S
O309 C297 1.239 1_455 S
O310 Tb288 2.399 . S
O310 C297 1.263 . S
C311 O300 1.261 . S
C311 O301 1.257 1_565 S
C312 C315 1.358 . S
C312 C316 1.332 . S
C312 C318 1.504 . S
C313 C314 1.373 . S
C313 C317 1.308 . S
C314 C313 1.373 . S
C314 C315 1.429 . S
C314 H324 0.932 . S
C315 C312 1.358 . S
C315 C314 1.429 . S
C315 H325 0.930 . S
C316 C312 1.332 . S
C316 C317 1.394 . S
C316 H326 0.897 1_455 S
C317 C313 1.308 . S
C317 C316 1.394 . S
C317 H327 0.929 . S
C318 Tb289 2.764 . S
C318 O302 1.239 . S
C318 O303 1.263 . S
C318 C312 1.504 . S
C319 O304 1.236 1_655 S
C319 O305 1.257 . S
H320 C293 0.932 . S
H321 C294 0.930 . S
H322 C295 0.932 . S
H323 C296 0.929 . S
H324 C314 0.932 . S
H325 C315 0.930 . S
H326 C316 0.897 1_655 S
H327 C317 0.929 . S
Tb328 C337 2.764 . S
Tb328 O338 2.325 . S
Tb328 O341 2.303 1_565 S
Tb328 O345 2.322 . S
Tb328 O346 2.349 . S
Tb328 O349 2.415 1_565 S
Tb328 O350 2.399 . S
Tb329 O339 2.322 . S
Tb329 O340 2.349 . S
Tb329 O342 2.415 1_545 S
Tb329 O343 2.399 . S
Tb329 O344 2.325 . S
Tb329 O347 2.303 1_545 S
Tb329 C358 2.764 . S
C330 O346 1.261 . S
C330 O347 1.257 . S
C331 C334 1.358 . S
C331 C335 1.330 . S
C331 C337 1.504 . S
C332 C333 1.373 . S
C332 C336 1.308 . S
C333 C332 1.373 . S
C333 C334 1.429 . S
C333 H360 0.932 . S
C334 C331 1.358 . S
C334 C333 1.429 . S
C334 H361 0.930 . S
C335 C331 1.330 . S
C335 C336 1.394 . S
C335 H362 0.934 1_565 S
C336 C332 1.308 . S
C336 C335 1.394 . S
C336 H363 0.929 1_565 S
C337 Tb328 2.764 . S
C337 C331 1.504 . S
C337 O349 1.239 1_565 S
C337 O350 1.263 . S
O338 Tb328 2.325 . S
O338 C348 1.236 1_565 S
O339 Tb329 2.322 . S
O339 C348 1.257 . S
O340 Tb329 2.349 . S
O340 C351 1.261 . S
O341 Tb328 2.303 1_545 S
O341 C351 1.257 . S
O342 Tb329 2.415 1_565 S
O342 C358 1.239 1_565 S
O343 Tb329 2.399 . S
O343 C358 1.263 . S
O344 Tb329 2.325 . S
O344 C359 1.236 1_545 S
O345 Tb328 2.322 . S
O345 C359 1.257 . S
O346 Tb328 2.349 . S
O346 C330 1.261 . S
O347 Tb329 2.303 1_565 S
O347 C330 1.257 . S
C348 O338 1.236 1_545 S
C348 O339 1.257 . S
O349 Tb328 2.415 1_545 S
O349 C337 1.239 1_545 S
O350 Tb328 2.399 . S
O350 C337 1.263 . S
C351 O340 1.261 . S
C351 O341 1.257 . S
C352 C355 1.358 . S
C352 C356 1.340 . S
C352 C358 1.504 . S
C353 C354 1.373 . S
C353 C357 1.308 1_554 S
C354 C353 1.373 . S
C354 C355 1.429 1_554 S
C354 H364 0.932 . S
C355 C352 1.358 . S
C355 C354 1.429 1_556 S
C355 H365 0.930 . S
C356 C352 1.340 . S
C356 C357 1.394 . S
C356 H366 0.924 1_545 S
C357 C353 1.308 1_556 S
C357 C356 1.394 . S
C357 H367 0.929 1_545 S
C358 Tb329 2.764 . S
C358 O342 1.239 1_545 S
C358 O343 1.263 . S
C358 C352 1.504 . S
C359 O344 1.236 1_565 S
C359 O345 1.257 . S
H360 C333 0.932 . S
H361 C334 0.930 . S
H362 C335 0.934 1_545 S
H363 C336 0.929 1_545 S
H364 C354 0.932 . S
H365 C355 0.930 . S
H366 C356 0.924 1_565 S
H367 C357 0.929 1_565 S
Tb368 C377 2.764 . S
Tb368 O378 2.325 . S
Tb368 O381 2.303 . S
Tb368 O385 2.322 . S
Tb368 O386 2.349 . S
Tb368 O389 2.415 . S
Tb368 O390 2.399 . S
Tb369 O379 2.322 . S
Tb369 O380 2.349 . S
Tb369 O382 2.415 . S
Tb369 O383 2.399 . S
Tb369 O384 2.325 . S
Tb369 O387 2.303 . S
Tb369 C398 2.764 . S
C370 O386 1.261 . S
C370 O387 1.257 . S
C371 C374 1.358 . S
C371 C375 1.332 . S
C371 C377 1.504 . S
C372 C373 1.373 . S
C372 C376 1.308 . S
C373 C372 1.373 . S
C373 C374 1.429 1_554 S
C373 H400 0.932 . S
C374 C371 1.358 . S
C374 C373 1.429 1_556 S
C374 H401 0.930 . S
C375 C371 1.332 . S
C375 C376 1.394 1_556 S
C375 H402 0.932 . S
C376 C372 1.308 . S
C376 C375 1.394 1_554 S
C376 H403 0.929 . S
C377 Tb368 2.764 . S
C377 C371 1.504 . S
C377 O389 1.239 . S
C377 O390 1.263 . S
O378 Tb368 2.325 . S
O378 C388 1.236 . S
O379 Tb369 2.322 . S
O379 C388 1.257 . S
O380 Tb369 2.349 . S
O380 C391 1.261 . S
O381 Tb368 2.303 . S
O381 C391 1.257 . S
O382 Tb369 2.415 . S
O382 C398 1.239 . S
O383 Tb369 2.399 . S
O383 C398 1.263 . S
O384 Tb369 2.325 . S
O384 C399 1.236 . S
O385 Tb368 2.322 . S
O385 C399 1.257 . S
O386 Tb368 2.349 . S
O386 C370 1.261 . S
O387 Tb369 2.303 . S
O387 C370 1.257 . S
C388 O378 1.236 . S
C388 O379 1.257 . S
O389 Tb368 2.415 . S
O389 C377 1.239 . S
O390 Tb368 2.399 . S
O390 C377 1.263 . S
C391 O380 1.261 . S
C391 O381 1.257 . S
C392 C395 1.358 . S
C392 C396 1.332 . S
C392 C398 1.504 . S
C393 C394 1.373 . S
C393 C397 1.308 . S
C394 C393 1.373 . S
C394 C395 1.429 . S
C394 H404 0.932 . S
C395 C392 1.358 . S
C395 C394 1.429 . S
C395 H405 0.930 . S
C396 C392 1.332 . S
C396 C397 1.394 . S
C396 H406 0.932 . S
C397 C393 1.308 . S
C397 C396 1.394 . S
C397 H407 0.929 . S
C398 Tb369 2.764 . S
C398 O382 1.239 . S
C398 O383 1.263 . S
C398 C392 1.504 . S
C399 O384 1.236 . S
C399 O385 1.257 . S
H400 C373 0.932 . S
H401 C374 0.930 . S
H402 C375 0.932 . S
H403 C376 0.929 . S
H404 C394 0.932 . S
H405 C395 0.930 . S
H406 C396 0.932 . S
H407 C397 0.929 . S
Tb408 C417 2.764 . S
Tb408 O418 2.325 . S
Tb408 O421 2.303 . S
Tb408 O425 2.322 1_455 S
Tb408 O426 2.349 . S
Tb408 O429 2.415 . S
Tb408 O430 2.399 . S
Tb409 O419 2.322 1_655 S
Tb409 O420 2.349 1_655 S
Tb409 O422 2.415 . S
Tb409 O423 2.399 . S
Tb409 O424 2.325 . S
Tb409 O427 2.303 1_655 S
Tb409 C438 2.764 . S
C410 O426 1.261 . S
C410 O427 1.257 . S
C411 C414 1.358 . S
C411 C415 1.332 . S
C411 C417 1.504 . S
C412 C413 1.373 . S
C412 C416 1.308 . S
C413 C412 1.373 . S
C413 C414 1.429 . S
C413 H440 0.932 . S
C414 C411 1.358 . S
C414 C413 1.429 . S
C414 H441 0.930 . S
C415 C411 1.332 . S
C415 C416 1.394 . S
C415 H442 0.932 . S
C416 C412 1.308 . S
C416 C415 1.394 . S
C416 H443 0.929 . S
C417 Tb408 2.764 . S
C417 C411 1.504 . S
C417 O429 1.239 . S
C417 O430 1.263 . S
O418 Tb408 2.325 . S
O418 C428 1.236 . S
O419 Tb409 2.322 1_455 S
O419 C428 1.257 . S
O420 Tb409 2.349 1_455 S
O420 C431 1.261 . S
O421 Tb408 2.303 . S
O421 C431 1.257 . S
O422 Tb409 2.415 . S
O422 C438 1.239 . S
O423 Tb409 2.399 . S
O423 C438 1.263 . S
O424 Tb409 2.325 . S
O424 C439 1.236 . S
O425 Tb408 2.322 1_655 S
O425 C439 1.257 . S
O426 Tb408 2.349 . S
O426 C410 1.261 . S
O427 Tb409 2.303 1_455 S
O427 C410 1.257 . S
C428 O418 1.236 . S
C428 O419 1.257 . S
O429 Tb408 2.415 . S
O429 C417 1.239 . S
O430 Tb408 2.399 . S
O430 C417 1.263 . S
C431 O420 1.261 . S
C431 O421 1.257 . S
C432 C435 1.358 . S
C432 C436 1.332 . S
C432 C438 1.504 . S
C433 C434 1.373 . S
C433 C437 1.308 . S
C434 C433 1.373 . S
C434 C435 1.429 . S
C434 H444 0.932 . S
C435 C432 1.358 . S
C435 C434 1.429 . S
C435 H445 0.930 . S
C436 C432 1.332 . S
C436 C437 1.394 . S
C436 H446 0.932 . S
C437 C433 1.308 . S
C437 C436 1.394 . S
C437 H447 0.929 . S
C438 Tb409 2.764 . S
C438 O422 1.239 . S
C438 O423 1.263 . S
C438 C432 1.504 . S
C439 O424 1.236 . S
C439 O425 1.257 . S
H440 C413 0.932 . S
H441 C414 0.930 . S
H442 C415 0.932 . S
H443 C416 0.929 . S
H444 C434 0.932 . S
H445 C435 0.930 . S
H446 C436 0.932 . S
H447 C437 0.929 . S
H448 C456 0.950 . S
H449 C461 0.950 . S
H450 C458 0.950 . S
H451 C460 0.950 . S
H452 C462 0.950 . S
H453 C464 0.950 . S
H454 C466 0.950 . S
H455 C467 0.950 . S
C456 H448 0.950 . S
C456 C457 1.383 1_565 S
C456 C458 1.391 . S
C457 C456 1.383 1_545 S
C457 C461 1.395 . S
C458 H450 0.950 . S
C458 C456 1.391 . S
C458 C459 1.398 1_565 S
C459 C458 1.398 1_545 S
C459 C460 1.401 . S
C459 C465 1.491 . S
C460 H451 0.950 . S
C460 C459 1.401 . S
C460 C461 1.391 . S
C461 H449 0.950 . S
C461 C457 1.395 . S
C461 C460 1.391 . S
C462 H452 0.950 . S
C462 C463 1.388 . S
C462 C464 1.391 . S
C463 C462 1.388 . S
C463 C467 1.391 1_545 S
C464 H453 0.950 . S
C464 C462 1.391 . S
C464 C465 1.402 . S
C465 C459 1.491 . S
C465 C464 1.402 . S
C465 C466 1.396 1_545 S
C466 H454 0.950 . S
C466 C465 1.396 1_565 S
C466 C467 1.391 . S
C467 H455 0.950 . S
C467 C463 1.391 1_565 S
C467 C466 1.391 . S
H468 C476 0.950 . S
H469 C481 0.950 . S
H470 C478 0.950 . S
H471 C480 0.950 . S
H472 C482 0.950 . S
H473 C484 0.950 . S
H474 C486 0.950 . S
H475 C487 0.950 . S
C476 H468 0.950 . S
C476 C477 1.386 . S
C476 C478 1.391 . S
C477 C476 1.386 . S
C477 C481 1.393 . S
C478 H470 0.950 . S
C478 C476 1.391 . S
C478 C479 1.400 . S
C479 C478 1.400 . S
C479 C480 1.398 . S
C479 C485 1.491 . S
C480 H471 0.950 . S
C480 C479 1.398 . S
C480 C481 1.391 . S
C481 H469 0.950 . S
C481 C477 1.393 . S
C481 C480 1.391 . S
C482 H472 0.950 . S
C482 C483 1.386 . S
C482 C484 1.391 . S
C483 C482 1.386 . S
C483 C487 1.393 . S
C484 H473 0.950 . S
C484 C482 1.391 . S
C484 C485 1.400 . S
C485 C479 1.491 . S
C485 C484 1.400 . S
C485 C486 1.398 . S
C486 H474 0.950 . S
C486 C485 1.398 . S
C486 C487 1.391 . S
C487 H475 0.950 . S
C487 C483 1.393 . S
C487 C486 1.391 . S
H488 C496 0.950 . S
H489 C501 0.950 . S
H490 C498 0.950 . S
H491 C500 0.950 . S
H492 C502 0.950 . S
H493 C504 0.950 . S
H494 C506 0.950 . S
H495 C507 0.950 . S
C496 H488 0.950 . S
C496 C497 1.386 . S
C496 C498 1.391 . S
C497 C496 1.386 . S
C497 C501 1.393 . S
C498 H490 0.950 . S
C498 C496 1.391 . S
C498 C499 1.400 . S
C499 C498 1.400 . S
C499 C500 1.398 . S
C499 C505 1.491 . S
C500 H491 0.950 . S
C500 C499 1.398 . S
C500 C501 1.391 . S
C501 H489 0.950 . S
C501 C497 1.393 . S
C501 C500 1.391 . S
C502 H492 0.950 . S
C502 C503 1.386 . S
C502 C504 1.391 . S
C503 C502 1.386 . S
C503 C507 1.393 . S
C504 H493 0.950 . S
C504 C502 1.391 . S
C504 C505 1.400 . S
C505 C499 1.491 . S
C505 C504 1.400 . S
C505 C506 1.398 . S
C506 H494 0.950 . S
C506 C505 1.398 . S
C506 C507 1.391 . S
C507 H495 0.950 . S
C507 C503 1.393 . S
C507 C506 1.391 . S
H508 C516 0.950 . S
H509 C521 0.950 . S
H510 C518 0.946 1_655 S
H511 C520 0.950 . S
H512 C522 0.950 . S
H513 C524 0.950 . S
H514 C526 0.950 1_655 S
H515 C527 0.950 1_655 S
C516 H508 0.950 . S
C516 C517 1.386 . S
C516 C518 1.391 . S
C517 C516 1.386 . S
C517 C521 1.393 . S
C518 H510 0.946 1_455 S
C518 C516 1.391 . S
C518 C519 1.400 . S
C519 C518 1.400 . S
C519 C520 1.398 . S
C519 C525 1.491 . S
C520 H511 0.950 . S
C520 C519 1.398 . S
C520 C521 1.391 . S
C521 H509 0.950 . S
C521 C517 1.393 . S
C521 C520 1.391 . S
C522 H512 0.950 . S
C522 C523 1.386 . S
C522 C524 1.391 . S
C523 C522 1.386 . S
C523 C527 1.393 . S
C524 H513 0.950 . S
C524 C522 1.391 . S
C524 C525 1.400 . S
C525 C519 1.491 . S
C525 C524 1.400 . S
C525 C526 1.398 . S
C526 H514 0.950 1_455 S
C526 C525 1.398 . S
C526 C527 1.391 . S
C527 H515 0.950 1_455 S
C527 C523 1.393 . S
C527 C526 1.391 . S
H528 C536 0.950 . S
H529 C541 0.950 . S
H530 C538 0.950 . S
H531 C540 0.950 . S
H532 C542 0.950 . S
H533 C544 0.950 . S
H534 C546 0.950 . S
H535 C547 0.950 . S
C536 H528 0.950 . S
C536 C537 1.388 1_565 S
C536 C538 1.391 . S
C537 C536 1.388 1_545 S
C537 C541 1.390 . S
C538 H530 0.950 . S
C538 C536 1.391 . S
C538 C539 1.404 1_565 S
C539 C538 1.404 1_545 S
C539 C540 1.395 . S
C539 C545 1.490 . S
C540 H531 0.950 . S
C540 C539 1.395 . S
C540 C541 1.391 . S
C541 H529 0.950 . S
C541 C537 1.390 . S
C541 C540 1.391 . S
C542 H532 0.950 . S
C542 C543 1.384 . S
C542 C544 1.391 1_556 S
C543 C542 1.384 . S
C543 C547 1.395 1_545 S
C544 H533 0.950 . S
C544 C542 1.391 1_554 S
C544 C545 1.399 . S
C545 C539 1.490 . S
C545 C544 1.399 . S
C545 C546 1.399 1_545 S
C546 H534 0.950 . S
C546 C545 1.399 1_565 S
C546 C547 1.391 1_554 S
C547 H535 0.950 . S
C547 C543 1.395 1_565 S
C547 C546 1.391 1_556 S
H548 C556 0.950 . S
H549 C561 0.950 . S
H550 C558 0.950 . S
H551 C560 0.950 . S
H552 C562 0.950 . S
H553 C564 0.950 . S
H554 C566 0.950 . S
H555 C567 0.950 . S
C556 H548 0.950 . S
C556 C557 1.386 . S
C556 C558 1.391 . S
C557 C556 1.386 . S
C557 C561 1.393 . S
C558 H550 0.950 . S
C558 C556 1.391 . S
C558 C559 1.400 . S
C559 C558 1.400 . S
C559 C560 1.398 . S
C559 C565 1.491 . S
C560 H551 0.950 . S
C560 C559 1.398 . S
C560 C561 1.391 . S
C561 H549 0.950 . S
C561 C557 1.393 . S
C561 C560 1.391 . S
C562 H552 0.950 . S
C562 C563 1.386 . S
C562 C564 1.391 . S
C563 C562 1.386 . S
C563 C567 1.393 . S
C564 H553 0.950 . S
C564 C562 1.391 . S
C564 C565 1.400 . S
C565 C559 1.491 . S
C565 C564 1.400 . S
C565 C566 1.398 . S
C566 H554 0.950 . S
C566 C565 1.398 . S
C566 C567 1.391 . S
C567 H555 0.950 . S
C567 C563 1.393 . S
C567 C566 1.391 . S
H568 C576 0.950 . S
H569 C581 0.950 . S
H570 C578 0.950 . S
H571 C580 0.950 . S
H572 C582 0.950 . S
H573 C584 0.950 . S
H574 C586 0.950 1_554 S
H575 C587 0.950 . S
C576 H568 0.950 . S
C576 C577 1.386 . S
C576 C578 1.391 . S
C577 C576 1.386 . S
C577 C581 1.393 . S
C578 H570 0.950 . S
C578 C576 1.391 . S
C578 C579 1.400 . S
C579 C578 1.400 . S
C579 C580 1.398 . S
C579 C585 1.491 . S
C580 H571 0.950 . S
C580 C579 1.398 . S
C580 C581 1.391 . S
C581 H569 0.950 . S
C581 C577 1.393 . S
C581 C580 1.391 . S
C582 H572 0.950 . S
C582 C583 1.386 . S
C582 C584 1.391 1_556 S
C583 C582 1.386 . S
C583 C587 1.393 . S
C584 H573 0.950 . S
C584 C582 1.391 1_554 S
C584 C585 1.400 . S
C585 C579 1.491 . S
C585 C584 1.400 . S
C585 C586 1.398 1_554 S
C586 H574 0.950 1_556 S
C586 C585 1.398 1_556 S
C586 C587 1.391 . S
C587 H575 0.950 . S
C587 C583 1.393 . S
C587 C586 1.391 . S
H588 C596 0.950 . S
H589 C601 0.950 1_455 S
H590 C598 0.950 . S
H591 C600 0.950 . S
H592 C602 0.950 . S
H593 C604 0.950 . S
H594 C606 0.950 . S
H595 C607 0.950 . S
C596 H588 0.950 . S
C596 C597 1.386 . S
C596 C598 1.391 . S
C597 C596 1.386 . S
C597 C601 1.393 . S
C598 H590 0.950 . S
C598 C596 1.391 . S
C598 C599 1.400 . S
C599 C598 1.400 . S
C599 C600 1.398 1_655 S
C599 C605 1.491 . S
C600 H591 0.950 . S
C600 C599 1.398 1_455 S
C600 C601 1.391 1_455 S
C601 H589 0.950 1_655 S
C601 C597 1.393 . S
C601 C600 1.391 1_655 S
C602 H592 0.950 . S
C602 C603 1.386 . S
C602 C604 1.391 . S
C603 C602 1.386 . S
C603 C607 1.393 1_455 S
C604 H593 0.950 . S
C604 C602 1.391 . S
C604 C605 1.400 1_456 S
C605 C599 1.491 . S
C605 C604 1.400 1_654 S
C605 C606 1.398 . S
C606 H594 0.950 . S
C606 C605 1.398 . S
C606 C607 1.391 1_554 S
C607 H595 0.950 . S
C607 C603 1.393 1_655 S
C607 C606 1.391 1_556 S
H608 C616 0.950 . S
H609 C621 0.950 . S
H610 C618 0.950 . S
H611 C620 0.950 . S
H612 C622 0.950 . S
H613 C624 0.950 . S
H614 C626 0.950 . S
H615 C627 0.948 1_455 S
C616 H608 0.950 . S
C616 C617 1.386 . S
C616 C618 1.391 . S
C617 C616 1.386 . S
C617 C621 1.393 . S
C618 H610 0.950 . S
C618 C616 1.391 . S
C618 C619 1.400 . S
C619 C618 1.400 . S
C619 C620 1.398 . S
C619 C625 1.491 . S
C620 H611 0.950 . S
C620 C619 1.398 . S
C620 C621 1.391 . S
C621 H609 0.950 . S
C621 C617 1.393 . S
C621 C620 1.391 . S
C622 H612 0.950 . S
C622 C623 1.386 . S
C622 C624 1.391 . S
C623 C622 1.386 . S
C623 C627 1.412 . S
C624 H613 0.950 . S
C624 C622 1.391 . S
C624 C625 1.400 1_655 S
C625 C619 1.491 . S
C625 C624 1.400 1_455 S
C625 C626 1.398 . S
C626 H614 0.950 . S
C626 C625 1.398 . S
C626 C627 1.374 1_455 S
C627 H615 0.948 1_655 S
C627 C623 1.412 . S
C627 C626 1.374 1_655 S
H628 C636 0.950 . S
H629 C641 0.950 . S
H630 C638 0.950 . S
H631 C640 0.950 . S
H632 C642 0.950 . S
H633 C644 0.950 . S
H634 C646 0.950 . S
H635 C647 0.950 1_545 S
C636 H628 0.950 . S
C636 C637 1.386 . S
C636 C638 1.391 . S
C637 C636 1.386 . S
C637 C641 1.393 1_545 S
C638 H630 0.950 . S
C638 C636 1.391 . S
C638 C639 1.400 1_545 S
C639 C638 1.400 1_565 S
C639 C640 1.398 . S
C639 C645 1.491 . S
C640 H631 0.950 . S
C640 C639 1.398 . S
C640 C641 1.391 . S
C641 H629 0.950 . S
C641 C637 1.393 1_565 S
C641 C640 1.391 . S
C642 H632 0.950 . S
C642 C643 1.386 . S
C642 C644 1.391 . S
C643 C642 1.386 . S
C643 C647 1.393 . S
C644 H633 0.950 . S
C644 C642 1.391 . S
C644 C645 1.400 . S
C645 C639 1.491 . S
C645 C644 1.400 . S
C645 C646 1.398 1_565 S
C646 H634 0.950 . S
C646 C645 1.398 1_545 S
C646 C647 1.391 1_545 S
C647 H635 0.950 1_565 S
C647 C643 1.393 . S
C647 C646 1.391 1_565 S
H648 C656 0.950 . S
H649 C661 0.950 . S
H650 C658 0.950 . S
H651 C660 0.950 . S
H652 C662 0.950 . S
H653 C664 0.950 . S
H654 C666 0.950 . S
H655 C667 0.950 . S
C656 H648 0.950 . S
C656 C657 1.386 . S
C656 C658 1.391 . S
C657 C656 1.386 . S
C657 C661 1.393 . S
C658 H650 0.950 . S
C658 C656 1.391 . S
C658 C659 1.400 . S
C659 C658 1.400 . S
C659 C660 1.398 . S
C659 C665 1.491 . S
C660 H651 0.950 . S
C660 C659 1.398 . S
C660 C661 1.391 . S
C661 H649 0.950 . S
C661 C657 1.393 . S
C661 C660 1.391 . S
C662 H652 0.950 . S
C662 C663 1.386 . S
C662 C664 1.391 . S
C663 C662 1.386 . S
C663 C667 1.393 . S
C664 H653 0.950 . S
C664 C662 1.391 . S
C664 C665 1.400 . S
C665 C659 1.491 . S
C665 C664 1.400 . S
C665 C666 1.398 . S
C666 H654 0.950 . S
C666 C665 1.398 . S
C666 C667 1.391 . S
C667 H655 0.950 . S
C667 C663 1.393 . S
C667 C666 1.391 . S
H668 C676 0.950 . S
H669 C681 0.950 . S
H670 C678 0.950 . S
H671 C680 0.950 . S
H672 C682 0.950 . S
H673 C684 0.950 . S
H674 C686 0.950 . S
H675 C687 0.950 . S
C676 H668 0.950 . S
C676 C677 1.386 . S
C676 C678 1.391 . S
C677 C676 1.386 . S
C677 C681 1.393 . S
C678 H670 0.950 . S
C678 C676 1.391 . S
C678 C679 1.400 . S
C679 C678 1.400 . S
C679 C680 1.398 . S
C679 C685 1.491 . S
C680 H671 0.950 . S
C680 C679 1.398 . S
C680 C681 1.391 . S
C681 H669 0.950 . S
C681 C677 1.393 . S
C681 C680 1.391 . S
C682 H672 0.950 . S
C682 C683 1.386 . S
C682 C684 1.391 . S
C683 C682 1.386 . S
C683 C687 1.393 . S
C684 H673 0.950 . S
C684 C682 1.391 . S
C684 C685 1.400 . S
C685 C679 1.491 . S
C685 C684 1.400 . S
C685 C686 1.398 . S
C686 H674 0.950 . S
C686 C685 1.398 . S
C686 C687 1.391 . S
C687 H675 0.950 . S
C687 C683 1.393 . S
C687 C686 1.391 . S
H688 C696 0.950 . S
H689 C701 0.950 . S
H690 C698 0.950 . S
H691 C700 0.950 . S
H692 C702 0.950 . S
H693 C704 0.950 1_655 S
H694 C706 0.950 . S
H695 C707 0.950 . S
C696 H688 0.950 . S
C696 C697 1.386 1_455 S
C696 C698 1.391 . S
C697 C696 1.386 1_655 S
C697 C701 1.393 . S
C698 H690 0.950 . S
C698 C696 1.391 . S
C698 C699 1.400 . S
C699 C698 1.400 . S
C699 C700 1.398 1_455 S
C699 C705 1.491 . S
C700 H691 0.950 . S
C700 C699 1.398 1_655 S
C700 C701 1.391 . S
C701 H689 0.950 . S
C701 C697 1.393 . S
C701 C700 1.391 . S
C702 H692 0.950 . S
C702 C703 1.386 . S
C702 C704 1.391 1_556 S
C703 C702 1.386 . S
C703 C707 1.393 1_556 S
C704 H693 0.950 1_455 S
C704 C702 1.391 1_554 S
C704 C705 1.400 . S
C705 C699 1.491 . S
C705 C704 1.400 . S
C705 C706 1.398 . S
C706 H694 0.950 . S
C706 C705 1.398 . S
C706 C707 1.391 . S
C707 H695 0.950 . S
C707 C703 1.393 1_554 S
C707 C706 1.391 . S
H708 C716 0.950 . S
H709 C721 0.950 . S
H710 C718 0.950 . S
H711 C720 0.950 . S
H712 C722 0.950 . S
H713 C724 0.950 . S
H714 C726 0.949 1_566 S
H715 C727 0.957 . S
C716 H708 0.950 . S
C716 C717 1.386 . S
C716 C718 1.391 . S
C717 C716 1.386 . S
C717 C721 1.393 1_565 S
C718 H710 0.950 . S
C718 C716 1.391 . S
C718 C719 1.400 1_565 S
C719 C718 1.400 1_545 S
C719 C720 1.398 . S
C719 C725 1.491 . S
C720 H711 0.950 . S
C720 C719 1.398 . S
C720 C721 1.391 . S
C721 H709 0.950 . S
C721 C717 1.393 1_545 S
C721 C720 1.391 . S
C722 H712 0.950 . S
C722 C723 1.386 . S
C722 C724 1.391 . S
C723 C722 1.386 . S
C723 C727 1.393 1_554 S
C724 H713 0.950 . S
C724 C722 1.391 . S
C724 C725 1.400 . S
C725 C719 1.491 . S
C725 C724 1.400 . S
C725 C726 1.398 . S
C726 H714 0.949 1_544 S
C726 C725 1.398 . S
C726 C727 1.391 1_554 S
C727 H715 0.957 . S
C727 C723 1.393 1_556 S
C727 C726 1.391 1_556 S
H728 C736 0.950 . S
H729 C741 0.950 . S
H730 C738 0.950 . S
H731 C740 0.950 . S
H732 C742 0.950 . S
H733 C744 0.950 . S
H734 C746 0.950 . S
H735 C747 0.950 . S
C736 H728 0.950 . S
C736 C737 1.386 . S
C736 C738 1.391 . S
C737 C736 1.386 . S
C737 C741 1.393 . S
C738 H730 0.950 . S
C738 C736 1.391 . S
C738 C739 1.400 . S
C739 C738 1.400 . S
C739 C740 1.398 . S
C739 C745 1.491 . S
C740 H731 0.950 . S
C740 C739 1.398 . S
C740 C741 1.391 . S
C741 H729 0.950 . S
C741 C737 1.393 . S
C741 C740 1.391 . S
C742 H732 0.950 . S
C742 C743 1.386 . S
C742 C744 1.391 . S
C743 C742 1.386 . S
C743 C747 1.393 . S
C744 H733 0.950 . S
C744 C742 1.391 . S
C744 C745 1.400 . S
C745 C739 1.491 . S
C745 C744 1.400 . S
C745 C746 1.398 . S
C746 H734 0.950 . S
C746 C745 1.398 . S
C746 C747 1.391 . S
C747 H735 0.950 . S
C747 C743 1.393 . S
C747 C746 1.391 . S
H748 C756 0.950 . S
H749 C761 0.950 . S
H750 C758 0.950 . S
H751 C760 0.950 . S
H752 C762 0.950 . S
H753 C764 0.950 . S
H754 C766 0.950 1_556 S
H755 C767 0.950 . S
C756 H748 0.950 . S
C756 C757 1.386 . S
C756 C758 1.391 . S
C757 C756 1.386 . S
C757 C761 1.393 . S
C758 H750 0.950 . S
C758 C756 1.391 . S
C758 C759 1.400 . S
C759 C758 1.400 . S
C759 C760 1.398 . S
C759 C765 1.491 . S
C760 H751 0.950 . S
C760 C759 1.398 . S
C760 C761 1.391 . S
C761 H749 0.950 . S
C761 C757 1.393 . S
C761 C760 1.391 . S
C762 H752 0.950 . S
C762 C763 1.402 . S
C762 C764 1.391 . S
C763 C762 1.402 . S
C763 C767 1.385 1_554 S
C764 H753 0.950 . S
C764 C762 1.391 . S
C764 C765 1.400 . S
C765 C759 1.491 . S
C765 C764 1.400 . S
C765 C766 1.398 . S
C766 H754 0.950 1_554 S
C766 C765 1.398 . S
C766 C767 1.391 1_554 S
C767 H755 0.950 . S
C767 C763 1.385 1_556 S
C767 C766 1.391 1_556 S
H768 C776 0.950 . S
H769 C781 0.950 . S
H770 C778 0.950 . S
H771 C780 0.950 . S
H772 C782 0.950 . S
H773 C784 0.950 . S
H774 C786 0.950 . S
H775 C787 0.950 . S
C776 H768 0.950 . S
C776 C777 1.386 . S
C776 C778 1.391 . S
C777 C776 1.386 . S
C777 C781 1.393 . S
C778 H770 0.950 . S
C778 C776 1.391 . S
C778 C779 1.400 . S
C779 C778 1.400 . S
C779 C780 1.398 . S
C779 C785 1.491 . S
C780 H771 0.950 . S
C780 C779 1.398 . S
C780 C781 1.391 . S
C781 H769 0.950 . S
C781 C777 1.393 . S
C781 C780 1.391 . S
C782 H772 0.950 . S
C782 C783 1.386 . S
C782 C784 1.391 . S
C783 C782 1.386 . S
C783 C787 1.393 . S
C784 H773 0.950 . S
C784 C782 1.391 . S
C784 C785 1.400 . S
C785 C779 1.491 . S
C785 C784 1.400 . S
C785 C786 1.398 . S
C786 H774 0.950 . S
C786 C785 1.398 . S
C786 C787 1.391 . S
C787 H775 0.950 . S
C787 C783 1.393 . S
C787 C786 1.391 . S
H788 C796 0.950 . S
H789 C801 0.950 . S
H790 C798 0.950 . S
H791 C800 0.950 . S
H792 C802 0.950 . S
H793 C804 0.950 . S
H794 C806 0.948 1_565 S
H795 C807 0.950 1_565 S
C796 H788 0.950 . S
C796 C797 1.382 1_565 S
C796 C798 1.391 . S
C797 C796 1.382 1_545 S
C797 C801 1.397 . S
C798 H790 0.950 . S
C798 C796 1.391 . S
C798 C799 1.400 1_565 S
C799 C798 1.400 1_545 S
C799 C800 1.398 . S
C799 C805 1.491 . S
C800 H791 0.950 . S
C800 C799 1.398 . S
C800 C801 1.391 . S
C801 H789 0.950 . S
C801 C797 1.397 . S
C801 C800 1.391 . S
C802 H792 0.950 . S
C802 C803 1.386 . S
C802 C804 1.391 . S
C803 C802 1.386 . S
C803 C807 1.393 . S
C804 H793 0.950 . S
C804 C802 1.391 . S
C804 C805 1.400 . S
C805 C799 1.491 . S
C805 C804 1.400 . S
C805 C806 1.398 . S
C806 H794 0.948 1_545 S
C806 C805 1.398 . S
C806 C807 1.391 . S
C807 H795 0.950 1_545 S
C807 C803 1.393 . S
C807 C806 1.391 . S
H808 C816 0.950 . S
H809 C821 0.950 . S
H810 C818 0.950 . S
H811 C820 0.950 . S
H812 C822 0.950 . S
H813 C824 0.950 . S
H814 C826 0.950 . S
H815 C827 0.950 . S
C816 H808 0.950 . S
C816 C817 1.386 . S
C816 C818 1.391 . S
C817 C816 1.386 . S
C817 C821 1.393 . S
C818 H810 0.950 . S
C818 C816 1.391 . S
C818 C819 1.400 . S
C819 C818 1.400 . S
C819 C820 1.398 . S
C819 C825 1.491 . S
C820 H811 0.950 . S
C820 C819 1.398 . S
C820 C821 1.391 . S
C821 H809 0.950 . S
C821 C817 1.393 . S
C821 C820 1.391 . S
C822 H812 0.950 . S
C822 C823 1.386 . S
C822 C824 1.391 . S
C823 C822 1.386 . S
C823 C827 1.393 . S
C824 H813 0.950 . S
C824 C822 1.391 . S
C824 C825 1.400 . S
C825 C819 1.491 . S
C825 C824 1.400 . S
C825 C826 1.398 . S
C826 H814 0.950 . S
C826 C825 1.398 . S
C826 C827 1.391 . S
C827 H815 0.950 . S
C827 C823 1.393 . S
C827 C826 1.391 . S
H828 C836 0.950 . S
H829 C841 0.950 . S
H830 C838 0.950 . S
H831 C840 0.950 . S
H832 C842 0.950 . S
H833 C844 0.950 . S
H834 C846 0.950 . S
H835 C847 0.950 . S
C836 H828 0.950 . S
C836 C837 1.386 . S
C836 C838 1.391 . S
C837 C836 1.386 . S
C837 C841 1.393 . S
C838 H830 0.950 . S
C838 C836 1.391 . S
C838 C839 1.400 . S
C839 C838 1.400 . S
C839 C840 1.398 . S
C839 C845 1.491 . S
C840 H831 0.950 . S
C840 C839 1.398 . S
C840 C841 1.391 . S
C841 H829 0.950 . S
C841 C837 1.393 . S
C841 C840 1.391 . S
C842 H832 0.950 . S
C842 C843 1.386 . S
C842 C844 1.391 . S
C843 C842 1.386 . S
C843 C847 1.393 . S
C844 H833 0.950 . S
C844 C842 1.391 . S
C844 C845 1.400 . S
C845 C839 1.491 . S
C845 C844 1.400 . S
C845 C846 1.398 . S
C846 H834 0.950 . S
C846 C845 1.398 . S
C846 C847 1.391 . S
C847 H835 0.950 . S
C847 C843 1.393 . S
C847 C846 1.391 . S
H848 C856 0.950 . S
H849 C861 0.950 . S
H850 C858 0.950 . S
H851 C860 0.950 . S
H852 C862 0.950 . S
H853 C864 0.950 . S
H854 C866 0.950 . S
H855 C867 0.950 . S
C856 H848 0.950 . S
C856 C857 1.386 1_455 S
C856 C858 1.391 . S
C857 C856 1.386 1_655 S
C857 C861 1.393 . S
C858 H850 0.950 . S
C858 C856 1.391 . S
C858 C859 1.400 1_455 S
C859 C858 1.400 1_655 S
C859 C860 1.398 . S
C859 C865 1.491 . S
C860 H851 0.950 . S
C860 C859 1.398 . S
C860 C861 1.391 . S
C861 H849 0.950 . S
C861 C857 1.393 . S
C861 C860 1.391 . S
C862 H852 0.950 . S
C862 C863 1.386 . S
C862 C864 1.391 . S
C863 C862 1.386 . S
C863 C867 1.393 1_655 S
C864 H853 0.950 . S
C864 C862 1.391 . S
C864 C865 1.400 . S
C865 C859 1.491 . S
C865 C864 1.400 . S
C865 C866 1.398 1_655 S
C866 H854 0.950 . S
C866 C865 1.398 1_455 S
C866 C867 1.391 . S
C867 H855 0.950 . S
C867 C863 1.393 1_455 S
C867 C866 1.391 . S
H868 C876 0.950 . S
H869 C881 0.950 . S
H870 C878 0.950 . S
H871 C880 0.950 . S
H872 C882 0.939 1_545 S
H873 C884 0.948 . S
H874 C886 0.950 . S
H875 C887 0.950 . S
C876 H868 0.950 . S
C876 C877 1.386 . S
C876 C878 1.391 . S
C877 C876 1.386 . S
C877 C881 1.392 1_565 S
C878 H870 0.950 . S
C878 C876 1.391 . S
C878 C879 1.400 . S
C879 C878 1.400 . S
C879 C880 1.398 1_565 S
C879 C885 1.491 . S
C880 H871 0.950 . S
C880 C879 1.398 1_545 S
C880 C881 1.391 . S
C881 H869 0.950 . S
C881 C877 1.392 1_545 S
C881 C880 1.391 . S
C882 H872 0.939 1_565 S
C882 C883 1.401 . S
C882 C884 1.389 1_565 S
C883 C882 1.401 . S
C883 C887 1.393 . S
C884 H873 0.948 . S
C884 C882 1.389 1_545 S
C884 C885 1.401 1_545 S
C885 C879 1.491 . S
C885 C884 1.401 1_565 S
C885 C886 1.398 . S
C886 H874 0.950 . S
C886 C885 1.398 . S
C886 C887 1.391 . S
C887 H875 0.950 . S
C887 C883 1.393 . S
C887 C886 1.391 . S
H888 C896 0.950 . S
H889 C901 0.950 . S
H890 C898 0.950 . S
H891 C900 0.950 . S
H892 C902 0.950 . S
H893 C904 0.950 . S
H894 C906 0.950 . S
H895 C907 0.950 . S
C896 H888 0.950 . S
C896 C897 1.386 . S
C896 C898 1.391 . S
C897 C896 1.386 . S
C897 C901 1.393 . S
C898 H890 0.950 . S
C898 C896 1.391 . S
C898 C899 1.400 . S
C899 C898 1.400 . S
C899 C900 1.398 . S
C899 C905 1.491 . S
C900 H891 0.950 . S
C900 C899 1.398 . S
C900 C901 1.391 . S
C901 H889 0.950 . S
C901 C897 1.393 . S
C901 C900 1.391 . S
C902 H892 0.950 . S
C902 C903 1.386 . S
C902 C904 1.391 . S
C903 C902 1.386 . S
C903 C907 1.393 . S
C904 H893 0.950 . S
C904 C902 1.391 . S
C904 C905 1.400 . S
C905 C899 1.491 . S
C905 C904 1.400 . S
C905 C906 1.398 . S
C906 H894 0.950 . S
C906 C905 1.398 . S
C906 C907 1.391 . S
C907 H895 0.950 . S
C907 C903 1.393 . S
C907 C906 1.391 . S
H908 C916 0.950 . S
H909 C921 0.950 . S
H910 C918 0.950 . S
H911 C920 0.950 . S
H912 C922 0.950 . S
H913 C924 0.950 . S
H914 C926 0.950 . S
H915 C927 0.950 . S
C916 H908 0.950 . S
C916 C917 1.386 . S
C916 C918 1.391 . S
C917 C916 1.386 . S
C917 C921 1.393 . S
C918 H910 0.950 . S
C918 C916 1.391 . S
C918 C919 1.400 . S
C919 C918 1.400 . S
C919 C920 1.398 . S
C919 C925 1.491 . S
C920 H911 0.950 . S
C920 C919 1.398 . S
C920 C921 1.391 . S
C921 H909 0.950 . S
C921 C917 1.393 . S
C921 C920 1.391 . S
C922 H912 0.950 . S
C922 C923 1.386 . S
C922 C924 1.391 . S
C923 C922 1.386 . S
C923 C927 1.393 . S
C924 H913 0.950 . S
C924 C922 1.391 . S
C924 C925 1.400 . S
C925 C919 1.491 . S
C925 C924 1.400 . S
C925 C926 1.398 . S
C926 H914 0.950 . S
C926 C925 1.398 . S
C926 C927 1.391 . S
C927 H915 0.950 . S
C927 C923 1.393 . S
C927 C926 1.391 . S
C457 C241 2.103 . S
C463 C311 2.326 1_545 S
C483 C351 1.618 . S
C477 C277 1.560 . S
C503 C370 2.389 . S
C497 C169 2.167 . S
C523 C431 1.781 . S
C517 C205 1.613 . S
C543 C290 2.328 . S
C537 C97 2.105 . S
C557 C133 1.614 . S
C563 C330 1.624 . S
C577 C25 2.163 . S
C583 C391 2.388 . S
C597 C61 1.596 . S
C603 C410 1.778 . S
C623 C292 0.698 . S
C617 C211 0.711 . S
C643 C332 0.350 . S
C637 C247 0.322 . S
C663 C388 0.933 . S
C657 C253 0.895 . S
C677 C175 0.274 . S
C683 C412 0.345 . S
C697 C67 0.748 . S
C703 C313 0.738 . S
C723 C353 0.340 . S
C717 C103 0.360 1_565 S
C743 C399 0.936 . S
C737 C109 0.872 . S
C757 C31 0.420 . S
C763 C433 0.421 1_554 S
C777 C181 2.272 . S
C783 C308 2.515 . S
C797 C217 2.835 . S
C803 C348 3.135 . S
C823 C372 1.947 . S
C817 C283 1.863 . S
C843 C428 3.121 . S
C837 C145 2.816 . S
C857 C37 2.240 . S
C863 C319 2.524 . S
C883 C359 3.136 . S
C877 C73 2.835 1_565 S
C903 C393 1.944 . S
C897 C139 1.850 . S
C917 C1 2.817 . S
C923 C439 3.117 . S
