# Generated by pormake.
# Topology ctn, (3,4)-cn, num edge types: 1
# Building blocks:
#     Node 0, Type 0, BuildingBlock: KAKCAD_clean_linker_0, # of connection points: 3
#     Node 1, Type 0, BuildingBlock: KAKCAD_clean_linker_0, # of connection points: 3
#     Node 2, Type 0, BuildingBlock: KAKCAD_clean_linker_0, # of connection points: 3
#     Node 3, Type 0, BuildingBlock: KAKCAD_clean_linker_0, # of connection points: 3
#     Node 4, Type 0, BuildingBlock: KAKCAD_clean_linker_0, # of connection points: 3
#     Node 5, Type 0, BuildingBlock: KAKCAD_clean_linker_0, # of connection points: 3
#     Node 6, Type 0, BuildingBlock: KAKCAD_clean_linker_0, # of connection points: 3
#     Node 7, Type 0, BuildingBlock: KAKCAD_clean_linker_0, # of connection points: 3
#     Node 8, Type 0, BuildingBlock: KAKCAD_clean_linker_0, # of connection points: 3
#     Node 9, Type 0, BuildingBlock: KAKCAD_clean_linker_0, # of connection points: 3
#     Node 10, Type 0, BuildingBlock: KAKCAD_clean_linker_0, # of connection points: 3
#     Node 11, Type 0, BuildingBlock: KAKCAD_clean_linker_0, # of connection points: 3
#     Node 12, Type 0, BuildingBlock: KAKCAD_clean_linker_0, # of connection points: 3
#     Node 13, Type 0, BuildingBlock: KAKCAD_clean_linker_0, # of connection points: 3
#     Node 14, Type 0, BuildingBlock: KAKCAD_clean_linker_0, # of connection points: 3
#     Node 15, Type 0, BuildingBlock: KAKCAD_clean_linker_0, # of connection points: 3
#     Node 16, Type 1, BuildingBlock: NAHDIM_clean_sbu_0, # of connection points: 4
#     Node 17, Type 1, BuildingBlock: NAHDIM_clean_sbu_0, # of connection points: 4
#     Node 18, Type 1, BuildingBlock: NAHDIM_clean_sbu_0, # of connection points: 4
#     Node 19, Type 1, BuildingBlock: NAHDIM_clean_sbu_0, # of connection points: 4
#     Node 20, Type 1, BuildingBlock: NAHDIM_clean_sbu_0, # of connection points: 4
#     Node 21, Type 1, BuildingBlock: NAHDIM_clean_sbu_0, # of connection points: 4
#     Node 22, Type 1, BuildingBlock: NAHDIM_clean_sbu_0, # of connection points: 4
#     Node 23, Type 1, BuildingBlock: NAHDIM_clean_sbu_0, # of connection points: 4
#     Node 24, Type 1, BuildingBlock: NAHDIM_clean_sbu_0, # of connection points: 4
#     Node 25, Type 1, BuildingBlock: NAHDIM_clean_sbu_0, # of connection points: 4
#     Node 26, Type 1, BuildingBlock: NAHDIM_clean_sbu_0, # of connection points: 4
#     Node 27, Type 1, BuildingBlock: NAHDIM_clean_sbu_0, # of connection points: 4
#     Edge 28, Type (0, 1), BuildingBlock: XUDNAN_clean_linker_2, # of connection points: 2
#     Edge 29, Type (0, 1), BuildingBlock: XUDNAN_clean_linker_2, # of connection points: 2
#     Edge 30, Type (0, 1), BuildingBlock: XUDNAN_clean_linker_2, # of connection points: 2
#     Edge 31, Type (0, 1), BuildingBlock: XUDNAN_clean_linker_2, # of connection points: 2
#     Edge 32, Type (0, 1), BuildingBlock: XUDNAN_clean_linker_2, # of connection points: 2
#     Edge 33, Type (0, 1), BuildingBlock: XUDNAN_clean_linker_2, # of connection points: 2
#     Edge 34, Type (0, 1), BuildingBlock: XUDNAN_clean_linker_2, # of connection points: 2
#     Edge 35, Type (0, 1), BuildingBlock: XUDNAN_clean_linker_2, # of connection points: 2
#     Edge 36, Type (0, 1), BuildingBlock: XUDNAN_clean_linker_2, # of connection points: 2
#     Edge 37, Type (0, 1), BuildingBlock: XUDNAN_clean_linker_2, # of connection points: 2
#     Edge 38, Type (0, 1), BuildingBlock: XUDNAN_clean_linker_2, # of connection points: 2
#     Edge 39, Type (0, 1), BuildingBlock: XUDNAN_clean_linker_2, # of connection points: 2
#     Edge 40, Type (0, 1), BuildingBlock: XUDNAN_clean_linker_2, # of connection points: 2
#     Edge 41, Type (0, 1), BuildingBlock: XUDNAN_clean_linker_2, # of connection points: 2
#     Edge 42, Type (0, 1), BuildingBlock: XUDNAN_clean_linker_2, # of connection points: 2
#     Edge 43, Type (0, 1), BuildingBlock: XUDNAN_clean_linker_2, # of connection points: 2
#     Edge 44, Type (0, 1), BuildingBlock: XUDNAN_clean_linker_2, # of connection points: 2
#     Edge 45, Type (0, 1), BuildingBlock: XUDNAN_clean_linker_2, # of connection points: 2
#     Edge 46, Type (0, 1), BuildingBlock: XUDNAN_clean_linker_2, # of connection points: 2
#     Edge 47, Type (0, 1), BuildingBlock: XUDNAN_clean_linker_2, # of connection points: 2
#     Edge 48, Type (0, 1), BuildingBlock: XUDNAN_clean_linker_2, # of connection points: 2
#     Edge 49, Type (0, 1), BuildingBlock: XUDNAN_clean_linker_2, # of connection points: 2
#     Edge 50, Type (0, 1), BuildingBlock: XUDNAN_clean_linker_2, # of connection points: 2
#     Edge 51, Type (0, 1), BuildingBlock: XUDNAN_clean_linker_2, # of connection points: 2
#     Edge 52, Type (0, 1), BuildingBlock: XUDNAN_clean_linker_2, # of connection points: 2
#     Edge 53, Type (0, 1), BuildingBlock: XUDNAN_clean_linker_2, # of connection points: 2
#     Edge 54, Type (0, 1), BuildingBlock: XUDNAN_clean_linker_2, # of connection points: 2
#     Edge 55, Type (0, 1), BuildingBlock: XUDNAN_clean_linker_2, # of connection points: 2
#     Edge 56, Type (0, 1), BuildingBlock: XUDNAN_clean_linker_2, # of connection points: 2
#     Edge 57, Type (0, 1), BuildingBlock: XUDNAN_clean_linker_2, # of connection points: 2
#     Edge 58, Type (0, 1), BuildingBlock: XUDNAN_clean_linker_2, # of connection points: 2
#     Edge 59, Type (0, 1), BuildingBlock: XUDNAN_clean_linker_2, # of connection points: 2
#     Edge 60, Type (0, 1), BuildingBlock: XUDNAN_clean_linker_2, # of connection points: 2
#     Edge 61, Type (0, 1), BuildingBlock: XUDNAN_clean_linker_2, # of connection points: 2
#     Edge 62, Type (0, 1), BuildingBlock: XUDNAN_clean_linker_2, # of connection points: 2
#     Edge 63, Type (0, 1), BuildingBlock: XUDNAN_clean_linker_2, # of connection points: 2
#     Edge 64, Type (0, 1), BuildingBlock: XUDNAN_clean_linker_2, # of connection points: 2
#     Edge 65, Type (0, 1), BuildingBlock: XUDNAN_clean_linker_2, # of connection points: 2
#     Edge 66, Type (0, 1), BuildingBlock: XUDNAN_clean_linker_2, # of connection points: 2
#     Edge 67, Type (0, 1), BuildingBlock: XUDNAN_clean_linker_2, # of connection points: 2
#     Edge 68, Type (0, 1), BuildingBlock: XUDNAN_clean_linker_2, # of connection points: 2
#     Edge 69, Type (0, 1), BuildingBlock: XUDNAN_clean_linker_2, # of connection points: 2
#     Edge 70, Type (0, 1), BuildingBlock: XUDNAN_clean_linker_2, # of connection points: 2
#     Edge 71, Type (0, 1), BuildingBlock: XUDNAN_clean_linker_2, # of connection points: 2
#     Edge 72, Type (0, 1), BuildingBlock: XUDNAN_clean_linker_2, # of connection points: 2
#     Edge 73, Type (0, 1), BuildingBlock: XUDNAN_clean_linker_2, # of connection points: 2
#     Edge 74, Type (0, 1), BuildingBlock: XUDNAN_clean_linker_2, # of connection points: 2
#     Edge 75, Type (0, 1), BuildingBlock: XUDNAN_clean_linker_2, # of connection points: 2
# Relax obj value: 0.002
# Max RMSD: 0.033
# Mean RMSD: 0.016
data_MOF--net-ctn--node1-NAHDIM_clean_sbu_0--node2-KAKCAD_clean_linker_0--edge1-XUDNAN_clean_linker_2
_symmetry_space_group_name_H-M    P1
_symmetry_Int_Tables_number       1
_symmetry_cell_setting            triclinic
loop_
_symmetry_equiv_pos_as_xyz
'x, y, z'
_cell_length_a     67.560711
_cell_length_b     67.836053
_cell_length_c     67.129839
_cell_angle_alpha  91.20554
_cell_angle_beta   90.365152
_cell_angle_gamma 92.280388
loop_
_atom_site_label
_atom_site_type_symbol
_atom_site_fract_x
_atom_site_fract_y
_atom_site_fract_z
_atom_type_partial_charge
C0 C 0.02831 0.10543 0.99573 0.0
C1 C 0.02089 0.12208 0.00554 0.0
C2 C 0.03332 0.08886 0.00652 0.0
C3 C 0.03102 0.08863 0.02733 0.0
C4 C 0.02432 0.10559 0.03715 0.0
C5 C 0.01931 0.12207 0.02641 0.0
C6 C 0.03495 0.07067 0.03884 0.0
C7 C 0.05176 0.05962 0.03501 0.0
C8 C 0.05577 0.04312 0.04651 0.0
C9 C 0.04252 0.03751 0.06161 0.0
C10 C 0.02563 0.04828 0.0656 0.0
C11 C 0.02195 0.0648 0.05411 0.0
C12 C 0.01234 0.04262 0.08228 0.0
C13 C 0.00725 0.02267 0.08557 0.0
C14 C 0.00543 0.05703 0.09559 0.0
C15 C 0.99423 0.05156 0.11219 0.0
C16 C 0.98971 0.03155 0.11583 0.0
C17 C 0.07415 0.03211 0.04351 0.0
C18 C 0.0806 0.02689 0.0243 0.0
C19 C 0.08521 0.02638 0.06007 0.0
C20 C 0.1021 0.01546 0.05756 0.0
C21 C 0.10849 0.01003 0.03841 0.0
C22 C 0.09757 0.01589 0.02178 0.0
C23 C 0.99607 0.0172 0.10214 0.0
H24 H 0.0296 0.10495 0.97965 0.0
H25 H 0.03837 0.076 0.99851 0.0
H26 H 0.02284 0.10609 0.05321 0.0
H27 H 0.01406 0.13483 0.03446 0.0
H28 H 0.06213 0.06432 0.02364 0.0
H29 H 0.00875 0.07296 0.05691 0.0
H30 H 0.04556 0.02485 0.07056 0.0
H31 H 0.01204 0.01124 0.07539 0.0
H32 H 0.00927 0.07251 0.09359 0.0
H33 H 0.98974 0.06296 0.12255 0.0
H34 H 0.07234 0.03101 0.01125 0.0
H35 H 0.08081 0.03038 0.07506 0.0
H36 H 0.9925 0.00169 0.10429 0.0
H37 H 0.1022 0.01207 0.00681 0.0
H38 H 0.11 0.01101 0.07071 0.0
C39 C 0.34878 0.73844 0.25968 0.0
C40 C 0.36163 0.72286 0.26234 0.0
C41 C 0.33272 0.73633 0.24642 0.0
C42 C 0.32906 0.71853 0.23571 0.0
C43 C 0.34209 0.70312 0.23804 0.0
C44 C 0.35824 0.70529 0.25109 0.0
C45 C 0.31143 0.71574 0.22252 0.0
C46 C 0.3069 0.72995 0.20852 0.0
C47 C 0.29016 0.72739 0.19596 0.0
C48 C 0.27824 0.70991 0.1974 0.0
C49 C 0.28274 0.6953 0.21116 0.0
C50 C 0.2992 0.69865 0.22388 0.0
C51 C 0.27058 0.67641 0.21215 0.0
C52 C 0.25008 0.67569 0.20808 0.0
C53 C 0.2795 0.65878 0.21723 0.0
C54 C 0.26829 0.64114 0.21863 0.0
C55 C 0.24785 0.64031 0.21434 0.0
C56 C 0.28525 0.74292 0.18139 0.0
C57 C 0.28992 0.76297 0.1857 0.0
C58 C 0.27589 0.73795 0.16305 0.0
C59 C 0.27111 0.75258 0.14964 0.0
C60 C 0.27605 0.77261 0.15385 0.0
C61 C 0.2857 0.77751 0.17204 0.0
C62 C 0.23894 0.65787 0.20893 0.0
H63 H 0.35077 0.75209 0.26823 0.0
H64 H 0.32281 0.7484 0.24498 0.0
H65 H 0.3398 0.68935 0.22971 0.0
H66 H 0.36807 0.69315 0.25233 0.0
H67 H 0.31681 0.74279 0.20717 0.0
H68 H 0.30247 0.68808 0.2352 0.0
H69 H 0.26546 0.70763 0.18774 0.0
H70 H 0.2425 0.6889 0.20441 0.0
H71 H 0.29527 0.65844 0.22005 0.0
H72 H 0.27579 0.62821 0.22331 0.0
H73 H 0.29675 0.76762 0.19974 0.0
H74 H 0.27234 0.72274 0.15884 0.0
H75 H 0.22334 0.65794 0.20519 0.0
H76 H 0.29024 0.7926 0.17583 0.0
H77 H 0.26337 0.74804 0.13605 0.0
C78 C 0.99921 0.47762 0.10679 0.0
C79 C 0.01919 0.47351 0.10354 0.0
C80 C 0.98568 0.47729 0.09091 0.0
C81 C 0.9918 0.4728 0.07141 0.0
C82 C 0.01181 0.4689 0.06813 0.0
C83 C 0.02534 0.46929 0.08398 0.0
C84 C 0.97733 0.47182 0.05459 0.0
C85 C 0.9629 0.4861 0.05293 0.0
C86 C 0.94906 0.48511 0.03718 0.0
C87 C 0.94971 0.46956 0.02308 0.0
C88 C 0.96384 0.45501 0.0246 0.0
C89 C 0.97769 0.45635 0.04032 0.0
C90 C 0.96369 0.43814 0.01007 0.0
C91 C 0.94567 0.4288 0.00392 0.0
C92 C 0.98145 0.43131 0.00216 0.0
C93 C 0.98114 0.4157 0.98817 0.0
C94 C 0.96307 0.40659 0.98179 0.0
C95 C 0.93342 0.49982 0.03575 0.0
C96 C 0.92255 0.50517 0.05266 0.0
C97 C 0.92852 0.50782 0.01728 0.0
C98 C 0.91275 0.52044 0.01565 0.0
C99 C 0.90143 0.52521 0.03244 0.0
C100 C 0.9067 0.51768 0.05101 0.0
C101 C 0.94536 0.41323 0.98997 0.0
H102 H 0.9939 0.48067 0.12168 0.0
H103 H 0.97032 0.4801 0.09398 0.0
H104 H 0.01706 0.4657 0.05324 0.0
H105 H 0.04068 0.46642 0.08087 0.0
H106 H 0.96263 0.4982 0.06372 0.0
H107 H 0.98833 0.44493 0.04186 0.0
H108 H 0.93897 0.46864 0.011 0.0
H109 H 0.93175 0.43341 0.01004 0.0
H110 H 0.99557 0.4383 0.00647 0.0
H111 H 0.99503 0.41106 0.98202 0.0
H112 H 0.92589 0.49917 0.06707 0.0
H113 H 0.93676 0.50412 0.00401 0.0
H114 H 0.93121 0.40628 0.98571 0.0
H115 H 0.89838 0.52127 0.06426 0.0
H116 H 0.90899 0.52591 0.00112 0.0
C117 C 0.70437 0.75113 0.15496 0.0
C118 C 0.72359 0.74716 0.14855 0.0
C119 C 0.70141 0.7651 0.17011 0.0
C120 C 0.71761 0.77538 0.17931 0.0
C121 C 0.73684 0.77164 0.17265 0.0
C122 C 0.73979 0.75772 0.1574 0.0
C123 C 0.71441 0.78963 0.19603 0.0
C124 C 0.70012 0.7853 0.21059 0.0
C125 C 0.69679 0.79861 0.22641 0.0
C126 C 0.70816 0.8164 0.22769 0.0
C127 C 0.72263 0.82099 0.21336 0.0
C128 C 0.72561 0.80753 0.19755 0.0
C129 C 0.73462 0.83985 0.21496 0.0
C130 C 0.72577 0.85748 0.22072 0.0
C131 C 0.75505 0.84033 0.21101 0.0
C132 C 0.76638 0.85798 0.21294 0.0
C133 C 0.75755 0.87558 0.21887 0.0
C134 C 0.68146 0.79388 0.2416 0.0
C135 C 0.66309 0.78495 0.23588 0.0
C136 C 0.68505 0.79822 0.26191 0.0
C137 C 0.67063 0.79373 0.27614 0.0
C138 C 0.65229 0.78474 0.27043 0.0
C139 C 0.64871 0.78041 0.25012 0.0
C140 C 0.7371 0.8751 0.22269 0.0
H141 H 0.69157 0.7435 0.14817 0.0
H142 H 0.68639 0.7679 0.17457 0.0
H143 H 0.74966 0.77913 0.17956 0.0
H144 H 0.75479 0.75484 0.1529 0.0
H145 H 0.69187 0.77127 0.20989 0.0
H146 H 0.73633 0.8112 0.18615 0.0
H147 H 0.70574 0.82671 0.23989 0.0
H148 H 0.71003 0.85769 0.22364 0.0
H149 H 0.76237 0.82699 0.20672 0.0
H150 H 0.78205 0.85786 0.20966 0.0
H151 H 0.65974 0.78161 0.22035 0.0
H152 H 0.6991 0.8049 0.26687 0.0
H153 H 0.72984 0.88831 0.2275 0.0
H154 H 0.63485 0.77328 0.2452 0.0
H155 H 0.67381 0.7975 0.29162 0.0
C156 C 0.96999 0.97135 0.42349 0.0
C157 C 0.97384 0.97545 0.40337 0.0
C158 C 0.9855 0.96879 0.43692 0.0
C159 C 0.00528 0.97055 0.4307 0.0
C160 C 0.00925 0.97516 0.41079 0.0
C161 C 0.99371 0.97746 0.39723 0.0
C162 C 0.02162 0.96727 0.44499 0.0
C163 C 0.02083 0.95058 0.45708 0.0
C164 C 0.03593 0.94742 0.47099 0.0
C165 C 0.05175 0.9614 0.473 0.0
C166 C 0.05269 0.9783 0.46122 0.0
C167 C 0.03774 0.98095 0.44697 0.0
C168 C 0.06884 0.99353 0.46457 0.0
C169 C 0.07376 1.00008 0.48404 0.0
C170 C 0.07941 0.00163 0.44851 0.0
C171 C 0.09475 0.01585 0.45193 0.0
C172 C 0.09956 0.02244 0.47143 0.0
C173 C 0.03513 0.92966 0.48361 0.0
C174 C 0.01745 0.92359 0.49302 0.0
C175 C 0.05215 0.91881 0.48656 0.0
C176 C 0.05157 0.90236 0.49877 0.0
C177 C 0.03399 0.89643 0.50848 0.0
C178 C 0.0169 0.90721 0.50536 0.0
C179 C 0.08887 0.01441 0.48742 0.0
H180 H 0.95496 0.9702 0.42896 0.0
H181 H 0.98203 0.96557 0.45228 0.0
H182 H 0.02438 0.97649 0.40558 0.0
H183 H 0.9973 0.98035 0.38185 0.0
H184 H 0.0086 0.93982 0.45536 0.0
H185 H 0.03819 0.99408 0.43803 0.0
H186 H 0.06328 0.95926 0.48396 0.0
H187 H 0.06575 0.99424 0.49669 0.0
H188 H 0.07598 0.99679 0.43336 0.0
H189 H 0.10268 0.02186 0.43932 0.0
H190 H 0.00415 0.93179 0.49121 0.0
H191 H 0.06591 0.92294 0.47926 0.0
H192 H 0.09236 0.01906 0.50262 0.0
H193 H 0.00318 0.90328 0.5128 0.0
H194 H 0.06491 0.89421 0.50047 0.0
C195 C 0.13824 0.71391 0.75506 0.0
C196 C 0.13418 0.73363 0.75105 0.0
C197 C 0.15485 0.70949 0.76657 0.0
C198 C 0.16762 0.72474 0.77422 0.0
C199 C 0.16392 0.74433 0.76944 0.0
C200 C 0.14744 0.74871 0.75804 0.0
C201 C 0.1846 0.72073 0.78754 0.0
C202 C 0.19778 0.70584 0.78295 0.0
C203 C 0.21506 0.70386 0.79446 0.0
C204 C 0.21908 0.7171 0.81058 0.0
C205 C 0.20583 0.73188 0.81565 0.0
C206 C 0.18834 0.73301 0.80434 0.0
C207 C 0.21049 0.74678 0.83197 0.0
C208 C 0.22178 0.74214 0.84882 0.0
C209 C 0.20372 0.76607 0.83066 0.0
C210 C 0.20761 0.78006 0.84582 0.0
C211 C 0.21918 0.77562 0.86252 0.0
C212 C 0.22938 0.68855 0.78912 0.0
C213 C 0.22276 0.66912 0.78425 0.0
C214 C 0.24982 0.6933 0.78883 0.0
C215 C 0.26332 0.67898 0.78378 0.0
C216 C 0.25674 0.65954 0.77893 0.0
C217 C 0.23631 0.65474 0.7793 0.0
C218 C 0.22626 0.75641 0.86376 0.0
H219 H 0.12827 0.70198 0.74985 0.0
H220 H 0.15736 0.69426 0.76998 0.0
H221 H 0.17378 0.75637 0.77461 0.0
H222 H 0.14505 0.764 0.75475 0.0
H223 H 0.19508 0.6964 0.76991 0.0
H224 H 0.17752 0.74371 0.80839 0.0
H225 H 0.23271 0.71599 0.81897 0.0
H226 H 0.22712 0.72745 0.85063 0.0
H227 H 0.19548 0.77064 0.8178 0.0
H228 H 0.20132 0.79437 0.84433 0.0
H229 H 0.20712 0.66499 0.78446 0.0
H230 H 0.25539 0.70818 0.79229 0.0
H231 H 0.23545 0.75233 0.87615 0.0
H232 H 0.23076 0.63993 0.77549 0.0
H233 H 0.27898 0.68312 0.78383 0.0
C234 C 0.97573 0.60101 0.50035 0.0
C235 C 0.97455 0.59592 0.52054 0.0
C236 C 0.97483 0.58637 0.48533 0.0
C237 C 0.97256 0.56636 0.49016 0.0
C238 C 0.97182 0.56123 0.5103 0.0
C239 C 0.97291 0.57582 0.5253 0.0
C240 C 0.97027 0.55086 0.47427 0.0
C241 C 0.98302 0.55078 0.45785 0.0
C242 C 0.98068 0.53634 0.44255 0.0
C243 C 0.96536 0.52174 0.44409 0.0
C244 C 0.95249 0.52151 0.46051 0.0
C245 C 0.95506 0.53623 0.47545 0.0
C246 C 0.93622 0.50607 0.46205 0.0
C247 C 0.92572 0.49903 0.44499 0.0
C248 C 0.93093 0.49834 0.48068 0.0
C249 C 0.91548 0.48415 0.48222 0.0
C250 C 0.90513 0.4771 0.46516 0.0
C251 C 0.99398 0.53672 0.42485 0.0
C252 C 1.00084 0.55479 0.417 0.0
C253 C 0.99975 0.51912 0.41547 0.0
C254 C 0.0117 0.5196 0.39852 0.0
C255 C 0.01846 0.53768 0.39062 0.0
C256 C 0.01304 0.55526 0.40029 0.0
C257 C 0.91045 0.48461 0.44652 0.0
H258 H 0.97677 0.61632 0.4961 0.0
H259 H 0.97528 0.59075 0.4699 0.0
H260 H 0.97039 0.5459 0.51446 0.0
H261 H 0.97244 0.57129 0.54067 0.0
H262 H 0.99503 0.56182 0.45726 0.0
H263 H 0.94486 0.5367 0.48783 0.0
H264 H 0.96338 0.51057 0.43243 0.0
H265 H 0.92905 0.50486 0.43045 0.0
H266 H 0.93889 0.50308 0.4941 0.0
H267 H 0.91184 0.47842 0.49675 0.0
H268 H 0.99656 0.56869 0.42356 0.0
H269 H 0.9951 0.5049 0.42122 0.0
H270 H 0.90257 0.47956 0.43314 0.0
H271 H 0.01823 0.5695 0.39499 0.0
H272 H 0.01534 0.50573 0.39144 0.0
C273 C 0.80046 0.74893 0.84477 0.0
C274 C 0.78162 0.74673 0.85333 0.0
C275 C 0.8033 0.76039 0.82786 0.0
C276 C 0.78728 0.76966 0.81892 0.0
C277 C 0.76833 0.7669 0.82726 0.0
C278 C 0.76558 0.75572 0.84435 0.0
C279 C 0.79038 0.78253 0.80133 0.0
C280 C 0.80459 0.7781 0.78681 0.0
C281 C 0.80791 0.79049 0.77056 0.0
C282 C 0.79674 0.80737 0.76871 0.0
C283 C 0.78257 0.81215 0.78304 0.0
C284 C 0.77947 0.79967 0.79926 0.0
C285 C 0.77168 0.83069 0.78152 0.0
C286 C 0.78186 0.84842 0.77677 0.0
C287 C 0.75119 0.8309 0.78505 0.0
C288 C 0.74114 0.84851 0.78397 0.0
C289 C 0.75143 0.86629 0.77955 0.0
C290 C 0.82359 0.78634 0.75584 0.0
C291 C 0.84274 0.78207 0.76227 0.0
C292 C 0.81978 0.78758 0.73533 0.0
C293 C 0.83489 0.78491 0.72152 0.0
C294 C 0.85424 0.78117 0.72792 0.0
C295 C 0.85792 0.77962 0.74848 0.0
C296 C 0.77187 0.86601 0.77584 0.0
H297 H 0.8131 0.74228 0.85153 0.0
H298 H 0.81817 0.76239 0.82214 0.0
H299 H 0.75554 0.77336 0.8206 0.0
H300 H 0.75085 0.75405 0.85054 0.0
H301 H 0.81295 0.76487 0.78794 0.0
H302 H 0.76906 0.80378 0.81068 0.0
H303 H 0.79934 0.81701 0.75625 0.0
H304 H 0.79768 0.84879 0.77415 0.0
H305 H 0.74293 0.81742 0.7886 0.0
H306 H 0.72541 0.84829 0.78703 0.0
H307 H 0.84614 0.78128 0.77802 0.0
H308 H 0.80508 0.79063 0.72996 0.0
H309 H 0.78017 0.87943 0.77221 0.0
H310 H 0.87266 0.77707 0.75402 0.0
H311 H 0.83137 0.78579 0.70581 0.0
C312 C 0.30673 0.24285 0.35002 0.0
C313 C 0.28856 0.2363 0.3582 0.0
C314 C 0.30729 0.25609 0.33434 0.0
C315 C 0.28969 0.2629 0.32609 0.0
C316 C 0.27151 0.25606 0.33402 0.0
C317 C 0.27095 0.2431 0.34994 0.0
C318 C 0.29032 0.27714 0.3094 0.0
C319 C 0.30507 0.27623 0.29477 0.0
C320 C 0.30603 0.28978 0.27923 0.0
C321 C 0.29167 0.30418 0.27806 0.0
C322 C 0.27666 0.30526 0.29243 0.0
C323 C 0.27628 0.29183 0.30812 0.0
C324 C 0.2614 0.32046 0.29134 0.0
C325 C 0.26661 0.34014 0.28684 0.0
C326 C 0.24147 0.31542 0.29543 0.0
C327 C 0.2272 0.32976 0.29555 0.0
C328 C 0.23246 0.34955 0.2916 0.0
C329 C 0.32217 0.2888 0.26433 0.0
C330 C 0.34181 0.28633 0.27056 0.0
C331 C 0.3181 0.28999 0.24386 0.0
C332 C 0.3333 0.28849 0.22991 0.0
C333 C 0.35297 0.28595 0.23612 0.0
C334 C 0.35702 0.28498 0.25665 0.0
C335 C 0.2523 0.35453 0.28697 0.0
H336 H 0.32062 0.23774 0.35566 0.0
H337 H 0.32162 0.26117 0.3289 0.0
H338 H 0.2576 0.26066 0.3279 0.0
H339 H 0.25666 0.23867 0.35594 0.0
H340 H 0.31569 0.26469 0.29518 0.0
H341 H 0.26526 0.29319 0.31966 0.0
H342 H 0.29222 0.31456 0.26601 0.0
H343 H 0.28186 0.34454 0.28379 0.0
H344 H 0.23688 0.30033 0.29857 0.0
H345 H 0.21199 0.32532 0.29873 0.0
H346 H 0.34545 0.28564 0.28627 0.0
H347 H 0.30308 0.29165 0.2386 0.0
H348 H 0.25689 0.36966 0.28402 0.0
H349 H 0.37201 0.28344 0.26204 0.0
H350 H 0.32955 0.289 0.21423 0.0
C351 C 0.49639 0.97581 0.61225 0.0
C352 C 0.51589 0.98164 0.60727 0.0
C353 C 0.48252 0.9706 0.59726 0.0
C354 C 0.48807 0.97074 0.57711 0.0
C355 C 0.50774 0.97599 0.57224 0.0
C356 C 0.52147 0.98155 0.58716 0.0
C357 C 0.47334 0.96615 0.56105 0.0
C358 C 0.45545 0.97601 0.56048 0.0
C359 C 0.44226 0.97307 0.54431 0.0
C360 C 0.44678 0.95958 0.529 0.0
C361 C 0.46444 0.94932 0.52954 0.0
C362 C 0.4777 0.95283 0.54555 0.0
C363 C 0.46932 0.93535 0.51314 0.0
C364 C 0.45501 0.92144 0.50568 0.0
C365 C 0.48836 0.93587 0.5048 0.0
C366 C 0.49297 0.92282 0.4893 0.0
C367 C 0.4787 0.90887 0.48187 0.0
C368 C 0.42439 0.985 0.54285 0.0
C369 C 0.41162 0.98695 0.55912 0.0
C370 C 0.42038 0.99508 0.5253 0.0
C371 C 0.40417 0.00719 0.52418 0.0
C372 C 0.39138 0.00933 0.5405 0.0
C373 C 0.39522 0.99883 0.55791 0.0
C374 C 0.45969 0.90825 0.49028 0.0
H375 H 0.49174 0.97589 0.62766 0.0
H376 H 0.46745 0.96654 0.60138 0.0
H377 H 0.51236 0.97636 0.55682 0.0
H378 H 0.53644 0.98596 0.58298 0.0
H379 H 0.45229 0.98674 0.57211 0.0
H380 H 0.4914 0.94505 0.54607 0.0
H381 H 0.43669 0.95731 0.51646 0.0
H382 H 0.44026 0.92062 0.51191 0.0
H383 H 0.49964 0.94653 0.51012 0.0
H384 H 0.5078 0.92353 0.48324 0.0
H385 H 0.41429 0.97919 0.57276 0.0
H386 H 0.43015 0.99405 0.51262 0.0
H387 H 0.44836 0.89775 0.48476 0.0
H388 H 0.38553 0.99973 0.57066 0.0
H389 H 0.402 0.01528 0.51066 0.0
C390 C 0.20843 0.25303 0.65572 0.0
C391 C 0.22773 0.24689 0.652 0.0
C392 C 0.2047 0.26557 0.67201 0.0
C393 C 0.22019 0.27216 0.68488 0.0
C394 C 0.23928 0.26529 0.68161 0.0
C395 C 0.243 0.25284 0.66538 0.0
C396 C 0.21687 0.28693 0.70108 0.0
C397 C 0.2002 0.28535 0.71347 0.0
C398 C 0.19749 0.29923 0.72903 0.0
C399 C 0.21145 0.31506 0.73174 0.0
C400 C 0.2282 0.31668 0.71959 0.0
C401 C 0.23076 0.30265 0.70431 0.0
C402 C 0.24355 0.33259 0.72312 0.0
C403 C 0.23866 0.35252 0.72362 0.0
C404 C 0.26344 0.32779 0.72528 0.0
C405 C 0.27826 0.34262 0.72738 0.0
C406 C 0.27361 0.36265 0.727 0.0
C407 C 0.18065 0.29674 0.74307 0.0
C408 C 0.16158 0.29077 0.7362 0.0
C409 C 0.18367 0.30018 0.76361 0.0
C410 C 0.16799 0.29797 0.77693 0.0
C411 C 0.14888 0.29224 0.77008 0.0
C412 C 0.14586 0.28853 0.74957 0.0
C413 C 0.25356 0.36743 0.72541 0.0
H414 H 0.19637 0.24874 0.64563 0.0
H415 H 0.18985 0.27067 0.67409 0.0
H416 H 0.25145 0.26971 0.69152 0.0
H417 H 0.25793 0.24799 0.6632 0.0
H418 H 0.18978 0.2729 0.71147 0.0
H419 H 0.24356 0.30418 0.69472 0.0
H420 H 0.20952 0.32594 0.74355 0.0
H421 H 0.22339 0.35655 0.72192 0.0
H422 H 0.26754 0.31251 0.72527 0.0
H423 H 0.29341 0.33831 0.72917 0.0
H424 H 0.15873 0.28815 0.72045 0.0
H425 H 0.19824 0.30433 0.76948 0.0
H426 H 0.24941 0.38266 0.7249 0.0
H427 H 0.13127 0.28425 0.74381 0.0
H428 H 0.17092 0.30054 0.79267 0.0
C429 C 0.84913 0.23621 0.76272 0.0
C430 C 0.85927 0.21911 0.76713 0.0
C431 C 0.83258 0.23517 0.75006 0.0
C432 C 0.82583 0.21701 0.74148 0.0
C433 C 0.83607 0.19995 0.74581 0.0
C434 C 0.85256 0.20099 0.7585 0.0
C435 C 0.80828 0.21584 0.72792 0.0
C436 C 0.80557 0.23044 0.71373 0.0
C437 C 0.78929 0.22922 0.70057 0.0
C438 C 0.77579 0.21296 0.70154 0.0
C439 C 0.77811 0.19821 0.71573 0.0
C440 C 0.79434 0.19996 0.72897 0.0
C441 C 0.76377 0.18089 0.71649 0.0
C442 C 0.74357 0.18289 0.71191 0.0
C443 C 0.77022 0.16207 0.72135 0.0
C444 C 0.75693 0.14573 0.72139 0.0
C445 C 0.737 0.14776 0.71618 0.0
C446 C 0.78634 0.24498 0.68586 0.0
C447 C 0.78954 0.26497 0.69141 0.0
C448 C 0.78 0.24022 0.66629 0.0
C449 C 0.77674 0.25509 0.65267 0.0
C450 C 0.77977 0.27508 0.65828 0.0
C451 C 0.78631 0.27983 0.67779 0.0
C452 C 0.7304 0.16646 0.71153 0.0
H453 H 0.85377 0.25035 0.76934 0.0
H454 H 0.8249 0.24855 0.74725 0.0
H455 H 0.8315 0.18579 0.73917 0.0
H456 H 0.86023 0.1876 0.76136 0.0
H457 H 0.81644 0.24253 0.71256 0.0
H458 H 0.79599 0.1891 0.7404 0.0
H459 H 0.76344 0.21183 0.69117 0.0
H460 H 0.73785 0.19715 0.70859 0.0
H461 H 0.78566 0.15977 0.72461 0.0
H462 H 0.76236 0.13137 0.72484 0.0
H463 H 0.79424 0.26916 0.70641 0.0
H464 H 0.77763 0.22498 0.66144 0.0
H465 H 0.71502 0.16837 0.70761 0.0
H466 H 0.78903 0.29505 0.68254 0.0
H467 H 0.77152 0.25089 0.63784 0.0
C468 C 0.52712 0.59423 0.48587 0.0
C469 C 0.52418 0.61351 0.49298 0.0
C470 C 0.5342 0.58004 0.4986 0.0
C471 C 0.53809 0.58478 0.51874 0.0
C472 C 0.53534 0.60411 0.52582 0.0
C473 C 0.52864 0.61843 0.51297 0.0
C474 C 0.54417 0.56929 0.53246 0.0
C475 C 0.56013 0.55751 0.52772 0.0
C476 C 0.56534 0.54204 0.54011 0.0
C477 C 0.55417 0.5384 0.55738 0.0
C478 C 0.53805 0.55007 0.56228 0.0
C479 C 0.53334 0.56562 0.54982 0.0
C480 C 0.52531 0.54542 0.57969 0.0
C481 C 0.51914 0.52582 0.58344 0.0
C482 C 0.51817 0.56064 0.59189 0.0
C483 C 0.50467 0.55642 0.60707 0.0
C484 C 0.49796 0.53688 0.61036 0.0
C485 C 0.58235 0.52968 0.53482 0.0
C486 C 0.58561 0.52405 0.51486 0.0
C487 C 0.59576 0.52389 0.5495 0.0
C488 C 0.61231 0.51318 0.54426 0.0
C489 C 0.61584 0.50811 0.52422 0.0
C490 C 0.60217 0.51345 0.50963 0.0
C491 C 0.50561 0.52161 0.59859 0.0
H492 H 0.52383 0.59014 0.47048 0.0
H493 H 0.53609 0.5652 0.49284 0.0
H494 H 0.53829 0.60809 0.5413 0.0
H495 H 0.52639 0.63319 0.51878 0.0
H496 H 0.56865 0.56062 0.51444 0.0
H497 H 0.52061 0.57435 0.55309 0.0
H498 H 0.55784 0.52633 0.56687 0.0
H499 H 0.52422 0.51377 0.57422 0.0
H500 H 0.5228 0.57587 0.5895 0.0
H501 H 0.49899 0.56854 0.61577 0.0
H502 H 0.57535 0.52785 0.50323 0.0
H503 H 0.5938 0.52813 0.56499 0.0
H504 H 0.50094 0.50638 0.60093 0.0
H505 H 0.60427 0.50943 0.49411 0.0
H506 H 0.62267 0.5094 0.55582 0.0
C507 C 0.48468 0.47988 0.90944 0.0
C508 C 0.49248 0.48657 0.8913 0.0
C509 C 0.49731 0.47521 0.92512 0.0
C510 C 0.51799 0.47711 0.92298 0.0
C511 C 0.52574 0.48304 0.90457 0.0
C512 C 0.51315 0.48772 0.88894 0.0
C513 C 0.53148 0.47411 0.94016 0.0
C514 C 0.52811 0.45842 0.95326 0.0
C515 C 0.5407 0.45605 0.96974 0.0
C516 C 0.55656 0.46974 0.97324 0.0
C517 C 0.55999 0.48558 0.96045 0.0
C518 C 0.54753 0.48755 0.94388 0.0
C519 C 0.57583 0.50079 0.96497 0.0
C520 C 0.5773 0.50967 0.98404 0.0
C521 C 0.58893 0.50722 0.95005 0.0
C522 C 0.60305 0.52245 0.95406 0.0
C523 C 0.60408 0.53173 0.97297 0.0
C524 C 0.5371 0.43965 0.98372 0.0
C525 C 0.51813 0.43583 0.99152 0.0
C526 C 0.55283 0.42828 0.99002 0.0
C527 C 0.54972 0.41359 0.00409 0.0
C528 C 0.53087 0.41015 0.01234 0.0
C529 C 0.51507 0.4213 0.00579 0.0
C530 C 0.59119 0.52508 0.98796 0.0
H531 H 0.46882 0.47896 0.91177 0.0
H532 H 0.49087 0.47085 0.93917 0.0
H533 H 0.54159 0.48427 0.9023 0.0
H534 H 0.51963 0.4924 0.87501 0.0
H535 H 0.51589 0.44786 0.95046 0.0
H536 H 0.54986 0.50012 0.93434 0.0
H537 H 0.56609 0.46825 0.98614 0.0
H538 H 0.56728 0.50509 0.99576 0.0
H539 H 0.58814 0.50055 0.93524 0.0
H540 H 0.61277 0.52737 0.94223 0.0
H541 H 0.50577 0.44445 0.98702 0.0
H542 H 0.56758 0.43084 0.98414 0.0
H543 H 0.59179 0.5319 0.0027 0.0
H544 H 0.50035 0.41884 0.01177 0.0
H545 H 0.56219 0.4053 0.00893 0.0
C546 C 0.65305 0.2101 0.24853 0.0
C547 C 0.64682 0.22877 0.2429 0.0
C548 C 0.66879 0.20843 0.26197 0.0
C549 C 0.67858 0.22538 0.27022 0.0
C550 C 0.6724 0.24402 0.26458 0.0
C551 C 0.65677 0.2457 0.25106 0.0
C552 C 0.69496 0.22373 0.28491 0.0
C553 C 0.71002 0.21025 0.28171 0.0
C554 C 0.72579 0.2092 0.29537 0.0
C555 C 0.72613 0.22143 0.31253 0.0
C556 C 0.71105 0.23466 0.31619 0.0
C557 C 0.6956 0.23581 0.30221 0.0
C558 C 0.71144 0.24712 0.33469 0.0
C559 C 0.71684 0.23914 0.35301 0.0
C560 C 0.70666 0.26709 0.33419 0.0
C561 C 0.70746 0.27884 0.35158 0.0
C562 C 0.71301 0.27088 0.36987 0.0
C563 C 0.74208 0.19547 0.29198 0.0
C564 C 0.73803 0.17546 0.28712 0.0
C565 C 0.76186 0.20216 0.29478 0.0
C566 C 0.77722 0.18903 0.29353 0.0
C567 C 0.7732 0.16882 0.2896 0.0
C568 C 0.75344 0.16224 0.28601 0.0
C569 C 0.71764 0.25087 0.37037 0.0
H570 H 0.64556 0.19673 0.24281 0.0
H571 H 0.67305 0.19387 0.26621 0.0
H572 H 0.67984 0.25736 0.27046 0.0
H573 H 0.65269 0.26031 0.24679 0.0
H574 H 0.70981 0.20104 0.26832 0.0
H575 H 0.68374 0.24577 0.30505 0.0
H576 H 0.73823 0.2206 0.32312 0.0
H577 H 0.72038 0.22375 0.35398 0.0
H578 H 0.70259 0.27373 0.32029 0.0
H579 H 0.70362 0.29415 0.35071 0.0
H580 H 0.7229 0.16989 0.28499 0.0
H581 H 0.76546 0.21758 0.29818 0.0
H582 H 0.7222 0.2443 0.38414 0.0
H583 H 0.74977 0.14676 0.28307 0.0
H584 H 0.79228 0.19473 0.29586 0.0
C585 C 0.48185 0.11761 0.98868 0.0
C586 C 0.48077 0.11801 0.00961 0.0
C587 C 0.47916 0.09987 0.97788 0.0
C588 C 0.47507 0.08213 0.98771 0.0
C589 C 0.47354 0.08248 0.00857 0.0
C590 C 0.47647 0.10021 0.01942 0.0
C591 C 0.47261 0.0633 0.97617 0.0
C592 C 0.48633 0.05854 0.96137 0.0
C593 C 0.48402 0.04096 0.95002 0.0
C594 C 0.46767 0.0281 0.95363 0.0
C595 C 0.45366 0.03268 0.96826 0.0
C596 C 0.45638 0.05026 0.9796 0.0
C597 C 0.43574 0.01956 0.97105 0.0
C598 C 0.42571 0.0109 0.95444 0.0
C599 C 0.42823 0.01594 0.99018 0.0
C600 C 0.41096 0.00418 0.99261 0.0
C601 C 0.4008 0.99577 0.97596 0.0
C602 C 0.49848 0.03619 0.93418 0.0
C603 C 0.50591 0.05093 0.9215 0.0
C604 C 0.50485 0.01684 0.93149 0.0
C605 C 0.51827 0.01233 0.91645 0.0
C606 C 0.52567 0.02707 0.90376 0.0
C607 C 0.51934 0.04644 0.90648 0.0
C608 C 0.40853 0.99911 0.95688 0.0
H609 H 0.48466 0.13104 0.98055 0.0
H610 H 0.48011 0.10006 0.96178 0.0
H611 H 0.47053 0.06897 0.01652 0.0
H612 H 0.47579 0.09985 0.03552 0.0
H613 H 0.49905 0.06843 0.95895 0.0
H614 H 0.44547 0.05423 0.99059 0.0
H615 H 0.4657 0.01459 0.94483 0.0
H616 H 0.4309 0.01355 0.93947 0.0
H617 H 0.4357 0.02221 0.0033 0.0
H618 H 0.40534 0.00204 0.00752 0.0
H619 H 0.50115 0.06595 0.92301 0.0
H620 H 0.49958 0.00516 0.94111 0.0
H621 H 0.40127 0.99264 0.94374 0.0
H622 H 0.5249 0.05819 0.89712 0.0
H623 H 0.52266 0.99722 0.91464 0.0
C624 C 0.20968 0.91264 0.01121 0.0
O625 O 0.20479 0.90157 0.99551 0.0
O626 O 0.23751 0.87362 0.98877 0.0
Zn627 Zn 0.24638 0.8903 0.01276 0.0
O628 O 0.27012 0.90664 0.0039 0.0
C629 C 0.24701 0.85682 0.04033 0.0
O630 O 0.23641 0.84689 0.02676 0.0
O631 O 0.22584 0.90987 0.02035 0.0
C632 C 0.28689 0.90914 0.01247 0.0
O633 O 0.29033 0.90007 0.02917 0.0
C634 C 0.24603 0.85818 0.9829 0.0
O635 O 0.26085 0.85163 0.99328 0.0
O636 O 0.25265 0.87461 0.03726 0.0
C637 C 0.14278 0.45963 0.27751 0.0
O638 O 0.12705 0.4643 0.28772 0.0
O639 O 0.1155 0.50348 0.27652 0.0
Zn640 Zn 0.13362 0.49419 0.25424 0.0
O641 O 0.15471 0.51498 0.24725 0.0
C642 C 0.10199 0.49461 0.22398 0.0
O643 O 0.09522 0.50913 0.23488 0.0
O644 O 0.14811 0.47017 0.26289 0.0
C645 C 0.15209 0.52986 0.23645 0.0
O646 O 0.13446 0.53287 0.22904 0.0
C647 C 0.11037 0.52126 0.27848 0.0
O648 O 0.11734 0.53448 0.26609 0.0
O649 O 0.11766 0.48639 0.22947 0.0
C650 C 0.79638 0.61667 0.00148 0.0
O651 O 0.80368 0.63264 0.99304 0.0
O652 O 0.76323 0.65563 0.98058 0.0
Zn653 Zn 0.75662 0.63451 1.0005 0.0
O654 O 0.73155 0.61948 0.99188 0.0
C655 C 0.75753 0.66451 0.03255 0.0
O656 O 0.76986 0.67428 0.02094 0.0
O657 O 0.77793 0.61505 0.00505 0.0
C658 C 0.71522 0.62787 0.99435 0.0
O659 O 0.71552 0.64611 0.00135 0.0
C660 C 0.76953 0.65311 0.96294 0.0
O661 O 0.77329 0.63524 0.9565 0.0
O662 O 0.75065 0.64757 0.02693 0.0
C663 C 0.86652 0.06131 0.27663 0.0
O664 O 0.88207 0.05733 0.28746 0.0
O665 O 0.88786 0.01486 0.28324 0.0
Zn666 Zn 0.87381 0.02317 0.25814 0.0
O667 O 0.85235 0.00301 0.24979 0.0
C668 C 0.90724 0.01293 0.23494 0.0
O669 O 0.90801 0.99957 0.24877 0.0
O670 O 0.86065 0.0491 0.26302 0.0
C671 C 0.8541 0.98442 0.25024 0.0
O672 O 0.87073 0.97736 0.25671 0.0
C673 C 0.87902 0.0055 0.29701 0.0
O674 O 0.85994 0.00127 0.29524 0.0
O675 O 0.89369 0.02541 0.23579 0.0
C676 C 0.28433 0.09738 0.50629 0.0
O677 O 0.28232 0.09787 0.48683 0.0
O678 O 0.26649 0.14145 0.48234 0.0
Zn679 Zn 0.25521 0.12841 0.50681 0.0
O680 O 0.22783 0.11594 0.50211 0.0
C681 C 0.24029 0.15127 0.5409 0.0
O682 O 0.22592 0.13766 0.54132 0.0
O683 O 0.27414 0.10863 0.51721 0.0
C684 C 0.22376 0.1013 0.49044 0.0
O685 O 0.23803 0.09345 0.48014 0.0
C686 C 0.25675 0.14541 0.46675 0.0
O687 O 0.23795 0.13979 0.46533 0.0
O688 O 0.2537 0.15004 0.52777 0.0
C689 C 0.34113 0.54541 0.76137 0.0
O690 O 0.33441 0.53054 0.77195 0.0
O691 O 0.39266 0.51966 0.77323 0.0
Zn692 Zn 0.37325 0.51936 0.75014 0.0
O693 O 0.35623 0.4941 0.74906 0.0
C694 C 0.40534 0.5297 0.72285 0.0
O695 O 0.41236 0.54045 0.738 0.0
O696 O 0.35689 0.54363 0.75135 0.0
C697 C 0.36499 0.47899 0.74266 0.0
O698 O 0.38392 0.48081 0.73837 0.0
C699 C 0.39274 0.50705 0.78699 0.0
O700 O 0.37899 0.49281 0.7871 0.0
O701 O 0.38897 0.52002 0.72466 0.0
C702 C 0.72989 0.42409 0.50418 0.0
O703 O 0.74399 0.4249 0.49081 0.0
O704 O 0.74037 0.36763 0.49579 0.0
Zn705 Zn 0.75004 0.38924 0.51511 0.0
O706 O 0.77636 0.40144 0.50625 0.0
C707 C 0.76129 0.3608 0.54372 0.0
O708 O 0.76766 0.35191 0.52755 0.0
O709 O 0.72951 0.41013 0.51654 0.0
C710 C 0.78864 0.39184 0.49598 0.0
O711 O 0.7844 0.37327 0.49119 0.0
C712 C 0.7402 0.36954 0.47699 0.0
O713 O 0.74655 0.38631 0.46942 0.0
O714 O 0.75324 0.37734 0.54219 0.0
C715 C 0.6657 0.97935 0.76537 0.0
O716 O 0.66689 0.99657 0.77474 0.0
O717 O 0.61875 1.00028 0.77814 0.0
Zn718 Zn 0.63254 0.99816 0.75156 0.0
O719 O 0.64936 0.02297 0.74649 0.0
C720 C 0.60603 0.00964 0.72098 0.0
O721 O 0.61182 0.027 0.72841 0.0
O722 O 0.65125 0.97569 0.75343 0.0
C723 C 0.65643 0.02503 0.72912 0.0
O724 O 0.65279 0.0111 0.71554 0.0
C725 C 0.60421 0.01106 0.7819 0.0
O726 O 0.59717 0.022 0.76781 0.0
O727 O 0.61249 0.99418 0.7288 0.0
C728 C 0.99451 0.23203 0.9168 0.0
O729 O 0.97826 0.24186 0.91485 0.0
O730 O 0.98216 0.24495 0.86627 0.0
Zn731 Zn 0.00358 0.25646 0.88473 0.0
O732 O 0.99437 0.28099 0.89927 0.0
C733 C 0.03493 0.2557 0.85429 0.0
O734 O 0.02559 0.23966 0.84724 0.0
O735 O 0.00886 0.23578 0.90513 0.0
C736 C 0.97867 0.28968 0.89472 0.0
O737 O 0.9674 0.28245 0.88011 0.0
C738 C 0.97757 0.25152 0.84932 0.0
O739 O 0.98739 0.26702 0.84247 0.0
O740 O 0.02831 0.26437 0.8697 0.0
C741 C 0.49063 0.72335 0.40752 0.0
O742 O 0.47402 0.72696 0.39826 0.0
O743 O 0.48303 0.74766 0.36428 0.0
Zn744 Zn 0.5048 0.75581 0.38393 0.0
O745 O 0.49926 0.78184 0.39774 0.0
C746 C 0.53326 0.7617 0.35175 0.0
O747 O 0.5174 0.76477 0.34102 0.0
O748 O 0.50598 0.73427 0.40431 0.0
C749 C 0.50533 0.79808 0.39033 0.0
O750 O 0.5149 0.79776 0.37338 0.0
C751 C 0.47244 0.75871 0.3539 0.0
O752 O 0.47566 0.77793 0.35489 0.0
O753 O 0.53134 0.75771 0.37008 0.0
C754 C 0.00535 0.78035 0.59087 0.0
O755 O 0.98685 0.77411 0.58812 0.0
O756 O 0.97922 0.75875 0.63329 0.0
Zn757 Zn 0.00501 0.75016 0.62103 0.0
O758 O 1.00005 0.72493 0.60467 0.0
C759 C 0.02809 0.75996 0.6555 0.0
O760 O 0.01838 0.77622 0.65352 0.0
O761 O 0.01587 0.77206 0.60378 0.0
C762 C 0.98994 0.71086 0.61237 0.0
O763 O 0.9834 0.71312 0.63061 0.0
C764 C 0.97375 0.75373 0.65063 0.0
O765 O 0.98509 0.74252 0.66116 0.0
O766 O 0.025 0.7459 0.64291 0.0
C767 C 0.52034 0.29527 0.09905 0.0
O768 O 0.52649 0.27969 0.08932 0.0
O769 O 0.47831 0.26938 0.14112 0.0
Zn770 Zn 0.50425 0.2663 0.12678 0.0
O771 O 0.50095 0.24676 0.10385 0.0
C772 C 0.53316 0.26472 0.16026 0.0
O773 O 0.52569 0.2811 0.16709 0.0
O774 O 0.51146 0.293 0.11554 0.0
C775 C 0.4905 0.23079 0.10441 0.0
O776 O 0.48039 0.22667 0.12055 0.0
C777 C 0.47258 0.2618 0.15736 0.0
O778 O 0.48413 0.24983 0.16669 0.0
O779 O 0.52613 0.25666 0.14433 0.0
H780 H 0.22609 0.77063 0.90301 0.0
H781 H 0.22326 0.81599 0.85828 0.0
H782 H 0.22792 0.8415 0.88442 0.0
H783 H 0.2029 0.79581 0.94282 0.0
H784 H 0.21958 0.78781 0.96182 0.0
H785 H 0.21491 0.77269 0.93979 0.0
H786 H 0.25252 0.77281 0.93249 0.0
H787 H 0.25733 0.78776 0.95462 0.0
H788 H 0.2663 0.79602 0.93085 0.0
H789 H 0.23078 0.86234 0.91548 0.0
H790 H 0.23723 0.87713 0.94899 0.0
H791 H 0.24322 0.81876 0.97291 0.0
C792 C 0.22671 0.78585 0.89851 0.0
C793 C 0.22366 0.79104 0.87839 0.0
C794 C 0.22461 0.81135 0.87353 0.0
C795 C 0.22748 0.82608 0.88829 0.0
C796 C 0.22999 0.8204 0.90789 0.0
C797 C 0.23017 0.80081 0.91299 0.0
C798 C 0.23436 0.79878 0.93507 0.0
C799 C 0.21689 0.78814 0.94548 0.0
C800 C 0.25379 0.78822 0.93845 0.0
C801 C 0.23632 0.82032 0.94154 0.0
C802 C 0.23335 0.83252 0.92565 0.0
C803 C 0.23341 0.85297 0.928 0.0
C804 C 0.23696 0.86122 0.94706 0.0
C805 C 0.24084 0.84905 0.96337 0.0
C806 C 0.2405 0.82835 0.96058 0.0
H807 H 0.04693 0.5118 0.37837 0.0
H808 H 0.01784 0.56483 0.36079 0.0
H809 H 0.03871 0.56663 0.33097 0.0
H810 H 0.09548 0.52515 0.36121 0.0
H811 H 0.10063 0.50075 0.352 0.0
H812 H 0.08384 0.5038 0.37247 0.0
H813 H 0.05649 0.48349 0.353 0.0
H814 H 0.07322 0.4803 0.3325 0.0
H815 H 0.04952 0.49087 0.32837 0.0
H816 H 0.06314 0.56334 0.3035 0.0
H817 H 0.08807 0.55383 0.27881 0.0
H818 H 0.09966 0.50153 0.31251 0.0
C819 C 0.04473 0.5237 0.36819 0.0
C820 C 0.03082 0.53833 0.37225 0.0
C821 C 0.0287 0.55372 0.35848 0.0
C822 C 0.04039 0.5548 0.34134 0.0
C823 C 0.05399 0.54024 0.33794 0.0
C824 C 0.05608 0.52486 0.35082 0.0
C825 C 0.07148 0.51086 0.34333 0.0
C826 C 0.08889 0.51011 0.35814 0.0
C827 C 0.06211 0.49016 0.33904 0.0
C828 C 0.07775 0.52085 0.32426 0.0
C829 C 0.06758 0.53788 0.32157 0.0
C830 C 0.07112 0.54997 0.30537 0.0
C831 C 0.08536 0.54447 0.29146 0.0
C832 C 0.09576 0.52691 0.29369 0.0
C833 C 0.09184 0.51496 0.31033 0.0
H834 H 0.79321 0.70936 0.86151 0.0
H835 H 0.76354 0.75933 0.88714 0.0
H836 H 0.75857 0.74127 0.91843 0.0
H837 H 0.76105 0.67226 0.88275 0.0
H838 H 0.78039 0.65524 0.88697 0.0
H839 H 0.78254 0.67245 0.86696 0.0
H840 H 0.81638 0.68567 0.88117 0.0
H841 H 0.81431 0.66851 0.90125 0.0
H842 H 0.81803 0.69455 0.90665 0.0
H843 H 0.75686 0.71802 0.94678 0.0
H844 H 0.75635 0.69018 0.96977 0.0
H845 H 0.78592 0.65448 0.92544 0.0
C846 C 0.78582 0.7165 0.8738 0.0
C847 C 0.7788 0.73574 0.87201 0.0
C848 C 0.76892 0.74456 0.88824 0.0
C849 C 0.76614 0.73447 0.90607 0.0
C850 C 0.77317 0.71551 0.90737 0.0
C851 C 0.78266 0.70651 0.89164 0.0
C852 C 0.78795 0.68566 0.89667 0.0
C853 C 0.77734 0.67051 0.8825 0.0
C854 C 0.81051 0.68348 0.89642 0.0
C855 C 0.77989 0.68434 0.91765 0.0
C856 C 0.77164 0.70181 0.92358 0.0
C857 C 0.76325 0.70425 0.94231 0.0
C858 C 0.76308 0.68833 0.95528 0.0
C859 C 0.77105 0.6701 0.94942 0.0
C860 C 0.77967 0.66819 0.93036 0.0
H861 H 0.97157 1.00037 0.37137 0.0
H862 H 0.93825 0.95434 0.40225 0.0
H863 H 0.9103 0.95771 0.37905 0.0
H864 H 0.93089 0.0305 0.35997 0.0
H865 H 0.93973 0.03675 0.33554 0.0
H866 H 0.95708 0.03119 0.35491 0.0
H867 H 0.97156 0.00393 0.33235 0.0
H868 H 0.95431 0.00946 0.31288 0.0
H869 H 0.95525 0.98467 0.32189 0.0
H870 H 0.88566 0.96632 0.35287 0.0
H871 H 0.86676 0.97835 0.32429 0.0
H872 H 0.91669 0.01733 0.30912 0.0
C873 C 0.95851 0.99084 0.37319 0.0
C874 C 0.95715 0.97724 0.38891 0.0
C875 C 0.93959 0.96523 0.39073 0.0
C876 C 0.92364 0.96691 0.37751 0.0
C877 C 0.92545 0.98052 0.36233 0.0
C878 C 0.94249 0.99216 0.35998 0.0
C879 C 0.94075 0.00532 0.34212 0.0
C880 C 0.94219 0.02724 0.34853 0.0
C881 C 0.9564 1.00055 0.32638 0.0
C882 C 0.92006 0.99928 0.33486 0.0
C883 C 0.91145 0.98505 0.34683 0.0
C884 C 0.89227 0.9774 0.34333 0.0
C885 C 0.88163 0.98437 0.32709 0.0
C886 C 0.89025 0.99873 0.31443 0.0
C887 C 0.90973 0.00626 0.31845 0.0
H888 H 0.20664 0.21463 0.63595 0.0
H889 H 0.25906 0.25242 0.62702 0.0
H890 H 0.26748 0.23247 0.59738 0.0
H891 H 0.22834 0.16933 0.6219 0.0
H892 H 0.2065 0.15905 0.60936 0.0
H893 H 0.20413 0.17665 0.62958 0.0
H894 H 0.18401 0.19888 0.60671 0.0
H895 H 0.18628 0.18132 0.58642 0.0
H896 H 0.19441 0.2067 0.58336 0.0
H897 H 0.27067 0.2083 0.56922 0.0
H898 H 0.26859 0.18113 0.54428 0.0
H899 H 0.21407 0.15878 0.57116 0.0
C900 C 0.21977 0.21881 0.62762 0.0
C901 C 0.23226 0.23502 0.63387 0.0
C902 C 0.24944 0.23989 0.6227 0.0
C903 C 0.25428 0.22873 0.60576 0.0
C904 C 0.24179 0.21275 0.60013 0.0
C905 C 0.22488 0.20776 0.61067 0.0
C906 C 0.21427 0.18957 0.6016 0.0
C907 C 0.21326 0.17265 0.6165 0.0
C908 C 0.19351 0.19441 0.59407 0.0
C909 C 0.22796 0.18506 0.58443 0.0
C910 C 0.24368 0.19869 0.58383 0.0
C911 C 0.25841 0.19756 0.56949 0.0
C912 C 0.25709 0.18204 0.55538 0.0
C913 C 0.24117 0.16778 0.55572 0.0
C914 C 0.22641 0.16943 0.57045 0.0
H915 H 0.49456 0.55304 0.64813 0.0
H916 H 0.46581 0.51123 0.60633 0.0
H917 H 0.43919 0.50474 0.63059 0.0
H918 H 0.48289 0.52621 0.69274 0.0
H919 H 0.47872 0.54812 0.70752 0.0
H920 H 0.49577 0.54916 0.68701 0.0
H921 H 0.47629 0.57736 0.67168 0.0
H922 H 0.45915 0.57637 0.69211 0.0
H923 H 0.45011 0.57365 0.66685 0.0
H924 H 0.41524 0.50342 0.65894 0.0
H925 H 0.3961 0.50657 0.68993 0.0
H926 H 0.44028 0.54938 0.71332 0.0
C927 C 0.48265 0.54255 0.64406 0.0
C928 C 0.48234 0.53257 0.62534 0.0
C929 C 0.46656 0.51881 0.62068 0.0
C930 C 0.45129 0.51513 0.63431 0.0
C931 C 0.45199 0.52529 0.65256 0.0
C932 C 0.46729 0.53866 0.6575 0.0
C933 C 0.46448 0.54763 0.67811 0.0
C934 C 0.48148 0.54246 0.69217 0.0
C935 C 0.46238 0.57009 0.67712 0.0
C936 C 0.44515 0.53728 0.68393 0.0
C937 C 0.4382 0.52449 0.66896 0.0
C938 C 0.42055 0.51336 0.6708 0.0
C939 C 0.40976 0.51529 0.68846 0.0
C940 C 0.41666 0.52822 0.70409 0.0
C941 C 0.4346 0.53936 0.70168 0.0
H942 H 0.7884 0.27568 0.61828 0.0
H943 H 0.76218 0.31027 0.66567 0.0
H944 H 0.75547 0.33641 0.64179 0.0
H945 H 0.8114 0.31633 0.59227 0.0
H946 H 0.80621 0.3056 0.56791 0.0
H947 H 0.8095 0.28989 0.58888 0.0
H948 H 0.77514 0.27272 0.58179 0.0
H949 H 0.77177 0.28835 0.56078 0.0
H950 H 0.75356 0.28744 0.58029 0.0
H951 H 0.75095 0.35851 0.61251 0.0
H952 H 0.74884 0.37476 0.58001 0.0
H953 H 0.77745 0.32535 0.55177 0.0
C954 C 0.78114 0.28869 0.62365 0.0
C955 C 0.77589 0.29091 0.64391 0.0
C956 C 0.76664 0.30833 0.65032 0.0
C957 C 0.76266 0.32322 0.63684 0.0
C958 C 0.76799 0.3205 0.61699 0.0
C959 C 0.77703 0.30366 0.61041 0.0
C960 C 0.78101 0.30423 0.58825 0.0
C961 C 0.80336 0.304 0.58409 0.0
C962 C 0.76969 0.28717 0.57713 0.0
C963 C 0.77269 0.32396 0.58336 0.0
C964 C 0.76531 0.33315 0.60014 0.0
C965 C 0.75672 0.35146 0.59927 0.0
C966 C 0.75559 0.36058 0.58074 0.0
C967 C 0.76298 0.35136 0.56333 0.0
C968 C 0.77169 0.33283 0.56478 0.0
H969 H 0.52733 0.96304 0.64128 0.0
H970 H 0.53651 0.01678 0.60814 0.0
H971 H 0.5603 0.02965 0.63379 0.0
H972 H 0.53073 0.98519 0.69065 0.0
H973 H 0.54411 0.96537 0.70115 0.0
H974 H 0.5274 0.96047 0.68046 0.0
H975 H 0.55576 0.94521 0.66027 0.0
H976 H 0.57256 0.95007 0.6809 0.0
H977 H 0.57848 0.95949 0.65666 0.0
H978 H 0.58208 0.03713 0.66311 0.0
H979 H 0.60256 0.03815 0.69361 0.0
H980 H 0.5812 0.9788 0.70735 0.0
C981 C 0.53434 0.97753 0.63955 0.0
C982 C 0.53012 0.989 0.62282 0.0
C983 C 0.53966 0.00779 0.62083 0.0
C984 C 0.55312 0.01523 0.63533 0.0
C985 C 0.55704 0.00357 0.65162 0.0
C986 C 0.54811 0.98506 0.65377 0.0
C987 C 0.55549 0.97541 0.67247 0.0
C988 C 0.53841 0.97138 0.68704 0.0
C989 C 0.56621 0.95642 0.66726 0.0
C990 C 0.56985 0.99146 0.68052 0.0
C991 C 0.57032 0.00762 0.6683 0.0
C992 C 0.58195 0.02454 0.67275 0.0
C993 C 0.59347 0.02499 0.69016 0.0
C994 C 0.59351 0.00854 0.70281 0.0
C995 C 0.58158 0.99152 0.69786 0.0
H996 H 0.88998 0.24699 0.76863 0.0
H997 H 0.86772 0.1936 0.79679 0.0
H998 H 0.89635 0.19531 0.81988 0.0
H999 H 0.94209 0.23676 0.77227 0.0
H1000 H 0.94969 0.26213 0.77747 0.0
H1001 H 0.92777 0.25638 0.7627 0.0
H1002 H 0.90705 0.27726 0.787 0.0
H1003 H 0.9289 0.28312 0.80179 0.0
H1004 H 0.90726 0.27195 0.8132 0.0
H1005 H 0.9266 0.20349 0.8407 0.0
H1006 H 0.95652 0.2175 0.85783 0.0
H1007 H 0.95925 0.26557 0.81609 0.0
C1008 C 0.8911 0.23569 0.77969 0.0
C1009 C 0.87663 0.22012 0.78087 0.0
C1010 C 0.87876 0.20551 0.79543 0.0
C1011 C 0.89492 0.2064 0.80866 0.0
C1012 C 0.90888 0.22195 0.8071 0.0
C1013 C 0.90717 0.23632 0.79298 0.0
C1014 C 0.92409 0.25162 0.79467 0.0
C1015 C 0.93666 0.25172 0.77565 0.0
C1016 C 0.91636 0.2722 0.79946 0.0
C1017 C 0.93544 0.24375 0.81213 0.0
C1018 C 0.92643 0.22659 0.81903 0.0
C1019 C 0.93386 0.21686 0.83536 0.0
C1020 C 0.95086 0.22495 0.845 0.0
C1021 C 0.96029 0.24261 0.83828 0.0
C1022 C 0.95251 0.25198 0.8215 0.0
H1023 H 0.47019 0.86897 0.47888 0.0
H1024 H 0.49858 0.91766 0.44762 0.0
H1025 H 0.50767 0.89472 0.42042 0.0
H1026 H 0.50585 0.8334 0.46656 0.0
H1027 H 0.48795 0.81311 0.46365 0.0
H1028 H 0.48301 0.83345 0.48031 0.0
H1029 H 0.45006 0.83886 0.4616 0.0
H1030 H 0.45489 0.8185 0.4449 0.0
H1031 H 0.45036 0.84245 0.43507 0.0
H1032 H 0.51407 0.86654 0.39694 0.0
H1033 H 0.5181 0.83488 0.37901 0.0
H1034 H 0.48574 0.80433 0.42563 0.0
C1035 C 0.47811 0.87482 0.46619 0.0
C1036 C 0.48368 0.8951 0.46533 0.0
C1037 C 0.49433 0.90215 0.44865 0.0
C1038 C 0.49946 0.88926 0.43309 0.0
C1039 C 0.49385 0.86936 0.43446 0.0
C1040 C 0.48345 0.86214 0.45058 0.0
C1041 C 0.47976 0.83999 0.44864 0.0
C1042 C 0.48974 0.82937 0.46581 0.0
C1043 C 0.45744 0.83464 0.44748 0.0
C1044 C 0.4898 0.83588 0.42896 0.0
C1045 C 0.49773 0.85304 0.42099 0.0
C1046 C 0.50789 0.853 0.403 0.0
C1047 C 0.51009 0.83492 0.39293 0.0
C1048 C 0.50225 0.81709 0.40089 0.0
C1049 C 0.49189 0.81768 0.41912 0.0
H1050 H 0.11932 0.26307 0.77123 0.0
H1051 H 0.1408 0.31712 0.8013 0.0
H1052 H 0.1141 0.31351 0.82599 0.0
H1053 H 0.06689 0.27101 0.7783 0.0
H1054 H 0.06072 0.2453 0.78222 0.0
H1055 H 0.08139 0.25226 0.7667 0.0
H1056 H 0.10447 0.23187 0.78849 0.0
H1057 H 0.08391 0.22494 0.80415 0.0
H1058 H 0.10589 0.23681 0.81497 0.0
H1059 H 0.08564 0.30389 0.84771 0.0
H1060 H 0.05666 0.2892 0.86482 0.0
H1061 H 0.05315 0.24149 0.82058 0.0
C1062 C 0.11827 0.27427 0.78287 0.0
C1063 C 0.13224 0.29034 0.78438 0.0
C1064 C 0.13047 0.30453 0.8 0.0
C1065 C 0.11529 0.30267 0.81404 0.0
C1066 C 0.10193 0.28656 0.81225 0.0
C1067 C 0.10319 0.27264 0.79705 0.0
C1068 C 0.08699 0.25663 0.7987 0.0
C1069 C 0.07318 0.25629 0.78039 0.0
C1070 C 0.09585 0.23636 0.80176 0.0
C1071 C 0.07651 0.26372 0.81726 0.0
C1072 C 0.08539 0.28102 0.82481 0.0
C1073 C 0.07851 0.29036 0.84192 0.0
C1074 C 0.06204 0.28187 0.85156 0.0
C1075 C 0.05259 0.26417 0.84408 0.0
C1076 C 0.06002 0.25501 0.82669 0.0
H1077 H 0.53933 0.65049 0.48454 0.0
H1078 H 0.48997 0.60934 0.47152 0.0
H1079 H 0.47537 0.63361 0.44931 0.0
H1080 H 0.51197 0.6954 0.48403 0.0
H1081 H 0.53137 0.70955 0.4719 0.0
H1082 H 0.53749 0.68935 0.4875 0.0
H1083 H 0.55642 0.67335 0.45828 0.0
H1084 H 0.5504 0.69351 0.44261 0.0
H1085 H 0.54385 0.6685 0.43481 0.0
H1086 H 0.46604 0.66224 0.42893 0.0
H1087 H 0.4637 0.69243 0.4094 0.0
H1088 H 0.52005 0.71456 0.43413 0.0
C1089 C 0.52538 0.64672 0.47709 0.0
C1090 C 0.51566 0.62816 0.47973 0.0
C1091 C 0.49761 0.62351 0.46957 0.0
C1092 C 0.48919 0.63721 0.45704 0.0
C1093 C 0.49914 0.65538 0.45469 0.0
C1094 C 0.51693 0.66012 0.46425 0.0
C1095 C 0.52502 0.68032 0.45836 0.0
C1096 C 0.52654 0.69449 0.47653 0.0
C1097 C 0.54511 0.67882 0.44789 0.0
C1098 C 0.50899 0.68618 0.444 0.0
C1099 C 0.4941 0.67166 0.44231 0.0
C1100 C 0.47762 0.6737 0.43008 0.0
C1101 C 0.47642 0.69094 0.41909 0.0
C1102 C 0.49171 0.70584 0.4202 0.0
C1103 C 0.50816 0.7034 0.43292 0.0
H1104 H 0.88558 0.75637 0.72897 0.0
H1105 H 0.86024 0.8022 0.69374 0.0
H1106 H 0.88746 0.79956 0.66969 0.0
H1107 H 0.93622 0.77294 0.7227 0.0
H1108 H 0.94543 0.74837 0.7216 0.0
H1109 H 0.9234 0.75321 0.73555 0.0
H1110 H 0.90396 0.72589 0.71511 0.0
H1111 H 0.92593 0.72097 0.70108 0.0
H1112 H 0.90347 0.72696 0.6883 0.0
H1113 H 0.91776 0.79214 0.64952 0.0
H1114 H 0.94921 0.78101 0.63535 0.0
H1115 H 0.9554 0.74125 0.68466 0.0
C1116 C 0.88576 0.76597 0.71629 0.0
C1117 C 0.87059 0.7794 0.71326 0.0
C1118 C 0.87139 0.79149 0.69626 0.0
C1119 C 0.8869 0.79021 0.68255 0.0
C1120 C 0.9016 0.77687 0.68607 0.0
C1121 C 0.90121 0.76502 0.70256 0.0
C1122 C 0.91905 0.75223 0.70315 0.0
C1123 C 0.93178 0.75698 0.72186 0.0
C1124 C 0.91272 0.73021 0.70182 0.0
C1125 C 0.92958 0.75878 0.68444 0.0
C1126 C 0.91923 0.77292 0.67472 0.0
C1127 C 0.92601 0.78109 0.65702 0.0
C1128 C 0.94387 0.77466 0.64907 0.0
C1129 C 0.9548 0.7603 0.65891 0.0
C1130 C 0.94747 0.75231 0.67682 0.0
H1131 H 0.00405 0.86807 0.51324 0.0
H1132 H 0.06295 0.88605 0.53471 0.0
H1133 H 0.06245 0.85775 0.55716 0.0
H1134 H 0.98501 0.8534 0.56075 0.0
H1135 H 0.97021 0.83284 0.55061 0.0
H1136 H 0.97552 0.85408 0.53563 0.0
H1137 H 0.99029 0.83161 0.50829 0.0
H1138 H 0.98508 0.81029 0.52322 0.0
H1139 H 0.00993 0.81561 0.5147 0.0
H1140 H 0.05543 0.82775 0.57766 0.0
H1141 H 0.04205 0.79865 0.59531 0.0
H1142 H 0.9873 0.80078 0.5613 0.0
C1143 C 0.01681 0.86617 0.52273 0.0
C1144 C 0.0336 0.8793 0.52204 0.0
C1145 C 0.05006 0.87605 0.53462 0.0
C1146 C 0.04988 0.86006 0.54754 0.0
C1147 C 0.03311 0.84745 0.54781 0.0
C1148 C 0.01685 0.85034 0.53579 0.0
C1149 C 1.00053 0.83484 0.53926 0.0
C1150 C 0.98171 0.84436 0.54703 0.0
C1151 C 0.99621 0.82235 0.52023 0.0
C1152 C 0.01013 0.82283 0.55518 0.0
C1153 C 0.02896 0.8303 0.55982 0.0
C1154 C 0.04071 0.82175 0.57414 0.0
C1155 C 0.03297 0.8052 0.58408 0.0
C1156 C 0.01361 0.79739 0.57972 0.0
C1157 C 0.00214 0.80635 0.565 0.0
H1158 H 0.11797 0.71627 0.71676 0.0
H1159 H 0.1093 0.76294 0.76071 0.0
H1160 H 0.08063 0.77382 0.74158 0.0
H1161 H 0.10639 0.74371 0.67439 0.0
H1162 H 0.09344 0.72368 0.66113 0.0
H1163 H 0.11261 0.71856 0.67882 0.0
H1164 H 0.08805 0.69576 0.698 0.0
H1165 H 0.06882 0.7007 0.68028 0.0
H1166 H 0.06494 0.70522 0.70649 0.0
H1167 H 0.05459 0.78119 0.71692 0.0
H1168 H 0.03149 0.78376 0.68864 0.0
H1169 H 0.05597 0.73187 0.66073 0.0
C1170 C 0.1098 0.72854 0.72251 0.0
C1171 C 0.11597 0.73885 0.74015 0.0
C1172 C 0.10504 0.75501 0.74707 0.0
C1173 C 0.08867 0.76124 0.73638 0.0
C1174 C 0.08325 0.75108 0.71885 0.0
C1175 C 0.09333 0.73498 0.712 0.0
C1176 C 0.08469 0.72713 0.69233 0.0
C1177 C 0.10021 0.72835 0.67569 0.0
C1178 C 0.07611 0.70595 0.69441 0.0
C1179 C 0.06842 0.74154 0.68911 0.0
C1180 C 0.06787 0.75519 0.70464 0.0
C1181 C 0.05471 0.77047 0.70476 0.0
C1182 C 0.0417 0.77185 0.68857 0.0
C1183 C 0.04187 0.758 0.6725 0.0
C1184 C 0.05537 0.74258 0.67288 0.0
H1185 H 0.99602 0.63149 0.5228 0.0
H1186 H 0.95229 0.59571 0.55452 0.0
H1187 H 0.95195 0.62098 0.58135 0.0
H1188 H 0.02312 0.65049 0.5656 0.0
H1189 H 0.02728 0.67482 0.55577 0.0
H1190 H 0.02445 0.65376 0.53905 0.0
H1191 H 0.99576 0.67029 0.52082 0.0
H1192 H 0.99852 0.69142 0.53746 0.0
H1193 H 0.97484 0.67839 0.53492 0.0
H1194 H 0.95636 0.64973 0.60483 0.0
H1195 H 0.96463 0.68075 0.62327 0.0
H1196 H 0.00451 0.69886 0.57594 0.0
C1197 C 0.98625 0.62901 0.5353 0.0
C1198 C 0.97433 0.61143 0.53658 0.0
C1199 C 0.9619 0.60878 0.55334 0.0
C1200 C 0.96147 0.62313 0.56861 0.0
C1201 C 0.97344 0.64018 0.5669 0.0
C1202 C 0.98552 0.64327 0.55066 0.0
C1203 C 0.99675 0.66305 0.55246 0.0
C1204 C 0.01923 0.66036 0.55327 0.0
C1205 C 0.99112 0.67659 0.5354 0.0
C1206 C 0.98909 0.67055 0.57229 0.0
C1207 C 0.97571 0.65706 0.58035 0.0
C1208 C 0.96677 0.66045 0.59866 0.0
C1209 C 0.97161 0.67813 0.60903 0.0
C1210 C 0.9852 0.69228 0.60106 0.0
C1211 C 0.99401 0.68838 0.5824 0.0
H1212 H 0.79502 0.88085 0.23491 0.0
H1213 H 0.74741 0.91276 0.20834 0.0
H1214 H 0.76695 0.944 0.21336 0.0
H1215 H 0.80905 0.91696 0.2721 0.0
H1216 H 0.83522 0.91311 0.27016 0.0
H1217 H 0.81759 0.8932 0.26427 0.0
H1218 H 0.8331 0.88906 0.22929 0.0
H1219 H 0.85083 0.90891 0.2351 0.0
H1220 H 0.83528 0.91002 0.21327 0.0
H1221 H 0.79136 0.97184 0.22192 0.0
H1222 H 0.8192 0.99426 0.23278 0.0
H1223 H 0.85127 0.94405 0.2529 0.0
C1224 C 0.78878 0.89435 0.22989 0.0
C1225 C 0.76961 0.89432 0.22128 0.0
C1226 C 0.76191 0.91241 0.21524 0.0
C1227 C 0.77295 0.93023 0.21792 0.0
C1228 C 0.79171 0.92972 0.22657 0.0
C1229 C 0.79961 0.91225 0.23239 0.0
C1230 C 0.82007 0.91578 0.24145 0.0
C1231 C 0.82049 0.90939 0.26329 0.0
C1232 C 0.83575 0.90532 0.22903 0.0
C1233 C 0.82241 0.93799 0.2399 0.0
C1234 C 0.80588 0.94574 0.2313 0.0
C1235 C 0.80443 0.96594 0.2286 0.0
C1236 C 0.82031 0.97855 0.23486 0.0
C1237 C 0.83746 0.97093 0.24366 0.0
C1238 C 0.83844 0.95035 0.24614 0.0
H1239 H 0.77867 0.13617 0.26516 0.0
H1240 H 0.8045 0.16913 0.31574 0.0
H1241 H 0.83159 0.14596 0.31708 0.0
H1242 H 0.78934 0.08811 0.28309 0.0
H1243 H 0.79476 0.07803 0.25876 0.0
H1244 H 0.77769 0.09763 0.26126 0.0
H1245 H 0.79867 0.11867 0.23678 0.0
H1246 H 0.81585 0.09914 0.23425 0.0
H1247 H 0.82464 0.12359 0.2419 0.0
H1248 H 0.85565 0.11906 0.31343 0.0
H1249 H 0.87471 0.08971 0.30537 0.0
H1250 H 0.83305 0.07361 0.25766 0.0
C1251 C 0.78997 0.13848 0.27657 0.0
C1252 C 0.7895 0.15466 0.29021 0.0
C1253 C 0.8047 0.15716 0.30483 0.0
C1254 C 0.82012 0.14399 0.30581 0.0
C1255 C 0.82016 0.1283 0.29212 0.0
C1256 C 0.80548 0.12543 0.27781 0.0
C1257 C 0.80889 0.10712 0.26513 0.0
C1258 C 0.79165 0.09182 0.26719 0.0
C1259 C 0.81221 0.11246 0.24322 0.0
C1260 C 0.82771 0.10013 0.27464 0.0
C1261 C 0.83398 0.11261 0.29013 0.0
C1262 C 0.8509 0.10918 0.3013 0.0
C1263 C 0.86165 0.09246 0.29659 0.0
C1264 C 0.85543 0.07933 0.28088 0.0
C1265 C 0.83825 0.08336 0.26973 0.0
H1266 H 0.39129 0.96858 0.00476 0.0
H1267 H 0.36746 0.99653 0.95266 0.0
H1268 H 0.33627 0.97687 0.95604 0.0
H1269 H 0.36885 0.9203 0.99541 0.0
H1270 H 0.36366 0.91575 0.02125 0.0
H1271 H 0.38439 0.93176 0.01464 0.0
H1272 H 0.37071 0.9598 0.03675 0.0
H1273 H 0.34997 0.94386 0.04347 0.0
H1274 H 0.34578 0.96746 0.03268 0.0
H1275 H 0.30775 0.95447 0.96489 0.0
H1276 H 0.28317 0.93114 0.97915 0.0
H1277 H 0.32486 0.91811 0.02618 0.0
C1278 C 0.37947 0.97068 0.99414 0.0
C1279 C 0.38194 0.98401 0.97833 0.0
C1280 C 0.36612 0.98614 0.96466 0.0
C1281 C 0.34828 0.97513 0.96652 0.0
C1282 C 0.3464 0.96209 0.98218 0.0
C1283 C 0.36149 0.95983 0.99581 0.0
C1284 C 0.35547 0.94491 0.01139 0.0
C1285 C 0.36889 0.92712 0.01061 0.0
C1286 C 0.35548 0.95459 0.03231 0.0
C1287 C 0.33462 0.93918 0.00437 0.0
C1288 C 0.32975 0.94925 0.98746 0.0
C1289 C 0.31137 0.94651 0.97814 0.0
C1290 C 0.2975 0.93318 0.98637 0.0
C1291 C 0.30204 0.92277 0.00381 0.0
C1292 C 0.32091 0.92583 0.01285 0.0
H1293 H 0.22743 0.38087 0.26671 0.0
H1294 H 0.20335 0.35314 0.31949 0.0
H1295 H 0.1779 0.37815 0.32155 0.0
H1296 H 0.22034 0.43125 0.28317 0.0
H1297 H 0.21379 0.43943 0.25871 0.0
H1298 H 0.23014 0.41929 0.26133 0.0
H1299 H 0.2068 0.39708 0.23888 0.0
H1300 H 0.19035 0.41713 0.23623 0.0
H1301 H 0.18105 0.39379 0.24542 0.0
H1302 H 0.15491 0.40601 0.31786 0.0
H1303 H 0.13607 0.43494 0.30872 0.0
H1304 H 0.17532 0.44498 0.25864 0.0
C1305 C 0.21692 0.38015 0.2788 0.0
C1306 C 0.21735 0.36493 0.29287 0.0
C1307 C 0.20314 0.36443 0.30833 0.0
C1308 C 0.18869 0.37865 0.30971 0.0
C1309 C 0.18862 0.39336 0.29556 0.0
C1310 C 0.20236 0.39425 0.28041 0.0
C1311 C 0.19893 0.41156 0.26706 0.0
C1312 C 0.21687 0.42625 0.26761 0.0
C1313 C 0.19398 0.40446 0.24563 0.0
C1314 C 0.1811 0.42023 0.27708 0.0
C1315 C 0.1754 0.4095 0.29348 0.0
C1316 C 0.15925 0.41455 0.30506 0.0
C1317 C 0.14862 0.43102 0.29973 0.0
C1318 C 0.15418 0.44228 0.28297 0.0
C1319 C 0.17068 0.43673 0.27156 0.0
H1320 H 0.1371 0.02402 0.45581 0.0
H1321 H 0.09837 0.05498 0.496 0.0
H1322 H 0.12556 0.07931 0.50408 0.0
H1323 H 0.18026 0.02957 0.48592 0.0
H1324 H 0.19711 0.03304 0.46546 0.0
H1325 H 0.17428 0.01881 0.46173 0.0
H1326 H 0.16465 0.04152 0.43295 0.0
H1327 H 0.18752 0.05578 0.43655 0.0
H1328 H 0.16421 0.0678 0.43741 0.0
H1329 H 0.15715 0.09942 0.50886 0.0
H1330 H 0.1912 0.11387 0.51035 0.0
H1331 H 0.20971 0.06975 0.46726 0.0
C1332 C 0.13427 0.03612 0.46605 0.0
C1333 C 0.11563 0.03765 0.47526 0.0
C1334 C 0.11259 0.05347 0.48888 0.0
C1335 C 0.1279 0.0674 0.49349 0.0
C1336 C 0.14618 0.06532 0.48436 0.0
C1337 C 0.14946 0.05011 0.47092 0.0
C1338 C 0.17076 0.05077 0.46391 0.0
C1339 C 0.18121 0.03193 0.4696 0.0
C1340 C 0.17184 0.05417 0.44137 0.0
C1341 C 0.17899 0.0686 0.4757 0.0
C1342 C 0.16451 0.07684 0.48728 0.0
C1343 C 0.16859 0.09317 0.49978 0.0
C1344 C 0.18801 0.10126 0.50052 0.0
C1345 C 0.20317 0.09297 0.48892 0.0
C1346 C 0.19848 0.07648 0.47627 0.0
H1347 H 0.72778 0.12113 0.74519 0.0
H1348 H 0.71559 0.13503 0.68369 0.0
H1349 H 0.69362 0.10504 0.68033 0.0
H1350 H 0.72827 0.06863 0.739 0.0
H1351 H 0.71587 0.0635 0.76213 0.0
H1352 H 0.73071 0.08595 0.75969 0.0
H1353 H 0.7007 0.10644 0.76989 0.0
H1354 H 0.68578 0.08404 0.77242 0.0
H1355 H 0.6777 0.10306 0.75624 0.0
H1356 H 0.67473 0.07275 0.68311 0.0
H1357 H 0.65735 0.04168 0.69266 0.0
H1358 H 0.67966 0.04986 0.75313 0.0
C1359 C 0.72042 0.1178 0.73107 0.0
C1360 C 0.72333 0.13023 0.71464 0.0
C1361 C 0.7134 0.12564 0.69642 0.0
C1362 C 0.701 0.10865 0.69437 0.0
C1363 C 0.69847 0.09662 0.71081 0.0
C1364 C 0.70766 0.1011 0.72889 0.0
C1365 C 0.70199 0.08592 0.74433 0.0
C1366 C 0.7203 0.07538 0.75172 0.0
C1367 C 0.69088 0.09544 0.76175 0.0
C1368 C 0.68838 0.0721 0.73203 0.0
C1369 C 0.68674 0.07845 0.71268 0.0
C1370 C 0.67571 0.06772 0.69826 0.0
C1371 C 0.66599 0.05007 0.7038 0.0
C1372 C 0.66711 0.04349 0.72363 0.0
C1373 C 0.67839 0.05471 0.73793 0.0
H1374 H 0.36761 0.017 0.5081 0.0
H1375 H 0.37703 0.03278 0.57062 0.0
H1376 H 0.34962 0.05555 0.569 0.0
H1377 H 0.35851 0.06596 0.49263 0.0
H1378 H 0.3401 0.05817 0.47425 0.0
H1379 H 0.35954 0.04199 0.48064 0.0
H1380 H 0.33331 0.01465 0.4893 0.0
H1381 H 0.31377 0.03077 0.48297 0.0
H1382 H 0.31437 0.01991 0.50723 0.0
H1383 H 0.32167 0.07724 0.5605 0.0
H1384 H 0.29609 0.09726 0.54538 0.0
H1385 H 0.30607 0.06882 0.48796 0.0
C1386 C 0.36404 0.02527 0.52147 0.0
C1387 C 0.3745 0.02284 0.53956 0.0
C1388 C 0.36904 0.03391 0.55669 0.0
C1389 C 0.35355 0.04704 0.5559 0.0
C1390 C 0.34368 0.0491 0.53784 0.0
C1391 C 0.34876 0.03861 0.52091 0.0
C1392 C 0.33632 0.04416 0.50316 0.0
C1393 C 0.3494 0.05311 0.4867 0.0
C1394 C 0.32369 0.02631 0.4952 0.0
C1395 C 0.32355 0.05952 0.51275 0.0
C1396 C 0.32791 0.06201 0.5328 0.0
C1397 C 0.31812 0.07542 0.54482 0.0
C1398 C 0.30358 0.08671 0.53608 0.0
C1399 C 0.29906 0.08465 0.51547 0.0
C1400 C 0.30917 0.07077 0.50374 0.0
H1401 H 0.63252 0.47653 0.54217 0.0
H1402 H 0.64032 0.51667 0.49307 0.0
H1403 H 0.67043 0.49977 0.48293 0.0
H1404 H 0.68452 0.47316 0.55434 0.0
H1405 H 0.68241 0.44732 0.56006 0.0
H1406 H 0.66153 0.46269 0.56363 0.0
H1407 H 0.64001 0.439 0.54086 0.0
H1408 H 0.66082 0.42357 0.53721 0.0
H1409 H 0.64829 0.43329 0.516 0.0
H1410 H 0.6996 0.47869 0.47807 0.0
H1411 H 0.72566 0.45427 0.47834 0.0
H1412 H 0.69901 0.42755 0.53049 0.0
C1413 C 0.64066 0.48184 0.52938 0.0
C1414 C 0.63403 0.49789 0.51836 0.0
C1415 C 0.64496 0.50425 0.50157 0.0
C1416 C 0.66215 0.49483 0.49576 0.0
C1417 C 0.66823 0.47903 0.50687 0.0
C1418 C 0.65782 0.47253 0.5233 0.0
C1419 C 0.66741 0.45498 0.53242 0.0
C1420 C 0.67438 0.45984 0.55389 0.0
C1421 C 0.65329 0.43662 0.53156 0.0
C1422 C 0.68482 0.45266 0.51855 0.0
C1423 C 0.68503 0.46673 0.50397 0.0
C1424 C 0.69961 0.46759 0.48942 0.0
C1425 C 0.71437 0.45364 0.48971 0.0
C1426 C 0.71441 0.43896 0.50442 0.0
C1427 C 0.69941 0.43856 0.51904 0.0
H1428 H 0.72776 0.30913 0.37406 0.0
H1429 H 0.70126 0.26089 0.40752 0.0
H1430 H 0.70475 0.28109 0.43845 0.0
H1431 H 0.76329 0.32531 0.41057 0.0
H1432 H 0.76116 0.35119 0.40578 0.0
H1433 H 0.75607 0.33316 0.38617 0.0
H1434 H 0.72122 0.34694 0.38098 0.0
H1435 H 0.72623 0.36508 0.40054 0.0
H1436 H 0.70467 0.34865 0.40185 0.0
H1437 H 0.71222 0.30609 0.46591 0.0
H1438 H 0.72251 0.33439 0.48784 0.0
H1439 H 0.74325 0.36662 0.43629 0.0
C1440 C 0.72239 0.3029 0.38782 0.0
C1441 C 0.71427 0.28338 0.38834 0.0
C1442 C 0.70778 0.2757 0.40677 0.0
C1443 C 0.70959 0.2871 0.42441 0.0
C1444 C 0.71783 0.30619 0.42338 0.0
C1445 C 0.72404 0.31408 0.40555 0.0
C1446 C 0.7327 0.33488 0.40858 0.0
C1447 C 0.7546 0.3362 0.40241 0.0
C1448 C 0.72047 0.34976 0.39732 0.0
C1449 C 0.73052 0.3374 0.43091 0.0
C1450 C 0.72191 0.32069 0.43916 0.0
C1451 C 0.71885 0.31931 0.4596 0.0
C1452 C 0.72478 0.33546 0.47193 0.0
C1453 C 0.73361 0.35276 0.46379 0.0
C1454 C 0.7364 0.35369 0.44297 0.0
H1455 H 0.52653 0.04067 0.86545 0.0
H1456 H 0.557 0.00261 0.90571 0.0
H1457 H 0.58036 0.99435 0.87895 0.0
H1458 H 0.53096 0.01064 0.82146 0.0
H1459 H 0.53502 0.03121 0.80522 0.0
H1460 H 0.5207 0.03413 0.82755 0.0
H1461 H 0.5441 0.06341 0.83911 0.0
H1462 H 0.55848 0.06061 0.8168 0.0
H1463 H 0.57037 0.05995 0.84088 0.0
H1464 H 0.60038 0.9902 0.84777 0.0
H1465 H 0.61558 0.99043 0.81444 0.0
H1466 H 0.57235 0.03169 0.79477 0.0
C1467 C 0.53823 0.03075 0.86874 0.0
C1468 C 0.53989 0.02227 0.88771 0.0
C1469 C 0.55524 0.00909 0.89123 0.0
C1470 C 0.56866 0.0044 0.87617 0.0
C1471 C 0.56657 0.01302 0.85766 0.0
C1472 C 0.55176 0.02594 0.85389 0.0
C1473 C 0.55271 0.03313 0.8327 0.0
C1474 C 0.53372 0.0269 0.82105 0.0
C1475 C 0.55666 0.05561 0.83236 0.0
C1476 C 0.57035 0.0222 0.8251 0.0
C1477 C 0.57814 0.0107 0.83973 0.0
C1478 C 0.59442 0.99918 0.8362 0.0
C1479 C 0.60295 0.9994 0.81721 0.0
C1480 C 0.59518 0.01108 0.80196 0.0
C1481 C 0.57867 0.02262 0.80608 0.0
H1482 H 0.2606 0.20675 0.36656 0.0
H1483 H 0.31503 0.23538 0.38949 0.0
H1484 H 0.31409 0.21335 0.41813 0.0
H1485 H 0.23718 0.20318 0.41381 0.0
H1486 H 0.22476 0.17971 0.40816 0.0
H1487 H 0.23067 0.19645 0.38841 0.0
H1488 H 0.24979 0.16916 0.37014 0.0
H1489 H 0.24402 0.15234 0.38989 0.0
H1490 H 0.26944 0.15732 0.38298 0.0
H1491 H 0.30687 0.18895 0.44486 0.0
H1492 H 0.29263 0.16552 0.46897 0.0
H1493 H 0.24171 0.1543 0.42997 0.0
C1494 C 0.27233 0.20852 0.37759 0.0
C1495 C 0.28803 0.22277 0.37548 0.0
C1496 C 0.3031 0.22431 0.39032 0.0
C1497 C 0.30265 0.21192 0.40678 0.0
C1498 C 0.28695 0.19814 0.40836 0.0
C1499 C 0.27197 0.19647 0.39427 0.0
C1500 C 0.25616 0.18123 0.40012 0.0
C1501 C 0.236 0.19071 0.40279 0.0
C1502 C 0.25478 0.16399 0.38487 0.0
C1503 C 0.26448 0.17479 0.41985 0.0
C1504 C 0.28239 0.18453 0.42417 0.0
C1505 C 0.29286 0.18121 0.44164 0.0
C1506 C 0.28465 0.16783 0.45523 0.0
C1507 C 0.26602 0.15808 0.4514 0.0
C1508 C 0.25596 0.1615 0.43334 0.0
H1509 H 0.45736 0.46887 0.87768 0.0
H1510 H 0.49764 0.51929 0.86854 0.0
H1511 H 0.47612 0.53033 0.8415 0.0
H1512 H 0.44546 0.45937 0.82631 0.0
H1513 H 0.41981 0.4526 0.83073 0.0
H1514 H 0.43815 0.44883 0.84971 0.0
H1515 H 0.41825 0.46958 0.87485 0.0
H1516 H 0.39985 0.47342 0.85593 0.0
H1517 H 0.41195 0.4943 0.86864 0.0
H1518 H 0.45066 0.53573 0.81521 0.0
H1519 H 0.42307 0.53486 0.79095 0.0
H1520 H 0.39899 0.48112 0.81718 0.0
C1521 C 0.46155 0.48233 0.8701 0.0
C1522 C 0.47925 0.49316 0.87517 0.0
C1523 C 0.48432 0.51057 0.86473 0.0
C1524 C 0.47213 0.51705 0.84944 0.0
C1525 C 0.45486 0.50599 0.84475 0.0
C1526 C 0.44955 0.489 0.85474 0.0
C1527 C 0.43038 0.47967 0.84646 0.0
C1528 C 0.43365 0.45889 0.83779 0.0
C1529 C 0.41415 0.47922 0.86242 0.0
C1530 C 0.42583 0.49402 0.8302 0.0
C1531 C 0.44011 0.50913 0.82954 0.0
C1532 C 0.43933 0.52401 0.81561 0.0
C1533 C 0.42358 0.52338 0.80188 0.0
C1534 C 0.40881 0.50795 0.80215 0.0
C1535 C 0.40997 0.49316 0.81662 0.0
H1536 H 0.74865 0.74907 0.11645 0.0
H1537 H 0.70547 0.71045 0.14544 0.0
H1538 H 0.71009 0.68488 0.11937 0.0
H1539 H 0.7343 0.73594 0.06645 0.0
H1540 H 0.75919 0.73708 0.05691 0.0
H1541 H 0.7529 0.75218 0.07814 0.0
H1542 H 0.78109 0.73732 0.09864 0.0
H1543 H 0.78747 0.72216 0.07746 0.0
H1544 H 0.78178 0.71092 0.10094 0.0
H1545 H 0.71905 0.66369 0.0901 0.0
H1546 H 0.7312 0.64847 0.05907 0.0
H1547 H 0.76864 0.70081 0.04897 0.0
C1548 C 0.74033 0.73515 0.11741 0.0
C1549 C 0.72668 0.73175 0.13296 0.0
C1550 C 0.71583 0.71346 0.13354 0.0
C1551 C 0.71844 0.6988 0.11887 0.0
C1552 C 0.73194 0.70265 0.10372 0.0
C1553 C 0.74269 0.72037 0.10284 0.0
C1554 C 0.75589 0.72091 0.08468 0.0
C1555 C 0.75022 0.73751 0.07072 0.0
C1556 C 0.77786 0.72294 0.0908 0.0
C1557 C 0.75082 0.70075 0.07546 0.0
C1558 C 0.73704 0.69044 0.08674 0.0
C1559 C 0.72988 0.67159 0.08115 0.0
C1560 C 0.73689 0.66307 0.06349 0.0
C1561 C 0.7509 0.67342 0.05157 0.0
C1562 C 0.75799 0.69248 0.05776 0.0
H1563 H 0.95775 0.04869 0.1336 0.0
H1564 H 0.99822 0.00104 0.14003 0.0
H1565 H 0.98144 0.9912 0.17098 0.0
H1566 H 0.95536 0.06183 0.18574 0.0
H1567 H 0.92943 0.06712 0.18501 0.0
H1568 H 0.94436 0.07029 0.16309 0.0
H1569 H 0.92002 0.0469 0.143 0.0
H1570 H 0.905 0.04368 0.16485 0.0
H1571 H 0.91435 0.02246 0.15194 0.0
H1572 H 0.96081 0.98677 0.20137 0.0
H1573 H 0.9371 0.98753 0.22906 0.0
H1574 H 0.90997 0.03821 0.20332 0.0
C1575 C 0.96313 0.03624 0.14156 0.0
C1576 C 0.97925 0.02557 0.1343 0.0
C1577 C 0.9857 0.00924 0.14509 0.0
C1578 C 0.97636 0.00362 0.16277 0.0
C1579 C 0.96057 0.01445 0.16951 0.0
C1580 C 0.95394 0.03038 0.15925 0.0
C1581 C 0.93662 0.03947 0.16979 0.0
C1582 C 0.94176 0.06095 0.1763 0.0
C1583 C 0.91789 0.03804 0.15661 0.0
C1584 C 0.93461 0.02618 0.18759 0.0
C1585 C 0.9486 0.01187 0.18711 0.0
C1586 C 0.94977 0.99789 0.20191 0.0
C1587 C 0.93622 0.99847 0.2176 0.0
C1588 C 0.92165 0.01293 0.2184 0.0
C1589 C 0.92092 0.02698 0.20316 0.0
H1590 H 0.27324 0.76966 0.11259 0.0
H1591 H 0.26732 0.81142 0.1621 0.0
H1592 H 0.26085 0.83751 0.13841 0.0
H1593 H 0.29522 0.8023 0.07758 0.0
H1594 H 0.28117 0.79218 0.05659 0.0
H1595 H 0.28657 0.7768 0.07732 0.0
H1596 H 0.24913 0.76827 0.08157 0.0
H1597 H 0.24361 0.78351 0.06076 0.0
H1598 H 0.23214 0.78794 0.08452 0.0
H1599 H 0.25632 0.85959 0.10925 0.0
H1600 H 0.24999 0.875 0.07686 0.0
H1601 H 0.25445 0.81811 0.04687 0.0
C1602 C 0.27033 0.78415 0.11865 0.0
C1603 C 0.27123 0.78831 0.13943 0.0
C1604 C 0.26749 0.80775 0.14634 0.0
C1605 C 0.26358 0.82274 0.13298 0.0
C1606 C 0.26297 0.81808 0.1127 0.0
C1607 C 0.26586 0.79918 0.10557 0.0
C1608 C 0.2634 0.79785 0.08312 0.0
C1609 C 0.28274 0.79193 0.07307 0.0
C1610 C 0.24604 0.78355 0.07714 0.0
C1611 C 0.25878 0.819 0.07875 0.0
C1612 C 0.25893 0.8305 0.09599 0.0
C1613 C 0.25592 0.8507 0.09567 0.0
C1614 C 0.25243 0.85933 0.07723 0.0
C1615 C 0.25156 0.84769 0.05948 0.0
C1616 C 0.25478 0.82728 0.06029 0.0
H1617 H 0.02216 0.49908 0.13597 0.0
H1618 H 0.0486 0.44749 0.10955 0.0
H1619 H 0.0726 0.44731 0.13739 0.0
H1620 H 0.06712 0.52278 0.15432 0.0
H1621 H 0.05626 0.53181 0.17702 0.0
H1622 H 0.04116 0.52794 0.15498 0.0
H1623 H 0.01699 0.50494 0.17443 0.0
H1624 H 0.032 0.50876 0.19655 0.0
H1625 H 0.02644 0.48408 0.18711 0.0
H1626 H 0.09387 0.45281 0.168 0.0
H1627 H 0.11076 0.4635 0.19933 0.0
H1628 H 0.06996 0.51102 0.20623 0.0
C1629 C 0.03287 0.48762 0.13611 0.0
C1630 C 0.03352 0.47335 0.12047 0.0
C1631 C 0.04798 0.45879 0.12115 0.0
C1632 C 0.06161 0.45847 0.13698 0.0
C1633 C 0.06057 0.47277 0.15208 0.0
C1634 C 0.04655 0.48706 0.15182 0.0
C1635 C 0.04866 0.50076 0.16989 0.0
C1636 C 0.0536 0.52208 0.16367 0.0
C1637 C 0.02991 0.49955 0.18275 0.0
C1638 C 0.06606 0.49196 0.18035 0.0
C1639 C 0.07271 0.47584 0.16982 0.0
C1640 C 0.08876 0.46539 0.1764 0.0
C1641 C 0.09827 0.47159 0.19422 0.0
C1642 C 0.09169 0.48808 0.20529 0.0
C1643 C 0.07533 0.49831 0.19819 0.0
H1644 H 0.38589 0.75557 0.27179 0.0
H1645 H 0.37466 0.69416 0.28683 0.0
H1646 H 0.40217 0.69661 0.31106 0.0
H1647 H 0.4389 0.75621 0.27623 0.0
H1648 H 0.44092 0.7806 0.28742 0.0
H1649 H 0.42063 0.77402 0.27072 0.0
H1650 H 0.39561 0.7838 0.29794 0.0
H1651 H 0.41581 0.79047 0.3147 0.0
H1652 H 0.39682 0.77274 0.32208 0.0
H1653 H 0.43084 0.70542 0.3335 0.0
H1654 H 0.45817 0.72048 0.35379 0.0
H1655 H 0.45003 0.77667 0.32558 0.0
C1656 C 0.38908 0.74266 0.28026 0.0
C1657 C 0.37816 0.72459 0.27715 0.0
C1658 C 0.38304 0.70804 0.28851 0.0
C1659 C 0.39857 0.70931 0.30245 0.0
C1660 C 0.40904 0.72727 0.30505 0.0
C1661 C 0.40446 0.74369 0.29439 0.0
C1662 C 0.41786 0.76132 0.30037 0.0
C1663 C 0.43032 0.76845 0.28263 0.0
C1664 C 0.4058 0.77807 0.30931 0.0
C1665 C 0.43066 0.75221 0.31607 0.0
C1666 C 0.42536 0.73251 0.31842 0.0
C1667 C 0.43511 0.72085 0.33184 0.0
C1668 C 0.45065 0.72955 0.34327 0.0
C1669 C 0.45625 0.74977 0.34132 0.0
C1670 C 0.44607 0.7612 0.32749 0.0
H1671 H 0.98784 0.37539 0.97838 0.0
H1672 H 0.93715 0.40124 0.95046 0.0
H1673 H 0.93559 0.37411 0.92539 0.0
H1674 H 0.01083 0.35909 0.93269 0.0
H1675 H 0.01927 0.33661 0.94312 0.0
H1676 H 0.0164 0.35807 0.95894 0.0
H1677 H 0.99303 0.33768 0.98185 0.0
H1678 H 0.99578 0.31618 0.96606 0.0
H1679 H 0.97144 0.32485 0.97127 0.0
H1680 H 0.93923 0.34413 0.90359 0.0
H1681 H 0.94818 0.31347 0.88608 0.0
H1682 H 0.99696 0.30731 0.92766 0.0
C1683 C 0.97653 0.37545 0.96688 0.0
C1684 C 0.96254 0.39042 0.96647 0.0
C1685 C 0.94783 0.38979 0.95129 0.0
C1686 C 0.94689 0.37451 0.93691 0.0
C1687 C 0.9608 0.35995 0.93784 0.0
C1688 C 0.97538 0.36029 0.95238 0.0
C1689 C 0.98846 0.34276 0.95004 0.0
C1690 C 0.01002 0.34954 0.94595 0.0
C1691 C 0.98709 0.32959 0.9684 0.0
C1692 C 0.97895 0.33253 0.9319 0.0
C1693 C 0.963 0.34269 0.92514 0.0
C1694 C 0.95172 0.33606 0.90871 0.0
C1695 C 0.95692 0.3186 0.89889 0.0
C1696 C 0.97328 0.30797 0.90546 0.0
C1697 C 0.98441 0.3151 0.92222 0.0
H1698 H 0.61198 0.78844 0.26743 0.0
H1699 H 0.65788 0.76994 0.30774 0.0
H1700 H 0.63249 0.76214 0.33297 0.0
H1701 H 0.58145 0.8107 0.30418 0.0
H1702 H 0.55849 0.80234 0.29238 0.0
H1703 H 0.58031 0.80662 0.27757 0.0
H1704 H 0.57685 0.77086 0.26325 0.0
H1705 H 0.555 0.76647 0.278 0.0
H1706 H 0.57557 0.75049 0.28008 0.0
H1707 H 0.60206 0.75652 0.3539 0.0
H1708 H 0.5688 0.75319 0.36883 0.0
H1709 H 0.54282 0.77439 0.31436 0.0
C1710 C 0.61672 0.78256 0.28147 0.0
C1711 C 0.63698 0.77987 0.28559 0.0
C1712 C 0.64251 0.77243 0.30432 0.0
C1713 C 0.62818 0.76783 0.31871 0.0
C1714 C 0.60837 0.77067 0.31414 0.0
C1715 C 0.60263 0.77782 0.29596 0.0
C1716 C 0.58037 0.77951 0.29475 0.0
C1717 C 0.57484 0.80107 0.29207 0.0
C1718 C 0.57143 0.76602 0.27803 0.0
C1719 C 0.57448 0.77219 0.3151 0.0
C1720 C 0.59085 0.76721 0.32608 0.0
C1721 C 0.58913 0.76032 0.34543 0.0
C1722 C 0.57017 0.7585 0.35378 0.0
C1723 C 0.55318 0.76347 0.34276 0.0
C1724 C 0.55547 0.77036 0.32315 0.0
H1725 H 0.03877 0.14052 0.97363 0.0
H1726 H 0.98705 0.14191 0.01162 0.0
H1727 H 0.97522 0.17034 0.99337 0.0
H1728 H 0.04605 0.19319 0.96946 0.0
H1729 H 0.05337 0.1921 0.9437 0.0
H1730 H 0.05797 0.17176 0.9597 0.0
H1731 H 0.03875 0.14787 0.93519 0.0
H1732 H 0.03415 0.16813 0.91909 0.0
H1733 H 0.01372 0.15301 0.92812 0.0
H1734 H 0.96867 0.19816 0.97111 0.0
H1735 H 0.96774 0.22404 0.94601 0.0
H1736 H 0.02368 0.20515 0.92212 0.0
C1737 C 0.02491 0.14675 0.97802 0.0
C1738 C 0.01391 0.13907 0.99417 0.0
C1739 C 0.9959 0.14774 0.99954 0.0
C1740 C 0.98899 0.16382 0.98919 0.0
C1741 C 1.00023 0.17112 0.97348 0.0
C1742 C 0.0178 0.16292 0.96787 0.0
C1743 C 0.02697 0.17373 0.95041 0.0
C1744 C 0.04729 0.18326 0.95617 0.0
C1745 C 0.02848 0.15986 0.93212 0.0
C1746 C 0.01177 0.18923 0.94711 0.0
C1747 C 0.99648 0.18739 0.9606 0.0
C1748 C 0.98056 0.19979 0.96048 0.0
C1749 C 0.98018 0.21446 0.94613 0.0
C1750 C 0.99564 0.21668 0.93209 0.0
C1751 C 0.01169 0.2039 0.9327 0.0
H1752 H 0.38517 0.26219 0.23722 0.0
H1753 H 0.3578 0.30644 0.20149 0.0
H1754 H 0.38473 0.30411 0.17704 0.0
H1755 H 0.4353 0.27982 0.22968 0.0
H1756 H 0.44517 0.25552 0.2288 0.0
H1757 H 0.42327 0.26 0.24308 0.0
H1758 H 0.40421 0.23187 0.22343 0.0
H1759 H 0.42605 0.22733 0.20905 0.0
H1760 H 0.40317 0.23249 0.19661 0.0
H1761 H 0.41484 0.29748 0.15677 0.0
H1762 H 0.44645 0.28755 0.14233 0.0
H1763 H 0.45498 0.24836 0.19175 0.0
C1764 C 0.38485 0.27151 0.22434 0.0
C1765 C 0.36922 0.28444 0.2213 0.0
C1766 C 0.36935 0.29615 0.20404 0.0
C1767 C 0.38466 0.29503 0.19011 0.0
C1768 C 0.39982 0.28217 0.19362 0.0
C1769 C 0.40008 0.27066 0.21033 0.0
C1770 C 0.41834 0.25837 0.21078 0.0
C1771 C 0.43128 0.26376 0.22918 0.0
C1772 C 0.41259 0.2362 0.20991 0.0
C1773 C 0.42836 0.26487 0.19174 0.0
C1774 C 0.41736 0.27853 0.18204 0.0
C1775 C 0.42358 0.28678 0.16422 0.0
C1776 C 0.44159 0.28102 0.15614 0.0
C1777 C 0.45326 0.26716 0.16589 0.0
C1778 C 0.44643 0.25896 0.18391 0.0
H1779 H 0.54356 0.3722 0.01288 0.0
H1780 H 0.51139 0.41492 0.04754 0.0
H1781 H 0.50663 0.39068 0.07424 0.0
H1782 H 0.51297 0.33012 0.02556 0.0
H1783 H 0.53315 0.31357 0.02653 0.0
H1784 H 0.53465 0.33454 0.01054 0.0
H1785 H 0.56767 0.34633 0.02761 0.0
H1786 H 0.56622 0.32542 0.04373 0.0
H1787 H 0.56854 0.35007 0.05428 0.0
H1788 H 0.50529 0.36184 0.09707 0.0
H1789 H 0.50551 0.32969 0.11354 0.0
H1790 H 0.53804 0.30543 0.06374 0.0
C1791 C 0.53565 0.37647 0.02617 0.0
C1792 C 0.52786 0.39543 0.02819 0.0
C1793 C 0.51733 0.40041 0.04564 0.0
C1794 C 0.51467 0.3868 0.06093 0.0
C1795 C 0.52256 0.36824 0.05849 0.0
C1796 C 0.53271 0.363 0.0415 0.0
C1797 C 0.53902 0.34184 0.04227 0.0
C1798 C 0.52937 0.32928 0.02522 0.0
C1799 C 0.56171 0.34087 0.04196 0.0
C1800 C 0.53076 0.33598 0.06232 0.0
C1801 C 0.52148 0.35149 0.07151 0.0
C1802 C 0.51253 0.34959 0.09003 0.0
C1803 C 0.51277 0.33126 0.09929 0.0
C1804 C 0.52178 0.315 0.08996 0.0
C1805 C 0.53107 0.31755 0.07131 0.0
H1806 H 0.61763 0.25611 0.24337 0.0
H1807 H 0.63827 0.20572 0.20956 0.0
H1808 H 0.61084 0.20882 0.18556 0.0
H1809 H 0.56532 0.24591 0.2359 0.0
H1810 H 0.55966 0.27149 0.2334 0.0
H1811 H 0.58048 0.26489 0.24841 0.0
H1812 H 0.60373 0.28767 0.2277 0.0
H1813 H 0.58298 0.29437 0.21265 0.0
H1814 H 0.60443 0.28429 0.201 0.0
H1815 H 0.5816 0.21769 0.16487 0.0
H1816 H 0.55291 0.23205 0.14856 0.0
H1817 H 0.55181 0.27738 0.19517 0.0
C1818 C 0.61651 0.24577 0.23087 0.0
C1819 C 0.63014 0.23059 0.22847 0.0
C1820 C 0.62787 0.21726 0.21198 0.0
C1821 C 0.61239 0.21897 0.19818 0.0
C1822 C 0.5993 0.23412 0.20099 0.0
C1823 C 0.6012 0.24732 0.21688 0.0
C1824 C 0.58536 0.26253 0.21623 0.0
C1825 C 0.57191 0.26111 0.23458 0.0
C1826 C 0.59469 0.28345 0.21427 0.0
C1827 C 0.57432 0.25587 0.19739 0.0
C1828 C 0.58255 0.2394 0.1889 0.0
C1829 C 0.57501 0.23058 0.17139 0.0
C1830 C 0.55868 0.23887 0.16224 0.0
C1831 C 0.55006 0.25588 0.17054 0.0
C1832 C 0.55802 0.26439 0.18842 0.0
H1833 H 0.46243 0.13065 0.044 0.0
H1834 H 0.50785 0.14799 0.00155 0.0
H1835 H 0.51401 0.17923 0.0203 0.0
H1836 H 0.44361 0.1789 0.05336 0.0
H1837 H 0.44002 0.1751 0.07961 0.0
H1838 H 0.43841 0.15439 0.06235 0.0
H1839 H 0.46529 0.13701 0.08244 0.0
H1840 H 0.46693 0.15762 0.0998 0.0
H1841 H 0.48885 0.14968 0.08728 0.0
H1842 H 0.51561 0.20842 0.04372 0.0
H1843 H 0.51363 0.23296 0.07117 0.0
H1844 H 0.46833 0.19609 0.09938 0.0
C1845 C 0.47376 0.14093 0.03867 0.0
C1846 C 0.48449 0.13684 0.02111 0.0
C1847 C 0.49907 0.15088 0.01465 0.0
C1848 C 0.50279 0.16865 0.02528 0.0
C1849 C 0.49193 0.17218 0.04245 0.0
C1850 C 0.4778 0.15869 0.04919 0.0
C1851 C 0.46867 0.16585 0.06846 0.0
C1852 C 0.44635 0.16873 0.06578 0.0
C1853 C 0.47268 0.1517 0.0855 0.0
C1854 C 0.47996 0.18543 0.07154 0.0
C1855 C 0.49318 0.18885 0.05626 0.0
C1856 C 0.50532 0.20591 0.05578 0.0
C1857 C 0.50405 0.21978 0.07144 0.0
C1858 C 0.49084 0.21646 0.08747 0.0
C1859 C 0.47858 0.19907 0.08737 0.0
H1860 H 0.27386 0.39969 0.74533 0.0
H1861 H 0.30991 0.36135 0.70919 0.0
H1862 H 0.33709 0.3865 0.71031 0.0
H1863 H 0.28998 0.44485 0.72136 0.0
H1864 H 0.28969 0.4596 0.744 0.0
H1865 H 0.27307 0.43829 0.74104 0.0
H1866 H 0.28674 0.42417 0.7737 0.0
H1867 H 0.30346 0.44539 0.77672 0.0
H1868 H 0.31298 0.42094 0.77631 0.0
H1869 H 0.36055 0.41519 0.71549 0.0
H1870 H 0.37843 0.44683 0.72283 0.0
H1871 H 0.32698 0.46787 0.75406 0.0
C1872 C 0.2874 0.3966 0.73752 0.0
C1873 C 0.28976 0.37829 0.72745 0.0
C1874 C 0.30783 0.37494 0.71751 0.0
C1875 C 0.32336 0.38922 0.71791 0.0
C1876 C 0.3206 0.40695 0.72811 0.0
C1877 C 0.30305 0.41082 0.73759 0.0
C1878 C 0.30391 0.43136 0.74706 0.0
C1879 C 0.28823 0.44429 0.73781 0.0
C1880 C 0.30164 0.4304 0.7698 0.0
C1881 C 0.3247 0.43834 0.74141 0.0
C1882 C 0.33405 0.42392 0.73059 0.0
C1883 C 0.35338 0.42665 0.72388 0.0
C1884 C 0.36343 0.44469 0.72819 0.0
C1885 C 0.35412 0.45987 0.73899 0.0
C1886 C 0.33447 0.45658 0.74571 0.0
H1887 H 0.25754 0.621 0.79091 0.0
H1888 H 0.28867 0.66399 0.75433 0.0
H1889 H 0.31331 0.63938 0.74564 0.0
H1890 H 0.30055 0.59879 0.81019 0.0
H1891 H 0.28966 0.57409 0.80972 0.0
H1892 H 0.27414 0.59491 0.81272 0.0
H1893 H 0.25313 0.58285 0.78208 0.0
H1894 H 0.26856 0.56195 0.77901 0.0
H1895 H 0.26518 0.57839 0.75862 0.0
H1896 H 0.33475 0.61038 0.7412 0.0
H1897 H 0.35177 0.57892 0.74142 0.0
H1898 H 0.30677 0.55453 0.78085 0.0
C1899 C 0.26942 0.62516 0.7809 0.0
C1900 C 0.2712 0.64445 0.77333 0.0
C1901 C 0.28714 0.64939 0.7605 0.0
C1902 C 0.30114 0.63548 0.75539 0.0
C1903 C 0.29903 0.61667 0.76321 0.0
C1904 C 0.28359 0.61146 0.77568 0.0
C1905 C 0.28498 0.59033 0.78234 0.0
C1906 C 0.28749 0.58949 0.80509 0.0
C1907 C 0.26689 0.57763 0.77507 0.0
C1908 C 0.30366 0.58451 0.77169 0.0
C1909 C 0.31148 0.59992 0.76071 0.0
C1910 C 0.32875 0.59819 0.74971 0.0
C1911 C 0.33832 0.58023 0.74995 0.0
C1912 C 0.33064 0.56421 0.76115 0.0
C1913 C 0.31304 0.56646 0.77212 0.0
H1914 H 0.87391 0.47678 0.49105 0.0
H1915 H 0.89982 0.44308 0.44291 0.0
H1916 H 0.87303 0.41737 0.44582 0.0
H1917 H 0.85777 0.43561 0.52067 0.0
H1918 H 0.83501 0.44651 0.52816 0.0
H1919 H 0.85635 0.46207 0.52247 0.0
H1920 H 0.83576 0.4802 0.49636 0.0
H1921 H 0.81435 0.4647 0.50199 0.0
H1922 H 0.82308 0.46613 0.47672 0.0
H1923 H 0.84393 0.39502 0.45457 0.0
H1924 H 0.81342 0.37846 0.46711 0.0
H1925 H 0.80574 0.42737 0.50873 0.0
C1926 C 0.87397 0.46392 0.48121 0.0
C1927 C 0.88894 0.46183 0.46679 0.0
C1928 C 0.8884 0.44497 0.45397 0.0
C1929 C 0.87332 0.43028 0.45558 0.0
C1930 C 0.8588 0.43277 0.46996 0.0
C1931 C 0.85889 0.44924 0.48245 0.0
C1932 C 0.84126 0.44858 0.49629 0.0
C1933 C 0.84801 0.44816 0.51819 0.0
C1934 C 0.82782 0.46593 0.49261 0.0
C1935 C 0.83127 0.42911 0.48971 0.0
C1936 C 0.84171 0.42017 0.47461 0.0
C1937 C 0.83558 0.40192 0.46633 0.0
C1938 C 0.81826 0.39261 0.47359 0.0
C1939 C 0.80716 0.40164 0.48885 0.0
C1940 C 0.81383 0.42014 0.49697 0.0
H1941 H 0.71539 0.87387 0.7624 0.0
H1942 H 0.76419 0.90146 0.7965 0.0
H1943 H 0.74763 0.93321 0.79615 0.0
H1944 H 0.70684 0.91529 0.73118 0.0
H1945 H 0.68027 0.91159 0.73092 0.0
H1946 H 0.69581 0.89086 0.73391 0.0
H1947 H 0.67779 0.88203 0.76667 0.0
H1948 H 0.66215 0.90269 0.76376 0.0
H1949 H 0.67642 0.90044 0.78632 0.0
H1950 H 0.72594 0.96168 0.79257 0.0
H1951 H 0.70047 0.9856 0.78566 0.0
H1952 H 0.66551 0.94007 0.75342 0.0
C1953 C 0.7225 0.88658 0.76989 0.0
C1954 C 0.74113 0.88522 0.77942 0.0
C1955 C 0.75007 0.90222 0.78889 0.0
C1956 C 0.74074 0.92029 0.78885 0.0
C1957 C 0.72248 0.92116 0.77924 0.0
C1958 C 0.71343 0.90482 0.7699 0.0
C1959 C 0.69384 0.90992 0.76052 0.0
C1960 C 0.69423 0.90673 0.73778 0.0
C1961 C 0.67653 0.89807 0.76988 0.0
C1962 C 0.69329 0.93167 0.76613 0.0
C1963 C 0.70997 0.93778 0.77696 0.0
C1964 C 0.71283 0.9571 0.78407 0.0
C1965 C 0.69824 0.97058 0.78006 0.0
C1966 C 0.68099 0.96475 0.76897 0.0
C1967 C 0.67857 0.94501 0.76185 0.0
H1968 H 0.64391 0.53462 0.96506 0.0
H1969 H 0.59557 0.56729 0.98974 0.0
H1970 H 0.61853 0.59596 0.99644 0.0
H1971 H 0.68044 0.55238 1.00056 0.0
H1972 H 0.70039 0.55352 0.98287 0.0
H1973 H 0.67998 0.53593 0.9791 0.0
H1974 H 0.67368 0.5499 0.94409 0.0
H1975 H 0.69407 0.56758 0.94777 0.0
H1976 H 0.66981 0.57588 0.94161 0.0
H1977 H 0.64657 0.6209 1.00057 0.0
H1978 H 0.67831 0.63991 0.00391 0.0
H1979 H 0.70888 0.59075 0.97753 0.0
C1980 C 0.63818 0.54789 0.97171 0.0
C1981 C 0.61799 0.54882 0.97686 0.0
C1982 C 0.61103 0.56629 0.98582 0.0
C1983 C 0.62392 0.58265 0.98956 0.0
C1984 C 0.64375 0.58127 0.98437 0.0
C1985 C 0.65091 0.56431 0.97577 0.0
C1986 C 0.67306 0.56641 0.97246 0.0
C1987 C 0.68411 0.55116 0.98447 0.0
C1988 C 0.67794 0.56485 0.95016 0.0
C1989 C 0.67723 0.58717 0.98063 0.0
C1990 C 0.66007 0.59552 0.98722 0.0
C1991 C 0.66012 0.61453 0.99546 0.0
C1992 C 0.67824 0.62522 0.99726 0.0
C1993 C 0.6961 0.61683 0.99101 0.0
C1994 C 0.69549 0.59759 0.98244 0.0
H1995 H 0.20825 0.63443 0.22429 0.0
H1996 H 0.26029 0.60255 0.20704 0.0
H1997 H 0.24168 0.57117 0.21155 0.0
H1998 H 0.18932 0.60161 0.26027 0.0
H1999 H 0.16374 0.60367 0.25312 0.0
H2000 H 0.18124 0.6239 0.24916 0.0
H2001 H 0.17197 0.62359 0.21163 0.0
H2002 H 0.15432 0.60345 0.21551 0.0
H2003 H 0.17347 0.60102 0.19715 0.0
H2004 H 0.21818 0.54311 0.22022 0.0
H2005 H 0.18992 0.52033 0.22817 0.0
H2006 H 0.15209 0.57011 0.23526 0.0
C2007 C 0.21577 0.62096 0.22108 0.0
C2008 C 0.23603 0.62125 0.21568 0.0
C2009 C 0.24508 0.603 0.2119 0.0
C2010 C 0.23456 0.58498 0.21422 0.0
C2011 C 0.21479 0.58532 0.21984 0.0
C2012 C 0.20535 0.60281 0.2228 0.0
C2013 C 0.18376 0.59903 0.22807 0.0
C2014 C 0.17926 0.60756 0.24889 0.0
C2015 C 0.17007 0.60726 0.21214 0.0
C2016 C 0.18265 0.57667 0.22783 0.0
C2017 C 0.2008 0.56907 0.22334 0.0
C2018 C 0.2038 0.54886 0.22342 0.0
C2019 C 0.18774 0.53606 0.22803 0.0
C2020 C 0.16889 0.54352 0.23205 0.0
C2021 C 0.16632 0.56407 0.23188 0.0
H2022 H 0.89729 0.55921 0.01126 0.0
H2023 H 0.86506 0.51783 0.04877 0.0
H2024 H 0.83488 0.53671 0.04479 0.0
H2025 H 0.87368 0.60295 0.02934 0.0
H2026 H 0.87316 0.61426 0.0053 0.0
H2027 H 0.89233 0.59756 0.01115 0.0
H2028 H 0.88271 0.57614 0.9799 0.0
H2029 H 0.86347 0.59274 0.97398 0.0
H2030 H 0.8575 0.56682 0.97677 0.0
H2031 H 0.80807 0.55926 0.03607 0.0
H2032 H 0.78647 0.58513 0.02451 0.0
H2033 H 0.83595 0.61252 0.99296 0.0
C2034 C 0.88386 0.55412 0.0186 0.0
C2035 C 0.88354 0.53708 0.0304 0.0
C2036 C 0.86573 0.53099 0.0399 0.0
C2037 C 0.84848 0.54154 0.03762 0.0
C2038 C 0.84928 0.55821 0.02585 0.0
C2039 C 0.8665 0.56457 0.01659 0.0
C2040 C 0.86331 0.5831 0.00491 0.0
C2041 C 0.8764 0.6005 0.01318 0.0
C2042 C 0.86696 0.57948 0.98256 0.0
C2043 C 0.84158 0.58609 0.00901 0.0
C2044 C 0.83379 0.57147 0.02105 0.0
C2045 C 0.814 0.57084 0.0267 0.0
C2046 C 0.80184 0.5856 0.02 0.0
C2047 C 0.80949 0.60092 0.00785 0.0
C2048 C 0.82966 0.60108 0.00229 0.0
H2049 H 0.11399 0.97864 0.01253 0.0
H2050 H 0.14353 0.0145 0.05901 0.0
H2051 H 0.17244 0.99353 0.05697 0.0
H2052 H 0.13086 0.93239 0.02784 0.0
H2053 H 0.13432 0.92266 0.00297 0.0
H2054 H 0.11605 0.94082 0.00752 0.0
H2055 H 0.13236 0.96339 0.98108 0.0
H2056 H 0.1506 0.94523 0.97633 0.0
H2057 H 0.15837 0.97019 0.98318 0.0
H2058 H 0.19751 0.96808 0.05099 0.0
H2059 H 0.21797 0.94057 0.04033 0.0
H2060 H 0.17276 0.92149 0.99701 0.0
C2061 C 0.12666 0.98227 0.02205 0.0
C2062 C 0.12641 0.99817 0.03603 0.0
C2063 C 0.14322 0.00223 0.04842 0.0
C2064 C 0.15977 0.99047 0.0473 0.0
C2065 C 0.15938 0.97474 0.03363 0.0
C2066 C 0.14336 0.97069 0.0211 0.0
C2067 C 0.1467 0.95271 0.00792 0.0
C2068 C 0.13105 0.93617 0.0118 0.0
C2069 C 0.14703 0.95821 0.98582 0.0
C2070 C 0.16703 0.94722 0.01513 0.0
C2071 C 0.17403 0.96013 0.02998 0.0
C2072 C 0.19226 0.95794 0.03928 0.0
C2073 C 0.20375 0.94221 0.03315 0.0
C2074 C 0.19702 0.92886 0.0178 0.0
C2075 C 0.17837 0.93146 0.00873 0.0
loop_
_geom_bond_atom_site_label_1
_geom_bond_atom_site_label_2
_geom_bond_distance
_geom_bond_site_symmetry_2
_ccdc_geom_bond_type
C0 C1 1.386 . S
C0 C2 1.397 . S
C0 H24 0.931 . S
C1 C0 1.386 . S
C1 C5 1.397 1_556 S
C2 C0 1.397 . S
C2 C3 1.384 1_556 S
C2 H25 0.930 . S
C3 C2 1.384 1_554 S
C3 C4 1.377 . S
C3 C6 1.481 . S
C4 C3 1.377 . S
C4 C5 1.389 . S
C4 H26 0.929 . S
C5 C1 1.397 1_554 S
C5 C4 1.389 . S
C5 H27 0.931 . S
C6 C3 1.481 . S
C6 C7 1.387 . S
C6 C11 1.390 . S
C7 C6 1.387 . S
C7 C8 1.401 . S
C7 H28 0.930 . S
C8 C7 1.401 . S
C8 C9 1.376 . S
C8 C17 1.511 . S
C9 C8 1.376 . S
C9 C10 1.392 . S
C9 H30 0.931 . S
C10 C9 1.392 . S
C10 C11 1.361 . S
C10 C12 1.500 . S
C11 C6 1.390 . S
C11 C10 1.361 . S
C11 H29 0.931 . S
C12 C10 1.500 . S
C12 C13 1.371 . S
C12 C14 1.365 . S
C13 C12 1.371 . S
C13 C23 1.386 1_455 S
C13 H31 0.931 . S
C14 C12 1.365 . S
C14 C15 1.409 1_455 S
C14 H32 0.929 . S
C15 C14 1.409 1_655 S
C15 C16 1.380 . S
C15 H33 0.930 . S
C16 C15 1.380 . S
C16 C23 1.357 . S
C17 C8 1.511 . S
C17 C18 1.341 . S
C17 C19 1.371 . S
C18 C17 1.341 . S
C18 C22 1.394 . S
C18 H34 0.930 . S
C19 C17 1.371 . S
C19 C20 1.392 1_545 S
C19 H35 0.931 . S
C20 C19 1.392 1_565 S
C20 C21 1.331 . S
C20 H38 0.932 . S
C21 C20 1.331 . S
C21 C22 1.336 1_565 S
C22 C18 1.394 . S
C22 C21 1.336 1_545 S
C22 H37 0.929 . S
C23 C13 1.386 1_655 S
C23 C16 1.357 . S
C23 H36 0.928 . S
H24 C0 0.931 . S
H25 C2 0.930 . S
H26 C4 0.929 . S
H27 C5 0.931 . S
H28 C7 0.930 . S
H29 C11 0.931 . S
H30 C9 0.931 . S
H31 C13 0.931 . S
H32 C14 0.929 . S
H33 C15 0.930 . S
H34 C18 0.930 . S
H35 C19 0.931 . S
H36 C23 0.928 . S
H37 C22 0.929 . S
H38 C20 0.932 . S
C39 C40 1.386 . S
C39 C41 1.397 . S
C39 H63 0.931 . S
C40 C39 1.386 . S
C40 C44 1.397 . S
C41 C39 1.397 . S
C41 C42 1.384 . S
C41 H64 0.930 . S
C42 C41 1.384 . S
C42 C43 1.377 . S
C42 C45 1.481 . S
C43 C42 1.377 . S
C43 C44 1.389 . S
C43 H65 0.929 . S
C44 C40 1.397 . S
C44 C43 1.389 . S
C44 H66 0.931 . S
C45 C42 1.481 . S
C45 C46 1.387 . S
C45 C50 1.390 . S
C46 C45 1.387 . S
C46 C47 1.401 . S
C46 H67 0.930 . S
C47 C46 1.401 . S
C47 C48 1.376 . S
C47 C56 1.511 . S
C48 C47 1.376 . S
C48 C49 1.392 . S
C48 H69 0.931 . S
C49 C48 1.392 . S
C49 C50 1.361 . S
C49 C51 1.500 . S
C50 C45 1.390 . S
C50 C49 1.361 . S
C50 H68 0.931 . S
C51 C49 1.500 . S
C51 C52 1.371 . S
C51 C53 1.365 . S
C52 C51 1.371 . S
C52 C62 1.386 . S
C52 H70 0.931 . S
C53 C51 1.365 . S
C53 C54 1.409 . S
C53 H71 0.929 . S
C54 C53 1.409 . S
C54 C55 1.380 . S
C54 H72 0.930 . S
C55 C54 1.380 . S
C55 C62 1.357 . S
C56 C47 1.511 . S
C56 C57 1.341 . S
C56 C58 1.371 . S
C57 C56 1.341 . S
C57 C61 1.394 . S
C57 H73 0.930 . S
C58 C56 1.371 . S
C58 C59 1.392 . S
C58 H74 0.931 . S
C59 C58 1.392 . S
C59 C60 1.331 . S
C59 H77 0.932 . S
C60 C59 1.331 . S
C60 C61 1.336 . S
C61 C57 1.394 . S
C61 C60 1.336 . S
C61 H76 0.929 . S
C62 C52 1.386 . S
C62 C55 1.357 . S
C62 H75 0.928 . S
H63 C39 0.931 . S
H64 C41 0.930 . S
H65 C43 0.929 . S
H66 C44 0.931 . S
H67 C46 0.930 . S
H68 C50 0.931 . S
H69 C48 0.931 . S
H70 C52 0.931 . S
H71 C53 0.929 . S
H72 C54 0.930 . S
H73 C57 0.930 . S
H74 C58 0.931 . S
H75 C62 0.928 . S
H76 C61 0.929 . S
H77 C59 0.932 . S
C78 C79 1.386 1_655 S
C78 C80 1.397 . S
C78 H102 0.931 . S
C79 C78 1.386 1_455 S
C79 C83 1.397 . S
C80 C78 1.397 . S
C80 C81 1.384 . S
C80 H103 0.930 . S
C81 C80 1.384 . S
C81 C82 1.377 1_655 S
C81 C84 1.481 . S
C82 C81 1.377 1_455 S
C82 C83 1.389 . S
C82 H104 0.929 . S
C83 C79 1.397 . S
C83 C82 1.389 . S
C83 H105 0.931 . S
C84 C81 1.481 . S
C84 C85 1.387 . S
C84 C89 1.390 . S
C85 C84 1.387 . S
C85 C86 1.401 . S
C85 H106 0.930 . S
C86 C85 1.401 . S
C86 C87 1.376 . S
C86 C95 1.511 . S
C87 C86 1.376 . S
C87 C88 1.392 . S
C87 H108 0.931 . S
C88 C87 1.392 . S
C88 C89 1.361 . S
C88 C90 1.500 . S
C89 C84 1.390 . S
C89 C88 1.361 . S
C89 H107 0.931 . S
C90 C88 1.500 . S
C90 C91 1.370 . S
C90 C92 1.365 . S
C91 C90 1.370 . S
C91 C101 1.388 1_554 S
C91 H109 0.930 . S
C92 C90 1.365 . S
C92 C93 1.409 1_554 S
C92 H110 0.929 1_655 S
C93 C92 1.409 1_556 S
C93 C94 1.380 . S
C93 H111 0.930 1_655 S
C94 C93 1.380 . S
C94 C101 1.357 . S
C95 C86 1.511 . S
C95 C96 1.341 . S
C95 C97 1.371 . S
C96 C95 1.341 . S
C96 C100 1.394 . S
C96 H112 0.930 . S
C97 C95 1.371 . S
C97 C98 1.392 . S
C97 H113 0.931 . S
C98 C97 1.392 . S
C98 C99 1.331 . S
C98 H116 0.932 1_554 S
C99 C98 1.331 . S
C99 C100 1.336 . S
C100 C96 1.394 . S
C100 C99 1.336 . S
C100 H115 0.929 . S
C101 C91 1.388 1_556 S
C101 C94 1.357 . S
C101 H114 0.928 . S
H102 C78 0.931 . S
H103 C80 0.930 . S
H104 C82 0.929 . S
H105 C83 0.931 . S
H106 C85 0.930 . S
H107 C89 0.931 . S
H108 C87 0.931 . S
H109 C91 0.930 . S
H110 C92 0.929 1_455 S
H111 C93 0.930 1_455 S
H112 C96 0.930 . S
H113 C97 0.931 . S
H114 C101 0.928 . S
H115 C100 0.929 . S
H116 C98 0.932 1_556 S
C117 C118 1.386 . S
C117 C119 1.397 . S
C117 H141 0.931 . S
C118 C117 1.386 . S
C118 C122 1.397 . S
C119 C117 1.397 . S
C119 C120 1.384 . S
C119 H142 0.930 . S
C120 C119 1.384 . S
C120 C121 1.377 . S
C120 C123 1.481 . S
C121 C120 1.377 . S
C121 C122 1.389 . S
C121 H143 0.929 . S
C122 C118 1.397 . S
C122 C121 1.389 . S
C122 H144 0.931 . S
C123 C120 1.481 . S
C123 C124 1.387 . S
C123 C128 1.390 . S
C124 C123 1.387 . S
C124 C125 1.401 . S
C124 H145 0.930 . S
C125 C124 1.401 . S
C125 C126 1.376 . S
C125 C134 1.511 . S
C126 C125 1.376 . S
C126 C127 1.392 . S
C126 H147 0.931 . S
C127 C126 1.392 . S
C127 C128 1.361 . S
C127 C129 1.500 . S
C128 C123 1.390 . S
C128 C127 1.361 . S
C128 H146 0.931 . S
C129 C127 1.500 . S
C129 C130 1.371 . S
C129 C131 1.365 . S
C130 C129 1.371 . S
C130 C140 1.386 . S
C130 H148 0.931 . S
C131 C129 1.365 . S
C131 C132 1.409 . S
C131 H149 0.929 . S
C132 C131 1.409 . S
C132 C133 1.380 . S
C132 H150 0.930 . S
C133 C132 1.380 . S
C133 C140 1.357 . S
C134 C125 1.511 . S
C134 C135 1.341 . S
C134 C136 1.371 . S
C135 C134 1.341 . S
C135 C139 1.394 . S
C135 H151 0.930 . S
C136 C134 1.371 . S
C136 C137 1.392 . S
C136 H152 0.931 . S
C137 C136 1.392 . S
C137 C138 1.331 . S
C137 H155 0.932 . S
C138 C137 1.331 . S
C138 C139 1.336 . S
C139 C135 1.394 . S
C139 C138 1.336 . S
C139 H154 0.929 . S
C140 C130 1.386 . S
C140 C133 1.357 . S
C140 H153 0.928 . S
H141 C117 0.931 . S
H142 C119 0.930 . S
H143 C121 0.929 . S
H144 C122 0.931 . S
H145 C124 0.930 . S
H146 C128 0.931 . S
H147 C126 0.931 . S
H148 C130 0.931 . S
H149 C131 0.929 . S
H150 C132 0.930 . S
H151 C135 0.930 . S
H152 C136 0.931 . S
H153 C140 0.928 . S
H154 C139 0.929 . S
H155 C137 0.932 . S
C156 C157 1.386 . S
C156 C158 1.397 . S
C156 H180 0.931 . S
C157 C156 1.386 . S
C157 C161 1.397 1_655 S
C158 C156 1.397 . S
C158 C159 1.384 1_655 S
C158 H181 0.930 . S
C159 C158 1.384 1_455 S
C159 C160 1.377 . S
C159 C162 1.481 . S
C160 C159 1.377 . S
C160 C161 1.389 . S
C160 H182 0.929 . S
C161 C157 1.397 1_455 S
C161 C160 1.389 . S
C161 H183 0.931 . S
C162 C159 1.481 . S
C162 C163 1.387 . S
C162 C167 1.390 . S
C163 C162 1.387 . S
C163 C164 1.401 . S
C163 H184 0.930 . S
C164 C163 1.401 . S
C164 C165 1.376 . S
C164 C173 1.511 . S
C165 C164 1.376 . S
C165 C166 1.392 . S
C165 H186 0.931 . S
C166 C165 1.392 . S
C166 C167 1.361 . S
C166 C168 1.527 . S
C167 C162 1.390 . S
C167 C166 1.361 . S
C167 H185 0.978 . S
C168 C166 1.527 . S
C168 C169 1.364 1_565 S
C168 C170 1.345 1_565 S
C169 C168 1.364 1_545 S
C169 C179 1.386 . S
C169 H187 0.931 1_545 S
C170 C168 1.345 1_545 S
C170 C171 1.409 . S
C170 H188 0.929 . S
C171 C170 1.409 . S
C171 C172 1.380 . S
C171 H189 0.930 . S
C172 C171 1.380 . S
C172 C179 1.357 . S
C173 C164 1.511 . S
C173 C174 1.341 . S
C173 C175 1.371 . S
C174 C173 1.341 . S
C174 C178 1.394 . S
C174 H190 0.930 . S
C175 C173 1.371 . S
C175 C176 1.392 . S
C175 H191 0.931 . S
C176 C175 1.392 . S
C176 C177 1.331 . S
C176 H194 0.932 . S
C177 C176 1.331 . S
C177 C178 1.336 . S
C178 C174 1.394 . S
C178 C177 1.336 . S
C178 H193 0.929 1_455 S
C179 C169 1.386 . S
C179 C172 1.357 . S
C179 H192 0.928 . S
H180 C156 0.931 . S
H181 C158 0.930 . S
H182 C160 0.929 . S
H183 C161 0.931 . S
H184 C163 0.930 . S
H185 C167 0.978 . S
H186 C165 0.931 . S
H187 C169 0.931 1_565 S
H188 C170 0.929 . S
H189 C171 0.930 . S
H190 C174 0.930 . S
H191 C175 0.931 . S
H192 C179 0.928 . S
H193 C178 0.929 1_655 S
H194 C176 0.932 . S
C195 C196 1.386 . S
C195 C197 1.397 . S
C195 H219 0.931 . S
C196 C195 1.386 . S
C196 C200 1.397 . S
C197 C195 1.397 . S
C197 C198 1.384 . S
C197 H220 0.930 . S
C198 C197 1.384 . S
C198 C199 1.377 . S
C198 C201 1.481 . S
C199 C198 1.377 . S
C199 C200 1.389 . S
C199 H221 0.929 . S
C200 C196 1.397 . S
C200 C199 1.389 . S
C200 H222 0.931 . S
C201 C198 1.481 . S
C201 C202 1.387 . S
C201 C206 1.390 . S
C202 C201 1.387 . S
C202 C203 1.401 . S
C202 H223 0.930 . S
C203 C202 1.401 . S
C203 C204 1.376 . S
C203 C212 1.511 . S
C204 C203 1.376 . S
C204 C205 1.392 . S
C204 H225 0.931 . S
C205 C204 1.392 . S
C205 C206 1.361 . S
C205 C207 1.500 . S
C206 C201 1.390 . S
C206 C205 1.361 . S
C206 H224 0.931 . S
C207 C205 1.500 . S
C207 C208 1.371 . S
C207 C209 1.365 . S
C208 C207 1.371 . S
C208 C218 1.386 . S
C208 H226 0.931 . S
C209 C207 1.365 . S
C209 C210 1.409 . S
C209 H227 0.929 . S
C210 C209 1.409 . S
C210 C211 1.380 . S
C210 H228 0.930 . S
C211 C210 1.380 . S
C211 C218 1.357 . S
C212 C203 1.511 . S
C212 C213 1.341 . S
C212 C214 1.371 . S
C213 C212 1.341 . S
C213 C217 1.394 . S
C213 H229 0.930 . S
C214 C212 1.371 . S
C214 C215 1.392 . S
C214 H230 0.931 . S
C215 C214 1.392 . S
C215 C216 1.331 . S
C215 H233 0.932 . S
C216 C215 1.331 . S
C216 C217 1.336 . S
C217 C213 1.394 . S
C217 C216 1.336 . S
C217 H232 0.929 . S
C218 C208 1.386 . S
C218 C211 1.357 . S
C218 H231 0.928 . S
H219 C195 0.931 . S
H220 C197 0.930 . S
H221 C199 0.929 . S
H222 C200 0.931 . S
H223 C202 0.930 . S
H224 C206 0.931 . S
H225 C204 0.931 . S
H226 C208 0.931 . S
H227 C209 0.929 . S
H228 C210 0.930 . S
H229 C213 0.930 . S
H230 C214 0.931 . S
H231 C218 0.928 . S
H232 C217 0.929 . S
H233 C215 0.932 . S
C234 C235 1.386 . S
C234 C236 1.397 . S
C234 H258 0.931 . S
C235 C234 1.386 . S
C235 C239 1.397 . S
C236 C234 1.397 . S
C236 C237 1.384 . S
C236 H259 0.930 . S
C237 C236 1.384 . S
C237 C238 1.377 . S
C237 C240 1.481 . S
C238 C237 1.377 . S
C238 C239 1.389 . S
C238 H260 0.929 . S
C239 C235 1.397 . S
C239 C238 1.389 . S
C239 H261 0.931 . S
C240 C237 1.481 . S
C240 C241 1.387 . S
C240 C245 1.390 . S
C241 C240 1.387 . S
C241 C242 1.401 . S
C241 H262 0.930 . S
C242 C241 1.401 . S
C242 C243 1.376 . S
C242 C251 1.511 . S
C243 C242 1.376 . S
C243 C244 1.392 . S
C243 H264 0.931 . S
C244 C243 1.392 . S
C244 C245 1.361 . S
C244 C246 1.500 . S
C245 C240 1.390 . S
C245 C244 1.361 . S
C245 H263 0.931 . S
C246 C244 1.500 . S
C246 C247 1.371 . S
C246 C248 1.365 . S
C247 C246 1.371 . S
C247 C257 1.386 . S
C247 H265 0.931 . S
C248 C246 1.365 . S
C248 C249 1.409 . S
C248 H266 0.929 . S
C249 C248 1.409 . S
C249 C250 1.380 . S
C249 H267 0.930 . S
C250 C249 1.380 . S
C250 C257 1.357 . S
C251 C242 1.511 . S
C251 C252 1.341 1_655 S
C251 C253 1.371 . S
C252 C251 1.341 1_455 S
C252 C256 1.394 . S
C252 H268 0.930 . S
C253 C251 1.371 . S
C253 C254 1.392 1_655 S
C253 H269 0.931 . S
C254 C253 1.392 1_455 S
C254 C255 1.331 . S
C254 H272 0.932 . S
C255 C254 1.331 . S
C255 C256 1.336 . S
C256 C252 1.394 . S
C256 C255 1.336 . S
C256 H271 0.929 . S
C257 C247 1.386 . S
C257 C250 1.357 . S
C257 H270 0.928 . S
H258 C234 0.931 . S
H259 C236 0.930 . S
H260 C238 0.929 . S
H261 C239 0.931 . S
H262 C241 0.930 . S
H263 C245 0.931 . S
H264 C243 0.931 . S
H265 C247 0.931 . S
H266 C248 0.929 . S
H267 C249 0.930 . S
H268 C252 0.930 . S
H269 C253 0.931 . S
H270 C257 0.928 . S
H271 C256 0.929 . S
H272 C254 0.932 . S
C273 C274 1.386 . S
C273 C275 1.397 . S
C273 H297 0.931 . S
C274 C273 1.386 . S
C274 C278 1.397 . S
C275 C273 1.397 . S
C275 C276 1.384 . S
C275 H298 0.930 . S
C276 C275 1.384 . S
C276 C277 1.377 . S
C276 C279 1.481 . S
C277 C276 1.377 . S
C277 C278 1.389 . S
C277 H299 0.929 . S
C278 C274 1.397 . S
C278 C277 1.389 . S
C278 H300 0.931 . S
C279 C276 1.481 . S
C279 C280 1.387 . S
C279 C284 1.390 . S
C280 C279 1.387 . S
C280 C281 1.401 . S
C280 H301 0.930 . S
C281 C280 1.401 . S
C281 C282 1.376 . S
C281 C290 1.511 . S
C282 C281 1.376 . S
C282 C283 1.392 . S
C282 H303 0.931 . S
C283 C282 1.392 . S
C283 C284 1.361 . S
C283 C285 1.500 . S
C284 C279 1.390 . S
C284 C283 1.361 . S
C284 H302 0.931 . S
C285 C283 1.500 . S
C285 C286 1.371 . S
C285 C287 1.365 . S
C286 C285 1.371 . S
C286 C296 1.386 . S
C286 H304 0.931 . S
C287 C285 1.365 . S
C287 C288 1.409 . S
C287 H305 0.929 . S
C288 C287 1.409 . S
C288 C289 1.380 . S
C288 H306 0.930 . S
C289 C288 1.380 . S
C289 C296 1.357 . S
C290 C281 1.511 . S
C290 C291 1.341 . S
C290 C292 1.371 . S
C291 C290 1.341 . S
C291 C295 1.394 . S
C291 H307 0.930 . S
C292 C290 1.371 . S
C292 C293 1.392 . S
C292 H308 0.931 . S
C293 C292 1.392 . S
C293 C294 1.331 . S
C293 H311 0.932 . S
C294 C293 1.331 . S
C294 C295 1.336 . S
C295 C291 1.394 . S
C295 C294 1.336 . S
C295 H310 0.929 . S
C296 C286 1.386 . S
C296 C289 1.357 . S
C296 H309 0.928 . S
H297 C273 0.931 . S
H298 C275 0.930 . S
H299 C277 0.929 . S
H300 C278 0.931 . S
H301 C280 0.930 . S
H302 C284 0.931 . S
H303 C282 0.931 . S
H304 C286 0.931 . S
H305 C287 0.929 . S
H306 C288 0.930 . S
H307 C291 0.930 . S
H308 C292 0.931 . S
H309 C296 0.928 . S
H310 C295 0.929 . S
H311 C293 0.932 . S
C312 C313 1.386 . S
C312 C314 1.397 . S
C312 H336 0.931 . S
C313 C312 1.386 . S
C313 C317 1.397 . S
C314 C312 1.397 . S
C314 C315 1.384 . S
C314 H337 0.930 . S
C315 C314 1.384 . S
C315 C316 1.377 . S
C315 C318 1.481 . S
C316 C315 1.377 . S
C316 C317 1.389 . S
C316 H338 0.929 . S
C317 C313 1.397 . S
C317 C316 1.389 . S
C317 H339 0.931 . S
C318 C315 1.481 . S
C318 C319 1.387 . S
C318 C323 1.390 . S
C319 C318 1.387 . S
C319 C320 1.401 . S
C319 H340 0.930 . S
C320 C319 1.401 . S
C320 C321 1.376 . S
C320 C329 1.511 . S
C321 C320 1.376 . S
C321 C322 1.392 . S
C321 H342 0.931 . S
C322 C321 1.392 . S
C322 C323 1.361 . S
C322 C324 1.500 . S
C323 C318 1.390 . S
C323 C322 1.361 . S
C323 H341 0.931 . S
C324 C322 1.500 . S
C324 C325 1.371 . S
C324 C326 1.365 . S
C325 C324 1.371 . S
C325 C335 1.386 . S
C325 H343 0.931 . S
C326 C324 1.365 . S
C326 C327 1.409 . S
C326 H344 0.929 . S
C327 C326 1.409 . S
C327 C328 1.380 . S
C327 H345 0.930 . S
C328 C327 1.380 . S
C328 C335 1.357 . S
C329 C320 1.511 . S
C329 C330 1.341 . S
C329 C331 1.371 . S
C330 C329 1.341 . S
C330 C334 1.394 . S
C330 H346 0.930 . S
C331 C329 1.371 . S
C331 C332 1.392 . S
C331 H347 0.931 . S
C332 C331 1.392 . S
C332 C333 1.331 . S
C332 H350 0.932 . S
C333 C332 1.331 . S
C333 C334 1.336 . S
C334 C330 1.394 . S
C334 C333 1.336 . S
C334 H349 0.929 . S
C335 C325 1.386 . S
C335 C328 1.357 . S
C335 H348 0.928 . S
H336 C312 0.931 . S
H337 C314 0.930 . S
H338 C316 0.929 . S
H339 C317 0.931 . S
H340 C319 0.930 . S
H341 C323 0.931 . S
H342 C321 0.931 . S
H343 C325 0.931 . S
H344 C326 0.929 . S
H345 C327 0.930 . S
H346 C330 0.930 . S
H347 C331 0.931 . S
H348 C335 0.928 . S
H349 C334 0.929 . S
H350 C332 0.932 . S
C351 C352 1.386 . S
C351 C353 1.397 . S
C351 H375 0.931 . S
C352 C351 1.386 . S
C352 C356 1.397 . S
C353 C351 1.397 . S
C353 C354 1.384 . S
C353 H376 0.930 . S
C354 C353 1.384 . S
C354 C355 1.377 . S
C354 C357 1.481 . S
C355 C354 1.377 . S
C355 C356 1.389 . S
C355 H377 0.929 . S
C356 C352 1.397 . S
C356 C355 1.389 . S
C356 H378 0.931 . S
C357 C354 1.481 . S
C357 C358 1.387 . S
C357 C362 1.390 . S
C358 C357 1.387 . S
C358 C359 1.401 . S
C358 H379 0.930 . S
C359 C358 1.401 . S
C359 C360 1.376 . S
C359 C368 1.511 . S
C360 C359 1.376 . S
C360 C361 1.392 . S
C360 H381 0.931 . S
C361 C360 1.392 . S
C361 C362 1.361 . S
C361 C363 1.500 . S
C362 C357 1.390 . S
C362 C361 1.361 . S
C362 H380 0.931 . S
C363 C361 1.500 . S
C363 C364 1.371 . S
C363 C365 1.365 . S
C364 C363 1.371 . S
C364 C374 1.386 . S
C364 H382 0.931 . S
C365 C363 1.365 . S
C365 C366 1.409 . S
C365 H383 0.929 . S
C366 C365 1.409 . S
C366 C367 1.380 . S
C366 H384 0.930 . S
C367 C366 1.380 . S
C367 C374 1.357 . S
C368 C359 1.511 . S
C368 C369 1.341 1_565 S
C368 C370 1.371 . S
C369 C368 1.341 1_545 S
C369 C373 1.394 . S
C369 H385 0.930 . S
C370 C368 1.371 . S
C370 C371 1.392 1_565 S
C370 H386 0.931 . S
C371 C370 1.392 1_545 S
C371 C372 1.331 . S
C371 H389 0.932 . S
C372 C371 1.331 . S
C372 C373 1.336 . S
C373 C369 1.394 . S
C373 C372 1.336 . S
C373 H388 0.929 . S
C374 C364 1.386 . S
C374 C367 1.357 . S
C374 H387 0.928 . S
H375 C351 0.931 . S
H376 C353 0.930 . S
H377 C355 0.929 . S
H378 C356 0.931 . S
H379 C358 0.930 . S
H380 C362 0.931 . S
H381 C360 0.931 . S
H382 C364 0.931 . S
H383 C365 0.929 . S
H384 C366 0.930 . S
H385 C369 0.930 . S
H386 C370 0.931 . S
H387 C374 0.928 . S
H388 C373 0.929 . S
H389 C371 0.932 . S
C390 C391 1.386 . S
C390 C392 1.397 . S
C390 H414 0.931 . S
C391 C390 1.386 . S
C391 C395 1.397 . S
C392 C390 1.397 . S
C392 C393 1.384 . S
C392 H415 0.930 . S
C393 C392 1.384 . S
C393 C394 1.377 . S
C393 C396 1.481 . S
C394 C393 1.377 . S
C394 C395 1.389 . S
C394 H416 0.929 . S
C395 C391 1.397 . S
C395 C394 1.389 . S
C395 H417 0.931 . S
C396 C393 1.481 . S
C396 C397 1.387 . S
C396 C401 1.390 . S
C397 C396 1.387 . S
C397 C398 1.401 . S
C397 H418 0.930 . S
C398 C397 1.401 . S
C398 C399 1.376 . S
C398 C407 1.511 . S
C399 C398 1.376 . S
C399 C400 1.392 . S
C399 H420 0.931 . S
C400 C399 1.392 . S
C400 C401 1.361 . S
C400 C402 1.500 . S
C401 C396 1.390 . S
C401 C400 1.361 . S
C401 H419 0.931 . S
C402 C400 1.500 . S
C402 C403 1.371 . S
C402 C404 1.365 . S
C403 C402 1.371 . S
C403 C413 1.386 . S
C403 H421 0.931 . S
C404 C402 1.365 . S
C404 C405 1.409 . S
C404 H422 0.929 . S
C405 C404 1.409 . S
C405 C406 1.380 . S
C405 H423 0.930 . S
C406 C405 1.380 . S
C406 C413 1.357 . S
C407 C398 1.511 . S
C407 C408 1.341 . S
C407 C409 1.371 . S
C408 C407 1.341 . S
C408 C412 1.394 . S
C408 H424 0.930 . S
C409 C407 1.371 . S
C409 C410 1.392 . S
C409 H425 0.931 . S
C410 C409 1.392 . S
C410 C411 1.331 . S
C410 H428 0.932 . S
C411 C410 1.331 . S
C411 C412 1.336 . S
C412 C408 1.394 . S
C412 C411 1.336 . S
C412 H427 0.929 . S
C413 C403 1.386 . S
C413 C406 1.357 . S
C413 H426 0.928 . S
H414 C390 0.931 . S
H415 C392 0.930 . S
H416 C394 0.929 . S
H417 C395 0.931 . S
H418 C397 0.930 . S
H419 C401 0.931 . S
H420 C399 0.931 . S
H421 C403 0.931 . S
H422 C404 0.929 . S
H423 C405 0.930 . S
H424 C408 0.930 . S
H425 C409 0.931 . S
H426 C413 0.928 . S
H427 C412 0.929 . S
H428 C410 0.932 . S
C429 C430 1.386 . S
C429 C431 1.397 . S
C429 H453 0.931 . S
C430 C429 1.386 . S
C430 C434 1.397 . S
C431 C429 1.397 . S
C431 C432 1.384 . S
C431 H454 0.930 . S
C432 C431 1.384 . S
C432 C433 1.377 . S
C432 C435 1.481 . S
C433 C432 1.377 . S
C433 C434 1.389 . S
C433 H455 0.929 . S
C434 C430 1.397 . S
C434 C433 1.389 . S
C434 H456 0.931 . S
C435 C432 1.481 . S
C435 C436 1.387 . S
C435 C440 1.390 . S
C436 C435 1.387 . S
C436 C437 1.401 . S
C436 H457 0.930 . S
C437 C436 1.401 . S
C437 C438 1.376 . S
C437 C446 1.511 . S
C438 C437 1.376 . S
C438 C439 1.392 . S
C438 H459 0.931 . S
C439 C438 1.392 . S
C439 C440 1.361 . S
C439 C441 1.500 . S
C440 C435 1.390 . S
C440 C439 1.361 . S
C440 H458 0.931 . S
C441 C439 1.500 . S
C441 C442 1.371 . S
C441 C443 1.365 . S
C442 C441 1.371 . S
C442 C452 1.386 . S
C442 H460 0.931 . S
C443 C441 1.365 . S
C443 C444 1.409 . S
C443 H461 0.929 . S
C444 C443 1.409 . S
C444 C445 1.380 . S
C444 H462 0.930 . S
C445 C444 1.380 . S
C445 C452 1.357 . S
C446 C437 1.511 . S
C446 C447 1.341 . S
C446 C448 1.371 . S
C447 C446 1.341 . S
C447 C451 1.394 . S
C447 H463 0.930 . S
C448 C446 1.371 . S
C448 C449 1.392 . S
C448 H464 0.931 . S
C449 C448 1.392 . S
C449 C450 1.331 . S
C449 H467 0.932 . S
C450 C449 1.331 . S
C450 C451 1.336 . S
C451 C447 1.394 . S
C451 C450 1.336 . S
C451 H466 0.929 . S
C452 C442 1.386 . S
C452 C445 1.357 . S
C452 H465 0.928 . S
H453 C429 0.931 . S
H454 C431 0.930 . S
H455 C433 0.929 . S
H456 C434 0.931 . S
H457 C436 0.930 . S
H458 C440 0.931 . S
H459 C438 0.931 . S
H460 C442 0.931 . S
H461 C443 0.929 . S
H462 C444 0.930 . S
H463 C447 0.930 . S
H464 C448 0.931 . S
H465 C452 0.928 . S
H466 C451 0.929 . S
H467 C449 0.932 . S
C468 C469 1.386 . S
C468 C470 1.397 . S
C468 H492 0.931 . S
C469 C468 1.386 . S
C469 C473 1.397 . S
C470 C468 1.397 . S
C470 C471 1.384 . S
C470 H493 0.930 . S
C471 C470 1.384 . S
C471 C472 1.377 . S
C471 C474 1.481 . S
C472 C471 1.377 . S
C472 C473 1.389 . S
C472 H494 0.929 . S
C473 C469 1.397 . S
C473 C472 1.389 . S
C473 H495 0.931 . S
C474 C471 1.481 . S
C474 C475 1.387 . S
C474 C479 1.390 . S
C475 C474 1.387 . S
C475 C476 1.401 . S
C475 H496 0.930 . S
C476 C475 1.401 . S
C476 C477 1.376 . S
C476 C485 1.511 . S
C477 C476 1.376 . S
C477 C478 1.392 . S
C477 H498 0.931 . S
C478 C477 1.392 . S
C478 C479 1.361 . S
C478 C480 1.500 . S
C479 C474 1.390 . S
C479 C478 1.361 . S
C479 H497 0.931 . S
C480 C478 1.500 . S
C480 C481 1.371 . S
C480 C482 1.365 . S
C481 C480 1.371 . S
C481 C491 1.386 . S
C481 H499 0.931 . S
C482 C480 1.365 . S
C482 C483 1.409 . S
C482 H500 0.929 . S
C483 C482 1.409 . S
C483 C484 1.380 . S
C483 H501 0.930 . S
C484 C483 1.380 . S
C484 C491 1.357 . S
C485 C476 1.511 . S
C485 C486 1.341 . S
C485 C487 1.371 . S
C486 C485 1.341 . S
C486 C490 1.394 . S
C486 H502 0.930 . S
C487 C485 1.371 . S
C487 C488 1.392 . S
C487 H503 0.931 . S
C488 C487 1.392 . S
C488 C489 1.331 . S
C488 H506 0.932 . S
C489 C488 1.331 . S
C489 C490 1.336 . S
C490 C486 1.394 . S
C490 C489 1.336 . S
C490 H505 0.929 . S
C491 C481 1.386 . S
C491 C484 1.357 . S
C491 H504 0.928 . S
H492 C468 0.931 . S
H493 C470 0.930 . S
H494 C472 0.929 . S
H495 C473 0.931 . S
H496 C475 0.930 . S
H497 C479 0.931 . S
H498 C477 0.931 . S
H499 C481 0.931 . S
H500 C482 0.929 . S
H501 C483 0.930 . S
H502 C486 0.930 . S
H503 C487 0.931 . S
H504 C491 0.928 . S
H505 C490 0.929 . S
H506 C488 0.932 . S
C507 C508 1.386 . S
C507 C509 1.397 . S
C507 H531 0.931 . S
C508 C507 1.386 . S
C508 C512 1.397 . S
C509 C507 1.397 . S
C509 C510 1.384 . S
C509 H532 0.930 . S
C510 C509 1.384 . S
C510 C511 1.377 . S
C510 C513 1.481 . S
C511 C510 1.377 . S
C511 C512 1.389 . S
C511 H533 0.929 . S
C512 C508 1.397 . S
C512 C511 1.389 . S
C512 H534 0.931 . S
C513 C510 1.481 . S
C513 C514 1.387 . S
C513 C518 1.390 . S
C514 C513 1.387 . S
C514 C515 1.401 . S
C514 H535 0.930 . S
C515 C514 1.401 . S
C515 C516 1.376 . S
C515 C524 1.511 . S
C516 C515 1.376 . S
C516 C517 1.392 . S
C516 H537 0.931 . S
C517 C516 1.392 . S
C517 C518 1.361 . S
C517 C519 1.500 . S
C518 C513 1.390 . S
C518 C517 1.361 . S
C518 H536 0.931 . S
C519 C517 1.500 . S
C519 C520 1.371 . S
C519 C521 1.365 . S
C520 C519 1.371 . S
C520 C530 1.386 . S
C520 H538 0.931 . S
C521 C519 1.365 . S
C521 C522 1.409 . S
C521 H539 0.929 . S
C522 C521 1.409 . S
C522 C523 1.380 . S
C522 H540 0.930 . S
C523 C522 1.380 . S
C523 C530 1.357 . S
C524 C515 1.511 . S
C524 C525 1.341 . S
C524 C526 1.398 . S
C525 C524 1.341 . S
C525 C529 1.394 1_556 S
C525 H541 0.930 . S
C526 C524 1.398 . S
C526 C527 1.365 1_556 S
C526 H542 0.934 . S
C527 C526 1.365 1_554 S
C527 C528 1.331 . S
C527 H545 0.932 . S
C528 C527 1.331 . S
C528 C529 1.336 . S
C529 C525 1.394 1_554 S
C529 C528 1.336 . S
C529 H544 0.929 . S
C530 C520 1.386 . S
C530 C523 1.357 . S
C530 H543 0.885 1_556 S
H531 C507 0.931 . S
H532 C509 0.930 . S
H533 C511 0.929 . S
H534 C512 0.931 . S
H535 C514 0.930 . S
H536 C518 0.931 . S
H537 C516 0.931 . S
H538 C520 0.931 . S
H539 C521 0.929 . S
H540 C522 0.930 . S
H541 C525 0.930 . S
H542 C526 0.934 . S
H543 C530 0.885 1_554 S
H544 C529 0.929 . S
H545 C527 0.932 . S
C546 C547 1.386 . S
C546 C548 1.397 . S
C546 H570 0.931 . S
C547 C546 1.386 . S
C547 C551 1.397 . S
C548 C546 1.397 . S
C548 C549 1.384 . S
C548 H571 0.930 . S
C549 C548 1.384 . S
C549 C550 1.377 . S
C549 C552 1.481 . S
C550 C549 1.377 . S
C550 C551 1.389 . S
C550 H572 0.929 . S
C551 C547 1.397 . S
C551 C550 1.389 . S
C551 H573 0.931 . S
C552 C549 1.481 . S
C552 C553 1.387 . S
C552 C557 1.390 . S
C553 C552 1.387 . S
C553 C554 1.401 . S
C553 H574 0.930 . S
C554 C553 1.401 . S
C554 C555 1.376 . S
C554 C563 1.511 . S
C555 C554 1.376 . S
C555 C556 1.392 . S
C555 H576 0.931 . S
C556 C555 1.392 . S
C556 C557 1.361 . S
C556 C558 1.500 . S
C557 C552 1.390 . S
C557 C556 1.361 . S
C557 H575 0.931 . S
C558 C556 1.500 . S
C558 C559 1.371 . S
C558 C560 1.365 . S
C559 C558 1.371 . S
C559 C569 1.386 . S
C559 H577 0.931 . S
C560 C558 1.365 . S
C560 C561 1.409 . S
C560 H578 0.929 . S
C561 C560 1.409 . S
C561 C562 1.380 . S
C561 H579 0.930 . S
C562 C561 1.380 . S
C562 C569 1.357 . S
C563 C554 1.511 . S
C563 C564 1.341 . S
C563 C565 1.371 . S
C564 C563 1.341 . S
C564 C568 1.394 . S
C564 H580 0.930 . S
C565 C563 1.371 . S
C565 C566 1.392 . S
C565 H581 0.931 . S
C566 C565 1.392 . S
C566 C567 1.331 . S
C566 H584 0.932 . S
C567 C566 1.331 . S
C567 C568 1.336 . S
C568 C564 1.394 . S
C568 C567 1.336 . S
C568 H583 0.929 . S
C569 C559 1.386 . S
C569 C562 1.357 . S
C569 H582 0.928 . S
H570 C546 0.931 . S
H571 C548 0.930 . S
H572 C550 0.929 . S
H573 C551 0.931 . S
H574 C553 0.930 . S
H575 C557 0.931 . S
H576 C555 0.931 . S
H577 C559 0.931 . S
H578 C560 0.929 . S
H579 C561 0.930 . S
H580 C564 0.930 . S
H581 C565 0.931 . S
H582 C569 0.928 . S
H583 C568 0.929 . S
H584 C566 0.932 . S
C585 C586 1.386 1_556 S
C585 C587 1.397 . S
C585 H609 0.931 . S
C586 C585 1.386 1_554 S
C586 C590 1.397 . S
C587 C585 1.397 . S
C587 C588 1.384 . S
C587 H610 0.930 . S
C588 C587 1.384 . S
C588 C589 1.377 1_556 S
C588 C591 1.481 . S
C589 C588 1.377 1_554 S
C589 C590 1.389 . S
C589 H611 0.929 . S
C590 C586 1.397 . S
C590 C589 1.389 . S
C590 H612 0.931 . S
C591 C588 1.481 . S
C591 C592 1.387 . S
C591 C596 1.390 . S
C592 C591 1.387 . S
C592 C593 1.401 . S
C592 H613 0.930 . S
C593 C592 1.401 . S
C593 C594 1.376 . S
C593 C602 1.511 . S
C594 C593 1.376 . S
C594 C595 1.392 . S
C594 H615 0.931 . S
C595 C594 1.392 . S
C595 C596 1.361 . S
C595 C597 1.500 . S
C596 C591 1.390 . S
C596 C595 1.361 . S
C596 H614 0.931 . S
C597 C595 1.500 . S
C597 C598 1.371 . S
C597 C599 1.365 . S
C598 C597 1.371 . S
C598 C608 1.386 1_545 S
C598 H616 0.931 . S
C599 C597 1.365 . S
C599 C600 1.412 . S
C599 H617 0.929 1_556 S
C600 C599 1.412 . S
C600 C601 1.378 1_545 S
C600 H618 0.926 1_546 S
C601 C600 1.378 1_565 S
C601 C608 1.357 . S
C602 C593 1.511 . S
C602 C603 1.341 . S
C602 C604 1.371 . S
C603 C602 1.341 . S
C603 C607 1.394 . S
C603 H619 0.930 . S
C604 C602 1.371 . S
C604 C605 1.392 . S
C604 H620 0.931 . S
C605 C604 1.392 . S
C605 C606 1.331 . S
C605 H623 0.927 . S
C606 C605 1.331 . S
C606 C607 1.336 . S
C607 C603 1.394 . S
C607 C606 1.336 . S
C607 H622 0.929 . S
C608 C598 1.386 1_565 S
C608 C601 1.357 . S
C608 H621 0.928 . S
H609 C585 0.931 . S
H610 C587 0.930 . S
H611 C589 0.929 . S
H612 C590 0.931 . S
H613 C592 0.930 . S
H614 C596 0.931 . S
H615 C594 0.931 . S
H616 C598 0.931 . S
H617 C599 0.929 1_554 S
H618 C600 0.926 1_564 S
H619 C603 0.930 . S
H620 C604 0.931 . S
H621 C608 0.928 . S
H622 C607 0.929 . S
H623 C605 0.927 . S
C624 O625 1.160 1_554 S
C624 O631 1.185 . S
O625 C624 1.160 1_556 S
O626 Zn627 1.899 1_556 S
O626 C634 1.284 . S
Zn627 O626 1.899 1_554 S
Zn627 O628 2.032 . S
Zn627 O631 2.086 . S
Zn627 O636 1.977 . S
O628 Zn627 2.032 . S
O628 C632 1.278 . S
C629 O630 1.203 . S
C629 O636 1.267 . S
O630 C629 1.203 . S
O631 C624 1.185 . S
O631 Zn627 2.086 . S
C632 O628 1.278 . S
C632 O633 1.211 . S
O633 C632 1.211 . S
C634 O626 1.284 . S
C634 O635 1.273 . S
O635 C634 1.273 . S
O636 Zn627 1.977 . S
O636 C629 1.267 . S
C637 O638 1.160 . S
C637 O644 1.185 . S
O638 C637 1.160 . S
O639 Zn640 1.899 . S
O639 C647 1.284 . S
Zn640 O639 1.899 . S
Zn640 O641 2.032 . S
Zn640 O644 2.086 . S
Zn640 O649 1.977 . S
O641 Zn640 2.032 . S
O641 C645 1.278 . S
C642 O643 1.203 . S
C642 O649 1.267 . S
O643 C642 1.203 . S
O644 C637 1.185 . S
O644 Zn640 2.086 . S
C645 O641 1.278 . S
C645 O646 1.211 . S
O646 C645 1.211 . S
C647 O639 1.284 . S
C647 O648 1.273 . S
O648 C647 1.273 . S
O649 Zn640 1.977 . S
O649 C642 1.267 . S
C650 O651 1.160 1_554 S
C650 O657 1.185 . S
O651 C650 1.160 1_556 S
O652 Zn653 1.899 1_556 S
O652 C660 1.284 . S
Zn653 O652 1.899 1_554 S
Zn653 O654 2.032 1_554 S
Zn653 O657 2.086 . S
Zn653 O662 1.977 . S
O654 Zn653 2.032 1_556 S
O654 C658 1.278 . S
C655 O656 1.203 . S
C655 O662 1.267 . S
O656 C655 1.203 . S
O657 C650 1.185 . S
O657 Zn653 2.086 . S
C658 O654 1.278 . S
C658 O659 1.211 1_556 S
O659 C658 1.211 1_554 S
C660 O652 1.284 . S
C660 O661 1.273 . S
O661 C660 1.273 . S
O662 Zn653 1.977 . S
O662 C655 1.267 . S
C663 O664 1.160 . S
C663 O670 1.185 . S
O664 C663 1.160 . S
O665 Zn666 1.899 . S
O665 C673 1.284 . S
Zn666 O665 1.899 . S
Zn666 O667 2.034 . S
Zn666 O670 2.086 . S
Zn666 O675 1.977 . S
O667 Zn666 2.034 . S
O667 C671 1.275 1_545 S
C668 O669 1.203 . S
C668 O675 1.267 . S
O669 C668 1.203 . S
O670 C663 1.185 . S
O670 Zn666 2.086 . S
C671 O667 1.275 1_565 S
C671 O672 1.211 . S
O672 C671 1.211 . S
C673 O665 1.284 . S
C673 O674 1.273 1_545 S
O674 C673 1.273 1_565 S
O675 Zn666 1.977 . S
O675 C668 1.267 . S
C676 O677 1.160 . S
C676 O683 1.185 . S
O677 C676 1.160 . S
O678 Zn679 1.899 . S
O678 C686 1.284 . S
Zn679 O678 1.899 . S
Zn679 O680 2.032 . S
Zn679 O683 2.086 . S
Zn679 O688 1.977 . S
O680 Zn679 2.032 . S
O680 C684 1.278 . S
C681 O682 1.203 . S
C681 O688 1.267 . S
O682 C681 1.203 . S
O683 C676 1.185 . S
O683 Zn679 2.086 . S
C684 O680 1.278 . S
C684 O685 1.211 . S
O685 C684 1.211 . S
C686 O678 1.284 . S
C686 O687 1.273 . S
O687 C686 1.273 . S
O688 Zn679 1.977 . S
O688 C681 1.267 . S
C689 O690 1.160 . S
C689 O696 1.185 . S
O690 C689 1.160 . S
O691 Zn692 1.899 . S
O691 C699 1.284 . S
Zn692 O691 1.899 . S
Zn692 O693 2.032 . S
Zn692 O696 2.086 . S
Zn692 O701 1.977 . S
O693 Zn692 2.032 . S
O693 C697 1.278 . S
C694 O695 1.203 . S
C694 O701 1.267 . S
O695 C694 1.203 . S
O696 C689 1.185 . S
O696 Zn692 2.086 . S
C697 O693 1.278 . S
C697 O698 1.211 . S
O698 C697 1.211 . S
C699 O691 1.284 . S
C699 O700 1.273 . S
O700 C699 1.273 . S
O701 Zn692 1.977 . S
O701 C694 1.267 . S
C702 O703 1.160 . S
C702 O709 1.185 . S
O703 C702 1.160 . S
O704 Zn705 1.899 . S
O704 C712 1.284 . S
Zn705 O704 1.899 . S
Zn705 O706 2.032 . S
Zn705 O709 2.086 . S
Zn705 O714 1.977 . S
O706 Zn705 2.032 . S
O706 C710 1.278 . S
C707 O708 1.203 . S
C707 O714 1.267 . S
O708 C707 1.203 . S
O709 C702 1.185 . S
O709 Zn705 2.086 . S
C710 O706 1.278 . S
C710 O711 1.211 . S
O711 C710 1.211 . S
C712 O704 1.284 . S
C712 O713 1.273 . S
O713 C712 1.273 . S
O714 Zn705 1.977 . S
O714 C707 1.267 . S
C715 O716 1.160 . S
C715 O722 1.185 . S
O716 C715 1.160 . S
O717 Zn718 1.899 . S
O717 C725 1.284 1_565 S
Zn718 O717 1.899 . S
Zn718 O719 2.032 1_565 S
Zn718 O722 2.086 . S
Zn718 O727 1.977 . S
O719 Zn718 2.032 1_545 S
O719 C723 1.278 . S
C720 O721 1.203 1_565 S
C720 O727 1.267 . S
O721 C720 1.203 1_545 S
O722 C715 1.185 . S
O722 Zn718 2.086 . S
C723 O719 1.278 . S
C723 O724 1.211 . S
O724 C723 1.211 . S
C725 O717 1.284 1_545 S
C725 O726 1.273 . S
O726 C725 1.273 . S
O727 Zn718 1.977 . S
O727 C720 1.267 . S
C728 O729 1.160 1_455 S
C728 O735 1.185 . S
O729 C728 1.160 1_655 S
O730 Zn731 1.899 1_655 S
O730 C738 1.284 . S
Zn731 O730 1.899 1_455 S
Zn731 O732 2.032 1_455 S
Zn731 O735 2.086 . S
Zn731 O740 1.977 . S
O732 Zn731 2.032 1_655 S
O732 C736 1.276 1_655 S
C733 O734 1.203 . S
C733 O740 1.267 . S
O734 C733 1.203 . S
O735 C728 1.185 . S
O735 Zn731 2.086 . S
C736 O732 1.276 1_455 S
C736 O737 1.220 . S
O737 C736 1.220 . S
C738 O730 1.284 . S
C738 O739 1.273 . S
O739 C738 1.273 . S
O740 Zn731 1.977 . S
O740 C733 1.267 . S
C741 O742 1.160 . S
C741 O748 1.185 . S
O742 C741 1.160 . S
O743 Zn744 1.899 . S
O743 C751 1.284 . S
Zn744 O743 1.899 . S
Zn744 O745 2.032 . S
Zn744 O748 2.086 . S
Zn744 O753 1.977 . S
O745 Zn744 2.032 . S
O745 C749 1.278 . S
C746 O747 1.203 . S
C746 O753 1.267 . S
O747 C746 1.203 . S
O748 C741 1.185 . S
O748 Zn744 2.086 . S
C749 O745 1.278 . S
C749 O750 1.211 . S
O750 C749 1.211 . S
C751 O743 1.284 . S
C751 O752 1.273 . S
O752 C751 1.273 . S
O753 Zn744 1.977 . S
O753 C746 1.267 . S
C754 O755 1.160 1_455 S
C754 O761 1.185 . S
O755 C754 1.160 1_655 S
O756 Zn757 1.899 1_655 S
O756 C764 1.284 . S
Zn757 O756 1.899 1_455 S
Zn757 O758 2.032 1_455 S
Zn757 O761 2.086 . S
Zn757 O766 1.977 . S
O758 Zn757 2.032 1_655 S
O758 C762 1.276 1_655 S
C759 O760 1.203 . S
C759 O766 1.267 . S
O760 C759 1.203 . S
O761 C754 1.185 . S
O761 Zn757 2.086 . S
C762 O758 1.276 1_455 S
C762 O763 1.216 . S
O763 C762 1.216 . S
C764 O756 1.284 . S
C764 O765 1.273 . S
O765 C764 1.273 . S
O766 Zn757 1.977 . S
O766 C759 1.267 . S
C767 O768 1.160 . S
C767 O774 1.185 . S
O768 C767 1.160 . S
O769 Zn770 1.899 . S
O769 C777 1.284 . S
Zn770 O769 1.899 . S
Zn770 O771 2.032 . S
Zn770 O774 2.086 . S
Zn770 O779 1.977 . S
O771 Zn770 2.032 . S
O771 C775 1.278 . S
C772 O773 1.203 . S
C772 O779 1.267 . S
O773 C772 1.203 . S
O774 C767 1.185 . S
O774 Zn770 2.086 . S
C775 O771 1.278 . S
C775 O776 1.211 . S
O776 C775 1.211 . S
C777 O769 1.284 . S
C777 O778 1.273 . S
O778 C777 1.273 . S
O779 Zn770 1.977 . S
O779 C772 1.267 . S
H780 C792 0.930 . S
H781 C794 0.930 . S
H782 C795 0.930 . S
H783 C799 0.959 . S
H784 C799 0.959 . S
H785 C799 0.961 . S
H786 C800 0.960 . S
H787 C800 0.961 . S
H788 C800 0.959 . S
H789 C803 0.929 . S
H790 C804 0.931 . S
H791 C806 0.930 . S
C792 H780 0.930 . S
C792 C793 1.399 . S
C792 C797 1.399 . S
C793 C792 1.399 . S
C793 C794 1.376 . S
C794 H781 0.930 . S
C794 C793 1.376 . S
C794 C795 1.388 . S
C795 H782 0.930 . S
C795 C794 1.388 . S
C795 C796 1.390 . S
C796 C795 1.390 . S
C796 C797 1.394 . S
C796 C802 1.465 . S
C797 C792 1.399 . S
C797 C796 1.394 . S
C797 C798 1.516 . S
C798 C797 1.516 . S
C798 C799 1.502 . S
C798 C800 1.561 . S
C798 C801 1.526 . S
C799 H783 0.959 . S
C799 H784 0.959 . S
C799 H785 0.961 . S
C799 C798 1.502 . S
C800 H786 0.960 . S
C800 H787 0.961 . S
C800 H788 0.959 . S
C800 C798 1.561 . S
C801 C798 1.526 . S
C801 C802 1.396 . S
C801 C806 1.390 . S
C802 C796 1.465 . S
C802 C801 1.396 . S
C802 C803 1.399 . S
C803 H789 0.929 . S
C803 C802 1.399 . S
C803 C804 1.385 . S
C804 H790 0.931 . S
C804 C803 1.385 . S
C804 C805 1.389 . S
C805 C804 1.389 . S
C805 C806 1.387 . S
C806 H791 0.930 . S
C806 C801 1.390 . S
C806 C805 1.387 . S
H807 C819 0.930 . S
H808 C821 0.930 . S
H809 C822 0.930 . S
H810 C826 0.959 . S
H811 C826 0.959 . S
H812 C826 0.961 . S
H813 C827 0.960 . S
H814 C827 0.961 . S
H815 C827 0.959 . S
H816 C830 0.929 . S
H817 C831 0.931 . S
H818 C833 0.930 . S
C819 H807 0.930 . S
C819 C820 1.399 . S
C819 C824 1.399 . S
C820 C819 1.399 . S
C820 C821 1.376 . S
C821 H808 0.930 . S
C821 C820 1.376 . S
C821 C822 1.388 . S
C822 H809 0.930 . S
C822 C821 1.388 . S
C822 C823 1.390 . S
C823 C822 1.390 . S
C823 C824 1.394 . S
C823 C829 1.465 . S
C824 C819 1.399 . S
C824 C823 1.394 . S
C824 C825 1.516 . S
C825 C824 1.516 . S
C825 C826 1.502 . S
C825 C827 1.561 . S
C825 C828 1.526 . S
C826 H810 0.959 . S
C826 H811 0.959 . S
C826 H812 0.961 . S
C826 C825 1.502 . S
C827 H813 0.960 . S
C827 H814 0.961 . S
C827 H815 0.959 . S
C827 C825 1.561 . S
C828 C825 1.526 . S
C828 C829 1.396 . S
C828 C833 1.390 . S
C829 C823 1.465 . S
C829 C828 1.396 . S
C829 C830 1.399 . S
C830 H816 0.929 . S
C830 C829 1.399 . S
C830 C831 1.385 . S
C831 H817 0.931 . S
C831 C830 1.385 . S
C831 C832 1.389 . S
C832 C831 1.389 . S
C832 C833 1.387 . S
C833 H818 0.930 . S
C833 C828 1.390 . S
C833 C832 1.387 . S
H834 C846 0.930 . S
H835 C848 0.930 . S
H836 C849 0.930 . S
H837 C853 0.959 . S
H838 C853 0.959 . S
H839 C853 0.961 . S
H840 C854 0.960 . S
H841 C854 0.961 . S
H842 C854 0.959 . S
H843 C857 0.929 . S
H844 C858 0.931 . S
H845 C860 0.930 . S
C846 H834 0.930 . S
C846 C847 1.399 . S
C846 C851 1.399 . S
C847 C846 1.399 . S
C847 C848 1.376 . S
C848 H835 0.930 . S
C848 C847 1.376 . S
C848 C849 1.388 . S
C849 H836 0.930 . S
C849 C848 1.388 . S
C849 C850 1.390 . S
C850 C849 1.390 . S
C850 C851 1.394 . S
C850 C856 1.465 . S
C851 C846 1.399 . S
C851 C850 1.394 . S
C851 C852 1.516 . S
C852 C851 1.516 . S
C852 C853 1.502 . S
C852 C854 1.561 . S
C852 C855 1.526 . S
C853 H837 0.959 . S
C853 H838 0.959 . S
C853 H839 0.961 . S
C853 C852 1.502 . S
C854 H840 0.960 . S
C854 H841 0.961 . S
C854 H842 0.959 . S
C854 C852 1.561 . S
C855 C852 1.526 . S
C855 C856 1.396 . S
C855 C860 1.390 . S
C856 C850 1.465 . S
C856 C855 1.396 . S
C856 C857 1.399 . S
C857 H843 0.929 . S
C857 C856 1.399 . S
C857 C858 1.385 . S
C858 H844 0.931 . S
C858 C857 1.385 . S
C858 C859 1.389 . S
C859 C858 1.389 . S
C859 C860 1.387 . S
C860 H845 0.930 . S
C860 C855 1.390 . S
C860 C859 1.387 . S
H861 C873 0.930 . S
H862 C875 0.930 . S
H863 C876 0.930 . S
H864 C880 0.959 . S
H865 C880 0.959 . S
H866 C880 0.961 . S
H867 C881 0.960 . S
H868 C881 0.961 . S
H869 C881 0.959 . S
H870 C884 0.929 . S
H871 C885 0.931 . S
H872 C887 0.930 . S
C873 H861 0.930 . S
C873 C874 1.399 1_545 S
C873 C878 1.399 . S
C874 C873 1.399 1_565 S
C874 C875 1.376 . S
C875 H862 0.930 . S
C875 C874 1.376 . S
C875 C876 1.388 . S
C876 H863 0.930 . S
C876 C875 1.388 . S
C876 C877 1.390 . S
C877 C876 1.390 . S
C877 C878 1.394 1_565 S
C877 C883 1.465 . S
C878 C873 1.399 . S
C878 C877 1.394 1_545 S
C878 C879 1.516 . S
C879 C878 1.516 . S
C879 C880 1.502 . S
C879 C881 1.561 . S
C879 C882 1.526 . S
C880 H864 0.959 . S
C880 H865 0.959 . S
C880 H866 0.961 . S
C880 C879 1.502 . S
C881 H867 0.960 . S
C881 H868 0.961 . S
C881 H869 0.959 . S
C881 C879 1.561 . S
C882 C879 1.526 . S
C882 C883 1.396 1_545 S
C882 C887 1.390 . S
C883 C877 1.465 . S
C883 C882 1.396 1_565 S
C883 C884 1.399 . S
C884 H870 0.929 . S
C884 C883 1.399 . S
C884 C885 1.385 . S
C885 H871 0.931 . S
C885 C884 1.385 . S
C885 C886 1.389 1_565 S
C886 C885 1.389 1_545 S
C886 C887 1.387 . S
C887 H872 0.930 . S
C887 C882 1.390 . S
C887 C886 1.387 . S
H888 C900 0.930 . S
H889 C902 0.930 . S
H890 C903 0.930 . S
H891 C907 0.959 . S
H892 C907 0.959 . S
H893 C907 0.961 . S
H894 C908 0.960 . S
H895 C908 0.961 . S
H896 C908 0.959 . S
H897 C911 0.929 . S
H898 C912 0.931 . S
H899 C914 0.930 . S
C900 H888 0.930 . S
C900 C901 1.399 . S
C900 C905 1.399 . S
C901 C900 1.399 . S
C901 C902 1.376 . S
C902 H889 0.930 . S
C902 C901 1.376 . S
C902 C903 1.388 . S
C903 H890 0.930 . S
C903 C902 1.388 . S
C903 C904 1.390 . S
C904 C903 1.390 . S
C904 C905 1.394 . S
C904 C910 1.465 . S
C905 C900 1.399 . S
C905 C904 1.394 . S
C905 C906 1.516 . S
C906 C905 1.516 . S
C906 C907 1.502 . S
C906 C908 1.561 . S
C906 C909 1.526 . S
C907 H891 0.959 . S
C907 H892 0.959 . S
C907 H893 0.961 . S
C907 C906 1.502 . S
C908 H894 0.960 . S
C908 H895 0.961 . S
C908 H896 0.959 . S
C908 C906 1.561 . S
C909 C906 1.526 . S
C909 C910 1.396 . S
C909 C914 1.390 . S
C910 C904 1.465 . S
C910 C909 1.396 . S
C910 C911 1.399 . S
C911 H897 0.929 . S
C911 C910 1.399 . S
C911 C912 1.385 . S
C912 H898 0.931 . S
C912 C911 1.385 . S
C912 C913 1.389 . S
C913 C912 1.389 . S
C913 C914 1.387 . S
C914 H899 0.930 . S
C914 C909 1.390 . S
C914 C913 1.387 . S
H915 C927 0.930 . S
H916 C929 0.930 . S
H917 C930 0.930 . S
H918 C934 0.959 . S
H919 C934 0.959 . S
H920 C934 0.961 . S
H921 C935 0.960 . S
H922 C935 0.961 . S
H923 C935 0.959 . S
H924 C938 0.929 . S
H925 C939 0.931 . S
H926 C941 0.930 . S
C927 H915 0.930 . S
C927 C928 1.399 . S
C927 C932 1.399 . S
C928 C927 1.399 . S
C928 C929 1.376 . S
C929 H916 0.930 . S
C929 C928 1.376 . S
C929 C930 1.388 . S
C930 H917 0.930 . S
C930 C929 1.388 . S
C930 C931 1.390 . S
C931 C930 1.390 . S
C931 C932 1.394 . S
C931 C937 1.465 . S
C932 C927 1.399 . S
C932 C931 1.394 . S
C932 C933 1.516 . S
C933 C932 1.516 . S
C933 C934 1.502 . S
C933 C935 1.561 . S
C933 C936 1.526 . S
C934 H918 0.959 . S
C934 H919 0.959 . S
C934 H920 0.961 . S
C934 C933 1.502 . S
C935 H921 0.960 . S
C935 H922 0.961 . S
C935 H923 0.959 . S
C935 C933 1.561 . S
C936 C933 1.526 . S
C936 C937 1.396 . S
C936 C941 1.390 . S
C937 C931 1.465 . S
C937 C936 1.396 . S
C937 C938 1.399 . S
C938 H924 0.929 . S
C938 C937 1.399 . S
C938 C939 1.385 . S
C939 H925 0.931 . S
C939 C938 1.385 . S
C939 C940 1.389 . S
C940 C939 1.389 . S
C940 C941 1.387 . S
C941 H926 0.930 . S
C941 C936 1.390 . S
C941 C940 1.387 . S
H942 C954 0.930 . S
H943 C956 0.930 . S
H944 C957 0.930 . S
H945 C961 0.959 . S
H946 C961 0.959 . S
H947 C961 0.961 . S
H948 C962 0.960 . S
H949 C962 0.961 . S
H950 C962 0.959 . S
H951 C965 0.929 . S
H952 C966 0.931 . S
H953 C968 0.930 . S
C954 H942 0.930 . S
C954 C955 1.399 . S
C954 C959 1.399 . S
C955 C954 1.399 . S
C955 C956 1.376 . S
C956 H943 0.930 . S
C956 C955 1.376 . S
C956 C957 1.388 . S
C957 H944 0.930 . S
C957 C956 1.388 . S
C957 C958 1.390 . S
C958 C957 1.390 . S
C958 C959 1.394 . S
C958 C964 1.465 . S
C959 C954 1.399 . S
C959 C958 1.394 . S
C959 C960 1.516 . S
C960 C959 1.516 . S
C960 C961 1.502 . S
C960 C962 1.561 . S
C960 C963 1.526 . S
C961 H945 0.959 . S
C961 H946 0.959 . S
C961 H947 0.961 . S
C961 C960 1.502 . S
C962 H948 0.960 . S
C962 H949 0.961 . S
C962 H950 0.959 . S
C962 C960 1.561 . S
C963 C960 1.526 . S
C963 C964 1.396 . S
C963 C968 1.390 . S
C964 C958 1.465 . S
C964 C963 1.396 . S
C964 C965 1.399 . S
C965 H951 0.929 . S
C965 C964 1.399 . S
C965 C966 1.385 . S
C966 H952 0.931 . S
C966 C965 1.385 . S
C966 C967 1.389 . S
C967 C966 1.389 . S
C967 C968 1.387 . S
C968 H953 0.930 . S
C968 C963 1.390 . S
C968 C967 1.387 . S
H969 C981 0.930 . S
H970 C983 0.930 . S
H971 C984 0.930 . S
H972 C988 0.959 . S
H973 C988 0.959 . S
H974 C988 0.961 . S
H975 C989 0.960 . S
H976 C989 0.961 . S
H977 C989 0.959 . S
H978 C992 0.929 . S
H979 C993 0.931 . S
H980 C995 0.930 . S
C981 H969 0.930 . S
C981 C982 1.399 . S
C981 C986 1.399 . S
C982 C981 1.399 . S
C982 C983 1.376 1_565 S
C983 H970 0.930 . S
C983 C982 1.376 1_545 S
C983 C984 1.388 . S
C984 H971 0.930 . S
C984 C983 1.388 . S
C984 C985 1.390 1_545 S
C985 C984 1.390 1_565 S
C985 C986 1.394 . S
C985 C991 1.465 . S
C986 C981 1.399 . S
C986 C985 1.394 . S
C986 C987 1.516 . S
C987 C986 1.516 . S
C987 C988 1.502 . S
C987 C989 1.561 . S
C987 C990 1.526 . S
C988 H972 0.959 . S
C988 H973 0.959 . S
C988 H974 0.961 . S
C988 C987 1.502 . S
C989 H975 0.960 . S
C989 H976 0.961 . S
C989 H977 0.959 . S
C989 C987 1.561 . S
C990 C987 1.526 . S
C990 C991 1.396 . S
C990 C995 1.390 . S
C991 C985 1.465 . S
C991 C990 1.396 . S
C991 C992 1.399 1_565 S
C992 H978 0.929 . S
C992 C991 1.399 1_545 S
C992 C993 1.385 . S
C993 H979 0.931 . S
C993 C992 1.385 . S
C993 C994 1.389 1_545 S
C994 C993 1.389 1_565 S
C994 C995 1.387 . S
C995 H980 0.930 . S
C995 C990 1.390 . S
C995 C994 1.387 . S
H996 C1008 0.930 . S
H997 C1010 0.930 . S
H998 C1011 0.930 . S
H999 C1015 0.959 . S
H1000 C1015 0.959 . S
H1001 C1015 0.961 . S
H1002 C1016 0.960 . S
H1003 C1016 0.961 . S
H1004 C1016 0.959 . S
H1005 C1019 0.929 . S
H1006 C1020 0.931 . S
H1007 C1022 0.930 . S
C1008 H996 0.930 . S
C1008 C1009 1.399 . S
C1008 C1013 1.399 . S
C1009 C1008 1.399 . S
C1009 C1010 1.376 . S
C1010 H997 0.930 . S
C1010 C1009 1.376 . S
C1010 C1011 1.388 . S
C1011 H998 0.930 . S
C1011 C1010 1.388 . S
C1011 C1012 1.390 . S
C1012 C1011 1.390 . S
C1012 C1013 1.394 . S
C1012 C1018 1.465 . S
C1013 C1008 1.399 . S
C1013 C1012 1.394 . S
C1013 C1014 1.516 . S
C1014 C1013 1.516 . S
C1014 C1015 1.502 . S
C1014 C1016 1.561 . S
C1014 C1017 1.526 . S
C1015 H999 0.959 . S
C1015 H1000 0.959 . S
C1015 H1001 0.961 . S
C1015 C1014 1.502 . S
C1016 H1002 0.960 . S
C1016 H1003 0.961 . S
C1016 H1004 0.959 . S
C1016 C1014 1.561 . S
C1017 C1014 1.526 . S
C1017 C1018 1.396 . S
C1017 C1022 1.390 . S
C1018 C1012 1.465 . S
C1018 C1017 1.396 . S
C1018 C1019 1.399 . S
C1019 H1005 0.929 . S
C1019 C1018 1.399 . S
C1019 C1020 1.385 . S
C1020 H1006 0.931 . S
C1020 C1019 1.385 . S
C1020 C1021 1.389 . S
C1021 C1020 1.389 . S
C1021 C1022 1.387 . S
C1022 H1007 0.930 . S
C1022 C1017 1.390 . S
C1022 C1021 1.387 . S
H1023 C1035 0.930 . S
H1024 C1037 0.930 . S
H1025 C1038 0.930 . S
H1026 C1042 0.959 . S
H1027 C1042 0.959 . S
H1028 C1042 0.961 . S
H1029 C1043 0.960 . S
H1030 C1043 0.961 . S
H1031 C1043 0.959 . S
H1032 C1046 0.929 . S
H1033 C1047 0.931 . S
H1034 C1049 0.930 . S
C1035 H1023 0.930 . S
C1035 C1036 1.399 . S
C1035 C1040 1.399 . S
C1036 C1035 1.399 . S
C1036 C1037 1.376 . S
C1037 H1024 0.930 . S
C1037 C1036 1.376 . S
C1037 C1038 1.388 . S
C1038 H1025 0.930 . S
C1038 C1037 1.388 . S
C1038 C1039 1.390 . S
C1039 C1038 1.390 . S
C1039 C1040 1.394 . S
C1039 C1045 1.465 . S
C1040 C1035 1.399 . S
C1040 C1039 1.394 . S
C1040 C1041 1.516 . S
C1041 C1040 1.516 . S
C1041 C1042 1.502 . S
C1041 C1043 1.561 . S
C1041 C1044 1.526 . S
C1042 H1026 0.959 . S
C1042 H1027 0.959 . S
C1042 H1028 0.961 . S
C1042 C1041 1.502 . S
C1043 H1029 0.960 . S
C1043 H1030 0.961 . S
C1043 H1031 0.959 . S
C1043 C1041 1.561 . S
C1044 C1041 1.526 . S
C1044 C1045 1.396 . S
C1044 C1049 1.390 . S
C1045 C1039 1.465 . S
C1045 C1044 1.396 . S
C1045 C1046 1.399 . S
C1046 H1032 0.929 . S
C1046 C1045 1.399 . S
C1046 C1047 1.385 . S
C1047 H1033 0.931 . S
C1047 C1046 1.385 . S
C1047 C1048 1.389 . S
C1048 C1047 1.389 . S
C1048 C1049 1.387 . S
C1049 H1034 0.930 . S
C1049 C1044 1.390 . S
C1049 C1048 1.387 . S
H1050 C1062 0.930 . S
H1051 C1064 0.930 . S
H1052 C1065 0.930 . S
H1053 C1069 0.959 . S
H1054 C1069 0.959 . S
H1055 C1069 0.961 . S
H1056 C1070 0.960 . S
H1057 C1070 0.961 . S
H1058 C1070 0.959 . S
H1059 C1073 0.929 . S
H1060 C1074 0.931 . S
H1061 C1076 0.930 . S
C1062 H1050 0.930 . S
C1062 C1063 1.399 . S
C1062 C1067 1.399 . S
C1063 C1062 1.399 . S
C1063 C1064 1.376 . S
C1064 H1051 0.930 . S
C1064 C1063 1.376 . S
C1064 C1065 1.388 . S
C1065 H1052 0.930 . S
C1065 C1064 1.388 . S
C1065 C1066 1.390 . S
C1066 C1065 1.390 . S
C1066 C1067 1.394 . S
C1066 C1072 1.465 . S
C1067 C1062 1.399 . S
C1067 C1066 1.394 . S
C1067 C1068 1.516 . S
C1068 C1067 1.516 . S
C1068 C1069 1.502 . S
C1068 C1070 1.561 . S
C1068 C1071 1.526 . S
C1069 H1053 0.959 . S
C1069 H1054 0.959 . S
C1069 H1055 0.961 . S
C1069 C1068 1.502 . S
C1070 H1056 0.960 . S
C1070 H1057 0.961 . S
C1070 H1058 0.959 . S
C1070 C1068 1.561 . S
C1071 C1068 1.526 . S
C1071 C1072 1.396 . S
C1071 C1076 1.390 . S
C1072 C1066 1.465 . S
C1072 C1071 1.396 . S
C1072 C1073 1.399 . S
C1073 H1059 0.929 . S
C1073 C1072 1.399 . S
C1073 C1074 1.385 . S
C1074 H1060 0.931 . S
C1074 C1073 1.385 . S
C1074 C1075 1.389 . S
C1075 C1074 1.389 . S
C1075 C1076 1.387 . S
C1076 H1061 0.930 . S
C1076 C1071 1.390 . S
C1076 C1075 1.387 . S
H1077 C1089 0.930 . S
H1078 C1091 0.930 . S
H1079 C1092 0.930 . S
H1080 C1096 0.959 . S
H1081 C1096 0.959 . S
H1082 C1096 0.961 . S
H1083 C1097 0.960 . S
H1084 C1097 0.961 . S
H1085 C1097 0.959 . S
H1086 C1100 0.929 . S
H1087 C1101 0.931 . S
H1088 C1103 0.930 . S
C1089 H1077 0.930 . S
C1089 C1090 1.399 . S
C1089 C1094 1.399 . S
C1090 C1089 1.399 . S
C1090 C1091 1.376 . S
C1091 H1078 0.930 . S
C1091 C1090 1.376 . S
C1091 C1092 1.388 . S
C1092 H1079 0.930 . S
C1092 C1091 1.388 . S
C1092 C1093 1.390 . S
C1093 C1092 1.390 . S
C1093 C1094 1.394 . S
C1093 C1099 1.465 . S
C1094 C1089 1.399 . S
C1094 C1093 1.394 . S
C1094 C1095 1.516 . S
C1095 C1094 1.516 . S
C1095 C1096 1.502 . S
C1095 C1097 1.561 . S
C1095 C1098 1.526 . S
C1096 H1080 0.959 . S
C1096 H1081 0.959 . S
C1096 H1082 0.961 . S
C1096 C1095 1.502 . S
C1097 H1083 0.960 . S
C1097 H1084 0.961 . S
C1097 H1085 0.959 . S
C1097 C1095 1.561 . S
C1098 C1095 1.526 . S
C1098 C1099 1.396 . S
C1098 C1103 1.390 . S
C1099 C1093 1.465 . S
C1099 C1098 1.396 . S
C1099 C1100 1.399 . S
C1100 H1086 0.929 . S
C1100 C1099 1.399 . S
C1100 C1101 1.385 . S
C1101 H1087 0.931 . S
C1101 C1100 1.385 . S
C1101 C1102 1.389 . S
C1102 C1101 1.389 . S
C1102 C1103 1.387 . S
C1103 H1088 0.930 . S
C1103 C1098 1.390 . S
C1103 C1102 1.387 . S
H1104 C1116 0.930 . S
H1105 C1118 0.930 . S
H1106 C1119 0.930 . S
H1107 C1123 0.959 . S
H1108 C1123 0.959 . S
H1109 C1123 0.961 . S
H1110 C1124 0.960 . S
H1111 C1124 0.961 . S
H1112 C1124 0.959 . S
H1113 C1127 0.929 . S
H1114 C1128 0.931 . S
H1115 C1130 0.930 . S
C1116 H1104 0.930 . S
C1116 C1117 1.399 . S
C1116 C1121 1.399 . S
C1117 C1116 1.399 . S
C1117 C1118 1.376 . S
C1118 H1105 0.930 . S
C1118 C1117 1.376 . S
C1118 C1119 1.388 . S
C1119 H1106 0.930 . S
C1119 C1118 1.388 . S
C1119 C1120 1.390 . S
C1120 C1119 1.390 . S
C1120 C1121 1.394 . S
C1120 C1126 1.465 . S
C1121 C1116 1.399 . S
C1121 C1120 1.394 . S
C1121 C1122 1.516 . S
C1122 C1121 1.516 . S
C1122 C1123 1.502 . S
C1122 C1124 1.561 . S
C1122 C1125 1.526 . S
C1123 H1107 0.959 . S
C1123 H1108 0.959 . S
C1123 H1109 0.961 . S
C1123 C1122 1.502 . S
C1124 H1110 0.960 . S
C1124 H1111 0.961 . S
C1124 H1112 0.959 . S
C1124 C1122 1.561 . S
C1125 C1122 1.526 . S
C1125 C1126 1.396 . S
C1125 C1130 1.390 . S
C1126 C1120 1.465 . S
C1126 C1125 1.396 . S
C1126 C1127 1.399 . S
C1127 H1113 0.929 . S
C1127 C1126 1.399 . S
C1127 C1128 1.385 . S
C1128 H1114 0.931 . S
C1128 C1127 1.385 . S
C1128 C1129 1.389 . S
C1129 C1128 1.389 . S
C1129 C1130 1.387 . S
C1130 H1115 0.930 . S
C1130 C1125 1.390 . S
C1130 C1129 1.387 . S
H1131 C1143 0.930 . S
H1132 C1145 0.930 . S
H1133 C1146 0.930 . S
H1134 C1150 0.959 . S
H1135 C1150 0.959 . S
H1136 C1150 0.961 . S
H1137 C1151 0.960 . S
H1138 C1151 0.961 . S
H1139 C1151 0.959 . S
H1140 C1154 0.929 . S
H1141 C1155 0.931 . S
H1142 C1157 0.933 . S
C1143 H1131 0.930 . S
C1143 C1144 1.399 . S
C1143 C1148 1.399 . S
C1144 C1143 1.399 . S
C1144 C1145 1.376 . S
C1145 H1132 0.930 . S
C1145 C1144 1.376 . S
C1145 C1146 1.388 . S
C1146 H1133 0.930 . S
C1146 C1145 1.388 . S
C1146 C1147 1.390 . S
C1147 C1146 1.390 . S
C1147 C1148 1.394 . S
C1147 C1153 1.465 . S
C1148 C1143 1.399 . S
C1148 C1147 1.394 . S
C1148 C1149 1.516 . S
C1149 C1148 1.516 . S
C1149 C1150 1.502 1_455 S
C1149 C1151 1.561 . S
C1149 C1152 1.526 . S
C1150 H1134 0.959 . S
C1150 H1135 0.959 . S
C1150 H1136 0.961 . S
C1150 C1149 1.502 1_655 S
C1151 H1137 0.960 . S
C1151 H1138 0.961 . S
C1151 H1139 0.959 . S
C1151 C1149 1.561 . S
C1152 C1149 1.526 . S
C1152 C1153 1.396 . S
C1152 C1157 1.390 . S
C1153 C1147 1.465 . S
C1153 C1152 1.396 . S
C1153 C1154 1.399 . S
C1154 H1140 0.929 . S
C1154 C1153 1.399 . S
C1154 C1155 1.385 . S
C1155 H1141 0.931 . S
C1155 C1154 1.385 . S
C1155 C1156 1.389 . S
C1156 C1155 1.389 . S
C1156 C1157 1.387 . S
C1157 H1142 0.933 . S
C1157 C1152 1.390 . S
C1157 C1156 1.387 . S
H1158 C1170 0.930 . S
H1159 C1172 0.930 . S
H1160 C1173 0.930 . S
H1161 C1177 0.959 . S
H1162 C1177 0.959 . S
H1163 C1177 0.961 . S
H1164 C1178 0.960 . S
H1165 C1178 0.961 . S
H1166 C1178 0.959 . S
H1167 C1181 0.929 . S
H1168 C1182 0.931 . S
H1169 C1184 0.930 . S
C1170 H1158 0.930 . S
C1170 C1171 1.399 . S
C1170 C1175 1.399 . S
C1171 C1170 1.399 . S
C1171 C1172 1.376 . S
C1172 H1159 0.930 . S
C1172 C1171 1.376 . S
C1172 C1173 1.388 . S
C1173 H1160 0.930 . S
C1173 C1172 1.388 . S
C1173 C1174 1.390 . S
C1174 C1173 1.390 . S
C1174 C1175 1.394 . S
C1174 C1180 1.465 . S
C1175 C1170 1.399 . S
C1175 C1174 1.394 . S
C1175 C1176 1.516 . S
C1176 C1175 1.516 . S
C1176 C1177 1.502 . S
C1176 C1178 1.561 . S
C1176 C1179 1.526 . S
C1177 H1161 0.959 . S
C1177 H1162 0.959 . S
C1177 H1163 0.961 . S
C1177 C1176 1.502 . S
C1178 H1164 0.960 . S
C1178 H1165 0.961 . S
C1178 H1166 0.959 . S
C1178 C1176 1.561 . S
C1179 C1176 1.526 . S
C1179 C1180 1.396 . S
C1179 C1184 1.390 . S
C1180 C1174 1.465 . S
C1180 C1179 1.396 . S
C1180 C1181 1.399 . S
C1181 H1167 0.929 . S
C1181 C1180 1.399 . S
C1181 C1182 1.385 . S
C1182 H1168 0.931 . S
C1182 C1181 1.385 . S
C1182 C1183 1.389 . S
C1183 C1182 1.389 . S
C1183 C1184 1.387 . S
C1184 H1169 0.930 . S
C1184 C1179 1.390 . S
C1184 C1183 1.387 . S
H1185 C1197 0.930 . S
H1186 C1199 0.930 . S
H1187 C1200 0.930 . S
H1188 C1204 0.959 . S
H1189 C1204 0.959 . S
H1190 C1204 0.961 . S
H1191 C1205 0.960 . S
H1192 C1205 0.961 . S
H1193 C1205 0.959 . S
H1194 C1208 0.929 . S
H1195 C1209 0.931 . S
H1196 C1211 0.931 . S
C1197 H1185 0.930 . S
C1197 C1198 1.399 . S
C1197 C1202 1.399 . S
C1198 C1197 1.399 . S
C1198 C1199 1.376 . S
C1199 H1186 0.930 . S
C1199 C1198 1.376 . S
C1199 C1200 1.388 . S
C1200 H1187 0.930 . S
C1200 C1199 1.388 . S
C1200 C1201 1.390 . S
C1201 C1200 1.390 . S
C1201 C1202 1.394 . S
C1201 C1207 1.465 . S
C1202 C1197 1.399 . S
C1202 C1201 1.394 . S
C1202 C1203 1.514 . S
C1203 C1202 1.514 . S
C1203 C1204 1.508 1_655 S
C1203 C1205 1.558 . S
C1203 C1206 1.524 . S
C1204 H1188 0.959 . S
C1204 H1189 0.959 . S
C1204 H1190 0.961 . S
C1204 C1203 1.508 1_455 S
C1205 H1191 0.960 . S
C1205 H1192 0.961 . S
C1205 H1193 0.959 . S
C1205 C1203 1.558 . S
C1206 C1203 1.524 . S
C1206 C1207 1.396 . S
C1206 C1211 1.389 1_655 S
C1207 C1201 1.465 . S
C1207 C1206 1.396 . S
C1207 C1208 1.399 . S
C1208 H1194 0.929 . S
C1208 C1207 1.399 . S
C1208 C1209 1.385 . S
C1209 H1195 0.931 . S
C1209 C1208 1.385 . S
C1209 C1210 1.389 . S
C1210 C1209 1.389 . S
C1210 C1211 1.386 1_655 S
C1211 H1196 0.931 . S
C1211 C1206 1.389 1_455 S
C1211 C1210 1.386 1_455 S
H1212 C1224 0.930 . S
H1213 C1226 0.930 . S
H1214 C1227 0.930 . S
H1215 C1231 0.959 . S
H1216 C1231 0.959 . S
H1217 C1231 0.961 . S
H1218 C1232 0.960 . S
H1219 C1232 0.961 . S
H1220 C1232 0.959 . S
H1221 C1235 0.929 . S
H1222 C1236 0.931 . S
H1223 C1238 0.930 . S
C1224 H1212 0.930 . S
C1224 C1225 1.399 . S
C1224 C1229 1.399 . S
C1225 C1224 1.399 . S
C1225 C1226 1.376 . S
C1226 H1213 0.930 . S
C1226 C1225 1.376 . S
C1226 C1227 1.388 . S
C1227 H1214 0.930 . S
C1227 C1226 1.388 . S
C1227 C1228 1.390 . S
C1228 C1227 1.390 . S
C1228 C1229 1.394 . S
C1228 C1234 1.465 . S
C1229 C1224 1.399 . S
C1229 C1228 1.394 . S
C1229 C1230 1.516 . S
C1230 C1229 1.516 . S
C1230 C1231 1.502 . S
C1230 C1232 1.561 . S
C1230 C1233 1.526 . S
C1231 H1215 0.959 . S
C1231 H1216 0.959 . S
C1231 H1217 0.961 . S
C1231 C1230 1.502 . S
C1232 H1218 0.960 . S
C1232 H1219 0.961 . S
C1232 H1220 0.959 . S
C1232 C1230 1.561 . S
C1233 C1230 1.526 . S
C1233 C1234 1.396 . S
C1233 C1238 1.390 . S
C1234 C1228 1.465 . S
C1234 C1233 1.396 . S
C1234 C1235 1.399 . S
C1235 H1221 0.929 . S
C1235 C1234 1.399 . S
C1235 C1236 1.385 . S
C1236 H1222 0.931 . S
C1236 C1235 1.385 . S
C1236 C1237 1.389 . S
C1237 C1236 1.389 . S
C1237 C1238 1.387 . S
C1238 H1223 0.930 . S
C1238 C1233 1.390 . S
C1238 C1237 1.387 . S
H1239 C1251 0.930 . S
H1240 C1253 0.930 . S
H1241 C1254 0.930 . S
H1242 C1258 0.959 . S
H1243 C1258 0.959 . S
H1244 C1258 0.961 . S
H1245 C1259 0.960 . S
H1246 C1259 0.961 . S
H1247 C1259 0.959 . S
H1248 C1262 0.929 . S
H1249 C1263 0.931 . S
H1250 C1265 0.930 . S
C1251 H1239 0.930 . S
C1251 C1252 1.399 . S
C1251 C1256 1.399 . S
C1252 C1251 1.399 . S
C1252 C1253 1.376 . S
C1253 H1240 0.930 . S
C1253 C1252 1.376 . S
C1253 C1254 1.388 . S
C1254 H1241 0.930 . S
C1254 C1253 1.388 . S
C1254 C1255 1.390 . S
C1255 C1254 1.390 . S
C1255 C1256 1.394 . S
C1255 C1261 1.465 . S
C1256 C1251 1.399 . S
C1256 C1255 1.394 . S
C1256 C1257 1.516 . S
C1257 C1256 1.516 . S
C1257 C1258 1.502 . S
C1257 C1259 1.561 . S
C1257 C1260 1.526 . S
C1258 H1242 0.959 . S
C1258 H1243 0.959 . S
C1258 H1244 0.961 . S
C1258 C1257 1.502 . S
C1259 H1245 0.960 . S
C1259 H1246 0.961 . S
C1259 H1247 0.959 . S
C1259 C1257 1.561 . S
C1260 C1257 1.526 . S
C1260 C1261 1.396 . S
C1260 C1265 1.390 . S
C1261 C1255 1.465 . S
C1261 C1260 1.396 . S
C1261 C1262 1.399 . S
C1262 H1248 0.929 . S
C1262 C1261 1.399 . S
C1262 C1263 1.385 . S
C1263 H1249 0.931 . S
C1263 C1262 1.385 . S
C1263 C1264 1.389 . S
C1264 C1263 1.389 . S
C1264 C1265 1.387 . S
C1265 H1250 0.930 . S
C1265 C1260 1.390 . S
C1265 C1264 1.387 . S
H1266 C1278 0.930 . S
H1267 C1280 0.930 . S
H1268 C1281 0.930 . S
H1269 C1285 0.959 . S
H1270 C1285 0.959 . S
H1271 C1285 0.961 . S
H1272 C1286 0.960 . S
H1273 C1286 0.961 . S
H1274 C1286 0.959 . S
H1275 C1289 0.929 . S
H1276 C1290 0.931 . S
H1277 C1292 0.930 . S
C1278 H1266 0.930 . S
C1278 C1279 1.399 1_554 S
C1278 C1283 1.400 . S
C1279 C1278 1.399 1_556 S
C1279 C1280 1.376 . S
C1280 H1267 0.930 . S
C1280 C1279 1.376 . S
C1280 C1281 1.388 . S
C1281 H1268 0.930 . S
C1281 C1280 1.388 . S
C1281 C1282 1.390 . S
C1282 C1281 1.390 . S
C1282 C1283 1.366 1_556 S
C1282 C1288 1.465 . S
C1283 C1278 1.400 . S
C1283 C1282 1.366 1_554 S
C1283 C1284 1.541 . S
C1284 C1283 1.541 . S
C1284 C1285 1.502 . S
C1284 C1286 1.561 . S
C1284 C1287 1.526 . S
C1285 H1269 0.959 . S
C1285 H1270 0.959 . S
C1285 H1271 0.961 . S
C1285 C1284 1.502 . S
C1286 H1272 0.960 . S
C1286 H1273 0.961 . S
C1286 H1274 0.959 . S
C1286 C1284 1.561 . S
C1287 C1284 1.526 . S
C1287 C1288 1.396 1_554 S
C1287 C1292 1.390 . S
C1288 C1282 1.465 . S
C1288 C1287 1.396 1_556 S
C1288 C1289 1.399 . S
C1289 H1275 0.929 . S
C1289 C1288 1.399 . S
C1289 C1290 1.385 . S
C1290 H1276 0.931 . S
C1290 C1289 1.385 . S
C1290 C1291 1.405 . S
C1291 C1290 1.405 . S
C1291 C1292 1.377 1_556 S
C1292 H1277 0.930 . S
C1292 C1287 1.390 . S
C1292 C1291 1.377 1_554 S
H1293 C1305 0.930 . S
H1294 C1307 0.930 . S
H1295 C1308 0.930 . S
H1296 C1312 0.959 . S
H1297 C1312 0.959 . S
H1298 C1312 0.961 . S
H1299 C1313 0.960 . S
H1300 C1313 0.961 . S
H1301 C1313 0.959 . S
H1302 C1316 0.929 . S
H1303 C1317 0.931 . S
H1304 C1319 0.930 . S
C1305 H1293 0.930 . S
C1305 C1306 1.399 . S
C1305 C1310 1.399 . S
C1306 C1305 1.399 . S
C1306 C1307 1.376 . S
C1307 H1294 0.930 . S
C1307 C1306 1.376 . S
C1307 C1308 1.388 . S
C1308 H1295 0.930 . S
C1308 C1307 1.388 . S
C1308 C1309 1.390 . S
C1309 C1308 1.390 . S
C1309 C1310 1.394 . S
C1309 C1315 1.465 . S
C1310 C1305 1.399 . S
C1310 C1309 1.394 . S
C1310 C1311 1.516 . S
C1311 C1310 1.516 . S
C1311 C1312 1.502 . S
C1311 C1313 1.561 . S
C1311 C1314 1.526 . S
C1312 H1296 0.959 . S
C1312 H1297 0.959 . S
C1312 H1298 0.961 . S
C1312 C1311 1.502 . S
C1313 H1299 0.960 . S
C1313 H1300 0.961 . S
C1313 H1301 0.959 . S
C1313 C1311 1.561 . S
C1314 C1311 1.526 . S
C1314 C1315 1.396 . S
C1314 C1319 1.390 . S
C1315 C1309 1.465 . S
C1315 C1314 1.396 . S
C1315 C1316 1.399 . S
C1316 H1302 0.929 . S
C1316 C1315 1.399 . S
C1316 C1317 1.385 . S
C1317 H1303 0.931 . S
C1317 C1316 1.385 . S
C1317 C1318 1.389 . S
C1318 C1317 1.389 . S
C1318 C1319 1.387 . S
C1319 H1304 0.930 . S
C1319 C1314 1.390 . S
C1319 C1318 1.387 . S
H1320 C1332 0.930 . S
H1321 C1334 0.930 . S
H1322 C1335 0.930 . S
H1323 C1339 0.959 . S
H1324 C1339 0.959 . S
H1325 C1339 0.961 . S
H1326 C1340 0.960 . S
H1327 C1340 0.961 . S
H1328 C1340 0.959 . S
H1329 C1343 0.929 . S
H1330 C1344 0.931 . S
H1331 C1346 0.930 . S
C1332 H1320 0.930 . S
C1332 C1333 1.399 . S
C1332 C1337 1.399 . S
C1333 C1332 1.399 . S
C1333 C1334 1.376 . S
C1334 H1321 0.930 . S
C1334 C1333 1.376 . S
C1334 C1335 1.388 . S
C1335 H1322 0.930 . S
C1335 C1334 1.388 . S
C1335 C1336 1.390 . S
C1336 C1335 1.390 . S
C1336 C1337 1.394 . S
C1336 C1342 1.465 . S
C1337 C1332 1.399 . S
C1337 C1336 1.394 . S
C1337 C1338 1.516 . S
C1338 C1337 1.516 . S
C1338 C1339 1.502 . S
C1338 C1340 1.561 . S
C1338 C1341 1.526 . S
C1339 H1323 0.959 . S
C1339 H1324 0.959 . S
C1339 H1325 0.961 . S
C1339 C1338 1.502 . S
C1340 H1326 0.960 . S
C1340 H1327 0.961 . S
C1340 H1328 0.959 . S
C1340 C1338 1.561 . S
C1341 C1338 1.526 . S
C1341 C1342 1.396 . S
C1341 C1346 1.390 . S
C1342 C1336 1.465 . S
C1342 C1341 1.396 . S
C1342 C1343 1.399 . S
C1343 H1329 0.929 . S
C1343 C1342 1.399 . S
C1343 C1344 1.385 . S
C1344 H1330 0.931 . S
C1344 C1343 1.385 . S
C1344 C1345 1.389 . S
C1345 C1344 1.389 . S
C1345 C1346 1.387 . S
C1346 H1331 0.930 . S
C1346 C1341 1.390 . S
C1346 C1345 1.387 . S
H1347 C1359 0.930 . S
H1348 C1361 0.930 . S
H1349 C1362 0.930 . S
H1350 C1366 0.959 . S
H1351 C1366 0.959 . S
H1352 C1366 0.961 . S
H1353 C1367 0.960 . S
H1354 C1367 0.961 . S
H1355 C1367 0.959 . S
H1356 C1370 0.929 . S
H1357 C1371 0.931 . S
H1358 C1373 0.930 . S
C1359 H1347 0.930 . S
C1359 C1360 1.399 . S
C1359 C1364 1.399 . S
C1360 C1359 1.399 . S
C1360 C1361 1.376 . S
C1361 H1348 0.930 . S
C1361 C1360 1.376 . S
C1361 C1362 1.388 . S
C1362 H1349 0.930 . S
C1362 C1361 1.388 . S
C1362 C1363 1.390 . S
C1363 C1362 1.390 . S
C1363 C1364 1.394 . S
C1363 C1369 1.465 . S
C1364 C1359 1.399 . S
C1364 C1363 1.394 . S
C1364 C1365 1.516 . S
C1365 C1364 1.516 . S
C1365 C1366 1.502 . S
C1365 C1367 1.561 . S
C1365 C1368 1.526 . S
C1366 H1350 0.959 . S
C1366 H1351 0.959 . S
C1366 H1352 0.961 . S
C1366 C1365 1.502 . S
C1367 H1353 0.960 . S
C1367 H1354 0.961 . S
C1367 H1355 0.959 . S
C1367 C1365 1.561 . S
C1368 C1365 1.526 . S
C1368 C1369 1.396 . S
C1368 C1373 1.390 . S
C1369 C1363 1.465 . S
C1369 C1368 1.396 . S
C1369 C1370 1.399 . S
C1370 H1356 0.929 . S
C1370 C1369 1.399 . S
C1370 C1371 1.385 . S
C1371 H1357 0.931 . S
C1371 C1370 1.385 . S
C1371 C1372 1.389 . S
C1372 C1371 1.389 . S
C1372 C1373 1.387 . S
C1373 H1358 0.930 . S
C1373 C1368 1.390 . S
C1373 C1372 1.387 . S
H1374 C1386 0.930 . S
H1375 C1388 0.930 . S
H1376 C1389 0.930 . S
H1377 C1393 0.959 . S
H1378 C1393 0.959 . S
H1379 C1393 0.961 . S
H1380 C1394 0.960 . S
H1381 C1394 0.961 . S
H1382 C1394 0.959 . S
H1383 C1397 0.929 . S
H1384 C1398 0.931 . S
H1385 C1400 0.930 . S
C1386 H1374 0.930 . S
C1386 C1387 1.399 . S
C1386 C1391 1.399 . S
C1387 C1386 1.399 . S
C1387 C1388 1.376 . S
C1388 H1375 0.930 . S
C1388 C1387 1.376 . S
C1388 C1389 1.388 . S
C1389 H1376 0.930 . S
C1389 C1388 1.388 . S
C1389 C1390 1.390 . S
C1390 C1389 1.390 . S
C1390 C1391 1.394 . S
C1390 C1396 1.465 . S
C1391 C1386 1.399 . S
C1391 C1390 1.394 . S
C1391 C1392 1.516 . S
C1392 C1391 1.516 . S
C1392 C1393 1.502 . S
C1392 C1394 1.561 . S
C1392 C1395 1.526 . S
C1393 H1377 0.959 . S
C1393 H1378 0.959 . S
C1393 H1379 0.961 . S
C1393 C1392 1.502 . S
C1394 H1380 0.960 . S
C1394 H1381 0.961 . S
C1394 H1382 0.959 . S
C1394 C1392 1.561 . S
C1395 C1392 1.526 . S
C1395 C1396 1.396 . S
C1395 C1400 1.390 . S
C1396 C1390 1.465 . S
C1396 C1395 1.396 . S
C1396 C1397 1.399 . S
C1397 H1383 0.929 . S
C1397 C1396 1.399 . S
C1397 C1398 1.385 . S
C1398 H1384 0.931 . S
C1398 C1397 1.385 . S
C1398 C1399 1.389 . S
C1399 C1398 1.389 . S
C1399 C1400 1.387 . S
C1400 H1385 0.930 . S
C1400 C1395 1.390 . S
C1400 C1399 1.387 . S
H1401 C1413 0.930 . S
H1402 C1415 0.930 . S
H1403 C1416 0.930 . S
H1404 C1420 0.959 . S
H1405 C1420 0.959 . S
H1406 C1420 0.961 . S
H1407 C1421 0.960 . S
H1408 C1421 0.961 . S
H1409 C1421 0.959 . S
H1410 C1424 0.929 . S
H1411 C1425 0.931 . S
H1412 C1427 0.930 . S
C1413 H1401 0.930 . S
C1413 C1414 1.399 . S
C1413 C1418 1.399 . S
C1414 C1413 1.399 . S
C1414 C1415 1.376 . S
C1415 H1402 0.930 . S
C1415 C1414 1.376 . S
C1415 C1416 1.388 . S
C1416 H1403 0.930 . S
C1416 C1415 1.388 . S
C1416 C1417 1.390 . S
C1417 C1416 1.390 . S
C1417 C1418 1.394 . S
C1417 C1423 1.465 . S
C1418 C1413 1.399 . S
C1418 C1417 1.394 . S
C1418 C1419 1.516 . S
C1419 C1418 1.516 . S
C1419 C1420 1.502 . S
C1419 C1421 1.561 . S
C1419 C1422 1.526 . S
C1420 H1404 0.959 . S
C1420 H1405 0.959 . S
C1420 H1406 0.961 . S
C1420 C1419 1.502 . S
C1421 H1407 0.960 . S
C1421 H1408 0.961 . S
C1421 H1409 0.959 . S
C1421 C1419 1.561 . S
C1422 C1419 1.526 . S
C1422 C1423 1.396 . S
C1422 C1427 1.390 . S
C1423 C1417 1.465 . S
C1423 C1422 1.396 . S
C1423 C1424 1.399 . S
C1424 H1410 0.929 . S
C1424 C1423 1.399 . S
C1424 C1425 1.385 . S
C1425 H1411 0.931 . S
C1425 C1424 1.385 . S
C1425 C1426 1.389 . S
C1426 C1425 1.389 . S
C1426 C1427 1.387 . S
C1427 H1412 0.930 . S
C1427 C1422 1.390 . S
C1427 C1426 1.387 . S
H1428 C1440 0.930 . S
H1429 C1442 0.930 . S
H1430 C1443 0.930 . S
H1431 C1447 0.959 . S
H1432 C1447 0.959 . S
H1433 C1447 0.961 . S
H1434 C1448 0.960 . S
H1435 C1448 0.961 . S
H1436 C1448 0.959 . S
H1437 C1451 0.929 . S
H1438 C1452 0.931 . S
H1439 C1454 0.930 . S
C1440 H1428 0.930 . S
C1440 C1441 1.399 . S
C1440 C1445 1.399 . S
C1441 C1440 1.399 . S
C1441 C1442 1.376 . S
C1442 H1429 0.930 . S
C1442 C1441 1.376 . S
C1442 C1443 1.388 . S
C1443 H1430 0.930 . S
C1443 C1442 1.388 . S
C1443 C1444 1.390 . S
C1444 C1443 1.390 . S
C1444 C1445 1.394 . S
C1444 C1450 1.465 . S
C1445 C1440 1.399 . S
C1445 C1444 1.394 . S
C1445 C1446 1.516 . S
C1446 C1445 1.516 . S
C1446 C1447 1.502 . S
C1446 C1448 1.561 . S
C1446 C1449 1.526 . S
C1447 H1431 0.959 . S
C1447 H1432 0.959 . S
C1447 H1433 0.961 . S
C1447 C1446 1.502 . S
C1448 H1434 0.960 . S
C1448 H1435 0.961 . S
C1448 H1436 0.959 . S
C1448 C1446 1.561 . S
C1449 C1446 1.526 . S
C1449 C1450 1.396 . S
C1449 C1454 1.390 . S
C1450 C1444 1.465 . S
C1450 C1449 1.396 . S
C1450 C1451 1.399 . S
C1451 H1437 0.929 . S
C1451 C1450 1.399 . S
C1451 C1452 1.385 . S
C1452 H1438 0.931 . S
C1452 C1451 1.385 . S
C1452 C1453 1.389 . S
C1453 C1452 1.389 . S
C1453 C1454 1.387 . S
C1454 H1439 0.930 . S
C1454 C1449 1.390 . S
C1454 C1453 1.387 . S
H1455 C1467 0.930 . S
H1456 C1469 0.930 1_565 S
H1457 C1470 0.930 . S
H1458 C1474 0.959 . S
H1459 C1474 0.959 . S
H1460 C1474 0.961 . S
H1461 C1475 0.960 . S
H1462 C1475 0.961 . S
H1463 C1475 0.959 . S
H1464 C1478 0.929 . S
H1465 C1479 0.931 . S
H1466 C1481 0.930 . S
C1467 H1455 0.930 . S
C1467 C1468 1.399 . S
C1467 C1472 1.399 . S
C1468 C1467 1.399 . S
C1468 C1469 1.376 . S
C1469 H1456 0.930 1_545 S
C1469 C1468 1.376 . S
C1469 C1470 1.388 1_545 S
C1470 H1457 0.930 . S
C1470 C1469 1.388 1_565 S
C1470 C1471 1.390 1_565 S
C1471 C1470 1.390 1_545 S
C1471 C1472 1.394 . S
C1471 C1477 1.465 . S
C1472 C1467 1.399 . S
C1472 C1471 1.394 . S
C1472 C1473 1.516 . S
C1473 C1472 1.516 . S
C1473 C1474 1.502 . S
C1473 C1475 1.561 . S
C1473 C1476 1.526 . S
C1474 H1458 0.959 . S
C1474 H1459 0.959 . S
C1474 H1460 0.961 . S
C1474 C1473 1.502 . S
C1475 H1461 0.960 . S
C1475 H1462 0.961 . S
C1475 H1463 0.959 . S
C1475 C1473 1.561 . S
C1476 C1473 1.526 . S
C1476 C1477 1.396 . S
C1476 C1481 1.390 . S
C1477 C1471 1.465 . S
C1477 C1476 1.396 . S
C1477 C1478 1.399 1_545 S
C1478 H1464 0.929 . S
C1478 C1477 1.399 1_565 S
C1478 C1479 1.385 . S
C1479 H1465 0.931 . S
C1479 C1478 1.385 . S
C1479 C1480 1.389 1_565 S
C1480 C1479 1.389 1_545 S
C1480 C1481 1.387 . S
C1481 H1466 0.930 . S
C1481 C1476 1.390 . S
C1481 C1480 1.387 . S
H1482 C1494 0.930 . S
H1483 C1496 0.930 . S
H1484 C1497 0.930 . S
H1485 C1501 0.959 . S
H1486 C1501 0.959 . S
H1487 C1501 0.961 . S
H1488 C1502 0.960 . S
H1489 C1502 0.961 . S
H1490 C1502 0.959 . S
H1491 C1505 0.929 . S
H1492 C1506 0.931 . S
H1493 C1508 0.930 . S
C1494 H1482 0.930 . S
C1494 C1495 1.399 . S
C1494 C1499 1.399 . S
C1495 C1494 1.399 . S
C1495 C1496 1.376 . S
C1496 H1483 0.930 . S
C1496 C1495 1.376 . S
C1496 C1497 1.388 . S
C1497 H1484 0.930 . S
C1497 C1496 1.388 . S
C1497 C1498 1.390 . S
C1498 C1497 1.390 . S
C1498 C1499 1.394 . S
C1498 C1504 1.465 . S
C1499 C1494 1.399 . S
C1499 C1498 1.394 . S
C1499 C1500 1.516 . S
C1500 C1499 1.516 . S
C1500 C1501 1.502 . S
C1500 C1502 1.561 . S
C1500 C1503 1.526 . S
C1501 H1485 0.959 . S
C1501 H1486 0.959 . S
C1501 H1487 0.961 . S
C1501 C1500 1.502 . S
C1502 H1488 0.960 . S
C1502 H1489 0.961 . S
C1502 H1490 0.959 . S
C1502 C1500 1.561 . S
C1503 C1500 1.526 . S
C1503 C1504 1.396 . S
C1503 C1508 1.390 . S
C1504 C1498 1.465 . S
C1504 C1503 1.396 . S
C1504 C1505 1.399 . S
C1505 H1491 0.929 . S
C1505 C1504 1.399 . S
C1505 C1506 1.385 . S
C1506 H1492 0.931 . S
C1506 C1505 1.385 . S
C1506 C1507 1.389 . S
C1507 C1506 1.389 . S
C1507 C1508 1.387 . S
C1508 H1493 0.930 . S
C1508 C1503 1.390 . S
C1508 C1507 1.387 . S
H1509 C1521 0.930 . S
H1510 C1523 0.930 . S
H1511 C1524 0.930 . S
H1512 C1528 0.959 . S
H1513 C1528 0.959 . S
H1514 C1528 0.961 . S
H1515 C1529 0.960 . S
H1516 C1529 0.961 . S
H1517 C1529 0.959 . S
H1518 C1532 0.929 . S
H1519 C1533 0.931 . S
H1520 C1535 0.930 . S
C1521 H1509 0.930 . S
C1521 C1522 1.399 . S
C1521 C1526 1.399 . S
C1522 C1521 1.399 . S
C1522 C1523 1.376 . S
C1523 H1510 0.930 . S
C1523 C1522 1.376 . S
C1523 C1524 1.388 . S
C1524 H1511 0.930 . S
C1524 C1523 1.388 . S
C1524 C1525 1.390 . S
C1525 C1524 1.390 . S
C1525 C1526 1.394 . S
C1525 C1531 1.465 . S
C1526 C1521 1.399 . S
C1526 C1525 1.394 . S
C1526 C1527 1.516 . S
C1527 C1526 1.516 . S
C1527 C1528 1.502 . S
C1527 C1529 1.561 . S
C1527 C1530 1.526 . S
C1528 H1512 0.959 . S
C1528 H1513 0.959 . S
C1528 H1514 0.961 . S
C1528 C1527 1.502 . S
C1529 H1515 0.960 . S
C1529 H1516 0.961 . S
C1529 H1517 0.959 . S
C1529 C1527 1.561 . S
C1530 C1527 1.526 . S
C1530 C1531 1.396 . S
C1530 C1535 1.390 . S
C1531 C1525 1.465 . S
C1531 C1530 1.396 . S
C1531 C1532 1.399 . S
C1532 H1518 0.929 . S
C1532 C1531 1.399 . S
C1532 C1533 1.385 . S
C1533 H1519 0.931 . S
C1533 C1532 1.385 . S
C1533 C1534 1.389 . S
C1534 C1533 1.389 . S
C1534 C1535 1.387 . S
C1535 H1520 0.930 . S
C1535 C1530 1.390 . S
C1535 C1534 1.387 . S
H1536 C1548 0.930 . S
H1537 C1550 0.930 . S
H1538 C1551 0.930 . S
H1539 C1555 0.959 . S
H1540 C1555 0.959 . S
H1541 C1555 0.961 . S
H1542 C1556 0.960 . S
H1543 C1556 0.961 . S
H1544 C1556 0.959 . S
H1545 C1559 0.929 . S
H1546 C1560 0.931 . S
H1547 C1562 0.930 . S
C1548 H1536 0.930 . S
C1548 C1549 1.399 . S
C1548 C1553 1.399 . S
C1549 C1548 1.399 . S
C1549 C1550 1.376 . S
C1550 H1537 0.930 . S
C1550 C1549 1.376 . S
C1550 C1551 1.388 . S
C1551 H1538 0.930 . S
C1551 C1550 1.388 . S
C1551 C1552 1.390 . S
C1552 C1551 1.390 . S
C1552 C1553 1.394 . S
C1552 C1558 1.465 . S
C1553 C1548 1.399 . S
C1553 C1552 1.394 . S
C1553 C1554 1.516 . S
C1554 C1553 1.516 . S
C1554 C1555 1.502 . S
C1554 C1556 1.561 . S
C1554 C1557 1.526 . S
C1555 H1539 0.959 . S
C1555 H1540 0.959 . S
C1555 H1541 0.961 . S
C1555 C1554 1.502 . S
C1556 H1542 0.960 . S
C1556 H1543 0.961 . S
C1556 H1544 0.959 . S
C1556 C1554 1.561 . S
C1557 C1554 1.526 . S
C1557 C1558 1.396 . S
C1557 C1562 1.390 . S
C1558 C1552 1.465 . S
C1558 C1557 1.396 . S
C1558 C1559 1.399 . S
C1559 H1545 0.929 . S
C1559 C1558 1.399 . S
C1559 C1560 1.385 . S
C1560 H1546 0.931 . S
C1560 C1559 1.385 . S
C1560 C1561 1.389 . S
C1561 C1560 1.389 . S
C1561 C1562 1.387 . S
C1562 H1547 0.930 . S
C1562 C1557 1.390 . S
C1562 C1561 1.387 . S
H1563 C1575 0.930 . S
H1564 C1577 0.930 . S
H1565 C1578 0.930 1_565 S
H1566 C1582 0.959 . S
H1567 C1582 0.959 . S
H1568 C1582 0.961 . S
H1569 C1583 0.960 . S
H1570 C1583 0.961 . S
H1571 C1583 0.959 . S
H1572 C1586 0.929 1_565 S
H1573 C1587 0.931 1_565 S
H1574 C1589 0.930 . S
C1575 H1563 0.930 . S
C1575 C1576 1.399 . S
C1575 C1580 1.399 . S
C1576 C1575 1.399 . S
C1576 C1577 1.376 . S
C1577 H1564 0.930 . S
C1577 C1576 1.376 . S
C1577 C1578 1.388 . S
C1578 H1565 0.930 1_545 S
C1578 C1577 1.388 . S
C1578 C1579 1.390 . S
C1579 C1578 1.390 . S
C1579 C1580 1.394 . S
C1579 C1585 1.465 . S
C1580 C1575 1.399 . S
C1580 C1579 1.394 . S
C1580 C1581 1.516 . S
C1581 C1580 1.516 . S
C1581 C1582 1.502 . S
C1581 C1583 1.561 . S
C1581 C1584 1.526 . S
C1582 H1566 0.959 . S
C1582 H1567 0.959 . S
C1582 H1568 0.961 . S
C1582 C1581 1.502 . S
C1583 H1569 0.960 . S
C1583 H1570 0.961 . S
C1583 H1571 0.959 . S
C1583 C1581 1.561 . S
C1584 C1581 1.526 . S
C1584 C1585 1.396 . S
C1584 C1589 1.390 . S
C1585 C1579 1.465 . S
C1585 C1584 1.396 . S
C1585 C1586 1.399 . S
C1586 H1572 0.929 1_545 S
C1586 C1585 1.399 . S
C1586 C1587 1.385 . S
C1587 H1573 0.931 1_545 S
C1587 C1586 1.385 . S
C1587 C1588 1.389 . S
C1588 C1587 1.389 . S
C1588 C1589 1.387 . S
C1589 H1574 0.930 . S
C1589 C1584 1.390 . S
C1589 C1588 1.387 . S
H1590 C1602 0.930 . S
H1591 C1604 0.930 . S
H1592 C1605 0.930 . S
H1593 C1609 0.959 . S
H1594 C1609 0.959 . S
H1595 C1609 0.961 . S
H1596 C1610 0.960 . S
H1597 C1610 0.961 . S
H1598 C1610 0.959 . S
H1599 C1613 0.929 . S
H1600 C1614 0.931 . S
H1601 C1616 0.930 . S
C1602 H1590 0.930 . S
C1602 C1603 1.399 . S
C1602 C1607 1.399 . S
C1603 C1602 1.399 . S
C1603 C1604 1.376 . S
C1604 H1591 0.930 . S
C1604 C1603 1.376 . S
C1604 C1605 1.388 . S
C1605 H1592 0.930 . S
C1605 C1604 1.388 . S
C1605 C1606 1.390 . S
C1606 C1605 1.390 . S
C1606 C1607 1.394 . S
C1606 C1612 1.465 . S
C1607 C1602 1.399 . S
C1607 C1606 1.394 . S
C1607 C1608 1.516 . S
C1608 C1607 1.516 . S
C1608 C1609 1.502 . S
C1608 C1610 1.561 . S
C1608 C1611 1.526 . S
C1609 H1593 0.959 . S
C1609 H1594 0.959 . S
C1609 H1595 0.961 . S
C1609 C1608 1.502 . S
C1610 H1596 0.960 . S
C1610 H1597 0.961 . S
C1610 H1598 0.959 . S
C1610 C1608 1.561 . S
C1611 C1608 1.526 . S
C1611 C1612 1.396 . S
C1611 C1616 1.390 . S
C1612 C1606 1.465 . S
C1612 C1611 1.396 . S
C1612 C1613 1.399 . S
C1613 H1599 0.929 . S
C1613 C1612 1.399 . S
C1613 C1614 1.385 . S
C1614 H1600 0.931 . S
C1614 C1613 1.385 . S
C1614 C1615 1.389 . S
C1615 C1614 1.389 . S
C1615 C1616 1.387 . S
C1616 H1601 0.930 . S
C1616 C1611 1.390 . S
C1616 C1615 1.387 . S
H1617 C1629 0.930 . S
H1618 C1631 0.930 . S
H1619 C1632 0.930 . S
H1620 C1636 0.959 . S
H1621 C1636 0.959 . S
H1622 C1636 0.961 . S
H1623 C1637 0.960 . S
H1624 C1637 0.961 . S
H1625 C1637 0.959 . S
H1626 C1640 0.929 . S
H1627 C1641 0.931 . S
H1628 C1643 0.930 . S
C1629 H1617 0.930 . S
C1629 C1630 1.399 . S
C1629 C1634 1.399 . S
C1630 C1629 1.399 . S
C1630 C1631 1.376 . S
C1631 H1618 0.930 . S
C1631 C1630 1.376 . S
C1631 C1632 1.388 . S
C1632 H1619 0.930 . S
C1632 C1631 1.388 . S
C1632 C1633 1.390 . S
C1633 C1632 1.390 . S
C1633 C1634 1.394 . S
C1633 C1639 1.465 . S
C1634 C1629 1.399 . S
C1634 C1633 1.394 . S
C1634 C1635 1.516 . S
C1635 C1634 1.516 . S
C1635 C1636 1.502 . S
C1635 C1637 1.561 . S
C1635 C1638 1.526 . S
C1636 H1620 0.959 . S
C1636 H1621 0.959 . S
C1636 H1622 0.961 . S
C1636 C1635 1.502 . S
C1637 H1623 0.960 . S
C1637 H1624 0.961 . S
C1637 H1625 0.959 . S
C1637 C1635 1.561 . S
C1638 C1635 1.526 . S
C1638 C1639 1.396 . S
C1638 C1643 1.390 . S
C1639 C1633 1.465 . S
C1639 C1638 1.396 . S
C1639 C1640 1.399 . S
C1640 H1626 0.929 . S
C1640 C1639 1.399 . S
C1640 C1641 1.385 . S
C1641 H1627 0.931 . S
C1641 C1640 1.385 . S
C1641 C1642 1.389 . S
C1642 C1641 1.389 . S
C1642 C1643 1.387 . S
C1643 H1628 0.930 . S
C1643 C1638 1.390 . S
C1643 C1642 1.387 . S
H1644 C1656 0.930 . S
H1645 C1658 0.930 . S
H1646 C1659 0.930 . S
H1647 C1663 0.959 . S
H1648 C1663 0.959 . S
H1649 C1663 0.961 . S
H1650 C1664 0.960 . S
H1651 C1664 0.961 . S
H1652 C1664 0.959 . S
H1653 C1667 0.929 . S
H1654 C1668 0.931 . S
H1655 C1670 0.930 . S
C1656 H1644 0.930 . S
C1656 C1657 1.399 . S
C1656 C1661 1.399 . S
C1657 C1656 1.399 . S
C1657 C1658 1.376 . S
C1658 H1645 0.930 . S
C1658 C1657 1.376 . S
C1658 C1659 1.388 . S
C1659 H1646 0.930 . S
C1659 C1658 1.388 . S
C1659 C1660 1.390 . S
C1660 C1659 1.390 . S
C1660 C1661 1.394 . S
C1660 C1666 1.465 . S
C1661 C1656 1.399 . S
C1661 C1660 1.394 . S
C1661 C1662 1.516 . S
C1662 C1661 1.516 . S
C1662 C1663 1.502 . S
C1662 C1664 1.561 . S
C1662 C1665 1.526 . S
C1663 H1647 0.959 . S
C1663 H1648 0.959 . S
C1663 H1649 0.961 . S
C1663 C1662 1.502 . S
C1664 H1650 0.960 . S
C1664 H1651 0.961 . S
C1664 H1652 0.959 . S
C1664 C1662 1.561 . S
C1665 C1662 1.526 . S
C1665 C1666 1.396 . S
C1665 C1670 1.390 . S
C1666 C1660 1.465 . S
C1666 C1665 1.396 . S
C1666 C1667 1.399 . S
C1667 H1653 0.929 . S
C1667 C1666 1.399 . S
C1667 C1668 1.385 . S
C1668 H1654 0.931 . S
C1668 C1667 1.385 . S
C1668 C1669 1.389 . S
C1669 C1668 1.389 . S
C1669 C1670 1.387 . S
C1670 H1655 0.930 . S
C1670 C1665 1.390 . S
C1670 C1669 1.387 . S
H1671 C1683 0.930 . S
H1672 C1685 0.930 . S
H1673 C1686 0.930 . S
H1674 C1690 0.959 . S
H1675 C1690 0.959 . S
H1676 C1690 0.961 . S
H1677 C1691 0.960 . S
H1678 C1691 0.961 . S
H1679 C1691 0.959 . S
H1680 C1694 0.929 . S
H1681 C1695 0.931 . S
H1682 C1697 0.930 1_455 S
C1683 H1671 0.930 . S
C1683 C1684 1.399 . S
C1683 C1688 1.399 . S
C1684 C1683 1.399 . S
C1684 C1685 1.376 . S
C1685 H1672 0.930 . S
C1685 C1684 1.376 . S
C1685 C1686 1.388 . S
C1686 H1673 0.930 . S
C1686 C1685 1.388 . S
C1686 C1687 1.390 . S
C1687 C1686 1.390 . S
C1687 C1688 1.394 . S
C1687 C1693 1.465 . S
C1688 C1683 1.399 . S
C1688 C1687 1.394 . S
C1688 C1689 1.516 . S
C1689 C1688 1.516 . S
C1689 C1690 1.502 1_655 S
C1689 C1691 1.561 . S
C1689 C1692 1.526 . S
C1690 H1674 0.959 . S
C1690 H1675 0.959 . S
C1690 H1676 0.961 . S
C1690 C1689 1.502 1_455 S
C1691 H1677 0.960 . S
C1691 H1678 0.961 . S
C1691 H1679 0.959 . S
C1691 C1689 1.561 . S
C1692 C1689 1.526 . S
C1692 C1693 1.396 . S
C1692 C1697 1.390 . S
C1693 C1687 1.465 . S
C1693 C1692 1.396 . S
C1693 C1694 1.399 . S
C1694 H1680 0.929 . S
C1694 C1693 1.399 . S
C1694 C1695 1.385 . S
C1695 H1681 0.931 . S
C1695 C1694 1.385 . S
C1695 C1696 1.389 . S
C1696 C1695 1.389 . S
C1696 C1697 1.387 . S
C1697 H1682 0.930 1_655 S
C1697 C1692 1.390 . S
C1697 C1696 1.387 . S
H1698 C1710 0.930 . S
H1699 C1712 0.930 . S
H1700 C1713 0.930 . S
H1701 C1717 0.959 . S
H1702 C1717 0.959 . S
H1703 C1717 0.961 . S
H1704 C1718 0.960 . S
H1705 C1718 0.961 . S
H1706 C1718 0.959 . S
H1707 C1721 0.929 . S
H1708 C1722 0.931 . S
H1709 C1724 0.930 . S
C1710 H1698 0.930 . S
C1710 C1711 1.399 . S
C1710 C1715 1.399 . S
C1711 C1710 1.399 . S
C1711 C1712 1.376 . S
C1712 H1699 0.930 . S
C1712 C1711 1.376 . S
C1712 C1713 1.388 . S
C1713 H1700 0.930 . S
C1713 C1712 1.388 . S
C1713 C1714 1.390 . S
C1714 C1713 1.390 . S
C1714 C1715 1.394 . S
C1714 C1720 1.465 . S
C1715 C1710 1.399 . S
C1715 C1714 1.394 . S
C1715 C1716 1.516 . S
C1716 C1715 1.516 . S
C1716 C1717 1.502 . S
C1716 C1718 1.561 . S
C1716 C1719 1.526 . S
C1717 H1701 0.959 . S
C1717 H1702 0.959 . S
C1717 H1703 0.961 . S
C1717 C1716 1.502 . S
C1718 H1704 0.960 . S
C1718 H1705 0.961 . S
C1718 H1706 0.959 . S
C1718 C1716 1.561 . S
C1719 C1716 1.526 . S
C1719 C1720 1.396 . S
C1719 C1724 1.390 . S
C1720 C1714 1.465 . S
C1720 C1719 1.396 . S
C1720 C1721 1.399 . S
C1721 H1707 0.929 . S
C1721 C1720 1.399 . S
C1721 C1722 1.385 . S
C1722 H1708 0.931 . S
C1722 C1721 1.385 . S
C1722 C1723 1.389 . S
C1723 C1722 1.389 . S
C1723 C1724 1.387 . S
C1724 H1709 0.930 . S
C1724 C1719 1.390 . S
C1724 C1723 1.387 . S
H1725 C1737 0.930 . S
H1726 C1739 0.930 1_655 S
H1727 C1740 0.930 . S
H1728 C1744 0.959 . S
H1729 C1744 0.959 . S
H1730 C1744 0.961 . S
H1731 C1745 0.960 . S
H1732 C1745 0.961 . S
H1733 C1745 0.959 . S
H1734 C1748 0.929 . S
H1735 C1749 0.931 . S
H1736 C1751 0.930 . S
C1737 H1725 0.930 . S
C1737 C1738 1.399 . S
C1737 C1742 1.399 . S
C1738 C1737 1.399 . S
C1738 C1739 1.376 . S
C1739 H1726 0.930 1_455 S
C1739 C1738 1.376 . S
C1739 C1740 1.388 1_455 S
C1740 H1727 0.930 . S
C1740 C1739 1.388 1_655 S
C1740 C1741 1.390 1_655 S
C1741 C1740 1.390 1_455 S
C1741 C1742 1.394 . S
C1741 C1747 1.465 . S
C1742 C1737 1.399 . S
C1742 C1741 1.394 . S
C1742 C1743 1.516 . S
C1743 C1742 1.516 . S
C1743 C1744 1.502 . S
C1743 C1745 1.561 . S
C1743 C1746 1.526 . S
C1744 H1728 0.959 . S
C1744 H1729 0.959 . S
C1744 H1730 0.961 . S
C1744 C1743 1.502 . S
C1745 H1731 0.960 . S
C1745 H1732 0.961 . S
C1745 H1733 0.959 . S
C1745 C1743 1.561 . S
C1746 C1743 1.526 . S
C1746 C1747 1.396 . S
C1746 C1751 1.390 . S
C1747 C1741 1.465 . S
C1747 C1746 1.396 . S
C1747 C1748 1.399 1_455 S
C1748 H1734 0.929 . S
C1748 C1747 1.399 1_655 S
C1748 C1749 1.385 . S
C1749 H1735 0.931 . S
C1749 C1748 1.385 . S
C1749 C1750 1.389 1_655 S
C1750 C1749 1.389 1_455 S
C1750 C1751 1.387 . S
C1751 H1736 0.930 . S
C1751 C1746 1.390 . S
C1751 C1750 1.387 . S
H1752 C1764 0.930 . S
H1753 C1766 0.930 . S
H1754 C1767 0.930 . S
H1755 C1771 0.959 . S
H1756 C1771 0.959 . S
H1757 C1771 0.961 . S
H1758 C1772 0.960 . S
H1759 C1772 0.961 . S
H1760 C1772 0.959 . S
H1761 C1775 0.929 . S
H1762 C1776 0.931 . S
H1763 C1778 0.930 . S
C1764 H1752 0.930 . S
C1764 C1765 1.399 . S
C1764 C1769 1.399 . S
C1765 C1764 1.399 . S
C1765 C1766 1.376 . S
C1766 H1753 0.930 . S
C1766 C1765 1.376 . S
C1766 C1767 1.388 . S
C1767 H1754 0.930 . S
C1767 C1766 1.388 . S
C1767 C1768 1.390 . S
C1768 C1767 1.390 . S
C1768 C1769 1.394 . S
C1768 C1774 1.465 . S
C1769 C1764 1.399 . S
C1769 C1768 1.394 . S
C1769 C1770 1.516 . S
C1770 C1769 1.516 . S
C1770 C1771 1.502 . S
C1770 C1772 1.561 . S
C1770 C1773 1.526 . S
C1771 H1755 0.959 . S
C1771 H1756 0.959 . S
C1771 H1757 0.961 . S
C1771 C1770 1.502 . S
C1772 H1758 0.960 . S
C1772 H1759 0.961 . S
C1772 H1760 0.959 . S
C1772 C1770 1.561 . S
C1773 C1770 1.526 . S
C1773 C1774 1.396 . S
C1773 C1778 1.390 . S
C1774 C1768 1.465 . S
C1774 C1773 1.396 . S
C1774 C1775 1.399 . S
C1775 H1761 0.929 . S
C1775 C1774 1.399 . S
C1775 C1776 1.385 . S
C1776 H1762 0.931 . S
C1776 C1775 1.385 . S
C1776 C1777 1.389 . S
C1777 C1776 1.389 . S
C1777 C1778 1.387 . S
C1778 H1763 0.930 . S
C1778 C1773 1.390 . S
C1778 C1777 1.387 . S
H1779 C1791 0.930 . S
H1780 C1793 0.930 . S
H1781 C1794 0.930 . S
H1782 C1798 0.959 . S
H1783 C1798 0.959 . S
H1784 C1798 0.961 . S
H1785 C1799 0.960 . S
H1786 C1799 0.961 . S
H1787 C1799 0.959 . S
H1788 C1802 0.929 . S
H1789 C1803 0.931 . S
H1790 C1805 0.930 . S
C1791 H1779 0.930 . S
C1791 C1792 1.399 . S
C1791 C1796 1.399 . S
C1792 C1791 1.399 . S
C1792 C1793 1.376 . S
C1793 H1780 0.930 . S
C1793 C1792 1.376 . S
C1793 C1794 1.388 . S
C1794 H1781 0.930 . S
C1794 C1793 1.388 . S
C1794 C1795 1.390 . S
C1795 C1794 1.390 . S
C1795 C1796 1.394 . S
C1795 C1801 1.465 . S
C1796 C1791 1.399 . S
C1796 C1795 1.394 . S
C1796 C1797 1.516 . S
C1797 C1796 1.516 . S
C1797 C1798 1.502 . S
C1797 C1799 1.561 . S
C1797 C1800 1.526 . S
C1798 H1782 0.959 . S
C1798 H1783 0.959 . S
C1798 H1784 0.961 . S
C1798 C1797 1.502 . S
C1799 H1785 0.960 . S
C1799 H1786 0.961 . S
C1799 H1787 0.959 . S
C1799 C1797 1.561 . S
C1800 C1797 1.526 . S
C1800 C1801 1.396 . S
C1800 C1805 1.390 . S
C1801 C1795 1.465 . S
C1801 C1800 1.396 . S
C1801 C1802 1.399 . S
C1802 H1788 0.929 . S
C1802 C1801 1.399 . S
C1802 C1803 1.385 . S
C1803 H1789 0.931 . S
C1803 C1802 1.385 . S
C1803 C1804 1.389 . S
C1804 C1803 1.389 . S
C1804 C1805 1.387 . S
C1805 H1790 0.930 . S
C1805 C1800 1.390 . S
C1805 C1804 1.387 . S
H1806 C1818 0.930 . S
H1807 C1820 0.930 . S
H1808 C1821 0.930 . S
H1809 C1825 0.959 . S
H1810 C1825 0.959 . S
H1811 C1825 0.961 . S
H1812 C1826 0.960 . S
H1813 C1826 0.961 . S
H1814 C1826 0.959 . S
H1815 C1829 0.929 . S
H1816 C1830 0.931 . S
H1817 C1832 0.930 . S
C1818 H1806 0.930 . S
C1818 C1819 1.399 . S
C1818 C1823 1.399 . S
C1819 C1818 1.399 . S
C1819 C1820 1.376 . S
C1820 H1807 0.930 . S
C1820 C1819 1.376 . S
C1820 C1821 1.388 . S
C1821 H1808 0.930 . S
C1821 C1820 1.388 . S
C1821 C1822 1.390 . S
C1822 C1821 1.390 . S
C1822 C1823 1.394 . S
C1822 C1828 1.465 . S
C1823 C1818 1.399 . S
C1823 C1822 1.394 . S
C1823 C1824 1.516 . S
C1824 C1823 1.516 . S
C1824 C1825 1.502 . S
C1824 C1826 1.561 . S
C1824 C1827 1.526 . S
C1825 H1809 0.959 . S
C1825 H1810 0.959 . S
C1825 H1811 0.961 . S
C1825 C1824 1.502 . S
C1826 H1812 0.960 . S
C1826 H1813 0.961 . S
C1826 H1814 0.959 . S
C1826 C1824 1.561 . S
C1827 C1824 1.526 . S
C1827 C1828 1.396 . S
C1827 C1832 1.390 . S
C1828 C1822 1.465 . S
C1828 C1827 1.396 . S
C1828 C1829 1.399 . S
C1829 H1815 0.929 . S
C1829 C1828 1.399 . S
C1829 C1830 1.385 . S
C1830 H1816 0.931 . S
C1830 C1829 1.385 . S
C1830 C1831 1.389 . S
C1831 C1830 1.389 . S
C1831 C1832 1.387 . S
C1832 H1817 0.930 . S
C1832 C1827 1.390 . S
C1832 C1831 1.387 . S
H1833 C1845 0.930 . S
H1834 C1847 0.930 . S
H1835 C1848 0.930 . S
H1836 C1852 0.959 . S
H1837 C1852 0.959 . S
H1838 C1852 0.961 . S
H1839 C1853 0.960 . S
H1840 C1853 0.961 . S
H1841 C1853 0.959 . S
H1842 C1856 0.929 . S
H1843 C1857 0.931 . S
H1844 C1859 0.930 . S
C1845 H1833 0.930 . S
C1845 C1846 1.399 . S
C1845 C1850 1.399 . S
C1846 C1845 1.399 . S
C1846 C1847 1.376 . S
C1847 H1834 0.930 . S
C1847 C1846 1.376 . S
C1847 C1848 1.388 . S
C1848 H1835 0.930 . S
C1848 C1847 1.388 . S
C1848 C1849 1.390 . S
C1849 C1848 1.390 . S
C1849 C1850 1.394 . S
C1849 C1855 1.465 . S
C1850 C1845 1.399 . S
C1850 C1849 1.394 . S
C1850 C1851 1.516 . S
C1851 C1850 1.516 . S
C1851 C1852 1.502 . S
C1851 C1853 1.561 . S
C1851 C1854 1.526 . S
C1852 H1836 0.959 . S
C1852 H1837 0.959 . S
C1852 H1838 0.961 . S
C1852 C1851 1.502 . S
C1853 H1839 0.960 . S
C1853 H1840 0.961 . S
C1853 H1841 0.959 . S
C1853 C1851 1.561 . S
C1854 C1851 1.526 . S
C1854 C1855 1.396 . S
C1854 C1859 1.390 . S
C1855 C1849 1.465 . S
C1855 C1854 1.396 . S
C1855 C1856 1.399 . S
C1856 H1842 0.929 . S
C1856 C1855 1.399 . S
C1856 C1857 1.385 . S
C1857 H1843 0.931 . S
C1857 C1856 1.385 . S
C1857 C1858 1.389 . S
C1858 C1857 1.389 . S
C1858 C1859 1.387 . S
C1859 H1844 0.930 . S
C1859 C1854 1.390 . S
C1859 C1858 1.387 . S
H1860 C1872 0.930 . S
H1861 C1874 0.930 . S
H1862 C1875 0.930 . S
H1863 C1879 0.959 . S
H1864 C1879 0.959 . S
H1865 C1879 0.961 . S
H1866 C1880 0.960 . S
H1867 C1880 0.961 . S
H1868 C1880 0.959 . S
H1869 C1883 0.929 . S
H1870 C1884 0.931 . S
H1871 C1886 0.930 . S
C1872 H1860 0.930 . S
C1872 C1873 1.399 . S
C1872 C1877 1.399 . S
C1873 C1872 1.399 . S
C1873 C1874 1.376 . S
C1874 H1861 0.930 . S
C1874 C1873 1.376 . S
C1874 C1875 1.388 . S
C1875 H1862 0.930 . S
C1875 C1874 1.388 . S
C1875 C1876 1.390 . S
C1876 C1875 1.390 . S
C1876 C1877 1.394 . S
C1876 C1882 1.465 . S
C1877 C1872 1.399 . S
C1877 C1876 1.394 . S
C1877 C1878 1.516 . S
C1878 C1877 1.516 . S
C1878 C1879 1.502 . S
C1878 C1880 1.561 . S
C1878 C1881 1.526 . S
C1879 H1863 0.959 . S
C1879 H1864 0.959 . S
C1879 H1865 0.961 . S
C1879 C1878 1.502 . S
C1880 H1866 0.960 . S
C1880 H1867 0.961 . S
C1880 H1868 0.959 . S
C1880 C1878 1.561 . S
C1881 C1878 1.526 . S
C1881 C1882 1.396 . S
C1881 C1886 1.390 . S
C1882 C1876 1.465 . S
C1882 C1881 1.396 . S
C1882 C1883 1.399 . S
C1883 H1869 0.929 . S
C1883 C1882 1.399 . S
C1883 C1884 1.385 . S
C1884 H1870 0.931 . S
C1884 C1883 1.385 . S
C1884 C1885 1.389 . S
C1885 C1884 1.389 . S
C1885 C1886 1.387 . S
C1886 H1871 0.930 . S
C1886 C1881 1.390 . S
C1886 C1885 1.387 . S
H1887 C1899 0.930 . S
H1888 C1901 0.930 . S
H1889 C1902 0.930 . S
H1890 C1906 0.959 . S
H1891 C1906 0.959 . S
H1892 C1906 0.961 . S
H1893 C1907 0.960 . S
H1894 C1907 0.961 . S
H1895 C1907 0.959 . S
H1896 C1910 0.929 . S
H1897 C1911 0.931 . S
H1898 C1913 0.930 . S
C1899 H1887 0.930 . S
C1899 C1900 1.399 . S
C1899 C1904 1.399 . S
C1900 C1899 1.399 . S
C1900 C1901 1.376 . S
C1901 H1888 0.930 . S
C1901 C1900 1.376 . S
C1901 C1902 1.388 . S
C1902 H1889 0.930 . S
C1902 C1901 1.388 . S
C1902 C1903 1.390 . S
C1903 C1902 1.390 . S
C1903 C1904 1.394 . S
C1903 C1909 1.465 . S
C1904 C1899 1.399 . S
C1904 C1903 1.394 . S
C1904 C1905 1.516 . S
C1905 C1904 1.516 . S
C1905 C1906 1.502 . S
C1905 C1907 1.561 . S
C1905 C1908 1.526 . S
C1906 H1890 0.959 . S
C1906 H1891 0.959 . S
C1906 H1892 0.961 . S
C1906 C1905 1.502 . S
C1907 H1893 0.960 . S
C1907 H1894 0.961 . S
C1907 H1895 0.959 . S
C1907 C1905 1.561 . S
C1908 C1905 1.526 . S
C1908 C1909 1.396 . S
C1908 C1913 1.390 . S
C1909 C1903 1.465 . S
C1909 C1908 1.396 . S
C1909 C1910 1.399 . S
C1910 H1896 0.929 . S
C1910 C1909 1.399 . S
C1910 C1911 1.385 . S
C1911 H1897 0.931 . S
C1911 C1910 1.385 . S
C1911 C1912 1.389 . S
C1912 C1911 1.389 . S
C1912 C1913 1.387 . S
C1913 H1898 0.930 . S
C1913 C1908 1.390 . S
C1913 C1912 1.387 . S
H1914 C1926 0.930 . S
H1915 C1928 0.930 . S
H1916 C1929 0.930 . S
H1917 C1933 0.959 . S
H1918 C1933 0.959 . S
H1919 C1933 0.961 . S
H1920 C1934 0.960 . S
H1921 C1934 0.961 . S
H1922 C1934 0.959 . S
H1923 C1937 0.929 . S
H1924 C1938 0.931 . S
H1925 C1940 0.930 . S
C1926 H1914 0.930 . S
C1926 C1927 1.399 . S
C1926 C1931 1.399 . S
C1927 C1926 1.399 . S
C1927 C1928 1.376 . S
C1928 H1915 0.930 . S
C1928 C1927 1.376 . S
C1928 C1929 1.388 . S
C1929 H1916 0.930 . S
C1929 C1928 1.388 . S
C1929 C1930 1.390 . S
C1930 C1929 1.390 . S
C1930 C1931 1.394 . S
C1930 C1936 1.465 . S
C1931 C1926 1.399 . S
C1931 C1930 1.394 . S
C1931 C1932 1.516 . S
C1932 C1931 1.516 . S
C1932 C1933 1.502 . S
C1932 C1934 1.561 . S
C1932 C1935 1.526 . S
C1933 H1917 0.959 . S
C1933 H1918 0.959 . S
C1933 H1919 0.961 . S
C1933 C1932 1.502 . S
C1934 H1920 0.960 . S
C1934 H1921 0.961 . S
C1934 H1922 0.959 . S
C1934 C1932 1.561 . S
C1935 C1932 1.526 . S
C1935 C1936 1.396 . S
C1935 C1940 1.390 . S
C1936 C1930 1.465 . S
C1936 C1935 1.396 . S
C1936 C1937 1.399 . S
C1937 H1923 0.929 . S
C1937 C1936 1.399 . S
C1937 C1938 1.385 . S
C1938 H1924 0.931 . S
C1938 C1937 1.385 . S
C1938 C1939 1.389 . S
C1939 C1938 1.389 . S
C1939 C1940 1.387 . S
C1940 H1925 0.930 . S
C1940 C1935 1.390 . S
C1940 C1939 1.387 . S
H1941 C1953 0.930 . S
H1942 C1955 0.930 . S
H1943 C1956 0.930 . S
H1944 C1960 0.959 . S
H1945 C1960 0.959 . S
H1946 C1960 0.961 . S
H1947 C1961 0.960 . S
H1948 C1961 0.961 . S
H1949 C1961 0.959 . S
H1950 C1964 0.929 . S
H1951 C1965 0.931 . S
H1952 C1967 0.930 . S
C1953 H1941 0.930 . S
C1953 C1954 1.399 . S
C1953 C1958 1.399 . S
C1954 C1953 1.399 . S
C1954 C1955 1.376 . S
C1955 H1942 0.930 . S
C1955 C1954 1.376 . S
C1955 C1956 1.388 . S
C1956 H1943 0.930 . S
C1956 C1955 1.388 . S
C1956 C1957 1.390 . S
C1957 C1956 1.390 . S
C1957 C1958 1.394 . S
C1957 C1963 1.465 . S
C1958 C1953 1.399 . S
C1958 C1957 1.394 . S
C1958 C1959 1.516 . S
C1959 C1958 1.516 . S
C1959 C1960 1.502 . S
C1959 C1961 1.561 . S
C1959 C1962 1.526 . S
C1960 H1944 0.959 . S
C1960 H1945 0.959 . S
C1960 H1946 0.961 . S
C1960 C1959 1.502 . S
C1961 H1947 0.960 . S
C1961 H1948 0.961 . S
C1961 H1949 0.959 . S
C1961 C1959 1.561 . S
C1962 C1959 1.526 . S
C1962 C1963 1.396 . S
C1962 C1967 1.390 . S
C1963 C1957 1.465 . S
C1963 C1962 1.396 . S
C1963 C1964 1.399 . S
C1964 H1950 0.929 . S
C1964 C1963 1.399 . S
C1964 C1965 1.385 . S
C1965 H1951 0.931 . S
C1965 C1964 1.385 . S
C1965 C1966 1.389 . S
C1966 C1965 1.389 . S
C1966 C1967 1.387 . S
C1967 H1952 0.930 . S
C1967 C1962 1.390 . S
C1967 C1966 1.387 . S
H1968 C1980 0.930 . S
H1969 C1982 0.930 1_554 S
H1970 C1983 0.930 . S
H1971 C1987 0.959 . S
H1972 C1987 0.959 . S
H1973 C1987 0.961 . S
H1974 C1988 0.960 . S
H1975 C1988 0.961 . S
H1976 C1988 0.959 . S
H1977 C1991 0.929 . S
H1978 C1992 0.931 . S
H1979 C1994 0.930 . S
C1980 H1968 0.930 . S
C1980 C1981 1.399 . S
C1980 C1985 1.399 . S
C1981 C1980 1.399 . S
C1981 C1982 1.376 . S
C1982 H1969 0.930 1_556 S
C1982 C1981 1.376 . S
C1982 C1983 1.388 1_556 S
C1983 H1970 0.930 . S
C1983 C1982 1.388 1_554 S
C1983 C1984 1.390 1_554 S
C1984 C1983 1.390 1_556 S
C1984 C1985 1.394 . S
C1984 C1990 1.465 . S
C1985 C1980 1.399 . S
C1985 C1984 1.394 . S
C1985 C1986 1.516 . S
C1986 C1985 1.516 . S
C1986 C1987 1.502 . S
C1986 C1988 1.561 . S
C1986 C1989 1.526 . S
C1987 H1971 0.959 . S
C1987 H1972 0.959 . S
C1987 H1973 0.961 . S
C1987 C1986 1.502 . S
C1988 H1974 0.960 . S
C1988 H1975 0.961 . S
C1988 H1976 0.959 . S
C1988 C1986 1.561 . S
C1989 C1986 1.526 . S
C1989 C1990 1.396 . S
C1989 C1994 1.390 . S
C1990 C1984 1.465 . S
C1990 C1989 1.396 . S
C1990 C1991 1.399 1_556 S
C1991 H1977 0.929 . S
C1991 C1990 1.399 1_554 S
C1991 C1992 1.385 . S
C1992 H1978 0.931 . S
C1992 C1991 1.385 . S
C1992 C1993 1.389 1_554 S
C1993 C1992 1.389 1_556 S
C1993 C1994 1.387 . S
C1994 H1979 0.930 . S
C1994 C1989 1.390 . S
C1994 C1993 1.387 . S
H1995 C2007 0.930 . S
H1996 C2009 0.930 . S
H1997 C2010 0.930 . S
H1998 C2014 0.959 . S
H1999 C2014 0.959 . S
H2000 C2014 0.961 . S
H2001 C2015 0.960 . S
H2002 C2015 0.961 . S
H2003 C2015 0.959 . S
H2004 C2018 0.929 . S
H2005 C2019 0.931 . S
H2006 C2021 0.930 . S
C2007 H1995 0.930 . S
C2007 C2008 1.399 . S
C2007 C2012 1.399 . S
C2008 C2007 1.399 . S
C2008 C2009 1.376 . S
C2009 H1996 0.930 . S
C2009 C2008 1.376 . S
C2009 C2010 1.388 . S
C2010 H1997 0.930 . S
C2010 C2009 1.388 . S
C2010 C2011 1.390 . S
C2011 C2010 1.390 . S
C2011 C2012 1.394 . S
C2011 C2017 1.465 . S
C2012 C2007 1.399 . S
C2012 C2011 1.394 . S
C2012 C2013 1.516 . S
C2013 C2012 1.516 . S
C2013 C2014 1.502 . S
C2013 C2015 1.561 . S
C2013 C2016 1.526 . S
C2014 H1998 0.959 . S
C2014 H1999 0.959 . S
C2014 H2000 0.961 . S
C2014 C2013 1.502 . S
C2015 H2001 0.960 . S
C2015 H2002 0.961 . S
C2015 H2003 0.959 . S
C2015 C2013 1.561 . S
C2016 C2013 1.526 . S
C2016 C2017 1.396 . S
C2016 C2021 1.390 . S
C2017 C2011 1.465 . S
C2017 C2016 1.396 . S
C2017 C2018 1.399 . S
C2018 H2004 0.929 . S
C2018 C2017 1.399 . S
C2018 C2019 1.385 . S
C2019 H2005 0.931 . S
C2019 C2018 1.385 . S
C2019 C2020 1.389 . S
C2020 C2019 1.389 . S
C2020 C2021 1.387 . S
C2021 H2006 0.930 . S
C2021 C2016 1.390 . S
C2021 C2020 1.387 . S
H2022 C2034 0.930 1_556 S
H2023 C2036 0.930 . S
H2024 C2037 0.930 . S
H2025 C2041 0.959 . S
H2026 C2041 0.959 . S
H2027 C2041 0.961 . S
H2028 C2042 0.960 . S
H2029 C2042 0.961 . S
H2030 C2042 0.959 . S
H2031 C2045 0.929 . S
H2032 C2046 0.931 . S
H2033 C2048 0.930 . S
C2034 H2022 0.930 1_554 S
C2034 C2035 1.399 . S
C2034 C2039 1.399 . S
C2035 C2034 1.399 . S
C2035 C2036 1.376 . S
C2036 H2023 0.930 . S
C2036 C2035 1.376 . S
C2036 C2037 1.388 . S
C2037 H2024 0.930 . S
C2037 C2036 1.388 . S
C2037 C2038 1.390 . S
C2038 C2037 1.390 . S
C2038 C2039 1.394 . S
C2038 C2044 1.465 . S
C2039 C2034 1.399 . S
C2039 C2038 1.394 . S
C2039 C2040 1.516 1_554 S
C2040 C2039 1.516 1_556 S
C2040 C2041 1.502 . S
C2040 C2042 1.561 . S
C2040 C2043 1.526 1_556 S
C2041 H2025 0.959 . S
C2041 H2026 0.959 . S
C2041 H2027 0.961 . S
C2041 C2040 1.502 . S
C2042 H2028 0.960 . S
C2042 H2029 0.961 . S
C2042 H2030 0.959 . S
C2042 C2040 1.561 . S
C2043 C2040 1.526 1_554 S
C2043 C2044 1.396 . S
C2043 C2048 1.390 1_554 S
C2044 C2038 1.465 . S
C2044 C2043 1.396 . S
C2044 C2045 1.399 . S
C2045 H2031 0.929 . S
C2045 C2044 1.399 . S
C2045 C2046 1.385 . S
C2046 H2032 0.931 . S
C2046 C2045 1.385 . S
C2046 C2047 1.389 . S
C2047 C2046 1.389 . S
C2047 C2048 1.387 1_554 S
C2048 H2033 0.930 . S
C2048 C2043 1.390 1_556 S
C2048 C2047 1.387 1_556 S
H2049 C2061 0.930 . S
H2050 C2063 0.930 . S
H2051 C2064 0.930 . S
H2052 C2068 0.959 1_554 S
H2053 C2068 0.959 . S
H2054 C2068 0.961 . S
H2055 C2069 0.960 . S
H2056 C2069 0.961 . S
H2057 C2069 0.959 . S
H2058 C2072 0.929 . S
H2059 C2073 0.931 . S
H2060 C2075 0.930 1_556 S
C2061 H2049 0.930 . S
C2061 C2062 1.399 . S
C2061 C2066 1.399 . S
C2062 C2061 1.399 . S
C2062 C2063 1.376 . S
C2063 H2050 0.930 . S
C2063 C2062 1.376 . S
C2063 C2064 1.388 . S
C2064 H2051 0.930 . S
C2064 C2063 1.388 . S
C2064 C2065 1.390 . S
C2065 C2064 1.390 . S
C2065 C2066 1.394 . S
C2065 C2071 1.465 . S
C2066 C2061 1.399 . S
C2066 C2065 1.394 . S
C2066 C2067 1.552 . S
C2067 C2066 1.552 . S
C2067 C2068 1.488 1_554 S
C2067 C2069 1.517 1_554 S
C2067 C2070 1.553 . S
C2068 H2052 0.959 1_556 S
C2068 H2053 0.959 . S
C2068 H2054 0.961 . S
C2068 C2067 1.488 1_556 S
C2069 H2055 0.960 . S
C2069 H2056 0.961 . S
C2069 H2057 0.959 . S
C2069 C2067 1.517 1_556 S
C2070 C2067 1.553 . S
C2070 C2071 1.396 . S
C2070 C2075 1.390 . S
C2071 C2065 1.465 . S
C2071 C2070 1.396 . S
C2071 C2072 1.399 . S
C2072 H2058 0.929 . S
C2072 C2071 1.399 . S
C2072 C2073 1.385 . S
C2073 H2059 0.931 . S
C2073 C2072 1.385 . S
C2073 C2074 1.389 . S
C2074 C2073 1.389 . S
C2074 C2075 1.387 . S
C2075 H2060 0.930 1_554 S
C2075 C2070 1.390 . S
C2075 C2074 1.387 . S
C805 C634 1.395 . S
C793 C211 1.405 . S
C832 C647 1.586 . S
C820 C255 1.594 . S
C847 C274 1.449 . S
C859 C660 1.440 . S
C886 C673 1.502 . S
C874 C157 1.530 . S
C913 C681 1.457 . S
C901 C391 1.499 . S
C940 C694 1.410 . S
C928 C484 1.430 . S
C955 C450 1.510 . S
C967 C707 1.494 . S
C994 C720 1.488 . S
C982 C352 1.517 . S
C1009 C430 1.428 . S
C1021 C738 1.413 . S
C1048 C749 1.493 . S
C1036 C367 1.549 . S
C1063 C411 1.465 . S
C1075 C733 1.456 . S
C1102 C741 1.424 . S
C1090 C469 1.480 . S
C1117 C294 1.486 . S
C1129 C764 1.489 . S
C1144 C177 1.509 . S
C1156 C754 1.481 . S
C1171 C196 1.507 . S
C1183 C759 1.462 . S
C1198 C235 1.562 . S
C1210 C762 1.522 1_655 S
C1225 C133 1.452 . S
C1237 C671 1.420 . S
C1252 C567 1.410 . S
C1264 C663 1.370 . S
C1291 C632 1.551 1_556 S
C1279 C601 1.563 . S
C1318 C637 1.464 . S
C1306 C328 1.510 . S
C1333 C172 1.535 . S
C1345 C684 1.488 . S
C1372 C723 1.474 . S
C1360 C445 1.526 . S
C1399 C676 1.494 . S
C1387 C372 1.521 . S
C1426 C702 1.431 . S
C1414 C489 1.466 . S
C1453 C712 1.418 . S
C1441 C562 1.416 . S
C1468 C606 1.607 . S
C1480 C725 1.602 . S
C1495 C313 1.447 . S
C1507 C686 1.453 . S
C1534 C699 1.536 . S
C1522 C508 1.532 . S
C1549 C118 1.493 . S
C1561 C655 1.457 . S
C1588 C668 1.386 . S
C1576 C16 1.426 . S
C1615 C629 1.510 . S
C1603 C60 1.508 . S
C1642 C642 1.492 . S
C1630 C79 1.505 . S
C1657 C40 1.429 . S
C1669 C751 1.418 . S
C1684 C94 1.548 . S
C1696 C736 1.495 1_655 S
C1711 C138 1.472 . S
C1723 C746 1.451 . S
C1738 C1 1.479 . S
C1750 C728 1.436 . S
C1777 C777 1.492 . S
C1765 C333 1.485 . S
C1804 C767 1.465 . S
C1792 C528 1.509 . S
C1831 C772 1.475 . S
C1819 C547 1.500 . S
C1846 C586 1.566 . S
C1858 C775 1.511 . S
C1873 C406 1.444 . S
C1885 C697 1.394 . S
C1912 C689 1.417 . S
C1900 C216 1.417 . S
C1939 C710 1.531 . S
C1927 C250 1.566 . S
C1966 C715 1.473 . S
C1954 C289 1.513 . S
C1981 C523 1.537 . S
C1993 C658 1.482 . S
C2020 C645 1.518 . S
C2008 C55 1.529 . S
C2035 C99 1.514 . S
C2047 C650 1.519 . S
C2074 C624 1.462 . S
C2062 C21 1.463 . S
