# Generated by pormake.
# Topology tsx, (6,3)-cn, num edge types: 1
# Building blocks:
#     Node 0, Type 0, BuildingBlock: LEVNOQ01_clean_sbu_1, # of connection points: 6
#     Node 1, Type 0, BuildingBlock: LEVNOQ01_clean_sbu_1, # of connection points: 6
#     Node 2, Type 1, BuildingBlock: MIDCAF_clean_linker_0, # of connection points: 3
#     Node 3, Type 1, BuildingBlock: MIDCAF_clean_linker_0, # of connection points: 3
#     Node 4, Type 1, BuildingBlock: MIDCAF_clean_linker_0, # of connection points: 3
#     Node 5, Type 1, BuildingBlock: MIDCAF_clean_linker_0, # of connection points: 3
#     Edge 6, Type (0, 1), BuildingBlock: AJUNOK_clean_linker_0, # of connection points: 2
#     Edge 7, Type (0, 1), BuildingBlock: AJUNOK_clean_linker_0, # of connection points: 2
#     Edge 8, Type (0, 1), BuildingBlock: AJUNOK_clean_linker_0, # of connection points: 2
#     Edge 9, Type (0, 1), BuildingBlock: AJUNOK_clean_linker_0, # of connection points: 2
#     Edge 10, Type (0, 1), BuildingBlock: AJUNOK_clean_linker_0, # of connection points: 2
#     Edge 11, Type (0, 1), BuildingBlock: AJUNOK_clean_linker_0, # of connection points: 2
#     Edge 12, Type (0, 1), BuildingBlock: AJUNOK_clean_linker_0, # of connection points: 2
#     Edge 13, Type (0, 1), BuildingBlock: AJUNOK_clean_linker_0, # of connection points: 2
#     Edge 14, Type (0, 1), BuildingBlock: AJUNOK_clean_linker_0, # of connection points: 2
#     Edge 15, Type (0, 1), BuildingBlock: AJUNOK_clean_linker_0, # of connection points: 2
#     Edge 16, Type (0, 1), BuildingBlock: AJUNOK_clean_linker_0, # of connection points: 2
#     Edge 17, Type (0, 1), BuildingBlock: AJUNOK_clean_linker_0, # of connection points: 2
# Relax obj value: 0.132
# Max RMSD: 0.158
# Mean RMSD: 0.121
data_MOF--net-tsx--node1-LEVNOQ01_clean_sbu_1--node2-MIDCAF_clean_linker_0--edge1-AJUNOK_clean_linker_0
_symmetry_space_group_name_H-M    P1
_symmetry_Int_Tables_number       1
_symmetry_cell_setting            triclinic
loop_
_symmetry_equiv_pos_as_xyz
'x, y, z'
_cell_length_a     17.086524
_cell_length_b     21.44364
_cell_length_c     35.83084
_cell_angle_alpha  96.558098
_cell_angle_beta   91.885538
_cell_angle_gamma 90.575641
loop_
_atom_site_label
_atom_site_type_symbol
_atom_site_fract_x
_atom_site_fract_y
_atom_site_fract_z
_atom_type_partial_charge
O0 O 0.18194 0.02636 0.06533 0.0
Mg1 Mg 0.21209 0.0391 0.01012 0.0
O2 O 0.05532 0.02998 0.05148 0.0
Mg3 Mg 0.05182 0.03284 -0.01342 0.0
O4 O 0.15336 0.10919 -0.01197 0.0
O5 O 0.28121 0.11375 0.00561 0.0
O6 O 0.05351 0.03437 0.92238 0.0
O7 O 0.98205 0.1302 -0.00388 0.0
Mg8 Mg 0.90756 0.03517 0.9651 0.0
O9 O 0.9487 0.95453 0.98406 0.0
O10 O 0.93252 0.0606 0.91119 0.0
O11 O 0.86233 0.10184 0.00519 0.0
O12 O 0.83036 0.96424 0.95632 0.0
C13 C 0.19284 0.9219 0.96907 0.0
C14 C 0.11155 0.0257 0.07539 0.0
C15 C 0.22026 0.13943 -0.00798 0.0
C16 C 1.00085 0.05043 0.8997 0.0
C17 C 0.91302 0.14494 0.00629 0.0
C18 C 0.87994 0.93091 0.97285 0.0
O19 O 0.2466 0.96275 0.9743 0.0
O20 O 0.12254 0.9374 0.9764 0.0
O21 O 0.65039 0.5606 0.59565 0.0
Mg22 Mg 0.71064 0.55399 0.54577 0.0
O23 O 0.53909 0.53032 0.56564 0.0
Mg24 Mg 0.55819 0.52885 0.50063 0.0
O25 O 0.65971 0.60306 0.50587 0.0
O26 O 0.77527 0.62902 0.53546 0.0
O27 O 0.57676 0.5259 0.43692 0.0
O28 O 0.47935 0.62038 0.50004 0.0
Mg29 Mg 0.40808 0.51754 0.4667 0.0
O30 O 0.46172 0.44868 0.49276 0.0
O31 O 0.45614 0.54078 0.4162 0.0
O32 O 0.35786 0.58917 0.50227 0.0
O33 O 0.34663 0.43601 0.46003 0.0
C34 C 0.70781 0.42537 0.50871 0.0
C35 C 0.57912 0.54427 0.5963 0.0
C36 C 0.72044 0.64045 0.51163 0.0
C37 C 0.52875 0.5367 0.41062 0.0
C38 C 0.40722 0.63357 0.50439 0.0
C39 C 0.40027 0.4146 0.48111 0.0
O40 O 0.75369 0.46573 0.5265 0.0
O41 O 0.63864 0.44063 0.49913 0.0
C42 C 0.83289 0.16162 0.42348 0.0
C43 C 0.83949 0.18144 0.46212 0.0
C44 C 0.89267 0.15117 0.48455 0.0
C45 C 0.9419 0.10483 0.4682 0.0
H46 H 0.10959 0.9508 0.48373 0.0
H47 H 0.1943 0.87456 0.51034 0.0
H48 H 0.33986 0.86945 0.41401 0.0
H49 H 0.25454 0.94379 0.38688 0.0
H50 H 0.15877 0.94198 0.30658 0.0
H51 H 0.16443 0.9405 0.23852 0.0
H52 H 0.9675 0.06506 0.23891 0.0
H53 H 0.96028 0.06577 0.3066 0.0
H54 H 0.87715 0.10341 0.37701 0.0
H55 H 0.79337 0.18468 0.40535 0.0
H56 H 0.89858 0.16535 0.51453 0.0
H57 H 0.98399 0.08427 0.486 0.0
N58 N 0.05609 0.01936 0.43024 0.0
N59 N 0.11387 0.98061 0.37373 0.0
N60 N 1.00161 0.04152 0.37233 0.0
C61 C 0.11348 -0.01429 0.41192 0.0
C62 C 0.05802 0.00831 0.35374 0.0
C63 C 0.99974 0.04749 0.41036 0.0
C64 C 0.17332 0.95163 0.43249 0.0
C65 C 0.16023 0.93434 0.46852 0.0
C66 C 0.20918 0.89106 0.48396 0.0
C67 C 0.27245 0.86514 0.46376 0.0
C68 C 0.29045 0.88781 0.42978 0.0
C69 C 0.24124 0.93023 0.41421 0.0
C70 C 0.05935 0.00421 0.3122 0.0
C71 C 0.11611 0.96855 0.29218 0.0
C72 C 0.1194 0.96767 0.25321 0.0
C73 C 0.06605 0.00234 0.23345 0.0
C74 C 1.00831 0.03686 0.25328 0.0
C75 C 1.0048 0.03764 0.29219 0.0
C76 C 0.93939 0.08818 0.42912 0.0
C77 C 0.88197 0.1154 0.4072 0.0
C78 C 0.81049 0.90764 0.53904 0.0
C79 C 0.81993 0.88335 0.50138 0.0
C80 C 0.87763 0.91051 0.48093 0.0
C81 C 0.93127 0.9546 0.49921 0.0
H82 H 0.11458 0.10199 0.49434 0.0
H83 H 0.20433 0.17676 0.47254 0.0
H84 H 0.3517 0.17008 0.57235 0.0
H85 H 0.25838 0.09818 0.59539 0.0
H86 H 0.16183 0.09365 0.67194 0.0
H87 H 0.15526 0.10071 0.7404 0.0
H88 H 0.9381 -0.00536 0.72886 0.0
H89 H 0.94345 -0.012 0.66093 0.0
H90 H 0.85645 0.96643 0.58673 0.0
H91 H 0.76671 0.88828 0.55581 0.0
H92 H 0.88489 0.89442 0.4515 0.0
H93 H 0.97835 0.97093 0.48342 0.0
N94 N 0.05326 0.03382 0.54311 0.0
N95 N 0.11425 0.06365 0.60238 0.0
N96 N 0.99411 0.01008 0.59794 0.0
C97 C 0.11437 0.06198 0.56434 0.0
C98 C 0.05429 0.03773 0.61938 0.0
C99 C 0.99265 0.0077 0.55996 0.0
C100 C 0.17773 0.09543 0.54708 0.0
C101 C 0.16645 0.11556 0.51142 0.0
C102 C 0.21902 0.15798 0.49863 0.0
C103 C 0.28559 0.17971 0.52071 0.0
C104 C 0.30045 0.1551 0.5549 0.0
C105 C 0.24692 0.11375 0.56805 0.0
C106 C 0.05303 0.04046 0.66083 0.0
C107 C 0.11284 0.07159 0.68398 0.0
C108 C 0.10941 0.07542 0.72314 0.0
C109 C 0.04621 0.04816 0.73975 0.0
C110 C 0.98711 0.01651 0.71669 0.0
C111 C 0.99046 0.01262 0.67772 0.0
C112 C 0.92731 0.97305 0.538 0.0
C113 C 0.8632 0.95204 0.55705 0.0
C114 C 0.27311 0.61822 0.93073 0.0
C115 C 0.30765 0.66789 0.95459 0.0
C116 C 0.38111 0.65959 0.97204 0.0
C117 C 0.4229 0.60462 0.96281 0.0
H118 H 0.58857 0.45342 -0.00741 0.0
H119 H 0.69213 0.39932 0.0243 0.0
H120 H 0.7821 0.32911 0.91657 0.0
H121 H 0.68037 0.38332 0.88503 0.0
H122 H 0.60033 0.41516 0.81094 0.0
H123 H 0.60839 0.43087 0.74489 0.0
H124 H 0.3806 0.51581 0.7474 0.0
H125 H 0.37148 0.49993 0.81349 0.0
H126 H 0.28983 0.52769 0.90041 0.0
H127 H 0.2166 0.62381 0.91698 0.0
H128 H 0.40856 0.69756 -0.00937 0.0
H129 H 0.48209 0.60157 0.97421 0.0
N130 N 0.50573 0.48699 0.93545 0.0
N131 N 0.54975 0.43774 0.87818 0.0
N132 N 0.43612 0.4975 0.87906 0.0
C133 C 0.55828 0.44947 0.91625 0.0
C134 C 0.48876 0.4616 0.85938 0.0
C135 C 0.44385 0.51038 0.91689 0.0
C136 C 0.62517 0.4222 0.93616 0.0
C137 C 0.63115 0.42735 0.97568 0.0
C138 C 0.6907 0.39656 -0.0061 0.0
C139 C 0.74598 0.36056 0.973 0.0
C140 C 0.74187 0.35776 0.93362 0.0
C141 C 0.68248 0.38822 0.91546 0.0
C142 C 0.48599 0.45743 0.8178 0.0
C143 C 0.55091 0.43562 0.79732 0.0
C144 C 0.55569 0.44471 0.75952 0.0
C145 C 0.49547 0.47516 0.7414 0.0
C146 C 0.42761 0.49204 0.76079 0.0
C147 C 0.42284 0.48321 0.7987 0.0
C148 C 0.39188 0.55761 0.93575 0.0
C149 C 0.31513 0.56349 0.92123 0.0
C150 C 0.34044 0.38903 0.06024 0.0
C151 C 0.32915 0.38578 0.02107 0.0
C152 C 0.37063 0.42799 0.00153 0.0
C153 C 0.42616 0.46959 0.02061 0.0
H154 H 0.63792 0.57479 0.00374 0.0
H155 H 0.7177 0.6477 0.97282 0.0
H156 H 0.78193 0.74878 0.08096 0.0
H157 H 0.70616 0.67471 0.11179 0.0
H158 H 0.65398 0.62597 0.18632 0.0
H159 H 0.65975 0.62851 0.25485 0.0
H160 H 0.53725 0.45026 0.24554 0.0
H161 H 0.5303 0.44759 0.1772 0.0
H162 H 0.40496 0.42912 0.1091 0.0
H163 H 0.30997 0.35678 0.07609 0.0
H164 H 0.36241 0.427 0.97136 0.0
H165 H 0.4589 0.50041 0.00494 0.0
N166 N 0.55449 0.54363 0.06059 0.0
N167 N 0.62577 0.575 0.11691 0.0
N168 N 0.52021 0.50477 0.11652 0.0
C169 C 0.61423 0.57762 0.07945 0.0
C170 C 0.57941 0.53834 0.13554 0.0
C171 C 0.50681 0.50727 0.07918 0.0
C172 C 0.66488 0.61934 0.06018 0.0
C173 C 0.66965 0.61229 0.02086 0.0
C174 C 0.71514 0.65417 0.00317 0.0
C175 C 0.75511 0.70473 0.02442 0.0
C176 C 0.75248 0.71014 0.06376 0.0
C177 C 0.70833 0.66783 0.08142 0.0
C178 C 0.59084 0.53691 0.17644 0.0
C179 C 0.62935 0.58685 0.19883 0.0
C180 C 0.63273 0.58842 0.23794 0.0
C181 C 0.59888 0.53961 0.2551 0.0
C182 C 0.56414 0.48817 0.23273 0.0
C183 C 0.55965 0.487 0.19373 0.0
C184 C 0.44163 0.46935 0.05935 0.0
C185 C 0.39591 0.43017 0.07913 0.0
C186 C 0.18461 0.25085 0.00733 0.0
C187 C 0.22777 0.20567 0.98558 0.0
C188 C 0.2128 0.31287 0.0151 0.0
C189 C 0.28474 0.33127 0.00121 0.0
H190 H 0.13403 0.23673 0.02196 0.0
H191 H 0.18222 0.34487 0.03503 0.0
S192 S 0.40976 0.23282 0.93612 0.0
N193 N 0.33773 0.18538 0.94504 0.0
N194 N 0.39096 0.30161 0.95949 0.0
C195 C 0.32244 0.28838 0.97535 0.0
C196 C 0.29388 0.22543 0.96763 0.0
C197 C 0.17182 0.80676 0.97304 0.0
C198 C 0.2153 0.85558 0.95997 0.0
C199 C 0.20098 0.74534 0.9708 0.0
C200 C 0.27453 0.73138 0.95571 0.0
H201 H 0.11683 0.81655 -0.0134 0.0
H202 H 0.16716 0.70915 0.98197 0.0
S203 S 0.40491 0.83958 0.91221 0.0
N204 N 0.33103 0.88351 0.92729 0.0
N205 N 0.38557 0.76875 0.92361 0.0
C206 C 0.3161 0.77877 0.94063 0.0
C207 C 0.28649 0.84073 0.9426 0.0
C208 C 0.89612 0.83659 0.00795 0.0
C209 C 0.85476 0.86749 0.98104 0.0
C210 C 0.86579 0.78169 0.02033 0.0
C211 C 0.79317 0.75559 0.00621 0.0
H212 H 0.95043 0.85639 0.02083 0.0
H213 H 0.89816 0.76075 0.04212 0.0
S214 S 0.66559 0.81477 0.93252 0.0
N215 N 0.74086 0.86411 0.93793 0.0
N216 N 0.68313 0.76288 0.96224 0.0
C217 C 0.75356 0.784 0.97776 0.0
C218 C 0.78452 0.83946 0.96495 0.0
C219 C 0.81061 0.22391 0.02334 0.0
C220 C 0.88485 0.21049 0.00863 0.0
C221 C 0.76889 0.2766 0.01472 0.0
C222 C 0.79988 0.31799 -0.0089 0.0
H223 H 0.78155 0.19065 0.03904 0.0
H224 H 0.70924 0.2816 0.02386 0.0
S225 S 0.99953 0.31295 0.95326 0.0
N226 N 0.99326 0.24928 0.975 0.0
N227 N 0.91511 0.34898 0.95929 0.0
C228 C 0.87778 0.30946 0.98012 0.0
C229 C 0.92039 0.25566 -0.0111 0.0
C230 C 0.67883 0.74735 0.50023 0.0
C231 C 0.72951 0.69684 0.49234 0.0
C232 C 0.70456 0.80913 0.49768 0.0
C233 C 0.7818 0.82187 0.48753 0.0
H234 H 0.6229 0.73996 0.51257 0.0
H235 H 0.66687 0.84737 0.50767 0.0
S236 S 0.92842 0.70276 0.45496 0.0
N237 N 0.85284 0.66146 0.46661 0.0
N238 N 0.90223 0.77689 0.46234 0.0
C239 C 0.8281 0.7706 0.47421 0.0
C240 C 0.80166 0.70807 0.47666 0.0
C241 C 0.81491 0.34711 0.50795 0.0
C242 C 0.73652 0.36066 0.49883 0.0
C243 C 0.84614 0.288 0.49755 0.0
C244 C 0.80047 0.23973 0.47756 0.0
H245 H 0.85358 0.38288 0.52253 0.0
H246 H 0.90766 0.28097 0.50386 0.0
S247 S 0.5898 0.24777 0.45028 0.0
N248 N 0.61203 0.31878 0.47106 0.0
N249 N 0.67136 0.20721 0.45153 0.0
C250 C 0.72118 0.25142 0.46951 0.0
C251 C 0.68906 0.3119 0.48017 0.0
C252 C 0.38048 0.34166 0.52906 0.0
C253 C 0.39022 0.35077 0.49141 0.0
C254 C 0.3514 0.28441 0.53861 0.0
C255 C 0.33235 0.23406 0.51073 0.0
H256 H 0.38981 0.38039 0.55093 0.0
H257 H 0.33883 0.2813 0.56777 0.0
S258 S 0.36477 0.23126 0.40865 0.0
N259 N 0.38919 0.30349 0.4266 0.0
N260 N 0.33892 0.19444 0.44448 0.0
C261 C 0.34956 0.24109 0.47328 0.0
C262 C 0.37737 0.29985 0.46361 0.0
C263 C 0.38106 0.74928 0.51991 0.0
C264 C 0.37813 0.69426 0.49445 0.0
C265 C 0.34718 0.8052 0.51007 0.0
C266 C 0.31099 0.80758 0.47431 0.0
H267 H 0.40794 0.7487 0.54767 0.0
H268 H 0.34918 0.84666 0.53042 0.0
S269 S 0.28797 0.67538 0.39821 0.0
N270 N 0.33611 0.64542 0.43248 0.0
N271 N 0.27341 0.74953 0.41401 0.0
C272 C 0.30878 0.75274 0.44876 0.0
C273 C 0.34224 0.69635 0.45882 0.0
C274 C 0.15949 0.02703 0.14194 0.0
C275 C 0.09647 0.0197 0.11536 0.0
C276 C 0.1489 0.02062 0.17979 0.0
C277 C 0.0749 0.00655 0.1928 0.0
H278 H 0.21786 0.03826 0.13359 0.0
H279 H 0.19906 0.02774 0.19918 0.0
S280 S 0.89107 0.97964 0.13489 0.0
N281 N 0.95735 -0.00417 0.10475 0.0
N282 N 0.93772 0.98337 0.17622 0.0
C283 C 0.01122 -0.00134 0.16671 0.0
C284 C 0.02194 0.0053 0.12795 0.0
C285 C 0.95838 0.07443 0.83567 0.0
C286 C 0.01746 0.0543 0.85968 0.0
C287 C 0.96929 0.07392 0.79716 0.0
C288 C 0.03975 0.05345 0.78107 0.0
H289 H 0.90242 0.08971 0.84648 0.0
H290 H 0.92167 0.08892 0.7797 0.0
S291 S 0.21422 -0.00186 0.83133 0.0
N292 N 0.15053 0.01532 0.86451 0.0
N293 N 0.17039 0.01406 0.79182 0.0
C294 C 0.10036 0.03506 0.8047 0.0
C295 C 0.08935 0.03549 0.84406 0.0
C296 C 0.59433 0.55257 0.66593 0.0
C297 C 0.54758 0.53419 0.6333 0.0
C298 C 0.57572 0.53401 0.70064 0.0
C299 C 0.50908 0.4969 0.70445 0.0
H300 H 0.64778 0.57971 0.66459 0.0
H301 H 0.61469 0.54803 0.72468 0.0
S302 S 0.36139 0.44245 0.62954 0.0
N303 N 0.42728 0.48106 0.60801 0.0
N304 N 0.39199 0.44683 0.67399 0.0
C305 C 0.45873 0.48143 0.67292 0.0
C306 C 0.47799 0.49999 0.63717 0.0
C307 C 0.60517 0.49769 0.35491 0.0
C308 C 0.5564 0.54326 0.37292 0.0
C309 C 0.62167 0.49802 0.31684 0.0
C310 C 0.59157 0.54489 0.29619 0.0
H311 H 0.62709 0.45978 0.36971 0.0
H312 H 0.65619 0.4605 0.30317 0.0
S313 S 0.46737 0.67786 0.33184 0.0
N314 N 0.48248 0.63838 0.36832 0.0
N315 N 0.51501 0.6399 0.29703 0.0
C316 C 0.54648 0.59259 0.31457 0.0
C317 C 0.52846 0.59153 0.35296 0.0
loop_
_geom_bond_atom_site_label_1
_geom_bond_atom_site_label_2
_geom_bond_distance
_geom_bond_site_symmetry_2
_ccdc_geom_bond_type
O0 Mg1 1.990 . S
O0 C14 1.253 . S
Mg1 O0 1.990 . S
Mg1 O4 2.180 . S
Mg1 O5 2.117 . S
Mg1 O19 2.030 1_545 S
O2 Mg3 2.072 1_554 S
O2 C14 1.260 . S
Mg3 O2 2.072 1_556 S
Mg3 O4 2.099 1_556 S
Mg3 O6 2.079 . S
Mg3 O7 2.072 1_456 S
Mg3 O9 2.099 1_445 S
Mg3 O20 2.079 1_545 S
O4 Mg1 2.180 . S
O4 Mg3 2.099 1_554 S
O4 C15 1.279 . S
O5 Mg1 2.117 . S
O5 C15 1.250 . S
O6 Mg3 2.079 . S
O6 C16 1.264 . S
O7 Mg3 2.072 1_654 S
O7 C17 1.260 1_554 S
Mg8 O9 2.180 1_545 S
Mg8 O10 2.030 . S
Mg8 O11 1.990 . S
Mg8 O12 2.117 1_545 S
O9 Mg3 2.099 1_665 S
O9 Mg8 2.180 1_565 S
O9 C18 1.280 . S
O10 Mg8 2.030 . S
O10 C16 1.248 1_655 S
O11 Mg8 1.990 . S
O11 C17 1.253 . S
O12 Mg8 2.117 1_565 S
O12 C18 1.251 . S
C13 O19 1.248 . S
C13 O20 1.264 1_554 S
C14 O0 1.253 . S
C14 O2 1.260 . S
C15 O4 1.279 . S
C15 O5 1.250 . S
C16 O6 1.264 . S
C16 O10 1.248 1_455 S
C17 O7 1.260 1_556 S
C17 O11 1.253 . S
C18 O9 1.280 . S
C18 O12 1.251 . S
O19 Mg1 2.030 1_565 S
O19 C13 1.248 . S
O20 Mg3 2.079 1_565 S
O20 C13 1.264 1_556 S
O21 Mg22 1.990 . S
O21 C35 1.253 . S
Mg22 O21 1.990 . S
Mg22 O25 2.180 . S
Mg22 O26 2.117 . S
Mg22 O40 2.030 . S
O23 Mg24 2.072 . S
O23 C35 1.260 . S
Mg24 O23 2.072 . S
Mg24 O25 2.099 . S
Mg24 O27 2.079 . S
Mg24 O28 2.072 . S
Mg24 O30 2.099 . S
Mg24 O41 2.079 . S
O25 Mg22 2.180 . S
O25 Mg24 2.099 . S
O25 C36 1.279 . S
O26 Mg22 2.117 . S
O26 C36 1.250 . S
O27 Mg24 2.079 . S
O27 C37 1.264 . S
O28 Mg24 2.072 . S
O28 C38 1.260 . S
Mg29 O30 2.180 . S
Mg29 O31 2.030 . S
Mg29 O32 1.990 . S
Mg29 O33 2.117 . S
O30 Mg24 2.099 . S
O30 Mg29 2.180 . S
O30 C39 1.279 . S
O31 Mg29 2.030 . S
O31 C37 1.248 . S
O32 Mg29 1.990 . S
O32 C38 1.253 . S
O33 Mg29 2.117 . S
O33 C39 1.250 . S
C34 O40 1.248 . S
C34 O41 1.264 . S
C35 O21 1.253 . S
C35 O23 1.260 . S
C36 O25 1.279 . S
C36 O26 1.250 . S
C37 O27 1.264 . S
C37 O31 1.248 . S
C38 O28 1.260 . S
C38 O32 1.253 . S
C39 O30 1.279 . S
C39 O33 1.250 . S
O40 Mg22 2.030 . S
O40 C34 1.248 . S
O41 Mg24 2.079 . S
O41 C34 1.264 . S
C42 C43 1.384 . S
C42 H55 0.947 . S
C42 C77 1.382 . S
C43 C42 1.384 . S
C43 C44 1.378 . S
C44 C43 1.378 . S
C44 C45 1.378 . S
C44 H56 0.952 . S
C45 C44 1.378 . S
C45 H57 0.950 1_655 S
C45 C76 1.383 . S
H46 C65 0.947 . S
H47 C66 0.946 . S
H48 C68 0.953 . S
H49 C69 0.945 . S
H50 C71 0.952 . S
H51 C72 0.949 . S
H52 C74 0.950 . S
H53 C75 0.948 . S
H54 C77 0.951 . S
H55 C42 0.947 . S
H56 C44 0.952 . S
H57 C45 0.950 1_455 S
N58 C61 1.382 1_545 S
N58 C63 1.363 . S
N59 C61 1.371 . S
N59 C62 1.372 1_565 S
N60 C62 1.361 . S
N60 C63 1.377 . S
C61 N58 1.382 1_565 S
C61 N59 1.371 . S
C61 C64 1.480 . S
C62 N59 1.372 1_545 S
C62 N60 1.361 . S
C62 C70 1.457 . S
C63 N58 1.363 . S
C63 N60 1.377 . S
C63 C76 1.479 1_455 S
C64 C61 1.480 . S
C64 C65 1.383 . S
C64 C69 1.385 . S
C65 H46 0.947 . S
C65 C64 1.383 . S
C65 C66 1.388 . S
C66 H47 0.946 . S
C66 C65 1.388 . S
C66 C67 1.384 . S
C67 C66 1.384 . S
C67 C68 1.377 . S
C68 H48 0.953 . S
C68 C67 1.377 . S
C68 C69 1.369 . S
C69 H49 0.945 . S
C69 C64 1.385 . S
C69 C68 1.369 . S
C70 C62 1.457 . S
C70 C71 1.372 1_545 S
C70 C75 1.364 . S
C71 H50 0.952 . S
C71 C70 1.372 1_565 S
C71 C72 1.389 . S
C72 H51 0.949 . S
C72 C71 1.389 . S
C72 C73 1.387 . S
C73 C72 1.387 . S
C73 C74 1.372 1_565 S
C74 H52 0.950 . S
C74 C73 1.372 1_545 S
C74 C75 1.379 . S
C75 H53 0.948 . S
C75 C70 1.364 . S
C75 C74 1.379 . S
C76 C45 1.383 . S
C76 C63 1.479 1_655 S
C76 C77 1.398 . S
C77 C42 1.382 . S
C77 H54 0.951 . S
C77 C76 1.398 . S
C78 C79 1.384 . S
C78 H91 0.947 . S
C78 C113 1.382 . S
C79 C78 1.384 . S
C79 C80 1.378 . S
C80 C79 1.378 . S
C80 C81 1.378 . S
C80 H92 0.952 . S
C81 C80 1.378 . S
C81 H93 0.950 . S
C81 C112 1.383 . S
H82 C101 0.947 . S
H83 C102 0.946 . S
H84 C104 0.953 . S
H85 C105 0.945 . S
H86 C107 0.952 . S
H87 C108 0.949 . S
H88 C110 0.950 . S
H89 C111 0.948 1_565 S
H90 C113 0.951 . S
H91 C78 0.947 . S
H92 C80 0.952 . S
H93 C81 0.950 . S
N94 C97 1.382 . S
N94 C99 1.363 1_455 S
N95 C97 1.371 . S
N95 C98 1.372 . S
N96 C98 1.361 1_655 S
N96 C99 1.377 . S
C97 N94 1.382 . S
C97 N95 1.371 . S
C97 C100 1.480 . S
C98 N95 1.372 . S
C98 N96 1.361 1_455 S
C98 C106 1.457 . S
C99 N94 1.363 1_655 S
C99 N96 1.377 . S
C99 C112 1.479 1_545 S
C100 C97 1.480 . S
C100 C101 1.383 . S
C100 C105 1.385 . S
C101 H82 0.947 . S
C101 C100 1.383 . S
C101 C102 1.388 . S
C102 H83 0.946 . S
C102 C101 1.388 . S
C102 C103 1.384 . S
C103 C102 1.384 . S
C103 C104 1.377 . S
C104 H84 0.953 . S
C104 C103 1.377 . S
C104 C105 1.369 . S
C105 H85 0.945 . S
C105 C100 1.385 . S
C105 C104 1.369 . S
C106 C98 1.457 . S
C106 C107 1.372 . S
C106 C111 1.364 1_455 S
C107 H86 0.952 . S
C107 C106 1.372 . S
C107 C108 1.389 . S
C108 H87 0.949 . S
C108 C107 1.389 . S
C108 C109 1.387 . S
C109 C108 1.387 . S
C109 C110 1.372 1_455 S
C110 H88 0.950 . S
C110 C109 1.372 1_655 S
C110 C111 1.379 . S
C111 H89 0.948 1_545 S
C111 C106 1.364 1_655 S
C111 C110 1.379 . S
C112 C81 1.383 . S
C112 C99 1.479 1_565 S
C112 C113 1.398 . S
C113 C78 1.382 . S
C113 H90 0.951 . S
C113 C112 1.398 . S
C114 C115 1.392 . S
C114 H127 0.947 . S
C114 C149 1.382 . S
C115 C114 1.392 . S
C115 C116 1.374 1_556 S
C116 C115 1.374 1_554 S
C116 C117 1.378 1_554 S
C116 H128 0.952 . S
C117 C116 1.378 1_556 S
C117 H129 0.950 1_556 S
C117 C148 1.383 . S
H118 C137 0.947 1_554 S
H119 C138 0.946 . S
H120 C140 0.953 . S
H121 C141 0.945 . S
H122 C143 0.952 . S
H123 C144 0.949 . S
H124 C146 0.950 . S
H125 C147 0.948 . S
H126 C149 0.951 . S
H127 C114 0.947 . S
H128 C116 0.952 . S
H129 C117 0.950 1_554 S
N130 C133 1.382 . S
N130 C135 1.363 . S
N131 C133 1.371 . S
N131 C134 1.372 . S
N132 C134 1.361 . S
N132 C135 1.377 . S
C133 N130 1.382 . S
C133 N131 1.371 . S
C133 C136 1.480 . S
C134 N131 1.372 . S
C134 N132 1.361 . S
C134 C142 1.457 . S
C135 N130 1.363 . S
C135 N132 1.377 . S
C135 C148 1.479 . S
C136 C133 1.480 . S
C136 C137 1.383 . S
C136 C141 1.385 . S
C137 H118 0.947 1_556 S
C137 C136 1.383 . S
C137 C138 1.388 1_556 S
C138 H119 0.946 . S
C138 C137 1.388 1_554 S
C138 C139 1.384 1_554 S
C139 C138 1.384 1_556 S
C139 C140 1.377 . S
C140 H120 0.953 . S
C140 C139 1.377 . S
C140 C141 1.369 . S
C141 H121 0.945 . S
C141 C136 1.385 . S
C141 C140 1.369 . S
C142 C134 1.457 . S
C142 C143 1.372 . S
C142 C147 1.364 . S
C143 H122 0.952 . S
C143 C142 1.372 . S
C143 C144 1.389 . S
C144 H123 0.949 . S
C144 C143 1.389 . S
C144 C145 1.387 . S
C145 C144 1.387 . S
C145 C146 1.372 . S
C146 H124 0.950 . S
C146 C145 1.372 . S
C146 C147 1.379 . S
C147 H125 0.948 . S
C147 C142 1.364 . S
C147 C146 1.379 . S
C148 C117 1.383 . S
C148 C135 1.479 . S
C148 C149 1.398 . S
C149 C114 1.382 . S
C149 H126 0.951 . S
C149 C148 1.398 . S
C150 C151 1.384 . S
C150 H163 0.947 . S
C150 C185 1.382 . S
C151 C150 1.384 . S
C151 C152 1.378 1_554 S
C152 C151 1.378 1_556 S
C152 C153 1.378 1_556 S
C152 H164 0.952 . S
C153 C152 1.378 1_554 S
C153 H165 0.950 1_554 S
C153 C184 1.383 . S
H154 C173 0.947 . S
H155 C174 0.946 1_556 S
H156 C176 0.953 . S
H157 C177 0.945 . S
H158 C179 0.952 . S
H159 C180 0.949 . S
H160 C182 0.950 . S
H161 C183 0.948 . S
H162 C185 0.951 . S
H163 C150 0.947 . S
H164 C152 0.952 . S
H165 C153 0.950 1_556 S
N166 C169 1.382 . S
N166 C171 1.363 . S
N167 C169 1.371 . S
N167 C170 1.372 . S
N168 C170 1.361 . S
N168 C171 1.377 . S
C169 N166 1.382 . S
C169 N167 1.371 . S
C169 C172 1.480 . S
C170 N167 1.372 . S
C170 N168 1.361 . S
C170 C178 1.457 . S
C171 N166 1.363 . S
C171 N168 1.377 . S
C171 C184 1.479 . S
C172 C169 1.480 . S
C172 C173 1.383 . S
C172 C177 1.385 . S
C173 H154 0.947 . S
C173 C172 1.383 . S
C173 C174 1.388 . S
C174 H155 0.946 1_554 S
C174 C173 1.388 . S
C174 C175 1.384 . S
C175 C174 1.384 . S
C175 C176 1.377 . S
C176 H156 0.953 . S
C176 C175 1.377 . S
C176 C177 1.369 . S
C177 H157 0.945 . S
C177 C172 1.385 . S
C177 C176 1.369 . S
C178 C170 1.457 . S
C178 C179 1.372 . S
C178 C183 1.364 . S
C179 H158 0.952 . S
C179 C178 1.372 . S
C179 C180 1.389 . S
C180 H159 0.949 . S
C180 C179 1.389 . S
C180 C181 1.387 . S
C181 C180 1.387 . S
C181 C182 1.372 . S
C182 H160 0.950 . S
C182 C181 1.372 . S
C182 C183 1.379 . S
C183 H161 0.948 . S
C183 C178 1.364 . S
C183 C182 1.379 . S
C184 C153 1.383 . S
C184 C171 1.479 . S
C184 C185 1.398 . S
C185 C150 1.382 . S
C185 H162 0.951 . S
C185 C184 1.398 . S
C186 C187 1.364 1_556 S
C186 C188 1.422 . S
C186 H190 0.933 . S
C187 C186 1.364 1_554 S
C187 C196 1.429 . S
C188 C186 1.422 . S
C188 C189 1.363 1_556 S
C188 H191 0.929 . S
C189 C188 1.363 1_554 S
C189 C195 1.428 . S
H190 C186 0.933 . S
H191 C188 0.929 . S
S192 N193 1.613 . S
S192 N194 1.610 . S
N193 S192 1.613 . S
N193 C196 1.350 . S
N194 S192 1.610 . S
N194 C195 1.351 . S
C195 C189 1.428 . S
C195 N194 1.351 . S
C195 C196 1.434 . S
C196 C187 1.429 . S
C196 N193 1.350 . S
C196 C195 1.434 . S
C197 C198 1.369 . S
C197 C199 1.419 . S
C197 H201 0.930 . S
C198 C197 1.369 . S
C198 C207 1.429 1_554 S
C199 C197 1.419 . S
C199 C200 1.363 . S
C199 H202 0.929 . S
C200 C199 1.363 . S
C200 C206 1.428 1_554 S
H201 C197 0.930 . S
H202 C199 0.929 . S
S203 N204 1.613 . S
S203 N205 1.610 . S
N204 S203 1.613 . S
N204 C207 1.350 . S
N205 S203 1.610 . S
N205 C206 1.351 . S
C206 C200 1.428 1_556 S
C206 N205 1.351 . S
C206 C207 1.434 . S
C207 C198 1.429 1_556 S
C207 N204 1.350 . S
C207 C206 1.434 . S
C208 C209 1.369 . S
C208 C210 1.419 . S
C208 H212 0.930 . S
C209 C208 1.369 . S
C209 C218 1.429 . S
C210 C208 1.419 . S
C210 C211 1.363 . S
C210 H213 0.929 . S
C211 C210 1.363 . S
C211 C217 1.428 . S
H212 C208 0.930 . S
H213 C210 0.929 . S
S214 N215 1.613 . S
S214 N216 1.610 . S
N215 S214 1.613 . S
N215 C218 1.350 . S
N216 S214 1.610 . S
N216 C217 1.351 . S
C217 C211 1.428 . S
C217 N216 1.351 . S
C217 C218 1.434 . S
C218 C209 1.429 . S
C218 N215 1.350 . S
C218 C217 1.434 . S
C219 C220 1.369 1_554 S
C219 C221 1.419 . S
C219 H223 0.930 . S
C220 C219 1.369 1_556 S
C220 C229 1.429 . S
C221 C219 1.419 . S
C221 C222 1.363 1_554 S
C221 H224 0.929 . S
C222 C221 1.363 1_556 S
C222 C228 1.428 . S
H223 C219 0.930 . S
H224 C221 0.929 . S
S225 N226 1.613 . S
S225 N227 1.610 . S
N226 S225 1.613 . S
N226 C229 1.350 . S
N227 S225 1.610 . S
N227 C228 1.351 . S
C228 C222 1.428 . S
C228 N227 1.351 . S
C228 C229 1.434 . S
C229 C220 1.429 . S
C229 N226 1.350 . S
C229 C228 1.434 . S
C230 C231 1.369 . S
C230 C232 1.419 . S
C230 H234 0.930 . S
C231 C230 1.369 . S
C231 C240 1.429 . S
C232 C230 1.419 . S
C232 C233 1.363 . S
C232 H235 0.929 . S
C233 C232 1.363 . S
C233 C239 1.428 . S
H234 C230 0.930 . S
H235 C232 0.929 . S
S236 N237 1.613 . S
S236 N238 1.610 . S
N237 S236 1.613 . S
N237 C240 1.350 . S
N238 S236 1.610 . S
N238 C239 1.351 . S
C239 C233 1.428 . S
C239 N238 1.351 . S
C239 C240 1.434 . S
C240 C231 1.429 . S
C240 N237 1.350 . S
C240 C239 1.434 . S
C241 C242 1.369 . S
C241 C243 1.419 . S
C241 H245 0.930 . S
C242 C241 1.369 . S
C242 C251 1.429 . S
C243 C241 1.419 . S
C243 C244 1.363 . S
C243 H246 0.929 . S
C244 C243 1.363 . S
C244 C250 1.428 . S
H245 C241 0.930 . S
H246 C243 0.929 . S
S247 N248 1.613 . S
S247 N249 1.610 . S
N248 S247 1.613 . S
N248 C251 1.350 . S
N249 S247 1.610 . S
N249 C250 1.351 . S
C250 C244 1.428 . S
C250 N249 1.351 . S
C250 C251 1.434 . S
C251 C242 1.429 . S
C251 N248 1.350 . S
C251 C250 1.434 . S
C252 C253 1.369 . S
C252 C254 1.419 . S
C252 H256 0.930 . S
C253 C252 1.369 . S
C253 C262 1.429 . S
C254 C252 1.419 . S
C254 C255 1.363 . S
C254 H257 0.929 . S
C255 C254 1.363 . S
C255 C261 1.428 . S
H256 C252 0.930 . S
H257 C254 0.929 . S
S258 N259 1.613 . S
S258 N260 1.610 . S
N259 S258 1.613 . S
N259 C262 1.350 . S
N260 S258 1.610 . S
N260 C261 1.351 . S
C261 C255 1.428 . S
C261 N260 1.351 . S
C261 C262 1.434 . S
C262 C253 1.429 . S
C262 N259 1.350 . S
C262 C261 1.434 . S
C263 C264 1.369 . S
C263 C265 1.419 . S
C263 H267 0.930 . S
C264 C263 1.369 . S
C264 C273 1.429 . S
C265 C263 1.419 . S
C265 C266 1.363 . S
C265 H268 0.929 . S
C266 C265 1.363 . S
C266 C272 1.428 . S
H267 C263 0.930 . S
H268 C265 0.929 . S
S269 N270 1.613 . S
S269 N271 1.610 . S
N270 S269 1.613 . S
N270 C273 1.350 . S
N271 S269 1.610 . S
N271 C272 1.351 . S
C272 C266 1.428 . S
C272 N271 1.351 . S
C272 C273 1.434 . S
C273 C264 1.429 . S
C273 N270 1.350 . S
C273 C272 1.434 . S
C274 C275 1.369 1_565 S
C274 C276 1.419 . S
C274 H278 0.930 . S
C275 C274 1.369 1_545 S
C275 C284 1.429 . S
C276 C274 1.419 . S
C276 C277 1.363 . S
C276 H279 0.929 . S
C277 C276 1.363 . S
C277 C283 1.428 1_565 S
H278 C274 0.930 . S
H279 C276 0.929 . S
S280 N281 1.613 . S
S280 N282 1.610 . S
N281 S280 1.613 . S
N281 C284 1.350 1_655 S
N282 S280 1.610 . S
N282 C283 1.351 1_655 S
C283 C277 1.428 1_545 S
C283 N282 1.351 1_455 S
C283 C284 1.434 . S
C284 C275 1.429 . S
C284 N281 1.350 1_455 S
C284 C283 1.434 . S
C285 C286 1.369 1_655 S
C285 C287 1.419 . S
C285 H289 0.930 . S
C286 C285 1.369 1_455 S
C286 C295 1.429 . S
C287 C285 1.419 . S
C287 C288 1.363 1_655 S
C287 H290 0.929 . S
C288 C287 1.363 1_455 S
C288 C294 1.428 . S
H289 C285 0.930 . S
H290 C287 0.929 . S
S291 N292 1.613 . S
S291 N293 1.610 . S
N292 S291 1.613 . S
N292 C295 1.350 . S
N293 S291 1.610 . S
N293 C294 1.351 . S
C294 C288 1.428 . S
C294 N293 1.351 . S
C294 C295 1.434 . S
C295 C286 1.429 . S
C295 N292 1.350 . S
C295 C294 1.434 . S
C296 C297 1.369 . S
C296 C298 1.419 . S
C296 H300 0.930 . S
C297 C296 1.369 . S
C297 C306 1.429 . S
C298 C296 1.419 . S
C298 C299 1.363 . S
C298 H301 0.929 . S
C299 C298 1.363 . S
C299 C305 1.428 . S
H300 C296 0.930 . S
H301 C298 0.929 . S
S302 N303 1.613 . S
S302 N304 1.610 . S
N303 S302 1.613 . S
N303 C306 1.350 . S
N304 S302 1.610 . S
N304 C305 1.351 . S
C305 C299 1.428 . S
C305 N304 1.351 . S
C305 C306 1.434 . S
C306 C297 1.429 . S
C306 N303 1.350 . S
C306 C305 1.434 . S
C307 C308 1.369 . S
C307 C309 1.419 . S
C307 H311 0.930 . S
C308 C307 1.369 . S
C308 C317 1.429 . S
C309 C307 1.419 . S
C309 C310 1.363 . S
C309 H312 0.929 . S
C310 C309 1.363 . S
C310 C316 1.428 . S
H311 C307 0.930 . S
H312 C309 0.929 . S
S313 N314 1.613 . S
S313 N315 1.610 . S
N314 S313 1.613 . S
N314 C317 1.350 . S
N315 S313 1.610 . S
N315 C316 1.351 . S
C316 C310 1.428 . S
C316 N315 1.351 . S
C316 C317 1.434 . S
C317 C308 1.429 . S
C317 N314 1.350 . S
C317 C316 1.434 . S
C189 C151 1.550 . S
C187 C15 1.504 . S
C198 C13 1.613 . S
C200 C115 1.576 1_554 S
C209 C18 1.303 1_554 S
C211 C175 1.507 . S
C220 C17 1.422 . S
C222 C139 1.424 . S
C231 C36 1.505 . S
C233 C79 1.551 . S
C242 C34 1.613 . S
C244 C43 1.579 . S
C255 C103 1.505 . S
C253 C39 1.310 . S
C266 C67 1.423 . S
C264 C38 1.419 . S
C275 C14 1.515 . S
C277 C73 1.550 . S
C286 C16 1.408 . S
C288 C109 1.437 . S
C299 C145 1.550 . S
C297 C35 1.518 . S
C308 C37 1.401 . S
C310 C181 1.440 . S
