# Generated by pormake.
# Topology eea, (3,6)-cn, num edge types: 1
# Building blocks:
#     Node 0, Type 0, BuildingBlock: BETDIP_clean_linker_0, # of connection points: 3
#     Node 1, Type 0, BuildingBlock: BETDIP_clean_linker_0, # of connection points: 3
#     Node 2, Type 0, BuildingBlock: BETDIP_clean_linker_0, # of connection points: 3
#     Node 3, Type 0, BuildingBlock: BETDIP_clean_linker_0, # of connection points: 3
#     Node 4, Type 0, BuildingBlock: BETDIP_clean_linker_0, # of connection points: 3
#     Node 5, Type 0, BuildingBlock: BETDIP_clean_linker_0, # of connection points: 3
#     Node 6, Type 0, BuildingBlock: BETDIP_clean_linker_0, # of connection points: 3
#     Node 7, Type 0, BuildingBlock: BETDIP_clean_linker_0, # of connection points: 3
#     Node 8, Type 0, BuildingBlock: BETDIP_clean_linker_0, # of connection points: 3
#     Node 9, Type 0, BuildingBlock: BETDIP_clean_linker_0, # of connection points: 3
#     Node 10, Type 0, BuildingBlock: BETDIP_clean_linker_0, # of connection points: 3
#     Node 11, Type 0, BuildingBlock: BETDIP_clean_linker_0, # of connection points: 3
#     Node 12, Type 0, BuildingBlock: BETDIP_clean_linker_0, # of connection points: 3
#     Node 13, Type 0, BuildingBlock: BETDIP_clean_linker_0, # of connection points: 3
#     Node 14, Type 0, BuildingBlock: BETDIP_clean_linker_0, # of connection points: 3
#     Node 15, Type 0, BuildingBlock: BETDIP_clean_linker_0, # of connection points: 3
#     Node 16, Type 0, BuildingBlock: BETDIP_clean_linker_0, # of connection points: 3
#     Node 17, Type 0, BuildingBlock: BETDIP_clean_linker_0, # of connection points: 3
#     Node 18, Type 1, BuildingBlock: KUMJIN_clean_sbu_0, # of connection points: 6
#     Node 19, Type 1, BuildingBlock: KUMJIN_clean_sbu_0, # of connection points: 6
#     Node 20, Type 1, BuildingBlock: KUMJIN_clean_sbu_0, # of connection points: 6
#     Node 21, Type 1, BuildingBlock: KUMJIN_clean_sbu_0, # of connection points: 6
#     Node 22, Type 1, BuildingBlock: KUMJIN_clean_sbu_0, # of connection points: 6
#     Node 23, Type 1, BuildingBlock: KUMJIN_clean_sbu_0, # of connection points: 6
#     Node 24, Type 1, BuildingBlock: KUMJIN_clean_sbu_0, # of connection points: 6
#     Node 25, Type 1, BuildingBlock: KUMJIN_clean_sbu_0, # of connection points: 6
#     Node 26, Type 1, BuildingBlock: KUMJIN_clean_sbu_0, # of connection points: 6
#     Edge 27, Type (0, 1), BuildingBlock: KIFKEQ_clean_linker_1, # of connection points: 2
#     Edge 28, Type (0, 1), BuildingBlock: KIFKEQ_clean_linker_1, # of connection points: 2
#     Edge 29, Type (0, 1), BuildingBlock: KIFKEQ_clean_linker_1, # of connection points: 2
#     Edge 30, Type (0, 1), BuildingBlock: KIFKEQ_clean_linker_1, # of connection points: 2
#     Edge 31, Type (0, 1), BuildingBlock: KIFKEQ_clean_linker_1, # of connection points: 2
#     Edge 32, Type (0, 1), BuildingBlock: KIFKEQ_clean_linker_1, # of connection points: 2
#     Edge 33, Type (0, 1), BuildingBlock: KIFKEQ_clean_linker_1, # of connection points: 2
#     Edge 34, Type (0, 1), BuildingBlock: KIFKEQ_clean_linker_1, # of connection points: 2
#     Edge 35, Type (0, 1), BuildingBlock: KIFKEQ_clean_linker_1, # of connection points: 2
#     Edge 36, Type (0, 1), BuildingBlock: KIFKEQ_clean_linker_1, # of connection points: 2
#     Edge 37, Type (0, 1), BuildingBlock: KIFKEQ_clean_linker_1, # of connection points: 2
#     Edge 38, Type (0, 1), BuildingBlock: KIFKEQ_clean_linker_1, # of connection points: 2
#     Edge 39, Type (0, 1), BuildingBlock: KIFKEQ_clean_linker_1, # of connection points: 2
#     Edge 40, Type (0, 1), BuildingBlock: KIFKEQ_clean_linker_1, # of connection points: 2
#     Edge 41, Type (0, 1), BuildingBlock: KIFKEQ_clean_linker_1, # of connection points: 2
#     Edge 42, Type (0, 1), BuildingBlock: KIFKEQ_clean_linker_1, # of connection points: 2
#     Edge 43, Type (0, 1), BuildingBlock: KIFKEQ_clean_linker_1, # of connection points: 2
#     Edge 44, Type (0, 1), BuildingBlock: KIFKEQ_clean_linker_1, # of connection points: 2
#     Edge 45, Type (0, 1), BuildingBlock: KIFKEQ_clean_linker_1, # of connection points: 2
#     Edge 46, Type (0, 1), BuildingBlock: KIFKEQ_clean_linker_1, # of connection points: 2
#     Edge 47, Type (0, 1), BuildingBlock: KIFKEQ_clean_linker_1, # of connection points: 2
#     Edge 48, Type (0, 1), BuildingBlock: KIFKEQ_clean_linker_1, # of connection points: 2
#     Edge 49, Type (0, 1), BuildingBlock: KIFKEQ_clean_linker_1, # of connection points: 2
#     Edge 50, Type (0, 1), BuildingBlock: KIFKEQ_clean_linker_1, # of connection points: 2
#     Edge 51, Type (0, 1), BuildingBlock: KIFKEQ_clean_linker_1, # of connection points: 2
#     Edge 52, Type (0, 1), BuildingBlock: KIFKEQ_clean_linker_1, # of connection points: 2
#     Edge 53, Type (0, 1), BuildingBlock: KIFKEQ_clean_linker_1, # of connection points: 2
#     Edge 54, Type (0, 1), BuildingBlock: KIFKEQ_clean_linker_1, # of connection points: 2
#     Edge 55, Type (0, 1), BuildingBlock: KIFKEQ_clean_linker_1, # of connection points: 2
#     Edge 56, Type (0, 1), BuildingBlock: KIFKEQ_clean_linker_1, # of connection points: 2
#     Edge 57, Type (0, 1), BuildingBlock: KIFKEQ_clean_linker_1, # of connection points: 2
#     Edge 58, Type (0, 1), BuildingBlock: KIFKEQ_clean_linker_1, # of connection points: 2
#     Edge 59, Type (0, 1), BuildingBlock: KIFKEQ_clean_linker_1, # of connection points: 2
#     Edge 60, Type (0, 1), BuildingBlock: KIFKEQ_clean_linker_1, # of connection points: 2
#     Edge 61, Type (0, 1), BuildingBlock: KIFKEQ_clean_linker_1, # of connection points: 2
#     Edge 62, Type (0, 1), BuildingBlock: KIFKEQ_clean_linker_1, # of connection points: 2
#     Edge 63, Type (0, 1), BuildingBlock: KIFKEQ_clean_linker_1, # of connection points: 2
#     Edge 64, Type (0, 1), BuildingBlock: KIFKEQ_clean_linker_1, # of connection points: 2
#     Edge 65, Type (0, 1), BuildingBlock: KIFKEQ_clean_linker_1, # of connection points: 2
#     Edge 66, Type (0, 1), BuildingBlock: KIFKEQ_clean_linker_1, # of connection points: 2
#     Edge 67, Type (0, 1), BuildingBlock: KIFKEQ_clean_linker_1, # of connection points: 2
#     Edge 68, Type (0, 1), BuildingBlock: KIFKEQ_clean_linker_1, # of connection points: 2
#     Edge 69, Type (0, 1), BuildingBlock: KIFKEQ_clean_linker_1, # of connection points: 2
#     Edge 70, Type (0, 1), BuildingBlock: KIFKEQ_clean_linker_1, # of connection points: 2
#     Edge 71, Type (0, 1), BuildingBlock: KIFKEQ_clean_linker_1, # of connection points: 2
#     Edge 72, Type (0, 1), BuildingBlock: KIFKEQ_clean_linker_1, # of connection points: 2
#     Edge 73, Type (0, 1), BuildingBlock: KIFKEQ_clean_linker_1, # of connection points: 2
#     Edge 74, Type (0, 1), BuildingBlock: KIFKEQ_clean_linker_1, # of connection points: 2
#     Edge 75, Type (0, 1), BuildingBlock: KIFKEQ_clean_linker_1, # of connection points: 2
#     Edge 76, Type (0, 1), BuildingBlock: KIFKEQ_clean_linker_1, # of connection points: 2
#     Edge 77, Type (0, 1), BuildingBlock: KIFKEQ_clean_linker_1, # of connection points: 2
#     Edge 78, Type (0, 1), BuildingBlock: KIFKEQ_clean_linker_1, # of connection points: 2
#     Edge 79, Type (0, 1), BuildingBlock: KIFKEQ_clean_linker_1, # of connection points: 2
#     Edge 80, Type (0, 1), BuildingBlock: KIFKEQ_clean_linker_1, # of connection points: 2
# Relax obj value: 0.025
# Max RMSD: 0.165
# Mean RMSD: 0.120
data_MOF--net-eea--node1-KUMJIN_clean_sbu_0--node2-BETDIP_clean_linker_0--edge1-KIFKEQ_clean_linker_1
_symmetry_space_group_name_H-M    P1
_symmetry_Int_Tables_number       1
_symmetry_cell_setting            triclinic
loop_
_symmetry_equiv_pos_as_xyz
'x, y, z'
_cell_length_a     55.033489
_cell_length_b     56.691341
_cell_length_c     67.576627
_cell_angle_alpha  89.913375
_cell_angle_beta   89.742676
_cell_angle_gamma 119.94241
loop_
_atom_site_label
_atom_site_type_symbol
_atom_site_fract_x
_atom_site_fract_y
_atom_site_fract_z
_atom_type_partial_charge
H0 H 0.21549 0.09114 0.39126 0.0
H1 H 0.24847 0.14353 0.44185 0.0
H2 H 0.26225 0.07579 0.43519 0.0
H3 H 0.21359 0.15183 0.43527 0.0
C4 C 0.21389 0.15297 0.41922 0.0
C5 C 0.22698 0.09641 0.40505 0.0
C6 C 0.23841 0.08069 0.41203 0.0
C7 C 0.23034 0.11902 0.41572 0.0
C8 C 0.24547 0.12599 0.43356 0.0
C9 C 0.25687 0.11037 0.44083 0.0
C10 C 0.25341 0.08791 0.42983 0.0
N11 N 0.21908 0.13484 0.40785 0.0
H12 H 0.93354 0.13159 0.38404 0.0
H13 H 0.87851 0.10356 0.43462 0.0
H14 H 0.95142 0.18291 0.4354 0.0
H15 H 0.84711 0.08856 0.40549 0.0
C16 C 0.85656 0.07707 0.39973 0.0
C17 C 0.92869 0.13506 0.39892 0.0
C18 C 0.94585 0.16021 0.40836 0.0
C19 C 0.90418 0.11474 0.40819 0.0
C20 C 0.89728 0.11918 0.42734 0.0
C21 C 0.91414 0.14386 0.43702 0.0
C22 C 0.93835 0.16412 0.42756 0.0
N23 N 0.88628 0.09013 0.39801 0.0
H24 H 0.89697 0.80654 0.3836 0.0
H25 H 0.92719 0.78527 0.43539 0.0
H26 H 0.84639 0.7802 0.43638 0.0
H27 H 0.96949 0.82503 0.4214 0.0
C28 C 0.96702 0.81557 0.407 0.0
C29 C 0.89395 0.79954 0.39882 0.0
C30 C 0.86954 0.79441 0.40917 0.0
C31 C 0.91513 0.79689 0.40836 0.0
C32 C 0.91106 0.7877 0.42815 0.0
C33 C 0.88619 0.7813 0.43849 0.0
C34 C 0.86579 0.78516 0.42884 0.0
N35 N 0.94019 0.80315 0.39783 0.0
H36 H 0.09895 0.21025 0.65232 0.0
H37 H 0.14958 0.22582 0.60011 0.0
H38 H 0.08004 0.24027 0.59936 0.0
H39 H 0.14704 0.18442 0.61441 0.0
C40 C 0.15552 0.1946 0.6284 0.0
C41 C 0.10319 0.21665 0.63698 0.0
C42 C 0.08607 0.2248 0.62697 0.0
C43 C 0.12584 0.21661 0.62726 0.0
C44 C 0.13194 0.22555 0.60747 0.0
C45 C 0.11583 0.23461 0.5973 0.0
C46 C 0.09277 0.23372 0.60715 0.0
N47 N 0.14304 0.20856 0.63772 0.0
H48 H 0.81955 0.89445 0.64151 0.0
H49 H 0.78594 0.91708 0.59234 0.0
H50 H 0.76724 0.83449 0.59856 0.0
H51 H 0.82438 0.95827 0.59763 0.0
C52 C 0.82399 0.95934 0.61367 0.0
C53 C 0.80721 0.88898 0.6281 0.0
C54 C 0.7937 0.86191 0.62136 0.0
C55 C 0.80492 0.90915 0.61764 0.0
C56 C 0.7887 0.90204 0.60034 0.0
C57 C 0.775 0.87515 0.59355 0.0
C58 C 0.77737 0.85515 0.60414 0.0
N59 N 0.81805 0.93609 0.62526 0.0
H60 H 0.12771 0.92029 0.64627 0.0
H61 H 0.09868 0.86596 0.59665 0.0
H62 H 0.1814 0.93605 0.59557 0.0
H63 H 0.05603 0.86524 0.60931 0.0
C64 C 0.05866 0.85957 0.62419 0.0
C65 C 0.13163 0.91485 0.63172 0.0
C66 C 0.15701 0.93189 0.62171 0.0
C67 C 0.11053 0.89117 0.62275 0.0
C68 C 0.11494 0.88421 0.60359 0.0
C69 C 0.14039 0.90058 0.59352 0.0
C70 C 0.16131 0.92404 0.60288 0.0
N71 N 0.0853 0.87427 0.63342 0.0
H72 H 0.88948 0.42887 0.72299 0.0
H73 H 0.9295 0.48584 0.77038 0.0
H74 H 0.93367 0.41224 0.76831 0.0
H75 H 0.93886 0.51527 0.74269 0.0
C76 C 0.91746 0.50607 0.73731 0.0
C77 C 0.90158 0.4346 0.73651 0.0
C78 C 0.91095 0.41765 0.7445 0.0
C79 C 0.90898 0.45963 0.74539 0.0
C80 C 0.92443 0.46695 0.76307 0.0
C81 C 0.93347 0.44996 0.77137 0.0
C82 C 0.92694 0.42555 0.76186 0.0
N83 N 0.90085 0.47724 0.73629 0.0
H84 H 0.60432 0.45814 0.72015 0.0
H85 H 0.55096 0.43788 0.77167 0.0
H86 H 0.62136 0.51837 0.76491 0.0
H87 H 0.54172 0.39574 0.76493 0.0
C88 C 0.54006 0.39481 0.74891 0.0
C89 C 0.59909 0.46383 0.73417 0.0
C90 C 0.6156 0.49049 0.74131 0.0
C91 C 0.57591 0.44441 0.74513 0.0
C92 C 0.5693 0.4521 0.7633 0.0
C93 C 0.58559 0.47866 0.77051 0.0
C94 C 0.60862 0.49783 0.75938 0.0
N95 N 0.55896 0.41775 0.73728 0.0
H96 H 0.56546 0.1412 0.71788 0.0
H97 H 0.58701 0.11141 0.76991 0.0
H98 H 0.50966 0.11247 0.76815 0.0
H99 H 0.60929 0.09996 0.74756 0.0
C100 C 0.61924 0.11745 0.7377 0.0
C101 C 0.56058 0.13276 0.73272 0.0
C102 C 0.5355 0.12791 0.74202 0.0
C103 C 0.57931 0.12658 0.7425 0.0
C104 C 0.57274 0.11582 0.76192 0.0
C105 C 0.54745 0.11022 0.77113 0.0
C106 C 0.52913 0.11655 0.76111 0.0
N107 N 0.6045 0.13138 0.73265 0.0
H108 H 0.76306 0.53281 0.98285 0.0
H109 H 0.81751 0.56347 0.93193 0.0
H110 H 0.74436 0.57213 0.93571 0.0
H111 H 0.82669 0.5308 0.93967 0.0
C112 C 0.82873 0.53235 0.95566 0.0
C113 C 0.7683 0.54293 0.96857 0.0
C114 C 0.75076 0.55174 0.96023 0.0
C115 C 0.79229 0.54664 0.9583 0.0
C116 C 0.79891 0.56007 0.9398 0.0
C117 C 0.78183 0.56933 0.93132 0.0
C118 C 0.75769 0.56491 0.94174 0.0
N119 N 0.80982 0.53743 0.96695 0.0
H120 H 0.48502 0.22673 0.97612 0.0
H121 H 0.45206 0.24866 0.92617 0.0
H122 H 0.43432 0.16644 0.93283 0.0
H123 H 0.48989 0.29009 0.93172 0.0
C124 C 0.48894 0.29114 0.94774 0.0
C125 C 0.47303 0.22113 0.96255 0.0
C126 C 0.45998 0.19405 0.95583 0.0
C127 C 0.47064 0.2411 0.95187 0.0
C128 C 0.4549 0.23379 0.93435 0.0
C129 C 0.44173 0.20692 0.92755 0.0
C130 C 0.4441 0.1871 0.93838 0.0
N131 N 0.48316 0.26803 0.95946 0.0
H132 H 0.79232 0.25095 0.98051 0.0
H133 H 0.76513 0.19696 0.9307 0.0
H134 H 0.84724 0.26795 0.93038 0.0
H135 H 0.72193 0.19591 0.94285 0.0
C136 C 0.72432 0.18999 0.9577 0.0
C137 C 0.79668 0.24573 0.96602 0.0
C138 C 0.82214 0.26316 0.95625 0.0
C139 C 0.77607 0.22195 0.95686 0.0
C140 C 0.78105 0.21528 0.93778 0.0
C141 C 0.80662 0.23202 0.92796 0.0
C142 C 0.82705 0.2556 0.93749 0.0
N143 N 0.7507 0.2047 0.96725 0.0
H144 H 0.54511 0.75449 0.06105 0.0
H145 H 0.58464 0.81403 0.10699 0.0
H146 H 0.59738 0.74551 0.10425 0.0
H147 H 0.54624 0.81861 0.10195 0.0
C148 C 0.54584 0.81904 0.08588 0.0
C149 C 0.55857 0.76176 0.07389 0.0
C150 C 0.57044 0.74671 0.0816 0.0
C151 C 0.56311 0.78579 0.08311 0.0
C152 C 0.58021 0.79513 0.10001 0.0
C153 C 0.59256 0.78062 0.10764 0.0
C154 C 0.58775 0.75663 0.09831 0.0
N155 N 0.55089 0.80055 0.07485 0.0
H156 H 0.26749 0.79505 0.04879 0.0
H157 H 0.21543 0.76547 0.10074 0.0
H158 H 0.28556 0.84745 0.09902 0.0
H159 H 0.21996 0.72608 0.08892 0.0
C160 C 0.21114 0.72682 0.07473 0.0
C161 C 0.26242 0.79846 0.06365 0.0
C162 C 0.27953 0.82339 0.07306 0.0
C163 C 0.23956 0.7774 0.07375 0.0
C164 C 0.23318 0.78182 0.09308 0.0
C165 C 0.24926 0.80717 0.10239 0.0
C166 C 0.27273 0.82773 0.09225 0.0
N167 N 0.22286 0.75195 0.06426 0.0
H168 H 0.23007 0.47263 0.04962 0.0
H169 H 0.25674 0.44548 0.1004 0.0
H170 H 0.17559 0.43934 0.10024 0.0
H171 H 0.30039 0.4864 0.08895 0.0
C172 C 0.29873 0.47881 0.07396 0.0
C173 C 0.22605 0.46387 0.06436 0.0
C174 C 0.20054 0.45671 0.07397 0.0
C175 C 0.2468 0.46056 0.074 0.0
C176 C 0.24133 0.44904 0.09316 0.0
C177 C 0.21541 0.44074 0.10256 0.0
C178 C 0.19538 0.44508 0.09294 0.0
N179 N 0.27256 0.46803 0.064 0.0
H180 H 0.43079 0.87259 0.31878 0.0
H181 H 0.48753 0.89838 0.2691 0.0
H182 H 0.41195 0.90301 0.26598 0.0
H183 H 0.48327 0.8537 0.28123 0.0
C184 C 0.49125 0.863 0.29556 0.0
C185 C 0.43628 0.88081 0.30391 0.0
C186 C 0.41814 0.88701 0.29333 0.0
C187 C 0.46086 0.88397 0.29496 0.0
C188 C 0.46814 0.8951 0.27579 0.0
C189 C 0.45084 0.90236 0.26529 0.0
C190 C 0.42549 0.89756 0.27398 0.0
N191 N 0.4783 0.87619 0.30532 0.0
H192 H 0.15376 0.56016 0.30735 0.0
H193 H 0.12045 0.58319 0.25821 0.0
H194 H 0.10275 0.50083 0.2636 0.0
H195 H 0.15866 0.6245 0.26405 0.0
C196 C 0.15768 0.6252 0.28009 0.0
C197 C 0.14169 0.55485 0.29382 0.0
C198 C 0.12864 0.52794 0.28676 0.0
C199 C 0.13923 0.57506 0.28354 0.0
C200 C 0.12335 0.56814 0.26608 0.0
C201 C 0.11009 0.54141 0.25899 0.0
C202 C 0.1126 0.52136 0.2694 0.0
N203 N 0.15178 0.60181 0.29148 0.0
H204 H 0.46145 0.58615 0.31246 0.0
H205 H 0.43519 0.52825 0.26497 0.0
H206 H 0.51774 0.59825 0.26393 0.0
H207 H 0.39153 0.52848 0.27513 0.0
C208 C 0.39355 0.52358 0.29038 0.0
C209 C 0.46611 0.57968 0.29858 0.0
C210 C 0.49217 0.5959 0.28905 0.0
C211 C 0.44537 0.55546 0.28991 0.0
C212 C 0.45083 0.54715 0.2716 0.0
C213 C 0.47706 0.56248 0.26233 0.0
C214 C 0.49751 0.58663 0.27116 0.0
N215 N 0.41961 0.53919 0.30018 0.0
Eu216 Eu 0.49377 0.99126 0.9931 0.0
C217 C 0.55004 0.08406 0.05597 0.0
C218 C 0.59934 0.09803 0.05403 0.0
C219 C 0.58516 0.13087 0.06321 0.0
C220 C 0.57089 0.07793 0.052 0.0
C221 C 0.55688 0.11042 0.06207 0.0
C222 C 0.60637 0.12469 0.05918 0.0
C223 C 0.50739 0.09378 0.06703 0.0
N224 N 0.52299 0.06379 0.05488 0.0
C225 C 0.5017 0.06796 0.06094 0.0
C226 C 0.53509 0.11522 0.06736 0.0
Eu227 Eu 0.51471 0.02096 0.04352 0.0
N228 N 0.56333 0.0519 0.04733 0.0
C229 C 0.5831 0.04411 0.04604 0.0
C230 C 0.6198 0.09052 0.05146 0.0
C231 C 0.6116 0.06333 0.04778 0.0
H232 H 0.48024 0.05147 0.06052 0.0
H233 H 0.62722 0.05718 0.0462 0.0
H234 H 0.62811 0.14047 0.06061 0.0
H235 H 0.49043 0.09716 0.07141 0.0
H236 H 0.57715 0.02324 0.04309 0.0
H237 H 0.38169 0.95678 0.98915 0.0
H238 H 0.64189 0.10535 0.05283 0.0
H239 H 0.52755 0.95962 0.97699 0.0
H240 H 0.43187 0.99012 0.99264 0.0
H241 H 0.51671 0.9135 0.96671 0.0
H242 H 0.59086 0.15133 0.06768 0.0
H243 H 0.36633 0.90835 0.98296 0.0
H244 H 0.37938 0.87254 0.97597 0.0
H245 H 0.53947 0.13519 0.07213 0.0
H246 H 0.41615 0.86075 0.96972 0.0
N247 N 0.44507 0.9609 0.989 0.0
C248 C 0.42562 0.96914 0.98987 0.0
C249 C 0.38846 0.92293 0.98447 0.0
C250 C 0.40861 0.91493 0.98235 0.0
C251 C 0.39706 0.95026 0.98791 0.0
C252 C 0.43714 0.93471 0.98456 0.0
H253 H 0.46742 0.876 0.96586 0.0
N254 N 0.48491 0.94803 0.98222 0.0
C255 C 0.49993 0.91729 0.97077 0.0
C256 C 0.45773 0.92806 0.98104 0.0
C257 C 0.50599 0.94335 0.97652 0.0
C258 C 0.47208 0.89616 0.97038 0.0
C259 C 0.45053 0.90149 0.97525 0.0
O260 O 0.51497 1.00066 0.96426 0.0
O261 O 0.52654 0.02383 0.01169 0.0
O262 O 0.50974 0.05112 0.02459 0.0
O263 O 0.48023 0.02267 0.9998 0.0
O264 O 0.54081 0.00783 0.99034 0.0
O265 O 0.48204 0.01013 0.96966 0.0
O266 O 0.49316 0.01044 0.07224 0.0
O267 O 0.48195 0.98857 0.02486 0.0
O268 O 0.49841 0.96104 0.01238 0.0
O269 O 0.52865 0.99001 0.03658 0.0
O270 O 0.46763 0.0043 0.04637 0.0
O271 O 0.52726 0.00265 0.06686 0.0
C272 C 0.54842 0.02593 1.00402 0.0
C273 C 0.48778 0.99952 0.93687 0.0
C274 C 0.48621 0.00768 0.90147 0.0
C275 C 0.4984 0.01681 0.92023 0.0
C276 C 0.46363 0.98096 0.89958 0.0
C277 C 0.46539 0.9729 0.93458 0.0
C278 C 0.45345 0.96369 0.91601 0.0
C279 C 0.49227 0.046 0.0097 0.0
C280 C 0.49938 0.00967 0.95665 0.0
C281 C 0.42213 0.88137 0.97395 0.0
C282 C 0.4012 0.88808 0.97752 0.0
C283 C 0.46006 0.98645 0.03251 0.0
C284 C 0.52053 0.01232 0.0997 0.0
C285 C 0.50872 0.99533 0.11637 0.0
C286 C 0.52031 0.00436 0.13528 0.0
C287 C 0.5435 0.0307 0.13731 0.0
C288 C 0.5435 0.0386 0.1021 0.0
C289 C 0.55485 0.04772 0.12083 0.0
C290 C 0.5161 0.96635 0.02717 0.0
C291 C 0.5094 1.00221 0.07982 0.0
H292 H 0.5156 0.03746 0.92196 0.0
H293 H 0.45399 0.97337 0.88531 0.0
H294 H 0.45698 0.95934 0.94715 0.0
H295 H 0.43613 0.94313 0.91437 0.0
H296 H 0.49105 0.97495 0.11455 0.0
H297 H 0.5527 0.03821 0.1517 0.0
H298 H 0.55282 0.05195 0.0895 0.0
H299 H 0.57264 0.068 0.12257 0.0
Eu300 Eu 0.03226 0.49897 0.99351 0.0
C301 C 0.93063 0.46373 0.05156 0.0
C302 C 0.91608 0.49724 0.04695 0.0
C303 C 0.88193 0.45114 0.05705 0.0
C304 C 0.93704 0.48984 0.04645 0.0
C305 C 0.90317 0.44429 0.05745 0.0
C306 C 0.88836 0.47757 0.05178 0.0
C307 C 0.92037 0.41371 0.06561 0.0
N308 N 0.95171 0.45789 0.05204 0.0
C309 C 0.94728 0.4337 0.05966 0.0
C310 C 0.89813 0.41887 0.06423 0.0
Eu311 Eu 0.99656 0.49257 0.04153 0.0
N312 N 0.96409 0.50844 0.04212 0.0
C313 C 0.97198 0.53523 0.03955 0.0
C314 C 0.92377 0.52438 0.04317 0.0
C315 C 0.95192 0.54352 0.03974 0.0
H316 H 0.9644 0.4296 0.06067 0.0
H317 H 0.95818 0.56466 0.03716 0.0
H318 H 0.87192 0.4828 0.05203 0.0
H319 H 0.91681 0.39433 0.07122 0.0
H320 H 0.99364 0.55021 0.03682 0.0
H321 H 0.06474 0.42223 0.99646 0.0
H322 H 0.90829 0.53086 0.04334 0.0
H323 H 0.0687 0.56323 0.97706 0.0
H324 H 0.03129 0.43906 0.99655 0.0
H325 H 0.1179 0.59772 0.96928 0.0
H326 H 0.86063 0.4364 0.06132 0.0
H327 H 0.11553 0.4545 0.99254 0.0
H328 H 0.1543 0.50243 0.98634 0.0
H329 H 0.87733 0.40339 0.06892 0.0
H330 H 0.1688 0.55021 0.97893 0.0
N331 N 0.06272 0.48068 0.99309 0.0
C332 C 0.05332 0.45344 0.99473 0.0
C333 C 0.10091 0.46205 0.9925 0.0
C334 C 0.11026 0.48975 0.98973 0.0
C335 C 0.07226 0.44377 0.99468 0.0
C336 C 0.09036 0.49852 0.98991 0.0
H337 H 0.15533 0.58584 0.97223 0.0
N338 N 0.07852 0.5326 0.98478 0.0
C339 C 0.11275 0.57747 0.97394 0.0
C340 C 0.09851 0.52532 0.98564 0.0
C341 C 0.08496 0.55792 0.97826 0.0
C342 C 0.13383 0.5707 0.97568 0.0
C343 C 0.12679 0.54423 0.98126 0.0
O344 O 0.027 0.51006 0.96349 0.0
O345 O 0.99668 0.49945 0.00902 0.0
O346 O 0.96683 0.45658 0.02293 0.0
O347 O 0.99812 0.45499 1.00019 0.0
O348 O 0.01633 0.52837 0.98719 0.0
O349 O 0.01681 0.46865 0.97005 0.0
O350 O 1.008 0.48509 0.07079 0.0
O351 O 0.03186 0.49206 0.02583 0.0
O352 O 0.0616 0.53351 0.01319 0.0
O353 O 0.02976 0.53684 0.0342 0.0
O354 O 0.01329 0.46368 0.048 0.0
O355 O 1.00821 0.52276 0.06501 0.0
C356 C 0.99594 0.51843 0.9998 0.0
C357 C 0.03361 0.48548 0.93795 0.0
C358 C 0.03319 0.4816 0.902 0.0
C359 C 0.02045 0.483 0.91972 0.0
C360 C 0.05944 0.48306 0.90276 0.0
C361 C 0.05983 0.487 0.93841 0.0
C362 C 0.07268 0.48586 0.92088 0.0
C363 C 0.97321 0.44401 0.00909 0.0
C364 C 0.01954 0.48605 0.95632 0.0
C365 C 0.14692 0.53593 0.98205 0.0
C366 C 0.13867 0.50872 0.98627 0.0
C367 C 0.03317 0.47338 0.03499 0.0
C368 C 0.9968 0.50447 0.09744 0.0
C369 C 0.01207 0.50904 0.11494 0.0
C370 C 0.99872 0.50429 0.13357 0.0
C371 C 0.96974 0.49505 0.13422 0.0
C372 C 0.96811 0.49576 0.09847 0.0
C373 C 0.95467 0.49106 0.11679 0.0
C374 C 0.05509 0.547 0.0261 0.0
C375 C 1.01083 0.50746 0.0783 0.0
H376 H 1.00006 0.48156 0.91937 0.0
H377 H 0.0698 0.48223 0.88933 0.0
H378 H 0.07027 0.48887 0.95226 0.0
H379 H 0.09291 0.48703 0.92135 0.0
H380 H 0.03437 0.51636 0.11392 0.0
H381 H 0.95851 0.49051 0.14817 0.0
H382 H 0.95606 0.49239 0.08519 0.0
H383 H 0.93243 0.48402 0.11747 0.0
Eu384 Eu 0.53455 0.51019 0.03982 0.0
C385 C 0.48088 0.55457 0.98042 0.0
C386 C 0.43126 0.52146 0.98147 0.0
C387 C 0.44669 0.56897 0.97444 0.0
C388 C 0.45948 0.52808 0.98335 0.0
C389 C 0.47476 0.57518 0.97539 0.0
C390 C 0.42497 0.54216 0.97751 0.0
C391 C 0.52447 0.60584 0.97072 0.0
N392 N 0.50775 0.55981 0.98123 0.0
C393 C 0.52947 0.5847 0.97574 0.0
C394 C 0.49702 0.60117 0.97082 0.0
Eu395 Eu 0.51454 0.52322 0.99041 0.0
N396 N 0.46629 0.50851 0.98685 0.0
C397 C 0.44603 0.48168 0.98712 0.0
C398 C 0.41026 0.49412 0.98298 0.0
C399 C 0.41773 0.47411 0.98548 0.0
H400 H 0.55072 0.58839 0.97575 0.0
H401 H 0.40169 0.45285 0.98625 0.0
H402 H 0.40341 0.53751 0.97622 0.0
H403 H 0.54177 0.62571 0.96683 0.0
H404 H 0.45155 0.46605 0.98918 0.0
H405 H 0.64685 0.58349 0.04407 0.0
H406 H 0.38833 0.48819 0.98169 0.0
H407 H 0.50043 0.44501 0.05427 0.0
H408 H 0.59672 0.56873 0.04106 0.0
H409 H 0.511 0.4087 0.06313 0.0
H410 H 0.44155 0.58458 0.9708 0.0
H411 H 0.66187 0.5494 0.04879 0.0
H412 H 0.64848 0.50051 0.0543 0.0
H413 H 0.4932 0.61756 0.96686 0.0
H414 H 0.6115 0.45292 0.05961 0.0
N415 N 0.58322 0.5265 0.04352 0.0
C416 C 0.60283 0.55356 0.04318 0.0
C417 C 0.63976 0.54275 0.04748 0.0
C418 C 0.61947 0.51518 0.04902 0.0
C419 C 0.63136 0.56206 0.04488 0.0
C420 C 0.59098 0.50762 0.04709 0.0
H421 H 0.56018 0.41859 0.06334 0.0
N422 N 0.54312 0.47477 0.0492 0.0
C423 C 0.52786 0.42889 0.05941 0.0
C424 C 0.57025 0.4809 0.05006 0.0
C425 C 0.52195 0.44947 0.05446 0.0
C426 C 0.55564 0.43453 0.05945 0.0
C427 C 0.5773 0.4609 0.05503 0.0
O428 O 0.51272 0.49722 0.06832 0.0
O429 O 0.50182 0.51238 0.02197 0.0
O430 O 0.51897 0.55668 0.01069 0.0
O431 O 0.54825 0.55518 0.03492 0.0
O432 O 0.48747 0.48094 0.04206 0.0
O433 O 0.54716 0.5384 0.06463 0.0
O434 O 0.5383 0.53434 0.9627 0.0
O435 O 0.54693 0.52044 0.00824 0.0
O436 O 0.53011 0.47686 0.01939 0.0
O437 O 0.50069 0.47813 0.99513 0.0
O438 O 0.56181 0.55186 0.98811 0.0
O439 O 0.49872 0.49664 0.96456 0.0
C440 C 0.47985 0.49261 0.02909 0.0
C441 C 0.54031 0.51864 0.09636 0.0
C442 C 0.5404 0.52264 0.13233 0.0
C443 C 0.52916 0.52316 0.11376 0.0
C444 C 0.5626 0.5171 0.13324 0.0
C445 C 0.56239 0.51309 0.09762 0.0
C446 C 0.5734 0.51225 0.11598 0.0
C447 C 0.53624 0.56746 0.02579 0.0
C448 C 0.52921 0.5203 0.07697 0.0
C449 C 0.60565 0.46804 0.05602 0.0
C450 C 0.6267 0.49514 0.05299 0.0
C451 C 0.56909 0.53987 1.00106 0.0
C452 C 0.51197 0.51909 0.9335 0.0
C453 C 0.52232 0.51309 0.91632 0.0
C454 C 0.51705 0.5202 0.89742 0.0
C455 C 0.50118 0.53345 0.89621 0.0
C456 C 0.49574 0.53171 0.9318 0.0
C457 C 0.49045 0.53889 0.91326 0.0
C458 C 0.5129 0.46601 1.00425 0.0
C459 C 0.51938 0.51329 0.95309 0.0
H460 H 0.51224 0.52769 0.1128 0.0
H461 H 0.57148 0.51636 0.14734 0.0
H462 H 0.57125 0.5096 0.08445 0.0
H463 H 0.59045 0.50796 0.11683 0.0
H464 H 0.53435 0.50281 0.91779 0.0
H465 H 0.4973 0.54001 0.88212 0.0
H466 H 0.48739 0.53624 0.94478 0.0
H467 H 0.47821 0.54898 0.9121 0.0
Eu468 Eu 0.16323 0.32483 0.32537 0.0
C469 C 0.21552 0.41821 0.3881 0.0
C470 C 0.26518 0.43345 0.38708 0.0
C471 C 0.24943 0.46533 0.39557 0.0
C472 C 0.23702 0.4128 0.38471 0.0
C473 C 0.22142 0.44436 0.39404 0.0
C474 C 0.27128 0.45989 0.39207 0.0
C475 C 0.17159 0.4265 0.39815 0.0
N476 N 0.18872 0.39744 0.38663 0.0
C477 C 0.16681 0.4009 0.39222 0.0
C478 C 0.199 0.44842 0.39882 0.0
Eu479 Eu 0.18222 0.35503 0.37568 0.0
N480 N 0.23037 0.38697 0.38015 0.0
C481 C 0.25072 0.37992 0.37928 0.0
C482 C 0.28628 0.4267 0.38497 0.0
C483 C 0.27898 0.39972 0.38137 0.0
H484 H 0.14557 0.38406 0.39164 0.0
H485 H 0.29509 0.39416 0.38012 0.0
H486 H 0.29279 0.47609 0.39377 0.0
H487 H 0.15414 0.4293 0.40216 0.0
H488 H 0.24537 0.35918 0.3764 0.0
H489 H 0.05158 0.29079 0.31833 0.0
H490 H 0.30817 0.44199 0.3866 0.0
H491 H 0.19732 0.29269 0.311 0.0
H492 H 0.1017 0.32408 0.32247 0.0
H493 H 0.18661 0.24623 0.30178 0.0
H494 H 0.25441 0.48564 0.39993 0.0
H495 H 0.03615 0.24206 0.31358 0.0
H496 H 0.04917 0.20582 0.30848 0.0
H497 H 0.20265 0.46821 0.40346 0.0
H498 H 0.08598 0.1937 0.30376 0.0
N499 N 0.1147 0.29452 0.3206 0.0
C500 C 0.09539 0.30295 0.32033 0.0
C501 C 0.05824 0.25661 0.31539 0.0
C502 C 0.07833 0.24839 0.31438 0.0
C503 C 0.06688 0.2841 0.31799 0.0
C504 C 0.1068 0.26815 0.31688 0.0
H505 H 0.13731 0.20876 0.30079 0.0
N506 N 0.15458 0.28131 0.31547 0.0
C507 C 0.16976 0.25018 0.30531 0.0
C508 C 0.12742 0.26133 0.31419 0.0
C509 C 0.17576 0.27643 0.31044 0.0
C510 C 0.14191 0.22906 0.30483 0.0
C511 C 0.12029 0.23457 0.30899 0.0
O512 O 0.18526 0.33338 0.29691 0.0
O513 O 0.19535 0.35757 0.34416 0.0
O514 O 0.17796 0.38515 0.35627 0.0
O515 O 0.1499 0.35673 0.33087 0.0
O516 O 0.21036 0.34136 0.32355 0.0
O517 O 0.15233 0.34318 0.30108 0.0
O518 O 0.15715 0.34 0.40275 0.0
O519 O 0.15006 0.32225 0.35681 0.0
O520 O 0.16675 0.2948 0.34559 0.0
O521 O 0.19668 0.32425 0.36967 0.0
O522 O 0.13526 0.33905 0.37722 0.0
O523 O 0.19709 0.34155 0.40093 0.0
C524 C 0.21753 0.35968 0.33703 0.0
C525 C 0.1589 0.33154 0.26881 0.0
C526 C 0.15759 0.3388 0.23324 0.0
C527 C 0.16928 0.34859 0.25203 0.0
C528 C 0.13577 0.31169 0.23146 0.0
C529 C 0.13726 0.30454 0.26663 0.0
C530 C 0.12584 0.29469 0.24804 0.0
C531 C 0.16133 0.38002 0.34084 0.0
C532 C 0.16999 0.34226 0.28859 0.0
C533 C 0.09191 0.21446 0.30752 0.0
C534 C 0.07095 0.22136 0.31023 0.0
C535 C 0.12804 0.32082 0.36367 0.0
C536 C 0.18167 0.34674 0.43256 0.0
C537 C 0.17164 0.32843 0.44865 0.0
C538 C 0.17542 0.33822 0.46819 0.0
C539 C 0.18962 0.36644 0.47143 0.0
C540 C 0.19615 0.37484 0.43614 0.0
C541 C 0.20011 0.3846 0.4555 0.0
C542 C 0.18415 0.30035 0.3606 0.0
C543 C 0.17565 0.33639 0.41216 0.0
H544 H 0.18589 0.36953 0.25367 0.0
H545 H 0.12653 0.3036 0.21718 0.0
H546 H 0.12905 0.29115 0.27931 0.0
H547 H 0.10909 0.27383 0.24648 0.0
H548 H 0.16032 0.30668 0.44598 0.0
H549 H 0.19276 0.37442 0.48634 0.0
H550 H 0.20415 0.38921 0.42401 0.0
H551 H 0.21117 0.40631 0.45814 0.0
Eu552 Eu 0.69998 0.83565 0.32713 0.0
C553 C 0.59696 0.79283 0.38425 0.0
C554 C 0.58085 0.82539 0.38138 0.0
C555 C 0.54761 0.77808 0.38919 0.0
C556 C 0.60256 0.81904 0.38041 0.0
C557 C 0.56958 0.77221 0.38924 0.0
C558 C 0.55324 0.80462 0.38524 0.0
C559 C 0.58817 0.74235 0.39593 0.0
N560 N 0.61872 0.78796 0.38445 0.0
C561 C 0.61497 0.76349 0.39091 0.0
C562 C 0.56529 0.7466 0.39481 0.0
Eu563 Eu 0.66334 0.82452 0.37537 0.0
N564 N 0.62953 0.8387 0.37703 0.0
C565 C 0.63655 0.86542 0.37602 0.0
C566 C 0.5877 0.85256 0.37911 0.0
C567 C 0.61574 0.87272 0.37677 0.0
H568 H 0.63258 0.7601 0.3917 0.0
H569 H 0.62134 0.89386 0.37542 0.0
H570 H 0.53623 0.80904 0.38581 0.0
H571 H 0.58516 0.7228 0.4006 0.0
H572 H 0.65812 0.88117 0.37408 0.0
H573 H 0.73743 0.76261 0.32746 0.0
H574 H 0.57163 0.85828 0.37968 0.0
H575 H 0.73333 0.89989 0.31065 0.0
H576 H 0.70222 0.7773 0.32838 0.0
H577 H 0.78161 0.93591 0.30209 0.0
H578 H 0.52636 0.76243 0.39277 0.0
H579 H 0.78776 0.79672 0.32386 0.0
H580 H 0.82486 0.84548 0.3181 0.0
H581 H 0.54456 0.73023 0.39877 0.0
H582 H 0.83693 0.89273 0.31105 0.0
N583 N 0.73225 0.81949 0.32584 0.0
C584 C 0.72405 0.79245 0.32672 0.0
C585 C 0.77238 0.80332 0.32424 0.0
C586 C 0.78046 0.83083 0.32204 0.0
C587 C 0.74398 0.78401 0.32621 0.0
C588 C 0.7596 0.83834 0.32274 0.0
H589 H 0.82084 0.9265 0.30457 0.0
N590 N 0.74543 0.87082 0.31823 0.0
C591 C 0.77765 0.91606 0.30685 0.0
C592 C 0.7664 0.86486 0.31877 0.0
C593 C 0.75038 0.89565 0.31164 0.0
C594 C 0.79975 0.91069 0.30834 0.0
C595 C 0.79422 0.8847 0.31403 0.0
O596 O 0.69327 0.84721 0.29765 0.0
O597 O 0.66386 0.83381 0.34334 0.0
O598 O 0.63468 0.79 0.35534 0.0
O599 O 0.66688 0.79072 0.33237 0.0
O600 O 0.68214 0.8639 0.3222 0.0
O601 O 0.68584 0.80642 0.30295 0.0
O602 O 0.67406 0.81501 0.4042 0.0
O603 O 0.69982 0.82689 0.35921 0.0
O604 O 0.72812 0.87064 0.34712 0.0
O605 O 0.69545 0.86959 0.36982 0.0
O606 O 0.68125 0.79632 0.37999 0.0
O607 O 0.67377 0.85275 0.40007 0.0
C608 C 0.66207 0.85278 0.33501 0.0
C609 C 0.7016 0.82515 0.27114 0.0
C610 C 0.70081 0.82214 0.23513 0.0
C611 C 0.68771 0.82187 0.25313 0.0
C612 C 0.72813 0.82607 0.23539 0.0
C613 C 0.72888 0.82911 0.27111 0.0
C614 C 0.74208 0.82964 0.2533 0.0
C615 C 0.64172 0.77867 0.34099 0.0
C616 C 0.68721 0.82392 0.28979 0.0
C617 C 0.81536 0.8777 0.31442 0.0
C618 C 0.80849 0.8508 0.31844 0.0
C619 C 0.70154 0.80779 0.36738 0.0
C620 C 0.66166 0.83209 0.4317 0.0
C621 C 0.67694 0.8378 0.44929 0.0
C622 C 0.66324 0.83191 0.46783 0.0
C623 C 0.63386 0.82035 0.46832 0.0
C624 C 0.63253 0.82104 0.43256 0.0
C625 C 0.61873 0.81519 0.4508 0.0
C626 C 0.7206 0.88199 0.3612 0.0
C627 C 0.6763 0.83665 0.41265 0.0
H628 H 0.66651 0.81851 0.25317 0.0
H629 H 0.73876 0.82655 0.22174 0.0
H630 H 0.73988 0.8316 0.2848 0.0
H631 H 0.76313 0.8327 0.25339 0.0
H632 H 0.69953 0.84693 0.44842 0.0
H633 H 0.62244 0.81493 0.48221 0.0
H634 H 0.62044 0.81676 0.41921 0.0
H635 H 0.59617 0.80637 0.45134 0.0
Eu636 Eu 0.20093 0.84327 0.37328 0.0
C637 C 0.14733 0.88614 0.31221 0.0
C638 C 0.09772 0.85304 0.3134 0.0
C639 C 0.11313 0.90028 0.30539 0.0
C640 C 0.12594 0.85976 0.3155 0.0
C641 C 0.14121 0.90657 0.3066 0.0
C642 C 0.09142 0.87357 0.30882 0.0
C643 C 0.19094 0.93718 0.30203 0.0
N644 N 0.1742 0.89145 0.31332 0.0
C645 C 0.19594 0.91622 0.30762 0.0
C646 C 0.16347 0.93245 0.30178 0.0
Eu647 Eu 0.18102 0.85523 0.32352 0.0
N648 N 0.13277 0.84036 0.31963 0.0
C649 C 0.11252 0.81353 0.32035 0.0
C650 C 0.07673 0.82575 0.31535 0.0
C651 C 0.08421 0.80587 0.31852 0.0
H652 H 0.2172 0.91998 0.30789 0.0
H653 H 0.06819 0.78464 0.31965 0.0
H654 H 0.06985 0.86885 0.30734 0.0
H655 H 0.20825 0.95695 0.29795 0.0
H656 H 0.11804 0.798 0.32291 0.0
H657 H 0.31301 0.91725 0.37777 0.0
H658 H 0.0548 0.81976 0.31392 0.0
H659 H 0.16712 0.77831 0.38823 0.0
H660 H 0.26281 0.90211 0.37452 0.0
H661 H 0.17798 0.74236 0.39761 0.0
H662 H 0.10799 0.91576 0.3013 0.0
H663 H 0.32837 0.88347 0.38286 0.0
H664 H 0.3153 0.83475 0.38879 0.0
H665 H 0.15964 0.94869 0.29738 0.0
H666 H 0.27854 0.78714 0.39439 0.0
N667 N 0.24963 0.85997 0.37723 0.0
C668 C 0.26907 0.88708 0.37682 0.0
C669 C 0.30623 0.87666 0.38145 0.0
C670 C 0.28608 0.84906 0.38311 0.0
C671 C 0.29764 0.89579 0.37865 0.0
C672 C 0.25755 0.84128 0.38106 0.0
H673 H 0.22728 0.7526 0.39812 0.0
N674 N 0.20976 0.80822 0.3832 0.0
C675 C 0.19476 0.76255 0.3938 0.0
C676 C 0.23695 0.81456 0.38421 0.0
C677 C 0.18869 0.78292 0.38856 0.0
C678 C 0.22261 0.76839 0.39401 0.0
C679 C 0.24416 0.79476 0.38946 0.0
O680 O 0.179 0.83057 0.40175 0.0
O681 O 0.16824 0.84499 0.3551 0.0
O682 O 0.18533 0.88917 0.34318 0.0
O683 O 0.21429 0.88813 0.36792 0.0
O684 O 0.15385 0.81391 0.37548 0.0
O685 O 0.21309 0.87191 0.39777 0.0
O686 O 0.2053 0.8653 0.29609 0.0
O687 O 0.2135 0.85317 0.34172 0.0
O688 O 0.19697 0.80976 0.35319 0.0
O689 O 0.16715 0.81032 0.32899 0.0
O690 O 0.22816 0.88438 0.3214 0.0
O691 O 0.16535 0.828 0.29802 0.0
C692 C 0.14626 0.82536 0.36232 0.0
C693 C 0.20598 0.85301 0.42982 0.0
C694 C 0.20508 0.858 0.46563 0.0
C695 C 0.19401 0.85746 0.4468 0.0
C696 C 0.22797 0.85359 0.46727 0.0
C697 C 0.22868 0.84847 0.43176 0.0
C698 C 0.23954 0.84868 0.45042 0.0
C699 C 0.20248 0.90026 0.35831 0.0
C700 C 0.19513 0.85393 0.41017 0.0
C701 C 0.27256 0.80211 0.39057 0.0
C702 C 0.29349 0.82921 0.38737 0.0
C703 C 0.23558 0.87278 0.33459 0.0
C704 C 0.17967 0.84943 0.26669 0.0
C705 C 0.19039 0.84273 0.25007 0.0
C706 C 0.18611 0.84974 0.23096 0.0
C707 C 0.17078 0.86328 0.22862 0.0
C708 C 0.16399 0.86252 0.26407 0.0
C709 C 0.1596 0.86941 0.24511 0.0
C710 C 0.17968 0.79855 0.33813 0.0
C711 C 0.18639 0.84409 0.28663 0.0
H712 H 0.17661 0.86121 0.44531 0.0
H713 H 0.2368 0.85381 0.48161 0.0
H714 H 0.23814 0.84501 0.41888 0.0
H715 H 0.25711 0.84524 0.45182 0.0
H716 H 0.2026 0.83268 0.25203 0.0
H717 H 0.16721 0.86882 0.21402 0.0
H718 H 0.15539 0.86763 0.27664 0.0
H719 H 0.14762 0.87966 0.24321 0.0
Eu720 Eu 0.82954 0.66018 0.65979 0.0
C721 C 0.8797 0.75299 0.7226 0.0
C722 C 0.92965 0.76955 0.72173 0.0
C723 C 0.91254 0.80039 0.73015 0.0
C724 C 0.90176 0.74834 0.71929 0.0
C725 C 0.88479 0.77888 0.72855 0.0
C726 C 0.93493 0.79574 0.7267 0.0
C727 C 0.83475 0.75973 0.73259 0.0
N728 N 0.85316 0.73174 0.72107 0.0
C729 C 0.83077 0.73442 0.72666 0.0
C730 C 0.86186 0.78216 0.73329 0.0
Eu731 Eu 0.84811 0.68982 0.71028 0.0
N732 N 0.89592 0.72273 0.71477 0.0
C733 C 0.91685 0.71647 0.71394 0.0
C734 C 0.95134 0.7636 0.71968 0.0
C735 C 0.94487 0.73685 0.71608 0.0
H736 H 0.80977 0.71717 0.72606 0.0
H737 H 0.96144 0.73191 0.71487 0.0
H738 H 0.95623 0.81235 0.72846 0.0
H739 H 0.81692 0.76194 0.73658 0.0
H740 H 0.91214 0.69591 0.71105 0.0
H741 H 0.71706 0.62369 0.65496 0.0
H742 H 0.97306 0.77933 0.72136 0.0
H743 H 0.86471 0.63008 0.64353 0.0
H744 H 0.7669 0.65763 0.65907 0.0
H745 H 0.85509 0.58462 0.63247 0.0
H746 H 0.91689 0.82051 0.73451 0.0
H747 H 0.70281 0.57569 0.64801 0.0
H748 H 0.71701 0.54081 0.64057 0.0
H749 H 0.86489 0.80173 0.73793 0.0
H750 H 0.7546 0.53016 0.63433 0.0
N751 N 0.78106 0.62917 0.65513 0.0
C752 C 0.76117 0.63685 0.65601 0.0
C753 C 0.72481 0.59054 0.64983 0.0
C754 C 0.74542 0.58314 0.64769 0.0
C755 C 0.73278 0.61762 0.65369 0.0
C756 C 0.77375 0.60324 0.65031 0.0
H757 H 0.80616 0.54649 0.63089 0.0
N758 N 0.82175 0.6175 0.64845 0.0
C759 C 0.83793 0.58785 0.63655 0.0
C760 C 0.79479 0.59722 0.64685 0.0
C761 C 0.8433 0.61354 0.64274 0.0
C762 C 0.81029 0.56636 0.63574 0.0
C763 C 0.78827 0.57099 0.64062 0.0
O764 O 0.85161 0.67028 0.63126 0.0
O765 O 0.8613 0.69298 0.67874 0.0
O766 O 0.84336 0.7197 0.69099 0.0
O767 O 0.81482 0.69087 0.66602 0.0
O768 O 0.87675 0.67762 0.65775 0.0
O769 O 0.81822 0.6792 0.63622 0.0
O770 O 0.82299 0.67414 0.73726 0.0
O771 O 0.81667 0.65634 0.69144 0.0
O772 O 0.83594 0.63092 0.67901 0.0
O773 O 0.86378 0.66002 0.70416 0.0
O774 O 0.80093 0.67226 0.71191 0.0
O775 O 0.86403 0.678 0.73586 0.0
C776 C 0.88363 0.69559 0.67146 0.0
C777 C 0.82522 0.66946 0.60348 0.0
C778 C 0.82525 0.67835 0.56804 0.0
C779 C 0.83669 0.68702 0.58705 0.0
C780 C 0.80255 0.6518 0.56569 0.0
C781 C 0.80272 0.64301 0.60073 0.0
C782 C 0.79152 0.63424 0.58192 0.0
C783 C 0.8263 0.71427 0.67581 0.0
C784 C 0.83608 0.67921 0.62347 0.0
C785 C 0.76006 0.55053 0.6389 0.0
C786 C 0.73866 0.55659 0.64245 0.0
C787 C 0.79429 0.6539 0.69852 0.0
C788 C 0.84755 0.68296 0.7672 0.0
C789 C 0.83708 0.66513 0.78353 0.0
C790 C 0.84001 0.67548 0.80285 0.0
C791 C 0.85376 0.70378 0.80564 0.0
C792 C 0.86163 0.71116 0.77035 0.0
C793 C 0.86469 0.72147 0.78948 0.0
C794 C 0.85321 0.63684 0.69418 0.0
C795 C 0.84221 0.67201 0.74694 0.0
H796 H 0.85396 0.70755 0.58913 0.0
H797 H 0.79347 0.64457 0.55123 0.0
H798 H 0.79365 0.62924 0.61314 0.0
H799 H 0.77411 0.61381 0.57993 0.0
H800 H 0.8261 0.64331 0.7812 0.0
H801 H 0.85631 0.71219 0.82038 0.0
H802 H 0.87 0.72518 0.75805 0.0
H803 H 0.87543 0.74326 0.79178 0.0
Eu804 Eu 0.36565 0.16971 0.66059 0.0
C805 C 0.26381 0.12763 0.71857 0.0
C806 C 0.24759 0.16008 0.7154 0.0
C807 C 0.21454 0.11296 0.72388 0.0
C808 C 0.26931 0.15374 0.71443 0.0
C809 C 0.23652 0.10712 0.72392 0.0
C810 C 0.22006 0.13939 0.71959 0.0
C811 C 0.25531 0.07751 0.73095 0.0
N812 N 0.28558 0.12279 0.71875 0.0
C813 C 0.282 0.09853 0.72555 0.0
C814 C 0.23238 0.08169 0.72984 0.0
Eu815 Eu 0.33 0.15915 0.70912 0.0
N816 N 0.29621 0.17333 0.71076 0.0
C817 C 0.3032 0.20003 0.70947 0.0
C818 C 0.25438 0.18719 0.71282 0.0
C819 C 0.28238 0.20731 0.71018 0.0
H820 H 0.29966 0.0952 0.72633 0.0
H821 H 0.28793 0.22842 0.7086 0.0
H822 H 0.20305 0.1438 0.72017 0.0
H823 H 0.25243 0.05811 0.7359 0.0
H824 H 0.32474 0.21574 0.70731 0.0
H825 H 0.40326 0.09678 0.66056 0.0
H826 H 0.23831 0.1929 0.71337 0.0
H827 H 0.39882 0.23411 0.64439 0.0
H828 H 0.368 0.11139 0.6618 0.0
H829 H 0.44702 0.27022 0.63573 0.0
H830 H 0.19336 0.0974 0.72772 0.0
H831 H 0.45351 0.13093 0.65651 0.0
H832 H 0.49046 0.17968 0.65055 0.0
H833 H 0.21175 0.06541 0.73409 0.0
H834 H 0.5024 0.22692 0.64365 0.0
N835 N 0.39792 0.15358 0.65898 0.0
C836 C 0.38979 0.12656 0.65995 0.0
C837 C 0.4381 0.1375 0.65702 0.0
C838 C 0.4461 0.16497 0.65479 0.0
C839 C 0.40975 0.11816 0.65925 0.0
C840 C 0.42521 0.17245 0.65567 0.0
H841 H 0.48625 0.26074 0.63765 0.0
N842 N 0.41096 0.20493 0.65148 0.0
C843 C 0.44309 0.2503 0.6403 0.0
C844 C 0.43194 0.19897 0.65176 0.0
C845 C 0.41587 0.22985 0.64514 0.0
C846 C 0.46519 0.2449 0.64147 0.0
C847 C 0.45971 0.21885 0.64694 0.0
O848 O 0.359 0.18111 0.63104 0.0
O849 O 0.32968 0.16795 0.67704 0.0
O850 O 0.30106 0.12409 0.68958 0.0
O851 O 0.33283 0.12484 0.6662 0.0
O852 O 0.34775 0.19794 0.65585 0.0
O853 O 0.35077 0.14011 0.63666 0.0
O854 O 0.34137 0.15015 0.7379 0.0
O855 O 0.36614 0.16128 0.69265 0.0
O856 O 0.39436 0.20437 0.68054 0.0
O857 O 0.36225 0.20414 0.70332 0.0
O858 O 0.34821 0.13115 0.71376 0.0
O859 O 0.34045 0.18757 0.7337 0.0
C860 C 0.32776 0.18686 0.66872 0.0
C861 C 0.36628 0.15809 0.60467 0.0
C862 C 0.3643 0.15302 0.56881 0.0
C863 C 0.35174 0.15365 0.58683 0.0
C864 C 0.39172 0.15722 0.56886 0.0
C865 C 0.39367 0.16237 0.60444 0.0
C866 C 0.40633 0.162 0.5866 0.0
C867 C 0.30789 0.11273 0.67511 0.0
C868 C 0.35235 0.15756 0.62338 0.0
C869 C 0.48087 0.21187 0.6471 0.0
C870 C 0.47408 0.18497 0.65103 0.0
C871 C 0.3682 0.14242 0.7009 0.0
C872 C 0.32902 0.16718 0.76544 0.0
C873 C 0.34445 0.17243 0.78293 0.0
C874 C 0.33081 0.16633 0.80141 0.0
C875 C 0.30158 0.15501 0.80226 0.0
C876 C 0.2999 0.15637 0.76652 0.0
C877 C 0.28626 0.15028 0.78485 0.0
C878 C 0.38739 0.21602 0.69471 0.0
C879 C 0.34342 0.17174 0.74629 0.0
H880 H 0.33045 0.15005 0.58703 0.0
H881 H 0.40191 0.15699 0.55516 0.0
H882 H 0.40518 0.16577 0.618 0.0
H883 H 0.42747 0.16527 0.58653 0.0
H884 H 0.36696 0.18072 0.78216 0.0
H885 H 0.2907 0.15019 0.81637 0.0
H886 H 0.2877 0.15249 0.75325 0.0
H887 H 0.26376 0.14179 0.78556 0.0
Eu888 Eu 0.86801 0.17697 0.70751 0.0
C889 C 0.81043 0.21832 0.64856 0.0
C890 C 0.76127 0.18379 0.6492 0.0
C891 C 0.77489 0.23096 0.64253 0.0
C892 C 0.78977 0.19149 0.65126 0.0
C893 C 0.80327 0.23825 0.64363 0.0
C894 C 0.75391 0.20378 0.64535 0.0
C895 C 0.85268 0.27046 0.63935 0.0
N896 N 0.83762 0.22459 0.64948 0.0
C897 C 0.85872 0.24995 0.64426 0.0
C898 C 0.82485 0.26469 0.6393 0.0
Eu899 Eu 0.8462 0.18904 0.65849 0.0
N900 N 0.79762 0.17265 0.65468 0.0
C901 C 0.7782 0.14554 0.6546 0.0
C902 C 0.74109 0.15614 0.65041 0.0
C903 C 0.74965 0.1369 0.65279 0.0
H904 H 0.88026 0.25453 0.64439 0.0
H905 H 0.73427 0.11542 0.65331 0.0
H906 H 0.73211 0.1983 0.64393 0.0
H907 H 0.86948 0.29069 0.63566 0.0
H908 H 0.78456 0.1305 0.65653 0.0
H909 H 0.97904 0.25412 0.71272 0.0
H910 H 0.71897 0.14939 0.64899 0.0
H911 H 0.83669 0.11155 0.7213 0.0
H912 H 0.92847 0.23714 0.7096 0.0
H913 H 0.84957 0.07668 0.72957 0.0
H914 H 0.76895 0.24604 0.63897 0.0
H915 H 0.99643 0.22172 0.71671 0.0
H916 H 0.98549 0.1734 0.7214 0.0
H917 H 0.82023 0.28058 0.63543 0.0
H918 H 0.95022 0.12507 0.72619 0.0
N919 N 0.91703 0.19534 0.71134 0.0
C920 C 0.93559 0.22268 0.71143 0.0
C921 C 0.97412 0.2141 0.71537 0.0
C922 C 0.95488 0.1862 0.71651 0.0
C923 C 0.96438 0.23245 0.71319 0.0
C924 C 0.92607 0.17737 0.7146 0.0
H925 H 0.89949 0.08891 0.72968 0.0
N926 N 0.87883 0.1429 0.7165 0.0
C927 C 0.86574 0.09728 0.72608 0.0
C928 C 0.90632 0.15026 0.7173 0.0
C929 C 0.85853 0.11706 0.72146 0.0
C930 C 0.89394 0.10424 0.72606 0.0
C931 C 0.91468 0.1311 0.72194 0.0
O932 O 0.84661 0.16296 0.73607 0.0
O933 O 0.83388 0.17738 0.69005 0.0
O934 O 0.8489 0.2215 0.67917 0.0
O935 O 0.87977 0.22145 0.70269 0.0
O936 O 0.82161 0.14566 0.70982 0.0
O937 O 0.87893 0.20508 0.73226 0.0
O938 O 0.86948 0.20101 0.63059 0.0
O939 O 0.87982 0.18804 0.676 0.0
O940 O 0.86539 0.14478 0.68657 0.0
O941 O 0.83415 0.14446 0.66319 0.0
O942 O 0.89308 0.21944 0.65597 0.0
O943 O 0.83158 0.16185 0.63293 0.0
C944 C 0.81278 0.15662 0.69715 0.0
C945 C 0.87321 0.186 0.76412 0.0
C946 C 0.87292 0.19125 0.79994 0.0
C947 C 0.86132 0.19024 0.78123 0.0
C948 C 0.8963 0.18756 0.80132 0.0
C949 C 0.89639 0.18217 0.7658 0.0
C950 C 0.90781 0.18288 0.78434 0.0
C951 C 0.86665 0.23291 0.69395 0.0
C952 C 0.86175 0.18644 0.74462 0.0
C953 C 0.94337 0.13953 0.72286 0.0
C954 C 0.96344 0.16704 0.72013 0.0
C955 C 0.90137 0.20821 0.66885 0.0
C956 C 0.84308 0.18349 0.60159 0.0
C957 C 0.85214 0.17582 0.58455 0.0
C958 C 0.84574 0.18138 0.5655 0.0
C959 C 0.82999 0.19472 0.56399 0.0
C960 C 0.82703 0.19626 0.59963 0.0
C961 C 0.82056 0.20185 0.58093 0.0
C962 C 0.84774 0.13332 0.67173 0.0
C963 C 0.85151 0.17913 0.62126 0.0
H964 H 0.84354 0.19344 0.77993 0.0
H965 H 0.90555 0.18815 0.81556 0.0
H966 H 0.90579 0.17886 0.75281 0.0
H967 H 0.92576 0.17999 0.78554 0.0
H968 H 0.8641 0.16549 0.58625 0.0
H969 H 0.82527 0.20014 0.54973 0.0
H970 H 0.81976 0.20217 0.61252 0.0
H971 H 0.80845 0.21204 0.57954 0.0
H972 H 0.33295 0.83875 0.0828 0.0
H973 H 0.28396 0.85634 0.04207 0.0
H974 H 0.37611 0.87668 0.06913 0.0
H975 H 0.32727 0.89483 0.02851 0.0
H976 H 0.40933 0.98212 0.03857 0.0
H977 H 0.36451 0.94053 0.04487 0.0
H978 H 0.40461 0.89244 0.0364 0.0
H979 H 0.44928 0.93396 0.03001 0.0
C980 C 0.33157 0.85062 0.07073 0.0
C981 C 0.30535 0.84477 0.06341 0.0
C982 C 0.35619 0.87219 0.06285 0.0
C983 C 0.35501 0.88865 0.04774 0.0
C984 C 0.32872 0.88247 0.04017 0.0
C985 C 0.30405 0.86051 0.04784 0.0
C986 C 0.40834 0.96258 0.03766 0.0
C987 C 0.4326 0.96119 0.03349 0.0
C988 C 0.38273 0.93882 0.04116 0.0
C989 C 0.38111 0.91328 0.04111 0.0
C990 C 0.4053 0.91187 0.03655 0.0
C991 C 0.4308 0.93561 0.03275 0.0
H992 H 0.16191 0.42594 0.0461 0.0
H993 H 0.18996 0.4976 0.08195 0.0
H994 H 0.1222 0.43057 0.03451 0.0
H995 H 0.15051 0.50243 0.07045 0.0
H996 H 0.08787 0.51469 0.0339 0.0
H997 H 0.12993 0.51187 0.04066 0.0
H998 H 0.07852 0.42538 0.0508 0.0
H999 H 0.03642 0.42832 0.04387 0.0
C1000 C 0.15982 0.44297 0.05116 0.0
C1001 C 0.17903 0.46159 0.06473 0.0
C1002 C 0.13701 0.44551 0.0447 0.0
C1003 C 0.13311 0.46683 0.05161 0.0
C1004 C 0.15301 0.48596 0.06467 0.0
C1005 C 0.17559 0.48323 0.07127 0.0
C1006 C 0.08559 0.49502 0.03721 0.0
C1007 C 0.05891 0.47158 0.03782 0.0
C1008 C 0.10968 0.49344 0.04129 0.0
C1009 C 0.10766 0.46836 0.04615 0.0
C1010 C 0.0809 0.44492 0.04677 0.0
C1011 C 0.05679 0.4466 0.04292 0.0
H1012 H 0.56662 0.73319 0.04217 0.0
H1013 H 0.56048 0.70029 0.10091 0.0
H1014 H 0.55866 0.69023 0.02796 0.0
H1015 H 0.55336 0.65792 0.08671 0.0
H1016 H 0.57376 0.59912 0.05417 0.0
H1017 H 0.58191 0.64268 0.06692 0.0
H1018 H 0.52006 0.64053 0.02676 0.0
H1019 H 0.51141 0.59677 0.01425 0.0
C1020 C 0.56341 0.71681 0.05205 0.0
C1021 C 0.56451 0.72035 0.07269 0.0
C1022 C 0.55896 0.69227 0.04391 0.0
C1023 C 0.55575 0.67088 0.05624 0.0
C1024 C 0.55637 0.67426 0.07684 0.0
C1025 C 0.56052 0.69859 0.08496 0.0
C1026 C 0.56193 0.60791 0.04798 0.0
C1027 C 0.5421 0.59447 0.03302 0.0
C1028 C 0.56657 0.63285 0.05533 0.0
C1029 C 0.55163 0.645 0.04781 0.0
C1030 C 0.53214 0.63182 0.03266 0.0
C1031 C 0.52726 0.60674 0.02546 0.0
H1032 H 0.83686 0.27509 0.99558 0.0
H1033 H 0.85594 0.31148 0.93716 0.0
H1034 H 0.87304 0.31833 0.00946 0.0
H1035 H 0.89277 0.35379 0.95098 0.0
H1036 H 0.97734 0.41134 0.98101 0.0
H1037 H 0.94042 0.3673 0.96927 0.0
H1038 H 0.88225 0.36978 0.01103 0.0
H1039 H 0.91873 0.41436 0.02233 0.0
C1040 C 0.84858 0.29218 0.98569 0.0
C1041 C 0.84359 0.28951 0.96516 0.0
C1042 C 0.86938 0.31687 0.99365 0.0
C1043 C 0.88588 0.3392 0.98123 0.0
C1044 C 0.88069 0.3367 0.96083 0.0
C1045 C 0.85965 0.31232 0.95293 0.0
C1046 C 0.95677 0.40256 0.98781 0.0
C1047 C 0.95119 0.41643 1.0028 0.0
C1048 C 0.93563 0.37732 0.98104 0.0
C1049 C 0.90856 0.36517 0.9893 0.0
C1050 C 0.90305 0.3786 1.00458 0.0
C1051 C 0.92404 0.40411 0.0111 0.0
H1052 H 0.74552 0.58243 0.98918 0.0
H1053 H 0.69748 0.51154 0.95314 0.0
H1054 H 0.70192 0.5786 1.00219 0.0
H1055 H 0.65389 0.50756 0.96599 0.0
H1056 H 0.57932 0.49713 1.00218 0.0
H1057 H 0.62371 0.49845 0.99563 0.0
H1058 H 0.6646 0.5856 0.9877 0.0
H1059 H 0.62018 0.58419 0.99448 0.0
C1060 C 0.72557 0.56571 0.9844 0.0
C1061 C 0.72473 0.5471 0.97035 0.0
C1062 C 0.70063 0.56362 0.99168 0.0
C1063 C 0.67434 0.54281 0.98511 0.0
C1064 C 0.67368 0.52363 0.97158 0.0
C1065 C 0.6986 0.52588 0.96419 0.0
C1066 C 0.59789 0.51662 0.99947 0.0
C1067 C 0.59638 0.54065 0.99923 0.0
C1068 C 0.62331 0.51736 0.99551 0.0
C1069 C 0.64781 0.54214 0.99115 0.0
C1070 C 0.64631 0.56621 0.99129 0.0
C1071 C 0.62085 0.56542 0.99506 0.0
H1072 H 0.41982 0.14208 0.96536 0.0
H1073 H 0.5086 0.19872 0.96993 0.0
H1074 H 0.4265 0.10646 0.98013 0.0
H1075 H 0.51551 0.16303 0.98428 0.0
H1076 H 0.51691 0.09861 0.02286 0.0
H1077 H 0.5076 0.13432 0.01227 0.0
H1078 H 0.446 0.07873 0.97091 0.0
H1079 H 0.45429 0.04265 0.98219 0.0
C1080 C 0.44077 0.14689 0.96955 0.0
C1081 C 0.4637 0.17314 0.96643 0.0
C1082 C 0.44464 0.12646 0.97794 0.0
C1083 C 0.47158 0.13175 0.98325 0.0
C1084 C 0.49441 0.15827 0.98062 0.0
C1085 C 0.49048 0.17876 0.97237 0.0
C1086 C 0.50098 0.0938 0.01179 0.0
C1087 C 0.48614 0.0676 1.00356 0.0
C1088 C 0.4959 0.11444 1.00552 0.0
C1089 C 0.47604 0.10948 0.99072 0.0
C1090 C 0.46109 0.08321 0.98258 0.0
C1091 C 0.46603 0.06252 0.98895 0.0
H1092 H 0.67005 0.1707 0.94812 0.0
H1093 H 0.72242 0.15974 0.99018 0.0
H1094 H 0.62834 0.13282 0.96331 0.0
H1095 H 0.68057 0.12123 1.0051 0.0
H1096 H 0.59942 0.03116 0.99719 0.0
H1097 H 0.64338 0.07304 0.98944 0.0
H1098 H 0.60199 0.1199 0.99808 0.0
H1099 H 0.55826 0.07816 0.00608 0.0
C1100 C 0.67257 0.1603 0.96073 0.0
C1101 C 0.69938 0.16815 0.968 0.0
C1102 C 0.64873 0.13875 0.96948 0.0
C1103 C 0.65127 0.1242 0.98541 0.0
C1104 C 0.67809 0.13218 0.99285 0.0
C1105 C 0.70196 0.1542 0.98435 0.0
C1106 C 0.59998 0.05052 0.99787 0.0
C1107 C 0.57559 0.05148 1.00248 0.0
C1108 C 0.62508 0.07443 0.99353 0.0
C1109 C 0.62602 0.09965 0.99315 0.0
C1110 C 0.6018 0.1007 0.99827 0.0
C1111 C 0.57683 0.07684 1.00297 0.0
H1112 H 0.87501 0.5401 0.9365 0.0
H1113 H 0.83631 0.52088 0.99439 0.0
H1114 H 0.91497 0.53749 0.94943 0.0
H1115 H 0.87632 0.51735 0.00728 0.0
H1116 H 0.94033 0.47922 1.00405 0.0
H1117 H 0.89916 0.48344 0.99605 0.0
H1118 H 0.95361 0.56682 0.97816 0.0
H1119 H 0.99465 0.56297 0.9869 0.0
C1120 C 0.87507 0.53528 0.95202 0.0
C1121 C 0.85262 0.53083 0.96444 0.0
C1122 C 0.89796 0.53385 0.95941 0.0
C1123 C 0.89874 0.52728 0.97933 0.0
C1124 C 0.87617 0.52245 0.99184 0.0
C1125 C 0.85341 0.52457 0.9845 0.0
C1126 C 0.94346 0.49866 0.99897 0.0
C1127 C 0.97071 0.52101 0.99659 0.0
C1128 C 0.91991 0.50103 0.99434 0.0
C1129 C 0.92324 0.52552 0.98664 0.0
C1130 C 0.95047 0.54778 0.98421 0.0
C1131 C 0.97391 0.54556 0.98917 0.0
H1132 H 0.4915 0.30401 0.98722 0.0
H1133 H 0.49381 0.335 0.92841 0.0
H1134 H 0.49595 0.34568 1.00135 0.0
H1135 H 0.49833 0.37667 0.94251 0.0
H1136 H 0.47613 0.43413 0.97551 0.0
H1137 H 0.46968 0.39128 0.96236 0.0
H1138 H 0.53222 0.39511 1.00265 0.0
H1139 H 0.53902 0.43794 0.01559 0.0
C1140 C 0.49302 0.31974 0.97733 0.0
C1141 C 0.49235 0.31636 0.95671 0.0
C1142 C 0.49563 0.34361 0.98541 0.0
C1143 C 0.49735 0.36437 0.97303 0.0
C1144 C 0.49666 0.36088 0.95242 0.0
C1145 C 0.49429 0.33716 0.94436 0.0
C1146 C 0.48842 0.42579 0.98164 0.0
C1147 C 0.50787 0.43939 0.99678 0.0
C1148 C 0.48479 0.4013 0.97405 0.0
C1149 C 0.50041 0.38983 0.98152 0.0
C1150 C 0.51958 0.40323 0.9968 0.0
C1151 C 0.5234 0.4278 1.00425 0.0
H1152 H 0.19777 0.67572 0.08503 0.0
H1153 H 0.17323 0.72028 0.04585 0.0
H1154 H 0.15975 0.63273 0.07222 0.0
H1155 H 0.13452 0.67709 0.03346 0.0
H1156 H 0.04995 0.58872 0.04228 0.0
H1157 H 0.08801 0.63344 0.05282 0.0
H1158 H 0.14899 0.61113 0.03449 0.0
H1159 H 0.11138 0.56694 0.02356 0.0
C1160 C 0.18423 0.67626 0.07366 0.0
C1161 C 0.18853 0.70122 0.06629 0.0
C1162 C 0.16255 0.65174 0.06636 0.0
C1163 C 0.1443 0.65172 0.05192 0.0
C1164 C 0.14834 0.67667 0.04466 0.0
C1165 C 0.17052 0.70128 0.05163 0.0
C1166 C 0.07149 0.59346 0.0404 0.0
C1167 C 0.07765 0.5743 0.03211 0.0
C1168 C 0.09318 0.61903 0.04633 0.0
C1169 C 0.1213 0.62557 0.04445 0.0
C1170 C 0.12744 0.60649 0.03611 0.0
C1171 C 0.10588 0.58124 0.02983 0.0
H1172 H 0.30353 0.45253 0.04105 0.0
H1173 H 0.35229 0.51276 0.08493 0.0
H1174 H 0.34683 0.45662 0.02705 0.0
H1175 H 0.39539 0.51734 0.07071 0.0
H1176 H 0.46898 0.53487 0.02957 0.0
H1177 H 0.42437 0.53258 0.03758 0.0
H1178 H 0.38421 0.44511 0.04207 0.0
H1179 H 0.42896 0.44748 0.03437 0.0
C1180 C 0.32349 0.46693 0.04749 0.0
C1181 C 0.32456 0.48236 0.06408 0.0
C1182 C 0.34823 0.4692 0.03953 0.0
C1183 C 0.37452 0.48739 0.04773 0.0
C1184 C 0.37552 0.50338 0.06392 0.0
C1185 C 0.35084 0.50066 0.07212 0.0
C1186 C 0.45051 0.51513 0.03185 0.0
C1187 C 0.45234 0.49129 0.03108 0.0
C1188 C 0.42502 0.51383 0.03656 0.0
C1189 C 0.40076 0.48865 0.04043 0.0
C1190 C 0.40243 0.46476 0.03896 0.0
C1191 C 0.42803 0.46612 0.03463 0.0
H1192 H 0.5399 0.85827 0.10383 0.0
H1193 H 0.5403 0.82605 0.04605 0.0
H1194 H 0.53314 0.89362 0.08862 0.0
H1195 H 0.53363 0.86162 0.03074 0.0
H1196 H 0.55434 0.97055 0.05465 0.0
H1197 H 0.56137 0.93447 0.06776 0.0
H1198 H 0.49754 0.8767 0.02874 0.0
H1199 H 0.49022 0.91282 0.01561 0.0
C1200 C 0.53849 0.85876 0.08786 0.0
C1201 C 0.54071 0.83952 0.07614 0.0
C1202 C 0.5348 0.87908 0.07914 0.0
C1203 C 0.5331 0.88054 0.05847 0.0
C1204 C 0.53476 0.86093 0.04671 0.0
C1205 C 0.53867 0.84065 0.05547 0.0
C1206 C 0.54184 0.95023 0.04874 0.0
C1207 C 0.5217 0.94467 0.03402 0.0
C1208 C 0.54582 0.92951 0.05634 0.0
C1209 C 0.52987 0.9027 0.04939 0.0
C1210 C 0.51029 0.8972 0.03428 0.0
C1211 C 0.50614 0.91794 0.02675 0.0
H1212 H 0.98308 0.15707 0.38222 0.0
H1213 H 0.96573 0.2151 0.4111 0.0
H1214 H 0.02475 0.19447 0.36692 0.0
H1215 H 1.00838 0.25199 0.39772 0.0
H1216 H 0.0779 0.3184 0.36543 0.0
H1217 H 0.03219 0.2787 0.37175 0.0
H1218 H 0.07045 0.22798 0.37274 0.0
H1219 H 0.11568 0.26767 0.36477 0.0
C1220 C 0.98805 0.17772 0.38535 0.0
C1221 C 0.97101 0.18284 0.39823 0.0
C1222 C 0.0123 0.19929 0.37677 0.0
C1223 C 0.02038 0.22658 0.38102 0.0
C1224 C 1.00296 0.23151 0.39361 0.0
C1225 C 0.97856 0.21009 0.40179 0.0
C1226 C 0.07627 0.29859 0.36656 0.0
C1227 C 0.10017 0.29603 0.36446 0.0
C1228 C 0.05012 0.27577 0.37047 0.0
C1229 C 0.04739 0.24991 0.37338 0.0
C1230 C 0.07135 0.24731 0.3705 0.0
C1231 C 0.09743 0.27011 0.36598 0.0
H1232 H 0.85255 0.82965 0.42097 0.0
H1233 H 0.83701 0.76886 0.37691 0.0
H1234 H 0.81352 0.83423 0.40818 0.0
H1235 H 0.79733 0.77294 0.36431 0.0
H1236 H 0.70631 0.76316 0.37436 0.0
H1237 H 0.74899 0.76137 0.38164 0.0
H1238 H 0.79823 0.84868 0.37542 0.0
H1239 H 0.75561 0.85039 0.36782 0.0
C1240 C 0.84093 0.81752 0.40838 0.0
C1241 C 0.84778 0.79897 0.39988 0.0
C1242 C 0.81867 0.82019 0.40102 0.0
C1243 C 0.80236 0.80391 0.38527 0.0
C1244 C 0.80952 0.78567 0.37651 0.0
C1245 C 0.83224 0.78344 0.38361 0.0
C1246 C 0.72634 0.78189 0.37426 0.0
C1247 C 0.72773 0.80682 0.37012 0.0
C1248 C 0.75074 0.78086 0.37833 0.0
C1249 C 0.77696 0.80487 0.37899 0.0
C1250 C 0.77832 0.82986 0.37496 0.0
C1251 C 0.75397 0.83082 0.3705 0.0
H1252 H 0.27762 0.06654 0.40242 0.0
H1253 H 0.18928 0.03916 0.39788 0.0
H1254 H 0.2698 0.02394 0.38795 0.0
H1255 H 0.18116 0.99619 0.3839 0.0
H1256 H 0.17797 0.92937 0.34573 0.0
H1257 H 0.18807 0.97427 0.35627 0.0
H1258 H 0.24953 0.97737 0.39739 0.0
H1259 H 0.24051 0.93303 0.38605 0.0
C1260 C 0.25652 0.05137 0.39826 0.0
C1261 C 0.23403 0.05607 0.40133 0.0
C1262 C 0.25198 0.0269 0.39008 0.0
C1263 C 0.2248 0.00644 0.38494 0.0
C1264 C 0.20243 0.01156 0.38745 0.0
C1265 C 0.20703 0.03617 0.39548 0.0
C1266 C 0.19403 0.93979 0.35674 0.0
C1267 C 0.20871 0.92767 0.36481 0.0
C1268 C 0.19956 0.96546 0.363 0.0
C1269 C 0.21965 0.97955 0.37768 0.0
C1270 C 0.23428 0.96738 0.38579 0.0
C1271 C 0.22892 0.94179 0.3794 0.0
H1272 H 0.52794 0.64262 0.26875 0.0
H1273 H 0.50551 0.61029 0.32822 0.0
H1274 H 0.56471 0.68556 0.28186 0.0
H1275 H 0.54168 0.65404 0.34129 0.0
H1276 H 0.58675 0.74877 0.35275 0.0
H1277 H 0.55117 0.70406 0.34131 0.0
H1278 H 0.61118 0.70212 0.30103 0.0
H1279 H 0.64733 0.74656 0.31299 0.0
C1280 C 0.53092 0.64447 0.28461 0.0
C1281 C 0.51382 0.62264 0.29737 0.0
C1282 C 0.55198 0.66921 0.2921 0.0
C1283 C 0.5562 0.67305 0.31256 0.0
C1284 C 0.53881 0.65162 0.32543 0.0
C1285 C 0.51797 0.62661 0.31792 0.0
C1286 C 0.59269 0.73865 0.34182 0.0
C1287 C 0.62017 0.75121 0.33409 0.0
C1288 C 0.57217 0.71302 0.3352 0.0
C1289 C 0.57842 0.69958 0.32035 0.0
C1290 C 0.60578 0.71209 0.31248 0.0
C1291 C 0.62648 0.73754 0.31936 0.0
H1292 H 0.36518 0.85472 0.27963 0.0
H1293 H 0.41107 0.90985 0.32694 0.0
H1294 H 0.32129 0.84977 0.29287 0.0
H1295 H 0.36715 0.90555 0.3399 0.0
H1296 H 0.28666 0.91769 0.32953 0.0
H1297 H 0.33142 0.91971 0.32245 0.0
H1298 H 0.29064 0.83223 0.32694 0.0
H1299 H 0.24606 0.83027 0.3345 0.0
C1300 C 0.36578 0.8656 0.29295 0.0
C1301 C 0.39146 0.88263 0.30229 0.0
C1302 C 0.34071 0.86269 0.30057 0.0
C1303 C 0.34084 0.87726 0.31741 0.0
C1304 C 0.36648 0.8941 0.3269 0.0
C1305 C 0.39153 0.89649 0.31954 0.0
C1306 C 0.28744 0.89898 0.32941 0.0
C1307 C 0.263 0.8739 0.33289 0.0
C1308 C 0.31302 0.90013 0.32542 0.0
C1309 C 0.31449 0.87613 0.32416 0.0
C1310 C 0.2901 0.85103 0.32785 0.0
C1311 C 0.26463 0.84994 0.3323 0.0
H1312 H 0.08875 0.47544 0.29537 0.0
H1313 H 0.17727 0.53263 0.3009 0.0
H1314 H 0.09565 0.43976 0.30978 0.0
H1315 H 0.18436 0.49692 0.31499 0.0
H1316 H 0.18509 0.4325 0.35409 0.0
H1317 H 0.17577 0.46802 0.34307 0.0
H1318 H 0.11606 0.41255 0.30071 0.0
H1319 H 0.12442 0.37661 0.31236 0.0
C1320 C 0.10969 0.48036 0.29967 0.0
C1321 C 0.13248 0.50681 0.29695 0.0
C1322 C 0.11368 0.4599 0.30787 0.0
C1323 C 0.1406 0.46537 0.31343 0.0
C1324 C 0.16328 0.49203 0.31113 0.0
C1325 C 0.15925 0.51253 0.30304 0.0
C1326 C 0.16961 0.42767 0.34267 0.0
C1327 C 0.1553 0.40153 0.33429 0.0
C1328 C 0.16451 0.4482 0.33617 0.0
C1329 C 0.14516 0.44321 0.32098 0.0
C1330 C 0.13077 0.41703 0.31266 0.0
C1331 C 0.13575 0.39643 0.31924 0.0
H1332 H 0.39117 0.49484 0.32391 0.0
H1333 H 0.33941 0.50326 0.27988 0.0
H1334 H 0.34921 0.45646 0.33886 0.0
H1335 H 0.29758 0.46555 0.29511 0.0
H1336 H 0.22677 0.4118 0.33802 0.0
H1337 H 0.2704 0.45359 0.32988 0.0
H1338 H 0.3128 0.40735 0.32335 0.0
H1339 H 0.26894 0.36539 0.33118 0.0
C1340 C 0.37081 0.4888 0.31765 0.0
C1341 C 0.36846 0.50199 0.30074 0.0
C1342 C 0.34688 0.46684 0.32617 0.0
C1343 C 0.32019 0.45818 0.31819 0.0
C1344 C 0.31785 0.472 0.30169 0.0
C1345 C 0.34177 0.49347 0.29293 0.0
C1346 C 0.24553 0.41063 0.33533 0.0
C1347 C 0.24459 0.38539 0.33544 0.0
C1348 C 0.27044 0.43452 0.33055 0.0
C1349 C 0.29493 0.43366 0.32599 0.0
C1350 C 0.29429 0.4086 0.32699 0.0
C1351 C 0.26924 0.38464 0.33139 0.0
H1352 H 0.50842 0.82797 0.28451 0.0
H1353 H 0.52678 0.89235 0.3261 0.0
H1354 H 0.54844 0.82476 0.29657 0.0
H1355 H 0.56741 0.88946 0.33801 0.0
H1356 H 0.65744 0.89756 0.32813 0.0
H1357 H 0.61469 0.89946 0.32131 0.0
H1358 H 0.56534 0.81222 0.3282 0.0
H1359 H 0.60798 0.81041 0.33513 0.0
C1360 C 0.52091 0.84126 0.29639 0.0
C1361 C 0.51443 0.86033 0.30439 0.0
C1362 C 0.54376 0.83935 0.30334 0.0
C1363 C 0.56108 0.85684 0.31824 0.0
C1364 C 0.55447 0.87579 0.32646 0.0
C1365 C 0.53117 0.87734 0.31973 0.0
C1366 C 0.63737 0.87888 0.32845 0.0
C1367 C 0.63596 0.85393 0.33255 0.0
C1368 C 0.61292 0.87997 0.32466 0.0
C1369 C 0.58664 0.85601 0.32431 0.0
C1370 C 0.58528 0.83103 0.32838 0.0
C1371 C 0.60967 0.83 0.33248 0.0
H1372 H 0.15989 0.63714 0.31976 0.0
H1373 H 0.16295 0.6696 0.26137 0.0
H1374 H 0.16404 0.67842 0.33445 0.0
H1375 H 0.16717 0.71084 0.27601 0.0
H1376 H 0.20582 0.77056 0.34981 0.0
H1377 H 0.19975 0.72808 0.33658 0.0
H1378 H 0.13768 0.72428 0.29584 0.0
H1379 H 0.14342 0.7667 0.30921 0.0
C1380 C 0.16153 0.65312 0.31008 0.0
C1381 C 0.1611 0.65024 0.28942 0.0
C1382 C 0.16398 0.67675 0.31848 0.0
C1383 C 0.16576 0.69778 0.30637 0.0
C1384 C 0.16542 0.69483 0.28572 0.0
C1385 C 0.16322 0.67135 0.27734 0.0
C1386 C 0.19047 0.76048 0.3383 0.0
C1387 C 0.17492 0.77199 0.33073 0.0
C1388 C 0.18706 0.73613 0.33069 0.0
C1389 C 0.16828 0.72287 0.31516 0.0
C1390 C 0.15253 0.7342 0.30769 0.0
C1391 C 0.15575 0.75845 0.31541 0.0
H1392 H 0.86988 0.03728 0.39128 0.0
H1393 H 0.80078 0.0528 0.39401 0.0
H1394 H 0.83747 0.98984 0.38277 0.0
H1395 H 0.76852 0.00598 0.38452 0.0
H1396 H 0.71244 0.91503 0.3867 0.0
H1397 H 0.74589 0.96142 0.39623 0.0
H1398 H 0.80863 0.95982 0.3584 0.0
H1399 H 0.7758 0.91281 0.35009 0.0
C1400 C 0.8478 0.03061 0.38976 0.0
C1401 C 0.83779 0.04868 0.39328 0.0
C1402 C 0.82916 0.00341 0.3848 0.0
C1403 C 0.80016 0.9938 0.38301 0.0
C1404 C 0.79047 0.01226 0.38619 0.0
C1405 C 0.80901 0.03923 0.39143 0.0
C1406 C 0.7334 0.9245 0.38047 0.0
C1407 C 0.74114 0.91025 0.36726 0.0
C1408 C 0.75261 0.95132 0.3858 0.0
C1409 C 0.78003 0.96477 0.3779 0.0
C1410 C 0.78787 0.95028 0.36494 0.0
C1411 C 0.76878 0.92333 0.35986 0.0
H1412 H 0.97035 0.78613 0.37558 0.0
H1413 H 0.02098 0.85053 0.41629 0.0
H1414 H 0.01304 0.78898 0.3615 0.0
H1415 H 0.06343 0.85378 0.40205 0.0
H1416 H 0.13562 0.86775 0.36143 0.0
H1417 H 0.09131 0.8661 0.36917 0.0
H1418 H 0.05087 0.77889 0.37622 0.0
H1419 H 0.09534 0.78062 0.36863 0.0
C1420 C 0.99058 0.80114 0.3813 0.0
C1421 C 0.99237 0.81815 0.39703 0.0
C1422 C 0.01498 0.80271 0.37331 0.0
C1423 C 0.04162 0.82169 0.38061 0.0
C1424 C 0.0433 0.83917 0.39593 0.0
C1425 C 0.01898 0.83723 0.40415 0.0
C1426 C 0.11716 0.84818 0.3642 0.0
C1427 C 0.11884 0.82425 0.36418 0.0
C1428 C 0.09182 0.84725 0.36877 0.0
C1429 C 0.06758 0.82236 0.37332 0.0
C1430 C 0.06907 0.79833 0.37258 0.0
C1431 C 0.09452 0.79932 0.36832 0.0
H1432 H 0.20909 0.16096 0.37951 0.0
H1433 H 0.20786 0.19195 0.43762 0.0
H1434 H 0.20245 0.1967 0.36456 0.0
H1435 H 0.20113 0.22753 0.42273 0.0
H1436 H 0.22172 0.3048 0.38876 0.0
H1437 H 0.22892 0.26887 0.40213 0.0
H1438 H 0.1659 0.21089 0.36275 0.0
H1439 H 0.1584 0.24675 0.34943 0.0
C1440 C 0.20731 0.17535 0.38908 0.0
C1441 C 0.20905 0.17378 0.40974 0.0
C1442 C 0.20342 0.19572 0.38052 0.0
C1443 C 0.20145 0.21501 0.39247 0.0
C1444 C 0.20299 0.21322 0.41312 0.0
C1445 C 0.20666 0.19277 0.42165 0.0
C1446 C 0.20944 0.28445 0.38285 0.0
C1447 C 0.18957 0.27876 0.36791 0.0
C1448 C 0.2135 0.26383 0.39059 0.0
C1449 C 0.1979 0.23705 0.38354 0.0
C1450 C 0.17844 0.2314 0.36833 0.0
C1451 C 0.17419 0.252 0.36068 0.0
H1452 H 0.6187 0.52811 0.71491 0.0
H1453 H 0.66862 0.49923 0.74374 0.0
H1454 H 0.66117 0.56586 0.70019 0.0
H1455 H 0.71126 0.53722 0.7296 0.0
H1456 H 0.78385 0.60147 0.69447 0.0
H1457 H 0.73948 0.55951 0.70061 0.0
H1458 H 0.6996 0.60706 0.71304 0.0
H1459 H 0.7437 0.64872 0.70628 0.0
C1460 C 0.63882 0.52971 0.71779 0.0
C1461 C 0.64058 0.51088 0.7303 0.0
C1462 C 0.66314 0.55138 0.70953 0.0
C1463 C 0.68973 0.55476 0.7138 0.0
C1464 C 0.69119 0.53512 0.72575 0.0
C1465 C 0.66685 0.51343 0.73393 0.0
C1466 C 0.7654 0.60283 0.69801 0.0
C1467 C 0.76706 0.6283 0.6996 0.0
C1468 C 0.74003 0.57883 0.70175 0.0
C1469 C 0.71589 0.57982 0.70739 0.0
C1470 C 0.71755 0.60538 0.70843 0.0
C1471 C 0.74286 0.6293 0.7047 0.0
H1472 H 0.50237 0.10193 0.71027 0.0
H1473 H 0.52166 0.16611 0.75214 0.0
H1474 H 0.46308 0.10656 0.69767 0.0
H1475 H 0.48288 0.17118 0.73938 0.0
H1476 H 0.42228 0.18519 0.7007 0.0
H1477 H 0.46518 0.18378 0.70772 0.0
H1478 H 0.41632 0.09654 0.7148 0.0
H1479 H 0.37341 0.09806 0.70799 0.0
C1480 C 0.49862 0.11749 0.71639 0.0
C1481 C 0.51511 0.13382 0.73204 0.0
C1482 C 0.47605 0.12 0.70932 0.0
C1483 C 0.46984 0.1392 0.71757 0.0
C1484 C 0.48725 0.15638 0.7326 0.0
C1485 C 0.50943 0.15351 0.7399 0.0
C1486 C 0.42077 0.16568 0.70342 0.0
C1487 C 0.39455 0.14163 0.70338 0.0
C1488 C 0.44531 0.1649 0.70758 0.0
C1489 C 0.44418 0.14002 0.71167 0.0
C1490 C 0.41795 0.11596 0.7114 0.0
C1491 C 0.39339 0.11682 0.70761 0.0
H1492 H 0.94739 0.40022 0.73494 0.0
H1493 H 0.8598 0.37656 0.7326 0.0
H1494 H 0.93665 0.35618 0.72165 0.0
H1495 H 0.84868 0.33191 0.71992 0.0
H1496 H 0.84098 0.26161 0.68269 0.0
H1497 H 0.85223 0.30703 0.69293 0.0
H1498 H 0.91569 0.31044 0.7322 0.0
H1499 H 0.90561 0.26579 0.72107 0.0
C1500 C 0.92579 0.38548 0.73158 0.0
C1501 C 0.90439 0.39167 0.73489 0.0
C1502 C 0.91957 0.36017 0.72409 0.0
C1503 C 0.89173 0.34025 0.71995 0.0
C1504 C 0.87039 0.34679 0.72275 0.0
C1505 C 0.87669 0.37232 0.73004 0.0
C1506 C 0.85768 0.27223 0.69324 0.0
C1507 C 0.87277 0.26019 0.70072 0.0
C1508 C 0.86387 0.29819 0.69933 0.0
C1509 C 0.88504 0.31261 0.7133 0.0
C1510 C 0.89972 0.30029 0.72107 0.0
C1511 C 0.89374 0.27448 0.71481 0.0
H1512 H 0.17244 0.94392 0.66092 0.0
H1513 H 0.19147 0.9799 0.60236 0.0
H1514 H 0.20902 0.98704 0.67459 0.0
H1515 H 0.22872 0.02212 0.616 0.0
H1516 H 0.31286 0.08129 0.64626 0.0
H1517 H 0.27646 0.03711 0.63411 0.0
H1518 H 0.21767 0.03754 0.67632 0.0
H1519 H 0.25345 0.08209 0.68795 0.0
C1520 C 0.18425 0.96089 0.65094 0.0
C1521 C 0.17902 0.95813 0.63045 0.0
C1522 C 0.20532 0.98551 0.65879 0.0
C1523 C 0.22189 0.00774 0.64629 0.0
C1524 C 0.21662 0.00512 0.62591 0.0
C1525 C 0.1953 0.98079 0.61812 0.0
C1526 C 0.29224 0.07199 0.65304 0.0
C1527 C 0.28631 0.08523 0.66832 0.0
C1528 C 0.27141 0.0467 0.64606 0.0
C1529 C 0.24433 0.03388 0.65438 0.0
C1530 C 0.23848 0.04679 0.66985 0.0
C1531 C 0.25911 0.07231 0.67657 0.0
H1532 H 0.04875 0.18733 0.65401 0.0
H1533 H 0.0664 0.26058 0.62247 0.0
H1534 H 1.0063 0.18445 0.66775 0.0
H1535 H 0.02308 0.2563 0.63447 0.0
H1536 H 0.95111 0.2549 0.6651 0.0
H1537 H 0.99721 0.2602 0.65897 0.0
H1538 H 0.96068 0.17263 0.66047 0.0
H1539 H 0.91506 0.16782 0.66791 0.0
C1540 C 0.04373 0.2029 0.65001 0.0
C1541 C 0.06107 0.22396 0.6368 0.0
C1542 C 0.01899 0.201 0.65767 0.0
C1543 C 1.01066 0.21993 0.65217 0.0
C1544 C 0.02854 0.2414 0.63943 0.0
C1545 C 0.0534 0.24357 0.63212 0.0
C1546 C 0.95316 0.23687 0.66444 0.0
C1547 C 0.92959 0.21102 0.66724 0.0
C1548 C 0.97958 0.23981 0.66068 0.0
C1549 C 0.98304 0.21686 0.65879 0.0
C1550 C 0.95931 0.19093 0.66201 0.0
C1551 C 0.93297 0.18807 0.66624 0.0
H1552 H 0.75352 0.80977 0.63064 0.0
H1553 H 0.84237 0.86632 0.63506 0.0
H1554 H 0.76025 0.77404 0.64519 0.0
H1555 H 0.84926 0.83057 0.64928 0.0
H1556 H 0.85033 0.76688 0.6887 0.0
H1557 H 0.8409 0.80228 0.67767 0.0
H1558 H 0.7801 0.74624 0.6361 0.0
H1559 H 0.78857 0.71036 0.64782 0.0
C1560 C 0.77449 0.81454 0.63474 0.0
C1561 C 0.79743 0.84082 0.63167 0.0
C1562 C 0.77838 0.79406 0.643 0.0
C1563 C 0.80532 0.79935 0.6483 0.0
C1564 C 0.82816 0.82584 0.64565 0.0
C1565 C 0.82424 0.84636 0.63749 0.0
C1566 C 0.83456 0.76188 0.67748 0.0
C1567 C 0.82001 0.73562 0.66932 0.0
C1568 C 0.82941 0.78235 0.67096 0.0
C1569 C 0.80977 0.77718 0.65597 0.0
C1570 C 0.79506 0.75085 0.64789 0.0
C1571 C 0.80009 0.7303 0.65451 0.0
H1572 H 0.05708 0.83016 0.65713 0.0
H1573 H 1.00425 0.84005 0.61486 0.0
H1574 H 0.01542 0.79201 0.67251 0.0
H1575 H 0.96272 0.80248 0.63046 0.0
H1576 H 0.89247 0.74756 0.67274 0.0
H1577 H 0.93596 0.78955 0.66464 0.0
H1578 H 0.97881 0.74372 0.65797 0.0
H1579 H 0.93516 0.70165 0.66582 0.0
C1580 C 0.03657 0.82448 0.65135 0.0
C1581 C 0.03382 0.83802 0.6348 0.0
C1582 C 0.01278 0.80265 0.66011 0.0
C1583 C 0.98586 0.79441 0.65273 0.0
C1584 C 0.98317 0.8086 0.63661 0.0
C1585 C 1.00691 0.82997 0.62762 0.0
C1586 C 0.91132 0.74655 0.67006 0.0
C1587 C 0.91058 0.72142 0.67012 0.0
C1588 C 0.93615 0.77055 0.66529 0.0
C1589 C 0.96072 0.76986 0.66065 0.0
C1590 C 0.96026 0.74488 0.66166 0.0
C1591 C 0.93532 0.72084 0.66608 0.0
H1592 H 0.17259 0.15909 0.61833 0.0
H1593 H 0.19183 0.22547 0.65817 0.0
H1594 H 0.21293 0.15653 0.63053 0.0
H1595 H 0.23273 0.22321 0.67023 0.0
H1596 H 0.32259 0.23119 0.66108 0.0
H1597 H 0.27963 0.23256 0.65398 0.0
H1598 H 0.23083 0.14549 0.6621 0.0
H1599 H 0.27371 0.14421 0.6693 0.0
C1600 C 0.18534 0.17298 0.62986 0.0
C1601 C 0.17899 0.1924 0.63732 0.0
C1602 C 0.20839 0.17144 0.6369 0.0
C1603 C 0.22605 0.18966 0.65136 0.0
C1604 C 0.21956 0.20897 0.65903 0.0
C1605 C 0.19609 0.21017 0.6522 0.0
C1606 C 0.3026 0.21244 0.66161 0.0
C1607 C 0.30145 0.18769 0.66612 0.0
C1608 C 0.27802 0.21323 0.65765 0.0
C1609 C 0.2518 0.18915 0.65754 0.0
C1610 C 0.25069 0.16438 0.66204 0.0
C1611 C 0.27523 0.16366 0.66631 0.0
H1612 H 0.82836 0.97234 0.65322 0.0
H1613 H 0.82878 0.00343 0.59476 0.0
H1614 H 0.83351 0.0141 0.66775 0.0
H1615 H 0.83396 0.04514 0.60926 0.0
H1616 H 0.81062 0.10091 0.64343 0.0
H1617 H 0.80494 0.05859 0.62993 0.0
H1618 H 0.86955 0.06405 0.66885 0.0
H1619 H 0.87563 0.10652 0.68218 0.0
C1620 C 0.82964 0.98812 0.64348 0.0
C1621 C 0.82815 0.98471 0.62286 0.0
C1622 C 0.83267 0.01203 0.6518 0.0
C1623 C 0.83397 0.03279 0.63963 0.0
C1624 C 0.83263 0.02935 0.61901 0.0
C1625 C 0.82987 0.0056 0.61071 0.0
C1626 C 0.82358 0.09309 0.64918 0.0
C1627 C 0.8434 0.10704 0.66405 0.0
C1628 C 0.82037 0.06889 0.64138 0.0
C1629 C 0.8368 0.05803 0.64835 0.0
C1630 C 0.85635 0.07176 0.66337 0.0
C1631 C 0.85976 0.09609 0.67104 0.0
H1632 H 0.53096 0.3805 0.70947 0.0
H1633 H 0.4984 0.35197 0.76826 0.0
H1634 H 0.49324 0.33808 0.69561 0.0
H1635 H 0.46079 0.30974 0.75448 0.0
H1636 H 0.38154 0.24947 0.72132 0.0
H1637 H 0.41804 0.29353 0.73354 0.0
H1638 H 0.47903 0.28843 0.69614 0.0
H1639 H 0.44291 0.24434 0.68421 0.0
C1640 C 0.51574 0.3652 0.71941 0.0
C1641 C 0.51759 0.36947 0.73996 0.0
C1642 C 0.49421 0.34091 0.7115 0.0
C1643 C 0.47396 0.32062 0.72396 0.0
C1644 C 0.4758 0.3251 0.74447 0.0
C1645 C 0.49745 0.34918 0.75237 0.0
C1646 C 0.40268 0.25777 0.71561 0.0
C1647 C 0.40913 0.24339 0.70158 0.0
C1648 C 0.42361 0.283 0.72266 0.0
C1649 C 0.45141 0.2945 0.71575 0.0
C1650 C 0.45775 0.28034 0.70152 0.0
C1651 C 0.43694 0.25502 0.69464 0.0
H1652 H 0.65031 0.09511 0.74811 0.0
H1653 H 0.65196 0.1564 0.70933 0.0
H1654 H 0.69618 0.10541 0.73616 0.0
H1655 H 0.69815 0.16637 0.69665 0.0
H1656 H 0.79502 0.19433 0.69738 0.0
H1657 H 0.74768 0.18578 0.70523 0.0
H1658 H 0.7182 0.09948 0.70829 0.0
H1659 H 0.76541 0.10828 0.70119 0.0
C1660 C 0.66046 0.11071 0.73684 0.0
C1661 C 0.64741 0.12481 0.72963 0.0
C1662 C 0.68677 0.1165 0.72981 0.0
C1663 C 0.70091 0.13646 0.71513 0.0
C1664 C 0.68799 0.15091 0.70799 0.0
C1665 C 0.66147 0.14514 0.71518 0.0
C1666 C 0.77822 0.17354 0.69941 0.0
C1667 C 0.7838 0.15191 0.69859 0.0
C1668 C 0.75107 0.1686 0.7039 0.0
C1669 C 0.72904 0.14194 0.70778 0.0
C1670 C 0.73464 0.12035 0.70596 0.0
C1671 C 0.76167 0.12531 0.70171 0.0
H1672 H 0.94809 0.56035 0.73193 0.0
H1673 H 0.86392 0.49256 0.72627 0.0
H1674 H 0.93239 0.59133 0.72068 0.0
H1675 H 0.84777 0.52367 0.71571 0.0
H1676 H 0.83372 0.58491 0.68031 0.0
H1677 H 0.84922 0.55301 0.68964 0.0
H1678 H 0.90592 0.6109 0.73224 0.0
H1679 H 0.89163 0.64321 0.72219 0.0
C1680 C 0.92617 0.55213 0.72832 0.0
C1681 C 0.90725 0.52413 0.72997 0.0
C1682 C 0.91708 0.56989 0.72202 0.0
C1683 C 0.88872 0.5601 0.71745 0.0
C1684 C 0.86981 0.53191 0.71889 0.0
C1685 C 0.87901 0.51408 0.72504 0.0
C1686 C 0.84982 0.59101 0.69143 0.0
C1687 C 0.86181 0.6169 0.70017 0.0
C1688 C 0.85844 0.57253 0.69699 0.0
C1689 C 0.87904 0.57941 0.71159 0.0
C1690 C 0.89052 0.60509 0.72061 0.0
C1691 C 0.88211 0.6236 0.71494 0.0
H1692 H 0.50162 0.94559 0.25555 0.0
H1693 H 0.42071 0.89025 0.23083 0.0
H1694 H 0.51722 0.96866 0.22382 0.0
H1695 H 0.4366 0.91256 0.19856 0.0
H1696 H 0.466 0.97721 0.14872 0.0
H1697 H 0.44838 0.95176 0.17972 0.0
H1698 H 0.5313 0.96501 0.19221 0.0
H1699 H 0.54883 0.99146 0.16184 0.0
C1700 C 0.48729 0.93812 0.24318 0.0
C1701 C 0.46001 0.91602 0.24566 0.0
C1702 C 0.49626 0.95125 0.22488 0.0
C1703 C 0.47837 0.9424 0.20836 0.0
C1704 C 0.45095 0.92025 0.2109 0.0
C1705 C 0.44183 0.90734 0.22937 0.0
C1706 C 0.48029 0.97443 0.1581 0.0
C1707 C 0.50881 0.98651 0.153 0.0
C1708 C 0.47023 0.95976 0.17586 0.0
C1709 C 0.48842 0.9565 0.18877 0.0
C1710 C 0.51673 0.96768 0.18308 0.0
C1711 C 0.52682 0.98268 0.16556 0.0
H1712 H 0.12885 0.56302 0.22246 0.0
H1713 H 0.05471 0.50473 0.25423 0.0
H1714 H 0.10153 0.55269 0.19188 0.0
H1715 H 0.02717 0.49497 0.22374 0.0
H1716 H 0.99096 0.52262 0.16941 0.0
H1717 H 0.01722 0.52952 0.19988 0.0
H1718 H 0.07055 0.50488 0.17043 0.0
H1719 H 0.04334 0.49612 0.1402 0.0
C1720 C 0.10671 0.54801 0.22282 0.0
C1721 C 0.09375 0.5346 0.24055 0.0
C1722 C 0.09118 0.54207 0.20541 0.0
C1723 C 0.06236 0.5231 0.2056 0.0
C1724 C 0.04938 0.50972 0.22334 0.0
C1725 C 0.06506 0.51519 0.24066 0.0
C1726 C 1.00786 0.51807 0.16942 0.0
C1727 C 0.0149 0.50877 0.15219 0.0
C1728 C 0.02297 0.52222 0.18687 0.0
C1729 C 0.0458 0.51773 0.18736 0.0
C1730 C 0.05308 0.50863 0.17028 0.0
C1731 C 0.0376 0.50388 0.15294 0.0
H1732 H 0.52161 0.55568 0.25464 0.0
H1733 H 0.44768 0.54924 0.22766 0.0
H1734 H 0.53531 0.54482 0.22318 0.0
H1735 H 0.46186 0.5394 0.19573 0.0
H1736 H 0.48578 0.50064 0.14464 0.0
H1737 H 0.46869 0.50817 0.17618 0.0
H1738 H 0.55392 0.56604 0.19265 0.0
H1739 H 0.57078 0.5577 0.16161 0.0
C1740 C 0.50832 0.55195 0.24188 0.0
C1741 C 0.48371 0.55346 0.24351 0.0
C1742 C 0.51625 0.54594 0.22379 0.0
C1743 C 0.50001 0.54171 0.20673 0.0
C1744 C 0.47483 0.54236 0.20853 0.0
C1745 C 0.46669 0.54804 0.22679 0.0
C1746 C 0.50074 0.51505 0.15503 0.0
C1747 C 0.52961 0.52838 0.1508 0.0
C1748 C 0.49098 0.51942 0.17309 0.0
C1749 C 0.50992 0.53745 0.18717 0.0
C1750 C 0.53873 0.5514 0.18251 0.0
C1751 C 0.54844 0.54677 0.16464 0.0
H1752 H 0.92059 0.46593 0.80606 0.0
H1753 H 0.98222 0.45034 0.77882 0.0
H1754 H 0.9449 0.47436 0.83764 0.0
H1755 H 1.0072 0.4597 0.81009 0.0
H1756 H 0.02577 0.44549 0.8729 0.0
H1757 H 1.00225 0.43925 0.84133 0.0
H1758 H 0.98554 0.50409 0.8559 0.0
H1759 H 1.00838 0.50961 0.88783 0.0
C1760 C 0.93964 0.46478 0.8068 0.0
C1761 C 0.94946 0.45732 0.79009 0.0
C1762 C 0.95363 0.46968 0.82486 0.0
C1763 C 0.97794 0.4675 0.82652 0.0
C1764 C 0.9882 0.46091 0.80953 0.0
C1765 C 0.97401 0.45571 0.79158 0.0
C1766 C 0.01718 0.45848 0.86928 0.0
C1767 C 0.01895 0.47807 0.88277 0.0
C1768 C 1.00379 0.45502 0.85114 0.0
C1769 C 0.99213 0.4713 0.84593 0.0
C1770 C 0.99393 0.49094 0.85948 0.0
C1771 C 1.00708 0.49418 0.87775 0.0
H1772 H 0.57449 0.51972 0.77732 0.0
H1773 H 0.57942 0.45446 0.80645 0.0
H1774 H 0.55874 0.5302 0.80844 0.0
H1775 H 0.56437 0.4654 0.83768 0.0
H1776 H 0.56666 0.51978 0.89219 0.0
H1777 H 0.58444 0.51006 0.86192 0.0
H1778 H 0.51155 0.49879 0.83035 0.0
H1779 H 0.49266 0.50667 0.86066 0.0
C1780 C 0.57256 0.50791 0.79046 0.0
C1781 C 0.57808 0.48629 0.78957 0.0
C1782 C 0.56346 0.5138 0.80817 0.0
C1783 C 0.56037 0.49857 0.82537 0.0
C1784 C 0.56673 0.47749 0.82462 0.0
C1785 C 0.57521 0.4712 0.80681 0.0
C1786 C 0.55406 0.51474 0.87895 0.0
C1787 C 0.52814 0.51415 0.87903 0.0
C1788 C 0.56443 0.5094 0.86159 0.0
C1789 C 0.54945 0.50396 0.84385 0.0
C1790 C 0.52367 0.50336 0.84381 0.0
C1791 C 0.51299 0.50807 0.86121 0.0
H1792 H 0.57887 0.12361 0.80505 0.0
H1793 H 0.49791 0.06582 0.78162 0.0
H1794 H 0.56491 0.10123 0.83742 0.0
H1795 H 0.48425 0.04274 0.81346 0.0
H1796 H 0.45543 0.0191 0.87591 0.0
H1797 H 0.4709 0.04572 0.84548 0.0
H1798 H 0.55551 0.06245 0.85602 0.0
H1799 H 0.53994 0.03678 0.88707 0.0
C1800 C 0.55816 0.10598 0.80682 0.0
C1801 C 0.5394 0.0966 0.79085 0.0
C1802 C 0.55015 0.09303 0.82535 0.0
C1803 C 0.52329 0.07017 0.82828 0.0
C1804 C 0.50479 0.06067 0.8121 0.0
C1805 C 0.51266 0.07381 0.79373 0.0
C1806 C 0.47738 0.02868 0.87176 0.0
C1807 C 0.49645 0.02575 0.88378 0.0
C1808 C 0.48628 0.04379 0.8542 0.0
C1809 C 0.51446 0.05598 0.84793 0.0
C1810 C 0.53372 0.05365 0.86033 0.0
C1811 C 0.52483 0.03885 0.87812 0.0
H1812 H 0.08085 0.23029 0.56661 0.0
H1813 H 0.16866 0.26525 0.58105 0.0
H1814 H 0.09391 0.25303 0.53446 0.0
H1815 H 0.18136 0.28652 0.54842 0.0
H1816 H 0.18952 0.30048 0.47987 0.0
H1817 H 0.17436 0.27253 0.51017 0.0
H1818 H 0.12115 0.3057 0.52522 0.0
H1819 H 0.13687 0.33407 0.4953 0.0
C1820 C 0.10291 0.24268 0.56302 0.0
C1821 C 0.12363 0.24606 0.57674 0.0
C1822 C 0.11033 0.25552 0.54449 0.0
C1823 C 0.13863 0.27154 0.53897 0.0
C1824 C 0.15936 0.27405 0.55222 0.0
C1825 C 0.15199 0.26168 0.57092 0.0
C1826 C 0.17437 0.30149 0.48959 0.0
C1827 C 0.16431 0.31934 0.48533 0.0
C1828 C 0.16582 0.28566 0.50692 0.0
C1829 C 0.14657 0.28696 0.52 0.0
C1830 C 0.13584 0.30415 0.51532 0.0
C1831 C 0.14486 0.3204 0.49828 0.0
H1832 H 0.71995 0.83724 0.58886 0.0
H1833 H 0.79306 0.89728 0.55705 0.0
H1834 H 0.69235 0.82631 0.55834 0.0
H1835 H 0.76568 0.88587 0.52646 0.0
H1836 H 0.71036 0.82801 0.47475 0.0
H1837 H 0.73757 0.83868 0.50511 0.0
H1838 H 0.67951 0.85762 0.53413 0.0
H1839 H 0.65306 0.8487 0.50353 0.0
C1840 C 0.73006 0.84791 0.57529 0.0
C1841 C 0.75849 0.86808 0.57517 0.0
C1842 C 0.71433 0.84176 0.55795 0.0
C1843 C 0.72702 0.85528 0.54018 0.0
C1844 C 0.75556 0.87515 0.54001 0.0
C1845 C 0.77111 0.88171 0.55743 0.0
C1846 C 0.70355 0.83492 0.48742 0.0
C1847 C 0.67947 0.8376 0.48653 0.0
C1848 C 0.71906 0.84079 0.50484 0.0
C1849 C 0.71049 0.84886 0.52184 0.0
C1850 C 0.6863 0.85116 0.52119 0.0
C1851 C 0.6711 0.84586 0.50367 0.0
H1852 H 0.16761 0.93504 0.56249 0.0
H1853 H 0.12531 0.84983 0.57872 0.0
H1854 H 0.18149 0.92432 0.53101 0.0
H1855 H 0.13842 0.83912 0.54671 0.0
H1856 H 0.15031 0.83337 0.47793 0.0
H1857 H 0.1317 0.84284 0.50817 0.0
H1858 H 0.21525 0.90574 0.5236 0.0
H1859 H 0.23379 0.89608 0.49367 0.0
C1860 C 0.16117 0.91399 0.55936 0.0
C1861 C 0.14575 0.89337 0.57337 0.0
C1862 C 0.16903 0.90789 0.54126 0.0
C1863 C 0.16126 0.88095 0.53653 0.0
C1864 C 0.14459 0.86006 0.54999 0.0
C1865 C 0.13702 0.86622 0.56828 0.0
C1866 C 0.16459 0.84926 0.4878 0.0
C1867 C 0.19347 0.86397 0.48354 0.0
C1868 C 0.154 0.85455 0.50509 0.0
C1869 C 0.17205 0.87505 0.51815 0.0
C1870 C 0.20085 0.88997 0.51371 0.0
C1871 C 0.21147 0.88434 0.49667 0.0
H1872 H 0.57971 0.7951 0.14294 0.0
H1873 H 0.64451 0.78692 0.113 0.0
H1874 H 0.60644 0.80635 0.17359 0.0
H1875 H 0.67185 0.79913 0.14336 0.0
H1876 H 0.6962 0.78782 0.20539 0.0
H1877 H 0.67092 0.77966 0.1744 0.0
H1878 H 0.64679 0.83887 0.19078 0.0
H1879 H 0.67145 0.84629 0.22214 0.0
C1880 C 0.59995 0.79623 0.14287 0.0
C1881 C 0.61 0.78999 0.12569 0.0
C1882 C 0.61533 0.80275 0.16041 0.0
C1883 C 0.64126 0.80345 0.16105 0.0
C1884 C 0.65169 0.79815 0.14358 0.0
C1885 C 0.63615 0.79132 0.12614 0.0
C1886 C 0.68563 0.7992 0.20228 0.0
C1887 C 0.6858 0.8177 0.21614 0.0
C1888 C 0.67122 0.79464 0.18447 0.0
C1889 C 0.65689 0.80871 0.17997 0.0
C1890 C 0.65723 0.82738 0.19384 0.0
C1891 C 0.67141 0.83171 0.21178 0.0
H1892 H 0.19621 0.78716 0.11788 0.0
H1893 H 0.28375 0.83905 0.1325 0.0
H1894 H 0.18289 0.79617 0.15017 0.0
H1895 H 0.26994 0.84929 0.16431 0.0
H1896 H 0.22178 0.88483 0.20317 0.0
H1897 H 0.23884 0.87365 0.17299 0.0
H1898 H 0.19247 0.78846 0.1887 0.0
H1899 H 0.17603 0.79975 0.21919 0.0
C1900 C 0.21269 0.80021 0.12796 0.0
C1901 C 0.24116 0.81229 0.1224 0.0
C1902 C 0.20495 0.80547 0.14643 0.0
C1903 C 0.2254 0.82339 0.15963 0.0
C1904 C 0.2538 0.8355 0.15427 0.0
C1905 C 0.26162 0.82978 0.13596 0.0
C1906 C 0.21553 0.86378 0.20022 0.0
C1907 C 0.19763 0.84311 0.21339 0.0
C1908 C 0.22534 0.85742 0.18307 0.0
C1909 C 0.2169 0.83023 0.1786 0.0
C1910 C 0.1992 0.80957 0.19186 0.0
C1911 C 0.18991 0.816 0.20926 0.0
H1912 H 0.24703 0.45563 0.13645 0.0
H1913 H 0.1682 0.39372 0.11267 0.0
H1914 H 0.23405 0.43311 0.16885 0.0
H1915 H 0.1556 0.37064 0.14452 0.0
H1916 H 0.12592 0.34778 0.20686 0.0
H1917 H 0.1409 0.37384 0.17619 0.0
H1918 H 0.2266 0.39504 0.18804 0.0
H1919 H 0.21143 0.36978 0.21931 0.0
C1920 C 0.22706 0.43704 0.13813 0.0
C1921 C 0.2085 0.42659 0.12209 0.0
C1922 C 0.21961 0.42405 0.15667 0.0
C1923 C 0.19355 0.40013 0.15953 0.0
C1924 C 0.17545 0.3894 0.14321 0.0
C1925 C 0.18273 0.40254 0.12484 0.0
C1926 C 0.14799 0.35819 0.20294 0.0
C1927 C 0.16748 0.3566 0.21539 0.0
C1928 C 0.15662 0.37298 0.18525 0.0
C1929 C 0.18497 0.38624 0.17928 0.0
C1930 C 0.20463 0.38532 0.1921 0.0
C1931 C 0.19599 0.37079 0.21002 0.0
H1932 H 0.83443 0.60425 0.91605 0.0
H1933 H 0.74635 0.5673 0.90176 0.0
H1934 H 0.84655 0.62676 0.88388 0.0
H1935 H 0.75884 0.59142 0.87007 0.0
H1936 H 0.80179 0.67239 0.82995 0.0
H1937 H 0.7862 0.64479 0.86029 0.0
H1938 H 0.83865 0.6106 0.84575 0.0
H1939 H 0.85365 0.6377 0.8151 0.0
C1940 C 0.81758 0.60063 0.90609 0.0
C1941 C 0.78931 0.58366 0.91168 0.0
C1942 C 0.82462 0.61372 0.88766 0.0
C1943 C 0.80363 0.61074 0.8745 0.0
C1944 C 0.77542 0.59413 0.88002 0.0
C1945 C 0.76833 0.58052 0.89828 0.0
C1946 C 0.80964 0.65867 0.83315 0.0
C1947 C 0.82885 0.65707 0.82025 0.0
C1948 C 0.8007 0.64288 0.85043 0.0
C1949 C 0.81131 0.62567 0.85536 0.0
C1950 C 0.83025 0.6238 0.8423 0.0
C1951 C 0.83869 0.63913 0.82477 0.0
H1952 H 0.46082 0.22884 0.89118 0.0
H1953 H 0.38683 0.1691 0.92221 0.0
H1954 H 0.43454 0.21796 0.86041 0.0
H1955 H 0.35976 0.15919 0.89179 0.0
H1956 H 0.32341 0.13035 0.83071 0.0
H1957 H 0.35086 0.13903 0.86083 0.0
H1958 H 0.40125 0.22379 0.84388 0.0
H1959 H 0.37475 0.2144 0.81331 0.0
C1960 C 0.43879 0.21349 0.89134 0.0
C1961 C 0.42574 0.19977 0.90893 0.0
C1962 C 0.42361 0.20737 0.87378 0.0
C1963 C 0.39484 0.18781 0.87352 0.0
C1964 C 0.38192 0.17402 0.89124 0.0
C1965 C 0.39731 0.17977 0.90873 0.0
C1966 C 0.34044 0.15077 0.83353 0.0
C1967 C 0.34711 0.17172 0.81979 0.0
C1968 C 0.35609 0.15585 0.85082 0.0
C1969 C 0.37839 0.18216 0.85492 0.0
C1970 C 0.38473 0.20314 0.84112 0.0
C1971 C 0.36945 0.19789 0.82366 0.0
H1972 H 0.79253 0.18154 0.9131 0.0
H1973 H 0.83415 0.26683 0.89715 0.0
H1974 H 0.80623 0.17126 0.88118 0.0
H1975 H 0.84862 0.25654 0.86574 0.0
H1976 H 0.90142 0.22943 0.82801 0.0
H1977 H 0.88274 0.23866 0.85805 0.0
H1978 H 0.79951 0.17488 0.84282 0.0
H1979 H 0.81825 0.16582 0.8125 0.0
C1980 C 0.80424 0.19804 0.90275 0.0
C1981 C 0.81257 0.22509 0.90788 0.0
C1982 C 0.81214 0.19214 0.8845 0.0
C1983 C 0.82876 0.21317 0.87113 0.0
C1984 C 0.83621 0.24001 0.87592 0.0
C1985 C 0.82801 0.24587 0.89398 0.0
C1986 C 0.87914 0.21739 0.83108 0.0
C1987 C 0.86127 0.1969 0.81798 0.0
C1988 C 0.86843 0.22277 0.84818 0.0
C1989 C 0.83968 0.2075 0.85272 0.0
C1990 C 0.82177 0.18687 0.83968 0.0
C1991 C 0.83243 0.18181 0.82234 0.0
H1992 H 0.29382 0.16096 0.45557 0.0
H1993 H 0.25436 0.07515 0.46959 0.0
H1994 H 0.31928 0.17168 0.48682 0.0
H1995 H 0.28056 0.08597 0.50038 0.0
H1996 H 0.35849 0.11672 0.54028 0.0
H1997 H 0.33222 0.1069 0.50943 0.0
H1998 H 0.30827 0.16661 0.52421 0.0
H1999 H 0.33465 0.17649 0.55513 0.0
C2000 C 0.29039 0.1444 0.46534 0.0
C2001 C 0.27213 0.11717 0.45997 0.0
C2002 C 0.30505 0.15056 0.48318 0.0
C2003 C 0.30199 0.12963 0.49591 0.0
C2004 C 0.28361 0.10247 0.49068 0.0
C2005 C 0.26872 0.09631 0.47299 0.0
C2006 C 0.34774 0.12784 0.53687 0.0
C2007 C 0.34859 0.14737 0.55004 0.0
C2008 C 0.33256 0.12209 0.51932 0.0
C2009 C 0.31821 0.13598 0.51449 0.0
C2010 C 0.31929 0.15573 0.52755 0.0
C2011 C 0.33418 0.16123 0.54526 0.0
H2012 H 0.90516 0.18534 0.44675 0.0
H2013 H 0.90339 0.11407 0.47108 0.0
H2014 H 0.88849 0.19306 0.47847 0.0
H2015 H 0.88747 0.12233 0.50309 0.0
H2016 H 0.89504 0.18051 0.5597 0.0
H2017 H 0.91181 0.16997 0.52926 0.0
H2018 H 0.83716 0.15641 0.49904 0.0
H2019 H 0.81925 0.16504 0.52957 0.0
C2020 C 0.90152 0.17156 0.45898 0.0
C2021 C 0.90553 0.14914 0.45656 0.0
C2022 C 0.89192 0.17591 0.47703 0.0
C2023 C 0.88678 0.15827 0.49309 0.0
C2024 C 0.89142 0.13621 0.49087 0.0
C2025 C 0.9004 0.13147 0.47264 0.0
C2026 C 0.88178 0.17467 0.54677 0.0
C2027 C 0.85576 0.17389 0.54723 0.0
C2028 C 0.89156 0.16883 0.52932 0.0
C2029 C 0.87581 0.16262 0.5119 0.0
C2030 C 0.84976 0.16144 0.5123 0.0
C2031 C 0.83969 0.16665 0.52979 0.0
H2032 H 0.85913 0.79057 0.46932 0.0
H2033 H 0.90106 0.74557 0.45448 0.0
H2034 H 0.84616 0.76799 0.5015 0.0
H2035 H 0.88901 0.72398 0.48707 0.0
H2036 H 0.87966 0.70746 0.55496 0.0
H2037 H 0.8971 0.73501 0.52462 0.0
H2038 H 0.81323 0.71818 0.51159 0.0
H2039 H 0.79587 0.69052 0.54165 0.0
C2040 C 0.86568 0.77596 0.47285 0.0
C2041 C 0.88089 0.76973 0.45903 0.0
C2042 C 0.85836 0.76315 0.49139 0.0
C2043 C 0.86646 0.74413 0.49677 0.0
C2044 C 0.88269 0.73874 0.4834 0.0
C2045 C 0.88967 0.75124 0.46472 0.0
C2046 C 0.86509 0.70994 0.54568 0.0
C2047 C 0.83642 0.69681 0.5506 0.0
C2048 C 0.875 0.72553 0.52829 0.0
C2049 C 0.85652 0.72875 0.51574 0.0
C2050 C 0.82801 0.71626 0.52103 0.0
C2051 C 0.81805 0.70031 0.53816 0.0
loop_
_geom_bond_atom_site_label_1
_geom_bond_atom_site_label_2
_geom_bond_distance
_geom_bond_site_symmetry_2
_ccdc_geom_bond_type
H0 C5 0.930 . S
H1 C8 0.930 . S
H2 C10 0.930 . S
H3 C4 1.016 . S
C4 H3 1.016 . S
C4 N11 1.286 . S
C5 H0 0.930 . S
C5 C6 1.397 . S
C5 C7 1.361 . S
C6 C5 1.397 . S
C6 C10 1.390 . S
C7 C5 1.361 . S
C7 C8 1.393 . S
C7 N11 1.413 . S
C8 H1 0.930 . S
C8 C7 1.393 . S
C8 C9 1.399 . S
C9 C8 1.399 . S
C9 C10 1.381 . S
C10 H2 0.930 . S
C10 C6 1.390 . S
C10 C9 1.381 . S
N11 C4 1.286 . S
N11 C7 1.413 . S
H12 C17 0.930 . S
H13 C20 0.930 . S
H14 C22 0.930 . S
H15 C16 1.016 . S
C16 H15 1.016 . S
C16 N23 1.286 . S
C17 H12 0.930 . S
C17 C18 1.397 . S
C17 C19 1.361 . S
C18 C17 1.397 . S
C18 C22 1.390 . S
C19 C17 1.361 . S
C19 C20 1.393 . S
C19 N23 1.413 . S
C20 H13 0.930 . S
C20 C19 1.393 . S
C20 C21 1.399 . S
C21 C20 1.399 . S
C21 C22 1.381 . S
C22 H14 0.930 . S
C22 C18 1.390 . S
C22 C21 1.381 . S
N23 C16 1.286 . S
N23 C19 1.413 . S
H24 C29 0.930 . S
H25 C32 0.930 . S
H26 C34 0.930 . S
H27 C28 1.016 . S
C28 H27 1.016 . S
C28 N35 1.286 . S
C29 H24 0.930 . S
C29 C30 1.397 . S
C29 C31 1.361 . S
C30 C29 1.397 . S
C30 C34 1.390 . S
C31 C29 1.361 . S
C31 C32 1.393 . S
C31 N35 1.413 . S
C32 H25 0.930 . S
C32 C31 1.393 . S
C32 C33 1.399 . S
C33 C32 1.399 . S
C33 C34 1.381 . S
C34 H26 0.930 . S
C34 C30 1.390 . S
C34 C33 1.381 . S
N35 C28 1.286 . S
N35 C31 1.413 . S
H36 C41 0.930 . S
H37 C44 0.930 . S
H38 C46 0.930 . S
H39 C40 1.016 . S
C40 H39 1.016 . S
C40 N47 1.286 . S
C41 H36 0.930 . S
C41 C42 1.397 . S
C41 C43 1.361 . S
C42 C41 1.397 . S
C42 C46 1.390 . S
C43 C41 1.361 . S
C43 C44 1.393 . S
C43 N47 1.413 . S
C44 H37 0.930 . S
C44 C43 1.393 . S
C44 C45 1.399 . S
C45 C44 1.399 . S
C45 C46 1.381 . S
C46 H38 0.930 . S
C46 C42 1.390 . S
C46 C45 1.381 . S
N47 C40 1.286 . S
N47 C43 1.413 . S
H48 C53 0.930 . S
H49 C56 0.930 . S
H50 C58 0.930 . S
H51 C52 1.016 . S
C52 H51 1.016 . S
C52 N59 1.286 . S
C53 H48 0.930 . S
C53 C54 1.397 . S
C53 C55 1.361 . S
C54 C53 1.397 . S
C54 C58 1.390 . S
C55 C53 1.361 . S
C55 C56 1.393 . S
C55 N59 1.413 . S
C56 H49 0.930 . S
C56 C55 1.393 . S
C56 C57 1.399 . S
C57 C56 1.399 . S
C57 C58 1.381 . S
C58 H50 0.930 . S
C58 C54 1.390 . S
C58 C57 1.381 . S
N59 C52 1.286 . S
N59 C55 1.413 . S
H60 C65 0.930 . S
H61 C68 0.930 . S
H62 C70 0.930 . S
H63 C64 1.016 . S
C64 H63 1.016 . S
C64 N71 1.286 . S
C65 H60 0.930 . S
C65 C66 1.397 . S
C65 C67 1.361 . S
C66 C65 1.397 . S
C66 C70 1.390 . S
C67 C65 1.361 . S
C67 C68 1.393 . S
C67 N71 1.413 . S
C68 H61 0.930 . S
C68 C67 1.393 . S
C68 C69 1.399 . S
C69 C68 1.399 . S
C69 C70 1.381 . S
C70 H62 0.930 . S
C70 C66 1.390 . S
C70 C69 1.381 . S
N71 C64 1.286 . S
N71 C67 1.413 . S
H72 C77 0.930 . S
H73 C80 0.930 . S
H74 C82 0.930 . S
H75 C76 1.016 . S
C76 H75 1.016 . S
C76 N83 1.286 . S
C77 H72 0.930 . S
C77 C78 1.397 . S
C77 C79 1.361 . S
C78 C77 1.397 . S
C78 C82 1.390 . S
C79 C77 1.361 . S
C79 C80 1.393 . S
C79 N83 1.413 . S
C80 H73 0.930 . S
C80 C79 1.393 . S
C80 C81 1.399 . S
C81 C80 1.399 . S
C81 C82 1.381 . S
C82 H74 0.930 . S
C82 C78 1.390 . S
C82 C81 1.381 . S
N83 C76 1.286 . S
N83 C79 1.413 . S
H84 C89 0.930 . S
H85 C92 0.930 . S
H86 C94 0.930 . S
H87 C88 1.016 . S
C88 H87 1.016 . S
C88 N95 1.286 . S
C89 H84 0.930 . S
C89 C90 1.397 . S
C89 C91 1.361 . S
C90 C89 1.397 . S
C90 C94 1.390 . S
C91 C89 1.361 . S
C91 C92 1.393 . S
C91 N95 1.413 . S
C92 H85 0.930 . S
C92 C91 1.393 . S
C92 C93 1.399 . S
C93 C92 1.399 . S
C93 C94 1.381 . S
C94 H86 0.930 . S
C94 C90 1.390 . S
C94 C93 1.381 . S
N95 C88 1.286 . S
N95 C91 1.413 . S
H96 C101 0.930 . S
H97 C104 0.930 . S
H98 C106 0.930 . S
H99 C100 1.016 . S
C100 H99 1.016 . S
C100 N107 1.286 . S
C101 H96 0.930 . S
C101 C102 1.397 . S
C101 C103 1.361 . S
C102 C101 1.397 . S
C102 C106 1.390 . S
C103 C101 1.361 . S
C103 C104 1.393 . S
C103 N107 1.413 . S
C104 H97 0.930 . S
C104 C103 1.393 . S
C104 C105 1.399 . S
C105 C104 1.399 . S
C105 C106 1.381 . S
C106 H98 0.930 . S
C106 C102 1.390 . S
C106 C105 1.381 . S
N107 C100 1.286 . S
N107 C103 1.413 . S
H108 C113 0.930 . S
H109 C116 0.930 . S
H110 C118 0.930 . S
H111 C112 1.016 . S
C112 H111 1.016 . S
C112 N119 1.286 . S
C113 H108 0.930 . S
C113 C114 1.397 . S
C113 C115 1.361 . S
C114 C113 1.397 . S
C114 C118 1.390 . S
C115 C113 1.361 . S
C115 C116 1.393 . S
C115 N119 1.413 . S
C116 H109 0.930 . S
C116 C115 1.393 . S
C116 C117 1.399 . S
C117 C116 1.399 . S
C117 C118 1.381 . S
C118 H110 0.930 . S
C118 C114 1.390 . S
C118 C117 1.381 . S
N119 C112 1.286 . S
N119 C115 1.413 . S
H120 C125 0.930 . S
H121 C128 0.930 . S
H122 C130 0.930 . S
H123 C124 1.016 . S
C124 H123 1.016 . S
C124 N131 1.286 . S
C125 H120 0.930 . S
C125 C126 1.397 . S
C125 C127 1.361 . S
C126 C125 1.397 . S
C126 C130 1.390 . S
C127 C125 1.361 . S
C127 C128 1.393 . S
C127 N131 1.413 . S
C128 H121 0.930 . S
C128 C127 1.393 . S
C128 C129 1.399 . S
C129 C128 1.399 . S
C129 C130 1.381 . S
C130 H122 0.930 . S
C130 C126 1.390 . S
C130 C129 1.381 . S
N131 C124 1.286 . S
N131 C127 1.413 . S
H132 C137 0.930 . S
H133 C140 0.930 . S
H134 C142 0.930 . S
H135 C136 1.016 . S
C136 H135 1.016 . S
C136 N143 1.286 . S
C137 H132 0.930 . S
C137 C138 1.397 . S
C137 C139 1.361 . S
C138 C137 1.397 . S
C138 C142 1.390 . S
C139 C137 1.361 . S
C139 C140 1.393 . S
C139 N143 1.413 . S
C140 H133 0.930 . S
C140 C139 1.393 . S
C140 C141 1.399 . S
C141 C140 1.399 . S
C141 C142 1.381 . S
C142 H134 0.930 . S
C142 C138 1.390 . S
C142 C141 1.381 . S
N143 C136 1.286 . S
N143 C139 1.413 . S
H144 C149 0.930 . S
H145 C152 0.930 . S
H146 C154 0.930 . S
H147 C148 1.016 . S
C148 H147 1.016 . S
C148 N155 1.286 . S
C149 H144 0.930 . S
C149 C150 1.397 . S
C149 C151 1.361 . S
C150 C149 1.397 . S
C150 C154 1.390 . S
C151 C149 1.361 . S
C151 C152 1.393 . S
C151 N155 1.413 . S
C152 H145 0.930 . S
C152 C151 1.393 . S
C152 C153 1.399 . S
C153 C152 1.399 . S
C153 C154 1.381 . S
C154 H146 0.930 . S
C154 C150 1.390 . S
C154 C153 1.381 . S
N155 C148 1.286 . S
N155 C151 1.413 . S
H156 C161 0.930 . S
H157 C164 0.930 . S
H158 C166 0.930 . S
H159 C160 1.016 . S
C160 H159 1.016 . S
C160 N167 1.286 . S
C161 H156 0.930 . S
C161 C162 1.397 . S
C161 C163 1.361 . S
C162 C161 1.397 . S
C162 C166 1.390 . S
C163 C161 1.361 . S
C163 C164 1.393 . S
C163 N167 1.413 . S
C164 H157 0.930 . S
C164 C163 1.393 . S
C164 C165 1.399 . S
C165 C164 1.399 . S
C165 C166 1.381 . S
C166 H158 0.930 . S
C166 C162 1.390 . S
C166 C165 1.381 . S
N167 C160 1.286 . S
N167 C163 1.413 . S
H168 C173 0.930 . S
H169 C176 0.930 . S
H170 C178 0.930 . S
H171 C172 1.016 . S
C172 H171 1.016 . S
C172 N179 1.286 . S
C173 H168 0.930 . S
C173 C174 1.397 . S
C173 C175 1.361 . S
C174 C173 1.397 . S
C174 C178 1.390 . S
C175 C173 1.361 . S
C175 C176 1.393 . S
C175 N179 1.413 . S
C176 H169 0.930 . S
C176 C175 1.393 . S
C176 C177 1.399 . S
C177 C176 1.399 . S
C177 C178 1.381 . S
C178 H170 0.930 . S
C178 C174 1.390 . S
C178 C177 1.381 . S
N179 C172 1.286 . S
N179 C175 1.413 . S
H180 C185 0.930 . S
H181 C188 0.930 . S
H182 C190 0.930 . S
H183 C184 1.016 . S
C184 H183 1.016 . S
C184 N191 1.286 . S
C185 H180 0.930 . S
C185 C186 1.397 . S
C185 C187 1.361 . S
C186 C185 1.397 . S
C186 C190 1.390 . S
C187 C185 1.361 . S
C187 C188 1.393 . S
C187 N191 1.413 . S
C188 H181 0.930 . S
C188 C187 1.393 . S
C188 C189 1.399 . S
C189 C188 1.399 . S
C189 C190 1.381 . S
C190 H182 0.930 . S
C190 C186 1.390 . S
C190 C189 1.381 . S
N191 C184 1.286 . S
N191 C187 1.413 . S
H192 C197 0.930 . S
H193 C200 0.930 . S
H194 C202 0.930 . S
H195 C196 1.016 . S
C196 H195 1.016 . S
C196 N203 1.286 . S
C197 H192 0.930 . S
C197 C198 1.397 . S
C197 C199 1.361 . S
C198 C197 1.397 . S
C198 C202 1.390 . S
C199 C197 1.361 . S
C199 C200 1.393 . S
C199 N203 1.413 . S
C200 H193 0.930 . S
C200 C199 1.393 . S
C200 C201 1.399 . S
C201 C200 1.399 . S
C201 C202 1.381 . S
C202 H194 0.930 . S
C202 C198 1.390 . S
C202 C201 1.381 . S
N203 C196 1.286 . S
N203 C199 1.413 . S
H204 C209 0.930 . S
H205 C212 0.930 . S
H206 C214 0.930 . S
H207 C208 1.016 . S
C208 H207 1.016 . S
C208 N215 1.286 . S
C209 H204 0.930 . S
C209 C210 1.397 . S
C209 C211 1.361 . S
C210 C209 1.397 . S
C210 C214 1.390 . S
C211 C209 1.361 . S
C211 C212 1.393 . S
C211 N215 1.413 . S
C212 H205 0.930 . S
C212 C211 1.393 . S
C212 C213 1.399 . S
C213 C212 1.399 . S
C213 C214 1.381 . S
C214 H206 0.930 . S
C214 C210 1.390 . S
C214 C213 1.381 . S
N215 C208 1.286 . S
N215 C211 1.413 . S
Eu216 N247 2.657 . S
Eu216 N254 2.609 . S
Eu216 O260 2.558 . S
Eu216 O261 2.612 1_566 S
Eu216 O263 2.339 1_565 S
Eu216 O264 2.563 1_565 S
Eu216 O265 2.419 1_565 S
Eu216 O267 2.380 1_556 S
Eu216 O268 2.434 1_556 S
Eu216 C280 2.846 1_565 S
C217 C220 1.429 . S
C217 C221 1.411 . S
C217 N224 1.377 . S
C218 C220 1.420 . S
C218 C222 1.423 . S
C218 C230 1.392 . S
C219 C221 1.420 . S
C219 C222 1.351 . S
C219 H242 0.931 . S
C220 C217 1.429 . S
C220 C218 1.420 . S
C220 N228 1.362 . S
C221 C217 1.411 . S
C221 C219 1.420 . S
C221 C226 1.395 . S
C222 C218 1.423 . S
C222 C219 1.351 . S
C222 H234 0.930 . S
C223 C225 1.400 . S
C223 C226 1.386 . S
C223 H235 0.930 . S
N224 C217 1.377 . S
N224 C225 1.321 . S
N224 Eu227 2.609 . S
C225 C223 1.400 . S
C225 N224 1.321 . S
C225 H232 0.930 . S
C226 C221 1.395 . S
C226 C223 1.386 . S
C226 H245 0.930 . S
Eu227 N224 2.609 . S
Eu227 N228 2.657 . S
Eu227 O261 2.380 . S
Eu227 O262 2.432 . S
Eu227 O266 2.558 . S
Eu227 O267 2.612 1_545 S
Eu227 O269 2.339 1_545 S
Eu227 O270 2.563 1_545 S
Eu227 O271 2.419 1_545 S
Eu227 C291 2.848 . S
N228 C220 1.362 . S
N228 Eu227 2.657 . S
N228 C229 1.334 . S
C229 N228 1.334 . S
C229 C231 1.413 . S
C229 H236 0.929 . S
C230 C218 1.392 . S
C230 C231 1.367 . S
C230 H238 0.930 . S
C231 C229 1.413 . S
C231 C230 1.367 . S
C231 H233 0.930 . S
H232 C225 0.930 . S
H233 C231 0.930 . S
H234 C222 0.930 . S
H235 C223 0.930 . S
H236 C229 0.929 . S
H237 C251 0.930 . S
H238 C230 0.930 . S
H239 C257 0.930 . S
H240 C248 0.966 . S
H241 C255 0.930 . S
H242 C219 0.931 . S
H243 C249 0.930 . S
H244 C282 0.930 . S
H245 C226 0.930 . S
H246 C281 0.931 . S
N247 Eu216 2.657 . S
N247 C248 1.334 . S
N247 C252 1.362 . S
C248 H240 0.966 . S
C248 N247 1.334 . S
C248 C251 1.413 . S
C249 H243 0.930 . S
C249 C250 1.392 . S
C249 C251 1.367 . S
C250 C249 1.392 . S
C250 C252 1.420 . S
C250 C282 1.423 . S
C251 H237 0.930 . S
C251 C248 1.413 . S
C251 C249 1.367 . S
C252 N247 1.362 . S
C252 C250 1.420 . S
C252 C256 1.429 . S
H253 C258 0.930 . S
N254 Eu216 2.609 . S
N254 C256 1.377 . S
N254 C257 1.321 . S
C255 H241 0.930 . S
C255 C257 1.400 . S
C255 C258 1.386 . S
C256 C252 1.429 . S
C256 N254 1.377 . S
C256 C259 1.411 . S
C257 H239 0.930 . S
C257 N254 1.321 . S
C257 C255 1.400 . S
C258 H253 0.930 . S
C258 C255 1.386 . S
C258 C259 1.395 . S
C259 C256 1.411 . S
C259 C258 1.395 . S
C259 C281 1.420 . S
O260 Eu216 2.558 . S
O260 C280 1.239 1_565 S
O261 Eu216 2.612 1_544 S
O261 Eu227 2.380 . S
O261 C272 1.276 1_554 S
O262 Eu227 2.432 . S
O262 C279 1.264 . S
O263 Eu216 2.339 1_545 S
O263 C279 1.254 1_556 S
O264 Eu216 2.563 1_545 S
O264 C272 1.235 . S
O265 Eu216 2.419 1_545 S
O265 C280 1.265 . S
O266 Eu227 2.558 . S
O266 C291 1.257 . S
O267 Eu216 2.380 1_554 S
O267 Eu227 2.612 1_565 S
O267 C283 1.276 . S
O268 Eu216 2.434 1_554 S
O268 C290 1.260 . S
O269 Eu227 2.339 1_565 S
O269 C290 1.254 . S
O270 Eu227 2.563 1_565 S
O270 C283 1.235 . S
O271 Eu227 2.419 1_565 S
O271 C291 1.249 1_565 S
C272 O261 1.276 1_556 S
C272 O264 1.235 . S
C273 C275 1.393 . S
C273 C277 1.395 1_545 S
C273 C280 1.495 . S
C274 C275 1.392 . S
C274 C276 1.386 . S
C275 C273 1.393 . S
C275 C274 1.392 . S
C275 H292 0.930 . S
C276 C274 1.386 . S
C276 C278 1.395 1_545 S
C276 H293 0.930 . S
C277 C273 1.395 1_565 S
C277 C278 1.379 . S
C277 H294 0.930 . S
C278 C276 1.395 1_565 S
C278 C277 1.379 . S
C278 H295 0.930 . S
C279 O262 1.264 . S
C279 O263 1.254 1_554 S
C280 Eu216 2.846 1_545 S
C280 O260 1.239 1_545 S
C280 O265 1.265 . S
C280 C273 1.495 . S
C281 H246 0.931 . S
C281 C259 1.420 . S
C281 C282 1.351 . S
C282 H244 0.930 . S
C282 C250 1.423 . S
C282 C281 1.351 . S
C283 O267 1.276 . S
C283 O270 1.235 . S
C284 C285 1.393 1_545 S
C284 C288 1.395 . S
C284 C291 1.492 . S
C285 C284 1.393 1_565 S
C285 C286 1.392 . S
C285 H296 0.930 . S
C286 C285 1.392 . S
C286 C287 1.386 . S
C287 C286 1.386 . S
C287 C289 1.395 1_565 S
C287 H297 0.930 . S
C288 C284 1.395 . S
C288 C289 1.379 . S
C288 H298 0.930 . S
C289 C287 1.395 1_545 S
C289 C288 1.379 . S
C289 H299 0.930 . S
C290 O268 1.260 . S
C290 O269 1.254 . S
C291 Eu227 2.848 . S
C291 O266 1.257 . S
C291 O271 1.249 1_545 S
C291 C284 1.492 . S
H292 C275 0.930 . S
H293 C276 0.930 . S
H294 C277 0.930 . S
H295 C278 0.930 . S
H296 C285 0.930 . S
H297 C287 0.930 . S
H298 C288 0.930 . S
H299 C289 0.930 . S
Eu300 N331 2.657 . S
Eu300 N338 2.609 . S
Eu300 O344 2.558 . S
Eu300 O345 2.612 1_456 S
Eu300 O347 2.339 1_455 S
Eu300 O348 2.563 1_455 S
Eu300 O349 2.422 . S
Eu300 O351 2.380 1_556 S
Eu300 O352 2.432 1_556 S
Eu300 C364 2.848 . S
C301 C304 1.429 . S
C301 C305 1.411 . S
C301 N308 1.377 . S
C302 C304 1.420 . S
C302 C306 1.423 . S
C302 C314 1.392 . S
C303 C305 1.420 . S
C303 C306 1.351 . S
C303 H326 0.931 . S
C304 C301 1.429 . S
C304 C302 1.420 . S
C304 N312 1.362 . S
C305 C301 1.411 . S
C305 C303 1.420 . S
C305 C310 1.395 . S
C306 C302 1.423 . S
C306 C303 1.351 . S
C306 H318 0.930 . S
C307 C309 1.400 . S
C307 C310 1.386 . S
C307 H319 0.930 . S
N308 C301 1.377 . S
N308 C309 1.321 . S
N308 Eu311 2.609 . S
C309 C307 1.400 . S
C309 N308 1.321 . S
C309 H316 0.930 . S
C310 C305 1.395 . S
C310 C307 1.386 . S
C310 H329 0.930 . S
Eu311 N308 2.609 . S
Eu311 N312 2.657 . S
Eu311 O345 2.380 . S
Eu311 O346 2.432 . S
Eu311 O350 2.558 . S
Eu311 O351 2.612 1_655 S
Eu311 O353 2.339 1_655 S
Eu311 O354 2.563 1_655 S
Eu311 O355 2.419 1_655 S
Eu311 C375 2.856 . S
N312 C304 1.362 . S
N312 Eu311 2.657 . S
N312 C313 1.334 . S
C313 N312 1.334 . S
C313 C315 1.413 . S
C313 H320 0.929 . S
C314 C302 1.392 . S
C314 C315 1.367 . S
C314 H322 0.930 . S
C315 C313 1.413 . S
C315 C314 1.367 . S
C315 H317 0.930 . S
H316 C309 0.930 . S
H317 C315 0.930 . S
H318 C306 0.930 . S
H319 C307 0.930 . S
H320 C313 0.929 . S
H321 C335 0.930 . S
H322 C314 0.930 . S
H323 C341 0.930 . S
H324 C332 0.929 . S
H325 C339 0.930 . S
H326 C303 0.931 . S
H327 C333 0.930 . S
H328 C366 0.930 . S
H329 C310 0.930 . S
H330 C365 0.931 . S
N331 Eu300 2.657 . S
N331 C332 1.334 . S
N331 C336 1.362 . S
C332 H324 0.929 . S
C332 N331 1.334 . S
C332 C335 1.413 . S
C333 H327 0.930 . S
C333 C334 1.392 . S
C333 C335 1.367 . S
C334 C333 1.392 . S
C334 C336 1.420 . S
C334 C366 1.423 . S
C335 H321 0.930 . S
C335 C332 1.413 . S
C335 C333 1.367 . S
C336 N331 1.362 . S
C336 C334 1.420 . S
C336 C340 1.429 . S
H337 C342 0.930 . S
N338 Eu300 2.609 . S
N338 C340 1.377 . S
N338 C341 1.321 . S
C339 H325 0.930 . S
C339 C341 1.400 . S
C339 C342 1.386 . S
C340 C336 1.429 . S
C340 N338 1.377 . S
C340 C343 1.411 . S
C341 H323 0.930 . S
C341 N338 1.321 . S
C341 C339 1.400 . S
C342 H337 0.930 . S
C342 C339 1.386 . S
C342 C343 1.395 . S
C343 C340 1.411 . S
C343 C342 1.395 . S
C343 C365 1.420 . S
O344 Eu300 2.558 . S
O344 C364 1.257 . S
O345 Eu300 2.612 1_654 S
O345 Eu311 2.380 . S
O345 C356 1.276 1_554 S
O346 Eu311 2.432 . S
O346 C363 1.264 . S
O347 Eu300 2.339 1_655 S
O347 C363 1.254 1_556 S
O348 Eu300 2.563 1_655 S
O348 C356 1.235 . S
O349 Eu300 2.422 . S
O349 C364 1.248 . S
O350 Eu311 2.558 . S
O350 C375 1.266 . S
O351 Eu300 2.380 1_554 S
O351 Eu311 2.612 1_455 S
O351 C367 1.276 . S
O352 Eu300 2.432 1_554 S
O352 C374 1.264 . S
O353 Eu311 2.339 1_455 S
O353 C374 1.254 . S
O354 Eu311 2.563 1_455 S
O354 C367 1.235 . S
O355 Eu311 2.419 1_455 S
O355 C375 1.252 1_455 S
C356 O345 1.276 1_556 S
C356 O348 1.235 . S
C357 C359 1.393 1_455 S
C357 C361 1.395 . S
C357 C364 1.492 . S
C358 C359 1.392 . S
C358 C360 1.386 . S
C359 C357 1.393 1_655 S
C359 C358 1.392 . S
C359 H376 0.930 . S
C360 C358 1.386 . S
C360 C362 1.395 1_655 S
C360 H377 0.930 . S
C361 C357 1.395 . S
C361 C362 1.379 . S
C361 H378 0.930 . S
C362 C360 1.395 1_455 S
C362 C361 1.379 . S
C362 H379 0.930 . S
C363 O346 1.264 . S
C363 O347 1.254 1_554 S
C364 Eu300 2.848 . S
C364 O344 1.257 . S
C364 O349 1.248 . S
C364 C357 1.492 . S
C365 H330 0.931 . S
C365 C343 1.420 . S
C365 C366 1.351 . S
C366 H328 0.930 . S
C366 C334 1.423 . S
C366 C365 1.351 . S
C367 O351 1.276 . S
C367 O354 1.235 . S
C368 C369 1.393 . S
C368 C372 1.395 1_455 S
C368 C375 1.481 1_455 S
C369 C368 1.393 . S
C369 C370 1.392 . S
C369 H380 0.930 . S
C370 C369 1.392 . S
C370 C371 1.386 . S
C371 C370 1.386 . S
C371 C373 1.395 1_455 S
C371 H381 0.930 . S
C372 C368 1.395 1_655 S
C372 C373 1.379 . S
C372 H382 0.930 . S
C373 C371 1.395 1_655 S
C373 C372 1.379 . S
C373 H383 0.930 . S
C374 O352 1.264 . S
C374 O353 1.254 . S
C375 Eu311 2.856 . S
C375 O350 1.266 . S
C375 O355 1.252 1_655 S
C375 C368 1.481 1_655 S
H376 C359 0.930 . S
H377 C360 0.930 . S
H378 C361 0.930 . S
H379 C362 0.930 . S
H380 C369 0.930 . S
H381 C371 0.930 . S
H382 C372 0.930 . S
H383 C373 0.930 . S
Eu384 N415 2.657 . S
Eu384 N422 2.609 . S
Eu384 O428 2.558 . S
Eu384 O429 2.612 . S
Eu384 O431 2.339 . S
Eu384 O432 2.563 . S
Eu384 O433 2.419 . S
Eu384 O435 2.380 . S
Eu384 O436 2.432 . S
Eu384 C448 2.848 . S
C385 C388 1.429 . S
C385 C389 1.411 . S
C385 N392 1.377 . S
C386 C388 1.420 . S
C386 C390 1.423 . S
C386 C398 1.392 . S
C387 C389 1.420 . S
C387 C390 1.351 . S
C387 H410 0.931 . S
C388 C385 1.429 . S
C388 C386 1.420 . S
C388 N396 1.362 . S
C389 C385 1.411 . S
C389 C387 1.420 . S
C389 C394 1.395 . S
C390 C386 1.423 . S
C390 C387 1.351 . S
C390 H402 0.930 . S
C391 C393 1.400 . S
C391 C394 1.386 . S
C391 H403 0.930 . S
N392 C385 1.377 . S
N392 C393 1.321 . S
N392 Eu395 2.609 . S
C393 C391 1.400 . S
C393 N392 1.321 . S
C393 H400 0.930 . S
C394 C389 1.395 . S
C394 C391 1.386 . S
C394 H413 0.930 . S
Eu395 N392 2.609 . S
Eu395 N396 2.657 . S
Eu395 O429 2.380 1_556 S
Eu395 O430 2.432 1_556 S
Eu395 O434 2.558 . S
Eu395 O435 2.612 1_556 S
Eu395 O437 2.339 . S
Eu395 O438 2.563 . S
Eu395 O439 2.419 . S
Eu395 C459 2.848 . S
N396 C388 1.362 . S
N396 Eu395 2.657 . S
N396 C397 1.334 . S
C397 N396 1.334 . S
C397 C399 1.413 . S
C397 H404 0.929 . S
C398 C386 1.392 . S
C398 C399 1.367 . S
C398 H406 0.930 . S
C399 C397 1.413 . S
C399 C398 1.367 . S
C399 H401 0.930 . S
H400 C393 0.930 . S
H401 C399 0.930 . S
H402 C390 0.930 . S
H403 C391 0.930 . S
H404 C397 0.929 . S
H405 C419 0.930 . S
H406 C398 0.930 . S
H407 C425 0.930 . S
H408 C416 0.929 . S
H409 C423 0.930 . S
H410 C387 0.931 . S
H411 C417 0.930 . S
H412 C450 0.930 . S
H413 C394 0.930 . S
H414 C449 0.931 . S
N415 Eu384 2.657 . S
N415 C416 1.334 . S
N415 C420 1.362 . S
C416 H408 0.929 . S
C416 N415 1.334 . S
C416 C419 1.413 . S
C417 H411 0.930 . S
C417 C418 1.392 . S
C417 C419 1.367 . S
C418 C417 1.392 . S
C418 C420 1.420 . S
C418 C450 1.423 . S
C419 H405 0.930 . S
C419 C416 1.413 . S
C419 C417 1.367 . S
C420 N415 1.362 . S
C420 C418 1.420 . S
C420 C424 1.429 . S
H421 C426 0.930 . S
N422 Eu384 2.609 . S
N422 C424 1.377 . S
N422 C425 1.321 . S
C423 H409 0.930 . S
C423 C425 1.400 . S
C423 C426 1.386 . S
C424 C420 1.429 . S
C424 N422 1.377 . S
C424 C427 1.411 . S
C425 H407 0.930 . S
C425 N422 1.321 . S
C425 C423 1.400 . S
C426 H421 0.930 . S
C426 C423 1.386 . S
C426 C427 1.395 . S
C427 C424 1.411 . S
C427 C426 1.395 . S
C427 C449 1.420 . S
O428 Eu384 2.558 . S
O428 C448 1.257 . S
O429 Eu384 2.612 . S
O429 Eu395 2.380 1_554 S
O429 C440 1.276 . S
O430 Eu395 2.432 1_554 S
O430 C447 1.264 . S
O431 Eu384 2.339 . S
O431 C447 1.254 . S
O432 Eu384 2.563 . S
O432 C440 1.235 . S
O433 Eu384 2.419 . S
O433 C448 1.249 . S
O434 Eu395 2.558 . S
O434 C459 1.257 . S
O435 Eu384 2.380 . S
O435 Eu395 2.612 1_554 S
O435 C451 1.276 1_554 S
O436 Eu384 2.432 . S
O436 C458 1.264 . S
O437 Eu395 2.339 . S
O437 C458 1.254 1_556 S
O438 Eu395 2.563 . S
O438 C451 1.235 . S
O439 Eu395 2.419 . S
O439 C459 1.249 . S
C440 O429 1.276 . S
C440 O432 1.235 . S
C441 C443 1.393 . S
C441 C445 1.395 . S
C441 C448 1.492 . S
C442 C443 1.392 . S
C442 C444 1.386 . S
C443 C441 1.393 . S
C443 C442 1.392 . S
C443 H460 0.930 . S
C444 C442 1.386 . S
C444 C446 1.395 . S
C444 H461 0.930 . S
C445 C441 1.395 . S
C445 C446 1.379 . S
C445 H462 0.930 . S
C446 C444 1.395 . S
C446 C445 1.379 . S
C446 H463 0.930 . S
C447 O430 1.264 . S
C447 O431 1.254 . S
C448 Eu384 2.848 . S
C448 O428 1.257 . S
C448 O433 1.249 . S
C448 C441 1.492 . S
C449 H414 0.931 . S
C449 C427 1.420 . S
C449 C450 1.351 . S
C450 H412 0.930 . S
C450 C418 1.423 . S
C450 C449 1.351 . S
C451 O435 1.276 1_556 S
C451 O438 1.235 . S
C452 C453 1.393 . S
C452 C456 1.395 . S
C452 C459 1.492 . S
C453 C452 1.393 . S
C453 C454 1.392 . S
C453 H464 0.930 . S
C454 C453 1.392 . S
C454 C455 1.386 . S
C455 C454 1.386 . S
C455 C457 1.395 . S
C455 H465 0.930 . S
C456 C452 1.395 . S
C456 C457 1.379 . S
C456 H466 0.930 . S
C457 C455 1.395 . S
C457 C456 1.379 . S
C457 H467 0.930 . S
C458 O436 1.264 . S
C458 O437 1.254 1_554 S
C459 Eu395 2.848 . S
C459 O434 1.257 . S
C459 O439 1.249 . S
C459 C452 1.492 . S
H460 C443 0.930 . S
H461 C444 0.930 . S
H462 C445 0.930 . S
H463 C446 0.930 . S
H464 C453 0.930 . S
H465 C455 0.930 . S
H466 C456 0.930 . S
H467 C457 0.930 . S
Eu468 N499 2.657 . S
Eu468 N506 2.609 . S
Eu468 O512 2.558 . S
Eu468 O513 2.612 . S
Eu468 O515 2.339 . S
Eu468 O516 2.563 . S
Eu468 O517 2.419 . S
Eu468 O519 2.380 . S
Eu468 O520 2.432 . S
Eu468 C532 2.848 . S
C469 C472 1.429 . S
C469 C473 1.411 . S
C469 N476 1.377 . S
C470 C472 1.420 . S
C470 C474 1.423 . S
C470 C482 1.392 . S
C471 C473 1.420 . S
C471 C474 1.351 . S
C471 H494 0.931 . S
C472 C469 1.429 . S
C472 C470 1.420 . S
C472 N480 1.362 . S
C473 C469 1.411 . S
C473 C471 1.420 . S
C473 C478 1.395 . S
C474 C470 1.423 . S
C474 C471 1.351 . S
C474 H486 0.930 . S
C475 C477 1.400 . S
C475 C478 1.386 . S
C475 H487 0.930 . S
N476 C469 1.377 . S
N476 C477 1.321 . S
N476 Eu479 2.609 . S
C477 C475 1.400 . S
C477 N476 1.321 . S
C477 H484 0.930 . S
C478 C473 1.395 . S
C478 C475 1.386 . S
C478 H497 0.930 . S
Eu479 N476 2.609 . S
Eu479 N480 2.657 . S
Eu479 O513 2.380 . S
Eu479 O514 2.432 . S
Eu479 O518 2.558 . S
Eu479 O519 2.612 . S
Eu479 O521 2.339 . S
Eu479 O522 2.563 . S
Eu479 O523 2.419 . S
Eu479 C543 2.848 . S
N480 C472 1.362 . S
N480 Eu479 2.657 . S
N480 C481 1.334 . S
C481 N480 1.334 . S
C481 C483 1.413 . S
C481 H488 0.929 . S
C482 C470 1.392 . S
C482 C483 1.367 . S
C482 H490 0.930 . S
C483 C481 1.413 . S
C483 C482 1.367 . S
C483 H485 0.930 . S
H484 C477 0.930 . S
H485 C483 0.930 . S
H486 C474 0.930 . S
H487 C475 0.930 . S
H488 C481 0.929 . S
H489 C503 0.930 . S
H490 C482 0.930 . S
H491 C509 0.930 . S
H492 C500 0.929 . S
H493 C507 0.930 . S
H494 C471 0.931 . S
H495 C501 0.930 . S
H496 C534 0.930 . S
H497 C478 0.930 . S
H498 C533 0.931 . S
N499 Eu468 2.657 . S
N499 C500 1.334 . S
N499 C504 1.362 . S
C500 H492 0.929 . S
C500 N499 1.334 . S
C500 C503 1.413 . S
C501 H495 0.930 . S
C501 C502 1.392 . S
C501 C503 1.367 . S
C502 C501 1.392 . S
C502 C504 1.420 . S
C502 C534 1.423 . S
C503 H489 0.930 . S
C503 C500 1.413 . S
C503 C501 1.367 . S
C504 N499 1.362 . S
C504 C502 1.420 . S
C504 C508 1.429 . S
H505 C510 0.930 . S
N506 Eu468 2.609 . S
N506 C508 1.377 . S
N506 C509 1.321 . S
C507 H493 0.930 . S
C507 C509 1.400 . S
C507 C510 1.386 . S
C508 C504 1.429 . S
C508 N506 1.377 . S
C508 C511 1.411 . S
C509 H491 0.930 . S
C509 N506 1.321 . S
C509 C507 1.400 . S
C510 H505 0.930 . S
C510 C507 1.386 . S
C510 C511 1.395 . S
C511 C508 1.411 . S
C511 C510 1.395 . S
C511 C533 1.420 . S
O512 Eu468 2.558 . S
O512 C532 1.257 . S
O513 Eu468 2.612 . S
O513 Eu479 2.380 . S
O513 C524 1.276 . S
O514 Eu479 2.432 . S
O514 C531 1.264 . S
O515 Eu468 2.339 . S
O515 C531 1.254 . S
O516 Eu468 2.563 . S
O516 C524 1.235 . S
O517 Eu468 2.419 . S
O517 C532 1.249 . S
O518 Eu479 2.558 . S
O518 C543 1.257 . S
O519 Eu468 2.380 . S
O519 Eu479 2.612 . S
O519 C535 1.276 . S
O520 Eu468 2.432 . S
O520 C542 1.264 . S
O521 Eu479 2.339 . S
O521 C542 1.254 . S
O522 Eu479 2.563 . S
O522 C535 1.235 . S
O523 Eu479 2.419 . S
O523 C543 1.249 . S
C524 O513 1.276 . S
C524 O516 1.235 . S
C525 C527 1.393 . S
C525 C529 1.395 . S
C525 C532 1.492 . S
C526 C527 1.392 . S
C526 C528 1.386 . S
C527 C525 1.393 . S
C527 C526 1.392 . S
C527 H544 0.930 . S
C528 C526 1.386 . S
C528 C530 1.395 . S
C528 H545 0.930 . S
C529 C525 1.395 . S
C529 C530 1.379 . S
C529 H546 0.930 . S
C530 C528 1.395 . S
C530 C529 1.379 . S
C530 H547 0.930 . S
C531 O514 1.264 . S
C531 O515 1.254 . S
C532 Eu468 2.848 . S
C532 O512 1.257 . S
C532 O517 1.249 . S
C532 C525 1.492 . S
C533 H498 0.931 . S
C533 C511 1.420 . S
C533 C534 1.351 . S
C534 H496 0.930 . S
C534 C502 1.423 . S
C534 C533 1.351 . S
C535 O519 1.276 . S
C535 O522 1.235 . S
C536 C537 1.393 . S
C536 C540 1.395 . S
C536 C543 1.492 . S
C537 C536 1.393 . S
C537 C538 1.392 . S
C537 H548 0.930 . S
C538 C537 1.392 . S
C538 C539 1.386 . S
C539 C538 1.386 . S
C539 C541 1.395 . S
C539 H549 0.930 . S
C540 C536 1.395 . S
C540 C541 1.379 . S
C540 H550 0.930 . S
C541 C539 1.395 . S
C541 C540 1.379 . S
C541 H551 0.930 . S
C542 O520 1.264 . S
C542 O521 1.254 . S
C543 Eu479 2.848 . S
C543 O518 1.257 . S
C543 O523 1.249 . S
C543 C536 1.492 . S
H544 C527 0.930 . S
H545 C528 0.930 . S
H546 C529 0.930 . S
H547 C530 0.930 . S
H548 C537 0.930 . S
H549 C539 0.930 . S
H550 C540 0.930 . S
H551 C541 0.930 . S
Eu552 N583 2.657 . S
Eu552 N590 2.609 . S
Eu552 O596 2.558 . S
Eu552 O597 2.612 . S
Eu552 O599 2.339 . S
Eu552 O600 2.563 . S
Eu552 O601 2.419 . S
Eu552 O603 2.380 . S
Eu552 O604 2.432 . S
Eu552 C616 2.848 . S
C553 C556 1.429 . S
C553 C557 1.411 . S
C553 N560 1.377 . S
C554 C556 1.420 . S
C554 C558 1.423 . S
C554 C566 1.392 . S
C555 C557 1.420 . S
C555 C558 1.351 . S
C555 H578 0.931 . S
C556 C553 1.429 . S
C556 C554 1.420 . S
C556 N564 1.362 . S
C557 C553 1.411 . S
C557 C555 1.420 . S
C557 C562 1.395 . S
C558 C554 1.423 . S
C558 C555 1.351 . S
C558 H570 0.930 . S
C559 C561 1.400 . S
C559 C562 1.386 . S
C559 H571 0.930 . S
N560 C553 1.377 . S
N560 C561 1.321 . S
N560 Eu563 2.609 . S
C561 C559 1.400 . S
C561 N560 1.321 . S
C561 H568 0.930 . S
C562 C557 1.395 . S
C562 C559 1.386 . S
C562 H581 0.930 . S
Eu563 N560 2.609 . S
Eu563 N564 2.657 . S
Eu563 O597 2.380 . S
Eu563 O598 2.432 . S
Eu563 O602 2.558 . S
Eu563 O603 2.612 . S
Eu563 O605 2.339 . S
Eu563 O606 2.563 . S
Eu563 O607 2.419 . S
Eu563 C627 2.848 . S
N564 C556 1.362 . S
N564 Eu563 2.657 . S
N564 C565 1.334 . S
C565 N564 1.334 . S
C565 C567 1.413 . S
C565 H572 0.929 . S
C566 C554 1.392 . S
C566 C567 1.367 . S
C566 H574 0.930 . S
C567 C565 1.413 . S
C567 C566 1.367 . S
C567 H569 0.930 . S
H568 C561 0.930 . S
H569 C567 0.930 . S
H570 C558 0.930 . S
H571 C559 0.930 . S
H572 C565 0.929 . S
H573 C587 0.930 . S
H574 C566 0.930 . S
H575 C593 0.930 . S
H576 C584 0.929 . S
H577 C591 0.930 . S
H578 C555 0.931 . S
H579 C585 0.930 . S
H580 C618 0.930 . S
H581 C562 0.930 . S
H582 C617 0.931 . S
N583 Eu552 2.657 . S
N583 C584 1.334 . S
N583 C588 1.362 . S
C584 H576 0.929 . S
C584 N583 1.334 . S
C584 C587 1.413 . S
C585 H579 0.930 . S
C585 C586 1.392 . S
C585 C587 1.367 . S
C586 C585 1.392 . S
C586 C588 1.420 . S
C586 C618 1.423 . S
C587 H573 0.930 . S
C587 C584 1.413 . S
C587 C585 1.367 . S
C588 N583 1.362 . S
C588 C586 1.420 . S
C588 C592 1.429 . S
H589 C594 0.930 . S
N590 Eu552 2.609 . S
N590 C592 1.377 . S
N590 C593 1.321 . S
C591 H577 0.930 . S
C591 C593 1.400 . S
C591 C594 1.386 . S
C592 C588 1.429 . S
C592 N590 1.377 . S
C592 C595 1.411 . S
C593 H575 0.930 . S
C593 N590 1.321 . S
C593 C591 1.400 . S
C594 H589 0.930 . S
C594 C591 1.386 . S
C594 C595 1.395 . S
C595 C592 1.411 . S
C595 C594 1.395 . S
C595 C617 1.420 . S
O596 Eu552 2.558 . S
O596 C616 1.257 . S
O597 Eu552 2.612 . S
O597 Eu563 2.380 . S
O597 C608 1.276 . S
O598 Eu563 2.432 . S
O598 C615 1.264 . S
O599 Eu552 2.339 . S
O599 C615 1.254 . S
O600 Eu552 2.563 . S
O600 C608 1.235 . S
O601 Eu552 2.419 . S
O601 C616 1.249 . S
O602 Eu563 2.558 . S
O602 C627 1.257 . S
O603 Eu552 2.380 . S
O603 Eu563 2.612 . S
O603 C619 1.276 . S
O604 Eu552 2.432 . S
O604 C626 1.264 . S
O605 Eu563 2.339 . S
O605 C626 1.254 . S
O606 Eu563 2.563 . S
O606 C619 1.235 . S
O607 Eu563 2.419 . S
O607 C627 1.249 . S
C608 O597 1.276 . S
C608 O600 1.235 . S
C609 C611 1.393 . S
C609 C613 1.395 . S
C609 C616 1.492 . S
C610 C611 1.392 . S
C610 C612 1.386 . S
C611 C609 1.393 . S
C611 C610 1.392 . S
C611 H628 0.930 . S
C612 C610 1.386 . S
C612 C614 1.395 . S
C612 H629 0.930 . S
C613 C609 1.395 . S
C613 C614 1.379 . S
C613 H630 0.930 . S
C614 C612 1.395 . S
C614 C613 1.379 . S
C614 H631 0.930 . S
C615 O598 1.264 . S
C615 O599 1.254 . S
C616 Eu552 2.848 . S
C616 O596 1.257 . S
C616 O601 1.249 . S
C616 C609 1.492 . S
C617 H582 0.931 . S
C617 C595 1.420 . S
C617 C618 1.351 . S
C618 H580 0.930 . S
C618 C586 1.423 . S
C618 C617 1.351 . S
C619 O603 1.276 . S
C619 O606 1.235 . S
C620 C621 1.393 . S
C620 C624 1.395 . S
C620 C627 1.492 . S
C621 C620 1.393 . S
C621 C622 1.392 . S
C621 H632 0.930 . S
C622 C621 1.392 . S
C622 C623 1.386 . S
C623 C622 1.386 . S
C623 C625 1.395 . S
C623 H633 0.930 . S
C624 C620 1.395 . S
C624 C625 1.379 . S
C624 H634 0.930 . S
C625 C623 1.395 . S
C625 C624 1.379 . S
C625 H635 0.930 . S
C626 O604 1.264 . S
C626 O605 1.254 . S
C627 Eu563 2.848 . S
C627 O602 1.257 . S
C627 O607 1.249 . S
C627 C620 1.492 . S
H628 C611 0.930 . S
H629 C612 0.930 . S
H630 C613 0.930 . S
H631 C614 0.930 . S
H632 C621 0.930 . S
H633 C623 0.930 . S
H634 C624 0.930 . S
H635 C625 0.930 . S
Eu636 N667 2.657 . S
Eu636 N674 2.609 . S
Eu636 O680 2.558 . S
Eu636 O681 2.612 . S
Eu636 O683 2.339 . S
Eu636 O684 2.563 . S
Eu636 O685 2.419 . S
Eu636 O687 2.380 . S
Eu636 O688 2.432 . S
Eu636 C700 2.848 . S
C637 C640 1.429 . S
C637 C641 1.411 . S
C637 N644 1.377 . S
C638 C640 1.420 . S
C638 C642 1.423 . S
C638 C650 1.392 . S
C639 C641 1.420 . S
C639 C642 1.351 . S
C639 H662 0.931 . S
C640 C637 1.429 . S
C640 C638 1.420 . S
C640 N648 1.362 . S
C641 C637 1.411 . S
C641 C639 1.420 . S
C641 C646 1.395 . S
C642 C638 1.423 . S
C642 C639 1.351 . S
C642 H654 0.930 . S
C643 C645 1.400 . S
C643 C646 1.386 . S
C643 H655 0.930 . S
N644 C637 1.377 . S
N644 C645 1.321 . S
N644 Eu647 2.609 . S
C645 C643 1.400 . S
C645 N644 1.321 . S
C645 H652 0.930 . S
C646 C641 1.395 . S
C646 C643 1.386 . S
C646 H665 0.930 . S
Eu647 N644 2.609 . S
Eu647 N648 2.657 . S
Eu647 O681 2.380 . S
Eu647 O682 2.432 . S
Eu647 O686 2.558 . S
Eu647 O687 2.612 . S
Eu647 O689 2.339 . S
Eu647 O690 2.563 . S
Eu647 O691 2.419 . S
Eu647 C711 2.848 . S
N648 C640 1.362 . S
N648 Eu647 2.657 . S
N648 C649 1.334 . S
C649 N648 1.334 . S
C649 C651 1.413 . S
C649 H656 0.929 . S
C650 C638 1.392 . S
C650 C651 1.367 . S
C650 H658 0.930 . S
C651 C649 1.413 . S
C651 C650 1.367 . S
C651 H653 0.930 . S
H652 C645 0.930 . S
H653 C651 0.930 . S
H654 C642 0.930 . S
H655 C643 0.930 . S
H656 C649 0.929 . S
H657 C671 0.930 . S
H658 C650 0.930 . S
H659 C677 0.930 . S
H660 C668 0.929 . S
H661 C675 0.930 . S
H662 C639 0.931 . S
H663 C669 0.930 . S
H664 C702 0.930 . S
H665 C646 0.930 . S
H666 C701 0.931 . S
N667 Eu636 2.657 . S
N667 C668 1.334 . S
N667 C672 1.362 . S
C668 H660 0.929 . S
C668 N667 1.334 . S
C668 C671 1.413 . S
C669 H663 0.930 . S
C669 C670 1.392 . S
C669 C671 1.367 . S
C670 C669 1.392 . S
C670 C672 1.420 . S
C670 C702 1.423 . S
C671 H657 0.930 . S
C671 C668 1.413 . S
C671 C669 1.367 . S
C672 N667 1.362 . S
C672 C670 1.420 . S
C672 C676 1.429 . S
H673 C678 0.930 . S
N674 Eu636 2.609 . S
N674 C676 1.377 . S
N674 C677 1.321 . S
C675 H661 0.930 . S
C675 C677 1.400 . S
C675 C678 1.386 . S
C676 C672 1.429 . S
C676 N674 1.377 . S
C676 C679 1.411 . S
C677 H659 0.930 . S
C677 N674 1.321 . S
C677 C675 1.400 . S
C678 H673 0.930 . S
C678 C675 1.386 . S
C678 C679 1.395 . S
C679 C676 1.411 . S
C679 C678 1.395 . S
C679 C701 1.420 . S
O680 Eu636 2.558 . S
O680 C700 1.257 . S
O681 Eu636 2.612 . S
O681 Eu647 2.380 . S
O681 C692 1.276 . S
O682 Eu647 2.432 . S
O682 C699 1.264 . S
O683 Eu636 2.339 . S
O683 C699 1.254 . S
O684 Eu636 2.563 . S
O684 C692 1.235 . S
O685 Eu636 2.419 . S
O685 C700 1.249 . S
O686 Eu647 2.558 . S
O686 C711 1.257 . S
O687 Eu636 2.380 . S
O687 Eu647 2.612 . S
O687 C703 1.276 . S
O688 Eu636 2.432 . S
O688 C710 1.264 . S
O689 Eu647 2.339 . S
O689 C710 1.254 . S
O690 Eu647 2.563 . S
O690 C703 1.235 . S
O691 Eu647 2.419 . S
O691 C711 1.249 . S
C692 O681 1.276 . S
C692 O684 1.235 . S
C693 C695 1.393 . S
C693 C697 1.395 . S
C693 C700 1.492 . S
C694 C695 1.392 . S
C694 C696 1.386 . S
C695 C693 1.393 . S
C695 C694 1.392 . S
C695 H712 0.930 . S
C696 C694 1.386 . S
C696 C698 1.395 . S
C696 H713 0.930 . S
C697 C693 1.395 . S
C697 C698 1.379 . S
C697 H714 0.930 . S
C698 C696 1.395 . S
C698 C697 1.379 . S
C698 H715 0.930 . S
C699 O682 1.264 . S
C699 O683 1.254 . S
C700 Eu636 2.848 . S
C700 O680 1.257 . S
C700 O685 1.249 . S
C700 C693 1.492 . S
C701 H666 0.931 . S
C701 C679 1.420 . S
C701 C702 1.351 . S
C702 H664 0.930 . S
C702 C670 1.423 . S
C702 C701 1.351 . S
C703 O687 1.276 . S
C703 O690 1.235 . S
C704 C705 1.393 . S
C704 C708 1.395 . S
C704 C711 1.492 . S
C705 C704 1.393 . S
C705 C706 1.392 . S
C705 H716 0.930 . S
C706 C705 1.392 . S
C706 C707 1.386 . S
C707 C706 1.386 . S
C707 C709 1.395 . S
C707 H717 0.930 . S
C708 C704 1.395 . S
C708 C709 1.379 . S
C708 H718 0.930 . S
C709 C707 1.395 . S
C709 C708 1.379 . S
C709 H719 0.930 . S
C710 O688 1.264 . S
C710 O689 1.254 . S
C711 Eu647 2.848 . S
C711 O686 1.257 . S
C711 O691 1.249 . S
C711 C704 1.492 . S
H712 C695 0.930 . S
H713 C696 0.930 . S
H714 C697 0.930 . S
H715 C698 0.930 . S
H716 C705 0.930 . S
H717 C707 0.930 . S
H718 C708 0.930 . S
H719 C709 0.930 . S
Eu720 N751 2.657 . S
Eu720 N758 2.609 . S
Eu720 O764 2.558 . S
Eu720 O765 2.612 . S
Eu720 O767 2.339 . S
Eu720 O768 2.563 . S
Eu720 O769 2.419 . S
Eu720 O771 2.380 . S
Eu720 O772 2.432 . S
Eu720 C784 2.848 . S
C721 C724 1.429 . S
C721 C725 1.411 . S
C721 N728 1.377 . S
C722 C724 1.420 . S
C722 C726 1.423 . S
C722 C734 1.392 . S
C723 C725 1.420 . S
C723 C726 1.351 . S
C723 H746 0.931 . S
C724 C721 1.429 . S
C724 C722 1.420 . S
C724 N732 1.362 . S
C725 C721 1.411 . S
C725 C723 1.420 . S
C725 C730 1.395 . S
C726 C722 1.423 . S
C726 C723 1.351 . S
C726 H738 0.930 . S
C727 C729 1.400 . S
C727 C730 1.386 . S
C727 H739 0.930 . S
N728 C721 1.377 . S
N728 C729 1.321 . S
N728 Eu731 2.609 . S
C729 C727 1.400 . S
C729 N728 1.321 . S
C729 H736 0.930 . S
C730 C725 1.395 . S
C730 C727 1.386 . S
C730 H749 0.930 . S
Eu731 N728 2.609 . S
Eu731 N732 2.657 . S
Eu731 O765 2.380 . S
Eu731 O766 2.432 . S
Eu731 O770 2.558 . S
Eu731 O771 2.612 . S
Eu731 O773 2.339 . S
Eu731 O774 2.563 . S
Eu731 O775 2.419 . S
Eu731 C795 2.848 . S
N732 C724 1.362 . S
N732 Eu731 2.657 . S
N732 C733 1.334 . S
C733 N732 1.334 . S
C733 C735 1.413 . S
C733 H740 0.929 . S
C734 C722 1.392 . S
C734 C735 1.367 . S
C734 H742 0.930 . S
C735 C733 1.413 . S
C735 C734 1.367 . S
C735 H737 0.930 . S
H736 C729 0.930 . S
H737 C735 0.930 . S
H738 C726 0.930 . S
H739 C727 0.930 . S
H740 C733 0.929 . S
H741 C755 0.930 . S
H742 C734 0.930 . S
H743 C761 0.930 . S
H744 C752 0.929 . S
H745 C759 0.930 . S
H746 C723 0.931 . S
H747 C753 0.930 . S
H748 C786 0.930 . S
H749 C730 0.930 . S
H750 C785 0.931 . S
N751 Eu720 2.657 . S
N751 C752 1.334 . S
N751 C756 1.362 . S
C752 H744 0.929 . S
C752 N751 1.334 . S
C752 C755 1.413 . S
C753 H747 0.930 . S
C753 C754 1.392 . S
C753 C755 1.367 . S
C754 C753 1.392 . S
C754 C756 1.420 . S
C754 C786 1.423 . S
C755 H741 0.930 . S
C755 C752 1.413 . S
C755 C753 1.367 . S
C756 N751 1.362 . S
C756 C754 1.420 . S
C756 C760 1.429 . S
H757 C762 0.930 . S
N758 Eu720 2.609 . S
N758 C760 1.377 . S
N758 C761 1.321 . S
C759 H745 0.930 . S
C759 C761 1.400 . S
C759 C762 1.386 . S
C760 C756 1.429 . S
C760 N758 1.377 . S
C760 C763 1.411 . S
C761 H743 0.930 . S
C761 N758 1.321 . S
C761 C759 1.400 . S
C762 H757 0.930 . S
C762 C759 1.386 . S
C762 C763 1.395 . S
C763 C760 1.411 . S
C763 C762 1.395 . S
C763 C785 1.420 . S
O764 Eu720 2.558 . S
O764 C784 1.257 . S
O765 Eu720 2.612 . S
O765 Eu731 2.380 . S
O765 C776 1.276 . S
O766 Eu731 2.432 . S
O766 C783 1.264 . S
O767 Eu720 2.339 . S
O767 C783 1.254 . S
O768 Eu720 2.563 . S
O768 C776 1.235 . S
O769 Eu720 2.419 . S
O769 C784 1.249 . S
O770 Eu731 2.558 . S
O770 C795 1.257 . S
O771 Eu720 2.380 . S
O771 Eu731 2.612 . S
O771 C787 1.276 . S
O772 Eu720 2.432 . S
O772 C794 1.264 . S
O773 Eu731 2.339 . S
O773 C794 1.254 . S
O774 Eu731 2.563 . S
O774 C787 1.235 . S
O775 Eu731 2.419 . S
O775 C795 1.249 . S
C776 O765 1.276 . S
C776 O768 1.235 . S
C777 C779 1.393 . S
C777 C781 1.395 . S
C777 C784 1.492 . S
C778 C779 1.392 . S
C778 C780 1.386 . S
C779 C777 1.393 . S
C779 C778 1.392 . S
C779 H796 0.930 . S
C780 C778 1.386 . S
C780 C782 1.395 . S
C780 H797 0.930 . S
C781 C777 1.395 . S
C781 C782 1.379 . S
C781 H798 0.930 . S
C782 C780 1.395 . S
C782 C781 1.379 . S
C782 H799 0.930 . S
C783 O766 1.264 . S
C783 O767 1.254 . S
C784 Eu720 2.848 . S
C784 O764 1.257 . S
C784 O769 1.249 . S
C784 C777 1.492 . S
C785 H750 0.931 . S
C785 C763 1.420 . S
C785 C786 1.351 . S
C786 H748 0.930 . S
C786 C754 1.423 . S
C786 C785 1.351 . S
C787 O771 1.276 . S
C787 O774 1.235 . S
C788 C789 1.393 . S
C788 C792 1.395 . S
C788 C795 1.492 . S
C789 C788 1.393 . S
C789 C790 1.392 . S
C789 H800 0.930 . S
C790 C789 1.392 . S
C790 C791 1.386 . S
C791 C790 1.386 . S
C791 C793 1.395 . S
C791 H801 0.930 . S
C792 C788 1.395 . S
C792 C793 1.379 . S
C792 H802 0.930 . S
C793 C791 1.395 . S
C793 C792 1.379 . S
C793 H803 0.930 . S
C794 O772 1.264 . S
C794 O773 1.254 . S
C795 Eu731 2.848 . S
C795 O770 1.257 . S
C795 O775 1.249 . S
C795 C788 1.492 . S
H796 C779 0.930 . S
H797 C780 0.930 . S
H798 C781 0.930 . S
H799 C782 0.930 . S
H800 C789 0.930 . S
H801 C791 0.930 . S
H802 C792 0.930 . S
H803 C793 0.930 . S
Eu804 N835 2.657 . S
Eu804 N842 2.609 . S
Eu804 O848 2.558 . S
Eu804 O849 2.612 . S
Eu804 O851 2.339 . S
Eu804 O852 2.563 . S
Eu804 O853 2.419 . S
Eu804 O855 2.380 . S
Eu804 O856 2.432 . S
Eu804 C868 2.848 . S
C805 C808 1.429 . S
C805 C809 1.411 . S
C805 N812 1.377 . S
C806 C808 1.420 . S
C806 C810 1.423 . S
C806 C818 1.392 . S
C807 C809 1.420 . S
C807 C810 1.351 . S
C807 H830 0.931 . S
C808 C805 1.429 . S
C808 C806 1.420 . S
C808 N816 1.362 . S
C809 C805 1.411 . S
C809 C807 1.420 . S
C809 C814 1.395 . S
C810 C806 1.423 . S
C810 C807 1.351 . S
C810 H822 0.930 . S
C811 C813 1.400 . S
C811 C814 1.386 . S
C811 H823 0.930 . S
N812 C805 1.377 . S
N812 C813 1.321 . S
N812 Eu815 2.609 . S
C813 C811 1.400 . S
C813 N812 1.321 . S
C813 H820 0.930 . S
C814 C809 1.395 . S
C814 C811 1.386 . S
C814 H833 0.930 . S
Eu815 N812 2.609 . S
Eu815 N816 2.657 . S
Eu815 O849 2.380 . S
Eu815 O850 2.432 . S
Eu815 O854 2.558 . S
Eu815 O855 2.612 . S
Eu815 O857 2.339 . S
Eu815 O858 2.563 . S
Eu815 O859 2.419 . S
Eu815 C879 2.848 . S
N816 C808 1.362 . S
N816 Eu815 2.657 . S
N816 C817 1.334 . S
C817 N816 1.334 . S
C817 C819 1.413 . S
C817 H824 0.929 . S
C818 C806 1.392 . S
C818 C819 1.367 . S
C818 H826 0.930 . S
C819 C817 1.413 . S
C819 C818 1.367 . S
C819 H821 0.930 . S
H820 C813 0.930 . S
H821 C819 0.930 . S
H822 C810 0.930 . S
H823 C811 0.930 . S
H824 C817 0.929 . S
H825 C839 0.930 . S
H826 C818 0.930 . S
H827 C845 0.930 . S
H828 C836 0.929 . S
H829 C843 0.930 . S
H830 C807 0.931 . S
H831 C837 0.930 . S
H832 C870 0.930 . S
H833 C814 0.930 . S
H834 C869 0.931 . S
N835 Eu804 2.657 . S
N835 C836 1.334 . S
N835 C840 1.362 . S
C836 H828 0.929 . S
C836 N835 1.334 . S
C836 C839 1.413 . S
C837 H831 0.930 . S
C837 C838 1.392 . S
C837 C839 1.367 . S
C838 C837 1.392 . S
C838 C840 1.420 . S
C838 C870 1.423 . S
C839 H825 0.930 . S
C839 C836 1.413 . S
C839 C837 1.367 . S
C840 N835 1.362 . S
C840 C838 1.420 . S
C840 C844 1.429 . S
H841 C846 0.930 . S
N842 Eu804 2.609 . S
N842 C844 1.377 . S
N842 C845 1.321 . S
C843 H829 0.930 . S
C843 C845 1.400 . S
C843 C846 1.386 . S
C844 C840 1.429 . S
C844 N842 1.377 . S
C844 C847 1.411 . S
C845 H827 0.930 . S
C845 N842 1.321 . S
C845 C843 1.400 . S
C846 H841 0.930 . S
C846 C843 1.386 . S
C846 C847 1.395 . S
C847 C844 1.411 . S
C847 C846 1.395 . S
C847 C869 1.420 . S
O848 Eu804 2.558 . S
O848 C868 1.257 . S
O849 Eu804 2.612 . S
O849 Eu815 2.380 . S
O849 C860 1.276 . S
O850 Eu815 2.432 . S
O850 C867 1.264 . S
O851 Eu804 2.339 . S
O851 C867 1.254 . S
O852 Eu804 2.563 . S
O852 C860 1.235 . S
O853 Eu804 2.419 . S
O853 C868 1.249 . S
O854 Eu815 2.558 . S
O854 C879 1.257 . S
O855 Eu804 2.380 . S
O855 Eu815 2.612 . S
O855 C871 1.276 . S
O856 Eu804 2.432 . S
O856 C878 1.264 . S
O857 Eu815 2.339 . S
O857 C878 1.254 . S
O858 Eu815 2.563 . S
O858 C871 1.235 . S
O859 Eu815 2.419 . S
O859 C879 1.249 . S
C860 O849 1.276 . S
C860 O852 1.235 . S
C861 C863 1.393 . S
C861 C865 1.395 . S
C861 C868 1.492 . S
C862 C863 1.392 . S
C862 C864 1.386 . S
C863 C861 1.393 . S
C863 C862 1.392 . S
C863 H880 0.930 . S
C864 C862 1.386 . S
C864 C866 1.395 . S
C864 H881 0.930 . S
C865 C861 1.395 . S
C865 C866 1.379 . S
C865 H882 0.930 . S
C866 C864 1.395 . S
C866 C865 1.379 . S
C866 H883 0.930 . S
C867 O850 1.264 . S
C867 O851 1.254 . S
C868 Eu804 2.848 . S
C868 O848 1.257 . S
C868 O853 1.249 . S
C868 C861 1.492 . S
C869 H834 0.931 . S
C869 C847 1.420 . S
C869 C870 1.351 . S
C870 H832 0.930 . S
C870 C838 1.423 . S
C870 C869 1.351 . S
C871 O855 1.276 . S
C871 O858 1.235 . S
C872 C873 1.393 . S
C872 C876 1.395 . S
C872 C879 1.492 . S
C873 C872 1.393 . S
C873 C874 1.392 . S
C873 H884 0.930 . S
C874 C873 1.392 . S
C874 C875 1.386 . S
C875 C874 1.386 . S
C875 C877 1.395 . S
C875 H885 0.930 . S
C876 C872 1.395 . S
C876 C877 1.379 . S
C876 H886 0.930 . S
C877 C875 1.395 . S
C877 C876 1.379 . S
C877 H887 0.930 . S
C878 O856 1.264 . S
C878 O857 1.254 . S
C879 Eu815 2.848 . S
C879 O854 1.257 . S
C879 O859 1.249 . S
C879 C872 1.492 . S
H880 C863 0.930 . S
H881 C864 0.930 . S
H882 C865 0.930 . S
H883 C866 0.930 . S
H884 C873 0.930 . S
H885 C875 0.930 . S
H886 C876 0.930 . S
H887 C877 0.930 . S
Eu888 N919 2.657 . S
Eu888 N926 2.609 . S
Eu888 O932 2.558 . S
Eu888 O933 2.612 . S
Eu888 O935 2.339 . S
Eu888 O936 2.563 . S
Eu888 O937 2.419 . S
Eu888 O939 2.380 . S
Eu888 O940 2.432 . S
Eu888 C952 2.848 . S
C889 C892 1.429 . S
C889 C893 1.411 . S
C889 N896 1.377 . S
C890 C892 1.420 . S
C890 C894 1.423 . S
C890 C902 1.392 . S
C891 C893 1.420 . S
C891 C894 1.351 . S
C891 H914 0.931 . S
C892 C889 1.429 . S
C892 C890 1.420 . S
C892 N900 1.362 . S
C893 C889 1.411 . S
C893 C891 1.420 . S
C893 C898 1.395 . S
C894 C890 1.423 . S
C894 C891 1.351 . S
C894 H906 0.930 . S
C895 C897 1.400 . S
C895 C898 1.386 . S
C895 H907 0.930 . S
N896 C889 1.377 . S
N896 C897 1.321 . S
N896 Eu899 2.609 . S
C897 C895 1.400 . S
C897 N896 1.321 . S
C897 H904 0.930 . S
C898 C893 1.395 . S
C898 C895 1.386 . S
C898 H917 0.930 . S
Eu899 N896 2.609 . S
Eu899 N900 2.657 . S
Eu899 O933 2.380 . S
Eu899 O934 2.432 . S
Eu899 O938 2.558 . S
Eu899 O939 2.612 . S
Eu899 O941 2.339 . S
Eu899 O942 2.563 . S
Eu899 O943 2.419 . S
Eu899 C963 2.848 . S
N900 C892 1.362 . S
N900 Eu899 2.657 . S
N900 C901 1.334 . S
C901 N900 1.334 . S
C901 C903 1.413 . S
C901 H908 0.929 . S
C902 C890 1.392 . S
C902 C903 1.367 . S
C902 H910 0.930 . S
C903 C901 1.413 . S
C903 C902 1.367 . S
C903 H905 0.930 . S
H904 C897 0.930 . S
H905 C903 0.930 . S
H906 C894 0.930 . S
H907 C895 0.930 . S
H908 C901 0.929 . S
H909 C923 0.930 . S
H910 C902 0.930 . S
H911 C929 0.930 . S
H912 C920 0.929 . S
H913 C927 0.930 . S
H914 C891 0.931 . S
H915 C921 0.930 1_455 S
H916 C954 0.930 1_455 S
H917 C898 0.930 . S
H918 C953 0.931 . S
N919 Eu888 2.657 . S
N919 C920 1.334 . S
N919 C924 1.362 . S
C920 H912 0.929 . S
C920 N919 1.334 . S
C920 C923 1.413 . S
C921 H915 0.930 1_655 S
C921 C922 1.392 . S
C921 C923 1.367 . S
C922 C921 1.392 . S
C922 C924 1.420 . S
C922 C954 1.423 . S
C923 H909 0.930 . S
C923 C920 1.413 . S
C923 C921 1.367 . S
C924 N919 1.362 . S
C924 C922 1.420 . S
C924 C928 1.429 . S
H925 C930 0.930 . S
N926 Eu888 2.609 . S
N926 C928 1.377 . S
N926 C929 1.321 . S
C927 H913 0.930 . S
C927 C929 1.400 . S
C927 C930 1.386 . S
C928 C924 1.429 . S
C928 N926 1.377 . S
C928 C931 1.411 . S
C929 H911 0.930 . S
C929 N926 1.321 . S
C929 C927 1.400 . S
C930 H925 0.930 . S
C930 C927 1.386 . S
C930 C931 1.395 . S
C931 C928 1.411 . S
C931 C930 1.395 . S
C931 C953 1.420 . S
O932 Eu888 2.558 . S
O932 C952 1.257 . S
O933 Eu888 2.612 . S
O933 Eu899 2.380 . S
O933 C944 1.276 . S
O934 Eu899 2.432 . S
O934 C951 1.264 . S
O935 Eu888 2.339 . S
O935 C951 1.254 . S
O936 Eu888 2.563 . S
O936 C944 1.235 . S
O937 Eu888 2.419 . S
O937 C952 1.249 . S
O938 Eu899 2.558 . S
O938 C963 1.257 . S
O939 Eu888 2.380 . S
O939 Eu899 2.612 . S
O939 C955 1.276 . S
O940 Eu888 2.432 . S
O940 C962 1.264 . S
O941 Eu899 2.339 . S
O941 C962 1.254 . S
O942 Eu899 2.563 . S
O942 C955 1.235 . S
O943 Eu899 2.419 . S
O943 C963 1.249 . S
C944 O933 1.276 . S
C944 O936 1.235 . S
C945 C947 1.393 . S
C945 C949 1.395 . S
C945 C952 1.492 . S
C946 C947 1.392 . S
C946 C948 1.386 . S
C947 C945 1.393 . S
C947 C946 1.392 . S
C947 H964 0.930 . S
C948 C946 1.386 . S
C948 C950 1.395 . S
C948 H965 0.930 . S
C949 C945 1.395 . S
C949 C950 1.379 . S
C949 H966 0.930 . S
C950 C948 1.395 . S
C950 C949 1.379 . S
C950 H967 0.930 . S
C951 O934 1.264 . S
C951 O935 1.254 . S
C952 Eu888 2.848 . S
C952 O932 1.257 . S
C952 O937 1.249 . S
C952 C945 1.492 . S
C953 H918 0.931 . S
C953 C931 1.420 . S
C953 C954 1.351 . S
C954 H916 0.930 1_655 S
C954 C922 1.423 . S
C954 C953 1.351 . S
C955 O939 1.276 . S
C955 O942 1.235 . S
C956 C957 1.393 . S
C956 C960 1.395 . S
C956 C963 1.492 . S
C957 C956 1.393 . S
C957 C958 1.392 . S
C957 H968 0.930 . S
C958 C957 1.392 . S
C958 C959 1.386 . S
C959 C958 1.386 . S
C959 C961 1.395 . S
C959 H969 0.930 . S
C960 C956 1.395 . S
C960 C961 1.379 . S
C960 H970 0.930 . S
C961 C959 1.395 . S
C961 C960 1.379 . S
C961 H971 0.930 . S
C962 O940 1.264 . S
C962 O941 1.254 . S
C963 Eu899 2.848 . S
C963 O938 1.257 . S
C963 O943 1.249 . S
C963 C956 1.492 . S
H964 C947 0.930 . S
H965 C948 0.930 . S
H966 C949 0.930 . S
H967 C950 0.930 . S
H968 C957 0.930 . S
H969 C959 0.930 . S
H970 C960 0.930 . S
H971 C961 0.930 . S
H972 C980 0.950 . S
H973 C985 0.950 . S
H974 C982 0.950 . S
H975 C984 0.950 . S
H976 C986 0.950 . S
H977 C988 0.950 . S
H978 C990 0.950 . S
H979 C991 0.950 . S
C980 H972 0.950 . S
C980 C981 1.386 . S
C980 C982 1.391 . S
C981 C980 1.386 . S
C981 C985 1.393 . S
C982 H974 0.950 . S
C982 C980 1.391 . S
C982 C983 1.400 . S
C983 C982 1.400 . S
C983 C984 1.398 . S
C983 C989 1.491 . S
C984 H975 0.950 . S
C984 C983 1.398 . S
C984 C985 1.391 . S
C985 H973 0.950 . S
C985 C981 1.393 . S
C985 C984 1.391 . S
C986 H976 0.950 . S
C986 C987 1.386 . S
C986 C988 1.391 . S
C987 C986 1.386 . S
C987 C991 1.393 . S
C988 H977 0.950 . S
C988 C986 1.391 . S
C988 C989 1.400 . S
C989 C983 1.491 . S
C989 C988 1.400 . S
C989 C990 1.398 . S
C990 H978 0.950 . S
C990 C989 1.398 . S
C990 C991 1.391 . S
C991 H979 0.950 . S
C991 C987 1.393 . S
C991 C990 1.391 . S
H992 C1000 0.950 . S
H993 C1005 0.950 . S
H994 C1002 0.950 . S
H995 C1004 0.950 . S
H996 C1006 0.950 . S
H997 C1008 0.950 . S
H998 C1010 0.950 . S
H999 C1011 0.950 . S
C1000 H992 0.950 . S
C1000 C1001 1.386 . S
C1000 C1002 1.391 . S
C1001 C1000 1.386 . S
C1001 C1005 1.393 . S
C1002 H994 0.950 . S
C1002 C1000 1.391 . S
C1002 C1003 1.400 . S
C1003 C1002 1.400 . S
C1003 C1004 1.398 . S
C1003 C1009 1.491 . S
C1004 H995 0.950 . S
C1004 C1003 1.398 . S
C1004 C1005 1.391 . S
C1005 H993 0.950 . S
C1005 C1001 1.393 . S
C1005 C1004 1.391 . S
C1006 H996 0.950 . S
C1006 C1007 1.386 . S
C1006 C1008 1.391 . S
C1007 C1006 1.386 . S
C1007 C1011 1.393 . S
C1008 H997 0.950 . S
C1008 C1006 1.391 . S
C1008 C1009 1.400 . S
C1009 C1003 1.491 . S
C1009 C1008 1.400 . S
C1009 C1010 1.398 . S
C1010 H998 0.950 . S
C1010 C1009 1.398 . S
C1010 C1011 1.391 . S
C1011 H999 0.950 . S
C1011 C1007 1.393 . S
C1011 C1010 1.391 . S
H1012 C1020 0.950 . S
H1013 C1025 0.950 . S
H1014 C1022 0.950 . S
H1015 C1024 0.950 . S
H1016 C1026 0.950 . S
H1017 C1028 0.950 . S
H1018 C1030 0.950 . S
H1019 C1031 0.950 1_556 S
C1020 H1012 0.950 . S
C1020 C1021 1.386 . S
C1020 C1022 1.391 . S
C1021 C1020 1.386 . S
C1021 C1025 1.393 . S
C1022 H1014 0.950 . S
C1022 C1020 1.391 . S
C1022 C1023 1.400 . S
C1023 C1022 1.400 . S
C1023 C1024 1.398 . S
C1023 C1029 1.491 . S
C1024 H1015 0.950 . S
C1024 C1023 1.398 . S
C1024 C1025 1.391 . S
C1025 H1013 0.950 . S
C1025 C1021 1.393 . S
C1025 C1024 1.391 . S
C1026 H1016 0.950 . S
C1026 C1027 1.386 . S
C1026 C1028 1.391 . S
C1027 C1026 1.386 . S
C1027 C1031 1.393 . S
C1028 H1017 0.950 . S
C1028 C1026 1.391 . S
C1028 C1029 1.400 . S
C1029 C1023 1.491 . S
C1029 C1028 1.400 . S
C1029 C1030 1.398 . S
C1030 H1018 0.950 . S
C1030 C1029 1.398 . S
C1030 C1031 1.391 . S
C1031 H1019 0.950 1_554 S
C1031 C1027 1.393 . S
C1031 C1030 1.391 . S
H1032 C1040 0.950 . S
H1033 C1045 0.950 . S
H1034 C1042 0.950 . S
H1035 C1044 0.950 . S
H1036 C1046 0.950 . S
H1037 C1048 0.950 . S
H1038 C1050 0.964 . S
H1039 C1051 0.981 . S
C1040 H1032 0.950 . S
C1040 C1041 1.386 . S
C1040 C1042 1.391 . S
C1041 C1040 1.386 . S
C1041 C1045 1.393 . S
C1042 H1034 0.950 . S
C1042 C1040 1.391 . S
C1042 C1043 1.400 . S
C1043 C1042 1.400 . S
C1043 C1044 1.398 . S
C1043 C1049 1.491 . S
C1044 H1035 0.950 . S
C1044 C1043 1.398 . S
C1044 C1045 1.391 . S
C1045 H1033 0.950 . S
C1045 C1041 1.393 . S
C1045 C1044 1.391 . S
C1046 H1036 0.950 . S
C1046 C1047 1.386 . S
C1046 C1048 1.391 . S
C1047 C1046 1.386 . S
C1047 C1051 1.379 1_556 S
C1048 H1037 0.950 . S
C1048 C1046 1.391 . S
C1048 C1049 1.400 . S
C1049 C1043 1.491 . S
C1049 C1048 1.400 . S
C1049 C1050 1.398 . S
C1050 H1038 0.964 . S
C1050 C1049 1.398 . S
C1050 C1051 1.377 1_556 S
C1051 H1039 0.981 . S
C1051 C1047 1.379 1_554 S
C1051 C1050 1.377 1_554 S
H1052 C1060 0.950 . S
H1053 C1065 0.950 . S
H1054 C1062 0.950 . S
H1055 C1064 0.950 . S
H1056 C1066 0.950 . S
H1057 C1068 0.950 . S
H1058 C1070 0.950 . S
H1059 C1071 0.943 1_554 S
C1060 H1052 0.950 . S
C1060 C1061 1.386 . S
C1060 C1062 1.391 . S
C1061 C1060 1.386 . S
C1061 C1065 1.393 . S
C1062 H1054 0.950 . S
C1062 C1060 1.391 . S
C1062 C1063 1.400 . S
C1063 C1062 1.400 . S
C1063 C1064 1.398 . S
C1063 C1069 1.491 . S
C1064 H1055 0.950 . S
C1064 C1063 1.398 . S
C1064 C1065 1.391 . S
C1065 H1053 0.950 . S
C1065 C1061 1.393 . S
C1065 C1064 1.391 . S
C1066 H1056 0.950 . S
C1066 C1067 1.386 . S
C1066 C1068 1.391 . S
C1067 C1066 1.386 . S
C1067 C1071 1.393 . S
C1068 H1057 0.950 . S
C1068 C1066 1.391 . S
C1068 C1069 1.400 . S
C1069 C1063 1.491 . S
C1069 C1068 1.400 . S
C1069 C1070 1.398 . S
C1070 H1058 0.950 . S
C1070 C1069 1.398 . S
C1070 C1071 1.391 . S
C1071 H1059 0.943 1_556 S
C1071 C1067 1.393 . S
C1071 C1070 1.391 . S
H1072 C1080 0.950 . S
H1073 C1085 0.950 . S
H1074 C1082 0.950 . S
H1075 C1084 0.950 1_554 S
H1076 C1086 0.950 . S
H1077 C1088 0.950 . S
H1078 C1090 0.950 . S
H1079 C1091 0.950 . S
C1080 H1072 0.950 . S
C1080 C1081 1.386 . S
C1080 C1082 1.391 . S
C1081 C1080 1.386 . S
C1081 C1085 1.393 . S
C1082 H1074 0.950 . S
C1082 C1080 1.391 . S
C1082 C1083 1.400 . S
C1083 C1082 1.400 . S
C1083 C1084 1.398 . S
C1083 C1089 1.491 . S
C1084 H1075 0.950 1_556 S
C1084 C1083 1.398 . S
C1084 C1085 1.391 . S
C1085 H1073 0.950 . S
C1085 C1081 1.393 . S
C1085 C1084 1.391 . S
C1086 H1076 0.950 . S
C1086 C1087 1.386 1_554 S
C1086 C1088 1.391 . S
C1087 C1086 1.386 1_556 S
C1087 C1091 1.393 . S
C1088 H1077 0.950 . S
C1088 C1086 1.391 . S
C1088 C1089 1.400 1_554 S
C1089 C1083 1.491 . S
C1089 C1088 1.400 1_556 S
C1089 C1090 1.398 . S
C1090 H1078 0.950 . S
C1090 C1089 1.398 . S
C1090 C1091 1.391 . S
C1091 H1079 0.950 . S
C1091 C1087 1.393 . S
C1091 C1090 1.391 . S
H1092 C1100 0.950 . S
H1093 C1105 0.950 . S
H1094 C1102 0.950 . S
H1095 C1104 0.950 1_554 S
H1096 C1106 0.950 . S
H1097 C1108 0.950 . S
H1098 C1110 0.950 . S
H1099 C1111 0.950 . S
C1100 H1092 0.950 . S
C1100 C1101 1.386 . S
C1100 C1102 1.391 . S
C1101 C1100 1.386 . S
C1101 C1105 1.393 . S
C1102 H1094 0.950 . S
C1102 C1100 1.391 . S
C1102 C1103 1.400 . S
C1103 C1102 1.400 . S
C1103 C1104 1.398 . S
C1103 C1109 1.491 . S
C1104 H1095 0.950 1_556 S
C1104 C1103 1.398 . S
C1104 C1105 1.391 . S
C1105 H1093 0.950 . S
C1105 C1101 1.393 . S
C1105 C1104 1.391 . S
C1106 H1096 0.950 . S
C1106 C1107 1.386 1_554 S
C1106 C1108 1.391 . S
C1107 C1106 1.386 1_556 S
C1107 C1111 1.393 . S
C1108 H1097 0.950 . S
C1108 C1106 1.391 . S
C1108 C1109 1.400 1_554 S
C1109 C1103 1.491 . S
C1109 C1108 1.400 1_556 S
C1109 C1110 1.398 . S
C1110 H1098 0.950 . S
C1110 C1109 1.398 . S
C1110 C1111 1.391 . S
C1111 H1099 0.950 . S
C1111 C1107 1.393 . S
C1111 C1110 1.391 . S
H1112 C1120 0.950 . S
H1113 C1125 0.950 . S
H1114 C1122 0.950 . S
H1115 C1124 0.950 1_554 S
H1116 C1126 0.950 . S
H1117 C1128 0.967 . S
H1118 C1130 0.950 . S
H1119 C1131 0.950 . S
C1120 H1112 0.950 . S
C1120 C1121 1.386 . S
C1120 C1122 1.391 . S
C1121 C1120 1.386 . S
C1121 C1125 1.393 . S
C1122 H1114 0.950 . S
C1122 C1120 1.391 . S
C1122 C1123 1.400 . S
C1123 C1122 1.400 . S
C1123 C1124 1.398 . S
C1123 C1129 1.491 . S
C1124 H1115 0.950 1_556 S
C1124 C1123 1.398 . S
C1124 C1125 1.391 . S
C1125 H1113 0.950 . S
C1125 C1121 1.393 . S
C1125 C1124 1.391 . S
C1126 H1116 0.950 . S
C1126 C1127 1.386 1_554 S
C1126 C1128 1.398 . S
C1127 C1126 1.386 1_556 S
C1127 C1131 1.393 . S
C1128 H1117 0.967 . S
C1128 C1126 1.398 . S
C1128 C1129 1.377 1_554 S
C1129 C1123 1.491 . S
C1129 C1128 1.377 1_556 S
C1129 C1130 1.398 . S
C1130 H1118 0.950 . S
C1130 C1129 1.398 . S
C1130 C1131 1.391 . S
C1131 H1119 0.950 . S
C1131 C1127 1.393 . S
C1131 C1130 1.391 . S
H1132 C1140 0.950 1_554 S
H1133 C1145 0.950 . S
H1134 C1142 0.950 1_554 S
H1135 C1144 0.950 . S
H1136 C1146 0.950 . S
H1137 C1148 0.950 . S
H1138 C1150 0.950 . S
H1139 C1151 0.950 . S
C1140 H1132 0.950 1_556 S
C1140 C1141 1.386 . S
C1140 C1142 1.391 . S
C1141 C1140 1.386 . S
C1141 C1145 1.393 . S
C1142 H1134 0.950 1_556 S
C1142 C1140 1.391 . S
C1142 C1143 1.400 . S
C1143 C1142 1.400 . S
C1143 C1144 1.398 . S
C1143 C1149 1.491 . S
C1144 H1135 0.950 . S
C1144 C1143 1.398 . S
C1144 C1145 1.391 . S
C1145 H1133 0.950 . S
C1145 C1141 1.393 . S
C1145 C1144 1.391 . S
C1146 H1136 0.950 . S
C1146 C1147 1.386 . S
C1146 C1148 1.391 . S
C1147 C1146 1.386 . S
C1147 C1151 1.393 1_556 S
C1148 H1137 0.950 . S
C1148 C1146 1.391 . S
C1148 C1149 1.400 . S
C1149 C1143 1.491 . S
C1149 C1148 1.400 . S
C1149 C1150 1.398 1_556 S
C1150 H1138 0.950 . S
C1150 C1149 1.398 1_554 S
C1150 C1151 1.391 . S
C1151 H1139 0.950 . S
C1151 C1147 1.393 1_554 S
C1151 C1150 1.391 . S
H1152 C1160 0.950 . S
H1153 C1165 0.950 . S
H1154 C1162 0.950 . S
H1155 C1164 0.950 . S
H1156 C1166 0.950 . S
H1157 C1168 0.950 . S
H1158 C1170 0.950 . S
H1159 C1171 0.950 . S
C1160 H1152 0.950 . S
C1160 C1161 1.386 . S
C1160 C1162 1.391 . S
C1161 C1160 1.386 . S
C1161 C1165 1.393 . S
C1162 H1154 0.950 . S
C1162 C1160 1.391 . S
C1162 C1163 1.400 . S
C1163 C1162 1.400 . S
C1163 C1164 1.398 . S
C1163 C1169 1.491 . S
C1164 H1155 0.950 . S
C1164 C1163 1.398 . S
C1164 C1165 1.391 . S
C1165 H1153 0.950 . S
C1165 C1161 1.393 . S
C1165 C1164 1.391 . S
C1166 H1156 0.950 . S
C1166 C1167 1.386 . S
C1166 C1168 1.391 . S
C1167 C1166 1.386 . S
C1167 C1171 1.393 . S
C1168 H1157 0.950 . S
C1168 C1166 1.391 . S
C1168 C1169 1.400 . S
C1169 C1163 1.491 . S
C1169 C1168 1.400 . S
C1169 C1170 1.398 . S
C1170 H1158 0.950 . S
C1170 C1169 1.398 . S
C1170 C1171 1.391 . S
C1171 H1159 0.950 . S
C1171 C1167 1.393 . S
C1171 C1170 1.391 . S
H1172 C1180 0.950 . S
H1173 C1185 0.950 . S
H1174 C1182 0.950 . S
H1175 C1184 0.950 . S
H1176 C1186 0.950 . S
H1177 C1188 0.950 . S
H1178 C1190 0.950 . S
H1179 C1191 0.950 . S
C1180 H1172 0.950 . S
C1180 C1181 1.386 . S
C1180 C1182 1.391 . S
C1181 C1180 1.386 . S
C1181 C1185 1.393 . S
C1182 H1174 0.950 . S
C1182 C1180 1.391 . S
C1182 C1183 1.400 . S
C1183 C1182 1.400 . S
C1183 C1184 1.398 . S
C1183 C1189 1.491 . S
C1184 H1175 0.950 . S
C1184 C1183 1.398 . S
C1184 C1185 1.391 . S
C1185 H1173 0.950 . S
C1185 C1181 1.393 . S
C1185 C1184 1.391 . S
C1186 H1176 0.950 . S
C1186 C1187 1.386 . S
C1186 C1188 1.391 . S
C1187 C1186 1.386 . S
C1187 C1191 1.393 . S
C1188 H1177 0.950 . S
C1188 C1186 1.391 . S
C1188 C1189 1.400 . S
C1189 C1183 1.491 . S
C1189 C1188 1.400 . S
C1189 C1190 1.398 . S
C1190 H1178 0.950 . S
C1190 C1189 1.398 . S
C1190 C1191 1.391 . S
C1191 H1179 0.950 . S
C1191 C1187 1.393 . S
C1191 C1190 1.391 . S
H1192 C1200 0.950 . S
H1193 C1205 0.950 . S
H1194 C1202 0.950 . S
H1195 C1204 0.950 . S
H1196 C1206 0.950 . S
H1197 C1208 0.950 . S
H1198 C1210 0.950 . S
H1199 C1211 0.950 . S
C1200 H1192 0.950 . S
C1200 C1201 1.386 . S
C1200 C1202 1.391 . S
C1201 C1200 1.386 . S
C1201 C1205 1.393 . S
C1202 H1194 0.950 . S
C1202 C1200 1.391 . S
C1202 C1203 1.400 . S
C1203 C1202 1.400 . S
C1203 C1204 1.398 . S
C1203 C1209 1.491 . S
C1204 H1195 0.950 . S
C1204 C1203 1.398 . S
C1204 C1205 1.391 . S
C1205 H1193 0.950 . S
C1205 C1201 1.393 . S
C1205 C1204 1.391 . S
C1206 H1196 0.950 . S
C1206 C1207 1.386 . S
C1206 C1208 1.391 . S
C1207 C1206 1.386 . S
C1207 C1211 1.393 . S
C1208 H1197 0.950 . S
C1208 C1206 1.391 . S
C1208 C1209 1.400 . S
C1209 C1203 1.491 . S
C1209 C1208 1.400 . S
C1209 C1210 1.398 . S
C1210 H1198 0.950 . S
C1210 C1209 1.398 . S
C1210 C1211 1.391 . S
C1211 H1199 0.950 . S
C1211 C1207 1.393 . S
C1211 C1210 1.391 . S
H1212 C1220 0.950 . S
H1213 C1225 0.950 . S
H1214 C1222 0.957 . S
H1215 C1224 0.950 . S
H1216 C1226 0.950 . S
H1217 C1228 0.950 . S
H1218 C1230 0.950 . S
H1219 C1231 0.950 . S
C1220 H1212 0.950 . S
C1220 C1221 1.386 . S
C1220 C1222 1.391 . S
C1221 C1220 1.386 . S
C1221 C1225 1.393 . S
C1222 H1214 0.957 . S
C1222 C1220 1.391 . S
C1222 C1223 1.400 . S
C1223 C1222 1.400 . S
C1223 C1224 1.398 . S
C1223 C1229 1.491 1_655 S
C1224 H1215 0.950 . S
C1224 C1223 1.398 . S
C1224 C1225 1.391 . S
C1225 H1213 0.950 . S
C1225 C1221 1.393 . S
C1225 C1224 1.391 . S
C1226 H1216 0.950 . S
C1226 C1227 1.386 . S
C1226 C1228 1.391 . S
C1227 C1226 1.386 . S
C1227 C1231 1.393 . S
C1228 H1217 0.950 . S
C1228 C1226 1.391 . S
C1228 C1229 1.400 . S
C1229 C1223 1.491 1_455 S
C1229 C1228 1.400 . S
C1229 C1230 1.398 . S
C1230 H1218 0.950 . S
C1230 C1229 1.398 . S
C1230 C1231 1.391 . S
C1231 H1219 0.950 . S
C1231 C1227 1.393 . S
C1231 C1230 1.391 . S
H1232 C1240 0.950 . S
H1233 C1245 0.950 . S
H1234 C1242 0.950 . S
H1235 C1244 0.950 . S
H1236 C1246 0.950 . S
H1237 C1248 0.950 . S
H1238 C1250 0.950 . S
H1239 C1251 0.950 . S
C1240 H1232 0.950 . S
C1240 C1241 1.386 . S
C1240 C1242 1.391 . S
C1241 C1240 1.386 . S
C1241 C1245 1.393 . S
C1242 H1234 0.950 . S
C1242 C1240 1.391 . S
C1242 C1243 1.400 . S
C1243 C1242 1.400 . S
C1243 C1244 1.398 . S
C1243 C1249 1.491 . S
C1244 H1235 0.950 . S
C1244 C1243 1.398 . S
C1244 C1245 1.391 . S
C1245 H1233 0.950 . S
C1245 C1241 1.393 . S
C1245 C1244 1.391 . S
C1246 H1236 0.950 . S
C1246 C1247 1.386 . S
C1246 C1248 1.391 . S
C1247 C1246 1.386 . S
C1247 C1251 1.393 . S
C1248 H1237 0.950 . S
C1248 C1246 1.391 . S
C1248 C1249 1.400 . S
C1249 C1243 1.491 . S
C1249 C1248 1.400 . S
C1249 C1250 1.398 . S
C1250 H1238 0.950 . S
C1250 C1249 1.398 . S
C1250 C1251 1.391 . S
C1251 H1239 0.950 . S
C1251 C1247 1.393 . S
C1251 C1250 1.391 . S
H1252 C1260 0.950 . S
H1253 C1265 0.950 . S
H1254 C1262 0.950 . S
H1255 C1264 0.950 . S
H1256 C1266 0.950 . S
H1257 C1268 0.950 . S
H1258 C1270 0.950 . S
H1259 C1271 0.950 . S
C1260 H1252 0.950 . S
C1260 C1261 1.386 . S
C1260 C1262 1.391 . S
C1261 C1260 1.386 . S
C1261 C1265 1.393 . S
C1262 H1254 0.950 . S
C1262 C1260 1.391 . S
C1262 C1263 1.400 . S
C1263 C1262 1.400 . S
C1263 C1264 1.398 . S
C1263 C1269 1.491 1_545 S
C1264 H1255 0.950 . S
C1264 C1263 1.398 . S
C1264 C1265 1.391 . S
C1265 H1253 0.950 . S
C1265 C1261 1.393 . S
C1265 C1264 1.391 . S
C1266 H1256 0.950 . S
C1266 C1267 1.386 . S
C1266 C1268 1.391 . S
C1267 C1266 1.386 . S
C1267 C1271 1.393 . S
C1268 H1257 0.950 . S
C1268 C1266 1.391 . S
C1268 C1269 1.400 . S
C1269 C1263 1.491 1_565 S
C1269 C1268 1.400 . S
C1269 C1270 1.398 . S
C1270 H1258 0.950 . S
C1270 C1269 1.398 . S
C1270 C1271 1.391 . S
C1271 H1259 0.950 . S
C1271 C1267 1.393 . S
C1271 C1270 1.391 . S
H1272 C1280 0.950 . S
H1273 C1285 0.950 . S
H1274 C1282 0.950 . S
H1275 C1284 0.950 . S
H1276 C1286 0.950 . S
H1277 C1288 0.950 . S
H1278 C1290 0.950 . S
H1279 C1291 0.950 . S
C1280 H1272 0.950 . S
C1280 C1281 1.386 . S
C1280 C1282 1.391 . S
C1281 C1280 1.386 . S
C1281 C1285 1.393 . S
C1282 H1274 0.950 . S
C1282 C1280 1.391 . S
C1282 C1283 1.400 . S
C1283 C1282 1.400 . S
C1283 C1284 1.398 . S
C1283 C1289 1.491 . S
C1284 H1275 0.950 . S
C1284 C1283 1.398 . S
C1284 C1285 1.391 . S
C1285 H1273 0.950 . S
C1285 C1281 1.393 . S
C1285 C1284 1.391 . S
C1286 H1276 0.950 . S
C1286 C1287 1.386 . S
C1286 C1288 1.391 . S
C1287 C1286 1.386 . S
C1287 C1291 1.393 . S
C1288 H1277 0.950 . S
C1288 C1286 1.391 . S
C1288 C1289 1.400 . S
C1289 C1283 1.491 . S
C1289 C1288 1.400 . S
C1289 C1290 1.398 . S
C1290 H1278 0.950 . S
C1290 C1289 1.398 . S
C1290 C1291 1.391 . S
C1291 H1279 0.950 . S
C1291 C1287 1.393 . S
C1291 C1290 1.391 . S
H1292 C1300 0.950 . S
H1293 C1305 0.950 . S
H1294 C1302 0.950 . S
H1295 C1304 0.950 . S
H1296 C1306 0.950 . S
H1297 C1308 0.950 . S
H1298 C1310 0.950 . S
H1299 C1311 0.950 . S
C1300 H1292 0.950 . S
C1300 C1301 1.386 . S
C1300 C1302 1.391 . S
C1301 C1300 1.386 . S
C1301 C1305 1.393 . S
C1302 H1294 0.950 . S
C1302 C1300 1.391 . S
C1302 C1303 1.400 . S
C1303 C1302 1.400 . S
C1303 C1304 1.398 . S
C1303 C1309 1.491 . S
C1304 H1295 0.950 . S
C1304 C1303 1.398 . S
C1304 C1305 1.391 . S
C1305 H1293 0.950 . S
C1305 C1301 1.393 . S
C1305 C1304 1.391 . S
C1306 H1296 0.950 . S
C1306 C1307 1.386 . S
C1306 C1308 1.391 . S
C1307 C1306 1.386 . S
C1307 C1311 1.393 . S
C1308 H1297 0.950 . S
C1308 C1306 1.391 . S
C1308 C1309 1.400 . S
C1309 C1303 1.491 . S
C1309 C1308 1.400 . S
C1309 C1310 1.398 . S
C1310 H1298 0.950 . S
C1310 C1309 1.398 . S
C1310 C1311 1.391 . S
C1311 H1299 0.950 . S
C1311 C1307 1.393 . S
C1311 C1310 1.391 . S
H1312 C1320 0.950 . S
H1313 C1325 0.950 . S
H1314 C1322 0.950 . S
H1315 C1324 0.950 . S
H1316 C1326 0.950 . S
H1317 C1328 0.950 . S
H1318 C1330 0.950 . S
H1319 C1331 0.950 . S
C1320 H1312 0.950 . S
C1320 C1321 1.386 . S
C1320 C1322 1.391 . S
C1321 C1320 1.386 . S
C1321 C1325 1.393 . S
C1322 H1314 0.950 . S
C1322 C1320 1.391 . S
C1322 C1323 1.400 . S
C1323 C1322 1.400 . S
C1323 C1324 1.398 . S
C1323 C1329 1.491 . S
C1324 H1315 0.950 . S
C1324 C1323 1.398 . S
C1324 C1325 1.391 . S
C1325 H1313 0.950 . S
C1325 C1321 1.393 . S
C1325 C1324 1.391 . S
C1326 H1316 0.950 . S
C1326 C1327 1.386 . S
C1326 C1328 1.391 . S
C1327 C1326 1.386 . S
C1327 C1331 1.393 . S
C1328 H1317 0.950 . S
C1328 C1326 1.391 . S
C1328 C1329 1.400 . S
C1329 C1323 1.491 . S
C1329 C1328 1.400 . S
C1329 C1330 1.398 . S
C1330 H1318 0.950 . S
C1330 C1329 1.398 . S
C1330 C1331 1.391 . S
C1331 H1319 0.950 . S
C1331 C1327 1.393 . S
C1331 C1330 1.391 . S
H1332 C1340 0.950 . S
H1333 C1345 0.950 . S
H1334 C1342 0.950 . S
H1335 C1344 0.950 . S
H1336 C1346 0.950 . S
H1337 C1348 0.950 . S
H1338 C1350 0.950 . S
H1339 C1351 0.950 . S
C1340 H1332 0.950 . S
C1340 C1341 1.386 . S
C1340 C1342 1.391 . S
C1341 C1340 1.386 . S
C1341 C1345 1.393 . S
C1342 H1334 0.950 . S
C1342 C1340 1.391 . S
C1342 C1343 1.400 . S
C1343 C1342 1.400 . S
C1343 C1344 1.398 . S
C1343 C1349 1.491 . S
C1344 H1335 0.950 . S
C1344 C1343 1.398 . S
C1344 C1345 1.391 . S
C1345 H1333 0.950 . S
C1345 C1341 1.393 . S
C1345 C1344 1.391 . S
C1346 H1336 0.950 . S
C1346 C1347 1.386 . S
C1346 C1348 1.391 . S
C1347 C1346 1.386 . S
C1347 C1351 1.393 . S
C1348 H1337 0.950 . S
C1348 C1346 1.391 . S
C1348 C1349 1.400 . S
C1349 C1343 1.491 . S
C1349 C1348 1.400 . S
C1349 C1350 1.398 . S
C1350 H1338 0.950 . S
C1350 C1349 1.398 . S
C1350 C1351 1.391 . S
C1351 H1339 0.950 . S
C1351 C1347 1.393 . S
C1351 C1350 1.391 . S
H1352 C1360 0.950 . S
H1353 C1365 0.950 . S
H1354 C1362 0.950 . S
H1355 C1364 0.950 . S
H1356 C1366 0.950 . S
H1357 C1368 0.950 . S
H1358 C1370 0.950 . S
H1359 C1371 0.950 . S
C1360 H1352 0.950 . S
C1360 C1361 1.386 . S
C1360 C1362 1.391 . S
C1361 C1360 1.386 . S
C1361 C1365 1.393 . S
C1362 H1354 0.950 . S
C1362 C1360 1.391 . S
C1362 C1363 1.400 . S
C1363 C1362 1.400 . S
C1363 C1364 1.398 . S
C1363 C1369 1.491 . S
C1364 H1355 0.950 . S
C1364 C1363 1.398 . S
C1364 C1365 1.391 . S
C1365 H1353 0.950 . S
C1365 C1361 1.393 . S
C1365 C1364 1.391 . S
C1366 H1356 0.950 . S
C1366 C1367 1.386 . S
C1366 C1368 1.391 . S
C1367 C1366 1.386 . S
C1367 C1371 1.393 . S
C1368 H1357 0.950 . S
C1368 C1366 1.391 . S
C1368 C1369 1.400 . S
C1369 C1363 1.491 . S
C1369 C1368 1.400 . S
C1369 C1370 1.398 . S
C1370 H1358 0.950 . S
C1370 C1369 1.398 . S
C1370 C1371 1.391 . S
C1371 H1359 0.950 . S
C1371 C1367 1.393 . S
C1371 C1370 1.391 . S
H1372 C1380 0.950 . S
H1373 C1385 0.950 . S
H1374 C1382 0.950 . S
H1375 C1384 0.950 . S
H1376 C1386 0.950 . S
H1377 C1388 0.950 . S
H1378 C1390 0.950 . S
H1379 C1391 0.950 . S
C1380 H1372 0.950 . S
C1380 C1381 1.386 . S
C1380 C1382 1.391 . S
C1381 C1380 1.386 . S
C1381 C1385 1.393 . S
C1382 H1374 0.950 . S
C1382 C1380 1.391 . S
C1382 C1383 1.400 . S
C1383 C1382 1.400 . S
C1383 C1384 1.398 . S
C1383 C1389 1.491 . S
C1384 H1375 0.950 . S
C1384 C1383 1.398 . S
C1384 C1385 1.391 . S
C1385 H1373 0.950 . S
C1385 C1381 1.393 . S
C1385 C1384 1.391 . S
C1386 H1376 0.950 . S
C1386 C1387 1.386 . S
C1386 C1388 1.391 . S
C1387 C1386 1.386 . S
C1387 C1391 1.393 . S
C1388 H1377 0.950 . S
C1388 C1386 1.391 . S
C1388 C1389 1.400 . S
C1389 C1383 1.491 . S
C1389 C1388 1.400 . S
C1389 C1390 1.398 . S
C1390 H1378 0.950 . S
C1390 C1389 1.398 . S
C1390 C1391 1.391 . S
C1391 H1379 0.950 . S
C1391 C1387 1.393 . S
C1391 C1390 1.391 . S
H1392 C1400 0.950 . S
H1393 C1405 0.950 . S
H1394 C1402 0.950 . S
H1395 C1404 0.950 . S
H1396 C1406 0.950 . S
H1397 C1408 0.950 . S
H1398 C1410 0.950 . S
H1399 C1411 0.950 . S
C1400 H1392 0.950 . S
C1400 C1401 1.386 . S
C1400 C1402 1.391 1_545 S
C1401 C1400 1.386 . S
C1401 C1405 1.393 . S
C1402 H1394 0.950 . S
C1402 C1400 1.391 1_565 S
C1402 C1403 1.400 . S
C1403 C1402 1.400 . S
C1403 C1404 1.398 . S
C1403 C1409 1.491 . S
C1404 H1395 0.950 . S
C1404 C1403 1.398 . S
C1404 C1405 1.391 1_565 S
C1405 H1393 0.950 . S
C1405 C1401 1.393 . S
C1405 C1404 1.391 1_545 S
C1406 H1396 0.950 . S
C1406 C1407 1.386 . S
C1406 C1408 1.391 . S
C1407 C1406 1.386 . S
C1407 C1411 1.393 . S
C1408 H1397 0.950 . S
C1408 C1406 1.391 . S
C1408 C1409 1.400 . S
C1409 C1403 1.491 . S
C1409 C1408 1.400 . S
C1409 C1410 1.398 . S
C1410 H1398 0.950 . S
C1410 C1409 1.398 . S
C1410 C1411 1.391 . S
C1411 H1399 0.950 . S
C1411 C1407 1.393 . S
C1411 C1410 1.391 . S
H1412 C1420 0.938 1_655 S
H1413 C1425 0.950 . S
H1414 C1422 0.950 . S
H1415 C1424 0.950 . S
H1416 C1426 0.950 . S
H1417 C1428 0.950 . S
H1418 C1430 0.950 . S
H1419 C1431 0.950 . S
C1420 H1412 0.938 1_455 S
C1420 C1421 1.364 1_455 S
C1420 C1422 1.425 . S
C1421 C1420 1.364 1_655 S
C1421 C1425 1.393 1_655 S
C1422 H1414 0.950 . S
C1422 C1420 1.425 . S
C1422 C1423 1.400 . S
C1423 C1422 1.400 . S
C1423 C1424 1.398 . S
C1423 C1429 1.491 . S
C1424 H1415 0.950 . S
C1424 C1423 1.398 . S
C1424 C1425 1.391 . S
C1425 H1413 0.950 . S
C1425 C1421 1.393 1_455 S
C1425 C1424 1.391 . S
C1426 H1416 0.950 . S
C1426 C1427 1.386 . S
C1426 C1428 1.391 . S
C1427 C1426 1.386 . S
C1427 C1431 1.393 . S
C1428 H1417 0.950 . S
C1428 C1426 1.391 . S
C1428 C1429 1.400 . S
C1429 C1423 1.491 . S
C1429 C1428 1.400 . S
C1429 C1430 1.398 . S
C1430 H1418 0.950 . S
C1430 C1429 1.398 . S
C1430 C1431 1.391 . S
C1431 H1419 0.950 . S
C1431 C1427 1.393 . S
C1431 C1430 1.391 . S
H1432 C1440 0.950 . S
H1433 C1445 0.950 . S
H1434 C1442 0.950 . S
H1435 C1444 0.950 . S
H1436 C1446 0.950 . S
H1437 C1448 0.950 . S
H1438 C1450 0.950 . S
H1439 C1451 0.950 . S
C1440 H1432 0.950 . S
C1440 C1441 1.386 . S
C1440 C1442 1.391 . S
C1441 C1440 1.386 . S
C1441 C1445 1.393 . S
C1442 H1434 0.950 . S
C1442 C1440 1.391 . S
C1442 C1443 1.400 . S
C1443 C1442 1.400 . S
C1443 C1444 1.398 . S
C1443 C1449 1.491 . S
C1444 H1435 0.950 . S
C1444 C1443 1.398 . S
C1444 C1445 1.391 . S
C1445 H1433 0.950 . S
C1445 C1441 1.393 . S
C1445 C1444 1.391 . S
C1446 H1436 0.950 . S
C1446 C1447 1.386 . S
C1446 C1448 1.391 . S
C1447 C1446 1.386 . S
C1447 C1451 1.393 . S
C1448 H1437 0.950 . S
C1448 C1446 1.391 . S
C1448 C1449 1.400 . S
C1449 C1443 1.491 . S
C1449 C1448 1.400 . S
C1449 C1450 1.398 . S
C1450 H1438 0.950 . S
C1450 C1449 1.398 . S
C1450 C1451 1.391 . S
C1451 H1439 0.950 . S
C1451 C1447 1.393 . S
C1451 C1450 1.391 . S
H1452 C1460 0.950 . S
H1453 C1465 0.950 . S
H1454 C1462 0.950 . S
H1455 C1464 0.950 . S
H1456 C1466 0.950 . S
H1457 C1468 0.950 . S
H1458 C1470 0.950 . S
H1459 C1471 0.950 . S
C1460 H1452 0.950 . S
C1460 C1461 1.386 . S
C1460 C1462 1.391 . S
C1461 C1460 1.386 . S
C1461 C1465 1.393 . S
C1462 H1454 0.950 . S
C1462 C1460 1.391 . S
C1462 C1463 1.400 . S
C1463 C1462 1.400 . S
C1463 C1464 1.398 . S
C1463 C1469 1.491 . S
C1464 H1455 0.950 . S
C1464 C1463 1.398 . S
C1464 C1465 1.391 . S
C1465 H1453 0.950 . S
C1465 C1461 1.393 . S
C1465 C1464 1.391 . S
C1466 H1456 0.950 . S
C1466 C1467 1.386 . S
C1466 C1468 1.391 . S
C1467 C1466 1.386 . S
C1467 C1471 1.393 . S
C1468 H1457 0.950 . S
C1468 C1466 1.391 . S
C1468 C1469 1.400 . S
C1469 C1463 1.491 . S
C1469 C1468 1.400 . S
C1469 C1470 1.398 . S
C1470 H1458 0.950 . S
C1470 C1469 1.398 . S
C1470 C1471 1.391 . S
C1471 H1459 0.950 . S
C1471 C1467 1.393 . S
C1471 C1470 1.391 . S
H1472 C1480 0.950 . S
H1473 C1485 0.950 . S
H1474 C1482 0.950 . S
H1475 C1484 0.950 . S
H1476 C1486 0.950 . S
H1477 C1488 0.950 . S
H1478 C1490 0.950 . S
H1479 C1491 0.950 . S
C1480 H1472 0.950 . S
C1480 C1481 1.386 . S
C1480 C1482 1.391 . S
C1481 C1480 1.386 . S
C1481 C1485 1.393 . S
C1482 H1474 0.950 . S
C1482 C1480 1.391 . S
C1482 C1483 1.400 . S
C1483 C1482 1.400 . S
C1483 C1484 1.398 . S
C1483 C1489 1.491 . S
C1484 H1475 0.950 . S
C1484 C1483 1.398 . S
C1484 C1485 1.391 . S
C1485 H1473 0.950 . S
C1485 C1481 1.393 . S
C1485 C1484 1.391 . S
C1486 H1476 0.950 . S
C1486 C1487 1.386 . S
C1486 C1488 1.391 . S
C1487 C1486 1.386 . S
C1487 C1491 1.393 . S
C1488 H1477 0.950 . S
C1488 C1486 1.391 . S
C1488 C1489 1.400 . S
C1489 C1483 1.491 . S
C1489 C1488 1.400 . S
C1489 C1490 1.398 . S
C1490 H1478 0.950 . S
C1490 C1489 1.398 . S
C1490 C1491 1.391 . S
C1491 H1479 0.950 . S
C1491 C1487 1.393 . S
C1491 C1490 1.391 . S
H1492 C1500 0.950 . S
H1493 C1505 0.950 . S
H1494 C1502 0.950 . S
H1495 C1504 0.950 . S
H1496 C1506 0.950 . S
H1497 C1508 0.950 . S
H1498 C1510 0.950 . S
H1499 C1511 0.950 . S
C1500 H1492 0.950 . S
C1500 C1501 1.386 . S
C1500 C1502 1.391 . S
C1501 C1500 1.386 . S
C1501 C1505 1.393 . S
C1502 H1494 0.950 . S
C1502 C1500 1.391 . S
C1502 C1503 1.400 . S
C1503 C1502 1.400 . S
C1503 C1504 1.398 . S
C1503 C1509 1.491 . S
C1504 H1495 0.950 . S
C1504 C1503 1.398 . S
C1504 C1505 1.391 . S
C1505 H1493 0.950 . S
C1505 C1501 1.393 . S
C1505 C1504 1.391 . S
C1506 H1496 0.950 . S
C1506 C1507 1.386 . S
C1506 C1508 1.391 . S
C1507 C1506 1.386 . S
C1507 C1511 1.393 . S
C1508 H1497 0.950 . S
C1508 C1506 1.391 . S
C1508 C1509 1.400 . S
C1509 C1503 1.491 . S
C1509 C1508 1.400 . S
C1509 C1510 1.398 . S
C1510 H1498 0.950 . S
C1510 C1509 1.398 . S
C1510 C1511 1.391 . S
C1511 H1499 0.950 . S
C1511 C1507 1.393 . S
C1511 C1510 1.391 . S
H1512 C1520 0.950 . S
H1513 C1525 0.950 . S
H1514 C1522 0.950 . S
H1515 C1524 0.950 1_545 S
H1516 C1526 0.950 . S
H1517 C1528 0.950 . S
H1518 C1530 0.950 1_565 S
H1519 C1531 0.950 . S
C1520 H1512 0.950 . S
C1520 C1521 1.386 . S
C1520 C1522 1.391 . S
C1521 C1520 1.386 . S
C1521 C1525 1.393 . S
C1522 H1514 0.950 . S
C1522 C1520 1.391 . S
C1522 C1523 1.400 . S
C1523 C1522 1.400 . S
C1523 C1524 1.398 . S
C1523 C1529 1.491 1_565 S
C1524 H1515 0.950 1_565 S
C1524 C1523 1.398 . S
C1524 C1525 1.391 . S
C1525 H1513 0.950 . S
C1525 C1521 1.393 . S
C1525 C1524 1.391 . S
C1526 H1516 0.950 . S
C1526 C1527 1.386 . S
C1526 C1528 1.391 . S
C1527 C1526 1.386 . S
C1527 C1531 1.393 . S
C1528 H1517 0.950 . S
C1528 C1526 1.391 . S
C1528 C1529 1.400 . S
C1529 C1523 1.491 1_545 S
C1529 C1528 1.400 . S
C1529 C1530 1.398 . S
C1530 H1518 0.950 1_545 S
C1530 C1529 1.398 . S
C1530 C1531 1.391 . S
C1531 H1519 0.950 . S
C1531 C1527 1.393 . S
C1531 C1530 1.391 . S
H1532 C1540 0.950 . S
H1533 C1545 0.950 . S
H1534 C1542 0.950 . S
H1535 C1544 0.950 . S
H1536 C1546 0.950 . S
H1537 C1548 0.950 . S
H1538 C1550 0.950 . S
H1539 C1551 0.950 . S
C1540 H1532 0.950 . S
C1540 C1541 1.386 . S
C1540 C1542 1.391 . S
C1541 C1540 1.386 . S
C1541 C1545 1.393 . S
C1542 H1534 0.950 . S
C1542 C1540 1.391 . S
C1542 C1543 1.400 . S
C1543 C1542 1.400 . S
C1543 C1544 1.398 . S
C1543 C1549 1.491 1_455 S
C1544 H1535 0.950 . S
C1544 C1543 1.398 . S
C1544 C1545 1.391 . S
C1545 H1533 0.950 . S
C1545 C1541 1.393 . S
C1545 C1544 1.391 . S
C1546 H1536 0.950 . S
C1546 C1547 1.386 . S
C1546 C1548 1.391 . S
C1547 C1546 1.386 . S
C1547 C1551 1.393 . S
C1548 H1537 0.950 . S
C1548 C1546 1.391 . S
C1548 C1549 1.400 . S
C1549 C1543 1.491 1_655 S
C1549 C1548 1.400 . S
C1549 C1550 1.398 . S
C1550 H1538 0.950 . S
C1550 C1549 1.398 . S
C1550 C1551 1.391 . S
C1551 H1539 0.950 . S
C1551 C1547 1.393 . S
C1551 C1550 1.391 . S
H1552 C1560 0.950 . S
H1553 C1565 0.950 . S
H1554 C1562 0.950 . S
H1555 C1564 0.950 . S
H1556 C1566 0.950 . S
H1557 C1568 0.950 . S
H1558 C1570 0.950 . S
H1559 C1571 0.950 . S
C1560 H1552 0.950 . S
C1560 C1561 1.386 . S
C1560 C1562 1.391 . S
C1561 C1560 1.386 . S
C1561 C1565 1.393 . S
C1562 H1554 0.950 . S
C1562 C1560 1.391 . S
C1562 C1563 1.400 . S
C1563 C1562 1.400 . S
C1563 C1564 1.398 . S
C1563 C1569 1.491 . S
C1564 H1555 0.950 . S
C1564 C1563 1.398 . S
C1564 C1565 1.391 . S
C1565 H1553 0.950 . S
C1565 C1561 1.393 . S
C1565 C1564 1.391 . S
C1566 H1556 0.950 . S
C1566 C1567 1.386 . S
C1566 C1568 1.391 . S
C1567 C1566 1.386 . S
C1567 C1571 1.393 . S
C1568 H1557 0.950 . S
C1568 C1566 1.391 . S
C1568 C1569 1.400 . S
C1569 C1563 1.491 . S
C1569 C1568 1.400 . S
C1569 C1570 1.398 . S
C1570 H1558 0.950 . S
C1570 C1569 1.398 . S
C1570 C1571 1.391 . S
C1571 H1559 0.950 . S
C1571 C1567 1.393 . S
C1571 C1570 1.391 . S
H1572 C1580 0.950 . S
H1573 C1585 0.950 . S
H1574 C1582 0.950 . S
H1575 C1584 0.950 . S
H1576 C1586 0.950 . S
H1577 C1588 0.950 . S
H1578 C1590 0.950 . S
H1579 C1591 0.950 . S
C1580 H1572 0.950 . S
C1580 C1581 1.386 . S
C1580 C1582 1.391 1_455 S
C1581 C1580 1.386 . S
C1581 C1585 1.393 1_455 S
C1582 H1574 0.950 . S
C1582 C1580 1.391 1_655 S
C1582 C1583 1.400 . S
C1583 C1582 1.400 . S
C1583 C1584 1.398 . S
C1583 C1589 1.491 . S
C1584 H1575 0.950 . S
C1584 C1583 1.398 . S
C1584 C1585 1.391 . S
C1585 H1573 0.950 . S
C1585 C1581 1.393 1_655 S
C1585 C1584 1.391 . S
C1586 H1576 0.950 . S
C1586 C1587 1.386 . S
C1586 C1588 1.391 . S
C1587 C1586 1.386 . S
C1587 C1591 1.393 . S
C1588 H1577 0.950 . S
C1588 C1586 1.391 . S
C1588 C1589 1.400 . S
C1589 C1583 1.491 . S
C1589 C1588 1.400 . S
C1589 C1590 1.398 . S
C1590 H1578 0.950 . S
C1590 C1589 1.398 . S
C1590 C1591 1.391 . S
C1591 H1579 0.950 . S
C1591 C1587 1.393 . S
C1591 C1590 1.391 . S
H1592 C1600 0.950 . S
H1593 C1605 0.950 . S
H1594 C1602 0.950 . S
H1595 C1604 0.950 . S
H1596 C1606 0.950 . S
H1597 C1608 0.950 . S
H1598 C1610 0.950 . S
H1599 C1611 0.950 . S
C1600 H1592 0.950 . S
C1600 C1601 1.386 . S
C1600 C1602 1.391 . S
C1601 C1600 1.386 . S
C1601 C1605 1.393 . S
C1602 H1594 0.950 . S
C1602 C1600 1.391 . S
C1602 C1603 1.400 . S
C1603 C1602 1.400 . S
C1603 C1604 1.398 . S
C1603 C1609 1.491 . S
C1604 H1595 0.950 . S
C1604 C1603 1.398 . S
C1604 C1605 1.391 . S
C1605 H1593 0.950 . S
C1605 C1601 1.393 . S
C1605 C1604 1.391 . S
C1606 H1596 0.950 . S
C1606 C1607 1.386 . S
C1606 C1608 1.391 . S
C1607 C1606 1.386 . S
C1607 C1611 1.393 . S
C1608 H1597 0.950 . S
C1608 C1606 1.391 . S
C1608 C1609 1.400 . S
C1609 C1603 1.491 . S
C1609 C1608 1.400 . S
C1609 C1610 1.398 . S
C1610 H1598 0.950 . S
C1610 C1609 1.398 . S
C1610 C1611 1.391 . S
C1611 H1599 0.950 . S
C1611 C1607 1.393 . S
C1611 C1610 1.391 . S
H1612 C1620 0.936 1_565 S
H1613 C1625 0.950 . S
H1614 C1622 0.950 . S
H1615 C1624 0.950 . S
H1616 C1626 0.950 . S
H1617 C1628 0.950 . S
H1618 C1630 0.950 . S
H1619 C1631 0.950 . S
C1620 H1612 0.936 1_545 S
C1620 C1621 1.386 1_545 S
C1620 C1622 1.391 . S
C1621 C1620 1.386 1_565 S
C1621 C1625 1.393 . S
C1622 H1614 0.950 . S
C1622 C1620 1.391 . S
C1622 C1623 1.400 . S
C1623 C1622 1.400 . S
C1623 C1624 1.398 . S
C1623 C1629 1.491 . S
C1624 H1615 0.950 . S
C1624 C1623 1.398 . S
C1624 C1625 1.391 1_545 S
C1625 H1613 0.950 . S
C1625 C1621 1.393 . S
C1625 C1624 1.391 1_565 S
C1626 H1616 0.950 . S
C1626 C1627 1.386 . S
C1626 C1628 1.391 . S
C1627 C1626 1.386 . S
C1627 C1631 1.393 . S
C1628 H1617 0.950 . S
C1628 C1626 1.391 . S
C1628 C1629 1.400 . S
C1629 C1623 1.491 . S
C1629 C1628 1.400 . S
C1629 C1630 1.398 . S
C1630 H1618 0.950 . S
C1630 C1629 1.398 . S
C1630 C1631 1.391 . S
C1631 H1619 0.950 . S
C1631 C1627 1.393 . S
C1631 C1630 1.391 . S
H1632 C1640 0.950 . S
H1633 C1645 0.950 . S
H1634 C1642 0.950 . S
H1635 C1644 0.950 . S
H1636 C1646 0.950 . S
H1637 C1648 0.950 . S
H1638 C1650 0.950 . S
H1639 C1651 0.950 . S
C1640 H1632 0.950 . S
C1640 C1641 1.386 . S
C1640 C1642 1.391 . S
C1641 C1640 1.386 . S
C1641 C1645 1.393 . S
C1642 H1634 0.950 . S
C1642 C1640 1.391 . S
C1642 C1643 1.400 . S
C1643 C1642 1.400 . S
C1643 C1644 1.398 . S
C1643 C1649 1.491 . S
C1644 H1635 0.950 . S
C1644 C1643 1.398 . S
C1644 C1645 1.391 . S
C1645 H1633 0.950 . S
C1645 C1641 1.393 . S
C1645 C1644 1.391 . S
C1646 H1636 0.950 . S
C1646 C1647 1.386 . S
C1646 C1648 1.391 . S
C1647 C1646 1.386 . S
C1647 C1651 1.393 . S
C1648 H1637 0.950 . S
C1648 C1646 1.391 . S
C1648 C1649 1.400 . S
C1649 C1643 1.491 . S
C1649 C1648 1.400 . S
C1649 C1650 1.398 . S
C1650 H1638 0.950 . S
C1650 C1649 1.398 . S
C1650 C1651 1.391 . S
C1651 H1639 0.950 . S
C1651 C1647 1.393 . S
C1651 C1650 1.391 . S
H1652 C1660 0.950 . S
H1653 C1665 0.950 . S
H1654 C1662 0.950 . S
H1655 C1664 0.950 . S
H1656 C1666 0.950 . S
H1657 C1668 0.950 . S
H1658 C1670 0.950 . S
H1659 C1671 0.950 . S
C1660 H1652 0.950 . S
C1660 C1661 1.386 . S
C1660 C1662 1.391 . S
C1661 C1660 1.386 . S
C1661 C1665 1.393 . S
C1662 H1654 0.950 . S
C1662 C1660 1.391 . S
C1662 C1663 1.400 . S
C1663 C1662 1.400 . S
C1663 C1664 1.398 . S
C1663 C1669 1.491 . S
C1664 H1655 0.950 . S
C1664 C1663 1.398 . S
C1664 C1665 1.391 . S
C1665 H1653 0.950 . S
C1665 C1661 1.393 . S
C1665 C1664 1.391 . S
C1666 H1656 0.950 . S
C1666 C1667 1.386 . S
C1666 C1668 1.391 . S
C1667 C1666 1.386 . S
C1667 C1671 1.393 . S
C1668 H1657 0.950 . S
C1668 C1666 1.391 . S
C1668 C1669 1.400 . S
C1669 C1663 1.491 . S
C1669 C1668 1.400 . S
C1669 C1670 1.398 . S
C1670 H1658 0.950 . S
C1670 C1669 1.398 . S
C1670 C1671 1.391 . S
C1671 H1659 0.950 . S
C1671 C1667 1.393 . S
C1671 C1670 1.391 . S
H1672 C1680 0.950 . S
H1673 C1685 0.950 . S
H1674 C1682 0.950 . S
H1675 C1684 0.950 . S
H1676 C1686 0.950 . S
H1677 C1688 0.950 . S
H1678 C1690 0.950 . S
H1679 C1691 0.950 . S
C1680 H1672 0.950 . S
C1680 C1681 1.386 . S
C1680 C1682 1.391 . S
C1681 C1680 1.386 . S
C1681 C1685 1.393 . S
C1682 H1674 0.950 . S
C1682 C1680 1.391 . S
C1682 C1683 1.400 . S
C1683 C1682 1.400 . S
C1683 C1684 1.398 . S
C1683 C1689 1.491 . S
C1684 H1675 0.950 . S
C1684 C1683 1.398 . S
C1684 C1685 1.391 . S
C1685 H1673 0.950 . S
C1685 C1681 1.393 . S
C1685 C1684 1.391 . S
C1686 H1676 0.950 . S
C1686 C1687 1.386 . S
C1686 C1688 1.391 . S
C1687 C1686 1.386 . S
C1687 C1691 1.393 . S
C1688 H1677 0.950 . S
C1688 C1686 1.391 . S
C1688 C1689 1.400 . S
C1689 C1683 1.491 . S
C1689 C1688 1.400 . S
C1689 C1690 1.398 . S
C1690 H1678 0.950 . S
C1690 C1689 1.398 . S
C1690 C1691 1.391 . S
C1691 H1679 0.950 . S
C1691 C1687 1.393 . S
C1691 C1690 1.391 . S
H1692 C1700 0.950 . S
H1693 C1705 0.950 . S
H1694 C1702 0.950 . S
H1695 C1704 0.950 . S
H1696 C1706 0.950 . S
H1697 C1708 0.950 . S
H1698 C1710 0.950 . S
H1699 C1711 0.950 . S
C1700 H1692 0.950 . S
C1700 C1701 1.386 . S
C1700 C1702 1.391 . S
C1701 C1700 1.386 . S
C1701 C1705 1.393 . S
C1702 H1694 0.950 . S
C1702 C1700 1.391 . S
C1702 C1703 1.400 . S
C1703 C1702 1.400 . S
C1703 C1704 1.398 . S
C1703 C1709 1.491 . S
C1704 H1695 0.950 . S
C1704 C1703 1.398 . S
C1704 C1705 1.391 . S
C1705 H1693 0.950 . S
C1705 C1701 1.393 . S
C1705 C1704 1.391 . S
C1706 H1696 0.950 . S
C1706 C1707 1.386 . S
C1706 C1708 1.391 . S
C1707 C1706 1.386 . S
C1707 C1711 1.393 . S
C1708 H1697 0.950 . S
C1708 C1706 1.391 . S
C1708 C1709 1.400 . S
C1709 C1703 1.491 . S
C1709 C1708 1.400 . S
C1709 C1710 1.398 . S
C1710 H1698 0.950 . S
C1710 C1709 1.398 . S
C1710 C1711 1.391 . S
C1711 H1699 0.950 . S
C1711 C1707 1.393 . S
C1711 C1710 1.391 . S
H1712 C1720 0.950 . S
H1713 C1725 0.950 . S
H1714 C1722 0.950 . S
H1715 C1724 0.950 . S
H1716 C1726 0.950 . S
H1717 C1728 0.950 . S
H1718 C1730 0.950 . S
H1719 C1731 0.950 . S
C1720 H1712 0.950 . S
C1720 C1721 1.386 . S
C1720 C1722 1.391 . S
C1721 C1720 1.386 . S
C1721 C1725 1.393 . S
C1722 H1714 0.950 . S
C1722 C1720 1.391 . S
C1722 C1723 1.400 . S
C1723 C1722 1.400 . S
C1723 C1724 1.398 . S
C1723 C1729 1.491 . S
C1724 H1715 0.950 . S
C1724 C1723 1.398 . S
C1724 C1725 1.391 . S
C1725 H1713 0.950 . S
C1725 C1721 1.393 . S
C1725 C1724 1.391 . S
C1726 H1716 0.950 . S
C1726 C1727 1.386 . S
C1726 C1728 1.391 . S
C1727 C1726 1.386 . S
C1727 C1731 1.393 . S
C1728 H1717 0.950 . S
C1728 C1726 1.391 . S
C1728 C1729 1.400 . S
C1729 C1723 1.491 . S
C1729 C1728 1.400 . S
C1729 C1730 1.398 . S
C1730 H1718 0.950 . S
C1730 C1729 1.398 . S
C1730 C1731 1.391 . S
C1731 H1719 0.950 . S
C1731 C1727 1.393 . S
C1731 C1730 1.391 . S
H1732 C1740 0.950 . S
H1733 C1745 0.950 . S
H1734 C1742 0.950 . S
H1735 C1744 0.950 . S
H1736 C1746 0.950 . S
H1737 C1748 0.950 . S
H1738 C1750 0.950 . S
H1739 C1751 0.950 . S
C1740 H1732 0.950 . S
C1740 C1741 1.386 . S
C1740 C1742 1.391 . S
C1741 C1740 1.386 . S
C1741 C1745 1.393 . S
C1742 H1734 0.950 . S
C1742 C1740 1.391 . S
C1742 C1743 1.400 . S
C1743 C1742 1.400 . S
C1743 C1744 1.398 . S
C1743 C1749 1.491 . S
C1744 H1735 0.950 . S
C1744 C1743 1.398 . S
C1744 C1745 1.391 . S
C1745 H1733 0.950 . S
C1745 C1741 1.393 . S
C1745 C1744 1.391 . S
C1746 H1736 0.950 . S
C1746 C1747 1.386 . S
C1746 C1748 1.391 . S
C1747 C1746 1.386 . S
C1747 C1751 1.393 . S
C1748 H1737 0.950 . S
C1748 C1746 1.391 . S
C1748 C1749 1.400 . S
C1749 C1743 1.491 . S
C1749 C1748 1.400 . S
C1749 C1750 1.398 . S
C1750 H1738 0.950 . S
C1750 C1749 1.398 . S
C1750 C1751 1.391 . S
C1751 H1739 0.950 . S
C1751 C1747 1.393 . S
C1751 C1750 1.391 . S
H1752 C1760 0.950 . S
H1753 C1765 0.950 . S
H1754 C1762 0.950 . S
H1755 C1764 0.950 . S
H1756 C1766 0.950 . S
H1757 C1768 0.950 . S
H1758 C1770 0.950 . S
H1759 C1771 0.950 . S
C1760 H1752 0.950 . S
C1760 C1761 1.386 . S
C1760 C1762 1.391 . S
C1761 C1760 1.386 . S
C1761 C1765 1.393 . S
C1762 H1754 0.950 . S
C1762 C1760 1.391 . S
C1762 C1763 1.400 . S
C1763 C1762 1.400 . S
C1763 C1764 1.398 . S
C1763 C1769 1.491 . S
C1764 H1755 0.950 . S
C1764 C1763 1.398 . S
C1764 C1765 1.391 . S
C1765 H1753 0.950 . S
C1765 C1761 1.393 . S
C1765 C1764 1.391 . S
C1766 H1756 0.950 . S
C1766 C1767 1.386 . S
C1766 C1768 1.391 . S
C1767 C1766 1.386 . S
C1767 C1771 1.393 . S
C1768 H1757 0.950 . S
C1768 C1766 1.391 . S
C1768 C1769 1.400 . S
C1769 C1763 1.491 . S
C1769 C1768 1.400 . S
C1769 C1770 1.398 . S
C1770 H1758 0.950 . S
C1770 C1769 1.398 . S
C1770 C1771 1.391 . S
C1771 H1759 0.950 . S
C1771 C1767 1.393 . S
C1771 C1770 1.391 . S
H1772 C1780 0.950 . S
H1773 C1785 0.950 . S
H1774 C1782 0.950 . S
H1775 C1784 0.950 . S
H1776 C1786 0.950 . S
H1777 C1788 0.950 . S
H1778 C1790 0.950 . S
H1779 C1791 0.950 . S
C1780 H1772 0.950 . S
C1780 C1781 1.386 . S
C1780 C1782 1.391 . S
C1781 C1780 1.386 . S
C1781 C1785 1.393 . S
C1782 H1774 0.950 . S
C1782 C1780 1.391 . S
C1782 C1783 1.400 . S
C1783 C1782 1.400 . S
C1783 C1784 1.398 . S
C1783 C1789 1.491 . S
C1784 H1775 0.950 . S
C1784 C1783 1.398 . S
C1784 C1785 1.391 . S
C1785 H1773 0.950 . S
C1785 C1781 1.393 . S
C1785 C1784 1.391 . S
C1786 H1776 0.950 . S
C1786 C1787 1.386 . S
C1786 C1788 1.391 . S
C1787 C1786 1.386 . S
C1787 C1791 1.393 . S
C1788 H1777 0.950 . S
C1788 C1786 1.391 . S
C1788 C1789 1.400 . S
C1789 C1783 1.491 . S
C1789 C1788 1.400 . S
C1789 C1790 1.398 . S
C1790 H1778 0.950 . S
C1790 C1789 1.398 . S
C1790 C1791 1.391 . S
C1791 H1779 0.950 . S
C1791 C1787 1.393 . S
C1791 C1790 1.391 . S
H1792 C1800 0.950 . S
H1793 C1805 0.950 . S
H1794 C1802 0.950 . S
H1795 C1804 0.950 . S
H1796 C1806 0.950 . S
H1797 C1808 0.950 . S
H1798 C1810 0.950 . S
H1799 C1811 0.950 . S
C1800 H1792 0.950 . S
C1800 C1801 1.386 . S
C1800 C1802 1.391 . S
C1801 C1800 1.386 . S
C1801 C1805 1.393 . S
C1802 H1794 0.950 . S
C1802 C1800 1.391 . S
C1802 C1803 1.400 . S
C1803 C1802 1.400 . S
C1803 C1804 1.398 . S
C1803 C1809 1.491 . S
C1804 H1795 0.950 . S
C1804 C1803 1.398 . S
C1804 C1805 1.391 . S
C1805 H1793 0.950 . S
C1805 C1801 1.393 . S
C1805 C1804 1.391 . S
C1806 H1796 0.950 . S
C1806 C1807 1.386 . S
C1806 C1808 1.391 . S
C1807 C1806 1.386 . S
C1807 C1811 1.393 . S
C1808 H1797 0.950 . S
C1808 C1806 1.391 . S
C1808 C1809 1.400 . S
C1809 C1803 1.491 . S
C1809 C1808 1.400 . S
C1809 C1810 1.398 . S
C1810 H1798 0.950 . S
C1810 C1809 1.398 . S
C1810 C1811 1.391 . S
C1811 H1799 0.950 . S
C1811 C1807 1.393 . S
C1811 C1810 1.391 . S
H1812 C1820 0.950 . S
H1813 C1825 0.950 . S
H1814 C1822 0.950 . S
H1815 C1824 0.950 . S
H1816 C1826 0.950 . S
H1817 C1828 0.950 . S
H1818 C1830 0.950 . S
H1819 C1831 0.950 . S
C1820 H1812 0.950 . S
C1820 C1821 1.386 . S
C1820 C1822 1.391 . S
C1821 C1820 1.386 . S
C1821 C1825 1.393 . S
C1822 H1814 0.950 . S
C1822 C1820 1.391 . S
C1822 C1823 1.400 . S
C1823 C1822 1.400 . S
C1823 C1824 1.398 . S
C1823 C1829 1.491 . S
C1824 H1815 0.950 . S
C1824 C1823 1.398 . S
C1824 C1825 1.391 . S
C1825 H1813 0.950 . S
C1825 C1821 1.393 . S
C1825 C1824 1.391 . S
C1826 H1816 0.950 . S
C1826 C1827 1.386 . S
C1826 C1828 1.391 . S
C1827 C1826 1.386 . S
C1827 C1831 1.393 . S
C1828 H1817 0.950 . S
C1828 C1826 1.391 . S
C1828 C1829 1.400 . S
C1829 C1823 1.491 . S
C1829 C1828 1.400 . S
C1829 C1830 1.398 . S
C1830 H1818 0.950 . S
C1830 C1829 1.398 . S
C1830 C1831 1.391 . S
C1831 H1819 0.950 . S
C1831 C1827 1.393 . S
C1831 C1830 1.391 . S
H1832 C1840 0.950 . S
H1833 C1845 0.950 . S
H1834 C1842 0.950 . S
H1835 C1844 0.950 . S
H1836 C1846 0.950 . S
H1837 C1848 0.950 . S
H1838 C1850 0.950 . S
H1839 C1851 0.950 . S
C1840 H1832 0.950 . S
C1840 C1841 1.386 . S
C1840 C1842 1.391 . S
C1841 C1840 1.386 . S
C1841 C1845 1.393 . S
C1842 H1834 0.950 . S
C1842 C1840 1.391 . S
C1842 C1843 1.400 . S
C1843 C1842 1.400 . S
C1843 C1844 1.398 . S
C1843 C1849 1.491 . S
C1844 H1835 0.950 . S
C1844 C1843 1.398 . S
C1844 C1845 1.391 . S
C1845 H1833 0.950 . S
C1845 C1841 1.393 . S
C1845 C1844 1.391 . S
C1846 H1836 0.950 . S
C1846 C1847 1.386 . S
C1846 C1848 1.391 . S
C1847 C1846 1.386 . S
C1847 C1851 1.393 . S
C1848 H1837 0.950 . S
C1848 C1846 1.391 . S
C1848 C1849 1.400 . S
C1849 C1843 1.491 . S
C1849 C1848 1.400 . S
C1849 C1850 1.398 . S
C1850 H1838 0.950 . S
C1850 C1849 1.398 . S
C1850 C1851 1.391 . S
C1851 H1839 0.950 . S
C1851 C1847 1.393 . S
C1851 C1850 1.391 . S
H1852 C1860 0.950 . S
H1853 C1865 0.950 . S
H1854 C1862 0.950 . S
H1855 C1864 0.950 . S
H1856 C1866 0.950 . S
H1857 C1868 0.950 . S
H1858 C1870 0.950 . S
H1859 C1871 0.950 . S
C1860 H1852 0.950 . S
C1860 C1861 1.386 . S
C1860 C1862 1.391 . S
C1861 C1860 1.386 . S
C1861 C1865 1.393 . S
C1862 H1854 0.950 . S
C1862 C1860 1.391 . S
C1862 C1863 1.400 . S
C1863 C1862 1.400 . S
C1863 C1864 1.398 . S
C1863 C1869 1.491 . S
C1864 H1855 0.950 . S
C1864 C1863 1.398 . S
C1864 C1865 1.391 . S
C1865 H1853 0.950 . S
C1865 C1861 1.393 . S
C1865 C1864 1.391 . S
C1866 H1856 0.950 . S
C1866 C1867 1.386 . S
C1866 C1868 1.391 . S
C1867 C1866 1.386 . S
C1867 C1871 1.393 . S
C1868 H1857 0.950 . S
C1868 C1866 1.391 . S
C1868 C1869 1.400 . S
C1869 C1863 1.491 . S
C1869 C1868 1.400 . S
C1869 C1870 1.398 . S
C1870 H1858 0.950 . S
C1870 C1869 1.398 . S
C1870 C1871 1.391 . S
C1871 H1859 0.950 . S
C1871 C1867 1.393 . S
C1871 C1870 1.391 . S
H1872 C1880 0.950 . S
H1873 C1885 0.950 . S
H1874 C1882 0.950 . S
H1875 C1884 0.950 . S
H1876 C1886 0.950 . S
H1877 C1888 0.950 . S
H1878 C1890 0.950 . S
H1879 C1891 0.950 . S
C1880 H1872 0.950 . S
C1880 C1881 1.386 . S
C1880 C1882 1.391 . S
C1881 C1880 1.386 . S
C1881 C1885 1.393 . S
C1882 H1874 0.950 . S
C1882 C1880 1.391 . S
C1882 C1883 1.400 . S
C1883 C1882 1.400 . S
C1883 C1884 1.398 . S
C1883 C1889 1.491 . S
C1884 H1875 0.950 . S
C1884 C1883 1.398 . S
C1884 C1885 1.391 . S
C1885 H1873 0.950 . S
C1885 C1881 1.393 . S
C1885 C1884 1.391 . S
C1886 H1876 0.950 . S
C1886 C1887 1.386 . S
C1886 C1888 1.391 . S
C1887 C1886 1.386 . S
C1887 C1891 1.393 . S
C1888 H1877 0.950 . S
C1888 C1886 1.391 . S
C1888 C1889 1.400 . S
C1889 C1883 1.491 . S
C1889 C1888 1.400 . S
C1889 C1890 1.398 . S
C1890 H1878 0.950 . S
C1890 C1889 1.398 . S
C1890 C1891 1.391 . S
C1891 H1879 0.950 . S
C1891 C1887 1.393 . S
C1891 C1890 1.391 . S
H1892 C1900 0.950 . S
H1893 C1905 0.950 . S
H1894 C1902 0.950 . S
H1895 C1904 0.950 . S
H1896 C1906 0.950 . S
H1897 C1908 0.950 . S
H1898 C1910 0.950 . S
H1899 C1911 0.950 . S
C1900 H1892 0.950 . S
C1900 C1901 1.386 . S
C1900 C1902 1.391 . S
C1901 C1900 1.386 . S
C1901 C1905 1.393 . S
C1902 H1894 0.950 . S
C1902 C1900 1.391 . S
C1902 C1903 1.400 . S
C1903 C1902 1.400 . S
C1903 C1904 1.398 . S
C1903 C1909 1.491 . S
C1904 H1895 0.950 . S
C1904 C1903 1.398 . S
C1904 C1905 1.391 . S
C1905 H1893 0.950 . S
C1905 C1901 1.393 . S
C1905 C1904 1.391 . S
C1906 H1896 0.950 . S
C1906 C1907 1.386 . S
C1906 C1908 1.391 . S
C1907 C1906 1.386 . S
C1907 C1911 1.393 . S
C1908 H1897 0.950 . S
C1908 C1906 1.391 . S
C1908 C1909 1.400 . S
C1909 C1903 1.491 . S
C1909 C1908 1.400 . S
C1909 C1910 1.398 . S
C1910 H1898 0.950 . S
C1910 C1909 1.398 . S
C1910 C1911 1.391 . S
C1911 H1899 0.950 . S
C1911 C1907 1.393 . S
C1911 C1910 1.391 . S
H1912 C1920 0.950 . S
H1913 C1925 0.950 . S
H1914 C1922 0.950 . S
H1915 C1924 0.950 . S
H1916 C1926 0.950 . S
H1917 C1928 0.950 . S
H1918 C1930 0.950 . S
H1919 C1931 0.950 . S
C1920 H1912 0.950 . S
C1920 C1921 1.386 . S
C1920 C1922 1.391 . S
C1921 C1920 1.386 . S
C1921 C1925 1.393 . S
C1922 H1914 0.950 . S
C1922 C1920 1.391 . S
C1922 C1923 1.400 . S
C1923 C1922 1.400 . S
C1923 C1924 1.398 . S
C1923 C1929 1.491 . S
C1924 H1915 0.950 . S
C1924 C1923 1.398 . S
C1924 C1925 1.391 . S
C1925 H1913 0.950 . S
C1925 C1921 1.393 . S
C1925 C1924 1.391 . S
C1926 H1916 0.950 . S
C1926 C1927 1.386 . S
C1926 C1928 1.391 . S
C1927 C1926 1.386 . S
C1927 C1931 1.393 . S
C1928 H1917 0.950 . S
C1928 C1926 1.391 . S
C1928 C1929 1.400 . S
C1929 C1923 1.491 . S
C1929 C1928 1.400 . S
C1929 C1930 1.398 . S
C1930 H1918 0.950 . S
C1930 C1929 1.398 . S
C1930 C1931 1.391 . S
C1931 H1919 0.950 . S
C1931 C1927 1.393 . S
C1931 C1930 1.391 . S
H1932 C1940 0.950 . S
H1933 C1945 0.950 . S
H1934 C1942 0.950 . S
H1935 C1944 0.950 . S
H1936 C1946 0.950 . S
H1937 C1948 0.950 . S
H1938 C1950 0.950 . S
H1939 C1951 0.950 . S
C1940 H1932 0.950 . S
C1940 C1941 1.386 . S
C1940 C1942 1.391 . S
C1941 C1940 1.386 . S
C1941 C1945 1.393 . S
C1942 H1934 0.950 . S
C1942 C1940 1.391 . S
C1942 C1943 1.400 . S
C1943 C1942 1.400 . S
C1943 C1944 1.398 . S
C1943 C1949 1.491 . S
C1944 H1935 0.950 . S
C1944 C1943 1.398 . S
C1944 C1945 1.391 . S
C1945 H1933 0.950 . S
C1945 C1941 1.393 . S
C1945 C1944 1.391 . S
C1946 H1936 0.950 . S
C1946 C1947 1.386 . S
C1946 C1948 1.391 . S
C1947 C1946 1.386 . S
C1947 C1951 1.393 . S
C1948 H1937 0.950 . S
C1948 C1946 1.391 . S
C1948 C1949 1.400 . S
C1949 C1943 1.491 . S
C1949 C1948 1.400 . S
C1949 C1950 1.398 . S
C1950 H1938 0.950 . S
C1950 C1949 1.398 . S
C1950 C1951 1.391 . S
C1951 H1939 0.950 . S
C1951 C1947 1.393 . S
C1951 C1950 1.391 . S
H1952 C1960 0.950 . S
H1953 C1965 0.950 . S
H1954 C1962 0.950 . S
H1955 C1964 0.950 . S
H1956 C1966 0.950 . S
H1957 C1968 0.950 . S
H1958 C1970 0.950 . S
H1959 C1971 0.950 . S
C1960 H1952 0.950 . S
C1960 C1961 1.386 . S
C1960 C1962 1.391 . S
C1961 C1960 1.386 . S
C1961 C1965 1.393 . S
C1962 H1954 0.950 . S
C1962 C1960 1.391 . S
C1962 C1963 1.400 . S
C1963 C1962 1.400 . S
C1963 C1964 1.398 . S
C1963 C1969 1.491 . S
C1964 H1955 0.950 . S
C1964 C1963 1.398 . S
C1964 C1965 1.391 . S
C1965 H1953 0.950 . S
C1965 C1961 1.393 . S
C1965 C1964 1.391 . S
C1966 H1956 0.950 . S
C1966 C1967 1.386 . S
C1966 C1968 1.391 . S
C1967 C1966 1.386 . S
C1967 C1971 1.393 . S
C1968 H1957 0.950 . S
C1968 C1966 1.391 . S
C1968 C1969 1.400 . S
C1969 C1963 1.491 . S
C1969 C1968 1.400 . S
C1969 C1970 1.398 . S
C1970 H1958 0.950 . S
C1970 C1969 1.398 . S
C1970 C1971 1.391 . S
C1971 H1959 0.950 . S
C1971 C1967 1.393 . S
C1971 C1970 1.391 . S
H1972 C1980 0.950 . S
H1973 C1985 0.950 . S
H1974 C1982 0.950 . S
H1975 C1984 0.950 . S
H1976 C1986 0.950 . S
H1977 C1988 0.950 . S
H1978 C1990 0.950 . S
H1979 C1991 0.950 . S
C1980 H1972 0.950 . S
C1980 C1981 1.386 . S
C1980 C1982 1.391 . S
C1981 C1980 1.386 . S
C1981 C1985 1.393 . S
C1982 H1974 0.950 . S
C1982 C1980 1.391 . S
C1982 C1983 1.400 . S
C1983 C1982 1.400 . S
C1983 C1984 1.398 . S
C1983 C1989 1.491 . S
C1984 H1975 0.950 . S
C1984 C1983 1.398 . S
C1984 C1985 1.391 . S
C1985 H1973 0.950 . S
C1985 C1981 1.393 . S
C1985 C1984 1.391 . S
C1986 H1976 0.950 . S
C1986 C1987 1.386 . S
C1986 C1988 1.391 . S
C1987 C1986 1.386 . S
C1987 C1991 1.393 . S
C1988 H1977 0.950 . S
C1988 C1986 1.391 . S
C1988 C1989 1.400 . S
C1989 C1983 1.491 . S
C1989 C1988 1.400 . S
C1989 C1990 1.398 . S
C1990 H1978 0.950 . S
C1990 C1989 1.398 . S
C1990 C1991 1.391 . S
C1991 H1979 0.950 . S
C1991 C1987 1.393 . S
C1991 C1990 1.391 . S
H1992 C2000 0.950 . S
H1993 C2005 0.950 . S
H1994 C2002 0.950 . S
H1995 C2004 0.950 . S
H1996 C2006 0.950 . S
H1997 C2008 0.950 . S
H1998 C2010 0.950 . S
H1999 C2011 0.950 . S
C2000 H1992 0.950 . S
C2000 C2001 1.386 . S
C2000 C2002 1.391 . S
C2001 C2000 1.386 . S
C2001 C2005 1.393 . S
C2002 H1994 0.950 . S
C2002 C2000 1.391 . S
C2002 C2003 1.400 . S
C2003 C2002 1.400 . S
C2003 C2004 1.398 . S
C2003 C2009 1.491 . S
C2004 H1995 0.950 . S
C2004 C2003 1.398 . S
C2004 C2005 1.391 . S
C2005 H1993 0.950 . S
C2005 C2001 1.393 . S
C2005 C2004 1.391 . S
C2006 H1996 0.950 . S
C2006 C2007 1.386 . S
C2006 C2008 1.391 . S
C2007 C2006 1.386 . S
C2007 C2011 1.393 . S
C2008 H1997 0.950 . S
C2008 C2006 1.391 . S
C2008 C2009 1.400 . S
C2009 C2003 1.491 . S
C2009 C2008 1.400 . S
C2009 C2010 1.398 . S
C2010 H1998 0.950 . S
C2010 C2009 1.398 . S
C2010 C2011 1.391 . S
C2011 H1999 0.950 . S
C2011 C2007 1.393 . S
C2011 C2010 1.391 . S
H2012 C2020 0.950 . S
H2013 C2025 0.950 . S
H2014 C2022 0.950 . S
H2015 C2024 0.950 . S
H2016 C2026 0.950 . S
H2017 C2028 0.950 . S
H2018 C2030 0.950 . S
H2019 C2031 0.950 . S
C2020 H2012 0.950 . S
C2020 C2021 1.386 . S
C2020 C2022 1.391 . S
C2021 C2020 1.386 . S
C2021 C2025 1.393 . S
C2022 H2014 0.950 . S
C2022 C2020 1.391 . S
C2022 C2023 1.400 . S
C2023 C2022 1.400 . S
C2023 C2024 1.398 . S
C2023 C2029 1.491 . S
C2024 H2015 0.950 . S
C2024 C2023 1.398 . S
C2024 C2025 1.391 . S
C2025 H2013 0.950 . S
C2025 C2021 1.393 . S
C2025 C2024 1.391 . S
C2026 H2016 0.950 . S
C2026 C2027 1.386 . S
C2026 C2028 1.391 . S
C2027 C2026 1.386 . S
C2027 C2031 1.393 . S
C2028 H2017 0.950 . S
C2028 C2026 1.391 . S
C2028 C2029 1.400 . S
C2029 C2023 1.491 . S
C2029 C2028 1.400 . S
C2029 C2030 1.398 . S
C2030 H2018 0.950 . S
C2030 C2029 1.398 . S
C2030 C2031 1.391 . S
C2031 H2019 0.950 . S
C2031 C2027 1.393 . S
C2031 C2030 1.391 . S
H2032 C2040 0.950 . S
H2033 C2045 0.950 . S
H2034 C2042 0.950 . S
H2035 C2044 0.950 . S
H2036 C2046 0.950 . S
H2037 C2048 0.950 . S
H2038 C2050 0.950 . S
H2039 C2051 0.950 . S
C2040 H2032 0.950 . S
C2040 C2041 1.386 . S
C2040 C2042 1.391 . S
C2041 C2040 1.386 . S
C2041 C2045 1.393 . S
C2042 H2034 0.950 . S
C2042 C2040 1.391 . S
C2042 C2043 1.400 . S
C2043 C2042 1.400 . S
C2043 C2044 1.398 . S
C2043 C2049 1.491 . S
C2044 H2035 0.950 . S
C2044 C2043 1.398 . S
C2044 C2045 1.391 . S
C2045 H2033 0.950 . S
C2045 C2041 1.393 . S
C2045 C2044 1.391 . S
C2046 H2036 0.950 . S
C2046 C2047 1.386 . S
C2046 C2048 1.391 . S
C2047 C2046 1.386 . S
C2047 C2051 1.393 . S
C2048 H2037 0.950 . S
C2048 C2046 1.391 . S
C2048 C2049 1.400 . S
C2049 C2043 1.491 . S
C2049 C2048 1.400 . S
C2049 C2050 1.398 . S
C2050 H2038 0.950 . S
C2050 C2049 1.398 . S
C2050 C2051 1.391 . S
C2051 H2039 0.950 . S
C2051 C2047 1.393 . S
C2051 C2050 1.391 . S
C981 C162 1.454 . S
C987 C283 1.385 . S
C1001 C174 1.471 . S
C1007 C367 1.432 . S
C1021 C150 1.442 . S
C1027 C447 1.445 . S
C1041 C138 1.421 . S
C1047 C363 1.423 1_556 S
C1067 C451 1.393 . S
C1061 C114 1.430 . S
C1081 C126 1.405 . S
C1087 C279 1.391 1_556 S
C1107 C272 1.455 . S
C1101 C136 1.496 . S
C1127 C356 1.472 . S
C1121 C112 1.523 . S
C1141 C124 1.510 . S
C1147 C458 1.470 1_556 S
C1161 C160 1.476 . S
C1167 C374 1.455 . S
C1181 C172 1.477 . S
C1187 C440 1.402 . S
C1207 C290 1.433 . S
C1201 C148 1.455 . S
C1227 C535 1.385 . S
C1221 C18 1.451 . S
C1241 C30 1.480 . S
C1247 C619 1.414 . S
C1261 C6 1.446 . S
C1267 C699 1.433 . S
C1281 C210 1.431 . S
C1287 C615 1.421 . S
C1301 C186 1.436 . S
C1307 C703 1.363 . S
C1321 C198 1.401 . S
C1327 C531 1.393 . S
C1341 C208 1.497 . S
C1347 C524 1.434 . S
C1361 C184 1.514 . S
C1367 C608 1.484 . S
C1387 C710 1.484 . S
C1381 C196 1.520 . S
C1401 C16 1.476 . S
C1407 C626 1.442 . S
C1427 C692 1.402 . S
C1421 C28 1.477 . S
C1441 C4 1.454 . S
C1447 C542 1.429 . S
C1467 C787 1.409 . S
C1461 C90 1.446 . S
C1481 C102 1.472 . S
C1487 C871 1.439 . S
C1507 C951 1.433 . S
C1501 C78 1.445 . S
C1527 C867 1.422 . S
C1521 C66 1.421 . S
C1547 C955 1.369 . S
C1541 C42 1.433 . S
C1561 C54 1.401 . S
C1567 C783 1.393 . S
C1581 C64 1.497 . S
C1587 C776 1.434 . S
C1601 C40 1.516 . S
C1607 C860 1.482 . S
C1627 C962 1.479 . S
C1621 C52 1.503 . S
C1641 C88 1.484 . S
C1647 C878 1.443 . S
C1661 C100 1.478 . S
C1667 C944 1.405 . S
C1681 C76 1.467 . S
C1687 C794 1.447 . S
C1701 C189 1.574 . S
C1707 C286 1.439 . S
C1727 C370 1.489 . S
C1721 C201 1.623 . S
C1741 C213 1.580 . S
C1747 C442 1.408 . S
C1761 C81 1.592 . S
C1767 C358 1.395 . S
C1781 C93 1.594 . S
C1787 C454 1.449 . S
C1807 C274 1.348 . S
C1801 C105 1.534 . S
C1821 C45 1.562 . S
C1827 C538 1.465 . S
C1841 C57 1.635 . S
C1847 C622 1.485 . S
C1861 C69 1.573 . S
C1867 C694 1.412 . S
C1881 C153 1.592 . S
C1887 C610 1.391 . S
C1907 C706 1.437 . S
C1901 C165 1.593 . S
C1921 C177 1.531 . S
C1927 C526 1.354 . S
C1941 C117 1.570 . S
C1947 C790 1.430 . S
C1961 C129 1.628 . S
C1967 C874 1.467 . S
C1987 C946 1.378 . S
C1981 C141 1.578 . S
C2001 C9 1.601 . S
C2007 C862 1.393 . S
C2021 C21 1.594 . S
C2027 C958 1.446 . S
C2041 C33 1.535 . S
C2047 C778 1.390 . S
