# Generated by pormake.
# Topology pyr, (3,6)-cn, num edge types: 1
# Building blocks:
#     Node 0, Type 0, BuildingBlock: CUQRIR_clean_linker_1, # of connection points: 3
#     Node 1, Type 0, BuildingBlock: CUQRIR_clean_linker_1, # of connection points: 3
#     Node 2, Type 0, BuildingBlock: CUQRIR_clean_linker_1, # of connection points: 3
#     Node 3, Type 0, BuildingBlock: CUQRIR_clean_linker_1, # of connection points: 3
#     Node 4, Type 0, BuildingBlock: CUQRIR_clean_linker_1, # of connection points: 3
#     Node 5, Type 0, BuildingBlock: CUQRIR_clean_linker_1, # of connection points: 3
#     Node 6, Type 0, BuildingBlock: CUQRIR_clean_linker_1, # of connection points: 3
#     Node 7, Type 0, BuildingBlock: CUQRIR_clean_linker_1, # of connection points: 3
#     Node 8, Type 1, BuildingBlock: INOVEN_clean_sbu_0, # of connection points: 6
#     Node 9, Type 1, BuildingBlock: INOVEN_clean_sbu_0, # of connection points: 6
#     Node 10, Type 1, BuildingBlock: INOVEN_clean_sbu_0, # of connection points: 6
#     Node 11, Type 1, BuildingBlock: INOVEN_clean_sbu_0, # of connection points: 6
#     Edge 12, Type (0, 1), BuildingBlock: ZUJKAS_clean_linker_0, # of connection points: 2
#     Edge 13, Type (0, 1), BuildingBlock: ZUJKAS_clean_linker_0, # of connection points: 2
#     Edge 14, Type (0, 1), BuildingBlock: ZUJKAS_clean_linker_0, # of connection points: 2
#     Edge 15, Type (0, 1), BuildingBlock: ZUJKAS_clean_linker_0, # of connection points: 2
#     Edge 16, Type (0, 1), BuildingBlock: ZUJKAS_clean_linker_0, # of connection points: 2
#     Edge 17, Type (0, 1), BuildingBlock: ZUJKAS_clean_linker_0, # of connection points: 2
#     Edge 18, Type (0, 1), BuildingBlock: ZUJKAS_clean_linker_0, # of connection points: 2
#     Edge 19, Type (0, 1), BuildingBlock: ZUJKAS_clean_linker_0, # of connection points: 2
#     Edge 20, Type (0, 1), BuildingBlock: ZUJKAS_clean_linker_0, # of connection points: 2
#     Edge 21, Type (0, 1), BuildingBlock: ZUJKAS_clean_linker_0, # of connection points: 2
#     Edge 22, Type (0, 1), BuildingBlock: ZUJKAS_clean_linker_0, # of connection points: 2
#     Edge 23, Type (0, 1), BuildingBlock: ZUJKAS_clean_linker_0, # of connection points: 2
#     Edge 24, Type (0, 1), BuildingBlock: ZUJKAS_clean_linker_0, # of connection points: 2
#     Edge 25, Type (0, 1), BuildingBlock: ZUJKAS_clean_linker_0, # of connection points: 2
#     Edge 26, Type (0, 1), BuildingBlock: ZUJKAS_clean_linker_0, # of connection points: 2
#     Edge 27, Type (0, 1), BuildingBlock: ZUJKAS_clean_linker_0, # of connection points: 2
#     Edge 28, Type (0, 1), BuildingBlock: ZUJKAS_clean_linker_0, # of connection points: 2
#     Edge 29, Type (0, 1), BuildingBlock: ZUJKAS_clean_linker_0, # of connection points: 2
#     Edge 30, Type (0, 1), BuildingBlock: ZUJKAS_clean_linker_0, # of connection points: 2
#     Edge 31, Type (0, 1), BuildingBlock: ZUJKAS_clean_linker_0, # of connection points: 2
#     Edge 32, Type (0, 1), BuildingBlock: ZUJKAS_clean_linker_0, # of connection points: 2
#     Edge 33, Type (0, 1), BuildingBlock: ZUJKAS_clean_linker_0, # of connection points: 2
#     Edge 34, Type (0, 1), BuildingBlock: ZUJKAS_clean_linker_0, # of connection points: 2
#     Edge 35, Type (0, 1), BuildingBlock: ZUJKAS_clean_linker_0, # of connection points: 2
# Relax obj value: 0.151
# Max RMSD: 0.247
# Mean RMSD: 0.165
data_MOF--net-pyr--node1-INOVEN_clean_sbu_0--node2-CUQRIR_clean_linker_1--edge1-ZUJKAS_clean_linker_0
_symmetry_space_group_name_H-M    P1
_symmetry_Int_Tables_number       1
_symmetry_cell_setting            triclinic
loop_
_symmetry_equiv_pos_as_xyz
'x, y, z'
_cell_length_a     46.31194
_cell_length_b     49.181133
_cell_length_c     43.580742
_cell_angle_alpha  90.203698
_cell_angle_beta   89.947971
_cell_angle_gamma 103.97123
loop_
_atom_site_label
_atom_site_type_symbol
_atom_site_fract_x
_atom_site_fract_y
_atom_site_fract_z
_atom_type_partial_charge
C0 C 0.32776 0.32875 0.20322 0.0
N1 N 0.3423 0.30908 0.21138 0.0
N2 N 0.33583 0.33844 0.17464 0.0
C3 C 0.30273 0.33578 0.22138 0.0
C4 C 0.35543 0.32354 0.16553 0.0
N5 N 0.35922 0.30553 0.1878 0.0
C6 C 0.37131 0.3272 0.13518 0.0
H7 H 0.28496 0.33927 0.20594 0.0
H8 H 0.31163 0.35536 0.23453 0.0
H9 H 0.29264 0.31901 0.2378 0.0
H10 H 0.39378 0.32316 0.13743 0.0
H11 H 0.37332 0.34867 0.12624 0.0
H12 H 0.35839 0.31205 0.11839 0.0
C13 C 0.26498 0.88058 0.6231 0.0
N14 N 0.26745 0.90057 0.645 0.0
N15 N 0.28397 0.86427 0.62885 0.0
C16 C 0.24502 0.8778 0.59543 0.0
C17 C 0.29839 0.87519 0.65473 0.0
N18 N 0.28853 0.89753 0.66441 0.0
C19 C 0.32247 0.86436 0.67006 0.0
H20 H 0.22174 0.86853 0.6026 0.0
H21 H 0.25107 0.8641 0.57754 0.0
H22 H 0.24592 0.89876 0.58555 0.0
H23 H 0.34433 0.87549 0.66051 0.0
H24 H 0.31959 0.84165 0.66576 0.0
H25 H 0.32266 0.86817 0.69517 0.0
C26 C 0.63754 0.37443 0.85644 0.0
N27 N 0.65474 0.37111 0.88082 0.0
N28 N 0.6474 0.40014 0.84355 0.0
C29 C 0.61078 0.35277 0.84544 0.0
C30 C 0.67123 0.41235 0.86111 0.0
N31 N 0.67569 0.39489 0.88376 0.0
C32 C 0.69107 0.44093 0.85524 0.0
H33 H 0.61789 0.33996 0.82724 0.0
H34 H 0.59399 0.36293 0.83552 0.0
H35 H 0.60045 0.33855 0.86421 0.0
H36 H 0.68314 0.45658 0.86922 0.0
H37 H 0.69054 0.44671 0.8307 0.0
H38 H 0.71436 0.44174 0.86196 0.0
C39 C 0.84818 0.70382 0.35525 0.0
N40 N 0.87465 0.72241 0.34958 0.0
N41 N 0.83457 0.71132 0.38042 0.0
C42 C 0.83596 0.67775 0.33664 0.0
C43 C 0.85376 0.73526 0.38995 0.0
N44 N 0.87823 0.74208 0.37156 0.0
C45 C 0.84786 0.75282 0.41652 0.0
H46 H 0.82415 0.68337 0.31638 0.0
H47 H 0.82005 0.66183 0.35023 0.0
H48 H 0.85409 0.66849 0.32821 0.0
H49 H 0.85931 0.74748 0.43718 0.0
H50 H 0.82371 0.74885 0.42148 0.0
H51 H 0.85668 0.77547 0.41178 0.0
C52 C 0.70211 0.83016 0.88388 0.0
N53 N 0.72377 0.82399 0.86631 0.0
N54 N 0.69088 0.85019 0.87039 0.0
C55 C 0.69146 0.81624 0.91384 0.0
C56 C 0.70664 0.856 0.84398 0.0
N57 N 0.72645 0.8399 0.84143 0.0
C58 C 0.70512 0.87964 0.82264 0.0
H59 H 0.69368 0.79427 0.9139 0.0
H60 H 0.66793 0.81657 0.91814 0.0
H61 H 0.70531 0.82769 0.93275 0.0
H62 H 0.70007 0.89744 0.8355 0.0
H63 H 0.68701 0.87203 0.80579 0.0
H64 H 0.72624 0.88723 0.80988 0.0
C65 C 0.80642 0.2794 0.49488 0.0
N66 N 0.80707 0.25903 0.47406 0.0
N67 N 0.78894 0.29589 0.48468 0.0
C68 C 0.82182 0.28258 0.52549 0.0
C69 C 0.77927 0.28504 0.45689 0.0
N70 N 0.7904 0.26273 0.45041 0.0
C71 C 0.75734 0.29508 0.43707 0.0
H72 H 0.80691 0.26955 0.54258 0.0
H73 H 0.82687 0.30461 0.53356 0.0
H74 H 0.84274 0.27541 0.52425 0.0
H75 H 0.76231 0.29315 0.41241 0.0
H76 H 0.75755 0.31725 0.44215 0.0
H77 H 0.73469 0.28188 0.44153 0.0
C78 C 0.35593 0.71667 0.24219 0.0
N79 N 0.38113 0.736 0.25021 0.0
N80 N 0.34058 0.72674 0.22024 0.0
C81 C 0.34552 0.6884 0.25703 0.0
C82 C 0.35734 0.75302 0.21522 0.0
N83 N 0.38183 0.75888 0.23352 0.0
C84 C 0.3507 0.77249 0.19106 0.0
H85 H 0.35562 0.67316 0.24479 0.0
H86 H 0.32095 0.68091 0.25584 0.0
H87 H 0.35257 0.68911 0.28141 0.0
H88 H 0.33801 0.78653 0.20171 0.0
H89 H 0.33724 0.76064 0.17215 0.0
H90 H 0.37153 0.78572 0.18135 0.0
C91 C 0.14197 0.391 0.74389 0.0
N92 N 0.15972 0.38772 0.71975 0.0
N93 N 0.15053 0.41716 0.75632 0.0
C94 C 0.11473 0.36939 0.75382 0.0
C95 C 0.17419 0.42973 0.73867 0.0
N96 N 0.1797 0.41216 0.7163 0.0
C97 C 0.19351 0.45853 0.74497 0.0
H98 H 0.09814 0.37943 0.76447 0.0
H99 H 0.1213 0.35542 0.77101 0.0
H100 H 0.10428 0.35641 0.73406 0.0
H101 H 0.19236 0.46432 0.76949 0.0
H102 H 0.18563 0.47401 0.73082 0.0
H103 H 0.21704 0.45964 0.73891 0.0
Gd104 Gd 0.04324 0.07962 0.49977 0.0
Gd105 Gd 0.03252 0.05375 0.56252 0.0
C106 C 0.05954 0.12026 0.56066 0.0
C107 C 0.0491 0.1091 0.45023 0.0
C108 C 0.07474 0.1291 0.43701 0.0
C109 C 0.10042 0.13919 0.45471 0.0
C110 C 0.0751 0.13532 0.40569 0.0
C111 C 0.12733 0.16005 0.40929 0.0
C112 C 0.10118 0.15073 0.39191 0.0
C113 C 0.12649 0.15465 0.44099 0.0
C114 C 0.08944 0.06215 0.5239 0.0
C115 C 1.01331 1.01382 0.50135 0.0
C116 C 0.03174 1.02312 0.61067 0.0
C117 C 1.0111 0.99795 0.62264 0.0
C118 C 0.98203 0.98966 0.61114 0.0
C119 C 0.01976 0.98307 0.64687 0.0
C120 C 0.96949 0.95325 0.64999 0.0
C121 C 0.99916 0.9608 0.66039 0.0
C122 C 0.96137 0.96759 0.62476 0.0
C123 C 0.98681 0.07305 0.54101 0.0
O124 O 0.05133 0.11838 0.53132 0.0
O125 O 0.0587 0.09717 0.57666 0.0
O126 O 0.05202 0.08337 0.45112 0.0
O127 O 0.03813 0.11674 0.47565 0.0
O128 O 0.0829 0.06012 0.49505 0.0
O129 O 0.07263 0.07439 0.5377 0.0
O130 O 0.02189 1.01526 0.53054 0.0
O131 O 1.01468 0.03716 0.48572 0.0
O132 O 0.02137 0.04561 0.61022 0.0
O133 O 0.04615 1.01984 0.5856 0.0
O134 O 0.99316 0.07237 0.56988 0.0
O135 O 1.00267 0.06079 0.52537 0.0
H136 H 0.10062 0.13417 0.4789 0.0
H137 H 0.05552 0.12745 0.39168 0.0
H138 H 0.10101 0.15493 0.36754 0.0
H139 H 0.1463 0.1613 0.45493 0.0
H140 H 0.97503 1.00093 0.59234 0.0
H141 H 0.04222 0.98913 0.65584 0.0
H142 H 1.00631 0.94991 0.6794 0.0
H143 H 0.9387 0.96269 0.61637 0.0
Gd144 Gd 0.55857 0.07352 0.07979 0.0
Gd145 Gd 0.49872 0.0598 0.05845 0.0
C146 C 0.50873 0.09581 0.11752 0.0
C147 C 0.61162 0.09644 0.09972 0.0
C148 C 0.62639 0.10501 0.12907 0.0
C149 C 0.60989 0.10521 0.15602 0.0
C150 C 0.65749 0.11281 0.13014 0.0
C151 C 0.65577 0.12156 0.18499 0.0
C152 C 0.6721 0.12102 0.15786 0.0
C153 C 0.62449 0.11344 0.18382 0.0
C154 C 0.52703 1.02292 0.10161 0.0
C155 C 0.54791 0.03746 1.02022 0.0
C156 C 0.44612 0.03735 0.03709 0.0
C157 C 0.43294 1.03047 1.00663 0.0
C158 C 0.44886 0.04089 0.98007 0.0
C159 C 0.40416 1.01331 1.00406 0.0
C160 C 0.40704 1.01703 0.94837 0.0
C161 C 0.3913 1.0066 0.97518 0.0
C162 C 0.43599 0.03429 0.95116 0.0
C163 C 0.53095 0.11025 0.03677 0.0
O164 O 0.53688 0.10143 0.10898 0.0
O165 O 0.48948 0.07472 0.10488 0.0
O166 O 0.60165 0.06954 0.09564 0.0
O167 O 0.59297 0.11076 0.09037 0.0
O168 O 0.55417 1.02818 0.09195 0.0
O169 O 0.51754 0.04496 0.10014 0.0
O170 O 0.51984 1.03201 0.02881 0.0
O171 O 0.56754 0.05798 0.03339 0.0
O172 O 0.45556 0.064 0.04324 0.0
O173 O 0.46467 1.02276 0.046 0.0
O174 O 0.50379 0.1054 0.04633 0.0
O175 O 0.53986 0.08795 0.03814 0.0
H176 H 0.58579 0.09914 0.1555 0.0
H177 H 0.6705 0.11255 0.1095 0.0
H178 H 0.6962 0.12676 0.15809 0.0
H179 H 0.6113 0.11394 0.20425 0.0
H180 H 0.47118 0.05418 0.98173 0.0
H181 H 0.39167 1.00501 1.02439 0.0
H182 H 0.36921 0.99287 0.97387 0.0
H183 H 0.4486 0.04289 0.93102 0.0
Gd184 Gd 0.50772 0.53471 0.5187 0.0
Gd185 Gd 0.50306 0.58339 0.56715 0.0
C186 C 0.53076 0.53306 0.59069 0.0
C187 C 0.53016 0.50402 0.48233 0.0
C188 C 0.55902 0.49681 0.48288 0.0
C189 C 0.56224 0.47215 0.46875 0.0
C190 C 0.58238 0.51273 0.50059 0.0
C191 C 0.61183 0.47884 0.49086 0.0
C192 C 0.60871 0.50407 0.50419 0.0
C193 C 0.58835 0.46314 0.47281 0.0
C194 C 0.45233 0.52323 0.54554 0.0
C195 C 0.48375 0.58802 0.49491 0.0
C196 C 0.48093 0.61471 0.60279 0.0
C197 C 0.45635 0.62812 0.59731 0.0
C198 C 0.46136 0.65712 0.60168 0.0
C199 C 0.42996 0.61339 0.58292 0.0
C200 C 0.41517 0.65687 0.5754 0.0
C201 C 0.40929 0.62769 0.57235 0.0
C202 C 0.44101 0.67143 0.59061 0.0
C203 C 0.55813 0.59412 0.5396 0.0
O204 O 0.53154 0.52458 0.56166 0.0
O205 O 0.5188 0.55398 0.59871 0.0
O206 O 0.51269 0.4938 0.50528 0.0
O207 O 0.53064 0.53025 0.47635 0.0
O208 O 0.4603 0.50825 0.52404 0.0
O209 O 0.47405 0.54414 0.54989 0.0
O210 O 0.48215 0.59601 0.52394 0.0
O211 O 0.49424 0.56604 0.48712 0.0
O212 O 0.50429 0.62441 0.58559 0.0
O213 O 0.47416 0.58732 0.60517 0.0
O214 O 0.55076 0.60964 0.56095 0.0
O215 O 0.5361 0.57355 0.53592 0.0
H216 H 0.54414 0.45932 0.45557 0.0
H217 H 0.5799 0.53139 0.51247 0.0
H218 H 0.62636 0.5169 0.5179 0.0
H219 H 0.58956 0.44329 0.46275 0.0
H220 H 0.48173 0.66888 0.61232 0.0
H221 H 0.42586 0.59109 0.57865 0.0
H222 H 0.38938 0.6162 0.56073 0.0
H223 H 0.44566 0.69397 0.59345 0.0
Gd224 Gd 1.00895 0.53512 0.07253 0.0
Gd225 Gd 1.00119 0.59161 0.03869 0.0
C226 C 0.06202 0.59122 0.07535 0.0
C227 C 0.02306 0.48857 0.08455 0.0
C228 C 0.04943 0.4771 0.08221 0.0
C229 C 0.04837 0.45071 0.09468 0.0
C230 C 0.07628 0.49305 0.0701 0.0
C231 C 0.10134 0.45688 0.08496 0.0
C232 C 0.10206 0.48295 0.07136 0.0
C233 C 0.07406 0.44065 0.09602 0.0
C234 C 0.98635 0.56924 0.112 0.0
C235 C 0.94804 0.53367 0.03372 0.0
C236 C 0.98574 0.63801 0.02996 0.0
C237 C 0.96896 0.65164 1.00896 0.0
C238 C 0.95744 0.63911 0.98115 0.0
C239 C 0.96188 0.67641 1.01863 0.0
C240 C 0.93019 0.67525 0.974 0.0
C241 C 0.94265 0.68811 1.00135 0.0
C242 C 0.9383 0.65099 0.96361 0.0
C243 C 0.02612 0.55943 0.99956 0.0
O244 O 0.05515 0.56347 0.0737 0.0
O245 O 0.04305 0.60627 0.0671 0.0
O246 O 0.02512 0.50888 0.10453 0.0
O247 O 1.01034 0.49301 0.05879 0.0
O248 O 0.99059 0.54491 0.11925 0.0
O249 O 0.99333 0.57263 0.08401 0.0
O250 O 0.95766 0.56072 0.02685 0.0
O251 O 0.96357 0.51989 0.05079 0.0
O252 O 1.01121 0.63385 1.02036 0.0
O253 O 0.96971 0.61688 0.0454 0.0
O254 O 0.01992 0.58299 0.99208 0.0
O255 O 0.01839 0.55487 0.02734 0.0
H256 H 0.02782 0.43817 0.10415 0.0
H257 H 0.07747 0.5136 0.06054 0.0
H258 H 0.12275 0.496 0.0628 0.0
H259 H 0.07266 0.42028 0.10613 0.0
H260 H 0.96249 0.61977 0.97356 0.0
H261 H 0.97048 0.68624 0.04013 0.0
H262 H 0.93707 0.70699 1.00968 0.0
H263 H 0.92888 0.64063 0.94267 0.0
H264 H 0.31336 0.25498 0.20844 0.0
H265 H 0.28654 0.22742 0.25101 0.0
H266 H 0.32533 0.29406 0.31405 0.0
H267 H 0.35159 0.32177 0.27112 0.0
H268 H 0.29819 0.2083 0.31048 0.0
H269 H 0.23621 0.29226 0.31455 0.0
H270 H 0.26139 0.28955 0.28376 0.0
H271 H 0.2757 0.3035 0.32036 0.0
C272 C 0.31696 0.26311 0.23161 0.0
C273 C 0.33425 0.29031 0.23682 0.0
C274 C 0.30162 0.24751 0.25585 0.0
C275 C 0.30348 0.25901 0.28553 0.0
C276 C 0.32324 0.28505 0.29121 0.0
H277 H 0.1695 0.20584 0.42942 0.0
H278 H 0.216 0.22911 0.40378 0.0
C279 C 0.33839 0.30072 0.26689 0.0
C280 C 0.28164 0.24559 0.30906 0.0
H281 H 0.21949 0.25365 0.3466 0.0
C282 C 0.28119 0.2183 0.31872 0.0
C283 C 0.25938 0.25869 0.31961 0.0
C284 C 0.25789 0.28751 0.30893 0.0
C285 C 0.25871 0.20356 0.33827 0.0
C286 C 0.23594 0.21634 0.34794 0.0
C287 C 0.23705 0.24398 0.33921 0.0
C288 C 0.20936 0.20081 0.36488 0.0
C289 C 0.25935 0.17435 0.34815 0.0
C290 C 0.19016 0.17738 0.35137 0.0
C291 C 0.16364 0.16413 0.36588 0.0
C292 C 0.15569 0.17416 0.39414 0.0
C293 C 0.17511 0.1975 0.40779 0.0
C294 C 0.20164 0.21081 0.39318 0.0
H295 H 0.28225 0.17109 0.34708 0.0
H296 H 0.25069 0.17003 0.37186 0.0
H297 H 0.24514 0.15895 0.33245 0.0
H298 H 0.19533 0.16971 0.3292 0.0
H299 H 0.14937 0.14597 0.35496 0.0
H300 H 0.25447 0.90908 0.71031 0.0
H301 H 0.27172 0.93595 0.75725 0.0
H302 H 0.36235 0.95063 0.72511 0.0
H303 H 0.34486 0.9248 0.67782 0.0
H304 H 0.30805 0.92193 0.79953 0.0
H305 H 0.35993 1.0277 0.75506 0.0
H306 H 0.33541 1.00129 0.73208 0.0
H307 H 0.37401 1.00101 0.73637 0.0
C308 C 0.27796 0.91859 0.7132 0.0
C309 C 0.29846 0.91479 0.69087 0.0
C310 C 0.28781 0.93381 0.73991 0.0
C311 C 0.3183 0.94556 0.74453 0.0
C312 C 0.33869 0.94228 0.72179 0.0
H313 H 0.43403 1.00384 0.89631 0.0
H314 H 0.41096 0.98894 0.84661 0.0
C315 C 0.3288 0.92722 0.69505 0.0
C316 C 0.32909 0.95898 0.77422 0.0
H317 H 0.37394 1.01767 0.8062 0.0
C318 C 0.32206 0.94303 0.80105 0.0
C319 C 0.34743 0.98649 0.77612 0.0
C320 C 0.35439 1.00521 0.74839 0.0
C321 C 0.33377 0.95345 0.82957 0.0
C322 C 0.35283 0.98057 0.83129 0.0
C323 C 0.35939 0.99682 0.80466 0.0
C324 C 0.36699 0.99186 0.8605 0.0
C325 C 0.32656 0.93506 0.85755 0.0
C326 C 0.34991 0.99893 0.88444 0.0
C327 C 0.36303 1.00767 0.91279 0.0
C328 C 0.39347 1.00942 0.91768 0.0
C329 C 0.41063 1.00302 0.89326 0.0
C330 C 0.3975 0.9944 0.86489 0.0
H331 H 0.31517 0.91312 0.85153 0.0
H332 H 0.34717 0.93496 0.87051 0.0
H333 H 0.31173 0.94354 0.87296 0.0
H334 H 0.32636 0.99735 0.88129 0.0
H335 H 0.3493 1.01296 0.9309 0.0
H336 H 0.63727 0.37903 0.78583 0.0
H337 H 0.6185 0.4007 0.74165 0.0
H338 H 0.61048 0.47013 0.79901 0.0
H339 H 0.62962 0.44861 0.84283 0.0
H340 H 0.56714 0.415 0.72981 0.0
H341 H 0.65737 0.51196 0.72937 0.0
H342 H 0.65922 0.48197 0.75229 0.0
H343 H 0.63851 0.50636 0.76559 0.0
C344 C 0.63137 0.39887 0.78891 0.0
C345 C 0.63512 0.41223 0.81773 0.0
C346 C 0.62071 0.41133 0.76364 0.0
C347 C 0.61361 0.43752 0.76654 0.0
C348 C 0.6166 0.45043 0.79565 0.0
H349 H 0.53775 0.54703 0.65185 0.0
H350 H 0.55794 0.52316 0.6927 0.0
C351 C 0.62738 0.43805 0.82081 0.0
C352 C 0.60276 0.45113 0.73939 0.0
H353 H 0.61495 0.5123 0.69846 0.0
C354 C 0.57781 0.43619 0.72284 0.0
C355 C 0.61658 0.47882 0.72991 0.0
C356 C 0.64458 0.49561 0.745 0.0
C357 C 0.56588 0.44834 0.69801 0.0
C358 C 0.57932 0.47621 0.68902 0.0
C359 C 0.60446 0.49102 0.70529 0.0
C360 C 0.56719 0.49067 0.66348 0.0
C361 C 0.53836 0.43152 0.68216 0.0
C362 C 0.56593 0.48077 0.63303 0.0
C363 C 0.55444 0.49455 0.60936 0.0
C364 C 0.54384 0.5186 0.61552 0.0
C365 C 0.5455 0.52858 0.64601 0.0
C366 C 0.55713 0.51492 0.66954 0.0
H367 H 0.52697 0.41302 0.69586 0.0
H368 H 0.5224 0.44466 0.6777 0.0
H369 H 0.54472 0.4239 0.65974 0.0
H370 H 0.57401 0.46244 0.62748 0.0
H371 H 0.55373 0.48622 0.58626 0.0
H372 H 0.91825 0.69504 0.35527 0.0
H373 H 0.94043 0.67344 0.31315 0.0
H374 H 0.89722 0.71546 0.24741 0.0
H375 H 0.87465 0.73655 0.28971 0.0
H376 H 0.8992 0.638 0.26494 0.0
H377 H 0.98695 0.72383 0.21457 0.0
H378 H 0.97606 0.72416 0.25441 0.0
H379 H 0.95183 0.73102 0.22495 0.0
C380 C 0.91473 0.70076 0.33185 0.0
C381 C 0.89551 0.71839 0.32597 0.0
C382 C 0.92703 0.68802 0.30767 0.0
C383 C 0.92078 0.69276 0.27678 0.0
C384 C 0.90289 0.71162 0.27083 0.0
H385 H 0.97277 0.62127 0.10268 0.0
H386 H 0.95596 0.65097 0.14104 0.0
C387 C 0.89027 0.72405 0.29507 0.0
C388 C 0.93029 0.67588 0.25122 0.0
H389 H 0.97789 0.67979 0.18998 0.0
C390 C 0.91648 0.64718 0.24863 0.0
C391 C 0.95237 0.6877 0.22931 0.0
C392 C 0.9679 0.71835 0.23076 0.0
C393 C 0.92394 0.63017 0.22506 0.0
C394 C 0.94697 0.64163 0.20374 0.0
C395 C 0.96046 0.67056 0.20609 0.0
C396 C 0.9577 0.62378 0.17967 0.0
C397 C 0.9061 0.60018 0.22283 0.0
C398 C 0.96517 0.59867 0.18794 0.0
C399 C 0.97409 0.58142 0.16585 0.0
C400 C 0.97673 0.58879 0.13454 0.0
C401 C 0.9705 0.61446 0.12624 0.0
C402 C 0.96103 0.63164 0.14843 0.0
H403 H 0.88341 0.59774 0.23251 0.0
H404 H 0.90391 0.59264 0.19871 0.0
H405 H 0.91727 0.58663 0.23637 0.0
H406 H 0.96425 0.59229 0.21173 0.0
H407 H 0.97919 0.56218 0.17351 0.0
H408 H 0.39931 0.29679 0.22907 0.0
H409 H 0.42942 0.26187 0.22571 0.0
H410 H 0.38724 0.23233 0.13963 0.0
H411 H 0.35701 0.26682 0.14329 0.0
H412 H 0.41092 0.20173 0.21948 0.0
H413 H 0.47761 0.25208 0.12021 0.0
H414 H 0.45603 0.2701 0.14384 0.0
H415 H 0.43814 0.24599 0.11459 0.0
C416 C 0.39657 0.28272 0.20955 0.0
C417 C 0.37646 0.28479 0.18608 0.0
C418 C 0.41369 0.26288 0.20762 0.0
C419 C 0.41096 0.24492 0.18212 0.0
C420 C 0.3902 0.24645 0.15913 0.0
H421 H 0.45213 0.09072 0.13864 0.0
H422 H 0.43161 0.12759 0.1607 0.0
C423 C 0.37307 0.26619 0.16112 0.0
C424 C 0.42974 0.22454 0.17921 0.0
H425 H 0.47966 0.20514 0.13143 0.0
C426 C 0.42625 0.20262 0.20048 0.0
C427 C 0.45012 0.22605 0.15475 0.0
C428 C 0.45599 0.24996 0.13219 0.0
C429 C 0.44152 0.18131 0.19696 0.0
C430 C 0.46046 0.18187 0.17133 0.0
C431 C 0.46504 0.2046 0.151 0.0
C432 C 0.47387 0.15818 0.16349 0.0
C433 C 0.437 0.15828 0.22052 0.0
C434 C 0.50459 0.16287 0.15809 0.0
C435 C 0.51643 0.14179 0.14523 0.0
C436 C 0.49768 0.11572 0.13727 0.0
C437 C 0.46723 0.11053 0.1445 0.0
C438 C 0.45544 0.13159 0.15734 0.0
H439 H 0.43054 0.16554 0.24311 0.0
H440 H 0.41875 0.14052 0.21285 0.0
H441 H 0.45744 0.15052 0.2235 0.0
H442 H 0.51921 0.18327 0.16255 0.0
H443 H 0.53997 0.14651 0.13994 0.0
H444 H 0.29398 0.95557 0.64324 0.0
H445 H 0.26939 0.99367 0.63323 0.0
H446 H 0.18412 0.93377 0.63357 0.0
H447 H 0.20868 0.89632 0.64524 0.0
H448 H 0.24106 0.99707 0.58246 0.0
H449 H 0.16218 0.99695 0.6769 0.0
H450 H 0.19201 0.97929 0.67993 0.0
H451 H 0.15701 0.96197 0.66253 0.0
C452 C 0.26992 0.95097 0.64234 0.0
C453 C 0.25302 0.92328 0.64475 0.0
C454 C 0.25592 0.97258 0.63647 0.0
C455 C 0.22488 0.96664 0.63291 0.0
C456 C 0.20798 0.93906 0.63698 0.0
H457 H 0.11906 1.0243 0.50261 0.0
H458 H 0.15605 1.00578 0.53047 0.0
C459 C 0.22196 0.91761 0.6432 0.0
C460 C 0.21041 0.98797 0.6205 0.0
H461 H 0.14712 1.01124 0.62674 0.0
C462 C 0.22091 1.00075 0.59255 0.0
C463 C 0.18447 0.99324 0.63385 0.0
C464 C 0.17354 0.98234 0.66514 0.0
C465 C 0.20498 1.01701 0.57651 0.0
C466 C 0.17736 1.01971 0.5883 0.0
C467 C 0.16799 1.00866 0.61732 0.0
C468 C 0.15698 1.03249 0.57035 0.0
C469 C 0.21774 1.0307 0.54694 0.0
C470 C 0.14476 0.05314 0.58374 0.0
C471 C 0.12315 0.0631 0.56822 0.0
C472 C 0.11364 0.0528 0.5389 0.0
C473 C 0.12636 1.03272 0.52507 0.0
C474 C 0.14763 1.02235 0.54087 0.0
H475 H 0.24245 0.03551 0.54718 0.0
H476 H 0.20998 1.01608 0.52756 0.0
H477 H 0.21072 0.05041 0.54273 0.0
H478 H 0.15153 0.06117 0.60648 0.0
H479 H 0.11366 0.07867 0.57933 0.0
H480 H 0.72398 0.37338 0.88708 0.0
H481 H 0.7697 0.39298 0.91657 0.0
H482 H 0.72751 0.45306 0.95824 0.0
H483 H 0.68203 0.43328 0.92887 0.0
H484 H 0.80339 0.44759 0.91122 0.0
H485 H 0.76788 0.42727 0.03207 0.0
H486 H 0.74667 0.409 1.00025 0.0
H487 H 0.74401 0.4438 1.01032 0.0
C488 C 0.72422 0.39 0.9035 0.0
C489 C 0.69931 0.4014 0.90629 0.0
C490 C 0.75043 0.40147 0.92006 0.0
C491 C 0.75218 0.42445 0.93998 0.0
C492 C 0.72675 0.43504 0.94365 0.0
H493 H 0.91079 0.55203 0.99366 0.0
H494 H 0.86393 0.5253 0.97144 0.0
C495 C 0.70069 0.42368 0.92697 0.0
C496 C 0.78112 0.43892 0.95474 0.0
H497 H 0.81394 0.46087 1.02388 0.0
C498 C 0.8057 0.45029 0.93588 0.0
C499 C 0.78443 0.44244 0.98695 0.0
C500 C 0.75945 0.42977 1.00864 0.0
C501 C 0.83304 0.46551 0.94818 0.0
C502 C 0.83603 0.46989 0.98031 0.0
C503 C 0.8117 0.4579 0.99925 0.0
C504 C 0.8643 0.48655 0.99462 0.0
C505 C 0.85865 0.47651 0.92659 0.0
C506 C 0.87997 0.4741 1.01583 0.0
C507 C 0.90685 0.48939 0.02869 0.0
C508 C 0.91872 0.51772 1.02094 0.0
C509 C 0.90259 0.53031 1.0002 0.0
C510 C 0.87576 0.51495 0.98725 0.0
H511 H 0.85538 0.46543 0.90413 0.0
H512 H 0.86044 0.49909 0.9223 0.0
H513 H 0.87999 0.47434 0.93667 0.0
H514 H 0.87164 0.45231 1.02208 0.0
H515 H 0.91842 0.47886 0.04459 0.0
H516 H 0.82579 0.69278 0.43889 0.0
H517 H 0.7784 0.66962 0.46335 0.0
H518 H 0.73239 0.67424 0.37831 0.0
H519 H 0.77994 0.69754 0.35395 0.0
H520 H 0.70447 0.69203 0.42997 0.0
H521 H 0.72831 0.58865 0.45199 0.0
H522 H 0.75634 0.61799 0.46596 0.0
H523 H 0.74984 0.61363 0.42539 0.0
C524 C 0.80554 0.68872 0.42545 0.0
C525 C 0.80659 0.69689 0.39448 0.0
C526 C 0.77845 0.67529 0.43936 0.0
C527 C 0.75162 0.66972 0.42269 0.0
C528 C 0.75266 0.67804 0.39173 0.0
H529 H 0.57379 0.57257 0.48459 0.0
H530 H 0.62017 0.589 0.45521 0.0
C531 C 0.77983 0.69128 0.37775 0.0
C532 C 0.72249 0.65623 0.43786 0.0
H533 H 0.68528 0.59736 0.47635 0.0
C534 C 0.70028 0.67126 0.4399 0.0
C535 C 0.71661 0.62896 0.4507 0.0
C536 C 0.73888 0.61119 0.44823 0.0
C537 C 0.67305 0.66024 0.45514 0.0
C538 C 0.6676 0.6334 0.46887 0.0
C539 C 0.68937 0.61797 0.46603 0.0
C540 C 0.64001 0.6218 0.48738 0.0
C541 C 0.65022 0.6775 0.45661 0.0
C542 C 0.63576 0.63418 0.51557 0.0
C543 C 0.60958 0.62443 0.53257 0.0
C544 C 0.58672 0.60198 0.52196 0.0
C545 C 0.59109 0.58932 0.49389 0.0
C546 C 0.61757 0.59893 0.47692 0.0
H547 H 0.65492 0.6949 0.43973 0.0
H548 H 0.62756 0.66418 0.45227 0.0
H549 H 0.65038 0.68669 0.47992 0.0
H550 H 0.65269 0.65167 0.52436 0.0
H551 H 0.60706 0.63486 0.55399 0.0
H552 H 0.30814 0.32403 0.12057 0.0
H553 H 0.27451 0.34817 0.09481 0.0
H554 H 0.29418 0.41348 0.16348 0.0
H555 H 0.32886 0.3899 0.18826 0.0
H556 H 0.22554 0.35422 0.12142 0.0
H557 H 0.29084 0.45948 0.08832 0.0
H558 H 0.30818 0.4315 0.09821 0.0
H559 H 0.29671 0.4523 0.12782 0.0
C560 C 0.30626 0.34418 0.12925 0.0
C561 C 0.32114 0.35529 0.15621 0.0
C562 C 0.28685 0.35783 0.11474 0.0
C563 C 0.28192 0.38279 0.12702 0.0
C564 C 0.29807 0.39466 0.15307 0.0
H565 H 0.11887 0.43324 0.13591 0.0
H566 H 0.16335 0.41559 0.14268 0.0
C567 C 0.31769 0.38112 0.16738 0.0
C568 C 0.25696 0.39406 0.11548 0.0
H569 H 0.2378 0.45429 0.09457 0.0
C570 C 0.22838 0.376 0.11503 0.0
C571 C 0.26055 0.42241 0.10689 0.0
C572 C 0.2908 0.44245 0.10501 0.0
C573 C 0.20322 0.38575 0.10758 0.0
C574 C 0.20658 0.41449 0.10106 0.0
C575 C 0.23524 0.43233 0.10002 0.0
C576 C 0.18037 0.42646 0.09694 0.0
C577 C 0.1732 0.36517 0.10712 0.0
C578 C 0.17568 0.43934 0.0693 0.0
C579 C 0.15017 0.44954 0.06535 0.0
C580 C 0.129 0.44701 0.08902 0.0
C581 C 0.13433 0.43485 0.11695 0.0
C582 C 0.15978 0.4248 0.12089 0.0
H583 H 0.17532 0.34338 0.10332 0.0
H584 H 0.16209 0.36581 0.12959 0.0
H585 H 0.15871 0.37045 0.08891 0.0
H586 H 0.19144 0.44099 0.05061 0.0
H587 H 0.14668 0.45881 0.04358 0.0
H588 H 0.61502 0.36088 0.92693 0.0
H589 H 0.59796 0.31671 0.95527 0.0
H590 H 0.66289 0.28245 0.90772 0.0
H591 H 0.6797 0.32676 0.87933 0.0
H592 H 0.57412 0.26399 0.92642 0.0
H593 H 0.67196 0.25972 0.99821 0.0
H594 H 0.66703 0.29197 0.98174 0.0
H595 H 0.67928 0.26694 0.95814 0.0
C596 C 0.62617 0.34416 0.92332 0.0
C597 C 0.64906 0.34737 0.90146 0.0
C598 C 0.61629 0.31883 0.93928 0.0
C599 C 0.62923 0.29611 0.93398 0.0
C600 C 0.65283 0.29968 0.91278 0.0
H601 H 0.58407 0.12221 1.00458 0.0
H602 H 0.60834 0.16649 0.97908 0.0
C603 C 0.66255 0.32501 0.89662 0.0
C604 C 0.61636 0.26822 0.94877 0.0
H605 H 0.63163 0.21962 0.99849 0.0
C606 C 0.58673 0.25437 0.94224 0.0
C607 C 0.63276 0.25527 0.96913 0.0
C608 C 0.66447 0.26923 0.97751 0.0
C609 C 0.57317 0.22815 0.95525 0.0
C610 C 0.58924 0.21547 0.97635 0.0
C611 C 0.61908 0.22914 0.98253 0.0
C612 C 0.57515 0.18855 0.99268 0.0
C613 C 0.54185 0.21401 0.94553 0.0
C614 C 0.54874 0.18604 1.00959 0.0
C615 C 0.53476 0.16073 1.02386 0.0
C616 C 0.54695 0.13718 1.02215 0.0
C617 C 0.57395 0.13985 1.00619 0.0
C618 C 0.58787 0.16523 0.99164 0.0
H619 H 0.53659 0.22129 0.92256 0.0
H620 H 0.53836 0.19088 0.94476 0.0
H621 H 0.5259 0.21934 0.96217 0.0
H622 H 0.5388 0.20375 1.0118 0.0
H623 H 0.51426 0.15964 0.03631 0.0
H624 H 0.91888 0.75283 0.41688 0.0
H625 H 0.94504 0.79946 0.43526 0.0
H626 H 0.9152 0.83648 0.35551 0.0
H627 H 0.88831 0.78962 0.33775 0.0
H628 H 0.98742 0.84375 0.41855 0.0
H629 H 0.88127 0.87675 0.42082 0.0
H630 H 0.88275 0.84112 0.41293 0.0
H631 H 0.89112 0.86718 0.3832 0.0
C632 C 0.91898 0.77085 0.40264 0.0
C633 C 0.90196 0.76733 0.37549 0.0
C634 C 0.93362 0.7977 0.4134 0.0
C635 C 0.93158 0.82204 0.39748 0.0
C636 C 0.91658 0.81839 0.36897 0.0
H637 H 0.98921 1.00243 0.44338 0.0
H638 H 0.97056 0.95685 0.41834 0.0
C639 C 0.90179 0.79145 0.35829 0.0
C640 C 0.94384 0.85084 0.41154 0.0
H641 H 0.92465 0.9113 0.43383 0.0
C642 C 0.97357 0.85842 0.42184 0.0
C643 C 0.92606 0.87037 0.41635 0.0
C644 C 0.89346 0.86342 0.40806 0.0
C645 C 0.98592 0.88464 0.43607 0.0
C646 C 0.96815 0.90414 0.44078 0.0
C647 C 0.93851 0.89667 0.43032 0.0
C648 C 0.97976 0.93223 0.45649 0.0
C649 C 0.01822 0.89142 0.44542 0.0
C650 C 0.99093 0.93415 0.48673 0.0
C651 C 1.00154 0.96038 0.50129 0.0
C652 C 1.00137 0.98565 0.48612 0.0
C653 C 0.98991 0.98365 0.45596 0.0
C654 C 0.97913 0.95742 0.44151 0.0
H655 H 0.03074 0.87814 0.43303 0.0
H656 H 0.02908 0.91378 0.441 0.0
H657 H 0.01975 0.88751 0.47036 0.0
H658 H 0.99119 0.91528 0.49932 0.0
H659 H 1.00998 0.9608 0.52449 0.0
H660 H 0.27023 0.80936 0.64109 0.0
H661 H 0.28632 0.77283 0.61179 0.0
H662 H 0.32718 0.83434 0.54444 0.0
H663 H 0.31161 0.8709 0.57438 0.0
H664 H 0.28077 0.75307 0.54826 0.0
H665 H 0.39645 0.80697 0.58307 0.0
H666 H 0.36434 0.81555 0.60026 0.0
H667 H 0.37556 0.82714 0.56209 0.0
C668 C 0.28227 0.81474 0.61978 0.0
C669 C 0.29016 0.84259 0.60989 0.0
C670 C 0.2912 0.79403 0.60299 0.0
C671 C 0.30808 0.80103 0.57614 0.0
C672 C 0.31434 0.82864 0.56523 0.0
H673 H 0.42719 0.69621 0.53088 0.0
H674 H 0.39739 0.72943 0.51769 0.0
C675 C 0.30556 0.84939 0.58219 0.0
C676 C 0.32244 0.78023 0.56242 0.0
H677 H 0.38914 0.76273 0.56126 0.0
C678 C 0.30456 0.7553 0.55042 0.0
C679 C 0.35349 0.78341 0.56512 0.0
C680 C 0.37368 0.80958 0.57847 0.0
C681 C 0.31681 0.73275 0.54258 0.0
C682 C 0.34749 0.73518 0.54754 0.0
C683 C 0.36561 0.76088 0.55739 0.0
C684 C 0.36074 0.71068 0.5477 0.0
C685 C 0.29664 0.70633 0.52997 0.0
C686 C 0.34942 0.68839 0.56786 0.0
C687 C 0.36626 0.66928 0.57508 0.0
C688 C 0.39478 0.67259 0.56265 0.0
C689 C 0.40521 0.69352 0.54078 0.0
C690 C 0.38818 0.71233 0.53317 0.0
H691 H 0.27844 0.71123 0.5161 0.0
H692 H 0.30905 0.69436 0.51552 0.0
H693 H 0.2862 0.69287 0.54932 0.0
H694 H 0.32873 0.68708 0.58002 0.0
H695 H 0.35803 0.65331 0.59215 0.0
H696 H 0.78458 0.85861 0.8537 0.0
H697 H 0.82547 0.86882 0.81642 0.0
H698 H 0.7629 0.83942 0.74316 0.0
H699 H 0.72194 0.82989 0.7807 0.0
H700 H 0.84719 0.83734 0.7743 0.0
H701 H 0.80154 0.91845 0.7162 0.0
H702 H 0.78705 0.90295 0.75219 0.0
H703 H 0.77696 0.8841 0.71683 0.0
C704 C 0.77981 0.85411 0.82964 0.0
C705 C 0.75043 0.84365 0.81975 0.0
C706 C 0.80303 0.85989 0.8084 0.0
C707 C 0.79716 0.8553 0.77696 0.0
C708 C 0.76784 0.84368 0.76723 0.0
H709 H 0.92189 0.91406 0.6264 0.0
H710 H 0.88013 0.88513 0.65498 0.0
C711 C 0.74456 0.83812 0.78852 0.0
C712 C 0.82165 0.86415 0.75453 0.0
H713 H 0.84627 0.91081 0.69687 0.0
C714 C 0.84689 0.85321 0.75717 0.0
C715 C 0.82123 0.88493 0.73225 0.0
C716 C 0.79539 0.89852 0.72926 0.0
C717 C 0.87198 0.86295 0.73854 0.0
C718 C 0.87178 0.88419 0.71688 0.0
C719 C 0.84618 0.89436 0.71342 0.0
C720 C 0.89873 0.89825 0.69965 0.0
C721 C 0.89869 0.85081 0.74246 0.0
C722 C 0.92306 0.91494 0.71538 0.0
C723 C 0.94669 0.93182 0.6992 0.0
C724 C 0.94645 0.93233 0.66691 0.0
C725 C 0.9226 0.91453 0.65124 0.0
C726 C 0.89883 0.89781 0.66749 0.0
H727 H 0.89267 0.83001 0.75381 0.0
H728 H 0.90919 0.84862 0.71995 0.0
H729 H 0.91541 0.86512 0.75701 0.0
H730 H 0.92308 0.916 0.74022 0.0
H731 H 0.96433 0.94558 0.71209 0.0
H732 H 0.80231 0.27159 0.39046 0.0
H733 H 0.78118 0.24005 0.34793 0.0
H734 H 0.73657 0.17811 0.4131 0.0
H735 H 0.75744 0.21003 0.45552 0.0
H736 H 0.78275 0.18271 0.3339 0.0
H737 H 0.66896 0.19564 0.35977 0.0
H738 H 0.70201 0.21868 0.37553 0.0
H739 H 0.68859 0.18407 0.39077 0.0
C740 C 0.78817 0.25112 0.39544 0.0
C741 C 0.78096 0.24313 0.42584 0.0
C742 C 0.77626 0.23315 0.37136 0.0
C743 C 0.75699 0.20699 0.37747 0.0
C744 C 0.75105 0.1984 0.40798 0.0
H745 H 0.64334 0.09909 0.24238 0.0
H746 H 0.66871 0.11604 0.29059 0.0
C747 C 0.76299 0.21643 0.43207 0.0
C748 C 0.74178 0.18967 0.35178 0.0
H749 H 0.67416 0.1683 0.31683 0.0
C750 C 0.75897 0.17928 0.33026 0.0
C751 C 0.71075 0.18522 0.34728 0.0
C752 C 0.6914 0.1966 0.36938 0.0
C753 C 0.74598 0.16498 0.3039 0.0
C754 C 0.71515 0.16155 0.29876 0.0
C755 C 0.6978 0.171 0.32088 0.0
C756 C 0.70084 0.15023 0.26957 0.0
C757 C 0.76539 0.15386 0.2817 0.0
C758 C 0.71029 0.1641 0.24194 0.0
C759 C 0.69579 0.15461 0.21451 0.0
C760 C 0.6714 0.13117 0.21419 0.0
C761 C 0.66191 0.11734 0.24194 0.0
C762 C 0.67648 0.12686 0.26942 0.0
H763 H 0.78551 0.15022 0.29323 0.0
H764 H 0.75303 0.13396 0.27093 0.0
H765 H 0.77292 0.16949 0.26327 0.0
H766 H 0.72848 0.18268 0.2417 0.0
H767 H 0.70326 0.16607 0.19364 0.0
H768 H 0.38603 0.75532 0.30854 0.0
H769 H 0.40799 0.73486 0.35154 0.0
H770 H 0.44106 0.68239 0.28773 0.0
H771 H 0.41959 0.70329 0.24516 0.0
H772 H 0.39164 0.68129 0.36899 0.0
H773 H 0.51181 0.70394 0.34295 0.0
H774 H 0.48715 0.72183 0.32393 0.0
H775 H 0.48971 0.68761 0.31114 0.0
C776 C 0.39939 0.74053 0.30371 0.0
C777 C 0.40196 0.73161 0.27337 0.0
C778 C 0.41152 0.7284 0.32833 0.0
C779 C 0.42661 0.70708 0.32321 0.0
C780 C 0.43038 0.69922 0.29264 0.0
H781 H 0.48649 0.58176 0.43201 0.0
H782 H 0.47246 0.61085 0.39183 0.0
C783 C 0.41828 0.71134 0.26814 0.0
C784 C 0.43569 0.69113 0.3496 0.0
H785 H 0.49354 0.66687 0.37876 0.0
C786 C 0.41406 0.67849 0.37127 0.0
C787 C 0.46486 0.68706 0.35281 0.0
C788 C 0.48977 0.70106 0.33165 0.0
C789 C 0.42043 0.66145 0.39517 0.0
C790 C 0.44948 0.65705 0.3981 0.0
C791 C 0.47121 0.66994 0.37665 0.0
C792 C 0.4577 0.63905 0.42301 0.0
C793 C 0.39557 0.64752 0.41646 0.0
C794 C 0.45439 0.64502 0.45425 0.0
C795 C 0.46234 0.6283 0.4774 0.0
C796 C 0.47404 0.6051 0.47008 0.0
C797 C 0.47742 0.59922 0.43876 0.0
C798 C 0.46949 0.616 0.41562 0.0
H799 H 0.37335 0.64655 0.40627 0.0
H800 H 0.397 0.62592 0.42222 0.0
H801 H 0.39727 0.6598 0.43807 0.0
H802 H 0.44602 0.66294 0.46086 0.0
H803 H 0.45954 0.6338 0.50112 0.0
H804 H 0.13782 0.39595 0.81388 0.0
H805 H 0.11589 0.41677 0.85686 0.0
H806 H 0.11208 0.48733 0.80002 0.0
H807 H 0.13326 0.4662 0.75705 0.0
H808 H 0.13452 0.46649 0.88891 0.0
H809 H 0.02781 0.46612 0.83198 0.0
H810 H 0.05338 0.44699 0.81683 0.0
H811 H 0.0594 0.48401 0.80997 0.0
C812 C 0.13198 0.41575 0.8105 0.0
C813 C 0.13721 0.42927 0.78184 0.0
C814 C 0.11958 0.4278 0.83521 0.0
C815 C 0.1117 0.45362 0.83196 0.0
C816 C 0.1172 0.4672 0.80334 0.0
H817 H 0.03903 0.57026 0.93952 0.0
H818 H 0.05948 0.54342 0.9018 0.0
C819 C 0.12964 0.4552 0.77872 0.0
C820 C 0.0981 0.46652 0.85832 0.0
H821 H 0.0386 0.49334 0.87767 0.0
C822 C 0.1134 0.47211 0.88648 0.0
C823 C 0.0704 0.47392 0.85568 0.0
C824 C 0.05162 0.46721 0.82712 0.0
C825 C 0.10257 0.48577 0.91119 0.0
C826 C 0.07518 0.49377 0.90825 0.0
C827 C 0.0596 0.48753 0.88031 0.0
C828 C 0.06304 0.5101 0.93273 0.0
C829 C 0.12129 0.49252 0.93978 0.0
C830 C 0.05778 0.50073 0.96337 0.0
C831 C 0.04597 0.5164 0.98542 0.0
C832 C 0.03887 0.54176 0.97739 0.0
C833 C 0.0441 0.5509 0.9468 0.0
C834 C 0.05584 0.53541 0.92497 0.0
H835 H 0.14471 0.49162 0.93559 0.0
H836 H 0.12117 0.51368 0.94866 0.0
H837 H 0.11202 0.47696 0.95779 0.0
H838 H 0.0624 0.48109 0.97024 0.0
H839 H 0.04237 0.50864 1.00864 0.0
H840 H 0.69641 0.87579 0.92548 0.0
H841 H 0.66501 0.9049 0.94655 0.0
H842 H 0.6104 0.88994 0.86519 0.0
H843 H 0.6417 0.86029 0.84433 0.0
H844 H 0.63078 0.9476 0.88262 0.0
H845 H 0.57889 0.8812 0.98003 0.0
H846 H 0.61865 0.88674 0.97831 0.0
H847 H 0.59607 0.86764 0.94807 0.0
C848 C 0.67725 0.87817 0.91252 0.0
C849 C 0.67112 0.86559 0.88354 0.0
C850 C 0.65941 0.89484 0.92446 0.0
C851 C 0.63517 0.89925 0.90758 0.0
C852 C 0.62891 0.88662 0.87863 0.0
H853 H 0.51482 0.98951 0.99368 0.0
H854 H 0.5329 0.95601 0.96184 0.0
C855 C 0.64669 0.86978 0.86676 0.0
C856 C 0.61754 0.91834 0.91965 0.0
H857 H 0.57641 0.92921 0.98144 0.0
C858 C 0.61852 0.94345 0.904 0.0
C859 C 0.60131 0.9127 0.94734 0.0
C860 C 0.59836 0.88549 0.96431 0.0
C861 C 0.60487 0.96371 0.91614 0.0
C862 C 0.59012 0.95875 0.94474 0.0
C863 C 0.58791 0.93306 0.95961 0.0
C864 C 0.57845 0.98051 0.96068 0.0
C865 C 0.60663 0.99037 0.89846 0.0
C866 C 0.59803 1.00554 0.97026 0.0
C867 C 0.58782 1.02469 0.9885 0.0
C868 C 0.55784 1.0191 0.99761 0.0
C869 C 0.53804 0.99449 0.98703 0.0
C870 C 0.54831 0.97528 0.96888 0.0
H871 H 0.61074 0.98756 0.87366 0.0
H872 H 0.58583 0.99763 0.901 0.0
H873 H 0.62534 1.007 0.90749 0.0
H874 H 0.62148 1.00975 0.96466 0.0
H875 H 0.60367 0.0434 0.99631 0.0
H876 H 0.84471 0.2469 0.43234 0.0
H877 H 0.87146 0.20956 0.43522 0.0
H878 H 0.83192 0.18543 0.52381 0.0
H879 H 0.80415 0.22189 0.52009 0.0
H880 H 0.91235 0.20482 0.47685 0.0
H881 H 0.81916 0.11038 0.48172 0.0
H882 H 0.81404 0.14422 0.4705 0.0
H883 H 0.81561 0.13553 0.51048 0.0
C884 C 0.84155 0.23328 0.45215 0.0
C885 C 0.82275 0.23722 0.47613 0.0
C886 C 0.85677 0.21207 0.45382 0.0
C887 C 0.85331 0.19445 0.47951 0.0
C888 C 0.83438 0.19835 0.50346 0.0
H889 H 0.94794 0.09514 0.57325 0.0
H890 H 0.91402 0.12198 0.5533 0.0
C891 C 0.81898 0.21943 0.50164 0.0
C892 C 0.87125 0.17346 0.48244 0.0
H893 H 0.86669 0.10501 0.50021 0.0
C894 C 0.90236 0.18288 0.48131 0.0
C895 C 0.85814 0.14482 0.48807 0.0
C896 C 0.82489 0.13309 0.48743 0.0
C897 C 0.92074 0.16472 0.48742 0.0
C898 C 0.90759 0.13652 0.49476 0.0
C899 C 0.87656 0.12675 0.49463 0.0
C900 C 0.92581 0.11784 0.50579 0.0
C901 C 0.95408 0.176 0.48753 0.0
C902 C 0.94316 0.10632 0.48545 0.0
C903 C 0.96246 0.09083 0.49678 0.0
C904 C 0.9647 0.08698 0.52853 0.0
C905 C 0.94665 0.09789 0.54867 0.0
C906 C 0.92724 0.11311 0.53735 0.0
H907 H 0.96071 0.19887 0.48293 0.0
H908 H 0.96333 0.17191 0.51008 0.0
H909 H 0.96421 0.16501 0.46974 0.0
H910 H 0.94224 0.10986 0.46099 0.0
H911 H 0.97619 0.08259 0.48083 0.0
H912 H 0.29112 0.74641 0.21425 0.0
H913 H 0.24439 0.72334 0.18845 0.0
H914 H 0.28033 0.6523 0.16768 0.0
H915 H 0.32731 0.6757 0.19285 0.0
H916 H 0.23667 0.70271 0.12486 0.0
H917 H 0.19885 0.61841 0.21086 0.0
H918 H 0.22664 0.65018 0.21947 0.0
H919 H 0.23633 0.62301 0.19704 0.0
C920 C 0.28904 0.72595 0.20401 0.0
C921 C 0.31282 0.71282 0.20559 0.0
C922 C 0.26234 0.71274 0.18937 0.0
C923 C 0.25868 0.68594 0.17636 0.0
C924 C 0.28242 0.67278 0.17793 0.0
H925 H 0.1095 0.56879 0.08833 0.0
H926 H 0.15729 0.59217 0.11114 0.0
C927 C 0.30922 0.6861 0.19235 0.0
C928 C 0.23021 0.67198 0.1608 0.0
H929 H 0.16994 0.61607 0.16593 0.0
C930 C 0.22202 0.6838 0.13386 0.0
C931 C 0.21117 0.64721 0.17241 0.0
C932 C 0.21843 0.63395 0.20165 0.0
C933 C 0.19561 0.67132 0.11797 0.0
C934 C 0.17628 0.64671 0.12979 0.0
C935 C 0.18459 0.63489 0.15675 0.0
C936 C 0.14736 0.63287 0.1147 0.0
C937 C 0.18919 0.68427 0.08818 0.0
C938 C 0.12553 0.64777 0.10905 0.0
C939 C 0.09817 0.63448 0.09567 0.0
C940 C 0.09172 0.6058 0.08802 0.0
C941 C 0.11358 0.5909 0.09381 0.0
C942 C 0.141 0.60426 0.10696 0.0
H943 H 0.20985 0.69709 0.07763 0.0
H944 H 0.17821 0.668 0.07142 0.0
H945 H 0.17416 0.69831 0.09272 0.0
H946 H 0.12938 0.66962 0.11552 0.0
H947 H 0.08184 0.6466 0.09194 0.0
H948 H 0.22491 0.38637 0.70717 0.0
H949 H 0.27045 0.40443 0.67685 0.0
H950 H 0.23547 0.47354 0.6467 0.0
H951 H 0.18984 0.45483 0.67592 0.0
H952 H 0.26395 0.45815 0.60118 0.0
H953 H 0.33797 0.46758 0.70228 0.0
H954 H 0.31736 0.43225 0.69538 0.0
H955 H 0.29799 0.4586 0.70568 0.0
C956 C 0.22675 0.40499 0.6934 0.0
C957 C 0.20376 0.41917 0.69397 0.0
C958 C 0.25308 0.4157 0.67651 0.0
C959 C 0.25721 0.44105 0.66002 0.0
C960 C 0.23339 0.45421 0.65929 0.0
H961 H 0.43254 0.54468 0.59912 0.0
H962 H 0.38525 0.52652 0.6264 0.0
C963 C 0.20715 0.44344 0.67596 0.0
C964 C 0.2861 0.45421 0.64375 0.0
H965 H 0.3617 0.47709 0.65377 0.0
C966 C 0.28525 0.46224 0.61284 0.0
C967 C 0.3142 0.46044 0.65875 0.0
C968 C 0.31702 0.45456 0.69242 0.0
C969 C 0.31124 0.4756 0.5966 0.0
C970 C 0.33949 0.48063 0.61117 0.0
C971 C 0.34034 0.47314 0.64225 0.0
C972 C 0.36827 0.49274 0.59427 0.0
C973 C 0.30791 0.4848 0.56407 0.0
C974 C 0.37508 0.48005 0.56714 0.0
C975 C 0.40185 0.49073 0.5514 0.0
C976 C 0.42314 0.51433 0.56227 0.0
C977 C 0.4166 0.52699 0.58959 0.0
C978 C 0.38954 0.51633 0.6054 0.0
H979 H 0.28543 0.4884 0.56007 0.0
H980 H 0.32477 0.50436 0.5585 0.0
H981 H 0.31074 0.46808 0.54803 0.0
H982 H 0.35986 0.46141 0.55828 0.0
H983 H 0.40607 0.48002 0.53073 0.0
H984 H 0.75793 0.82678 0.91668 0.0
H985 H 0.79299 0.79782 0.92801 0.0
H986 H 0.76849 0.75217 0.84352 0.0
H987 H 0.73326 0.78122 0.8323 0.0
H988 H 0.7706 0.71883 0.90113 0.0
H989 H 0.87271 0.80221 0.87779 0.0
H990 H 0.84557 0.81247 0.90187 0.0
H991 H 0.83665 0.80308 0.86256 0.0
C992 C 0.75977 0.81025 0.90088 0.0
C993 C 0.74282 0.80582 0.87388 0.0
C994 C 0.77994 0.79399 0.90713 0.0
C995 C 0.78342 0.77308 0.88645 0.0
C996 C 0.76613 0.76829 0.85967 0.0
H997 H 0.92756 0.68648 0.91256 0.0
H998 H 0.89111 0.70756 0.88658 0.0
C999 C 0.7461 0.78474 0.85332 0.0
C1000 C 0.80507 0.7562 0.89315 0.0
H1001 H 0.8792 0.76171 0.90423 0.0
C1002 C 0.79437 0.72803 0.90141 0.0
C1003 C 0.83604 0.76822 0.89304 0.0
C1004 C 0.84858 0.7981 0.88309 0.0
C1005 C 0.81387 0.71197 0.91125 0.0
C1006 C 0.8447 0.72451 0.91293 0.0
C1007 C 0.85552 0.75221 0.90303 0.0
C1008 C 0.86566 0.71017 0.92768 0.0
C1009 C 0.80133 0.68189 0.92044 0.0
C1010 C 0.86337 0.70484 0.95927 0.0
C1011 C 0.88413 0.69313 0.97407 0.0
C1012 C 0.9076 0.68647 0.95755 0.0
C1013 C 0.90959 0.6913 0.92576 0.0
C1014 C 0.88889 0.70336 0.91096 0.0
H1015 H 0.77895 0.67332 0.91033 0.0
H1016 H 0.81635 0.66853 0.91321 0.0
H1017 H 0.79916 0.6807 0.94579 0.0
H1018 H 0.84582 0.71029 0.97262 0.0
H1019 H 0.88191 0.68937 0.99854 0.0
H1020 H 0.43588 0.76907 0.20658 0.0
H1021 H 0.46436 0.81526 0.18887 0.0
H1022 H 0.40351 0.85432 0.23691 0.0
H1023 H 0.37588 0.80834 0.25501 0.0
H1024 H 0.44353 0.84772 0.15098 0.0
H1025 H 0.47879 0.91061 0.25566 0.0
H1026 H 0.46547 0.87299 0.25674 0.0
H1027 H 0.43958 0.89506 0.25574 0.0
C1028 C 0.42975 0.78773 0.21475 0.0
C1029 C 0.40421 0.78515 0.233 0.0
C1030 C 0.44566 0.81416 0.20415 0.0
C1031 C 0.43643 0.83871 0.21158 0.0
C1032 C 0.41187 0.83617 0.23134 0.0
H1033 H 0.47491 1.01029 0.13574 0.0
H1034 H 0.45256 0.96601 0.1624 0.0
C1035 C 0.39611 0.8098 0.24197 0.0
C1036 C 0.45017 0.8662 0.19609 0.0
H1037 H 0.4794 0.93638 0.20896 0.0
C1038 C 0.45164 0.86698 0.16381 0.0
C1039 C 0.4606 0.89171 0.21247 0.0
C1040 C 0.46132 0.89255 0.24706 0.0
C1041 C 0.46266 0.89222 0.14767 0.0
C1042 C 0.47286 0.91768 0.16403 0.0
C1043 C 0.4714 0.91702 0.19627 0.0
C1044 C 0.48625 0.94486 0.14802 0.0
C1045 C 0.46275 0.89149 0.11306 0.0
C1046 C 0.51274 0.94802 0.1312 0.0
C1047 C 0.52554 0.97325 0.11617 0.0
C1048 C 0.51226 0.99616 0.1174 0.0
C1049 C 0.48568 0.99309 0.1342 0.0
C1050 C 0.47295 0.96778 0.14954 0.0
H1051 H 0.44759 0.87212 0.10391 0.0
H1052 H 0.45603 0.90993 0.10347 0.0
H1053 H 0.48558 0.89208 0.10487 0.0
H1054 H 0.52375 0.93097 0.1299 0.0
H1055 H 0.54602 0.9748 0.10353 0.0
H1056 H 0.15912 0.33542 0.73903 0.0
H1057 H 0.14451 0.2916 0.70968 0.0
H1058 H 0.13561 0.33858 0.62838 0.0
H1059 H 0.15055 0.38253 0.658 0.0
H1060 H 0.09232 0.26948 0.68249 0.0
H1061 H 0.17938 0.28438 0.59267 0.0
H1062 H 0.18288 0.30661 0.62618 0.0
H1063 H 0.16028 0.31206 0.59431 0.0
C1064 C 0.15463 0.33641 0.71473 0.0
C1065 C 0.15621 0.36255 0.70087 0.0
C1066 C 0.14609 0.31126 0.6979 0.0
C1067 C 0.13897 0.31131 0.66649 0.0
C1068 C 0.14148 0.33758 0.65231 0.0
H1069 H 0.06657 0.17313 0.53541 0.0
H1070 H 0.0851 0.21895 0.56023 0.0
C1071 C 0.1501 0.36285 0.66925 0.0
C1072 C 0.12725 0.28386 0.64952 0.0
H1073 H 0.13842 0.24497 0.58687 0.0
C1074 C 0.1026 0.2642 0.66165 0.0
C1075 C 0.14017 0.27658 0.62205 0.0
C1076 C 0.1673 0.29586 0.60812 0.0
C1077 C 0.09057 0.23805 0.64729 0.0
C1078 C 0.10374 0.23056 0.62007 0.0
C1079 C 0.12816 0.25034 0.60767 0.0
C1080 C 0.09273 0.20229 0.60456 0.0
C1081 C 0.06328 0.21895 0.66118 0.0
C1082 C 0.09107 0.17717 0.62068 0.0
C1083 C 0.08038 0.15085 0.60651 0.0
C1084 C 0.07112 0.1486 0.57557 0.0
C1085 C 0.07326 0.17376 0.55926 0.0
C1086 C 0.08399 0.20014 0.57348 0.0
H1087 H 0.05075 0.23076 0.67571 0.0
H1088 H 0.04811 0.20753 0.64316 0.0
H1089 H 0.07018 0.20334 0.676 0.0
H1090 H 0.09827 0.17785 0.64436 0.0
H1091 H 0.07944 0.13217 0.61995 0.0
H1092 H 0.73323 0.29424 0.50201 0.0
H1093 H 0.71404 0.33439 0.51709 0.0
H1094 H 0.80372 0.38629 0.52004 0.0
H1095 H 0.82257 0.34617 0.50256 0.0
H1096 H 0.71843 0.37179 0.5608 0.0
H1097 H 0.76981 0.42509 0.45445 0.0
H1098 H 0.77042 0.38948 0.46302 0.0
H1099 H 0.79519 0.41807 0.48268 0.0
C1100 C 0.74875 0.31417 0.50646 0.0
C1101 C 0.77915 0.31749 0.50079 0.0
C1102 C 0.73789 0.33707 0.51519 0.0
C1103 C 0.75738 0.3636 0.51884 0.0
C1104 C 0.7882 0.36623 0.5164 0.0
H1105 H 0.64479 0.48351 0.54404 0.0
H1106 H 0.68638 0.46268 0.55506 0.0
C1107 C 0.79901 0.34334 0.50689 0.0
C1108 C 0.74458 0.38841 0.5213 0.0
H1109 H 0.73534 0.44439 0.47975 0.0
C1110 C 0.72242 0.388 0.54341 0.0
C1111 C 0.74989 0.40952 0.4985 0.0
C1112 C 0.77243 0.4106 0.47317 0.0
C1113 C 0.70353 0.40637 0.54169 0.0
C1114 C 0.70796 0.4266 0.518 0.0
C1115 C 0.73195 0.42874 0.49774 0.0
C1116 C 0.68552 0.44259 0.5107 0.0
C1117 C 0.67761 0.40227 0.56366 0.0
C1118 C 0.67244 0.43974 0.48144 0.0
C1119 C 0.64946 0.4525 0.47461 0.0
C1120 C 0.6386 0.46804 0.49708 0.0
C1121 C 0.65259 0.47184 0.52604 0.0
C1122 C 0.67609 0.45953 0.53262 0.0
H1123 H 0.67402 0.38213 0.57626 0.0
H1124 H 0.68201 0.41946 0.58086 0.0
H1125 H 0.65677 0.40268 0.55131 0.0
H1126 H 0.67948 0.42695 0.46401 0.0
H1127 H 0.63987 0.44974 0.45183 0.0
loop_
_geom_bond_atom_site_label_1
_geom_bond_atom_site_label_2
_geom_bond_distance
_geom_bond_site_symmetry_2
_ccdc_geom_bond_type
C0 N1 1.317 . S
C0 N2 1.348 . S
C0 C3 1.485 . S
N1 C0 1.317 . S
N1 N5 1.370 . S
N2 C0 1.348 . S
N2 C4 1.346 . S
C3 C0 1.485 . S
C3 H7 0.960 . S
C3 H8 0.961 . S
C3 H9 0.960 . S
C4 N2 1.346 . S
C4 N5 1.307 . S
C4 C6 1.486 . S
N5 N1 1.370 . S
N5 C4 1.307 . S
C6 C4 1.486 . S
C6 H10 0.960 . S
C6 H11 0.960 . S
C6 H12 0.959 . S
H7 C3 0.960 . S
H8 C3 0.961 . S
H9 C3 0.960 . S
H10 C6 0.960 . S
H11 C6 0.960 . S
H12 C6 0.959 . S
C13 N14 1.317 . S
C13 N15 1.348 . S
C13 C16 1.485 . S
N14 C13 1.317 . S
N14 N18 1.370 . S
N15 C13 1.348 . S
N15 C17 1.346 . S
C16 C13 1.485 . S
C16 H20 0.960 . S
C16 H21 0.961 . S
C16 H22 0.960 . S
C17 N15 1.346 . S
C17 N18 1.307 . S
C17 C19 1.486 . S
N18 N14 1.370 . S
N18 C17 1.307 . S
C19 C17 1.486 . S
C19 H23 0.960 . S
C19 H24 0.960 . S
C19 H25 0.959 . S
H20 C16 0.960 . S
H21 C16 0.961 . S
H22 C16 0.960 . S
H23 C19 0.960 . S
H24 C19 0.960 . S
H25 C19 0.959 . S
C26 N27 1.317 . S
C26 N28 1.348 . S
C26 C29 1.485 . S
N27 C26 1.317 . S
N27 N31 1.370 . S
N28 C26 1.348 . S
N28 C30 1.346 . S
C29 C26 1.485 . S
C29 H33 0.960 . S
C29 H34 0.961 . S
C29 H35 0.960 . S
C30 N28 1.346 . S
C30 N31 1.307 . S
C30 C32 1.486 . S
N31 N27 1.370 . S
N31 C30 1.307 . S
C32 C30 1.486 . S
C32 H36 0.960 . S
C32 H37 0.960 . S
C32 H38 0.959 . S
H33 C29 0.960 . S
H34 C29 0.961 . S
H35 C29 0.960 . S
H36 C32 0.960 . S
H37 C32 0.960 . S
H38 C32 0.959 . S
C39 N40 1.317 . S
C39 N41 1.348 . S
C39 C42 1.485 . S
N40 C39 1.317 . S
N40 N44 1.370 . S
N41 C39 1.348 . S
N41 C43 1.346 . S
C42 C39 1.485 . S
C42 H46 0.960 . S
C42 H47 0.961 . S
C42 H48 0.960 . S
C43 N41 1.346 . S
C43 N44 1.307 . S
C43 C45 1.486 . S
N44 N40 1.370 . S
N44 C43 1.307 . S
C45 C43 1.486 . S
C45 H49 0.960 . S
C45 H50 0.960 . S
C45 H51 0.959 . S
H46 C42 0.960 . S
H47 C42 0.961 . S
H48 C42 0.960 . S
H49 C45 0.960 . S
H50 C45 0.960 . S
H51 C45 0.959 . S
C52 N53 1.317 . S
C52 N54 1.348 . S
C52 C55 1.485 . S
N53 C52 1.317 . S
N53 N57 1.370 . S
N54 C52 1.348 . S
N54 C56 1.346 . S
C55 C52 1.485 . S
C55 H59 0.960 . S
C55 H60 0.961 . S
C55 H61 0.960 . S
C56 N54 1.346 . S
C56 N57 1.307 . S
C56 C58 1.486 . S
N57 N53 1.370 . S
N57 C56 1.307 . S
C58 C56 1.486 . S
C58 H62 0.960 . S
C58 H63 0.960 . S
C58 H64 0.959 . S
H59 C55 0.960 . S
H60 C55 0.961 . S
H61 C55 0.960 . S
H62 C58 0.960 . S
H63 C58 0.960 . S
H64 C58 0.959 . S
C65 N66 1.317 . S
C65 N67 1.348 . S
C65 C68 1.485 . S
N66 C65 1.317 . S
N66 N70 1.370 . S
N67 C65 1.348 . S
N67 C69 1.346 . S
C68 C65 1.485 . S
C68 H72 0.960 . S
C68 H73 0.961 . S
C68 H74 0.960 . S
C69 N67 1.346 . S
C69 N70 1.307 . S
C69 C71 1.486 . S
N70 N66 1.370 . S
N70 C69 1.307 . S
C71 C69 1.486 . S
C71 H75 0.960 . S
C71 H76 0.960 . S
C71 H77 0.959 . S
H72 C68 0.960 . S
H73 C68 0.961 . S
H74 C68 0.960 . S
H75 C71 0.960 . S
H76 C71 0.960 . S
H77 C71 0.959 . S
C78 N79 1.317 . S
C78 N80 1.348 . S
C78 C81 1.485 . S
N79 C78 1.317 . S
N79 N83 1.370 . S
N80 C78 1.348 . S
N80 C82 1.346 . S
C81 C78 1.485 . S
C81 H85 0.960 . S
C81 H86 0.961 . S
C81 H87 0.960 . S
C82 N80 1.346 . S
C82 N83 1.307 . S
C82 C84 1.486 . S
N83 N79 1.370 . S
N83 C82 1.307 . S
C84 C82 1.486 . S
C84 H88 0.960 . S
C84 H89 0.960 . S
C84 H90 0.959 . S
H85 C81 0.960 . S
H86 C81 0.961 . S
H87 C81 0.960 . S
H88 C84 0.960 . S
H89 C84 0.960 . S
H90 C84 0.959 . S
C91 N92 1.317 . S
C91 N93 1.348 . S
C91 C94 1.485 . S
N92 C91 1.317 . S
N92 N96 1.370 . S
N93 C91 1.348 . S
N93 C95 1.346 . S
C94 C91 1.485 . S
C94 H98 0.960 . S
C94 H99 0.961 . S
C94 H100 0.960 . S
C95 N93 1.346 . S
C95 N96 1.307 . S
C95 C97 1.486 . S
N96 N92 1.370 . S
N96 C95 1.307 . S
C97 C95 1.486 . S
C97 H101 0.960 . S
C97 H102 0.960 . S
C97 H103 0.959 . S
H98 C94 0.960 . S
H99 C94 0.961 . S
H100 C94 0.960 . S
H101 C97 0.960 . S
H102 C97 0.960 . S
H103 C97 0.959 . S
Gd104 C107 2.818 . S
Gd104 O124 2.377 . S
Gd104 O126 2.448 . S
Gd104 O127 2.506 . S
Gd104 O128 2.435 . S
Gd104 O129 2.717 . S
Gd104 O131 2.395 1_545 S
Gd104 O135 2.327 . S
Gd105 C116 2.818 1_445 S
Gd105 O125 2.395 . S
Gd105 O129 2.327 . S
Gd105 O130 2.377 1_445 S
Gd105 O132 2.448 1_445 S
Gd105 O133 2.506 1_545 S
Gd105 O134 2.435 1_455 S
Gd105 O135 2.717 . S
C106 O124 1.240 . S
C106 O125 1.240 . S
C107 Gd104 2.818 . S
C107 C108 1.510 . S
C107 O126 1.249 . S
C107 O127 1.252 . S
C108 C107 1.510 . S
C108 C109 1.404 . S
C108 C110 1.352 . S
C109 C108 1.404 . S
C109 C113 1.389 . S
C109 H136 0.930 . S
C110 C108 1.352 . S
C110 C112 1.374 . S
C110 H137 0.931 . S
C111 C112 1.359 . S
C111 C113 1.364 . S
C112 C110 1.374 . S
C112 C111 1.359 . S
C112 H138 0.931 . S
C113 C109 1.389 . S
C113 C111 1.364 . S
C113 H139 0.931 . S
C114 O128 1.256 1_565 S
C114 O129 1.257 1_565 S
C115 O130 1.240 1_455 S
C115 O131 1.240 . S
C116 Gd105 2.818 1_665 S
C116 C117 1.510 . S
C116 O132 1.249 . S
C116 O133 1.213 1_655 S
C117 C116 1.510 . S
C117 C118 1.404 . S
C117 C119 1.352 . S
C118 C117 1.404 . S
C118 C122 1.389 . S
C118 H140 0.930 . S
C119 C117 1.352 . S
C119 C121 1.374 . S
C119 H141 0.931 . S
C120 C121 1.359 . S
C120 C122 1.364 . S
C121 C119 1.374 . S
C121 C120 1.359 . S
C121 H142 0.931 . S
C122 C118 1.389 . S
C122 C120 1.364 . S
C122 H143 0.931 . S
C123 O134 1.256 . S
C123 O135 1.257 1_655 S
O124 Gd104 2.377 . S
O124 C106 1.240 . S
O125 Gd105 2.395 . S
O125 C106 1.240 . S
O126 Gd104 2.448 . S
O126 C107 1.249 . S
O127 Gd104 2.506 . S
O127 C107 1.252 . S
O128 Gd104 2.435 . S
O128 C114 1.256 1_545 S
O129 Gd104 2.717 . S
O129 Gd105 2.327 . S
O129 C114 1.257 1_545 S
O130 Gd105 2.377 1_665 S
O130 C115 1.240 1_655 S
O131 Gd104 2.395 1_565 S
O131 C115 1.240 . S
O132 Gd105 2.448 1_665 S
O132 C116 1.249 . S
O133 Gd105 2.506 1_565 S
O133 C116 1.213 1_455 S
O134 Gd105 2.435 1_655 S
O134 C123 1.256 . S
O135 Gd104 2.327 . S
O135 Gd105 2.717 . S
O135 C123 1.257 1_455 S
H136 C109 0.930 . S
H137 C110 0.931 . S
H138 C112 0.931 . S
H139 C113 0.931 . S
H140 C118 0.930 . S
H141 C119 0.931 . S
H142 C121 0.931 . S
H143 C122 0.931 . S
Gd144 C147 2.818 . S
Gd144 O164 2.377 . S
Gd144 O166 2.448 . S
Gd144 O167 2.506 . S
Gd144 O168 2.435 1_545 S
Gd144 O169 2.717 . S
Gd144 O171 2.395 . S
Gd144 O175 2.327 . S
Gd145 C156 2.818 1_554 S
Gd145 O165 2.395 . S
Gd145 O169 2.327 . S
Gd145 O170 2.377 1_554 S
Gd145 O172 2.448 1_554 S
Gd145 O173 2.506 1_544 S
Gd145 O174 2.435 1_554 S
Gd145 O175 2.717 . S
C146 O164 1.240 . S
C146 O165 1.240 . S
C147 Gd144 2.818 . S
C147 C148 1.510 . S
C147 O166 1.249 . S
C147 O167 1.252 . S
C148 C147 1.510 . S
C148 C149 1.404 . S
C148 C150 1.352 . S
C149 C148 1.404 . S
C149 C153 1.389 . S
C149 H176 0.930 . S
C150 C148 1.352 . S
C150 C152 1.374 . S
C150 H177 0.931 . S
C151 C152 1.359 . S
C151 C153 1.364 . S
C152 C150 1.374 . S
C152 C151 1.359 . S
C152 H178 0.931 . S
C153 C149 1.389 . S
C153 C151 1.364 . S
C153 H179 0.931 . S
C154 O168 1.256 . S
C154 O169 1.257 1_565 S
C155 O170 1.240 1_554 S
C155 O171 1.240 . S
C156 Gd145 2.818 1_556 S
C156 C157 1.510 1_545 S
C156 O172 1.249 . S
C156 O173 1.252 1_545 S
C157 C156 1.510 1_565 S
C157 C158 1.404 . S
C157 C159 1.352 . S
C158 C157 1.404 . S
C158 C162 1.389 . S
C158 H180 0.930 1_565 S
C159 C157 1.352 . S
C159 C161 1.374 . S
C159 H181 0.931 . S
C160 C161 1.359 . S
C160 C162 1.364 . S
C161 C159 1.374 . S
C161 C160 1.359 . S
C161 H182 0.931 . S
C162 C158 1.389 . S
C162 C160 1.364 . S
C162 H183 0.931 . S
C163 O174 1.256 1_554 S
C163 O175 1.257 . S
O164 Gd144 2.377 . S
O164 C146 1.240 . S
O165 Gd145 2.395 . S
O165 C146 1.240 . S
O166 Gd144 2.448 . S
O166 C147 1.249 . S
O167 Gd144 2.506 . S
O167 C147 1.252 . S
O168 Gd144 2.435 1_565 S
O168 C154 1.256 . S
O169 Gd144 2.717 . S
O169 Gd145 2.327 . S
O169 C154 1.257 1_545 S
O170 Gd145 2.377 1_556 S
O170 C155 1.240 1_556 S
O171 Gd144 2.395 . S
O171 C155 1.240 . S
O172 Gd145 2.448 1_556 S
O172 C156 1.249 . S
O173 Gd145 2.506 1_566 S
O173 C156 1.252 1_565 S
O174 Gd145 2.435 1_556 S
O174 C163 1.256 1_556 S
O175 Gd144 2.327 . S
O175 Gd145 2.717 . S
O175 C163 1.257 . S
H176 C149 0.930 . S
H177 C150 0.931 . S
H178 C152 0.931 . S
H179 C153 0.931 . S
H180 C158 0.930 1_545 S
H181 C159 0.931 . S
H182 C161 0.931 . S
H183 C162 0.931 . S
Gd184 C187 2.818 . S
Gd184 O204 2.377 . S
Gd184 O206 2.448 . S
Gd184 O207 2.506 . S
Gd184 O208 2.435 . S
Gd184 O209 2.717 . S
Gd184 O211 2.395 . S
Gd184 O215 2.327 . S
Gd185 C196 2.818 . S
Gd185 O205 2.395 . S
Gd185 O209 2.327 . S
Gd185 O210 2.377 . S
Gd185 O212 2.448 . S
Gd185 O213 2.506 . S
Gd185 O214 2.435 . S
Gd185 O215 2.717 . S
C186 O204 1.240 . S
C186 O205 1.240 . S
C187 Gd184 2.818 . S
C187 C188 1.510 . S
C187 O206 1.249 . S
C187 O207 1.252 . S
C188 C187 1.510 . S
C188 C189 1.404 . S
C188 C190 1.352 . S
C189 C188 1.404 . S
C189 C193 1.389 . S
C189 H216 0.930 . S
C190 C188 1.352 . S
C190 C192 1.374 . S
C190 H217 0.931 . S
C191 C192 1.359 . S
C191 C193 1.364 . S
C192 C190 1.374 . S
C192 C191 1.359 . S
C192 H218 0.931 . S
C193 C189 1.389 . S
C193 C191 1.364 . S
C193 H219 0.931 . S
C194 O208 1.256 . S
C194 O209 1.257 . S
C195 O210 1.240 . S
C195 O211 1.240 . S
C196 Gd185 2.818 . S
C196 C197 1.510 . S
C196 O212 1.249 . S
C196 O213 1.252 . S
C197 C196 1.510 . S
C197 C198 1.404 . S
C197 C199 1.352 . S
C198 C197 1.404 . S
C198 C202 1.389 . S
C198 H220 0.930 . S
C199 C197 1.352 . S
C199 C201 1.374 . S
C199 H221 0.931 . S
C200 C201 1.359 . S
C200 C202 1.364 . S
C201 C199 1.374 . S
C201 C200 1.359 . S
C201 H222 0.931 . S
C202 C198 1.389 . S
C202 C200 1.364 . S
C202 H223 0.931 . S
C203 O214 1.256 . S
C203 O215 1.257 . S
O204 Gd184 2.377 . S
O204 C186 1.240 . S
O205 Gd185 2.395 . S
O205 C186 1.240 . S
O206 Gd184 2.448 . S
O206 C187 1.249 . S
O207 Gd184 2.506 . S
O207 C187 1.252 . S
O208 Gd184 2.435 . S
O208 C194 1.256 . S
O209 Gd184 2.717 . S
O209 Gd185 2.327 . S
O209 C194 1.257 . S
O210 Gd185 2.377 . S
O210 C195 1.240 . S
O211 Gd184 2.395 . S
O211 C195 1.240 . S
O212 Gd185 2.448 . S
O212 C196 1.249 . S
O213 Gd185 2.506 . S
O213 C196 1.252 . S
O214 Gd185 2.435 . S
O214 C203 1.256 . S
O215 Gd184 2.327 . S
O215 Gd185 2.717 . S
O215 C203 1.257 . S
H216 C189 0.930 . S
H217 C190 0.931 . S
H218 C192 0.931 . S
H219 C193 0.931 . S
H220 C198 0.930 . S
H221 C199 0.931 . S
H222 C201 0.931 . S
H223 C202 0.931 . S
Gd224 C227 2.818 . S
Gd224 O244 2.377 . S
Gd224 O246 2.448 . S
Gd224 O247 2.506 . S
Gd224 O248 2.435 1_455 S
Gd224 O249 2.717 1_455 S
Gd224 O251 2.395 1_455 S
Gd224 O255 2.327 1_554 S
Gd225 C236 2.818 1_455 S
Gd225 O245 2.395 1_556 S
Gd225 O249 2.327 1_456 S
Gd225 O250 2.377 1_455 S
Gd225 O252 2.448 1_455 S
Gd225 O253 2.506 1_455 S
Gd225 O254 2.435 . S
Gd225 O255 2.717 . S
C226 O244 1.240 . S
C226 O245 1.240 . S
C227 Gd224 2.818 . S
C227 C228 1.510 . S
C227 O246 1.249 . S
C227 O247 1.252 . S
C228 C227 1.510 . S
C228 C229 1.404 . S
C228 C230 1.352 . S
C229 C228 1.404 . S
C229 C233 1.389 . S
C229 H256 0.930 . S
C230 C228 1.352 . S
C230 C232 1.374 . S
C230 H257 0.931 . S
C231 C232 1.359 . S
C231 C233 1.364 . S
C232 C230 1.374 . S
C232 C231 1.359 . S
C232 H258 0.931 . S
C233 C229 1.389 . S
C233 C231 1.364 . S
C233 H259 0.931 . S
C234 O248 1.256 . S
C234 O249 1.257 . S
C235 O250 1.240 . S
C235 O251 1.240 1_556 S
C236 Gd225 2.818 1_655 S
C236 C237 1.510 . S
C236 O252 1.249 . S
C236 O253 1.252 . S
C237 C236 1.510 . S
C237 C238 1.404 . S
C237 C239 1.352 . S
C238 C237 1.404 . S
C238 C242 1.389 . S
C238 H260 0.930 . S
C239 C237 1.352 . S
C239 C241 1.374 . S
C239 H261 0.931 . S
C240 C241 1.359 . S
C240 C242 1.364 . S
C241 C239 1.374 . S
C241 C240 1.359 . S
C241 H262 0.931 . S
C242 C238 1.389 . S
C242 C240 1.364 . S
C242 H263 0.931 . S
C243 O254 1.256 . S
C243 O255 1.257 . S
O244 Gd224 2.377 . S
O244 C226 1.240 . S
O245 Gd225 2.395 1_554 S
O245 C226 1.240 . S
O246 Gd224 2.448 . S
O246 C227 1.249 . S
O247 Gd224 2.506 . S
O247 C227 1.252 . S
O248 Gd224 2.435 1_655 S
O248 C234 1.256 . S
O249 Gd224 2.717 1_655 S
O249 Gd225 2.327 1_654 S
O249 C234 1.257 . S
O250 Gd225 2.377 1_655 S
O250 C235 1.240 . S
O251 Gd224 2.395 1_655 S
O251 C235 1.240 1_554 S
O252 Gd225 2.448 1_655 S
O252 C236 1.249 . S
O253 Gd225 2.506 1_655 S
O253 C236 1.252 . S
O254 Gd225 2.435 . S
O254 C243 1.256 . S
O255 Gd224 2.327 1_556 S
O255 Gd225 2.717 . S
O255 C243 1.257 . S
H256 C229 0.930 . S
H257 C230 0.931 . S
H258 C232 0.931 . S
H259 C233 0.931 . S
H260 C238 0.930 . S
H261 C239 0.931 . S
H262 C241 0.931 . S
H263 C242 0.931 . S
H264 C272 0.929 . S
H265 C274 0.930 . S
H266 C276 0.930 . S
H267 C279 0.929 . S
H268 C282 0.930 . S
H269 C284 0.960 . S
H270 C284 0.960 . S
H271 C284 0.960 . S
C272 H264 0.929 . S
C272 C273 1.377 . S
C272 C274 1.384 . S
C273 C272 1.377 . S
C273 C279 1.390 . S
C274 H265 0.930 . S
C274 C272 1.384 . S
C274 C275 1.372 . S
C275 C274 1.372 . S
C275 C276 1.400 . S
C275 C280 1.490 . S
C276 H266 0.930 . S
C276 C275 1.400 . S
C276 C279 1.386 . S
H277 C293 0.930 . S
H278 C294 0.931 . S
C279 H267 0.929 . S
C279 C273 1.390 . S
C279 C276 1.386 . S
C280 C275 1.490 . S
C280 C282 1.395 . S
C280 C283 1.403 . S
H281 C287 0.930 . S
C282 H268 0.930 . S
C282 C280 1.395 . S
C282 C285 1.403 . S
C283 C280 1.403 . S
C283 C284 1.524 . S
C283 C287 1.400 . S
C284 H269 0.960 . S
C284 H270 0.960 . S
C284 H271 0.960 . S
C284 C283 1.524 . S
C285 C282 1.403 . S
C285 C286 1.392 . S
C285 C289 1.495 . S
C286 C285 1.392 . S
C286 C287 1.385 . S
C286 C288 1.478 . S
C287 H281 0.930 . S
C287 C283 1.400 . S
C287 C286 1.385 . S
C288 C286 1.478 . S
C288 C290 1.381 . S
C288 C294 1.383 . S
C289 C285 1.495 . S
C289 H295 0.959 . S
C289 H296 0.961 . S
C289 H297 0.960 . S
C290 C288 1.381 . S
C290 C291 1.394 . S
C290 H298 0.930 . S
C291 C290 1.394 . S
C291 C292 1.383 . S
C291 H299 0.929 . S
C292 C291 1.383 . S
C292 C293 1.377 . S
C293 H277 0.930 . S
C293 C292 1.377 . S
C293 C294 1.379 . S
C294 H278 0.931 . S
C294 C288 1.383 . S
C294 C293 1.379 . S
H295 C289 0.959 . S
H296 C289 0.961 . S
H297 C289 0.960 . S
H298 C290 0.930 . S
H299 C291 0.929 . S
H300 C308 0.929 . S
H301 C310 0.930 . S
H302 C312 0.930 . S
H303 C315 0.929 . S
H304 C318 0.930 . S
H305 C320 0.960 . S
H306 C320 0.960 . S
H307 C320 0.960 . S
C308 H300 0.929 . S
C308 C309 1.377 . S
C308 C310 1.384 . S
C309 C308 1.377 . S
C309 C315 1.390 . S
C310 H301 0.930 . S
C310 C308 1.384 . S
C310 C311 1.372 . S
C311 C310 1.372 . S
C311 C312 1.400 . S
C311 C316 1.490 . S
C312 H302 0.930 . S
C312 C311 1.400 . S
C312 C315 1.386 . S
H313 C329 0.930 . S
H314 C330 0.931 . S
C315 H303 0.929 . S
C315 C309 1.390 . S
C315 C312 1.386 . S
C316 C311 1.490 . S
C316 C318 1.395 . S
C316 C319 1.403 . S
H317 C323 0.930 . S
C318 H304 0.930 . S
C318 C316 1.395 . S
C318 C321 1.403 . S
C319 C316 1.403 . S
C319 C320 1.524 . S
C319 C323 1.400 . S
C320 H305 0.960 . S
C320 H306 0.960 . S
C320 H307 0.960 . S
C320 C319 1.524 . S
C321 C318 1.403 . S
C321 C322 1.392 . S
C321 C325 1.495 . S
C322 C321 1.392 . S
C322 C323 1.385 . S
C322 C324 1.478 . S
C323 H317 0.930 . S
C323 C319 1.400 . S
C323 C322 1.385 . S
C324 C322 1.478 . S
C324 C326 1.381 . S
C324 C330 1.383 . S
C325 C321 1.495 . S
C325 H331 0.959 . S
C325 H332 0.961 . S
C325 H333 0.960 . S
C326 C324 1.381 . S
C326 C327 1.394 . S
C326 H334 0.930 . S
C327 C326 1.394 . S
C327 C328 1.383 . S
C327 H335 0.929 . S
C328 C327 1.383 . S
C328 C329 1.377 . S
C329 H313 0.930 . S
C329 C328 1.377 . S
C329 C330 1.379 . S
C330 H314 0.931 . S
C330 C324 1.383 . S
C330 C329 1.379 . S
H331 C325 0.959 . S
H332 C325 0.961 . S
H333 C325 0.960 . S
H334 C326 0.930 . S
H335 C327 0.929 . S
H336 C344 0.929 . S
H337 C346 0.930 . S
H338 C348 0.930 . S
H339 C351 0.929 . S
H340 C354 0.930 . S
H341 C356 0.960 . S
H342 C356 0.960 . S
H343 C356 0.960 . S
C344 H336 0.929 . S
C344 C345 1.377 . S
C344 C346 1.384 . S
C345 C344 1.377 . S
C345 C351 1.390 . S
C346 H337 0.930 . S
C346 C344 1.384 . S
C346 C347 1.372 . S
C347 C346 1.372 . S
C347 C348 1.400 . S
C347 C352 1.490 . S
C348 H338 0.930 . S
C348 C347 1.400 . S
C348 C351 1.386 . S
H349 C365 0.930 . S
H350 C366 0.931 . S
C351 H339 0.929 . S
C351 C345 1.390 . S
C351 C348 1.386 . S
C352 C347 1.490 . S
C352 C354 1.395 . S
C352 C355 1.403 . S
H353 C359 0.930 . S
C354 H340 0.930 . S
C354 C352 1.395 . S
C354 C357 1.403 . S
C355 C352 1.403 . S
C355 C356 1.524 . S
C355 C359 1.400 . S
C356 H341 0.960 . S
C356 H342 0.960 . S
C356 H343 0.960 . S
C356 C355 1.524 . S
C357 C354 1.403 . S
C357 C358 1.392 . S
C357 C361 1.495 . S
C358 C357 1.392 . S
C358 C359 1.385 . S
C358 C360 1.478 . S
C359 H353 0.930 . S
C359 C355 1.400 . S
C359 C358 1.385 . S
C360 C358 1.478 . S
C360 C362 1.381 . S
C360 C366 1.383 . S
C361 C357 1.495 . S
C361 H367 0.959 . S
C361 H368 0.961 . S
C361 H369 0.960 . S
C362 C360 1.381 . S
C362 C363 1.394 . S
C362 H370 0.930 . S
C363 C362 1.394 . S
C363 C364 1.383 . S
C363 H371 0.929 . S
C364 C363 1.383 . S
C364 C365 1.377 . S
C365 H349 0.930 . S
C365 C364 1.377 . S
C365 C366 1.379 . S
C366 H350 0.931 . S
C366 C360 1.383 . S
C366 C365 1.379 . S
H367 C361 0.959 . S
H368 C361 0.961 . S
H369 C361 0.960 . S
H370 C362 0.930 . S
H371 C363 0.929 . S
H372 C380 0.929 . S
H373 C382 0.930 . S
H374 C384 0.930 . S
H375 C387 0.929 . S
H376 C390 0.930 . S
H377 C392 0.960 . S
H378 C392 0.960 . S
H379 C392 0.960 . S
C380 H372 0.929 . S
C380 C381 1.377 . S
C380 C382 1.384 . S
C381 C380 1.377 . S
C381 C387 1.390 . S
C382 H373 0.930 . S
C382 C380 1.384 . S
C382 C383 1.372 . S
C383 C382 1.372 . S
C383 C384 1.400 . S
C383 C388 1.490 . S
C384 H374 0.930 . S
C384 C383 1.400 . S
C384 C387 1.386 . S
H385 C401 0.930 . S
H386 C402 0.931 . S
C387 H375 0.929 . S
C387 C381 1.390 . S
C387 C384 1.386 . S
C388 C383 1.490 . S
C388 C390 1.395 . S
C388 C391 1.403 . S
H389 C395 0.930 . S
C390 H376 0.930 . S
C390 C388 1.395 . S
C390 C393 1.403 . S
C391 C388 1.403 . S
C391 C392 1.524 . S
C391 C395 1.400 . S
C392 H377 0.960 . S
C392 H378 0.960 . S
C392 H379 0.960 . S
C392 C391 1.524 . S
C393 C390 1.403 . S
C393 C394 1.392 . S
C393 C397 1.495 . S
C394 C393 1.392 . S
C394 C395 1.385 . S
C394 C396 1.478 . S
C395 H389 0.930 . S
C395 C391 1.400 . S
C395 C394 1.385 . S
C396 C394 1.478 . S
C396 C398 1.381 . S
C396 C402 1.383 . S
C397 C393 1.495 . S
C397 H403 0.959 . S
C397 H404 0.961 . S
C397 H405 0.960 . S
C398 C396 1.381 . S
C398 C399 1.394 . S
C398 H406 0.930 . S
C399 C398 1.394 . S
C399 C400 1.383 . S
C399 H407 0.929 . S
C400 C399 1.383 . S
C400 C401 1.377 . S
C401 H385 0.930 . S
C401 C400 1.377 . S
C401 C402 1.379 . S
C402 H386 0.931 . S
C402 C396 1.383 . S
C402 C401 1.379 . S
H403 C397 0.959 . S
H404 C397 0.961 . S
H405 C397 0.960 . S
H406 C398 0.930 . S
H407 C399 0.929 . S
H408 C416 0.929 . S
H409 C418 0.930 . S
H410 C420 0.930 . S
H411 C423 0.929 . S
H412 C426 0.930 . S
H413 C428 0.960 . S
H414 C428 0.960 . S
H415 C428 0.960 . S
C416 H408 0.929 . S
C416 C417 1.377 . S
C416 C418 1.384 . S
C417 C416 1.377 . S
C417 C423 1.390 . S
C418 H409 0.930 . S
C418 C416 1.384 . S
C418 C419 1.372 . S
C419 C418 1.372 . S
C419 C420 1.400 . S
C419 C424 1.490 . S
C420 H410 0.930 . S
C420 C419 1.400 . S
C420 C423 1.386 . S
H421 C437 0.930 . S
H422 C438 0.931 . S
C423 H411 0.929 . S
C423 C417 1.390 . S
C423 C420 1.386 . S
C424 C419 1.490 . S
C424 C426 1.395 . S
C424 C427 1.403 . S
H425 C431 0.930 . S
C426 H412 0.930 . S
C426 C424 1.395 . S
C426 C429 1.403 . S
C427 C424 1.403 . S
C427 C428 1.524 . S
C427 C431 1.400 . S
C428 H413 0.960 . S
C428 H414 0.960 . S
C428 H415 0.960 . S
C428 C427 1.524 . S
C429 C426 1.403 . S
C429 C430 1.392 . S
C429 C433 1.495 . S
C430 C429 1.392 . S
C430 C431 1.385 . S
C430 C432 1.478 . S
C431 H425 0.930 . S
C431 C427 1.400 . S
C431 C430 1.385 . S
C432 C430 1.478 . S
C432 C434 1.381 . S
C432 C438 1.383 . S
C433 C429 1.495 . S
C433 H439 0.959 . S
C433 H440 0.961 . S
C433 H441 0.960 . S
C434 C432 1.381 . S
C434 C435 1.394 . S
C434 H442 0.930 . S
C435 C434 1.394 . S
C435 C436 1.383 . S
C435 H443 0.929 . S
C436 C435 1.383 . S
C436 C437 1.377 . S
C437 H421 0.930 . S
C437 C436 1.377 . S
C437 C438 1.379 . S
C438 H422 0.931 . S
C438 C432 1.383 . S
C438 C437 1.379 . S
H439 C433 0.959 . S
H440 C433 0.961 . S
H441 C433 0.960 . S
H442 C434 0.930 . S
H443 C435 0.929 . S
H444 C452 0.929 . S
H445 C454 0.930 . S
H446 C456 0.930 . S
H447 C459 0.929 . S
H448 C462 0.930 . S
H449 C464 0.960 . S
H450 C464 0.960 . S
H451 C464 0.960 . S
C452 H444 0.929 . S
C452 C453 1.377 . S
C452 C454 1.384 . S
C453 C452 1.377 . S
C453 C459 1.390 . S
C454 H445 0.930 . S
C454 C452 1.384 . S
C454 C455 1.372 . S
C455 C454 1.372 . S
C455 C456 1.400 . S
C455 C460 1.490 . S
C456 H446 0.930 . S
C456 C455 1.400 . S
C456 C459 1.386 . S
H457 C473 0.930 . S
H458 C474 0.931 . S
C459 H447 0.929 . S
C459 C453 1.390 . S
C459 C456 1.386 . S
C460 C455 1.490 . S
C460 C462 1.395 . S
C460 C463 1.403 . S
H461 C467 0.930 . S
C462 H448 0.930 . S
C462 C460 1.395 . S
C462 C465 1.403 . S
C463 C460 1.403 . S
C463 C464 1.524 . S
C463 C467 1.400 . S
C464 H449 0.960 . S
C464 H450 0.960 . S
C464 H451 0.960 . S
C464 C463 1.524 . S
C465 C462 1.403 . S
C465 C466 1.392 . S
C465 C469 1.495 . S
C466 C465 1.392 . S
C466 C467 1.385 . S
C466 C468 1.478 . S
C467 H461 0.930 . S
C467 C463 1.400 . S
C467 C466 1.385 . S
C468 C466 1.478 . S
C468 C470 1.381 . S
C468 C474 1.383 . S
C469 C465 1.495 . S
C469 H475 0.959 . S
C469 H476 0.961 . S
C469 H477 0.960 . S
C470 C468 1.381 . S
C470 C471 1.394 . S
C470 H478 0.930 . S
C471 C470 1.394 . S
C471 C472 1.383 . S
C471 H479 0.929 1_565 S
C472 C471 1.383 . S
C472 C473 1.377 . S
C473 H457 0.930 . S
C473 C472 1.377 . S
C473 C474 1.379 . S
C474 H458 0.931 . S
C474 C468 1.383 . S
C474 C473 1.379 . S
H475 C469 0.959 . S
H476 C469 0.961 . S
H477 C469 0.960 . S
H478 C470 0.930 . S
H479 C471 0.929 1_545 S
H480 C488 0.929 . S
H481 C490 0.930 . S
H482 C492 0.930 . S
H483 C495 0.929 . S
H484 C498 0.930 . S
H485 C500 0.960 . S
H486 C500 0.960 . S
H487 C500 0.960 . S
C488 H480 0.929 . S
C488 C489 1.377 . S
C488 C490 1.384 . S
C489 C488 1.377 . S
C489 C495 1.390 . S
C490 H481 0.930 . S
C490 C488 1.384 . S
C490 C491 1.372 . S
C491 C490 1.372 . S
C491 C492 1.400 . S
C491 C496 1.490 . S
C492 H482 0.930 . S
C492 C491 1.400 . S
C492 C495 1.386 . S
H493 C509 0.930 . S
H494 C510 0.931 . S
C495 H483 0.929 . S
C495 C489 1.390 . S
C495 C492 1.386 . S
C496 C491 1.490 . S
C496 C498 1.395 . S
C496 C499 1.403 . S
H497 C503 0.930 . S
C498 H484 0.930 . S
C498 C496 1.395 . S
C498 C501 1.403 . S
C499 C496 1.403 . S
C499 C500 1.524 . S
C499 C503 1.400 . S
C500 H485 0.960 . S
C500 H486 0.960 . S
C500 H487 0.960 . S
C500 C499 1.524 . S
C501 C498 1.403 . S
C501 C502 1.392 . S
C501 C505 1.495 . S
C502 C501 1.392 . S
C502 C503 1.385 . S
C502 C504 1.478 . S
C503 H497 0.930 . S
C503 C499 1.400 . S
C503 C502 1.385 . S
C504 C502 1.478 . S
C504 C506 1.381 . S
C504 C510 1.383 . S
C505 C501 1.495 . S
C505 H511 0.959 . S
C505 H512 0.961 . S
C505 H513 0.960 . S
C506 C504 1.381 . S
C506 C507 1.394 . S
C506 H514 0.930 . S
C507 C506 1.394 . S
C507 C508 1.383 . S
C507 H515 0.929 . S
C508 C507 1.383 . S
C508 C509 1.377 . S
C509 H493 0.930 . S
C509 C508 1.377 . S
C509 C510 1.379 . S
C510 H494 0.931 . S
C510 C504 1.383 . S
C510 C509 1.379 . S
H511 C505 0.959 . S
H512 C505 0.961 . S
H513 C505 0.960 . S
H514 C506 0.930 . S
H515 C507 0.929 . S
H516 C524 0.929 . S
H517 C526 0.930 . S
H518 C528 0.930 . S
H519 C531 0.929 . S
H520 C534 0.930 . S
H521 C536 0.960 . S
H522 C536 0.960 . S
H523 C536 0.960 . S
C524 H516 0.929 . S
C524 C525 1.377 . S
C524 C526 1.384 . S
C525 C524 1.377 . S
C525 C531 1.390 . S
C526 H517 0.930 . S
C526 C524 1.384 . S
C526 C527 1.372 . S
C527 C526 1.372 . S
C527 C528 1.400 . S
C527 C532 1.490 . S
C528 H518 0.930 . S
C528 C527 1.400 . S
C528 C531 1.386 . S
H529 C545 0.930 . S
H530 C546 0.931 . S
C531 H519 0.929 . S
C531 C525 1.390 . S
C531 C528 1.386 . S
C532 C527 1.490 . S
C532 C534 1.395 . S
C532 C535 1.403 . S
H533 C539 0.930 . S
C534 H520 0.930 . S
C534 C532 1.395 . S
C534 C537 1.403 . S
C535 C532 1.403 . S
C535 C536 1.524 . S
C535 C539 1.400 . S
C536 H521 0.960 . S
C536 H522 0.960 . S
C536 H523 0.960 . S
C536 C535 1.524 . S
C537 C534 1.403 . S
C537 C538 1.392 . S
C537 C541 1.495 . S
C538 C537 1.392 . S
C538 C539 1.385 . S
C538 C540 1.478 . S
C539 H533 0.930 . S
C539 C535 1.400 . S
C539 C538 1.385 . S
C540 C538 1.478 . S
C540 C542 1.381 . S
C540 C546 1.383 . S
C541 C537 1.495 . S
C541 H547 0.959 . S
C541 H548 0.961 . S
C541 H549 0.960 . S
C542 C540 1.381 . S
C542 C543 1.394 . S
C542 H550 0.930 . S
C543 C542 1.394 . S
C543 C544 1.383 . S
C543 H551 0.929 . S
C544 C543 1.383 . S
C544 C545 1.377 . S
C545 H529 0.930 . S
C545 C544 1.377 . S
C545 C546 1.379 . S
C546 H530 0.931 . S
C546 C540 1.383 . S
C546 C545 1.379 . S
H547 C541 0.959 . S
H548 C541 0.961 . S
H549 C541 0.960 . S
H550 C542 0.930 . S
H551 C543 0.929 . S
H552 C560 0.929 . S
H553 C562 0.930 . S
H554 C564 0.930 . S
H555 C567 0.929 . S
H556 C570 0.930 . S
H557 C572 0.960 . S
H558 C572 0.960 . S
H559 C572 0.960 . S
C560 H552 0.929 . S
C560 C561 1.377 . S
C560 C562 1.384 . S
C561 C560 1.377 . S
C561 C567 1.390 . S
C562 H553 0.930 . S
C562 C560 1.384 . S
C562 C563 1.372 . S
C563 C562 1.372 . S
C563 C564 1.400 . S
C563 C568 1.490 . S
C564 H554 0.930 . S
C564 C563 1.400 . S
C564 C567 1.386 . S
H565 C581 0.930 . S
H566 C582 0.931 . S
C567 H555 0.929 . S
C567 C561 1.390 . S
C567 C564 1.386 . S
C568 C563 1.490 . S
C568 C570 1.395 . S
C568 C571 1.403 . S
H569 C575 0.930 . S
C570 H556 0.930 . S
C570 C568 1.395 . S
C570 C573 1.403 . S
C571 C568 1.403 . S
C571 C572 1.524 . S
C571 C575 1.400 . S
C572 H557 0.960 . S
C572 H558 0.960 . S
C572 H559 0.960 . S
C572 C571 1.524 . S
C573 C570 1.403 . S
C573 C574 1.392 . S
C573 C577 1.495 . S
C574 C573 1.392 . S
C574 C575 1.385 . S
C574 C576 1.478 . S
C575 H569 0.930 . S
C575 C571 1.400 . S
C575 C574 1.385 . S
C576 C574 1.478 . S
C576 C578 1.381 . S
C576 C582 1.383 . S
C577 C573 1.495 . S
C577 H583 0.959 . S
C577 H584 0.961 . S
C577 H585 0.960 . S
C578 C576 1.381 . S
C578 C579 1.394 . S
C578 H586 0.930 . S
C579 C578 1.394 . S
C579 C580 1.383 . S
C579 H587 0.929 . S
C580 C579 1.383 . S
C580 C581 1.377 . S
C581 H565 0.930 . S
C581 C580 1.377 . S
C581 C582 1.379 . S
C582 H566 0.931 . S
C582 C576 1.383 . S
C582 C581 1.379 . S
H583 C577 0.959 . S
H584 C577 0.961 . S
H585 C577 0.960 . S
H586 C578 0.930 . S
H587 C579 0.929 . S
H588 C596 0.929 . S
H589 C598 0.930 . S
H590 C600 0.930 . S
H591 C603 0.929 . S
H592 C606 0.930 . S
H593 C608 0.960 . S
H594 C608 0.960 . S
H595 C608 0.960 . S
C596 H588 0.929 . S
C596 C597 1.377 . S
C596 C598 1.384 . S
C597 C596 1.377 . S
C597 C603 1.390 . S
C598 H589 0.930 . S
C598 C596 1.384 . S
C598 C599 1.372 . S
C599 C598 1.372 . S
C599 C600 1.400 . S
C599 C604 1.490 . S
C600 H590 0.930 . S
C600 C599 1.400 . S
C600 C603 1.386 . S
H601 C617 0.930 . S
H602 C618 0.931 . S
C603 H591 0.929 . S
C603 C597 1.390 . S
C603 C600 1.386 . S
C604 C599 1.490 . S
C604 C606 1.395 . S
C604 C607 1.403 . S
H605 C611 0.930 . S
C606 H592 0.930 . S
C606 C604 1.395 . S
C606 C609 1.403 . S
C607 C604 1.403 . S
C607 C608 1.524 . S
C607 C611 1.400 . S
C608 H593 0.960 . S
C608 H594 0.960 . S
C608 H595 0.960 . S
C608 C607 1.524 . S
C609 C606 1.403 . S
C609 C610 1.392 . S
C609 C613 1.495 . S
C610 C609 1.392 . S
C610 C611 1.385 . S
C610 C612 1.478 . S
C611 H605 0.930 . S
C611 C607 1.400 . S
C611 C610 1.385 . S
C612 C610 1.478 . S
C612 C614 1.381 . S
C612 C618 1.383 . S
C613 C609 1.495 . S
C613 H619 0.959 . S
C613 H620 0.961 . S
C613 H621 0.960 . S
C614 C612 1.381 . S
C614 C615 1.394 1_556 S
C614 H622 0.930 . S
C615 C614 1.394 1_554 S
C615 C616 1.383 1_554 S
C615 H623 0.929 . S
C616 C615 1.383 1_556 S
C616 C617 1.377 . S
C617 H601 0.930 . S
C617 C616 1.377 . S
C617 C618 1.379 . S
C618 H602 0.931 . S
C618 C612 1.383 . S
C618 C617 1.379 . S
H619 C613 0.959 . S
H620 C613 0.961 . S
H621 C613 0.960 . S
H622 C614 0.930 . S
H623 C615 0.929 . S
H624 C632 0.929 . S
H625 C634 0.930 . S
H626 C636 0.930 . S
H627 C639 0.929 . S
H628 C642 0.930 . S
H629 C644 0.960 . S
H630 C644 0.960 . S
H631 C644 0.960 . S
C632 H624 0.929 . S
C632 C633 1.377 . S
C632 C634 1.384 . S
C633 C632 1.377 . S
C633 C639 1.390 . S
C634 H625 0.930 . S
C634 C632 1.384 . S
C634 C635 1.372 . S
C635 C634 1.372 . S
C635 C636 1.400 . S
C635 C640 1.490 . S
C636 H626 0.930 . S
C636 C635 1.400 . S
C636 C639 1.386 . S
H637 C653 0.930 . S
H638 C654 0.931 . S
C639 H627 0.929 . S
C639 C633 1.390 . S
C639 C636 1.386 . S
C640 C635 1.490 . S
C640 C642 1.395 . S
C640 C643 1.403 . S
H641 C647 0.930 . S
C642 H628 0.930 . S
C642 C640 1.395 . S
C642 C645 1.403 . S
C643 C640 1.403 . S
C643 C644 1.524 . S
C643 C647 1.400 . S
C644 H629 0.960 . S
C644 H630 0.960 . S
C644 H631 0.960 . S
C644 C643 1.524 . S
C645 C642 1.403 . S
C645 C646 1.392 . S
C645 C649 1.495 . S
C646 C645 1.392 . S
C646 C647 1.385 . S
C646 C648 1.478 . S
C647 H641 0.930 . S
C647 C643 1.400 . S
C647 C646 1.385 . S
C648 C646 1.478 . S
C648 C650 1.381 . S
C648 C654 1.383 . S
C649 C645 1.495 . S
C649 H655 0.959 . S
C649 H656 0.961 1_655 S
C649 H657 0.960 . S
C650 C648 1.381 . S
C650 C651 1.394 . S
C650 H658 0.930 . S
C651 C650 1.394 . S
C651 C652 1.383 . S
C651 H659 0.929 . S
C652 C651 1.383 . S
C652 C653 1.377 . S
C653 H637 0.930 . S
C653 C652 1.377 . S
C653 C654 1.379 . S
C654 H638 0.931 . S
C654 C648 1.383 . S
C654 C653 1.379 . S
H655 C649 0.959 . S
H656 C649 0.961 1_455 S
H657 C649 0.960 . S
H658 C650 0.930 . S
H659 C651 0.929 . S
H660 C668 0.929 . S
H661 C670 0.930 . S
H662 C672 0.930 . S
H663 C675 0.929 . S
H664 C678 0.930 . S
H665 C680 0.960 . S
H666 C680 0.960 . S
H667 C680 0.960 . S
C668 H660 0.929 . S
C668 C669 1.377 . S
C668 C670 1.384 . S
C669 C668 1.377 . S
C669 C675 1.390 . S
C670 H661 0.930 . S
C670 C668 1.384 . S
C670 C671 1.372 . S
C671 C670 1.372 . S
C671 C672 1.400 . S
C671 C676 1.490 . S
C672 H662 0.930 . S
C672 C671 1.400 . S
C672 C675 1.386 . S
H673 C689 0.930 . S
H674 C690 0.931 . S
C675 H663 0.929 . S
C675 C669 1.390 . S
C675 C672 1.386 . S
C676 C671 1.490 . S
C676 C678 1.395 . S
C676 C679 1.403 . S
H677 C683 0.930 . S
C678 H664 0.930 . S
C678 C676 1.395 . S
C678 C681 1.403 . S
C679 C676 1.403 . S
C679 C680 1.524 . S
C679 C683 1.400 . S
C680 H665 0.960 . S
C680 H666 0.960 . S
C680 H667 0.960 . S
C680 C679 1.524 . S
C681 C678 1.403 . S
C681 C682 1.392 . S
C681 C685 1.495 . S
C682 C681 1.392 . S
C682 C683 1.385 . S
C682 C684 1.478 . S
C683 H677 0.930 . S
C683 C679 1.400 . S
C683 C682 1.385 . S
C684 C682 1.478 . S
C684 C686 1.381 . S
C684 C690 1.383 . S
C685 C681 1.495 . S
C685 H691 0.959 . S
C685 H692 0.961 . S
C685 H693 0.960 . S
C686 C684 1.381 . S
C686 C687 1.394 . S
C686 H694 0.930 . S
C687 C686 1.394 . S
C687 C688 1.383 . S
C687 H695 0.929 . S
C688 C687 1.383 . S
C688 C689 1.377 . S
C689 H673 0.930 . S
C689 C688 1.377 . S
C689 C690 1.379 . S
C690 H674 0.931 . S
C690 C684 1.383 . S
C690 C689 1.379 . S
H691 C685 0.959 . S
H692 C685 0.961 . S
H693 C685 0.960 . S
H694 C686 0.930 . S
H695 C687 0.929 . S
H696 C704 0.929 . S
H697 C706 0.930 . S
H698 C708 0.930 . S
H699 C711 0.929 . S
H700 C714 0.930 . S
H701 C716 0.960 . S
H702 C716 0.960 . S
H703 C716 0.960 . S
C704 H696 0.929 . S
C704 C705 1.377 . S
C704 C706 1.384 . S
C705 C704 1.377 . S
C705 C711 1.390 . S
C706 H697 0.930 . S
C706 C704 1.384 . S
C706 C707 1.372 . S
C707 C706 1.372 . S
C707 C708 1.400 . S
C707 C712 1.490 . S
C708 H698 0.930 . S
C708 C707 1.400 . S
C708 C711 1.386 . S
H709 C725 0.930 . S
H710 C726 0.931 . S
C711 H699 0.929 . S
C711 C705 1.390 . S
C711 C708 1.386 . S
C712 C707 1.490 . S
C712 C714 1.395 . S
C712 C715 1.403 . S
H713 C719 0.930 . S
C714 H700 0.930 . S
C714 C712 1.395 . S
C714 C717 1.403 . S
C715 C712 1.403 . S
C715 C716 1.524 . S
C715 C719 1.400 . S
C716 H701 0.960 . S
C716 H702 0.960 . S
C716 H703 0.960 . S
C716 C715 1.524 . S
C717 C714 1.403 . S
C717 C718 1.392 . S
C717 C721 1.495 . S
C718 C717 1.392 . S
C718 C719 1.385 . S
C718 C720 1.478 . S
C719 H713 0.930 . S
C719 C715 1.400 . S
C719 C718 1.385 . S
C720 C718 1.478 . S
C720 C722 1.381 . S
C720 C726 1.383 . S
C721 C717 1.495 . S
C721 H727 0.959 . S
C721 H728 0.961 . S
C721 H729 0.960 . S
C722 C720 1.381 . S
C722 C723 1.394 . S
C722 H730 0.930 . S
C723 C722 1.394 . S
C723 C724 1.383 . S
C723 H731 0.929 . S
C724 C723 1.383 . S
C724 C725 1.377 . S
C725 H709 0.930 . S
C725 C724 1.377 . S
C725 C726 1.379 . S
C726 H710 0.931 . S
C726 C720 1.383 . S
C726 C725 1.379 . S
H727 C721 0.959 . S
H728 C721 0.961 . S
H729 C721 0.960 . S
H730 C722 0.930 . S
H731 C723 0.929 . S
H732 C740 0.929 . S
H733 C742 0.930 . S
H734 C744 0.930 . S
H735 C747 0.929 . S
H736 C750 0.930 . S
H737 C752 0.960 . S
H738 C752 0.960 . S
H739 C752 0.960 . S
C740 H732 0.929 . S
C740 C741 1.377 . S
C740 C742 1.384 . S
C741 C740 1.377 . S
C741 C747 1.390 . S
C742 H733 0.930 . S
C742 C740 1.384 . S
C742 C743 1.372 . S
C743 C742 1.372 . S
C743 C744 1.400 . S
C743 C748 1.490 . S
C744 H734 0.930 . S
C744 C743 1.400 . S
C744 C747 1.386 . S
H745 C761 0.930 . S
H746 C762 0.931 . S
C747 H735 0.929 . S
C747 C741 1.390 . S
C747 C744 1.386 . S
C748 C743 1.490 . S
C748 C750 1.395 . S
C748 C751 1.403 . S
H749 C755 0.930 . S
C750 H736 0.930 . S
C750 C748 1.395 . S
C750 C753 1.403 . S
C751 C748 1.403 . S
C751 C752 1.524 . S
C751 C755 1.400 . S
C752 H737 0.960 . S
C752 H738 0.960 . S
C752 H739 0.960 . S
C752 C751 1.524 . S
C753 C750 1.403 . S
C753 C754 1.392 . S
C753 C757 1.495 . S
C754 C753 1.392 . S
C754 C755 1.385 . S
C754 C756 1.478 . S
C755 H749 0.930 . S
C755 C751 1.400 . S
C755 C754 1.385 . S
C756 C754 1.478 . S
C756 C758 1.381 . S
C756 C762 1.383 . S
C757 C753 1.495 . S
C757 H763 0.959 . S
C757 H764 0.961 . S
C757 H765 0.960 . S
C758 C756 1.381 . S
C758 C759 1.394 . S
C758 H766 0.930 . S
C759 C758 1.394 . S
C759 C760 1.383 . S
C759 H767 0.929 . S
C760 C759 1.383 . S
C760 C761 1.377 . S
C761 H745 0.930 . S
C761 C760 1.377 . S
C761 C762 1.379 . S
C762 H746 0.931 . S
C762 C756 1.383 . S
C762 C761 1.379 . S
H763 C757 0.959 . S
H764 C757 0.961 . S
H765 C757 0.960 . S
H766 C758 0.930 . S
H767 C759 0.929 . S
H768 C776 0.929 . S
H769 C778 0.930 . S
H770 C780 0.930 . S
H771 C783 0.929 . S
H772 C786 0.930 . S
H773 C788 0.960 . S
H774 C788 0.960 . S
H775 C788 0.960 . S
C776 H768 0.929 . S
C776 C777 1.377 . S
C776 C778 1.384 . S
C777 C776 1.377 . S
C777 C783 1.390 . S
C778 H769 0.930 . S
C778 C776 1.384 . S
C778 C779 1.372 . S
C779 C778 1.372 . S
C779 C780 1.400 . S
C779 C784 1.490 . S
C780 H770 0.930 . S
C780 C779 1.400 . S
C780 C783 1.386 . S
H781 C797 0.930 . S
H782 C798 0.931 . S
C783 H771 0.929 . S
C783 C777 1.390 . S
C783 C780 1.386 . S
C784 C779 1.490 . S
C784 C786 1.395 . S
C784 C787 1.403 . S
H785 C791 0.930 . S
C786 H772 0.930 . S
C786 C784 1.395 . S
C786 C789 1.403 . S
C787 C784 1.403 . S
C787 C788 1.524 . S
C787 C791 1.400 . S
C788 H773 0.960 . S
C788 H774 0.960 . S
C788 H775 0.960 . S
C788 C787 1.524 . S
C789 C786 1.403 . S
C789 C790 1.392 . S
C789 C793 1.495 . S
C790 C789 1.392 . S
C790 C791 1.385 . S
C790 C792 1.478 . S
C791 H785 0.930 . S
C791 C787 1.400 . S
C791 C790 1.385 . S
C792 C790 1.478 . S
C792 C794 1.381 . S
C792 C798 1.383 . S
C793 C789 1.495 . S
C793 H799 0.959 . S
C793 H800 0.961 . S
C793 H801 0.960 . S
C794 C792 1.381 . S
C794 C795 1.394 . S
C794 H802 0.930 . S
C795 C794 1.394 . S
C795 C796 1.383 . S
C795 H803 0.929 . S
C796 C795 1.383 . S
C796 C797 1.377 . S
C797 H781 0.930 . S
C797 C796 1.377 . S
C797 C798 1.379 . S
C798 H782 0.931 . S
C798 C792 1.383 . S
C798 C797 1.379 . S
H799 C793 0.959 . S
H800 C793 0.961 . S
H801 C793 0.960 . S
H802 C794 0.930 . S
H803 C795 0.929 . S
H804 C812 0.929 . S
H805 C814 0.930 . S
H806 C816 0.930 . S
H807 C819 0.929 . S
H808 C822 0.930 . S
H809 C824 0.960 . S
H810 C824 0.960 . S
H811 C824 0.960 . S
C812 H804 0.929 . S
C812 C813 1.377 . S
C812 C814 1.384 . S
C813 C812 1.377 . S
C813 C819 1.390 . S
C814 H805 0.930 . S
C814 C812 1.384 . S
C814 C815 1.372 . S
C815 C814 1.372 . S
C815 C816 1.400 . S
C815 C820 1.490 . S
C816 H806 0.930 . S
C816 C815 1.400 . S
C816 C819 1.386 . S
H817 C833 0.930 . S
H818 C834 0.931 . S
C819 H807 0.929 . S
C819 C813 1.390 . S
C819 C816 1.386 . S
C820 C815 1.490 . S
C820 C822 1.395 . S
C820 C823 1.403 . S
H821 C827 0.930 . S
C822 H808 0.930 . S
C822 C820 1.395 . S
C822 C825 1.403 . S
C823 C820 1.403 . S
C823 C824 1.524 . S
C823 C827 1.400 . S
C824 H809 0.960 . S
C824 H810 0.960 . S
C824 H811 0.960 . S
C824 C823 1.524 . S
C825 C822 1.403 . S
C825 C826 1.392 . S
C825 C829 1.495 . S
C826 C825 1.392 . S
C826 C827 1.385 . S
C826 C828 1.478 . S
C827 H821 0.930 . S
C827 C823 1.400 . S
C827 C826 1.385 . S
C828 C826 1.478 . S
C828 C830 1.381 . S
C828 C834 1.383 . S
C829 C825 1.495 . S
C829 H835 0.959 . S
C829 H836 0.961 . S
C829 H837 0.960 . S
C830 C828 1.381 . S
C830 C831 1.394 . S
C830 H838 0.930 . S
C831 C830 1.394 . S
C831 C832 1.383 . S
C831 H839 0.929 . S
C832 C831 1.383 . S
C832 C833 1.377 . S
C833 H817 0.930 . S
C833 C832 1.377 . S
C833 C834 1.379 . S
C834 H818 0.931 . S
C834 C828 1.383 . S
C834 C833 1.379 . S
H835 C829 0.959 . S
H836 C829 0.961 . S
H837 C829 0.960 . S
H838 C830 0.930 . S
H839 C831 0.929 . S
H840 C848 0.929 . S
H841 C850 0.930 . S
H842 C852 0.930 . S
H843 C855 0.929 . S
H844 C858 0.930 . S
H845 C860 0.960 . S
H846 C860 0.960 . S
H847 C860 0.960 . S
C848 H840 0.929 . S
C848 C849 1.377 . S
C848 C850 1.384 . S
C849 C848 1.377 . S
C849 C855 1.390 . S
C850 H841 0.930 . S
C850 C848 1.384 . S
C850 C851 1.372 . S
C851 C850 1.372 . S
C851 C852 1.400 . S
C851 C856 1.490 . S
C852 H842 0.930 . S
C852 C851 1.400 . S
C852 C855 1.386 . S
H853 C869 0.930 . S
H854 C870 0.931 . S
C855 H843 0.929 . S
C855 C849 1.390 . S
C855 C852 1.386 . S
C856 C851 1.490 . S
C856 C858 1.395 . S
C856 C859 1.403 . S
H857 C863 0.930 . S
C858 H844 0.930 . S
C858 C856 1.395 . S
C858 C861 1.403 . S
C859 C856 1.403 . S
C859 C860 1.524 . S
C859 C863 1.400 . S
C860 H845 0.960 . S
C860 H846 0.960 . S
C860 H847 0.960 . S
C860 C859 1.524 . S
C861 C858 1.403 . S
C861 C862 1.392 . S
C861 C865 1.495 . S
C862 C861 1.392 . S
C862 C863 1.385 . S
C862 C864 1.478 . S
C863 H857 0.930 . S
C863 C859 1.400 . S
C863 C862 1.385 . S
C864 C862 1.478 . S
C864 C866 1.381 . S
C864 C870 1.383 . S
C865 C861 1.495 . S
C865 H871 0.959 . S
C865 H872 0.961 . S
C865 H873 0.960 . S
C866 C864 1.381 . S
C866 C867 1.394 . S
C866 H874 0.930 . S
C867 C866 1.394 . S
C867 C868 1.383 . S
C867 H875 0.929 1_556 S
C868 C867 1.383 . S
C868 C869 1.377 . S
C869 H853 0.930 . S
C869 C868 1.377 . S
C869 C870 1.379 . S
C870 H854 0.931 . S
C870 C864 1.383 . S
C870 C869 1.379 . S
H871 C865 0.959 . S
H872 C865 0.961 . S
H873 C865 0.960 . S
H874 C866 0.930 . S
H875 C867 0.929 1_554 S
H876 C884 0.929 . S
H877 C886 0.930 . S
H878 C888 0.930 . S
H879 C891 0.929 . S
H880 C894 0.930 . S
H881 C896 0.960 . S
H882 C896 0.960 . S
H883 C896 0.960 . S
C884 H876 0.929 . S
C884 C885 1.377 . S
C884 C886 1.384 . S
C885 C884 1.377 . S
C885 C891 1.390 . S
C886 H877 0.930 . S
C886 C884 1.384 . S
C886 C887 1.372 . S
C887 C886 1.372 . S
C887 C888 1.400 . S
C887 C892 1.490 . S
C888 H878 0.930 . S
C888 C887 1.400 . S
C888 C891 1.386 . S
H889 C905 0.930 . S
H890 C906 0.931 . S
C891 H879 0.929 . S
C891 C885 1.390 . S
C891 C888 1.386 . S
C892 C887 1.490 . S
C892 C894 1.395 . S
C892 C895 1.403 . S
H893 C899 0.930 . S
C894 H880 0.930 . S
C894 C892 1.395 . S
C894 C897 1.403 . S
C895 C892 1.403 . S
C895 C896 1.524 . S
C895 C899 1.400 . S
C896 H881 0.960 . S
C896 H882 0.960 . S
C896 H883 0.960 . S
C896 C895 1.524 . S
C897 C894 1.403 . S
C897 C898 1.392 . S
C897 C901 1.495 . S
C898 C897 1.392 . S
C898 C899 1.385 . S
C898 C900 1.478 . S
C899 H893 0.930 . S
C899 C895 1.400 . S
C899 C898 1.385 . S
C900 C898 1.478 . S
C900 C902 1.381 . S
C900 C906 1.383 . S
C901 C897 1.495 . S
C901 H907 0.959 . S
C901 H908 0.961 . S
C901 H909 0.960 . S
C902 C900 1.381 . S
C902 C903 1.394 . S
C902 H910 0.930 . S
C903 C902 1.394 . S
C903 C904 1.383 . S
C903 H911 0.929 . S
C904 C903 1.383 . S
C904 C905 1.377 . S
C905 H889 0.930 . S
C905 C904 1.377 . S
C905 C906 1.379 . S
C906 H890 0.931 . S
C906 C900 1.383 . S
C906 C905 1.379 . S
H907 C901 0.959 . S
H908 C901 0.961 . S
H909 C901 0.960 . S
H910 C902 0.930 . S
H911 C903 0.929 . S
H912 C920 0.929 . S
H913 C922 0.930 . S
H914 C924 0.930 . S
H915 C927 0.929 . S
H916 C930 0.930 . S
H917 C932 0.960 . S
H918 C932 0.960 . S
H919 C932 0.960 . S
C920 H912 0.929 . S
C920 C921 1.377 . S
C920 C922 1.384 . S
C921 C920 1.377 . S
C921 C927 1.390 . S
C922 H913 0.930 . S
C922 C920 1.384 . S
C922 C923 1.372 . S
C923 C922 1.372 . S
C923 C924 1.400 . S
C923 C928 1.490 . S
C924 H914 0.930 . S
C924 C923 1.400 . S
C924 C927 1.386 . S
H925 C941 0.930 . S
H926 C942 0.931 . S
C927 H915 0.929 . S
C927 C921 1.390 . S
C927 C924 1.386 . S
C928 C923 1.490 . S
C928 C930 1.395 . S
C928 C931 1.403 . S
H929 C935 0.930 . S
C930 H916 0.930 . S
C930 C928 1.395 . S
C930 C933 1.403 . S
C931 C928 1.403 . S
C931 C932 1.524 . S
C931 C935 1.400 . S
C932 H917 0.960 . S
C932 H918 0.960 . S
C932 H919 0.960 . S
C932 C931 1.524 . S
C933 C930 1.403 . S
C933 C934 1.392 . S
C933 C937 1.495 . S
C934 C933 1.392 . S
C934 C935 1.385 . S
C934 C936 1.478 . S
C935 H929 0.930 . S
C935 C931 1.400 . S
C935 C934 1.385 . S
C936 C934 1.478 . S
C936 C938 1.381 . S
C936 C942 1.383 . S
C937 C933 1.495 . S
C937 H943 0.959 . S
C937 H944 0.961 . S
C937 H945 0.960 . S
C938 C936 1.381 . S
C938 C939 1.394 . S
C938 H946 0.930 . S
C939 C938 1.394 . S
C939 C940 1.383 . S
C939 H947 0.929 . S
C940 C939 1.383 . S
C940 C941 1.377 . S
C941 H925 0.930 . S
C941 C940 1.377 . S
C941 C942 1.379 . S
C942 H926 0.931 . S
C942 C936 1.383 . S
C942 C941 1.379 . S
H943 C937 0.959 . S
H944 C937 0.961 . S
H945 C937 0.960 . S
H946 C938 0.930 . S
H947 C939 0.929 . S
H948 C956 0.929 . S
H949 C958 0.930 . S
H950 C960 0.930 . S
H951 C963 0.929 . S
H952 C966 0.930 . S
H953 C968 0.960 . S
H954 C968 0.960 . S
H955 C968 0.960 . S
C956 H948 0.929 . S
C956 C957 1.377 . S
C956 C958 1.384 . S
C957 C956 1.377 . S
C957 C963 1.390 . S
C958 H949 0.930 . S
C958 C956 1.384 . S
C958 C959 1.372 . S
C959 C958 1.372 . S
C959 C960 1.400 . S
C959 C964 1.490 . S
C960 H950 0.930 . S
C960 C959 1.400 . S
C960 C963 1.386 . S
H961 C977 0.930 . S
H962 C978 0.931 . S
C963 H951 0.929 . S
C963 C957 1.390 . S
C963 C960 1.386 . S
C964 C959 1.490 . S
C964 C966 1.395 . S
C964 C967 1.403 . S
H965 C971 0.930 . S
C966 H952 0.930 . S
C966 C964 1.395 . S
C966 C969 1.403 . S
C967 C964 1.403 . S
C967 C968 1.524 . S
C967 C971 1.400 . S
C968 H953 0.960 . S
C968 H954 0.960 . S
C968 H955 0.960 . S
C968 C967 1.524 . S
C969 C966 1.403 . S
C969 C970 1.392 . S
C969 C973 1.495 . S
C970 C969 1.392 . S
C970 C971 1.385 . S
C970 C972 1.478 . S
C971 H965 0.930 . S
C971 C967 1.400 . S
C971 C970 1.385 . S
C972 C970 1.478 . S
C972 C974 1.381 . S
C972 C978 1.383 . S
C973 C969 1.495 . S
C973 H979 0.959 . S
C973 H980 0.961 . S
C973 H981 0.960 . S
C974 C972 1.381 . S
C974 C975 1.394 . S
C974 H982 0.930 . S
C975 C974 1.394 . S
C975 C976 1.383 . S
C975 H983 0.929 . S
C976 C975 1.383 . S
C976 C977 1.377 . S
C977 H961 0.930 . S
C977 C976 1.377 . S
C977 C978 1.379 . S
C978 H962 0.931 . S
C978 C972 1.383 . S
C978 C977 1.379 . S
H979 C973 0.959 . S
H980 C973 0.961 . S
H981 C973 0.960 . S
H982 C974 0.930 . S
H983 C975 0.929 . S
H984 C992 0.929 . S
H985 C994 0.930 . S
H986 C996 0.930 . S
H987 C999 0.929 . S
H988 C1002 0.930 . S
H989 C1004 0.960 . S
H990 C1004 0.960 . S
H991 C1004 0.960 . S
C992 H984 0.929 . S
C992 C993 1.377 . S
C992 C994 1.384 . S
C993 C992 1.377 . S
C993 C999 1.390 . S
C994 H985 0.930 . S
C994 C992 1.384 . S
C994 C995 1.372 . S
C995 C994 1.372 . S
C995 C996 1.400 . S
C995 C1000 1.490 . S
C996 H986 0.930 . S
C996 C995 1.400 . S
C996 C999 1.386 . S
H997 C1013 0.930 . S
H998 C1014 0.931 . S
C999 H987 0.929 . S
C999 C993 1.390 . S
C999 C996 1.386 . S
C1000 C995 1.490 . S
C1000 C1002 1.395 . S
C1000 C1003 1.403 . S
H1001 C1007 0.930 . S
C1002 H988 0.930 . S
C1002 C1000 1.395 . S
C1002 C1005 1.403 . S
C1003 C1000 1.403 . S
C1003 C1004 1.524 . S
C1003 C1007 1.400 . S
C1004 H989 0.960 . S
C1004 H990 0.960 . S
C1004 H991 0.960 . S
C1004 C1003 1.524 . S
C1005 C1002 1.403 . S
C1005 C1006 1.392 . S
C1005 C1009 1.495 . S
C1006 C1005 1.392 . S
C1006 C1007 1.385 . S
C1006 C1008 1.478 . S
C1007 H1001 0.930 . S
C1007 C1003 1.400 . S
C1007 C1006 1.385 . S
C1008 C1006 1.478 . S
C1008 C1010 1.381 . S
C1008 C1014 1.383 . S
C1009 C1005 1.495 . S
C1009 H1015 0.959 . S
C1009 H1016 0.961 . S
C1009 H1017 0.960 . S
C1010 C1008 1.381 . S
C1010 C1011 1.394 . S
C1010 H1018 0.930 . S
C1011 C1010 1.394 . S
C1011 C1012 1.383 . S
C1011 H1019 0.929 . S
C1012 C1011 1.383 . S
C1012 C1013 1.377 . S
C1013 H997 0.930 . S
C1013 C1012 1.377 . S
C1013 C1014 1.379 . S
C1014 H998 0.931 . S
C1014 C1008 1.383 . S
C1014 C1013 1.379 . S
H1015 C1009 0.959 . S
H1016 C1009 0.961 . S
H1017 C1009 0.960 . S
H1018 C1010 0.930 . S
H1019 C1011 0.929 . S
H1020 C1028 0.929 . S
H1021 C1030 0.930 . S
H1022 C1032 0.930 . S
H1023 C1035 0.929 . S
H1024 C1038 0.930 . S
H1025 C1040 0.960 . S
H1026 C1040 0.960 . S
H1027 C1040 0.960 . S
C1028 H1020 0.929 . S
C1028 C1029 1.377 . S
C1028 C1030 1.384 . S
C1029 C1028 1.377 . S
C1029 C1035 1.390 . S
C1030 H1021 0.930 . S
C1030 C1028 1.384 . S
C1030 C1031 1.372 . S
C1031 C1030 1.372 . S
C1031 C1032 1.400 . S
C1031 C1036 1.490 . S
C1032 H1022 0.930 . S
C1032 C1031 1.400 . S
C1032 C1035 1.386 . S
H1033 C1049 0.930 . S
H1034 C1050 0.931 . S
C1035 H1023 0.929 . S
C1035 C1029 1.390 . S
C1035 C1032 1.386 . S
C1036 C1031 1.490 . S
C1036 C1038 1.395 . S
C1036 C1039 1.403 . S
H1037 C1043 0.930 . S
C1038 H1024 0.930 . S
C1038 C1036 1.395 . S
C1038 C1041 1.403 . S
C1039 C1036 1.403 . S
C1039 C1040 1.524 . S
C1039 C1043 1.400 . S
C1040 H1025 0.960 . S
C1040 H1026 0.960 . S
C1040 H1027 0.960 . S
C1040 C1039 1.524 . S
C1041 C1038 1.403 . S
C1041 C1042 1.392 . S
C1041 C1045 1.495 . S
C1042 C1041 1.392 . S
C1042 C1043 1.385 . S
C1042 C1044 1.478 . S
C1043 H1037 0.930 . S
C1043 C1039 1.400 . S
C1043 C1042 1.385 . S
C1044 C1042 1.478 . S
C1044 C1046 1.381 . S
C1044 C1050 1.383 . S
C1045 C1041 1.495 . S
C1045 H1051 0.959 . S
C1045 H1052 0.961 . S
C1045 H1053 0.960 . S
C1046 C1044 1.381 . S
C1046 C1047 1.394 . S
C1046 H1054 0.930 . S
C1047 C1046 1.394 . S
C1047 C1048 1.383 . S
C1047 H1055 0.929 . S
C1048 C1047 1.383 . S
C1048 C1049 1.377 . S
C1049 H1033 0.930 . S
C1049 C1048 1.377 . S
C1049 C1050 1.379 . S
C1050 H1034 0.931 . S
C1050 C1044 1.383 . S
C1050 C1049 1.379 . S
H1051 C1045 0.959 . S
H1052 C1045 0.961 . S
H1053 C1045 0.960 . S
H1054 C1046 0.930 . S
H1055 C1047 0.929 . S
H1056 C1064 0.929 . S
H1057 C1066 0.930 . S
H1058 C1068 0.930 . S
H1059 C1071 0.929 . S
H1060 C1074 0.930 . S
H1061 C1076 0.960 . S
H1062 C1076 0.960 . S
H1063 C1076 0.960 . S
C1064 H1056 0.929 . S
C1064 C1065 1.377 . S
C1064 C1066 1.384 . S
C1065 C1064 1.377 . S
C1065 C1071 1.390 . S
C1066 H1057 0.930 . S
C1066 C1064 1.384 . S
C1066 C1067 1.372 . S
C1067 C1066 1.372 . S
C1067 C1068 1.400 . S
C1067 C1072 1.490 . S
C1068 H1058 0.930 . S
C1068 C1067 1.400 . S
C1068 C1071 1.386 . S
H1069 C1085 0.930 . S
H1070 C1086 0.931 . S
C1071 H1059 0.929 . S
C1071 C1065 1.390 . S
C1071 C1068 1.386 . S
C1072 C1067 1.490 . S
C1072 C1074 1.395 . S
C1072 C1075 1.403 . S
H1073 C1079 0.930 . S
C1074 H1060 0.930 . S
C1074 C1072 1.395 . S
C1074 C1077 1.403 . S
C1075 C1072 1.403 . S
C1075 C1076 1.524 . S
C1075 C1079 1.400 . S
C1076 H1061 0.960 . S
C1076 H1062 0.960 . S
C1076 H1063 0.960 . S
C1076 C1075 1.524 . S
C1077 C1074 1.403 . S
C1077 C1078 1.392 . S
C1077 C1081 1.495 . S
C1078 C1077 1.392 . S
C1078 C1079 1.385 . S
C1078 C1080 1.478 . S
C1079 H1073 0.930 . S
C1079 C1075 1.400 . S
C1079 C1078 1.385 . S
C1080 C1078 1.478 . S
C1080 C1082 1.381 . S
C1080 C1086 1.383 . S
C1081 C1077 1.495 . S
C1081 H1087 0.959 . S
C1081 H1088 0.961 . S
C1081 H1089 0.960 . S
C1082 C1080 1.381 . S
C1082 C1083 1.394 . S
C1082 H1090 0.930 . S
C1083 C1082 1.394 . S
C1083 C1084 1.383 . S
C1083 H1091 0.929 . S
C1084 C1083 1.383 . S
C1084 C1085 1.377 . S
C1085 H1069 0.930 . S
C1085 C1084 1.377 . S
C1085 C1086 1.379 . S
C1086 H1070 0.931 . S
C1086 C1080 1.383 . S
C1086 C1085 1.379 . S
H1087 C1081 0.959 . S
H1088 C1081 0.961 . S
H1089 C1081 0.960 . S
H1090 C1082 0.930 . S
H1091 C1083 0.929 . S
H1092 C1100 0.929 . S
H1093 C1102 0.930 . S
H1094 C1104 0.930 . S
H1095 C1107 0.929 . S
H1096 C1110 0.930 . S
H1097 C1112 0.960 . S
H1098 C1112 0.960 . S
H1099 C1112 0.960 . S
C1100 H1092 0.929 . S
C1100 C1101 1.377 . S
C1100 C1102 1.384 . S
C1101 C1100 1.377 . S
C1101 C1107 1.390 . S
C1102 H1093 0.930 . S
C1102 C1100 1.384 . S
C1102 C1103 1.372 . S
C1103 C1102 1.372 . S
C1103 C1104 1.400 . S
C1103 C1108 1.490 . S
C1104 H1094 0.930 . S
C1104 C1103 1.400 . S
C1104 C1107 1.386 . S
H1105 C1121 0.930 . S
H1106 C1122 0.931 . S
C1107 H1095 0.929 . S
C1107 C1101 1.390 . S
C1107 C1104 1.386 . S
C1108 C1103 1.490 . S
C1108 C1110 1.395 . S
C1108 C1111 1.403 . S
H1109 C1115 0.930 . S
C1110 H1096 0.930 . S
C1110 C1108 1.395 . S
C1110 C1113 1.403 . S
C1111 C1108 1.403 . S
C1111 C1112 1.524 . S
C1111 C1115 1.400 . S
C1112 H1097 0.960 . S
C1112 H1098 0.960 . S
C1112 H1099 0.960 . S
C1112 C1111 1.524 . S
C1113 C1110 1.403 . S
C1113 C1114 1.392 . S
C1113 C1117 1.495 . S
C1114 C1113 1.392 . S
C1114 C1115 1.385 . S
C1114 C1116 1.478 . S
C1115 H1109 0.930 . S
C1115 C1111 1.400 . S
C1115 C1114 1.385 . S
C1116 C1114 1.478 . S
C1116 C1118 1.381 . S
C1116 C1122 1.383 . S
C1117 C1113 1.495 . S
C1117 H1123 0.959 . S
C1117 H1124 0.961 . S
C1117 H1125 0.960 . S
C1118 C1116 1.381 . S
C1118 C1119 1.394 . S
C1118 H1126 0.930 . S
C1119 C1118 1.394 . S
C1119 C1120 1.383 . S
C1119 H1127 0.929 . S
C1120 C1119 1.383 . S
C1120 C1121 1.377 . S
C1121 H1105 0.930 . S
C1121 C1120 1.377 . S
C1121 C1122 1.379 . S
C1122 H1106 0.931 . S
C1122 C1116 1.383 . S
C1122 C1121 1.379 . S
H1123 C1117 0.959 . S
H1124 C1117 0.961 . S
H1125 C1117 0.960 . S
H1126 C1118 0.930 . S
H1127 C1119 0.929 . S
C273 N1 0.958 . S
C292 C111 0.976 . S
C309 N18 1.140 . S
C328 C160 1.172 . S
C364 C186 1.922 . S
C345 N28 1.965 . S
C381 N40 2.544 . S
C400 C234 2.510 . S
C436 C146 2.617 . S
C417 N5 2.577 . S
C472 C114 0.815 . S
C453 N14 0.866 . S
C508 C235 1.973 . S
C489 N31 1.982 . S
C544 C203 1.177 . S
C525 N41 1.218 . S
C561 N2 1.403 . S
C580 C231 1.421 . S
C616 C163 2.439 1_556 S
C597 N27 2.514 . S
C633 N44 2.393 . S
C652 C115 2.431 1_655 S
C669 N15 0.553 . S
C688 C200 0.547 . S
C724 C120 1.543 . S
C705 N57 1.524 . S
C741 N70 0.859 . S
C760 C151 0.874 . S
C777 N79 2.195 . S
C796 C195 2.226 . S
C813 N93 2.291 . S
C832 C243 2.265 . S
C849 N54 2.009 . S
C868 C155 2.079 1_566 S
C904 C123 1.666 . S
C885 N66 1.734 . S
C940 C226 1.229 . S
C921 N80 1.265 . S
C976 C194 1.567 . S
C957 N96 1.582 . S
C993 N53 1.489 . S
C1012 C240 1.525 . S
C1048 C154 2.074 . S
C1029 N83 2.079 . S
C1084 C106 2.628 . S
C1065 N92 2.621 . S
C1101 N67 0.722 . S
C1120 C191 0.758 . S
