# Generated by pormake.
# Topology llk, (3,12)-cn, num edge types: 1
# Building blocks:
#     Node 0, Type 0, BuildingBlock: BETDIP_clean_linker_0, # of connection points: 3
#     Node 1, Type 0, BuildingBlock: BETDIP_clean_linker_0, # of connection points: 3
#     Node 2, Type 0, BuildingBlock: BETDIP_clean_linker_0, # of connection points: 3
#     Node 3, Type 0, BuildingBlock: BETDIP_clean_linker_0, # of connection points: 3
#     Node 4, Type 0, BuildingBlock: BETDIP_clean_linker_0, # of connection points: 3
#     Node 5, Type 0, BuildingBlock: BETDIP_clean_linker_0, # of connection points: 3
#     Node 6, Type 0, BuildingBlock: BETDIP_clean_linker_0, # of connection points: 3
#     Node 7, Type 0, BuildingBlock: BETDIP_clean_linker_0, # of connection points: 3
#     Node 8, Type 0, BuildingBlock: BETDIP_clean_linker_0, # of connection points: 3
#     Node 9, Type 0, BuildingBlock: BETDIP_clean_linker_0, # of connection points: 3
#     Node 10, Type 0, BuildingBlock: BETDIP_clean_linker_0, # of connection points: 3
#     Node 11, Type 0, BuildingBlock: BETDIP_clean_linker_0, # of connection points: 3
#     Node 12, Type 0, BuildingBlock: BETDIP_clean_linker_0, # of connection points: 3
#     Node 13, Type 0, BuildingBlock: BETDIP_clean_linker_0, # of connection points: 3
#     Node 14, Type 0, BuildingBlock: BETDIP_clean_linker_0, # of connection points: 3
#     Node 15, Type 0, BuildingBlock: BETDIP_clean_linker_0, # of connection points: 3
#     Node 16, Type 0, BuildingBlock: BETDIP_clean_linker_0, # of connection points: 3
#     Node 17, Type 0, BuildingBlock: BETDIP_clean_linker_0, # of connection points: 3
#     Node 18, Type 0, BuildingBlock: BETDIP_clean_linker_0, # of connection points: 3
#     Node 19, Type 0, BuildingBlock: BETDIP_clean_linker_0, # of connection points: 3
#     Node 20, Type 0, BuildingBlock: BETDIP_clean_linker_0, # of connection points: 3
#     Node 21, Type 0, BuildingBlock: BETDIP_clean_linker_0, # of connection points: 3
#     Node 22, Type 0, BuildingBlock: BETDIP_clean_linker_0, # of connection points: 3
#     Node 23, Type 0, BuildingBlock: BETDIP_clean_linker_0, # of connection points: 3
#     Node 24, Type 1, BuildingBlock: EZIPEK_clean_sbu_0, # of connection points: 12
#     Node 25, Type 1, BuildingBlock: EZIPEK_clean_sbu_0, # of connection points: 12
#     Node 26, Type 1, BuildingBlock: EZIPEK_clean_sbu_0, # of connection points: 12
#     Node 27, Type 1, BuildingBlock: EZIPEK_clean_sbu_0, # of connection points: 12
#     Node 28, Type 1, BuildingBlock: EZIPEK_clean_sbu_0, # of connection points: 12
#     Node 29, Type 1, BuildingBlock: EZIPEK_clean_sbu_0, # of connection points: 12
#     Edge 30, Type (0, 1), BuildingBlock: CIFDUS_clean_linker_0, # of connection points: 2
#     Edge 31, Type (0, 1), BuildingBlock: CIFDUS_clean_linker_0, # of connection points: 2
#     Edge 32, Type (0, 1), BuildingBlock: CIFDUS_clean_linker_0, # of connection points: 2
#     Edge 33, Type (0, 1), BuildingBlock: CIFDUS_clean_linker_0, # of connection points: 2
#     Edge 34, Type (0, 1), BuildingBlock: CIFDUS_clean_linker_0, # of connection points: 2
#     Edge 35, Type (0, 1), BuildingBlock: CIFDUS_clean_linker_0, # of connection points: 2
#     Edge 36, Type (0, 1), BuildingBlock: CIFDUS_clean_linker_0, # of connection points: 2
#     Edge 37, Type (0, 1), BuildingBlock: CIFDUS_clean_linker_0, # of connection points: 2
#     Edge 38, Type (0, 1), BuildingBlock: CIFDUS_clean_linker_0, # of connection points: 2
#     Edge 39, Type (0, 1), BuildingBlock: CIFDUS_clean_linker_0, # of connection points: 2
#     Edge 40, Type (0, 1), BuildingBlock: CIFDUS_clean_linker_0, # of connection points: 2
#     Edge 41, Type (0, 1), BuildingBlock: CIFDUS_clean_linker_0, # of connection points: 2
#     Edge 42, Type (0, 1), BuildingBlock: CIFDUS_clean_linker_0, # of connection points: 2
#     Edge 43, Type (0, 1), BuildingBlock: CIFDUS_clean_linker_0, # of connection points: 2
#     Edge 44, Type (0, 1), BuildingBlock: CIFDUS_clean_linker_0, # of connection points: 2
#     Edge 45, Type (0, 1), BuildingBlock: CIFDUS_clean_linker_0, # of connection points: 2
#     Edge 46, Type (0, 1), BuildingBlock: CIFDUS_clean_linker_0, # of connection points: 2
#     Edge 47, Type (0, 1), BuildingBlock: CIFDUS_clean_linker_0, # of connection points: 2
#     Edge 48, Type (0, 1), BuildingBlock: CIFDUS_clean_linker_0, # of connection points: 2
#     Edge 49, Type (0, 1), BuildingBlock: CIFDUS_clean_linker_0, # of connection points: 2
#     Edge 50, Type (0, 1), BuildingBlock: CIFDUS_clean_linker_0, # of connection points: 2
#     Edge 51, Type (0, 1), BuildingBlock: CIFDUS_clean_linker_0, # of connection points: 2
#     Edge 52, Type (0, 1), BuildingBlock: CIFDUS_clean_linker_0, # of connection points: 2
#     Edge 53, Type (0, 1), BuildingBlock: CIFDUS_clean_linker_0, # of connection points: 2
#     Edge 54, Type (0, 1), BuildingBlock: CIFDUS_clean_linker_0, # of connection points: 2
#     Edge 55, Type (0, 1), BuildingBlock: CIFDUS_clean_linker_0, # of connection points: 2
#     Edge 56, Type (0, 1), BuildingBlock: CIFDUS_clean_linker_0, # of connection points: 2
#     Edge 57, Type (0, 1), BuildingBlock: CIFDUS_clean_linker_0, # of connection points: 2
#     Edge 58, Type (0, 1), BuildingBlock: CIFDUS_clean_linker_0, # of connection points: 2
#     Edge 59, Type (0, 1), BuildingBlock: CIFDUS_clean_linker_0, # of connection points: 2
#     Edge 60, Type (0, 1), BuildingBlock: CIFDUS_clean_linker_0, # of connection points: 2
#     Edge 61, Type (0, 1), BuildingBlock: CIFDUS_clean_linker_0, # of connection points: 2
#     Edge 62, Type (0, 1), BuildingBlock: CIFDUS_clean_linker_0, # of connection points: 2
#     Edge 63, Type (0, 1), BuildingBlock: CIFDUS_clean_linker_0, # of connection points: 2
#     Edge 64, Type (0, 1), BuildingBlock: CIFDUS_clean_linker_0, # of connection points: 2
#     Edge 65, Type (0, 1), BuildingBlock: CIFDUS_clean_linker_0, # of connection points: 2
#     Edge 66, Type (0, 1), BuildingBlock: CIFDUS_clean_linker_0, # of connection points: 2
#     Edge 67, Type (0, 1), BuildingBlock: CIFDUS_clean_linker_0, # of connection points: 2
#     Edge 68, Type (0, 1), BuildingBlock: CIFDUS_clean_linker_0, # of connection points: 2
#     Edge 69, Type (0, 1), BuildingBlock: CIFDUS_clean_linker_0, # of connection points: 2
#     Edge 70, Type (0, 1), BuildingBlock: CIFDUS_clean_linker_0, # of connection points: 2
#     Edge 71, Type (0, 1), BuildingBlock: CIFDUS_clean_linker_0, # of connection points: 2
#     Edge 72, Type (0, 1), BuildingBlock: CIFDUS_clean_linker_0, # of connection points: 2
#     Edge 73, Type (0, 1), BuildingBlock: CIFDUS_clean_linker_0, # of connection points: 2
#     Edge 74, Type (0, 1), BuildingBlock: CIFDUS_clean_linker_0, # of connection points: 2
#     Edge 75, Type (0, 1), BuildingBlock: CIFDUS_clean_linker_0, # of connection points: 2
#     Edge 76, Type (0, 1), BuildingBlock: CIFDUS_clean_linker_0, # of connection points: 2
#     Edge 77, Type (0, 1), BuildingBlock: CIFDUS_clean_linker_0, # of connection points: 2
#     Edge 78, Type (0, 1), BuildingBlock: CIFDUS_clean_linker_0, # of connection points: 2
#     Edge 79, Type (0, 1), BuildingBlock: CIFDUS_clean_linker_0, # of connection points: 2
#     Edge 80, Type (0, 1), BuildingBlock: CIFDUS_clean_linker_0, # of connection points: 2
#     Edge 81, Type (0, 1), BuildingBlock: CIFDUS_clean_linker_0, # of connection points: 2
#     Edge 82, Type (0, 1), BuildingBlock: CIFDUS_clean_linker_0, # of connection points: 2
#     Edge 83, Type (0, 1), BuildingBlock: CIFDUS_clean_linker_0, # of connection points: 2
#     Edge 84, Type (0, 1), BuildingBlock: CIFDUS_clean_linker_0, # of connection points: 2
#     Edge 85, Type (0, 1), BuildingBlock: CIFDUS_clean_linker_0, # of connection points: 2
#     Edge 86, Type (0, 1), BuildingBlock: CIFDUS_clean_linker_0, # of connection points: 2
#     Edge 87, Type (0, 1), BuildingBlock: CIFDUS_clean_linker_0, # of connection points: 2
#     Edge 88, Type (0, 1), BuildingBlock: CIFDUS_clean_linker_0, # of connection points: 2
#     Edge 89, Type (0, 1), BuildingBlock: CIFDUS_clean_linker_0, # of connection points: 2
#     Edge 90, Type (0, 1), BuildingBlock: CIFDUS_clean_linker_0, # of connection points: 2
#     Edge 91, Type (0, 1), BuildingBlock: CIFDUS_clean_linker_0, # of connection points: 2
#     Edge 92, Type (0, 1), BuildingBlock: CIFDUS_clean_linker_0, # of connection points: 2
#     Edge 93, Type (0, 1), BuildingBlock: CIFDUS_clean_linker_0, # of connection points: 2
#     Edge 94, Type (0, 1), BuildingBlock: CIFDUS_clean_linker_0, # of connection points: 2
#     Edge 95, Type (0, 1), BuildingBlock: CIFDUS_clean_linker_0, # of connection points: 2
#     Edge 96, Type (0, 1), BuildingBlock: CIFDUS_clean_linker_0, # of connection points: 2
#     Edge 97, Type (0, 1), BuildingBlock: CIFDUS_clean_linker_0, # of connection points: 2
#     Edge 98, Type (0, 1), BuildingBlock: CIFDUS_clean_linker_0, # of connection points: 2
#     Edge 99, Type (0, 1), BuildingBlock: CIFDUS_clean_linker_0, # of connection points: 2
#     Edge 100, Type (0, 1), BuildingBlock: CIFDUS_clean_linker_0, # of connection points: 2
#     Edge 101, Type (0, 1), BuildingBlock: CIFDUS_clean_linker_0, # of connection points: 2
# Relax obj value: 0.075
# Max RMSD: 0.174
# Mean RMSD: 0.135
data_MOF--net-llk--node1-EZIPEK_clean_sbu_0--node2-BETDIP_clean_linker_0--edge1-CIFDUS_clean_linker_0
_symmetry_space_group_name_H-M    P1
_symmetry_Int_Tables_number       1
_symmetry_cell_setting            triclinic
loop_
_symmetry_equiv_pos_as_xyz
'x, y, z'
_cell_length_a     41.614534
_cell_length_b     41.779455
_cell_length_c     41.946472
_cell_angle_alpha  89.847257
_cell_angle_beta   89.823576
_cell_angle_gamma 89.881631
loop_
_atom_site_label
_atom_site_type_symbol
_atom_site_fract_x
_atom_site_fract_y
_atom_site_fract_z
_atom_type_partial_charge
H0 H 0.00463 0.2534 0.22143 0.0
H1 H 0.00634 0.27713 0.32141 0.0
H2 H 0.01601 0.3512 0.25123 0.0
H3 H 0.96434 0.23693 0.31639 0.0
C4 C 0.98204 0.21976 0.30784 0.0
C5 C 0.00714 0.27094 0.24022 0.0
C6 C 0.00979 0.30376 0.23257 0.0
C7 C 0.00568 0.2612 0.27248 0.0
C8 C 0.00783 0.28442 0.29666 0.0
C9 C 0.01103 0.31697 0.28921 0.0
C10 C 0.01286 0.32613 0.25721 0.0
N11 N 1.00107 0.22837 0.28081 0.0
H12 H 0.80608 0.99633 0.26312 0.0
H13 H 0.70633 0.97425 0.2806 0.0
H14 H 0.76972 0.98778 0.35924 0.0
H15 H 0.72569 0.93639 0.2354 0.0
C16 C 0.727 0.95907 0.22266 0.0
C17 C 0.78653 0.99177 0.2796 0.0
C18 C 0.79182 0.99337 0.31295 0.0
C19 C 0.75561 0.98412 0.26776 0.0
C20 C 0.73031 0.97903 0.28938 0.0
C21 C 0.73538 0.98052 0.32219 0.0
C22 C 0.76607 0.98697 0.33367 0.0
N23 N 0.74922 0.9822 0.23439 0.0
H24 H 1.00149 0.80764 0.27178 0.0
H25 H 0.01459 0.70526 0.27419 0.0
H26 H 1.00084 0.75682 0.36126 0.0
H27 H 0.05644 0.72598 0.23523 0.0
C28 C 0.03565 0.73306 0.2212 0.0
C29 C 0.00343 0.78551 0.28515 0.0
C30 C 0.99957 0.78562 0.31868 0.0
C31 C 0.00983 0.75645 0.26903 0.0
C32 C 0.01138 0.72778 0.28655 0.0
C33 C 0.00782 0.72767 0.31966 0.0
C34 C 1.00254 0.75668 0.33546 0.0
N35 N 0.01395 0.75548 0.23525 0.0
H36 H 0.20943 0.01513 0.26069 0.0
H37 H 0.3099 0.03027 0.28069 0.0
H38 H 0.24284 0.02113 0.35764 0.0
H39 H 0.30225 0.06263 0.23519 0.0
C40 C 0.29381 0.04269 0.22087 0.0
C41 C 0.22875 0.01833 0.27762 0.0
C42 C 0.22221 0.01738 0.31078 0.0
C43 C 0.26051 0.0234 0.26649 0.0
C44 C 0.28542 0.02705 0.28885 0.0
C45 C 0.27918 0.02643 0.32168 0.0
C46 C 0.24765 0.02175 0.33224 0.0
N47 N 0.26778 0.02399 0.23308 0.0
H48 H 0.99857 0.75732 0.81756 0.0
H49 H 1.00246 0.75272 0.71489 0.0
H50 H 0.98537 0.66746 0.769 0.0
H51 H 0.04929 0.78818 0.73262 0.0
C52 C 0.02987 0.80404 0.73997 0.0
C53 C 0.99699 0.74363 0.79573 0.0
C54 C 0.99091 0.71031 0.797 0.0
C55 C 1.0014 0.75905 0.76596 0.0
C56 C 0.99919 0.74109 0.73779 0.0
C57 C 0.99372 0.70818 0.73881 0.0
C58 C 0.98946 0.69308 0.76833 0.0
N59 N 0.00835 0.79242 0.76387 0.0
H60 H 0.21371 0.01038 0.77122 0.0
H61 H 0.3137 0.02938 0.75139 0.0
H62 H 0.24738 0.02008 0.67436 0.0
H63 H 0.30252 0.06279 0.79729 0.0
C64 C 0.29578 0.04182 0.8112 0.0
C65 C 0.23295 0.01471 0.75431 0.0
C66 C 0.22666 0.01411 0.72118 0.0
C67 C 0.26437 0.02094 0.76547 0.0
C68 C 0.28932 0.0257 0.74321 0.0
C69 C 0.28323 0.02543 0.71043 0.0
C70 C 0.25195 0.02015 0.6998 0.0
N71 N 0.27128 0.02151 0.79883 0.0
H72 H 0.01355 0.21006 0.77736 0.0
H73 H 0.02146 0.30993 0.75211 0.0
H74 H 0.01645 0.23913 0.67876 0.0
H75 H 0.05738 0.30439 0.79658 0.0
C76 C 0.03773 0.29666 0.81191 0.0
C77 C 0.01493 0.22873 0.75946 0.0
C78 C 0.0155 0.22064 0.7267 0.0
C79 C 0.01777 0.26114 0.76886 0.0
C80 C 0.0197 0.28504 0.74521 0.0
C81 C 0.01958 0.27723 0.71278 0.0
C82 C 0.01726 0.24516 0.70389 0.0
N83 N 0.01891 0.26998 0.80178 0.0
H84 H 0.75797 0.99742 0.81117 0.0
H85 H 0.75549 0.98056 0.70984 0.0
H86 H 0.6681 0.99972 0.76044 0.0
H87 H 0.79614 0.93528 0.74011 0.0
C88 C 0.80797 0.95847 0.73969 0.0
C89 C 0.74451 0.99519 0.78923 0.0
C90 C 0.71084 0.99994 0.78927 0.0
C91 C 0.76065 0.98745 0.76052 0.0
C92 C 0.74309 0.98515 0.73211 0.0
C93 C 0.70994 0.99011 0.7319 0.0
C94 C 0.69401 0.99688 0.76053 0.0
N95 N 0.79453 0.98266 0.7596 0.0
H96 H 0.2108 0.2512 0.02174 0.0
H97 H 0.31149 0.27368 0.02885 0.0
H98 H 0.24163 0.34902 0.03106 0.0
H99 H 0.30703 0.23673 0.98219 0.0
C100 C 0.2985 0.21867 0.99892 0.0
C101 C 0.22981 0.26864 0.02447 0.0
C102 C 0.22223 0.30141 0.0284 0.0
C103 C 0.26229 0.25871 0.02352 0.0
C104 C 0.28669 0.28152 0.02788 0.0
C105 C 0.27946 0.31413 0.03082 0.0
C106 C 0.24732 0.32369 0.0305 0.0
N107 N 0.27086 0.22612 0.01777 0.0
H108 H 0.21838 0.76316 0.02589 0.0
H109 H 0.31936 0.74733 0.01034 0.0
H110 H 0.25387 0.66863 1.00478 0.0
H111 H 0.30582 0.7766 0.06983 0.0
C112 C 0.30194 0.79543 0.05227 0.0
C113 C 0.23795 0.74712 0.01991 0.0
C114 C 0.23181 0.71451 0.01333 0.0
C115 C 0.26984 0.75865 0.01975 0.0
C116 C 0.29513 0.73796 0.01152 0.0
C117 C 0.28949 0.70553 1.00545 0.0
C118 C 0.25798 0.6941 1.00713 0.0
N119 N 0.27724 0.79045 0.02935 0.0
H120 H 0.76529 0.20958 1.00127 0.0
H121 H 0.75815 0.30988 0.02406 0.0
H122 H 0.6744 0.25048 0.02887 0.0
H123 H 0.78913 0.30098 0.96882 0.0
C124 C 0.80708 0.29211 0.98547 0.0
C125 C 0.75132 0.22971 0.00984 0.0
C126 C 0.71795 0.2264 0.01512 0.0
C127 C 0.76595 0.26003 0.01319 0.0
C128 C 0.7472 0.28642 0.02256 0.0
C129 C 0.71419 0.28325 0.02772 0.0
C130 C 0.70007 0.25302 0.02504 0.0
N131 N 0.79869 0.26507 1.00455 0.0
H132 H 0.76302 0.80073 0.02957 0.0
H133 H 0.75121 0.69897 0.02097 0.0
H134 H 0.67015 0.76093 1.00831 0.0
H135 H 0.77938 0.71711 0.08032 0.0
C136 C 0.79779 0.72039 0.06214 0.0
C137 C 0.74775 0.78039 0.0246 0.0
C138 C 0.7151 0.78495 0.01676 0.0
C139 C 0.76035 0.74921 0.02722 0.0
C140 C 0.7409 0.72278 0.02015 0.0
C141 C 0.70847 0.72689 0.01244 0.0
C142 C 0.69577 0.75791 0.01169 0.0
N143 N 0.79214 0.74395 0.03826 0.0
H144 H 0.5085 0.75202 0.71857 0.0
H145 H 0.51391 0.77409 0.81878 0.0
H146 H 0.50466 0.84987 0.75034 0.0
H147 H 0.55359 0.73193 0.81051 0.0
C148 C 0.53477 0.71567 0.80282 0.0
C149 C 0.50822 0.76939 0.73769 0.0
C150 C 0.50698 0.80247 0.73057 0.0
C151 C 0.5111 0.75898 0.76968 0.0
C152 C 0.51154 0.78189 0.79426 0.0
C153 C 0.50967 0.81471 0.78751 0.0
C154 C 0.50679 0.82455 0.75573 0.0
N155 N 0.51444 0.72576 0.77732 0.0
H156 H 0.30742 0.51703 0.765 0.0
H157 H 0.20839 0.49476 0.7862 0.0
H158 H 0.27487 0.51097 0.86228 0.0
H159 H 0.22045 0.46098 0.74075 0.0
C160 C 0.22651 0.48186 0.72641 0.0
C161 C 0.28834 0.51278 0.78211 0.0
C162 C 0.29465 0.51458 0.81504 0.0
C163 C 0.25719 0.50504 0.77145 0.0
C164 C 0.2326 0.49991 0.79406 0.0
C165 C 0.23888 0.50179 0.8268 0.0
C166 C 0.26992 0.50901 0.83697 0.0
N167 N 0.25028 0.50326 0.73821 0.0
H168 H 0.51523 0.30444 0.76155 0.0
H169 H 0.50897 0.20308 0.77995 0.0
H170 H 0.50397 0.26929 0.85752 0.0
H171 H 0.55465 0.20906 0.74236 0.0
C172 C 0.53794 0.21894 0.725 0.0
C173 C 0.51244 0.28472 0.77814 0.0
C174 C 0.50801 0.29078 0.81098 0.0
C175 C 0.51376 0.25291 0.76695 0.0
C176 C 0.50946 0.22747 0.78863 0.0
C177 C 0.50549 0.23322 0.82127 0.0
C178 C 0.50537 0.26481 0.8321 0.0
N179 N 0.51942 0.24619 0.73408 0.0
H180 H 0.71659 0.50342 0.76486 0.0
H181 H 0.81863 0.50021 0.78152 0.0
H182 H 0.75351 0.49004 0.85988 0.0
H183 H 0.8007 0.55482 0.74747 0.0
C184 C 0.79834 0.53543 0.73037 0.0
C185 C 0.73657 0.50035 0.78106 0.0
C186 C 0.73091 0.49461 0.81389 0.0
C187 C 0.76841 0.50315 0.76953 0.0
C188 C 0.79424 0.49895 0.79057 0.0
C189 C 0.7889 0.49352 0.82302 0.0
C190 C 0.7574 0.492 0.83439 0.0
N191 N 0.77503 0.5114 0.7372 0.0
H192 H 0.51336 0.25835 0.3112 0.0
H193 H 0.53537 0.25249 0.21083 0.0
H194 H 0.51954 0.1667 0.2645 0.0
H195 H 0.5756 0.29764 0.23984 0.0
C196 C 0.55155 0.30778 0.23833 0.0
C197 C 0.51783 0.24417 0.29007 0.0
C198 C 0.51554 0.21035 0.29151 0.0
C199 C 0.52578 0.25948 0.26087 0.0
C200 C 0.53079 0.24088 0.23352 0.0
C201 C 0.52806 0.20767 0.23467 0.0
C202 C 0.52107 0.19261 0.26367 0.0
N203 N 0.5276 0.29347 0.25815 0.0
H204 H 0.7107 0.50382 0.27486 0.0
H205 H 0.81135 0.51699 0.25499 0.0
H206 H 0.74309 0.52043 0.17871 0.0
H207 H 0.80668 0.46728 0.28995 0.0
C208 C 0.79719 0.48305 0.30833 0.0
C209 C 0.72991 0.50859 0.25803 0.0
C210 C 0.72292 0.51366 0.22554 0.0
C211 C 0.76202 0.50892 0.26853 0.0
C212 C 0.78681 0.5155 0.2466 0.0
C213 C 0.78022 0.52004 0.21413 0.0
C214 C 0.74829 0.51869 0.20396 0.0
N215 N 0.76971 0.50198 0.30089 0.0
H216 H 0.50835 0.70885 0.27015 0.0
H217 H 0.50027 0.80999 0.25168 0.0
H218 H 0.49648 0.74371 0.17414 0.0
H219 H 0.54866 0.80222 0.28861 0.0
C220 C 0.53102 0.7938 0.3059 0.0
C221 C 0.5051 0.72845 0.25351 0.0
C222 C 0.5009 0.72225 0.22071 0.0
C223 C 0.50578 0.76028 0.26461 0.0
C224 C 0.50104 0.78561 0.24297 0.0
C225 C 0.49716 0.77977 0.21037 0.0
C226 C 0.49766 0.74817 0.19955 0.0
N227 N 0.51158 0.76716 0.29734 0.0
H228 H 0.2649 0.50212 0.31766 0.0
H229 H 0.25521 0.49366 0.21604 0.0
H230 H 0.17087 0.50097 0.27434 0.0
H231 H 0.29703 0.45252 0.23193 0.0
C232 C 0.31101 0.47335 0.23881 0.0
C233 C 0.2497 0.50069 0.2968 0.0
C234 C 0.21587 0.50278 0.29998 0.0
C235 C 0.2639 0.49645 0.26653 0.0
C236 C 0.24425 0.49532 0.23945 0.0
C237 C 0.21083 0.49714 0.24201 0.0
C238 C 0.19683 0.50063 0.2723 0.0
N239 N 0.29786 0.49363 0.26285 0.0
H240 H 0.70937 0.75309 0.51489 0.0
H241 H 0.81141 0.76027 0.49829 0.0
H242 H 0.75495 0.84544 0.50852 0.0
H243 H 0.78709 0.71556 0.458 0.0
C244 C 0.78568 0.70422 0.48134 0.0
C245 C 0.73062 0.76754 0.51107 0.0
C246 C 0.72849 0.80141 0.51244 0.0
C247 C 0.76066 0.75257 0.50491 0.0
C248 C 0.78815 0.7716 0.50113 0.0
C249 C 0.78633 0.80488 0.50289 0.0
C250 C 0.75644 0.81952 0.50774 0.0
N251 N 0.76411 0.71856 0.50374 0.0
H252 H 0.70998 0.26009 0.51709 0.0
H253 H 0.81328 0.25613 0.51235 0.0
H254 H 0.75887 0.1703 0.50089 0.0
H255 H 0.79458 0.29074 0.56261 0.0
C256 C 0.7881 0.30642 0.54289 0.0
C257 C 0.7318 0.24647 0.51322 0.0
C258 C 0.73041 0.21287 0.50919 0.0
C259 C 0.76181 0.26212 0.51453 0.0
C260 C 0.79018 0.24431 0.51074 0.0
C261 C 0.78913 0.21126 0.50654 0.0
C262 C 0.75934 0.19592 0.50487 0.0
N263 N 0.76398 0.29535 0.52158 0.0
H264 H 0.26113 0.70992 0.50566 0.0
H265 H 0.2542 0.8122 0.49563 0.0
H266 H 0.16842 0.75649 0.50246 0.0
H267 H 0.29601 0.79369 0.45409 0.0
C268 C 0.30934 0.78738 0.47549 0.0
C269 C 0.24649 0.73129 0.50366 0.0
C270 C 0.21254 0.72921 0.50559 0.0
C271 C 0.26153 0.76121 0.49886 0.0
C272 C 0.24267 0.78903 0.49743 0.0
C273 C 0.20926 0.78746 0.49939 0.0
C274 C 0.19443 0.75756 0.5026 0.0
N275 N 0.29558 0.76384 0.49606 0.0
H276 H 0.25824 0.30143 0.53056 0.0
H277 H 0.25627 0.20022 0.51158 0.0
H278 H 0.17028 0.25597 0.50161 0.0
H279 H 0.28328 0.22097 0.57366 0.0
C280 C 0.30083 0.22371 0.55457 0.0
C281 C 0.24547 0.28057 0.52208 0.0
C282 C 0.21213 0.28247 0.51582 0.0
C283 C 0.2615 0.2507 0.52017 0.0
C284 C 0.24429 0.22328 0.51143 0.0
C285 C 0.2114 0.22492 0.50525 0.0
C286 C 0.19591 0.25473 0.5062 0.0
N287 N 0.2938 0.24693 0.53061 0.0
C288 C 0.00763 0.92541 0.59357 0.0
C289 C 0.00536 0.93386 0.43794 0.0
C290 C 0.01322 0.08015 0.60133 0.0
C291 C 1.00162 0.089 0.4465 0.0
C292 C 0.9291 0.08446 0.52868 0.0
C293 C 0.92716 0.93124 0.51981 0.0
C294 C 0.08392 0.08411 0.52012 0.0
C295 C 0.08224 0.92842 0.51717 0.0
C296 C 0.08267 1.00612 0.43954 0.0
C297 C 0.92705 0.01255 0.44437 0.0
C298 C 0.08643 1.00022 0.59477 0.0
C299 C 0.93104 1.00481 0.60043 0.0
Eu300 Eu 0.00496 0.94667 0.5166 0.0
O301 O 0.97658 0.98078 0.49042 0.0
O302 O 0.03469 0.97736 0.54532 0.0
Eu303 Eu 0.94578 0.00767 0.52202 0.0
Eu304 Eu 0.06726 1.00637 0.51769 0.0
O305 O 0.9782 0.9774 0.5481 0.0
O306 O 0.03365 0.97984 0.48917 0.0
Eu307 Eu 0.00814 1.00395 0.58053 0.0
Eu308 Eu 0.00529 0.01042 0.45891 0.0
O309 O 0.97874 0.03438 0.55101 0.0
O310 O 0.97773 0.0367 0.49383 0.0
O311 O 0.03474 0.0371 0.49165 0.0
O312 O 0.03589 0.03343 0.54854 0.0
Eu313 Eu 0.00657 0.06729 0.52294 0.0
O314 O 0.00669 0.91749 0.56265 0.0
O315 O 0.00398 0.92237 0.46776 0.0
O316 O 0.01235 0.09131 0.5714 0.0
O317 O 1.00218 0.09658 0.47745 0.0
O318 O 0.9194 0.05418 0.52736 0.0
O319 O 0.91816 0.96173 0.52169 0.0
O320 O 0.09448 0.05388 0.51828 0.0
O321 O 0.09323 0.95844 0.51659 0.0
O322 O 0.05219 0.01023 0.43038 0.0
O323 O 0.9572 0.01093 0.43353 0.0
O324 O 0.05632 1.00115 0.60579 0.0
O325 O 0.96189 1.00543 0.60888 0.0
O326 O 0.05335 0.09341 0.52134 0.0
O327 O 0.95946 0.09464 0.52712 0.0
O328 O 0.05157 0.91944 0.51693 0.0
O329 O 0.95723 0.92045 0.51703 0.0
O330 O 0.00644 0.96474 0.42982 0.0
O331 O 0.00357 0.05934 0.43472 0.0
O332 O 0.00775 0.95527 0.6049 0.0
O333 O 0.01119 0.04946 0.60993 0.0
O334 O 0.92006 1.0044 0.57042 0.0
O335 O 0.91817 0.01237 0.47515 0.0
O336 O 0.09517 1.00188 0.56408 0.0
O337 O 0.09267 1.00408 0.46974 0.0
C338 C 0.51083 0.92996 0.09392 0.0
C339 C 0.51533 0.0842 0.09263 0.0
C340 C 0.50631 0.92944 0.93969 0.0
C341 C 0.51935 0.08349 0.93817 0.0
C342 C 0.59258 1.0004 0.93944 0.0
C343 C 0.59277 1.00276 0.09316 0.0
C344 C 0.43635 0.01608 0.93898 0.0
C345 C 0.43636 0.01325 0.09476 0.0
C346 C 0.44087 0.09004 0.01409 0.0
C347 C 0.59747 0.07899 0.01606 0.0
C348 C 0.42978 0.93504 0.01864 0.0
C349 C 0.58607 0.92479 0.01316 0.0
Eu350 Eu 0.51431 0.00692 0.07638 0.0
O351 O 0.54456 0.0339 0.04452 0.0
O352 O 0.48297 0.98072 0.04502 0.0
Eu353 Eu 0.57452 1.00292 0.01634 0.0
Eu354 Eu 0.45244 0.01129 0.01664 0.0
O355 O 0.54047 0.97627 0.04452 0.0
O356 O 0.48761 0.0371 0.04408 0.0
Eu357 Eu 0.50901 0.94655 0.01662 0.0
Eu358 Eu 0.51811 0.06766 0.01572 0.0
O359 O 0.54003 0.97676 0.98852 0.0
O360 O 0.54466 0.03357 0.98752 0.0
O361 O 0.48751 0.03682 0.98831 0.0
O362 O 0.48286 0.98065 0.98799 0.0
Eu363 Eu 0.51416 0.00678 0.95599 0.0
O364 O 0.51294 0.96026 0.10346 0.0
O365 O 0.51398 0.05386 0.10231 0.0
O366 O 0.51041 0.95958 0.9298 0.0
O367 O 0.51894 0.0531 0.92868 0.0
O368 O 0.60194 0.99939 0.9698 0.0
O369 O 0.60197 1.00202 0.06271 0.0
O370 O 0.42582 0.01452 0.96913 0.0
O371 O 0.42586 0.01397 0.06459 0.0
O372 O 0.47218 0.09736 0.01359 0.0
O373 O 0.56768 0.09111 0.01479 0.0
O374 O 0.45965 0.92318 0.01964 0.0
O375 O 0.55488 0.91716 0.01209 0.0
O376 O 0.46705 0.01392 0.92966 0.0
O377 O 0.56221 1.00346 0.92938 0.0
O378 O 0.46711 0.01018 0.10349 0.0
O379 O 0.56225 1.00429 0.10338 0.0
O380 O 0.51792 0.09456 0.06262 0.0
O381 O 0.51859 0.09373 0.96828 0.0
O382 O 0.50898 0.91993 0.06378 0.0
O383 O 0.50432 0.91982 0.96999 0.0
O384 O 0.59811 0.95413 0.01637 0.0
O385 O 0.60493 0.04793 0.0171 0.0
O386 O 0.42216 0.96606 0.01661 0.0
O387 O 0.4288 0.06047 0.01602 0.0
C388 C 1.00297 0.4309 0.09368 0.0
C389 C 0.01425 0.43784 0.93944 0.0
C390 C 0.01143 0.58674 0.10093 0.0
C391 C 0.01201 0.59373 0.94648 0.0
C392 C 0.93507 0.59274 0.02244 0.0
C393 C 0.92942 0.43715 0.01284 0.0
C394 C 0.09053 0.58707 0.01897 0.0
C395 C 0.08457 0.43092 0.02537 0.0
C396 C 0.08918 0.51241 0.94483 0.0
C397 C 0.93493 0.51666 0.94158 0.0
C398 C 0.08518 0.51063 0.0996 0.0
C399 C 0.9308 0.5117 0.09627 0.0
Eu400 Eu 0.00797 0.45099 0.01741 0.0
O401 O 0.98125 0.48593 0.99031 0.0
O402 O 0.03667 0.48118 0.04779 0.0
Eu403 Eu 0.94918 0.51433 0.01924 0.0
Eu404 Eu 0.071 0.50962 0.02178 0.0
O405 O 0.97984 0.48323 0.04653 0.0
O406 O 0.03845 0.4837 0.99145 0.0
Eu407 Eu 0.00839 0.50956 0.08012 0.0
Eu408 Eu 0.01155 0.515 0.96043 0.0
O409 O 0.98175 0.54067 0.04909 0.0
O410 O 0.98319 0.54307 0.99299 0.0
O411 O 0.04019 0.54063 0.99429 0.0
O412 O 0.03899 0.53841 0.05027 0.0
Eu413 Eu 0.01232 0.5731 0.02293 0.0
O414 O 0.00432 0.42198 0.06318 0.0
O415 O 0.01124 0.42625 0.96904 0.0
O416 O 0.01251 0.59801 0.07111 0.0
O417 O 0.01407 0.60217 0.97707 0.0
O418 O 0.92398 0.56271 0.02168 0.0
O419 O 0.92084 0.46796 0.01511 0.0
O420 O 0.09906 0.55619 0.0178 0.0
O421 O 0.09531 0.46105 0.02675 0.0
O422 O 0.05917 0.51756 0.93517 0.0
O423 O 0.96557 0.51626 0.93244 0.0
O424 O 0.05438 0.50888 0.10808 0.0
O425 O 0.9611 0.51018 0.10624 0.0
O426 O 0.06067 0.59825 0.02254 0.0
O427 O 0.96591 0.60138 0.02247 0.0
O428 O 0.05416 0.42207 0.02065 0.0
O429 O 0.95957 0.42608 0.01341 0.0
O430 O 0.01467 0.46893 0.93165 0.0
O431 O 0.0102 0.56371 0.93559 0.0
O432 O 0.00427 0.46098 0.10445 0.0
O433 O 0.00964 0.55575 0.10897 0.0
O434 O 0.92125 0.51335 0.06592 0.0
O435 O 0.924 0.51631 0.97152 0.0
O436 O 0.0966 0.51123 0.06977 0.0
O437 O 0.09842 0.507 0.97488 0.0
C438 C 0.50575 0.42695 0.09599 0.0
C439 C 0.50608 0.58135 0.0953 0.0
C440 C 0.50642 0.42851 0.93973 0.0
C441 C 0.52022 0.5832 0.94102 0.0
C442 C 0.59222 0.49653 0.94395 0.0
C443 C 0.58369 0.50625 0.09925 0.0
C444 C 0.43797 0.50689 0.93589 0.0
C445 C 0.42844 0.50514 0.09119 0.0
C446 C 0.4384 0.58652 0.01282 0.0
C447 C 0.59334 0.57598 0.02065 0.0
C448 C 0.42969 0.43096 0.01526 0.0
C449 C 0.58364 0.42226 0.01922 0.0
Eu450 Eu 0.50724 0.50423 0.07828 0.0
O451 O 0.53919 0.5306 0.04758 0.0
O452 O 0.47908 0.47773 0.04451 0.0
Eu453 Eu 0.57153 0.50032 0.021 0.0
Eu454 Eu 0.44994 0.50787 0.01444 0.0
O455 O 0.53644 0.47391 0.0482 0.0
O456 O 0.4822 0.53417 0.04463 0.0
Eu457 Eu 0.50755 0.44417 0.01792 0.0
Eu458 Eu 0.51438 0.56451 0.01806 0.0
O459 O 0.53899 0.47469 0.99073 0.0
O460 O 0.54288 0.53112 0.99099 0.0
O461 O 0.48536 0.53475 0.98781 0.0
O462 O 0.48296 0.47838 0.98816 0.0
Eu463 Eu 0.51439 0.50522 0.9571 0.0
O464 O 0.50456 0.45742 0.10524 0.0
O465 O 0.50537 0.55107 0.10532 0.0
O466 O 0.51223 0.45837 0.93 0.0
O467 O 0.51791 0.55307 0.93049 0.0
O468 O 0.6002 0.49485 0.97482 0.0
O469 O 0.59522 0.50459 0.06952 0.0
O470 O 0.42603 0.50818 0.96551 0.0
O471 O 0.42042 0.50696 0.06034 0.0
O472 O 0.46935 0.59434 0.01475 0.0
O473 O 0.56345 0.58772 0.02054 0.0
O474 O 0.45957 0.41977 0.01728 0.0
O475 O 0.55279 0.41501 0.01524 0.0
O476 O 0.46893 0.50567 0.92789 0.0
O477 O 0.56276 0.50155 0.93258 0.0
O478 O 0.45839 0.5044 0.10249 0.0
O479 O 0.55281 0.50536 0.10774 0.0
O480 O 0.50942 0.59108 0.06508 0.0
O481 O 0.51966 0.59193 0.97163 0.0
O482 O 0.50767 0.4169 0.06568 0.0
O483 O 0.50336 0.41885 0.97005 0.0
O484 O 0.5955 0.45151 0.02405 0.0
O485 O 0.60158 0.54515 0.02046 0.0
O486 O 0.421 0.46175 0.0138 0.0
O487 O 0.42645 0.55686 0.01246 0.0
C488 C 0.0102 0.42657 0.59458 0.0
C489 C 0.01968 0.43145 0.44073 0.0
C490 C 0.00798 0.5798 0.59982 0.0
C491 C 1.00184 0.58586 0.44567 0.0
C492 C 0.92516 0.57766 0.52049 0.0
C493 C 0.93791 0.42307 0.51819 0.0
C494 C 0.08212 0.58944 0.52347 0.0
C495 C 0.09457 0.43424 0.51782 0.0
C496 C 0.0892 0.51668 0.44284 0.0
C497 C 0.93477 0.4996 0.43985 0.0
C498 C 0.0862 0.50201 0.5978 0.0
C499 C 0.92958 0.50112 0.59437 0.0
Eu500 Eu 0.01505 0.44554 0.51797 0.0
O501 O 0.98462 0.47646 0.48981 0.0
O502 O 0.04039 0.47912 0.54719 0.0
Eu503 Eu 0.9491 0.50159 0.51767 0.0
Eu504 Eu 0.07152 0.51061 0.5203 0.0
O505 O 0.98293 0.47466 0.54579 0.0
O506 O 0.04168 0.48078 0.49097 0.0
Eu507 Eu 0.00835 0.50381 0.57917 0.0
Eu508 Eu 0.01156 0.50833 0.45956 0.0
O509 O 0.97804 0.53144 0.54809 0.0
O510 O 0.98002 0.5335 0.49163 0.0
O511 O 0.03693 0.53786 0.49311 0.0
O512 O 0.03583 0.53525 0.54889 0.0
Eu513 Eu 0.00497 0.56671 0.52203 0.0
O514 O 0.01553 0.41761 0.56448 0.0
O515 O 0.01912 0.42048 0.4706 0.0
O516 O 0.00404 0.59141 0.57037 0.0
O517 O 1.00121 0.5945 0.47621 0.0
O518 O 0.9183 0.54648 0.51876 0.0
O519 O 0.92588 0.45268 0.51721 0.0
O520 O 0.09458 0.55994 0.5224 0.0
O521 O 0.10203 0.46535 0.51691 0.0
O522 O 0.05863 0.51541 0.43342 0.0
O523 O 0.96562 0.50238 0.43149 0.0
O524 O 0.05529 0.49947 0.60619 0.0
O525 O 0.95977 0.50446 0.60484 0.0
O526 O 0.05073 0.59665 0.52342 0.0
O527 O 0.95487 0.58999 0.52194 0.0
O528 O 0.06475 0.42233 0.51939 0.0
O529 O 0.96922 0.41549 0.51841 0.0
O530 O 0.01735 0.4621 0.43183 0.0
O531 O 0.0059 0.55623 0.43448 0.0
O532 O 0.00587 0.45647 0.60457 0.0
O533 O 0.01051 0.54903 0.60763 0.0
O534 O 0.92095 0.49837 0.56388 0.0
O535 O 0.92349 0.49979 0.46972 0.0
O536 O 0.09718 0.50767 0.5683 0.0
O537 O 0.09926 0.51458 0.47307 0.0
C538 C 0.5099 0.92643 0.58713 0.0
C539 C 0.5088 0.93504 0.43256 0.0
C540 C 0.51342 0.08134 0.59493 0.0
C541 C 0.51379 0.09081 0.44038 0.0
C542 C 0.43598 0.09153 0.51768 0.0
C543 C 0.42578 0.93558 0.50768 0.0
C544 C 0.59189 0.08018 0.51765 0.0
C545 C 0.58121 0.92432 0.50975 0.0
C546 C 0.58546 1.00582 0.43615 0.0
C547 C 0.43125 0.01555 0.43651 0.0
C548 C 0.58563 1.00468 0.59028 0.0
C549 C 0.43114 0.00808 0.5911 0.0
Eu550 Eu 0.50453 0.9472 0.51073 0.0
O551 O 0.47847 0.98337 0.48431 0.0
O552 O 0.53525 0.97581 0.54042 0.0
Eu553 Eu 0.4476 0.01246 0.51375 0.0
Eu554 Eu 0.56943 1.00349 0.51351 0.0
O555 O 0.47752 0.97978 0.54055 0.0
O556 O 0.53469 0.97968 0.48428 0.0
Eu557 Eu 0.50827 1.0049 0.57313 0.0
Eu558 Eu 0.5086 0.012 0.45372 0.0
O559 O 0.48198 0.03722 0.54297 0.0
O560 O 0.48177 0.04068 0.48694 0.0
O561 O 0.53946 0.03633 0.48682 0.0
O562 O 0.53856 0.03285 0.54248 0.0
Eu563 Eu 0.51284 0.06918 0.51654 0.0
O564 O 0.50572 0.91762 0.55678 0.0
O565 O 0.50526 0.92325 0.46202 0.0
O566 O 0.51456 0.09324 0.56531 0.0
O567 O 0.51653 0.09859 0.47109 0.0
O568 O 0.42398 0.06179 0.51747 0.0
O569 O 0.41795 0.96671 0.50878 0.0
O570 O 0.59928 0.04902 0.51597 0.0
O571 O 0.59312 0.95387 0.51329 0.0
O572 O 0.55543 0.01147 0.42683 0.0
O573 O 0.46168 0.01269 0.42693 0.0
O574 O 0.55509 0.0065 0.59963 0.0
O575 O 0.46152 1.00423 0.60028 0.0
O576 O 0.5622 0.09244 0.51792 0.0
O577 O 0.46717 0.09907 0.51678 0.0
O578 O 0.55006 0.91706 0.50732 0.0
O579 O 0.45555 0.9237 0.50901 0.0
O580 O 0.51032 0.9661 0.42493 0.0
O581 O 0.50962 0.0611 0.4292 0.0
O582 O 0.51162 0.95657 0.59752 0.0
O583 O 0.51042 0.05037 0.60239 0.0
O584 O 0.42105 0.01185 0.56111 0.0
O585 O 0.4212 0.01728 0.46673 0.0
O586 O 0.59619 1.00178 0.5604 0.0
O587 O 0.59532 1.00164 0.46611 0.0
H588 H 0.15736 0.21305 0.53781 0.0
H589 H 0.22323 0.16964 0.47115 0.0
H590 H 0.19114 0.12028 0.47172 0.0
H591 H 0.14253 0.09042 0.4902 0.0
H592 H 0.07651 0.13764 0.55438 0.0
H593 H 0.1106 0.18441 0.55593 0.0
C594 C 0.16446 0.19304 0.52289 0.0
C595 C 0.19211 0.19521 0.50389 0.0
C596 C 0.14603 0.16524 0.52324 0.0
C597 C 0.20173 0.16858 0.48573 0.0
C598 C 0.18345 0.14041 0.48611 0.0
C599 C 0.13602 0.11084 0.50478 0.0
C600 C 0.10722 0.11046 0.5224 0.0
C601 C 0.15537 0.13851 0.50472 0.0
C602 C 0.0987 0.1372 0.54087 0.0
C603 C 0.11804 0.16412 0.54161 0.0
H604 H 0.79995 0.15958 0.54303 0.0
H605 H 0.84549 0.22114 0.47382 0.0
H606 H 0.89487 0.18905 0.47703 0.0
H607 H 0.92375 0.14143 0.49769 0.0
H608 H 0.8763 0.07963 0.56553 0.0
H609 H 0.82897 0.11409 0.56502 0.0
C610 C 0.8206 0.16578 0.52842 0.0
C611 C 0.81904 0.19219 0.5078 0.0
C612 C 0.84857 0.14737 0.53042 0.0
C613 C 0.8462 0.20066 0.4897 0.0
C614 C 0.87435 0.18239 0.49157 0.0
C615 C 0.90323 0.13601 0.51275 0.0
C616 C 0.90329 0.1082 0.5316 0.0
C617 C 0.87571 0.15551 0.51169 0.0
C618 C 0.87655 0.10095 0.55075 0.0
C619 C 0.8495 0.12052 0.55039 0.0
H620 H 0.80076 0.85379 0.54183 0.0
H621 H 0.83872 0.79884 0.4633 0.0
H622 H 0.88766 0.83137 0.46337 0.0
H623 H 0.91839 0.87745 0.48444 0.0
H624 H 0.87739 0.93375 0.56042 0.0
H625 H 0.83077 0.89872 0.56271 0.0
C626 C 0.81952 0.84917 0.52441 0.0
C627 C 0.81598 0.82433 0.50232 0.0
C628 C 0.84708 0.86812 0.52428 0.0
C629 C 0.84095 0.81794 0.48056 0.0
C630 C 0.86886 0.83653 0.48055 0.0
C631 C 0.89935 0.88162 0.50167 0.0
C632 C 0.90108 0.90793 0.52229 0.0
C633 C 0.87208 0.86187 0.50218 0.0
C634 C 0.87629 0.91359 0.54432 0.0
C635 C 0.84967 0.89365 0.54559 0.0
H636 H 0.15911 0.80126 0.53788 0.0
H637 H 0.21629 0.84058 0.46134 0.0
H638 H 0.18379 0.88949 0.46194 0.0
H639 H 0.13712 0.91993 0.48274 0.0
H640 H 0.07891 0.87836 0.55715 0.0
H641 H 0.11371 0.83138 0.55891 0.0
C642 C 0.16427 0.82038 0.52109 0.0
C643 C 0.1898 0.81719 0.49941 0.0
C644 C 0.14533 0.84803 0.52127 0.0
C645 C 0.19675 0.84253 0.47835 0.0
C646 C 0.17816 0.87044 0.47862 0.0
C647 C 0.13247 0.90068 0.49951 0.0
C648 C 0.10557 0.90225 0.51968 0.0
C649 C 0.1522 0.87336 0.49983 0.0
C650 C 0.09938 0.87725 0.54121 0.0
C651 C 0.11923 0.85048 0.54224 0.0
H652 H 0.48644 0.16265 0.21579 0.0
H653 H 0.57313 0.21126 0.187 0.0
H654 H 0.5755 0.17911 0.1382 0.0
H655 H 0.55407 0.13481 0.1053 0.0
H656 H 0.4683 0.08596 0.1361 0.0
H657 H 0.46422 0.12056 0.18268 0.0
C658 C 0.50601 0.16599 0.19896 0.0
C659 C 0.52984 0.18877 0.20506 0.0
C660 C 0.50725 0.14747 0.17136 0.0
C661 C 0.55459 0.19364 0.18271 0.0
C662 C 0.55595 0.1753 0.1549 0.0
C663 C 0.53435 0.13226 0.12209 0.0
C664 C 0.51163 0.10795 0.11782 0.0
C665 C 0.53254 0.15191 0.14913 0.0
C666 C 0.48621 0.10437 0.13952 0.0
C667 C 0.48387 0.12411 0.16601 0.0
H668 H 0.83932 0.49184 0.21407 0.0
H669 H 0.7803 0.55771 0.1603 0.0
H670 H 0.8209 0.55978 0.11833 0.0
H671 H 0.87283 0.54182 0.09622 0.0
H672 H 0.93386 0.48088 0.15309 0.0
H673 H 0.89296 0.4783 0.19468 0.0
C674 C 0.8355 0.50724 0.19358 0.0
C675 C 0.80649 0.52421 0.19031 0.0
C676 C 0.85924 0.50899 0.16988 0.0
C677 C 0.80202 0.54369 0.16319 0.0
C678 C 0.82529 0.54505 0.13919 0.0
C679 C 0.87701 0.52791 0.11769 0.0
C680 C 0.90595 0.51097 0.12132 0.0
C681 C 0.85382 0.52744 0.14207 0.0
C682 C 0.91154 0.4937 0.14956 0.0
C683 C 0.88823 0.49232 0.17342 0.0
H684 H 0.52872 0.83682 0.21047 0.0
H685 H 0.45839 0.78264 0.15785 0.0
H686 H 0.45707 0.82395 0.11672 0.0
H687 H 0.47701 0.87481 0.09492 0.0
H688 H 0.54435 0.93068 0.14931 0.0
H689 H 0.54538 0.88953 0.19083 0.0
C690 C 0.51263 0.83428 0.19035 0.0
C691 C 0.49399 0.80646 0.18712 0.0
C692 C 0.51158 0.85834 0.16703 0.0
C693 C 0.47355 0.80348 0.16062 0.0
C694 C 0.47265 0.82715 0.13713 0.0
C695 C 0.49191 0.87785 0.11588 0.0
C696 C 0.5108 0.90541 0.11905 0.0
C697 C 0.49188 0.85445 0.13988 0.0
C698 C 0.52961 0.90954 0.14647 0.0
C699 C 0.53023 0.88605 0.17015 0.0
H700 H 0.15884 0.53375 0.2278 0.0
H701 H 0.21818 0.45776 0.19033 0.0
H702 H 0.18644 0.45702 0.14143 0.0
H703 H 0.14045 0.47704 0.10978 0.0
H704 H 0.07994 0.5509 0.14906 0.0
H705 H 0.11338 0.55352 0.19665 0.0
C706 C 0.16462 0.51677 0.2091 0.0
C707 C 0.19079 0.49585 0.21278 0.0
C708 C 0.14612 0.51624 0.18123 0.0
C709 C 0.19831 0.47439 0.188 0.0
C710 C 0.18014 0.47387 0.16004 0.0
C711 C 0.13497 0.49388 0.12867 0.0
C712 C 0.10787 0.51373 0.12617 0.0
C713 C 0.15394 0.49468 0.15638 0.0
C714 C 0.10063 0.53527 0.1508 0.0
C715 C 0.1197 0.53675 0.17796 0.0
H716 H 0.48341 0.81259 0.84742 0.0
H717 H 0.54228 0.87139 0.78581 0.0
H718 H 0.5454 0.91221 0.82691 0.0
H719 H 0.53182 0.93133 0.8803 0.0
H720 H 0.47603 0.87155 0.94356 0.0
H721 H 0.47193 0.83074 0.90208 0.0
C722 C 0.49722 0.83415 0.84308 0.0
C723 C 0.51217 0.83898 0.8133 0.0
C724 C 0.49959 0.85736 0.86715 0.0
C725 C 0.52977 0.86729 0.80813 0.0
C726 C 0.53184 0.8906 0.83173 0.0
C727 C 0.51862 0.90944 0.88497 0.0
C728 C 0.50406 0.90457 0.91484 0.0
C729 C 0.51674 0.88596 0.86125 0.0
C730 C 0.48752 0.87584 0.92074 0.0
C731 C 0.4851 0.85253 0.89702 0.0
H732 H 0.17944 0.52806 0.82524 0.0
H733 H 0.24064 0.46737 0.88223 0.0
H734 H 0.19992 0.46572 0.92432 0.0
H735 H 0.14748 0.48286 0.94546 0.0
H736 H 0.08619 0.5428 0.88758 0.0
H737 H 0.12633 0.54321 0.84525 0.0
C738 C 0.1836 0.51401 0.84662 0.0
C739 C 0.21294 0.49795 0.85069 0.0
C740 C 0.16021 0.51324 0.87067 0.0
C741 C 0.21828 0.48022 0.87874 0.0
C742 C 0.19505 0.47925 0.90278 0.0
C743 C 0.14302 0.49611 0.92363 0.0
C744 C 0.11401 0.51284 0.91972 0.0
C745 C 0.1661 0.49604 0.89918 0.0
C746 C 0.10832 0.52958 0.89115 0.0
C747 C 0.13125 0.52988 0.8669 0.0
H748 H 0.53756 0.17618 0.82114 0.0
H749 H 0.46654 0.2302 0.8738 0.0
H750 H 0.46561 0.18917 0.91515 0.0
H751 H 0.4859 0.13863 0.93708 0.0
H752 H 0.55344 0.08236 0.88278 0.0
H753 H 0.55451 0.12343 0.841 0.0
C754 C 0.52143 0.17874 0.84133 0.0
C755 C 0.50253 0.20651 0.84453 0.0
C756 C 0.52054 0.15477 0.86479 0.0
C757 C 0.48196 0.20946 0.87108 0.0
C758 C 0.48127 0.18595 0.89469 0.0
C759 C 0.50092 0.13553 0.91613 0.0
C760 C 0.5199 0.10796 0.91303 0.0
C761 C 0.50078 0.15876 0.89201 0.0
C762 C 0.53874 0.10362 0.88556 0.0
C763 C 0.53935 0.12703 0.86175 0.0
H764 H 0.84318 0.52966 0.8238 0.0
H765 H 0.79497 0.45285 0.87365 0.0
H766 H 0.8355 0.45422 0.91546 0.0
H767 H 0.88339 0.4786 0.93878 0.0
H768 H 0.93415 0.55227 0.88734 0.0
H769 H 0.89391 0.55068 0.8448 0.0
C770 C 0.8419 0.51276 0.84343 0.0
C771 C 0.81588 0.49149 0.84584 0.0
C772 C 0.86547 0.51338 0.86717 0.0
C773 C 0.81444 0.46992 0.87162 0.0
C774 C 0.83759 0.47062 0.89548 0.0
C775 C 0.88539 0.49438 0.9183 0.0
C776 C 0.911 0.51593 0.91619 0.0
C777 C 0.86283 0.49264 0.89377 0.0
C778 C 0.91423 0.53572 0.88932 0.0
C779 C 0.89136 0.53475 0.86509 0.0
H780 H 0.7097 0.66857 0.04222 0.0
H781 H 0.65894 0.72243 0.96997 0.0
H782 H 0.61867 0.68046 0.96655 0.0
H783 H 0.59613 0.63018 0.98645 0.0
H784 H 0.64964 0.57316 0.05356 0.0
H785 H 0.69116 0.61455 0.05627 0.0
C786 C 0.69034 0.6709 0.02514 0.0
C787 C 0.687 0.69909 1.007 0.0
C788 C 0.66767 0.64628 0.0226 0.0
C789 C 0.66156 0.70152 0.98506 0.0
C790 C 0.63859 0.67746 0.9829 0.0
C791 C 0.61694 0.62689 1.00156 0.0
C792 C 0.61955 0.59935 0.02046 0.0
C793 C 0.64102 0.65015 1.0021 0.0
C794 C 0.64698 0.59462 0.03929 0.0
C795 C 0.67068 0.61818 0.04075 0.0
H796 H 0.34938 0.7062 0.03183 0.0
H797 H 0.29034 0.65355 0.96563 0.0
H798 H 0.33116 0.61184 0.96226 0.0
H799 H 0.38221 0.58875 0.98067 0.0
H800 H 0.4437 0.64437 0.04169 0.0
H801 H 0.40348 0.68692 0.04398 0.0
C802 C 0.34564 0.68611 0.01599 0.0
C803 C 0.3164 0.6828 0.99961 0.0
C804 C 0.36953 0.66259 0.01344 0.0
C805 C 0.31214 0.65629 0.97937 0.0
C806 C 0.33554 0.63247 0.97724 0.0
C807 C 0.38674 0.61026 0.99438 0.0
C808 C 0.41531 0.61314 0.01176 0.0
C809 C 0.36399 0.63502 0.99475 0.0
C810 C 0.4215 0.64142 0.02867 0.0
C811 C 0.39859 0.66578 0.0299 0.0
H812 H 0.33737 0.31351 1.00048 0.0
H813 H 0.27969 0.37008 0.06515 0.0
H814 H 0.31986 0.41243 0.06391 0.0
H815 H 0.37154 0.43346 0.04434 0.0
H816 H 0.43196 0.37341 0.98603 0.0
H817 H 0.39065 0.33216 0.98511 0.0
C818 C 0.33375 0.33472 0.01489 0.0
C819 C 0.30528 0.3386 0.03256 0.0
C820 C 0.35734 0.35853 0.01496 0.0
C821 C 0.30099 0.36667 0.05065 0.0
C822 C 0.32402 0.39089 0.05013 0.0
C823 C 0.37542 0.41142 0.0313 0.0
C824 C 0.40427 0.40668 0.01461 0.0
C825 C 0.35217 0.38718 0.03214 0.0
C826 C 0.40959 0.37774 0.99848 0.0
C827 C 0.3861 0.35409 0.99814 0.0
H828 H 0.65946 0.29491 0.99608 0.0
H829 H 0.72353 0.33655 0.06505 0.0
H830 H 0.68954 0.3846 0.06752 0.0
H831 H 0.64064 0.41407 0.05039 0.0
H832 H 0.57672 0.36986 0.98266 0.0
H833 H 0.61157 0.32323 0.97964 0.0
C834 C 0.66573 0.3142 0.01217 0.0
C835 C 0.69358 0.31199 0.03079 0.0
C836 C 0.64617 0.34129 0.01356 0.0
C837 C 0.70204 0.33771 0.05059 0.0
C838 C 0.68264 0.3651 0.052 0.0
C839 C 0.63459 0.39426 0.03489 0.0
C840 C 0.60615 0.39523 0.01693 0.0
C841 C 0.65458 0.36713 0.03358 0.0
C842 C 0.59833 0.36944 0.99701 0.0
C843 C 0.61823 0.3428 0.99519 0.0
H844 H 0.02542 0.65289 0.72894 0.0
H845 H 0.96372 0.72126 0.68208 0.0
H846 H 0.96436 0.68868 0.63355 0.0
H847 H 0.98063 0.63909 0.6055 0.0
H848 H 0.04114 0.57076 0.65433 0.0
H849 H 0.04264 0.60493 0.70105 0.0
C850 C 0.01186 0.66052 0.70819 0.0
C851 C 0.99423 0.68911 0.70914 0.0
C852 C 0.01213 0.64167 0.68074 0.0
C853 C 0.97749 0.69923 0.68184 0.0
C854 C 0.97778 0.6806 0.65417 0.0
C855 C 0.99436 0.63195 0.62628 0.0
C856 C 0.01045 0.60236 0.6266 0.0
C857 C 0.99481 0.65158 0.65344 0.0
C858 C 0.02812 0.59324 0.65368 0.0
C859 C 0.02909 0.61276 0.68042 0.0
H860 H 0.34125 0.99589 0.71143 0.0
H861 H 0.28388 0.06176 0.65618 0.0
H862 H 0.32437 0.06167 0.61387 0.0
H863 H 0.3751 0.04118 0.59177 0.0
H864 H 0.43324 0.97675 0.64793 0.0
H865 H 0.39345 0.97806 0.69081 0.0
C866 C 0.33792 0.0107 0.69041 0.0
C867 C 0.30958 0.02863 0.68683 0.0
C868 C 0.36122 0.01049 0.66621 0.0
C869 C 0.30537 0.04742 0.65927 0.0
C870 C 0.32847 0.04737 0.63509 0.0
C871 C 0.37891 0.02731 0.61334 0.0
C872 C 0.40679 0.00864 0.61661 0.0
C873 C 0.35621 0.02856 0.63808 0.0
C874 C 0.41186 0.99127 0.64489 0.0
C875 C 0.38916 0.99201 0.66941 0.0
H876 H 0.98915 0.33476 0.71181 0.0
H877 H 0.05519 0.27615 0.65787 0.0
H878 H 0.05718 0.3166 0.61583 0.0
H879 H 0.04029 0.36883 0.59449 0.0
H880 H 0.97639 0.42834 0.64998 0.0
H881 H 0.9738 0.38749 0.6915 0.0
C882 C 0.00432 0.33101 0.69107 0.0
C883 C 0.02185 0.30245 0.68794 0.0
C884 C 0.00572 0.35451 0.66723 0.0
C885 C 0.04103 0.29775 0.66065 0.0
C886 C 0.04231 0.32091 0.63665 0.0
C887 C 0.02569 0.37271 0.61561 0.0
C888 C 0.00853 0.40144 0.61917 0.0
C889 C 0.02465 0.34932 0.63964 0.0
C890 C 0.99 0.40644 0.6468 0.0
C891 C 0.98843 0.3831 0.67053 0.0
H892 H 0.66536 0.03265 0.71283 0.0
H893 H 0.71455 0.94676 0.68307 0.0
H894 H 0.68227 0.94521 0.63433 0.0
H895 H 0.63712 0.96652 0.60217 0.0
H896 H 0.58673 0.05063 0.63457 0.0
H897 H 0.62225 0.05466 0.68053 0.0
C898 C 0.66887 0.01346 0.69577 0.0
C899 C 0.69185 0.98962 0.70166 0.0
C900 C 0.64996 0.01242 0.66839 0.0
C901 C 0.69689 0.96539 0.67897 0.0
C902 C 0.67839 0.96443 0.65123 0.0
C903 C 0.63438 0.98585 0.61919 0.0
C904 C 0.60941 0.00811 0.61554 0.0
C905 C 0.65451 0.98757 0.64593 0.0
C906 C 0.60564 0.03305 0.63752 0.0
C907 C 0.62593 0.03539 0.66364 0.0
H908 H 0.0395 0.31473 0.34782 0.0
H909 H 0.98072 0.37499 0.28765 0.0
H910 H 0.98023 0.41639 0.32827 0.0
H911 H 0.9953 0.43518 0.38126 0.0
H912 H 0.04992 0.37357 0.44357 0.0
H913 H 0.05291 0.33286 0.40187 0.0
C914 C 0.02634 0.33678 0.3437 0.0
C915 C 0.01056 0.3418 0.3145 0.0
C916 C 0.02536 0.36026 0.36754 0.0
C917 C 0.99383 0.37071 0.30952 0.0
C918 C 0.99327 0.39437 0.33285 0.0
C919 C 0.008 0.41292 0.38562 0.0
C920 C 0.0224 0.40737 0.41531 0.0
C921 C 0.00894 0.3894 0.36191 0.0
C922 C 0.0385 0.37828 0.42086 0.0
C923 C 0.04025 0.35504 0.39705 0.0
H924 H 0.67795 0.01023 0.31771 0.0
H925 H 0.73257 0.94602 0.37747 0.0
H926 H 0.6906 0.94826 0.4183 0.0
H927 H 0.63991 0.97072 0.43788 0.0
H928 H 0.58485 0.03419 0.37765 0.0
H929 H 0.62551 0.02974 0.33577 0.0
C930 C 0.68031 0.99618 0.33937 0.0
C931 C 0.70824 0.97811 0.34474 0.0
C932 C 0.65629 0.99774 0.36268 0.0
C933 C 0.71132 0.96036 0.37307 0.0
C934 C 0.68741 0.96166 0.39636 0.0
C935 C 0.63693 0.98369 0.41564 0.0
C936 C 0.6098 1.00309 0.41092 0.0
C937 C 0.66014 0.9808 0.39166 0.0
C938 C 0.60571 0.0192 0.38178 0.0
C939 C 0.62889 0.01667 0.35787 0.0
H940 H 0.96956 0.71041 0.36897 0.0
H941 H 0.04841 0.67645 0.31105 0.0
H942 H 0.0514 0.62754 0.34309 0.0
H943 H 0.03397 0.59625 0.39017 0.0
H944 H 0.95844 0.63343 0.45022 0.0
H945 H 0.95197 0.6795 0.41498 0.0
C946 C 0.98763 0.69248 0.36349 0.0
C947 C 0.00894 0.69725 0.33792 0.0
C948 C 0.98985 0.66505 0.38248 0.0
C949 C 0.03158 0.67331 0.33055 0.0
C950 C 0.03345 0.64543 0.34896 0.0
C951 C 0.01591 0.61433 0.39516 0.0
C952 C 0.99674 0.61175 0.42261 0.0
C953 C 0.013 0.64127 0.37529 0.0
C954 C 0.97358 0.63528 0.42926 0.0
C955 C 0.96986 0.66154 0.40915 0.0
H956 H 0.33908 1.00017 0.31887 0.0
H957 H 0.27854 0.06002 0.37765 0.0
H958 H 0.31997 0.06148 0.4186 0.0
H959 H 0.37292 0.0447 0.43834 0.0
H960 H 0.43457 0.98754 0.37815 0.0
H961 H 0.39337 0.98665 0.33688 0.0
C962 C 0.33512 0.01404 0.34035 0.0
C963 C 0.30557 0.02966 0.34525 0.0
C964 C 0.35923 0.01523 0.36361 0.0
C965 C 0.30079 0.04718 0.3735 0.0
C966 C 0.32453 0.04819 0.39689 0.0
C967 C 0.37728 0.03206 0.41618 0.0
C968 C 0.4066 0.01606 0.41135 0.0
C969 C 0.35368 0.03199 0.39236 0.0
C970 C 0.41219 1.00015 0.38237 0.0
C971 C 0.38863 0.99954 0.35879 0.0
H972 H 0.96426 0.21303 0.36866 0.0
H973 H 0.01644 0.16461 0.29414 0.0
H974 H 0.02685 0.11931 0.33031 0.0
H975 H 0.02058 0.09351 0.38365 0.0
H976 H 0.97095 0.14504 0.45818 0.0
H977 H 0.9602 0.189 0.42161 0.0
C978 C 0.97791 0.19252 0.36031 0.0
C979 C 0.98937 0.19201 0.32878 0.0
C980 C 0.98431 0.16713 0.38135 0.0
C981 C 0.00734 0.16551 0.31833 0.0
C982 C 0.01324 0.13964 0.33902 0.0
C983 C 0.00745 0.11439 0.39182 0.0
C984 C 0.99657 0.11586 0.42371 0.0
C985 C 1.00178 0.14015 0.37065 0.0
C986 C 0.97983 0.14326 0.43395 0.0
C987 C 0.97353 0.16844 0.41299 0.0
H988 H 0.80275 0.03421 0.36167 0.0
H989 H 0.85185 0.96891 0.29871 0.0
H990 H 0.89976 0.97129 0.33276 0.0
H991 H 0.92477 0.98642 0.38449 0.0
H992 H 0.87135 0.0459 0.44994 0.0
H993 H 0.82769 0.05046 0.41149 0.0
C994 C 0.82405 0.02066 0.35517 0.0
C995 C 0.82349 1.00101 0.32787 0.0
C996 C 0.85043 0.02044 0.3759 0.0
C997 C 0.85158 0.9843 0.31945 0.0
C998 C 0.87879 0.98528 0.33924 0.0
C999 C 0.90363 1.00054 0.39017 0.0
C1000 C 0.90119 0.01559 0.42021 0.0
C1001 C 0.87803 1.00231 0.36818 0.0
C1002 C 0.87363 0.03371 0.42727 0.0
C1003 C 0.84875 0.03651 0.40519 0.0
H1004 H 0.03225 0.84278 0.32013 0.0
H1005 H 0.95098 0.79352 0.36098 0.0
H1006 H 0.9456 0.83467 0.40176 0.0
H1007 H 0.9669 0.88222 0.42901 0.0
H1008 H 0.04593 0.93384 0.387 0.0
H1009 H 0.04945 0.89448 0.34386 0.0
C1010 C 0.01286 0.84161 0.33742 0.0
C1011 C 0.99223 0.81494 0.33764 0.0
C1012 C 0.00994 0.86547 0.36113 0.0
C1013 C 0.96731 0.81368 0.36041 0.0
C1014 C 0.96434 0.8371 0.38392 0.0
C1015 C 0.98481 0.8848 0.41033 0.0
C1016 C 0.00645 0.91051 0.41141 0.0
C1017 C 0.9861 0.86258 0.38514 0.0
C1018 C 0.02913 0.91406 0.38673 0.0
C1019 C 0.03112 0.89159 0.36204 0.0
H1020 H 0.20553 0.97566 0.35714 0.0
H1021 H 0.16573 0.04913 0.29676 0.0
H1022 H 0.11677 0.05028 0.32976 0.0
H1023 H 0.08857 0.0352 0.38047 0.0
H1024 H 0.13302 0.96567 0.44263 0.0
H1025 H 0.17684 0.95856 0.4048 0.0
C1026 C 0.18591 0.9916 0.35086 0.0
C1027 C 0.18944 0.01248 0.32467 0.0
C1028 C 0.15888 0.99335 0.37088 0.0
C1029 C 0.16361 0.03267 0.31664 0.0
C1030 C 0.13581 0.03363 0.33584 0.0
C1031 C 0.10773 0.01831 0.38547 0.0
C1032 C 0.1077 1.00129 0.41462 0.0
C1033 C 0.13366 0.01492 0.36376 0.0
C1034 C 0.1327 0.97948 0.42074 0.0
C1035 C 0.15774 0.97525 0.399 0.0
H1036 H 0.0396 0.80316 0.67683 0.0
H1037 H 0.99944 0.86151 0.7515 0.0
H1038 H 0.98851 0.90445 0.71269 0.0
H1039 H 0.99267 0.92595 0.65749 0.0
H1040 H 0.02883 0.86461 0.58278 0.0
H1041 H 0.03884 0.82229 0.6215 0.0
C1042 C 0.0283 0.82527 0.68454 0.0
C1043 C 0.02063 0.82943 0.71694 0.0
C1044 C 0.02147 0.84931 0.66205 0.0
C1045 C 0.00556 0.85787 0.72666 0.0
C1046 C 0.99943 0.88239 0.70447 0.0
C1047 C 1.00261 0.90327 0.64966 0.0
C1048 C 0.01053 0.89883 0.61718 0.0
C1049 C 0.00762 0.8785 0.6721 0.0
C1050 C 0.0228 0.86899 0.6075 0.0
C1051 C 0.02857 0.84468 0.62969 0.0
H1052 H 0.21269 0.97418 0.67266 0.0
H1053 H 0.16815 0.04059 0.73771 0.0
H1054 H 0.11882 0.03982 0.70563 0.0
H1055 H 0.09128 0.0257 0.65481 0.0
H1056 H 0.14016 0.96456 0.58746 0.0
H1057 H 0.1851 0.95848 0.62414 0.0
C1058 C 0.19206 0.98828 0.68006 0.0
C1059 C 0.19429 0.00778 0.70731 0.0
C1060 C 0.16481 0.98924 0.66052 0.0
C1061 C 0.16709 0.0253 0.71693 0.0
C1062 C 0.13906 0.02521 0.69829 0.0
C1063 C 0.11169 0.01084 0.64841 0.0
C1064 C 0.11257 0.99584 0.61831 0.0
C1065 C 0.13809 0.00819 0.66937 0.0
C1066 C 0.13915 0.97674 0.61023 0.0
C1067 C 0.16477 0.97309 0.63127 0.0
H1068 H 0.05901 0.19358 0.68782 0.0
H1069 H 0.96982 0.17389 0.73621 0.0
H1070 H 0.96215 0.126 0.70307 0.0
H1071 H 0.97763 0.09414 0.65489 0.0
H1072 H 0.06497 0.11799 0.60495 0.0
H1073 H 0.07643 0.16005 0.64352 0.0
C1074 C 0.03828 0.1783 0.69166 0.0
C1075 C 0.01502 0.18722 0.71442 0.0
C1076 C 0.0333 0.15207 0.67147 0.0
C1077 C 0.98824 0.16733 0.71913 0.0
C1078 C 0.98364 0.14025 0.6998 0.0
C1079 C 0.99923 0.10847 0.65278 0.0
C1080 C 0.02012 0.10369 0.62667 0.0
C1081 C 0.00542 0.13309 0.67502 0.0
C1082 C 0.04814 0.12208 0.62422 0.0
C1083 C 0.05484 0.14585 0.64648 0.0
H1084 H 0.85406 1.00477 0.73093 0.0
H1085 H 0.80346 0.92923 0.68275 0.0
H1086 H 0.83425 0.93926 0.63407 0.0
H1087 H 0.87795 0.9673 0.60595 0.0
H1088 H 0.93261 0.03894 0.65546 0.0
H1089 H 0.89802 0.03308 0.70243 0.0
C1090 C 0.84972 0.99076 0.70966 0.0
C1091 C 0.82654 0.96632 0.71038 0.0
C1092 C 0.86833 0.99599 0.6819 0.0
C1093 C 0.82133 0.94807 0.68279 0.0
C1094 C 0.83887 0.95383 0.6549 0.0
C1095 C 0.8819 0.98193 0.62683 0.0
C1096 C 0.9076 1.00365 0.62713 0.0
C1097 C 0.86273 0.97744 0.65425 0.0
C1098 C 0.91289 0.02207 0.65464 0.0
C1099 C 0.89317 0.01866 0.68156 0.0
H1100 H 0.35745 0.04957 0.21857 0.0
H1101 H 0.27844 0.0123 0.16423 0.0
H1102 H 0.31527 1.00013 0.11969 0.0
H1103 H 0.37054 1.00209 0.0957 0.0
H1104 H 0.44902 0.03506 0.15421 0.0
H1105 H 0.412 0.04688 0.19729 0.0
C1106 C 0.34832 0.03857 0.19702 0.0
C1107 C 0.31532 0.03205 0.19454 0.0
C1108 C 0.36964 0.03106 0.17209 0.0
C1109 C 0.3038 0.01746 0.1667 0.0
C1110 C 0.32487 0.01066 0.14122 0.0
C1111 C 0.37949 0.01178 0.1179 0.0
C1112 C 0.41269 0.01817 0.12122 0.0
C1113 C 0.35792 0.01767 0.14349 0.0
C1114 C 0.42377 0.03018 0.15052 0.0
C1115 C 0.40255 0.03696 0.17539 0.0
H1116 H 0.96681 0.34681 0.2124 0.0
H1117 H 0.04753 0.29106 0.17986 0.0
H1118 H 0.05077 0.32402 0.13119 0.0
H1119 H 0.03488 0.37383 0.10184 0.0
H1120 H 0.95772 0.43166 0.13927 0.0
H1121 H 0.94896 0.39326 0.18225 0.0
C1122 C 0.98467 0.34144 0.19426 0.0
C1123 C 0.00696 0.31668 0.19965 0.0
C1124 C 0.98745 0.36149 0.16762 0.0
C1125 C 0.02996 0.30984 0.17607 0.0
C1126 C 0.03206 0.329 0.14851 0.0
C1127 C 0.01599 0.37766 0.11929 0.0
C1128 C 0.99719 0.40574 0.11782 0.0
C1129 C 0.01168 0.3557 0.14463 0.0
C1130 C 0.97281 0.41058 0.14044 0.0
C1131 C 0.96767 0.38852 0.16485 0.0
H1132 H 0.72283 1.00038 0.17159 0.0
H1133 H 0.66692 0.93658 0.23038 0.0
H1134 H 0.61932 0.94685 0.19792 0.0
H1135 H 0.59411 0.97126 0.15048 0.0
H1136 H 0.65152 0.03047 0.08843 0.0
H1137 H 0.69742 0.02508 0.12414 0.0
C1138 C 0.7001 0.98909 0.1774 0.0
C1139 C 0.69834 0.96786 0.20339 0.0
C1140 C 0.67294 0.99424 0.15785 0.0
C1141 C 0.66886 0.95298 0.21041 0.0
C1142 C 0.64159 0.95884 0.19186 0.0
C1143 C 0.61652 0.98336 0.14511 0.0
C1144 C 0.61921 1.00152 0.11695 0.0
C1145 C 0.64338 0.97906 0.1652 0.0
C1146 C 0.6487 0.0165 0.11001 0.0
C1147 C 0.67506 0.01334 0.13041 0.0
H1148 H 0.04222 0.6693 0.22312 0.0
H1149 H 0.00645 0.74551 0.16369 0.0
H1150 H 0.9953 0.7069 0.1209 0.0
H1151 H 0.99853 0.6514 0.09973 0.0
H1152 H 0.02982 0.57524 0.16223 0.0
H1153 H 0.03977 0.61375 0.20444 0.0
C1154 C 0.03172 0.67736 0.20085 0.0
C1155 C 0.02541 0.71012 0.19631 0.0
C1156 C 0.02477 0.65501 0.17687 0.0
C1157 C 0.01144 0.72036 0.16763 0.0
C1158 C 0.00523 0.69829 0.14319 0.0
C1159 C 0.00738 0.64321 0.12263 0.0
C1160 C 0.01412 0.61037 0.12738 0.0
C1161 C 0.01222 0.66555 0.14738 0.0
C1162 C 0.0249 0.60025 0.15753 0.0
C1163 C 0.03057 0.62231 0.18182 0.0
H1164 H 0.35489 0.06407 0.82158 0.0
H1165 H 0.28498 0.99885 0.86059 0.0
H1166 H 0.32181 0.98571 0.90459 0.0
H1167 H 0.37467 0.99311 0.93189 0.0
H1168 H 0.445 0.05572 0.88895 0.0
H1169 H 0.40738 0.06955 0.84671 0.0
C1170 C 0.34768 0.04697 0.83975 0.0
C1171 C 0.31724 0.03261 0.83799 0.0
C1172 C 0.36918 0.03907 0.86429 0.0
C1173 C 0.30832 0.01024 0.86145 0.0
C1174 C 0.32938 1.00279 0.8866 0.0
C1175 C 0.38162 0.00976 0.91325 0.0
C1176 C 0.41264 0.02337 0.91358 0.0
C1177 C 0.35996 0.01709 0.88831 0.0
C1178 C 0.42144 0.0447 0.88913 0.0
C1179 C 0.39989 0.05273 0.86499 0.0
H1180 H 0.05568 0.35759 0.81855 0.0
H1181 H 0.99926 0.28461 0.86479 0.0
H1182 H 0.98709 0.32166 0.9088 0.0
H1183 H 0.99355 0.37524 0.93444 0.0
H1184 H 0.04771 0.44818 0.88488 0.0
H1185 H 0.05954 0.41089 0.84196 0.0
C1186 C 0.04065 0.34978 0.83827 0.0
C1187 C 0.02858 0.31836 0.83855 0.0
C1188 C 0.03333 0.37133 0.86292 0.0
C1189 C 0.00885 0.30867 0.86403 0.0
C1190 C 1.00197 0.32987 0.88919 0.0
C1191 C 0.00786 0.38293 0.91419 0.0
C1192 C 0.0197 0.41462 0.91302 0.0
C1193 C 0.01422 0.36131 0.88898 0.0
C1194 C 0.038 0.42418 0.88642 0.0
C1195 C 0.04494 0.40278 0.86184 0.0
H1196 H 0.70893 0.96853 0.84684 0.0
H1197 H 0.66891 0.04915 0.79626 0.0
H1198 H 0.62824 0.05611 0.83767 0.0
H1199 H 0.60111 0.03673 0.88626 0.0
H1200 H 0.64238 0.95823 0.93895 0.0
H1201 H 0.68509 0.9528 0.89894 0.0
C1202 C 0.69185 0.98811 0.8454 0.0
C1203 C 0.69185 0.00813 0.81836 0.0
C1204 C 0.6682 0.99191 0.86937 0.0
C1205 C 0.66931 0.03328 0.81673 0.0
C1206 C 0.64587 0.03716 0.84029 0.0
C1207 C 0.61947 0.01844 0.88887 0.0
C1208 C 0.61835 0.99758 0.91515 0.0
C1209 C 0.64447 0.01607 0.86626 0.0
C1210 C 0.64267 0.97444 0.91873 0.0
C1211 C 0.66713 0.97137 0.89591 0.0
H1212 H 0.03014 0.70928 0.84974 0.0
H1213 H 0.94292 0.66904 0.81188 0.0
H1214 H 0.94191 0.62921 0.85445 0.0
H1215 H 0.96821 0.60261 0.89979 0.0
H1216 H 0.0533 0.64404 0.9405 0.0
H1217 H 0.05292 0.68635 0.89972 0.0
C1218 C 0.01048 0.69236 0.85137 0.0
C1219 C 0.98683 0.69198 0.82739 0.0
C1220 C 0.01005 0.66924 0.87609 0.0
C1221 C 0.9616 0.66969 0.82982 0.0
C1222 C 0.96108 0.64674 0.85407 0.0
C1223 C 0.9866 0.62097 0.89968 0.0
C1224 C 0.01107 0.61996 0.92264 0.0
C1225 C 0.98567 0.64565 0.87676 0.0
C1226 C 0.03437 0.64426 0.92282 0.0
C1227 C 0.03411 0.66846 0.89955 0.0
H1228 H 0.19792 0.34299 0.0709 0.0
H1229 H 0.17239 0.29028 0.98662 0.0
H1230 H 0.12451 0.32421 0.97982 0.0
H1231 H 0.09473 0.37435 0.99365 0.0
H1232 H 0.12681 0.43042 0.0736 0.0
H1233 H 0.16769 0.39041 0.08593 0.0
C1234 C 0.18153 0.33854 0.05133 0.0
C1235 C 0.18886 0.31439 0.02911 0.0
C1236 C 0.15573 0.3595 0.04632 0.0
C1237 C 0.16722 0.30859 1.00414 0.0
C1238 C 0.14016 0.32837 0.99998 0.0
C1239 C 0.1106 0.37752 0.01385 0.0
C1240 C 0.10815 0.40544 0.03251 0.0
C1241 C 0.13496 0.35479 0.02016 0.0
C1242 C 0.12871 0.4094 0.05863 0.0
C1243 C 0.15191 0.38644 0.06581 0.0
H1244 H 0.20766 0.67001 0.97328 0.0
H1245 H 0.18233 0.72541 0.05627 0.0
H1246 H 0.1342 0.69232 0.06399 0.0
H1247 H 0.10291 0.64316 0.05059 0.0
H1248 H 0.13488 0.58414 0.97239 0.0
H1249 H 0.17745 0.62228 0.96006 0.0
C1250 C 0.19167 0.67495 0.99316 0.0
C1251 C 0.19906 0.69985 0.01451 0.0
C1252 C 0.16561 0.65453 0.99874 0.0
C1253 C 0.17734 0.7065 0.0394 0.0
C1254 C 0.15005 0.68724 0.04409 0.0
C1255 C 0.11925 0.63884 0.03087 0.0
C1256 C 0.11608 0.61076 0.01259 0.0
C1257 C 0.14455 0.66046 0.02455 0.0
C1258 C 0.13726 0.60531 0.98708 0.0
C1259 C 0.16142 0.62722 0.97987 0.0
H1260 H 0.3604 0.21446 0.98238 0.0
H1261 H 0.2857 0.16182 0.03059 0.0
H1262 H 0.32316 0.11707 0.03956 0.0
H1263 H 0.37747 0.09282 0.03282 0.0
H1264 H 0.45215 0.14819 0.9871 0.0
H1265 H 0.41451 0.19191 0.9782 0.0
C1266 C 0.35231 0.19316 0.99488 0.0
C1267 C 0.32032 0.1913 1.0056 0.0
C1268 C 0.37407 0.16804 1.00044 0.0
C1269 C 0.31021 0.16378 0.02208 0.0
C1270 C 0.33164 0.13822 0.02715 0.0
C1271 C 0.38549 0.11449 0.02098 0.0
C1272 C 0.41771 0.11704 0.01055 0.0
C1273 C 0.36367 0.14003 0.01633 0.0
C1274 C 0.42768 0.14548 0.99553 0.0
C1275 C 0.4061 0.17054 0.9903 0.0
H1276 H 0.80827 0.35515 0.97441 0.0
H1277 H 0.86433 0.27916 0.01612 0.0
H1278 H 0.90748 0.31735 0.02833 0.0
H1279 H 0.92939 0.37267 0.0261 0.0
H1280 H 0.87032 0.44852 0.98765 0.0
H1281 H 0.82825 0.41018 0.97533 0.0
C1282 C 0.82997 0.34696 0.98619 0.0
C1283 C 0.83333 0.31442 0.9941 0.0
C1284 C 0.8541 0.3691 0.99373 0.0
C1285 C 0.86128 0.30412 0.00976 0.0
C1286 C 0.88591 0.32596 0.01668 0.0
C1287 C 0.90727 0.38079 0.01511 0.0
C1288 C 0.90326 0.41352 1.00757 0.0
C1289 C 0.88264 0.35855 1.00865 0.0
C1290 C 0.87421 0.42361 0.99371 0.0
C1291 C 0.85008 0.40165 0.98656 0.0
H1292 H 0.66926 0.80528 0.97558 0.0
H1293 H 0.7254 0.83708 0.05579 0.0
H1294 H 0.69177 0.88508 0.06004 0.0
H1295 H 0.64225 0.91467 0.04481 0.0
H1296 H 0.58215 0.87702 0.97022 0.0
H1297 H 0.62063 0.83384 0.9608 0.0
C1298 C 0.67415 0.82257 0.99419 0.0
C1299 C 0.69948 0.81711 0.01576 0.0
C1300 C 0.65341 0.84867 0.99798 0.0
C1301 C 0.70617 0.84054 0.0388 0.0
C1302 C 0.68662 0.86779 0.04154 0.0
C1303 C 0.63775 0.89695 0.02652 0.0
C1304 C 0.60937 0.89868 1.0084 0.0
C1305 C 0.6595 0.87152 0.02195 0.0
C1306 C 0.60361 0.87574 0.98476 0.0
C1307 C 0.6257 0.85126 0.97921 0.0
H1308 H 0.85128 0.71909 0.0238 0.0
H1309 H 0.79582 0.66227 0.08986 0.0
H1310 H 0.83194 0.61683 0.08179 0.0
H1311 H 0.87982 0.59338 0.05662 0.0
H1312 H 0.93791 0.65114 0.99372 0.0
H1313 H 0.9003 0.69591 0.99959 0.0
C1314 C 0.8472 0.69675 0.03637 0.0
C1315 C 0.82096 0.69392 0.05733 0.0
C1316 C 0.86846 0.67084 0.03205 0.0
C1317 C 0.816 0.66496 0.07369 0.0
C1318 C 0.83654 0.63894 0.06901 0.0
C1319 C 0.88398 0.61568 0.04395 0.0
C1320 C 0.91132 0.61895 0.02455 0.0
C1321 C 0.86285 0.64159 0.04826 0.0
C1322 C 0.91691 0.64814 1.00877 0.0
C1323 C 0.89546 0.67372 0.01214 0.0
H1324 H 0.30208 0.85187 0.01769 0.0
H1325 H 0.36105 0.79162 0.07732 0.0
H1326 H 0.40612 0.82832 0.07113 0.0
H1327 H 0.42894 0.87782 0.04946 0.0
H1328 H 0.36964 0.94068 0.99291 0.0
H1329 H 0.32481 0.90298 0.99715 0.0
C1330 C 0.32483 0.84687 0.02922 0.0
C1331 C 0.32828 0.81899 0.04783 0.0
C1332 C 0.35067 0.86858 0.02612 0.0
C1333 C 0.35779 0.81294 0.06291 0.0
C1334 C 0.38364 0.83388 0.05935 0.0
C1335 C 0.40628 0.88318 0.03786 0.0
C1336 C 0.40276 0.91191 0.0207 0.0
C1337 C 0.38039 0.86179 0.04105 0.0
C1338 C 0.37301 0.91873 1.00631 0.0
C1339 C 0.34735 0.89715 1.00869 0.0
H1340 H 0.71722 0.1677 0.04459 0.0
H1341 H 0.67558 0.22134 0.96716 0.0
H1342 H 0.63433 0.1805 0.96022 0.0
H1343 H 0.60678 0.13206 0.97959 0.0
H1344 H 0.64936 0.07659 0.05511 0.0
H1345 H 0.69324 0.11527 0.05956 0.0
C1346 C 0.69973 0.16979 0.02558 0.0
C1347 C 0.69951 0.19736 1.00629 0.0
C1348 C 0.67573 0.14621 0.02189 0.0
C1349 C 0.67634 0.20013 0.98208 0.0
C1350 C 0.65253 0.17698 0.97833 0.0
C1351 C 0.62578 0.12846 0.99689 0.0
C1352 C 0.62465 0.1018 0.01731 0.0
C1353 C 0.65137 0.15041 0.99872 0.0
C1354 C 0.6497 0.09702 0.03923 0.0
C1355 C 0.67481 0.11914 0.04176 0.0
H1356 H 0.55646 0.70677 0.86189 0.0
H1357 H 0.49826 0.66149 0.79038 0.0
H1358 H 0.48952 0.61545 0.82618 0.0
H1359 H 0.4986 0.58827 0.87878 0.0
H1360 H 0.55348 0.6377 0.95051 0.0
H1361 H 0.56347 0.68159 0.91383 0.0
C1362 C 0.54186 0.68678 0.85409 0.0
C1363 C 0.52819 0.68742 0.82352 0.0
C1364 C 0.53643 0.66102 0.87496 0.0
C1365 C 0.50905 0.66156 0.81383 0.0
C1366 C 0.50413 0.63523 0.83431 0.0
C1367 C 0.51282 0.60862 0.88623 0.0
C1368 C 0.52553 0.60942 0.91743 0.0
C1369 C 0.51773 0.63467 0.86505 0.0
C1370 C 0.5435 0.63625 0.92679 0.0
C1371 C 0.54923 0.66149 0.90577 0.0
H1372 H 0.34338 0.47308 0.82428 0.0
H1373 H 0.31485 0.57101 0.839 0.0
H1374 H 0.35763 0.57784 0.87834 0.0
H1375 H 0.39868 0.55359 0.91352 0.0
H1376 H 0.4275 0.45573 0.89844 0.0
H1377 H 0.38902 0.45086 0.8546 0.0
C1378 C 0.34757 0.49625 0.83512 0.0
C1379 C 0.32659 0.52172 0.8284 0.0
C1380 C 0.37152 0.4996 0.85845 0.0
C1381 C 0.33136 0.55139 0.84331 0.0
C1382 C 0.3554 0.55509 0.86621 0.0
C1383 C 0.39645 0.53134 0.90045 0.0
C1384 C 0.41513 0.50481 0.90935 0.0
C1385 C 0.37478 0.52899 0.87487 0.0
C1386 C 0.41282 0.47622 0.89207 0.0
C1387 C 0.39101 0.47352 0.86697 0.0
H1388 H 0.465 0.3134 0.85337 0.0
H1389 H 0.54975 0.34102 0.80097 0.0
H1390 H 0.55541 0.3886 0.83484 0.0
H1391 H 0.54005 0.41815 0.88431 0.0
H1392 H 0.45863 0.38545 0.93901 0.0
H1393 H 0.44824 0.34364 0.89999 0.0
C1394 C 0.48449 0.33009 0.84906 0.0
C1395 C 0.50713 0.32351 0.82495 0.0
C1396 C 0.48864 0.35601 0.86972 0.0
C1397 C 0.53192 0.3456 0.81927 0.0
C1398 C 0.53541 0.37253 0.83896 0.0
C1399 C 0.51999 0.4019 0.88743 0.0
C1400 C 0.50044 0.40432 0.91484 0.0
C1401 C 0.51461 0.37729 0.86507 0.0
C1402 C 0.47443 0.38337 0.91861 0.0
C1403 C 0.46831 0.3597 0.89613 0.0
H1404 H 0.71035 0.45417 0.86019 0.0
H1405 H 0.6781 0.53294 0.80176 0.0
H1406 H 0.63034 0.5389 0.83575 0.0
H1407 H 0.60155 0.52602 0.88635 0.0
H1408 H 0.63994 0.45276 0.94822 0.0
H1409 H 0.68225 0.44125 0.90945 0.0
C1410 C 0.69285 0.47267 0.85474 0.0
C1411 C 0.69821 0.49346 0.82873 0.0
C1412 C 0.66702 0.47753 0.87568 0.0
C1413 C 0.67467 0.51653 0.8215 0.0
C1414 C 0.64761 0.52028 0.84129 0.0
C1415 C 0.61921 0.50752 0.8912 0.0
C1416 C 0.61789 0.49046 0.92024 0.0
C1417 C 0.64419 0.5017 0.86914 0.0
C1418 C 0.64083 0.46657 0.92632 0.0
C1419 C 0.66483 0.45979 0.90404 0.0
H1420 H 0.502 0.35008 0.22629 0.0
H1421 H 0.5841 0.30453 0.18288 0.0
H1422 H 0.57495 0.33407 0.13343 0.0
H1423 H 0.54606 0.376 0.10343 0.0
H1424 H 0.46727 0.4256 0.14834 0.0
H1425 H 0.47228 0.39155 0.19567 0.0
C1426 C 0.51761 0.34648 0.20586 0.0
C1427 C 0.5437 0.32514 0.20826 0.0
C1428 C 0.51278 0.36442 0.17759 0.0
C1429 C 0.56396 0.32095 0.18169 0.0
C1430 C 0.55871 0.33781 0.15333 0.0
C1431 C 0.52959 0.37881 0.12333 0.0
C1432 C 0.50609 0.403 0.12223 0.0
C1433 C 0.53351 0.36 0.15109 0.0
C1434 C 0.48544 0.40697 0.14855 0.0
C1435 C 0.48838 0.38759 0.17571 0.0
H1436 H 0.69565 0.55569 0.18516 0.0
H1437 H 0.6767 0.46761 0.23537 0.0
H1438 H 0.62897 0.45866 0.20227 0.0
H1439 H 0.59732 0.47244 0.15362 0.0
H1440 H 0.62133 0.55785 0.10101 0.0
H1441 H 0.66279 0.57108 0.13981 0.0
C1442 C 0.68075 0.53477 0.1892 0.0
C1443 C 0.68985 0.51216 0.21236 0.0
C1444 C 0.65476 0.52893 0.16897 0.0
C1445 C 0.67011 0.48543 0.21775 0.0
C1446 C 0.64311 0.4801 0.1985 0.0
C1447 C 0.61159 0.49399 0.151 0.0
C1448 C 0.60703 0.5139 0.12429 0.0
C1449 C 0.63598 0.50105 0.17317 0.0
C1450 C 0.62526 0.54188 0.121 0.0
C1451 C 0.64868 0.54956 0.1433 0.0
H1452 H 0.46047 0.69875 0.17651 0.0
H1453 H 0.54265 0.67241 0.23316 0.0
H1454 H 0.55013 0.62405 0.20075 0.0
H1455 H 0.53712 0.59307 0.15158 0.0
H1456 H 0.45867 0.62459 0.09245 0.0
H1457 H 0.44638 0.66762 0.1298 0.0
C1458 C 0.47991 0.68229 0.18198 0.0
C1459 C 0.50126 0.68943 0.2069 0.0
C1460 C 0.48518 0.6559 0.16215 0.0
C1461 C 0.52582 0.66746 0.21417 0.0
C1462 C 0.53036 0.64006 0.19533 0.0
C1463 C 0.51732 0.60938 0.14715 0.0
C1464 C 0.49912 0.60628 0.11909 0.0
C1465 C 0.51089 0.63466 0.16851 0.0
C1466 C 0.47341 0.62724 0.11349 0.0
C1467 C 0.46621 0.65158 0.13498 0.0
H1468 H 0.30988 0.46385 0.17574 0.0
H1469 H 0.36561 0.50876 0.24941 0.0
H1470 H 0.40687 0.52361 0.20992 0.0
H1471 H 0.42804 0.52117 0.15454 0.0
H1472 H 0.36936 0.47954 0.08085 0.0
H1473 H 0.32814 0.46633 0.1201 0.0
C1474 C 0.33103 0.47706 0.18306 0.0
C1475 C 0.33505 0.48491 0.21536 0.0
C1476 C 0.35403 0.48607 0.1602 0.0
C1477 C 0.36215 0.50244 0.22463 0.0
C1478 C 0.3857 0.51082 0.20207 0.0
C1479 C 0.40609 0.50947 0.14706 0.0
C1480 C 0.402 0.50106 0.11475 0.0
C1481 C 0.38207 0.50241 0.1698 0.0
C1482 C 0.37322 0.48629 0.10544 0.0
C1483 C 0.34964 0.47859 0.12793 0.0
H1484 H 0.80181 0.49659 0.67731 0.0
H1485 H 0.85631 0.56331 0.7336 0.0
H1486 H 0.90254 0.55688 0.69829 0.0
H1487 H 0.92723 0.53381 0.65032 0.0
H1488 H 0.87193 0.47022 0.59128 0.0
H1489 H 0.82665 0.47373 0.62848 0.0
C1490 C 0.82387 0.50957 0.6818 0.0
C1491 C 0.82567 0.53037 0.70805 0.0
C1492 C 0.85033 0.50632 0.66084 0.0
C1493 C 0.8543 0.54726 0.71346 0.0
C1494 C 0.88081 0.54354 0.69333 0.0
C1495 C 0.90541 0.52043 0.64581 0.0
C1496 C 0.90308 0.50164 0.61817 0.0
C1497 C 0.87909 0.52331 0.66682 0.0
C1498 C 0.87437 0.48491 0.61238 0.0
C1499 C 0.84842 0.48691 0.63365 0.0
H1500 H 0.54861 0.84573 0.70749 0.0
H1501 H 0.46654 0.7898 0.67995 0.0
H1502 H 0.46174 0.82135 0.63048 0.0
H1503 H 0.47729 0.86981 0.59847 0.0
H1504 H 0.55688 0.92723 0.63062 0.0
H1505 H 0.56615 0.89048 0.67475 0.0
C1506 C 0.52996 0.84008 0.69039 0.0
C1507 C 0.50783 0.81563 0.69746 0.0
C1508 C 0.52661 0.85909 0.663 0.0
C1509 C 0.48398 0.80839 0.67498 0.0
C1510 C 0.48104 0.82671 0.64689 0.0
C1511 C 0.49687 0.87387 0.61495 0.0
C1512 C 0.5162 0.9014 0.61148 0.0
C1513 C 0.5016 0.85288 0.64113 0.0
C1514 C 0.54142 0.9065 0.63304 0.0
C1515 C 0.54682 0.88543 0.65825 0.0
H1516 H 0.16918 0.45601 0.71484 0.0
H1517 H 0.23556 0.52582 0.67769 0.0
H1518 H 0.19843 0.53781 0.63369 0.0
H1519 H 0.14626 0.52831 0.60606 0.0
H1520 H 0.07941 0.46062 0.64686 0.0
H1521 H 0.11739 0.448 0.68905 0.0
C1522 C 0.17556 0.47381 0.69704 0.0
C1523 C 0.20506 0.48986 0.69934 0.0
C1524 C 0.15387 0.48101 0.67249 0.0
C1525 C 0.21294 0.51313 0.67638 0.0
C1526 C 0.19171 0.51994 0.65125 0.0
C1527 C 0.14013 0.51082 0.62422 0.0
C1528 C 0.10997 0.49551 0.62332 0.0
C1529 C 0.162 0.50405 0.64907 0.0
C1530 C 0.10225 0.47304 0.64714 0.0
C1531 C 0.12402 0.46566 0.67125 0.0
H1532 H 0.54619 0.1558 0.72135 0.0
H1533 H 0.51115 0.2362 0.66716 0.0
H1534 H 0.50053 0.20081 0.62153 0.0
H1535 H 0.50255 0.14651 0.59693 0.0
H1536 H 0.53369 0.06646 0.65459 0.0
H1537 H 0.5444 0.1021 0.69884 0.0
C1538 C 0.53617 0.16557 0.69953 0.0
C1539 C 0.52973 0.19849 0.6974 0.0
C1540 C 0.52947 0.14507 0.67399 0.0
C1541 C 0.51632 0.21087 0.66926 0.0
C1542 C 0.51033 0.19064 0.64322 0.0
C1543 C 0.5116 0.13692 0.61921 0.0
C1544 C 0.51767 0.10376 0.62211 0.0
C1545 C 0.51701 0.15763 0.64524 0.0
C1546 C 0.52893 0.09175 0.6514 0.0
C1547 C 0.53512 0.11215 0.67686 0.0
H1548 H 0.858 0.46444 0.31557 0.0
H1549 H 0.78187 0.51439 0.36448 0.0
H1550 H 0.8174 0.52313 0.41039 0.0
H1551 H 0.871 0.51692 0.43618 0.0
H1552 H 0.94709 0.46971 0.3841 0.0
H1553 H 0.91081 0.45957 0.34 0.0
C1554 C 0.84914 0.47716 0.33636 0.0
C1555 C 0.81742 0.48861 0.33679 0.0
C1556 C 0.86981 0.48265 0.36208 0.0
C1557 C 0.80626 0.50534 0.36365 0.0
C1558 C 0.82658 0.51031 0.38986 0.0
C1559 C 0.87951 0.50437 0.41518 0.0
C1560 C 0.91178 0.49411 0.41348 0.0
C1561 C 0.85851 0.49914 0.38932 0.0
C1562 C 0.92253 0.47811 0.38599 0.0
C1563 C 0.90175 0.47218 0.36073 0.0
H1564 H 0.54864 0.85487 0.31148 0.0
H1565 H 0.49556 0.78108 0.36036 0.0
H1566 H 0.48386 0.81828 0.40428 0.0
H1567 H 0.48936 0.87222 0.42875 0.0
H1568 H 0.54037 0.9459 0.37694 0.0
H1569 H 0.55199 0.90844 0.33419 0.0
C1570 C 0.53453 0.84692 0.3318 0.0
C1571 C 0.52317 0.81531 0.33288 0.0
C1572 C 0.5274 0.86852 0.35637 0.0
C1573 C 0.5046 0.80534 0.35907 0.0
C1574 C 0.49794 0.82661 0.38414 0.0
C1575 C 0.5029 0.88005 0.40804 0.0
C1576 C 0.51385 0.91195 0.40612 0.0
C1577 C 0.50926 0.85833 0.38306 0.0
C1578 C 0.53126 0.9217 0.379 0.0
C1579 C 0.53813 0.90022 0.35454 0.0
H1580 H 0.1646 0.5405 0.31469 0.0
H1581 H 0.23034 0.47281 0.3569 0.0
H1582 H 0.19895 0.4735 0.40649 0.0
H1583 H 0.14927 0.48942 0.43606 0.0
H1584 H 0.08256 0.55434 0.39097 0.0
H1585 H 0.11756 0.55841 0.34452 0.0
C1586 C 0.17217 0.52585 0.3347 0.0
C1587 C 0.19964 0.50629 0.33174 0.0
C1588 C 0.15354 0.52568 0.36271 0.0
C1589 C 0.20942 0.48819 0.35838 0.0
C1590 C 0.19127 0.48838 0.38671 0.0
C1591 C 0.14276 0.50482 0.41625 0.0
C1592 C 0.11321 0.52143 0.41695 0.0
C1593 C 0.1628 0.50647 0.38894 0.0
C1594 C 0.10497 0.54108 0.39095 0.0
C1595 C 0.12499 0.54345 0.36433 0.0
H1596 H 0.54602 0.20849 0.34964 0.0
H1597 H 0.46569 0.16946 0.29821 0.0
H1598 H 0.458 0.1288 0.33937 0.0
H1599 H 0.47711 0.10094 0.3876 0.0
H1600 H 0.55541 0.14105 0.44112 0.0
H1601 H 0.56102 0.18423 0.40184 0.0
C1602 C 0.52626 0.19169 0.34802 0.0
C1603 C 0.50649 0.19203 0.32082 0.0
C1604 C 0.52209 0.16796 0.37185 0.0
C1605 C 0.48122 0.16976 0.3189 0.0
C1606 C 0.47698 0.14626 0.3423 0.0
C1607 C 0.49534 0.1192 0.39064 0.0
C1608 C 0.51614 0.11749 0.41694 0.0
C1609 C 0.49786 0.14448 0.36839 0.0
C1610 C 0.53921 0.14172 0.42095 0.0
C1611 C 0.54241 0.16647 0.3985 0.0
H1612 H 0.67227 0.80617 0.47819 0.0
H1613 H 0.71877 0.83941 0.5635 0.0
H1614 H 0.67774 0.88069 0.57031 0.0
H1615 H 0.63131 0.91088 0.54934 0.0
H1616 H 0.58246 0.87642 0.46589 0.0
H1617 H 0.62143 0.83258 0.46084 0.0
C1618 C 0.67274 0.82177 0.4988 0.0
C1619 C 0.69852 0.81953 0.52041 0.0
C1620 C 0.649 0.84589 0.50245 0.0
C1621 C 0.69907 0.84042 0.5467 0.0
C1622 C 0.67579 0.86432 0.55041 0.0
C1623 C 0.62921 0.89368 0.53013 0.0
C1624 C 0.60436 0.89719 0.50772 0.0
C1625 C 0.65118 0.86795 0.52794 0.0
C1626 C 0.60151 0.87434 0.48332 0.0
C1627 C 0.62378 0.84922 0.48047 0.0
H1628 H 0.72088 0.15569 0.5386 0.0
H1629 H 0.6705 0.22827 0.48501 0.0
H1630 H 0.62227 0.19448 0.48446 0.0
H1631 H 0.59577 0.14227 0.49614 0.0
H1632 H 0.6494 0.06894 0.54566 0.0
H1633 H 0.69528 0.10474 0.55 0.0
C1634 C 0.69954 0.16415 0.52639 0.0
C1635 C 0.69969 0.19435 0.51128 0.0
C1636 C 0.67253 0.14419 0.52513 0.0
C1637 C 0.67121 0.2052 0.49681 0.0
C1638 C 0.6437 0.18573 0.49627 0.0
C1639 C 0.61748 0.13425 0.50799 0.0
C1640 C 0.61919 0.10283 0.52039 0.0
C1641 C 0.64426 0.15488 0.50986 0.0
C1642 C 0.64753 0.09277 0.53555 0.0
C1643 C 0.67376 0.1133 0.5382 0.0
H1644 H 0.79031 0.64946 0.51774 0.0
H1645 H 0.84681 0.7183 0.46558 0.0
H1646 H 0.89558 0.68725 0.47568 0.0
H1647 H 0.92192 0.63846 0.49605 0.0
H1648 H 0.86477 0.5667 0.54354 0.0
H1649 H 0.81709 0.60062 0.5389 0.0
C1650 C 0.81342 0.65781 0.50912 0.0
C1651 C 0.81501 0.68631 0.49124 0.0
C1652 C 0.84139 0.63906 0.51397 0.0
C1653 C 0.84501 0.69652 0.47957 0.0
C1654 C 0.87293 0.67873 0.48526 0.0
C1655 C 0.89912 0.63039 0.50566 0.0
C1656 C 0.89707 0.59997 0.52004 0.0
C1657 C 0.8714 0.64964 0.50194 0.0
C1658 C 0.86713 0.58989 0.53215 0.0
C1659 C 0.83975 0.60932 0.52952 0.0
H1660 H 0.31034 0.84997 0.46126 0.0
H1661 H 0.36074 0.77822 0.51562 0.0
H1662 H 0.40105 0.81813 0.53128 0.0
H1663 H 0.42297 0.87319 0.52734 0.0
H1664 H 0.36983 0.94525 0.47561 0.0
H1665 H 0.32929 0.90562 0.46143 0.0
C1666 C 0.33013 0.84315 0.47664 0.0
C1667 C 0.33292 0.81122 0.487 0.0
C1668 C 0.35258 0.86632 0.48606 0.0
C1669 C 0.35824 0.80267 0.50732 0.0
C1670 C 0.38125 0.82548 0.5162 0.0
C1671 C 0.40236 0.88024 0.51318 0.0
C1672 C 0.39954 0.91216 0.50241 0.0
C1673 C 0.37884 0.85733 0.50542 0.0
C1674 C 0.37252 0.92098 0.48439 0.0
C1675 C 0.34942 0.89826 0.47608 0.0
H1676 H 0.21501 0.34402 0.49138 0.0
H1677 H 0.16321 0.28439 0.5579 0.0
H1678 H 0.12256 0.32586 0.56475 0.0
H1679 H 0.09905 0.37727 0.54877 0.0
H1680 H 0.15099 0.43895 0.48436 0.0
H1681 H 0.19394 0.3989 0.47976 0.0
C1682 C 0.19522 0.34053 0.50788 0.0
C1683 C 0.19204 0.311 0.5239 0.0
C1684 C 0.17156 0.3647 0.51171 0.0
C1685 C 0.16611 0.30679 0.54513 0.0
C1686 C 0.14271 0.33044 0.54896 0.0
C1687 C 0.11984 0.38199 0.53382 0.0
C1688 C 0.12159 0.41087 0.51664 0.0
C1689 C 0.14469 0.35913 0.53177 0.0
C1690 C 0.149 0.41687 0.49782 0.0
C1691 C 0.17358 0.39392 0.49514 0.0
H1692 H 0.35559 0.22095 0.51738 0.0
H1693 H 0.29551 0.16477 0.57987 0.0
H1694 H 0.33044 0.11835 0.57252 0.0
H1695 H 0.37892 0.09376 0.54953 0.0
H1696 H 0.44183 0.15068 0.49056 0.0
H1697 H 0.40525 0.1964 0.49519 0.0
C1698 C 0.35019 0.19849 0.52923 0.0
C1699 C 0.32294 0.19626 0.54905 0.0
C1700 C 0.37097 0.17192 0.52554 0.0
C1701 C 0.3164 0.1671 0.56454 0.0
C1702 C 0.33632 0.14049 0.56032 0.0
C1703 C 0.38445 0.11609 0.53746 0.0
C1704 C 0.41295 0.11871 0.51957 0.0
C1705 C 0.36377 0.14261 0.541 0.0
C1706 C 0.42006 0.14803 0.50454 0.0
C1707 C 0.39912 0.17421 0.50716 0.0
H1708 H 0.85082 0.30589 0.55732 0.0
H1709 H 0.77955 0.36049 0.50636 0.0
H1710 H 0.82011 0.40112 0.49304 0.0
H1711 H 0.87553 0.42193 0.49806 0.0
H1712 H 0.94707 0.36508 0.54665 0.0
H1713 H 0.90686 0.32419 0.55829 0.0
C1714 C 0.84424 0.32669 0.54322 0.0
C1715 C 0.81227 0.33054 0.53315 0.0
C1716 C 0.86777 0.34937 0.53514 0.0
C1717 C 0.80403 0.35719 0.51445 0.0
C1718 C 0.8272 0.38036 0.50689 0.0
C1719 C 0.88237 0.40046 0.51096 0.0
C1720 C 0.9143 0.39668 0.52161 0.0
C1721 C 0.85911 0.37684 0.51738 0.0
C1722 C 0.92281 0.36855 0.53799 0.0
C1723 C 0.89975 0.34524 0.54487 0.0
H1724 H 0.15842 0.71845 0.54082 0.0
H1725 H 0.22692 0.66964 0.48059 0.0
H1726 H 0.19387 0.62119 0.48273 0.0
H1727 H 0.14281 0.59415 0.49799 0.0
H1728 H 0.0726 0.64615 0.55347 0.0
H1729 H 0.10851 0.69211 0.55598 0.0
C1730 C 0.16616 0.69738 0.52781 0.0
C1731 C 0.19504 0.69814 0.51007 0.0
C1732 C 0.14636 0.6702 0.52792 0.0
C1733 C 0.20499 0.66997 0.49454 0.0
C1734 C 0.18586 0.64229 0.49547 0.0
C1735 C 0.13552 0.61549 0.51079 0.0
C1736 C 0.10492 0.61672 0.5254 0.0
C1737 C 0.15611 0.64235 0.51151 0.0
C1738 C 0.09578 0.64464 0.54171 0.0
C1739 C 0.11638 0.67092 0.54329 0.0
loop_
_geom_bond_atom_site_label_1
_geom_bond_atom_site_label_2
_geom_bond_distance
_geom_bond_site_symmetry_2
_ccdc_geom_bond_type
H0 C5 0.935 . S
H1 C8 0.929 1_655 S
H2 C10 0.930 . S
H3 C4 1.016 . S
C4 H3 1.016 . S
C4 N11 1.286 1_455 S
C5 H0 0.935 . S
C5 C6 1.391 1_655 S
C5 C7 1.363 . S
C6 C5 1.391 1_455 S
C6 C10 1.390 . S
C7 C5 1.363 . S
C7 C8 1.392 1_655 S
C7 N11 1.413 . S
C8 H1 0.929 1_455 S
C8 C7 1.392 1_455 S
C8 C9 1.400 . S
C9 C8 1.400 . S
C9 C10 1.381 . S
C10 H2 0.930 . S
C10 C6 1.390 . S
C10 C9 1.381 . S
N11 C4 1.286 1_655 S
N11 C7 1.413 . S
H12 C17 0.930 . S
H13 C20 0.930 . S
H14 C22 0.930 . S
H15 C16 1.023 . S
C16 H15 1.023 . S
C16 N23 1.277 1_565 S
C17 H12 0.930 . S
C17 C18 1.397 . S
C17 C19 1.361 . S
C18 C17 1.397 . S
C18 C22 1.390 1_545 S
C19 C17 1.361 . S
C19 C20 1.393 . S
C19 N23 1.413 . S
C20 H13 0.930 . S
C20 C19 1.393 . S
C20 C21 1.399 . S
C21 C20 1.399 . S
C21 C22 1.381 1_545 S
C22 H14 0.930 . S
C22 C18 1.390 1_565 S
C22 C21 1.381 1_565 S
N23 C16 1.277 1_545 S
N23 C19 1.413 . S
H24 C29 0.930 . S
H25 C32 0.928 1_655 S
H26 C34 0.930 . S
H27 C28 1.016 . S
C28 H27 1.016 . S
C28 N35 1.286 1_455 S
C29 H24 0.930 . S
C29 C30 1.397 1_655 S
C29 C31 1.361 . S
C30 C29 1.397 1_455 S
C30 C34 1.390 . S
C31 C29 1.361 . S
C31 C32 1.391 1_655 S
C31 N35 1.413 . S
C32 H25 0.928 1_455 S
C32 C31 1.391 1_455 S
C32 C33 1.403 . S
C33 C32 1.403 . S
C33 C34 1.381 . S
C34 H26 0.930 . S
C34 C30 1.390 . S
C34 C33 1.381 . S
N35 C28 1.286 1_655 S
N35 C31 1.413 . S
H36 C41 0.930 . S
H37 C44 0.930 . S
H38 C46 0.930 . S
H39 C40 1.016 . S
C40 H39 1.016 . S
C40 N47 1.286 1_545 S
C41 H36 0.930 . S
C41 C42 1.397 . S
C41 C43 1.361 . S
C42 C41 1.397 . S
C42 C46 1.390 1_565 S
C43 C41 1.361 . S
C43 C44 1.393 . S
C43 N47 1.413 . S
C44 H37 0.930 . S
C44 C43 1.393 . S
C44 C45 1.401 . S
C45 C44 1.401 . S
C45 C46 1.380 1_565 S
C46 H38 0.930 . S
C46 C42 1.390 1_545 S
C46 C45 1.380 1_545 S
N47 C40 1.286 1_565 S
N47 C43 1.413 . S
H48 C53 0.936 . S
H49 C56 0.930 1_655 S
H50 C58 0.930 . S
H51 C52 1.016 . S
C52 H51 1.016 . S
C52 N59 1.286 1_455 S
C53 H48 0.936 . S
C53 C54 1.390 1_655 S
C53 C55 1.364 . S
C54 C53 1.390 1_455 S
C54 C58 1.390 . S
C55 C53 1.364 . S
C55 C56 1.393 1_655 S
C55 N59 1.413 . S
C56 H49 0.930 1_455 S
C56 C55 1.393 1_455 S
C56 C57 1.400 . S
C57 C56 1.400 . S
C57 C58 1.381 . S
C58 H50 0.930 . S
C58 C54 1.390 . S
C58 C57 1.381 . S
N59 C52 1.286 1_655 S
N59 C55 1.413 . S
H60 C65 0.930 . S
H61 C68 0.930 . S
H62 C70 0.930 . S
H63 C64 1.026 . S
C64 H63 1.026 . S
C64 N71 1.272 1_565 S
C65 H60 0.930 . S
C65 C66 1.397 . S
C65 C67 1.361 . S
C66 C65 1.397 . S
C66 C70 1.390 1_545 S
C67 C65 1.361 . S
C67 C68 1.393 . S
C67 N71 1.413 . S
C68 H61 0.930 . S
C68 C67 1.393 . S
C68 C69 1.404 . S
C69 C68 1.404 . S
C69 C70 1.378 1_545 S
C70 H62 0.930 . S
C70 C66 1.390 1_565 S
C70 C69 1.378 1_565 S
N71 C64 1.272 1_545 S
N71 C67 1.413 . S
H72 C77 0.930 . S
H73 C80 0.928 1_655 S
H74 C82 0.930 . S
H75 C76 1.016 . S
C76 H75 1.016 . S
C76 N83 1.286 1_455 S
C77 H72 0.930 . S
C77 C78 1.397 1_655 S
C77 C79 1.361 . S
C78 C77 1.397 1_455 S
C78 C82 1.390 . S
C79 C77 1.361 . S
C79 C80 1.391 1_655 S
C79 N83 1.413 . S
C80 H73 0.928 1_455 S
C80 C79 1.391 1_455 S
C80 C81 1.403 . S
C81 C80 1.403 . S
C81 C82 1.381 . S
C82 H74 0.930 . S
C82 C78 1.390 . S
C82 C81 1.381 . S
N83 C76 1.286 1_655 S
N83 C79 1.413 . S
H84 C89 0.930 . S
H85 C92 0.930 . S
H86 C94 0.930 . S
H87 C88 1.026 . S
C88 H87 1.026 . S
C88 N95 1.272 1_565 S
C89 H84 0.930 . S
C89 C90 1.397 . S
C89 C91 1.361 . S
C90 C89 1.397 . S
C90 C94 1.390 1_545 S
C91 C89 1.361 . S
C91 C92 1.393 . S
C91 N95 1.413 . S
C92 H85 0.930 . S
C92 C91 1.393 . S
C92 C93 1.404 . S
C93 C92 1.404 . S
C93 C94 1.378 1_545 S
C94 H86 0.930 . S
C94 C90 1.390 1_565 S
C94 C93 1.378 1_565 S
N95 C88 1.272 1_545 S
N95 C91 1.413 . S
H96 C101 0.930 . S
H97 C104 0.930 . S
H98 C106 0.939 . S
H99 C100 1.016 1_556 S
C100 H99 1.016 1_554 S
C100 N107 1.286 . S
C101 H96 0.930 . S
C101 C102 1.397 . S
C101 C103 1.361 . S
C102 C101 1.397 . S
C102 C106 1.390 . S
C103 C101 1.361 . S
C103 C104 1.393 . S
C103 N107 1.413 . S
C104 H97 0.930 . S
C104 C103 1.393 . S
C104 C105 1.399 . S
C105 C104 1.399 . S
C105 C106 1.381 . S
C106 H98 0.939 . S
C106 C102 1.390 . S
C106 C105 1.381 . S
N107 C100 1.286 . S
N107 C103 1.413 . S
H108 C113 0.927 1_556 S
H109 C116 0.930 1_556 S
H110 C118 0.930 . S
H111 C112 1.016 . S
C112 H111 1.016 . S
C112 N119 1.286 1_554 S
C113 H108 0.927 1_554 S
C113 C114 1.401 . S
C113 C115 1.360 1_554 S
C114 C113 1.401 . S
C114 C118 1.390 . S
C115 C113 1.360 1_556 S
C115 C116 1.393 1_556 S
C115 N119 1.413 . S
C116 H109 0.930 1_554 S
C116 C115 1.393 1_554 S
C116 C117 1.399 . S
C117 C116 1.399 . S
C117 C118 1.381 . S
C118 H110 0.930 . S
C118 C114 1.390 . S
C118 C117 1.381 . S
N119 C112 1.286 1_556 S
N119 C115 1.413 . S
H120 C125 0.930 . S
H121 C128 0.930 . S
H122 C130 0.929 1_556 S
H123 C124 1.019 . S
C124 H123 1.019 . S
C124 N131 1.286 . S
C125 H120 0.930 . S
C125 C126 1.397 . S
C125 C127 1.361 . S
C126 C125 1.397 . S
C126 C130 1.390 . S
C127 C125 1.361 . S
C127 C128 1.393 . S
C127 N131 1.413 . S
C128 H121 0.930 . S
C128 C127 1.393 . S
C128 C129 1.399 . S
C129 C128 1.399 . S
C129 C130 1.381 . S
C130 H122 0.929 1_554 S
C130 C126 1.390 . S
C130 C129 1.381 . S
N131 C124 1.286 . S
N131 C127 1.413 . S
H132 C137 0.927 1_556 S
H133 C140 0.933 . S
H134 C142 0.930 . S
H135 C136 1.016 . S
C136 H135 1.016 . S
C136 N143 1.286 1_554 S
C137 H132 0.927 1_554 S
C137 C138 1.400 . S
C137 C139 1.361 1_554 S
C138 C137 1.400 . S
C138 C142 1.390 . S
C139 C137 1.361 1_556 S
C139 C140 1.392 1_556 S
C139 N143 1.415 . S
C140 H133 0.933 . S
C140 C139 1.392 1_554 S
C140 C141 1.399 . S
C141 C140 1.399 . S
C141 C142 1.381 . S
C142 H134 0.930 . S
C142 C138 1.390 . S
C142 C141 1.381 . S
N143 C136 1.286 1_556 S
N143 C139 1.415 . S
H144 C149 0.930 . S
H145 C152 0.930 . S
H146 C154 0.930 . S
H147 C148 1.016 . S
C148 H147 1.016 . S
C148 N155 1.286 . S
C149 H144 0.930 . S
C149 C150 1.397 . S
C149 C151 1.361 . S
C150 C149 1.397 . S
C150 C154 1.390 . S
C151 C149 1.361 . S
C151 C152 1.393 . S
C151 N155 1.413 . S
C152 H145 0.930 . S
C152 C151 1.393 . S
C152 C153 1.399 . S
C153 C152 1.399 . S
C153 C154 1.381 . S
C154 H146 0.930 . S
C154 C150 1.390 . S
C154 C153 1.381 . S
N155 C148 1.286 . S
N155 C151 1.413 . S
H156 C161 0.930 . S
H157 C164 0.930 . S
H158 C166 0.930 . S
H159 C160 1.016 . S
C160 H159 1.016 . S
C160 N167 1.286 . S
C161 H156 0.930 . S
C161 C162 1.397 . S
C161 C163 1.361 . S
C162 C161 1.397 . S
C162 C166 1.390 . S
C163 C161 1.361 . S
C163 C164 1.393 . S
C163 N167 1.413 . S
C164 H157 0.930 . S
C164 C163 1.393 . S
C164 C165 1.399 . S
C165 C164 1.399 . S
C165 C166 1.381 . S
C166 H158 0.930 . S
C166 C162 1.390 . S
C166 C165 1.381 . S
N167 C160 1.286 . S
N167 C163 1.413 . S
H168 C173 0.930 . S
H169 C176 0.930 . S
H170 C178 0.930 . S
H171 C172 1.016 . S
C172 H171 1.016 . S
C172 N179 1.286 . S
C173 H168 0.930 . S
C173 C174 1.397 . S
C173 C175 1.361 . S
C174 C173 1.397 . S
C174 C178 1.390 . S
C175 C173 1.361 . S
C175 C176 1.393 . S
C175 N179 1.413 . S
C176 H169 0.930 . S
C176 C175 1.393 . S
C176 C177 1.399 . S
C177 C176 1.399 . S
C177 C178 1.381 . S
C178 H170 0.930 . S
C178 C174 1.390 . S
C178 C177 1.381 . S
N179 C172 1.286 . S
N179 C175 1.413 . S
H180 C185 0.930 . S
H181 C188 0.930 . S
H182 C190 0.930 . S
H183 C184 1.016 . S
C184 H183 1.016 . S
C184 N191 1.286 . S
C185 H180 0.930 . S
C185 C186 1.397 . S
C185 C187 1.361 . S
C186 C185 1.397 . S
C186 C190 1.390 . S
C187 C185 1.361 . S
C187 C188 1.393 . S
C187 N191 1.413 . S
C188 H181 0.930 . S
C188 C187 1.393 . S
C188 C189 1.399 . S
C189 C188 1.399 . S
C189 C190 1.381 . S
C190 H182 0.930 . S
C190 C186 1.390 . S
C190 C189 1.381 . S
N191 C184 1.286 . S
N191 C187 1.413 . S
H192 C197 0.930 . S
H193 C200 0.930 . S
H194 C202 0.930 . S
H195 C196 1.016 . S
C196 H195 1.016 . S
C196 N203 1.286 . S
C197 H192 0.930 . S
C197 C198 1.397 . S
C197 C199 1.361 . S
C198 C197 1.397 . S
C198 C202 1.390 . S
C199 C197 1.361 . S
C199 C200 1.393 . S
C199 N203 1.413 . S
C200 H193 0.930 . S
C200 C199 1.393 . S
C200 C201 1.399 . S
C201 C200 1.399 . S
C201 C202 1.381 . S
C202 H194 0.930 . S
C202 C198 1.390 . S
C202 C201 1.381 . S
N203 C196 1.286 . S
N203 C199 1.413 . S
H204 C209 0.930 . S
H205 C212 0.930 . S
H206 C214 0.930 . S
H207 C208 1.016 . S
C208 H207 1.016 . S
C208 N215 1.286 . S
C209 H204 0.930 . S
C209 C210 1.397 . S
C209 C211 1.361 . S
C210 C209 1.397 . S
C210 C214 1.390 . S
C211 C209 1.361 . S
C211 C212 1.393 . S
C211 N215 1.413 . S
C212 H205 0.930 . S
C212 C211 1.393 . S
C212 C213 1.399 . S
C213 C212 1.399 . S
C213 C214 1.381 . S
C214 H206 0.930 . S
C214 C210 1.390 . S
C214 C213 1.381 . S
N215 C208 1.286 . S
N215 C211 1.413 . S
H216 C221 0.930 . S
H217 C224 0.930 . S
H218 C226 0.930 . S
H219 C220 1.016 . S
C220 H219 1.016 . S
C220 N227 1.286 . S
C221 H216 0.930 . S
C221 C222 1.397 . S
C221 C223 1.361 . S
C222 C221 1.397 . S
C222 C226 1.390 . S
C223 C221 1.361 . S
C223 C224 1.393 . S
C223 N227 1.413 . S
C224 H217 0.930 . S
C224 C223 1.393 . S
C224 C225 1.399 . S
C225 C224 1.399 . S
C225 C226 1.381 . S
C226 H218 0.930 . S
C226 C222 1.390 . S
C226 C225 1.381 . S
N227 C220 1.286 . S
N227 C223 1.413 . S
H228 C233 0.930 . S
H229 C236 0.930 . S
H230 C238 0.930 . S
H231 C232 1.016 . S
C232 H231 1.016 . S
C232 N239 1.286 . S
C233 H228 0.930 . S
C233 C234 1.397 . S
C233 C235 1.361 . S
C234 C233 1.397 . S
C234 C238 1.390 . S
C235 C233 1.361 . S
C235 C236 1.393 . S
C235 N239 1.413 . S
C236 H229 0.930 . S
C236 C235 1.393 . S
C236 C237 1.399 . S
C237 C236 1.399 . S
C237 C238 1.381 . S
C238 H230 0.930 . S
C238 C234 1.390 . S
C238 C237 1.381 . S
N239 C232 1.286 . S
N239 C235 1.413 . S
H240 C245 0.930 . S
H241 C248 0.930 . S
H242 C250 0.930 . S
H243 C244 1.016 . S
C244 H243 1.016 . S
C244 N251 1.286 . S
C245 H240 0.930 . S
C245 C246 1.397 . S
C245 C247 1.361 . S
C246 C245 1.397 . S
C246 C250 1.390 . S
C247 C245 1.361 . S
C247 C248 1.393 . S
C247 N251 1.413 . S
C248 H241 0.930 . S
C248 C247 1.393 . S
C248 C249 1.399 . S
C249 C248 1.399 . S
C249 C250 1.381 . S
C250 H242 0.930 . S
C250 C246 1.390 . S
C250 C249 1.381 . S
N251 C244 1.286 . S
N251 C247 1.413 . S
H252 C257 0.930 . S
H253 C260 0.930 . S
H254 C262 0.930 . S
H255 C256 1.016 . S
C256 H255 1.016 . S
C256 N263 1.286 . S
C257 H252 0.930 . S
C257 C258 1.397 . S
C257 C259 1.361 . S
C258 C257 1.397 . S
C258 C262 1.390 . S
C259 C257 1.361 . S
C259 C260 1.393 . S
C259 N263 1.413 . S
C260 H253 0.930 . S
C260 C259 1.393 . S
C260 C261 1.399 . S
C261 C260 1.399 . S
C261 C262 1.381 . S
C262 H254 0.930 . S
C262 C258 1.390 . S
C262 C261 1.381 . S
N263 C256 1.286 . S
N263 C259 1.413 . S
H264 C269 0.930 . S
H265 C272 0.930 . S
H266 C274 0.930 . S
H267 C268 1.016 . S
C268 H267 1.016 . S
C268 N275 1.286 . S
C269 H264 0.930 . S
C269 C270 1.397 . S
C269 C271 1.361 . S
C270 C269 1.397 . S
C270 C274 1.390 . S
C271 C269 1.361 . S
C271 C272 1.393 . S
C271 N275 1.413 . S
C272 H265 0.930 . S
C272 C271 1.393 . S
C272 C273 1.399 . S
C273 C272 1.399 . S
C273 C274 1.381 . S
C274 H266 0.930 . S
C274 C270 1.390 . S
C274 C273 1.381 . S
N275 C268 1.286 . S
N275 C271 1.413 . S
H276 C281 0.930 . S
H277 C284 0.930 . S
H278 C286 0.930 . S
H279 C280 1.016 . S
C280 H279 1.016 . S
C280 N287 1.286 . S
C281 H276 0.930 . S
C281 C282 1.397 . S
C281 C283 1.361 . S
C282 C281 1.397 . S
C282 C286 1.390 . S
C283 C281 1.361 . S
C283 C284 1.393 . S
C283 N287 1.413 . S
C284 H277 0.930 . S
C284 C283 1.393 . S
C284 C285 1.399 . S
C285 C284 1.399 . S
C285 C286 1.381 . S
C286 H278 0.930 . S
C286 C282 1.390 . S
C286 C285 1.381 . S
N287 C280 1.286 . S
N287 C283 1.413 . S
C288 O314 1.283 . S
C288 O332 1.283 . S
C289 O315 1.283 . S
C289 O330 1.283 . S
C290 O316 1.283 . S
C290 O333 1.283 . S
C291 O317 1.283 . S
C291 O331 1.283 . S
C292 O318 1.283 . S
C292 O327 1.283 . S
C293 O319 1.283 . S
C293 O329 1.283 . S
C294 O320 1.283 . S
C294 O326 1.283 . S
C295 O321 1.283 . S
C295 O328 1.283 . S
C296 O322 1.283 . S
C296 O337 1.283 . S
C297 O323 1.283 . S
C297 O335 1.283 . S
C298 O324 1.283 . S
C298 O336 1.283 . S
C299 O325 1.283 . S
C299 O334 1.283 . S
Eu300 O301 2.370 1_455 S
Eu300 O302 2.370 . S
Eu300 O305 2.370 1_455 S
Eu300 O306 2.370 . S
Eu300 O314 2.363 . S
Eu300 O315 2.363 . S
Eu300 O328 2.363 . S
Eu300 O329 2.363 1_455 S
O301 Eu300 2.370 1_655 S
O301 Eu303 2.367 1_565 S
O301 Eu308 2.366 1_665 S
O302 Eu300 2.370 . S
O302 Eu304 2.367 1_565 S
O302 Eu307 2.367 1_565 S
Eu303 O301 2.367 1_545 S
Eu303 O305 2.367 1_545 S
Eu303 O309 2.374 . S
Eu303 O310 2.374 . S
Eu303 O318 2.369 . S
Eu303 O319 2.357 1_545 S
Eu303 O334 2.363 . S
Eu303 O335 2.363 . S
Eu304 O302 2.367 1_545 S
Eu304 O306 2.367 1_545 S
Eu304 O311 2.374 . S
Eu304 O312 2.374 . S
Eu304 O320 2.369 . S
Eu304 O321 2.357 1_545 S
Eu304 O336 2.363 . S
Eu304 O337 2.363 . S
O305 Eu300 2.370 1_655 S
O305 Eu303 2.367 1_565 S
O305 Eu307 2.367 1_665 S
O306 Eu300 2.370 . S
O306 Eu304 2.367 1_565 S
O306 Eu308 2.366 1_565 S
Eu307 O302 2.367 1_545 S
Eu307 O305 2.367 1_445 S
Eu307 O309 2.373 1_455 S
Eu307 O312 2.373 . S
Eu307 O324 2.363 . S
Eu307 O325 2.363 1_455 S
Eu307 O332 2.358 1_545 S
Eu307 O333 2.368 . S
Eu308 O301 2.366 1_445 S
Eu308 O306 2.366 1_545 S
Eu308 O310 2.374 1_455 S
Eu308 O311 2.374 . S
Eu308 O322 2.363 . S
Eu308 O323 2.363 1_455 S
Eu308 O330 2.356 1_545 S
Eu308 O331 2.370 . S
O309 Eu303 2.374 . S
O309 Eu307 2.373 1_655 S
O309 Eu313 2.370 1_655 S
O310 Eu303 2.374 . S
O310 Eu308 2.374 1_655 S
O310 Eu313 2.370 1_655 S
O311 Eu304 2.374 . S
O311 Eu308 2.374 . S
O311 Eu313 2.370 . S
O312 Eu304 2.374 . S
O312 Eu307 2.373 . S
O312 Eu313 2.370 . S
Eu313 O309 2.370 1_455 S
Eu313 O310 2.370 1_455 S
Eu313 O311 2.370 . S
Eu313 O312 2.370 . S
Eu313 O316 2.363 . S
Eu313 O317 2.363 . S
Eu313 O326 2.363 . S
Eu313 O327 2.363 1_455 S
O314 C288 1.283 . S
O314 Eu300 2.363 . S
O315 C289 1.283 . S
O315 Eu300 2.363 . S
O316 C290 1.283 . S
O316 Eu313 2.363 . S
O317 C291 1.283 . S
O317 Eu313 2.363 . S
O318 C292 1.283 . S
O318 Eu303 2.369 . S
O319 C293 1.283 . S
O319 Eu303 2.357 1_565 S
O320 C294 1.283 . S
O320 Eu304 2.369 . S
O321 C295 1.283 . S
O321 Eu304 2.357 1_565 S
O322 C296 1.283 . S
O322 Eu308 2.363 . S
O323 C297 1.283 . S
O323 Eu308 2.363 1_655 S
O324 C298 1.283 . S
O324 Eu307 2.363 . S
O325 C299 1.283 . S
O325 Eu307 2.363 1_655 S
O326 C294 1.283 . S
O326 Eu313 2.363 . S
O327 C292 1.283 . S
O327 Eu313 2.363 1_655 S
O328 C295 1.283 . S
O328 Eu300 2.363 . S
O329 C293 1.283 . S
O329 Eu300 2.363 1_655 S
O330 C289 1.283 . S
O330 Eu308 2.356 1_565 S
O331 C291 1.283 . S
O331 Eu308 2.370 . S
O332 C288 1.283 . S
O332 Eu307 2.358 1_565 S
O333 C290 1.283 . S
O333 Eu307 2.368 . S
O334 C299 1.283 . S
O334 Eu303 2.363 . S
O335 C297 1.283 . S
O335 Eu303 2.363 . S
O336 C298 1.283 . S
O336 Eu304 2.363 . S
O337 C296 1.283 . S
O337 Eu304 2.363 . S
C338 O364 1.283 . S
C338 O382 1.283 . S
C339 O365 1.283 . S
C339 O380 1.283 . S
C340 O366 1.283 . S
C340 O383 1.283 . S
C341 O367 1.283 . S
C341 O381 1.283 . S
C342 O368 1.283 . S
C342 O377 1.283 . S
C343 O369 1.283 . S
C343 O379 1.283 . S
C344 O370 1.283 . S
C344 O376 1.283 . S
C345 O371 1.283 . S
C345 O378 1.283 . S
C346 O372 1.283 . S
C346 O387 1.283 . S
C347 O373 1.283 . S
C347 O385 1.283 . S
C348 O374 1.283 . S
C348 O386 1.283 . S
C349 O375 1.283 . S
C349 O384 1.283 . S
Eu350 O351 2.372 . S
Eu350 O352 2.368 1_545 S
Eu350 O355 2.368 1_545 S
Eu350 O356 2.372 . S
Eu350 O364 2.360 1_545 S
Eu350 O365 2.366 . S
Eu350 O378 2.363 . S
Eu350 O379 2.363 . S
O351 Eu350 2.372 . S
O351 Eu353 2.373 . S
O351 Eu358 2.370 . S
O352 Eu350 2.368 1_565 S
O352 Eu354 2.367 1_565 S
O352 Eu357 2.370 . S
Eu353 O351 2.373 . S
Eu353 O355 2.367 1_545 S
Eu353 O359 2.367 1_544 S
Eu353 O360 2.373 1_554 S
Eu353 O368 2.363 1_554 S
Eu353 O369 2.363 . S
Eu353 O384 2.358 1_545 S
Eu353 O385 2.368 . S
Eu354 O352 2.367 1_545 S
Eu354 O356 2.373 . S
Eu354 O361 2.373 1_554 S
Eu354 O362 2.367 1_544 S
Eu354 O370 2.363 1_554 S
Eu354 O371 2.363 . S
Eu354 O386 2.357 1_545 S
Eu354 O387 2.369 . S
O355 Eu350 2.368 1_565 S
O355 Eu353 2.367 1_565 S
O355 Eu357 2.370 . S
O356 Eu350 2.372 . S
O356 Eu354 2.373 . S
O356 Eu358 2.370 . S
Eu357 O352 2.370 . S
Eu357 O355 2.370 . S
Eu357 O359 2.370 1_554 S
Eu357 O362 2.370 1_554 S
Eu357 O374 2.363 . S
Eu357 O375 2.363 . S
Eu357 O382 2.363 . S
Eu357 O383 2.363 1_554 S
Eu358 O351 2.370 . S
Eu358 O356 2.370 . S
Eu358 O360 2.370 1_554 S
Eu358 O361 2.370 1_554 S
Eu358 O372 2.363 . S
Eu358 O373 2.363 . S
Eu358 O380 2.363 . S
Eu358 O381 2.363 1_554 S
O359 Eu353 2.367 1_566 S
O359 Eu357 2.370 1_556 S
O359 Eu363 2.366 1_565 S
O360 Eu353 2.373 1_556 S
O360 Eu358 2.370 1_556 S
O360 Eu363 2.375 . S
O361 Eu354 2.373 1_556 S
O361 Eu358 2.370 1_556 S
O361 Eu363 2.375 . S
O362 Eu354 2.367 1_566 S
O362 Eu357 2.370 1_556 S
O362 Eu363 2.366 1_565 S
Eu363 O359 2.366 1_545 S
Eu363 O360 2.375 . S
Eu363 O361 2.375 . S
Eu363 O362 2.366 1_545 S
Eu363 O366 2.355 1_545 S
Eu363 O367 2.371 . S
Eu363 O376 2.363 . S
Eu363 O377 2.363 . S
O364 C338 1.283 . S
O364 Eu350 2.360 1_565 S
O365 C339 1.283 . S
O365 Eu350 2.366 . S
O366 C340 1.283 . S
O366 Eu363 2.355 1_565 S
O367 C341 1.283 . S
O367 Eu363 2.371 . S
O368 C342 1.283 . S
O368 Eu353 2.363 1_556 S
O369 C343 1.283 . S
O369 Eu353 2.363 . S
O370 C344 1.283 . S
O370 Eu354 2.363 1_556 S
O371 C345 1.283 . S
O371 Eu354 2.363 . S
O372 C346 1.283 . S
O372 Eu358 2.363 . S
O373 C347 1.283 . S
O373 Eu358 2.363 . S
O374 C348 1.283 . S
O374 Eu357 2.363 . S
O375 C349 1.283 . S
O375 Eu357 2.363 . S
O376 C344 1.283 . S
O376 Eu363 2.363 . S
O377 C342 1.283 . S
O377 Eu363 2.363 . S
O378 C345 1.283 . S
O378 Eu350 2.363 . S
O379 C343 1.283 . S
O379 Eu350 2.363 . S
O380 C339 1.283 . S
O380 Eu358 2.363 . S
O381 C341 1.283 . S
O381 Eu358 2.363 1_556 S
O382 C338 1.283 . S
O382 Eu357 2.363 . S
O383 C340 1.283 . S
O383 Eu357 2.363 1_556 S
O384 C349 1.283 . S
O384 Eu353 2.358 1_565 S
O385 C347 1.283 . S
O385 Eu353 2.368 . S
O386 C348 1.283 . S
O386 Eu354 2.357 1_565 S
O387 C346 1.283 . S
O387 Eu354 2.369 . S
C388 O414 1.283 . S
C388 O432 1.283 . S
C389 O415 1.283 . S
C389 O430 1.283 . S
C390 O416 1.283 . S
C390 O433 1.283 . S
C391 O417 1.283 . S
C391 O431 1.283 . S
C392 O418 1.283 . S
C392 O427 1.283 . S
C393 O419 1.283 . S
C393 O429 1.283 . S
C394 O420 1.283 . S
C394 O426 1.283 . S
C395 O421 1.283 . S
C395 O428 1.283 . S
C396 O422 1.283 . S
C396 O437 1.283 . S
C397 O423 1.283 . S
C397 O435 1.283 . S
C398 O424 1.283 . S
C398 O436 1.283 . S
C399 O425 1.283 . S
C399 O434 1.283 . S
Eu400 O401 2.370 1_454 S
Eu400 O402 2.370 . S
Eu400 O405 2.370 1_455 S
Eu400 O406 2.370 1_554 S
Eu400 O414 2.363 . S
Eu400 O415 2.363 1_554 S
Eu400 O428 2.363 . S
Eu400 O429 2.363 1_455 S
O401 Eu400 2.370 1_656 S
O401 Eu403 2.370 1_556 S
O401 Eu408 2.370 1_655 S
O402 Eu400 2.370 . S
O402 Eu404 2.370 . S
O402 Eu407 2.370 . S
Eu403 O401 2.370 1_554 S
Eu403 O405 2.370 . S
Eu403 O409 2.370 . S
Eu403 O410 2.370 1_554 S
Eu403 O418 2.363 . S
Eu403 O419 2.363 . S
Eu403 O434 2.363 . S
Eu403 O435 2.363 1_554 S
Eu404 O402 2.370 . S
Eu404 O406 2.370 1_554 S
Eu404 O411 2.370 1_554 S
Eu404 O412 2.370 . S
Eu404 O420 2.363 . S
Eu404 O421 2.363 . S
Eu404 O436 2.363 . S
Eu404 O437 2.363 1_554 S
O405 Eu400 2.370 1_655 S
O405 Eu403 2.370 . S
O405 Eu407 2.370 1_655 S
O406 Eu400 2.370 1_556 S
O406 Eu404 2.370 1_556 S
O406 Eu408 2.370 . S
Eu407 O402 2.370 . S
Eu407 O405 2.370 1_455 S
Eu407 O409 2.370 1_455 S
Eu407 O412 2.370 . S
Eu407 O424 2.363 . S
Eu407 O425 2.363 1_455 S
Eu407 O432 2.363 . S
Eu407 O433 2.363 . S
Eu408 O401 2.370 1_455 S
Eu408 O406 2.370 . S
Eu408 O410 2.370 1_455 S
Eu408 O411 2.370 . S
Eu408 O422 2.363 . S
Eu408 O423 2.363 1_455 S
Eu408 O430 2.363 . S
Eu408 O431 2.363 . S
O409 Eu403 2.370 . S
O409 Eu407 2.370 1_655 S
O409 Eu413 2.370 1_655 S
O410 Eu403 2.370 1_556 S
O410 Eu408 2.370 1_655 S
O410 Eu413 2.370 1_656 S
O411 Eu404 2.370 1_556 S
O411 Eu408 2.370 . S
O411 Eu413 2.370 1_556 S
O412 Eu404 2.370 . S
O412 Eu407 2.370 . S
O412 Eu413 2.370 . S
Eu413 O409 2.370 1_455 S
Eu413 O410 2.370 1_454 S
Eu413 O411 2.370 1_554 S
Eu413 O412 2.370 . S
Eu413 O416 2.363 . S
Eu413 O417 2.363 1_554 S
Eu413 O426 2.363 . S
Eu413 O427 2.363 1_455 S
O414 C388 1.283 . S
O414 Eu400 2.363 . S
O415 C389 1.283 . S
O415 Eu400 2.363 1_556 S
O416 C390 1.283 . S
O416 Eu413 2.363 . S
O417 C391 1.283 . S
O417 Eu413 2.363 1_556 S
O418 C392 1.283 . S
O418 Eu403 2.363 . S
O419 C393 1.283 . S
O419 Eu403 2.363 . S
O420 C394 1.283 . S
O420 Eu404 2.363 . S
O421 C395 1.283 . S
O421 Eu404 2.363 . S
O422 C396 1.283 . S
O422 Eu408 2.363 . S
O423 C397 1.283 . S
O423 Eu408 2.363 1_655 S
O424 C398 1.283 . S
O424 Eu407 2.363 . S
O425 C399 1.283 . S
O425 Eu407 2.363 1_655 S
O426 C394 1.283 . S
O426 Eu413 2.363 . S
O427 C392 1.283 . S
O427 Eu413 2.363 1_655 S
O428 C395 1.283 . S
O428 Eu400 2.363 . S
O429 C393 1.283 . S
O429 Eu400 2.363 1_655 S
O430 C389 1.283 . S
O430 Eu408 2.363 . S
O431 C391 1.283 . S
O431 Eu408 2.363 . S
O432 C388 1.283 . S
O432 Eu407 2.363 . S
O433 C390 1.283 . S
O433 Eu407 2.363 . S
O434 C399 1.283 . S
O434 Eu403 2.363 . S
O435 C397 1.283 . S
O435 Eu403 2.363 1_556 S
O436 C398 1.283 . S
O436 Eu404 2.363 . S
O437 C396 1.283 . S
O437 Eu404 2.363 1_556 S
C438 O464 1.283 . S
C438 O482 1.283 . S
C439 O465 1.283 . S
C439 O480 1.283 . S
C440 O466 1.283 . S
C440 O483 1.283 . S
C441 O467 1.283 . S
C441 O481 1.283 . S
C442 O468 1.283 . S
C442 O477 1.283 . S
C443 O469 1.283 . S
C443 O479 1.283 . S
C444 O470 1.283 . S
C444 O476 1.283 . S
C445 O471 1.283 . S
C445 O478 1.283 . S
C446 O472 1.283 . S
C446 O487 1.283 . S
C447 O473 1.283 . S
C447 O485 1.283 . S
C448 O474 1.283 . S
C448 O486 1.283 . S
C449 O475 1.283 . S
C449 O484 1.283 . S
Eu450 O451 2.370 . S
Eu450 O452 2.370 . S
Eu450 O455 2.370 . S
Eu450 O456 2.370 . S
Eu450 O464 2.363 . S
Eu450 O465 2.363 . S
Eu450 O478 2.363 . S
Eu450 O479 2.363 . S
O451 Eu450 2.370 . S
O451 Eu453 2.370 . S
O451 Eu458 2.370 . S
O452 Eu450 2.370 . S
O452 Eu454 2.370 . S
O452 Eu457 2.370 . S
Eu453 O451 2.370 . S
Eu453 O455 2.370 . S
Eu453 O459 2.370 1_554 S
Eu453 O460 2.370 1_554 S
Eu453 O468 2.363 1_554 S
Eu453 O469 2.363 . S
Eu453 O484 2.363 . S
Eu453 O485 2.363 . S
Eu454 O452 2.370 . S
Eu454 O456 2.370 . S
Eu454 O461 2.370 1_554 S
Eu454 O462 2.370 1_554 S
Eu454 O470 2.363 1_554 S
Eu454 O471 2.363 . S
Eu454 O486 2.363 . S
Eu454 O487 2.363 . S
O455 Eu450 2.370 . S
O455 Eu453 2.370 . S
O455 Eu457 2.370 . S
O456 Eu450 2.370 . S
O456 Eu454 2.370 . S
O456 Eu458 2.370 . S
Eu457 O452 2.370 . S
Eu457 O455 2.370 . S
Eu457 O459 2.370 1_554 S
Eu457 O462 2.370 1_554 S
Eu457 O474 2.363 . S
Eu457 O475 2.363 . S
Eu457 O482 2.363 . S
Eu457 O483 2.363 1_554 S
Eu458 O451 2.370 . S
Eu458 O456 2.370 . S
Eu458 O460 2.370 1_554 S
Eu458 O461 2.370 1_554 S
Eu458 O472 2.363 . S
Eu458 O473 2.363 . S
Eu458 O480 2.363 . S
Eu458 O481 2.363 1_554 S
O459 Eu453 2.370 1_556 S
O459 Eu457 2.370 1_556 S
O459 Eu463 2.370 . S
O460 Eu453 2.370 1_556 S
O460 Eu458 2.370 1_556 S
O460 Eu463 2.370 . S
O461 Eu454 2.370 1_556 S
O461 Eu458 2.370 1_556 S
O461 Eu463 2.370 . S
O462 Eu454 2.370 1_556 S
O462 Eu457 2.370 1_556 S
O462 Eu463 2.370 . S
Eu463 O459 2.370 . S
Eu463 O460 2.370 . S
Eu463 O461 2.370 . S
Eu463 O462 2.370 . S
Eu463 O466 2.363 . S
Eu463 O467 2.363 . S
Eu463 O476 2.363 . S
Eu463 O477 2.363 . S
O464 C438 1.283 . S
O464 Eu450 2.363 . S
O465 C439 1.283 . S
O465 Eu450 2.363 . S
O466 C440 1.283 . S
O466 Eu463 2.363 . S
O467 C441 1.283 . S
O467 Eu463 2.363 . S
O468 C442 1.283 . S
O468 Eu453 2.363 1_556 S
O469 C443 1.283 . S
O469 Eu453 2.363 . S
O470 C444 1.283 . S
O470 Eu454 2.363 1_556 S
O471 C445 1.283 . S
O471 Eu454 2.363 . S
O472 C446 1.283 . S
O472 Eu458 2.363 . S
O473 C447 1.283 . S
O473 Eu458 2.363 . S
O474 C448 1.283 . S
O474 Eu457 2.363 . S
O475 C449 1.283 . S
O475 Eu457 2.363 . S
O476 C444 1.283 . S
O476 Eu463 2.363 . S
O477 C442 1.283 . S
O477 Eu463 2.363 . S
O478 C445 1.283 . S
O478 Eu450 2.363 . S
O479 C443 1.283 . S
O479 Eu450 2.363 . S
O480 C439 1.283 . S
O480 Eu458 2.363 . S
O481 C441 1.283 . S
O481 Eu458 2.363 1_556 S
O482 C438 1.283 . S
O482 Eu457 2.363 . S
O483 C440 1.283 . S
O483 Eu457 2.363 1_556 S
O484 C449 1.283 . S
O484 Eu453 2.363 . S
O485 C447 1.283 . S
O485 Eu453 2.363 . S
O486 C448 1.283 . S
O486 Eu454 2.363 . S
O487 C446 1.283 . S
O487 Eu454 2.363 . S
C488 O514 1.283 . S
C488 O532 1.283 . S
C489 O515 1.283 . S
C489 O530 1.283 . S
C490 O516 1.283 . S
C490 O533 1.283 . S
C491 O517 1.283 . S
C491 O531 1.283 . S
C492 O518 1.283 . S
C492 O527 1.283 . S
C493 O519 1.283 . S
C493 O529 1.283 . S
C494 O520 1.283 . S
C494 O526 1.283 . S
C495 O521 1.283 . S
C495 O528 1.283 . S
C496 O522 1.283 . S
C496 O537 1.283 . S
C497 O523 1.283 . S
C497 O535 1.283 . S
C498 O524 1.283 . S
C498 O536 1.283 . S
C499 O525 1.283 . S
C499 O534 1.283 . S
Eu500 O501 2.370 1_455 S
Eu500 O502 2.370 . S
Eu500 O505 2.370 1_455 S
Eu500 O506 2.370 . S
Eu500 O514 2.363 . S
Eu500 O515 2.363 . S
Eu500 O528 2.363 . S
Eu500 O529 2.363 1_455 S
O501 Eu500 2.370 1_655 S
O501 Eu503 2.370 . S
O501 Eu508 2.370 1_655 S
O502 Eu500 2.370 . S
O502 Eu504 2.370 . S
O502 Eu507 2.370 . S
Eu503 O501 2.370 . S
Eu503 O505 2.370 . S
Eu503 O509 2.370 . S
Eu503 O510 2.370 . S
Eu503 O518 2.363 . S
Eu503 O519 2.363 . S
Eu503 O534 2.363 . S
Eu503 O535 2.363 . S
Eu504 O502 2.370 . S
Eu504 O506 2.370 . S
Eu504 O511 2.370 . S
Eu504 O512 2.370 . S
Eu504 O520 2.363 . S
Eu504 O521 2.363 . S
Eu504 O536 2.363 . S
Eu504 O537 2.363 . S
O505 Eu500 2.370 1_655 S
O505 Eu503 2.370 . S
O505 Eu507 2.370 1_655 S
O506 Eu500 2.370 . S
O506 Eu504 2.370 . S
O506 Eu508 2.370 . S
Eu507 O502 2.370 . S
Eu507 O505 2.370 1_455 S
Eu507 O509 2.370 1_455 S
Eu507 O512 2.370 . S
Eu507 O524 2.363 . S
Eu507 O525 2.363 1_455 S
Eu507 O532 2.363 . S
Eu507 O533 2.363 . S
Eu508 O501 2.370 1_455 S
Eu508 O506 2.370 . S
Eu508 O510 2.370 1_455 S
Eu508 O511 2.370 . S
Eu508 O522 2.363 . S
Eu508 O523 2.363 1_455 S
Eu508 O530 2.363 . S
Eu508 O531 2.363 . S
O509 Eu503 2.370 . S
O509 Eu507 2.370 1_655 S
O509 Eu513 2.370 1_655 S
O510 Eu503 2.370 . S
O510 Eu508 2.370 1_655 S
O510 Eu513 2.370 1_655 S
O511 Eu504 2.370 . S
O511 Eu508 2.370 . S
O511 Eu513 2.370 . S
O512 Eu504 2.370 . S
O512 Eu507 2.370 . S
O512 Eu513 2.370 . S
Eu513 O509 2.370 1_455 S
Eu513 O510 2.370 1_455 S
Eu513 O511 2.370 . S
Eu513 O512 2.370 . S
Eu513 O516 2.363 . S
Eu513 O517 2.363 . S
Eu513 O526 2.363 . S
Eu513 O527 2.363 1_455 S
O514 C488 1.283 . S
O514 Eu500 2.363 . S
O515 C489 1.283 . S
O515 Eu500 2.363 . S
O516 C490 1.283 . S
O516 Eu513 2.363 . S
O517 C491 1.283 . S
O517 Eu513 2.363 . S
O518 C492 1.283 . S
O518 Eu503 2.363 . S
O519 C493 1.283 . S
O519 Eu503 2.363 . S
O520 C494 1.283 . S
O520 Eu504 2.363 . S
O521 C495 1.283 . S
O521 Eu504 2.363 . S
O522 C496 1.283 . S
O522 Eu508 2.363 . S
O523 C497 1.283 . S
O523 Eu508 2.363 1_655 S
O524 C498 1.283 . S
O524 Eu507 2.363 . S
O525 C499 1.283 . S
O525 Eu507 2.363 1_655 S
O526 C494 1.283 . S
O526 Eu513 2.363 . S
O527 C492 1.283 . S
O527 Eu513 2.363 1_655 S
O528 C495 1.283 . S
O528 Eu500 2.363 . S
O529 C493 1.283 . S
O529 Eu500 2.363 1_655 S
O530 C489 1.283 . S
O530 Eu508 2.363 . S
O531 C491 1.283 . S
O531 Eu508 2.363 . S
O532 C488 1.283 . S
O532 Eu507 2.363 . S
O533 C490 1.283 . S
O533 Eu507 2.363 . S
O534 C499 1.283 . S
O534 Eu503 2.363 . S
O535 C497 1.283 . S
O535 Eu503 2.363 . S
O536 C498 1.283 . S
O536 Eu504 2.363 . S
O537 C496 1.283 . S
O537 Eu504 2.363 . S
C538 O564 1.283 . S
C538 O582 1.283 . S
C539 O565 1.283 . S
C539 O580 1.283 . S
C540 O566 1.283 . S
C540 O583 1.283 . S
C541 O567 1.283 . S
C541 O581 1.283 . S
C542 O568 1.283 . S
C542 O577 1.283 . S
C543 O569 1.283 . S
C543 O579 1.283 . S
C544 O570 1.283 . S
C544 O576 1.283 . S
C545 O571 1.283 . S
C545 O578 1.283 . S
C546 O572 1.283 . S
C546 O587 1.283 . S
C547 O573 1.283 . S
C547 O585 1.283 . S
C548 O574 1.283 . S
C548 O586 1.283 . S
C549 O575 1.283 . S
C549 O584 1.283 . S
Eu550 O551 2.370 . S
Eu550 O552 2.370 . S
Eu550 O555 2.370 . S
Eu550 O556 2.370 . S
Eu550 O564 2.363 . S
Eu550 O565 2.363 . S
Eu550 O578 2.363 . S
Eu550 O579 2.363 . S
O551 Eu550 2.370 . S
O551 Eu553 2.367 1_565 S
O551 Eu558 2.366 1_565 S
O552 Eu550 2.370 . S
O552 Eu554 2.367 1_565 S
O552 Eu557 2.367 1_565 S
Eu553 O551 2.367 1_545 S
Eu553 O555 2.367 1_545 S
Eu553 O559 2.373 . S
Eu553 O560 2.373 . S
Eu553 O568 2.369 . S
Eu553 O569 2.357 1_545 S
Eu553 O584 2.363 . S
Eu553 O585 2.363 . S
Eu554 O552 2.367 1_545 S
Eu554 O556 2.367 1_545 S
Eu554 O561 2.373 . S
Eu554 O562 2.373 . S
Eu554 O570 2.369 . S
Eu554 O571 2.357 1_545 S
Eu554 O586 2.363 . S
Eu554 O587 2.363 . S
O555 Eu550 2.370 . S
O555 Eu553 2.367 1_565 S
O555 Eu557 2.367 1_565 S
O556 Eu550 2.370 . S
O556 Eu554 2.367 1_565 S
O556 Eu558 2.366 1_565 S
Eu557 O552 2.367 1_545 S
Eu557 O555 2.367 1_545 S
Eu557 O559 2.373 . S
Eu557 O562 2.373 . S
Eu557 O574 2.363 . S
Eu557 O575 2.363 . S
Eu557 O582 2.358 1_545 S
Eu557 O583 2.368 . S
Eu558 O551 2.366 1_545 S
Eu558 O556 2.366 1_545 S
Eu558 O560 2.374 . S
Eu558 O561 2.374 . S
Eu558 O572 2.363 . S
Eu558 O573 2.363 . S
Eu558 O580 2.357 1_545 S
Eu558 O581 2.369 . S
O559 Eu553 2.373 . S
O559 Eu557 2.373 . S
O559 Eu563 2.370 . S
O560 Eu553 2.373 . S
O560 Eu558 2.374 . S
O560 Eu563 2.370 . S
O561 Eu554 2.373 . S
O561 Eu558 2.374 . S
O561 Eu563 2.370 . S
O562 Eu554 2.373 . S
O562 Eu557 2.373 . S
O562 Eu563 2.370 . S
Eu563 O559 2.370 . S
Eu563 O560 2.370 . S
Eu563 O561 2.370 . S
Eu563 O562 2.370 . S
Eu563 O566 2.363 . S
Eu563 O567 2.363 . S
Eu563 O576 2.363 . S
Eu563 O577 2.363 . S
O564 C538 1.283 . S
O564 Eu550 2.363 . S
O565 C539 1.283 . S
O565 Eu550 2.363 . S
O566 C540 1.283 . S
O566 Eu563 2.363 . S
O567 C541 1.283 . S
O567 Eu563 2.363 . S
O568 C542 1.283 . S
O568 Eu553 2.369 . S
O569 C543 1.283 . S
O569 Eu553 2.357 1_565 S
O570 C544 1.283 . S
O570 Eu554 2.369 . S
O571 C545 1.283 . S
O571 Eu554 2.357 1_565 S
O572 C546 1.283 . S
O572 Eu558 2.363 . S
O573 C547 1.283 . S
O573 Eu558 2.363 . S
O574 C548 1.283 . S
O574 Eu557 2.363 . S
O575 C549 1.283 . S
O575 Eu557 2.363 . S
O576 C544 1.283 . S
O576 Eu563 2.363 . S
O577 C542 1.283 . S
O577 Eu563 2.363 . S
O578 C545 1.283 . S
O578 Eu550 2.363 . S
O579 C543 1.283 . S
O579 Eu550 2.363 . S
O580 C539 1.283 . S
O580 Eu558 2.357 1_565 S
O581 C541 1.283 . S
O581 Eu558 2.369 . S
O582 C538 1.283 . S
O582 Eu557 2.358 1_565 S
O583 C540 1.283 . S
O583 Eu557 2.368 . S
O584 C549 1.283 . S
O584 Eu553 2.363 . S
O585 C547 1.283 . S
O585 Eu553 2.363 . S
O586 C548 1.283 . S
O586 Eu554 2.363 . S
O587 C546 1.283 . S
O587 Eu554 2.363 . S
H588 C594 0.930 . S
H589 C597 0.930 . S
H590 C598 0.930 . S
H591 C599 0.930 . S
H592 C602 0.930 . S
H593 C603 0.930 . S
C594 H588 0.930 . S
C594 C595 1.355 . S
C594 C596 1.415 . S
C595 C594 1.355 . S
C595 C597 1.419 . S
C596 C594 1.415 . S
C596 C601 1.425 . S
C596 C603 1.409 . S
C597 H589 0.930 . S
C597 C595 1.419 . S
C597 C598 1.362 . S
C598 H590 0.930 . S
C598 C597 1.362 . S
C598 C601 1.409 . S
C599 H591 0.930 . S
C599 C600 1.355 . S
C599 C601 1.415 . S
C600 C599 1.355 . S
C600 C602 1.419 . S
C601 C596 1.425 . S
C601 C598 1.409 . S
C601 C599 1.415 . S
C602 H592 0.930 . S
C602 C600 1.419 . S
C602 C603 1.362 . S
C603 H593 0.930 . S
C603 C596 1.409 . S
C603 C602 1.362 . S
H604 C610 0.930 . S
H605 C613 0.930 . S
H606 C614 0.930 . S
H607 C615 0.930 . S
H608 C618 0.930 . S
H609 C619 0.930 . S
C610 H604 0.930 . S
C610 C611 1.355 . S
C610 C612 1.415 . S
C611 C610 1.355 . S
C611 C613 1.419 . S
C612 C610 1.415 . S
C612 C617 1.425 . S
C612 C619 1.409 . S
C613 H605 0.930 . S
C613 C611 1.419 . S
C613 C614 1.362 . S
C614 H606 0.930 . S
C614 C613 1.362 . S
C614 C617 1.409 . S
C615 H607 0.930 . S
C615 C616 1.355 . S
C615 C617 1.415 . S
C616 C615 1.355 . S
C616 C618 1.419 . S
C617 C612 1.425 . S
C617 C614 1.409 . S
C617 C615 1.415 . S
C618 H608 0.930 . S
C618 C616 1.419 . S
C618 C619 1.362 . S
C619 H609 0.930 . S
C619 C612 1.409 . S
C619 C618 1.362 . S
H620 C626 0.930 . S
H621 C629 0.930 . S
H622 C630 0.930 . S
H623 C631 0.930 . S
H624 C634 0.930 . S
H625 C635 0.930 . S
C626 H620 0.930 . S
C626 C627 1.355 . S
C626 C628 1.415 . S
C627 C626 1.355 . S
C627 C629 1.419 . S
C628 C626 1.415 . S
C628 C633 1.425 . S
C628 C635 1.409 . S
C629 H621 0.930 . S
C629 C627 1.419 . S
C629 C630 1.362 . S
C630 H622 0.930 . S
C630 C629 1.362 . S
C630 C633 1.409 . S
C631 H623 0.930 . S
C631 C632 1.355 . S
C631 C633 1.415 . S
C632 C631 1.355 . S
C632 C634 1.419 . S
C633 C628 1.425 . S
C633 C630 1.409 . S
C633 C631 1.415 . S
C634 H624 0.930 . S
C634 C632 1.419 . S
C634 C635 1.362 . S
C635 H625 0.930 . S
C635 C628 1.409 . S
C635 C634 1.362 . S
H636 C642 0.930 . S
H637 C645 0.930 . S
H638 C646 0.930 . S
H639 C647 0.930 . S
H640 C650 0.930 . S
H641 C651 0.930 . S
C642 H636 0.930 . S
C642 C643 1.355 . S
C642 C644 1.415 . S
C643 C642 1.355 . S
C643 C645 1.419 . S
C644 C642 1.415 . S
C644 C649 1.425 . S
C644 C651 1.409 . S
C645 H637 0.930 . S
C645 C643 1.419 . S
C645 C646 1.362 . S
C646 H638 0.930 . S
C646 C645 1.362 . S
C646 C649 1.409 . S
C647 H639 0.930 . S
C647 C648 1.355 . S
C647 C649 1.415 . S
C648 C647 1.355 . S
C648 C650 1.419 . S
C649 C644 1.425 . S
C649 C646 1.409 . S
C649 C647 1.415 . S
C650 H640 0.930 . S
C650 C648 1.419 . S
C650 C651 1.362 . S
C651 H641 0.930 . S
C651 C644 1.409 . S
C651 C650 1.362 . S
H652 C658 0.930 . S
H653 C661 0.930 . S
H654 C662 0.930 . S
H655 C663 0.930 . S
H656 C666 0.930 . S
H657 C667 0.930 . S
C658 H652 0.930 . S
C658 C659 1.355 . S
C658 C660 1.415 . S
C659 C658 1.355 . S
C659 C661 1.419 . S
C660 C658 1.415 . S
C660 C665 1.425 . S
C660 C667 1.409 . S
C661 H653 0.930 . S
C661 C659 1.419 . S
C661 C662 1.362 . S
C662 H654 0.930 . S
C662 C661 1.362 . S
C662 C665 1.409 . S
C663 H655 0.930 . S
C663 C664 1.355 . S
C663 C665 1.415 . S
C664 C663 1.355 . S
C664 C666 1.419 . S
C665 C660 1.425 . S
C665 C662 1.409 . S
C665 C663 1.415 . S
C666 H656 0.930 . S
C666 C664 1.419 . S
C666 C667 1.362 . S
C667 H657 0.930 . S
C667 C660 1.409 . S
C667 C666 1.362 . S
H668 C674 0.930 . S
H669 C677 0.930 . S
H670 C678 0.930 . S
H671 C679 0.930 . S
H672 C682 0.930 . S
H673 C683 0.930 . S
C674 H668 0.930 . S
C674 C675 1.355 . S
C674 C676 1.415 . S
C675 C674 1.355 . S
C675 C677 1.419 . S
C676 C674 1.415 . S
C676 C681 1.425 . S
C676 C683 1.409 . S
C677 H669 0.930 . S
C677 C675 1.419 . S
C677 C678 1.362 . S
C678 H670 0.930 . S
C678 C677 1.362 . S
C678 C681 1.409 . S
C679 H671 0.930 . S
C679 C680 1.355 . S
C679 C681 1.415 . S
C680 C679 1.355 . S
C680 C682 1.419 . S
C681 C676 1.425 . S
C681 C678 1.409 . S
C681 C679 1.415 . S
C682 H672 0.930 . S
C682 C680 1.419 . S
C682 C683 1.362 . S
C683 H673 0.930 . S
C683 C676 1.409 . S
C683 C682 1.362 . S
H684 C690 0.930 . S
H685 C693 0.930 . S
H686 C694 0.930 . S
H687 C695 0.930 . S
H688 C698 0.930 . S
H689 C699 0.930 . S
C690 H684 0.930 . S
C690 C691 1.355 . S
C690 C692 1.415 . S
C691 C690 1.355 . S
C691 C693 1.419 . S
C692 C690 1.415 . S
C692 C697 1.425 . S
C692 C699 1.409 . S
C693 H685 0.930 . S
C693 C691 1.419 . S
C693 C694 1.362 . S
C694 H686 0.930 . S
C694 C693 1.362 . S
C694 C697 1.409 . S
C695 H687 0.930 . S
C695 C696 1.355 . S
C695 C697 1.415 . S
C696 C695 1.355 . S
C696 C698 1.419 . S
C697 C692 1.425 . S
C697 C694 1.409 . S
C697 C695 1.415 . S
C698 H688 0.930 . S
C698 C696 1.419 . S
C698 C699 1.362 . S
C699 H689 0.930 . S
C699 C692 1.409 . S
C699 C698 1.362 . S
H700 C706 0.930 . S
H701 C709 0.930 . S
H702 C710 0.930 . S
H703 C711 0.930 . S
H704 C714 0.930 . S
H705 C715 0.930 . S
C706 H700 0.930 . S
C706 C707 1.355 . S
C706 C708 1.415 . S
C707 C706 1.355 . S
C707 C709 1.419 . S
C708 C706 1.415 . S
C708 C713 1.425 . S
C708 C715 1.409 . S
C709 H701 0.930 . S
C709 C707 1.419 . S
C709 C710 1.362 . S
C710 H702 0.930 . S
C710 C709 1.362 . S
C710 C713 1.409 . S
C711 H703 0.930 . S
C711 C712 1.355 . S
C711 C713 1.415 . S
C712 C711 1.355 . S
C712 C714 1.419 . S
C713 C708 1.425 . S
C713 C710 1.409 . S
C713 C711 1.415 . S
C714 H704 0.930 . S
C714 C712 1.419 . S
C714 C715 1.362 . S
C715 H705 0.930 . S
C715 C708 1.409 . S
C715 C714 1.362 . S
H716 C722 0.930 . S
H717 C725 0.930 . S
H718 C726 0.930 . S
H719 C727 0.930 . S
H720 C730 0.930 . S
H721 C731 0.930 . S
C722 H716 0.930 . S
C722 C723 1.355 . S
C722 C724 1.415 . S
C723 C722 1.355 . S
C723 C725 1.419 . S
C724 C722 1.415 . S
C724 C729 1.425 . S
C724 C731 1.409 . S
C725 H717 0.930 . S
C725 C723 1.419 . S
C725 C726 1.362 . S
C726 H718 0.930 . S
C726 C725 1.362 . S
C726 C729 1.409 . S
C727 H719 0.930 . S
C727 C728 1.355 . S
C727 C729 1.415 . S
C728 C727 1.355 . S
C728 C730 1.419 . S
C729 C724 1.425 . S
C729 C726 1.409 . S
C729 C727 1.415 . S
C730 H720 0.930 . S
C730 C728 1.419 . S
C730 C731 1.362 . S
C731 H721 0.930 . S
C731 C724 1.409 . S
C731 C730 1.362 . S
H732 C738 0.930 . S
H733 C741 0.930 . S
H734 C742 0.930 . S
H735 C743 0.930 . S
H736 C746 0.930 . S
H737 C747 0.930 . S
C738 H732 0.930 . S
C738 C739 1.355 . S
C738 C740 1.415 . S
C739 C738 1.355 . S
C739 C741 1.419 . S
C740 C738 1.415 . S
C740 C745 1.425 . S
C740 C747 1.409 . S
C741 H733 0.930 . S
C741 C739 1.419 . S
C741 C742 1.362 . S
C742 H734 0.930 . S
C742 C741 1.362 . S
C742 C745 1.409 . S
C743 H735 0.930 . S
C743 C744 1.355 . S
C743 C745 1.415 . S
C744 C743 1.355 . S
C744 C746 1.419 . S
C745 C740 1.425 . S
C745 C742 1.409 . S
C745 C743 1.415 . S
C746 H736 0.930 . S
C746 C744 1.419 . S
C746 C747 1.362 . S
C747 H737 0.930 . S
C747 C740 1.409 . S
C747 C746 1.362 . S
H748 C754 0.930 . S
H749 C757 0.930 . S
H750 C758 0.930 . S
H751 C759 0.930 . S
H752 C762 0.930 . S
H753 C763 0.930 . S
C754 H748 0.930 . S
C754 C755 1.355 . S
C754 C756 1.415 . S
C755 C754 1.355 . S
C755 C757 1.419 . S
C756 C754 1.415 . S
C756 C761 1.425 . S
C756 C763 1.409 . S
C757 H749 0.930 . S
C757 C755 1.419 . S
C757 C758 1.362 . S
C758 H750 0.930 . S
C758 C757 1.362 . S
C758 C761 1.409 . S
C759 H751 0.930 . S
C759 C760 1.355 . S
C759 C761 1.415 . S
C760 C759 1.355 . S
C760 C762 1.419 . S
C761 C756 1.425 . S
C761 C758 1.409 . S
C761 C759 1.415 . S
C762 H752 0.930 . S
C762 C760 1.419 . S
C762 C763 1.362 . S
C763 H753 0.930 . S
C763 C756 1.409 . S
C763 C762 1.362 . S
H764 C770 0.930 . S
H765 C773 0.930 . S
H766 C774 0.930 . S
H767 C775 0.930 . S
H768 C778 0.930 . S
H769 C779 0.930 . S
C770 H764 0.930 . S
C770 C771 1.355 . S
C770 C772 1.415 . S
C771 C770 1.355 . S
C771 C773 1.419 . S
C772 C770 1.415 . S
C772 C777 1.425 . S
C772 C779 1.409 . S
C773 H765 0.930 . S
C773 C771 1.419 . S
C773 C774 1.362 . S
C774 H766 0.930 . S
C774 C773 1.362 . S
C774 C777 1.409 . S
C775 H767 0.930 . S
C775 C776 1.355 . S
C775 C777 1.415 . S
C776 C775 1.355 . S
C776 C778 1.419 . S
C777 C772 1.425 . S
C777 C774 1.409 . S
C777 C775 1.415 . S
C778 H768 0.930 . S
C778 C776 1.419 . S
C778 C779 1.362 . S
C779 H769 0.930 . S
C779 C772 1.409 . S
C779 C778 1.362 . S
H780 C786 0.930 . S
H781 C789 0.932 . S
H782 C790 0.930 1_556 S
H783 C791 0.930 . S
H784 C794 0.930 . S
H785 C795 0.930 . S
C786 H780 0.930 . S
C786 C787 1.355 . S
C786 C788 1.415 . S
C787 C786 1.355 . S
C787 C789 1.419 . S
C788 C786 1.415 . S
C788 C793 1.425 . S
C788 C795 1.409 . S
C789 H781 0.932 . S
C789 C787 1.419 . S
C789 C790 1.362 . S
C790 H782 0.930 1_554 S
C790 C789 1.362 . S
C790 C793 1.409 . S
C791 H783 0.930 . S
C791 C792 1.355 . S
C791 C793 1.415 . S
C792 C791 1.355 . S
C792 C794 1.419 . S
C793 C788 1.425 . S
C793 C790 1.409 . S
C793 C791 1.415 . S
C794 H784 0.930 . S
C794 C792 1.419 . S
C794 C795 1.362 . S
C795 H785 0.930 . S
C795 C788 1.409 . S
C795 C794 1.362 . S
H796 C802 0.930 . S
H797 C805 0.930 . S
H798 C806 0.930 . S
H799 C807 0.930 . S
H800 C810 0.930 . S
H801 C811 0.930 . S
C802 H796 0.930 . S
C802 C803 1.355 . S
C802 C804 1.415 . S
C803 C802 1.355 . S
C803 C805 1.419 . S
C804 C802 1.415 . S
C804 C809 1.425 . S
C804 C811 1.409 . S
C805 H797 0.930 . S
C805 C803 1.419 . S
C805 C806 1.362 . S
C806 H798 0.930 . S
C806 C805 1.362 . S
C806 C809 1.409 . S
C807 H799 0.930 . S
C807 C808 1.355 . S
C807 C809 1.415 . S
C808 C807 1.355 . S
C808 C810 1.419 . S
C809 C804 1.425 . S
C809 C806 1.409 . S
C809 C807 1.415 . S
C810 H800 0.930 . S
C810 C808 1.419 . S
C810 C811 1.362 . S
C811 H801 0.930 . S
C811 C804 1.409 . S
C811 C810 1.362 . S
H812 C818 0.930 . S
H813 C821 0.930 . S
H814 C822 0.930 . S
H815 C823 0.930 . S
H816 C826 0.930 . S
H817 C827 0.930 . S
C818 H812 0.930 . S
C818 C819 1.355 . S
C818 C820 1.415 . S
C819 C818 1.355 . S
C819 C821 1.419 . S
C820 C818 1.415 . S
C820 C825 1.425 . S
C820 C827 1.409 . S
C821 H813 0.930 . S
C821 C819 1.419 . S
C821 C822 1.362 . S
C822 H814 0.930 . S
C822 C821 1.362 . S
C822 C825 1.409 . S
C823 H815 0.930 . S
C823 C824 1.355 . S
C823 C825 1.415 . S
C824 C823 1.355 . S
C824 C826 1.419 . S
C825 C820 1.425 . S
C825 C822 1.409 . S
C825 C823 1.415 . S
C826 H816 0.930 . S
C826 C824 1.419 . S
C826 C827 1.362 . S
C827 H817 0.930 . S
C827 C820 1.409 . S
C827 C826 1.362 . S
H828 C834 0.930 . S
H829 C837 0.930 . S
H830 C838 0.930 . S
H831 C839 0.930 . S
H832 C842 0.930 . S
H833 C843 0.930 . S
C834 H828 0.930 . S
C834 C835 1.355 1_556 S
C834 C836 1.415 . S
C835 C834 1.355 1_554 S
C835 C837 1.419 . S
C836 C834 1.415 . S
C836 C841 1.425 1_556 S
C836 C843 1.409 . S
C837 H829 0.930 . S
C837 C835 1.419 . S
C837 C838 1.362 . S
C838 H830 0.930 . S
C838 C837 1.362 . S
C838 C841 1.409 . S
C839 H831 0.930 . S
C839 C840 1.355 . S
C839 C841 1.415 . S
C840 C839 1.355 . S
C840 C842 1.419 1_554 S
C841 C836 1.425 1_554 S
C841 C838 1.409 . S
C841 C839 1.415 . S
C842 H832 0.930 . S
C842 C840 1.419 1_556 S
C842 C843 1.362 . S
C843 H833 0.930 . S
C843 C836 1.409 . S
C843 C842 1.362 . S
H844 C850 0.930 . S
H845 C853 0.927 1_655 S
H846 C854 0.935 . S
H847 C855 0.930 1_655 S
H848 C858 0.930 . S
H849 C859 0.930 . S
C850 H844 0.930 . S
C850 C851 1.355 . S
C850 C852 1.415 . S
C851 C850 1.355 . S
C851 C853 1.423 . S
C852 C850 1.415 . S
C852 C857 1.425 . S
C852 C859 1.409 . S
C853 H845 0.927 1_455 S
C853 C851 1.423 . S
C853 C854 1.361 1_455 S
C854 H846 0.935 . S
C854 C853 1.361 1_655 S
C854 C857 1.406 1_655 S
C855 H847 0.930 1_455 S
C855 C856 1.355 . S
C855 C857 1.415 . S
C856 C855 1.355 . S
C856 C858 1.419 . S
C857 C852 1.425 . S
C857 C854 1.406 1_455 S
C857 C855 1.415 . S
C858 H848 0.930 . S
C858 C856 1.419 . S
C858 C859 1.362 . S
C859 H849 0.930 . S
C859 C852 1.409 . S
C859 C858 1.362 . S
H860 C866 0.930 . S
H861 C869 0.930 . S
H862 C870 0.930 . S
H863 C871 0.930 . S
H864 C874 0.930 . S
H865 C875 0.930 . S
C866 H860 0.930 . S
C866 C867 1.355 1_565 S
C866 C868 1.415 . S
C867 C866 1.355 1_545 S
C867 C869 1.419 . S
C868 C866 1.415 . S
C868 C873 1.425 1_565 S
C868 C875 1.409 . S
C869 H861 0.930 . S
C869 C867 1.419 . S
C869 C870 1.362 . S
C870 H862 0.930 . S
C870 C869 1.362 . S
C870 C873 1.409 . S
C871 H863 0.930 . S
C871 C872 1.355 1_545 S
C871 C873 1.415 . S
C872 C871 1.355 1_565 S
C872 C874 1.419 . S
C873 C868 1.425 1_545 S
C873 C870 1.409 . S
C873 C871 1.415 . S
C874 H864 0.930 . S
C874 C872 1.419 . S
C874 C875 1.362 . S
C875 H865 0.930 . S
C875 C868 1.409 . S
C875 C874 1.362 . S
H876 C882 0.930 . S
H877 C885 0.930 . S
H878 C886 0.930 . S
H879 C887 0.930 . S
H880 C890 0.930 . S
H881 C891 0.930 . S
C882 H876 0.930 . S
C882 C883 1.355 1_655 S
C882 C884 1.415 . S
C883 C882 1.355 1_455 S
C883 C885 1.419 . S
C884 C882 1.415 . S
C884 C889 1.425 1_655 S
C884 C891 1.409 . S
C885 H877 0.930 . S
C885 C883 1.419 . S
C885 C886 1.362 . S
C886 H878 0.930 . S
C886 C885 1.362 . S
C886 C889 1.409 . S
C887 H879 0.930 . S
C887 C888 1.355 . S
C887 C889 1.415 . S
C888 C887 1.355 . S
C888 C890 1.419 1_455 S
C889 C884 1.425 1_455 S
C889 C886 1.409 . S
C889 C887 1.415 . S
C890 H880 0.930 . S
C890 C888 1.419 1_655 S
C890 C891 1.362 . S
C891 H881 0.930 . S
C891 C884 1.409 . S
C891 C890 1.362 . S
H892 C898 0.930 . S
H893 C901 0.930 . S
H894 C902 0.930 . S
H895 C903 0.930 . S
H896 C906 0.930 . S
H897 C907 0.930 . S
C898 H892 0.930 . S
C898 C899 1.355 1_545 S
C898 C900 1.415 . S
C899 C898 1.355 1_565 S
C899 C901 1.419 . S
C900 C898 1.415 . S
C900 C905 1.425 1_545 S
C900 C907 1.409 . S
C901 H893 0.930 . S
C901 C899 1.419 . S
C901 C902 1.362 . S
C902 H894 0.930 . S
C902 C901 1.362 . S
C902 C905 1.409 . S
C903 H895 0.930 . S
C903 C904 1.355 1_565 S
C903 C905 1.415 . S
C904 C903 1.355 1_545 S
C904 C906 1.419 . S
C905 C900 1.425 1_565 S
C905 C902 1.409 . S
C905 C903 1.415 . S
C906 H896 0.930 . S
C906 C904 1.419 . S
C906 C907 1.362 . S
C907 H897 0.930 . S
C907 C900 1.409 . S
C907 C906 1.362 . S
H908 C914 0.930 . S
H909 C917 0.930 . S
H910 C918 0.930 . S
H911 C919 0.930 . S
H912 C922 0.930 . S
H913 C923 0.930 . S
C914 H908 0.930 . S
C914 C915 1.355 . S
C914 C916 1.415 . S
C915 C914 1.355 . S
C915 C917 1.419 . S
C916 C914 1.415 . S
C916 C921 1.425 . S
C916 C923 1.409 . S
C917 H909 0.930 . S
C917 C915 1.419 . S
C917 C918 1.362 . S
C918 H910 0.930 . S
C918 C917 1.362 . S
C918 C921 1.409 . S
C919 H911 0.930 . S
C919 C920 1.355 . S
C919 C921 1.415 . S
C920 C919 1.355 . S
C920 C922 1.419 . S
C921 C916 1.425 . S
C921 C918 1.409 . S
C921 C919 1.415 . S
C922 H912 0.930 . S
C922 C920 1.419 . S
C922 C923 1.362 . S
C923 H913 0.930 . S
C923 C916 1.409 . S
C923 C922 1.362 . S
H924 C930 0.930 . S
H925 C933 0.930 . S
H926 C934 0.930 . S
H927 C935 0.930 . S
H928 C938 0.930 . S
H929 C939 0.930 . S
C930 H924 0.930 . S
C930 C931 1.355 1_545 S
C930 C932 1.415 . S
C931 C930 1.355 1_565 S
C931 C933 1.419 . S
C932 C930 1.415 . S
C932 C937 1.425 1_545 S
C932 C939 1.409 . S
C933 H925 0.930 . S
C933 C931 1.419 . S
C933 C934 1.362 . S
C934 H926 0.930 . S
C934 C933 1.362 . S
C934 C937 1.409 . S
C935 H927 0.930 . S
C935 C936 1.355 1_565 S
C935 C937 1.415 . S
C936 C935 1.355 1_545 S
C936 C938 1.419 . S
C937 C932 1.425 1_565 S
C937 C934 1.409 . S
C937 C935 1.415 . S
C938 H928 0.930 . S
C938 C936 1.419 . S
C938 C939 1.362 . S
C939 H929 0.930 . S
C939 C932 1.409 . S
C939 C938 1.362 . S
H940 C946 0.934 . S
H941 C949 0.930 . S
H942 C950 0.930 . S
H943 C951 0.930 . S
H944 C954 0.930 . S
H945 C955 0.930 . S
C946 H940 0.934 . S
C946 C947 1.351 1_655 S
C946 C948 1.414 1_655 S
C947 C946 1.351 1_455 S
C947 C949 1.419 . S
C948 C946 1.414 1_455 S
C948 C953 1.433 . S
C948 C955 1.402 1_455 S
C949 H941 0.930 . S
C949 C947 1.419 . S
C949 C950 1.362 . S
C950 H942 0.930 . S
C950 C949 1.362 . S
C950 C953 1.409 . S
C951 H943 0.930 . S
C951 C952 1.355 . S
C951 C953 1.415 . S
C952 C951 1.355 . S
C952 C954 1.419 1_455 S
C953 C948 1.433 . S
C953 C950 1.409 . S
C953 C951 1.415 . S
C954 H944 0.930 . S
C954 C952 1.419 1_655 S
C954 C955 1.362 . S
C955 H945 0.930 . S
C955 C948 1.402 1_655 S
C955 C954 1.362 . S
H956 C962 0.930 . S
H957 C965 0.930 . S
H958 C966 0.930 . S
H959 C967 0.930 . S
H960 C970 0.930 . S
H961 C971 0.930 . S
C962 H956 0.930 . S
C962 C963 1.354 . S
C962 C964 1.415 . S
C963 C962 1.354 . S
C963 C965 1.420 1_565 S
C964 C962 1.415 . S
C964 C969 1.425 1_565 S
C964 C971 1.409 . S
C965 H957 0.930 . S
C965 C963 1.420 1_545 S
C965 C966 1.362 . S
C966 H958 0.930 . S
C966 C965 1.362 . S
C966 C969 1.409 . S
C967 H959 0.930 . S
C967 C968 1.359 . S
C967 C969 1.415 . S
C968 C967 1.359 . S
C968 C970 1.414 1_545 S
C969 C964 1.425 1_545 S
C969 C966 1.409 . S
C969 C967 1.415 . S
C970 H960 0.930 . S
C970 C968 1.414 1_565 S
C970 C971 1.362 . S
C971 H961 0.930 . S
C971 C964 1.409 . S
C971 C970 1.362 . S
H972 C978 0.930 . S
H973 C981 0.930 . S
H974 C982 0.930 . S
H975 C983 0.930 . S
H976 C986 0.930 . S
H977 C987 0.930 . S
C978 H972 0.930 . S
C978 C979 1.355 1_655 S
C978 C980 1.415 . S
C979 C978 1.355 1_455 S
C979 C981 1.419 . S
C980 C978 1.415 . S
C980 C985 1.425 1_655 S
C980 C987 1.409 . S
C981 H973 0.930 . S
C981 C979 1.419 . S
C981 C982 1.362 . S
C982 H974 0.930 . S
C982 C981 1.362 . S
C982 C985 1.409 . S
C983 H975 0.930 . S
C983 C984 1.355 . S
C983 C985 1.415 . S
C984 C983 1.355 . S
C984 C986 1.419 1_455 S
C985 C980 1.425 1_455 S
C985 C982 1.409 . S
C985 C983 1.415 . S
C986 H976 0.930 . S
C986 C984 1.419 1_655 S
C986 C987 1.362 . S
C987 H977 0.930 . S
C987 C980 1.409 . S
C987 C986 1.362 . S
H988 C994 0.930 . S
H989 C997 0.930 . S
H990 C998 0.930 . S
H991 C999 0.930 . S
H992 C1002 0.930 . S
H993 C1003 0.930 . S
C994 H988 0.930 . S
C994 C995 1.355 1_545 S
C994 C996 1.415 . S
C995 C994 1.355 1_565 S
C995 C997 1.419 . S
C996 C994 1.415 . S
C996 C1001 1.425 1_545 S
C996 C1003 1.409 . S
C997 H989 0.930 . S
C997 C995 1.419 . S
C997 C998 1.362 . S
C998 H990 0.930 . S
C998 C997 1.362 . S
C998 C1001 1.409 . S
C999 H991 0.930 . S
C999 C1000 1.355 1_565 S
C999 C1001 1.415 . S
C1000 C999 1.355 1_545 S
C1000 C1002 1.419 . S
C1001 C996 1.425 1_565 S
C1001 C998 1.409 . S
C1001 C999 1.415 . S
C1002 H992 0.930 . S
C1002 C1000 1.419 . S
C1002 C1003 1.362 . S
C1003 H993 0.930 . S
C1003 C996 1.409 . S
C1003 C1002 1.362 . S
H1004 C1010 0.930 . S
H1005 C1013 0.930 . S
H1006 C1014 0.930 . S
H1007 C1015 0.930 . S
H1008 C1018 0.932 . S
H1009 C1019 0.932 . S
C1010 H1004 0.930 . S
C1010 C1011 1.355 . S
C1010 C1012 1.415 . S
C1011 C1010 1.355 . S
C1011 C1013 1.419 . S
C1012 C1010 1.415 . S
C1012 C1017 1.425 . S
C1012 C1019 1.407 1_455 S
C1013 H1005 0.930 . S
C1013 C1011 1.419 . S
C1013 C1014 1.362 . S
C1014 H1006 0.930 . S
C1014 C1013 1.362 . S
C1014 C1017 1.409 . S
C1015 H1007 0.930 . S
C1015 C1016 1.355 . S
C1015 C1017 1.415 . S
C1016 C1015 1.355 . S
C1016 C1018 1.417 1_455 S
C1017 C1012 1.425 . S
C1017 C1014 1.409 . S
C1017 C1015 1.415 . S
C1018 H1008 0.932 . S
C1018 C1016 1.417 1_655 S
C1018 C1019 1.362 . S
C1019 H1009 0.932 . S
C1019 C1012 1.407 1_655 S
C1019 C1018 1.362 . S
H1020 C1026 0.930 . S
H1021 C1029 0.930 . S
H1022 C1030 0.930 . S
H1023 C1031 0.930 . S
H1024 C1034 0.930 . S
H1025 C1035 0.930 . S
C1026 H1020 0.930 . S
C1026 C1027 1.355 1_565 S
C1026 C1028 1.415 . S
C1027 C1026 1.355 1_545 S
C1027 C1029 1.419 . S
C1028 C1026 1.415 . S
C1028 C1033 1.425 1_565 S
C1028 C1035 1.409 . S
C1029 H1021 0.930 . S
C1029 C1027 1.419 . S
C1029 C1030 1.362 . S
C1030 H1022 0.930 . S
C1030 C1029 1.362 . S
C1030 C1033 1.409 . S
C1031 H1023 0.930 . S
C1031 C1032 1.343 1_545 S
C1031 C1033 1.415 . S
C1032 C1031 1.343 1_565 S
C1032 C1034 1.434 . S
C1033 C1028 1.425 1_545 S
C1033 C1030 1.409 . S
C1033 C1031 1.415 . S
C1034 H1024 0.930 . S
C1034 C1032 1.434 . S
C1034 C1035 1.362 . S
C1035 H1025 0.930 . S
C1035 C1028 1.409 . S
C1035 C1034 1.362 . S
H1036 C1042 0.930 . S
H1037 C1045 0.930 . S
H1038 C1046 0.930 . S
H1039 C1047 0.930 1_655 S
H1040 C1050 0.930 . S
H1041 C1051 0.930 . S
C1042 H1036 0.930 . S
C1042 C1043 1.355 . S
C1042 C1044 1.415 . S
C1043 C1042 1.355 . S
C1043 C1045 1.419 1_455 S
C1044 C1042 1.415 . S
C1044 C1049 1.425 . S
C1044 C1051 1.409 . S
C1045 H1037 0.930 . S
C1045 C1043 1.419 1_655 S
C1045 C1046 1.362 . S
C1046 H1038 0.930 . S
C1046 C1045 1.362 . S
C1046 C1049 1.409 1_655 S
C1047 H1039 0.930 1_455 S
C1047 C1048 1.355 . S
C1047 C1049 1.415 . S
C1048 C1047 1.355 . S
C1048 C1050 1.419 . S
C1049 C1044 1.425 . S
C1049 C1046 1.409 1_455 S
C1049 C1047 1.415 . S
C1050 H1040 0.930 . S
C1050 C1048 1.419 . S
C1050 C1051 1.362 . S
C1051 H1041 0.930 . S
C1051 C1044 1.409 . S
C1051 C1050 1.362 . S
H1052 C1058 0.930 . S
H1053 C1061 0.930 . S
H1054 C1062 0.930 . S
H1055 C1063 0.930 . S
H1056 C1066 0.930 . S
H1057 C1067 0.930 . S
C1058 H1052 0.930 . S
C1058 C1059 1.355 1_565 S
C1058 C1060 1.415 . S
C1059 C1058 1.355 1_545 S
C1059 C1061 1.419 . S
C1060 C1058 1.415 . S
C1060 C1065 1.425 1_565 S
C1060 C1067 1.409 . S
C1061 H1053 0.930 . S
C1061 C1059 1.419 . S
C1061 C1062 1.362 . S
C1062 H1054 0.930 . S
C1062 C1061 1.362 . S
C1062 C1065 1.409 . S
C1063 H1055 0.930 . S
C1063 C1064 1.355 1_545 S
C1063 C1065 1.415 . S
C1064 C1063 1.355 1_565 S
C1064 C1066 1.419 . S
C1065 C1060 1.425 1_545 S
C1065 C1062 1.409 . S
C1065 C1063 1.415 . S
C1066 H1056 0.930 . S
C1066 C1064 1.419 . S
C1066 C1067 1.362 . S
C1067 H1057 0.930 . S
C1067 C1060 1.409 . S
C1067 C1066 1.362 . S
H1068 C1074 0.930 . S
H1069 C1077 0.930 . S
H1070 C1078 0.930 . S
H1071 C1079 0.930 . S
H1072 C1082 0.930 . S
H1073 C1083 0.930 . S
C1074 H1068 0.930 . S
C1074 C1075 1.355 . S
C1074 C1076 1.415 . S
C1075 C1074 1.355 . S
C1075 C1077 1.419 1_455 S
C1076 C1074 1.415 . S
C1076 C1081 1.425 1_455 S
C1076 C1083 1.409 . S
C1077 H1069 0.930 . S
C1077 C1075 1.419 1_655 S
C1077 C1078 1.362 . S
C1078 H1070 0.930 . S
C1078 C1077 1.362 . S
C1078 C1081 1.409 . S
C1079 H1071 0.930 . S
C1079 C1080 1.355 1_655 S
C1079 C1081 1.415 . S
C1080 C1079 1.355 1_455 S
C1080 C1082 1.419 . S
C1081 C1076 1.425 1_655 S
C1081 C1078 1.409 . S
C1081 C1079 1.415 . S
C1082 H1072 0.930 . S
C1082 C1080 1.419 . S
C1082 C1083 1.362 . S
C1083 H1073 0.930 . S
C1083 C1076 1.409 . S
C1083 C1082 1.362 . S
H1084 C1090 0.930 . S
H1085 C1093 0.930 . S
H1086 C1094 0.930 . S
H1087 C1095 0.930 . S
H1088 C1098 0.930 . S
H1089 C1099 0.930 . S
C1090 H1084 0.930 . S
C1090 C1091 1.357 . S
C1090 C1092 1.415 . S
C1091 C1090 1.357 . S
C1091 C1093 1.417 1_545 S
C1092 C1090 1.415 . S
C1092 C1097 1.425 1_545 S
C1092 C1099 1.409 . S
C1093 H1085 0.930 . S
C1093 C1091 1.417 1_565 S
C1093 C1094 1.362 . S
C1094 H1086 0.930 . S
C1094 C1093 1.362 . S
C1094 C1097 1.409 . S
C1095 H1087 0.930 . S
C1095 C1096 1.356 . S
C1095 C1097 1.415 . S
C1096 C1095 1.356 . S
C1096 C1098 1.417 1_565 S
C1097 C1092 1.425 1_565 S
C1097 C1094 1.409 . S
C1097 C1095 1.415 . S
C1098 H1088 0.930 . S
C1098 C1096 1.417 1_545 S
C1098 C1099 1.362 . S
C1099 H1089 0.930 . S
C1099 C1092 1.409 . S
C1099 C1098 1.362 . S
H1100 C1106 0.930 . S
H1101 C1109 0.930 . S
H1102 C1110 0.930 . S
H1103 C1111 0.930 . S
H1104 C1114 0.930 . S
H1105 C1115 0.930 . S
C1106 H1100 0.930 . S
C1106 C1107 1.355 1_565 S
C1106 C1108 1.415 . S
C1107 C1106 1.355 1_545 S
C1107 C1109 1.419 . S
C1108 C1106 1.415 . S
C1108 C1113 1.425 1_565 S
C1108 C1115 1.409 . S
C1109 H1101 0.930 . S
C1109 C1107 1.419 . S
C1109 C1110 1.362 . S
C1110 H1102 0.930 . S
C1110 C1109 1.362 . S
C1110 C1113 1.409 . S
C1111 H1103 0.930 . S
C1111 C1112 1.355 1_545 S
C1111 C1113 1.415 . S
C1112 C1111 1.355 1_565 S
C1112 C1114 1.419 . S
C1113 C1108 1.425 1_545 S
C1113 C1110 1.409 . S
C1113 C1111 1.415 . S
C1114 H1104 0.930 . S
C1114 C1112 1.419 . S
C1114 C1115 1.362 . S
C1115 H1105 0.930 . S
C1115 C1108 1.409 . S
C1115 C1114 1.362 . S
H1116 C1122 0.930 . S
H1117 C1125 0.930 . S
H1118 C1126 0.930 . S
H1119 C1127 0.930 . S
H1120 C1130 0.930 . S
H1121 C1131 0.930 . S
C1122 H1116 0.930 . S
C1122 C1123 1.355 1_655 S
C1122 C1124 1.415 . S
C1123 C1122 1.355 1_455 S
C1123 C1125 1.419 . S
C1124 C1122 1.415 . S
C1124 C1129 1.425 1_655 S
C1124 C1131 1.409 . S
C1125 H1117 0.930 . S
C1125 C1123 1.419 . S
C1125 C1126 1.362 . S
C1126 H1118 0.930 . S
C1126 C1125 1.362 . S
C1126 C1129 1.409 . S
C1127 H1119 0.930 . S
C1127 C1128 1.355 . S
C1127 C1129 1.415 . S
C1128 C1127 1.355 . S
C1128 C1130 1.419 1_455 S
C1129 C1124 1.425 1_455 S
C1129 C1126 1.409 . S
C1129 C1127 1.415 . S
C1130 H1120 0.930 . S
C1130 C1128 1.419 1_655 S
C1130 C1131 1.362 . S
C1131 H1121 0.930 . S
C1131 C1124 1.409 . S
C1131 C1130 1.362 . S
H1132 C1138 0.930 . S
H1133 C1141 0.930 . S
H1134 C1142 0.930 . S
H1135 C1143 0.930 . S
H1136 C1146 0.930 1_545 S
H1137 C1147 0.930 . S
C1138 H1132 0.930 . S
C1138 C1139 1.355 . S
C1138 C1140 1.416 . S
C1139 C1138 1.355 . S
C1139 C1141 1.420 . S
C1140 C1138 1.416 . S
C1140 C1145 1.425 1_545 S
C1140 C1147 1.409 . S
C1141 H1133 0.930 . S
C1141 C1139 1.420 . S
C1141 C1142 1.362 . S
C1142 H1134 0.930 . S
C1142 C1141 1.362 . S
C1142 C1145 1.409 1_545 S
C1143 H1135 0.930 . S
C1143 C1144 1.355 . S
C1143 C1145 1.415 . S
C1144 C1143 1.355 . S
C1144 C1146 1.419 . S
C1145 C1140 1.425 1_565 S
C1145 C1142 1.409 1_565 S
C1145 C1143 1.415 . S
C1146 H1136 0.930 1_565 S
C1146 C1144 1.419 . S
C1146 C1147 1.362 1_565 S
C1147 H1137 0.930 . S
C1147 C1140 1.409 . S
C1147 C1146 1.362 1_545 S
H1148 C1154 0.930 . S
H1149 C1157 0.930 . S
H1150 C1158 0.930 . S
H1151 C1159 0.930 . S
H1152 C1162 0.930 . S
H1153 C1163 0.930 . S
C1154 H1148 0.930 . S
C1154 C1155 1.355 1_655 S
C1154 C1156 1.415 . S
C1155 C1154 1.355 1_455 S
C1155 C1157 1.419 . S
C1156 C1154 1.415 . S
C1156 C1161 1.425 1_655 S
C1156 C1163 1.409 . S
C1157 H1149 0.930 . S
C1157 C1155 1.419 . S
C1157 C1158 1.362 . S
C1158 H1150 0.930 . S
C1158 C1157 1.362 . S
C1158 C1161 1.409 . S
C1159 H1151 0.930 . S
C1159 C1160 1.355 . S
C1159 C1161 1.415 . S
C1160 C1159 1.355 . S
C1160 C1162 1.419 1_455 S
C1161 C1156 1.425 1_455 S
C1161 C1158 1.409 . S
C1161 C1159 1.415 . S
C1162 H1152 0.930 . S
C1162 C1160 1.419 1_655 S
C1162 C1163 1.362 . S
C1163 H1153 0.930 . S
C1163 C1156 1.409 . S
C1163 C1162 1.362 . S
H1164 C1170 0.930 . S
H1165 C1173 0.930 . S
H1166 C1174 0.930 . S
H1167 C1175 0.930 . S
H1168 C1178 0.930 . S
H1169 C1179 0.930 . S
C1170 H1164 0.930 . S
C1170 C1171 1.355 1_545 S
C1170 C1172 1.415 . S
C1171 C1170 1.355 1_565 S
C1171 C1173 1.419 . S
C1172 C1170 1.415 . S
C1172 C1177 1.425 1_545 S
C1172 C1179 1.409 . S
C1173 H1165 0.930 . S
C1173 C1171 1.419 . S
C1173 C1174 1.362 . S
C1174 H1166 0.930 . S
C1174 C1173 1.362 . S
C1174 C1177 1.409 . S
C1175 H1167 0.930 . S
C1175 C1176 1.355 1_565 S
C1175 C1177 1.415 . S
C1176 C1175 1.355 1_545 S
C1176 C1178 1.419 . S
C1177 C1172 1.425 1_565 S
C1177 C1174 1.409 . S
C1177 C1175 1.415 . S
C1178 H1168 0.930 . S
C1178 C1176 1.419 . S
C1178 C1179 1.362 . S
C1179 H1169 0.930 . S
C1179 C1172 1.409 . S
C1179 C1178 1.362 . S
H1180 C1186 0.930 . S
H1181 C1189 0.930 . S
H1182 C1190 0.930 . S
H1183 C1191 0.930 . S
H1184 C1194 0.930 . S
H1185 C1195 0.930 . S
C1186 H1180 0.930 . S
C1186 C1187 1.355 . S
C1186 C1188 1.415 . S
C1187 C1186 1.355 . S
C1187 C1189 1.419 1_455 S
C1188 C1186 1.415 . S
C1188 C1193 1.425 1_455 S
C1188 C1195 1.409 . S
C1189 H1181 0.930 . S
C1189 C1187 1.419 1_655 S
C1189 C1190 1.362 . S
C1190 H1182 0.930 . S
C1190 C1189 1.362 . S
C1190 C1193 1.409 . S
C1191 H1183 0.930 . S
C1191 C1192 1.355 1_655 S
C1191 C1193 1.415 . S
C1192 C1191 1.355 1_455 S
C1192 C1194 1.419 . S
C1193 C1188 1.425 1_655 S
C1193 C1190 1.409 . S
C1193 C1191 1.415 . S
C1194 H1184 0.930 . S
C1194 C1192 1.419 . S
C1194 C1195 1.362 . S
C1195 H1185 0.930 . S
C1195 C1188 1.409 . S
C1195 C1194 1.362 . S
H1196 C1202 0.930 . S
H1197 C1205 0.930 . S
H1198 C1206 0.930 . S
H1199 C1207 0.930 . S
H1200 C1210 0.930 . S
H1201 C1211 0.930 . S
C1202 H1196 0.930 . S
C1202 C1203 1.355 1_565 S
C1202 C1204 1.415 . S
C1203 C1202 1.355 1_545 S
C1203 C1205 1.419 . S
C1204 C1202 1.415 . S
C1204 C1209 1.425 1_565 S
C1204 C1211 1.409 . S
C1205 H1197 0.930 . S
C1205 C1203 1.419 . S
C1205 C1206 1.362 . S
C1206 H1198 0.930 . S
C1206 C1205 1.362 . S
C1206 C1209 1.409 . S
C1207 H1199 0.930 . S
C1207 C1208 1.355 1_545 S
C1207 C1209 1.415 . S
C1208 C1207 1.355 1_565 S
C1208 C1210 1.419 . S
C1209 C1204 1.425 1_545 S
C1209 C1206 1.409 . S
C1209 C1207 1.415 . S
C1210 H1200 0.930 . S
C1210 C1208 1.419 . S
C1210 C1211 1.362 . S
C1211 H1201 0.930 . S
C1211 C1204 1.409 . S
C1211 C1210 1.362 . S
H1212 C1218 0.930 . S
H1213 C1221 0.930 . S
H1214 C1222 0.930 . S
H1215 C1223 0.930 . S
H1216 C1226 0.930 . S
H1217 C1227 0.930 . S
C1218 H1212 0.930 . S
C1218 C1219 1.355 . S
C1218 C1220 1.415 . S
C1219 C1218 1.355 . S
C1219 C1221 1.419 1_455 S
C1220 C1218 1.415 . S
C1220 C1225 1.425 1_455 S
C1220 C1227 1.409 . S
C1221 H1213 0.930 . S
C1221 C1219 1.419 1_655 S
C1221 C1222 1.362 . S
C1222 H1214 0.930 . S
C1222 C1221 1.362 . S
C1222 C1225 1.409 . S
C1223 H1215 0.930 . S
C1223 C1224 1.355 1_655 S
C1223 C1225 1.415 . S
C1224 C1223 1.355 1_455 S
C1224 C1226 1.419 . S
C1225 C1220 1.425 1_655 S
C1225 C1222 1.409 . S
C1225 C1223 1.415 . S
C1226 H1216 0.930 . S
C1226 C1224 1.419 . S
C1226 C1227 1.362 . S
C1227 H1217 0.930 . S
C1227 C1220 1.409 . S
C1227 C1226 1.362 . S
H1228 C1234 0.930 . S
H1229 C1237 0.930 . S
H1230 C1238 0.930 . S
H1231 C1239 0.930 . S
H1232 C1242 0.930 . S
H1233 C1243 0.930 . S
C1234 H1228 0.930 . S
C1234 C1235 1.355 . S
C1234 C1236 1.415 . S
C1235 C1234 1.355 . S
C1235 C1237 1.419 1_554 S
C1236 C1234 1.415 . S
C1236 C1241 1.425 1_554 S
C1236 C1243 1.409 . S
C1237 H1229 0.930 . S
C1237 C1235 1.419 1_556 S
C1237 C1238 1.362 . S
C1238 H1230 0.930 . S
C1238 C1237 1.362 . S
C1238 C1241 1.409 . S
C1239 H1231 0.930 . S
C1239 C1240 1.355 1_556 S
C1239 C1241 1.415 . S
C1240 C1239 1.355 1_554 S
C1240 C1242 1.419 . S
C1241 C1236 1.425 1_556 S
C1241 C1238 1.409 . S
C1241 C1239 1.415 . S
C1242 H1232 0.930 . S
C1242 C1240 1.419 . S
C1242 C1243 1.362 . S
C1243 H1233 0.930 . S
C1243 C1236 1.409 . S
C1243 C1242 1.362 . S
H1244 C1250 0.930 . S
H1245 C1253 0.930 . S
H1246 C1254 0.930 . S
H1247 C1255 0.930 . S
H1248 C1258 0.930 . S
H1249 C1259 0.930 . S
C1250 H1244 0.930 . S
C1250 C1251 1.355 . S
C1250 C1252 1.415 . S
C1251 C1250 1.355 . S
C1251 C1253 1.419 . S
C1252 C1250 1.415 . S
C1252 C1257 1.425 . S
C1252 C1259 1.409 . S
C1253 H1245 0.930 . S
C1253 C1251 1.419 . S
C1253 C1254 1.362 . S
C1254 H1246 0.930 . S
C1254 C1253 1.362 . S
C1254 C1257 1.409 . S
C1255 H1247 0.930 . S
C1255 C1256 1.355 . S
C1255 C1257 1.415 . S
C1256 C1255 1.355 . S
C1256 C1258 1.419 . S
C1257 C1252 1.425 . S
C1257 C1254 1.409 . S
C1257 C1255 1.415 . S
C1258 H1248 0.930 . S
C1258 C1256 1.419 . S
C1258 C1259 1.362 . S
C1259 H1249 0.930 . S
C1259 C1252 1.409 . S
C1259 C1258 1.362 . S
H1260 C1266 0.930 . S
H1261 C1269 0.930 . S
H1262 C1270 0.930 . S
H1263 C1271 0.930 . S
H1264 C1274 0.930 . S
H1265 C1275 0.930 . S
C1266 H1260 0.930 . S
C1266 C1267 1.355 . S
C1266 C1268 1.415 . S
C1267 C1266 1.355 . S
C1267 C1269 1.419 1_554 S
C1268 C1266 1.415 . S
C1268 C1273 1.425 1_554 S
C1268 C1275 1.409 . S
C1269 H1261 0.930 . S
C1269 C1267 1.419 1_556 S
C1269 C1270 1.362 . S
C1270 H1262 0.930 . S
C1270 C1269 1.362 . S
C1270 C1273 1.409 . S
C1271 H1263 0.930 . S
C1271 C1272 1.355 1_556 S
C1271 C1273 1.415 . S
C1272 C1271 1.355 1_554 S
C1272 C1274 1.419 . S
C1273 C1268 1.425 1_556 S
C1273 C1270 1.409 . S
C1273 C1271 1.415 . S
C1274 H1264 0.930 . S
C1274 C1272 1.419 . S
C1274 C1275 1.362 . S
C1275 H1265 0.930 . S
C1275 C1268 1.409 . S
C1275 C1274 1.362 . S
H1276 C1282 0.930 1_556 S
H1277 C1285 0.930 . S
H1278 C1286 0.930 . S
H1279 C1287 0.930 . S
H1280 C1290 0.930 . S
H1281 C1291 0.930 . S
C1282 H1276 0.930 1_554 S
C1282 C1283 1.355 . S
C1282 C1284 1.415 . S
C1283 C1282 1.355 . S
C1283 C1285 1.419 . S
C1284 C1282 1.415 . S
C1284 C1289 1.425 . S
C1284 C1291 1.409 1_554 S
C1285 H1277 0.930 . S
C1285 C1283 1.419 . S
C1285 C1286 1.362 . S
C1286 H1278 0.930 . S
C1286 C1285 1.362 . S
C1286 C1289 1.409 . S
C1287 H1279 0.930 . S
C1287 C1288 1.355 . S
C1287 C1289 1.415 . S
C1288 C1287 1.355 . S
C1288 C1290 1.419 1_554 S
C1289 C1284 1.425 . S
C1289 C1286 1.409 . S
C1289 C1287 1.415 . S
C1290 H1280 0.930 . S
C1290 C1288 1.419 1_556 S
C1290 C1291 1.362 . S
C1291 H1281 0.930 . S
C1291 C1284 1.409 1_556 S
C1291 C1290 1.362 . S
H1292 C1298 0.930 . S
H1293 C1301 0.930 . S
H1294 C1302 0.930 . S
H1295 C1303 0.930 . S
H1296 C1306 0.930 . S
H1297 C1307 0.930 . S
C1298 H1292 0.930 . S
C1298 C1299 1.355 1_556 S
C1298 C1300 1.415 . S
C1299 C1298 1.355 1_554 S
C1299 C1301 1.419 . S
C1300 C1298 1.415 . S
C1300 C1305 1.425 1_556 S
C1300 C1307 1.409 . S
C1301 H1293 0.930 . S
C1301 C1299 1.419 . S
C1301 C1302 1.362 . S
C1302 H1294 0.930 . S
C1302 C1301 1.362 . S
C1302 C1305 1.409 . S
C1303 H1295 0.930 . S
C1303 C1304 1.355 . S
C1303 C1305 1.415 . S
C1304 C1303 1.355 . S
C1304 C1306 1.419 1_554 S
C1305 C1300 1.425 1_554 S
C1305 C1302 1.409 . S
C1305 C1303 1.415 . S
C1306 H1296 0.930 . S
C1306 C1304 1.419 1_556 S
C1306 C1307 1.362 . S
C1307 H1297 0.930 . S
C1307 C1300 1.409 . S
C1307 C1306 1.362 . S
H1308 C1314 0.930 1_556 S
H1309 C1317 0.930 . S
H1310 C1318 0.930 . S
H1311 C1319 0.930 . S
H1312 C1322 0.930 1_556 S
H1313 C1323 0.938 . S
C1314 H1308 0.930 1_554 S
C1314 C1315 1.355 . S
C1314 C1316 1.415 . S
C1315 C1314 1.355 . S
C1315 C1317 1.419 . S
C1316 C1314 1.415 . S
C1316 C1321 1.425 . S
C1316 C1323 1.404 1_554 S
C1317 H1309 0.930 . S
C1317 C1315 1.419 . S
C1317 C1318 1.362 . S
C1318 H1310 0.930 . S
C1318 C1317 1.362 . S
C1318 C1321 1.409 . S
C1319 H1311 0.930 . S
C1319 C1320 1.355 . S
C1319 C1321 1.415 . S
C1320 C1319 1.355 . S
C1320 C1322 1.419 . S
C1321 C1316 1.425 . S
C1321 C1318 1.409 . S
C1321 C1319 1.415 . S
C1322 H1312 0.930 1_554 S
C1322 C1320 1.419 . S
C1322 C1323 1.360 1_554 S
C1323 H1313 0.938 . S
C1323 C1316 1.404 1_556 S
C1323 C1322 1.360 1_556 S
H1324 C1330 0.930 . S
H1325 C1333 0.930 . S
H1326 C1334 0.930 . S
H1327 C1335 0.930 . S
H1328 C1338 0.930 . S
H1329 C1339 0.930 . S
C1330 H1324 0.930 . S
C1330 C1331 1.355 1_556 S
C1330 C1332 1.415 . S
C1331 C1330 1.355 1_554 S
C1331 C1333 1.419 . S
C1332 C1330 1.415 . S
C1332 C1337 1.425 1_556 S
C1332 C1339 1.409 . S
C1333 H1325 0.930 . S
C1333 C1331 1.419 . S
C1333 C1334 1.362 . S
C1334 H1326 0.930 . S
C1334 C1333 1.362 . S
C1334 C1337 1.409 . S
C1335 H1327 0.930 . S
C1335 C1336 1.355 . S
C1335 C1337 1.415 . S
C1336 C1335 1.355 . S
C1336 C1338 1.419 1_554 S
C1337 C1332 1.425 1_554 S
C1337 C1334 1.409 . S
C1337 C1335 1.415 . S
C1338 H1328 0.930 . S
C1338 C1336 1.419 1_556 S
C1338 C1339 1.362 . S
C1339 H1329 0.930 . S
C1339 C1332 1.409 . S
C1339 C1338 1.362 . S
H1340 C1346 0.930 . S
H1341 C1349 0.930 . S
H1342 C1350 0.930 . S
H1343 C1351 0.930 . S
H1344 C1354 0.930 . S
H1345 C1355 0.930 . S
C1346 H1340 0.930 . S
C1346 C1347 1.355 . S
C1346 C1348 1.415 . S
C1347 C1346 1.355 . S
C1347 C1349 1.419 1_554 S
C1348 C1346 1.415 . S
C1348 C1353 1.425 1_554 S
C1348 C1355 1.409 . S
C1349 H1341 0.930 . S
C1349 C1347 1.419 1_556 S
C1349 C1350 1.362 . S
C1350 H1342 0.930 . S
C1350 C1349 1.362 . S
C1350 C1353 1.409 . S
C1351 H1343 0.930 . S
C1351 C1352 1.355 1_556 S
C1351 C1353 1.415 . S
C1352 C1351 1.355 1_554 S
C1352 C1354 1.419 . S
C1353 C1348 1.425 1_556 S
C1353 C1350 1.409 . S
C1353 C1351 1.415 . S
C1354 H1344 0.930 . S
C1354 C1352 1.419 . S
C1354 C1355 1.362 . S
C1355 H1345 0.930 . S
C1355 C1348 1.409 . S
C1355 C1354 1.362 . S
H1356 C1362 0.930 . S
H1357 C1365 0.930 . S
H1358 C1366 0.930 . S
H1359 C1367 0.930 . S
H1360 C1370 0.930 . S
H1361 C1371 0.930 . S
C1362 H1356 0.930 . S
C1362 C1363 1.355 . S
C1362 C1364 1.415 . S
C1363 C1362 1.355 . S
C1363 C1365 1.419 . S
C1364 C1362 1.415 . S
C1364 C1369 1.425 . S
C1364 C1371 1.409 . S
C1365 H1357 0.930 . S
C1365 C1363 1.419 . S
C1365 C1366 1.362 . S
C1366 H1358 0.930 . S
C1366 C1365 1.362 . S
C1366 C1369 1.409 . S
C1367 H1359 0.930 . S
C1367 C1368 1.355 . S
C1367 C1369 1.415 . S
C1368 C1367 1.355 . S
C1368 C1370 1.419 . S
C1369 C1364 1.425 . S
C1369 C1366 1.409 . S
C1369 C1367 1.415 . S
C1370 H1360 0.930 . S
C1370 C1368 1.419 . S
C1370 C1371 1.362 . S
C1371 H1361 0.930 . S
C1371 C1364 1.409 . S
C1371 C1370 1.362 . S
H1372 C1378 0.930 . S
H1373 C1381 0.930 . S
H1374 C1382 0.930 . S
H1375 C1383 0.930 . S
H1376 C1386 0.930 . S
H1377 C1387 0.930 . S
C1378 H1372 0.930 . S
C1378 C1379 1.355 . S
C1378 C1380 1.415 . S
C1379 C1378 1.355 . S
C1379 C1381 1.419 . S
C1380 C1378 1.415 . S
C1380 C1385 1.425 . S
C1380 C1387 1.409 . S
C1381 H1373 0.930 . S
C1381 C1379 1.419 . S
C1381 C1382 1.362 . S
C1382 H1374 0.930 . S
C1382 C1381 1.362 . S
C1382 C1385 1.409 . S
C1383 H1375 0.930 . S
C1383 C1384 1.355 . S
C1383 C1385 1.415 . S
C1384 C1383 1.355 . S
C1384 C1386 1.419 . S
C1385 C1380 1.425 . S
C1385 C1382 1.409 . S
C1385 C1383 1.415 . S
C1386 H1376 0.930 . S
C1386 C1384 1.419 . S
C1386 C1387 1.362 . S
C1387 H1377 0.930 . S
C1387 C1380 1.409 . S
C1387 C1386 1.362 . S
H1388 C1394 0.930 . S
H1389 C1397 0.930 . S
H1390 C1398 0.930 . S
H1391 C1399 0.930 . S
H1392 C1402 0.930 . S
H1393 C1403 0.930 . S
C1394 H1388 0.930 . S
C1394 C1395 1.355 . S
C1394 C1396 1.415 . S
C1395 C1394 1.355 . S
C1395 C1397 1.419 . S
C1396 C1394 1.415 . S
C1396 C1401 1.425 . S
C1396 C1403 1.409 . S
C1397 H1389 0.930 . S
C1397 C1395 1.419 . S
C1397 C1398 1.362 . S
C1398 H1390 0.930 . S
C1398 C1397 1.362 . S
C1398 C1401 1.409 . S
C1399 H1391 0.930 . S
C1399 C1400 1.355 . S
C1399 C1401 1.415 . S
C1400 C1399 1.355 . S
C1400 C1402 1.419 . S
C1401 C1396 1.425 . S
C1401 C1398 1.409 . S
C1401 C1399 1.415 . S
C1402 H1392 0.930 . S
C1402 C1400 1.419 . S
C1402 C1403 1.362 . S
C1403 H1393 0.930 . S
C1403 C1396 1.409 . S
C1403 C1402 1.362 . S
H1404 C1410 0.930 . S
H1405 C1413 0.930 . S
H1406 C1414 0.930 . S
H1407 C1415 0.930 . S
H1408 C1418 0.930 . S
H1409 C1419 0.930 . S
C1410 H1404 0.930 . S
C1410 C1411 1.355 . S
C1410 C1412 1.415 . S
C1411 C1410 1.355 . S
C1411 C1413 1.419 . S
C1412 C1410 1.415 . S
C1412 C1417 1.425 . S
C1412 C1419 1.409 . S
C1413 H1405 0.930 . S
C1413 C1411 1.419 . S
C1413 C1414 1.362 . S
C1414 H1406 0.930 . S
C1414 C1413 1.362 . S
C1414 C1417 1.409 . S
C1415 H1407 0.930 . S
C1415 C1416 1.355 . S
C1415 C1417 1.415 . S
C1416 C1415 1.355 . S
C1416 C1418 1.419 . S
C1417 C1412 1.425 . S
C1417 C1414 1.409 . S
C1417 C1415 1.415 . S
C1418 H1408 0.930 . S
C1418 C1416 1.419 . S
C1418 C1419 1.362 . S
C1419 H1409 0.930 . S
C1419 C1412 1.409 . S
C1419 C1418 1.362 . S
H1420 C1426 0.930 . S
H1421 C1429 0.930 . S
H1422 C1430 0.930 . S
H1423 C1431 0.930 . S
H1424 C1434 0.930 . S
H1425 C1435 0.930 . S
C1426 H1420 0.930 . S
C1426 C1427 1.355 . S
C1426 C1428 1.415 . S
C1427 C1426 1.355 . S
C1427 C1429 1.419 . S
C1428 C1426 1.415 . S
C1428 C1433 1.425 . S
C1428 C1435 1.409 . S
C1429 H1421 0.930 . S
C1429 C1427 1.419 . S
C1429 C1430 1.362 . S
C1430 H1422 0.930 . S
C1430 C1429 1.362 . S
C1430 C1433 1.409 . S
C1431 H1423 0.930 . S
C1431 C1432 1.355 . S
C1431 C1433 1.415 . S
C1432 C1431 1.355 . S
C1432 C1434 1.419 . S
C1433 C1428 1.425 . S
C1433 C1430 1.409 . S
C1433 C1431 1.415 . S
C1434 H1424 0.930 . S
C1434 C1432 1.419 . S
C1434 C1435 1.362 . S
C1435 H1425 0.930 . S
C1435 C1428 1.409 . S
C1435 C1434 1.362 . S
H1436 C1442 0.930 . S
H1437 C1445 0.930 . S
H1438 C1446 0.930 . S
H1439 C1447 0.930 . S
H1440 C1450 0.930 . S
H1441 C1451 0.930 . S
C1442 H1436 0.930 . S
C1442 C1443 1.355 . S
C1442 C1444 1.415 . S
C1443 C1442 1.355 . S
C1443 C1445 1.419 . S
C1444 C1442 1.415 . S
C1444 C1449 1.425 . S
C1444 C1451 1.409 . S
C1445 H1437 0.930 . S
C1445 C1443 1.419 . S
C1445 C1446 1.362 . S
C1446 H1438 0.930 . S
C1446 C1445 1.362 . S
C1446 C1449 1.409 . S
C1447 H1439 0.930 . S
C1447 C1448 1.355 . S
C1447 C1449 1.415 . S
C1448 C1447 1.355 . S
C1448 C1450 1.419 . S
C1449 C1444 1.425 . S
C1449 C1446 1.409 . S
C1449 C1447 1.415 . S
C1450 H1440 0.930 . S
C1450 C1448 1.419 . S
C1450 C1451 1.362 . S
C1451 H1441 0.930 . S
C1451 C1444 1.409 . S
C1451 C1450 1.362 . S
H1452 C1458 0.930 . S
H1453 C1461 0.930 . S
H1454 C1462 0.930 . S
H1455 C1463 0.930 . S
H1456 C1466 0.930 . S
H1457 C1467 0.930 . S
C1458 H1452 0.930 . S
C1458 C1459 1.355 . S
C1458 C1460 1.415 . S
C1459 C1458 1.355 . S
C1459 C1461 1.419 . S
C1460 C1458 1.415 . S
C1460 C1465 1.425 . S
C1460 C1467 1.409 . S
C1461 H1453 0.930 . S
C1461 C1459 1.419 . S
C1461 C1462 1.362 . S
C1462 H1454 0.930 . S
C1462 C1461 1.362 . S
C1462 C1465 1.409 . S
C1463 H1455 0.930 . S
C1463 C1464 1.355 . S
C1463 C1465 1.415 . S
C1464 C1463 1.355 . S
C1464 C1466 1.419 . S
C1465 C1460 1.425 . S
C1465 C1462 1.409 . S
C1465 C1463 1.415 . S
C1466 H1456 0.930 . S
C1466 C1464 1.419 . S
C1466 C1467 1.362 . S
C1467 H1457 0.930 . S
C1467 C1460 1.409 . S
C1467 C1466 1.362 . S
H1468 C1474 0.930 . S
H1469 C1477 0.930 . S
H1470 C1478 0.930 . S
H1471 C1479 0.930 . S
H1472 C1482 0.930 . S
H1473 C1483 0.930 . S
C1474 H1468 0.930 . S
C1474 C1475 1.355 . S
C1474 C1476 1.415 . S
C1475 C1474 1.355 . S
C1475 C1477 1.419 . S
C1476 C1474 1.415 . S
C1476 C1481 1.425 . S
C1476 C1483 1.409 . S
C1477 H1469 0.930 . S
C1477 C1475 1.419 . S
C1477 C1478 1.362 . S
C1478 H1470 0.930 . S
C1478 C1477 1.362 . S
C1478 C1481 1.409 . S
C1479 H1471 0.930 . S
C1479 C1480 1.355 . S
C1479 C1481 1.415 . S
C1480 C1479 1.355 . S
C1480 C1482 1.419 . S
C1481 C1476 1.425 . S
C1481 C1478 1.409 . S
C1481 C1479 1.415 . S
C1482 H1472 0.930 . S
C1482 C1480 1.419 . S
C1482 C1483 1.362 . S
C1483 H1473 0.930 . S
C1483 C1476 1.409 . S
C1483 C1482 1.362 . S
H1484 C1490 0.930 . S
H1485 C1493 0.930 . S
H1486 C1494 0.930 . S
H1487 C1495 0.930 . S
H1488 C1498 0.930 . S
H1489 C1499 0.930 . S
C1490 H1484 0.930 . S
C1490 C1491 1.355 . S
C1490 C1492 1.415 . S
C1491 C1490 1.355 . S
C1491 C1493 1.419 . S
C1492 C1490 1.415 . S
C1492 C1497 1.425 . S
C1492 C1499 1.409 . S
C1493 H1485 0.930 . S
C1493 C1491 1.419 . S
C1493 C1494 1.362 . S
C1494 H1486 0.930 . S
C1494 C1493 1.362 . S
C1494 C1497 1.409 . S
C1495 H1487 0.930 . S
C1495 C1496 1.355 . S
C1495 C1497 1.415 . S
C1496 C1495 1.355 . S
C1496 C1498 1.419 . S
C1497 C1492 1.425 . S
C1497 C1494 1.409 . S
C1497 C1495 1.415 . S
C1498 H1488 0.930 . S
C1498 C1496 1.419 . S
C1498 C1499 1.362 . S
C1499 H1489 0.930 . S
C1499 C1492 1.409 . S
C1499 C1498 1.362 . S
H1500 C1506 0.930 . S
H1501 C1509 0.930 . S
H1502 C1510 0.930 . S
H1503 C1511 0.930 . S
H1504 C1514 0.930 . S
H1505 C1515 0.930 . S
C1506 H1500 0.930 . S
C1506 C1507 1.355 . S
C1506 C1508 1.415 . S
C1507 C1506 1.355 . S
C1507 C1509 1.419 . S
C1508 C1506 1.415 . S
C1508 C1513 1.425 . S
C1508 C1515 1.409 . S
C1509 H1501 0.930 . S
C1509 C1507 1.419 . S
C1509 C1510 1.362 . S
C1510 H1502 0.930 . S
C1510 C1509 1.362 . S
C1510 C1513 1.409 . S
C1511 H1503 0.930 . S
C1511 C1512 1.355 . S
C1511 C1513 1.415 . S
C1512 C1511 1.355 . S
C1512 C1514 1.419 . S
C1513 C1508 1.425 . S
C1513 C1510 1.409 . S
C1513 C1511 1.415 . S
C1514 H1504 0.930 . S
C1514 C1512 1.419 . S
C1514 C1515 1.362 . S
C1515 H1505 0.930 . S
C1515 C1508 1.409 . S
C1515 C1514 1.362 . S
H1516 C1522 0.930 . S
H1517 C1525 0.930 . S
H1518 C1526 0.930 . S
H1519 C1527 0.930 . S
H1520 C1530 0.930 . S
H1521 C1531 0.930 . S
C1522 H1516 0.930 . S
C1522 C1523 1.355 . S
C1522 C1524 1.415 . S
C1523 C1522 1.355 . S
C1523 C1525 1.419 . S
C1524 C1522 1.415 . S
C1524 C1529 1.425 . S
C1524 C1531 1.409 . S
C1525 H1517 0.930 . S
C1525 C1523 1.419 . S
C1525 C1526 1.362 . S
C1526 H1518 0.930 . S
C1526 C1525 1.362 . S
C1526 C1529 1.409 . S
C1527 H1519 0.930 . S
C1527 C1528 1.355 . S
C1527 C1529 1.415 . S
C1528 C1527 1.355 . S
C1528 C1530 1.419 . S
C1529 C1524 1.425 . S
C1529 C1526 1.409 . S
C1529 C1527 1.415 . S
C1530 H1520 0.930 . S
C1530 C1528 1.419 . S
C1530 C1531 1.362 . S
C1531 H1521 0.930 . S
C1531 C1524 1.409 . S
C1531 C1530 1.362 . S
H1532 C1538 0.930 . S
H1533 C1541 0.930 . S
H1534 C1542 0.930 . S
H1535 C1543 0.930 . S
H1536 C1546 0.930 . S
H1537 C1547 0.930 . S
C1538 H1532 0.930 . S
C1538 C1539 1.355 . S
C1538 C1540 1.415 . S
C1539 C1538 1.355 . S
C1539 C1541 1.419 . S
C1540 C1538 1.415 . S
C1540 C1545 1.425 . S
C1540 C1547 1.409 . S
C1541 H1533 0.930 . S
C1541 C1539 1.419 . S
C1541 C1542 1.362 . S
C1542 H1534 0.930 . S
C1542 C1541 1.362 . S
C1542 C1545 1.409 . S
C1543 H1535 0.930 . S
C1543 C1544 1.355 . S
C1543 C1545 1.415 . S
C1544 C1543 1.355 . S
C1544 C1546 1.419 . S
C1545 C1540 1.425 . S
C1545 C1542 1.409 . S
C1545 C1543 1.415 . S
C1546 H1536 0.930 . S
C1546 C1544 1.419 . S
C1546 C1547 1.362 . S
C1547 H1537 0.930 . S
C1547 C1540 1.409 . S
C1547 C1546 1.362 . S
H1548 C1554 0.930 . S
H1549 C1557 0.930 . S
H1550 C1558 0.930 . S
H1551 C1559 0.930 . S
H1552 C1562 0.930 . S
H1553 C1563 0.930 . S
C1554 H1548 0.930 . S
C1554 C1555 1.355 . S
C1554 C1556 1.415 . S
C1555 C1554 1.355 . S
C1555 C1557 1.419 . S
C1556 C1554 1.415 . S
C1556 C1561 1.425 . S
C1556 C1563 1.409 . S
C1557 H1549 0.930 . S
C1557 C1555 1.419 . S
C1557 C1558 1.362 . S
C1558 H1550 0.930 . S
C1558 C1557 1.362 . S
C1558 C1561 1.409 . S
C1559 H1551 0.930 . S
C1559 C1560 1.355 . S
C1559 C1561 1.415 . S
C1560 C1559 1.355 . S
C1560 C1562 1.419 . S
C1561 C1556 1.425 . S
C1561 C1558 1.409 . S
C1561 C1559 1.415 . S
C1562 H1552 0.930 . S
C1562 C1560 1.419 . S
C1562 C1563 1.362 . S
C1563 H1553 0.930 . S
C1563 C1556 1.409 . S
C1563 C1562 1.362 . S
H1564 C1570 0.930 . S
H1565 C1573 0.930 . S
H1566 C1574 0.930 . S
H1567 C1575 0.930 . S
H1568 C1578 0.930 . S
H1569 C1579 0.930 . S
C1570 H1564 0.930 . S
C1570 C1571 1.355 . S
C1570 C1572 1.415 . S
C1571 C1570 1.355 . S
C1571 C1573 1.419 . S
C1572 C1570 1.415 . S
C1572 C1577 1.425 . S
C1572 C1579 1.409 . S
C1573 H1565 0.930 . S
C1573 C1571 1.419 . S
C1573 C1574 1.362 . S
C1574 H1566 0.930 . S
C1574 C1573 1.362 . S
C1574 C1577 1.409 . S
C1575 H1567 0.930 . S
C1575 C1576 1.355 . S
C1575 C1577 1.415 . S
C1576 C1575 1.355 . S
C1576 C1578 1.419 . S
C1577 C1572 1.425 . S
C1577 C1574 1.409 . S
C1577 C1575 1.415 . S
C1578 H1568 0.930 . S
C1578 C1576 1.419 . S
C1578 C1579 1.362 . S
C1579 H1569 0.930 . S
C1579 C1572 1.409 . S
C1579 C1578 1.362 . S
H1580 C1586 0.930 . S
H1581 C1589 0.930 . S
H1582 C1590 0.930 . S
H1583 C1591 0.930 . S
H1584 C1594 0.930 . S
H1585 C1595 0.930 . S
C1586 H1580 0.930 . S
C1586 C1587 1.355 . S
C1586 C1588 1.415 . S
C1587 C1586 1.355 . S
C1587 C1589 1.419 . S
C1588 C1586 1.415 . S
C1588 C1593 1.425 . S
C1588 C1595 1.409 . S
C1589 H1581 0.930 . S
C1589 C1587 1.419 . S
C1589 C1590 1.362 . S
C1590 H1582 0.930 . S
C1590 C1589 1.362 . S
C1590 C1593 1.409 . S
C1591 H1583 0.930 . S
C1591 C1592 1.355 . S
C1591 C1593 1.415 . S
C1592 C1591 1.355 . S
C1592 C1594 1.419 . S
C1593 C1588 1.425 . S
C1593 C1590 1.409 . S
C1593 C1591 1.415 . S
C1594 H1584 0.930 . S
C1594 C1592 1.419 . S
C1594 C1595 1.362 . S
C1595 H1585 0.930 . S
C1595 C1588 1.409 . S
C1595 C1594 1.362 . S
H1596 C1602 0.930 . S
H1597 C1605 0.930 . S
H1598 C1606 0.930 . S
H1599 C1607 0.930 . S
H1600 C1610 0.930 . S
H1601 C1611 0.930 . S
C1602 H1596 0.930 . S
C1602 C1603 1.355 . S
C1602 C1604 1.415 . S
C1603 C1602 1.355 . S
C1603 C1605 1.419 . S
C1604 C1602 1.415 . S
C1604 C1609 1.425 . S
C1604 C1611 1.409 . S
C1605 H1597 0.930 . S
C1605 C1603 1.419 . S
C1605 C1606 1.362 . S
C1606 H1598 0.930 . S
C1606 C1605 1.362 . S
C1606 C1609 1.409 . S
C1607 H1599 0.930 . S
C1607 C1608 1.355 . S
C1607 C1609 1.415 . S
C1608 C1607 1.355 . S
C1608 C1610 1.419 . S
C1609 C1604 1.425 . S
C1609 C1606 1.409 . S
C1609 C1607 1.415 . S
C1610 H1600 0.930 . S
C1610 C1608 1.419 . S
C1610 C1611 1.362 . S
C1611 H1601 0.930 . S
C1611 C1604 1.409 . S
C1611 C1610 1.362 . S
H1612 C1618 0.930 . S
H1613 C1621 0.930 . S
H1614 C1622 0.930 . S
H1615 C1623 0.930 . S
H1616 C1626 0.930 . S
H1617 C1627 0.930 . S
C1618 H1612 0.930 . S
C1618 C1619 1.355 . S
C1618 C1620 1.415 . S
C1619 C1618 1.355 . S
C1619 C1621 1.419 . S
C1620 C1618 1.415 . S
C1620 C1625 1.425 . S
C1620 C1627 1.409 . S
C1621 H1613 0.930 . S
C1621 C1619 1.419 . S
C1621 C1622 1.362 . S
C1622 H1614 0.930 . S
C1622 C1621 1.362 . S
C1622 C1625 1.409 . S
C1623 H1615 0.930 . S
C1623 C1624 1.355 . S
C1623 C1625 1.415 . S
C1624 C1623 1.355 . S
C1624 C1626 1.419 . S
C1625 C1620 1.425 . S
C1625 C1622 1.409 . S
C1625 C1623 1.415 . S
C1626 H1616 0.930 . S
C1626 C1624 1.419 . S
C1626 C1627 1.362 . S
C1627 H1617 0.930 . S
C1627 C1620 1.409 . S
C1627 C1626 1.362 . S
H1628 C1634 0.930 . S
H1629 C1637 0.930 . S
H1630 C1638 0.930 . S
H1631 C1639 0.930 . S
H1632 C1642 0.930 . S
H1633 C1643 0.930 . S
C1634 H1628 0.930 . S
C1634 C1635 1.355 . S
C1634 C1636 1.415 . S
C1635 C1634 1.355 . S
C1635 C1637 1.419 . S
C1636 C1634 1.415 . S
C1636 C1641 1.425 . S
C1636 C1643 1.409 . S
C1637 H1629 0.930 . S
C1637 C1635 1.419 . S
C1637 C1638 1.362 . S
C1638 H1630 0.930 . S
C1638 C1637 1.362 . S
C1638 C1641 1.409 . S
C1639 H1631 0.930 . S
C1639 C1640 1.355 . S
C1639 C1641 1.415 . S
C1640 C1639 1.355 . S
C1640 C1642 1.419 . S
C1641 C1636 1.425 . S
C1641 C1638 1.409 . S
C1641 C1639 1.415 . S
C1642 H1632 0.930 . S
C1642 C1640 1.419 . S
C1642 C1643 1.362 . S
C1643 H1633 0.930 . S
C1643 C1636 1.409 . S
C1643 C1642 1.362 . S
H1644 C1650 0.930 . S
H1645 C1653 0.930 . S
H1646 C1654 0.930 . S
H1647 C1655 0.930 . S
H1648 C1658 0.930 . S
H1649 C1659 0.930 . S
C1650 H1644 0.930 . S
C1650 C1651 1.355 . S
C1650 C1652 1.415 . S
C1651 C1650 1.355 . S
C1651 C1653 1.419 . S
C1652 C1650 1.415 . S
C1652 C1657 1.425 . S
C1652 C1659 1.409 . S
C1653 H1645 0.930 . S
C1653 C1651 1.419 . S
C1653 C1654 1.362 . S
C1654 H1646 0.930 . S
C1654 C1653 1.362 . S
C1654 C1657 1.409 . S
C1655 H1647 0.930 . S
C1655 C1656 1.355 . S
C1655 C1657 1.415 . S
C1656 C1655 1.355 . S
C1656 C1658 1.419 . S
C1657 C1652 1.425 . S
C1657 C1654 1.409 . S
C1657 C1655 1.415 . S
C1658 H1648 0.930 . S
C1658 C1656 1.419 . S
C1658 C1659 1.362 . S
C1659 H1649 0.930 . S
C1659 C1652 1.409 . S
C1659 C1658 1.362 . S
H1660 C1666 0.930 . S
H1661 C1669 0.930 . S
H1662 C1670 0.930 . S
H1663 C1671 0.930 . S
H1664 C1674 0.930 . S
H1665 C1675 0.930 . S
C1666 H1660 0.930 . S
C1666 C1667 1.355 . S
C1666 C1668 1.415 . S
C1667 C1666 1.355 . S
C1667 C1669 1.419 . S
C1668 C1666 1.415 . S
C1668 C1673 1.425 . S
C1668 C1675 1.409 . S
C1669 H1661 0.930 . S
C1669 C1667 1.419 . S
C1669 C1670 1.362 . S
C1670 H1662 0.930 . S
C1670 C1669 1.362 . S
C1670 C1673 1.409 . S
C1671 H1663 0.930 . S
C1671 C1672 1.355 . S
C1671 C1673 1.415 . S
C1672 C1671 1.355 . S
C1672 C1674 1.419 . S
C1673 C1668 1.425 . S
C1673 C1670 1.409 . S
C1673 C1671 1.415 . S
C1674 H1664 0.930 . S
C1674 C1672 1.419 . S
C1674 C1675 1.362 . S
C1675 H1665 0.930 . S
C1675 C1668 1.409 . S
C1675 C1674 1.362 . S
H1676 C1682 0.930 . S
H1677 C1685 0.930 . S
H1678 C1686 0.930 . S
H1679 C1687 0.930 . S
H1680 C1690 0.930 . S
H1681 C1691 0.930 . S
C1682 H1676 0.930 . S
C1682 C1683 1.355 . S
C1682 C1684 1.415 . S
C1683 C1682 1.355 . S
C1683 C1685 1.419 . S
C1684 C1682 1.415 . S
C1684 C1689 1.425 . S
C1684 C1691 1.409 . S
C1685 H1677 0.930 . S
C1685 C1683 1.419 . S
C1685 C1686 1.362 . S
C1686 H1678 0.930 . S
C1686 C1685 1.362 . S
C1686 C1689 1.409 . S
C1687 H1679 0.930 . S
C1687 C1688 1.355 . S
C1687 C1689 1.415 . S
C1688 C1687 1.355 . S
C1688 C1690 1.419 . S
C1689 C1684 1.425 . S
C1689 C1686 1.409 . S
C1689 C1687 1.415 . S
C1690 H1680 0.930 . S
C1690 C1688 1.419 . S
C1690 C1691 1.362 . S
C1691 H1681 0.930 . S
C1691 C1684 1.409 . S
C1691 C1690 1.362 . S
H1692 C1698 0.930 . S
H1693 C1701 0.930 . S
H1694 C1702 0.930 . S
H1695 C1703 0.930 . S
H1696 C1706 0.930 . S
H1697 C1707 0.930 . S
C1698 H1692 0.930 . S
C1698 C1699 1.355 . S
C1698 C1700 1.415 . S
C1699 C1698 1.355 . S
C1699 C1701 1.419 . S
C1700 C1698 1.415 . S
C1700 C1705 1.425 . S
C1700 C1707 1.409 . S
C1701 H1693 0.930 . S
C1701 C1699 1.419 . S
C1701 C1702 1.362 . S
C1702 H1694 0.930 . S
C1702 C1701 1.362 . S
C1702 C1705 1.409 . S
C1703 H1695 0.930 . S
C1703 C1704 1.355 . S
C1703 C1705 1.415 . S
C1704 C1703 1.355 . S
C1704 C1706 1.419 . S
C1705 C1700 1.425 . S
C1705 C1702 1.409 . S
C1705 C1703 1.415 . S
C1706 H1696 0.930 . S
C1706 C1704 1.419 . S
C1706 C1707 1.362 . S
C1707 H1697 0.930 . S
C1707 C1700 1.409 . S
C1707 C1706 1.362 . S
H1708 C1714 0.930 . S
H1709 C1717 0.930 . S
H1710 C1718 0.930 . S
H1711 C1719 0.930 . S
H1712 C1722 0.930 . S
H1713 C1723 0.930 . S
C1714 H1708 0.930 . S
C1714 C1715 1.355 . S
C1714 C1716 1.415 . S
C1715 C1714 1.355 . S
C1715 C1717 1.419 . S
C1716 C1714 1.415 . S
C1716 C1721 1.425 . S
C1716 C1723 1.409 . S
C1717 H1709 0.930 . S
C1717 C1715 1.419 . S
C1717 C1718 1.362 . S
C1718 H1710 0.930 . S
C1718 C1717 1.362 . S
C1718 C1721 1.409 . S
C1719 H1711 0.930 . S
C1719 C1720 1.355 . S
C1719 C1721 1.415 . S
C1720 C1719 1.355 . S
C1720 C1722 1.419 . S
C1721 C1716 1.425 . S
C1721 C1718 1.409 . S
C1721 C1719 1.415 . S
C1722 H1712 0.930 . S
C1722 C1720 1.419 . S
C1722 C1723 1.362 . S
C1723 H1713 0.930 . S
C1723 C1716 1.409 . S
C1723 C1722 1.362 . S
H1724 C1730 0.930 . S
H1725 C1733 0.930 . S
H1726 C1734 0.930 . S
H1727 C1735 0.930 . S
H1728 C1738 0.930 . S
H1729 C1739 0.930 . S
C1730 H1724 0.930 . S
C1730 C1731 1.355 . S
C1730 C1732 1.415 . S
C1731 C1730 1.355 . S
C1731 C1733 1.419 . S
C1732 C1730 1.415 . S
C1732 C1737 1.425 . S
C1732 C1739 1.409 . S
C1733 H1725 0.930 . S
C1733 C1731 1.419 . S
C1733 C1734 1.362 . S
C1734 H1726 0.930 . S
C1734 C1733 1.362 . S
C1734 C1737 1.409 . S
C1735 H1727 0.930 . S
C1735 C1736 1.355 . S
C1735 C1737 1.415 . S
C1736 C1735 1.355 . S
C1736 C1738 1.419 . S
C1737 C1732 1.425 . S
C1737 C1734 1.409 . S
C1737 C1735 1.415 . S
C1738 H1728 0.930 . S
C1738 C1736 1.419 . S
C1738 C1739 1.362 . S
C1739 H1729 0.930 . S
C1739 C1732 1.409 . S
C1739 C1738 1.362 . S
C600 C294 1.518 . S
C595 C285 1.518 . S
C611 C261 1.433 . S
C616 C292 1.428 . S
C632 C293 1.428 . S
C627 C249 1.434 . S
C643 C273 1.524 . S
C648 C295 1.520 . S
C664 C339 1.563 . S
C659 C201 1.571 . S
C680 C399 1.512 . S
C675 C213 1.507 . S
C691 C225 1.554 . S
C696 C338 1.559 . S
C712 C398 1.415 . S
C707 C237 1.420 . S
C723 C153 1.475 . S
C728 C340 1.479 . S
C744 C396 1.494 . S
C739 C165 1.490 . S
C755 C177 1.476 . S
C760 C341 1.480 . S
C771 C189 1.578 . S
C776 C397 1.584 . S
C792 C447 1.524 . S
C787 C141 1.518 . S
C803 C117 1.428 . S
C808 C446 1.435 . S
C819 C105 1.428 . S
C824 C448 1.435 . S
C840 C449 1.517 . S
C835 C129 1.519 . S
C851 C57 1.569 . S
C856 C490 1.562 . S
C867 C69 1.507 . S
C872 C549 1.510 1_565 S
C883 C81 1.559 . S
C888 C488 1.559 . S
C899 C93 1.417 1_565 S
C904 C548 1.418 . S
C920 C489 1.479 . S
C915 C9 1.474 . S
C936 C546 1.494 . S
C931 C21 1.490 1_565 S
C947 C33 1.480 . S
C952 C491 1.472 . S
C968 C547 1.584 . S
C963 C45 1.578 . S
C984 C291 1.438 . S
C979 C4 1.268 . S
C995 C18 1.535 1_565 S
C1000 C297 1.559 . S
C1011 C30 1.581 . S
C1016 C289 1.644 . S
C1027 C42 1.672 1_545 S
C1032 C296 1.686 1_565 S
C1043 C52 1.284 . S
C1048 C288 1.448 . S
C1064 C298 1.640 1_565 S
C1059 C66 1.614 . S
C1075 C78 1.589 . S
C1080 C290 1.657 . S
C1096 C299 1.320 1_565 S
C1091 C88 1.144 1_545 S
C1112 C345 1.460 1_565 S
C1107 C40 1.341 . S
C1123 C6 1.586 . S
C1128 C388 1.627 . S
C1144 C343 1.472 1_565 S
C1139 C16 1.313 1_545 S
C1160 C390 1.439 . S
C1155 C28 1.334 . S
C1171 C64 1.233 . S
C1176 C344 1.401 . S
C1192 C389 1.518 . S
C1187 C76 1.424 . S
C1208 C342 1.626 1_565 S
C1203 C90 1.559 . S
C1224 C391 1.733 . S
C1219 C54 1.674 . S
C1240 C395 1.557 . S
C1235 C102 1.539 . S
C1251 C114 1.538 . S
C1256 C394 1.558 . S
C1272 C346 1.365 . S
C1267 C100 1.257 . S
C1288 C393 1.380 . S
C1283 C124 1.228 . S
C1299 C138 1.625 . S
C1304 C349 1.640 . S
C1315 C136 1.212 . S
C1320 C392 1.378 . S
C1336 C348 1.358 . S
C1331 C112 1.209 . S
C1352 C347 1.638 . S
C1347 C126 1.597 . S
C1368 C441 1.454 . S
C1363 C148 1.344 . S
C1384 C444 1.553 . S
C1379 C162 1.478 . S
C1395 C174 1.607 . S
C1400 C440 1.645 . S
C1416 C442 1.687 . S
C1411 C186 1.673 . S
C1432 C438 1.448 . S
C1427 C196 1.276 . S
C1443 C210 1.627 . S
C1448 C443 1.641 . S
C1459 C222 1.642 . S
C1464 C439 1.659 . S
C1480 C445 1.332 . S
C1475 C232 1.187 . S
C1496 C499 1.454 . S
C1491 C184 1.302 . S
C1507 C150 1.561 . S
C1512 C538 1.628 . S
C1528 C498 1.474 . S
C1523 C160 1.319 . S
C1544 C540 1.445 . S
C1539 C172 1.359 . S
C1560 C497 1.421 . S
C1555 C208 1.337 . S
C1571 C220 1.407 . S
C1576 C539 1.514 . S
C1592 C496 1.628 . S
C1587 C234 1.614 . S
C1608 C541 1.732 . S
C1603 C198 1.679 . S
C1624 C545 1.550 . S
C1619 C246 1.476 . S
C1635 C258 1.507 . S
C1640 C544 1.556 . S
C1656 C492 1.351 . S
C1651 C244 1.185 . S
C1667 C268 1.243 . S
C1672 C543 1.382 . S
C1688 C495 1.640 . S
C1683 C282 1.579 . S
C1704 C542 1.381 . S
C1699 C280 1.227 . S
C1720 C493 1.360 . S
C1715 C256 1.237 . S
C1731 C270 1.626 . S
C1736 C494 1.639 . S
