# Generated by pormake.
# Topology tsx, (6,3)-cn, num edge types: 1
# Building blocks:
#     Node 0, Type 0, BuildingBlock: JUFBIX_clean_sbu_0, # of connection points: 6
#     Node 1, Type 0, BuildingBlock: JUFBIX_clean_sbu_0, # of connection points: 6
#     Node 2, Type 1, BuildingBlock: BELTOD_clean_linker_0, # of connection points: 3
#     Node 3, Type 1, BuildingBlock: BELTOD_clean_linker_0, # of connection points: 3
#     Node 4, Type 1, BuildingBlock: BELTOD_clean_linker_0, # of connection points: 3
#     Node 5, Type 1, BuildingBlock: BELTOD_clean_linker_0, # of connection points: 3
#     Edge 6, Type (0, 1), BuildingBlock: FUNLAD_clean_linker_1, # of connection points: 2
#     Edge 7, Type (0, 1), BuildingBlock: FUNLAD_clean_linker_1, # of connection points: 2
#     Edge 8, Type (0, 1), BuildingBlock: FUNLAD_clean_linker_1, # of connection points: 2
#     Edge 9, Type (0, 1), BuildingBlock: FUNLAD_clean_linker_1, # of connection points: 2
#     Edge 10, Type (0, 1), BuildingBlock: FUNLAD_clean_linker_1, # of connection points: 2
#     Edge 11, Type (0, 1), BuildingBlock: FUNLAD_clean_linker_1, # of connection points: 2
#     Edge 12, Type (0, 1), BuildingBlock: FUNLAD_clean_linker_1, # of connection points: 2
#     Edge 13, Type (0, 1), BuildingBlock: FUNLAD_clean_linker_1, # of connection points: 2
#     Edge 14, Type (0, 1), BuildingBlock: FUNLAD_clean_linker_1, # of connection points: 2
#     Edge 15, Type (0, 1), BuildingBlock: FUNLAD_clean_linker_1, # of connection points: 2
#     Edge 16, Type (0, 1), BuildingBlock: FUNLAD_clean_linker_1, # of connection points: 2
#     Edge 17, Type (0, 1), BuildingBlock: FUNLAD_clean_linker_1, # of connection points: 2
# Relax obj value: 0.144
# Max RMSD: 0.160
# Mean RMSD: 0.125
data_MOF--net-tsx--node1-JUFBIX_clean_sbu_0--node2-BELTOD_clean_linker_0--edge1-FUNLAD_clean_linker_1
_symmetry_space_group_name_H-M    P1
_symmetry_Int_Tables_number       1
_symmetry_cell_setting            triclinic
loop_
_symmetry_equiv_pos_as_xyz
'x, y, z'
_cell_length_a     23.032686
_cell_length_b     27.398272
_cell_length_c     41.051695
_cell_angle_alpha  92.988266
_cell_angle_beta   89.578564
_cell_angle_gamma 98.054865
loop_
_atom_site_label
_atom_site_type_symbol
_atom_site_fract_x
_atom_site_fract_y
_atom_site_fract_z
_atom_type_partial_charge
Co0 Co 0.0387 1.00058 0.01815 0.0
C1 C 0.99409 0.02083 0.95788 0.0
Co2 Co 0.96022 0.03928 0.02124 0.0
C3 C 0.11952 0.92738 0.02336 0.0
C4 C 0.15554 0.99113 0.99808 0.0
N5 N 0.10673 0.97113 0.01362 0.0
N6 N 0.1745 0.91999 0.01463 0.0
C7 C 0.19724 0.96012 0.99901 0.0
H8 H 0.08934 0.90173 0.03663 0.0
H9 H 0.16046 0.02593 0.98638 0.0
C10 C 1.00479 0.01947 0.08155 0.0
N11 N 0.89311 0.06952 0.02529 0.0
C12 C 0.88206 0.11126 0.01191 0.0
C13 C 0.84534 0.05529 0.0435 0.0
N14 N 0.82954 0.12376 0.02112 0.0
C15 C 0.80613 0.08851 0.04099 0.0
C16 C 0.93634 0.93609 0.01787 0.0
O17 O 0.04271 0.99977 0.06459 0.0
O18 O 0.96527 0.03857 0.06736 0.0
O19 O 0.91355 0.97585 0.01992 0.0
O20 O 0.99172 0.93811 0.01659 0.0
O21 O 0.95597 0.03972 0.97503 0.0
H22 H 0.83975 0.02316 0.05805 0.0
H23 H 0.91235 0.13254 0.99599 0.0
O24 O 0.03397 1.00187 0.9719 0.0
O25 O 0.08473 0.06355 0.01988 0.0
O26 O 1.00768 0.10233 0.02264 0.0
C27 C 0.06299 0.10358 0.02172 0.0
H28 H 0.24069 0.96604 0.9884 0.0
H29 H 0.7642 0.08687 0.0532 0.0
Co30 Co 0.55598 0.49458 0.51208 0.0
C31 C 0.50139 0.51861 0.45572 0.0
Co32 Co 0.4766 0.53067 0.52125 0.0
C33 C 0.63944 0.42267 0.5103 0.0
C34 C 0.66771 0.48702 0.48376 0.0
N35 N 0.6236 0.46643 0.50259 0.0
N36 N 0.69173 0.41558 0.49693 0.0
C37 C 0.70948 0.45605 0.48038 0.0
H38 H 0.6127 0.39643 0.52489 0.0
H39 H 0.66891 0.522 0.47254 0.0
C40 C 0.53169 0.50686 0.57758 0.0
N41 N 0.40971 0.5598 0.52985 0.0
C42 C 0.39516 0.60077 0.51696 0.0
C43 C 0.36541 0.54529 0.55039 0.0
N44 N 0.3437 0.61247 0.52856 0.0
C45 C 0.32466 0.5776 0.54967 0.0
C46 C 0.45462 0.42797 0.51425 0.0
O47 O 0.56717 0.48978 0.55759 0.0
O48 O 0.48891 0.52616 0.56682 0.0
O49 O 0.43099 0.46693 0.51949 0.0
O50 O 0.50973 0.4314 0.51001 0.0
O51 O 0.46522 0.53484 0.47559 0.0
H52 H 0.36306 0.5134 0.56507 0.0
H53 H 0.42198 0.62184 0.49938 0.0
O54 O 0.54421 0.49975 0.46666 0.0
O55 O 0.60126 0.55826 0.51459 0.0
O56 O 0.52287 0.59414 0.52312 0.0
C57 C 0.57804 0.59734 0.51969 0.0
H58 H 0.74947 0.46225 0.46624 0.0
H59 H 0.28465 0.57558 0.56379 0.0
P60 P 0.08341 0.05519 0.44491 0.0
H61 H 0.06916 0.12939 0.49696 0.0
H62 H 0.9849 0.16747 0.51638 0.0
H63 H 0.87254 0.0695 0.45018 0.0
H64 H 0.9574 0.03088 0.43127 0.0
H65 H 0.19412 0.02131 0.45843 0.0
H66 H 0.21943 0.94685 0.48063 0.0
H67 H 0.03561 0.89557 0.49648 0.0
H68 H 0.01073 0.9718 0.47476 0.0
H69 H 0.04671 0.1113 0.39224 0.0
H70 H 0.10207 0.96876 0.40194 0.0
O71 O 0.14024 0.10002 0.44949 0.0
H72 H 0.04078 0.09609 0.33326 0.0
H73 H 0.09569 0.95299 0.34297 0.0
C74 C 0.01972 0.0783 0.46205 0.0
C75 C 0.02636 0.11596 0.48673 0.0
C76 C 0.97805 0.13805 0.49759 0.0
C77 C 0.92216 0.12271 0.48387 0.0
C78 C 0.91517 0.08258 0.4608 0.0
C79 C 0.96358 0.06059 0.44992 0.0
C80 C 0.10066 1.00234 0.46523 0.0
C81 C 0.15922 0.99431 0.46698 0.0
C82 C 0.17354 0.95097 0.47923 0.0
C83 C 0.12926 0.91415 0.48947 0.0
C84 C 0.07062 0.92302 0.48854 0.0
C85 C 0.05634 0.96661 0.47626 0.0
C86 C 0.07397 0.04103 0.40165 0.0
C87 C 0.05652 0.07632 0.38169 0.0
C88 C 0.05278 0.0673 0.34783 0.0
C89 C 0.06666 0.02263 0.33327 0.0
C90 C 0.08424 0.98749 0.35344 0.0
C91 C 0.08777 0.99651 0.38727 0.0
P92 P 0.10485 0.96327 0.59743 0.0
H93 H 0.08794 0.85736 0.58158 0.0
H94 H 1.00479 0.8002 0.55999 0.0
H95 H 0.90674 0.92223 0.55051 0.0
H96 H 0.99033 0.97919 0.57227 0.0
H97 H 0.18876 0.99147 0.54604 0.0
H98 H 0.22105 0.0697 0.52155 0.0
H99 H 0.09062 0.1369 0.57744 0.0
H100 H 0.05726 0.05746 0.60114 0.0
H101 H 0.0137 0.92107 0.64284 0.0
H102 H 0.16442 0.034 0.64567 0.0
O103 O 0.16445 0.93496 0.59671 0.0
H104 H 0.99963 0.9349 0.70111 0.0
H105 H 0.15023 0.04867 0.70432 0.0
C106 C 0.04542 0.92254 0.57827 0.0
C107 C 0.0488 0.87192 0.57456 0.0
C108 C 1.00114 0.83923 0.5623 0.0
C109 C 0.94869 0.85633 0.55418 0.0
C110 C 0.9458 0.90741 0.55729 0.0
C111 C 0.99385 0.94021 0.56939 0.0
C112 C 0.1218 0.01913 0.57603 0.0
C113 C 0.16671 0.02291 0.55277 0.0
C114 C 0.18562 0.068 0.53907 0.0
C115 C 0.16012 0.11027 0.54874 0.0
C116 C 0.11185 0.10522 0.57005 0.0
C117 C 0.09284 0.05995 0.58365 0.0
C118 C 0.08943 0.97725 0.63972 0.0
C119 C 0.04299 0.94974 0.65586 0.0
C120 C 0.03479 0.95798 0.6894 0.0
C121 C 0.07322 0.99383 0.70745 0.0
C122 C 0.11958 0.02122 0.69106 0.0
C123 C 0.12762 0.01301 0.65755 0.0
P124 P 0.56477 0.57092 0.94355 0.0
H125 H 0.55261 0.64998 0.99253 0.0
H126 H 0.46809 0.68363 0.01567 0.0
H127 H 0.35241 0.57198 0.96052 0.0
H128 H 0.43761 0.53771 0.93789 0.0
H129 H 0.67692 0.53617 0.95026 0.0
H130 H 0.70618 0.46195 0.97065 0.0
H131 H 0.52526 0.40914 0.9933 0.0
H132 H 0.49662 0.4854 0.97392 0.0
H133 H 0.60245 0.62863 0.88722 0.0
H134 H 0.49993 0.48818 0.90455 0.0
O135 O 0.62151 0.61569 0.94892 0.0
H136 H 0.58661 0.61361 0.82863 0.0
H137 H 0.48285 0.47338 0.84572 0.0
C138 C 0.50159 0.59195 0.96293 0.0
C139 C 0.50916 0.63246 0.98553 0.0
C140 C 0.4606 0.65205 0.99851 0.0
C141 C 0.40342 0.63144 0.98898 0.0
C142 C 0.39596 0.58898 0.96791 0.0
C143 C 0.44466 0.5695 0.95486 0.0
C144 C 0.58473 0.51654 0.96076 0.0
C145 C 0.64351 0.50879 0.95981 0.0
C146 C 0.66007 0.46562 0.97111 0.0
C147 C 0.61771 0.42853 0.9829 0.0
C148 C 0.55883 0.43684 0.98425 0.0
C149 C 0.54238 0.48042 0.97317 0.0
C150 C 0.55289 0.55931 0.90028 0.0
C151 C 0.57688 0.59435 0.87842 0.0
C152 C 0.56812 0.58555 0.84483 0.0
C153 C 0.53449 0.54169 0.83253 0.0
C154 C 0.5094 0.50721 0.85455 0.0
C155 C 0.51904 0.5157 0.88814 0.0
P156 P 0.55328 0.4794 0.08984 0.0
H157 H 0.51418 0.38221 0.05865 0.0
H158 H 0.41853 0.34133 0.04036 0.0
H159 H 0.34305 0.47395 0.0659 0.0
H160 H 0.43971 0.5151 0.08392 0.0
H161 H 0.64055 0.50548 0.0394 0.0
H162 H 0.68166 0.58413 0.01778 0.0
H163 H 0.56186 0.65801 0.07753 0.0
H164 H 0.52051 0.57878 0.09888 0.0
H165 H 0.47057 0.43551 0.1387 0.0
H166 H 0.6257 0.54362 0.13719 0.0
O167 O 0.60287 0.44104 0.08309 0.0
H168 H 0.46675 0.44579 0.19778 0.0
H169 H 0.62181 0.55479 0.19665 0.0
C170 C 0.48406 0.45167 0.07273 0.0
C171 C 0.47726 0.40271 0.06016 0.0
C172 C 0.42223 0.37915 0.05001 0.0
C173 C 0.37279 0.40405 0.05269 0.0
C174 C 0.3803 0.45382 0.0639 0.0
C175 C 0.43549 0.47737 0.0741 0.0
C176 C 0.57829 0.53649 0.07116 0.0
C177 C 0.62287 0.53853 0.04769 0.0
C178 C 0.64674 0.5837 0.03559 0.0
C179 C 0.62639 0.62761 0.04696 0.0
C180 C 0.57894 0.62485 0.06876 0.0
C181 C 0.55524 0.57963 0.08092 0.0
C182 C 0.54743 0.48987 0.13339 0.0
C183 C 0.50307 0.46239 0.15104 0.0
C184 C 0.50079 0.46859 0.18505 0.0
C185 C 0.54326 0.50228 0.20208 0.0
C186 C 0.58804 0.52913 0.18423 0.0
C187 C 0.59019 0.52292 0.15024 0.0
H188 H 0.14971 0.14782 0.02012 0.0
C189 C 0.10319 0.15025 0.02307 0.0
H190 H 0.04036 0.19831 0.03381 0.0
H191 H 0.2571 0.33321 0.10746 0.0
H192 H 0.19593 0.30623 0.15345 0.0
H193 H 0.10434 0.24851 0.14493 0.0
H194 H 0.07332 0.21739 0.09037 0.0
C195 C 0.0861 0.19464 0.02923 0.0
C196 C 0.13173 0.23855 0.03351 0.0
C197 C 0.14817 0.25739 0.06537 0.0
C198 C 0.20107 0.29041 0.07026 0.0
C199 C 0.21752 0.30768 0.10244 0.0
C200 C 0.18275 0.29261 0.12901 0.0
C201 C 0.13117 0.26011 0.12421 0.0
C202 C 0.11392 0.24248 0.09281 0.0
H203 H 0.27996 0.40026 0.0371 0.0
C204 C 0.31299 0.37854 0.04479 0.0
H205 H 0.3283 0.30866 0.05948 0.0
H206 H 0.10602 0.21665 0.96919 0.0
H207 H 0.16581 0.24485 0.92289 0.0
H208 H 0.25898 0.30058 0.93128 0.0
H209 H 0.29278 0.3287 0.98583 0.0
C210 C 0.29753 0.33016 0.04909 0.0
C211 C 0.237 0.30469 0.04324 0.0
C212 C 0.21789 0.2892 0.01114 0.0
C213 C 0.16483 0.25634 0.00629 0.0
C214 C 0.14663 0.24092 0.97408 0.0
C215 C 0.18036 0.25698 0.94738 0.0
C216 C 0.23278 0.28842 0.9521 0.0
C217 C 0.25165 0.30435 0.98356 0.0
H218 H 0.25263 0.88418 0.01633 0.0
C219 C 0.20521 0.87871 0.0194 0.0
H220 H 0.13046 0.82517 0.0244 0.0
H221 H 0.29464 0.68274 0.95006 0.0
H222 H 0.22242 0.68893 0.90856 0.0
H223 H 0.14425 0.74092 0.91848 0.0
H224 H 0.13838 0.78749 0.97009 0.0
C225 C 0.17797 0.83284 0.02363 0.0
C226 C 0.21325 0.79115 0.02168 0.0
C227 C 0.21421 0.76203 0.99219 0.0
C228 C 0.25853 0.7311 0.98682 0.0
C229 C 0.26105 0.70553 0.95605 0.0
C230 C 0.21998 0.70901 0.93183 0.0
C231 C 0.17603 0.73835 0.93739 0.0
C232 C 0.17318 0.76488 0.96709 0.0
H233 H 0.30876 0.63147 0.99982 0.0
C234 C 0.35116 0.65459 0.99938 0.0
H235 H 0.39496 0.72783 1.00325 0.0
H236 H 0.21641 0.83518 0.08286 0.0
H237 H 0.28551 0.82618 0.12596 0.0
H238 H 0.36153 0.77168 0.11723 0.0
H239 H 0.36906 0.72588 0.06541 0.0
C240 C 0.35344 0.70375 0.00445 0.0
C241 C 0.30056 0.72818 0.01156 0.0
C242 C 0.29617 0.75403 0.04211 0.0
C243 C 0.25246 0.7855 0.04717 0.0
C244 C 0.24941 0.81132 0.07775 0.0
C245 C 0.28854 0.80627 0.10267 0.0
C246 C 0.33134 0.77557 0.09775 0.0
C247 C 0.33533 0.74965 0.06788 0.0
H248 H 0.92133 0.8549 0.01779 0.0
C249 C 0.89952 0.88767 0.0184 0.0
H250 H 0.81805 0.91503 0.02116 0.0
H251 H 0.6757 0.70713 0.97485 0.0
H252 H 0.66541 0.75448 0.92741 0.0
H253 H 0.71909 0.83855 0.92381 0.0
H254 H 0.78343 0.87575 0.96764 0.0
C255 C 0.84089 0.88291 0.02126 0.0
C256 C 0.80567 0.83356 0.02438 0.0
C257 C 0.76758 0.81274 0.99879 0.0
C258 C 0.73641 0.76436 1.00091 0.0
C259 C 0.69982 0.74393 0.97465 0.0
C260 C 0.69367 0.77067 0.94724 0.0
C261 C 0.72392 0.81799 0.94521 0.0
C262 C 0.76064 0.83893 0.97056 0.0
H263 H 0.63057 0.70787 0.04061 0.0
C264 C 0.65541 0.67692 0.03798 0.0
H265 H 0.74006 0.65661 0.03085 0.0
H266 H 0.868 0.86553 0.08004 0.0
H267 H 0.8773 0.81856 0.12765 0.0
H268 H 0.8257 0.73369 0.13058 0.0
H269 H 0.76412 0.69551 0.08599 0.0
C270 C 0.71283 0.68589 0.03081 0.0
C271 C 0.74326 0.73714 0.02871 0.0
C272 C 0.78013 0.75847 0.0547 0.0
C273 C 0.81075 0.80699 0.05275 0.0
C274 C 0.84527 0.82819 0.0797 0.0
C275 C 0.85062 0.80178 0.10734 0.0
C276 C 0.82152 0.75403 0.10901 0.0
C277 C 0.78645 0.73251 0.08316 0.0
H278 H 0.83243 0.19225 0.99602 0.0
C279 C 0.80613 0.16713 0.01179 0.0
H280 H 0.72682 0.15445 0.0384 0.0
H281 H 0.69484 0.38074 0.04842 0.0
H282 H 0.71448 0.36605 0.10463 0.0
H283 H 0.74212 0.28641 0.11971 0.0
H284 H 0.75053 0.22107 0.07853 0.0
C285 C 0.75344 0.17789 0.02193 0.0
C286 C 0.73183 0.22421 0.01293 0.0
C287 C 0.72557 0.26162 0.03741 0.0
C288 C 0.70871 0.30731 0.02878 0.0
C289 C 0.70571 0.34482 0.05358 0.0
C290 C 0.71732 0.33702 0.086 0.0
C291 C 0.73294 0.29221 0.09448 0.0
C292 C 0.73744 0.25494 0.07058 0.0
H293 H 0.60151 0.35863 0.00865 0.0
C294 C 0.63332 0.38111 0.994 0.0
H295 H 0.71451 0.38324 0.96916 0.0
H296 H 0.73107 0.15763 0.96067 0.0
H297 H 0.70932 0.17153 0.90451 0.0
H298 H 0.68146 0.25105 0.88937 0.0
H299 H 0.67479 0.317 0.93035 0.0
C300 C 0.68373 0.36388 0.98578 0.0
C301 C 0.69697 0.31507 0.99569 0.0
C302 C 0.70132 0.27702 0.97138 0.0
C303 C 0.71823 0.23141 0.98002 0.0
C304 C 0.72025 0.19353 0.95536 0.0
C305 C 0.70739 0.20086 0.92303 0.0
C306 C 0.69164 0.24561 0.91451 0.0
C307 C 0.68828 0.28326 0.9383 0.0
H308 H 0.59371 0.67848 0.52844 0.0
C309 C 0.6149 0.6459 0.52321 0.0
H310 H 0.69535 0.61815 0.51583 0.0
H311 H 0.84573 0.81925 0.48267 0.0
H312 H 0.83074 0.78098 0.42815 0.0
H313 H 0.76106 0.70466 0.41846 0.0
H314 H 0.70569 0.6663 0.46319 0.0
C315 C 0.6737 0.65026 0.52178 0.0
C316 C 0.7116 0.69854 0.52742 0.0
C317 C 0.74392 0.72027 0.50109 0.0
C318 C 0.78468 0.76387 0.50674 0.0
C319 C 0.81536 0.78542 0.47986 0.0
C320 C 0.80687 0.76402 0.44841 0.0
C321 C 0.76759 0.72108 0.44295 0.0
C322 C 0.73625 0.69935 0.46886 0.0
H323 H 0.90746 0.78295 0.53486 0.0
C324 C 0.89821 0.81944 0.54317 0.0
H325 H 0.83018 0.8614 0.55612 0.0
H326 H 0.65697 0.66632 0.58363 0.0
H327 H 0.6705 0.70559 0.63774 0.0
H328 H 0.74012 0.78192 0.64735 0.0
H329 H 0.79687 0.81923 0.60284 0.0
C330 C 0.84178 0.82687 0.5457 0.0
C331 C 0.79379 0.78521 0.53883 0.0
C332 C 0.75954 0.76476 0.56496 0.0
C333 C 0.71877 0.72109 0.55933 0.0
C334 C 0.68743 0.70007 0.58622 0.0
C335 C 0.69501 0.7221 0.61753 0.0
C336 C 0.73426 0.76504 0.62294 0.0
C337 C 0.76649 0.78612 0.59712 0.0
H338 H 0.7652 0.37636 0.48456 0.0
C339 C 0.72349 0.37393 0.49744 0.0
H340 H 0.66344 0.32808 0.52587 0.0
H341 H 0.84039 0.19257 0.44042 0.0
H342 H 0.78365 0.20859 0.39379 0.0
H343 H 0.70429 0.26021 0.39993 0.0
H344 H 0.68216 0.29696 0.45287 0.0
C345 C 0.70395 0.33191 0.512 0.0
C346 C 0.7398 0.29045 0.51006 0.0
C347 C 0.74993 0.26673 0.4794 0.0
C348 C 0.79382 0.23503 0.4762 0.0
C349 C 0.80604 0.21522 0.44471 0.0
C350 C 0.77397 0.22439 0.4176 0.0
C351 C 0.72944 0.25358 0.42102 0.0
C352 C 0.71744 0.27468 0.45148 0.0
H353 H 0.82727 0.12922 0.4872 0.0
C354 C 0.87102 0.14892 0.49186 0.0
H355 H 0.91974 0.21863 0.50461 0.0
H356 H 0.72531 0.3244 0.57294 0.0
H357 H 0.77701 0.30391 0.62062 0.0
H358 H 0.85063 0.24663 0.61556 0.0
H359 H 0.87329 0.20961 0.56275 0.0
C360 C 0.87673 0.19743 0.50058 0.0
C361 C 0.82549 0.22509 0.5041 0.0
C362 C 0.81181 0.24561 0.53517 0.0
C363 C 0.76893 0.27831 0.53816 0.0
C364 C 0.75732 0.29924 0.56936 0.0
C365 C 0.78662 0.28774 0.59691 0.0
C366 C 0.8281 0.2555 0.59406 0.0
C367 C 0.84079 0.23462 0.56361 0.0
H368 H 0.44212 0.34661 0.51192 0.0
C369 C 0.41935 0.37876 0.51471 0.0
H370 H 0.33736 0.40403 0.52243 0.0
H371 H 0.19574 0.19463 0.47751 0.0
H372 H 0.17696 0.24307 0.43192 0.0
H373 H 0.22688 0.32832 0.42792 0.0
H374 H 0.29609 0.36561 0.46948 0.0
C375 C 0.36125 0.37251 0.52029 0.0
C376 C 0.32808 0.32237 0.52388 0.0
C377 C 0.28695 0.30148 0.49974 0.0
C378 C 0.25771 0.25246 0.5022 0.0
C379 C 0.21835 0.23195 0.47717 0.0
C380 C 0.20736 0.25929 0.45078 0.0
C381 C 0.2355 0.30729 0.44852 0.0
C382 C 0.27505 0.32827 0.47256 0.0
H383 H 0.15778 0.18974 0.54177 0.0
C384 C 0.18508 0.16045 0.53899 0.0
H385 H 0.27162 0.14495 0.53095 0.0
H386 H 0.39726 0.35412 0.57708 0.0
H387 H 0.41433 0.30649 0.62326 0.0
H388 H 0.36541 0.2209 0.62697 0.0
H389 H 0.29878 0.18266 0.58464 0.0
C390 C 0.24197 0.17244 0.53117 0.0
C391 C 0.26928 0.22471 0.52903 0.0
C392 C 0.30893 0.24625 0.55376 0.0
C393 C 0.33786 0.2953 0.55138 0.0
C394 C 0.3755 0.31649 0.57707 0.0
C395 C 0.38536 0.28968 0.60391 0.0
C396 C 0.35777 0.24153 0.60601 0.0
C397 C 0.31979 0.21996 0.58141 0.0
H398 H 0.3412 0.68017 0.50337 0.0
C399 C 0.31723 0.6546 0.51977 0.0
H400 H 0.2398 0.6395 0.54774 0.0
H401 H 0.20162 0.86506 0.55641 0.0
H402 H 0.22096 0.85109 0.61287 0.0
H403 H 0.24898 0.77184 0.62841 0.0
H404 H 0.25806 0.70618 0.58754 0.0
C405 C 0.26436 0.66356 0.53081 0.0
C406 C 0.23992 0.70869 0.52185 0.0
C407 C 0.23312 0.74617 0.54617 0.0
C408 C 0.21603 0.79166 0.53726 0.0
C409 C 0.2127 0.82935 0.56186 0.0
C410 C 0.22411 0.82194 0.59437 0.0
C411 C 0.23995 0.77734 0.60312 0.0
C412 C 0.24488 0.7399 0.5794 0.0
H413 H 0.10931 0.84394 0.5147 0.0
C414 C 0.14271 0.86624 0.50096 0.0
H415 H 0.22531 0.86726 0.47781 0.0
H416 H 0.23805 0.64114 0.47012 0.0
H417 H 0.21527 0.65398 0.4139 0.0
H418 H 0.18716 0.73321 0.3983 0.0
H419 H 0.18124 0.79992 0.43888 0.0
C420 C 0.19305 0.84821 0.49381 0.0
C421 C 0.20457 0.79911 0.5041 0.0
C422 C 0.20837 0.76061 0.48006 0.0
C423 C 0.22549 0.71521 0.48896 0.0
C424 C 0.22713 0.67692 0.46456 0.0
C425 C 0.21366 0.68365 0.43222 0.0
C426 C 0.19778 0.72823 0.42345 0.0
C427 C 0.19484 0.76631 0.44698 0.0
H428 H 0.97461 0.04211 0.13026 0.0
C429 C 1.00658 0.02242 0.11751 0.0
H430 H 0.07807 0.98268 0.12306 0.0
H431 H 0.09063 0.11821 0.26143 0.0
H432 H 0.13664 0.18305 0.22787 0.0
H433 H 0.14292 0.16936 0.16815 0.0
H434 H 0.10298 0.09079 0.1416 0.0
C435 C 0.04623 0.00338 0.13496 0.0
C436 C 0.0468 0.01017 0.17121 0.0
C437 C 0.07069 0.05617 0.18641 0.0
C438 C 0.0673 0.06394 0.22087 0.0
C439 C 0.0916 0.11032 0.23534 0.0
C440 C 0.1183 0.14786 0.21637 0.0
C441 C 0.12179 0.14018 0.18275 0.0
C442 C 0.09847 0.09494 0.16781 0.0
H443 H 0.09199 0.98435 0.28755 0.0
C444 C 0.06642 0.01231 0.29725 0.0
H445 H 0.00927 0.06263 0.28475 0.0
H446 H 0.99927 0.9172 0.14977 0.0
H447 H 0.95193 0.85237 0.18304 0.0
H448 H 0.94339 0.86636 0.24264 0.0
H449 H 0.98231 0.94499 0.26938 0.0
C450 C 0.03583 0.03487 0.27618 0.0
C451 C 0.04045 0.02555 0.24017 0.0
C452 C 0.01698 0.97931 0.22493 0.0
C453 C 0.02083 0.9715 0.19045 0.0
C454 C 0.99717 0.9251 0.17583 0.0
C455 C 0.96988 0.88761 0.19463 0.0
C456 C 0.96516 0.89546 0.22819 0.0
C457 C 0.9881 0.94073 0.24328 0.0
H458 H 0.95506 0.03518 0.9109 0.0
C459 C 0.99135 0.02062 0.92197 0.0
H460 H 0.06747 0.98686 0.91361 0.0
H461 H 1.00277 0.89677 0.77272 0.0
H462 H 0.99086 0.82326 0.80387 0.0
H463 H 0.99456 0.82953 0.864 0.0
H464 H 0.01054 0.90935 0.89334 0.0
C465 C 0.03196 1.00279 0.90282 0.0
C466 C 0.02711 0.99979 0.86659 0.0
C467 C 0.01697 0.95282 0.84979 0.0
C468 C 0.01396 0.94922 0.81513 0.0
C469 C 1.00478 0.90176 0.79902 0.0
C470 C 0.99794 0.8592 0.8166 0.0
C471 C 1.0001 0.86272 0.85045 0.0
C472 C 0.00945 0.90884 0.86698 0.0
H473 H 0.10808 0.01907 0.75647 0.0
C474 C 0.06901 1.0015 0.74351 0.0
H475 H 0.97995 0.97088 0.7491 0.0
H476 H 0.0522 0.0956 0.89082 0.0
H477 H 0.06019 0.16912 0.85981 0.0
H478 H 0.04779 0.16291 0.80003 0.0
H479 H 0.02849 0.08304 0.77085 0.0
C480 C 0.02014 0.98813 0.76092 0.0
C481 C 0.02087 0.99259 0.79728 0.0
C482 C 0.02956 0.03963 0.8141 0.0
C483 C 0.03398 0.04323 0.84874 0.0
C484 C 0.04614 0.09063 0.86471 0.0
C485 C 0.0512 0.1332 0.84717 0.0
C486 C 0.04444 0.1297 0.8135 0.0
C487 C 0.03372 0.08359 0.79703 0.0
H488 H 0.5803 0.49096 0.62111 0.0
C489 C 0.54195 0.50602 0.61301 0.0
H490 H 0.46983 0.54196 0.62731 0.0
H491 H 0.54974 0.45089 0.76548 0.0
H492 H 0.52016 0.3701 0.73914 0.0
H493 H 0.48848 0.36142 0.6816 0.0
H494 H 0.48766 0.43349 0.64986 0.0
C495 C 0.50702 0.52514 0.6352 0.0
C496 C 0.52187 0.52981 0.67062 0.0
C497 C 0.51945 0.4874 0.68926 0.0
C498 C 0.53458 0.49258 0.72298 0.0
C499 C 0.53576 0.44938 0.74033 0.0
C500 C 0.51938 0.40268 0.72541 0.0
C501 C 0.50179 0.39778 0.69298 0.0
C502 C 0.5018 0.43949 0.67499 0.0
H503 H 0.48106 0.51126 0.78957 0.0
C504 C 0.52295 0.53209 0.79704 0.0
H505 H 0.60515 0.5668 0.78118 0.0
H506 H 0.53368 0.6185 0.64166 0.0
H507 H 0.5602 0.6995 0.66828 0.0
H508 H 0.58043 0.70888 0.72736 0.0
H509 H 0.57495 0.63736 0.76009 0.0
C510 C 0.56267 0.54683 0.77406 0.0
C511 C 0.5489 0.54035 0.73845 0.0
C512 C 0.5511 0.58272 0.71975 0.0
C513 C 0.53806 0.57741 0.68581 0.0
C514 C 0.54206 0.62035 0.66762 0.0
C515 C 0.55739 0.66713 0.68258 0.0
C516 C 0.56889 0.6724 0.71582 0.0
C517 C 0.56575 0.63091 0.73431 0.0
H518 H 0.45441 0.53534 0.41175 0.0
C519 C 0.49289 0.52088 0.42025 0.0
H520 H 0.56835 0.48889 0.40671 0.0
H521 H 0.4822 0.40366 0.26799 0.0
H522 H 0.4748 0.32889 0.29775 0.0
H523 H 0.48718 0.33291 0.35751 0.0
H524 H 0.50732 0.41172 0.38787 0.0
C525 C 0.53074 0.50482 0.39846 0.0
C526 C 0.51989 0.50323 0.36267 0.0
C527 C 0.50745 0.45685 0.34531 0.0
C528 C 0.49953 0.45454 0.3109 0.0
C529 C 0.48802 0.40764 0.29417 0.0
C530 C 0.48372 0.36438 0.31094 0.0
C531 C 0.49076 0.36664 0.34458 0.0
C532 C 0.50246 0.41218 0.36169 0.0
H533 H 0.58574 0.5245 0.24979 0.0
C534 C 0.54454 0.50839 0.23833 0.0
H535 H 0.45585 0.47975 0.24746 0.0
H536 H 0.54694 0.59823 0.38804 0.0
H537 H 0.55054 0.67299 0.35856 0.0
H538 H 0.5308 0.66897 0.29943 0.0
H539 H 0.50831 0.59007 0.26932 0.0
C540 C 0.49803 0.49551 0.25766 0.0
C541 C 0.50397 0.49861 0.29387 0.0
C542 C 0.51487 0.54506 0.31132 0.0
C543 C 0.5239 0.54738 0.34568 0.0
C544 C 0.53771 0.59424 0.36218 0.0
C545 C 0.54023 0.63749 0.34551 0.0
C546 C 0.5293 0.63523 0.3122 0.0
C547 C 0.51675 0.58968 0.29518 0.0
loop_
_geom_bond_atom_site_label_1
_geom_bond_atom_site_label_2
_geom_bond_distance
_geom_bond_site_symmetry_2
_ccdc_geom_bond_type
Co0 N5 2.057 . S
Co0 O17 2.021 . S
Co0 O20 2.062 1_455 S
Co0 O24 2.117 1_554 S
Co0 O25 2.020 1_565 S
C1 O21 1.259 1_455 S
C1 O24 1.258 1_545 S
Co2 N11 2.057 . S
Co2 O18 2.117 . S
Co2 O19 2.020 1_545 S
Co2 O21 2.021 1_554 S
Co2 O26 2.062 1_655 S
C3 N5 1.316 . S
C3 N6 1.347 . S
C3 H8 0.931 . S
C4 N5 1.375 1_556 S
C4 C7 1.350 . S
C4 H9 0.930 . S
N5 Co0 2.057 . S
N5 C3 1.316 . S
N5 C4 1.375 1_554 S
N6 C3 1.347 . S
N6 C7 1.373 1_554 S
C7 C4 1.350 . S
C7 N6 1.373 1_556 S
C7 H28 0.931 . S
H8 C3 0.931 . S
H9 C4 0.930 . S
C10 O17 1.259 1_545 S
C10 O18 1.258 1_455 S
N11 Co2 2.057 . S
N11 C12 1.316 . S
N11 C13 1.375 . S
C12 N11 1.316 . S
C12 N14 1.347 . S
C12 H23 0.931 1_554 S
C13 N11 1.375 . S
C13 C15 1.350 . S
C13 H22 0.930 . S
N14 C12 1.347 . S
N14 C15 1.373 . S
C15 C13 1.350 . S
C15 N14 1.373 . S
C15 H29 0.931 . S
C16 O19 1.256 . S
C16 O20 1.255 . S
O17 Co0 2.021 . S
O17 C10 1.259 1_565 S
O18 Co2 2.117 . S
O18 C10 1.258 1_655 S
O19 Co2 2.020 1_565 S
O19 C16 1.256 . S
O20 Co0 2.062 1_655 S
O20 C16 1.255 . S
O21 C1 1.259 1_655 S
O21 Co2 2.021 1_556 S
H22 C13 0.930 . S
H23 C12 0.931 1_556 S
O24 Co0 2.117 1_556 S
O24 C1 1.258 1_565 S
O25 Co0 2.020 1_545 S
O25 C27 1.256 . S
O26 Co2 2.062 1_455 S
O26 C27 1.255 . S
C27 O25 1.256 . S
C27 O26 1.255 . S
H28 C7 0.931 . S
H29 C15 0.931 . S
Co30 N35 2.057 . S
Co30 O47 2.021 . S
Co30 O50 2.062 . S
Co30 O54 2.117 . S
Co30 O55 2.020 . S
C31 O51 1.259 . S
C31 O54 1.258 . S
Co32 N41 2.057 . S
Co32 O48 2.117 . S
Co32 O49 2.020 . S
Co32 O51 2.021 . S
Co32 O56 2.062 . S
C33 N35 1.316 . S
C33 N36 1.347 . S
C33 H38 0.931 . S
C34 N35 1.375 . S
C34 C37 1.350 . S
C34 H39 0.930 . S
N35 Co30 2.057 . S
N35 C33 1.316 . S
N35 C34 1.375 . S
N36 C33 1.347 . S
N36 C37 1.373 . S
C37 C34 1.350 . S
C37 N36 1.373 . S
C37 H58 0.931 . S
H38 C33 0.931 . S
H39 C34 0.930 . S
C40 O47 1.259 . S
C40 O48 1.258 . S
N41 Co32 2.057 . S
N41 C42 1.316 . S
N41 C43 1.375 . S
C42 N41 1.316 . S
C42 N44 1.347 . S
C42 H53 0.931 . S
C43 N41 1.375 . S
C43 C45 1.350 . S
C43 H52 0.930 . S
N44 C42 1.347 . S
N44 C45 1.373 . S
C45 C43 1.350 . S
C45 N44 1.373 . S
C45 H59 0.931 . S
C46 O49 1.256 . S
C46 O50 1.255 . S
O47 Co30 2.021 . S
O47 C40 1.259 . S
O48 Co32 2.117 . S
O48 C40 1.258 . S
O49 Co32 2.020 . S
O49 C46 1.256 . S
O50 Co30 2.062 . S
O50 C46 1.255 . S
O51 C31 1.259 . S
O51 Co32 2.021 . S
H52 C43 0.930 . S
H53 C42 0.931 . S
O54 Co30 2.117 . S
O54 C31 1.258 . S
O55 Co30 2.020 . S
O55 C57 1.256 . S
O56 Co32 2.062 . S
O56 C57 1.255 . S
C57 O55 1.256 . S
C57 O56 1.255 . S
H58 C37 0.931 . S
H59 C45 0.931 . S
P60 O71 1.490 . S
P60 C74 1.812 . S
P60 C80 1.803 1_545 S
P60 C86 1.819 . S
H61 C75 0.941 . S
H62 C76 0.939 . S
H63 C78 0.940 . S
H64 C79 0.940 . S
H65 C81 0.939 1_545 S
H66 C82 0.942 . S
H67 C84 0.940 . S
H68 C85 0.931 1_655 S
H69 C87 0.941 . S
H70 C91 0.939 . S
O71 P60 1.490 . S
H72 C88 0.939 . S
H73 C90 0.940 . S
C74 P60 1.812 . S
C74 C75 1.389 . S
C74 C79 1.391 1_455 S
C75 H61 0.941 . S
C75 C74 1.389 . S
C75 C76 1.397 1_455 S
C76 H62 0.939 . S
C76 C75 1.397 1_655 S
C76 C77 1.378 . S
C77 C76 1.378 . S
C77 C78 1.378 . S
C78 H63 0.940 . S
C78 C77 1.378 . S
C78 C79 1.396 . S
C79 H64 0.940 . S
C79 C74 1.391 1_655 S
C79 C78 1.396 . S
C80 P60 1.803 1_565 S
C80 C81 1.378 . S
C80 C85 1.400 . S
C81 H65 0.939 1_565 S
C81 C80 1.378 . S
C81 C82 1.361 . S
C82 H66 0.942 . S
C82 C81 1.361 . S
C82 C83 1.369 . S
C83 C82 1.369 . S
C83 C84 1.404 . S
C84 H67 0.940 . S
C84 C83 1.404 . S
C84 C85 1.389 . S
C85 H68 0.931 1_455 S
C85 C80 1.400 . S
C85 C84 1.389 . S
C86 P60 1.819 . S
C86 C87 1.391 . S
C86 C91 1.391 1_545 S
C87 H69 0.941 . S
C87 C86 1.391 . S
C87 C88 1.396 . S
C88 H72 0.939 . S
C88 C87 1.396 . S
C88 C89 1.397 . S
C89 C88 1.397 . S
C89 C90 1.385 1_545 S
C90 H73 0.940 . S
C90 C89 1.385 1_565 S
C90 C91 1.388 . S
C91 H70 0.939 . S
C91 C86 1.391 1_565 S
C91 C90 1.388 . S
P92 O103 1.490 . S
P92 C106 1.812 1_455 S
P92 C112 1.803 1_565 S
P92 C118 1.819 . S
H93 C107 0.933 1_455 S
H94 C108 0.939 . S
H95 C110 0.940 . S
H96 C111 0.940 . S
H97 C113 0.939 . S
H98 C114 0.942 . S
H99 C116 0.940 . S
H100 C117 0.939 . S
H101 C119 0.941 . S
H102 C123 0.939 . S
O103 P92 1.490 . S
H104 C120 0.939 . S
H105 C122 0.940 . S
C106 P92 1.812 1_655 S
C106 C107 1.390 . S
C106 C111 1.391 . S
C107 H93 0.933 1_655 S
C107 C106 1.390 . S
C107 C108 1.403 . S
C108 H94 0.939 . S
C108 C107 1.403 . S
C108 C109 1.378 . S
C109 C108 1.378 . S
C109 C110 1.378 . S
C110 H95 0.940 . S
C110 C109 1.378 . S
C110 C111 1.396 . S
C111 H96 0.940 . S
C111 C106 1.391 . S
C111 C110 1.396 . S
C112 P92 1.803 1_545 S
C112 C113 1.378 . S
C112 C117 1.400 . S
C113 H97 0.939 . S
C113 C112 1.378 . S
C113 C114 1.361 . S
C114 H98 0.942 . S
C114 C113 1.361 . S
C114 C115 1.369 . S
C115 C114 1.369 . S
C115 C116 1.404 . S
C116 H99 0.940 . S
C116 C115 1.404 . S
C116 C117 1.389 . S
C117 H100 0.939 . S
C117 C112 1.400 . S
C117 C116 1.389 . S
C118 P92 1.819 . S
C118 C119 1.391 . S
C118 C123 1.391 1_565 S
C119 H101 0.941 . S
C119 C118 1.391 . S
C119 C120 1.396 . S
C120 H104 0.939 . S
C120 C119 1.396 . S
C120 C121 1.397 1_565 S
C121 C120 1.397 1_545 S
C121 C122 1.385 . S
C122 H105 0.940 . S
C122 C121 1.385 . S
C122 C123 1.388 . S
C123 H102 0.939 . S
C123 C118 1.391 1_545 S
C123 C122 1.388 . S
P124 O135 1.490 . S
P124 C138 1.812 . S
P124 C144 1.803 . S
P124 C150 1.819 . S
H125 C139 0.941 . S
H126 C140 0.939 1_554 S
H127 C142 0.940 . S
H128 C143 0.940 . S
H129 C145 0.939 . S
H130 C146 0.942 . S
H131 C148 0.940 . S
H132 C149 0.939 . S
H133 C151 0.941 . S
H134 C155 0.939 . S
O135 P124 1.490 . S
H136 C152 0.939 . S
H137 C154 0.940 . S
C138 P124 1.812 . S
C138 C139 1.389 . S
C138 C143 1.391 . S
C139 H125 0.941 . S
C139 C138 1.389 . S
C139 C140 1.397 . S
C140 H126 0.939 1_556 S
C140 C139 1.397 . S
C140 C141 1.378 . S
C141 C140 1.378 . S
C141 C142 1.378 . S
C142 H127 0.940 . S
C142 C141 1.378 . S
C142 C143 1.396 . S
C143 H128 0.940 . S
C143 C138 1.391 . S
C143 C142 1.396 . S
C144 P124 1.803 . S
C144 C145 1.378 . S
C144 C149 1.400 . S
C145 H129 0.939 . S
C145 C144 1.378 . S
C145 C146 1.361 . S
C146 H130 0.942 . S
C146 C145 1.361 . S
C146 C147 1.369 . S
C147 C146 1.369 . S
C147 C148 1.404 . S
C148 H131 0.940 . S
C148 C147 1.404 . S
C148 C149 1.389 . S
C149 H132 0.939 . S
C149 C144 1.400 . S
C149 C148 1.389 . S
C150 P124 1.819 . S
C150 C151 1.391 . S
C150 C155 1.391 . S
C151 H133 0.941 . S
C151 C150 1.391 . S
C151 C152 1.396 . S
C152 H136 0.939 . S
C152 C151 1.396 . S
C152 C153 1.397 . S
C153 C152 1.397 . S
C153 C154 1.385 . S
C154 H137 0.940 . S
C154 C153 1.385 . S
C154 C155 1.388 . S
C155 H134 0.939 . S
C155 C150 1.391 . S
C155 C154 1.388 . S
P156 O167 1.490 . S
P156 C170 1.812 . S
P156 C176 1.803 . S
P156 C182 1.819 . S
H157 C171 0.941 . S
H158 C172 0.939 . S
H159 C174 0.940 . S
H160 C175 0.940 . S
H161 C177 0.939 . S
H162 C178 0.942 . S
H163 C180 0.940 . S
H164 C181 0.939 . S
H165 C183 0.941 . S
H166 C187 0.939 . S
O167 P156 1.490 . S
H168 C184 0.939 . S
H169 C186 0.940 . S
C170 P156 1.812 . S
C170 C171 1.389 . S
C170 C175 1.391 . S
C171 H157 0.941 . S
C171 C170 1.389 . S
C171 C172 1.397 . S
C172 H158 0.939 . S
C172 C171 1.397 . S
C172 C173 1.378 . S
C173 C172 1.378 . S
C173 C174 1.378 . S
C174 H159 0.940 . S
C174 C173 1.378 . S
C174 C175 1.396 . S
C175 H160 0.940 . S
C175 C170 1.391 . S
C175 C174 1.396 . S
C176 P156 1.803 . S
C176 C177 1.378 . S
C176 C181 1.400 . S
C177 H161 0.939 . S
C177 C176 1.378 . S
C177 C178 1.361 . S
C178 H162 0.942 . S
C178 C177 1.361 . S
C178 C179 1.369 . S
C179 C178 1.369 . S
C179 C180 1.404 . S
C180 H163 0.940 . S
C180 C179 1.404 . S
C180 C181 1.389 . S
C181 H164 0.939 . S
C181 C176 1.400 . S
C181 C180 1.389 . S
C182 P156 1.819 . S
C182 C183 1.391 . S
C182 C187 1.391 . S
C183 H165 0.941 . S
C183 C182 1.391 . S
C183 C184 1.396 . S
C184 H168 0.939 . S
C184 C183 1.396 . S
C184 C185 1.397 . S
C185 C184 1.397 . S
C185 C186 1.385 . S
C186 H169 0.940 . S
C186 C185 1.385 . S
C186 C187 1.388 . S
C187 H166 0.939 . S
C187 C182 1.391 . S
C187 C186 1.388 . S
H188 C189 0.951 . S
C189 H188 0.951 . S
C189 C195 1.265 . S
H190 C195 0.950 . S
H191 C199 0.949 . S
H192 C200 0.950 . S
H193 C201 0.951 . S
H194 C202 0.951 . S
C195 C189 1.265 . S
C195 H190 0.950 . S
C195 C196 1.478 . S
C196 C195 1.478 . S
C196 C197 1.397 . S
C196 C213 1.394 1_554 S
C197 C196 1.397 . S
C197 C198 1.438 . S
C197 C202 1.429 . S
C198 C197 1.438 . S
C198 C199 1.428 . S
C198 C211 1.394 . S
C199 H191 0.949 . S
C199 C198 1.428 . S
C199 C200 1.345 . S
C200 H192 0.950 . S
C200 C199 1.345 . S
C200 C201 1.424 . S
C201 H193 0.951 . S
C201 C200 1.424 . S
C201 C202 1.347 . S
C202 H194 0.951 . S
C202 C197 1.429 . S
C202 C201 1.347 . S
H203 C204 0.951 . S
C204 H203 0.951 . S
C204 C210 1.265 . S
H205 C210 0.950 . S
H206 C214 0.949 . S
H207 C215 0.950 . S
H208 C216 0.951 . S
H209 C217 0.951 . S
C210 C204 1.265 . S
C210 H205 0.950 . S
C210 C211 1.478 . S
C211 C198 1.394 . S
C211 C210 1.478 . S
C211 C212 1.401 . S
C212 C211 1.401 . S
C212 C213 1.438 1_554 S
C212 C217 1.424 1_554 S
C213 C196 1.394 1_556 S
C213 C212 1.438 1_556 S
C213 C214 1.428 . S
C214 H206 0.949 . S
C214 C213 1.428 . S
C214 C215 1.345 . S
C215 H207 0.950 . S
C215 C214 1.345 . S
C215 C216 1.424 . S
C216 H208 0.951 . S
C216 C215 1.424 . S
C216 C217 1.347 . S
C217 H209 0.951 . S
C217 C212 1.424 1_556 S
C217 C216 1.347 . S
H218 C219 0.951 . S
C219 H218 0.951 . S
C219 C225 1.265 . S
H220 C225 0.950 . S
H221 C229 0.949 . S
H222 C230 0.950 . S
H223 C231 0.951 . S
H224 C232 0.951 . S
C225 C219 1.265 . S
C225 H220 0.950 . S
C225 C226 1.478 . S
C226 C225 1.478 . S
C226 C227 1.397 1_554 S
C226 C243 1.394 . S
C227 C226 1.397 1_556 S
C227 C228 1.438 . S
C227 C232 1.429 . S
C228 C227 1.438 . S
C228 C229 1.428 . S
C228 C241 1.394 . S
C229 H221 0.949 . S
C229 C228 1.428 . S
C229 C230 1.345 . S
C230 H222 0.950 . S
C230 C229 1.345 . S
C230 C231 1.424 . S
C231 H223 0.951 . S
C231 C230 1.424 . S
C231 C232 1.347 . S
C232 H224 0.951 . S
C232 C227 1.429 . S
C232 C231 1.347 . S
H233 C234 0.951 . S
C234 H233 0.951 . S
C234 C240 1.265 . S
H235 C240 0.952 . S
H236 C244 0.949 . S
H237 C245 0.950 . S
H238 C246 0.951 . S
H239 C247 0.951 . S
C240 C234 1.265 . S
C240 H235 0.952 . S
C240 C241 1.478 . S
C241 C228 1.394 . S
C241 C240 1.478 . S
C241 C242 1.397 1_556 S
C242 C241 1.397 1_554 S
C242 C243 1.438 . S
C242 C247 1.429 . S
C243 C226 1.394 . S
C243 C242 1.438 . S
C243 C244 1.428 . S
C244 H236 0.949 . S
C244 C243 1.428 . S
C244 C245 1.345 . S
C245 H237 0.950 . S
C245 C244 1.345 . S
C245 C246 1.424 . S
C246 H238 0.951 . S
C246 C245 1.424 . S
C246 C247 1.347 . S
C247 H239 0.951 . S
C247 C242 1.429 . S
C247 C246 1.347 . S
H248 C249 0.951 . S
C249 H248 0.951 . S
C249 C255 1.265 . S
H250 C255 0.950 . S
H251 C259 0.949 . S
H252 C260 0.950 . S
H253 C261 0.951 . S
H254 C262 0.951 . S
C255 C249 1.265 . S
C255 H250 0.950 . S
C255 C256 1.478 . S
C256 C255 1.478 . S
C256 C257 1.388 1_554 S
C256 C273 1.394 . S
C257 C256 1.388 1_556 S
C257 C258 1.436 1_556 S
C257 C262 1.440 . S
C258 C257 1.436 1_554 S
C258 C259 1.428 1_554 S
C258 C271 1.394 . S
C259 H251 0.949 . S
C259 C258 1.428 1_556 S
C259 C260 1.345 . S
C260 H252 0.950 . S
C260 C259 1.345 . S
C260 C261 1.424 . S
C261 H253 0.951 . S
C261 C260 1.424 . S
C261 C262 1.347 . S
C262 H254 0.951 . S
C262 C257 1.440 . S
C262 C261 1.347 . S
H263 C264 0.951 . S
C264 H263 0.951 . S
C264 C270 1.265 . S
H265 C270 0.950 . S
H266 C274 0.949 . S
H267 C275 0.950 . S
H268 C276 0.951 . S
H269 C277 0.951 . S
C270 C264 1.265 . S
C270 H265 0.950 . S
C270 C271 1.478 . S
C271 C258 1.394 . S
C271 C270 1.478 . S
C271 C272 1.397 . S
C272 C271 1.397 . S
C272 C273 1.438 . S
C272 C277 1.429 . S
C273 C256 1.394 . S
C273 C272 1.438 . S
C273 C274 1.428 . S
C274 H266 0.949 . S
C274 C273 1.428 . S
C274 C275 1.345 . S
C275 H267 0.950 . S
C275 C274 1.345 . S
C275 C276 1.424 . S
C276 H268 0.951 . S
C276 C275 1.424 . S
C276 C277 1.347 . S
C277 H269 0.951 . S
C277 C272 1.429 . S
C277 C276 1.347 . S
H278 C279 0.951 . S
C279 H278 0.951 . S
C279 C285 1.265 . S
H280 C285 0.950 . S
H281 C289 0.949 . S
H282 C290 0.950 . S
H283 C291 0.951 . S
H284 C292 0.951 . S
C285 C279 1.265 . S
C285 H280 0.950 . S
C285 C286 1.478 . S
C286 C285 1.478 . S
C286 C287 1.397 . S
C286 C303 1.394 1_554 S
C287 C286 1.397 . S
C287 C288 1.438 . S
C287 C292 1.429 . S
C288 C287 1.438 . S
C288 C289 1.428 . S
C288 C301 1.394 1_554 S
C289 H281 0.949 . S
C289 C288 1.428 . S
C289 C290 1.345 . S
C290 H282 0.950 . S
C290 C289 1.345 . S
C290 C291 1.424 . S
C291 H283 0.951 . S
C291 C290 1.424 . S
C291 C292 1.347 . S
C292 H284 0.951 . S
C292 C287 1.429 . S
C292 C291 1.347 . S
H293 C294 0.951 . S
C294 H293 0.951 . S
C294 C300 1.265 . S
H295 C300 0.950 . S
H296 C304 0.949 . S
H297 C305 0.950 . S
H298 C306 0.951 . S
H299 C307 0.951 . S
C300 C294 1.265 . S
C300 H295 0.950 . S
C300 C301 1.478 . S
C301 C288 1.394 1_556 S
C301 C300 1.478 . S
C301 C302 1.397 . S
C302 C301 1.397 . S
C302 C303 1.438 . S
C302 C307 1.429 . S
C303 C286 1.394 1_556 S
C303 C302 1.438 . S
C303 C304 1.428 . S
C304 H296 0.949 . S
C304 C303 1.428 . S
C304 C305 1.345 . S
C305 H297 0.950 . S
C305 C304 1.345 . S
C305 C306 1.424 . S
C306 H298 0.951 . S
C306 C305 1.424 . S
C306 C307 1.347 . S
C307 H299 0.951 . S
C307 C302 1.429 . S
C307 C306 1.347 . S
H308 C309 0.951 . S
C309 H308 0.951 . S
C309 C315 1.265 . S
H310 C315 0.950 . S
H311 C319 0.949 . S
H312 C320 0.950 . S
H313 C321 0.951 . S
H314 C322 0.951 . S
C315 C309 1.265 . S
C315 H310 0.950 . S
C315 C316 1.478 . S
C316 C315 1.478 . S
C316 C317 1.397 . S
C316 C333 1.394 . S
C317 C316 1.397 . S
C317 C318 1.438 . S
C317 C322 1.429 . S
C318 C317 1.438 . S
C318 C319 1.428 . S
C318 C331 1.394 . S
C319 H311 0.949 . S
C319 C318 1.428 . S
C319 C320 1.345 . S
C320 H312 0.950 . S
C320 C319 1.345 . S
C320 C321 1.424 . S
C321 H313 0.951 . S
C321 C320 1.424 . S
C321 C322 1.347 . S
C322 H314 0.951 . S
C322 C317 1.429 . S
C322 C321 1.347 . S
H323 C324 0.951 . S
C324 H323 0.951 . S
C324 C330 1.265 . S
H325 C330 0.950 . S
H326 C334 0.949 . S
H327 C335 0.950 . S
H328 C336 0.951 . S
H329 C337 0.951 . S
C330 C324 1.265 . S
C330 H325 0.950 . S
C330 C331 1.478 . S
C331 C318 1.394 . S
C331 C330 1.478 . S
C331 C332 1.397 . S
C332 C331 1.397 . S
C332 C333 1.438 . S
C332 C337 1.429 . S
C333 C316 1.394 . S
C333 C332 1.438 . S
C333 C334 1.428 . S
C334 H326 0.949 . S
C334 C333 1.428 . S
C334 C335 1.345 . S
C335 H327 0.950 . S
C335 C334 1.345 . S
C335 C336 1.424 . S
C336 H328 0.951 . S
C336 C335 1.424 . S
C336 C337 1.347 . S
C337 H329 0.951 . S
C337 C332 1.429 . S
C337 C336 1.347 . S
H338 C339 0.951 . S
C339 H338 0.951 . S
C339 C345 1.265 . S
H340 C345 0.950 . S
H341 C349 0.949 . S
H342 C350 0.950 . S
H343 C351 0.951 . S
H344 C352 0.951 . S
C345 C339 1.265 . S
C345 H340 0.950 . S
C345 C346 1.478 . S
C346 C345 1.478 . S
C346 C347 1.397 . S
C346 C363 1.394 . S
C347 C346 1.397 . S
C347 C348 1.438 . S
C347 C352 1.429 . S
C348 C347 1.438 . S
C348 C349 1.428 . S
C348 C361 1.394 . S
C349 H341 0.949 . S
C349 C348 1.428 . S
C349 C350 1.345 . S
C350 H342 0.950 . S
C350 C349 1.345 . S
C350 C351 1.424 . S
C351 H343 0.951 . S
C351 C350 1.424 . S
C351 C352 1.347 . S
C352 H344 0.951 . S
C352 C347 1.429 . S
C352 C351 1.347 . S
H353 C354 0.951 . S
C354 H353 0.951 . S
C354 C360 1.265 . S
H355 C360 0.950 . S
H356 C364 0.949 . S
H357 C365 0.950 . S
H358 C366 0.951 . S
H359 C367 0.951 . S
C360 C354 1.265 . S
C360 H355 0.950 . S
C360 C361 1.478 . S
C361 C348 1.394 . S
C361 C360 1.478 . S
C361 C362 1.397 . S
C362 C361 1.397 . S
C362 C363 1.438 . S
C362 C367 1.429 . S
C363 C346 1.394 . S
C363 C362 1.438 . S
C363 C364 1.428 . S
C364 H356 0.949 . S
C364 C363 1.428 . S
C364 C365 1.345 . S
C365 H357 0.950 . S
C365 C364 1.345 . S
C365 C366 1.424 . S
C366 H358 0.951 . S
C366 C365 1.424 . S
C366 C367 1.347 . S
C367 H359 0.951 . S
C367 C362 1.429 . S
C367 C366 1.347 . S
H368 C369 0.951 . S
C369 H368 0.951 . S
C369 C375 1.265 . S
H370 C375 0.950 . S
H371 C379 0.949 . S
H372 C380 0.950 . S
H373 C381 0.951 . S
H374 C382 0.951 . S
C375 C369 1.265 . S
C375 H370 0.950 . S
C375 C376 1.478 . S
C376 C375 1.478 . S
C376 C377 1.397 . S
C376 C393 1.394 . S
C377 C376 1.397 . S
C377 C378 1.438 . S
C377 C382 1.429 . S
C378 C377 1.438 . S
C378 C379 1.428 . S
C378 C391 1.394 . S
C379 H371 0.949 . S
C379 C378 1.428 . S
C379 C380 1.345 . S
C380 H372 0.950 . S
C380 C379 1.345 . S
C380 C381 1.424 . S
C381 H373 0.951 . S
C381 C380 1.424 . S
C381 C382 1.347 . S
C382 H374 0.951 . S
C382 C377 1.429 . S
C382 C381 1.347 . S
H383 C384 0.951 . S
C384 H383 0.951 . S
C384 C390 1.265 . S
H385 C390 0.950 . S
H386 C394 0.949 . S
H387 C395 0.950 . S
H388 C396 0.951 . S
H389 C397 0.951 . S
C390 C384 1.265 . S
C390 H385 0.950 . S
C390 C391 1.478 . S
C391 C378 1.394 . S
C391 C390 1.478 . S
C391 C392 1.397 . S
C392 C391 1.397 . S
C392 C393 1.438 . S
C392 C397 1.429 . S
C393 C376 1.394 . S
C393 C392 1.438 . S
C393 C394 1.428 . S
C394 H386 0.949 . S
C394 C393 1.428 . S
C394 C395 1.345 . S
C395 H387 0.950 . S
C395 C394 1.345 . S
C395 C396 1.424 . S
C396 H388 0.951 . S
C396 C395 1.424 . S
C396 C397 1.347 . S
C397 H389 0.951 . S
C397 C392 1.429 . S
C397 C396 1.347 . S
H398 C399 0.951 . S
C399 H398 0.951 . S
C399 C405 1.265 . S
H400 C405 0.950 . S
H401 C409 0.949 . S
H402 C410 0.950 . S
H403 C411 0.951 . S
H404 C412 0.951 . S
C405 C399 1.265 . S
C405 H400 0.950 . S
C405 C406 1.478 . S
C406 C405 1.478 . S
C406 C407 1.397 . S
C406 C423 1.394 . S
C407 C406 1.397 . S
C407 C408 1.438 . S
C407 C412 1.429 . S
C408 C407 1.438 . S
C408 C409 1.428 . S
C408 C421 1.394 . S
C409 H401 0.949 . S
C409 C408 1.428 . S
C409 C410 1.345 . S
C410 H402 0.950 . S
C410 C409 1.345 . S
C410 C411 1.424 . S
C411 H403 0.951 . S
C411 C410 1.424 . S
C411 C412 1.347 . S
C412 H404 0.951 . S
C412 C407 1.429 . S
C412 C411 1.347 . S
H413 C414 0.951 . S
C414 H413 0.951 . S
C414 C420 1.265 . S
H415 C420 0.950 . S
H416 C424 0.949 . S
H417 C425 0.950 . S
H418 C426 0.951 . S
H419 C427 0.951 . S
C420 C414 1.265 . S
C420 H415 0.950 . S
C420 C421 1.478 . S
C421 C408 1.394 . S
C421 C420 1.478 . S
C421 C422 1.397 . S
C422 C421 1.397 . S
C422 C423 1.438 . S
C422 C427 1.429 . S
C423 C406 1.394 . S
C423 C422 1.438 . S
C423 C424 1.428 . S
C424 H416 0.949 . S
C424 C423 1.428 . S
C424 C425 1.345 . S
C425 H417 0.950 . S
C425 C424 1.345 . S
C425 C426 1.424 . S
C426 H418 0.951 . S
C426 C425 1.424 . S
C426 C427 1.347 . S
C427 H419 0.951 . S
C427 C422 1.429 . S
C427 C426 1.347 . S
H428 C429 0.951 . S
C429 H428 0.951 . S
C429 C435 1.265 1_655 S
H430 C435 0.950 . S
H431 C439 0.949 . S
H432 C440 0.950 . S
H433 C441 0.951 . S
H434 C442 0.951 . S
C435 C429 1.265 1_455 S
C435 H430 0.950 . S
C435 C436 1.478 . S
C436 C435 1.478 . S
C436 C437 1.397 . S
C436 C453 1.394 1_445 S
C437 C436 1.397 . S
C437 C438 1.438 . S
C437 C442 1.429 . S
C438 C437 1.438 . S
C438 C439 1.428 . S
C438 C451 1.394 1_455 S
C439 H431 0.949 . S
C439 C438 1.428 . S
C439 C440 1.345 . S
C440 H432 0.950 . S
C440 C439 1.345 . S
C440 C441 1.424 . S
C441 H433 0.951 . S
C441 C440 1.424 . S
C441 C442 1.347 . S
C442 H434 0.951 . S
C442 C437 1.429 . S
C442 C441 1.347 . S
H443 C444 0.951 . S
C444 H443 0.951 . S
C444 C450 1.265 1_445 S
H445 C450 0.951 . S
H446 C454 0.949 . S
H447 C455 0.950 . S
H448 C456 0.951 . S
H449 C457 0.951 . S
C450 C444 1.265 1_665 S
C450 H445 0.951 . S
C450 C451 1.477 1_565 S
C451 C438 1.394 1_655 S
C451 C450 1.477 1_545 S
C451 C452 1.397 1_545 S
C452 C451 1.397 1_565 S
C452 C453 1.438 . S
C452 C457 1.429 . S
C453 C436 1.394 1_665 S
C453 C452 1.438 . S
C453 C454 1.428 . S
C454 H446 0.949 . S
C454 C453 1.428 . S
C454 C455 1.345 . S
C455 H447 0.950 . S
C455 C454 1.345 . S
C455 C456 1.424 . S
C456 H448 0.951 . S
C456 C455 1.424 . S
C456 C457 1.347 . S
C457 H449 0.951 . S
C457 C452 1.429 . S
C457 C456 1.347 . S
H458 C459 0.950 1_565 S
C459 H458 0.950 1_545 S
C459 C465 1.265 1_655 S
H460 C465 0.950 . S
H461 C469 0.949 . S
H462 C470 0.950 . S
H463 C471 0.951 . S
H464 C472 0.951 . S
C465 C459 1.265 1_455 S
C465 H460 0.950 . S
C465 C466 1.478 . S
C466 C465 1.478 . S
C466 C467 1.397 1_545 S
C466 C483 1.394 1_455 S
C467 C466 1.397 1_565 S
C467 C468 1.438 . S
C467 C472 1.429 . S
C468 C467 1.438 . S
C468 C469 1.428 . S
C468 C481 1.394 1_465 S
C469 H461 0.949 . S
C469 C468 1.428 . S
C469 C470 1.345 . S
C470 H462 0.950 . S
C470 C469 1.345 . S
C470 C471 1.424 . S
C471 H463 0.951 . S
C471 C470 1.424 . S
C471 C472 1.347 . S
C472 H464 0.951 . S
C472 C467 1.429 . S
C472 C471 1.347 . S
H473 C474 0.951 . S
C474 H473 0.951 . S
C474 C480 1.265 1_455 S
H475 C480 0.948 1_565 S
H476 C484 0.949 . S
H477 C485 0.950 . S
H478 C486 0.951 . S
H479 C487 0.951 . S
C480 C474 1.265 1_655 S
C480 H475 0.948 1_545 S
C480 C481 1.478 . S
C481 C468 1.394 1_645 S
C481 C480 1.478 . S
C481 C482 1.397 . S
C482 C481 1.397 . S
C482 C483 1.438 . S
C482 C487 1.429 . S
C483 C466 1.394 1_655 S
C483 C482 1.438 . S
C483 C484 1.428 . S
C484 H476 0.949 . S
C484 C483 1.428 . S
C484 C485 1.345 . S
C485 H477 0.950 . S
C485 C484 1.345 . S
C485 C486 1.424 . S
C486 H478 0.951 . S
C486 C485 1.424 . S
C486 C487 1.347 . S
C487 H479 0.951 . S
C487 C482 1.429 . S
C487 C486 1.347 . S
H488 C489 0.951 . S
C489 H488 0.951 . S
C489 C495 1.265 . S
H490 C495 0.950 . S
H491 C499 0.949 . S
H492 C500 0.950 . S
H493 C501 0.951 . S
H494 C502 0.951 . S
C495 C489 1.265 . S
C495 H490 0.950 . S
C495 C496 1.478 . S
C496 C495 1.478 . S
C496 C497 1.397 . S
C496 C513 1.394 . S
C497 C496 1.397 . S
C497 C498 1.438 . S
C497 C502 1.429 . S
C498 C497 1.438 . S
C498 C499 1.428 . S
C498 C511 1.394 . S
C499 H491 0.949 . S
C499 C498 1.428 . S
C499 C500 1.345 . S
C500 H492 0.950 . S
C500 C499 1.345 . S
C500 C501 1.424 . S
C501 H493 0.951 . S
C501 C500 1.424 . S
C501 C502 1.347 . S
C502 H494 0.951 . S
C502 C497 1.429 . S
C502 C501 1.347 . S
H503 C504 0.951 . S
C504 H503 0.951 . S
C504 C510 1.265 . S
H505 C510 0.950 . S
H506 C514 0.949 . S
H507 C515 0.950 . S
H508 C516 0.951 . S
H509 C517 0.951 . S
C510 C504 1.265 . S
C510 H505 0.950 . S
C510 C511 1.478 . S
C511 C498 1.394 . S
C511 C510 1.478 . S
C511 C512 1.397 . S
C512 C511 1.397 . S
C512 C513 1.438 . S
C512 C517 1.429 . S
C513 C496 1.394 . S
C513 C512 1.438 . S
C513 C514 1.428 . S
C514 H506 0.949 . S
C514 C513 1.428 . S
C514 C515 1.345 . S
C515 H507 0.950 . S
C515 C514 1.345 . S
C515 C516 1.424 . S
C516 H508 0.951 . S
C516 C515 1.424 . S
C516 C517 1.347 . S
C517 H509 0.951 . S
C517 C512 1.429 . S
C517 C516 1.347 . S
H518 C519 0.951 . S
C519 H518 0.951 . S
C519 C525 1.265 . S
H520 C525 0.950 . S
H521 C529 0.949 . S
H522 C530 0.950 . S
H523 C531 0.951 . S
H524 C532 0.951 . S
C525 C519 1.265 . S
C525 H520 0.950 . S
C525 C526 1.478 . S
C526 C525 1.478 . S
C526 C527 1.397 . S
C526 C543 1.394 . S
C527 C526 1.397 . S
C527 C528 1.438 . S
C527 C532 1.429 . S
C528 C527 1.438 . S
C528 C529 1.428 . S
C528 C541 1.394 . S
C529 H521 0.949 . S
C529 C528 1.428 . S
C529 C530 1.345 . S
C530 H522 0.950 . S
C530 C529 1.345 . S
C530 C531 1.424 . S
C531 H523 0.951 . S
C531 C530 1.424 . S
C531 C532 1.347 . S
C532 H524 0.951 . S
C532 C527 1.429 . S
C532 C531 1.347 . S
H533 C534 0.951 . S
C534 H533 0.951 . S
C534 C540 1.265 . S
H535 C540 0.950 . S
H536 C544 0.949 . S
H537 C545 0.950 . S
H538 C546 0.951 . S
H539 C547 0.951 . S
C540 C534 1.265 . S
C540 H535 0.950 . S
C540 C541 1.478 . S
C541 C528 1.394 . S
C541 C540 1.478 . S
C541 C542 1.397 . S
C542 C541 1.397 . S
C542 C543 1.438 . S
C542 C547 1.429 . S
C543 C526 1.394 . S
C543 C542 1.438 . S
C543 C544 1.428 . S
C544 H536 0.949 . S
C544 C543 1.428 . S
C544 C545 1.345 . S
C545 H537 0.950 . S
C545 C544 1.345 . S
C545 C546 1.424 . S
C546 H538 0.951 . S
C546 C545 1.424 . S
C546 C547 1.347 . S
C547 H539 0.951 . S
C547 C542 1.429 . S
C547 C546 1.347 . S
C204 C173 1.420 . S
C189 C27 1.435 . S
C219 N6 1.329 . S
C234 C141 1.389 . S
C249 C16 1.423 . S
C264 C179 1.421 . S
C279 N14 1.396 . S
C294 C147 1.391 . S
C309 C57 1.430 . S
C324 C109 1.360 . S
C339 N36 1.330 . S
C354 C77 1.391 . S
C384 C115 1.370 . S
C369 C46 1.435 . S
C414 C83 1.385 . S
C399 N44 1.389 . S
C429 C10 1.400 1_655 S
C444 C89 1.323 . S
C459 C1 1.509 1_655 S
C474 C121 1.465 . S
C504 C153 1.394 . S
C489 C40 1.375 . S
C519 C31 1.508 . S
C534 C185 1.460 . S
