# Generated by pormake.
# Topology tsx, (6,3)-cn, num edge types: 1
# Building blocks:
#     Node 0, Type 0, BuildingBlock: JUFBIX_clean_sbu_0, # of connection points: 6
#     Node 1, Type 0, BuildingBlock: JUFBIX_clean_sbu_0, # of connection points: 6
#     Node 2, Type 1, BuildingBlock: KAKCAD_clean_linker_0, # of connection points: 3
#     Node 3, Type 1, BuildingBlock: KAKCAD_clean_linker_0, # of connection points: 3
#     Node 4, Type 1, BuildingBlock: KAKCAD_clean_linker_0, # of connection points: 3
#     Node 5, Type 1, BuildingBlock: KAKCAD_clean_linker_0, # of connection points: 3
#     Edge 6, Type (0, 1), BuildingBlock: KIFKEQ_clean_linker_1, # of connection points: 2
#     Edge 7, Type (0, 1), BuildingBlock: KIFKEQ_clean_linker_1, # of connection points: 2
#     Edge 8, Type (0, 1), BuildingBlock: KIFKEQ_clean_linker_1, # of connection points: 2
#     Edge 9, Type (0, 1), BuildingBlock: KIFKEQ_clean_linker_1, # of connection points: 2
#     Edge 10, Type (0, 1), BuildingBlock: KIFKEQ_clean_linker_1, # of connection points: 2
#     Edge 11, Type (0, 1), BuildingBlock: KIFKEQ_clean_linker_1, # of connection points: 2
#     Edge 12, Type (0, 1), BuildingBlock: KIFKEQ_clean_linker_1, # of connection points: 2
#     Edge 13, Type (0, 1), BuildingBlock: KIFKEQ_clean_linker_1, # of connection points: 2
#     Edge 14, Type (0, 1), BuildingBlock: KIFKEQ_clean_linker_1, # of connection points: 2
#     Edge 15, Type (0, 1), BuildingBlock: KIFKEQ_clean_linker_1, # of connection points: 2
#     Edge 16, Type (0, 1), BuildingBlock: KIFKEQ_clean_linker_1, # of connection points: 2
#     Edge 17, Type (0, 1), BuildingBlock: KIFKEQ_clean_linker_1, # of connection points: 2
# Relax obj value: 0.159
# Max RMSD: 0.166
# Mean RMSD: 0.134
data_MOF--net-tsx--node1-JUFBIX_clean_sbu_0--node2-KAKCAD_clean_linker_0--edge1-KIFKEQ_clean_linker_1
_symmetry_space_group_name_H-M    P1
_symmetry_Int_Tables_number       1
_symmetry_cell_setting            triclinic
loop_
_symmetry_equiv_pos_as_xyz
'x, y, z'
_cell_length_a     24.22442
_cell_length_b     28.87149
_cell_length_c     44.199052
_cell_angle_alpha  92.507027
_cell_angle_beta   89.334742
_cell_angle_gamma 97.537725
loop_
_atom_site_label
_atom_site_type_symbol
_atom_site_fract_x
_atom_site_fract_y
_atom_site_fract_z
_atom_type_partial_charge
Co0 Co 0.0397 0.98658 0.01305 0.0
C1 C 0.99858 0.01382 0.95846 0.0
Co2 Co 0.97043 0.02936 0.01808 0.0
C3 C 0.11475 0.91538 0.01819 0.0
C4 C 0.14678 0.97189 0.99042 0.0
N5 N 0.10184 0.95554 0.00703 0.0
N6 N 0.16629 0.90697 0.00952 0.0
C7 C 0.18652 0.94238 0.99213 0.0
H8 H 0.08756 0.89339 0.03283 0.0
H9 H 0.15065 0.00361 0.97798 0.0
C10 C 0.01147 0.00251 0.07272 0.0
N11 N 0.90857 0.06046 0.02422 0.0
C12 C 0.89729 0.10175 0.01414 0.0
C13 C 0.86353 0.04451 0.04084 0.0
N14 N 0.8467 0.11165 0.0236 0.0
C15 C 0.82544 0.07567 0.04036 0.0
C16 C 0.93929 0.93152 0.01266 0.0
O17 O 0.0458 0.98328 0.05595 0.0
O18 O 0.97531 0.02371 0.06049 0.0
O19 O 0.92283 0.97155 0.01501 0.0
O20 O 0.99127 0.92885 0.01147 0.0
O21 O 0.96622 0.03486 0.97545 0.0
H22 H 0.85876 0.01225 0.05273 0.0
H23 H 0.92523 0.12375 0.99987 0.0
O24 O 0.03294 0.99036 0.9704 0.0
O25 O 0.0872 0.04471 0.01463 0.0
O26 O 0.01862 0.08676 0.02108 0.0
C27 C 0.07045 0.08449 0.01824 0.0
H28 H 0.22707 0.94631 0.98127 0.0
H29 H 0.78549 0.07251 0.05186 0.0
Co30 Co 0.54428 0.48954 0.51291 0.0
C31 C 0.49787 0.51868 0.45973 0.0
Co32 Co 0.47735 0.53443 0.51992 0.0
C33 C 0.61771 0.41639 0.51528 0.0
C34 C 0.643 0.46866 0.48321 0.0
N35 N 0.60318 0.45583 0.50389 0.0
N36 N 0.66541 0.40463 0.50261 0.0
C37 C 0.68108 0.43748 0.48239 0.0
H38 H 0.59433 0.39722 0.53279 0.0
H39 H 0.64434 0.49899 0.46956 0.0
C40 C 0.52367 0.50545 0.57317 0.0
N41 N 0.41878 0.56841 0.52909 0.0
C42 C 0.40337 0.60637 0.51624 0.0
C43 C 0.38265 0.55989 0.55231 0.0
N44 N 0.3598 0.62206 0.53098 0.0
C45 C 0.34675 0.59295 0.55365 0.0
C46 C 0.44156 0.43783 0.51533 0.0
O47 O 0.55525 0.48479 0.55545 0.0
O48 O 0.48811 0.5283 0.56193 0.0
O49 O 0.42657 0.47836 0.51867 0.0
O50 O 0.49304 0.43384 0.51237 0.0
O51 O 0.4676 0.54033 0.47763 0.0
H52 H 0.38247 0.53141 0.56742 0.0
H53 H 0.42422 0.62264 0.49687 0.0
O54 O 0.5326 0.49461 0.47067 0.0
O55 O 0.59482 0.54583 0.51336 0.0
O56 O 0.52861 0.59012 0.52112 0.0
C57 C 0.57988 0.58627 0.51715 0.0
H58 H 0.71722 0.43861 0.46767 0.0
H59 H 0.31301 0.59505 0.56973 0.0
C60 C 0.99475 0.96112 0.31629 0.0
C61 C 0.01203 0.00241 0.30121 0.0
C62 C 0.99273 0.96148 0.34788 0.0
C63 C 0.00744 0.00323 0.36516 0.0
C64 C 0.02441 0.04467 0.35013 0.0
C65 C 0.0271 0.04419 0.31844 0.0
C66 C 1.00532 0.0029 0.39875 0.0
C67 C 0.02795 0.96808 0.41374 0.0
C68 C 0.02349 0.96488 0.44538 0.0
C69 C 0.99598 0.9977 0.46214 0.0
C70 C 0.97427 0.03356 0.44746 0.0
C71 C 0.9794 0.0361 0.41582 0.0
C72 C 0.94498 0.06819 0.46469 0.0
C73 C 0.8969 0.05381 0.4817 0.0
C74 C 0.96245 0.11613 0.46207 0.0
C75 C 0.9315 0.14921 0.47539 0.0
C76 C 0.88188 0.13501 0.49118 0.0
C77 C 0.04907 0.92768 0.46031 0.0
C78 C 0.04782 0.8832 0.44587 0.0
C79 C 0.0789 0.93715 0.48747 0.0
C80 C 0.1095 0.90381 0.49883 0.0
C81 C 0.11123 0.86041 0.48317 0.0
C82 C 0.0789 0.85032 0.45689 0.0
C83 C 0.86523 0.08698 0.49458 0.0
H84 H 0.98324 0.92836 0.30363 0.0
H85 H 0.97908 0.92908 0.35884 0.0
H86 H 0.03625 0.07728 0.3629 0.0
H87 H 0.04018 0.0766 0.30738 0.0
H88 H 0.05013 0.94381 0.40057 0.0
H89 H 0.96144 0.06302 0.40441 0.0
H90 H 0.99155 0.99554 0.48648 0.0
H91 H 0.88255 0.01695 0.48387 0.0
H92 H 0.99943 0.12797 0.44907 0.0
H93 H 0.94509 0.18594 0.47216 0.0
H94 H 0.02414 0.87418 0.42533 0.0
H95 H 0.08066 0.97099 0.49926 0.0
H96 H 0.82725 0.07513 0.50671 0.0
H97 H 0.07923 0.81772 0.44389 0.0
H98 H 0.13272 0.91254 0.51954 0.0
C99 C 0.99051 0.06792 0.71446 0.0
C100 C 1.00415 0.0299 0.73036 0.0
C101 C 0.99141 0.06639 0.68274 0.0
C102 C 1.00485 0.02645 0.66644 0.0
C103 C 0.01808 0.98839 0.68239 0.0
C104 C 0.01812 0.99023 0.71401 0.0
C105 C 1.0051 0.02402 0.63287 0.0
C106 C 0.03482 0.05977 0.61651 0.0
C107 C 0.03813 0.05585 0.58474 0.0
C108 C 0.01026 0.0162 0.56925 0.0
C109 C 0.97924 0.9806 0.58531 0.0
C110 C 0.97714 0.98483 0.61712 0.0
C111 C 0.9481 0.93916 0.56928 0.0
C112 C 0.9164 0.94407 0.54344 0.0
C113 C 0.94667 0.89467 0.58114 0.0
C114 C 0.91174 0.85657 0.56872 0.0
C115 C 0.8777 0.86179 0.54387 0.0
C116 C 0.07318 0.09229 0.56811 0.0
C117 C 0.06815 0.13971 0.57407 0.0
C118 C 0.11467 0.08009 0.54793 0.0
C119 C 0.15242 0.11486 0.53522 0.0
C120 C 0.14862 0.16232 0.54208 0.0
C121 C 0.10528 0.17441 0.56101 0.0
C122 C 0.88153 0.90574 0.53085 0.0
H123 H 0.97983 0.09898 0.72656 0.0
H124 H 0.98087 0.09611 0.67093 0.0
H125 H 0.02896 0.95731 0.67036 0.0
H126 H 0.02842 0.96032 0.72571 0.0
H127 H 0.0574 0.08974 0.62861 0.0
H128 H 0.95281 0.9579 0.62978 0.0
H129 H 0.01301 0.01304 0.54477 0.0
H130 H 0.91664 0.97791 0.53375 0.0
H131 H 0.97145 0.88953 0.60067 0.0
H132 H 0.90969 0.82347 0.57957 0.0
H133 H 0.03625 0.14991 0.58942 0.0
H134 H 0.11945 0.04372 0.54306 0.0
H135 H 0.85658 0.91082 0.51139 0.0
H136 H 0.10165 0.21072 0.56684 0.0
H137 H 0.18532 0.10469 0.52057 0.0
C138 C 0.52175 0.46996 0.81838 0.0
C139 C 0.53698 0.51083 0.80238 0.0
C140 C 0.51976 0.4718 0.85008 0.0
C141 C 0.53251 0.51459 0.86652 0.0
C142 C 0.54789 0.55539 0.8506 0.0
C143 C 0.55036 0.55351 0.81896 0.0
C144 C 0.53058 0.51676 0.9002 0.0
C145 C 0.55428 0.48401 0.91665 0.0
C146 C 0.55472 0.48702 0.94841 0.0
C147 C 0.53059 0.52278 0.96402 0.0
C148 C 0.50531 0.55531 0.94794 0.0
C149 C 0.50583 0.55202 0.91601 0.0
C150 C 0.47713 0.59219 0.96403 0.0
C151 C 0.44303 0.58207 0.98953 0.0
C152 C 0.48132 0.63723 0.95269 0.0
C153 C 0.45009 0.67052 0.96541 0.0
C154 C 0.4141 0.65996 0.99008 0.0
C155 C 0.58157 0.45266 0.96478 0.0
C156 C 0.55996 0.40517 0.96231 0.0
C157 C 0.63212 0.46627 0.97987 0.0
C158 C 0.66217 0.43243 0.99095 0.0
C159 C 0.6414 0.38469 0.98761 0.0
C160 C 0.58934 0.37149 0.9739 0.0
C161 C 0.41179 0.61558 0.00239 0.0
H162 H 0.51028 0.4366 0.80645 0.0
H163 H 0.50728 0.43982 0.86172 0.0
H164 H 0.55887 0.58875 0.86265 0.0
H165 H 0.56334 0.58558 0.80753 0.0
H166 H 0.57396 0.45683 0.90476 0.0
H167 H 0.48564 0.57626 0.90331 0.0
H168 H 0.53146 0.52511 0.98856 0.0
H169 H 0.43879 0.5477 0.99884 0.0
H170 H 0.50798 0.64656 0.93346 0.0
H171 H 0.4527 0.70404 0.95504 0.0
H172 H 0.52113 0.39408 0.95057 0.0
H173 H 0.64955 0.5028 0.9818 0.0
H174 H 0.38518 0.60645 0.02166 0.0
H175 H 0.57261 0.33492 0.97085 0.0
H176 H 0.70211 0.44343 1.00155 0.0
C177 C 0.48792 0.576 0.21566 0.0
C178 C 0.50062 0.53796 0.23188 0.0
C179 C 0.48804 0.57366 0.18391 0.0
C180 C 0.49968 0.53287 0.16793 0.0
C181 C 0.51221 0.4949 0.1842 0.0
C182 C 0.51306 0.49753 0.2158 0.0
C183 C 0.49798 0.52907 0.13437 0.0
C184 C 0.52855 0.56296 0.11688 0.0
C185 C 0.53021 0.55714 0.08512 0.0
C186 C 0.49972 0.51757 0.07082 0.0
C187 C 0.46781 0.48391 0.08806 0.0
C188 C 0.46742 0.49001 0.11979 0.0
C189 C 0.43449 0.44226 0.07341 0.0
C190 C 0.40175 0.44639 0.04785 0.0
C191 C 0.43239 0.39843 0.08628 0.0
C192 C 0.39638 0.36017 0.07491 0.0
C193 C 0.36182 0.36455 0.05014 0.0
C194 C 0.56633 0.5914 0.06729 0.0
C195 C 0.563 0.63939 0.07166 0.0
C196 C 0.60738 0.57667 0.04772 0.0
C197 C 0.64653 0.60959 0.0342 0.0
C198 C 0.64441 0.65767 0.03953 0.0
C199 C 0.60138 0.67221 0.0577 0.0
C200 C 0.36572 0.40791 0.03635 0.0
H201 H 0.47842 0.60764 0.22755 0.0
H202 H 0.47806 0.60333 0.17185 0.0
H203 H 0.52167 0.46316 0.17241 0.0
H204 H 0.5226 0.46758 0.22772 0.0
H205 H 0.55308 0.59282 0.12807 0.0
H206 H 0.44256 0.46455 0.13334 0.0
H207 H 0.50123 0.5129 0.04637 0.0
H208 H 0.40239 0.47974 0.03746 0.0
H209 H 0.45781 0.39388 0.10566 0.0
H210 H 0.39423 0.32758 0.08636 0.0
H211 H 0.53149 0.65151 0.08651 0.0
H212 H 0.61079 0.5398 0.04403 0.0
H213 H 0.3403 0.41232 0.01695 0.0
H214 H 0.599 0.70906 0.06231 0.0
H215 H 0.67917 0.59755 0.02015 0.0
H216 H 0.05646 0.17217 0.04072 0.0
H217 H 0.17708 0.0932 0.99732 0.0
H218 H 0.12691 0.24079 0.04498 0.0
H219 H 0.24655 0.16197 1.00015 0.0
H220 H 0.37409 0.27153 0.04621 0.0
H221 H 0.30267 0.20567 0.03655 0.0
H222 H 0.18356 0.30069 0.01987 0.0
H223 H 0.25441 0.3668 0.03169 0.0
C224 C 0.09781 0.16971 0.03172 0.0
C225 C 0.11145 0.12719 0.01906 0.0
C226 C 0.13816 0.20912 0.03393 0.0
C227 C 0.19277 0.20697 0.02313 0.0
C228 C 0.20548 0.16475 0.00941 0.0
C229 C 0.1655 0.1253 0.00764 0.0
C230 C 0.33264 0.27847 0.04061 0.0
C231 C 0.31997 0.32456 0.0401 0.0
C232 C 0.29168 0.24058 0.03462 0.0
C233 C 0.23703 0.24767 0.0275 0.0
C234 C 0.22489 0.29382 0.02576 0.0
C235 C 0.26583 0.33181 0.03207 0.0
H236 H 0.26427 0.91259 0.03766 0.0
H237 H 0.1346 0.8157 0.99575 0.0
H238 H 0.32259 0.85023 0.04119 0.0
H239 H 0.1937 0.75327 0.99722 0.0
H240 H 0.30499 0.64324 0.00906 0.0
H241 H 0.24201 0.70053 0.02186 0.0
H242 H 0.37586 0.81209 0.00714 0.0
H243 H 0.43917 0.75513 0.99665 0.0
C244 C 0.24818 0.87748 0.02963 0.0
C245 C 0.19528 0.86858 0.01652 0.0
C246 C 0.28168 0.84182 0.03124 0.0
C247 C 0.26364 0.79666 0.01886 0.0
C248 C 0.2091 0.78731 0.00725 0.0
C249 C 0.17511 0.82295 0.00631 0.0
C250 C 0.32131 0.68002 0.00941 0.0
C251 C 0.37716 0.69448 1.00147 0.0
C252 C 0.2849 0.71297 0.01633 0.0
C253 C 0.30333 0.7612 0.0153 0.0
C254 C 0.35984 0.77545 0.00863 0.0
C255 C 0.39623 0.74262 0.00207 0.0
H256 H 0.8282 0.92737 0.02359 0.0
H257 H 0.95566 0.83978 1.00116 0.0
H258 H 0.75928 0.85895 0.02548 0.0
H259 H 0.88555 0.77057 0.00182 0.0
H260 H 0.75626 0.6595 0.04635 0.0
H261 H 0.82906 0.72371 0.03606 0.0
H262 H 0.70637 0.79919 0.99702 0.0
H263 H 0.63354 0.73569 0.00866 0.0
C264 C 0.84145 0.89343 0.01861 0.0
C265 C 0.89757 0.88909 0.01228 0.0
C266 C 0.80161 0.85401 0.01941 0.0
C267 C 0.81647 0.80898 0.01354 0.0
C268 C 0.87259 0.8046 0.00676 0.0
C269 C 0.91278 0.84426 0.00624 0.0
C270 C 0.74521 0.68952 0.03506 0.0
C271 C 0.68931 0.69292 0.02852 0.0
C272 C 0.78694 0.72634 0.02907 0.0
C273 C 0.77367 0.76714 0.01611 0.0
C274 C 0.71803 0.76898 0.00781 0.0
C275 C 0.67628 0.7325 0.01423 0.0
H276 H 0.73765 0.11293 0.01361 0.0
H277 H 0.89529 0.20129 0.02019 0.0
H278 H 0.69053 0.18083 0.00622 0.0
H279 H 0.84809 0.27021 0.01403 0.0
H280 H 0.74878 0.37685 0.97155 0.0
H281 H 0.80065 0.31166 0.98007 0.0
H282 H 0.6622 0.2458 0.03226 0.0
H283 H 0.60981 0.31003 0.02238 0.0
C284 C 0.76211 0.14714 0.0137 0.0
C285 C 0.82 0.15195 0.0176 0.0
C286 C 0.73511 0.18621 0.00971 0.0
C287 C 0.76521 0.23136 0.01001 0.0
C288 C 0.82349 0.23606 0.01341 0.0
C289 C 0.85064 0.19667 0.01696 0.0
C290 C 0.72992 0.34863 0.98517 0.0
C291 C 0.67528 0.34826 0.99621 0.0
C292 C 0.75963 0.31125 0.99012 0.0
C293 C 0.73552 0.27295 0.00655 0.0
C294 C 0.68166 0.27391 0.01876 0.0
C295 C 0.65172 0.31088 0.01339 0.0
H296 H 0.68517 0.59183 0.49429 0.0
H297 H 0.57018 0.67493 0.53914 0.0
H298 H 0.75659 0.65938 0.49514 0.0
H299 H 0.6425 0.74221 0.54138 0.0
H300 H 0.77058 0.86544 0.52566 0.0
H301 H 0.69843 0.80015 0.51454 0.0
H302 H 0.81616 0.70342 0.52994 0.0
H303 H 0.88895 0.76854 0.53887 0.0
C304 C 0.67526 0.62457 0.50448 0.0
C305 C 0.62222 0.62802 0.51687 0.0
C306 C 0.71634 0.66331 0.5051 0.0
C307 C 0.70569 0.70632 0.51857 0.0
C308 C 0.6521 0.70993 0.53042 0.0
C309 C 0.61069 0.67127 0.52937 0.0
C310 C 0.78147 0.83026 0.52582 0.0
C311 C 0.83558 0.82231 0.53341 0.0
C312 C 0.73978 0.79274 0.51994 0.0
C313 C 0.75106 0.74636 0.52173 0.0
C314 C 0.80578 0.73853 0.52807 0.0
C315 C 0.84753 0.77598 0.53362 0.0
H316 H 0.62095 0.31821 0.51984 0.0
H317 H 0.77614 0.40231 0.4988 0.0
H318 H 0.67056 0.25008 0.52456 0.0
H319 H 0.82505 0.33482 0.50223 0.0
H320 H 0.91248 0.21655 0.52389 0.0
H321 H 0.8572 0.28039 0.53405 0.0
H322 H 0.71548 0.1981 0.49089 0.0
H323 H 0.77054 0.13382 0.4817 0.0
C324 C 0.66565 0.32226 0.5166 0.0
C325 C 0.69451 0.3655 0.50859 0.0
C326 C 0.69404 0.2832 0.51901 0.0
C327 C 0.7519 0.28677 0.51368 0.0
C328 C 0.78074 0.33062 0.50691 0.0
C329 C 0.7525 0.36935 0.50449 0.0
C330 C 0.86921 0.21192 0.51709 0.0
C331 C 0.84595 0.17045 0.50176 0.0
C332 C 0.83754 0.24853 0.52276 0.0
C333 C 0.78206 0.24484 0.5128 0.0
C334 C 0.75785 0.20217 0.49911 0.0
C335 C 0.78943 0.1653 0.49376 0.0
H336 H 0.45477 0.34682 0.50005 0.0
H337 H 0.3322 0.43452 0.53098 0.0
H338 H 0.3841 0.27828 0.5011 0.0
H339 H 0.26252 0.36633 0.53319 0.0
H340 H 0.13433 0.24348 0.5155 0.0
H341 H 0.20573 0.30844 0.50447 0.0
H342 H 0.33228 0.23004 0.53634 0.0
H343 H 0.26094 0.1647 0.54621 0.0
C344 C 0.41281 0.35143 0.50714 0.0
C345 C 0.3991 0.39607 0.51544 0.0
C346 C 0.37233 0.31215 0.50786 0.0
C347 C 0.31742 0.31665 0.51716 0.0
C348 C 0.30391 0.36147 0.52526 0.0
C349 C 0.34411 0.40066 0.52425 0.0
C350 C 0.17756 0.24006 0.5197 0.0
C351 C 0.19217 0.19924 0.5318 0.0
C352 C 0.21847 0.27732 0.5136 0.0
C353 C 0.27483 0.27485 0.51992 0.0
C354 C 0.28951 0.23311 0.53084 0.0
C355 C 0.24863 0.19563 0.53657 0.0
H356 H 0.32688 0.64374 0.47584 0.0
H357 H 0.32677 0.68655 0.57051 0.0
H358 H 0.26735 0.70374 0.46502 0.0
H359 H 0.26873 0.74735 0.55964 0.0
H360 H 0.21481 0.87981 0.50944 0.0
H361 H 0.27883 0.82456 0.52144 0.0
H362 H 0.15937 0.70989 0.4889 0.0
H363 H 0.09356 0.76418 0.47872 0.0
C364 C 0.31504 0.66669 0.49413 0.0
C365 C 0.33107 0.66069 0.52396 0.0
C366 C 0.28089 0.70064 0.48803 0.0
C367 C 0.26356 0.72984 0.51158 0.0
C368 C 0.28174 0.72527 0.54117 0.0
C369 C 0.31468 0.69058 0.54736 0.0
C370 C 0.20138 0.84281 0.50547 0.0
C371 C 0.14881 0.82675 0.49283 0.0
C372 C 0.23842 0.81131 0.51205 0.0
C373 C 0.22416 0.76327 0.50556 0.0
C374 C 0.17157 0.74696 0.49353 0.0
C375 C 0.13406 0.77822 0.48761 0.0
H376 H 0.09531 0.97958 0.10828 0.0
H377 H 0.9307 0.02195 0.11275 0.0
H378 H 0.09705 0.9791 0.16376 0.0
H379 H 0.93247 0.02115 0.16778 0.0
H380 H 0.93155 0.96176 0.26238 0.0
H381 H 0.93315 0.96004 0.20709 0.0
H382 H 0.09695 0.03971 0.20869 0.0
H383 H 0.09544 0.04132 0.26422 0.0
C384 C 0.05951 0.98857 0.12105 0.0
C385 C 0.01289 0.00079 0.10613 0.0
C386 C 0.06065 0.98857 0.15276 0.0
C387 C 0.01484 1.00002 0.17004 0.0
C388 C 0.96815 0.01177 0.15505 0.0
C389 C 0.96731 0.01243 0.12351 0.0
C390 C 0.96803 0.97868 0.25093 0.0
C391 C 0.01334 0.00172 0.2676 0.0
C392 C 0.96881 0.97792 0.21931 0.0
C393 C 0.01517 0.99974 0.20361 0.0
C394 C 0.06085 0.02232 0.22022 0.0
C395 C 0.05976 0.02362 0.25194 0.0
H396 H 0.04307 0.95801 0.9161 0.0
H397 H 0.95149 0.07653 0.9255 0.0
H398 H 0.04325 0.96328 0.86143 0.0
H399 H 0.95384 0.08337 0.87062 0.0
H400 H 0.92182 0.05278 0.76882 0.0
H401 H 0.91893 0.04936 0.82396 0.0
H402 H 0.08436 0.0082 0.8225 0.0
H403 H 0.0858 0.00977 0.76747 0.0
C404 C 0.02328 0.98546 0.90646 0.0
C405 C 0.99733 0.01689 0.92514 0.0
C406 C 0.02378 0.98878 0.87504 0.0
C407 C 0.9991 0.0241 0.86142 0.0
C408 C 0.97272 0.05537 0.88017 0.0
C409 C 0.97156 0.05162 0.91167 0.0
C410 C 0.95758 0.0433 0.78044 0.0
C411 C 1.00384 0.03119 0.76393 0.0
C412 C 0.95609 0.04147 0.81205 0.0
C413 C 1.0012 0.02805 0.82785 0.0
C414 C 0.04818 0.01744 0.8112 0.0
C415 C 0.04927 0.01862 0.77964 0.0
H416 H 0.45012 0.53321 0.61481 0.0
H417 H 0.60414 0.47306 0.60722 0.0
H418 H 0.45465 0.53264 0.66946 0.0
H419 H 0.60972 0.47391 0.66259 0.0
H420 H 0.57037 0.4429 0.76313 0.0
H421 H 0.56784 0.43959 0.70787 0.0
H422 H 0.50567 0.57329 0.70989 0.0
H423 H 0.50501 0.57527 0.76478 0.0
C424 C 0.48529 0.52008 0.62482 0.0
C425 C 0.52702 0.50349 0.60657 0.0
C426 C 0.48806 0.52006 0.6563 0.0
C427 C 0.53297 0.50389 0.67058 0.0
C428 C 0.57436 0.48641 0.65237 0.0
C429 C 0.57134 0.4861 0.62065 0.0
C430 C 0.55558 0.47135 0.75178 0.0
C431 C 0.53768 0.50928 0.76857 0.0
C432 C 0.55486 0.46973 0.72004 0.0
C433 C 0.53627 0.50603 0.70432 0.0
C434 C 0.51936 0.54427 0.72115 0.0
C435 C 0.51976 0.54575 0.75276 0.0
H436 H 0.45124 0.58321 0.4279 0.0
H437 H 0.53748 0.46181 0.41636 0.0
H438 H 0.45259 0.59127 0.37304 0.0
H439 H 0.53673 0.46842 0.36186 0.0
H440 H 0.58169 0.51649 0.26886 0.0
H441 H 0.5801 0.51426 0.32385 0.0
H442 H 0.41666 0.55929 0.32572 0.0
H443 H 0.41967 0.56325 0.27055 0.0
C444 C 0.46981 0.55791 0.41362 0.0
C445 C 0.49457 0.52207 0.42648 0.0
C446 C 0.47046 0.56241 0.38215 0.0
C447 C 0.49538 0.53084 0.36287 0.0
C448 C 0.51856 0.49422 0.37588 0.0
C449 C 0.51855 0.49013 0.40722 0.0
C450 C 0.54559 0.52612 0.2811 0.0
C451 C 0.50069 0.53977 0.26547 0.0
C452 C 0.5444 0.52454 0.31263 0.0
C453 C 0.49782 0.53584 0.32938 0.0
C454 C 0.45343 0.5507 0.31371 0.0
C455 C 0.45502 0.55289 0.28209 0.0
loop_
_geom_bond_atom_site_label_1
_geom_bond_atom_site_label_2
_geom_bond_distance
_geom_bond_site_symmetry_2
_ccdc_geom_bond_type
Co0 N5 2.057 . S
Co0 O17 2.021 . S
Co0 O20 2.062 1_455 S
Co0 O24 2.117 1_554 S
Co0 O25 2.020 1_565 S
C1 O21 1.259 1_455 S
C1 O24 1.258 1_545 S
Co2 N11 2.057 . S
Co2 O18 2.117 . S
Co2 O19 2.020 1_545 S
Co2 O21 2.021 1_554 S
Co2 O26 2.062 1_655 S
C3 N5 1.316 . S
C3 N6 1.347 . S
C3 H8 0.931 . S
C4 N5 1.375 1_556 S
C4 C7 1.350 . S
C4 H9 0.930 . S
N5 Co0 2.057 . S
N5 C3 1.316 . S
N5 C4 1.375 1_554 S
N6 C3 1.347 . S
N6 C7 1.373 1_554 S
C7 C4 1.350 . S
C7 N6 1.373 1_556 S
C7 H28 0.931 . S
H8 C3 0.931 . S
H9 C4 0.930 . S
C10 O17 1.259 1_545 S
C10 O18 1.258 1_455 S
N11 Co2 2.057 . S
N11 C12 1.316 . S
N11 C13 1.375 . S
C12 N11 1.316 . S
C12 N14 1.347 . S
C12 H23 0.931 1_554 S
C13 N11 1.375 . S
C13 C15 1.350 . S
C13 H22 0.930 . S
N14 C12 1.347 . S
N14 C15 1.373 . S
C15 C13 1.350 . S
C15 N14 1.373 . S
C15 H29 0.931 . S
C16 O19 1.256 . S
C16 O20 1.255 . S
O17 Co0 2.021 . S
O17 C10 1.259 1_565 S
O18 Co2 2.117 . S
O18 C10 1.258 1_655 S
O19 Co2 2.020 1_565 S
O19 C16 1.256 . S
O20 Co0 2.062 1_655 S
O20 C16 1.255 . S
O21 C1 1.259 1_655 S
O21 Co2 2.021 1_556 S
H22 C13 0.930 . S
H23 C12 0.931 1_556 S
O24 Co0 2.117 1_556 S
O24 C1 1.258 1_565 S
O25 Co0 2.020 1_545 S
O25 C27 1.256 . S
O26 Co2 2.062 1_455 S
O26 C27 1.255 . S
C27 O25 1.256 . S
C27 O26 1.255 . S
H28 C7 0.931 . S
H29 C15 0.931 . S
Co30 N35 2.057 . S
Co30 O47 2.021 . S
Co30 O50 2.062 . S
Co30 O54 2.117 . S
Co30 O55 2.020 . S
C31 O51 1.259 . S
C31 O54 1.258 . S
Co32 N41 2.057 . S
Co32 O48 2.117 . S
Co32 O49 2.020 . S
Co32 O51 2.021 . S
Co32 O56 2.062 . S
C33 N35 1.316 . S
C33 N36 1.347 . S
C33 H38 0.931 . S
C34 N35 1.375 . S
C34 C37 1.350 . S
C34 H39 0.930 . S
N35 Co30 2.057 . S
N35 C33 1.316 . S
N35 C34 1.375 . S
N36 C33 1.347 . S
N36 C37 1.373 . S
C37 C34 1.350 . S
C37 N36 1.373 . S
C37 H58 0.931 . S
H38 C33 0.931 . S
H39 C34 0.930 . S
C40 O47 1.259 . S
C40 O48 1.258 . S
N41 Co32 2.057 . S
N41 C42 1.316 . S
N41 C43 1.375 . S
C42 N41 1.316 . S
C42 N44 1.347 . S
C42 H53 0.931 . S
C43 N41 1.375 . S
C43 C45 1.350 . S
C43 H52 0.930 . S
N44 C42 1.347 . S
N44 C45 1.373 . S
C45 C43 1.350 . S
C45 N44 1.373 . S
C45 H59 0.931 . S
C46 O49 1.256 . S
C46 O50 1.255 . S
O47 Co30 2.021 . S
O47 C40 1.259 . S
O48 Co32 2.117 . S
O48 C40 1.258 . S
O49 Co32 2.020 . S
O49 C46 1.256 . S
O50 Co30 2.062 . S
O50 C46 1.255 . S
O51 C31 1.259 . S
O51 Co32 2.021 . S
H52 C43 0.930 . S
H53 C42 0.931 . S
O54 Co30 2.117 . S
O54 C31 1.258 . S
O55 Co30 2.020 . S
O55 C57 1.256 . S
O56 Co32 2.062 . S
O56 C57 1.255 . S
C57 O55 1.256 . S
C57 O56 1.255 . S
H58 C37 0.931 . S
H59 C45 0.931 . S
C60 C61 1.386 1_665 S
C60 C62 1.397 . S
C60 H84 0.931 . S
C61 C60 1.386 1_445 S
C61 C65 1.397 . S
C62 C60 1.397 . S
C62 C63 1.384 1_665 S
C62 H85 0.930 . S
C63 C62 1.384 1_445 S
C63 C64 1.377 . S
C63 C66 1.481 . S
C64 C63 1.377 . S
C64 C65 1.389 . S
C64 H86 0.929 . S
C65 C61 1.397 . S
C65 C64 1.389 . S
C65 H87 0.931 . S
C66 C63 1.481 . S
C66 C67 1.387 1_545 S
C66 C71 1.390 1_455 S
C67 C66 1.387 1_565 S
C67 C68 1.401 . S
C67 H88 0.930 . S
C68 C67 1.401 . S
C68 C69 1.376 1_465 S
C68 C77 1.511 . S
C69 C68 1.376 1_645 S
C69 C70 1.392 . S
C69 H90 0.931 . S
C70 C69 1.392 . S
C70 C71 1.361 . S
C70 C72 1.500 . S
C71 C66 1.390 1_655 S
C71 C70 1.361 . S
C71 H89 0.931 . S
C72 C70 1.500 . S
C72 C73 1.371 . S
C72 C74 1.365 . S
C73 C72 1.371 . S
C73 C83 1.386 . S
C73 H91 0.931 . S
C74 C72 1.365 . S
C74 C75 1.409 . S
C74 H92 0.929 . S
C75 C74 1.409 . S
C75 C76 1.380 . S
C75 H93 0.930 . S
C76 C75 1.380 . S
C76 C83 1.357 . S
C77 C68 1.511 . S
C77 C78 1.341 . S
C77 C79 1.371 . S
C78 C77 1.341 . S
C78 C82 1.394 . S
C78 H94 0.930 . S
C79 C77 1.371 . S
C79 C80 1.392 . S
C79 H95 0.931 . S
C80 C79 1.392 . S
C80 C81 1.331 . S
C80 H98 0.932 . S
C81 C80 1.331 . S
C81 C82 1.336 . S
C82 C78 1.394 . S
C82 C81 1.336 . S
C82 H97 0.929 . S
C83 C73 1.386 . S
C83 C76 1.357 . S
C83 H96 0.928 . S
H84 C60 0.931 . S
H85 C62 0.930 . S
H86 C64 0.929 . S
H87 C65 0.931 . S
H88 C67 0.930 . S
H89 C71 0.931 . S
H90 C69 0.931 . S
H91 C73 0.931 . S
H92 C74 0.929 . S
H93 C75 0.930 . S
H94 C78 0.930 . S
H95 C79 0.931 . S
H96 C83 0.928 . S
H97 C82 0.929 . S
H98 C80 0.932 . S
C99 C100 1.386 . S
C99 C101 1.397 . S
C99 H123 0.931 . S
C100 C99 1.386 . S
C100 C104 1.397 1_545 S
C101 C99 1.397 . S
C101 C102 1.384 . S
C101 H124 0.930 . S
C102 C101 1.384 . S
C102 C103 1.377 1_545 S
C102 C105 1.481 . S
C103 C102 1.377 1_565 S
C103 C104 1.389 . S
C103 H125 0.929 . S
C104 C100 1.397 1_565 S
C104 C103 1.389 . S
C104 H126 0.931 . S
C105 C102 1.481 . S
C105 C106 1.387 . S
C105 C110 1.390 1_445 S
C106 C105 1.387 . S
C106 C107 1.401 . S
C106 H127 0.930 . S
C107 C106 1.401 . S
C107 C108 1.376 . S
C107 C116 1.511 . S
C108 C107 1.376 . S
C108 C109 1.392 1_445 S
C108 H129 0.930 1_455 S
C109 C108 1.392 1_665 S
C109 C110 1.361 . S
C109 C111 1.500 . S
C110 C105 1.390 1_665 S
C110 C109 1.361 . S
C110 H128 0.931 . S
C111 C109 1.500 . S
C111 C112 1.371 . S
C111 C113 1.365 . S
C112 C111 1.371 . S
C112 C122 1.386 . S
C112 H130 0.931 . S
C113 C111 1.365 . S
C113 C114 1.409 . S
C113 H131 0.929 . S
C114 C113 1.409 . S
C114 C115 1.380 . S
C114 H132 0.930 . S
C115 C114 1.380 . S
C115 C122 1.357 . S
C116 C107 1.511 . S
C116 C117 1.341 . S
C116 C118 1.371 . S
C117 C116 1.341 . S
C117 C121 1.394 . S
C117 H133 0.930 . S
C118 C116 1.371 . S
C118 C119 1.392 . S
C118 H134 0.931 . S
C119 C118 1.392 . S
C119 C120 1.331 . S
C119 H137 0.932 . S
C120 C119 1.331 . S
C120 C121 1.336 . S
C121 C117 1.394 . S
C121 C120 1.336 . S
C121 H136 0.929 . S
C122 C112 1.386 . S
C122 C115 1.357 . S
C122 H135 0.928 . S
H123 C99 0.931 . S
H124 C101 0.930 . S
H125 C103 0.929 . S
H126 C104 0.931 . S
H127 C106 0.930 . S
H128 C110 0.931 . S
H129 C108 0.930 1_655 S
H130 C112 0.931 . S
H131 C113 0.929 . S
H132 C114 0.930 . S
H133 C117 0.930 . S
H134 C118 0.931 . S
H135 C122 0.928 . S
H136 C121 0.929 . S
H137 C119 0.932 . S
C138 C139 1.386 . S
C138 C140 1.397 . S
C138 H162 0.931 . S
C139 C138 1.386 . S
C139 C143 1.397 . S
C140 C138 1.397 . S
C140 C141 1.384 . S
C140 H163 0.930 . S
C141 C140 1.384 . S
C141 C142 1.377 . S
C141 C144 1.481 . S
C142 C141 1.377 . S
C142 C143 1.389 . S
C142 H164 0.929 . S
C143 C139 1.397 . S
C143 C142 1.389 . S
C143 H165 0.931 . S
C144 C141 1.481 . S
C144 C145 1.387 . S
C144 C149 1.390 . S
C145 C144 1.387 . S
C145 C146 1.401 . S
C145 H166 0.930 . S
C146 C145 1.401 . S
C146 C147 1.376 . S
C146 C155 1.511 . S
C147 C146 1.376 . S
C147 C148 1.392 . S
C147 H168 0.931 . S
C148 C147 1.392 . S
C148 C149 1.361 . S
C148 C150 1.500 . S
C149 C144 1.390 . S
C149 C148 1.361 . S
C149 H167 0.931 . S
C150 C148 1.500 . S
C150 C151 1.371 . S
C150 C152 1.365 . S
C151 C150 1.371 . S
C151 C161 1.386 1_556 S
C151 H169 0.931 . S
C152 C150 1.365 . S
C152 C153 1.409 . S
C152 H170 0.929 . S
C153 C152 1.409 . S
C153 C154 1.380 . S
C153 H171 0.930 . S
C154 C153 1.380 . S
C154 C161 1.357 1_556 S
C155 C146 1.511 . S
C155 C156 1.341 . S
C155 C157 1.371 . S
C156 C155 1.341 . S
C156 C160 1.394 . S
C156 H172 0.930 . S
C157 C155 1.371 . S
C157 C158 1.392 1_556 S
C157 H173 0.944 . S
C158 C157 1.392 1_554 S
C158 C159 1.331 1_554 S
C158 H176 0.932 . S
C159 C158 1.331 1_556 S
C159 C160 1.336 . S
C160 C156 1.394 . S
C160 C159 1.336 . S
C160 H175 0.929 . S
C161 C151 1.386 1_554 S
C161 C154 1.357 1_554 S
C161 H174 0.928 . S
H162 C138 0.931 . S
H163 C140 0.930 . S
H164 C142 0.929 . S
H165 C143 0.931 . S
H166 C145 0.930 . S
H167 C149 0.931 . S
H168 C147 0.931 . S
H169 C151 0.931 . S
H170 C152 0.929 . S
H171 C153 0.930 . S
H172 C156 0.930 . S
H173 C157 0.944 . S
H174 C161 0.928 . S
H175 C160 0.929 . S
H176 C158 0.932 . S
C177 C178 1.386 . S
C177 C179 1.397 . S
C177 H201 0.931 . S
C178 C177 1.386 . S
C178 C182 1.397 . S
C179 C177 1.397 . S
C179 C180 1.384 . S
C179 H202 0.930 . S
C180 C179 1.384 . S
C180 C181 1.377 . S
C180 C183 1.481 . S
C181 C180 1.377 . S
C181 C182 1.389 . S
C181 H203 0.929 . S
C182 C178 1.397 . S
C182 C181 1.389 . S
C182 H204 0.931 . S
C183 C180 1.481 . S
C183 C184 1.387 . S
C183 C188 1.390 . S
C184 C183 1.387 . S
C184 C185 1.401 . S
C184 H205 0.930 . S
C185 C184 1.401 . S
C185 C186 1.376 . S
C185 C194 1.511 . S
C186 C185 1.376 . S
C186 C187 1.392 . S
C186 H207 0.931 . S
C187 C186 1.392 . S
C187 C188 1.361 . S
C187 C189 1.500 . S
C188 C183 1.390 . S
C188 C187 1.361 . S
C188 H206 0.931 . S
C189 C187 1.500 . S
C189 C190 1.371 . S
C189 C191 1.365 . S
C190 C189 1.371 . S
C190 C200 1.386 . S
C190 H208 0.931 . S
C191 C189 1.365 . S
C191 C192 1.409 . S
C191 H209 0.929 . S
C192 C191 1.409 . S
C192 C193 1.380 . S
C192 H210 0.930 . S
C193 C192 1.380 . S
C193 C200 1.357 . S
C194 C185 1.511 . S
C194 C195 1.341 . S
C194 C196 1.371 . S
C195 C194 1.341 . S
C195 C199 1.394 . S
C195 H211 0.930 . S
C196 C194 1.371 . S
C196 C197 1.392 . S
C196 H212 0.931 . S
C197 C196 1.392 . S
C197 C198 1.331 . S
C197 H215 0.932 . S
C198 C197 1.331 . S
C198 C199 1.336 . S
C199 C195 1.394 . S
C199 C198 1.336 . S
C199 H214 0.929 . S
C200 C190 1.386 . S
C200 C193 1.357 . S
C200 H213 0.928 . S
H201 C177 0.931 . S
H202 C179 0.930 . S
H203 C181 0.929 . S
H204 C182 0.931 . S
H205 C184 0.930 . S
H206 C188 0.931 . S
H207 C186 0.931 . S
H208 C190 0.931 . S
H209 C191 0.929 . S
H210 C192 0.930 . S
H211 C195 0.930 . S
H212 C196 0.931 . S
H213 C200 0.928 . S
H214 C199 0.929 . S
H215 C197 0.932 . S
H216 C224 0.950 . S
H217 C229 0.950 . S
H218 C226 0.950 . S
H219 C228 0.950 . S
H220 C230 0.950 1_556 S
H221 C232 0.950 1_556 S
H222 C234 0.950 . S
H223 C235 0.950 . S
C224 H216 0.950 . S
C224 C225 1.386 . S
C224 C226 1.391 . S
C225 C224 1.386 . S
C225 C229 1.393 1_554 S
C226 H218 0.950 . S
C226 C224 1.391 . S
C226 C227 1.400 . S
C227 C226 1.400 . S
C227 C228 1.398 1_554 S
C227 C233 1.491 . S
C228 H219 0.950 . S
C228 C227 1.398 1_556 S
C228 C229 1.391 . S
C229 H217 0.950 . S
C229 C225 1.393 1_556 S
C229 C228 1.391 . S
C230 H220 0.950 1_554 S
C230 C231 1.386 . S
C230 C232 1.391 . S
C231 C230 1.386 . S
C231 C235 1.393 . S
C232 H221 0.950 1_554 S
C232 C230 1.391 . S
C232 C233 1.400 . S
C233 C227 1.491 . S
C233 C232 1.400 . S
C233 C234 1.398 . S
C234 H222 0.950 . S
C234 C233 1.398 . S
C234 C235 1.391 . S
C235 H223 0.950 . S
C235 C231 1.393 . S
C235 C234 1.391 . S
H236 C244 0.950 . S
H237 C249 0.950 . S
H238 C246 0.950 . S
H239 C248 0.950 . S
H240 C250 0.950 . S
H241 C252 0.950 . S
H242 C254 0.950 . S
H243 C255 0.950 . S
C244 H236 0.950 . S
C244 C245 1.386 . S
C244 C246 1.391 . S
C245 C244 1.386 . S
C245 C249 1.393 . S
C246 H238 0.950 . S
C246 C244 1.391 . S
C246 C247 1.400 . S
C247 C246 1.400 . S
C247 C248 1.398 . S
C247 C253 1.491 . S
C248 H239 0.950 . S
C248 C247 1.398 . S
C248 C249 1.391 . S
C249 H237 0.950 . S
C249 C245 1.393 . S
C249 C248 1.391 . S
C250 H240 0.950 . S
C250 C251 1.386 . S
C250 C252 1.391 . S
C251 C250 1.386 . S
C251 C255 1.393 1_556 S
C252 H241 0.950 . S
C252 C250 1.391 . S
C252 C253 1.400 1_556 S
C253 C247 1.491 . S
C253 C252 1.400 1_554 S
C253 C254 1.398 . S
C254 H242 0.950 . S
C254 C253 1.398 . S
C254 C255 1.391 . S
C255 H243 0.950 . S
C255 C251 1.393 1_554 S
C255 C254 1.391 . S
H256 C264 0.926 1_556 S
H257 C269 0.950 . S
H258 C266 0.950 1_556 S
H259 C268 0.950 . S
H260 C270 0.950 . S
H261 C272 0.950 . S
H262 C274 0.950 1_556 S
H263 C275 0.953 . S
C264 H256 0.926 1_554 S
C264 C265 1.406 . S
C264 C266 1.396 . S
C265 C264 1.406 . S
C265 C269 1.393 . S
C266 H258 0.950 1_554 S
C266 C264 1.396 . S
C266 C267 1.400 . S
C267 C266 1.400 . S
C267 C268 1.398 . S
C267 C273 1.491 . S
C268 H259 0.950 . S
C268 C267 1.398 . S
C268 C269 1.391 . S
C269 H257 0.950 . S
C269 C265 1.393 . S
C269 C268 1.391 . S
C270 H260 0.950 . S
C270 C271 1.386 . S
C270 C272 1.391 . S
C271 C270 1.386 . S
C271 C275 1.393 . S
C272 H261 0.950 . S
C272 C270 1.391 . S
C272 C273 1.400 . S
C273 C267 1.491 . S
C273 C272 1.400 . S
C273 C274 1.398 . S
C274 H262 0.950 1_554 S
C274 C273 1.398 . S
C274 C275 1.391 . S
C275 H263 0.953 . S
C275 C271 1.393 . S
C275 C274 1.391 . S
H276 C284 0.950 . S
H277 C289 0.950 1_556 S
H278 C286 0.950 . S
H279 C288 0.950 . S
H280 C290 0.950 . S
H281 C292 0.950 . S
H282 C294 0.950 . S
H283 C295 0.950 . S
C284 H276 0.950 . S
C284 C285 1.386 . S
C284 C286 1.391 . S
C285 C284 1.386 . S
C285 C289 1.393 . S
C286 H278 0.950 . S
C286 C284 1.391 . S
C286 C287 1.400 . S
C287 C286 1.400 . S
C287 C288 1.398 1_554 S
C287 C293 1.491 . S
C288 H279 0.950 . S
C288 C287 1.398 1_556 S
C288 C289 1.391 1_556 S
C289 H277 0.950 1_554 S
C289 C285 1.393 . S
C289 C288 1.391 1_554 S
C290 H280 0.950 . S
C290 C291 1.386 . S
C290 C292 1.391 . S
C291 C290 1.386 . S
C291 C295 1.393 1_556 S
C292 H281 0.950 . S
C292 C290 1.391 . S
C292 C293 1.400 1_556 S
C293 C287 1.491 . S
C293 C292 1.400 1_554 S
C293 C294 1.398 . S
C294 H282 0.950 . S
C294 C293 1.398 . S
C294 C295 1.391 . S
C295 H283 0.950 . S
C295 C291 1.393 1_554 S
C295 C294 1.391 . S
H296 C304 0.950 . S
H297 C309 0.950 . S
H298 C306 0.950 . S
H299 C308 0.950 . S
H300 C310 0.950 . S
H301 C312 0.950 . S
H302 C314 0.950 . S
H303 C315 0.950 . S
C304 H296 0.950 . S
C304 C305 1.386 . S
C304 C306 1.391 . S
C305 C304 1.386 . S
C305 C309 1.393 . S
C306 H298 0.950 . S
C306 C304 1.391 . S
C306 C307 1.400 . S
C307 C306 1.400 . S
C307 C308 1.398 . S
C307 C313 1.491 . S
C308 H299 0.950 . S
C308 C307 1.398 . S
C308 C309 1.391 . S
C309 H297 0.950 . S
C309 C305 1.393 . S
C309 C308 1.391 . S
C310 H300 0.950 . S
C310 C311 1.386 . S
C310 C312 1.391 . S
C311 C310 1.386 . S
C311 C315 1.393 . S
C312 H301 0.950 . S
C312 C310 1.391 . S
C312 C313 1.400 . S
C313 C307 1.491 . S
C313 C312 1.400 . S
C313 C314 1.398 . S
C314 H302 0.950 . S
C314 C313 1.398 . S
C314 C315 1.391 . S
C315 H303 0.950 . S
C315 C311 1.393 . S
C315 C314 1.391 . S
H316 C324 0.950 . S
H317 C329 0.950 . S
H318 C326 0.950 . S
H319 C328 0.950 . S
H320 C330 0.950 . S
H321 C332 0.950 . S
H322 C334 0.950 . S
H323 C335 0.950 . S
C324 H316 0.950 . S
C324 C325 1.386 . S
C324 C326 1.391 . S
C325 C324 1.386 . S
C325 C329 1.393 . S
C326 H318 0.950 . S
C326 C324 1.391 . S
C326 C327 1.400 . S
C327 C326 1.400 . S
C327 C328 1.398 . S
C327 C333 1.491 . S
C328 H319 0.950 . S
C328 C327 1.398 . S
C328 C329 1.391 . S
C329 H317 0.950 . S
C329 C325 1.393 . S
C329 C328 1.391 . S
C330 H320 0.950 . S
C330 C331 1.386 . S
C330 C332 1.391 . S
C331 C330 1.386 . S
C331 C335 1.393 . S
C332 H321 0.950 . S
C332 C330 1.391 . S
C332 C333 1.400 . S
C333 C327 1.491 . S
C333 C332 1.400 . S
C333 C334 1.398 . S
C334 H322 0.950 . S
C334 C333 1.398 . S
C334 C335 1.391 . S
C335 H323 0.950 . S
C335 C331 1.393 . S
C335 C334 1.391 . S
H336 C344 0.950 . S
H337 C349 0.950 . S
H338 C346 0.950 . S
H339 C348 0.950 . S
H340 C350 0.950 . S
H341 C352 0.950 . S
H342 C354 0.950 . S
H343 C355 0.950 . S
C344 H336 0.950 . S
C344 C345 1.386 . S
C344 C346 1.391 . S
C345 C344 1.386 . S
C345 C349 1.393 . S
C346 H338 0.950 . S
C346 C344 1.391 . S
C346 C347 1.400 . S
C347 C346 1.400 . S
C347 C348 1.398 . S
C347 C353 1.491 . S
C348 H339 0.950 . S
C348 C347 1.398 . S
C348 C349 1.391 . S
C349 H337 0.950 . S
C349 C345 1.393 . S
C349 C348 1.391 . S
C350 H340 0.950 . S
C350 C351 1.386 . S
C350 C352 1.391 . S
C351 C350 1.386 . S
C351 C355 1.393 . S
C352 H341 0.950 . S
C352 C350 1.391 . S
C352 C353 1.400 . S
C353 C347 1.491 . S
C353 C352 1.400 . S
C353 C354 1.398 . S
C354 H342 0.950 . S
C354 C353 1.398 . S
C354 C355 1.391 . S
C355 H343 0.950 . S
C355 C351 1.393 . S
C355 C354 1.391 . S
H356 C364 0.950 . S
H357 C369 0.950 . S
H358 C366 0.950 . S
H359 C368 0.950 . S
H360 C370 0.950 . S
H361 C372 0.950 . S
H362 C374 0.950 . S
H363 C375 0.950 . S
C364 H356 0.950 . S
C364 C365 1.386 . S
C364 C366 1.391 . S
C365 C364 1.386 . S
C365 C369 1.393 . S
C366 H358 0.950 . S
C366 C364 1.391 . S
C366 C367 1.400 . S
C367 C366 1.400 . S
C367 C368 1.398 . S
C367 C373 1.491 . S
C368 H359 0.950 . S
C368 C367 1.398 . S
C368 C369 1.391 . S
C369 H357 0.950 . S
C369 C365 1.393 . S
C369 C368 1.391 . S
C370 H360 0.950 . S
C370 C371 1.386 . S
C370 C372 1.391 . S
C371 C370 1.386 . S
C371 C375 1.393 . S
C372 H361 0.950 . S
C372 C370 1.391 . S
C372 C373 1.400 . S
C373 C367 1.491 . S
C373 C372 1.400 . S
C373 C374 1.398 . S
C374 H362 0.950 . S
C374 C373 1.398 . S
C374 C375 1.391 . S
C375 H363 0.950 . S
C375 C371 1.393 . S
C375 C374 1.391 . S
H376 C384 0.950 . S
H377 C389 0.950 . S
H378 C386 0.950 . S
H379 C388 0.950 . S
H380 C390 0.950 . S
H381 C392 0.950 . S
H382 C394 0.950 . S
H383 C395 0.950 . S
C384 H376 0.950 . S
C384 C385 1.386 . S
C384 C386 1.391 . S
C385 C384 1.386 . S
C385 C389 1.393 1_445 S
C386 H378 0.950 . S
C386 C384 1.391 . S
C386 C387 1.400 . S
C387 C386 1.400 . S
C387 C388 1.398 1_445 S
C387 C393 1.491 . S
C388 H379 0.950 . S
C388 C387 1.398 1_665 S
C388 C389 1.391 . S
C389 H377 0.950 . S
C389 C385 1.393 1_665 S
C389 C388 1.391 . S
C390 H380 0.950 . S
C390 C391 1.386 1_665 S
C390 C392 1.391 . S
C391 C390 1.386 1_445 S
C391 C395 1.393 . S
C392 H381 0.950 . S
C392 C390 1.391 . S
C392 C393 1.400 1_665 S
C393 C387 1.491 . S
C393 C392 1.400 1_445 S
C393 C394 1.398 . S
C394 H382 0.950 . S
C394 C393 1.398 . S
C394 C395 1.391 . S
C395 H383 0.950 . S
C395 C391 1.393 . S
C395 C394 1.391 . S
H396 C404 0.950 . S
H397 C409 0.950 . S
H398 C406 0.950 . S
H399 C408 0.950 . S
H400 C410 0.950 . S
H401 C412 0.950 . S
H402 C414 0.950 . S
H403 C415 0.950 . S
C404 H396 0.950 . S
C404 C405 1.386 1_565 S
C404 C406 1.391 . S
C405 C404 1.386 1_545 S
C405 C409 1.393 1_455 S
C406 H398 0.950 . S
C406 C404 1.391 . S
C406 C407 1.400 1_565 S
C407 C406 1.400 1_545 S
C407 C408 1.398 1_455 S
C407 C413 1.491 . S
C408 H399 0.950 . S
C408 C407 1.398 1_655 S
C408 C409 1.391 . S
C409 H397 0.950 . S
C409 C405 1.393 1_655 S
C409 C408 1.391 . S
C410 H400 0.950 . S
C410 C411 1.386 1_655 S
C410 C412 1.391 . S
C411 C410 1.386 1_455 S
C411 C415 1.393 1_545 S
C412 H401 0.950 . S
C412 C410 1.391 . S
C412 C413 1.400 1_655 S
C413 C407 1.491 . S
C413 C412 1.400 1_455 S
C413 C414 1.398 1_545 S
C414 H402 0.950 . S
C414 C413 1.398 1_565 S
C414 C415 1.391 . S
C415 H403 0.950 . S
C415 C411 1.393 1_565 S
C415 C414 1.391 . S
H416 C424 0.950 . S
H417 C429 0.950 . S
H418 C426 0.950 . S
H419 C428 0.950 . S
H420 C430 0.950 . S
H421 C432 0.950 . S
H422 C434 0.950 . S
H423 C435 0.950 . S
C424 H416 0.950 . S
C424 C425 1.386 . S
C424 C426 1.391 . S
C425 C424 1.386 . S
C425 C429 1.393 . S
C426 H418 0.950 . S
C426 C424 1.391 . S
C426 C427 1.400 . S
C427 C426 1.400 . S
C427 C428 1.398 . S
C427 C433 1.491 . S
C428 H419 0.950 . S
C428 C427 1.398 . S
C428 C429 1.391 . S
C429 H417 0.950 . S
C429 C425 1.393 . S
C429 C428 1.391 . S
C430 H420 0.950 . S
C430 C431 1.386 . S
C430 C432 1.391 . S
C431 C430 1.386 . S
C431 C435 1.393 . S
C432 H421 0.950 . S
C432 C430 1.391 . S
C432 C433 1.400 . S
C433 C427 1.491 . S
C433 C432 1.400 . S
C433 C434 1.398 . S
C434 H422 0.950 . S
C434 C433 1.398 . S
C434 C435 1.391 . S
C435 H423 0.950 . S
C435 C431 1.393 . S
C435 C434 1.391 . S
H436 C444 0.950 . S
H437 C449 0.950 . S
H438 C446 0.950 . S
H439 C448 0.950 . S
H440 C450 0.950 . S
H441 C452 0.950 . S
H442 C454 0.950 . S
H443 C455 0.950 . S
C444 H436 0.950 . S
C444 C445 1.386 . S
C444 C446 1.391 . S
C445 C444 1.386 . S
C445 C449 1.393 . S
C446 H438 0.950 . S
C446 C444 1.391 . S
C446 C447 1.400 . S
C447 C446 1.400 . S
C447 C448 1.398 . S
C447 C453 1.491 . S
C448 H439 0.950 . S
C448 C447 1.398 . S
C448 C449 1.391 . S
C449 H437 0.950 . S
C449 C445 1.393 . S
C449 C448 1.391 . S
C450 H440 0.950 . S
C450 C451 1.386 . S
C450 C452 1.391 . S
C451 C450 1.386 . S
C451 C455 1.393 . S
C452 H441 0.950 . S
C452 C450 1.391 . S
C452 C453 1.400 . S
C453 C447 1.491 . S
C453 C452 1.400 . S
C453 C454 1.398 . S
C454 H442 0.950 . S
C454 C453 1.398 . S
C454 C455 1.391 . S
C455 H443 0.950 . S
C455 C451 1.393 . S
C455 C454 1.391 . S
C231 C193 1.457 . S
C225 C27 1.490 . S
C245 N6 1.406 . S
C251 C154 1.396 . S
C265 C16 1.474 . S
C271 C198 1.435 . S
C285 N14 1.401 . S
C291 C159 1.393 . S
C305 C57 1.490 . S
C311 C115 1.445 . S
C325 N36 1.387 . S
C331 C76 1.409 . S
C351 C120 1.451 . S
C345 C46 1.470 . S
C371 C81 1.395 . S
C365 N44 1.394 . S
C385 C10 1.392 . S
C391 C61 1.393 . S
C405 C1 1.527 . S
C411 C100 1.534 . S
C431 C139 1.392 . S
C425 C40 1.388 . S
C445 C31 1.532 . S
C451 C178 1.534 . S
