# Generated by pormake.
# Topology dag, (6,3)-cn, num edge types: 1
# Building blocks:
#     Node 0, Type 0, BuildingBlock: OJICUG_clean_sbu_0, # of connection points: 6
#     Node 1, Type 0, BuildingBlock: OJICUG_clean_sbu_0, # of connection points: 6
#     Node 2, Type 0, BuildingBlock: OJICUG_clean_sbu_0, # of connection points: 6
#     Node 3, Type 0, BuildingBlock: OJICUG_clean_sbu_0, # of connection points: 6
#     Node 4, Type 1, BuildingBlock: KAKCAD_clean_linker_0, # of connection points: 3
#     Node 5, Type 1, BuildingBlock: KAKCAD_clean_linker_0, # of connection points: 3
#     Node 6, Type 1, BuildingBlock: KAKCAD_clean_linker_0, # of connection points: 3
#     Node 7, Type 1, BuildingBlock: KAKCAD_clean_linker_0, # of connection points: 3
#     Node 8, Type 1, BuildingBlock: KAKCAD_clean_linker_0, # of connection points: 3
#     Node 9, Type 1, BuildingBlock: KAKCAD_clean_linker_0, # of connection points: 3
#     Node 10, Type 1, BuildingBlock: KAKCAD_clean_linker_0, # of connection points: 3
#     Node 11, Type 1, BuildingBlock: KAKCAD_clean_linker_0, # of connection points: 3
#     Edge 12, Type (0, 1), BuildingBlock: XUDNAN_clean_linker_2, # of connection points: 2
#     Edge 13, Type (0, 1), BuildingBlock: XUDNAN_clean_linker_2, # of connection points: 2
#     Edge 14, Type (0, 1), BuildingBlock: XUDNAN_clean_linker_2, # of connection points: 2
#     Edge 15, Type (0, 1), BuildingBlock: XUDNAN_clean_linker_2, # of connection points: 2
#     Edge 16, Type (0, 1), BuildingBlock: XUDNAN_clean_linker_2, # of connection points: 2
#     Edge 17, Type (0, 1), BuildingBlock: XUDNAN_clean_linker_2, # of connection points: 2
#     Edge 18, Type (0, 1), BuildingBlock: XUDNAN_clean_linker_2, # of connection points: 2
#     Edge 19, Type (0, 1), BuildingBlock: XUDNAN_clean_linker_2, # of connection points: 2
#     Edge 20, Type (0, 1), BuildingBlock: XUDNAN_clean_linker_2, # of connection points: 2
#     Edge 21, Type (0, 1), BuildingBlock: XUDNAN_clean_linker_2, # of connection points: 2
#     Edge 22, Type (0, 1), BuildingBlock: XUDNAN_clean_linker_2, # of connection points: 2
#     Edge 23, Type (0, 1), BuildingBlock: XUDNAN_clean_linker_2, # of connection points: 2
#     Edge 24, Type (0, 1), BuildingBlock: XUDNAN_clean_linker_2, # of connection points: 2
#     Edge 25, Type (0, 1), BuildingBlock: XUDNAN_clean_linker_2, # of connection points: 2
#     Edge 26, Type (0, 1), BuildingBlock: XUDNAN_clean_linker_2, # of connection points: 2
#     Edge 27, Type (0, 1), BuildingBlock: XUDNAN_clean_linker_2, # of connection points: 2
#     Edge 28, Type (0, 1), BuildingBlock: XUDNAN_clean_linker_2, # of connection points: 2
#     Edge 29, Type (0, 1), BuildingBlock: XUDNAN_clean_linker_2, # of connection points: 2
#     Edge 30, Type (0, 1), BuildingBlock: XUDNAN_clean_linker_2, # of connection points: 2
#     Edge 31, Type (0, 1), BuildingBlock: XUDNAN_clean_linker_2, # of connection points: 2
#     Edge 32, Type (0, 1), BuildingBlock: XUDNAN_clean_linker_2, # of connection points: 2
#     Edge 33, Type (0, 1), BuildingBlock: XUDNAN_clean_linker_2, # of connection points: 2
#     Edge 34, Type (0, 1), BuildingBlock: XUDNAN_clean_linker_2, # of connection points: 2
#     Edge 35, Type (0, 1), BuildingBlock: XUDNAN_clean_linker_2, # of connection points: 2
# Relax obj value: 0.252
# Max RMSD: 0.199
# Mean RMSD: 0.164
data_MOF--net-dag--node1-OJICUG_clean_sbu_0--node2-KAKCAD_clean_linker_0--edge1-XUDNAN_clean_linker_2
_symmetry_space_group_name_H-M    P1
_symmetry_Int_Tables_number       1
_symmetry_cell_setting            triclinic
loop_
_symmetry_equiv_pos_as_xyz
'x, y, z'
_cell_length_a     44.072417
_cell_length_b     46.069552
_cell_length_c     45.20198
_cell_angle_alpha  95.19377
_cell_angle_beta   90.120899
_cell_angle_gamma 90.074147
loop_
_atom_site_label
_atom_site_type_symbol
_atom_site_fract_x
_atom_site_fract_y
_atom_site_fract_z
_atom_type_partial_charge
Sc0 Sc 0.12289 0.84338 0.04577 0.0
Sc1 Sc 0.12978 0.76706 0.04037 0.0
Sc2 Sc 0.189 0.81186 0.07229 0.0
O3 O 0.14726 0.80741 0.05284 0.0
C4 C 0.1896 0.8628 0.02891 0.0
C5 C 0.10749 0.80256 0.98695 0.0
C6 C 0.19863 0.76134 0.0196 0.0
C7 C 0.07324 0.80077 0.07001 0.0
C8 C 0.15182 0.86196 0.10959 0.0
C9 C 0.16249 0.75711 0.10175 0.0
O10 O 0.16089 0.86426 0.02668 0.0
O11 O 0.11264 0.77884 0.99831 0.0
O12 O 0.2089 0.78045 0.03924 0.0
O13 O 0.083 0.82582 0.06495 0.0
O14 O 0.17375 0.84396 0.10713 0.0
O15 O 0.14462 0.74921 0.08045 0.0
O16 O 0.13248 0.86409 0.08907 0.0
O17 O 0.08726 0.77716 0.06248 0.0
O18 O 0.17936 0.77947 0.10215 0.0
O19 O 0.11047 0.82728 0.00145 0.0
O20 O 0.20292 0.84538 0.04491 0.0
O21 O 0.17073 0.75443 0.01732 0.0
Sc22 Sc 0.707 0.67797 0.47176 0.0
Sc23 Sc 0.64166 0.70794 0.50856 0.0
Sc24 Sc 0.64886 0.63197 0.49309 0.0
O25 O 0.66589 0.67266 0.49114 0.0
C26 C 0.67965 0.62559 0.42912 0.0
C27 C 0.66878 0.7302 0.44907 0.0
C28 C 0.59116 0.66815 0.47459 0.0
C29 C 0.70911 0.72475 0.52871 0.0
C30 C 0.71834 0.6233 0.509 0.0
C31 C 0.62845 0.66261 0.55618 0.0
O32 O 0.69705 0.64756 0.43352 0.0
O33 O 0.65057 0.7324 0.47092 0.0
O34 O 0.60601 0.64454 0.47523 0.0
O35 O 0.72181 0.70927 0.5075 0.0
O36 O 0.69052 0.6163 0.51027 0.0
O37 O 0.62974 0.68852 0.54875 0.0
O38 O 0.72809 0.64461 0.49567 0.0
O39 O 0.68051 0.7261 0.53205 0.0
O40 O 0.63427 0.64056 0.53824 0.0
O41 O 0.6898 0.71134 0.44606 0.0
O42 O 0.66181 0.61742 0.44868 0.0
O43 O 0.60051 0.69262 0.48649 0.0
Sc44 Sc 0.84947 0.23226 0.00697 0.0
Sc45 Sc 0.80928 0.17795 0.96176 0.0
Sc46 Sc 0.86843 0.15837 0.0083 0.0
O47 O 0.84231 0.18959 0.99239 0.0
C48 C 0.91711 0.20858 -9e-05 0.0
C49 C 0.8365 0.23521 0.93765 0.0
C50 C 0.8639 0.13612 0.93957 0.0
C51 C 0.77723 0.22778 0.00477 0.0
C52 C 0.85895 0.20101 0.06682 0.0
C53 C 0.8029 0.12828 0.00585 0.0
O54 O 0.89782 0.22912 0.00017 0.0
O55 O 0.82307 0.2108 0.93407 0.0
O56 O 0.87667 0.13754 0.96484 0.0
O57 O 0.80186 0.239 0.01513 0.0
O58 O 0.86356 0.17612 0.05324 0.0
O59 O 0.79209 0.14323 0.98603 0.0
O60 O 0.8542 0.22367 0.05329 0.0
O61 O 0.77627 0.20643 0.98481 0.0
O62 O 0.8299 0.13126 0.01559 0.0
O63 O 0.84638 0.24637 0.96258 0.0
O64 O 0.90975 0.18238 0.00325 0.0
O65 O 0.83887 0.14873 0.93503 0.0
Sc66 Sc 0.3637 0.34621 0.53691 0.0
Sc67 Sc 0.30448 0.32679 0.58318 0.0
Sc68 Sc 0.34508 0.27236 0.53963 0.0
O69 O 0.33758 0.31511 0.55316 0.0
C70 C 0.35686 0.30266 0.47949 0.0
C71 C 0.29907 0.37756 0.54031 0.0
C72 C 0.27313 0.27815 0.5375 0.0
C73 C 0.35956 0.36769 0.6061 0.0
C74 C 0.4116 0.29677 0.55018 0.0
C75 C 0.32734 0.26805 0.60755 0.0
O76 O 0.35824 0.3284 0.4919 0.0
O77 O 0.28871 0.36256 0.56017 0.0
O78 O 0.29784 0.26624 0.5281 0.0
O79 O 0.37186 0.36692 0.58063 0.0
O80 O 0.39213 0.27659 0.55167 0.0
O81 O 0.3154 0.29311 0.6108 0.0
O82 O 0.4051 0.32201 0.54269 0.0
O83 O 0.33469 0.35477 0.61081 0.0
O84 O 0.33793 0.25724 0.58291 0.0
O85 O 0.32552 0.37395 0.52946 0.0
O86 O 0.35447 0.28029 0.49386 0.0
O87 O 0.27209 0.29939 0.55769 0.0
C88 C 0.97455 0.18819 0.26434 0.0
C89 C 0.94836 0.17184 0.25614 0.0
C90 C 0.99723 0.17667 0.28146 0.0
C91 C 0.99446 0.14841 0.29045 0.0
C92 C 0.96788 0.13245 0.28336 0.0
C93 C 0.94494 0.14415 0.26666 0.0
C94 C 0.02022 0.135 0.3053 0.0
C95 C 0.03496 0.15025 0.32948 0.0
C96 C 0.06111 0.13884 0.34201 0.0
C97 C 0.07231 0.11173 0.32995 0.0
C98 C 0.05773 0.09608 0.30583 0.0
C99 C 0.03149 0.10779 0.29384 0.0
C100 C 0.07084 0.06834 0.29207 0.0
C101 C 0.10228 0.06572 0.28729 0.0
C102 C 0.05196 0.04467 0.28266 0.0
C103 C 0.06415 0.01922 0.26823 0.0
C104 C 0.09552 0.01685 0.26283 0.0
C105 C 0.07748 0.15569 0.36681 0.0
C106 C 0.0801 0.18621 0.36757 0.0
C107 C 0.09144 0.14135 0.38944 0.0
C108 C 0.10824 0.15703 0.41176 0.0
C109 C 0.11102 0.18741 0.41223 0.0
C110 C 0.09651 0.2019 0.39016 0.0
C111 C 0.11448 0.04026 0.27287 0.0
H112 H 0.97837 0.20933 0.25633 0.0
H113 H 0.01765 0.18932 0.28641 0.0
H114 H 0.96508 0.11073 0.29036 0.0
H115 H 0.92484 0.13115 0.26138 0.0
H116 H 0.0259 0.17104 0.33852 0.0
H117 H 0.02068 0.09645 0.27455 0.0
H118 H 0.09279 0.10296 0.33897 0.0
H119 H 0.11742 0.08371 0.29384 0.0
H120 H 0.0277 0.04584 0.28639 0.0
H121 H 0.04898 0.0014 0.26115 0.0
H122 H 0.07019 0.19797 0.35027 0.0
H123 H 0.08944 0.11797 0.38994 0.0
H124 H 0.13866 0.03935 0.26866 0.0
H125 H 0.09865 0.2253 0.38985 0.0
H126 H 0.11901 0.14541 0.42874 0.0
C127 C 0.40802 0.51553 0.78084 0.0
C128 C 0.43133 0.49478 0.77638 0.0
C129 C 0.41319 0.54193 0.79776 0.0
C130 C 0.44184 0.54832 0.81041 0.0
C131 C 0.46448 0.52684 0.80784 0.0
C132 C 0.45919 0.50022 0.79119 0.0
C133 C 0.44903 0.57869 0.82202 0.0
C134 C 0.42808 0.59511 0.83973 0.0
C135 C 0.43086 0.62561 0.84467 0.0
C136 C 0.45576 0.63951 0.83245 0.0
C137 C 0.47753 0.62306 0.81565 0.0
C138 C 0.47423 0.59271 0.8109 0.0
C139 C 0.50105 0.63712 0.79859 0.0
C140 C 0.49237 0.65365 0.7754 0.0
C141 C 0.53156 0.62918 0.80128 0.0
C142 C 0.55262 0.63569 0.77979 0.0
C143 C 0.54338 0.64958 0.75477 0.0
C144 C 0.40596 0.64282 0.85979 0.0
C145 C 0.37565 0.63481 0.85372 0.0
C146 C 0.41194 0.66716 0.88006 0.0
C147 C 0.38801 0.68292 0.89415 0.0
C148 C 0.35771 0.67468 0.88809 0.0
C149 C 0.35193 0.65033 0.86783 0.0
C150 C 0.51332 0.65973 0.75358 0.0
H151 H 0.38642 0.51242 0.76955 0.0
H152 H 0.3954 0.5582 0.79901 0.0
H153 H 0.48668 0.53113 0.81762 0.0
H154 H 0.47742 0.48445 0.78882 0.0
H155 H 0.4088 0.58414 0.84858 0.0
H156 H 0.48988 0.58036 0.79618 0.0
H157 H 0.45751 0.66308 0.8348 0.0
H158 H 0.46883 0.65967 0.77272 0.0
H159 H 0.53868 0.6164 0.81903 0.0
H160 H 0.57576 0.62826 0.78188 0.0
H161 H 0.37013 0.61657 0.83779 0.0
H162 H 0.43506 0.67382 0.88524 0.0
H163 H 0.50526 0.67031 0.73463 0.0
H164 H 0.32895 0.64299 0.86299 0.0
H165 H 0.39322 0.70169 0.90951 0.0
C166 C 0.84915 0.80303 0.15044 0.0
C167 C 0.8733 0.82276 0.15593 0.0
C168 C 0.8191 0.81258 0.15405 0.0
C169 C 0.81295 0.84208 0.16249 0.0
C170 C 0.83712 0.86166 0.16803 0.0
C171 C 0.86697 0.85208 0.16492 0.0
C172 C 0.78151 0.85301 0.1653 0.0
C173 C 0.76128 0.84173 0.18511 0.0
C174 C 0.73252 0.85452 0.19064 0.0
C175 C 0.72439 0.87897 0.17558 0.0
C176 C 0.74498 0.89082 0.15619 0.0
C177 C 0.77303 0.87712 0.15062 0.0
C178 C 0.73915 0.91898 0.14367 0.0
C179 C 0.71155 0.92486 0.12981 0.0
C180 C 0.76249 0.93979 0.14436 0.0
C181 C 0.75918 0.96505 0.13005 0.0
C182 C 0.73211 0.97068 0.11509 0.0
C183 C 0.71298 0.84413 0.21455 0.0
C184 C 0.71419 0.81488 0.22107 0.0
C185 C 0.69549 0.86376 0.23307 0.0
C186 C 0.68136 0.85478 0.2584 0.0
C187 C 0.68516 0.82619 0.26653 0.0
C188 C 0.7011 0.80618 0.24691 0.0
C189 C 0.70807 0.95051 0.11558 0.0
H190 H 0.85354 0.78031 0.14347 0.0
H191 H 0.80071 0.79716 0.14967 0.0
H192 H 0.83288 0.88447 0.17478 0.0
H193 H 0.88516 0.86781 0.16892 0.0
H194 H 0.76901 0.82415 0.1976 0.0
H195 H 0.78894 0.88587 0.13543 0.0
H196 H 0.70271 0.88955 0.17977 0.0
H197 H 0.69313 0.90923 0.12907 0.0
H198 H 0.78384 0.9362 0.15539 0.0
H199 H 0.77851 0.97954 0.1298 0.0
H200 H 0.72645 0.79875 0.20687 0.0
H201 H 0.69383 0.88649 0.22904 0.0
H202 H 0.68678 0.95429 0.10456 0.0
H203 H 0.70502 0.784 0.25194 0.0
H204 H 0.66835 0.87072 0.27207 0.0
C205 C 0.63788 0.30149 0.64272 0.0
C206 C 0.6235 0.30881 0.61655 0.0
C207 C 0.66773 0.31003 0.64925 0.0
C208 C 0.68482 0.32506 0.62921 0.0
C209 C 0.67115 0.33054 0.60207 0.0
C210 C 0.64085 0.32309 0.5961 0.0
C211 C 0.71597 0.33633 0.63727 0.0
C212 C 0.73422 0.32282 0.65758 0.0
C213 C 0.76173 0.33541 0.66803 0.0
C214 C 0.77269 0.36023 0.65557 0.0
C215 C 0.75541 0.37372 0.63452 0.0
C216 C 0.72675 0.36204 0.62633 0.0
C217 C 0.76594 0.4011 0.62242 0.0
C218 C 0.78275 0.42222 0.63997 0.0
C219 C 0.75767 0.40708 0.59353 0.0
C220 C 0.76385 0.43413 0.58335 0.0
C221 C 0.77949 0.45583 0.60133 0.0
C222 C 0.77716 0.3245 0.69415 0.0
C223 C 0.75973 0.31655 0.71817 0.0
C224 C 0.80899 0.32365 0.69633 0.0
C225 C 0.82298 0.31541 0.72212 0.0
C226 C 0.80543 0.30792 0.74626 0.0
C227 C 0.77366 0.30825 0.74378 0.0
C228 C 0.78981 0.44903 0.6294 0.0
H229 H 0.62604 0.28955 0.6587 0.0
H230 H 0.67683 0.3055 0.67058 0.0
H231 H 0.68358 0.34115 0.58544 0.0
H232 H 0.63101 0.32947 0.57574 0.0
H233 H 0.72684 0.30273 0.666 0.0
H234 H 0.71221 0.37389 0.61236 0.0
H235 H 0.79421 0.36958 0.66307 0.0
H236 H 0.78952 0.41869 0.66239 0.0
H237 H 0.74552 0.39112 0.57892 0.0
H238 H 0.75501 0.43824 0.56178 0.0
H239 H 0.73518 0.31741 0.71754 0.0
H240 H 0.82308 0.32946 0.67817 0.0
H241 H 0.80263 0.46468 0.6437 0.0
H242 H 0.75942 0.30205 0.76166 0.0
H243 H 0.84753 0.31543 0.72336 0.0
C244 C 0.61128 0.47046 0.24988 0.0
C245 C 0.61421 0.47533 0.28095 0.0
C246 C 0.59608 0.44574 0.23692 0.0
C247 C 0.5837 0.42513 0.2547 0.0
C248 C 0.58673 0.43008 0.28572 0.0
C249 C 0.60137 0.45492 0.29863 0.0
C250 C 0.56836 0.39816 0.24128 0.0
C251 C 0.57904 0.38349 0.21471 0.0
C252 C 0.56642 0.35665 0.20361 0.0
C253 C 0.54273 0.34439 0.2191 0.0
C254 C 0.53163 0.35884 0.24551 0.0
C255 C 0.54416 0.38584 0.25611 0.0
C256 C 0.50817 0.34525 0.26323 0.0
C257 C 0.48074 0.33498 0.25027 0.0
C258 C 0.51288 0.34345 0.29374 0.0
C259 C 0.49035 0.33233 0.31116 0.0
C260 C 0.46245 0.32298 0.29854 0.0
C261 C 0.58007 0.34035 0.17729 0.0
C262 C 0.58353 0.35349 0.15064 0.0
C263 C 0.59188 0.31234 0.17949 0.0
C264 C 0.60803 0.2982 0.15585 0.0
C265 C 0.61205 0.31159 0.12946 0.0
C266 C 0.59913 0.33905 0.12674 0.0
C267 C 0.45793 0.32417 0.26786 0.0
H268 H 0.621 0.48556 0.2355 0.0
H269 H 0.59396 0.44289 0.21297 0.0
H270 H 0.57815 0.41456 0.30027 0.0
H271 H 0.60237 0.4581 0.32263 0.0
H272 H 0.5983 0.39204 0.20341 0.0
H273 H 0.53504 0.39713 0.2762 0.0
H274 H 0.53354 0.3233 0.21103 0.0
H275 H 0.47659 0.33618 0.22679 0.0
H276 H 0.53395 0.35098 0.3042 0.0
H277 H 0.49438 0.33206 0.33479 0.0
H278 H 0.57462 0.37512 0.14854 0.0
H279 H 0.58972 0.30192 0.19993 0.0
H280 H 0.43665 0.31705 0.25756 0.0
H281 H 0.6022 0.34982 0.10662 0.0
H282 H 0.6179 0.27703 0.15836 0.0
C283 C 0.14049 0.20303 0.91859 0.0
C284 C 0.13231 0.20097 0.9483 0.0
C285 C 0.16774 0.19109 0.90756 0.0
C286 C 0.1877 0.17718 0.92612 0.0
C287 C 0.18007 0.17645 0.95628 0.0
C288 C 0.15253 0.18799 0.96718 0.0
C289 C 0.21492 0.16149 0.9134 0.0
C290 C 0.23085 0.17197 0.88963 0.0
C291 C 0.25357 0.15513 0.87453 0.0
C292 C 0.26129 0.12803 0.88432 0.0
C293 C 0.24646 0.11779 0.90871 0.0
C294 C 0.22335 0.1345 0.92309 0.0
C295 C 0.25317 0.08851 0.91783 0.0
C296 C 0.25075 0.06392 0.8972 0.0
C297 C 0.25984 0.08482 0.94762 0.0
C298 C 0.26318 0.05689 0.95684 0.0
C299 C 0.25935 0.03225 0.93651 0.0
C300 C 0.26754 0.16488 0.84724 0.0
C301 C 0.2495 0.17811 0.8266 0.0
C302 C 0.29853 0.16021 0.84103 0.0
C303 C 0.31112 0.16859 0.81472 0.0
C304 C 0.29301 0.18201 0.79432 0.0
C305 C 0.26211 0.18666 0.80053 0.0
C306 C 0.25353 0.03596 0.90654 0.0
H307 H 0.12509 0.21259 0.90348 0.0
H308 H 0.1724 0.19162 0.88411 0.0
H309 H 0.19508 0.16645 0.97139 0.0
H310 H 0.14679 0.18636 0.99026 0.0
H311 H 0.2252 0.19312 0.8825 0.0
H312 H 0.21082 0.12553 0.94076 0.0
H313 H 0.27824 0.11447 0.87254 0.0
H314 H 0.24539 0.06631 0.87415 0.0
H315 H 0.2618 0.10353 0.96384 0.0
H316 H 0.26733 0.05452 0.98014 0.0
H317 H 0.22541 0.18134 0.83025 0.0
H318 H 0.31308 0.15027 0.85658 0.0
H319 H 0.25043 0.01723 0.89053 0.0
H320 H 0.24749 0.19645 0.78491 0.0
H321 H 0.33506 0.16493 0.81049 0.0
C322 C 0.36626 0.6959 0.40202 0.0
C323 C 0.38522 0.67134 0.39736 0.0
C324 C 0.3346 0.69258 0.40167 0.0
C325 C 0.32171 0.66465 0.39723 0.0
C326 C 0.34069 0.64031 0.39203 0.0
C327 C 0.37202 0.6436 0.3921 0.0
C328 C 0.28862 0.65988 0.39857 0.0
C329 C 0.26915 0.67107 0.37795 0.0
C330 C 0.23886 0.66117 0.37479 0.0
C331 C 0.22856 0.63972 0.39288 0.0
C332 C 0.24838 0.62781 0.41289 0.0
C333 C 0.27768 0.63932 0.41676 0.0
C334 C 0.24129 0.59995 0.42546 0.0
C335 C 0.21339 0.59479 0.43907 0.0
C336 C 0.2633 0.57786 0.42338 0.0
C337 C 0.25829 0.55178 0.43566 0.0
C338 C 0.23076 0.54653 0.44983 0.0
C339 C 0.22001 0.67004 0.34964 0.0
C340 C 0.22405 0.69752 0.33897 0.0
C341 C 0.20016 0.65009 0.33408 0.0
C342 C 0.1862 0.65683 0.30781 0.0
C343 C 0.19246 0.68328 0.29572 0.0
C344 C 0.21095 0.70386 0.31217 0.0
C345 C 0.2082 0.56827 0.45132 0.0
H346 H 0.37591 0.71753 0.40609 0.0
H347 H 0.32028 0.71162 0.40562 0.0
H348 H 0.33122 0.61856 0.38824 0.0
H349 H 0.38594 0.62421 0.38894 0.0
H350 H 0.27853 0.68558 0.36276 0.0
H351 H 0.2931 0.63029 0.43228 0.0
H352 H 0.20587 0.63085 0.39013 0.0
H353 H 0.19595 0.6114 0.44074 0.0
H354 H 0.28476 0.58077 0.41236 0.0
H355 H 0.27657 0.53604 0.43464 0.0
H356 H 0.23841 0.71386 0.35068 0.0
H357 H 0.19641 0.62857 0.34117 0.0
H358 H 0.1867 0.56485 0.46202 0.0
H359 H 0.2167 0.72445 0.30386 0.0
H360 H 0.1713 0.64073 0.29651 0.0
C361 C 0.02606 0.83476 0.76567 0.0
C362 C 0.0265 0.84646 0.79551 0.0
C363 C 0.00948 0.84852 0.74439 0.0
C364 C 0.99309 0.87414 0.75269 0.0
C365 C 0.99326 0.8854 0.78264 0.0
C366 C 0.00976 0.87181 0.8037 0.0
C367 C 0.97462 0.88886 0.73093 0.0
C368 C 0.95472 0.87278 0.7114 0.0
C369 C 0.93282 0.88704 0.69522 0.0
C370 C 0.93156 0.91768 0.6983 0.0
C371 C 0.95115 0.93393 0.71783 0.0
C372 C 0.97335 0.91944 0.7331 0.0
C373 C 0.94436 0.96474 0.72774 0.0
C374 C 0.91527 0.97204 0.73859 0.0
C375 C 0.96779 0.98536 0.73201 0.0
C376 C 0.96287 0.01171 0.74917 0.0
C377 C 0.93461 0.01763 0.7629 0.0
C378 C 0.9085 0.87004 0.67873 0.0
C379 C 0.91486 0.8437 0.66165 0.0
C380 C 0.87822 0.87946 0.6814 0.0
C381 C 0.85486 0.8629 0.66766 0.0
C382 C 0.86104 0.83626 0.65116 0.0
C383 C 0.89133 0.82698 0.64794 0.0
C384 C 0.91046 0.99814 0.75611 0.0
H385 H 0.03872 0.81518 0.75876 0.0
H386 H 0.00963 0.83927 0.72149 0.0
H387 H 0.98005 0.90449 0.79006 0.0
H388 H 0.00885 0.8809 0.82664 0.0
H389 H 0.95454 0.8492 0.71075 0.0
H390 H 0.98799 0.93195 0.74881 0.0
H391 H 0.91425 0.92897 0.68673 0.0
H392 H 0.89684 0.95642 0.73591 0.0
H393 H 0.99037 0.9803 0.72365 0.0
H394 H 0.98176 0.02661 0.75322 0.0
H395 H 0.93797 0.83593 0.6591 0.0
H396 H 0.87234 0.89931 0.69482 0.0
H397 H 0.88844 0.00167 0.76637 0.0
H398 H 0.89679 0.80648 0.63545 0.0
H399 H 0.83184 0.87094 0.67017 0.0
H400 H 0.10418 0.89817 0.12443 0.0
H401 H 0.19126 0.87063 0.15722 0.0
H402 H 0.18535 0.9056 0.2018 0.0
H403 H 0.1124 0.97286 0.1464 0.0
H404 H 0.07307 0.97824 0.15626 0.0
H405 H 0.08355 0.94984 0.12822 0.0
H406 H 0.05632 0.91164 0.1576 0.0
H407 H 0.04572 0.93996 0.18578 0.0
H408 H 0.06647 0.90862 0.19585 0.0
H409 H 0.17069 0.94609 0.24152 0.0
H410 H 0.14848 0.98755 0.27281 0.0
H411 H 0.07154 0.9877 0.21278 0.0
C412 C 0.12205 0.89923 0.14098 0.0
C413 C 0.14828 0.88166 0.1372 0.0
C414 C 0.17095 0.88383 0.15959 0.0
C415 C 0.16777 0.90361 0.18499 0.0
C416 C 0.14173 0.92085 0.18771 0.0
C417 C 0.11923 0.91866 0.16632 0.0
C418 C 0.09384 0.9401 0.17378 0.0
C419 C 0.09054 0.96152 0.14974 0.0
C420 C 0.06382 0.92412 0.17854 0.0
C421 C 0.10572 0.95516 0.20256 0.0
C422 C 0.13328 0.94374 0.21039 0.0
C423 C 0.14903 0.95503 0.23566 0.0
C424 C 0.13632 0.97867 0.25319 0.0
C425 C 0.10818 0.99078 0.24535 0.0
C426 C 0.09274 0.9786 0.21977 0.0
H427 H 0.59752 0.69875 0.59793 0.0
H428 H 0.64261 0.61481 0.58461 0.0
H429 H 0.62997 0.60505 0.63575 0.0
H430 H 0.61844 0.71494 0.67673 0.0
H431 H 0.58218 0.73102 0.68662 0.0
H432 H 0.59703 0.73295 0.64972 0.0
H433 H 0.54801 0.7088 0.62729 0.0
H434 H 0.533 0.70688 0.66407 0.0
H435 H 0.53588 0.67426 0.63903 0.0
H436 H 0.61022 0.60262 0.68647 0.0
H437 H 0.58182 0.60626 0.73323 0.0
H438 H 0.54919 0.69191 0.71518 0.0
C439 C 0.60504 0.6785 0.60594 0.0
C440 C 0.62108 0.65755 0.58724 0.0
C441 C 0.63015 0.63112 0.59841 0.0
C442 C 0.62329 0.62545 0.62753 0.0
C443 C 0.60727 0.64636 0.64528 0.0
C444 C 0.5981 0.67231 0.63499 0.0
C445 C 0.57929 0.69006 0.65817 0.0
C446 C 0.59519 0.71896 0.66842 0.0
C447 C 0.54714 0.6953 0.64643 0.0
C448 C 0.57882 0.66969 0.68274 0.0
C449 C 0.59552 0.64484 0.6749 0.0
C450 C 0.59744 0.62216 0.69312 0.0
C451 C 0.58137 0.62461 0.71987 0.0
C452 C 0.56348 0.64957 0.7283 0.0
C453 C 0.56267 0.67258 0.70953 0.0
H454 H 0.80357 0.11372 0.06274 0.0
H455 H 0.75829 0.09434 0.978 0.0
H456 H 0.72876 0.05534 0.99915 0.0
H457 H 0.81287 0.04364 0.08072 0.0
H458 H 0.80549 0.05109 0.11987 0.0
H459 H 0.82 0.07944 0.09902 0.0
H460 H 0.7746 0.11243 0.11595 0.0
H461 H 0.75982 0.08414 0.13695 0.0
H462 H 0.7364 0.09928 0.10947 0.0
H463 H 0.71068 0.01368 0.02756 0.0
H464 H 0.70455 0.97444 0.06077 0.0
H465 H 0.75736 0.02482 0.12853 0.0
C466 C 0.78709 0.10153 0.04877 0.0
C467 C 0.78328 0.10677 0.01873 0.0
C468 C 0.76142 0.09061 0.00112 0.0
C469 C 0.74454 0.06852 0.01297 0.0
C470 C 0.74925 0.06353 0.04263 0.0
C471 C 0.76964 0.07998 0.0604 0.0
C472 C 0.77177 0.06946 0.09106 0.0
C473 C 0.80446 0.06036 0.09804 0.0
C474 C 0.75993 0.09272 0.11475 0.0
C475 C 0.75066 0.04349 0.0873 0.0
C476 C 0.73764 0.04049 0.05935 0.0
C477 C 0.72008 0.01622 0.04979 0.0
C478 C 0.71655 0.99407 0.06893 0.0
C479 C 0.73049 0.99638 0.09735 0.0
C480 C 0.7466 0.02211 0.1069 0.0
H481 H 0.46787 0.29677 0.52381 0.0
H482 H 0.42186 0.2895 0.60747 0.0
H483 H 0.47128 0.28929 0.63336 0.0
H484 H 0.53225 0.24806 0.54072 0.0
H485 H 0.55941 0.26891 0.52166 0.0
H486 H 0.52044 0.26695 0.50943 0.0
H487 H 0.51752 0.32334 0.5148 0.0
H488 H 0.55632 0.32549 0.52733 0.0
H489 H 0.52681 0.343 0.54998 0.0
H490 H 0.5243 0.29687 0.65077 0.0
H491 H 0.57856 0.30539 0.65864 0.0
H492 H 0.59196 0.30023 0.56285 0.0
C493 C 0.46844 0.29454 0.54745 0.0
C494 C 0.44137 0.29295 0.56381 0.0
C495 C 0.44258 0.29033 0.5947 0.0
C496 C 0.47045 0.29031 0.60954 0.0
C497 C 0.49685 0.29221 0.59297 0.0
C498 C 0.49622 0.29357 0.56253 0.0
C499 C 0.52808 0.29542 0.55024 0.0
C500 C 0.53548 0.26821 0.52927 0.0
C501 C 0.53242 0.32349 0.53468 0.0
C502 C 0.54651 0.29616 0.57869 0.0
C503 C 0.52796 0.29442 0.60301 0.0
C504 C 0.53926 0.29724 0.63185 0.0
C505 C 0.57043 0.30181 0.63603 0.0
C506 C 0.59036 0.30288 0.61146 0.0
C507 C 0.57789 0.2997 0.58236 0.0
H508 H 0.686 0.56738 0.41915 0.0
H509 H 0.67016 0.64526 0.37455 0.0
H510 H 0.65772 0.61466 0.32803 0.0
H511 H 0.71813 0.52201 0.35232 0.0
H512 H 0.7003 0.48962 0.36375 0.0
H513 H 0.71303 0.5178 0.39127 0.0
H514 H 0.659 0.52066 0.4138 0.0
H515 H 0.64593 0.49297 0.38618 0.0
H516 H 0.62717 0.52784 0.39042 0.0
H517 H 0.63722 0.57527 0.2902 0.0
H518 H 0.61502 0.53123 0.26329 0.0
H519 H 0.64903 0.47921 0.33161 0.0
C520 C 0.68104 0.5779 0.39921 0.0
C521 C 0.67926 0.60848 0.40008 0.0
C522 C 0.67214 0.62178 0.37395 0.0
C523 C 0.66495 0.60457 0.34756 0.0
C524 C 0.66579 0.57426 0.3477 0.0
C525 C 0.67445 0.5611 0.37272 0.0
C526 C 0.67135 0.52833 0.3681 0.0
C527 C 0.70257 0.51357 0.3689 0.0
C528 C 0.64956 0.5168 0.39097 0.0
C529 C 0.65796 0.52508 0.33718 0.0
C530 C 0.65508 0.55169 0.3256 0.0
C531 C 0.64021 0.55423 0.29868 0.0
C532 C 0.62771 0.52901 0.28348 0.0
C533 C 0.63017 0.50156 0.29522 0.0
C534 C 0.64633 0.49975 0.32203 0.0
H535 H 0.96593 0.17272 0.00554 0.0
H536 H 0.94155 0.25886 0.98152 0.0
H537 H 0.99511 0.26797 0.96922 0.0
H538 H 0.04001 0.19284 0.03816 0.0
H539 H 0.05717 0.15894 0.0239 0.0
H540 H 0.01734 0.16017 0.03286 0.0
H541 H 0.00434 0.13839 0.97943 0.0
H542 H 0.04405 0.13709 0.9703 0.0
H543 H 0.01805 0.15627 0.9482 0.0
H544 H 0.05053 0.26573 0.95507 0.0
H545 H 0.10367 0.25279 0.94189 0.0
H546 H 0.09152 0.16892 0.97669 0.0
C547 C 0.97181 0.19367 0.99804 0.0
C548 C 0.94946 0.21507 0.99452 0.0
C549 C 0.95825 0.24216 0.98456 0.0
C550 C 0.98862 0.24754 0.97751 0.0
C551 C 0.00996 0.22578 0.98086 0.0
C552 C 0.00196 0.19948 0.99113 0.0
C553 C 0.02888 0.1792 0.99164 0.0
C554 C 0.03628 0.1724 0.02354 0.0
C555 C 0.0235 0.15109 0.97117 0.0
C556 C 0.05322 0.19796 0.97948 0.0
C557 C 0.04193 0.22477 0.97342 0.0
C558 C 0.05975 0.245 0.96017 0.0
C559 C 0.0898 0.23747 0.9527 0.0
C560 C 0.10168 0.21008 0.95871 0.0
C561 C 0.08321 0.1903 0.97258 0.0
H562 H 0.29726 0.39626 0.48477 0.0
H563 H 0.25731 0.41074 0.57243 0.0
H564 H 0.22759 0.45188 0.556 0.0
H565 H 0.30726 0.46752 0.47171 0.0
H566 H 0.29745 0.46316 0.43283 0.0
H567 H 0.31221 0.43278 0.45051 0.0
H568 H 0.26476 0.40224 0.43362 0.0
H569 H 0.24975 0.43272 0.41595 0.0
H570 H 0.22746 0.41605 0.44322 0.0
H571 H 0.20965 0.49632 0.53254 0.0
H572 H 0.20435 0.53913 0.50379 0.0
H573 H 0.25073 0.49215 0.4296 0.0
C574 C 0.28186 0.40782 0.50032 0.0
C575 C 0.27963 0.40055 0.52985 0.0
C576 C 0.2592 0.41599 0.54962 0.0
C577 C 0.24217 0.43929 0.54047 0.0
C578 C 0.2452 0.44624 0.51126 0.0
C579 C 0.26416 0.4306 0.49133 0.0
C580 C 0.26484 0.4435 0.46178 0.0
C581 C 0.29736 0.45227 0.45377 0.0
C582 C 0.25086 0.42236 0.43719 0.0
C583 C 0.24483 0.46986 0.46875 0.0
C584 C 0.23341 0.47098 0.49727 0.0
C585 C 0.21768 0.4953 0.50987 0.0
C586 C 0.21461 0.5195 0.49329 0.0
C587 C 0.22722 0.5191 0.46446 0.0
C588 C 0.24103 0.49328 0.45166 0.0
H589 H 0.10556 0.84815 0.95238 0.0
H590 H 0.08817 0.75518 0.95008 0.0
H591 H 0.07075 0.75495 0.89797 0.0
H592 H 0.04172 0.86602 0.91276 0.0
H593 H 0.06037 0.89343 0.89326 0.0
H594 H 0.07412 0.8854 0.92908 0.0
H595 H 0.12753 0.87475 0.90682 0.0
H596 H 0.11392 0.88268 0.87081 0.0
H597 H 0.13171 0.84815 0.87531 0.0
H598 H 0.05065 0.76623 0.84747 0.0
H599 H 0.02883 0.78818 0.80414 0.0
H600 H 0.0615 0.87308 0.83983 0.0
C601 C 0.09834 0.82762 0.94094 0.0
C602 C 0.09809 0.8017 0.9554 0.0
C603 C 0.08858 0.77533 0.93947 0.0
C604 C 0.07874 0.77497 0.90983 0.0
C605 C 0.07899 0.80106 0.89639 0.0
C606 C 0.08874 0.82684 0.91146 0.0
C607 C 0.08536 0.85225 0.89281 0.0
C608 C 0.06412 0.87563 0.90788 0.0
C609 C 0.11648 0.86521 0.88603 0.0
C610 C 0.07112 0.83698 0.86521 0.0
C611 C 0.06793 0.80741 0.86742 0.0
C612 C 0.05346 0.78928 0.84531 0.0
C613 C 0.04127 0.80189 0.82072 0.0
C614 C 0.04346 0.83231 0.81867 0.0
C615 C 0.05938 0.84977 0.84085 0.0
H616 H 0.84185 0.1183 0.88352 0.0
H617 H 0.92309 0.11894 0.93827 0.0
H618 H 0.95119 0.094 0.89658 0.0
H619 H 0.85264 0.04748 0.84801 0.0
H620 H 0.83852 0.05592 0.81233 0.0
H621 H 0.82519 0.07618 0.84566 0.0
H622 H 0.84166 0.12434 0.82477 0.0
H623 H 0.85529 0.10415 0.79143 0.0
H624 H 0.88036 0.12867 0.8131 0.0
H625 H 0.96991 0.06663 0.8509 0.0
H626 H 0.97716 0.03478 0.80503 0.0
H627 H 0.8846 0.05212 0.77828 0.0
C628 C 0.8656 0.1134 0.88664 0.0
C629 C 0.88018 0.1206 0.91424 0.0
C630 C 0.91126 0.11353 0.91747 0.0
C631 C 0.92757 0.09957 0.89381 0.0
C632 C 0.91258 0.09279 0.86698 0.0
C633 C 0.88228 0.09924 0.86322 0.0
C634 C 0.87126 0.08765 0.8326 0.0
C635 C 0.84538 0.06549 0.8348 0.0
C636 C 0.86157 0.1127 0.8144 0.0
C637 C 0.89992 0.07305 0.82015 0.0
C638 C 0.92355 0.07676 0.84024 0.0
C639 C 0.95176 0.06393 0.83472 0.0
C640 C 0.95573 0.04605 0.80833 0.0
C641 C 0.93158 0.04102 0.78768 0.0
C642 C 0.90356 0.05545 0.79348 0.0
H643 H 0.40203 0.27288 0.44983 0.0
H644 H 0.32378 0.32716 0.43757 0.0
H645 H 0.33789 0.32998 0.38496 0.0
H646 H 0.45046 0.31389 0.41398 0.0
H647 H 0.47375 0.28477 0.39722 0.0
H648 H 0.4534 0.27997 0.4308 0.0
H649 H 0.42718 0.23382 0.40545 0.0
H650 H 0.44774 0.23832 0.37171 0.0
H651 H 0.40692 0.23595 0.37103 0.0
H652 H 0.36469 0.33373 0.33698 0.0
H653 H 0.4034 0.34097 0.29891 0.0
H654 H 0.46606 0.28662 0.34314 0.0
C655 C 0.38714 0.28406 0.43552 0.0
C656 C 0.36134 0.29902 0.44718 0.0
C657 C 0.34319 0.31497 0.42859 0.0
C658 C 0.35104 0.31663 0.39874 0.0
C659 C 0.37732 0.30251 0.38803 0.0
C660 C 0.39514 0.28651 0.40588 0.0
C661 C 0.42482 0.27775 0.39077 0.0
C662 C 0.4522 0.28983 0.40929 0.0
C663 C 0.42677 0.24448 0.38436 0.0
C664 C 0.42156 0.29247 0.36231 0.0
C665 C 0.39364 0.30588 0.36074 0.0
C666 C 0.38637 0.32281 0.33766 0.0
C667 C 0.40846 0.32674 0.31607 0.0
C668 C 0.43764 0.31424 0.31803 0.0
C669 C 0.44387 0.29628 0.34104 0.0
H670 H 0.172 0.8943 0.98332 0.0
H671 H 0.24908 0.87799 0.03943 0.0
H672 H 0.27823 0.91606 0.01687 0.0
H673 H 0.21704 0.91115 0.91717 0.0
H674 H 0.19063 0.93893 0.90831 0.0
H675 H 0.1774 0.90777 0.92601 0.0
H676 H 0.15397 0.94212 0.96843 0.0
H677 H 0.16714 0.97332 0.951 0.0
H678 H 0.17771 0.96886 0.98886 0.0
H679 H 0.29584 0.96074 0.9941 0.0
H680 H 0.30137 0.00707 0.97074 0.0
H681 H 0.21385 0.99265 0.92802 0.0
C682 C 0.19521 0.89833 0.99049 0.0
C683 C 0.20823 0.88323 0.0132 0.0
C684 C 0.23866 0.88918 0.02196 0.0
C685 C 0.25542 0.91075 0.00926 0.0
C686 C 0.24162 0.92574 0.98745 0.0
C687 C 0.21234 0.9195 0.97783 0.0
C688 C 0.20197 0.94003 0.95556 0.0
C689 C 0.19644 0.92348 0.92495 0.0
C690 C 0.17353 0.95709 0.96665 0.0
C691 C 0.22947 0.95966 0.9552 0.0
C692 C 0.25224 0.95092 0.97352 0.0
C693 C 0.27854 0.96739 0.9791 0.0
C694 C 0.28146 0.99365 0.96589 0.0
C695 C 0.25827 0.00297 0.94726 0.0
C696 C 0.23229 0.98547 0.94146 0.0
H697 H 0.53935 0.6999 0.48671 0.0
H698 H 0.5794 0.63474 0.42328 0.0
H699 H 0.53282 0.63414 0.39281 0.0
H700 H 0.46647 0.66773 0.48476 0.0
H701 H 0.44613 0.70177 0.4889 0.0
H702 H 0.48387 0.69963 0.50375 0.0
H703 H 0.50063 0.74203 0.47344 0.0
H704 H 0.46294 0.74399 0.45817 0.0
H705 H 0.49515 0.73892 0.43375 0.0
H706 H 0.48202 0.63908 0.37028 0.0
H707 H 0.42726 0.64371 0.36061 0.0
H708 H 0.41853 0.70329 0.44016 0.0
C709 C 0.53833 0.68578 0.46622 0.0
C710 C 0.56288 0.66746 0.45718 0.0
C711 C 0.56069 0.64882 0.4306 0.0
C712 C 0.53451 0.64858 0.41301 0.0
C713 C 0.51066 0.6669 0.42248 0.0
C714 C 0.51208 0.68482 0.44868 0.0
C715 C 0.48205 0.70001 0.45529 0.0
C716 C 0.46885 0.69178 0.48492 0.0
C717 C 0.4854 0.73321 0.45515 0.0
C718 C 0.46339 0.68731 0.42904 0.0
C719 C 0.48062 0.66884 0.41004 0.0
C720 C 0.46827 0.65353 0.38492 0.0
C721 C 0.43716 0.65624 0.37966 0.0
C722 C 0.41867 0.67372 0.39972 0.0
C723 C 0.43219 0.69016 0.42419 0.0
H724 H 0.33701 0.38953 0.6606 0.0
H725 H 0.41982 0.38059 0.60864 0.0
H726 H 0.44817 0.40678 0.64968 0.0
H727 H 0.35076 0.46128 0.69066 0.0
H728 H 0.33506 0.45675 0.72675 0.0
H729 H 0.32166 0.43438 0.69468 0.0
H730 H 0.33475 0.38796 0.72049 0.0
H731 H 0.34834 0.41025 0.75263 0.0
H732 H 0.37274 0.38308 0.73401 0.0
H733 H 0.46689 0.43708 0.69375 0.0
H734 H 0.47429 0.47247 0.73709 0.0
H735 H 0.38004 0.46165 0.76205 0.0
C736 C 0.36117 0.39276 0.65807 0.0
C737 C 0.37614 0.38306 0.63137 0.0
C738 C 0.40775 0.38803 0.62875 0.0
C739 C 0.42416 0.40265 0.65206 0.0
C740 C 0.40874 0.41218 0.67793 0.0
C741 C 0.37796 0.40758 0.68112 0.0
C742 C 0.3666 0.42221 0.71041 0.0
C743 C 0.34208 0.44501 0.70531 0.0
C744 C 0.35492 0.39951 0.73058 0.0
C745 C 0.39562 0.43648 0.72261 0.0
C746 C 0.41971 0.42993 0.70371 0.0
C747 C 0.44837 0.44199 0.70906 0.0
C748 C 0.4524 0.46195 0.73398 0.0
C749 C 0.42785 0.4698 0.75331 0.0
C750 C 0.3993 0.45619 0.74781 0.0
H751 H 0.0163 0.7803 0.05513 0.0
H752 H 0.07069 0.82039 0.12766 0.0
H753 H 0.02574 0.82292 0.16038 0.0
H754 H 0.95395 0.82526 0.06873 0.0
H755 H 0.92547 0.79795 0.05888 0.0
H756 H 0.96269 0.79437 0.04277 0.0
H757 H 0.96807 0.74327 0.06194 0.0
H758 H 0.93079 0.74678 0.07823 0.0
H759 H 0.96301 0.7392 0.10091 0.0
H760 H 0.97504 0.82634 0.18322 0.0
H761 H 0.9206 0.8336 0.19412 0.0
H762 H 0.89782 0.79278 0.10667 0.0
C763 C 0.01867 0.78882 0.07815 0.0
C764 C 0.04671 0.79975 0.08929 0.0
C765 C 0.04922 0.81167 0.11909 0.0
C766 C 0.02394 0.81303 0.1378 0.0
C767 C 0.99635 0.80248 0.1262 0.0
C768 C 0.99344 0.79071 0.09705 0.0
C769 C 0.96048 0.78432 0.08925 0.0
C770 C 0.95005 0.80151 0.06339 0.0
C771 C 0.95529 0.75143 0.08217 0.0
C772 C 0.94533 0.79534 0.11818 0.0
C773 C 0.96655 0.80512 0.13936 0.0
C774 C 0.95818 0.81836 0.16704 0.0
C775 C 0.92728 0.82248 0.17299 0.0
C776 C 0.90517 0.81358 0.15128 0.0
C777 C 0.9143 0.79914 0.12386 0.0
H778 H 0.74425 0.5719 0.48934 0.0
H779 H 0.73741 0.63546 0.56553 0.0
H780 H 0.76269 0.60128 0.59681 0.0
H781 H 0.72439 0.51383 0.52315 0.0
H782 H 0.74988 0.48762 0.50458 0.0
H783 H 0.73862 0.5191 0.48664 0.0
H784 H 0.79489 0.53367 0.48056 0.0
H785 H 0.80647 0.50186 0.49816 0.0
H786 H 0.81944 0.53748 0.51264 0.0
H787 H 0.77625 0.55716 0.62126 0.0
H788 H 0.78008 0.5078 0.63687 0.0
H789 H 0.78361 0.47293 0.54426 0.0
C790 C 0.74959 0.57897 0.51226 0.0
C791 C 0.73977 0.60631 0.52512 0.0
C792 C 0.74563 0.61476 0.55538 0.0
C793 C 0.75993 0.59549 0.57322 0.0
C794 C 0.76848 0.56812 0.56022 0.0
C795 C 0.76415 0.56006 0.53025 0.0
C796 C 0.77188 0.52824 0.52257 0.0
C797 C 0.74457 0.51123 0.50843 0.0
C798 C 0.79984 0.52514 0.50228 0.0
C799 C 0.77905 0.51917 0.55319 0.0
C800 C 0.77741 0.54256 0.57451 0.0
C801 C 0.77878 0.53884 0.60471 0.0
C802 C 0.78115 0.51048 0.61337 0.0
C803 C 0.78235 0.48601 0.59193 0.0
C804 C 0.7825 0.49084 0.56142 0.0
H805 H 0.86393 0.15645 0.10218 0.0
H806 H 0.86258 0.2509 0.10557 0.0
H807 H 0.87739 0.25368 0.1586 0.0
H808 H 0.83979 0.14933 0.18077 0.0
H809 H 0.8654 0.11922 0.18353 0.0
H810 H 0.84806 0.12492 0.14836 0.0
H811 H 0.90131 0.12593 0.12422 0.0
H812 H 0.91877 0.12044 0.15916 0.0
H813 H 0.92931 0.15149 0.13986 0.0
H814 H 0.90032 0.24578 0.20876 0.0
H815 H 0.92961 0.22834 0.25028 0.0
H816 H 0.9184 0.13925 0.21152 0.0
C817 C 0.86586 0.17782 0.11417 0.0
C818 C 0.8621 0.20348 0.09963 0.0
C819 C 0.86511 0.23092 0.11623 0.0
C820 C 0.8735 0.23269 0.1464 0.0
C821 C 0.87843 0.20684 0.15962 0.0
C822 C 0.87442 0.17992 0.14398 0.0
C823 C 0.88482 0.15542 0.16165 0.0
C824 C 0.85791 0.13608 0.16902 0.0
C825 C 0.91005 0.13729 0.14525 0.0
C826 C 0.89679 0.17275 0.18919 0.0
C827 C 0.89227 0.20232 0.18803 0.0
C828 C 0.90359 0.22265 0.21004 0.0
C829 C 0.92048 0.21252 0.23341 0.0
C830 C 0.92644 0.18234 0.23431 0.0
C831 C 0.91371 0.16235 0.21215 0.0
H832 H 0.16759 0.77856 0.15954 0.0
H833 H 0.15787 0.69801 0.10278 0.0
H834 H 0.16053 0.66999 0.14702 0.0
H835 H 0.21961 0.75426 0.2104 0.0
H836 H 0.2031 0.77406 0.24262 0.0
H837 H 0.19903 0.78755 0.2067 0.0
H838 H 0.14056 0.78801 0.21269 0.0
H839 H 0.14443 0.77454 0.24871 0.0
H840 H 0.12116 0.75513 0.22063 0.0
H841 H 0.1703 0.65114 0.19668 0.0
H842 H 0.18292 0.64247 0.24799 0.0
H843 H 0.17941 0.73584 0.27315 0.0
C844 C 0.16591 0.75501 0.15649 0.0
C845 C 0.16288 0.74028 0.12789 0.0
C846 C 0.16026 0.70956 0.12462 0.0
C847 C 0.16172 0.69355 0.14956 0.0
C848 C 0.16498 0.70875 0.1775 0.0
C849 C 0.16652 0.73882 0.18112 0.0
C850 C 0.17014 0.74991 0.21347 0.0
C851 C 0.19973 0.76747 0.21858 0.0
C852 C 0.14241 0.76796 0.22452 0.0
C853 C 0.17159 0.72133 0.22742 0.0
C854 C 0.16859 0.69786 0.20633 0.0
C855 C 0.17186 0.66932 0.21354 0.0
C856 C 0.17877 0.66464 0.24301 0.0
C857 C 0.18193 0.68839 0.26518 0.0
C858 C 0.17752 0.71705 0.25708 0.0
H859 H 0.76917 0.74054 0.52423 0.0
H860 H 0.69231 0.74598 0.58454 0.0
H861 H 0.72378 0.7728 0.62289 0.0
H862 H 0.8274 0.73162 0.57964 0.0
H863 H 0.85468 0.75412 0.56272 0.0
H864 H 0.82662 0.73413 0.54007 0.0
H865 H 0.80868 0.78202 0.51963 0.0
H866 H 0.83676 0.80212 0.54209 0.0
H867 H 0.79735 0.81231 0.54526 0.0
H868 H 0.76278 0.79897 0.65457 0.0
H869 H 0.80661 0.8259 0.67701 0.0
H870 H 0.85802 0.80566 0.5959 0.0
C871 C 0.75903 0.74724 0.54556 0.0
C872 C 0.72827 0.74113 0.55136 0.0
C873 C 0.71576 0.75053 0.57947 0.0
C874 C 0.73348 0.76564 0.60149 0.0
C875 C 0.76364 0.77133 0.59506 0.0
C876 C 0.77633 0.76265 0.56777 0.0
C877 C 0.80901 0.77273 0.56634 0.0
C878 C 0.8307 0.74659 0.56194 0.0
C879 C 0.81318 0.79353 0.54188 0.0
C880 C 0.81254 0.78858 0.59702 0.0
C881 C 0.78613 0.78721 0.61325 0.0
C882 C 0.78356 0.80036 0.64207 0.0
C883 C 0.80853 0.81576 0.65453 0.0
C884 C 0.83564 0.81818 0.6381 0.0
C885 C 0.83771 0.80403 0.60909 0.0
H886 H 0.76801 0.25107 0.06146 0.0
H887 H 0.72158 0.22989 0.97757 0.0
H888 H 0.67366 0.24941 6e-05 0.0
H889 H 0.70695 0.22996 0.10727 0.0
H890 H 0.71441 0.2584 0.13646 0.0
H891 H 0.74495 0.24382 0.11327 0.0
H892 H 0.75803 0.29576 0.0994 0.0
H893 H 0.72756 0.31052 0.12257 0.0
H894 H 0.72894 0.31743 0.08398 0.0
H895 H 0.63127 0.27342 0.03187 0.0
H896 H 0.5973 0.29595 0.0713 0.0
H897 H 0.67139 0.29749 0.13455 0.0
C898 C 0.74782 0.25076 0.04773 0.0
C899 C 0.74849 0.23935 0.0177 0.0
C900 C 0.72148 0.23866 0.00062 0.0
C901 C 0.69424 0.24974 0.01318 0.0
C902 C 0.6944 0.26089 0.04293 0.0
C903 C 0.72045 0.2611 0.06003 0.0
C904 C 0.71455 0.27313 0.09172 0.0
C905 C 0.72057 0.24994 0.11345 0.0
C906 C 0.73339 0.30086 0.09988 0.0
C907 C 0.68113 0.27998 0.08981 0.0
C908 C 0.66989 0.27308 0.06145 0.0
C909 C 0.63977 0.2786 0.05421 0.0
C910 C 0.62069 0.29139 0.0766 0.0
C911 C 0.6318 0.29797 0.10582 0.0
C912 C 0.66233 0.29215 0.11243 0.0
H913 H 0.30343 0.28311 0.66243 0.0
H914 H 0.35377 0.21435 0.61207 0.0
H915 H 0.35424 0.18605 0.65607 0.0
H916 H 0.34035 0.27718 0.73364 0.0
H917 H 0.3057 0.28435 0.7541 0.0
H918 H 0.31146 0.29983 0.71935 0.0
H919 H 0.26122 0.27632 0.69901 0.0
H920 H 0.25528 0.2608 0.73364 0.0
H921 H 0.25582 0.23755 0.69936 0.0
H922 H 0.34668 0.16435 0.70537 0.0
H923 H 0.32977 0.15046 0.75443 0.0
H924 H 0.28462 0.23389 0.77112 0.0
C925 C 0.31487 0.26223 0.66056 0.0
C926 C 0.3286 0.25099 0.63374 0.0
C927 C 0.34308 0.22344 0.63237 0.0
C928 C 0.34357 0.20726 0.65728 0.0
C929 C 0.32959 0.21902 0.6833 0.0
C930 C 0.31551 0.24589 0.68501 0.0
C931 C 0.3007 0.25319 0.71484 0.0
C932 C 0.31544 0.28023 0.73146 0.0
C933 C 0.26622 0.25718 0.7115 0.0
C934 C 0.30805 0.22593 0.72957 0.0
C935 C 0.32504 0.20657 0.71127 0.0
C936 C 0.33359 0.17945 0.71995 0.0
C937 C 0.32402 0.1718 0.74784 0.0
C938 C 0.30587 0.19111 0.76641 0.0
C939 C 0.29833 0.21865 0.75726 0.0
H940 H 0.66674 0.71522 0.3897 0.0
H941 H 0.66275 0.78936 0.45577 0.0
H942 H 0.6611 0.82271 0.41566 0.0
H943 H 0.71355 0.74477 0.33903 0.0
H944 H 0.69422 0.72905 0.30622 0.0
H945 H 0.69256 0.71124 0.33997 0.0
H946 H 0.63382 0.71246 0.33838 0.0
H947 H 0.63525 0.73018 0.30445 0.0
H948 H 0.6146 0.74669 0.33599 0.0
H949 H 0.66815 0.84737 0.36864 0.0
H950 H 0.67874 0.86183 0.31888 0.0
H951 H 0.66989 0.7713 0.28289 0.0
C952 C 0.66508 0.73849 0.3956 0.0
C953 C 0.66509 0.74995 0.42559 0.0
C954 C 0.6627 0.78036 0.43278 0.0
C955 C 0.66174 0.79936 0.4102 0.0
C956 C 0.66224 0.7874 0.38072 0.0
C957 C 0.66316 0.75762 0.3734 0.0
C958 C 0.66409 0.75031 0.34011 0.0
C959 C 0.69282 0.73282 0.33081 0.0
C960 C 0.63521 0.73394 0.32909 0.0
C961 C 0.66509 0.78065 0.32983 0.0
C962 C 0.664 0.80173 0.35355 0.0
C963 C 0.66802 0.83113 0.34978 0.0
C964 C 0.67379 0.83914 0.32112 0.0
C965 C 0.67504 0.8179 0.29628 0.0
C966 C 0.6696 0.78834 0.30097 0.0
H967 H 0.80578 0.28054 0.91701 0.0
H968 H 0.87958 0.22009 0.89705 0.0
H969 H 0.88453 0.23737 0.84702 0.0
H970 H 0.77046 0.26876 0.84993 0.0
H971 H 0.75826 0.30569 0.8468 0.0
H972 H 0.76447 0.29321 0.88285 0.0
H973 H 0.80258 0.33533 0.89586 0.0
H974 H 0.79622 0.34823 0.85987 0.0
H975 H 0.83419 0.34017 0.87152 0.0
H976 H 0.87626 0.25553 0.79727 0.0
H977 H 0.85559 0.27341 0.75147 0.0
H978 H 0.78734 0.32265 0.8037 0.0
C979 C 0.82375 0.27197 0.90244 0.0
C980 C 0.84288 0.24966 0.9108 0.0
C981 C 0.86529 0.23775 0.89098 0.0
C982 C 0.86822 0.2474 0.86261 0.0
C983 C 0.84849 0.26896 0.85454 0.0
C984 C 0.82684 0.28131 0.87395 0.0
C985 C 0.80625 0.30162 0.85868 0.0
C986 C 0.77291 0.29171 0.85962 0.0
C987 C 0.81005 0.33321 0.87229 0.0
C988 C 0.81882 0.29774 0.82742 0.0
C989 C 0.84348 0.27921 0.82558 0.0
C990 C 0.85738 0.27059 0.79853 0.0
C991 C 0.84553 0.28091 0.77262 0.0
C992 C 0.81987 0.29946 0.77395 0.0
C993 C 0.80687 0.30837 0.80188 0.0
H994 H 0.26383 0.22841 0.50032 0.0
H995 H 0.21714 0.30409 0.54263 0.0
H996 H 0.16983 0.28795 0.51687 0.0
H997 H 0.22815 0.22813 0.43039 0.0
H998 H 0.22587 0.18899 0.42405 0.0
H999 H 0.25564 0.20563 0.44706 0.0
H1000 H 0.23919 0.17575 0.49024 0.0
H1001 H 0.20937 0.15894 0.46733 0.0
H1002 H 0.20045 0.17769 0.50298 0.0
H1003 H 0.12859 0.26552 0.48361 0.0
H1004 H 0.09588 0.23689 0.44708 0.0
H1005 H 0.16916 0.17538 0.42791 0.0
C1006 C 0.24363 0.2415 0.50442 0.0
C1007 C 0.24427 0.26754 0.52353 0.0
C1008 C 0.21725 0.28398 0.52822 0.0
C1009 C 0.19024 0.27503 0.51366 0.0
C1010 C 0.19054 0.24945 0.49471 0.0
C1011 C 0.21646 0.23279 0.49028 0.0
C1012 C 0.21092 0.20653 0.46831 0.0
C1013 C 0.23136 0.20739 0.44083 0.0
C1014 C 0.21524 0.17804 0.48311 0.0
C1015 C 0.17796 0.21127 0.46072 0.0
C1016 C 0.16661 0.23616 0.47614 0.0
C1017 C 0.13711 0.24579 0.47168 0.0
C1018 C 0.11878 0.22952 0.45086 0.0
C1019 C 0.12998 0.20387 0.435 0.0
C1020 C 0.15988 0.19461 0.4402 0.0
H1021 H 0.25969 0.74875 0.02386 0.0
H1022 H 0.18383 0.74595 0.96219 0.0
H1023 H 0.21747 0.7271 0.92156 0.0
H1024 H 0.31798 0.76894 0.97275 0.0
H1025 H 0.3465 0.74553 0.98648 0.0
H1026 H 0.31707 0.76049 0.01091 0.0
H1027 H 0.3019 0.70852 0.02302 0.0
H1028 H 0.33146 0.69345 0.99887 0.0
H1029 H 0.29282 0.68132 0.99308 0.0
H1030 H 0.2585 0.7096 0.88756 0.0
H1031 H 0.30383 0.68817 0.86269 0.0
H1032 H 0.35304 0.69813 0.94641 0.0
C1033 C 0.2503 0.74421 0.00176 0.0
C1034 C 0.2192 0.7488 0.99613 0.0
C1035 C 0.20755 0.74234 0.96704 0.0
C1036 C 0.2265 0.73188 0.94375 0.0
C1037 C 0.25701 0.72765 0.94993 0.0
C1038 C 0.26885 0.73312 0.97823 0.0
C1039 C 0.30212 0.72476 0.97892 0.0
C1040 C 0.32209 0.75153 0.98779 0.0
C1041 C 0.30737 0.70057 0.9997 0.0
C1042 C 0.30693 0.71365 0.94663 0.0
C1043 C 0.28066 0.71605 0.93032 0.0
C1044 C 0.27917 0.70731 0.9001 0.0
C1045 C 0.30501 0.69498 0.88623 0.0
C1046 C 0.33189 0.69097 0.90265 0.0
C1047 C 0.33295 0.70102 0.93318 0.0
loop_
_geom_bond_atom_site_label_1
_geom_bond_atom_site_label_2
_geom_bond_distance
_geom_bond_site_symmetry_2
_ccdc_geom_bond_type
Sc0 O3 2.025 . S
Sc0 O10 2.105 . S
Sc0 O13 2.105 . S
Sc0 O16 2.105 . S
Sc0 O19 2.105 1_554 S
Sc1 O3 2.025 . S
Sc1 O11 2.105 1_554 S
Sc1 O15 2.105 . S
Sc1 O17 2.105 . S
Sc1 O21 2.105 . S
Sc2 O3 2.025 . S
Sc2 O12 2.105 . S
Sc2 O14 2.105 . S
Sc2 O18 2.105 . S
Sc2 O20 2.105 . S
O3 Sc0 2.025 . S
O3 Sc1 2.025 . S
O3 Sc2 2.025 . S
C4 O10 1.268 . S
C4 O20 1.268 . S
C5 O11 1.268 . S
C5 O19 1.268 . S
C6 O12 1.268 . S
C6 O21 1.268 . S
C7 O13 1.268 . S
C7 O17 1.268 . S
C8 O14 1.268 . S
C8 O16 1.268 . S
C9 O15 1.268 . S
C9 O18 1.268 . S
O10 Sc0 2.105 . S
O10 C4 1.268 . S
O11 Sc1 2.105 1_556 S
O11 C5 1.268 . S
O12 Sc2 2.105 . S
O12 C6 1.268 . S
O13 Sc0 2.105 . S
O13 C7 1.268 . S
O14 Sc2 2.105 . S
O14 C8 1.268 . S
O15 Sc1 2.105 . S
O15 C9 1.268 . S
O16 Sc0 2.105 . S
O16 C8 1.268 . S
O17 Sc1 2.105 . S
O17 C7 1.268 . S
O18 Sc2 2.105 . S
O18 C9 1.268 . S
O19 Sc0 2.105 1_556 S
O19 C5 1.268 . S
O20 Sc2 2.105 . S
O20 C4 1.268 . S
O21 Sc1 2.105 . S
O21 C6 1.268 . S
Sc22 O25 2.025 . S
Sc22 O32 2.105 . S
Sc22 O35 2.105 . S
Sc22 O38 2.105 . S
Sc22 O41 2.105 . S
Sc23 O25 2.025 . S
Sc23 O33 2.105 . S
Sc23 O37 2.105 . S
Sc23 O39 2.105 . S
Sc23 O43 2.105 . S
Sc24 O25 2.025 . S
Sc24 O34 2.105 . S
Sc24 O36 2.105 . S
Sc24 O40 2.105 . S
Sc24 O42 2.105 . S
O25 Sc22 2.025 . S
O25 Sc23 2.025 . S
O25 Sc24 2.025 . S
C26 O32 1.268 . S
C26 O42 1.268 . S
C27 O33 1.268 . S
C27 O41 1.268 . S
C28 O34 1.268 . S
C28 O43 1.268 . S
C29 O35 1.268 . S
C29 O39 1.268 . S
C30 O36 1.268 . S
C30 O38 1.268 . S
C31 O37 1.268 . S
C31 O40 1.268 . S
O32 Sc22 2.105 . S
O32 C26 1.268 . S
O33 Sc23 2.105 . S
O33 C27 1.268 . S
O34 Sc24 2.105 . S
O34 C28 1.268 . S
O35 Sc22 2.105 . S
O35 C29 1.268 . S
O36 Sc24 2.105 . S
O36 C30 1.268 . S
O37 Sc23 2.105 . S
O37 C31 1.268 . S
O38 Sc22 2.105 . S
O38 C30 1.268 . S
O39 Sc23 2.105 . S
O39 C29 1.268 . S
O40 Sc24 2.105 . S
O40 C31 1.268 . S
O41 Sc22 2.105 . S
O41 C27 1.268 . S
O42 Sc24 2.105 . S
O42 C26 1.268 . S
O43 Sc23 2.105 . S
O43 C28 1.268 . S
Sc44 O47 2.025 . S
Sc44 O54 2.105 1_554 S
Sc44 O57 2.105 . S
Sc44 O60 2.105 . S
Sc44 O63 2.105 1_554 S
Sc45 O47 2.025 1_556 S
Sc45 O55 2.105 . S
Sc45 O59 2.105 1_556 S
Sc45 O61 2.105 1_556 S
Sc45 O65 2.105 . S
Sc46 O47 2.025 . S
Sc46 O56 2.105 1_554 S
Sc46 O58 2.105 . S
Sc46 O62 2.105 . S
Sc46 O64 2.105 1_554 S
O47 Sc44 2.025 . S
O47 Sc45 2.025 1_554 S
O47 Sc46 2.025 . S
C48 O54 1.268 . S
C48 O64 1.268 . S
C49 O55 1.268 . S
C49 O63 1.268 . S
C50 O56 1.268 . S
C50 O65 1.268 . S
C51 O57 1.268 . S
C51 O61 1.268 . S
C52 O58 1.268 . S
C52 O60 1.268 . S
C53 O59 1.268 . S
C53 O62 1.268 . S
O54 Sc44 2.105 1_556 S
O54 C48 1.268 . S
O55 Sc45 2.105 . S
O55 C49 1.268 . S
O56 Sc46 2.105 1_556 S
O56 C50 1.268 . S
O57 Sc44 2.105 . S
O57 C51 1.268 . S
O58 Sc46 2.105 . S
O58 C52 1.268 . S
O59 Sc45 2.105 1_554 S
O59 C53 1.268 . S
O60 Sc44 2.105 . S
O60 C52 1.268 . S
O61 Sc45 2.105 1_554 S
O61 C51 1.268 . S
O62 Sc46 2.105 . S
O62 C53 1.268 . S
O63 Sc44 2.105 1_556 S
O63 C49 1.268 . S
O64 Sc46 2.105 1_556 S
O64 C48 1.268 . S
O65 Sc45 2.105 . S
O65 C50 1.268 . S
Sc66 O69 2.025 . S
Sc66 O76 2.105 . S
Sc66 O79 2.105 . S
Sc66 O82 2.105 . S
Sc66 O85 2.105 . S
Sc67 O69 2.025 . S
Sc67 O77 2.105 . S
Sc67 O81 2.105 . S
Sc67 O83 2.105 . S
Sc67 O87 2.105 . S
Sc68 O69 2.025 . S
Sc68 O78 2.105 . S
Sc68 O80 2.105 . S
Sc68 O84 2.105 . S
Sc68 O86 2.105 . S
O69 Sc66 2.025 . S
O69 Sc67 2.025 . S
O69 Sc68 2.025 . S
C70 O76 1.268 . S
C70 O86 1.268 . S
C71 O77 1.268 . S
C71 O85 1.268 . S
C72 O78 1.268 . S
C72 O87 1.268 . S
C73 O79 1.268 . S
C73 O83 1.268 . S
C74 O80 1.268 . S
C74 O82 1.268 . S
C75 O81 1.268 . S
C75 O84 1.268 . S
O76 Sc66 2.105 . S
O76 C70 1.268 . S
O77 Sc67 2.105 . S
O77 C71 1.268 . S
O78 Sc68 2.105 . S
O78 C72 1.268 . S
O79 Sc66 2.105 . S
O79 C73 1.268 . S
O80 Sc68 2.105 . S
O80 C74 1.268 . S
O81 Sc67 2.105 . S
O81 C75 1.268 . S
O82 Sc66 2.105 . S
O82 C74 1.268 . S
O83 Sc67 2.105 . S
O83 C73 1.268 . S
O84 Sc68 2.105 . S
O84 C75 1.268 . S
O85 Sc66 2.105 . S
O85 C71 1.268 . S
O86 Sc68 2.105 . S
O86 C70 1.268 . S
O87 Sc67 2.105 . S
O87 C72 1.268 . S
C88 C89 1.386 . S
C88 C90 1.397 1_655 S
C88 H112 0.931 . S
C89 C88 1.386 . S
C89 C93 1.397 . S
C90 C88 1.397 1_455 S
C90 C91 1.384 . S
C90 H113 0.930 . S
C91 C90 1.384 . S
C91 C92 1.377 1_455 S
C91 C94 1.481 . S
C92 C91 1.377 1_655 S
C92 C93 1.389 . S
C92 H114 0.929 . S
C93 C89 1.397 . S
C93 C92 1.389 . S
C93 H115 0.931 . S
C94 C91 1.481 . S
C94 C95 1.387 . S
C94 C99 1.390 . S
C95 C94 1.387 . S
C95 C96 1.401 . S
C95 H116 0.930 . S
C96 C95 1.401 . S
C96 C97 1.376 . S
C96 C105 1.511 . S
C97 C96 1.376 . S
C97 C98 1.392 . S
C97 H118 0.931 . S
C98 C97 1.392 . S
C98 C99 1.361 . S
C98 C100 1.500 . S
C99 C94 1.390 . S
C99 C98 1.361 . S
C99 H117 0.931 . S
C100 C98 1.500 . S
C100 C101 1.371 . S
C100 C102 1.365 . S
C101 C100 1.371 . S
C101 C111 1.386 . S
C101 H119 0.931 . S
C102 C100 1.365 . S
C102 C103 1.409 . S
C102 H120 0.929 . S
C103 C102 1.409 . S
C103 C104 1.380 . S
C103 H121 0.930 . S
C104 C103 1.380 . S
C104 C111 1.357 . S
C105 C96 1.511 . S
C105 C106 1.341 . S
C105 C107 1.371 . S
C106 C105 1.341 . S
C106 C110 1.394 . S
C106 H122 0.930 . S
C107 C105 1.371 . S
C107 C108 1.392 . S
C107 H123 0.931 . S
C108 C107 1.392 . S
C108 C109 1.331 . S
C108 H126 0.932 . S
C109 C108 1.331 . S
C109 C110 1.336 . S
C110 C106 1.394 . S
C110 C109 1.336 . S
C110 H125 0.929 . S
C111 C101 1.386 . S
C111 C104 1.357 . S
C111 H124 0.928 . S
H112 C88 0.931 . S
H113 C90 0.930 . S
H114 C92 0.929 . S
H115 C93 0.931 . S
H116 C95 0.930 . S
H117 C99 0.931 . S
H118 C97 0.931 . S
H119 C101 0.931 . S
H120 C102 0.929 . S
H121 C103 0.930 . S
H122 C106 0.930 . S
H123 C107 0.931 . S
H124 C111 0.928 . S
H125 C110 0.929 . S
H126 C108 0.932 . S
C127 C128 1.386 . S
C127 C129 1.397 . S
C127 H151 0.931 . S
C128 C127 1.386 . S
C128 C132 1.397 . S
C129 C127 1.397 . S
C129 C130 1.384 . S
C129 H152 0.930 . S
C130 C129 1.384 . S
C130 C131 1.377 . S
C130 C133 1.481 . S
C131 C130 1.377 . S
C131 C132 1.389 . S
C131 H153 0.929 . S
C132 C128 1.397 . S
C132 C131 1.389 . S
C132 H154 0.931 . S
C133 C130 1.481 . S
C133 C134 1.387 . S
C133 C138 1.390 . S
C134 C133 1.387 . S
C134 C135 1.401 . S
C134 H155 0.930 . S
C135 C134 1.401 . S
C135 C136 1.376 . S
C135 C144 1.511 . S
C136 C135 1.376 . S
C136 C137 1.392 . S
C136 H157 0.931 . S
C137 C136 1.392 . S
C137 C138 1.361 . S
C137 C139 1.500 . S
C138 C133 1.390 . S
C138 C137 1.361 . S
C138 H156 0.931 . S
C139 C137 1.500 . S
C139 C140 1.371 . S
C139 C141 1.365 . S
C140 C139 1.371 . S
C140 C150 1.386 . S
C140 H158 0.931 . S
C141 C139 1.365 . S
C141 C142 1.409 . S
C141 H159 0.929 . S
C142 C141 1.409 . S
C142 C143 1.380 . S
C142 H160 0.930 . S
C143 C142 1.380 . S
C143 C150 1.357 . S
C144 C135 1.511 . S
C144 C145 1.341 . S
C144 C146 1.371 . S
C145 C144 1.341 . S
C145 C149 1.394 . S
C145 H161 0.930 . S
C146 C144 1.371 . S
C146 C147 1.392 . S
C146 H162 0.931 . S
C147 C146 1.392 . S
C147 C148 1.331 . S
C147 H165 0.932 . S
C148 C147 1.331 . S
C148 C149 1.336 . S
C149 C145 1.394 . S
C149 C148 1.336 . S
C149 H164 0.929 . S
C150 C140 1.386 . S
C150 C143 1.357 . S
C150 H163 0.928 . S
H151 C127 0.931 . S
H152 C129 0.930 . S
H153 C131 0.929 . S
H154 C132 0.931 . S
H155 C134 0.930 . S
H156 C138 0.931 . S
H157 C136 0.931 . S
H158 C140 0.931 . S
H159 C141 0.929 . S
H160 C142 0.930 . S
H161 C145 0.930 . S
H162 C146 0.931 . S
H163 C150 0.928 . S
H164 C149 0.929 . S
H165 C147 0.932 . S
C166 C167 1.386 . S
C166 C168 1.397 . S
C166 H190 0.931 . S
C167 C166 1.386 . S
C167 C171 1.397 . S
C168 C166 1.397 . S
C168 C169 1.384 . S
C168 H191 0.930 . S
C169 C168 1.384 . S
C169 C170 1.377 . S
C169 C172 1.481 . S
C170 C169 1.377 . S
C170 C171 1.389 . S
C170 H192 0.929 . S
C171 C167 1.397 . S
C171 C170 1.389 . S
C171 H193 0.931 . S
C172 C169 1.481 . S
C172 C173 1.387 . S
C172 C177 1.390 . S
C173 C172 1.387 . S
C173 C174 1.401 . S
C173 H194 0.930 . S
C174 C173 1.401 . S
C174 C175 1.376 . S
C174 C183 1.511 . S
C175 C174 1.376 . S
C175 C176 1.392 . S
C175 H196 0.931 . S
C176 C175 1.392 . S
C176 C177 1.361 . S
C176 C178 1.500 . S
C177 C172 1.390 . S
C177 C176 1.361 . S
C177 H195 0.931 . S
C178 C176 1.500 . S
C178 C179 1.371 . S
C178 C180 1.365 . S
C179 C178 1.371 . S
C179 C189 1.386 . S
C179 H197 0.931 . S
C180 C178 1.365 . S
C180 C181 1.409 . S
C180 H198 0.929 . S
C181 C180 1.409 . S
C181 C182 1.380 . S
C181 H199 0.930 . S
C182 C181 1.380 . S
C182 C189 1.357 . S
C183 C174 1.511 . S
C183 C184 1.341 . S
C183 C185 1.371 . S
C184 C183 1.341 . S
C184 C188 1.394 . S
C184 H200 0.930 . S
C185 C183 1.371 . S
C185 C186 1.392 . S
C185 H201 0.931 . S
C186 C185 1.392 . S
C186 C187 1.331 . S
C186 H204 0.932 . S
C187 C186 1.331 . S
C187 C188 1.336 . S
C188 C184 1.394 . S
C188 C187 1.336 . S
C188 H203 0.929 . S
C189 C179 1.386 . S
C189 C182 1.357 . S
C189 H202 0.928 . S
H190 C166 0.931 . S
H191 C168 0.930 . S
H192 C170 0.929 . S
H193 C171 0.931 . S
H194 C173 0.930 . S
H195 C177 0.931 . S
H196 C175 0.931 . S
H197 C179 0.931 . S
H198 C180 0.929 . S
H199 C181 0.930 . S
H200 C184 0.930 . S
H201 C185 0.931 . S
H202 C189 0.928 . S
H203 C188 0.929 . S
H204 C186 0.932 . S
C205 C206 1.386 . S
C205 C207 1.397 . S
C205 H229 0.931 . S
C206 C205 1.386 . S
C206 C210 1.397 . S
C207 C205 1.397 . S
C207 C208 1.384 . S
C207 H230 0.930 . S
C208 C207 1.384 . S
C208 C209 1.377 . S
C208 C211 1.481 . S
C209 C208 1.377 . S
C209 C210 1.389 . S
C209 H231 0.929 . S
C210 C206 1.397 . S
C210 C209 1.389 . S
C210 H232 0.931 . S
C211 C208 1.481 . S
C211 C212 1.387 . S
C211 C216 1.390 . S
C212 C211 1.387 . S
C212 C213 1.401 . S
C212 H233 0.930 . S
C213 C212 1.401 . S
C213 C214 1.376 . S
C213 C222 1.511 . S
C214 C213 1.376 . S
C214 C215 1.392 . S
C214 H235 0.931 . S
C215 C214 1.392 . S
C215 C216 1.361 . S
C215 C217 1.500 . S
C216 C211 1.390 . S
C216 C215 1.361 . S
C216 H234 0.931 . S
C217 C215 1.500 . S
C217 C218 1.371 . S
C217 C219 1.365 . S
C218 C217 1.371 . S
C218 C228 1.386 . S
C218 H236 0.931 . S
C219 C217 1.365 . S
C219 C220 1.409 . S
C219 H237 0.929 . S
C220 C219 1.409 . S
C220 C221 1.380 . S
C220 H238 0.930 . S
C221 C220 1.380 . S
C221 C228 1.357 . S
C222 C213 1.511 . S
C222 C223 1.341 . S
C222 C224 1.371 . S
C223 C222 1.341 . S
C223 C227 1.394 . S
C223 H239 0.930 . S
C224 C222 1.371 . S
C224 C225 1.392 . S
C224 H240 0.931 . S
C225 C224 1.392 . S
C225 C226 1.331 . S
C225 H243 0.932 . S
C226 C225 1.331 . S
C226 C227 1.336 . S
C227 C223 1.394 . S
C227 C226 1.336 . S
C227 H242 0.929 . S
C228 C218 1.386 . S
C228 C221 1.357 . S
C228 H241 0.928 . S
H229 C205 0.931 . S
H230 C207 0.930 . S
H231 C209 0.929 . S
H232 C210 0.931 . S
H233 C212 0.930 . S
H234 C216 0.931 . S
H235 C214 0.931 . S
H236 C218 0.931 . S
H237 C219 0.929 . S
H238 C220 0.930 . S
H239 C223 0.930 . S
H240 C224 0.931 . S
H241 C228 0.928 . S
H242 C227 0.929 . S
H243 C225 0.932 . S
C244 C245 1.386 . S
C244 C246 1.397 . S
C244 H268 0.931 . S
C245 C244 1.386 . S
C245 C249 1.397 . S
C246 C244 1.397 . S
C246 C247 1.384 . S
C246 H269 0.930 . S
C247 C246 1.384 . S
C247 C248 1.377 . S
C247 C250 1.481 . S
C248 C247 1.377 . S
C248 C249 1.389 . S
C248 H270 0.929 . S
C249 C245 1.397 . S
C249 C248 1.389 . S
C249 H271 0.931 . S
C250 C247 1.481 . S
C250 C251 1.387 . S
C250 C255 1.390 . S
C251 C250 1.387 . S
C251 C252 1.401 . S
C251 H272 0.930 . S
C252 C251 1.401 . S
C252 C253 1.376 . S
C252 C261 1.511 . S
C253 C252 1.376 . S
C253 C254 1.392 . S
C253 H274 0.931 . S
C254 C253 1.392 . S
C254 C255 1.361 . S
C254 C256 1.500 . S
C255 C250 1.390 . S
C255 C254 1.361 . S
C255 H273 0.931 . S
C256 C254 1.500 . S
C256 C257 1.371 . S
C256 C258 1.365 . S
C257 C256 1.371 . S
C257 C267 1.386 . S
C257 H275 0.931 . S
C258 C256 1.365 . S
C258 C259 1.409 . S
C258 H276 0.929 . S
C259 C258 1.409 . S
C259 C260 1.380 . S
C259 H277 0.930 . S
C260 C259 1.380 . S
C260 C267 1.357 . S
C261 C252 1.511 . S
C261 C262 1.341 . S
C261 C263 1.371 . S
C262 C261 1.341 . S
C262 C266 1.394 . S
C262 H278 0.930 . S
C263 C261 1.371 . S
C263 C264 1.392 . S
C263 H279 0.931 . S
C264 C263 1.392 . S
C264 C265 1.331 . S
C264 H282 0.932 . S
C265 C264 1.331 . S
C265 C266 1.336 . S
C266 C262 1.394 . S
C266 C265 1.336 . S
C266 H281 0.929 . S
C267 C257 1.386 . S
C267 C260 1.357 . S
C267 H280 0.928 . S
H268 C244 0.931 . S
H269 C246 0.930 . S
H270 C248 0.929 . S
H271 C249 0.931 . S
H272 C251 0.930 . S
H273 C255 0.931 . S
H274 C253 0.931 . S
H275 C257 0.931 . S
H276 C258 0.929 . S
H277 C259 0.930 . S
H278 C262 0.930 . S
H279 C263 0.931 . S
H280 C267 0.928 . S
H281 C266 0.929 . S
H282 C264 0.932 . S
C283 C284 1.386 . S
C283 C285 1.397 . S
C283 H307 0.931 . S
C284 C283 1.386 . S
C284 C288 1.397 . S
C285 C283 1.397 . S
C285 C286 1.384 . S
C285 H308 0.930 . S
C286 C285 1.384 . S
C286 C287 1.377 . S
C286 C289 1.481 . S
C287 C286 1.377 . S
C287 C288 1.389 . S
C287 H309 0.929 . S
C288 C284 1.397 . S
C288 C287 1.389 . S
C288 H310 0.931 . S
C289 C286 1.481 . S
C289 C290 1.387 . S
C289 C294 1.390 . S
C290 C289 1.387 . S
C290 C291 1.401 . S
C290 H311 0.930 . S
C291 C290 1.401 . S
C291 C292 1.376 . S
C291 C300 1.511 . S
C292 C291 1.376 . S
C292 C293 1.392 . S
C292 H313 0.931 . S
C293 C292 1.392 . S
C293 C294 1.361 . S
C293 C295 1.500 . S
C294 C289 1.390 . S
C294 C293 1.361 . S
C294 H312 0.931 . S
C295 C293 1.500 . S
C295 C296 1.371 . S
C295 C297 1.365 . S
C296 C295 1.371 . S
C296 C306 1.386 . S
C296 H314 0.931 . S
C297 C295 1.365 . S
C297 C298 1.409 . S
C297 H315 0.929 . S
C298 C297 1.409 . S
C298 C299 1.380 . S
C298 H316 0.930 . S
C299 C298 1.380 . S
C299 C306 1.357 . S
C300 C291 1.511 . S
C300 C301 1.341 . S
C300 C302 1.371 . S
C301 C300 1.341 . S
C301 C305 1.394 . S
C301 H317 0.930 . S
C302 C300 1.371 . S
C302 C303 1.392 . S
C302 H318 0.931 . S
C303 C302 1.392 . S
C303 C304 1.331 . S
C303 H321 0.932 . S
C304 C303 1.331 . S
C304 C305 1.336 . S
C305 C301 1.394 . S
C305 C304 1.336 . S
C305 H320 0.929 . S
C306 C296 1.386 . S
C306 C299 1.357 . S
C306 H319 0.928 . S
H307 C283 0.931 . S
H308 C285 0.930 . S
H309 C287 0.929 . S
H310 C288 0.931 . S
H311 C290 0.930 . S
H312 C294 0.931 . S
H313 C292 0.931 . S
H314 C296 0.931 . S
H315 C297 0.929 . S
H316 C298 0.930 . S
H317 C301 0.930 . S
H318 C302 0.931 . S
H319 C306 0.928 . S
H320 C305 0.929 . S
H321 C303 0.932 . S
C322 C323 1.386 . S
C322 C324 1.397 . S
C322 H346 0.931 . S
C323 C322 1.386 . S
C323 C327 1.397 . S
C324 C322 1.397 . S
C324 C325 1.384 . S
C324 H347 0.930 . S
C325 C324 1.384 . S
C325 C326 1.377 . S
C325 C328 1.481 . S
C326 C325 1.377 . S
C326 C327 1.389 . S
C326 H348 0.929 . S
C327 C323 1.397 . S
C327 C326 1.389 . S
C327 H349 0.931 . S
C328 C325 1.481 . S
C328 C329 1.387 . S
C328 C333 1.390 . S
C329 C328 1.387 . S
C329 C330 1.401 . S
C329 H350 0.930 . S
C330 C329 1.401 . S
C330 C331 1.376 . S
C330 C339 1.511 . S
C331 C330 1.376 . S
C331 C332 1.392 . S
C331 H352 0.931 . S
C332 C331 1.392 . S
C332 C333 1.361 . S
C332 C334 1.500 . S
C333 C328 1.390 . S
C333 C332 1.361 . S
C333 H351 0.931 . S
C334 C332 1.500 . S
C334 C335 1.371 . S
C334 C336 1.365 . S
C335 C334 1.371 . S
C335 C345 1.386 . S
C335 H353 0.931 . S
C336 C334 1.365 . S
C336 C337 1.409 . S
C336 H354 0.929 . S
C337 C336 1.409 . S
C337 C338 1.380 . S
C337 H355 0.930 . S
C338 C337 1.380 . S
C338 C345 1.357 . S
C339 C330 1.511 . S
C339 C340 1.341 . S
C339 C341 1.371 . S
C340 C339 1.341 . S
C340 C344 1.394 . S
C340 H356 0.930 . S
C341 C339 1.371 . S
C341 C342 1.392 . S
C341 H357 0.931 . S
C342 C341 1.392 . S
C342 C343 1.331 . S
C342 H360 0.932 . S
C343 C342 1.331 . S
C343 C344 1.336 . S
C344 C340 1.394 . S
C344 C343 1.336 . S
C344 H359 0.929 . S
C345 C335 1.386 . S
C345 C338 1.357 . S
C345 H358 0.928 . S
H346 C322 0.931 . S
H347 C324 0.930 . S
H348 C326 0.929 . S
H349 C327 0.931 . S
H350 C329 0.930 . S
H351 C333 0.931 . S
H352 C331 0.931 . S
H353 C335 0.931 . S
H354 C336 0.929 . S
H355 C337 0.930 . S
H356 C340 0.930 . S
H357 C341 0.931 . S
H358 C345 0.928 . S
H359 C344 0.929 . S
H360 C342 0.932 . S
C361 C362 1.386 . S
C361 C363 1.397 . S
C361 H385 0.931 . S
C362 C361 1.386 . S
C362 C366 1.397 . S
C363 C361 1.397 . S
C363 C364 1.384 1_455 S
C363 H386 0.930 . S
C364 C363 1.384 1_655 S
C364 C365 1.377 . S
C364 C367 1.481 . S
C365 C364 1.377 . S
C365 C366 1.389 1_655 S
C365 H387 0.929 . S
C366 C362 1.397 . S
C366 C365 1.389 1_455 S
C366 H388 0.931 . S
C367 C364 1.481 . S
C367 C368 1.387 . S
C367 C372 1.390 . S
C368 C367 1.387 . S
C368 C369 1.401 . S
C368 H389 0.930 . S
C369 C368 1.401 . S
C369 C370 1.376 . S
C369 C378 1.511 . S
C370 C369 1.376 . S
C370 C371 1.392 . S
C370 H391 0.931 . S
C371 C370 1.392 . S
C371 C372 1.361 . S
C371 C373 1.500 . S
C372 C367 1.390 . S
C372 C371 1.361 . S
C372 H390 0.931 . S
C373 C371 1.500 . S
C373 C374 1.371 . S
C373 C375 1.365 . S
C374 C373 1.371 . S
C374 C384 1.386 . S
C374 H392 0.931 . S
C375 C373 1.365 . S
C375 C376 1.409 . S
C375 H393 0.929 . S
C376 C375 1.409 . S
C376 C377 1.380 . S
C376 H394 0.930 . S
C377 C376 1.380 . S
C377 C384 1.357 . S
C378 C369 1.511 . S
C378 C379 1.341 . S
C378 C380 1.371 . S
C379 C378 1.341 . S
C379 C383 1.394 . S
C379 H395 0.930 . S
C380 C378 1.371 . S
C380 C381 1.392 . S
C380 H396 0.931 . S
C381 C380 1.392 . S
C381 C382 1.331 . S
C381 H399 0.932 . S
C382 C381 1.331 . S
C382 C383 1.336 . S
C383 C379 1.394 . S
C383 C382 1.336 . S
C383 H398 0.929 . S
C384 C374 1.386 . S
C384 C377 1.357 . S
C384 H397 0.928 . S
H385 C361 0.931 . S
H386 C363 0.930 . S
H387 C365 0.929 . S
H388 C366 0.931 . S
H389 C368 0.930 . S
H390 C372 0.931 . S
H391 C370 0.931 . S
H392 C374 0.931 . S
H393 C375 0.929 . S
H394 C376 0.930 . S
H395 C379 0.930 . S
H396 C380 0.931 . S
H397 C384 0.928 . S
H398 C383 0.929 . S
H399 C381 0.932 . S
H400 C412 0.930 . S
H401 C414 0.930 . S
H402 C415 0.930 . S
H403 C419 0.959 . S
H404 C419 0.959 1_545 S
H405 C419 0.961 . S
H406 C420 0.960 . S
H407 C420 0.961 . S
H408 C420 0.959 . S
H409 C423 0.929 . S
H410 C424 0.931 . S
H411 C426 0.930 1_545 S
C412 H400 0.930 . S
C412 C413 1.399 . S
C412 C417 1.399 . S
C413 C412 1.399 . S
C413 C414 1.376 . S
C414 H401 0.930 . S
C414 C413 1.376 . S
C414 C415 1.388 . S
C415 H402 0.930 . S
C415 C414 1.388 . S
C415 C416 1.390 . S
C416 C415 1.390 . S
C416 C417 1.394 . S
C416 C422 1.465 . S
C417 C412 1.399 . S
C417 C416 1.394 . S
C417 C418 1.516 . S
C418 C417 1.516 . S
C418 C419 1.502 . S
C418 C420 1.561 . S
C418 C421 1.526 . S
C419 H403 0.959 . S
C419 H404 0.959 1_565 S
C419 H405 0.961 . S
C419 C418 1.502 . S
C420 H406 0.960 . S
C420 H407 0.961 . S
C420 H408 0.959 . S
C420 C418 1.561 . S
C421 C418 1.526 . S
C421 C422 1.396 . S
C421 C426 1.390 . S
C422 C416 1.465 . S
C422 C421 1.396 . S
C422 C423 1.399 . S
C423 H409 0.929 . S
C423 C422 1.399 . S
C423 C424 1.385 . S
C424 H410 0.931 . S
C424 C423 1.385 . S
C424 C425 1.389 . S
C425 C424 1.389 . S
C425 C426 1.387 . S
C426 H411 0.930 1_565 S
C426 C421 1.390 . S
C426 C425 1.387 . S
H427 C439 0.930 . S
H428 C441 0.930 . S
H429 C442 0.930 . S
H430 C446 0.959 . S
H431 C446 0.959 . S
H432 C446 0.961 . S
H433 C447 0.960 . S
H434 C447 0.961 . S
H435 C447 0.959 . S
H436 C450 0.929 . S
H437 C451 0.931 . S
H438 C453 0.930 . S
C439 H427 0.930 . S
C439 C440 1.399 . S
C439 C444 1.399 . S
C440 C439 1.399 . S
C440 C441 1.376 . S
C441 H428 0.930 . S
C441 C440 1.376 . S
C441 C442 1.388 . S
C442 H429 0.930 . S
C442 C441 1.388 . S
C442 C443 1.390 . S
C443 C442 1.390 . S
C443 C444 1.394 . S
C443 C449 1.465 . S
C444 C439 1.399 . S
C444 C443 1.394 . S
C444 C445 1.516 . S
C445 C444 1.516 . S
C445 C446 1.502 . S
C445 C447 1.561 . S
C445 C448 1.526 . S
C446 H430 0.959 . S
C446 H431 0.959 . S
C446 H432 0.961 . S
C446 C445 1.502 . S
C447 H433 0.960 . S
C447 H434 0.961 . S
C447 H435 0.959 . S
C447 C445 1.561 . S
C448 C445 1.526 . S
C448 C449 1.396 . S
C448 C453 1.390 . S
C449 C443 1.465 . S
C449 C448 1.396 . S
C449 C450 1.399 . S
C450 H436 0.929 . S
C450 C449 1.399 . S
C450 C451 1.385 . S
C451 H437 0.931 . S
C451 C450 1.385 . S
C451 C452 1.389 . S
C452 C451 1.389 . S
C452 C453 1.387 . S
C453 H438 0.930 . S
C453 C448 1.390 . S
C453 C452 1.387 . S
H454 C466 0.930 . S
H455 C468 0.930 . S
H456 C469 0.930 . S
H457 C473 0.959 . S
H458 C473 0.959 . S
H459 C473 0.961 . S
H460 C474 0.960 . S
H461 C474 0.961 . S
H462 C474 0.959 . S
H463 C477 0.929 . S
H464 C478 0.931 . S
H465 C480 0.930 . S
C466 H454 0.930 . S
C466 C467 1.399 . S
C466 C471 1.399 . S
C467 C466 1.399 . S
C467 C468 1.376 . S
C468 H455 0.930 . S
C468 C467 1.376 . S
C468 C469 1.388 . S
C469 H456 0.930 . S
C469 C468 1.388 . S
C469 C470 1.390 . S
C470 C469 1.390 . S
C470 C471 1.394 . S
C470 C476 1.465 . S
C471 C466 1.399 . S
C471 C470 1.394 . S
C471 C472 1.516 . S
C472 C471 1.516 . S
C472 C473 1.502 . S
C472 C474 1.561 . S
C472 C475 1.526 . S
C473 H457 0.959 . S
C473 H458 0.959 . S
C473 H459 0.961 . S
C473 C472 1.502 . S
C474 H460 0.960 . S
C474 H461 0.961 . S
C474 H462 0.959 . S
C474 C472 1.561 . S
C475 C472 1.526 . S
C475 C476 1.396 . S
C475 C480 1.390 1_545 S
C476 C470 1.465 . S
C476 C475 1.396 . S
C476 C477 1.399 . S
C477 H463 0.929 . S
C477 C476 1.399 . S
C477 C478 1.385 1_545 S
C478 H464 0.931 . S
C478 C477 1.385 1_565 S
C478 C479 1.389 . S
C479 C478 1.389 . S
C479 C480 1.387 . S
C480 H465 0.930 . S
C480 C475 1.390 1_565 S
C480 C479 1.387 . S
H481 C493 0.930 . S
H482 C495 0.930 . S
H483 C496 0.930 . S
H484 C500 0.959 . S
H485 C500 0.959 . S
H486 C500 0.961 . S
H487 C501 0.960 . S
H488 C501 0.961 . S
H489 C501 0.959 . S
H490 C504 0.929 . S
H491 C505 0.931 . S
H492 C507 0.930 . S
C493 H481 0.930 . S
C493 C494 1.399 . S
C493 C498 1.399 . S
C494 C493 1.399 . S
C494 C495 1.376 . S
C495 H482 0.930 . S
C495 C494 1.376 . S
C495 C496 1.388 . S
C496 H483 0.930 . S
C496 C495 1.388 . S
C496 C497 1.390 . S
C497 C496 1.390 . S
C497 C498 1.394 . S
C497 C503 1.465 . S
C498 C493 1.399 . S
C498 C497 1.394 . S
C498 C499 1.516 . S
C499 C498 1.516 . S
C499 C500 1.502 . S
C499 C501 1.561 . S
C499 C502 1.526 . S
C500 H484 0.959 . S
C500 H485 0.959 . S
C500 H486 0.961 . S
C500 C499 1.502 . S
C501 H487 0.960 . S
C501 H488 0.961 . S
C501 H489 0.959 . S
C501 C499 1.561 . S
C502 C499 1.526 . S
C502 C503 1.396 . S
C502 C507 1.390 . S
C503 C497 1.465 . S
C503 C502 1.396 . S
C503 C504 1.399 . S
C504 H490 0.929 . S
C504 C503 1.399 . S
C504 C505 1.385 . S
C505 H491 0.931 . S
C505 C504 1.385 . S
C505 C506 1.389 . S
C506 C505 1.389 . S
C506 C507 1.387 . S
C507 H492 0.930 . S
C507 C502 1.390 . S
C507 C506 1.387 . S
H508 C520 0.930 . S
H509 C522 0.930 . S
H510 C523 0.930 . S
H511 C527 0.959 . S
H512 C527 0.959 . S
H513 C527 0.961 . S
H514 C528 0.960 . S
H515 C528 0.961 . S
H516 C528 0.959 . S
H517 C531 0.929 . S
H518 C532 0.931 . S
H519 C534 0.930 . S
C520 H508 0.930 . S
C520 C521 1.399 . S
C520 C525 1.399 . S
C521 C520 1.399 . S
C521 C522 1.376 . S
C522 H509 0.930 . S
C522 C521 1.376 . S
C522 C523 1.388 . S
C523 H510 0.930 . S
C523 C522 1.388 . S
C523 C524 1.390 . S
C524 C523 1.390 . S
C524 C525 1.394 . S
C524 C530 1.465 . S
C525 C520 1.399 . S
C525 C524 1.394 . S
C525 C526 1.516 . S
C526 C525 1.516 . S
C526 C527 1.502 . S
C526 C528 1.561 . S
C526 C529 1.526 . S
C527 H511 0.959 . S
C527 H512 0.959 . S
C527 H513 0.961 . S
C527 C526 1.502 . S
C528 H514 0.960 . S
C528 H515 0.961 . S
C528 H516 0.959 . S
C528 C526 1.561 . S
C529 C526 1.526 . S
C529 C530 1.396 . S
C529 C534 1.390 . S
C530 C524 1.465 . S
C530 C529 1.396 . S
C530 C531 1.399 . S
C531 H517 0.929 . S
C531 C530 1.399 . S
C531 C532 1.385 . S
C532 H518 0.931 . S
C532 C531 1.385 . S
C532 C533 1.389 . S
C533 C532 1.389 . S
C533 C534 1.387 . S
C534 H519 0.930 . S
C534 C529 1.390 . S
C534 C533 1.387 . S
H535 C547 0.930 . S
H536 C549 0.930 . S
H537 C550 0.930 . S
H538 C554 0.959 . S
H539 C554 0.959 . S
H540 C554 0.961 . S
H541 C555 0.960 . S
H542 C555 0.961 . S
H543 C555 0.959 . S
H544 C558 0.929 . S
H545 C559 0.931 . S
H546 C561 0.930 . S
C547 H535 0.930 . S
C547 C548 1.399 . S
C547 C552 1.399 1_655 S
C548 C547 1.399 . S
C548 C549 1.376 . S
C549 H536 0.930 . S
C549 C548 1.376 . S
C549 C550 1.388 . S
C550 H537 0.930 . S
C550 C549 1.388 . S
C550 C551 1.390 1_655 S
C551 C550 1.390 1_455 S
C551 C552 1.394 . S
C551 C557 1.465 . S
C552 C547 1.399 1_455 S
C552 C551 1.394 . S
C552 C553 1.516 . S
C553 C552 1.516 . S
C553 C554 1.502 1_556 S
C553 C555 1.561 . S
C553 C556 1.526 . S
C554 H538 0.959 . S
C554 H539 0.959 . S
C554 H540 0.961 . S
C554 C553 1.502 1_554 S
C555 H541 0.960 . S
C555 H542 0.961 . S
C555 H543 0.959 . S
C555 C553 1.561 . S
C556 C553 1.526 . S
C556 C557 1.396 . S
C556 C561 1.390 . S
C557 C551 1.465 . S
C557 C556 1.396 . S
C557 C558 1.399 . S
C558 H544 0.929 . S
C558 C557 1.399 . S
C558 C559 1.385 . S
C559 H545 0.931 . S
C559 C558 1.385 . S
C559 C560 1.389 . S
C560 C559 1.389 . S
C560 C561 1.387 . S
C561 H546 0.930 . S
C561 C556 1.390 . S
C561 C560 1.387 . S
H562 C574 0.930 . S
H563 C576 0.930 . S
H564 C577 0.930 . S
H565 C581 0.959 . S
H566 C581 0.959 . S
H567 C581 0.961 . S
H568 C582 0.960 . S
H569 C582 0.961 . S
H570 C582 0.959 . S
H571 C585 0.929 . S
H572 C586 0.931 . S
H573 C588 0.930 . S
C574 H562 0.930 . S
C574 C575 1.399 . S
C574 C579 1.399 . S
C575 C574 1.399 . S
C575 C576 1.376 . S
C576 H563 0.930 . S
C576 C575 1.376 . S
C576 C577 1.388 . S
C577 H564 0.930 . S
C577 C576 1.388 . S
C577 C578 1.390 . S
C578 C577 1.390 . S
C578 C579 1.394 . S
C578 C584 1.465 . S
C579 C574 1.399 . S
C579 C578 1.394 . S
C579 C580 1.516 . S
C580 C579 1.516 . S
C580 C581 1.502 . S
C580 C582 1.561 . S
C580 C583 1.526 . S
C581 H565 0.959 . S
C581 H566 0.959 . S
C581 H567 0.961 . S
C581 C580 1.502 . S
C582 H568 0.960 . S
C582 H569 0.961 . S
C582 H570 0.959 . S
C582 C580 1.561 . S
C583 C580 1.526 . S
C583 C584 1.396 . S
C583 C588 1.390 . S
C584 C578 1.465 . S
C584 C583 1.396 . S
C584 C585 1.399 . S
C585 H571 0.929 . S
C585 C584 1.399 . S
C585 C586 1.385 . S
C586 H572 0.931 . S
C586 C585 1.385 . S
C586 C587 1.389 . S
C587 C586 1.389 . S
C587 C588 1.387 . S
C588 H573 0.930 . S
C588 C583 1.390 . S
C588 C587 1.387 . S
H589 C601 0.930 . S
H590 C603 0.930 . S
H591 C604 0.930 . S
H592 C608 0.959 . S
H593 C608 0.959 . S
H594 C608 0.961 . S
H595 C609 0.960 . S
H596 C609 0.961 . S
H597 C609 0.959 . S
H598 C612 0.929 . S
H599 C613 0.931 . S
H600 C615 0.930 . S
C601 H589 0.930 . S
C601 C602 1.399 . S
C601 C606 1.399 . S
C602 C601 1.399 . S
C602 C603 1.376 . S
C603 H590 0.930 . S
C603 C602 1.376 . S
C603 C604 1.388 . S
C604 H591 0.930 . S
C604 C603 1.388 . S
C604 C605 1.390 . S
C605 C604 1.390 . S
C605 C606 1.394 . S
C605 C611 1.465 . S
C606 C601 1.399 . S
C606 C605 1.394 . S
C606 C607 1.516 . S
C607 C606 1.516 . S
C607 C608 1.502 . S
C607 C609 1.561 . S
C607 C610 1.526 . S
C608 H592 0.959 . S
C608 H593 0.959 . S
C608 H594 0.961 . S
C608 C607 1.502 . S
C609 H595 0.960 . S
C609 H596 0.961 . S
C609 H597 0.959 . S
C609 C607 1.561 . S
C610 C607 1.526 . S
C610 C611 1.396 . S
C610 C615 1.390 . S
C611 C605 1.465 . S
C611 C610 1.396 . S
C611 C612 1.399 . S
C612 H598 0.929 . S
C612 C611 1.399 . S
C612 C613 1.385 . S
C613 H599 0.931 . S
C613 C612 1.385 . S
C613 C614 1.389 . S
C614 C613 1.389 . S
C614 C615 1.387 . S
C615 H600 0.930 . S
C615 C610 1.390 . S
C615 C614 1.387 . S
H616 C628 0.930 . S
H617 C630 0.930 . S
H618 C631 0.930 . S
H619 C635 0.959 . S
H620 C635 0.959 . S
H621 C635 0.961 . S
H622 C636 0.960 . S
H623 C636 0.961 . S
H624 C636 0.959 . S
H625 C639 0.929 . S
H626 C640 0.931 1_565 S
H627 C642 0.930 . S
C628 H616 0.930 . S
C628 C629 1.399 . S
C628 C633 1.399 . S
C629 C628 1.399 . S
C629 C630 1.376 . S
C630 H617 0.930 . S
C630 C629 1.376 . S
C630 C631 1.388 . S
C631 H618 0.930 . S
C631 C630 1.388 . S
C631 C632 1.390 . S
C632 C631 1.390 . S
C632 C633 1.394 . S
C632 C638 1.465 . S
C633 C628 1.399 . S
C633 C632 1.394 . S
C633 C634 1.516 . S
C634 C633 1.516 . S
C634 C635 1.502 . S
C634 C636 1.561 . S
C634 C637 1.526 . S
C635 H619 0.959 . S
C635 H620 0.959 . S
C635 H621 0.961 . S
C635 C634 1.502 . S
C636 H622 0.960 . S
C636 H623 0.961 . S
C636 H624 0.959 . S
C636 C634 1.561 . S
C637 C634 1.526 . S
C637 C638 1.396 . S
C637 C642 1.390 . S
C638 C632 1.465 . S
C638 C637 1.396 . S
C638 C639 1.399 . S
C639 H625 0.929 . S
C639 C638 1.399 . S
C639 C640 1.385 . S
C640 H626 0.931 1_545 S
C640 C639 1.385 . S
C640 C641 1.389 . S
C641 C640 1.389 . S
C641 C642 1.387 . S
C642 H627 0.930 . S
C642 C637 1.390 . S
C642 C641 1.387 . S
H643 C655 0.930 . S
H644 C657 0.930 . S
H645 C658 0.930 . S
H646 C662 0.959 . S
H647 C662 0.959 . S
H648 C662 0.961 . S
H649 C663 0.960 . S
H650 C663 0.961 . S
H651 C663 0.959 . S
H652 C666 0.929 . S
H653 C667 0.931 . S
H654 C669 0.930 . S
C655 H643 0.930 . S
C655 C656 1.399 . S
C655 C660 1.399 . S
C656 C655 1.399 . S
C656 C657 1.376 . S
C657 H644 0.930 . S
C657 C656 1.376 . S
C657 C658 1.388 . S
C658 H645 0.930 . S
C658 C657 1.388 . S
C658 C659 1.390 . S
C659 C658 1.390 . S
C659 C660 1.394 . S
C659 C665 1.465 . S
C660 C655 1.399 . S
C660 C659 1.394 . S
C660 C661 1.516 . S
C661 C660 1.516 . S
C661 C662 1.502 . S
C661 C663 1.561 . S
C661 C664 1.526 . S
C662 H646 0.959 . S
C662 H647 0.959 . S
C662 H648 0.961 . S
C662 C661 1.502 . S
C663 H649 0.960 . S
C663 H650 0.961 . S
C663 H651 0.959 . S
C663 C661 1.561 . S
C664 C661 1.526 . S
C664 C665 1.396 . S
C664 C669 1.390 . S
C665 C659 1.465 . S
C665 C664 1.396 . S
C665 C666 1.399 . S
C666 H652 0.929 . S
C666 C665 1.399 . S
C666 C667 1.385 . S
C667 H653 0.931 . S
C667 C666 1.385 . S
C667 C668 1.389 . S
C668 C667 1.389 . S
C668 C669 1.387 . S
C669 H654 0.930 . S
C669 C664 1.390 . S
C669 C668 1.387 . S
H670 C682 0.930 . S
H671 C684 0.930 . S
H672 C685 0.930 . S
H673 C689 0.959 . S
H674 C689 0.959 . S
H675 C689 0.961 . S
H676 C690 0.960 . S
H677 C690 0.961 . S
H678 C690 0.959 . S
H679 C693 0.929 1_554 S
H680 C694 0.931 . S
H681 C696 0.932 . S
C682 H670 0.930 . S
C682 C683 1.399 1_556 S
C682 C687 1.399 . S
C683 C682 1.399 1_554 S
C683 C684 1.376 . S
C684 H671 0.930 . S
C684 C683 1.376 . S
C684 C685 1.388 . S
C685 H672 0.930 . S
C685 C684 1.388 . S
C685 C686 1.390 1_554 S
C686 C685 1.390 1_556 S
C686 C687 1.394 . S
C686 C692 1.465 . S
C687 C682 1.399 . S
C687 C686 1.394 . S
C687 C688 1.516 . S
C688 C687 1.516 . S
C688 C689 1.502 . S
C688 C690 1.561 . S
C688 C691 1.526 . S
C689 H673 0.959 . S
C689 H674 0.959 . S
C689 H675 0.961 . S
C689 C688 1.502 . S
C690 H676 0.960 . S
C690 H677 0.961 . S
C690 H678 0.959 . S
C690 C688 1.561 . S
C691 C688 1.526 . S
C691 C692 1.396 . S
C691 C696 1.402 . S
C692 C686 1.465 . S
C692 C691 1.396 . S
C692 C693 1.399 1_565 S
C693 H679 0.929 1_556 S
C693 C692 1.399 1_545 S
C693 C694 1.385 . S
C694 H680 0.931 . S
C694 C693 1.385 . S
C694 C695 1.389 . S
C695 C694 1.389 . S
C695 C696 1.372 1_545 S
C696 H681 0.932 . S
C696 C691 1.402 . S
C696 C695 1.372 1_565 S
H697 C709 0.930 . S
H698 C711 0.930 . S
H699 C712 0.930 . S
H700 C716 0.959 . S
H701 C716 0.959 . S
H702 C716 0.961 . S
H703 C717 0.960 . S
H704 C717 0.961 . S
H705 C717 0.959 . S
H706 C720 0.929 . S
H707 C721 0.931 . S
H708 C723 0.930 . S
C709 H697 0.930 . S
C709 C710 1.399 . S
C709 C714 1.399 . S
C710 C709 1.399 . S
C710 C711 1.376 . S
C711 H698 0.930 . S
C711 C710 1.376 . S
C711 C712 1.388 . S
C712 H699 0.930 . S
C712 C711 1.388 . S
C712 C713 1.390 . S
C713 C712 1.390 . S
C713 C714 1.394 . S
C713 C719 1.465 . S
C714 C709 1.399 . S
C714 C713 1.394 . S
C714 C715 1.516 . S
C715 C714 1.516 . S
C715 C716 1.502 . S
C715 C717 1.561 . S
C715 C718 1.526 . S
C716 H700 0.959 . S
C716 H701 0.959 . S
C716 H702 0.961 . S
C716 C715 1.502 . S
C717 H703 0.960 . S
C717 H704 0.961 . S
C717 H705 0.959 . S
C717 C715 1.561 . S
C718 C715 1.526 . S
C718 C719 1.396 . S
C718 C723 1.390 . S
C719 C713 1.465 . S
C719 C718 1.396 . S
C719 C720 1.399 . S
C720 H706 0.929 . S
C720 C719 1.399 . S
C720 C721 1.385 . S
C721 H707 0.931 . S
C721 C720 1.385 . S
C721 C722 1.389 . S
C722 C721 1.389 . S
C722 C723 1.387 . S
C723 H708 0.930 . S
C723 C718 1.390 . S
C723 C722 1.387 . S
H724 C736 0.930 . S
H725 C738 0.930 . S
H726 C739 0.930 . S
H727 C743 0.959 . S
H728 C743 0.959 . S
H729 C743 0.961 . S
H730 C744 0.960 . S
H731 C744 0.961 . S
H732 C744 0.959 . S
H733 C747 0.929 . S
H734 C748 0.931 . S
H735 C750 0.930 . S
C736 H724 0.930 . S
C736 C737 1.399 . S
C736 C741 1.399 . S
C737 C736 1.399 . S
C737 C738 1.376 . S
C738 H725 0.930 . S
C738 C737 1.376 . S
C738 C739 1.388 . S
C739 H726 0.930 . S
C739 C738 1.388 . S
C739 C740 1.390 . S
C740 C739 1.390 . S
C740 C741 1.394 . S
C740 C746 1.465 . S
C741 C736 1.399 . S
C741 C740 1.394 . S
C741 C742 1.516 . S
C742 C741 1.516 . S
C742 C743 1.502 . S
C742 C744 1.561 . S
C742 C745 1.526 . S
C743 H727 0.959 . S
C743 H728 0.959 . S
C743 H729 0.961 . S
C743 C742 1.502 . S
C744 H730 0.960 . S
C744 H731 0.961 . S
C744 H732 0.959 . S
C744 C742 1.561 . S
C745 C742 1.526 . S
C745 C746 1.396 . S
C745 C750 1.390 . S
C746 C740 1.465 . S
C746 C745 1.396 . S
C746 C747 1.399 . S
C747 H733 0.929 . S
C747 C746 1.399 . S
C747 C748 1.385 . S
C748 H734 0.931 . S
C748 C747 1.385 . S
C748 C749 1.389 . S
C749 C748 1.389 . S
C749 C750 1.387 . S
C750 H735 0.930 . S
C750 C745 1.390 . S
C750 C749 1.387 . S
H751 C763 0.930 . S
H752 C765 0.930 . S
H753 C766 0.930 . S
H754 C770 0.959 . S
H755 C770 0.959 . S
H756 C770 0.961 . S
H757 C771 0.960 . S
H758 C771 0.961 . S
H759 C771 0.959 . S
H760 C774 0.929 . S
H761 C775 0.931 . S
H762 C777 0.930 . S
C763 H751 0.930 . S
C763 C764 1.399 . S
C763 C768 1.399 . S
C764 C763 1.399 . S
C764 C765 1.376 . S
C765 H752 0.930 . S
C765 C764 1.376 . S
C765 C766 1.388 . S
C766 H753 0.930 . S
C766 C765 1.388 . S
C766 C767 1.390 1_455 S
C767 C766 1.390 1_655 S
C767 C768 1.394 1_655 S
C767 C773 1.465 . S
C768 C763 1.399 . S
C768 C767 1.394 1_455 S
C768 C769 1.516 1_455 S
C769 C768 1.516 1_655 S
C769 C770 1.502 . S
C769 C771 1.561 . S
C769 C772 1.526 . S
C770 H754 0.959 . S
C770 H755 0.959 . S
C770 H756 0.961 . S
C770 C769 1.502 . S
C771 H757 0.960 . S
C771 H758 0.961 . S
C771 H759 0.959 . S
C771 C769 1.561 . S
C772 C769 1.526 . S
C772 C773 1.396 . S
C772 C777 1.390 . S
C773 C767 1.465 . S
C773 C772 1.396 . S
C773 C774 1.399 . S
C774 H760 0.929 . S
C774 C773 1.399 . S
C774 C775 1.385 . S
C775 H761 0.931 . S
C775 C774 1.385 . S
C775 C776 1.389 . S
C776 C775 1.389 . S
C776 C777 1.387 . S
C777 H762 0.930 . S
C777 C772 1.390 . S
C777 C776 1.387 . S
H778 C790 0.930 . S
H779 C792 0.930 . S
H780 C793 0.930 . S
H781 C797 0.959 . S
H782 C797 0.959 . S
H783 C797 0.961 . S
H784 C798 0.960 . S
H785 C798 0.961 . S
H786 C798 0.959 . S
H787 C801 0.929 . S
H788 C802 0.931 . S
H789 C804 0.930 . S
C790 H778 0.930 . S
C790 C791 1.399 . S
C790 C795 1.399 . S
C791 C790 1.399 . S
C791 C792 1.376 . S
C792 H779 0.930 . S
C792 C791 1.376 . S
C792 C793 1.388 . S
C793 H780 0.930 . S
C793 C792 1.388 . S
C793 C794 1.390 . S
C794 C793 1.390 . S
C794 C795 1.394 . S
C794 C800 1.465 . S
C795 C790 1.399 . S
C795 C794 1.394 . S
C795 C796 1.516 . S
C796 C795 1.516 . S
C796 C797 1.502 . S
C796 C798 1.561 . S
C796 C799 1.526 . S
C797 H781 0.959 . S
C797 H782 0.959 . S
C797 H783 0.961 . S
C797 C796 1.502 . S
C798 H784 0.960 . S
C798 H785 0.961 . S
C798 H786 0.959 . S
C798 C796 1.561 . S
C799 C796 1.526 . S
C799 C800 1.396 . S
C799 C804 1.390 . S
C800 C794 1.465 . S
C800 C799 1.396 . S
C800 C801 1.399 . S
C801 H787 0.929 . S
C801 C800 1.399 . S
C801 C802 1.385 . S
C802 H788 0.931 . S
C802 C801 1.385 . S
C802 C803 1.389 . S
C803 C802 1.389 . S
C803 C804 1.387 . S
C804 H789 0.930 . S
C804 C799 1.390 . S
C804 C803 1.387 . S
H805 C817 0.930 . S
H806 C819 0.930 . S
H807 C820 0.930 . S
H808 C824 0.959 . S
H809 C824 0.959 . S
H810 C824 0.961 . S
H811 C825 0.960 . S
H812 C825 0.961 . S
H813 C825 0.959 . S
H814 C828 0.929 . S
H815 C829 0.931 . S
H816 C831 0.930 . S
C817 H805 0.930 . S
C817 C818 1.399 . S
C817 C822 1.399 . S
C818 C817 1.399 . S
C818 C819 1.376 . S
C819 H806 0.930 . S
C819 C818 1.376 . S
C819 C820 1.388 . S
C820 H807 0.930 . S
C820 C819 1.388 . S
C820 C821 1.390 . S
C821 C820 1.390 . S
C821 C822 1.394 . S
C821 C827 1.465 . S
C822 C817 1.399 . S
C822 C821 1.394 . S
C822 C823 1.516 . S
C823 C822 1.516 . S
C823 C824 1.502 . S
C823 C825 1.561 . S
C823 C826 1.526 . S
C824 H808 0.959 . S
C824 H809 0.959 . S
C824 H810 0.961 . S
C824 C823 1.502 . S
C825 H811 0.960 . S
C825 H812 0.961 . S
C825 H813 0.959 . S
C825 C823 1.561 . S
C826 C823 1.526 . S
C826 C827 1.396 . S
C826 C831 1.390 . S
C827 C821 1.465 . S
C827 C826 1.396 . S
C827 C828 1.399 . S
C828 H814 0.929 . S
C828 C827 1.399 . S
C828 C829 1.385 . S
C829 H815 0.931 . S
C829 C828 1.385 . S
C829 C830 1.389 . S
C830 C829 1.389 . S
C830 C831 1.387 . S
C831 H816 0.930 . S
C831 C826 1.390 . S
C831 C830 1.387 . S
H832 C844 0.930 . S
H833 C846 0.930 . S
H834 C847 0.930 . S
H835 C851 0.959 . S
H836 C851 0.959 . S
H837 C851 0.961 . S
H838 C852 0.960 . S
H839 C852 0.961 . S
H840 C852 0.959 . S
H841 C855 0.929 . S
H842 C856 0.931 . S
H843 C858 0.930 . S
C844 H832 0.930 . S
C844 C845 1.399 . S
C844 C849 1.399 . S
C845 C844 1.399 . S
C845 C846 1.376 . S
C846 H833 0.930 . S
C846 C845 1.376 . S
C846 C847 1.388 . S
C847 H834 0.930 . S
C847 C846 1.388 . S
C847 C848 1.390 . S
C848 C847 1.390 . S
C848 C849 1.394 . S
C848 C854 1.465 . S
C849 C844 1.399 . S
C849 C848 1.394 . S
C849 C850 1.516 . S
C850 C849 1.516 . S
C850 C851 1.502 . S
C850 C852 1.561 . S
C850 C853 1.526 . S
C851 H835 0.959 . S
C851 H836 0.959 . S
C851 H837 0.961 . S
C851 C850 1.502 . S
C852 H838 0.960 . S
C852 H839 0.961 . S
C852 H840 0.959 . S
C852 C850 1.561 . S
C853 C850 1.526 . S
C853 C854 1.396 . S
C853 C858 1.390 . S
C854 C848 1.465 . S
C854 C853 1.396 . S
C854 C855 1.399 . S
C855 H841 0.929 . S
C855 C854 1.399 . S
C855 C856 1.385 . S
C856 H842 0.931 . S
C856 C855 1.385 . S
C856 C857 1.389 . S
C857 C856 1.389 . S
C857 C858 1.387 . S
C858 H843 0.930 . S
C858 C853 1.390 . S
C858 C857 1.387 . S
H859 C871 0.930 . S
H860 C873 0.930 . S
H861 C874 0.930 . S
H862 C878 0.959 . S
H863 C878 0.959 . S
H864 C878 0.961 . S
H865 C879 0.960 . S
H866 C879 0.961 . S
H867 C879 0.959 . S
H868 C882 0.929 . S
H869 C883 0.931 . S
H870 C885 0.930 . S
C871 H859 0.930 . S
C871 C872 1.399 . S
C871 C876 1.399 . S
C872 C871 1.399 . S
C872 C873 1.376 . S
C873 H860 0.930 . S
C873 C872 1.376 . S
C873 C874 1.388 . S
C874 H861 0.930 . S
C874 C873 1.388 . S
C874 C875 1.390 . S
C875 C874 1.390 . S
C875 C876 1.394 . S
C875 C881 1.465 . S
C876 C871 1.399 . S
C876 C875 1.394 . S
C876 C877 1.516 . S
C877 C876 1.516 . S
C877 C878 1.502 . S
C877 C879 1.561 . S
C877 C880 1.526 . S
C878 H862 0.959 . S
C878 H863 0.959 . S
C878 H864 0.961 . S
C878 C877 1.502 . S
C879 H865 0.960 . S
C879 H866 0.961 . S
C879 H867 0.959 . S
C879 C877 1.561 . S
C880 C877 1.526 . S
C880 C881 1.396 . S
C880 C885 1.390 . S
C881 C875 1.465 . S
C881 C880 1.396 . S
C881 C882 1.399 . S
C882 H868 0.929 . S
C882 C881 1.399 . S
C882 C883 1.385 . S
C883 H869 0.931 . S
C883 C882 1.385 . S
C883 C884 1.389 . S
C884 C883 1.389 . S
C884 C885 1.387 . S
C885 H870 0.930 . S
C885 C880 1.390 . S
C885 C884 1.387 . S
H886 C898 0.930 . S
H887 C900 0.930 . S
H888 C901 0.930 . S
H889 C905 0.959 . S
H890 C905 0.959 . S
H891 C905 0.961 . S
H892 C906 0.960 . S
H893 C906 0.961 . S
H894 C906 0.959 . S
H895 C909 0.929 . S
H896 C910 0.931 . S
H897 C912 0.930 . S
C898 H886 0.930 . S
C898 C899 1.399 . S
C898 C903 1.399 . S
C899 C898 1.399 . S
C899 C900 1.376 . S
C900 H887 0.930 . S
C900 C899 1.376 . S
C900 C901 1.388 . S
C901 H888 0.930 . S
C901 C900 1.388 . S
C901 C902 1.390 . S
C902 C901 1.390 . S
C902 C903 1.394 . S
C902 C908 1.465 . S
C903 C898 1.399 . S
C903 C902 1.394 . S
C903 C904 1.516 . S
C904 C903 1.516 . S
C904 C905 1.502 . S
C904 C906 1.561 . S
C904 C907 1.526 . S
C905 H889 0.959 . S
C905 H890 0.959 . S
C905 H891 0.961 . S
C905 C904 1.502 . S
C906 H892 0.960 . S
C906 H893 0.961 . S
C906 H894 0.959 . S
C906 C904 1.561 . S
C907 C904 1.526 . S
C907 C908 1.396 . S
C907 C912 1.390 . S
C908 C902 1.465 . S
C908 C907 1.396 . S
C908 C909 1.399 . S
C909 H895 0.929 . S
C909 C908 1.399 . S
C909 C910 1.385 . S
C910 H896 0.931 . S
C910 C909 1.385 . S
C910 C911 1.389 . S
C911 C910 1.389 . S
C911 C912 1.387 . S
C912 H897 0.930 . S
C912 C907 1.390 . S
C912 C911 1.387 . S
H913 C925 0.930 . S
H914 C927 0.930 . S
H915 C928 0.930 . S
H916 C932 0.959 . S
H917 C932 0.959 . S
H918 C932 0.961 . S
H919 C933 0.960 . S
H920 C933 0.961 . S
H921 C933 0.959 . S
H922 C936 0.929 . S
H923 C937 0.931 . S
H924 C939 0.930 . S
C925 H913 0.930 . S
C925 C926 1.399 . S
C925 C930 1.399 . S
C926 C925 1.399 . S
C926 C927 1.376 . S
C927 H914 0.930 . S
C927 C926 1.376 . S
C927 C928 1.388 . S
C928 H915 0.930 . S
C928 C927 1.388 . S
C928 C929 1.390 . S
C929 C928 1.390 . S
C929 C930 1.394 . S
C929 C935 1.465 . S
C930 C925 1.399 . S
C930 C929 1.394 . S
C930 C931 1.516 . S
C931 C930 1.516 . S
C931 C932 1.502 . S
C931 C933 1.561 . S
C931 C934 1.526 . S
C932 H916 0.959 . S
C932 H917 0.959 . S
C932 H918 0.961 . S
C932 C931 1.502 . S
C933 H919 0.960 . S
C933 H920 0.961 . S
C933 H921 0.959 . S
C933 C931 1.561 . S
C934 C931 1.526 . S
C934 C935 1.396 . S
C934 C939 1.390 . S
C935 C929 1.465 . S
C935 C934 1.396 . S
C935 C936 1.399 . S
C936 H922 0.929 . S
C936 C935 1.399 . S
C936 C937 1.385 . S
C937 H923 0.931 . S
C937 C936 1.385 . S
C937 C938 1.389 . S
C938 C937 1.389 . S
C938 C939 1.387 . S
C939 H924 0.930 . S
C939 C934 1.390 . S
C939 C938 1.387 . S
H940 C952 0.930 . S
H941 C954 0.930 . S
H942 C955 0.930 . S
H943 C959 0.959 . S
H944 C959 0.959 . S
H945 C959 0.961 . S
H946 C960 0.960 . S
H947 C960 0.961 . S
H948 C960 0.959 . S
H949 C963 0.929 . S
H950 C964 0.931 . S
H951 C966 0.930 . S
C952 H940 0.930 . S
C952 C953 1.399 . S
C952 C957 1.399 . S
C953 C952 1.399 . S
C953 C954 1.376 . S
C954 H941 0.930 . S
C954 C953 1.376 . S
C954 C955 1.388 . S
C955 H942 0.930 . S
C955 C954 1.388 . S
C955 C956 1.390 . S
C956 C955 1.390 . S
C956 C957 1.394 . S
C956 C962 1.465 . S
C957 C952 1.399 . S
C957 C956 1.394 . S
C957 C958 1.516 . S
C958 C957 1.516 . S
C958 C959 1.502 . S
C958 C960 1.561 . S
C958 C961 1.526 . S
C959 H943 0.959 . S
C959 H944 0.959 . S
C959 H945 0.961 . S
C959 C958 1.502 . S
C960 H946 0.960 . S
C960 H947 0.961 . S
C960 H948 0.959 . S
C960 C958 1.561 . S
C961 C958 1.526 . S
C961 C962 1.396 . S
C961 C966 1.390 . S
C962 C956 1.465 . S
C962 C961 1.396 . S
C962 C963 1.399 . S
C963 H949 0.929 . S
C963 C962 1.399 . S
C963 C964 1.385 . S
C964 H950 0.931 . S
C964 C963 1.385 . S
C964 C965 1.389 . S
C965 C964 1.389 . S
C965 C966 1.387 . S
C966 H951 0.930 . S
C966 C961 1.390 . S
C966 C965 1.387 . S
H967 C979 0.930 . S
H968 C981 0.930 . S
H969 C982 0.930 . S
H970 C986 0.959 . S
H971 C986 0.959 . S
H972 C986 0.961 . S
H973 C987 0.960 . S
H974 C987 0.961 . S
H975 C987 0.959 . S
H976 C990 0.929 . S
H977 C991 0.931 . S
H978 C993 0.930 . S
C979 H967 0.930 . S
C979 C980 1.399 . S
C979 C984 1.399 . S
C980 C979 1.399 . S
C980 C981 1.376 . S
C981 H968 0.930 . S
C981 C980 1.376 . S
C981 C982 1.388 . S
C982 H969 0.930 . S
C982 C981 1.388 . S
C982 C983 1.390 . S
C983 C982 1.390 . S
C983 C984 1.394 . S
C983 C989 1.465 . S
C984 C979 1.399 . S
C984 C983 1.394 . S
C984 C985 1.516 . S
C985 C984 1.516 . S
C985 C986 1.502 . S
C985 C987 1.561 . S
C985 C988 1.526 . S
C986 H970 0.959 . S
C986 H971 0.959 . S
C986 H972 0.961 . S
C986 C985 1.502 . S
C987 H973 0.960 . S
C987 H974 0.961 . S
C987 H975 0.959 . S
C987 C985 1.561 . S
C988 C985 1.526 . S
C988 C989 1.396 . S
C988 C993 1.390 . S
C989 C983 1.465 . S
C989 C988 1.396 . S
C989 C990 1.399 . S
C990 H976 0.929 . S
C990 C989 1.399 . S
C990 C991 1.385 . S
C991 H977 0.931 . S
C991 C990 1.385 . S
C991 C992 1.389 . S
C992 C991 1.389 . S
C992 C993 1.387 . S
C993 H978 0.930 . S
C993 C988 1.390 . S
C993 C992 1.387 . S
H994 C1006 0.930 . S
H995 C1008 0.930 . S
H996 C1009 0.930 . S
H997 C1013 0.959 . S
H998 C1013 0.959 . S
H999 C1013 0.961 . S
H1000 C1014 0.960 . S
H1001 C1014 0.961 . S
H1002 C1014 0.959 . S
H1003 C1017 0.929 . S
H1004 C1018 0.931 . S
H1005 C1020 0.930 . S
C1006 H994 0.930 . S
C1006 C1007 1.399 . S
C1006 C1011 1.399 . S
C1007 C1006 1.399 . S
C1007 C1008 1.376 . S
C1008 H995 0.930 . S
C1008 C1007 1.376 . S
C1008 C1009 1.388 . S
C1009 H996 0.930 . S
C1009 C1008 1.388 . S
C1009 C1010 1.390 . S
C1010 C1009 1.390 . S
C1010 C1011 1.394 . S
C1010 C1016 1.465 . S
C1011 C1006 1.399 . S
C1011 C1010 1.394 . S
C1011 C1012 1.516 . S
C1012 C1011 1.516 . S
C1012 C1013 1.502 . S
C1012 C1014 1.561 . S
C1012 C1015 1.526 . S
C1013 H997 0.959 . S
C1013 H998 0.959 . S
C1013 H999 0.961 . S
C1013 C1012 1.502 . S
C1014 H1000 0.960 . S
C1014 H1001 0.961 . S
C1014 H1002 0.959 . S
C1014 C1012 1.561 . S
C1015 C1012 1.526 . S
C1015 C1016 1.396 . S
C1015 C1020 1.390 . S
C1016 C1010 1.465 . S
C1016 C1015 1.396 . S
C1016 C1017 1.399 . S
C1017 H1003 0.929 . S
C1017 C1016 1.399 . S
C1017 C1018 1.385 . S
C1018 H1004 0.931 . S
C1018 C1017 1.385 . S
C1018 C1019 1.389 . S
C1019 C1018 1.389 . S
C1019 C1020 1.387 . S
C1020 H1005 0.930 . S
C1020 C1015 1.390 . S
C1020 C1019 1.387 . S
H1021 C1033 0.930 . S
H1022 C1035 0.930 . S
H1023 C1036 0.930 . S
H1024 C1040 0.959 . S
H1025 C1040 0.959 . S
H1026 C1040 0.961 . S
H1027 C1041 0.960 . S
H1028 C1041 0.961 . S
H1029 C1041 0.947 1_556 S
H1030 C1044 0.929 . S
H1031 C1045 0.931 . S
H1032 C1047 0.930 . S
C1033 H1021 0.930 . S
C1033 C1034 1.399 1_554 S
C1033 C1038 1.399 1_554 S
C1034 C1033 1.399 1_556 S
C1034 C1035 1.376 . S
C1035 H1022 0.930 . S
C1035 C1034 1.376 . S
C1035 C1036 1.388 . S
C1036 H1023 0.930 . S
C1036 C1035 1.388 . S
C1036 C1037 1.390 . S
C1037 C1036 1.390 . S
C1037 C1038 1.394 . S
C1037 C1043 1.465 . S
C1038 C1033 1.399 1_556 S
C1038 C1037 1.394 . S
C1038 C1039 1.526 . S
C1039 C1038 1.526 . S
C1039 C1040 1.484 1_556 S
C1039 C1041 1.546 1_556 S
C1039 C1042 1.553 . S
C1040 H1024 0.959 . S
C1040 H1025 0.959 . S
C1040 H1026 0.961 . S
C1040 C1039 1.484 1_554 S
C1041 H1027 0.960 . S
C1041 H1028 0.961 . S
C1041 H1029 0.947 1_554 S
C1041 C1039 1.546 1_554 S
C1042 C1039 1.553 . S
C1042 C1043 1.396 . S
C1042 C1047 1.390 . S
C1043 C1037 1.465 . S
C1043 C1042 1.396 . S
C1043 C1044 1.399 . S
C1044 H1030 0.929 . S
C1044 C1043 1.399 . S
C1044 C1045 1.385 . S
C1045 H1031 0.931 . S
C1045 C1044 1.385 . S
C1045 C1046 1.389 . S
C1046 C1045 1.389 . S
C1046 C1047 1.387 . S
C1047 H1032 0.930 . S
C1047 C1042 1.390 . S
C1047 C1046 1.387 . S
C413 C8 1.607 . S
C425 C104 1.570 1_565 S
C440 C31 1.509 . S
C452 C143 1.376 . S
C467 C53 1.779 . S
C479 C182 1.715 . S
C506 C206 1.398 . S
C494 C74 1.446 . S
C533 C245 1.569 . S
C521 C26 1.603 . S
C548 C48 1.481 . S
C560 C284 1.445 . S
C575 C71 1.763 . S
C587 C338 1.688 . S
C602 C5 1.512 . S
C614 C362 1.381 . S
C629 C50 1.584 . S
C641 C377 1.487 1_545 S
C668 C260 1.415 . S
C656 C70 1.528 . S
C695 C299 1.686 . S
C683 C4 1.770 . S
C710 C28 1.461 . S
C722 C323 1.405 . S
C749 C128 1.520 . S
C737 C73 1.591 . S
C764 C7 1.477 . S
C776 C167 1.416 . S
C803 C221 1.675 . S
C791 C30 1.811 . S
C830 C89 1.430 . S
C818 C52 1.523 . S
C857 C343 1.486 . S
C845 C9 1.561 . S
C884 C382 1.342 . S
C872 C29 1.412 . S
C899 C51 1.354 . S
C911 C265 1.394 . S
C938 C304 1.464 . S
C926 C75 1.568 . S
C965 C187 1.499 . S
C953 C27 1.569 . S
C980 C49 1.544 . S
C992 C226 1.504 . S
C1019 C109 1.378 . S
C1007 C72 1.375 . S
C1046 C148 1.321 . S
C1034 C6 1.404 1_556 S
