# Generated by pormake.
# Topology nom, (4,4)-cn, num edge types: 1
# Building blocks:
#     Node 0, Type 0, BuildingBlock: GIZVER_clean_linker_0, # of connection points: 4
#     Node 1, Type 0, BuildingBlock: GIZVER_clean_linker_0, # of connection points: 4
#     Node 2, Type 0, BuildingBlock: GIZVER_clean_linker_0, # of connection points: 4
#     Node 3, Type 0, BuildingBlock: GIZVER_clean_linker_0, # of connection points: 4
#     Node 4, Type 0, BuildingBlock: GIZVER_clean_linker_0, # of connection points: 4
#     Node 5, Type 0, BuildingBlock: GIZVER_clean_linker_0, # of connection points: 4
#     Node 6, Type 1, BuildingBlock: UXUYUI_clean_sbu_0, # of connection points: 4
#     Node 7, Type 1, BuildingBlock: UXUYUI_clean_sbu_0, # of connection points: 4
#     Node 8, Type 1, BuildingBlock: UXUYUI_clean_sbu_0, # of connection points: 4
#     Node 9, Type 1, BuildingBlock: UXUYUI_clean_sbu_0, # of connection points: 4
#     Node 10, Type 1, BuildingBlock: UXUYUI_clean_sbu_0, # of connection points: 4
#     Node 11, Type 1, BuildingBlock: UXUYUI_clean_sbu_0, # of connection points: 4
#     Edge 12, Type (0, 1), BuildingBlock: KIFKEQ_clean_linker_1, # of connection points: 2
#     Edge 13, Type (0, 1), BuildingBlock: KIFKEQ_clean_linker_1, # of connection points: 2
#     Edge 14, Type (0, 1), BuildingBlock: KIFKEQ_clean_linker_1, # of connection points: 2
#     Edge 15, Type (0, 1), BuildingBlock: KIFKEQ_clean_linker_1, # of connection points: 2
#     Edge 16, Type (0, 1), BuildingBlock: KIFKEQ_clean_linker_1, # of connection points: 2
#     Edge 17, Type (0, 1), BuildingBlock: KIFKEQ_clean_linker_1, # of connection points: 2
#     Edge 18, Type (0, 1), BuildingBlock: KIFKEQ_clean_linker_1, # of connection points: 2
#     Edge 19, Type (0, 1), BuildingBlock: KIFKEQ_clean_linker_1, # of connection points: 2
#     Edge 20, Type (0, 1), BuildingBlock: KIFKEQ_clean_linker_1, # of connection points: 2
#     Edge 21, Type (0, 1), BuildingBlock: KIFKEQ_clean_linker_1, # of connection points: 2
#     Edge 22, Type (0, 1), BuildingBlock: KIFKEQ_clean_linker_1, # of connection points: 2
#     Edge 23, Type (0, 1), BuildingBlock: KIFKEQ_clean_linker_1, # of connection points: 2
#     Edge 24, Type (0, 1), BuildingBlock: KIFKEQ_clean_linker_1, # of connection points: 2
#     Edge 25, Type (0, 1), BuildingBlock: KIFKEQ_clean_linker_1, # of connection points: 2
#     Edge 26, Type (0, 1), BuildingBlock: KIFKEQ_clean_linker_1, # of connection points: 2
#     Edge 27, Type (0, 1), BuildingBlock: KIFKEQ_clean_linker_1, # of connection points: 2
#     Edge 28, Type (0, 1), BuildingBlock: KIFKEQ_clean_linker_1, # of connection points: 2
#     Edge 29, Type (0, 1), BuildingBlock: KIFKEQ_clean_linker_1, # of connection points: 2
#     Edge 30, Type (0, 1), BuildingBlock: KIFKEQ_clean_linker_1, # of connection points: 2
#     Edge 31, Type (0, 1), BuildingBlock: KIFKEQ_clean_linker_1, # of connection points: 2
#     Edge 32, Type (0, 1), BuildingBlock: KIFKEQ_clean_linker_1, # of connection points: 2
#     Edge 33, Type (0, 1), BuildingBlock: KIFKEQ_clean_linker_1, # of connection points: 2
#     Edge 34, Type (0, 1), BuildingBlock: KIFKEQ_clean_linker_1, # of connection points: 2
#     Edge 35, Type (0, 1), BuildingBlock: KIFKEQ_clean_linker_1, # of connection points: 2
# Relax obj value: 0.036
# Max RMSD: 0.148
# Mean RMSD: 0.105
data_MOF--net-nom--node1-UXUYUI_clean_sbu_0--node2-GIZVER_clean_linker_0--edge1-KIFKEQ_clean_linker_1
_symmetry_space_group_name_H-M    P1
_symmetry_Int_Tables_number       1
_symmetry_cell_setting            triclinic
loop_
_symmetry_equiv_pos_as_xyz
'x, y, z'
_cell_length_a     57.516735
_cell_length_b     57.516411
_cell_length_c     57.612287
_cell_angle_alpha  89.961813
_cell_angle_beta   90.040084
_cell_angle_gamma 120.03199
loop_
_atom_site_label
_atom_site_type_symbol
_atom_site_fract_x
_atom_site_fract_y
_atom_site_fract_z
_atom_type_partial_charge
H0 H 0.98378 0.55345 0.35866 0.0
H1 H 1.00789 0.54981 0.28859 0.0
H2 H 0.93079 0.48912 0.31349 0.0
H3 H 0.02258 0.59134 0.34326 0.0
H4 H 0.02557 0.59405 0.31245 0.0
H5 H 0.0412 0.56345 0.36392 0.0
H6 H 0.11821 0.58261 0.33614 0.0
H7 H 0.06485 0.598 0.2956 0.0
C8 C 0.97991 0.54304 0.3422 0.0
C9 C 0.95517 0.51944 0.33852 0.0
C10 C 0.99921 0.55395 0.32435 0.0
C11 C 0.99359 0.54095 0.30267 0.0
C12 C 0.9691 0.51718 0.29888 0.0
C13 C 0.9503 0.50651 0.31695 0.0
C14 C 0.0241 0.58113 0.32741 0.0
C15 C 0.04938 0.57932 0.32901 0.0
C16 C 0.05534 0.57017 0.34962 0.0
C17 C 0.0801 0.57109 0.35227 0.0
C18 C 0.09853 0.58056 0.33387 0.0
C19 C 0.09321 0.59037 0.31353 0.0
C20 C 0.06857 0.58959 0.31105 0.0
H21 H 0.453 0.98199 0.52325 0.0
H22 H 0.47901 0.00773 0.45305 0.0
H23 H 0.46518 0.93095 0.47648 0.0
H24 H 0.45169 0.0202 0.50801 0.0
H25 H 0.45464 0.02589 0.47746 0.0
H26 H 0.49413 0.03902 0.53255 0.0
H27 H 0.55741 0.11521 0.5083 0.0
H28 H 0.49426 0.06326 0.46173 0.0
C29 C 0.45949 0.97873 0.50652 0.0
C30 C 0.45911 0.95449 0.50221 0.0
C31 C 0.46717 0.9983 0.48895 0.0
C32 C 0.47423 0.99328 0.46691 0.0
C33 C 0.47391 0.96912 0.46243 0.0
C34 C 0.46687 0.95021 0.48029 0.0
C35 C 0.46471 0.02296 0.49277 0.0
C36 C 0.49174 0.04784 0.49647 0.0
C37 C 0.50386 0.05321 0.51853 0.0
C38 C 0.52778 0.0774 0.52279 0.0
C39 C 0.53978 0.09592 0.50467 0.0
C40 C 0.52785 0.09119 0.48264 0.0
C41 C 0.5039 0.06691 0.47856 0.0
H42 H 0.45254 0.49104 0.62677 0.0
H43 H 0.47615 0.48934 0.69744 0.0
H44 H 0.46557 0.55429 0.67388 0.0
H45 H 0.44866 0.45052 0.642 0.0
H46 H 0.45036 0.44726 0.67263 0.0
H47 H 0.49364 0.47569 0.61932 0.0
H48 H 0.54943 0.45161 0.64288 0.0
H49 H 0.48592 0.44225 0.6878 0.0
C50 C 0.4589 0.50055 0.64361 0.0
C51 C 0.45924 0.52477 0.64795 0.0
C52 C 0.46544 0.48787 0.66131 0.0
C53 C 0.47229 0.49963 0.6835 0.0
C54 C 0.47277 0.52386 0.68802 0.0
C55 C 0.46676 0.53646 0.67004 0.0
C56 C 0.46144 0.46011 0.65752 0.0
C57 C 0.4877 0.46046 0.65442 0.0
C58 C 0.50133 0.46847 0.63304 0.0
C59 C 0.52391 0.4657 0.62887 0.0
C60 C 0.53295 0.4552 0.64637 0.0
C61 C 0.51935 0.4467 0.66754 0.0
C62 C 0.49699 0.44972 0.67172 0.0
H63 H 0.98582 0.45296 0.79419 0.0
H64 H 1.00964 0.4752 0.86537 0.0
H65 H 0.93346 0.46254 0.8414 0.0
H66 H 0.02303 0.44981 0.80994 0.0
H67 H 0.02914 0.45313 0.84043 0.0
H68 H 0.04155 0.49179 0.78493 0.0
H69 H 0.11788 0.55555 0.80837 0.0
H70 H 0.06648 0.49311 0.85573 0.0
C71 C 0.98209 0.45855 0.81116 0.0
C72 C 0.95771 0.45788 0.81545 0.0
C73 C 1.00119 0.46529 0.82902 0.0
C74 C 0.99555 0.47115 0.85133 0.0
C75 C 0.97125 0.47055 0.85579 0.0
C76 C 0.95281 0.46445 0.83766 0.0
C77 C 0.02593 0.46298 0.8251 0.0
C78 C 0.05068 0.49003 0.82106 0.0
C79 C 0.05583 0.50178 0.79885 0.0
C80 C 0.07995 0.52566 0.79429 0.0
C81 C 0.09864 0.53797 0.81224 0.0
C82 C 0.09416 0.52638 0.83439 0.0
C83 C 0.06993 0.50249 0.83879 0.0
H84 H 0.59733 0.06167 0.02518 0.0
H85 H 0.57478 0.03769 0.95409 0.0
H86 H 0.58629 0.11336 0.9782 0.0
H87 H 0.60082 0.02481 0.00957 0.0
H88 H 0.59862 0.01957 0.97899 0.0
H89 H 0.55841 1.00377 0.03376 0.0
H90 H 0.49739 0.92723 0.00811 0.0
H91 H 0.55937 0.98254 0.9622 0.0
C92 C 0.59143 0.06524 0.00828 0.0
C93 C 0.59163 0.08942 0.00406 0.0
C94 C 0.58485 0.0462 0.99041 0.0
C95 C 0.57864 0.05168 0.96816 0.0
C96 C 0.57876 0.07576 0.96377 0.0
C97 C 0.58471 0.09413 0.98191 0.0
C98 C 0.58798 0.02191 0.99416 0.0
C99 C 0.56127 0.99647 0.99738 0.0
C100 C 0.54911 0.98995 0.01942 0.0
C101 C 0.52577 0.96511 0.02324 0.0
C102 C 0.51444 0.94701 0.00475 0.0
C103 C 0.5264 0.95289 0.9827 0.0
C104 C 0.54969 0.97791 0.97904 0.0
H105 H 0.60305 0.56091 0.12872 0.0
H106 H 0.57014 0.55252 0.19743 0.0
H107 H 0.59082 0.49497 0.17181 0.0
H108 H 0.59833 0.59653 0.14407 0.0
H109 H 0.59771 0.59831 0.17485 0.0
H110 H 0.55603 0.57875 0.12117 0.0
H111 H 0.49327 0.58641 0.15424 0.0
H112 H 0.55802 0.59145 0.19511 0.0
C113 C 0.59512 0.54939 0.14454 0.0
C114 C 0.59695 0.52622 0.14798 0.0
C115 C 0.58475 0.55868 0.16212 0.0
C116 C 0.57664 0.54464 0.18334 0.0
C117 C 0.57843 0.52138 0.18686 0.0
C118 C 0.58798 0.51203 0.16884 0.0
C119 C 0.58648 0.58568 0.15969 0.0
C120 C 0.5592 0.58354 0.15849 0.0
C121 C 0.54654 0.58048 0.13682 0.0
C122 C 0.52303 0.58213 0.13516 0.0
C123 C 0.51131 0.58492 0.1555 0.0
C124 C 0.5238 0.58855 0.17712 0.0
C125 C 0.54776 0.58775 0.17857 0.0
Li126 Li 0.63988 0.40668 0.42853 0.0
Li127 Li 0.63607 0.36778 0.40876 0.0
Li128 Li 0.67758 0.41041 0.40708 0.0
Li129 Li 0.63821 0.40443 0.3867 0.0
C130 C 0.67683 0.39896 0.45374 0.0
N131 N 0.71029 0.42114 0.49162 0.0
C132 C 0.68232 0.38283 0.46827 0.0
C133 C 0.68834 0.42637 0.45848 0.0
C134 C 0.69929 0.39442 0.48733 0.0
C135 C 0.70521 0.4372 0.47771 0.0
C136 C 0.588 0.36487 0.42241 0.0
C137 C 0.54082 0.34527 0.431 0.0
N138 N 0.54409 0.33332 0.45013 0.0
C139 C 0.59087 0.35237 0.44214 0.0
C140 C 0.56278 0.36129 0.41677 0.0
C141 C 0.56844 0.33651 0.45594 0.0
C142 C 0.62382 0.43981 0.45032 0.0
N143 N 0.62826 0.41905 0.45425 0.0
C144 C 0.61229 0.41461 0.49318 0.0
C145 C 0.62311 0.40665 0.47526 0.0
C146 C 0.60708 0.43574 0.48949 0.0
C147 C 0.61339 0.4487 0.46786 0.0
H148 H 0.62785 0.44908 0.43335 0.0
H149 H 0.62688 0.39023 0.47796 0.0
C150 C 0.63976 0.32201 0.41761 0.0
N151 N 0.62227 0.32985 0.41033 0.0
C152 C 0.63113 0.29482 0.42083 0.0
C153 C 0.58671 0.28412 0.4085 0.0
C154 C 0.5963 0.31155 0.40526 0.0
C155 C 0.6041 0.27539 0.41677 0.0
H156 H 0.66038 0.33699 0.42127 0.0
H157 H 0.58281 0.31825 0.39926 0.0
C158 C 0.67833 0.45713 0.39264 0.0
N159 N 0.70896 0.50117 0.36473 0.0
C160 C 0.69158 0.45472 0.37325 0.0
C161 C 0.6807 0.48195 0.39784 0.0
C162 C 0.70695 0.47721 0.35935 0.0
C163 C 0.69627 0.50398 0.38352 0.0
C164 C 0.64804 0.36862 0.36226 0.0
C165 C 0.66487 0.36453 0.34744 0.0
C166 C 0.62042 0.35546 0.35792 0.0
C167 C 0.65378 0.34727 0.32848 0.0
C168 C 0.6101 0.33835 0.33879 0.0
N169 N 0.62685 0.33464 0.32459 0.0
C170 C 0.72574 0.41055 0.3987 0.0
C171 C 0.7324 0.45219 0.41271 0.0
C172 C 0.75345 0.4211 0.39673 0.0
N173 N 0.71581 0.42621 0.40633 0.0
C174 C 0.76024 0.46364 0.4108 0.0
C175 C 0.77109 0.4481 0.40252 0.0
H176 H 0.71206 0.38994 0.3938 0.0
H177 H 0.72404 0.46418 0.41895 0.0
C178 C 0.60426 0.41906 0.36429 0.0
N179 N 0.62537 0.4151 0.36061 0.0
C180 C 0.59532 0.42932 0.34662 0.0
C181 C 0.62996 0.43112 0.32167 0.0
C182 C 0.638 0.42048 0.33972 0.0
C183 C 0.60855 0.43595 0.32512 0.0
H184 H 0.59483 0.4149 0.38119 0.0
H185 H 0.65475 0.41717 0.33724 0.0
O186 O 0.66031 0.38778 0.43499 0.0
O187 O 0.60965 0.38069 0.40865 0.0
O188 O 0.66301 0.43541 0.40652 0.0
O189 O 0.65875 0.38545 0.38089 0.0
H190 H 0.67354 0.36156 0.46482 0.0
H191 H 0.68432 0.43919 0.44749 0.0
H192 H 0.70372 0.38217 0.49872 0.0
H193 H 0.71426 0.45838 0.48158 0.0
H194 H 0.52119 0.34233 0.42685 0.0
H195 H 0.61018 0.35482 0.44679 0.0
H196 H 0.5602 0.3708 0.40154 0.0
H197 H 0.5704 0.32674 0.47126 0.0
H198 H 0.60791 0.4043 0.50972 0.0
H199 H 0.60946 0.46491 0.46432 0.0
H200 H 0.6455 0.28914 0.42668 0.0
H201 H 0.56568 0.27005 0.4053 0.0
H202 H 0.69008 0.43574 0.36893 0.0
H203 H 0.67062 0.48418 0.41281 0.0
H204 H 0.71729 0.47562 0.3443 0.0
H205 H 0.69827 0.52331 0.38734 0.0
H206 H 0.6863 0.3746 0.35057 0.0
H207 H 0.60704 0.35838 0.36912 0.0
H208 H 0.66657 0.34391 0.31687 0.0
H209 H 0.58877 0.32803 0.33523 0.0
H210 H 0.76094 0.4085 0.39004 0.0
H211 H 0.77313 0.48445 0.41566 0.0
H212 H 0.57889 0.43297 0.35001 0.0
H213 H 0.64051 0.43574 0.30525 0.0
Li214 Li 0.2563 0.63896 0.594 0.0
Li215 Li 0.29109 0.63396 0.57514 0.0
Li216 Li 0.29026 0.67546 0.57153 0.0
Li217 Li 0.25653 0.63525 0.55233 0.0
C218 C 0.30097 0.67686 0.6184 0.0
N219 N 0.31215 0.71201 0.65492 0.0
C220 C 0.32207 0.68244 0.63359 0.0
C221 C 0.28552 0.68914 0.62178 0.0
C222 C 0.32741 0.70027 0.65196 0.0
C223 C 0.2915 0.70686 0.64034 0.0
C224 C 0.24568 0.58668 0.58997 0.0
C225 C 0.21745 0.54004 0.60013 0.0
N226 N 0.23275 0.54389 0.61932 0.0
C227 C 0.26113 0.59018 0.60979 0.0
C228 C 0.22367 0.56143 0.58508 0.0
C229 C 0.25427 0.5683 0.62441 0.0
C230 C 0.20684 0.62278 0.61531 0.0
N231 N 0.23232 0.62827 0.6197 0.0
C232 C 0.22081 0.61346 0.65893 0.0
C233 C 0.23972 0.62424 0.64107 0.0
C234 C 0.19416 0.60702 0.65476 0.0
C235 C 0.18736 0.61225 0.63274 0.0
H236 H 0.20149 0.6259 0.59805 0.0
H237 H 0.2601 0.62872 0.6441 0.0
C238 C 0.34047 0.6376 0.58446 0.0
N239 N 0.31501 0.62003 0.57752 0.0
C240 C 0.35902 0.62896 0.5877 0.0
C241 C 0.32494 0.58432 0.57618 0.0
C242 C 0.30711 0.5939 0.57295 0.0
C243 C 0.35126 0.60185 0.58396 0.0
H244 H 0.34627 0.65834 0.58771 0.0
H245 H 0.28681 0.58034 0.56723 0.0
C246 C 0.24454 0.67596 0.55612 0.0
N247 N 0.23163 0.7056 0.52648 0.0
C248 C 0.25975 0.68742 0.53608 0.0
C249 C 0.22279 0.67957 0.56107 0.0
C250 C 0.2529 0.70233 0.52132 0.0
C251 C 0.21658 0.69463 0.54587 0.0
C252 C 0.30217 0.64376 0.52839 0.0
C253 C 0.32334 0.65993 0.51348 0.0
C254 C 0.28754 0.61601 0.5248 0.0
C255 C 0.32954 0.64805 0.49518 0.0
C256 C 0.29437 0.60489 0.50631 0.0
N257 N 0.31505 0.621 0.492 0.0
C258 C 0.33917 0.72197 0.56305 0.0
C259 C 0.30482 0.73128 0.57345 0.0
C260 C 0.35738 0.7493 0.56007 0.0
N261 N 0.31339 0.7135 0.56932 0.0
C262 C 0.32232 0.75884 0.57045 0.0
C263 C 0.34897 0.76821 0.56338 0.0
H264 H 0.3455 0.70738 0.56016 0.0
H265 H 0.28428 0.72409 0.57868 0.0
C266 C 0.20739 0.60101 0.53123 0.0
N267 N 0.23278 0.62096 0.52652 0.0
C268 C 0.18814 0.59042 0.51362 0.0
C269 C 0.22161 0.62107 0.48659 0.0
C270 C 0.24024 0.63101 0.50472 0.0
C271 C 0.19506 0.6006 0.49094 0.0
H272 H 0.20201 0.59357 0.54879 0.0
H273 H 0.26049 0.6471 0.50148 0.0
O274 O 0.29568 0.65948 0.60032 0.0
O275 O 0.25178 0.60781 0.57544 0.0
O276 O 0.25066 0.66111 0.57086 0.0
O277 O 0.29604 0.65524 0.5464 0.0
H278 H 0.33421 0.67307 0.6312 0.0
H279 H 0.26908 0.68507 0.61026 0.0
H280 H 0.34369 0.70478 0.66386 0.0
H281 H 0.27973 0.71651 0.64316 0.0
H282 H 0.20045 0.52038 0.59656 0.0
H283 H 0.27825 0.60955 0.6139 0.0
H284 H 0.2115 0.55839 0.5698 0.0
H285 H 0.26605 0.57073 0.63982 0.0
H286 H 0.22691 0.60997 0.67576 0.0
H287 H 0.16699 0.60736 0.62879 0.0
H288 H 0.37919 0.64339 0.59322 0.0
H289 H 0.31788 0.56322 0.57328 0.0
H290 H 0.2767 0.68495 0.53195 0.0
H291 H 0.21082 0.67083 0.57652 0.0
H292 H 0.2645 0.71131 0.50577 0.0
H293 H 0.19979 0.69759 0.54949 0.0
H294 H 0.33485 0.68146 0.51604 0.0
H295 H 0.27106 0.60314 0.53609 0.0
H296 H 0.34587 0.66032 0.4835 0.0
H297 H 0.28322 0.58345 0.50334 0.0
H298 H 0.37783 0.75549 0.55512 0.0
H299 H 0.31477 0.77253 0.57302 0.0
H300 H 0.16805 0.57447 0.51776 0.0
H301 H 0.22778 0.62986 0.46949 0.0
Li302 Li 0.6806 0.28913 0.74389 0.0
Li303 Li 0.64216 0.25419 0.76435 0.0
Li304 Li 0.64351 0.25424 0.72252 0.0
Li305 Li 0.63797 0.28789 0.74262 0.0
C306 C 0.68388 0.24422 0.75769 0.0
N307 N 0.7161 0.23235 0.785 0.0
C308 C 0.69637 0.25957 0.77744 0.0
C309 C 0.68777 0.22284 0.75185 0.0
C310 C 0.71258 0.25325 0.79101 0.0
C311 C 0.70414 0.21716 0.76587 0.0
C312 C 0.65035 0.29952 0.78915 0.0
C313 C 0.61303 0.28938 0.81441 0.0
N314 N 0.62909 0.31169 0.82712 0.0
C315 C 0.66649 0.32231 0.80246 0.0
C316 C 0.6234 0.28287 0.79516 0.0
C317 C 0.65537 0.32813 0.8216 0.0
C318 C 0.72648 0.33876 0.75197 0.0
N319 N 0.71856 0.31332 0.74499 0.0
C320 C 0.76428 0.32354 0.74285 0.0
C321 C 0.73681 0.3056 0.73992 0.0
C322 C 0.77309 0.34978 0.75081 0.0
C323 C 0.75371 0.35742 0.75488 0.0
H324 H 0.71153 0.34443 0.75562 0.0
H325 H 0.73005 0.28531 0.73417 0.0
C326 C 0.61014 0.20464 0.78564 0.0
N327 N 0.63024 0.23007 0.79002 0.0
C328 C 0.60143 0.18502 0.80292 0.0
C329 C 0.63428 0.21817 0.82893 0.0
C330 C 0.64218 0.23723 0.81121 0.0
C331 C 0.6138 0.1916 0.82481 0.0
H332 H 0.60127 0.19948 0.76851 0.0
H333 H 0.65816 0.25759 0.81422 0.0
C334 C 0.67893 0.29915 0.69726 0.0
N335 N 0.71207 0.31062 0.65913 0.0
C336 C 0.68253 0.3194 0.68177 0.0
C337 C 0.69213 0.28467 0.6933 0.0
C338 C 0.69938 0.32491 0.66261 0.0
C339 C 0.70882 0.2908 0.67395 0.0
C340 C 0.59088 0.24173 0.72944 0.0
C341 C 0.59275 0.25678 0.70974 0.0
C342 C 0.56613 0.21967 0.73554 0.0
C343 C 0.56979 0.24945 0.69643 0.0
C344 C 0.54363 0.21298 0.72178 0.0
N345 N 0.54591 0.22788 0.70267 0.0
C346 C 0.62762 0.20503 0.70096 0.0
C347 C 0.62687 0.23731 0.67582 0.0
C348 C 0.61686 0.18549 0.68359 0.0
N349 N 0.63216 0.23024 0.69685 0.0
C350 C 0.61583 0.21834 0.65804 0.0
C351 C 0.6104 0.19195 0.66192 0.0
H352 H 0.63173 0.19993 0.71796 0.0
H353 H 0.63058 0.25747 0.67303 0.0
C354 C 0.63478 0.3333 0.72948 0.0
N355 N 0.62157 0.30975 0.74131 0.0
C356 C 0.62301 0.34923 0.72634 0.0
C357 C 0.5846 0.31686 0.74833 0.0
C358 C 0.59701 0.30142 0.75085 0.0
C359 C 0.5974 0.34099 0.73562 0.0
H360 H 0.65423 0.33938 0.722 0.0
H361 H 0.58678 0.28249 0.76001 0.0
O362 O 0.66772 0.2498 0.74415 0.0
O363 O 0.66107 0.29369 0.77036 0.0
O364 O 0.66244 0.29363 0.71607 0.0
O365 O 0.61304 0.2484 0.74279 0.0
H366 H 0.69367 0.27622 0.78225 0.0
H367 H 0.67824 0.21076 0.73662 0.0
H368 H 0.72237 0.26496 0.80633 0.0
H369 H 0.70733 0.20066 0.76155 0.0
H370 H 0.5922 0.27669 0.81924 0.0
H371 H 0.68741 0.33538 0.79804 0.0
H372 H 0.61057 0.26513 0.7851 0.0
H373 H 0.66764 0.34573 0.83205 0.0
H374 H 0.77833 0.31657 0.73966 0.0
H375 H 0.75944 0.37754 0.76051 0.0
H376 H 0.58576 0.16472 0.79898 0.0
H377 H 0.64414 0.22411 0.84566 0.0
H378 H 0.67238 0.33073 0.68452 0.0
H379 H 0.68954 0.26883 0.70494 0.0
H380 H 0.70235 0.34055 0.65049 0.0
H381 H 0.71917 0.27977 0.6707 0.0
H382 H 0.61168 0.27395 0.70473 0.0
H383 H 0.56433 0.20785 0.75077 0.0
H384 H 0.57097 0.26091 0.68114 0.0
H385 H 0.52435 0.19594 0.72629 0.0
H386 H 0.61275 0.16533 0.68734 0.0
H387 H 0.61141 0.22419 0.64148 0.0
H388 H 0.63354 0.36736 0.71607 0.0
H389 H 0.56505 0.30978 0.75608 0.0
Li390 Li 0.40827 0.63783 0.9291 0.0
Li391 Li 0.41447 0.67714 0.90852 0.0
Li392 Li 0.37188 0.63554 0.90635 0.0
Li393 Li 0.41116 0.6395 0.88729 0.0
C394 C 0.37167 0.64749 0.95266 0.0
N395 N 0.33672 0.6263 0.98972 0.0
C396 C 0.36713 0.66431 0.96711 0.0
C397 C 0.35845 0.61988 0.95706 0.0
C398 C 0.34938 0.65322 0.98576 0.0
C399 C 0.34085 0.60956 0.97587 0.0
C400 C 0.46097 0.67802 0.92369 0.0
C401 C 0.50784 0.69669 0.93311 0.0
N402 N 0.5045 0.70882 0.95206 0.0
C403 C 0.458 0.69068 0.94326 0.0
C404 C 0.48607 0.68104 0.91856 0.0
C405 C 0.48025 0.70616 0.95738 0.0
C406 C 0.42495 0.60566 0.95209 0.0
N407 N 0.41861 0.62521 0.95555 0.0
C408 C 0.43064 0.62838 0.99557 0.0
C409 C 0.42117 0.63656 0.97676 0.0
C410 C 0.4376 0.60835 0.99255 0.0
C411 C 0.43452 0.59686 0.97044 0.0
H412 H 0.42295 0.5972 0.93494 0.0
H413 H 0.41643 0.65239 0.97899 0.0
C414 C 0.41485 0.72535 0.91755 0.0
N415 N 0.43035 0.71539 0.90955 0.0
C416 C 0.42561 0.75304 0.91999 0.0
C417 C 0.46798 0.75977 0.90554 0.0
C418 C 0.45635 0.73196 0.90322 0.0
C419 C 0.45264 0.77065 0.91426 0.0
H420 H 0.39423 0.71169 0.92243 0.0
H421 H 0.46824 0.72358 0.89675 0.0
C422 C 0.36961 0.58747 0.89331 0.0
N423 N 0.33909 0.54324 0.8656 0.0
C424 C 0.35723 0.58997 0.87333 0.0
C425 C 0.36649 0.56249 0.89919 0.0
C426 C 0.34188 0.56737 0.85955 0.0
C427 C 0.35097 0.54036 0.88496 0.0
C428 C 0.4039 0.67655 0.86169 0.0
C429 C 0.38811 0.68228 0.84696 0.0
C430 C 0.43137 0.68793 0.85729 0.0
C431 C 0.4001 0.69937 0.82803 0.0
C432 C 0.4426 0.70492 0.83819 0.0
N433 N 0.42687 0.71025 0.82408 0.0
C434 C 0.32598 0.63893 0.89701 0.0
C435 C 0.3157 0.59556 0.90948 0.0
C436 C 0.29876 0.63021 0.89385 0.0
N437 N 0.33393 0.62155 0.90436 0.0
C438 C 0.28824 0.58589 0.90632 0.0
C439 C 0.2794 0.6032 0.89807 0.0
H440 H 0.34091 0.65957 0.89333 0.0
H441 H 0.32247 0.58215 0.91555 0.0
C442 C 0.44388 0.62235 0.86642 0.0
N443 N 0.42378 0.62764 0.86194 0.0
C444 C 0.45263 0.61141 0.8492 0.0
C445 C 0.41989 0.61172 0.82305 0.0
C446 C 0.41197 0.62291 0.84069 0.0
C447 C 0.44028 0.60556 0.82729 0.0
H448 H 0.45268 0.62605 0.88357 0.0
H449 H 0.39599 0.62726 0.83759 0.0
O450 O 0.38894 0.65819 0.93431 0.0
O451 O 0.43951 0.66262 0.90959 0.0
O452 O 0.38499 0.60931 0.90703 0.0
O453 O 0.39233 0.65992 0.88031 0.0
H454 H 0.37722 0.68573 0.96394 0.0
H455 H 0.36172 0.60652 0.94615 0.0
H456 H 0.34568 0.666 0.9971 0.0
H457 H 0.33049 0.58824 0.97947 0.0
H458 H 0.52738 0.6992 0.92935 0.0
H459 H 0.43878 0.68867 0.94752 0.0
H460 H 0.4887 0.67138 0.90347 0.0
H461 H 0.47823 0.71606 0.97256 0.0
H462 H 0.43318 0.63821 0.01216 0.0
H463 H 0.43945 0.58125 0.96735 0.0
H464 H 0.41313 0.76051 0.92702 0.0
H465 H 0.4888 0.77263 0.9007 0.0
H466 H 0.35941 0.60912 0.86847 0.0
H467 H 0.37598 0.56025 0.91459 0.0
H468 H 0.3322 0.56902 0.84403 0.0
H469 H 0.34838 0.5209 0.8893 0.0
H470 H 0.36681 0.67361 0.85014 0.0
H471 H 0.44393 0.68372 0.86844 0.0
H472 H 0.38812 0.70399 0.81648 0.0
H473 H 0.46383 0.71388 0.83459 0.0
H474 H 0.293 0.64451 0.888 0.0
H475 H 0.27422 0.56487 0.90962 0.0
H476 H 0.46825 0.60675 0.85321 0.0
H477 H 0.41006 0.60778 0.8063 0.0
Li478 Li 0.76005 0.40932 0.07829 0.0
Li479 Li 0.794 0.4039 0.09791 0.0
Li480 Li 0.79383 0.40586 0.05606 0.0
Li481 Li 0.75912 0.36683 0.07625 0.0
C482 C 0.80568 0.45638 0.09173 0.0
N483 N 0.81855 0.50063 0.11912 0.0
C484 C 0.79106 0.45362 0.11193 0.0
C485 C 0.8268 0.48164 0.08544 0.0
C486 C 0.79789 0.47623 0.12555 0.0
C487 C 0.83301 0.50377 0.09952 0.0
C488 C 0.74933 0.36753 0.12299 0.0
C489 C 0.75814 0.3373 0.14539 0.0
N490 N 0.73846 0.33365 0.16053 0.0
C491 C 0.72923 0.36351 0.13881 0.0
C492 C 0.76396 0.35436 0.12633 0.0
C493 C 0.72403 0.3463 0.15766 0.0
C494 C 0.71525 0.41267 0.09313 0.0
N495 N 0.73794 0.42546 0.08014 0.0
C496 C 0.72918 0.46117 0.07196 0.0
C497 C 0.74515 0.4493 0.06963 0.0
C498 C 0.70579 0.44872 0.08568 0.0
C499 C 0.69896 0.42404 0.0963 0.0
H500 H 0.71005 0.39381 0.1014 0.0
H501 H 0.7635 0.45933 0.05965 0.0
C502 C 0.84382 0.42113 0.11876 0.0
N503 N 0.81818 0.41485 0.1235 0.0
C504 C 0.86322 0.43071 0.13628 0.0
C505 C 0.82938 0.42702 0.16328 0.0
C506 C 0.81066 0.41756 0.14523 0.0
C507 C 0.85613 0.43388 0.15891 0.0
H508 H 0.84925 0.41897 0.10124 0.0
H509 H 0.79024 0.41281 0.14849 0.0
C510 C 0.748 0.39736 0.03165 0.0
N511 N 0.73493 0.4185 0.99409 0.0
C512 C 0.72478 0.38124 0.0188 0.0
C513 C 0.76462 0.42423 0.02537 0.0
C514 C 0.7185 0.3923 -0.00012 0.0
C515 C 0.75766 0.43455 0.00633 0.0
C516 C 0.80463 0.36457 0.06209 0.0
C517 C 0.78925 0.35186 0.04241 0.0
C518 C 0.82659 0.36151 0.06765 0.0
C519 C 0.79611 0.33625 0.02862 0.0
C520 C 0.83281 0.34572 0.05341 0.0
N521 N 0.81757 0.33353 0.03435 0.0
C522 C 0.84318 0.4385 0.03454 0.0
C523 C 0.81062 0.40614 0.00915 0.0
C524 C 0.8627 0.44733 0.01716 0.0
N525 N 0.81782 0.41817 0.0303 0.0
C526 C 0.82957 0.41414 0.99134 0.0
C527 C 0.85607 0.43484 0.99532 0.0
H528 H 0.84838 0.44746 0.05163 0.0
H529 H 0.79031 0.38999 0.00625 0.0
C530 C 0.70966 0.3207 0.06799 0.0
N531 N 0.73522 0.3288 0.07475 0.0
C532 C 0.69118 0.29345 0.06493 0.0
C533 C 0.72548 0.2832 0.07638 0.0
C534 C 0.74324 0.31069 0.07944 0.0
C535 C 0.6991 0.27422 0.06866 0.0
H536 H 0.70374 0.33553 0.06465 0.0
H537 H 0.76361 0.31757 0.08502 0.0
O538 O 0.79946 0.43459 0.07804 0.0
O539 O 0.75455 0.38437 0.10447 0.0
O540 O 0.75432 0.38669 0.05019 0.0
O541 O 0.79853 0.38019 0.07582 0.0
H542 H 0.7746 0.43429 0.11709 0.0
H543 H 0.83828 0.48411 0.06982 0.0
H544 H 0.78675 0.47438 0.14123 0.0
H545 H 0.84933 0.52345 0.09486 0.0
H546 H 0.7693 0.32699 0.14816 0.0
H547 H 0.7178 0.37363 0.13657 0.0
H548 H 0.77971 0.35728 0.11446 0.0
H549 H 0.70852 0.34301 0.17002 0.0
H550 H 0.73523 0.47995 0.06311 0.0
H551 H 0.68159 0.41382 0.10747 0.0
H552 H 0.88352 0.43552 0.13216 0.0
H553 H 0.82312 0.42956 0.18036 0.0
H554 H 0.71173 0.36037 0.02342 0.0
H555 H 0.78267 0.43705 0.03509 0.0
H556 H 0.70057 0.38005 0.98979 0.0
H557 H 0.77032 0.45532 0.00131 0.0
H558 H 0.77218 0.35398 0.03782 0.0
H559 H 0.83872 0.37126 0.08281 0.0
H560 H 0.78438 0.3263 0.01334 0.0
H561 H 0.84976 0.34318 0.0575 0.0
H562 H 0.88295 0.46317 0.02099 0.0
H563 H 0.82358 0.4042 0.97465 0.0
H564 H 0.67095 0.28757 0.05949 0.0
H565 H 0.73266 0.26927 0.07929 0.0
Li566 Li 0.41209 0.78909 0.26561 0.0
Li567 Li 0.37332 0.75418 0.24603 0.0
Li568 Li 0.41512 0.75371 0.24602 0.0
Li569 Li 0.41111 0.78744 0.22382 0.0
C570 C 0.40345 0.74586 0.29276 0.0
N571 N 0.42572 0.73714 0.33201 0.0
C572 C 0.38703 0.72677 0.30917 0.0
C573 C 0.43121 0.76059 0.29638 0.0
C574 C 0.39867 0.72264 0.32889 0.0
C575 C 0.44207 0.75586 0.3163 0.0
C576 C 0.37118 0.80014 0.25696 0.0
C577 C 0.3515 0.82818 0.26264 0.0
N578 N 0.33899 0.81398 0.28208 0.0
C579 C 0.35808 0.7858 0.27697 0.0
C580 C 0.36784 0.82147 0.2497 0.0
C581 C 0.34191 0.79311 0.28943 0.0
C582 C 0.44518 0.83917 0.28591 0.0
N583 N 0.42442 0.81414 0.2905 0.0
C584 C 0.42 0.82742 0.32876 0.0
C585 C 0.41198 0.80785 0.3115 0.0
C586 C 0.44112 0.8536 0.32439 0.0
C587 C 0.45404 0.85929 0.30275 0.0
H588 H 0.45447 0.84363 0.26894 0.0
H589 H 0.39548 0.7878 0.3147 0.0
C590 C 0.32517 0.70989 0.26133 0.0
N591 N 0.33507 0.73174 0.24726 0.0
C592 C 0.29749 0.69339 0.26417 0.0
C593 C 0.29055 0.72159 0.23729 0.0
C594 C 0.31842 0.73787 0.23535 0.0
C595 C 0.2796 0.69905 0.25208 0.0
H596 H 0.33885 0.70556 0.2707 0.0
H597 H 0.32673 0.75561 0.22455 0.0
C598 C 0.463 0.79845 0.23143 0.0
N599 N 0.50737 0.80974 0.20479 0.0
C600 C 0.4604 0.78245 0.21224 0.0
C601 C 0.48816 0.82019 0.23706 0.0
C602 C 0.48307 0.78848 0.199 0.0
C603 C 0.51036 0.82557 0.22338 0.0
C604 C 0.3747 0.74047 0.20008 0.0
C605 C 0.36811 0.71675 0.18826 0.0
C606 C 0.36449 0.75663 0.19233 0.0
C607 C 0.35131 0.70954 0.16886 0.0
C608 C 0.34775 0.74872 0.17288 0.0
N609 N 0.34156 0.72554 0.16164 0.0
C610 C 0.41156 0.70381 0.24125 0.0
C611 C 0.45546 0.73809 0.25122 0.0
C612 C 0.42015 0.68506 0.23966 0.0
N613 N 0.42926 0.72982 0.24654 0.0
C614 C 0.46502 0.72006 0.24952 0.0
C615 C 0.44738 0.69317 0.24327 0.0
H616 H 0.39077 0.69772 0.23792 0.0
H617 H 0.46913 0.75881 0.25572 0.0
C618 C 0.42788 0.83604 0.20134 0.0
N619 N 0.42322 0.81073 0.19759 0.0
C620 C 0.43858 0.85527 0.18374 0.0
C621 C 0.4395 0.82202 0.15871 0.0
C622 C 0.42852 0.80333 0.17674 0.0
C623 C 0.44484 0.84845 0.16218 0.0
H624 H 0.42379 0.84141 0.21821 0.0
H625 H 0.42467 0.78307 0.17423 0.0
O626 O 0.39218 0.75004 0.2734 0.0
O627 O 0.38717 0.79345 0.2444 0.0
O628 O 0.44111 0.79317 0.24462 0.0
O629 O 0.39117 0.74771 0.21906 0.0
H630 H 0.3655 0.71528 0.30674 0.0
H631 H 0.4443 0.77558 0.28405 0.0
H632 H 0.38619 0.70791 0.34171 0.0
H633 H 0.46351 0.76711 0.31929 0.0
H634 H 0.34876 0.84466 0.25723 0.0
H635 H 0.36034 0.7692 0.28287 0.0
H636 H 0.37778 0.83273 0.23421 0.0
H637 H 0.33169 0.7822 0.30496 0.0
H638 H 0.40972 0.82215 0.34533 0.0
H639 H 0.47023 0.87927 0.29864 0.0
H640 H 0.29035 0.67678 0.27622 0.0
H641 H 0.27782 0.72673 0.22731 0.0
H642 H 0.44114 0.7655 0.20761 0.0
H643 H 0.49051 0.83278 0.25185 0.0
H644 H 0.48134 0.77626 0.18411 0.0
H645 H 0.52996 0.84234 0.22754 0.0
H646 H 0.37591 0.70406 0.19402 0.0
H647 H 0.3693 0.77503 0.20127 0.0
H648 H 0.34602 0.69122 0.15955 0.0
H649 H 0.33966 0.76101 0.16673 0.0
H650 H 0.40561 0.66447 0.23535 0.0
H651 H 0.48619 0.72741 0.2523 0.0
H652 H 0.44265 0.87548 0.1872 0.0
H653 H 0.44382 0.8159 0.14225 0.0
H654 H 0.11563 0.57073 0.28331 0.0
H655 H 0.12206 0.64415 0.30865 0.0
H656 H 0.15836 0.59644 0.2629 0.0
H657 H 0.16551 0.66999 0.28992 0.0
H658 H 0.24131 0.71457 0.2508 0.0
H659 H 0.19373 0.6877 0.25885 0.0
H660 H 0.20313 0.61877 0.27186 0.0
H661 H 0.24998 0.64483 0.26133 0.0
C662 C 0.12606 0.59246 0.28406 0.0
C663 C 0.11558 0.60558 0.29721 0.0
C664 C 0.15077 0.60726 0.27273 0.0
C665 C 0.16592 0.63546 0.27496 0.0
C666 C 0.15454 0.64847 0.28732 0.0
C667 C 0.12957 0.63369 0.29816 0.0
C668 C 0.23319 0.69349 0.25469 0.0
C669 C 0.24991 0.68214 0.25562 0.0
C670 C 0.20577 0.67808 0.25975 0.0
C671 C 0.1943 0.65098 0.26643 0.0
C672 C 0.21085 0.63942 0.26659 0.0
C673 C 0.23811 0.65465 0.26101 0.0
H674 H 0.5802 0.12309 0.46976 0.0
H675 H 0.5006 0.11037 0.45756 0.0
H676 H 0.59953 0.1662 0.4497 0.0
H677 H 0.51993 0.15353 0.43747 0.0
H678 H 0.56559 0.23041 0.3937 0.0
H679 H 0.54743 0.18332 0.4046 0.0
H680 H 0.60151 0.20796 0.46313 0.0
H681 H 0.61909 0.25467 0.45279 0.0
C682 C 0.56682 0.12925 0.46231 0.0
C683 C 0.5389 0.1135 0.46547 0.0
C684 C 0.57788 0.15398 0.45093 0.0
C685 C 0.56129 0.16352 0.44241 0.0
C686 C 0.53326 0.14673 0.44379 0.0
C687 C 0.52216 0.12194 0.45524 0.0
C688 C 0.57357 0.2258 0.40894 0.0
C689 C 0.59392 0.2465 0.4223 0.0
C690 C 0.56323 0.19879 0.41509 0.0
C691 C 0.57319 0.19188 0.4346 0.0
C692 C 0.5938 0.21253 0.44769 0.0
C693 C 0.60393 0.23942 0.4417 0.0
H694 H 0.47991 0.57736 0.63558 0.0
H695 H 0.41263 0.49805 0.62306 0.0
H696 H 0.45624 0.59709 0.61597 0.0
H697 H 0.38893 0.51775 0.60345 0.0
H698 H 0.35737 0.56335 0.56066 0.0
H699 H 0.38645 0.54524 0.57106 0.0
H700 H 0.41684 0.59949 0.62942 0.0
H701 H 0.38761 0.6171 0.61949 0.0
C702 C 0.46031 0.56413 0.62816 0.0
C703 C 0.44802 0.53617 0.63109 0.0
C704 C 0.4467 0.57542 0.61705 0.0
C705 C 0.4205 0.559 0.60856 0.0
C706 C 0.40912 0.53095 0.60973 0.0
C707 C 0.42275 0.51964 0.62091 0.0
C708 C 0.37022 0.57138 0.57574 0.0
C709 C 0.37008 0.59176 0.5892 0.0
C710 C 0.38696 0.56107 0.58162 0.0
C711 C 0.40411 0.57106 0.60095 0.0
C712 C 0.40433 0.59174 0.61411 0.0
C713 C 0.38751 0.60188 0.60837 0.0
H714 H 0.93854 0.4117 0.79009 0.0
H715 H 0.9258 0.47842 0.80292 0.0
H716 H 0.89523 0.38788 0.77023 0.0
H717 H 0.88258 0.4547 0.78301 0.0
H718 H 0.79418 0.38582 0.78653 0.0
H719 H 0.84099 0.41507 0.79648 0.0
H720 H 0.86501 0.38527 0.73785 0.0
H721 H 0.81779 0.35616 0.7274 0.0
C722 C 0.92694 0.42168 0.78793 0.0
C723 C 0.93541 0.44679 0.79828 0.0
C724 C 0.90206 0.40799 0.77661 0.0
C725 C 0.88523 0.41918 0.77547 0.0
C726 C 0.89482 0.44529 0.78407 0.0
C727 C 0.91962 0.45894 0.79534 0.0
C728 C 0.80932 0.38585 0.77534 0.0
C729 C 0.80203 0.3686 0.75606 0.0
C730 C 0.83627 0.40269 0.78109 0.0
C731 C 0.85678 0.40267 0.76786 0.0
C732 C 0.84965 0.38564 0.74845 0.0
C733 C 0.82258 0.36889 0.74255 0.0
H734 H 0.47424 0.9176 0.97091 0.0
H735 H 0.55572 0.93826 0.95508 0.0
H736 H 0.45756 0.87555 0.94997 0.0
H737 H 0.53902 0.89674 0.93302 0.0
H738 H 0.50155 0.80425 0.93363 0.0
H739 H 0.52017 0.85109 0.94443 0.0
H740 H 0.45057 0.85056 0.91542 0.0
H741 H 0.4317 0.80333 0.90504 0.0
C742 C 0.48857 0.91347 0.9624 0.0
C743 C 0.51632 0.9311 0.96501 0.0
C744 C 0.479 0.8894 0.95019 0.0
C745 C 0.49694 0.88242 0.94009 0.0
C746 C 0.52464 0.90115 0.94103 0.0
C747 C 0.53423 0.9252 0.95338 0.0
C748 C 0.49045 0.81426 0.92916 0.0
C749 C 0.46506 0.8 0.91861 0.0
C750 C 0.50118 0.84123 0.93527 0.0
C751 C 0.48689 0.85475 0.93087 0.0
C752 C 0.46196 0.84073 0.91944 0.0
C753 C 0.45113 0.81366 0.91347 0.0
H754 H 0.65068 0.54872 0.14728 0.0
H755 H 0.5786 0.48698 0.11489 0.0
H756 H 0.67675 0.53132 0.12869 0.0
H757 H 0.60476 0.47018 0.0948 0.0
H758 H 0.65109 0.4245 0.09232 0.0
H759 H 0.6252 0.44538 0.1034 0.0
H760 H 0.69618 0.52373 0.09696 0.0
H761 H 0.72262 0.50274 0.08819 0.0
C762 C 0.64068 0.532 0.13536 0.0
C763 C 0.61282 0.51931 0.13224 0.0
C764 C 0.65559 0.52196 0.12459 0.0
C765 C 0.643 0.4991 0.11021 0.0
C766 C 0.61517 0.48742 0.1061 0.0
C767 C 0.60018 0.49723 0.11726 0.0
C768 C 0.66135 0.44618 0.09353 0.0
C769 C 0.68921 0.46176 0.08971 0.0
C770 C 0.64627 0.45828 0.09946 0.0
C771 C 0.65847 0.48639 0.10131 0.0
C772 C 0.68606 0.50202 0.09626 0.0
C773 C 0.70124 0.48991 0.09079 0.0
H774 H 0.41155 0.93448 0.52562 0.0
H775 H 0.47912 0.9224 0.5156 0.0
H776 H 0.38682 0.89064 0.54452 0.0
H777 H 0.4545 0.87866 0.53454 0.0
H778 H 0.38648 0.7902 0.52882 0.0
H779 H 0.41579 0.83726 0.51967 0.0
H780 H 0.38264 0.85976 0.57683 0.0
H781 H 0.35344 0.81231 0.58646 0.0
C782 C 0.42148 0.92289 0.52821 0.0
C783 C 0.44716 0.93173 0.51891 0.0
C784 C 0.40727 0.89771 0.53896 0.0
C785 C 0.4185 0.88094 0.5406 0.0
C786 C 0.44507 0.89085 0.53308 0.0
C787 C 0.45923 0.91595 0.52236 0.0
C788 C 0.38575 0.80506 0.53984 0.0
C789 C 0.36757 0.79729 0.55848 0.0
C790 C 0.40262 0.83215 0.53456 0.0
C791 C 0.40172 0.85231 0.54763 0.0
C792 C 0.38371 0.84469 0.56636 0.0
C793 C 0.3669 0.81748 0.57179 0.0
H794 H 0.55064 0.46252 0.70663 0.0
H795 H 0.50409 0.39467 0.662 0.0
H796 H 0.56729 0.43662 0.72776 0.0
H797 H 0.52101 0.36903 0.68228 0.0
H798 H 0.54378 0.32175 0.72752 0.0
H799 H 0.52188 0.34685 0.7165 0.0
H800 H 0.59801 0.42081 0.72022 0.0
H801 H 0.61965 0.39585 0.73279 0.0
C802 C 0.54359 0.44186 0.70174 0.0
C803 C 0.52595 0.43034 0.68297 0.0
C804 C 0.55329 0.42712 0.7136 0.0
C805 C 0.54558 0.40069 0.70672 0.0
C806 C 0.52706 0.38905 0.68842 0.0
C807 C 0.51739 0.40372 0.6767 0.0
C808 C 0.5558 0.34342 0.72663 0.0
C809 C 0.58362 0.35667 0.73088 0.0
C810 C 0.54325 0.35783 0.71998 0.0
C811 C 0.55818 0.38588 0.71712 0.0
C812 C 0.58578 0.39927 0.72236 0.0
C813 C 0.59831 0.38487 0.72923 0.0
H814 H 0.11364 0.4994 0.85946 0.0
H815 H 0.12633 0.57889 0.84672 0.0
H816 H 0.15714 0.51892 0.87899 0.0
H817 H 0.16977 0.59841 0.86623 0.0
H818 H 0.25815 0.61783 0.86221 0.0
H819 H 0.21128 0.60019 0.85241 0.0
H820 H 0.18753 0.54674 0.91135 0.0
H821 H 0.23478 0.56494 0.92168 0.0
C822 C 0.12528 0.52099 0.86156 0.0
C823 C 0.11671 0.53763 0.85133 0.0
C824 C 0.15027 0.53219 0.87268 0.0
C825 C 0.16714 0.56023 0.87374 0.0
C826 C 0.1575 0.57675 0.86524 0.0
C827 C 0.13257 0.56558 0.85419 0.0
C828 C 0.24307 0.60279 0.87349 0.0
C829 C 0.25044 0.59296 0.89283 0.0
C830 C 0.21608 0.59263 0.86782 0.0
C831 C 0.19563 0.57218 0.88119 0.0
C832 C 0.20284 0.5624 0.90064 0.0
C833 C 0.22994 0.57277 0.90647 0.0
H834 H 0.57085 0.12107 0.01674 0.0
H835 H 0.6381 0.10902 0.02912 0.0
H836 H 0.59445 0.16433 0.03655 0.0
H837 H 0.66179 0.15235 0.04889 0.0
H838 H 0.69336 0.22958 0.09178 0.0
H839 H 0.66446 0.18237 0.08129 0.0
H840 H 0.63368 0.20619 0.02316 0.0
H841 H 0.66271 0.25303 0.03318 0.0
C842 C 0.59043 0.12741 0.02419 0.0
C843 C 0.60273 0.11178 0.02116 0.0
C844 C 0.60401 0.15224 0.03541 0.0
C845 C 0.63022 0.16203 0.04388 0.0
C846 C 0.6416 0.14538 0.04262 0.0
C847 C 0.62798 0.12047 0.03136 0.0
C848 C 0.68047 0.22475 0.07673 0.0
C849 C 0.68042 0.24526 0.06338 0.0
C850 C 0.66383 0.19768 0.0708 0.0
C851 C 0.6466 0.19049 0.05151 0.0
C852 C 0.64624 0.21095 0.03845 0.0
C853 C 0.66294 0.23792 0.04423 0.0
H854 H 0.55161 0.63419 0.20268 0.0
H855 H 0.47285 0.56472 0.1943 0.0
H856 H 0.53209 0.65681 0.22428 0.0
H857 H 0.45327 0.58712 0.2161 0.0
H858 H 0.4308 0.65404 0.21007 0.0
H859 H 0.44868 0.62484 0.20141 0.0
H860 H 0.5058 0.66027 0.25738 0.0
H861 H 0.48733 0.68935 0.26663 0.0
C862 C 0.53029 0.62329 0.20641 0.0
C863 C 0.51369 0.59782 0.19665 0.0
C864 C 0.51906 0.63629 0.21869 0.0
C865 C 0.49104 0.62399 0.22141 0.0
C866 C 0.47485 0.59735 0.21384 0.0
C867 C 0.48606 0.58441 0.20156 0.0
C868 C 0.44666 0.65524 0.22104 0.0
C869 C 0.45749 0.67413 0.23913 0.0
C870 C 0.45695 0.6384 0.21603 0.0
C871 C 0.47855 0.64004 0.22882 0.0
C872 C 0.48921 0.65859 0.24716 0.0
C873 C 0.4787 0.67534 0.25235 0.0
H874 H 0.9396 0.54963 0.3639 0.0
H875 H 0.9194 0.46765 0.35108 0.0
H876 H 0.89754 0.53365 0.3849 0.0
H877 H 0.87674 0.45166 0.37079 0.0
H878 H 0.80323 0.42708 0.41352 0.0
H879 H 0.85069 0.44555 0.40424 0.0
H880 H 0.85231 0.51466 0.37285 0.0
H881 H 0.80527 0.4965 0.3827 0.0
C882 C 0.92649 0.52819 0.36601 0.0
C883 C 0.93273 0.50992 0.35553 0.0
C884 C 0.90212 0.519 0.37774 0.0
C885 C 0.88335 0.49134 0.37914 0.0
C886 C 0.89059 0.47309 0.37019 0.0
C887 C 0.91502 0.48227 0.35865 0.0
C888 C 0.81387 0.44633 0.40481 0.0
C889 C 0.80048 0.46027 0.39874 0.0
C890 C 0.84107 0.45693 0.39946 0.0
C891 C 0.85546 0.4816 0.38768 0.0
C892 C 0.84217 0.49588 0.38231 0.0
C893 C 0.81508 0.48541 0.38786 0.0
H894 H 0.10442 0.54172 0.36176 0.0
H895 H 0.0773 0.59158 0.39411 0.0
H896 H 0.12873 0.54352 0.39711 0.0
H897 H 0.10197 0.59395 0.42922 0.0
H898 H 0.14219 0.58731 0.49369 0.0
H899 H 0.1094 0.57324 0.46236 0.0
H900 H 0.16924 0.57855 0.41396 0.0
H901 H 0.20153 0.59127 0.44543 0.0
C902 C 0.10321 0.55258 0.37664 0.0
C903 C 0.0891 0.56662 0.37515 0.0
C904 C 0.11732 0.55383 0.3968 0.0
C905 C 0.11777 0.56932 0.41588 0.0
C906 C 0.10197 0.58168 0.41497 0.0
C907 C 0.08772 0.58028 0.39483 0.0
C908 C 0.14819 0.58492 0.47646 0.0
C909 C 0.17459 0.59057 0.47208 0.0
C910 C 0.12944 0.57711 0.45843 0.0
C911 C 0.13663 0.5748 0.43558 0.0
C912 C 0.16282 0.57974 0.43136 0.0
C913 C 0.18152 0.58746 0.44937 0.0
H914 H 0.50011 0.07571 0.56172 0.0
H915 H 0.57977 0.09905 0.53727 0.0
H916 H 0.51906 0.09938 0.5982 0.0
H917 H 0.59878 0.12302 0.5736 0.0
H918 H 0.62357 0.15458 0.64756 0.0
H919 H 0.60207 0.12091 0.61689 0.0
H920 H 0.54598 0.14883 0.60475 0.0
H921 H 0.56718 0.18209 0.63544 0.0
C922 C 0.52158 0.08516 0.56445 0.0
C923 C 0.5385 0.08569 0.54664 0.0
C924 C 0.53246 0.09898 0.5852 0.0
C925 C 0.56043 0.11341 0.58859 0.0
C926 C 0.57716 0.11206 0.57153 0.0
C927 C 0.5663 0.09841 0.55072 0.0
C928 C 0.60648 0.15328 0.63846 0.0
C929 C 0.59717 0.17109 0.64375 0.0
C930 C 0.59425 0.1341 0.62088 0.0
C931 C 0.57226 0.13212 0.60851 0.0
C932 C 0.56264 0.14957 0.61419 0.0
C933 C 0.57501 0.16888 0.63154 0.0
H934 H 0.44578 0.49574 0.72648 0.0
H935 H 0.50382 0.57545 0.70327 0.0
H936 H 0.44086 0.51431 0.76306 0.0
H937 H 0.49867 0.5941 0.73971 0.0
H938 H 0.49088 0.61792 0.81378 0.0
H939 H 0.50312 0.59648 0.78314 0.0
H940 H 0.41906 0.54193 0.76946 0.0
H941 H 0.40691 0.56308 0.8001 0.0
C942 C 0.45814 0.51712 0.72951 0.0
C943 C 0.47508 0.53418 0.712 0.0
C944 C 0.45508 0.52779 0.75032 0.0
C945 C 0.46905 0.55569 0.75408 0.0
C946 C 0.48767 0.57252 0.73736 0.0
C947 C 0.49058 0.56187 0.71648 0.0
C948 C 0.47507 0.60117 0.80435 0.0
C949 C 0.44794 0.59229 0.80919 0.0
C950 C 0.48207 0.58897 0.78679 0.0
C951 C 0.46206 0.56743 0.77399 0.0
C952 C 0.43495 0.55822 0.77923 0.0
C953 C 0.42798 0.57057 0.79657 0.0
H954 H 0.97224 0.44297 0.89388 0.0
H955 H 0.94966 0.50051 0.8713 0.0
H956 H 0.94818 0.437 0.93036 0.0
H957 H 0.92536 0.49436 0.90763 0.0
H958 H 0.89377 0.48564 0.98175 0.0
H959 H 0.92739 0.49842 0.95099 0.0
H960 H 0.89868 0.41462 0.93691 0.0
H961 H 0.86543 0.40192 0.96771 0.0
C962 C 0.96287 0.45498 0.89704 0.0
C963 C 0.96271 0.47212 0.87975 0.0
C964 C 0.94883 0.45132 0.91778 0.0
C965 C 0.93455 0.4649 0.92169 0.0
C966 C 0.93621 0.48366 0.90517 0.0
C967 C 0.95007 0.48714 0.88436 0.0
C968 C 0.89487 0.47 0.97221 0.0
C969 C 0.87685 0.44278 0.97701 0.0
C970 C 0.91402 0.47731 0.95457 0.0
C971 C 0.91577 0.45754 0.94162 0.0
C972 C 0.89811 0.43034 0.94679 0.0
C973 C 0.87881 0.42305 0.96422 0.0
H974 H 0.47367 0.94193 0.03761 0.0
H975 H 0.55361 0.966 0.06183 0.0
H976 H 0.45489 0.91689 0.07355 0.0
H977 H 0.53488 0.94116 0.09791 0.0
H978 H 0.48761 0.8582 0.13503 0.0
H979 H 0.50825 0.89143 0.10417 0.0
H980 H 0.45185 0.91879 0.11689 0.0
H981 H 0.43094 0.88522 0.14768 0.0
C982 C 0.48723 0.94246 0.05094 0.0
C983 C 0.51507 0.9558 0.04693 0.0
C984 C 0.47651 0.92818 0.07152 0.0
C985 C 0.4934 0.92677 0.0884 0.0
C986 C 0.52136 0.94161 0.08505 0.0
C987 C 0.53211 0.9561 0.06454 0.0
C988 C 0.47958 0.87126 0.1312 0.0
C989 C 0.45755 0.86899 0.14366 0.0
C990 C 0.49162 0.89054 0.11375 0.0
C991 C 0.48178 0.90785 0.10821 0.0
C992 C 0.45984 0.90571 0.12076 0.0
C993 C 0.44796 0.88658 0.13842 0.0
H994 H 0.6006 0.54717 0.22748 0.0
H995 H 0.55004 0.46823 0.19858 0.0
H996 H 0.60467 0.52689 0.26343 0.0
H997 H 0.55421 0.44792 0.23451 0.0
H998 H 0.55811 0.42103 0.30912 0.0
H999 H 0.54594 0.4424 0.27823 0.0
H1000 H 0.62968 0.50154 0.26911 0.0
H1001 H 0.64176 0.4803 0.29983 0.0
C1002 C 0.58961 0.5255 0.22911 0.0
C1003 C 0.57507 0.50926 0.21023 0.0
C1004 C 0.5922 0.5139 0.24957 0.0
C1005 C 0.58008 0.48585 0.25162 0.0
C1006 C 0.56373 0.46959 0.23345 0.0
C1007 C 0.56137 0.48119 0.21289 0.0
C1008 C 0.57383 0.43872 0.30058 0.0
C1009 C 0.60089 0.44892 0.30673 0.0
C1010 C 0.56689 0.45087 0.28291 0.0
C1011 C 0.58684 0.47373 0.27139 0.0
C1012 C 0.61382 0.48418 0.27789 0.0
C1013 C 0.62078 0.47183 0.29527 0.0
H1014 H 0.50428 0.94753 0.44803 0.0
H1015 H 0.44853 0.97152 0.42332 0.0
H1016 H 0.4993 0.92363 0.4117 0.0
H1017 H 0.44382 0.94793 0.38682 0.0
H1018 H 0.40821 0.86465 0.35026 0.0
H1019 H 0.42078 0.89852 0.38046 0.0
H1020 H 0.50458 0.92523 0.36851 0.0
H1021 H 0.4919 0.89094 0.33835 0.0
C1022 C 0.49162 0.94837 0.43451 0.0
C1023 C 0.47664 0.96119 0.43854 0.0
C1024 C 0.48881 0.93475 0.41369 0.0
C1025 C 0.47084 0.93356 0.39656 0.0
C1026 C 0.45751 0.9482 0.39986 0.0
C1027 C 0.46046 0.96197 0.42064 0.0
C1028 C 0.42932 0.87776 0.35407 0.0
C1029 C 0.44906 0.87499 0.3421 0.0
C1030 C 0.43654 0.89741 0.37114 0.0
C1031 C 0.46369 0.91466 0.37677 0.0
C1032 C 0.4835 0.9122 0.36456 0.0
C1033 C 0.47626 0.89266 0.34727 0.0
H1034 H 0.49743 0.44444 0.58834 0.0
H1035 H 0.57688 0.49365 0.61677 0.0
H1036 H 0.51704 0.44053 0.55194 0.0
H1037 H 0.59653 0.48973 0.58037 0.0
H1038 H 0.62223 0.48624 0.50533 0.0
H1039 H 0.60134 0.49856 0.53648 0.0
H1040 H 0.54201 0.41492 0.54583 0.0
H1041 H 0.56283 0.40269 0.51489 0.0
C1042 C 0.51908 0.4552 0.58651 0.0
C1043 C 0.53566 0.46929 0.60536 0.0
C1044 C 0.53029 0.45271 0.56579 0.0
C1045 C 0.55828 0.46453 0.56347 0.0
C1046 C 0.5749 0.48048 0.58164 0.0
C1047 C 0.56368 0.4827 0.60246 0.0
C1048 C 0.60459 0.47058 0.51396 0.0
C1049 C 0.59423 0.4435 0.50786 0.0
C1050 C 0.59271 0.47761 0.53177 0.0
C1051 C 0.56995 0.45772 0.54344 0.0
C1052 C 0.55929 0.43072 0.53693 0.0
C1053 C 0.57139 0.42368 0.51942 0.0
H1054 H 0.10081 0.57728 0.77906 0.0
H1055 H 0.07877 0.49751 0.75588 0.0
H1056 H 0.1247 0.59591 0.74262 0.0
H1057 H 0.10246 0.51608 0.71932 0.0
H1058 H 0.18542 0.56496 0.68236 0.0
H1059 H 0.15218 0.54389 0.7131 0.0
H1060 H 0.1223 0.59802 0.69901 0.0
H1061 H 0.15589 0.61933 0.66822 0.0
C1062 C 0.10041 0.56369 0.76585 0.0
C1063 C 0.08807 0.53599 0.77032 0.0
C1064 C 0.11403 0.57433 0.74498 0.0
C1065 C 0.11577 0.55747 0.72827 0.0
C1066 C 0.10174 0.52957 0.73204 0.0
C1067 C 0.08791 0.5189 0.75283 0.0
C1068 C 0.17177 0.57237 0.68583 0.0
C1069 C 0.17339 0.59393 0.67303 0.0
C1070 C 0.15249 0.56008 0.70322 0.0
C1071 C 0.13451 0.56919 0.70836 0.0
C1072 C 0.13592 0.59059 0.69542 0.0
C1073 C 0.15505 0.60271 0.67779 0.0
H1074 H 0.54831 0.09687 0.94833 0.0
H1075 H 0.60645 0.07519 0.92564 0.0
H1076 H 0.55428 0.12133 0.9121 0.0
H1077 H 0.61222 0.09939 0.88926 0.0
H1078 H 0.64684 0.18244 0.85248 0.0
H1079 H 0.63426 0.14896 0.88309 0.0
H1080 H 0.5504 0.11965 0.86869 0.0
H1081 H 0.56305 0.1535 0.83811 0.0
C1082 C 0.56176 0.09669 0.93527 0.0
C1083 C 0.57702 0.08427 0.93983 0.0
C1084 C 0.56514 0.11063 0.91451 0.0
C1085 C 0.58402 0.11261 0.898 0.0
C1086 C 0.59781 0.09852 0.90183 0.0
C1087 C 0.59426 0.08438 0.92252 0.0
C1088 C 0.62572 0.16887 0.85586 0.0
C1089 C 0.60594 0.17072 0.84303 0.0
C1090 C 0.6185 0.14945 0.87318 0.0
C1091 C 0.59132 0.13155 0.87819 0.0
C1092 C 0.57149 0.1332 0.86521 0.0
C1093 C 0.57873 0.15249 0.84769 0.0
H1094 H 0.51257 0.55134 0.0955 0.0
H1095 H 0.51 0.61972 0.12335 0.0
H1096 H 0.49111 0.55474 0.05958 0.0
H1097 H 0.4885 0.62275 0.08817 0.0
H1098 H 0.42131 0.60083 0.03781 0.0
H1099 H 0.44243 0.59249 0.07093 0.0
H1100 H 0.49988 0.58852 0.02537 0.0
H1101 H 0.47899 0.59737 0.99202 0.0
C1102 C 0.5076 0.56711 0.09389 0.0
C1103 C 0.51233 0.58482 0.11244 0.0
C1104 C 0.49532 0.56903 0.07343 0.0
C1105 C 0.48758 0.58862 0.07137 0.0
C1106 C 0.49352 0.60698 0.08952 0.0
C1107 C 0.50583 0.6052 0.10969 0.0
C1108 C 0.43844 0.5982 0.03478 0.0
C1109 C 0.44871 0.60023 0.01229 0.0
C1110 C 0.45046 0.59331 0.05375 0.0
C1111 C 0.47299 0.59019 0.05073 0.0
C1112 C 0.48247 0.59075 0.02816 0.0
C1113 C 0.47047 0.5958 0.0091 0.0
H1114 H 0.94763 0.46448 0.28708 0.0
H1115 H 0.97085 0.54237 0.25825 0.0
H1116 H 0.92403 0.44313 0.25118 0.0
H1117 H 0.94685 0.52112 0.22249 0.0
H1118 H 0.90824 0.47528 0.15646 0.0
H1119 H 0.94092 0.49445 0.18796 0.0
H1120 H 0.88238 0.4369 0.2356 0.0
H1121 H 0.85021 0.41718 0.20405 0.0
C1122 C 0.94817 0.47704 0.27282 0.0
C1123 C 0.9609 0.50505 0.27547 0.0
C1124 C 0.93447 0.46484 0.25235 0.0
C1125 C 0.93305 0.48036 0.23413 0.0
C1126 C 0.94761 0.50854 0.23611 0.0
C1127 C 0.96145 0.52077 0.25659 0.0
C1128 C 0.90254 0.46642 0.17358 0.0
C1129 C 0.87655 0.44476 0.17776 0.0
C1130 C 0.9212 0.47757 0.19167 0.0
C1131 C 0.91433 0.46724 0.21432 0.0
C1132 C 0.88854 0.44515 0.21833 0.0
C1133 C 0.86992 0.43406 0.20029 0.0
loop_
_geom_bond_atom_site_label_1
_geom_bond_atom_site_label_2
_geom_bond_distance
_geom_bond_site_symmetry_2
_ccdc_geom_bond_type
H0 C8 0.930 . S
H1 C11 0.930 1_455 S
H2 C13 0.930 . S
H3 C14 0.970 . S
H4 C14 0.970 . S
H5 C16 0.930 . S
H6 C18 0.930 . S
H7 C20 0.930 . S
C8 H0 0.930 . S
C8 C9 1.382 . S
C8 C10 1.426 . S
C9 C8 1.382 . S
C9 C13 1.389 . S
C10 C8 1.426 . S
C10 C11 1.375 . S
C10 C14 1.532 1_655 S
C11 H1 0.930 1_655 S
C11 C10 1.375 . S
C11 C12 1.416 . S
C12 C11 1.416 . S
C12 C13 1.371 . S
C13 H2 0.930 . S
C13 C9 1.389 . S
C13 C12 1.371 . S
C14 H3 0.970 . S
C14 H4 0.970 . S
C14 C10 1.532 1_455 S
C14 C15 1.499 . S
C15 C14 1.499 . S
C15 C16 1.370 . S
C15 C20 1.415 . S
C16 H5 0.930 . S
C16 C15 1.370 . S
C16 C17 1.407 . S
C17 C16 1.407 . S
C17 C18 1.365 . S
C18 H6 0.930 . S
C18 C17 1.365 . S
C18 C19 1.393 . S
C19 C18 1.393 . S
C19 C20 1.387 . S
C20 H7 0.930 . S
C20 C15 1.415 . S
C20 C19 1.387 . S
H21 C29 0.930 . S
H22 C32 0.932 1_545 S
H23 C34 0.930 . S
H24 C35 0.970 . S
H25 C35 0.970 . S
H26 C37 0.930 . S
H27 C39 0.930 . S
H28 C41 0.930 . S
C29 H21 0.930 . S
C29 C30 1.382 . S
C29 C31 1.426 . S
C30 C29 1.382 . S
C30 C34 1.389 . S
C31 C29 1.426 . S
C31 C32 1.375 . S
C31 C35 1.532 1_565 S
C32 H22 0.932 1_565 S
C32 C31 1.375 . S
C32 C33 1.416 . S
C33 C32 1.416 . S
C33 C34 1.371 . S
C34 H23 0.930 . S
C34 C30 1.389 . S
C34 C33 1.371 . S
C35 H24 0.970 . S
C35 H25 0.970 . S
C35 C31 1.532 1_545 S
C35 C36 1.499 . S
C36 C35 1.499 . S
C36 C37 1.370 . S
C36 C41 1.415 . S
C37 H26 0.930 . S
C37 C36 1.370 . S
C37 C38 1.407 . S
C38 C37 1.407 . S
C38 C39 1.365 . S
C39 H27 0.930 . S
C39 C38 1.365 . S
C39 C40 1.393 . S
C40 C39 1.393 . S
C40 C41 1.387 . S
C41 H28 0.930 . S
C41 C36 1.415 . S
C41 C40 1.387 . S
H42 C50 0.930 . S
H43 C53 0.930 . S
H44 C55 0.930 . S
H45 C56 0.970 . S
H46 C56 0.970 . S
H47 C58 0.930 . S
H48 C60 0.930 . S
H49 C62 0.930 . S
C50 H42 0.930 . S
C50 C51 1.382 . S
C50 C52 1.426 . S
C51 C50 1.382 . S
C51 C55 1.389 . S
C52 C50 1.426 . S
C52 C53 1.375 . S
C52 C56 1.532 . S
C53 H43 0.930 . S
C53 C52 1.375 . S
C53 C54 1.416 . S
C54 C53 1.416 . S
C54 C55 1.371 . S
C55 H44 0.930 . S
C55 C51 1.389 . S
C55 C54 1.371 . S
C56 H45 0.970 . S
C56 H46 0.970 . S
C56 C52 1.532 . S
C56 C57 1.499 . S
C57 C56 1.499 . S
C57 C58 1.370 . S
C57 C62 1.415 . S
C58 H47 0.930 . S
C58 C57 1.370 . S
C58 C59 1.407 . S
C59 C58 1.407 . S
C59 C60 1.365 . S
C60 H48 0.930 . S
C60 C59 1.365 . S
C60 C61 1.393 . S
C61 C60 1.393 . S
C61 C62 1.387 . S
C62 H49 0.930 . S
C62 C57 1.415 . S
C62 C61 1.387 . S
H63 C71 0.930 . S
H64 C74 0.930 1_455 S
H65 C76 0.930 . S
H66 C77 0.970 . S
H67 C77 0.970 . S
H68 C79 0.930 . S
H69 C81 0.930 . S
H70 C83 0.930 . S
C71 H63 0.930 . S
C71 C72 1.382 . S
C71 C73 1.426 . S
C72 C71 1.382 . S
C72 C76 1.389 . S
C73 C71 1.426 . S
C73 C74 1.375 . S
C73 C77 1.532 1_655 S
C74 H64 0.930 1_655 S
C74 C73 1.375 . S
C74 C75 1.416 . S
C75 C74 1.416 . S
C75 C76 1.371 . S
C76 H65 0.930 . S
C76 C72 1.389 . S
C76 C75 1.371 . S
C77 H66 0.970 . S
C77 H67 0.970 . S
C77 C73 1.532 1_455 S
C77 C78 1.499 . S
C78 C77 1.499 . S
C78 C79 1.370 . S
C78 C83 1.415 . S
C79 H68 0.930 . S
C79 C78 1.370 . S
C79 C80 1.407 . S
C80 C79 1.407 . S
C80 C81 1.365 . S
C81 H69 0.930 . S
C81 C80 1.365 . S
C81 C82 1.393 . S
C82 C81 1.393 . S
C82 C83 1.387 . S
C83 H70 0.930 . S
C83 C78 1.415 . S
C83 C82 1.387 . S
H84 C92 0.930 . S
H85 C95 0.930 . S
H86 C97 0.930 . S
H87 C98 0.970 1_554 S
H88 C98 0.970 . S
H89 C100 0.933 . S
H90 C102 0.930 . S
H91 C104 0.930 . S
C92 H84 0.930 . S
C92 C93 1.383 . S
C92 C94 1.426 1_554 S
C93 C92 1.383 . S
C93 C97 1.383 1_554 S
C94 C92 1.426 1_556 S
C94 C95 1.375 . S
C94 C98 1.532 . S
C95 H85 0.930 . S
C95 C94 1.375 . S
C95 C96 1.416 . S
C96 C95 1.416 . S
C96 C97 1.371 . S
C97 H86 0.930 . S
C97 C93 1.383 1_556 S
C97 C96 1.371 . S
C98 H87 0.970 1_556 S
C98 H88 0.970 . S
C98 C94 1.532 . S
C98 C99 1.492 1_546 S
C99 C98 1.492 1_564 S
C99 C100 1.403 . S
C99 C104 1.392 1_554 S
C100 H89 0.933 . S
C100 C99 1.403 . S
C100 C101 1.407 . S
C101 C100 1.407 . S
C101 C102 1.365 . S
C102 H90 0.930 . S
C102 C101 1.365 . S
C102 C103 1.393 1_554 S
C103 C102 1.393 1_556 S
C103 C104 1.387 . S
C104 H91 0.930 . S
C104 C99 1.392 1_556 S
C104 C103 1.387 . S
H105 C113 0.930 . S
H106 C116 0.930 . S
H107 C118 0.930 . S
H108 C119 0.970 . S
H109 C119 0.970 . S
H110 C121 0.930 . S
H111 C123 0.930 . S
H112 C125 0.930 . S
C113 H105 0.930 . S
C113 C114 1.382 . S
C113 C115 1.426 . S
C114 C113 1.382 . S
C114 C118 1.389 . S
C115 C113 1.426 . S
C115 C116 1.375 . S
C115 C119 1.532 . S
C116 H106 0.930 . S
C116 C115 1.375 . S
C116 C117 1.416 . S
C117 C116 1.416 . S
C117 C118 1.371 . S
C118 H107 0.930 . S
C118 C114 1.389 . S
C118 C117 1.371 . S
C119 H108 0.970 . S
C119 H109 0.970 . S
C119 C115 1.532 . S
C119 C120 1.499 . S
C120 C119 1.499 . S
C120 C121 1.370 . S
C120 C125 1.415 . S
C121 H110 0.930 . S
C121 C120 1.370 . S
C121 C122 1.407 . S
C122 C121 1.407 . S
C122 C123 1.365 . S
C123 H111 0.930 . S
C123 C122 1.365 . S
C123 C124 1.393 . S
C124 C123 1.393 . S
C124 C125 1.387 . S
C125 H112 0.930 . S
C125 C120 1.415 . S
C125 C124 1.387 . S
Li126 N143 1.990 . S
Li126 O186 1.956 . S
Li126 O187 1.970 . S
Li126 O188 1.961 . S
Li127 N151 1.990 . S
Li127 O186 1.970 . S
Li127 O187 1.956 . S
Li127 O189 1.961 . S
Li128 N173 1.990 . S
Li128 O186 1.961 . S
Li128 O188 1.956 . S
Li128 O189 1.970 . S
Li129 N179 1.990 . S
Li129 O187 1.961 . S
Li129 O188 1.970 . S
Li129 O189 1.956 . S
C130 C132 1.348 . S
C130 C133 1.356 . S
C130 O186 1.325 . S
N131 C134 1.314 . S
N131 C135 1.279 . S
C132 C130 1.348 . S
C132 C134 1.353 . S
C132 H190 0.929 . S
C133 C130 1.356 . S
C133 C135 1.358 . S
C133 H191 0.930 . S
C134 N131 1.314 . S
C134 C132 1.353 . S
C134 H192 0.930 . S
C135 N131 1.279 . S
C135 C133 1.358 . S
C135 H193 0.930 . S
C136 C139 1.348 . S
C136 C140 1.356 . S
C136 O187 1.325 . S
C137 N138 1.279 . S
C137 C140 1.358 . S
C137 H194 0.930 . S
N138 C137 1.279 . S
N138 C141 1.314 . S
C139 C136 1.348 . S
C139 C141 1.353 . S
C139 H195 0.929 . S
C140 C136 1.356 . S
C140 C137 1.358 . S
C140 H196 0.930 . S
C141 N138 1.314 . S
C141 C139 1.353 . S
C141 H197 0.930 . S
C142 N143 1.314 . S
C142 C147 1.353 . S
C142 H148 0.930 . S
N143 Li126 1.990 . S
N143 C142 1.314 . S
N143 C145 1.279 . S
C144 C145 1.358 . S
C144 C146 1.356 . S
C144 H198 0.930 . S
C145 N143 1.279 . S
C145 C144 1.358 . S
C145 H149 0.930 . S
C146 C144 1.356 . S
C146 C147 1.348 . S
C147 C142 1.353 . S
C147 C146 1.348 . S
C147 H199 0.929 . S
H148 C142 0.930 . S
H149 C145 0.930 . S
C150 N151 1.314 . S
C150 C152 1.353 . S
C150 H156 0.930 . S
N151 Li127 1.990 . S
N151 C150 1.314 . S
N151 C154 1.279 . S
C152 C150 1.353 . S
C152 C155 1.348 . S
C152 H200 0.929 . S
C153 C154 1.358 . S
C153 C155 1.356 . S
C153 H201 0.930 . S
C154 N151 1.279 . S
C154 C153 1.358 . S
C154 H157 0.930 . S
C155 C152 1.348 . S
C155 C153 1.356 . S
H156 C150 0.930 . S
H157 C154 0.930 . S
C158 C160 1.348 . S
C158 C161 1.356 . S
C158 O188 1.325 . S
N159 C162 1.314 . S
N159 C163 1.279 . S
C160 C158 1.348 . S
C160 C162 1.353 . S
C160 H202 0.929 . S
C161 C158 1.356 . S
C161 C163 1.358 . S
C161 H203 0.930 . S
C162 N159 1.314 . S
C162 C160 1.353 . S
C162 H204 0.930 . S
C163 N159 1.279 . S
C163 C161 1.358 . S
C163 H205 0.930 . S
C164 C165 1.348 . S
C164 C166 1.356 . S
C164 O189 1.325 . S
C165 C164 1.348 . S
C165 C167 1.353 . S
C165 H206 0.929 . S
C166 C164 1.356 . S
C166 C168 1.358 . S
C166 H207 0.930 . S
C167 C165 1.353 . S
C167 N169 1.314 . S
C167 H208 0.930 . S
C168 C166 1.358 . S
C168 N169 1.279 . S
C168 H209 0.930 . S
N169 C167 1.314 . S
N169 C168 1.279 . S
C170 C172 1.353 . S
C170 N173 1.314 . S
C170 H176 0.930 . S
C171 N173 1.279 . S
C171 C174 1.358 . S
C171 H177 0.930 . S
C172 C170 1.353 . S
C172 C175 1.348 . S
C172 H210 0.929 . S
N173 Li128 1.990 . S
N173 C170 1.314 . S
N173 C171 1.279 . S
C174 C171 1.358 . S
C174 C175 1.356 . S
C174 H211 0.930 . S
C175 C172 1.348 . S
C175 C174 1.356 . S
H176 C170 0.930 . S
H177 C171 0.930 . S
C178 N179 1.314 . S
C178 C180 1.353 . S
C178 H184 0.930 . S
N179 Li129 1.990 . S
N179 C178 1.314 . S
N179 C182 1.279 . S
C180 C178 1.353 . S
C180 C183 1.348 . S
C180 H212 0.929 . S
C181 C182 1.358 . S
C181 C183 1.356 . S
C181 H213 0.930 . S
C182 N179 1.279 . S
C182 C181 1.358 . S
C182 H185 0.930 . S
C183 C180 1.348 . S
C183 C181 1.356 . S
H184 C178 0.930 . S
H185 C182 0.930 . S
O186 Li126 1.956 . S
O186 Li127 1.970 . S
O186 Li128 1.961 . S
O186 C130 1.325 . S
O187 Li126 1.970 . S
O187 Li127 1.956 . S
O187 Li129 1.961 . S
O187 C136 1.325 . S
O188 Li126 1.961 . S
O188 Li128 1.956 . S
O188 Li129 1.970 . S
O188 C158 1.325 . S
O189 Li127 1.961 . S
O189 Li128 1.970 . S
O189 Li129 1.956 . S
O189 C164 1.325 . S
H190 C132 0.929 . S
H191 C133 0.930 . S
H192 C134 0.930 . S
H193 C135 0.930 . S
H194 C137 0.930 . S
H195 C139 0.929 . S
H196 C140 0.930 . S
H197 C141 0.930 . S
H198 C144 0.930 . S
H199 C147 0.929 . S
H200 C152 0.929 . S
H201 C153 0.930 . S
H202 C160 0.929 . S
H203 C161 0.930 . S
H204 C162 0.930 . S
H205 C163 0.930 . S
H206 C165 0.929 . S
H207 C166 0.930 . S
H208 C167 0.930 . S
H209 C168 0.930 . S
H210 C172 0.929 . S
H211 C174 0.930 . S
H212 C180 0.929 . S
H213 C181 0.930 . S
Li214 N231 1.990 . S
Li214 O274 1.956 . S
Li214 O275 1.970 . S
Li214 O276 1.961 . S
Li215 N239 1.990 . S
Li215 O274 1.970 . S
Li215 O275 1.956 . S
Li215 O277 1.961 . S
Li216 N261 1.990 . S
Li216 O274 1.961 . S
Li216 O276 1.956 . S
Li216 O277 1.970 . S
Li217 N267 1.990 . S
Li217 O275 1.961 . S
Li217 O276 1.970 . S
Li217 O277 1.956 . S
C218 C220 1.348 . S
C218 C221 1.356 . S
C218 O274 1.325 . S
N219 C222 1.314 . S
N219 C223 1.279 . S
C220 C218 1.348 . S
C220 C222 1.353 . S
C220 H278 0.929 . S
C221 C218 1.356 . S
C221 C223 1.358 . S
C221 H279 0.930 . S
C222 N219 1.314 . S
C222 C220 1.353 . S
C222 H280 0.930 . S
C223 N219 1.279 . S
C223 C221 1.358 . S
C223 H281 0.930 . S
C224 C227 1.348 . S
C224 C228 1.356 . S
C224 O275 1.325 . S
C225 N226 1.279 . S
C225 C228 1.358 . S
C225 H282 0.930 . S
N226 C225 1.279 . S
N226 C229 1.314 . S
C227 C224 1.348 . S
C227 C229 1.353 . S
C227 H283 0.929 . S
C228 C224 1.356 . S
C228 C225 1.358 . S
C228 H284 0.930 . S
C229 N226 1.314 . S
C229 C227 1.353 . S
C229 H285 0.930 . S
C230 N231 1.314 . S
C230 C235 1.353 . S
C230 H236 0.930 . S
N231 Li214 1.990 . S
N231 C230 1.314 . S
N231 C233 1.279 . S
C232 C233 1.358 . S
C232 C234 1.356 . S
C232 H286 0.930 . S
C233 N231 1.279 . S
C233 C232 1.358 . S
C233 H237 0.930 . S
C234 C232 1.356 . S
C234 C235 1.348 . S
C235 C230 1.353 . S
C235 C234 1.348 . S
C235 H287 0.929 . S
H236 C230 0.930 . S
H237 C233 0.930 . S
C238 N239 1.314 . S
C238 C240 1.353 . S
C238 H244 0.930 . S
N239 Li215 1.990 . S
N239 C238 1.314 . S
N239 C242 1.279 . S
C240 C238 1.353 . S
C240 C243 1.348 . S
C240 H288 0.929 . S
C241 C242 1.358 . S
C241 C243 1.356 . S
C241 H289 0.930 . S
C242 N239 1.279 . S
C242 C241 1.358 . S
C242 H245 0.930 . S
C243 C240 1.348 . S
C243 C241 1.356 . S
H244 C238 0.930 . S
H245 C242 0.930 . S
C246 C248 1.348 . S
C246 C249 1.356 . S
C246 O276 1.325 . S
N247 C250 1.314 . S
N247 C251 1.279 . S
C248 C246 1.348 . S
C248 C250 1.353 . S
C248 H290 0.929 . S
C249 C246 1.356 . S
C249 C251 1.358 . S
C249 H291 0.930 . S
C250 N247 1.314 . S
C250 C248 1.353 . S
C250 H292 0.930 . S
C251 N247 1.279 . S
C251 C249 1.358 . S
C251 H293 0.930 . S
C252 C253 1.348 . S
C252 C254 1.356 . S
C252 O277 1.325 . S
C253 C252 1.348 . S
C253 C255 1.353 . S
C253 H294 0.929 . S
C254 C252 1.356 . S
C254 C256 1.358 . S
C254 H295 0.930 . S
C255 C253 1.353 . S
C255 N257 1.314 . S
C255 H296 0.930 . S
C256 C254 1.358 . S
C256 N257 1.279 . S
C256 H297 0.930 . S
N257 C255 1.314 . S
N257 C256 1.279 . S
C258 C260 1.353 . S
C258 N261 1.314 . S
C258 H264 0.930 . S
C259 N261 1.279 . S
C259 C262 1.358 . S
C259 H265 0.930 . S
C260 C258 1.353 . S
C260 C263 1.348 . S
C260 H298 0.929 . S
N261 Li216 1.990 . S
N261 C258 1.314 . S
N261 C259 1.279 . S
C262 C259 1.358 . S
C262 C263 1.356 . S
C262 H299 0.930 . S
C263 C260 1.348 . S
C263 C262 1.356 . S
H264 C258 0.930 . S
H265 C259 0.930 . S
C266 N267 1.314 . S
C266 C268 1.353 . S
C266 H272 0.930 . S
N267 Li217 1.990 . S
N267 C266 1.314 . S
N267 C270 1.279 . S
C268 C266 1.353 . S
C268 C271 1.348 . S
C268 H300 0.929 . S
C269 C270 1.358 . S
C269 C271 1.356 . S
C269 H301 0.930 . S
C270 N267 1.279 . S
C270 C269 1.358 . S
C270 H273 0.930 . S
C271 C268 1.348 . S
C271 C269 1.356 . S
H272 C266 0.930 . S
H273 C270 0.930 . S
O274 Li214 1.956 . S
O274 Li215 1.970 . S
O274 Li216 1.961 . S
O274 C218 1.325 . S
O275 Li214 1.970 . S
O275 Li215 1.956 . S
O275 Li217 1.961 . S
O275 C224 1.325 . S
O276 Li214 1.961 . S
O276 Li216 1.956 . S
O276 Li217 1.970 . S
O276 C246 1.325 . S
O277 Li215 1.961 . S
O277 Li216 1.970 . S
O277 Li217 1.956 . S
O277 C252 1.325 . S
H278 C220 0.929 . S
H279 C221 0.930 . S
H280 C222 0.930 . S
H281 C223 0.930 . S
H282 C225 0.930 . S
H283 C227 0.929 . S
H284 C228 0.930 . S
H285 C229 0.930 . S
H286 C232 0.930 . S
H287 C235 0.929 . S
H288 C240 0.929 . S
H289 C241 0.930 . S
H290 C248 0.929 . S
H291 C249 0.930 . S
H292 C250 0.930 . S
H293 C251 0.930 . S
H294 C253 0.929 . S
H295 C254 0.930 . S
H296 C255 0.930 . S
H297 C256 0.930 . S
H298 C260 0.929 . S
H299 C262 0.930 . S
H300 C268 0.929 . S
H301 C269 0.930 . S
Li302 N319 1.990 . S
Li302 O362 1.956 . S
Li302 O363 1.970 . S
Li302 O364 1.961 . S
Li303 N327 1.990 . S
Li303 O362 1.970 . S
Li303 O363 1.956 . S
Li303 O365 1.961 . S
Li304 N349 1.990 . S
Li304 O362 1.961 . S
Li304 O364 1.956 . S
Li304 O365 1.970 . S
Li305 N355 1.990 . S
Li305 O363 1.961 . S
Li305 O364 1.970 . S
Li305 O365 1.956 . S
C306 C308 1.348 . S
C306 C309 1.356 . S
C306 O362 1.325 . S
N307 C310 1.314 . S
N307 C311 1.279 . S
C308 C306 1.348 . S
C308 C310 1.353 . S
C308 H366 0.929 . S
C309 C306 1.356 . S
C309 C311 1.358 . S
C309 H367 0.930 . S
C310 N307 1.314 . S
C310 C308 1.353 . S
C310 H368 0.930 . S
C311 N307 1.279 . S
C311 C309 1.358 . S
C311 H369 0.930 . S
C312 C315 1.348 . S
C312 C316 1.356 . S
C312 O363 1.325 . S
C313 N314 1.279 . S
C313 C316 1.358 . S
C313 H370 0.930 . S
N314 C313 1.279 . S
N314 C317 1.314 . S
C315 C312 1.348 . S
C315 C317 1.353 . S
C315 H371 0.929 . S
C316 C312 1.356 . S
C316 C313 1.358 . S
C316 H372 0.930 . S
C317 N314 1.314 . S
C317 C315 1.353 . S
C317 H373 0.930 . S
C318 N319 1.314 . S
C318 C323 1.353 . S
C318 H324 0.930 . S
N319 Li302 1.990 . S
N319 C318 1.314 . S
N319 C321 1.279 . S
C320 C321 1.358 . S
C320 C322 1.356 . S
C320 H374 0.930 . S
C321 N319 1.279 . S
C321 C320 1.358 . S
C321 H325 0.930 . S
C322 C320 1.356 . S
C322 C323 1.348 . S
C323 C318 1.353 . S
C323 C322 1.348 . S
C323 H375 0.929 . S
H324 C318 0.930 . S
H325 C321 0.930 . S
C326 N327 1.314 . S
C326 C328 1.353 . S
C326 H332 0.930 . S
N327 Li303 1.990 . S
N327 C326 1.314 . S
N327 C330 1.279 . S
C328 C326 1.353 . S
C328 C331 1.348 . S
C328 H376 0.929 . S
C329 C330 1.358 . S
C329 C331 1.356 . S
C329 H377 0.930 . S
C330 N327 1.279 . S
C330 C329 1.358 . S
C330 H333 0.930 . S
C331 C328 1.348 . S
C331 C329 1.356 . S
H332 C326 0.930 . S
H333 C330 0.930 . S
C334 C336 1.348 . S
C334 C337 1.356 . S
C334 O364 1.325 . S
N335 C338 1.314 . S
N335 C339 1.279 . S
C336 C334 1.348 . S
C336 C338 1.353 . S
C336 H378 0.929 . S
C337 C334 1.356 . S
C337 C339 1.358 . S
C337 H379 0.930 . S
C338 N335 1.314 . S
C338 C336 1.353 . S
C338 H380 0.930 . S
C339 N335 1.279 . S
C339 C337 1.358 . S
C339 H381 0.930 . S
C340 C341 1.348 . S
C340 C342 1.356 . S
C340 O365 1.325 . S
C341 C340 1.348 . S
C341 C343 1.353 . S
C341 H382 0.929 . S
C342 C340 1.356 . S
C342 C344 1.358 . S
C342 H383 0.930 . S
C343 C341 1.353 . S
C343 N345 1.314 . S
C343 H384 0.930 . S
C344 C342 1.358 . S
C344 N345 1.279 . S
C344 H385 0.930 . S
N345 C343 1.314 . S
N345 C344 1.279 . S
C346 C348 1.353 . S
C346 N349 1.314 . S
C346 H352 0.930 . S
C347 N349 1.279 . S
C347 C350 1.358 . S
C347 H353 0.930 . S
C348 C346 1.353 . S
C348 C351 1.348 . S
C348 H386 0.929 . S
N349 Li304 1.990 . S
N349 C346 1.314 . S
N349 C347 1.279 . S
C350 C347 1.358 . S
C350 C351 1.356 . S
C350 H387 0.930 . S
C351 C348 1.348 . S
C351 C350 1.356 . S
H352 C346 0.930 . S
H353 C347 0.930 . S
C354 N355 1.314 . S
C354 C356 1.353 . S
C354 H360 0.930 . S
N355 Li305 1.990 . S
N355 C354 1.314 . S
N355 C358 1.279 . S
C356 C354 1.353 . S
C356 C359 1.348 . S
C356 H388 0.929 . S
C357 C358 1.358 . S
C357 C359 1.356 . S
C357 H389 0.930 . S
C358 N355 1.279 . S
C358 C357 1.358 . S
C358 H361 0.930 . S
C359 C356 1.348 . S
C359 C357 1.356 . S
H360 C354 0.930 . S
H361 C358 0.930 . S
O362 Li302 1.956 . S
O362 Li303 1.970 . S
O362 Li304 1.961 . S
O362 C306 1.325 . S
O363 Li302 1.970 . S
O363 Li303 1.956 . S
O363 Li305 1.961 . S
O363 C312 1.325 . S
O364 Li302 1.961 . S
O364 Li304 1.956 . S
O364 Li305 1.970 . S
O364 C334 1.325 . S
O365 Li303 1.961 . S
O365 Li304 1.970 . S
O365 Li305 1.956 . S
O365 C340 1.325 . S
H366 C308 0.929 . S
H367 C309 0.930 . S
H368 C310 0.930 . S
H369 C311 0.930 . S
H370 C313 0.930 . S
H371 C315 0.929 . S
H372 C316 0.930 . S
H373 C317 0.930 . S
H374 C320 0.930 . S
H375 C323 0.929 . S
H376 C328 0.929 . S
H377 C329 0.930 . S
H378 C336 0.929 . S
H379 C337 0.930 . S
H380 C338 0.930 . S
H381 C339 0.930 . S
H382 C341 0.929 . S
H383 C342 0.930 . S
H384 C343 0.930 . S
H385 C344 0.930 . S
H386 C348 0.929 . S
H387 C350 0.930 . S
H388 C356 0.929 . S
H389 C357 0.930 . S
Li390 N407 1.990 . S
Li390 O450 1.956 . S
Li390 O451 1.970 . S
Li390 O452 1.961 . S
Li391 N415 1.990 . S
Li391 O450 1.970 . S
Li391 O451 1.956 . S
Li391 O453 1.961 . S
Li392 N437 1.990 . S
Li392 O450 1.961 . S
Li392 O452 1.956 . S
Li392 O453 1.970 . S
Li393 N443 1.990 . S
Li393 O451 1.961 . S
Li393 O452 1.970 . S
Li393 O453 1.956 . S
C394 C396 1.348 . S
C394 C397 1.356 . S
C394 O450 1.325 . S
N395 C398 1.314 . S
N395 C399 1.279 . S
C396 C394 1.348 . S
C396 C398 1.353 . S
C396 H454 0.929 . S
C397 C394 1.356 . S
C397 C399 1.358 . S
C397 H455 0.930 . S
C398 N395 1.314 . S
C398 C396 1.353 . S
C398 H456 0.930 . S
C399 N395 1.279 . S
C399 C397 1.358 . S
C399 H457 0.930 . S
C400 C403 1.348 . S
C400 C404 1.356 . S
C400 O451 1.325 . S
C401 N402 1.279 . S
C401 C404 1.358 . S
C401 H458 0.930 . S
N402 C401 1.279 . S
N402 C405 1.314 . S
C403 C400 1.348 . S
C403 C405 1.353 . S
C403 H459 0.929 . S
C404 C400 1.356 . S
C404 C401 1.358 . S
C404 H460 0.930 . S
C405 N402 1.314 . S
C405 C403 1.353 . S
C405 H461 0.930 . S
C406 N407 1.314 . S
C406 C411 1.353 . S
C406 H412 0.930 . S
N407 Li390 1.990 . S
N407 C406 1.314 . S
N407 C409 1.279 . S
C408 C409 1.358 1_554 S
C408 C410 1.356 . S
C408 H462 0.930 . S
C409 N407 1.279 . S
C409 C408 1.358 1_556 S
C409 H413 0.930 . S
C410 C408 1.356 . S
C410 C411 1.348 1_554 S
C411 C406 1.353 . S
C411 C410 1.348 1_556 S
C411 H463 0.929 . S
H412 C406 0.930 . S
H413 C409 0.930 . S
C414 N415 1.314 . S
C414 C416 1.353 . S
C414 H420 0.930 . S
N415 Li391 1.990 . S
N415 C414 1.314 . S
N415 C418 1.279 . S
C416 C414 1.353 . S
C416 C419 1.348 . S
C416 H464 0.929 . S
C417 C418 1.358 . S
C417 C419 1.356 . S
C417 H465 0.930 . S
C418 N415 1.279 . S
C418 C417 1.358 . S
C418 H421 0.930 . S
C419 C416 1.348 . S
C419 C417 1.356 . S
H420 C414 0.930 . S
H421 C418 0.930 . S
C422 C424 1.348 . S
C422 C425 1.356 . S
C422 O452 1.325 . S
N423 C426 1.314 . S
N423 C427 1.279 . S
C424 C422 1.348 . S
C424 C426 1.353 . S
C424 H466 0.929 . S
C425 C422 1.356 . S
C425 C427 1.358 . S
C425 H467 0.930 . S
C426 N423 1.314 . S
C426 C424 1.353 . S
C426 H468 0.930 . S
C427 N423 1.279 . S
C427 C425 1.358 . S
C427 H469 0.930 . S
C428 C429 1.348 . S
C428 C430 1.356 . S
C428 O453 1.325 . S
C429 C428 1.348 . S
C429 C431 1.353 . S
C429 H470 0.929 . S
C430 C428 1.356 . S
C430 C432 1.358 . S
C430 H471 0.930 . S
C431 C429 1.353 . S
C431 N433 1.314 . S
C431 H472 0.930 . S
C432 C430 1.358 . S
C432 N433 1.279 . S
C432 H473 0.930 . S
N433 C431 1.314 . S
N433 C432 1.279 . S
C434 C436 1.353 . S
C434 N437 1.314 . S
C434 H440 0.930 . S
C435 N437 1.279 . S
C435 C438 1.358 . S
C435 H441 0.930 . S
C436 C434 1.353 . S
C436 C439 1.348 . S
C436 H474 0.929 . S
N437 Li392 1.990 . S
N437 C434 1.314 . S
N437 C435 1.279 . S
C438 C435 1.358 . S
C438 C439 1.356 . S
C438 H475 0.930 . S
C439 C436 1.348 . S
C439 C438 1.356 . S
H440 C434 0.930 . S
H441 C435 0.930 . S
C442 N443 1.314 . S
C442 C444 1.353 . S
C442 H448 0.930 . S
N443 Li393 1.990 . S
N443 C442 1.314 . S
N443 C446 1.279 . S
C444 C442 1.353 . S
C444 C447 1.348 . S
C444 H476 0.929 . S
C445 C446 1.358 . S
C445 C447 1.356 . S
C445 H477 0.930 . S
C446 N443 1.279 . S
C446 C445 1.358 . S
C446 H449 0.930 . S
C447 C444 1.348 . S
C447 C445 1.356 . S
H448 C442 0.930 . S
H449 C446 0.930 . S
O450 Li390 1.956 . S
O450 Li391 1.970 . S
O450 Li392 1.961 . S
O450 C394 1.325 . S
O451 Li390 1.970 . S
O451 Li391 1.956 . S
O451 Li393 1.961 . S
O451 C400 1.325 . S
O452 Li390 1.961 . S
O452 Li392 1.956 . S
O452 Li393 1.970 . S
O452 C422 1.325 . S
O453 Li391 1.961 . S
O453 Li392 1.970 . S
O453 Li393 1.956 . S
O453 C428 1.325 . S
H454 C396 0.929 . S
H455 C397 0.930 . S
H456 C398 0.930 . S
H457 C399 0.930 . S
H458 C401 0.930 . S
H459 C403 0.929 . S
H460 C404 0.930 . S
H461 C405 0.930 . S
H462 C408 0.930 . S
H463 C411 0.929 . S
H464 C416 0.929 . S
H465 C417 0.930 . S
H466 C424 0.929 . S
H467 C425 0.930 . S
H468 C426 0.930 . S
H469 C427 0.930 . S
H470 C429 0.929 . S
H471 C430 0.930 . S
H472 C431 0.930 . S
H473 C432 0.930 . S
H474 C436 0.929 . S
H475 C438 0.930 . S
H476 C444 0.929 . S
H477 C445 0.930 . S
Li478 N495 1.990 . S
Li478 O538 1.956 . S
Li478 O539 1.970 . S
Li478 O540 1.961 . S
Li479 N503 1.990 . S
Li479 O538 1.970 . S
Li479 O539 1.956 . S
Li479 O541 1.961 . S
Li480 N525 1.990 . S
Li480 O538 1.961 . S
Li480 O540 1.956 . S
Li480 O541 1.970 . S
Li481 N531 1.990 . S
Li481 O539 1.961 . S
Li481 O540 1.970 . S
Li481 O541 1.956 . S
C482 C484 1.348 . S
C482 C485 1.356 . S
C482 O538 1.325 . S
N483 C486 1.314 . S
N483 C487 1.279 . S
C484 C482 1.348 . S
C484 C486 1.353 . S
C484 H542 0.929 . S
C485 C482 1.356 . S
C485 C487 1.358 . S
C485 H543 0.930 . S
C486 N483 1.314 . S
C486 C484 1.353 . S
C486 H544 0.930 . S
C487 N483 1.279 . S
C487 C485 1.358 . S
C487 H545 0.930 . S
C488 C491 1.348 . S
C488 C492 1.356 . S
C488 O539 1.325 . S
C489 N490 1.279 . S
C489 C492 1.358 . S
C489 H546 0.930 . S
N490 C489 1.279 . S
N490 C493 1.314 . S
C491 C488 1.348 . S
C491 C493 1.353 . S
C491 H547 0.929 . S
C492 C488 1.356 . S
C492 C489 1.358 . S
C492 H548 0.930 . S
C493 N490 1.314 . S
C493 C491 1.353 . S
C493 H549 0.930 . S
C494 N495 1.314 . S
C494 C499 1.353 . S
C494 H500 0.930 . S
N495 Li478 1.990 . S
N495 C494 1.314 . S
N495 C497 1.279 . S
C496 C497 1.358 . S
C496 C498 1.356 . S
C496 H550 0.930 . S
C497 N495 1.279 . S
C497 C496 1.358 . S
C497 H501 0.930 . S
C498 C496 1.356 . S
C498 C499 1.348 . S
C499 C494 1.353 . S
C499 C498 1.348 . S
C499 H551 0.929 . S
H500 C494 0.930 . S
H501 C497 0.930 . S
C502 N503 1.314 . S
C502 C504 1.353 . S
C502 H508 0.930 . S
N503 Li479 1.990 . S
N503 C502 1.314 . S
N503 C506 1.279 . S
C504 C502 1.353 . S
C504 C507 1.348 . S
C504 H552 0.929 . S
C505 C506 1.358 . S
C505 C507 1.356 . S
C505 H553 0.930 . S
C506 N503 1.279 . S
C506 C505 1.358 . S
C506 H509 0.930 . S
C507 C504 1.348 . S
C507 C505 1.356 . S
H508 C502 0.930 . S
H509 C506 0.930 . S
C510 C512 1.348 . S
C510 C513 1.356 . S
C510 O540 1.325 . S
N511 C514 1.314 1_556 S
N511 C515 1.279 1_556 S
C512 C510 1.348 . S
C512 C514 1.353 . S
C512 H554 0.929 . S
C513 C510 1.356 . S
C513 C515 1.358 . S
C513 H555 0.930 . S
C514 N511 1.314 1_554 S
C514 C512 1.353 . S
C514 H556 0.930 1_554 S
C515 N511 1.279 1_554 S
C515 C513 1.358 . S
C515 H557 0.928 1_554 S
C516 C517 1.348 . S
C516 C518 1.356 . S
C516 O541 1.325 . S
C517 C516 1.348 . S
C517 C519 1.353 . S
C517 H558 0.929 . S
C518 C516 1.356 . S
C518 C520 1.358 . S
C518 H559 0.930 . S
C519 C517 1.353 . S
C519 N521 1.314 . S
C519 H560 0.930 . S
C520 C518 1.358 . S
C520 N521 1.279 . S
C520 H561 0.930 . S
N521 C519 1.314 . S
N521 C520 1.279 . S
C522 C524 1.353 . S
C522 N525 1.314 . S
C522 H528 0.930 . S
C523 N525 1.279 . S
C523 C526 1.358 1_554 S
C523 H529 0.930 . S
C524 C522 1.353 . S
C524 C527 1.348 1_554 S
C524 H562 0.929 . S
N525 Li480 1.990 . S
N525 C522 1.314 . S
N525 C523 1.279 . S
C526 C523 1.358 1_556 S
C526 C527 1.356 . S
C526 H563 0.930 . S
C527 C524 1.348 1_556 S
C527 C526 1.356 . S
H528 C522 0.930 . S
H529 C523 0.930 . S
C530 N531 1.314 . S
C530 C532 1.353 . S
C530 H536 0.930 . S
N531 Li481 1.990 . S
N531 C530 1.314 . S
N531 C534 1.279 . S
C532 C530 1.353 . S
C532 C535 1.348 . S
C532 H564 0.929 . S
C533 C534 1.358 . S
C533 C535 1.356 . S
C533 H565 0.930 . S
C534 N531 1.279 . S
C534 C533 1.358 . S
C534 H537 0.930 . S
C535 C532 1.348 . S
C535 C533 1.356 . S
H536 C530 0.930 . S
H537 C534 0.930 . S
O538 Li478 1.956 . S
O538 Li479 1.970 . S
O538 Li480 1.961 . S
O538 C482 1.325 . S
O539 Li478 1.970 . S
O539 Li479 1.956 . S
O539 Li481 1.961 . S
O539 C488 1.325 . S
O540 Li478 1.961 . S
O540 Li480 1.956 . S
O540 Li481 1.970 . S
O540 C510 1.325 . S
O541 Li479 1.961 . S
O541 Li480 1.970 . S
O541 Li481 1.956 . S
O541 C516 1.325 . S
H542 C484 0.929 . S
H543 C485 0.930 . S
H544 C486 0.930 . S
H545 C487 0.930 . S
H546 C489 0.930 . S
H547 C491 0.929 . S
H548 C492 0.930 . S
H549 C493 0.930 . S
H550 C496 0.930 . S
H551 C499 0.929 . S
H552 C504 0.929 . S
H553 C505 0.930 . S
H554 C512 0.929 . S
H555 C513 0.930 . S
H556 C514 0.930 1_556 S
H557 C515 0.928 1_556 S
H558 C517 0.929 . S
H559 C518 0.930 . S
H560 C519 0.930 . S
H561 C520 0.930 . S
H562 C524 0.929 . S
H563 C526 0.930 . S
H564 C532 0.929 . S
H565 C533 0.930 . S
Li566 N583 1.990 . S
Li566 O626 1.956 . S
Li566 O627 1.970 . S
Li566 O628 1.961 . S
Li567 N591 1.990 . S
Li567 O626 1.970 . S
Li567 O627 1.956 . S
Li567 O629 1.961 . S
Li568 N613 1.990 . S
Li568 O626 1.961 . S
Li568 O628 1.956 . S
Li568 O629 1.970 . S
Li569 N619 1.990 . S
Li569 O627 1.961 . S
Li569 O628 1.970 . S
Li569 O629 1.956 . S
C570 C572 1.348 . S
C570 C573 1.356 . S
C570 O626 1.325 . S
N571 C574 1.314 . S
N571 C575 1.279 . S
C572 C570 1.348 . S
C572 C574 1.353 . S
C572 H630 0.929 . S
C573 C570 1.356 . S
C573 C575 1.358 . S
C573 H631 0.930 . S
C574 N571 1.314 . S
C574 C572 1.353 . S
C574 H632 0.930 . S
C575 N571 1.279 . S
C575 C573 1.358 . S
C575 H633 0.930 . S
C576 C579 1.348 . S
C576 C580 1.356 . S
C576 O627 1.325 . S
C577 N578 1.279 . S
C577 C580 1.358 . S
C577 H634 0.930 . S
N578 C577 1.279 . S
N578 C581 1.314 . S
C579 C576 1.348 . S
C579 C581 1.353 . S
C579 H635 0.929 . S
C580 C576 1.356 . S
C580 C577 1.358 . S
C580 H636 0.930 . S
C581 N578 1.314 . S
C581 C579 1.353 . S
C581 H637 0.930 . S
C582 N583 1.314 . S
C582 C587 1.353 . S
C582 H588 0.930 . S
N583 Li566 1.990 . S
N583 C582 1.314 . S
N583 C585 1.279 . S
C584 C585 1.358 . S
C584 C586 1.356 . S
C584 H638 0.930 . S
C585 N583 1.279 . S
C585 C584 1.358 . S
C585 H589 0.930 . S
C586 C584 1.356 . S
C586 C587 1.348 . S
C587 C582 1.353 . S
C587 C586 1.348 . S
C587 H639 0.929 . S
H588 C582 0.930 . S
H589 C585 0.930 . S
C590 N591 1.314 . S
C590 C592 1.353 . S
C590 H596 0.930 . S
N591 Li567 1.990 . S
N591 C590 1.314 . S
N591 C594 1.279 . S
C592 C590 1.353 . S
C592 C595 1.348 . S
C592 H640 0.929 . S
C593 C594 1.358 . S
C593 C595 1.356 . S
C593 H641 0.930 . S
C594 N591 1.279 . S
C594 C593 1.358 . S
C594 H597 0.930 . S
C595 C592 1.348 . S
C595 C593 1.356 . S
H596 C590 0.930 . S
H597 C594 0.930 . S
C598 C600 1.348 . S
C598 C601 1.356 . S
C598 O628 1.325 . S
N599 C602 1.314 . S
N599 C603 1.279 . S
C600 C598 1.348 . S
C600 C602 1.353 . S
C600 H642 0.929 . S
C601 C598 1.356 . S
C601 C603 1.358 . S
C601 H643 0.930 . S
C602 N599 1.314 . S
C602 C600 1.353 . S
C602 H644 0.930 . S
C603 N599 1.279 . S
C603 C601 1.358 . S
C603 H645 0.930 . S
C604 C605 1.348 . S
C604 C606 1.356 . S
C604 O629 1.325 . S
C605 C604 1.348 . S
C605 C607 1.353 . S
C605 H646 0.929 . S
C606 C604 1.356 . S
C606 C608 1.358 . S
C606 H647 0.930 . S
C607 C605 1.353 . S
C607 N609 1.314 . S
C607 H648 0.930 . S
C608 C606 1.358 . S
C608 N609 1.279 . S
C608 H649 0.930 . S
N609 C607 1.314 . S
N609 C608 1.279 . S
C610 C612 1.353 . S
C610 N613 1.314 . S
C610 H616 0.930 . S
C611 N613 1.279 . S
C611 C614 1.358 . S
C611 H617 0.930 . S
C612 C610 1.353 . S
C612 C615 1.348 . S
C612 H650 0.929 . S
N613 Li568 1.990 . S
N613 C610 1.314 . S
N613 C611 1.279 . S
C614 C611 1.358 . S
C614 C615 1.356 . S
C614 H651 0.930 . S
C615 C612 1.348 . S
C615 C614 1.356 . S
H616 C610 0.930 . S
H617 C611 0.930 . S
C618 N619 1.314 . S
C618 C620 1.353 . S
C618 H624 0.930 . S
N619 Li569 1.990 . S
N619 C618 1.314 . S
N619 C622 1.279 . S
C620 C618 1.353 . S
C620 C623 1.348 . S
C620 H652 0.929 . S
C621 C622 1.358 . S
C621 C623 1.356 . S
C621 H653 0.930 . S
C622 N619 1.279 . S
C622 C621 1.358 . S
C622 H625 0.930 . S
C623 C620 1.348 . S
C623 C621 1.356 . S
H624 C618 0.930 . S
H625 C622 0.930 . S
O626 Li566 1.956 . S
O626 Li567 1.970 . S
O626 Li568 1.961 . S
O626 C570 1.325 . S
O627 Li566 1.970 . S
O627 Li567 1.956 . S
O627 Li569 1.961 . S
O627 C576 1.325 . S
O628 Li566 1.961 . S
O628 Li568 1.956 . S
O628 Li569 1.970 . S
O628 C598 1.325 . S
O629 Li567 1.961 . S
O629 Li568 1.970 . S
O629 Li569 1.956 . S
O629 C604 1.325 . S
H630 C572 0.929 . S
H631 C573 0.930 . S
H632 C574 0.930 . S
H633 C575 0.930 . S
H634 C577 0.930 . S
H635 C579 0.929 . S
H636 C580 0.930 . S
H637 C581 0.930 . S
H638 C584 0.930 . S
H639 C587 0.929 . S
H640 C592 0.929 . S
H641 C593 0.930 . S
H642 C600 0.929 . S
H643 C601 0.930 . S
H644 C602 0.930 . S
H645 C603 0.930 . S
H646 C605 0.929 . S
H647 C606 0.930 . S
H648 C607 0.930 . S
H649 C608 0.930 . S
H650 C612 0.929 . S
H651 C614 0.930 . S
H652 C620 0.929 . S
H653 C621 0.930 . S
H654 C662 0.950 . S
H655 C667 0.950 . S
H656 C664 0.950 . S
H657 C666 0.950 . S
H658 C668 0.950 . S
H659 C670 0.950 . S
H660 C672 0.950 . S
H661 C673 0.950 . S
C662 H654 0.950 . S
C662 C663 1.386 . S
C662 C664 1.391 . S
C663 C662 1.386 . S
C663 C667 1.393 . S
C664 H656 0.950 . S
C664 C662 1.391 . S
C664 C665 1.400 . S
C665 C664 1.400 . S
C665 C666 1.398 . S
C665 C671 1.491 . S
C666 H657 0.950 . S
C666 C665 1.398 . S
C666 C667 1.391 . S
C667 H655 0.950 . S
C667 C663 1.393 . S
C667 C666 1.391 . S
C668 H658 0.950 . S
C668 C669 1.386 . S
C668 C670 1.391 . S
C669 C668 1.386 . S
C669 C673 1.393 . S
C670 H659 0.950 . S
C670 C668 1.391 . S
C670 C671 1.400 . S
C671 C665 1.491 . S
C671 C670 1.400 . S
C671 C672 1.398 . S
C672 H660 0.950 . S
C672 C671 1.398 . S
C672 C673 1.391 . S
C673 H661 0.950 . S
C673 C669 1.393 . S
C673 C672 1.391 . S
H674 C682 0.950 . S
H675 C687 0.950 . S
H676 C684 0.950 . S
H677 C686 0.950 . S
H678 C688 0.950 . S
H679 C690 0.950 . S
H680 C692 0.950 . S
H681 C693 0.950 . S
C682 H674 0.950 . S
C682 C683 1.386 . S
C682 C684 1.391 . S
C683 C682 1.386 . S
C683 C687 1.393 . S
C684 H676 0.950 . S
C684 C682 1.391 . S
C684 C685 1.400 . S
C685 C684 1.400 . S
C685 C686 1.398 . S
C685 C691 1.491 . S
C686 H677 0.950 . S
C686 C685 1.398 . S
C686 C687 1.391 . S
C687 H675 0.950 . S
C687 C683 1.393 . S
C687 C686 1.391 . S
C688 H678 0.950 . S
C688 C689 1.386 . S
C688 C690 1.391 . S
C689 C688 1.386 . S
C689 C693 1.393 . S
C690 H679 0.950 . S
C690 C688 1.391 . S
C690 C691 1.400 . S
C691 C685 1.491 . S
C691 C690 1.400 . S
C691 C692 1.398 . S
C692 H680 0.950 . S
C692 C691 1.398 . S
C692 C693 1.391 . S
C693 H681 0.950 . S
C693 C689 1.393 . S
C693 C692 1.391 . S
H694 C702 0.950 . S
H695 C707 0.950 . S
H696 C704 0.950 . S
H697 C706 0.950 . S
H698 C708 0.950 . S
H699 C710 0.950 . S
H700 C712 0.950 . S
H701 C713 0.950 . S
C702 H694 0.950 . S
C702 C703 1.386 . S
C702 C704 1.391 . S
C703 C702 1.386 . S
C703 C707 1.393 . S
C704 H696 0.950 . S
C704 C702 1.391 . S
C704 C705 1.400 . S
C705 C704 1.400 . S
C705 C706 1.398 . S
C705 C711 1.491 . S
C706 H697 0.950 . S
C706 C705 1.398 . S
C706 C707 1.391 . S
C707 H695 0.950 . S
C707 C703 1.393 . S
C707 C706 1.391 . S
C708 H698 0.950 . S
C708 C709 1.386 . S
C708 C710 1.391 . S
C709 C708 1.386 . S
C709 C713 1.393 . S
C710 H699 0.950 . S
C710 C708 1.391 . S
C710 C711 1.400 . S
C711 C705 1.491 . S
C711 C710 1.400 . S
C711 C712 1.398 . S
C712 H700 0.950 . S
C712 C711 1.398 . S
C712 C713 1.391 . S
C713 H701 0.950 . S
C713 C709 1.393 . S
C713 C712 1.391 . S
H714 C722 0.950 . S
H715 C727 0.950 . S
H716 C724 0.950 . S
H717 C726 0.950 . S
H718 C728 0.950 . S
H719 C730 0.950 . S
H720 C732 0.950 . S
H721 C733 0.950 . S
C722 H714 0.950 . S
C722 C723 1.386 . S
C722 C724 1.391 . S
C723 C722 1.386 . S
C723 C727 1.393 . S
C724 H716 0.950 . S
C724 C722 1.391 . S
C724 C725 1.400 . S
C725 C724 1.400 . S
C725 C726 1.398 . S
C725 C731 1.491 . S
C726 H717 0.950 . S
C726 C725 1.398 . S
C726 C727 1.391 . S
C727 H715 0.950 . S
C727 C723 1.393 . S
C727 C726 1.391 . S
C728 H718 0.950 . S
C728 C729 1.386 . S
C728 C730 1.391 . S
C729 C728 1.386 . S
C729 C733 1.393 . S
C730 H719 0.950 . S
C730 C728 1.391 . S
C730 C731 1.400 . S
C731 C725 1.491 . S
C731 C730 1.400 . S
C731 C732 1.398 . S
C732 H720 0.950 . S
C732 C731 1.398 . S
C732 C733 1.391 . S
C733 H721 0.950 . S
C733 C729 1.393 . S
C733 C732 1.391 . S
H734 C742 0.950 . S
H735 C747 0.950 . S
H736 C744 0.950 . S
H737 C746 0.950 . S
H738 C748 0.950 . S
H739 C750 0.950 . S
H740 C752 0.950 . S
H741 C753 0.950 . S
C742 H734 0.950 . S
C742 C743 1.386 . S
C742 C744 1.391 . S
C743 C742 1.386 . S
C743 C747 1.393 . S
C744 H736 0.950 . S
C744 C742 1.391 . S
C744 C745 1.400 . S
C745 C744 1.400 . S
C745 C746 1.398 . S
C745 C751 1.491 . S
C746 H737 0.950 . S
C746 C745 1.398 . S
C746 C747 1.391 . S
C747 H735 0.950 . S
C747 C743 1.393 . S
C747 C746 1.391 . S
C748 H738 0.950 . S
C748 C749 1.386 . S
C748 C750 1.391 . S
C749 C748 1.386 . S
C749 C753 1.393 . S
C750 H739 0.950 . S
C750 C748 1.391 . S
C750 C751 1.400 . S
C751 C745 1.491 . S
C751 C750 1.400 . S
C751 C752 1.398 . S
C752 H740 0.950 . S
C752 C751 1.398 . S
C752 C753 1.391 . S
C753 H741 0.950 . S
C753 C749 1.393 . S
C753 C752 1.391 . S
H754 C762 0.950 . S
H755 C767 0.950 . S
H756 C764 0.950 . S
H757 C766 0.950 . S
H758 C768 0.950 . S
H759 C770 0.950 . S
H760 C772 0.950 . S
H761 C773 0.950 . S
C762 H754 0.950 . S
C762 C763 1.386 . S
C762 C764 1.391 . S
C763 C762 1.386 . S
C763 C767 1.393 . S
C764 H756 0.950 . S
C764 C762 1.391 . S
C764 C765 1.400 . S
C765 C764 1.400 . S
C765 C766 1.398 . S
C765 C771 1.491 . S
C766 H757 0.950 . S
C766 C765 1.398 . S
C766 C767 1.391 . S
C767 H755 0.950 . S
C767 C763 1.393 . S
C767 C766 1.391 . S
C768 H758 0.950 . S
C768 C769 1.386 . S
C768 C770 1.391 . S
C769 C768 1.386 . S
C769 C773 1.393 . S
C770 H759 0.950 . S
C770 C768 1.391 . S
C770 C771 1.400 . S
C771 C765 1.491 . S
C771 C770 1.400 . S
C771 C772 1.398 . S
C772 H760 0.950 . S
C772 C771 1.398 . S
C772 C773 1.391 . S
C773 H761 0.950 . S
C773 C769 1.393 . S
C773 C772 1.391 . S
H774 C782 0.950 . S
H775 C787 0.950 . S
H776 C784 0.950 . S
H777 C786 0.950 . S
H778 C788 0.950 . S
H779 C790 0.950 . S
H780 C792 0.950 . S
H781 C793 0.950 . S
C782 H774 0.950 . S
C782 C783 1.386 . S
C782 C784 1.391 . S
C783 C782 1.386 . S
C783 C787 1.393 . S
C784 H776 0.950 . S
C784 C782 1.391 . S
C784 C785 1.400 . S
C785 C784 1.400 . S
C785 C786 1.398 . S
C785 C791 1.491 . S
C786 H777 0.950 . S
C786 C785 1.398 . S
C786 C787 1.391 . S
C787 H775 0.950 . S
C787 C783 1.393 . S
C787 C786 1.391 . S
C788 H778 0.950 . S
C788 C789 1.386 . S
C788 C790 1.391 . S
C789 C788 1.386 . S
C789 C793 1.393 . S
C790 H779 0.950 . S
C790 C788 1.391 . S
C790 C791 1.400 . S
C791 C785 1.491 . S
C791 C790 1.400 . S
C791 C792 1.398 . S
C792 H780 0.950 . S
C792 C791 1.398 . S
C792 C793 1.391 . S
C793 H781 0.950 . S
C793 C789 1.393 . S
C793 C792 1.391 . S
H794 C802 0.950 . S
H795 C807 0.950 . S
H796 C804 0.950 . S
H797 C806 0.950 . S
H798 C808 0.950 . S
H799 C810 0.950 . S
H800 C812 0.950 . S
H801 C813 0.950 . S
C802 H794 0.950 . S
C802 C803 1.386 . S
C802 C804 1.391 . S
C803 C802 1.386 . S
C803 C807 1.393 . S
C804 H796 0.950 . S
C804 C802 1.391 . S
C804 C805 1.400 . S
C805 C804 1.400 . S
C805 C806 1.398 . S
C805 C811 1.491 . S
C806 H797 0.950 . S
C806 C805 1.398 . S
C806 C807 1.391 . S
C807 H795 0.950 . S
C807 C803 1.393 . S
C807 C806 1.391 . S
C808 H798 0.950 . S
C808 C809 1.386 . S
C808 C810 1.391 . S
C809 C808 1.386 . S
C809 C813 1.393 . S
C810 H799 0.950 . S
C810 C808 1.391 . S
C810 C811 1.400 . S
C811 C805 1.491 . S
C811 C810 1.400 . S
C811 C812 1.398 . S
C812 H800 0.950 . S
C812 C811 1.398 . S
C812 C813 1.391 . S
C813 H801 0.950 . S
C813 C809 1.393 . S
C813 C812 1.391 . S
H814 C822 0.950 . S
H815 C827 0.950 . S
H816 C824 0.950 . S
H817 C826 0.950 . S
H818 C828 0.950 . S
H819 C830 0.950 . S
H820 C832 0.950 . S
H821 C833 0.950 . S
C822 H814 0.950 . S
C822 C823 1.386 . S
C822 C824 1.391 . S
C823 C822 1.386 . S
C823 C827 1.393 . S
C824 H816 0.950 . S
C824 C822 1.391 . S
C824 C825 1.400 . S
C825 C824 1.400 . S
C825 C826 1.398 . S
C825 C831 1.491 . S
C826 H817 0.950 . S
C826 C825 1.398 . S
C826 C827 1.391 . S
C827 H815 0.950 . S
C827 C823 1.393 . S
C827 C826 1.391 . S
C828 H818 0.950 . S
C828 C829 1.386 . S
C828 C830 1.391 . S
C829 C828 1.386 . S
C829 C833 1.393 . S
C830 H819 0.950 . S
C830 C828 1.391 . S
C830 C831 1.400 . S
C831 C825 1.491 . S
C831 C830 1.400 . S
C831 C832 1.398 . S
C832 H820 0.950 . S
C832 C831 1.398 . S
C832 C833 1.391 . S
C833 H821 0.950 . S
C833 C829 1.393 . S
C833 C832 1.391 . S
H834 C842 0.950 . S
H835 C847 0.950 . S
H836 C844 0.950 . S
H837 C846 0.950 . S
H838 C848 0.950 . S
H839 C850 0.950 . S
H840 C852 0.950 . S
H841 C853 0.950 . S
C842 H834 0.950 . S
C842 C843 1.386 . S
C842 C844 1.391 . S
C843 C842 1.386 . S
C843 C847 1.393 . S
C844 H836 0.950 . S
C844 C842 1.391 . S
C844 C845 1.400 . S
C845 C844 1.400 . S
C845 C846 1.398 . S
C845 C851 1.491 . S
C846 H837 0.950 . S
C846 C845 1.398 . S
C846 C847 1.391 . S
C847 H835 0.950 . S
C847 C843 1.393 . S
C847 C846 1.391 . S
C848 H838 0.950 . S
C848 C849 1.386 . S
C848 C850 1.391 . S
C849 C848 1.386 . S
C849 C853 1.393 . S
C850 H839 0.950 . S
C850 C848 1.391 . S
C850 C851 1.400 . S
C851 C845 1.491 . S
C851 C850 1.400 . S
C851 C852 1.398 . S
C852 H840 0.950 . S
C852 C851 1.398 . S
C852 C853 1.391 . S
C853 H841 0.950 . S
C853 C849 1.393 . S
C853 C852 1.391 . S
H854 C862 0.950 . S
H855 C867 0.950 . S
H856 C864 0.950 . S
H857 C866 0.950 . S
H858 C868 0.950 . S
H859 C870 0.950 . S
H860 C872 0.950 . S
H861 C873 0.950 . S
C862 H854 0.950 . S
C862 C863 1.386 . S
C862 C864 1.391 . S
C863 C862 1.386 . S
C863 C867 1.393 . S
C864 H856 0.950 . S
C864 C862 1.391 . S
C864 C865 1.400 . S
C865 C864 1.400 . S
C865 C866 1.398 . S
C865 C871 1.491 . S
C866 H857 0.950 . S
C866 C865 1.398 . S
C866 C867 1.391 . S
C867 H855 0.950 . S
C867 C863 1.393 . S
C867 C866 1.391 . S
C868 H858 0.950 . S
C868 C869 1.386 . S
C868 C870 1.391 . S
C869 C868 1.386 . S
C869 C873 1.393 . S
C870 H859 0.950 . S
C870 C868 1.391 . S
C870 C871 1.400 . S
C871 C865 1.491 . S
C871 C870 1.400 . S
C871 C872 1.398 . S
C872 H860 0.950 . S
C872 C871 1.398 . S
C872 C873 1.391 . S
C873 H861 0.950 . S
C873 C869 1.393 . S
C873 C872 1.391 . S
H874 C882 0.950 . S
H875 C887 0.950 . S
H876 C884 0.950 . S
H877 C886 0.950 . S
H878 C888 0.950 . S
H879 C890 0.950 . S
H880 C892 0.950 . S
H881 C893 0.950 . S
C882 H874 0.950 . S
C882 C883 1.386 . S
C882 C884 1.391 . S
C883 C882 1.386 . S
C883 C887 1.393 . S
C884 H876 0.950 . S
C884 C882 1.391 . S
C884 C885 1.400 . S
C885 C884 1.400 . S
C885 C886 1.398 . S
C885 C891 1.491 . S
C886 H877 0.950 . S
C886 C885 1.398 . S
C886 C887 1.391 . S
C887 H875 0.950 . S
C887 C883 1.393 . S
C887 C886 1.391 . S
C888 H878 0.950 . S
C888 C889 1.386 . S
C888 C890 1.391 . S
C889 C888 1.386 . S
C889 C893 1.393 . S
C890 H879 0.950 . S
C890 C888 1.391 . S
C890 C891 1.400 . S
C891 C885 1.491 . S
C891 C890 1.400 . S
C891 C892 1.398 . S
C892 H880 0.950 . S
C892 C891 1.398 . S
C892 C893 1.391 . S
C893 H881 0.950 . S
C893 C889 1.393 . S
C893 C892 1.391 . S
H894 C902 0.950 . S
H895 C907 0.950 . S
H896 C904 0.950 . S
H897 C906 0.950 . S
H898 C908 0.950 . S
H899 C910 0.950 . S
H900 C912 0.950 . S
H901 C913 0.950 . S
C902 H894 0.950 . S
C902 C903 1.386 . S
C902 C904 1.391 . S
C903 C902 1.386 . S
C903 C907 1.393 . S
C904 H896 0.950 . S
C904 C902 1.391 . S
C904 C905 1.400 . S
C905 C904 1.400 . S
C905 C906 1.398 . S
C905 C911 1.491 . S
C906 H897 0.950 . S
C906 C905 1.398 . S
C906 C907 1.391 . S
C907 H895 0.950 . S
C907 C903 1.393 . S
C907 C906 1.391 . S
C908 H898 0.950 . S
C908 C909 1.386 . S
C908 C910 1.391 . S
C909 C908 1.386 . S
C909 C913 1.393 . S
C910 H899 0.950 . S
C910 C908 1.391 . S
C910 C911 1.400 . S
C911 C905 1.491 . S
C911 C910 1.400 . S
C911 C912 1.398 . S
C912 H900 0.950 . S
C912 C911 1.398 . S
C912 C913 1.391 . S
C913 H901 0.950 . S
C913 C909 1.393 . S
C913 C912 1.391 . S
H914 C922 0.950 . S
H915 C927 0.950 . S
H916 C924 0.950 . S
H917 C926 0.950 . S
H918 C928 0.950 . S
H919 C930 0.950 . S
H920 C932 0.950 . S
H921 C933 0.950 . S
C922 H914 0.950 . S
C922 C923 1.386 . S
C922 C924 1.391 . S
C923 C922 1.386 . S
C923 C927 1.393 . S
C924 H916 0.950 . S
C924 C922 1.391 . S
C924 C925 1.400 . S
C925 C924 1.400 . S
C925 C926 1.398 . S
C925 C931 1.491 . S
C926 H917 0.950 . S
C926 C925 1.398 . S
C926 C927 1.391 . S
C927 H915 0.950 . S
C927 C923 1.393 . S
C927 C926 1.391 . S
C928 H918 0.950 . S
C928 C929 1.386 . S
C928 C930 1.391 . S
C929 C928 1.386 . S
C929 C933 1.393 . S
C930 H919 0.950 . S
C930 C928 1.391 . S
C930 C931 1.400 . S
C931 C925 1.491 . S
C931 C930 1.400 . S
C931 C932 1.398 . S
C932 H920 0.950 . S
C932 C931 1.398 . S
C932 C933 1.391 . S
C933 H921 0.950 . S
C933 C929 1.393 . S
C933 C932 1.391 . S
H934 C942 0.950 . S
H935 C947 0.950 . S
H936 C944 0.950 . S
H937 C946 0.950 . S
H938 C948 0.950 . S
H939 C950 0.950 . S
H940 C952 0.950 . S
H941 C953 0.950 . S
C942 H934 0.950 . S
C942 C943 1.386 . S
C942 C944 1.391 . S
C943 C942 1.386 . S
C943 C947 1.393 . S
C944 H936 0.950 . S
C944 C942 1.391 . S
C944 C945 1.400 . S
C945 C944 1.400 . S
C945 C946 1.398 . S
C945 C951 1.491 . S
C946 H937 0.950 . S
C946 C945 1.398 . S
C946 C947 1.391 . S
C947 H935 0.950 . S
C947 C943 1.393 . S
C947 C946 1.391 . S
C948 H938 0.950 . S
C948 C949 1.386 . S
C948 C950 1.391 . S
C949 C948 1.386 . S
C949 C953 1.393 . S
C950 H939 0.950 . S
C950 C948 1.391 . S
C950 C951 1.400 . S
C951 C945 1.491 . S
C951 C950 1.400 . S
C951 C952 1.398 . S
C952 H940 0.950 . S
C952 C951 1.398 . S
C952 C953 1.391 . S
C953 H941 0.950 . S
C953 C949 1.393 . S
C953 C952 1.391 . S
H954 C962 0.950 . S
H955 C967 0.950 . S
H956 C964 0.950 . S
H957 C966 0.950 . S
H958 C968 0.950 . S
H959 C970 0.950 . S
H960 C972 0.950 . S
H961 C973 0.950 . S
C962 H954 0.950 . S
C962 C963 1.386 . S
C962 C964 1.391 . S
C963 C962 1.386 . S
C963 C967 1.393 . S
C964 H956 0.950 . S
C964 C962 1.391 . S
C964 C965 1.400 . S
C965 C964 1.400 . S
C965 C966 1.398 . S
C965 C971 1.491 . S
C966 H957 0.950 . S
C966 C965 1.398 . S
C966 C967 1.391 . S
C967 H955 0.950 . S
C967 C963 1.393 . S
C967 C966 1.391 . S
C968 H958 0.950 . S
C968 C969 1.386 . S
C968 C970 1.391 . S
C969 C968 1.386 . S
C969 C973 1.393 . S
C970 H959 0.950 . S
C970 C968 1.391 . S
C970 C971 1.400 . S
C971 C965 1.491 . S
C971 C970 1.400 . S
C971 C972 1.398 . S
C972 H960 0.950 . S
C972 C971 1.398 . S
C972 C973 1.391 . S
C973 H961 0.950 . S
C973 C969 1.393 . S
C973 C972 1.391 . S
H974 C982 0.950 . S
H975 C987 0.950 . S
H976 C984 0.950 . S
H977 C986 0.950 . S
H978 C988 0.950 . S
H979 C990 0.950 . S
H980 C992 0.950 . S
H981 C993 0.950 . S
C982 H974 0.950 . S
C982 C983 1.386 . S
C982 C984 1.391 . S
C983 C982 1.386 . S
C983 C987 1.393 . S
C984 H976 0.950 . S
C984 C982 1.391 . S
C984 C985 1.400 . S
C985 C984 1.400 . S
C985 C986 1.398 . S
C985 C991 1.491 . S
C986 H977 0.950 . S
C986 C985 1.398 . S
C986 C987 1.391 . S
C987 H975 0.950 . S
C987 C983 1.393 . S
C987 C986 1.391 . S
C988 H978 0.950 . S
C988 C989 1.386 . S
C988 C990 1.391 . S
C989 C988 1.386 . S
C989 C993 1.393 . S
C990 H979 0.950 . S
C990 C988 1.391 . S
C990 C991 1.400 . S
C991 C985 1.491 . S
C991 C990 1.400 . S
C991 C992 1.398 . S
C992 H980 0.950 . S
C992 C991 1.398 . S
C992 C993 1.391 . S
C993 H981 0.950 . S
C993 C989 1.393 . S
C993 C992 1.391 . S
H994 C1002 0.950 . S
H995 C1007 0.950 . S
H996 C1004 0.950 . S
H997 C1006 0.950 . S
H998 C1008 0.950 . S
H999 C1010 0.950 . S
H1000 C1012 0.950 . S
H1001 C1013 0.950 . S
C1002 H994 0.950 . S
C1002 C1003 1.386 . S
C1002 C1004 1.391 . S
C1003 C1002 1.386 . S
C1003 C1007 1.393 . S
C1004 H996 0.950 . S
C1004 C1002 1.391 . S
C1004 C1005 1.400 . S
C1005 C1004 1.400 . S
C1005 C1006 1.398 . S
C1005 C1011 1.491 . S
C1006 H997 0.950 . S
C1006 C1005 1.398 . S
C1006 C1007 1.391 . S
C1007 H995 0.950 . S
C1007 C1003 1.393 . S
C1007 C1006 1.391 . S
C1008 H998 0.950 . S
C1008 C1009 1.386 . S
C1008 C1010 1.391 . S
C1009 C1008 1.386 . S
C1009 C1013 1.393 . S
C1010 H999 0.950 . S
C1010 C1008 1.391 . S
C1010 C1011 1.400 . S
C1011 C1005 1.491 . S
C1011 C1010 1.400 . S
C1011 C1012 1.398 . S
C1012 H1000 0.950 . S
C1012 C1011 1.398 . S
C1012 C1013 1.391 . S
C1013 H1001 0.950 . S
C1013 C1009 1.393 . S
C1013 C1012 1.391 . S
H1014 C1022 0.950 . S
H1015 C1027 0.950 . S
H1016 C1024 0.950 . S
H1017 C1026 0.950 . S
H1018 C1028 0.950 . S
H1019 C1030 0.950 . S
H1020 C1032 0.950 . S
H1021 C1033 0.950 . S
C1022 H1014 0.950 . S
C1022 C1023 1.386 . S
C1022 C1024 1.391 . S
C1023 C1022 1.386 . S
C1023 C1027 1.393 . S
C1024 H1016 0.950 . S
C1024 C1022 1.391 . S
C1024 C1025 1.400 . S
C1025 C1024 1.400 . S
C1025 C1026 1.398 . S
C1025 C1031 1.491 . S
C1026 H1017 0.950 . S
C1026 C1025 1.398 . S
C1026 C1027 1.391 . S
C1027 H1015 0.950 . S
C1027 C1023 1.393 . S
C1027 C1026 1.391 . S
C1028 H1018 0.950 . S
C1028 C1029 1.386 . S
C1028 C1030 1.391 . S
C1029 C1028 1.386 . S
C1029 C1033 1.393 . S
C1030 H1019 0.950 . S
C1030 C1028 1.391 . S
C1030 C1031 1.400 . S
C1031 C1025 1.491 . S
C1031 C1030 1.400 . S
C1031 C1032 1.398 . S
C1032 H1020 0.950 . S
C1032 C1031 1.398 . S
C1032 C1033 1.391 . S
C1033 H1021 0.950 . S
C1033 C1029 1.393 . S
C1033 C1032 1.391 . S
H1034 C1042 0.950 . S
H1035 C1047 0.950 . S
H1036 C1044 0.950 . S
H1037 C1046 0.950 . S
H1038 C1048 0.950 . S
H1039 C1050 0.950 . S
H1040 C1052 0.950 . S
H1041 C1053 0.950 . S
C1042 H1034 0.950 . S
C1042 C1043 1.386 . S
C1042 C1044 1.391 . S
C1043 C1042 1.386 . S
C1043 C1047 1.393 . S
C1044 H1036 0.950 . S
C1044 C1042 1.391 . S
C1044 C1045 1.400 . S
C1045 C1044 1.400 . S
C1045 C1046 1.398 . S
C1045 C1051 1.491 . S
C1046 H1037 0.950 . S
C1046 C1045 1.398 . S
C1046 C1047 1.391 . S
C1047 H1035 0.950 . S
C1047 C1043 1.393 . S
C1047 C1046 1.391 . S
C1048 H1038 0.950 . S
C1048 C1049 1.386 . S
C1048 C1050 1.391 . S
C1049 C1048 1.386 . S
C1049 C1053 1.393 . S
C1050 H1039 0.950 . S
C1050 C1048 1.391 . S
C1050 C1051 1.400 . S
C1051 C1045 1.491 . S
C1051 C1050 1.400 . S
C1051 C1052 1.398 . S
C1052 H1040 0.950 . S
C1052 C1051 1.398 . S
C1052 C1053 1.391 . S
C1053 H1041 0.950 . S
C1053 C1049 1.393 . S
C1053 C1052 1.391 . S
H1054 C1062 0.950 . S
H1055 C1067 0.950 . S
H1056 C1064 0.950 . S
H1057 C1066 0.950 . S
H1058 C1068 0.950 . S
H1059 C1070 0.950 . S
H1060 C1072 0.950 . S
H1061 C1073 0.950 . S
C1062 H1054 0.950 . S
C1062 C1063 1.386 . S
C1062 C1064 1.391 . S
C1063 C1062 1.386 . S
C1063 C1067 1.393 . S
C1064 H1056 0.950 . S
C1064 C1062 1.391 . S
C1064 C1065 1.400 . S
C1065 C1064 1.400 . S
C1065 C1066 1.398 . S
C1065 C1071 1.491 . S
C1066 H1057 0.950 . S
C1066 C1065 1.398 . S
C1066 C1067 1.391 . S
C1067 H1055 0.950 . S
C1067 C1063 1.393 . S
C1067 C1066 1.391 . S
C1068 H1058 0.950 . S
C1068 C1069 1.386 . S
C1068 C1070 1.391 . S
C1069 C1068 1.386 . S
C1069 C1073 1.393 . S
C1070 H1059 0.950 . S
C1070 C1068 1.391 . S
C1070 C1071 1.400 . S
C1071 C1065 1.491 . S
C1071 C1070 1.400 . S
C1071 C1072 1.398 . S
C1072 H1060 0.950 . S
C1072 C1071 1.398 . S
C1072 C1073 1.391 . S
C1073 H1061 0.950 . S
C1073 C1069 1.393 . S
C1073 C1072 1.391 . S
H1074 C1082 0.950 . S
H1075 C1087 0.950 . S
H1076 C1084 0.950 . S
H1077 C1086 0.950 . S
H1078 C1088 0.950 . S
H1079 C1090 0.950 . S
H1080 C1092 0.950 . S
H1081 C1093 0.950 . S
C1082 H1074 0.950 . S
C1082 C1083 1.386 . S
C1082 C1084 1.391 . S
C1083 C1082 1.386 . S
C1083 C1087 1.393 . S
C1084 H1076 0.950 . S
C1084 C1082 1.391 . S
C1084 C1085 1.400 . S
C1085 C1084 1.400 . S
C1085 C1086 1.398 . S
C1085 C1091 1.491 . S
C1086 H1077 0.950 . S
C1086 C1085 1.398 . S
C1086 C1087 1.391 . S
C1087 H1075 0.950 . S
C1087 C1083 1.393 . S
C1087 C1086 1.391 . S
C1088 H1078 0.950 . S
C1088 C1089 1.386 . S
C1088 C1090 1.391 . S
C1089 C1088 1.386 . S
C1089 C1093 1.393 . S
C1090 H1079 0.950 . S
C1090 C1088 1.391 . S
C1090 C1091 1.400 . S
C1091 C1085 1.491 . S
C1091 C1090 1.400 . S
C1091 C1092 1.398 . S
C1092 H1080 0.950 . S
C1092 C1091 1.398 . S
C1092 C1093 1.391 . S
C1093 H1081 0.950 . S
C1093 C1089 1.393 . S
C1093 C1092 1.391 . S
H1094 C1102 0.950 . S
H1095 C1107 0.950 . S
H1096 C1104 0.950 . S
H1097 C1106 0.950 . S
H1098 C1108 0.950 . S
H1099 C1110 0.950 . S
H1100 C1112 0.950 . S
H1101 C1113 0.911 1_556 S
C1102 H1094 0.950 . S
C1102 C1103 1.386 . S
C1102 C1104 1.391 . S
C1103 C1102 1.386 . S
C1103 C1107 1.393 . S
C1104 H1096 0.950 . S
C1104 C1102 1.391 . S
C1104 C1105 1.400 . S
C1105 C1104 1.400 . S
C1105 C1106 1.398 . S
C1105 C1111 1.491 . S
C1106 H1097 0.950 . S
C1106 C1105 1.398 . S
C1106 C1107 1.391 . S
C1107 H1095 0.950 . S
C1107 C1103 1.393 . S
C1107 C1106 1.391 . S
C1108 H1098 0.950 . S
C1108 C1109 1.386 . S
C1108 C1110 1.391 . S
C1109 C1108 1.386 . S
C1109 C1113 1.393 . S
C1110 H1099 0.950 . S
C1110 C1108 1.391 . S
C1110 C1111 1.400 . S
C1111 C1105 1.491 . S
C1111 C1110 1.400 . S
C1111 C1112 1.398 . S
C1112 H1100 0.950 . S
C1112 C1111 1.398 . S
C1112 C1113 1.391 . S
C1113 H1101 0.911 1_554 S
C1113 C1109 1.393 . S
C1113 C1112 1.391 . S
H1114 C1122 0.950 . S
H1115 C1127 0.950 . S
H1116 C1124 0.950 . S
H1117 C1126 0.950 . S
H1118 C1128 0.950 . S
H1119 C1130 0.950 . S
H1120 C1132 0.950 . S
H1121 C1133 0.950 . S
C1122 H1114 0.950 . S
C1122 C1123 1.386 . S
C1122 C1124 1.391 . S
C1123 C1122 1.386 . S
C1123 C1127 1.393 . S
C1124 H1116 0.950 . S
C1124 C1122 1.391 . S
C1124 C1125 1.400 . S
C1125 C1124 1.400 . S
C1125 C1126 1.398 . S
C1125 C1131 1.491 . S
C1126 H1117 0.950 . S
C1126 C1125 1.398 . S
C1126 C1127 1.391 . S
C1127 H1115 0.950 . S
C1127 C1123 1.393 . S
C1127 C1126 1.391 . S
C1128 H1118 0.950 . S
C1128 C1129 1.386 . S
C1128 C1130 1.391 . S
C1129 C1128 1.386 . S
C1129 C1133 1.393 . S
C1130 H1119 0.950 . S
C1130 C1128 1.391 . S
C1130 C1131 1.400 . S
C1131 C1125 1.491 . S
C1131 C1130 1.400 . S
C1131 C1132 1.398 . S
C1132 H1120 0.950 . S
C1132 C1131 1.398 . S
C1132 C1133 1.391 . S
C1133 H1121 0.950 . S
C1133 C1129 1.393 . S
C1133 C1132 1.391 . S
C669 C595 1.583 . S
C663 C19 1.484 . S
C683 C40 1.505 . S
C689 C155 1.583 . S
C703 C51 1.508 . S
C709 C243 1.598 . S
C723 C72 1.473 . S
C729 C322 1.596 . S
C749 C419 1.581 . S
C743 C103 1.501 . S
C763 C114 1.500 . S
C769 C498 1.596 . S
C783 C30 1.486 . S
C789 C263 1.606 . S
C803 C61 1.486 . S
C809 C359 1.585 . S
C823 C82 1.487 . S
C829 C439 1.591 . S
C849 C535 1.587 . S
C843 C93 1.497 . S
C869 C615 1.590 . S
C863 C124 1.485 . S
C889 C175 1.597 . S
C883 C9 1.481 . S
C903 C17 1.427 . S
C909 C271 1.538 . S
C923 C38 1.447 . S
C929 C351 1.543 . S
C949 C447 1.538 . S
C943 C54 1.431 . S
C963 C75 1.454 . S
C969 C527 1.542 . S
C989 C623 1.529 . S
C983 C101 1.430 . S
C1009 C183 1.538 . S
C1003 C117 1.447 . S
C1029 C586 1.527 . S
C1023 C33 1.417 . S
C1043 C59 1.450 . S
C1049 C146 1.543 . S
C1069 C234 1.535 . S
C1063 C80 1.431 . S
C1083 C96 1.430 . S
C1089 C331 1.528 . S
C1103 C122 1.441 . S
C1109 C410 1.530 . S
C1123 C12 1.420 . S
C1129 C507 1.538 . S
