# Generated by pormake.
# Topology ana-f, (3,3)-cn, num edge types: 1
# Building blocks:
#     Node 0, Type 0, BuildingBlock: WUSLED_clean_sbu_0, # of connection points: 3
#     Node 1, Type 0, BuildingBlock: WUSLED_clean_sbu_0, # of connection points: 3
#     Node 2, Type 0, BuildingBlock: WUSLED_clean_sbu_0, # of connection points: 3
#     Node 3, Type 0, BuildingBlock: WUSLED_clean_sbu_0, # of connection points: 3
#     Node 4, Type 0, BuildingBlock: WUSLED_clean_sbu_0, # of connection points: 3
#     Node 5, Type 0, BuildingBlock: WUSLED_clean_sbu_0, # of connection points: 3
#     Node 6, Type 0, BuildingBlock: WUSLED_clean_sbu_0, # of connection points: 3
#     Node 7, Type 0, BuildingBlock: WUSLED_clean_sbu_0, # of connection points: 3
#     Node 8, Type 0, BuildingBlock: WUSLED_clean_sbu_0, # of connection points: 3
#     Node 9, Type 0, BuildingBlock: WUSLED_clean_sbu_0, # of connection points: 3
#     Node 10, Type 0, BuildingBlock: WUSLED_clean_sbu_0, # of connection points: 3
#     Node 11, Type 0, BuildingBlock: WUSLED_clean_sbu_0, # of connection points: 3
#     Node 12, Type 0, BuildingBlock: WUSLED_clean_sbu_0, # of connection points: 3
#     Node 13, Type 0, BuildingBlock: WUSLED_clean_sbu_0, # of connection points: 3
#     Node 14, Type 0, BuildingBlock: WUSLED_clean_sbu_0, # of connection points: 3
#     Node 15, Type 0, BuildingBlock: WUSLED_clean_sbu_0, # of connection points: 3
#     Node 16, Type 0, BuildingBlock: WUSLED_clean_sbu_0, # of connection points: 3
#     Node 17, Type 0, BuildingBlock: WUSLED_clean_sbu_0, # of connection points: 3
#     Node 18, Type 0, BuildingBlock: WUSLED_clean_sbu_0, # of connection points: 3
#     Node 19, Type 0, BuildingBlock: WUSLED_clean_sbu_0, # of connection points: 3
#     Node 20, Type 0, BuildingBlock: WUSLED_clean_sbu_0, # of connection points: 3
#     Node 21, Type 0, BuildingBlock: WUSLED_clean_sbu_0, # of connection points: 3
#     Node 22, Type 0, BuildingBlock: WUSLED_clean_sbu_0, # of connection points: 3
#     Node 23, Type 0, BuildingBlock: WUSLED_clean_sbu_0, # of connection points: 3
#     Node 24, Type 0, BuildingBlock: WUSLED_clean_sbu_0, # of connection points: 3
#     Node 25, Type 0, BuildingBlock: WUSLED_clean_sbu_0, # of connection points: 3
#     Node 26, Type 0, BuildingBlock: WUSLED_clean_sbu_0, # of connection points: 3
#     Node 27, Type 0, BuildingBlock: WUSLED_clean_sbu_0, # of connection points: 3
#     Node 28, Type 0, BuildingBlock: WUSLED_clean_sbu_0, # of connection points: 3
#     Node 29, Type 0, BuildingBlock: WUSLED_clean_sbu_0, # of connection points: 3
#     Node 30, Type 0, BuildingBlock: WUSLED_clean_sbu_0, # of connection points: 3
#     Node 31, Type 0, BuildingBlock: WUSLED_clean_sbu_0, # of connection points: 3
#     Node 32, Type 0, BuildingBlock: WUSLED_clean_sbu_0, # of connection points: 3
#     Node 33, Type 0, BuildingBlock: WUSLED_clean_sbu_0, # of connection points: 3
#     Node 34, Type 0, BuildingBlock: WUSLED_clean_sbu_0, # of connection points: 3
#     Node 35, Type 0, BuildingBlock: WUSLED_clean_sbu_0, # of connection points: 3
#     Node 36, Type 0, BuildingBlock: WUSLED_clean_sbu_0, # of connection points: 3
#     Node 37, Type 0, BuildingBlock: WUSLED_clean_sbu_0, # of connection points: 3
#     Node 38, Type 0, BuildingBlock: WUSLED_clean_sbu_0, # of connection points: 3
#     Node 39, Type 0, BuildingBlock: WUSLED_clean_sbu_0, # of connection points: 3
#     Node 40, Type 0, BuildingBlock: WUSLED_clean_sbu_0, # of connection points: 3
#     Node 41, Type 0, BuildingBlock: WUSLED_clean_sbu_0, # of connection points: 3
#     Node 42, Type 0, BuildingBlock: WUSLED_clean_sbu_0, # of connection points: 3
#     Node 43, Type 0, BuildingBlock: WUSLED_clean_sbu_0, # of connection points: 3
#     Node 44, Type 0, BuildingBlock: WUSLED_clean_sbu_0, # of connection points: 3
#     Node 45, Type 0, BuildingBlock: WUSLED_clean_sbu_0, # of connection points: 3
#     Node 46, Type 0, BuildingBlock: WUSLED_clean_sbu_0, # of connection points: 3
#     Node 47, Type 0, BuildingBlock: WUSLED_clean_sbu_0, # of connection points: 3
#     Node 48, Type 0, BuildingBlock: WUSLED_clean_sbu_0, # of connection points: 3
#     Node 49, Type 0, BuildingBlock: WUSLED_clean_sbu_0, # of connection points: 3
#     Node 50, Type 0, BuildingBlock: WUSLED_clean_sbu_0, # of connection points: 3
#     Node 51, Type 0, BuildingBlock: WUSLED_clean_sbu_0, # of connection points: 3
#     Node 52, Type 0, BuildingBlock: WUSLED_clean_sbu_0, # of connection points: 3
#     Node 53, Type 0, BuildingBlock: WUSLED_clean_sbu_0, # of connection points: 3
#     Node 54, Type 0, BuildingBlock: WUSLED_clean_sbu_0, # of connection points: 3
#     Node 55, Type 0, BuildingBlock: WUSLED_clean_sbu_0, # of connection points: 3
#     Node 56, Type 0, BuildingBlock: WUSLED_clean_sbu_0, # of connection points: 3
#     Node 57, Type 0, BuildingBlock: WUSLED_clean_sbu_0, # of connection points: 3
#     Node 58, Type 0, BuildingBlock: WUSLED_clean_sbu_0, # of connection points: 3
#     Node 59, Type 0, BuildingBlock: WUSLED_clean_sbu_0, # of connection points: 3
#     Node 60, Type 0, BuildingBlock: WUSLED_clean_sbu_0, # of connection points: 3
#     Node 61, Type 0, BuildingBlock: WUSLED_clean_sbu_0, # of connection points: 3
#     Node 62, Type 0, BuildingBlock: WUSLED_clean_sbu_0, # of connection points: 3
#     Node 63, Type 0, BuildingBlock: WUSLED_clean_sbu_0, # of connection points: 3
#     Node 64, Type 0, BuildingBlock: WUSLED_clean_sbu_0, # of connection points: 3
#     Node 65, Type 0, BuildingBlock: WUSLED_clean_sbu_0, # of connection points: 3
#     Node 66, Type 0, BuildingBlock: WUSLED_clean_sbu_0, # of connection points: 3
#     Node 67, Type 0, BuildingBlock: WUSLED_clean_sbu_0, # of connection points: 3
#     Node 68, Type 0, BuildingBlock: WUSLED_clean_sbu_0, # of connection points: 3
#     Node 69, Type 0, BuildingBlock: WUSLED_clean_sbu_0, # of connection points: 3
#     Node 70, Type 0, BuildingBlock: WUSLED_clean_sbu_0, # of connection points: 3
#     Node 71, Type 0, BuildingBlock: WUSLED_clean_sbu_0, # of connection points: 3
#     Node 72, Type 0, BuildingBlock: WUSLED_clean_sbu_0, # of connection points: 3
#     Node 73, Type 0, BuildingBlock: WUSLED_clean_sbu_0, # of connection points: 3
#     Node 74, Type 0, BuildingBlock: WUSLED_clean_sbu_0, # of connection points: 3
#     Node 75, Type 0, BuildingBlock: WUSLED_clean_sbu_0, # of connection points: 3
#     Node 76, Type 0, BuildingBlock: WUSLED_clean_sbu_0, # of connection points: 3
#     Node 77, Type 0, BuildingBlock: WUSLED_clean_sbu_0, # of connection points: 3
#     Node 78, Type 0, BuildingBlock: WUSLED_clean_sbu_0, # of connection points: 3
#     Node 79, Type 0, BuildingBlock: WUSLED_clean_sbu_0, # of connection points: 3
#     Node 80, Type 0, BuildingBlock: WUSLED_clean_sbu_0, # of connection points: 3
#     Node 81, Type 0, BuildingBlock: WUSLED_clean_sbu_0, # of connection points: 3
#     Node 82, Type 0, BuildingBlock: WUSLED_clean_sbu_0, # of connection points: 3
#     Node 83, Type 0, BuildingBlock: WUSLED_clean_sbu_0, # of connection points: 3
#     Node 84, Type 0, BuildingBlock: WUSLED_clean_sbu_0, # of connection points: 3
#     Node 85, Type 0, BuildingBlock: WUSLED_clean_sbu_0, # of connection points: 3
#     Node 86, Type 0, BuildingBlock: WUSLED_clean_sbu_0, # of connection points: 3
#     Node 87, Type 0, BuildingBlock: WUSLED_clean_sbu_0, # of connection points: 3
#     Node 88, Type 0, BuildingBlock: WUSLED_clean_sbu_0, # of connection points: 3
#     Node 89, Type 0, BuildingBlock: WUSLED_clean_sbu_0, # of connection points: 3
#     Node 90, Type 0, BuildingBlock: WUSLED_clean_sbu_0, # of connection points: 3
#     Node 91, Type 0, BuildingBlock: WUSLED_clean_sbu_0, # of connection points: 3
#     Node 92, Type 0, BuildingBlock: WUSLED_clean_sbu_0, # of connection points: 3
#     Node 93, Type 0, BuildingBlock: WUSLED_clean_sbu_0, # of connection points: 3
#     Node 94, Type 0, BuildingBlock: WUSLED_clean_sbu_0, # of connection points: 3
#     Node 95, Type 0, BuildingBlock: WUSLED_clean_sbu_0, # of connection points: 3
#     Node 96, Type 1, BuildingBlock: BETDAH_clean_linker_0, # of connection points: 3
#     Node 97, Type 1, BuildingBlock: BETDAH_clean_linker_0, # of connection points: 3
#     Node 98, Type 1, BuildingBlock: BETDAH_clean_linker_0, # of connection points: 3
#     Node 99, Type 1, BuildingBlock: BETDAH_clean_linker_0, # of connection points: 3
#     Node 100, Type 1, BuildingBlock: BETDAH_clean_linker_0, # of connection points: 3
#     Node 101, Type 1, BuildingBlock: BETDAH_clean_linker_0, # of connection points: 3
#     Node 102, Type 1, BuildingBlock: BETDAH_clean_linker_0, # of connection points: 3
#     Node 103, Type 1, BuildingBlock: BETDAH_clean_linker_0, # of connection points: 3
#     Node 104, Type 1, BuildingBlock: BETDAH_clean_linker_0, # of connection points: 3
#     Node 105, Type 1, BuildingBlock: BETDAH_clean_linker_0, # of connection points: 3
#     Node 106, Type 1, BuildingBlock: BETDAH_clean_linker_0, # of connection points: 3
#     Node 107, Type 1, BuildingBlock: BETDAH_clean_linker_0, # of connection points: 3
#     Node 108, Type 1, BuildingBlock: BETDAH_clean_linker_0, # of connection points: 3
#     Node 109, Type 1, BuildingBlock: BETDAH_clean_linker_0, # of connection points: 3
#     Node 110, Type 1, BuildingBlock: BETDAH_clean_linker_0, # of connection points: 3
#     Node 111, Type 1, BuildingBlock: BETDAH_clean_linker_0, # of connection points: 3
#     Node 112, Type 1, BuildingBlock: BETDAH_clean_linker_0, # of connection points: 3
#     Node 113, Type 1, BuildingBlock: BETDAH_clean_linker_0, # of connection points: 3
#     Node 114, Type 1, BuildingBlock: BETDAH_clean_linker_0, # of connection points: 3
#     Node 115, Type 1, BuildingBlock: BETDAH_clean_linker_0, # of connection points: 3
#     Node 116, Type 1, BuildingBlock: BETDAH_clean_linker_0, # of connection points: 3
#     Node 117, Type 1, BuildingBlock: BETDAH_clean_linker_0, # of connection points: 3
#     Node 118, Type 1, BuildingBlock: BETDAH_clean_linker_0, # of connection points: 3
#     Node 119, Type 1, BuildingBlock: BETDAH_clean_linker_0, # of connection points: 3
#     Node 120, Type 1, BuildingBlock: BETDAH_clean_linker_0, # of connection points: 3
#     Node 121, Type 1, BuildingBlock: BETDAH_clean_linker_0, # of connection points: 3
#     Node 122, Type 1, BuildingBlock: BETDAH_clean_linker_0, # of connection points: 3
#     Node 123, Type 1, BuildingBlock: BETDAH_clean_linker_0, # of connection points: 3
#     Node 124, Type 1, BuildingBlock: BETDAH_clean_linker_0, # of connection points: 3
#     Node 125, Type 1, BuildingBlock: BETDAH_clean_linker_0, # of connection points: 3
#     Node 126, Type 1, BuildingBlock: BETDAH_clean_linker_0, # of connection points: 3
#     Node 127, Type 1, BuildingBlock: BETDAH_clean_linker_0, # of connection points: 3
#     Node 128, Type 1, BuildingBlock: BETDAH_clean_linker_0, # of connection points: 3
#     Node 129, Type 1, BuildingBlock: BETDAH_clean_linker_0, # of connection points: 3
#     Node 130, Type 1, BuildingBlock: BETDAH_clean_linker_0, # of connection points: 3
#     Node 131, Type 1, BuildingBlock: BETDAH_clean_linker_0, # of connection points: 3
#     Node 132, Type 1, BuildingBlock: BETDAH_clean_linker_0, # of connection points: 3
#     Node 133, Type 1, BuildingBlock: BETDAH_clean_linker_0, # of connection points: 3
#     Node 134, Type 1, BuildingBlock: BETDAH_clean_linker_0, # of connection points: 3
#     Node 135, Type 1, BuildingBlock: BETDAH_clean_linker_0, # of connection points: 3
#     Node 136, Type 1, BuildingBlock: BETDAH_clean_linker_0, # of connection points: 3
#     Node 137, Type 1, BuildingBlock: BETDAH_clean_linker_0, # of connection points: 3
#     Node 138, Type 1, BuildingBlock: BETDAH_clean_linker_0, # of connection points: 3
#     Node 139, Type 1, BuildingBlock: BETDAH_clean_linker_0, # of connection points: 3
#     Node 140, Type 1, BuildingBlock: BETDAH_clean_linker_0, # of connection points: 3
#     Node 141, Type 1, BuildingBlock: BETDAH_clean_linker_0, # of connection points: 3
#     Node 142, Type 1, BuildingBlock: BETDAH_clean_linker_0, # of connection points: 3
#     Node 143, Type 1, BuildingBlock: BETDAH_clean_linker_0, # of connection points: 3
#     Node 144, Type 1, BuildingBlock: BETDAH_clean_linker_0, # of connection points: 3
#     Node 145, Type 1, BuildingBlock: BETDAH_clean_linker_0, # of connection points: 3
#     Node 146, Type 1, BuildingBlock: BETDAH_clean_linker_0, # of connection points: 3
#     Node 147, Type 1, BuildingBlock: BETDAH_clean_linker_0, # of connection points: 3
#     Node 148, Type 1, BuildingBlock: BETDAH_clean_linker_0, # of connection points: 3
#     Node 149, Type 1, BuildingBlock: BETDAH_clean_linker_0, # of connection points: 3
#     Node 150, Type 1, BuildingBlock: BETDAH_clean_linker_0, # of connection points: 3
#     Node 151, Type 1, BuildingBlock: BETDAH_clean_linker_0, # of connection points: 3
#     Node 152, Type 1, BuildingBlock: BETDAH_clean_linker_0, # of connection points: 3
#     Node 153, Type 1, BuildingBlock: BETDAH_clean_linker_0, # of connection points: 3
#     Node 154, Type 1, BuildingBlock: BETDAH_clean_linker_0, # of connection points: 3
#     Node 155, Type 1, BuildingBlock: BETDAH_clean_linker_0, # of connection points: 3
#     Node 156, Type 1, BuildingBlock: BETDAH_clean_linker_0, # of connection points: 3
#     Node 157, Type 1, BuildingBlock: BETDAH_clean_linker_0, # of connection points: 3
#     Node 158, Type 1, BuildingBlock: BETDAH_clean_linker_0, # of connection points: 3
#     Node 159, Type 1, BuildingBlock: BETDAH_clean_linker_0, # of connection points: 3
#     Node 160, Type 1, BuildingBlock: BETDAH_clean_linker_0, # of connection points: 3
#     Node 161, Type 1, BuildingBlock: BETDAH_clean_linker_0, # of connection points: 3
#     Node 162, Type 1, BuildingBlock: BETDAH_clean_linker_0, # of connection points: 3
#     Node 163, Type 1, BuildingBlock: BETDAH_clean_linker_0, # of connection points: 3
#     Node 164, Type 1, BuildingBlock: BETDAH_clean_linker_0, # of connection points: 3
#     Node 165, Type 1, BuildingBlock: BETDAH_clean_linker_0, # of connection points: 3
#     Node 166, Type 1, BuildingBlock: BETDAH_clean_linker_0, # of connection points: 3
#     Node 167, Type 1, BuildingBlock: BETDAH_clean_linker_0, # of connection points: 3
#     Node 168, Type 1, BuildingBlock: BETDAH_clean_linker_0, # of connection points: 3
#     Node 169, Type 1, BuildingBlock: BETDAH_clean_linker_0, # of connection points: 3
#     Node 170, Type 1, BuildingBlock: BETDAH_clean_linker_0, # of connection points: 3
#     Node 171, Type 1, BuildingBlock: BETDAH_clean_linker_0, # of connection points: 3
#     Node 172, Type 1, BuildingBlock: BETDAH_clean_linker_0, # of connection points: 3
#     Node 173, Type 1, BuildingBlock: BETDAH_clean_linker_0, # of connection points: 3
#     Node 174, Type 1, BuildingBlock: BETDAH_clean_linker_0, # of connection points: 3
#     Node 175, Type 1, BuildingBlock: BETDAH_clean_linker_0, # of connection points: 3
#     Node 176, Type 1, BuildingBlock: BETDAH_clean_linker_0, # of connection points: 3
#     Node 177, Type 1, BuildingBlock: BETDAH_clean_linker_0, # of connection points: 3
#     Node 178, Type 1, BuildingBlock: BETDAH_clean_linker_0, # of connection points: 3
#     Node 179, Type 1, BuildingBlock: BETDAH_clean_linker_0, # of connection points: 3
#     Node 180, Type 1, BuildingBlock: BETDAH_clean_linker_0, # of connection points: 3
#     Node 181, Type 1, BuildingBlock: BETDAH_clean_linker_0, # of connection points: 3
#     Node 182, Type 1, BuildingBlock: BETDAH_clean_linker_0, # of connection points: 3
#     Node 183, Type 1, BuildingBlock: BETDAH_clean_linker_0, # of connection points: 3
#     Node 184, Type 1, BuildingBlock: BETDAH_clean_linker_0, # of connection points: 3
#     Node 185, Type 1, BuildingBlock: BETDAH_clean_linker_0, # of connection points: 3
#     Node 186, Type 1, BuildingBlock: BETDAH_clean_linker_0, # of connection points: 3
#     Node 187, Type 1, BuildingBlock: BETDAH_clean_linker_0, # of connection points: 3
#     Node 188, Type 1, BuildingBlock: BETDAH_clean_linker_0, # of connection points: 3
#     Node 189, Type 1, BuildingBlock: BETDAH_clean_linker_0, # of connection points: 3
#     Node 190, Type 1, BuildingBlock: BETDAH_clean_linker_0, # of connection points: 3
#     Node 191, Type 1, BuildingBlock: BETDAH_clean_linker_0, # of connection points: 3
#     Edge 192, Type (0, 1), BuildingBlock: EZIPEK_clean_linker_0, # of connection points: 2
#     Edge 193, Type (0, 1), BuildingBlock: EZIPEK_clean_linker_0, # of connection points: 2
#     Edge 194, Type (0, 1), BuildingBlock: EZIPEK_clean_linker_0, # of connection points: 2
#     Edge 195, Type (0, 1), BuildingBlock: EZIPEK_clean_linker_0, # of connection points: 2
#     Edge 196, Type (0, 1), BuildingBlock: EZIPEK_clean_linker_0, # of connection points: 2
#     Edge 197, Type (0, 1), BuildingBlock: EZIPEK_clean_linker_0, # of connection points: 2
#     Edge 198, Type (0, 1), BuildingBlock: EZIPEK_clean_linker_0, # of connection points: 2
#     Edge 199, Type (0, 1), BuildingBlock: EZIPEK_clean_linker_0, # of connection points: 2
#     Edge 200, Type (0, 1), BuildingBlock: EZIPEK_clean_linker_0, # of connection points: 2
#     Edge 201, Type (0, 1), BuildingBlock: EZIPEK_clean_linker_0, # of connection points: 2
#     Edge 202, Type (0, 1), BuildingBlock: EZIPEK_clean_linker_0, # of connection points: 2
#     Edge 203, Type (0, 1), BuildingBlock: EZIPEK_clean_linker_0, # of connection points: 2
#     Edge 204, Type (0, 1), BuildingBlock: EZIPEK_clean_linker_0, # of connection points: 2
#     Edge 205, Type (0, 1), BuildingBlock: EZIPEK_clean_linker_0, # of connection points: 2
#     Edge 206, Type (0, 1), BuildingBlock: EZIPEK_clean_linker_0, # of connection points: 2
#     Edge 207, Type (0, 1), BuildingBlock: EZIPEK_clean_linker_0, # of connection points: 2
#     Edge 208, Type (0, 1), BuildingBlock: EZIPEK_clean_linker_0, # of connection points: 2
#     Edge 209, Type (0, 1), BuildingBlock: EZIPEK_clean_linker_0, # of connection points: 2
#     Edge 210, Type (0, 1), BuildingBlock: EZIPEK_clean_linker_0, # of connection points: 2
#     Edge 211, Type (0, 1), BuildingBlock: EZIPEK_clean_linker_0, # of connection points: 2
#     Edge 212, Type (0, 1), BuildingBlock: EZIPEK_clean_linker_0, # of connection points: 2
#     Edge 213, Type (0, 1), BuildingBlock: EZIPEK_clean_linker_0, # of connection points: 2
#     Edge 214, Type (0, 1), BuildingBlock: EZIPEK_clean_linker_0, # of connection points: 2
#     Edge 215, Type (0, 1), BuildingBlock: EZIPEK_clean_linker_0, # of connection points: 2
#     Edge 216, Type (0, 1), BuildingBlock: EZIPEK_clean_linker_0, # of connection points: 2
#     Edge 217, Type (0, 1), BuildingBlock: EZIPEK_clean_linker_0, # of connection points: 2
#     Edge 218, Type (0, 1), BuildingBlock: EZIPEK_clean_linker_0, # of connection points: 2
#     Edge 219, Type (0, 1), BuildingBlock: EZIPEK_clean_linker_0, # of connection points: 2
#     Edge 220, Type (0, 1), BuildingBlock: EZIPEK_clean_linker_0, # of connection points: 2
#     Edge 221, Type (0, 1), BuildingBlock: EZIPEK_clean_linker_0, # of connection points: 2
#     Edge 222, Type (0, 1), BuildingBlock: EZIPEK_clean_linker_0, # of connection points: 2
#     Edge 223, Type (0, 1), BuildingBlock: EZIPEK_clean_linker_0, # of connection points: 2
#     Edge 224, Type (0, 1), BuildingBlock: EZIPEK_clean_linker_0, # of connection points: 2
#     Edge 225, Type (0, 1), BuildingBlock: EZIPEK_clean_linker_0, # of connection points: 2
#     Edge 226, Type (0, 1), BuildingBlock: EZIPEK_clean_linker_0, # of connection points: 2
#     Edge 227, Type (0, 1), BuildingBlock: EZIPEK_clean_linker_0, # of connection points: 2
#     Edge 228, Type (0, 1), BuildingBlock: EZIPEK_clean_linker_0, # of connection points: 2
#     Edge 229, Type (0, 1), BuildingBlock: EZIPEK_clean_linker_0, # of connection points: 2
#     Edge 230, Type (0, 1), BuildingBlock: EZIPEK_clean_linker_0, # of connection points: 2
#     Edge 231, Type (0, 1), BuildingBlock: EZIPEK_clean_linker_0, # of connection points: 2
#     Edge 232, Type (0, 1), BuildingBlock: EZIPEK_clean_linker_0, # of connection points: 2
#     Edge 233, Type (0, 1), BuildingBlock: EZIPEK_clean_linker_0, # of connection points: 2
#     Edge 234, Type (0, 1), BuildingBlock: EZIPEK_clean_linker_0, # of connection points: 2
#     Edge 235, Type (0, 1), BuildingBlock: EZIPEK_clean_linker_0, # of connection points: 2
#     Edge 236, Type (0, 1), BuildingBlock: EZIPEK_clean_linker_0, # of connection points: 2
#     Edge 237, Type (0, 1), BuildingBlock: EZIPEK_clean_linker_0, # of connection points: 2
#     Edge 238, Type (0, 1), BuildingBlock: EZIPEK_clean_linker_0, # of connection points: 2
#     Edge 239, Type (0, 1), BuildingBlock: EZIPEK_clean_linker_0, # of connection points: 2
#     Edge 240, Type (0, 1), BuildingBlock: EZIPEK_clean_linker_0, # of connection points: 2
#     Edge 241, Type (0, 1), BuildingBlock: EZIPEK_clean_linker_0, # of connection points: 2
#     Edge 242, Type (0, 1), BuildingBlock: EZIPEK_clean_linker_0, # of connection points: 2
#     Edge 243, Type (0, 1), BuildingBlock: EZIPEK_clean_linker_0, # of connection points: 2
#     Edge 244, Type (0, 1), BuildingBlock: EZIPEK_clean_linker_0, # of connection points: 2
#     Edge 245, Type (0, 1), BuildingBlock: EZIPEK_clean_linker_0, # of connection points: 2
#     Edge 246, Type (0, 1), BuildingBlock: EZIPEK_clean_linker_0, # of connection points: 2
#     Edge 247, Type (0, 1), BuildingBlock: EZIPEK_clean_linker_0, # of connection points: 2
#     Edge 248, Type (0, 1), BuildingBlock: EZIPEK_clean_linker_0, # of connection points: 2
#     Edge 249, Type (0, 1), BuildingBlock: EZIPEK_clean_linker_0, # of connection points: 2
#     Edge 250, Type (0, 1), BuildingBlock: EZIPEK_clean_linker_0, # of connection points: 2
#     Edge 251, Type (0, 1), BuildingBlock: EZIPEK_clean_linker_0, # of connection points: 2
#     Edge 252, Type (0, 1), BuildingBlock: EZIPEK_clean_linker_0, # of connection points: 2
#     Edge 253, Type (0, 1), BuildingBlock: EZIPEK_clean_linker_0, # of connection points: 2
#     Edge 254, Type (0, 1), BuildingBlock: EZIPEK_clean_linker_0, # of connection points: 2
#     Edge 255, Type (0, 1), BuildingBlock: EZIPEK_clean_linker_0, # of connection points: 2
#     Edge 256, Type (0, 1), BuildingBlock: EZIPEK_clean_linker_0, # of connection points: 2
#     Edge 257, Type (0, 1), BuildingBlock: EZIPEK_clean_linker_0, # of connection points: 2
#     Edge 258, Type (0, 1), BuildingBlock: EZIPEK_clean_linker_0, # of connection points: 2
#     Edge 259, Type (0, 1), BuildingBlock: EZIPEK_clean_linker_0, # of connection points: 2
#     Edge 260, Type (0, 1), BuildingBlock: EZIPEK_clean_linker_0, # of connection points: 2
#     Edge 261, Type (0, 1), BuildingBlock: EZIPEK_clean_linker_0, # of connection points: 2
#     Edge 262, Type (0, 1), BuildingBlock: EZIPEK_clean_linker_0, # of connection points: 2
#     Edge 263, Type (0, 1), BuildingBlock: EZIPEK_clean_linker_0, # of connection points: 2
#     Edge 264, Type (0, 1), BuildingBlock: EZIPEK_clean_linker_0, # of connection points: 2
#     Edge 265, Type (0, 1), BuildingBlock: EZIPEK_clean_linker_0, # of connection points: 2
#     Edge 266, Type (0, 1), BuildingBlock: EZIPEK_clean_linker_0, # of connection points: 2
#     Edge 267, Type (0, 1), BuildingBlock: EZIPEK_clean_linker_0, # of connection points: 2
#     Edge 268, Type (0, 1), BuildingBlock: EZIPEK_clean_linker_0, # of connection points: 2
#     Edge 269, Type (0, 1), BuildingBlock: EZIPEK_clean_linker_0, # of connection points: 2
#     Edge 270, Type (0, 1), BuildingBlock: EZIPEK_clean_linker_0, # of connection points: 2
#     Edge 271, Type (0, 1), BuildingBlock: EZIPEK_clean_linker_0, # of connection points: 2
#     Edge 272, Type (0, 1), BuildingBlock: EZIPEK_clean_linker_0, # of connection points: 2
#     Edge 273, Type (0, 1), BuildingBlock: EZIPEK_clean_linker_0, # of connection points: 2
#     Edge 274, Type (0, 1), BuildingBlock: EZIPEK_clean_linker_0, # of connection points: 2
#     Edge 275, Type (0, 1), BuildingBlock: EZIPEK_clean_linker_0, # of connection points: 2
#     Edge 276, Type (0, 1), BuildingBlock: EZIPEK_clean_linker_0, # of connection points: 2
#     Edge 277, Type (0, 1), BuildingBlock: EZIPEK_clean_linker_0, # of connection points: 2
#     Edge 278, Type (0, 1), BuildingBlock: EZIPEK_clean_linker_0, # of connection points: 2
#     Edge 279, Type (0, 1), BuildingBlock: EZIPEK_clean_linker_0, # of connection points: 2
#     Edge 280, Type (0, 1), BuildingBlock: EZIPEK_clean_linker_0, # of connection points: 2
#     Edge 281, Type (0, 1), BuildingBlock: EZIPEK_clean_linker_0, # of connection points: 2
#     Edge 282, Type (0, 1), BuildingBlock: EZIPEK_clean_linker_0, # of connection points: 2
#     Edge 283, Type (0, 1), BuildingBlock: EZIPEK_clean_linker_0, # of connection points: 2
#     Edge 284, Type (0, 1), BuildingBlock: EZIPEK_clean_linker_0, # of connection points: 2
#     Edge 285, Type (0, 1), BuildingBlock: EZIPEK_clean_linker_0, # of connection points: 2
#     Edge 286, Type (0, 1), BuildingBlock: EZIPEK_clean_linker_0, # of connection points: 2
#     Edge 287, Type (0, 1), BuildingBlock: EZIPEK_clean_linker_0, # of connection points: 2
#     Edge 288, Type (0, 1), BuildingBlock: EZIPEK_clean_linker_0, # of connection points: 2
#     Edge 289, Type (0, 1), BuildingBlock: EZIPEK_clean_linker_0, # of connection points: 2
#     Edge 290, Type (0, 1), BuildingBlock: EZIPEK_clean_linker_0, # of connection points: 2
#     Edge 291, Type (0, 1), BuildingBlock: EZIPEK_clean_linker_0, # of connection points: 2
#     Edge 292, Type (0, 1), BuildingBlock: EZIPEK_clean_linker_0, # of connection points: 2
#     Edge 293, Type (0, 1), BuildingBlock: EZIPEK_clean_linker_0, # of connection points: 2
#     Edge 294, Type (0, 1), BuildingBlock: EZIPEK_clean_linker_0, # of connection points: 2
#     Edge 295, Type (0, 1), BuildingBlock: EZIPEK_clean_linker_0, # of connection points: 2
#     Edge 296, Type (0, 1), BuildingBlock: EZIPEK_clean_linker_0, # of connection points: 2
#     Edge 297, Type (0, 1), BuildingBlock: EZIPEK_clean_linker_0, # of connection points: 2
#     Edge 298, Type (0, 1), BuildingBlock: EZIPEK_clean_linker_0, # of connection points: 2
#     Edge 299, Type (0, 1), BuildingBlock: EZIPEK_clean_linker_0, # of connection points: 2
#     Edge 300, Type (0, 1), BuildingBlock: EZIPEK_clean_linker_0, # of connection points: 2
#     Edge 301, Type (0, 1), BuildingBlock: EZIPEK_clean_linker_0, # of connection points: 2
#     Edge 302, Type (0, 1), BuildingBlock: EZIPEK_clean_linker_0, # of connection points: 2
#     Edge 303, Type (0, 1), BuildingBlock: EZIPEK_clean_linker_0, # of connection points: 2
#     Edge 304, Type (0, 1), BuildingBlock: EZIPEK_clean_linker_0, # of connection points: 2
#     Edge 305, Type (0, 1), BuildingBlock: EZIPEK_clean_linker_0, # of connection points: 2
#     Edge 306, Type (0, 1), BuildingBlock: EZIPEK_clean_linker_0, # of connection points: 2
#     Edge 307, Type (0, 1), BuildingBlock: EZIPEK_clean_linker_0, # of connection points: 2
#     Edge 308, Type (0, 1), BuildingBlock: EZIPEK_clean_linker_0, # of connection points: 2
#     Edge 309, Type (0, 1), BuildingBlock: EZIPEK_clean_linker_0, # of connection points: 2
#     Edge 310, Type (0, 1), BuildingBlock: EZIPEK_clean_linker_0, # of connection points: 2
#     Edge 311, Type (0, 1), BuildingBlock: EZIPEK_clean_linker_0, # of connection points: 2
#     Edge 312, Type (0, 1), BuildingBlock: EZIPEK_clean_linker_0, # of connection points: 2
#     Edge 313, Type (0, 1), BuildingBlock: EZIPEK_clean_linker_0, # of connection points: 2
#     Edge 314, Type (0, 1), BuildingBlock: EZIPEK_clean_linker_0, # of connection points: 2
#     Edge 315, Type (0, 1), BuildingBlock: EZIPEK_clean_linker_0, # of connection points: 2
#     Edge 316, Type (0, 1), BuildingBlock: EZIPEK_clean_linker_0, # of connection points: 2
#     Edge 317, Type (0, 1), BuildingBlock: EZIPEK_clean_linker_0, # of connection points: 2
#     Edge 318, Type (0, 1), BuildingBlock: EZIPEK_clean_linker_0, # of connection points: 2
#     Edge 319, Type (0, 1), BuildingBlock: EZIPEK_clean_linker_0, # of connection points: 2
#     Edge 320, Type (0, 1), BuildingBlock: EZIPEK_clean_linker_0, # of connection points: 2
#     Edge 321, Type (0, 1), BuildingBlock: EZIPEK_clean_linker_0, # of connection points: 2
#     Edge 322, Type (0, 1), BuildingBlock: EZIPEK_clean_linker_0, # of connection points: 2
#     Edge 323, Type (0, 1), BuildingBlock: EZIPEK_clean_linker_0, # of connection points: 2
#     Edge 324, Type (0, 1), BuildingBlock: EZIPEK_clean_linker_0, # of connection points: 2
#     Edge 325, Type (0, 1), BuildingBlock: EZIPEK_clean_linker_0, # of connection points: 2
#     Edge 326, Type (0, 1), BuildingBlock: EZIPEK_clean_linker_0, # of connection points: 2
#     Edge 327, Type (0, 1), BuildingBlock: EZIPEK_clean_linker_0, # of connection points: 2
#     Edge 328, Type (0, 1), BuildingBlock: EZIPEK_clean_linker_0, # of connection points: 2
#     Edge 329, Type (0, 1), BuildingBlock: EZIPEK_clean_linker_0, # of connection points: 2
#     Edge 330, Type (0, 1), BuildingBlock: EZIPEK_clean_linker_0, # of connection points: 2
#     Edge 331, Type (0, 1), BuildingBlock: EZIPEK_clean_linker_0, # of connection points: 2
#     Edge 332, Type (0, 1), BuildingBlock: EZIPEK_clean_linker_0, # of connection points: 2
#     Edge 333, Type (0, 1), BuildingBlock: EZIPEK_clean_linker_0, # of connection points: 2
#     Edge 334, Type (0, 1), BuildingBlock: EZIPEK_clean_linker_0, # of connection points: 2
#     Edge 335, Type (0, 1), BuildingBlock: EZIPEK_clean_linker_0, # of connection points: 2
#     Edge 336, Type (0, 1), BuildingBlock: EZIPEK_clean_linker_0, # of connection points: 2
#     Edge 337, Type (0, 1), BuildingBlock: EZIPEK_clean_linker_0, # of connection points: 2
#     Edge 338, Type (0, 1), BuildingBlock: EZIPEK_clean_linker_0, # of connection points: 2
#     Edge 339, Type (0, 1), BuildingBlock: EZIPEK_clean_linker_0, # of connection points: 2
#     Edge 340, Type (0, 1), BuildingBlock: EZIPEK_clean_linker_0, # of connection points: 2
#     Edge 341, Type (0, 1), BuildingBlock: EZIPEK_clean_linker_0, # of connection points: 2
#     Edge 342, Type (0, 1), BuildingBlock: EZIPEK_clean_linker_0, # of connection points: 2
#     Edge 343, Type (0, 1), BuildingBlock: EZIPEK_clean_linker_0, # of connection points: 2
#     Edge 344, Type (0, 1), BuildingBlock: EZIPEK_clean_linker_0, # of connection points: 2
#     Edge 345, Type (0, 1), BuildingBlock: EZIPEK_clean_linker_0, # of connection points: 2
#     Edge 346, Type (0, 1), BuildingBlock: EZIPEK_clean_linker_0, # of connection points: 2
#     Edge 347, Type (0, 1), BuildingBlock: EZIPEK_clean_linker_0, # of connection points: 2
#     Edge 348, Type (0, 1), BuildingBlock: EZIPEK_clean_linker_0, # of connection points: 2
#     Edge 349, Type (0, 1), BuildingBlock: EZIPEK_clean_linker_0, # of connection points: 2
#     Edge 350, Type (0, 1), BuildingBlock: EZIPEK_clean_linker_0, # of connection points: 2
#     Edge 351, Type (0, 1), BuildingBlock: EZIPEK_clean_linker_0, # of connection points: 2
#     Edge 352, Type (0, 1), BuildingBlock: EZIPEK_clean_linker_0, # of connection points: 2
#     Edge 353, Type (0, 1), BuildingBlock: EZIPEK_clean_linker_0, # of connection points: 2
#     Edge 354, Type (0, 1), BuildingBlock: EZIPEK_clean_linker_0, # of connection points: 2
#     Edge 355, Type (0, 1), BuildingBlock: EZIPEK_clean_linker_0, # of connection points: 2
#     Edge 356, Type (0, 1), BuildingBlock: EZIPEK_clean_linker_0, # of connection points: 2
#     Edge 357, Type (0, 1), BuildingBlock: EZIPEK_clean_linker_0, # of connection points: 2
#     Edge 358, Type (0, 1), BuildingBlock: EZIPEK_clean_linker_0, # of connection points: 2
#     Edge 359, Type (0, 1), BuildingBlock: EZIPEK_clean_linker_0, # of connection points: 2
#     Edge 360, Type (0, 1), BuildingBlock: EZIPEK_clean_linker_0, # of connection points: 2
#     Edge 361, Type (0, 1), BuildingBlock: EZIPEK_clean_linker_0, # of connection points: 2
#     Edge 362, Type (0, 1), BuildingBlock: EZIPEK_clean_linker_0, # of connection points: 2
#     Edge 363, Type (0, 1), BuildingBlock: EZIPEK_clean_linker_0, # of connection points: 2
#     Edge 364, Type (0, 1), BuildingBlock: EZIPEK_clean_linker_0, # of connection points: 2
#     Edge 365, Type (0, 1), BuildingBlock: EZIPEK_clean_linker_0, # of connection points: 2
#     Edge 366, Type (0, 1), BuildingBlock: EZIPEK_clean_linker_0, # of connection points: 2
#     Edge 367, Type (0, 1), BuildingBlock: EZIPEK_clean_linker_0, # of connection points: 2
#     Edge 368, Type (0, 1), BuildingBlock: EZIPEK_clean_linker_0, # of connection points: 2
#     Edge 369, Type (0, 1), BuildingBlock: EZIPEK_clean_linker_0, # of connection points: 2
#     Edge 370, Type (0, 1), BuildingBlock: EZIPEK_clean_linker_0, # of connection points: 2
#     Edge 371, Type (0, 1), BuildingBlock: EZIPEK_clean_linker_0, # of connection points: 2
#     Edge 372, Type (0, 1), BuildingBlock: EZIPEK_clean_linker_0, # of connection points: 2
#     Edge 373, Type (0, 1), BuildingBlock: EZIPEK_clean_linker_0, # of connection points: 2
#     Edge 374, Type (0, 1), BuildingBlock: EZIPEK_clean_linker_0, # of connection points: 2
#     Edge 375, Type (0, 1), BuildingBlock: EZIPEK_clean_linker_0, # of connection points: 2
#     Edge 376, Type (0, 1), BuildingBlock: EZIPEK_clean_linker_0, # of connection points: 2
#     Edge 377, Type (0, 1), BuildingBlock: EZIPEK_clean_linker_0, # of connection points: 2
#     Edge 378, Type (0, 1), BuildingBlock: EZIPEK_clean_linker_0, # of connection points: 2
#     Edge 379, Type (0, 1), BuildingBlock: EZIPEK_clean_linker_0, # of connection points: 2
#     Edge 380, Type (0, 1), BuildingBlock: EZIPEK_clean_linker_0, # of connection points: 2
#     Edge 381, Type (0, 1), BuildingBlock: EZIPEK_clean_linker_0, # of connection points: 2
#     Edge 382, Type (0, 1), BuildingBlock: EZIPEK_clean_linker_0, # of connection points: 2
#     Edge 383, Type (0, 1), BuildingBlock: EZIPEK_clean_linker_0, # of connection points: 2
#     Edge 384, Type (0, 1), BuildingBlock: EZIPEK_clean_linker_0, # of connection points: 2
#     Edge 385, Type (0, 1), BuildingBlock: EZIPEK_clean_linker_0, # of connection points: 2
#     Edge 386, Type (0, 1), BuildingBlock: EZIPEK_clean_linker_0, # of connection points: 2
#     Edge 387, Type (0, 1), BuildingBlock: EZIPEK_clean_linker_0, # of connection points: 2
#     Edge 388, Type (0, 1), BuildingBlock: EZIPEK_clean_linker_0, # of connection points: 2
#     Edge 389, Type (0, 1), BuildingBlock: EZIPEK_clean_linker_0, # of connection points: 2
#     Edge 390, Type (0, 1), BuildingBlock: EZIPEK_clean_linker_0, # of connection points: 2
#     Edge 391, Type (0, 1), BuildingBlock: EZIPEK_clean_linker_0, # of connection points: 2
#     Edge 392, Type (0, 1), BuildingBlock: EZIPEK_clean_linker_0, # of connection points: 2
#     Edge 393, Type (0, 1), BuildingBlock: EZIPEK_clean_linker_0, # of connection points: 2
#     Edge 394, Type (0, 1), BuildingBlock: EZIPEK_clean_linker_0, # of connection points: 2
#     Edge 395, Type (0, 1), BuildingBlock: EZIPEK_clean_linker_0, # of connection points: 2
#     Edge 396, Type (0, 1), BuildingBlock: EZIPEK_clean_linker_0, # of connection points: 2
#     Edge 397, Type (0, 1), BuildingBlock: EZIPEK_clean_linker_0, # of connection points: 2
#     Edge 398, Type (0, 1), BuildingBlock: EZIPEK_clean_linker_0, # of connection points: 2
#     Edge 399, Type (0, 1), BuildingBlock: EZIPEK_clean_linker_0, # of connection points: 2
#     Edge 400, Type (0, 1), BuildingBlock: EZIPEK_clean_linker_0, # of connection points: 2
#     Edge 401, Type (0, 1), BuildingBlock: EZIPEK_clean_linker_0, # of connection points: 2
#     Edge 402, Type (0, 1), BuildingBlock: EZIPEK_clean_linker_0, # of connection points: 2
#     Edge 403, Type (0, 1), BuildingBlock: EZIPEK_clean_linker_0, # of connection points: 2
#     Edge 404, Type (0, 1), BuildingBlock: EZIPEK_clean_linker_0, # of connection points: 2
#     Edge 405, Type (0, 1), BuildingBlock: EZIPEK_clean_linker_0, # of connection points: 2
#     Edge 406, Type (0, 1), BuildingBlock: EZIPEK_clean_linker_0, # of connection points: 2
#     Edge 407, Type (0, 1), BuildingBlock: EZIPEK_clean_linker_0, # of connection points: 2
#     Edge 408, Type (0, 1), BuildingBlock: EZIPEK_clean_linker_0, # of connection points: 2
#     Edge 409, Type (0, 1), BuildingBlock: EZIPEK_clean_linker_0, # of connection points: 2
#     Edge 410, Type (0, 1), BuildingBlock: EZIPEK_clean_linker_0, # of connection points: 2
#     Edge 411, Type (0, 1), BuildingBlock: EZIPEK_clean_linker_0, # of connection points: 2
#     Edge 412, Type (0, 1), BuildingBlock: EZIPEK_clean_linker_0, # of connection points: 2
#     Edge 413, Type (0, 1), BuildingBlock: EZIPEK_clean_linker_0, # of connection points: 2
#     Edge 414, Type (0, 1), BuildingBlock: EZIPEK_clean_linker_0, # of connection points: 2
#     Edge 415, Type (0, 1), BuildingBlock: EZIPEK_clean_linker_0, # of connection points: 2
#     Edge 416, Type (0, 1), BuildingBlock: EZIPEK_clean_linker_0, # of connection points: 2
#     Edge 417, Type (0, 1), BuildingBlock: EZIPEK_clean_linker_0, # of connection points: 2
#     Edge 418, Type (0, 1), BuildingBlock: EZIPEK_clean_linker_0, # of connection points: 2
#     Edge 419, Type (0, 1), BuildingBlock: EZIPEK_clean_linker_0, # of connection points: 2
#     Edge 420, Type (0, 1), BuildingBlock: EZIPEK_clean_linker_0, # of connection points: 2
#     Edge 421, Type (0, 1), BuildingBlock: EZIPEK_clean_linker_0, # of connection points: 2
#     Edge 422, Type (0, 1), BuildingBlock: EZIPEK_clean_linker_0, # of connection points: 2
#     Edge 423, Type (0, 1), BuildingBlock: EZIPEK_clean_linker_0, # of connection points: 2
#     Edge 424, Type (0, 1), BuildingBlock: EZIPEK_clean_linker_0, # of connection points: 2
#     Edge 425, Type (0, 1), BuildingBlock: EZIPEK_clean_linker_0, # of connection points: 2
#     Edge 426, Type (0, 1), BuildingBlock: EZIPEK_clean_linker_0, # of connection points: 2
#     Edge 427, Type (0, 1), BuildingBlock: EZIPEK_clean_linker_0, # of connection points: 2
#     Edge 428, Type (0, 1), BuildingBlock: EZIPEK_clean_linker_0, # of connection points: 2
#     Edge 429, Type (0, 1), BuildingBlock: EZIPEK_clean_linker_0, # of connection points: 2
#     Edge 430, Type (0, 1), BuildingBlock: EZIPEK_clean_linker_0, # of connection points: 2
#     Edge 431, Type (0, 1), BuildingBlock: EZIPEK_clean_linker_0, # of connection points: 2
#     Edge 432, Type (0, 1), BuildingBlock: EZIPEK_clean_linker_0, # of connection points: 2
#     Edge 433, Type (0, 1), BuildingBlock: EZIPEK_clean_linker_0, # of connection points: 2
#     Edge 434, Type (0, 1), BuildingBlock: EZIPEK_clean_linker_0, # of connection points: 2
#     Edge 435, Type (0, 1), BuildingBlock: EZIPEK_clean_linker_0, # of connection points: 2
#     Edge 436, Type (0, 1), BuildingBlock: EZIPEK_clean_linker_0, # of connection points: 2
#     Edge 437, Type (0, 1), BuildingBlock: EZIPEK_clean_linker_0, # of connection points: 2
#     Edge 438, Type (0, 1), BuildingBlock: EZIPEK_clean_linker_0, # of connection points: 2
#     Edge 439, Type (0, 1), BuildingBlock: EZIPEK_clean_linker_0, # of connection points: 2
#     Edge 440, Type (0, 1), BuildingBlock: EZIPEK_clean_linker_0, # of connection points: 2
#     Edge 441, Type (0, 1), BuildingBlock: EZIPEK_clean_linker_0, # of connection points: 2
#     Edge 442, Type (0, 1), BuildingBlock: EZIPEK_clean_linker_0, # of connection points: 2
#     Edge 443, Type (0, 1), BuildingBlock: EZIPEK_clean_linker_0, # of connection points: 2
#     Edge 444, Type (0, 1), BuildingBlock: EZIPEK_clean_linker_0, # of connection points: 2
#     Edge 445, Type (0, 1), BuildingBlock: EZIPEK_clean_linker_0, # of connection points: 2
#     Edge 446, Type (0, 1), BuildingBlock: EZIPEK_clean_linker_0, # of connection points: 2
#     Edge 447, Type (0, 1), BuildingBlock: EZIPEK_clean_linker_0, # of connection points: 2
#     Edge 448, Type (0, 1), BuildingBlock: EZIPEK_clean_linker_0, # of connection points: 2
#     Edge 449, Type (0, 1), BuildingBlock: EZIPEK_clean_linker_0, # of connection points: 2
#     Edge 450, Type (0, 1), BuildingBlock: EZIPEK_clean_linker_0, # of connection points: 2
#     Edge 451, Type (0, 1), BuildingBlock: EZIPEK_clean_linker_0, # of connection points: 2
#     Edge 452, Type (0, 1), BuildingBlock: EZIPEK_clean_linker_0, # of connection points: 2
#     Edge 453, Type (0, 1), BuildingBlock: EZIPEK_clean_linker_0, # of connection points: 2
#     Edge 454, Type (0, 1), BuildingBlock: EZIPEK_clean_linker_0, # of connection points: 2
#     Edge 455, Type (0, 1), BuildingBlock: EZIPEK_clean_linker_0, # of connection points: 2
#     Edge 456, Type (0, 1), BuildingBlock: EZIPEK_clean_linker_0, # of connection points: 2
#     Edge 457, Type (0, 1), BuildingBlock: EZIPEK_clean_linker_0, # of connection points: 2
#     Edge 458, Type (0, 1), BuildingBlock: EZIPEK_clean_linker_0, # of connection points: 2
#     Edge 459, Type (0, 1), BuildingBlock: EZIPEK_clean_linker_0, # of connection points: 2
#     Edge 460, Type (0, 1), BuildingBlock: EZIPEK_clean_linker_0, # of connection points: 2
#     Edge 461, Type (0, 1), BuildingBlock: EZIPEK_clean_linker_0, # of connection points: 2
#     Edge 462, Type (0, 1), BuildingBlock: EZIPEK_clean_linker_0, # of connection points: 2
#     Edge 463, Type (0, 1), BuildingBlock: EZIPEK_clean_linker_0, # of connection points: 2
#     Edge 464, Type (0, 1), BuildingBlock: EZIPEK_clean_linker_0, # of connection points: 2
#     Edge 465, Type (0, 1), BuildingBlock: EZIPEK_clean_linker_0, # of connection points: 2
#     Edge 466, Type (0, 1), BuildingBlock: EZIPEK_clean_linker_0, # of connection points: 2
#     Edge 467, Type (0, 1), BuildingBlock: EZIPEK_clean_linker_0, # of connection points: 2
#     Edge 468, Type (0, 1), BuildingBlock: EZIPEK_clean_linker_0, # of connection points: 2
#     Edge 469, Type (0, 1), BuildingBlock: EZIPEK_clean_linker_0, # of connection points: 2
#     Edge 470, Type (0, 1), BuildingBlock: EZIPEK_clean_linker_0, # of connection points: 2
#     Edge 471, Type (0, 1), BuildingBlock: EZIPEK_clean_linker_0, # of connection points: 2
#     Edge 472, Type (0, 1), BuildingBlock: EZIPEK_clean_linker_0, # of connection points: 2
#     Edge 473, Type (0, 1), BuildingBlock: EZIPEK_clean_linker_0, # of connection points: 2
#     Edge 474, Type (0, 1), BuildingBlock: EZIPEK_clean_linker_0, # of connection points: 2
#     Edge 475, Type (0, 1), BuildingBlock: EZIPEK_clean_linker_0, # of connection points: 2
#     Edge 476, Type (0, 1), BuildingBlock: EZIPEK_clean_linker_0, # of connection points: 2
#     Edge 477, Type (0, 1), BuildingBlock: EZIPEK_clean_linker_0, # of connection points: 2
#     Edge 478, Type (0, 1), BuildingBlock: EZIPEK_clean_linker_0, # of connection points: 2
#     Edge 479, Type (0, 1), BuildingBlock: EZIPEK_clean_linker_0, # of connection points: 2
# Relax obj value: 0.035
# Max RMSD: 0.061
# Mean RMSD: 0.036
data_MOF--net-ana-f--node1-WUSLED_clean_sbu_0--node2-BETDAH_clean_linker_0--edge1-EZIPEK_clean_linker_0
_symmetry_space_group_name_H-M    P1
_symmetry_Int_Tables_number       1
_symmetry_cell_setting            triclinic
loop_
_symmetry_equiv_pos_as_xyz
'x, y, z'
_cell_length_a     148.06822
_cell_length_b     148.09009
_cell_length_c     148.08853
_cell_angle_alpha  90.00589
_cell_angle_beta   90.007607
_cell_angle_gamma 89.999618
loop_
_atom_site_label
_atom_site_type_symbol
_atom_site_fract_x
_atom_site_fract_y
_atom_site_fract_z
_atom_type_partial_charge
C0 C 0.07576 0.14489 0.43003 0.0
C1 C 0.08373 0.15001 0.43059 0.0
C2 C 0.08976 0.13967 0.44184 0.0
C3 C 0.09068 0.14742 0.43646 0.0
C4 C 0.08178 0.13457 0.44131 0.0
C5 C 0.07482 0.13717 0.43543 0.0
U6 U 0.06754 0.16043 0.41157 0.0
O7 O 0.06034 0.15772 0.39883 0.0
O8 O 0.05435 0.16677 0.40892 0.0
C9 C 0.05319 0.16241 0.40126 0.0
C10 C 0.06855 0.14751 0.42368 0.0
C11 C 0.04425 0.15809 0.39969 0.0
C12 C 0.0286 0.15525 0.40404 0.0
C13 C 0.03712 0.15893 0.40594 0.0
C14 C 0.03413 0.14981 0.38966 0.0
C15 C 0.02704 0.15065 0.39589 0.0
C16 C 0.04262 0.15352 0.39152 0.0
C17 C 0.08558 0.17871 0.4052 0.0
C18 C 0.08488 0.19069 0.39396 0.0
C19 C 0.09866 0.1882 0.40244 0.0
C20 C 0.09453 0.18113 0.40709 0.0
C21 C 0.09392 0.19299 0.3958 0.0
C22 C 0.08073 0.18355 0.39863 0.0
C23 C 0.08172 0.17102 0.41015 0.0
O24 O 0.06476 0.15538 0.42528 0.0
O25 O 0.07049 0.1463 0.41511 0.0
O26 O 0.08083 0.16344 0.40564 0.0
O27 O 0.0749 0.17272 0.41558 0.0
H28 H 0.08459 0.15598 0.42645 0.0
H29 H 0.09679 0.15143 0.43677 0.0
H30 H 0.08096 0.12857 0.44541 0.0
H31 H 0.06873 0.13312 0.43507 0.0
H32 H 0.02321 0.15598 0.40894 0.0
H33 H 0.03808 0.16249 0.41225 0.0
H34 H 0.03307 0.14629 0.38333 0.0
H35 H 0.04792 0.15288 0.38652 0.0
H36 H 0.08112 0.19434 0.38886 0.0
H37 H 0.10562 0.18988 0.40396 0.0
H38 H 0.09838 0.17748 0.41214 0.0
H39 H 0.0738 0.18176 0.39709 0.0
C40 C 0.11217 0.82567 0.67995 0.0
C41 C 0.10715 0.83371 0.68028 0.0
C42 C 0.11724 0.83973 0.69177 0.0
C43 C 0.10966 0.84069 0.68615 0.0
C44 C 0.12225 0.83168 0.69146 0.0
C45 C 0.11973 0.8247 0.68558 0.0
U46 U 0.09706 0.81717 0.66118 0.0
O47 O 0.09999 0.80948 0.64882 0.0
O48 O 0.09057 0.80395 0.65884 0.0
C49 C 0.09499 0.80256 0.65127 0.0
C50 C 0.10959 0.81836 0.67369 0.0
C51 C 0.09902 0.79349 0.65005 0.0
C52 C 0.11197 0.78337 0.64956 0.0
C53 C 0.10828 0.79189 0.6514 0.0
C54 C 0.09719 0.77788 0.6452 0.0
C55 C 0.10647 0.77632 0.64635 0.0
C56 C 0.09351 0.78639 0.64702 0.0
C57 C 0.07917 0.83499 0.65323 0.0
C58 C 0.06348 0.83489 0.64822 0.0
C59 C 0.07293 0.8479 0.64521 0.0
C60 C 0.0802 0.84361 0.64942 0.0
C61 C 0.06448 0.84367 0.64475 0.0
C62 C 0.07078 0.83058 0.65246 0.0
C63 C 0.08667 0.83136 0.65873 0.0
O64 O 0.1016 0.81477 0.67514 0.0
O65 O 0.11112 0.82004 0.66511 0.0
O66 O 0.09448 0.83029 0.65465 0.0
O67 O 0.0848 0.82488 0.66452 0.0
H68 H 0.1013 0.8346 0.67597 0.0
H69 H 0.10571 0.84684 0.6863 0.0
H70 H 0.12812 0.83083 0.69575 0.0
H71 H 0.1237 0.81855 0.68541 0.0
H72 H 0.11914 0.78229 0.65052 0.0
H73 H 0.11266 0.79726 0.65375 0.0
H74 H 0.09284 0.77253 0.64277 0.0
H75 H 0.08635 0.78748 0.64591 0.0
H76 H 0.05699 0.83153 0.6479 0.0
H77 H 0.07383 0.85466 0.64257 0.0
H78 H 0.08657 0.84717 0.64998 0.0
H79 H 0.06978 0.82394 0.65536 0.0
C80 C 0.4316 0.86267 0.92977 0.0
C81 C 0.42257 0.86035 0.928 0.0
C82 C 0.4178 0.86756 0.94196 0.0
C83 C 0.41572 0.86281 0.93403 0.0
C84 C 0.42683 0.86983 0.94378 0.0
C85 C 0.43369 0.86742 0.93771 0.0
U86 U 0.43963 0.84737 0.91103 0.0
O87 O 0.44711 0.85014 0.89844 0.0
O88 O 0.45261 0.84064 0.9084 0.0
C89 C 0.45394 0.84496 0.90075 0.0
C90 C 0.43884 0.86001 0.92344 0.0
C91 C 0.46308 0.8487 0.89928 0.0
C92 C 0.47676 0.85608 0.9046 0.0
C93 C 0.46785 0.85319 0.90609 0.0
C94 C 0.476 0.8506 0.88933 0.0
C95 C 0.48139 0.85415 0.89642 0.0
C96 C 0.46713 0.84771 0.89081 0.0
C97 C 0.42135 0.82956 0.90416 0.0
C98 C 0.42257 0.81656 0.89415 0.0
C99 C 0.40807 0.82062 0.90058 0.0
C100 C 0.41208 0.82788 0.90506 0.0
C101 C 0.41326 0.81491 0.89511 0.0
C102 C 0.42661 0.82387 0.89866 0.0
C103 C 0.42522 0.83715 0.90927 0.0
O104 O 0.4424 0.85201 0.92491 0.0
O105 O 0.43712 0.8615 0.91486 0.0
O106 O 0.42633 0.84477 0.90488 0.0
O107 O 0.43189 0.83527 0.9148 0.0
H108 H 0.42081 0.85661 0.92196 0.0
H109 H 0.4088 0.86096 0.93255 0.0
H110 H 0.42855 0.87348 0.94989 0.0
H111 H 0.44061 0.86923 0.93922 0.0
H112 H 0.47978 0.86001 0.90993 0.0
H113 H 0.46469 0.85449 0.91256 0.0
H114 H 0.47845 0.85013 0.88249 0.0
H115 H 0.46341 0.84468 0.88529 0.0
H116 H 0.42667 0.8122 0.88994 0.0
H117 H 0.40089 0.81945 0.9014 0.0
H118 H 0.40793 0.83218 0.90928 0.0
H119 H 0.43378 0.82507 0.89791 0.0
C120 C 0.39558 0.18165 0.18132 0.0
C121 C 0.4004 0.17348 0.18152 0.0
C122 C 0.39055 0.16778 0.19337 0.0
C123 C 0.3979 0.1666 0.18751 0.0
C124 C 0.38576 0.17597 0.19322 0.0
C125 C 0.38826 0.18286 0.18723 0.0
U126 U 0.41038 0.1894 0.16208 0.0
O127 O 0.40735 0.19668 0.1495 0.0
O128 O 0.41702 0.20243 0.15916 0.0
C129 C 0.41247 0.20362 0.15163 0.0
C130 C 0.39809 0.1888 0.17486 0.0
C131 C 0.40853 0.21269 0.15016 0.0
C132 C 0.39563 0.22287 0.14916 0.0
C133 C 0.39925 0.21438 0.15129 0.0
C134 C 0.41052 0.22819 0.14499 0.0
C135 C 0.40123 0.22981 0.1459 0.0
C136 C 0.41413 0.2197 0.14708 0.0
C137 C 0.4277 0.17081 0.15465 0.0
C138 C 0.44152 0.17166 0.14577 0.0
C139 C 0.43506 0.15709 0.14949 0.0
C140 C 0.42804 0.16137 0.15409 0.0
C141 C 0.44187 0.16218 0.14535 0.0
C142 C 0.43446 0.17597 0.15042 0.0
C143 C 0.42041 0.17488 0.16006 0.0
O144 O 0.40616 0.19232 0.17604 0.0
O145 O 0.39635 0.18694 0.16636 0.0
O146 O 0.41259 0.17599 0.15601 0.0
O147 O 0.42259 0.18161 0.16543 0.0
H148 H 0.40605 0.17241 0.17701 0.0
H149 H 0.40167 0.16033 0.18752 0.0
H150 H 0.38007 0.17699 0.1977 0.0
H151 H 0.38446 0.18911 0.18716 0.0
H152 H 0.38845 0.224 0.14994 0.0
H153 H 0.39478 0.20909 0.15366 0.0
H154 H 0.41496 0.23346 0.14252 0.0
H155 H 0.4213 0.21856 0.14615 0.0
H156 H 0.44675 0.17568 0.1426 0.0
H157 H 0.43522 0.14978 0.14923 0.0
H158 H 0.42291 0.15728 0.15733 0.0
H159 H 0.43432 0.18327 0.15078 0.0
C160 C 0.07572 0.86216 0.07667 0.0
C161 C 0.08475 0.85983 0.07845 0.0
C162 C 0.08959 0.86736 0.06468 0.0
C163 C 0.09163 0.86245 0.07253 0.0
C164 C 0.08057 0.86964 0.06285 0.0
C165 C 0.07368 0.86707 0.06882 0.0
U166 U 0.06745 0.8463 0.09486 0.0
O167 O 0.06002 0.84864 0.1075 0.0
O168 O 0.05428 0.83972 0.09715 0.0
C169 C 0.05303 0.84378 0.10495 0.0
C170 C 0.06844 0.85932 0.08287 0.0
C171 C 0.04404 0.84783 0.10648 0.0
C172 C 0.03385 0.86074 0.10661 0.0
C173 C 0.04227 0.85694 0.10451 0.0
C174 C 0.0288 0.84633 0.11248 0.0
C175 C 0.02708 0.85547 0.11068 0.0
C176 C 0.03721 0.84255 0.1104 0.0
C177 C 0.08561 0.82823 0.10139 0.0
C178 C 0.08469 0.81603 0.11236 0.0
C179 C 0.0987 0.81883 0.10438 0.0
C180 C 0.09464 0.82596 0.09974 0.0
C181 C 0.0938 0.81385 0.11076 0.0
C182 C 0.0806 0.82322 0.1077 0.0
C183 C 0.08178 0.83593 0.09641 0.0
O184 O 0.06484 0.8514 0.08112 0.0
O185 O 0.07011 0.86053 0.09151 0.0
O186 O 0.0807 0.84346 0.10097 0.0
O187 O 0.0751 0.8342 0.09083 0.0
H188 H 0.08648 0.85597 0.08442 0.0
H189 H 0.09855 0.8606 0.07403 0.0
H190 H 0.07888 0.8734 0.05681 0.0
H191 H 0.06676 0.86888 0.06729 0.0
H192 H 0.03264 0.86781 0.10518 0.0
H193 H 0.04744 0.86115 0.10148 0.0
H194 H 0.02367 0.84217 0.11564 0.0
H195 H 0.03844 0.83552 0.112 0.0
H196 H 0.0808 0.81223 0.11726 0.0
H197 H 0.10572 0.81725 0.10305 0.0
H198 H 0.0986 0.82975 0.09489 0.0
H199 H 0.07361 0.82489 0.10904 0.0
C200 C 0.39486 0.82554 0.32645 0.0
C201 C 0.39987 0.8336 0.32606 0.0
C202 C 0.38973 0.83951 0.31456 0.0
C203 C 0.39732 0.84052 0.32015 0.0
C204 C 0.38474 0.83145 0.31492 0.0
C205 C 0.3873 0.82451 0.32084 0.0
U206 U 0.41025 0.81746 0.34508 0.0
O207 O 0.40759 0.81012 0.35771 0.0
O208 O 0.41682 0.80433 0.34765 0.0
C209 C 0.41253 0.80313 0.35533 0.0
C210 C 0.39748 0.81832 0.33279 0.0
C211 C 0.40846 0.79412 0.35678 0.0
C212 C 0.39551 0.78398 0.35702 0.0
C213 C 0.39927 0.79245 0.35507 0.0
C214 C 0.41009 0.77868 0.36221 0.0
C215 C 0.40088 0.77705 0.36068 0.0
C216 C 0.41384 0.78715 0.36029 0.0
C217 C 0.42814 0.83575 0.35183 0.0
C218 C 0.44074 0.83478 0.36235 0.0
C219 C 0.43698 0.8491 0.35535 0.0
C220 C 0.4299 0.84497 0.35071 0.0
C221 C 0.44243 0.84406 0.36123 0.0
C222 C 0.4336 0.83063 0.35767 0.0
C223 C 0.42057 0.83182 0.34673 0.0
O224 O 0.40543 0.81466 0.33129 0.0
O225 O 0.39611 0.82018 0.34136 0.0
O226 O 0.41294 0.83078 0.35113 0.0
O227 O 0.42244 0.82508 0.34126 0.0
H228 H 0.40572 0.83453 0.33035 0.0
H229 H 0.40124 0.8467 0.31997 0.0
H230 H 0.37887 0.83055 0.31066 0.0
H231 H 0.38335 0.81835 0.32106 0.0
H232 H 0.38839 0.78284 0.35576 0.0
H233 H 0.39499 0.79772 0.35235 0.0
H234 H 0.41435 0.77342 0.36499 0.0
H235 H 0.42094 0.78829 0.36166 0.0
H236 H 0.4449 0.8308 0.36686 0.0
H237 H 0.43818 0.85625 0.3544 0.0
H238 H 0.42577 0.84902 0.34622 0.0
H239 H 0.43233 0.82349 0.35861 0.0
C240 C 0.43152 0.14458 0.57693 0.0
C241 C 0.4225 0.14698 0.57865 0.0
C242 C 0.41771 0.1395 0.56484 0.0
C243 C 0.41564 0.14442 0.57267 0.0
C244 C 0.42673 0.13716 0.56307 0.0
C245 C 0.43359 0.13967 0.56909 0.0
U246 U 0.43979 0.16022 0.59533 0.0
O247 O 0.44714 0.15767 0.60798 0.0
O248 O 0.45299 0.16667 0.59778 0.0
C249 C 0.45426 0.16234 0.60544 0.0
C250 C 0.43877 0.14733 0.5832 0.0
C251 C 0.46327 0.15808 0.60685 0.0
C252 C 0.47962 0.15824 0.60469 0.0
C253 C 0.47105 0.16184 0.60288 0.0
C254 C 0.47286 0.14708 0.61453 0.0
C255 C 0.48059 0.15084 0.61054 0.0
C256 C 0.4643 0.15067 0.61273 0.0
C257 C 0.42163 0.17833 0.60187 0.0
C258 C 0.42243 0.19057 0.61283 0.0
C259 C 0.40848 0.18768 0.60476 0.0
C260 C 0.4126 0.18056 0.60018 0.0
C261 C 0.41333 0.1927 0.61115 0.0
C262 C 0.42658 0.18338 0.60821 0.0
C263 C 0.42552 0.17067 0.5969 0.0
O264 O 0.44243 0.15524 0.58154 0.0
O265 O 0.43703 0.14606 0.59181 0.0
O266 O 0.42653 0.1631 0.60141 0.0
O267 O 0.43226 0.17243 0.5914 0.0
H268 H 0.42076 0.15084 0.58462 0.0
H269 H 0.40873 0.14632 0.57412 0.0
H270 H 0.42843 0.13339 0.55703 0.0
H271 H 0.44051 0.1378 0.56762 0.0
H272 H 0.48551 0.16124 0.60156 0.0
H273 H 0.47054 0.16764 0.59846 0.0
H274 H 0.47348 0.14139 0.61908 0.0
H275 H 0.4585 0.14769 0.61604 0.0
H276 H 0.42627 0.19439 0.61774 0.0
H277 H 0.40146 0.18923 0.60338 0.0
H278 H 0.40868 0.17675 0.5953 0.0
H279 H 0.43357 0.18174 0.6096 0.0
C280 C 0.11171 0.18119 0.82753 0.0
C281 C 0.10961 0.17216 0.82953 0.0
C282 C 0.11662 0.16725 0.81552 0.0
C283 C 0.11208 0.16523 0.82359 0.0
C284 C 0.11866 0.17628 0.81347 0.0
C285 C 0.11624 0.18321 0.81945 0.0
U286 U 0.09676 0.18962 0.84647 0.0
O287 O 0.09977 0.19737 0.85877 0.0
O288 O 0.09019 0.20281 0.84884 0.0
C289 C 0.09471 0.20426 0.85635 0.0
C290 C 0.10908 0.18852 0.83377 0.0
C291 C 0.09875 0.21333 0.85746 0.0
C292 C 0.11174 0.22343 0.85768 0.0
C293 C 0.10799 0.21492 0.8559 0.0
C294 C 0.09706 0.22895 0.86235 0.0
C295 C 0.10632 0.23048 0.86101 0.0
C296 C 0.09332 0.22044 0.8606 0.0
C297 C 0.07919 0.17156 0.85472 0.0
C298 C 0.06326 0.17054 0.8588 0.0
C299 C 0.07368 0.15889 0.86362 0.0
C300 C 0.08077 0.16348 0.85943 0.0
C301 C 0.06485 0.16226 0.86316 0.0
C302 C 0.07038 0.17515 0.85458 0.0
C303 C 0.08657 0.17532 0.84912 0.0
O304 O 0.10102 0.19196 0.83239 0.0
O305 O 0.11079 0.18701 0.84235 0.0
O306 O 0.09443 0.1765 0.85308 0.0
O307 O 0.08455 0.18175 0.84334 0.0
H308 H 0.10604 0.17046 0.83569 0.0
H309 H 0.11042 0.15831 0.82526 0.0
H310 H 0.12215 0.17795 0.80726 0.0
H311 H 0.11788 0.19013 0.81776 0.0
H312 H 0.11889 0.2245 0.85657 0.0
H313 H 0.11231 0.20955 0.85346 0.0
H314 H 0.09277 0.2343 0.86489 0.0
H315 H 0.0862 0.21936 0.86186 0.0
H316 H 0.05647 0.17324 0.85839 0.0
H317 H 0.07503 0.15251 0.86695 0.0
H318 H 0.08746 0.16051 0.85956 0.0
H319 H 0.06893 0.18134 0.85096 0.0
C320 C 0.42845 0.07623 0.14244 0.0
C321 C 0.43135 0.08328 0.14811 0.0
C322 C 0.43978 0.08999 0.13571 0.0
C323 C 0.437 0.0901 0.14477 0.0
C324 C 0.43689 0.08295 0.13006 0.0
C325 C 0.43128 0.07611 0.1334 0.0
U326 U 0.41097 0.06814 0.1594 0.0
O327 O 0.39826 0.06068 0.15757 0.0
O328 O 0.40901 0.05491 0.16598 0.0
C329 C 0.40107 0.05365 0.16221 0.0
C330 C 0.42228 0.06914 0.14578 0.0
C331 C 0.39949 0.0447 0.15807 0.0
C332 C 0.39867 0.03479 0.14496 0.0
C333 C 0.40074 0.04321 0.14878 0.0
C334 C 0.39426 0.02918 0.15968 0.0
C335 C 0.39535 0.02774 0.15038 0.0
C336 C 0.39631 0.0376 0.16349 0.0
C337 C 0.40511 0.08603 0.1779 0.0
C338 C 0.39357 0.08537 0.18959 0.0
C339 C 0.40295 0.09871 0.18807 0.0
C340 C 0.40751 0.09468 0.18088 0.0
C341 C 0.39588 0.09414 0.19242 0.0
C342 C 0.39815 0.08133 0.18232 0.0
C343 C 0.40983 0.08237 0.16997 0.0
O344 O 0.42441 0.06553 0.1536 0.0
O345 O 0.41364 0.071 0.14505 0.0
O346 O 0.40497 0.08133 0.16262 0.0
O347 O 0.41553 0.07571 0.17138 0.0
H348 H 0.42918 0.08354 0.15509 0.0
H349 H 0.43914 0.0955 0.14922 0.0
H350 H 0.43893 0.08278 0.12303 0.0
H351 H 0.42908 0.07077 0.12891 0.0
H352 H 0.39954 0.0338 0.13777 0.0
H353 H 0.4032 0.04858 0.14447 0.0
H354 H 0.3917 0.02383 0.16396 0.0
H355 H 0.39528 0.0386 0.17066 0.0
H356 H 0.38815 0.08175 0.1929 0.0
H357 H 0.40483 0.10546 0.19016 0.0
H358 H 0.41286 0.09841 0.17754 0.0
H359 H 0.39621 0.07464 0.1801 0.0
C360 C 0.18149 0.17998 0.39446 0.0
C361 C 0.17246 0.17814 0.39674 0.0
C362 C 0.16761 0.19203 0.38944 0.0
C363 C 0.16557 0.1841 0.39421 0.0
C364 C 0.17663 0.19392 0.38722 0.0
C365 C 0.18353 0.18791 0.38969 0.0
U366 U 0.18976 0.16151 0.41 0.0
O367 O 0.19723 0.14894 0.40746 0.0
O368 O 0.20293 0.15913 0.41658 0.0
C369 C 0.2042 0.15142 0.41236 0.0
C370 C 0.18877 0.17374 0.3972 0.0
C371 C 0.21321 0.15 0.40829 0.0
C372 C 0.2233 0.14961 0.3953 0.0
C373 C 0.21483 0.15158 0.39907 0.0
C374 C 0.22869 0.14466 0.40993 0.0
C375 C 0.23026 0.14605 0.40069 0.0
C376 C 0.22023 0.14661 0.41369 0.0
C377 C 0.17155 0.15469 0.42793 0.0
C378 C 0.17262 0.14411 0.44047 0.0
C379 C 0.15832 0.1513 0.43699 0.0
C380 C 0.16237 0.15591 0.42985 0.0
C381 C 0.16338 0.14535 0.44234 0.0
C382 C 0.17669 0.14876 0.43327 0.0
C383 C 0.17541 0.15977 0.42032 0.0
O384 O 0.19236 0.17535 0.40515 0.0
O385 O 0.18712 0.16512 0.39584 0.0
O386 O 0.17651 0.15533 0.41272 0.0
O387 O 0.18208 0.16533 0.42215 0.0
H388 H 0.17074 0.1721 0.40049 0.0
H389 H 0.15865 0.18255 0.39601 0.0
H390 H 0.17832 0.20002 0.38356 0.0
H391 H 0.19045 0.18948 0.38792 0.0
H392 H 0.22439 0.15075 0.38816 0.0
H393 H 0.20953 0.15422 0.39478 0.0
H394 H 0.23398 0.14196 0.4142 0.0
H395 H 0.21912 0.14534 0.42081 0.0
H396 H 0.17661 0.13954 0.44455 0.0
H397 H 0.1512 0.15233 0.43833 0.0
H398 H 0.15831 0.16046 0.42581 0.0
H399 H 0.1838 0.14775 0.43188 0.0
C400 C 0.07704 0.93167 0.64494 0.0
C401 C 0.07656 0.92364 0.64998 0.0
C402 C 0.06512 0.91774 0.63979 0.0
C403 C 0.07064 0.91674 0.64743 0.0
C404 C 0.06557 0.92578 0.63476 0.0
C405 C 0.0715 0.9327 0.63732 0.0
U406 U 0.09564 0.93972 0.66039 0.0
O407 O 0.10832 0.94698 0.65776 0.0
O408 O 0.09824 0.95288 0.66688 0.0
C409 C 0.10594 0.95403 0.66261 0.0
C410 C 0.08341 0.93886 0.64757 0.0
C411 C 0.10743 0.96299 0.65846 0.0
C412 C 0.10818 0.97289 0.64535 0.0
C413 C 0.10613 0.96448 0.64918 0.0
C414 C 0.11266 0.97851 0.66004 0.0
C415 C 0.11153 0.97994 0.65075 0.0
C416 C 0.11063 0.9701 0.66386 0.0
C417 C 0.1023 0.92151 0.67837 0.0
C418 C 0.1121 0.92266 0.69153 0.0
C419 C 0.10621 0.90809 0.68693 0.0
C420 C 0.10169 0.91217 0.67975 0.0
C421 C 0.11143 0.91327 0.69288 0.0
C422 C 0.10754 0.92677 0.68429 0.0
C423 C 0.09722 0.92541 0.67078 0.0
O424 O 0.08188 0.94255 0.6555 0.0
O425 O 0.09197 0.93696 0.64624 0.0
O426 O 0.10162 0.92639 0.66315 0.0
O427 O 0.09176 0.93218 0.6726 0.0
H428 H 0.0808 0.92272 0.65588 0.0
H429 H 0.07038 0.91059 0.65138 0.0
H430 H 0.06136 0.92666 0.62884 0.0
H431 H 0.07179 0.93883 0.63335 0.0
H432 H 0.10727 0.97387 0.63816 0.0
H433 H 0.10365 0.9591 0.64487 0.0
H434 H 0.11524 0.98387 0.66431 0.0
H435 H 0.1117 0.9691 0.67103 0.0
H436 H 0.11611 0.92675 0.69607 0.0
H437 H 0.10562 0.90085 0.68787 0.0
H438 H 0.09767 0.90801 0.67526 0.0
H439 H 0.10808 0.934 0.68333 0.0
C440 C 0.32597 0.82652 0.89489 0.0
C441 C 0.33501 0.82858 0.89696 0.0
C442 C 0.33998 0.8146 0.88991 0.0
C443 C 0.34196 0.82268 0.89445 0.0
C444 C 0.33095 0.8125 0.8879 0.0
C445 C 0.32399 0.81843 0.89036 0.0
U446 U 0.31726 0.84518 0.91009 0.0
O447 O 0.30948 0.85749 0.90722 0.0
O448 O 0.30398 0.84736 0.91653 0.0
C449 C 0.30253 0.85493 0.91213 0.0
C450 C 0.3186 0.8327 0.89756 0.0
C451 C 0.29347 0.85612 0.90806 0.0
C452 C 0.28362 0.85798 0.895 0.0
C453 C 0.29214 0.85602 0.89865 0.0
C454 C 0.27757 0.8599 0.91008 0.0
C455 C 0.2763 0.86002 0.90069 0.0
C456 C 0.28609 0.85798 0.91372 0.0
C457 C 0.33502 0.85323 0.92804 0.0
C458 C 0.33514 0.85782 0.94386 0.0
C459 C 0.34783 0.86148 0.9342 0.0
C460 C 0.34349 0.85734 0.92692 0.0
C461 C 0.34379 0.86157 0.94276 0.0
C462 C 0.33079 0.85364 0.93654 0.0
C463 C 0.33141 0.84773 0.92051 0.0
O464 O 0.31507 0.83116 0.90556 0.0
O465 O 0.32009 0.84132 0.89603 0.0
O466 O 0.33032 0.85183 0.91271 0.0
O467 O 0.32498 0.84189 0.92235 0.0
H468 H 0.33668 0.83475 0.90052 0.0
H469 H 0.34888 0.82439 0.89608 0.0
H470 H 0.3293 0.80628 0.88442 0.0
H471 H 0.31707 0.8167 0.88874 0.0
H472 H 0.28276 0.85804 0.88774 0.0
H473 H 0.29771 0.85461 0.89413 0.0
H474 H 0.27201 0.86147 0.91457 0.0
H475 H 0.28696 0.85813 0.92099 0.0
H476 H 0.33193 0.85786 0.95042 0.0
H477 H 0.35449 0.86434 0.93322 0.0
H478 H 0.34693 0.85704 0.92046 0.0
H479 H 0.32427 0.85051 0.93762 0.0
C480 C 0.42935 0.93146 0.36235 0.0
C481 C 0.42753 0.92243 0.36007 0.0
C482 C 0.44131 0.91759 0.36758 0.0
C483 C 0.43345 0.91554 0.3627 0.0
C484 C 0.44318 0.92662 0.36981 0.0
C485 C 0.43722 0.93351 0.36723 0.0
U486 U 0.41118 0.93971 0.34645 0.0
O487 O 0.39856 0.9472 0.34876 0.0
O488 O 0.40893 0.95286 0.33981 0.0
C489 C 0.40113 0.95415 0.34386 0.0
C490 C 0.42316 0.93875 0.35949 0.0
C491 C 0.39966 0.96315 0.3479 0.0
C492 C 0.40038 0.97357 0.3606 0.0
C493 C 0.40238 0.96514 0.35677 0.0
C494 C 0.3931 0.97819 0.3467 0.0
C495 C 0.39566 0.98013 0.35561 0.0
C496 C 0.39509 0.96977 0.34288 0.0
C497 C 0.40464 0.92147 0.32846 0.0
C498 C 0.39372 0.92232 0.31619 0.0
C499 C 0.40173 0.90834 0.31909 0.0
C500 C 0.40632 0.91243 0.32622 0.0
C501 C 0.39537 0.91321 0.31405 0.0
C502 C 0.39834 0.92644 0.32339 0.0
C503 C 0.4096 0.92534 0.33615 0.0
O504 O 0.42493 0.94232 0.35155 0.0
O505 O 0.41452 0.9371 0.36069 0.0
O506 O 0.40503 0.92647 0.34366 0.0
O507 O 0.4152 0.932 0.33439 0.0
H508 H 0.42155 0.9207 0.35623 0.0
H509 H 0.43193 0.90862 0.36088 0.0
H510 H 0.44923 0.92831 0.37355 0.0
H511 H 0.43876 0.94043 0.36901 0.0
H512 H 0.40239 0.97494 0.3675 0.0
H513 H 0.40591 0.96013 0.36077 0.0
H514 H 0.38944 0.98314 0.34275 0.0
H515 H 0.39291 0.96836 0.33603 0.0
H516 H 0.38884 0.92618 0.31235 0.0
H517 H 0.40309 0.90132 0.31753 0.0
H518 H 0.41116 0.9085 0.33005 0.0
H519 H 0.39698 0.93344 0.32503 0.0
C520 C 0.3256 0.1803 0.61151 0.0
C521 C 0.33464 0.17823 0.6095 0.0
C522 C 0.33959 0.19221 0.61656 0.0
C523 C 0.34159 0.18412 0.61205 0.0
C524 C 0.33055 0.19433 0.6185 0.0
C525 C 0.3236 0.1884 0.61601 0.0
U526 U 0.31707 0.16165 0.59624 0.0
O527 O 0.3093 0.14932 0.59903 0.0
O528 O 0.30387 0.15943 0.58964 0.0
C529 C 0.30242 0.15183 0.59401 0.0
C530 C 0.31825 0.17413 0.60878 0.0
C531 C 0.29334 0.15063 0.59799 0.0
C532 C 0.28318 0.15014 0.61092 0.0
C533 C 0.2917 0.15202 0.60724 0.0
C534 C 0.27775 0.14569 0.59614 0.0
C535 C 0.27617 0.14686 0.60541 0.0
C536 C 0.28626 0.14754 0.59247 0.0
C537 C 0.33499 0.15363 0.57848 0.0
C538 C 0.33504 0.1488 0.56274 0.0
C539 C 0.34785 0.14547 0.57235 0.0
C540 C 0.34352 0.14967 0.5796 0.0
C541 C 0.34374 0.14518 0.56383 0.0
C542 C 0.33069 0.15303 0.57002 0.0
C543 C 0.33133 0.15914 0.58597 0.0
O544 O 0.31478 0.17566 0.60075 0.0
O545 O 0.31972 0.16552 0.61033 0.0
O546 O 0.33018 0.15505 0.59376 0.0
O547 O 0.32491 0.16498 0.58407 0.0
H548 H 0.33634 0.17206 0.60596 0.0
H549 H 0.34852 0.1824 0.61047 0.0
H550 H 0.32889 0.20056 0.62196 0.0
H551 H 0.31667 0.19015 0.61757 0.0
H552 H 0.28207 0.15112 0.61808 0.0
H553 H 0.29704 0.1544 0.61163 0.0
H554 H 0.27242 0.14321 0.59178 0.0
H555 H 0.28738 0.14641 0.58533 0.0
H556 H 0.33176 0.1486 0.5562 0.0
H557 H 0.35456 0.1427 0.57332 0.0
H558 H 0.347 0.15011 0.58602 0.0
H559 H 0.32411 0.15605 0.56896 0.0
C560 C 0.07758 0.07531 0.86393 0.0
C561 C 0.07481 0.08247 0.85834 0.0
C562 C 0.06629 0.08906 0.87075 0.0
C563 C 0.06918 0.08928 0.86172 0.0
C564 C 0.06904 0.08189 0.87632 0.0
C565 C 0.07463 0.07506 0.87293 0.0
U566 U 0.09512 0.06736 0.84698 0.0
O567 O 0.10781 0.05986 0.84881 0.0
O568 O 0.09711 0.0542 0.84025 0.0
C569 C 0.10503 0.05289 0.84405 0.0
C570 C 0.08374 0.06823 0.86056 0.0
C571 C 0.10658 0.04388 0.84808 0.0
C572 C 0.10719 0.03377 0.86103 0.0
C573 C 0.10521 0.04226 0.85733 0.0
C574 C 0.11174 0.02837 0.84628 0.0
C575 C 0.11055 0.02678 0.85554 0.0
C576 C 0.10979 0.03686 0.84259 0.0
C577 C 0.10114 0.08542 0.82873 0.0
C578 C 0.11265 0.08473 0.81701 0.0
C579 C 0.1036 0.09826 0.81884 0.0
C580 C 0.09894 0.09419 0.82594 0.0
C581 C 0.11056 0.09362 0.81439 0.0
C582 C 0.10798 0.08065 0.82419 0.0
C583 C 0.09634 0.0817 0.83659 0.0
O584 O 0.08165 0.06471 0.85267 0.0
O585 O 0.09238 0.07005 0.86136 0.0
O586 O 0.10115 0.08058 0.84396 0.0
O587 O 0.09065 0.07507 0.83506 0.0
H588 H 0.07708 0.08283 0.85139 0.0
H589 H 0.06715 0.09478 0.85734 0.0
H590 H 0.06691 0.08163 0.88331 0.0
H591 H 0.07673 0.06963 0.87735 0.0
H592 H 0.10619 0.03266 0.86819 0.0
H593 H 0.10271 0.04757 0.8617 0.0
H594 H 0.11429 0.02306 0.84193 0.0
H595 H 0.11089 0.03797 0.83544 0.0
H596 H 0.11799 0.08106 0.81363 0.0
H597 H 0.10188 0.1051 0.81691 0.0
H598 H 0.09369 0.09797 0.82937 0.0
H599 H 0.10976 0.07387 0.82627 0.0
C600 C 0.18115 0.82656 0.11185 0.0
C601 C 0.17214 0.82834 0.10945 0.0
C602 C 0.16726 0.81457 0.11696 0.0
C603 C 0.16524 0.82241 0.11202 0.0
C604 C 0.17627 0.81274 0.11929 0.0
C605 C 0.18317 0.81871 0.11677 0.0
U606 U 0.18957 0.84495 0.09626 0.0
O607 O 0.19699 0.85757 0.09887 0.0
O608 O 0.2028 0.84736 0.08985 0.0
C609 C 0.20409 0.85502 0.09418 0.0
C610 C 0.18845 0.83279 0.10912 0.0
C611 C 0.21311 0.85647 0.0984 0.0
C612 C 0.22944 0.85404 0.09844 0.0
C613 C 0.22085 0.85214 0.09493 0.0
C614 C 0.22281 0.86467 0.10893 0.0
C615 C 0.23048 0.86033 0.10545 0.0
C616 C 0.21422 0.86278 0.10543 0.0
C617 C 0.17148 0.85167 0.07813 0.0
C618 C 0.17227 0.86285 0.0661 0.0
C619 C 0.15838 0.85459 0.06872 0.0
C620 C 0.16248 0.84991 0.07578 0.0
C621 C 0.1632 0.86113 0.06386 0.0
C622 C 0.1764 0.85814 0.07324 0.0
C623 C 0.17533 0.84664 0.08578 0.0
O624 O 0.19211 0.83113 0.1012 0.0
O625 O 0.18676 0.84142 0.1104 0.0
O626 O 0.17636 0.85111 0.09337 0.0
O627 O 0.18205 0.84111 0.08401 0.0
H628 H 0.17044 0.83431 0.10558 0.0
H629 H 0.15833 0.8239 0.11013 0.0
H630 H 0.17794 0.80671 0.12308 0.0
H631 H 0.19008 0.8172 0.11864 0.0
H632 H 0.23529 0.85065 0.09565 0.0
H633 H 0.22029 0.84738 0.08941 0.0
H634 H 0.22348 0.86956 0.11433 0.0
H635 H 0.20847 0.86638 0.10816 0.0
H636 H 0.17609 0.86787 0.0624 0.0
H637 H 0.15139 0.85317 0.06709 0.0
H638 H 0.15859 0.84494 0.07948 0.0
H639 H 0.18336 0.85957 0.07497 0.0
C640 C 0.14511 0.42944 0.07554 0.0
C641 C 0.14718 0.42747 0.08459 0.0
C642 C 0.14011 0.44149 0.08943 0.0
C643 C 0.14467 0.43344 0.09149 0.0
C644 C 0.13811 0.44351 0.08038 0.0
C645 C 0.14058 0.4375 0.07348 0.0
U646 U 0.16018 0.41055 0.06717 0.0
O647 O 0.15716 0.39818 0.05943 0.0
O648 O 0.16682 0.40809 0.05411 0.0
C649 C 0.16238 0.40053 0.05265 0.0
C650 C 0.14776 0.42316 0.06825 0.0
C651 C 0.15867 0.39921 0.04348 0.0
C652 C 0.15147 0.40478 0.0298 0.0
C653 C 0.15433 0.40614 0.03874 0.0
C654 C 0.15671 0.38941 0.03045 0.0
C655 C 0.1533 0.3966 0.02511 0.0
C656 C 0.15956 0.39077 0.03936 0.0
C657 C 0.17801 0.40263 0.08505 0.0
C658 C 0.19369 0.39759 0.08478 0.0
C659 C 0.18445 0.39485 0.098 0.0
C660 C 0.17712 0.39899 0.09375 0.0
C661 C 0.19283 0.3943 0.09364 0.0
C662 C 0.18632 0.40176 0.08051 0.0
C663 C 0.17048 0.40811 0.08143 0.0
O664 O 0.15579 0.42457 0.06474 0.0
O665 O 0.14613 0.41458 0.06982 0.0
O666 O 0.16269 0.40401 0.08032 0.0
O667 O 0.17236 0.41391 0.07498 0.0
H668 H 0.15074 0.42132 0.08633 0.0
H669 H 0.1463 0.43179 0.09843 0.0
H670 H 0.13462 0.44971 0.07868 0.0
H671 H 0.13896 0.43916 0.06654 0.0
H672 H 0.14764 0.41019 0.02681 0.0
H673 H 0.15311 0.4126 0.04195 0.0
H674 H 0.1571 0.38259 0.02794 0.0
H675 H 0.16248 0.38516 0.04305 0.0
H676 H 0.20012 0.39719 0.08132 0.0
H677 H 0.18366 0.39234 0.10483 0.0
H678 H 0.17081 0.39963 0.09741 0.0
H679 H 0.18721 0.40453 0.0738 0.0
C680 C 0.64497 0.07632 0.93197 0.0
C681 C 0.6498 0.07617 0.9238 0.0
C682 C 0.63989 0.06443 0.91797 0.0
C683 C 0.64729 0.07026 0.91686 0.0
C684 C 0.63509 0.06454 0.92615 0.0
C685 C 0.63761 0.07046 0.93311 0.0
U686 U 0.65981 0.09545 0.94007 0.0
O687 O 0.65665 0.10788 0.94765 0.0
O688 O 0.66644 0.09817 0.95308 0.0
C689 C 0.66191 0.10569 0.95446 0.0
C690 C 0.64749 0.08271 0.93919 0.0
C691 C 0.6582 0.10706 0.96362 0.0
C692 C 0.651 0.10157 0.97733 0.0
C693 C 0.65384 0.10017 0.96839 0.0
C694 C 0.65628 0.11691 0.97661 0.0
C695 C 0.65287 0.10976 0.98198 0.0
C696 C 0.65912 0.11552 0.96771 0.0
C697 C 0.67749 0.10332 0.92202 0.0
C698 C 0.69321 0.10824 0.92186 0.0
C699 C 0.68356 0.11132 0.90902 0.0
C700 C 0.67634 0.10715 0.91343 0.0
C701 C 0.69209 0.11172 0.9131 0.0
C702 C 0.68596 0.10404 0.92629 0.0
C703 C 0.67005 0.0978 0.92576 0.0
O704 O 0.65553 0.08145 0.94274 0.0
O705 O 0.6458 0.09124 0.93742 0.0
O706 O 0.66221 0.10182 0.92683 0.0
O707 O 0.67202 0.09212 0.9323 0.0
H708 H 0.65549 0.08066 0.92279 0.0
H709 H 0.65106 0.07027 0.9106 0.0
H710 H 0.62936 0.0601 0.92712 0.0
H711 H 0.63379 0.0705 0.93934 0.0
H712 H 0.64716 0.09618 0.98034 0.0
H713 H 0.65261 0.0937 0.9652 0.0
H714 H 0.65671 0.12374 0.9791 0.0
H715 H 0.66205 0.1211 0.96399 0.0
H716 H 0.69976 0.10852 0.92511 0.0
H717 H 0.68256 0.11398 0.90227 0.0
H718 H 0.66991 0.10663 0.90996 0.0
H719 H 0.68706 0.10112 0.9329 0.0
C720 C 0.1807 0.39452 0.18112 0.0
C721 C 0.17878 0.39654 0.17204 0.0
C722 C 0.19286 0.38951 0.16734 0.0
C723 C 0.1848 0.39401 0.1652 0.0
C724 C 0.19483 0.38755 0.17641 0.0
C725 C 0.18877 0.39002 0.18325 0.0
U726 U 0.16221 0.41011 0.1893 0.0
O727 O 0.14958 0.4076 0.19669 0.0
O728 O 0.15978 0.41666 0.20248 0.0
C729 C 0.15206 0.41246 0.2037 0.0
C730 C 0.17441 0.39728 0.18836 0.0
C731 C 0.15056 0.40838 0.2127 0.0
C732 C 0.14925 0.3953 0.2226 0.0
C733 C 0.15139 0.39903 0.21416 0.0
C734 C 0.14567 0.41021 0.22831 0.0
C735 C 0.1463 0.40086 0.2297 0.0
C736 C 0.14777 0.41393 0.21987 0.0
C737 C 0.1555 0.4281 0.17112 0.0
C738 C 0.14442 0.44021 0.17201 0.0
C739 C 0.15244 0.43744 0.15801 0.0
C740 C 0.15713 0.43037 0.16209 0.0
C741 C 0.14603 0.44239 0.1629 0.0
C742 C 0.14914 0.43307 0.17611 0.0
C743 C 0.16057 0.42047 0.17497 0.0
O744 O 0.17603 0.40522 0.19197 0.0
O745 O 0.1658 0.39594 0.18665 0.0
O746 O 0.15611 0.41288 0.17603 0.0
O747 O 0.16609 0.42228 0.18168 0.0
H748 H 0.17264 0.40009 0.17024 0.0
H749 H 0.1832 0.39561 0.15825 0.0
H750 H 0.20104 0.38411 0.17817 0.0
H751 H 0.19039 0.38846 0.19021 0.0
H752 H 0.14978 0.38807 0.22356 0.0
H753 H 0.15353 0.39461 0.20874 0.0
H754 H 0.14339 0.41459 0.2337 0.0
H755 H 0.14706 0.42114 0.21889 0.0
H756 H 0.13949 0.44398 0.17588 0.0
H757 H 0.15377 0.43903 0.15099 0.0
H758 H 0.16202 0.42661 0.15814 0.0
H759 H 0.14781 0.4314 0.18311 0.0
C760 C 0.86182 0.93014 0.43131 0.0
C761 C 0.85688 0.93041 0.42321 0.0
C762 C 0.86697 0.94194 0.41728 0.0
C763 C 0.85944 0.93627 0.41625 0.0
C764 C 0.87188 0.9417 0.4254 0.0
C765 C 0.86932 0.93583 0.43237 0.0
U766 U 0.84641 0.91157 0.43943 0.0
O767 O 0.84903 0.89896 0.44683 0.0
O768 O 0.8398 0.90905 0.45255 0.0
C769 C 0.84408 0.90138 0.4538 0.0
C770 C 0.85918 0.92384 0.43856 0.0
C771 C 0.84813 0.89996 0.46282 0.0
C772 C 0.8611 0.89955 0.47294 0.0
C773 C 0.85736 0.90148 0.46445 0.0
C774 C 0.84641 0.89477 0.47834 0.0
C775 C 0.85567 0.89609 0.47992 0.0
C776 C 0.84269 0.89667 0.46986 0.0
C777 C 0.82859 0.90477 0.42109 0.0
C778 C 0.81569 0.89463 0.42208 0.0
C779 C 0.81995 0.90108 0.40765 0.0
C780 C 0.82708 0.90564 0.41179 0.0
C781 C 0.81421 0.89554 0.41274 0.0
C782 C 0.82287 0.89923 0.42625 0.0
C783 C 0.83615 0.90987 0.42504 0.0
O784 O 0.85123 0.92536 0.44219 0.0
O785 O 0.86057 0.91526 0.43676 0.0
O786 O 0.84377 0.90546 0.42613 0.0
O787 O 0.83426 0.91536 0.43175 0.0
H788 H 0.85108 0.92606 0.42226 0.0
H789 H 0.85557 0.93636 0.41004 0.0
H790 H 0.87771 0.94603 0.4263 0.0
H791 H 0.87321 0.9357 0.43856 0.0
H792 H 0.86825 0.90065 0.47405 0.0
H793 H 0.86169 0.90404 0.45914 0.0
H794 H 0.84211 0.89215 0.48364 0.0
H795 H 0.83556 0.89545 0.46874 0.0
H796 H 0.8113 0.89038 0.42611 0.0
H797 H 0.81892 0.90186 0.40045 0.0
H798 H 0.83142 0.90989 0.4077 0.0
H799 H 0.82395 0.89849 0.43345 0.0
C800 C 0.82867 0.11392 0.18102 0.0
C801 C 0.82581 0.10828 0.17393 0.0
C802 C 0.81741 0.12073 0.16723 0.0
C803 C 0.82018 0.11166 0.1671 0.0
C804 C 0.82029 0.12634 0.17431 0.0
C805 C 0.82585 0.12296 0.18116 0.0
U806 U 0.84653 0.09731 0.18922 0.0
O807 O 0.85898 0.09947 0.197 0.0
O808 O 0.8484 0.09063 0.20242 0.0
C809 C 0.85618 0.09465 0.20391 0.0
C810 C 0.83479 0.11056 0.18815 0.0
C811 C 0.85746 0.09869 0.21296 0.0
C812 C 0.8587 0.11175 0.2229 0.0
C813 C 0.85677 0.10806 0.21439 0.0
C814 C 0.86177 0.09677 0.22873 0.0
C815 C 0.86128 0.10613 0.23011 0.0
C816 C 0.85988 0.09309 0.22022 0.0
C817 C 0.85378 0.07928 0.17127 0.0
C818 C 0.85851 0.0635 0.17155 0.0
C819 C 0.86144 0.07269 0.15833 0.0
C820 C 0.85744 0.08009 0.16257 0.0
C821 C 0.86185 0.0643 0.1627 0.0
C822 C 0.85447 0.07095 0.17581 0.0
C823 C 0.84858 0.08698 0.17492 0.0
O824 O 0.83283 0.10259 0.19153 0.0
O825 O 0.84344 0.11161 0.18652 0.0
O826 O 0.85302 0.09457 0.17611 0.0
O827 O 0.84265 0.08532 0.18133 0.0
H828 H 0.82797 0.1013 0.17365 0.0
H829 H 0.81807 0.10724 0.16167 0.0
H830 H 0.81825 0.13337 0.17451 0.0
H831 H 0.82803 0.12742 0.18654 0.0
H832 H 0.85829 0.11899 0.22385 0.0
H833 H 0.85491 0.11252 0.20891 0.0
H834 H 0.86377 0.09234 0.23419 0.0
H835 H 0.86048 0.08586 0.21926 0.0
H836 H 0.85879 0.05707 0.17502 0.0
H837 H 0.86399 0.07343 0.15151 0.0
H838 H 0.85694 0.08641 0.15892 0.0
H839 H 0.85168 0.07013 0.18252 0.0
C840 C 0.36217 0.57704 0.57498 0.0
C841 C 0.35998 0.57897 0.58401 0.0
C842 C 0.36721 0.56506 0.5889 0.0
C843 C 0.36252 0.57304 0.59092 0.0
C844 C 0.36934 0.56308 0.57987 0.0
C845 C 0.36684 0.56905 0.57295 0.0
U846 U 0.34691 0.59575 0.56654 0.0
O847 O 0.34974 0.60813 0.55885 0.0
O848 O 0.34036 0.59806 0.55334 0.0
C849 C 0.34475 0.60565 0.55194 0.0
C850 C 0.35946 0.58326 0.56767 0.0
C851 C 0.3488 0.60686 0.54289 0.0
C852 C 0.3618 0.60731 0.53281 0.0
C853 C 0.35805 0.60543 0.54131 0.0
C854 C 0.34707 0.61183 0.52729 0.0
C855 C 0.35635 0.61061 0.52577 0.0
C856 C 0.34334 0.60999 0.53578 0.0
C857 C 0.32913 0.60363 0.58453 0.0
C858 C 0.31332 0.60823 0.58483 0.0
C859 C 0.32311 0.6118 0.59744 0.0
C860 C 0.33034 0.60768 0.59301 0.0
C861 C 0.3145 0.61193 0.59349 0.0
C862 C 0.32058 0.60408 0.58038 0.0
C863 C 0.33662 0.59817 0.5808 0.0
O864 O 0.35143 0.58176 0.56418 0.0
O865 O 0.361 0.59187 0.56921 0.0
O866 O 0.34441 0.60227 0.57968 0.0
O867 O 0.33472 0.59238 0.57434 0.0
H868 H 0.35631 0.58506 0.58572 0.0
H869 H 0.3608 0.57465 0.59785 0.0
H870 H 0.37293 0.55693 0.57819 0.0
H871 H 0.36855 0.56742 0.56603 0.0
H872 H 0.36897 0.60629 0.53175 0.0
H873 H 0.3624 0.60301 0.54667 0.0
H874 H 0.34276 0.61434 0.52195 0.0
H875 H 0.3362 0.61115 0.53686 0.0
H876 H 0.30672 0.60829 0.58168 0.0
H877 H 0.32415 0.61463 0.60411 0.0
H878 H 0.33683 0.60737 0.59638 0.0
H879 H 0.31944 0.60098 0.57385 0.0
C880 C 0.17977 0.61203 0.32489 0.0
C881 C 0.1778 0.60996 0.33394 0.0
C882 C 0.19178 0.61707 0.3388 0.0
C883 C 0.18374 0.6125 0.34084 0.0
C884 C 0.1938 0.61909 0.32975 0.0
C885 C 0.18782 0.6166 0.32284 0.0
U886 U 0.16145 0.59634 0.31663 0.0
O887 O 0.14887 0.59873 0.30912 0.0
O888 O 0.15917 0.58968 0.30348 0.0
C889 C 0.15145 0.59386 0.30215 0.0
C890 C 0.17358 0.60922 0.31759 0.0
C891 C 0.15006 0.59792 0.29312 0.0
C892 C 0.14857 0.61099 0.28324 0.0
C893 C 0.15058 0.6073 0.29172 0.0
C894 C 0.14574 0.59599 0.27736 0.0
C895 C 0.14606 0.60536 0.27602 0.0
C896 C 0.14772 0.5923 0.28584 0.0
C897 C 0.15471 0.5785 0.33497 0.0
C898 C 0.14358 0.56641 0.33426 0.0
C899 C 0.15175 0.56924 0.34817 0.0
C900 C 0.15642 0.57628 0.344 0.0
C901 C 0.14526 0.5643 0.34337 0.0
C902 C 0.14828 0.57352 0.33007 0.0
C903 C 0.15974 0.5861 0.33104 0.0
O904 O 0.17526 0.60126 0.31405 0.0
O905 O 0.16495 0.61054 0.3192 0.0
O906 O 0.15525 0.59366 0.32987 0.0
O907 O 0.16532 0.58425 0.32439 0.0
H908 H 0.17168 0.60634 0.33567 0.0
H909 H 0.1821 0.61084 0.34778 0.0
H910 H 0.2 0.62259 0.32806 0.0
H911 H 0.18949 0.61821 0.31591 0.0
H912 H 0.14885 0.61824 0.28232 0.0
H913 H 0.15239 0.61178 0.29722 0.0
H914 H 0.14381 0.59155 0.27187 0.0
H915 H 0.14725 0.58506 0.28677 0.0
H916 H 0.1386 0.56264 0.33046 0.0
H917 H 0.15314 0.5677 0.35518 0.0
H918 H 0.16136 0.58004 0.34788 0.0
H919 H 0.14689 0.57515 0.32308 0.0
C920 C 0.32773 0.39539 0.82558 0.0
C921 C 0.3297 0.39754 0.83462 0.0
C922 C 0.31574 0.39041 0.83953 0.0
C923 C 0.32377 0.39503 0.84154 0.0
C924 C 0.31373 0.38832 0.8305 0.0
C925 C 0.3197 0.39078 0.82357 0.0
U926 U 0.34639 0.41065 0.81707 0.0
O927 O 0.35879 0.40782 0.80941 0.0
O928 O 0.34869 0.41713 0.80384 0.0
C929 C 0.35631 0.41279 0.80248 0.0
C930 C 0.33394 0.39808 0.81826 0.0
C931 C 0.35756 0.40867 0.79347 0.0
C932 C 0.35675 0.39584 0.78322 0.0
C933 C 0.35488 0.39976 0.79164 0.0
C934 C 0.3638 0.40976 0.77829 0.0
C935 C 0.3613 0.40079 0.77652 0.0
C936 C 0.36194 0.41366 0.7867 0.0
C937 C 0.35422 0.42855 0.83495 0.0
C938 C 0.359 0.44431 0.83496 0.0
C939 C 0.36215 0.43482 0.8479 0.0
C940 C 0.35805 0.42752 0.84356 0.0
C941 C 0.36248 0.44331 0.84373 0.0
C942 C 0.35487 0.43698 0.83059 0.0
C943 C 0.34877 0.42103 0.83128 0.0
O944 O 0.33241 0.40608 0.81472 0.0
O945 O 0.34255 0.39657 0.8198 0.0
O946 O 0.3529 0.41324 0.83021 0.0
O947 O 0.34299 0.42287 0.8248 0.0
H948 H 0.33582 0.40118 0.83632 0.0
H949 H 0.32541 0.39674 0.84846 0.0
H950 H 0.30755 0.38478 0.82883 0.0
H951 H 0.31803 0.3891 0.81665 0.0
H952 H 0.35479 0.38891 0.78198 0.0
H953 H 0.3515 0.39579 0.79677 0.0
H954 H 0.36734 0.41367 0.77323 0.0
H955 H 0.36409 0.42054 0.78799 0.0
H956 H 0.35922 0.45083 0.83164 0.0
H957 H 0.36481 0.43391 0.85466 0.0
H958 H 0.35758 0.42112 0.84708 0.0
H959 H 0.35194 0.43799 0.82397 0.0
C960 C 0.93167 0.86124 0.57607 0.0
C961 C 0.92361 0.85624 0.57581 0.0
C962 C 0.9176 0.86624 0.56424 0.0
C963 C 0.91664 0.85872 0.56993 0.0
C964 C 0.92567 0.87122 0.56448 0.0
C965 C 0.93266 0.86874 0.57036 0.0
U966 U 0.94001 0.84634 0.59504 0.0
O967 O 0.95317 0.8398 0.59755 0.0
O968 O 0.94762 0.84936 0.60742 0.0
C969 C 0.95453 0.8443 0.60509 0.0
C970 C 0.93896 0.85872 0.58238 0.0
C971 C 0.9636 0.8483 0.60632 0.0
C972 C 0.97382 0.86119 0.60648 0.0
C973 C 0.9653 0.85748 0.60461 0.0
C974 C 0.9791 0.84657 0.61156 0.0
C975 C 0.98075 0.85578 0.61005 0.0
C976 C 0.9706 0.84287 0.60973 0.0
C977 C 0.92193 0.82869 0.60302 0.0
C978 C 0.92169 0.81301 0.60803 0.0
C979 C 0.90886 0.82272 0.61097 0.0
C980 C 0.91332 0.8299 0.60679 0.0
C981 C 0.91291 0.81418 0.61145 0.0
C982 C 0.92617 0.82021 0.60381 0.0
C983 C 0.92572 0.83609 0.59748 0.0
O984 O 0.93727 0.86037 0.59093 0.0
O985 O 0.94252 0.8507 0.58105 0.0
O986 O 0.93223 0.8341 0.59178 0.0
O987 O 0.92681 0.84393 0.60149 0.0
H988 H 0.92272 0.85045 0.58019 0.0
H989 H 0.91046 0.8548 0.56985 0.0
H990 H 0.92653 0.87704 0.56013 0.0
H991 H 0.93882 0.87269 0.57048 0.0
H992 H 0.97498 0.86831 0.60524 0.0
H993 H 0.96002 0.8618 0.60198 0.0
H994 H 0.98437 0.84228 0.61428 0.0
H995 H 0.96943 0.83578 0.6111 0.0
H996 H 0.92492 0.80645 0.60837 0.0
H997 H 0.9021 0.82376 0.61358 0.0
H998 H 0.90988 0.83633 0.6062 0.0
H999 H 0.9328 0.81908 0.60093 0.0
C1000 C 0.89498 0.18192 0.32674 0.0
C1001 C 0.9001 0.17394 0.32626 0.0
C1002 C 0.88991 0.16789 0.31489 0.0
C1003 C 0.89759 0.16699 0.32038 0.0
C1004 C 0.8848 0.17587 0.31534 0.0
C1005 C 0.88732 0.18284 0.32124 0.0
U1006 U 0.91024 0.19002 0.34546 0.0
O1007 O 0.91696 0.20301 0.34805 0.0
O1008 O 0.90745 0.19755 0.35802 0.0
C1009 C 0.91261 0.20437 0.35567 0.0
C1010 C 0.89756 0.18916 0.33309 0.0
C1011 C 0.90886 0.21352 0.35707 0.0
C1012 C 0.90173 0.22726 0.35155 0.0
C1013 C 0.90458 0.21832 0.35015 0.0
C1014 C 0.90683 0.22648 0.36695 0.0
C1015 C 0.90352 0.23188 0.35977 0.0
C1016 C 0.90968 0.21757 0.36556 0.0
C1017 C 0.92813 0.17175 0.35226 0.0
C1018 C 0.94012 0.1725 0.36349 0.0
C1019 C 0.93769 0.15872 0.35499 0.0
C1020 C 0.93058 0.16281 0.35037 0.0
C1021 C 0.94249 0.16349 0.36161 0.0
C1022 C 0.93294 0.17662 0.35883 0.0
C1023 C 0.92052 0.17564 0.34719 0.0
O1024 O 0.89612 0.18733 0.34165 0.0
O1025 O 0.90552 0.19281 0.33163 0.0
O1026 O 0.92238 0.18232 0.34165 0.0
O1027 O 0.91292 0.17676 0.35163 0.0
H1028 H 0.90602 0.17309 0.33048 0.0
H1029 H 0.90161 0.16088 0.32012 0.0
H1030 H 0.87886 0.17668 0.31115 0.0
H1031 H 0.88328 0.18893 0.32153 0.0
H1032 H 0.89796 0.23031 0.34613 0.0
H1033 H 0.90341 0.21516 0.34365 0.0
H1034 H 0.90716 0.22893 0.3738 0.0
H1035 H 0.91255 0.21384 0.37116 0.0
H1036 H 0.94377 0.17629 0.36858 0.0
H1037 H 0.93943 0.15178 0.35344 0.0
H1038 H 0.92696 0.15896 0.3453 0.0
H1039 H 0.93113 0.18354 0.36037 0.0
C1040 C 0.57474 0.14604 0.07593 0.0
C1041 C 0.5829 0.15088 0.07572 0.0
C1042 C 0.58864 0.14097 0.06394 0.0
C1043 C 0.5898 0.14836 0.06976 0.0
C1044 C 0.58046 0.13616 0.06411 0.0
C1045 C 0.57356 0.13869 0.07007 0.0
U1046 U 0.56658 0.16107 0.0949 0.0
O1047 O 0.55338 0.16749 0.09756 0.0
O1048 O 0.5592 0.15809 0.10743 0.0
C1049 C 0.55218 0.16304 0.10515 0.0
C1050 C 0.56753 0.1486 0.08232 0.0
C1051 C 0.54317 0.15896 0.10659 0.0
C1052 C 0.53328 0.14588 0.10799 0.0
C1053 C 0.54171 0.14961 0.10581 0.0
C1054 C 0.52757 0.16079 0.11153 0.0
C1055 C 0.52618 0.15144 0.11095 0.0
C1056 C 0.536 0.16451 0.10937 0.0
C1057 C 0.58462 0.17892 0.10254 0.0
C1058 C 0.58502 0.1947 0.10723 0.0
C1059 C 0.59766 0.18488 0.11057 0.0
C1060 C 0.59316 0.17768 0.10647 0.0
C1061 C 0.59373 0.19348 0.1108 0.0
C1062 C 0.5805 0.18747 0.10309 0.0
C1063 C 0.58081 0.17146 0.09709 0.0
O1064 O 0.56936 0.14703 0.09086 0.0
O1065 O 0.56391 0.15659 0.08097 0.0
O1066 O 0.5742 0.17336 0.09147 0.0
O1067 O 0.57985 0.16362 0.10114 0.0
H1068 H 0.58394 0.15657 0.0802 0.0
H1069 H 0.59606 0.15214 0.06973 0.0
H1070 H 0.57946 0.13044 0.05966 0.0
H1071 H 0.56731 0.13487 0.07015 0.0
H1072 H 0.53233 0.13864 0.10751 0.0
H1073 H 0.54713 0.14517 0.10368 0.0
H1074 H 0.52219 0.16519 0.11381 0.0
H1075 H 0.53698 0.17173 0.11006 0.0
H1076 H 0.58187 0.20131 0.10737 0.0
H1077 H 0.60437 0.18381 0.1133 0.0
H1078 H 0.59652 0.17119 0.10607 0.0
H1079 H 0.57393 0.18864 0.10009 0.0
C1080 C 0.61087 0.82542 0.82693 0.0
C1081 C 0.60589 0.83349 0.82661 0.0
C1082 C 0.61596 0.83942 0.81508 0.0
C1083 C 0.60841 0.84043 0.82072 0.0
C1084 C 0.62093 0.83135 0.81537 0.0
C1085 C 0.6184 0.82439 0.82127 0.0
U1086 U 0.59572 0.81713 0.84571 0.0
O1087 O 0.58918 0.80395 0.84814 0.0
O1088 O 0.59857 0.80955 0.85815 0.0
C1089 C 0.59361 0.8026 0.85571 0.0
C1090 C 0.60827 0.81815 0.83322 0.0
C1091 C 0.59771 0.79357 0.85694 0.0
C1092 C 0.61079 0.78362 0.85767 0.0
C1093 C 0.60702 0.79211 0.8558 0.0
C1094 C 0.59598 0.77788 0.86158 0.0
C1095 C 0.6053 0.77648 0.86065 0.0
C1096 C 0.59222 0.78636 0.85975 0.0
C1097 C 0.57794 0.83522 0.8534 0.0
C1098 C 0.56213 0.83563 0.85799 0.0
C1099 C 0.57192 0.8483 0.86132 0.0
C1100 C 0.57915 0.84378 0.8573 0.0
C1101 C 0.56332 0.84436 0.86151 0.0
C1102 C 0.56939 0.83109 0.85392 0.0
C1103 C 0.58542 0.83141 0.84799 0.0
O1104 O 0.6098 0.81988 0.84179 0.0
O1105 O 0.60027 0.81458 0.83179 0.0
O1106 O 0.58351 0.82488 0.84228 0.0
O1107 O 0.59321 0.83033 0.85211 0.0
H1108 H 0.60007 0.83441 0.83095 0.0
H1109 H 0.6045 0.84662 0.82059 0.0
H1110 H 0.62677 0.83046 0.81106 0.0
H1111 H 0.62233 0.81822 0.82143 0.0
H1112 H 0.618 0.78266 0.85692 0.0
H1113 H 0.6114 0.79755 0.85363 0.0
H1114 H 0.59165 0.77246 0.86389 0.0
H1115 H 0.58503 0.78735 0.86069 0.0
H1116 H 0.55552 0.83249 0.85809 0.0
H1117 H 0.57297 0.85502 0.86401 0.0
H1118 H 0.58565 0.84714 0.85692 0.0
H1119 H 0.56824 0.82451 0.85095 0.0
C1120 C 0.93197 0.14644 0.93148 0.0
C1121 C 0.92382 0.1513 0.93162 0.0
C1122 C 0.91801 0.14149 0.94345 0.0
C1123 C 0.91689 0.14885 0.93757 0.0
C1124 C 0.92617 0.13666 0.94334 0.0
C1125 C 0.93311 0.13913 0.93738 0.0
U1126 U 0.94025 0.16129 0.9124 0.0
O1127 O 0.95347 0.16765 0.90975 0.0
O1128 O 0.94768 0.15817 0.89994 0.0
C1129 C 0.95469 0.16314 0.9022 0.0
C1130 C 0.9392 0.14893 0.92509 0.0
C1131 C 0.9637 0.15904 0.90083 0.0
C1132 C 0.9737 0.14599 0.90021 0.0
C1133 C 0.96526 0.14978 0.90225 0.0
C1134 C 0.9792 0.16068 0.89555 0.0
C1135 C 0.9807 0.1514 0.89675 0.0
C1136 C 0.97076 0.16445 0.89756 0.0
C1137 C 0.92232 0.17915 0.90454 0.0
C1138 C 0.92188 0.19496 0.89993 0.0
C1139 C 0.90941 0.18504 0.89626 0.0
C1140 C 0.91388 0.17786 0.90042 0.0
C1141 C 0.91326 0.19368 0.89616 0.0
C1142 C 0.92637 0.18775 0.90413 0.0
C1143 C 0.92606 0.17172 0.91007 0.0
O1144 O 0.9374 0.1473 0.91655 0.0
O1145 O 0.94284 0.15692 0.92638 0.0
O1146 O 0.93265 0.17363 0.91571 0.0
O1147 O 0.92702 0.16385 0.90609 0.0
H1148 H 0.92281 0.15697 0.9271 0.0
H1149 H 0.91064 0.15265 0.93756 0.0
H1150 H 0.92715 0.13097 0.94783 0.0
H1151 H 0.93934 0.13529 0.93736 0.0
H1152 H 0.97475 0.13882 0.90122 0.0
H1153 H 0.95992 0.14547 0.90478 0.0
H1154 H 0.98451 0.16496 0.89292 0.0
H1155 H 0.9697 0.1716 0.8964 0.0
H1156 H 0.92496 0.2016 0.8999 0.0
H1157 H 0.90277 0.18392 0.89338 0.0
H1158 H 0.91057 0.17134 0.90071 0.0
H1159 H 0.93286 0.18897 0.90729 0.0
C1160 C 0.61156 0.18209 0.68031 0.0
C1161 C 0.6065 0.17408 0.68076 0.0
C1162 C 0.61675 0.16805 0.69209 0.0
C1163 C 0.60907 0.16712 0.68662 0.0
C1164 C 0.62181 0.17608 0.69167 0.0
C1165 C 0.61923 0.18305 0.68581 0.0
U1166 U 0.59588 0.19029 0.66202 0.0
O1167 O 0.58932 0.20344 0.6596 0.0
O1168 O 0.5983 0.19764 0.64935 0.0
C1169 C 0.59343 0.20464 0.65182 0.0
C1170 C 0.6089 0.18935 0.67404 0.0
C1171 C 0.59751 0.21362 0.6503 0.0
C1172 C 0.61032 0.22393 0.65068 0.0
C1173 C 0.60652 0.21547 0.65263 0.0
C1174 C 0.59611 0.22884 0.64424 0.0
C1175 C 0.60516 0.23065 0.6464 0.0
C1176 C 0.59232 0.22039 0.64616 0.0
C1177 C 0.57776 0.17205 0.65575 0.0
C1178 C 0.56618 0.17234 0.64408 0.0
C1179 C 0.56807 0.15903 0.65343 0.0
C1180 C 0.57506 0.16329 0.65808 0.0
C1181 C 0.56363 0.16346 0.64634 0.0
C1182 C 0.57325 0.17661 0.64875 0.0
C1183 C 0.58546 0.17598 0.66063 0.0
O1184 O 0.61008 0.18749 0.66544 0.0
O1185 O 0.60101 0.19308 0.6757 0.0
O1186 O 0.58374 0.18273 0.66613 0.0
O1187 O 0.59297 0.17701 0.65604 0.0
H1188 H 0.60058 0.1732 0.67656 0.0
H1189 H 0.6051 0.16098 0.68685 0.0
H1190 H 0.62775 0.17691 0.69585 0.0
H1191 H 0.62322 0.18918 0.68554 0.0
H1192 H 0.61731 0.22521 0.65242 0.0
H1193 H 0.61064 0.21035 0.65584 0.0
H1194 H 0.59201 0.23394 0.64096 0.0
H1195 H 0.58536 0.21911 0.64432 0.0
H1196 H 0.5628 0.17586 0.63863 0.0
H1197 H 0.5662 0.1522 0.65528 0.0
H1198 H 0.57846 0.15967 0.66346 0.0
H1199 H 0.57526 0.18338 0.64686 0.0
C1200 C 0.57513 0.86097 0.43187 0.0
C1201 C 0.57309 0.86467 0.44036 0.0
C1202 C 0.58911 0.86564 0.44396 0.0
C1203 C 0.58003 0.86697 0.44638 0.0
C1204 C 0.59115 0.86193 0.43549 0.0
C1205 C 0.58422 0.85957 0.42951 0.0
U1206 U 0.56656 0.84632 0.41272 0.0
O1207 O 0.55333 0.83987 0.41027 0.0
O1208 O 0.55884 0.84952 0.40046 0.0
C1209 C 0.55191 0.84449 0.40281 0.0
C1210 C 0.56778 0.85845 0.4256 0.0
C1211 C 0.54284 0.84853 0.40166 0.0
C1212 C 0.5329 0.86157 0.40022 0.0
C1213 C 0.54141 0.85791 0.40218 0.0
C1214 C 0.52704 0.84656 0.39744 0.0
C1215 C 0.52568 0.85593 0.39775 0.0
C1216 C 0.53555 0.8429 0.39938 0.0
C1217 C 0.58454 0.82879 0.40425 0.0
C1218 C 0.58478 0.81314 0.39912 0.0
C1219 C 0.59755 0.82291 0.39613 0.0
C1220 C 0.59311 0.83005 0.4004 0.0
C1221 C 0.59353 0.81436 0.39564 0.0
C1222 C 0.58032 0.8203 0.40344 0.0
C1223 C 0.58081 0.83611 0.40994 0.0
O1224 O 0.56925 0.86028 0.41704 0.0
O1225 O 0.56428 0.8504 0.42687 0.0
O1226 O 0.57436 0.83403 0.41567 0.0
O1227 O 0.57968 0.84401 0.40607 0.0
H1228 H 0.56613 0.86576 0.44234 0.0
H1229 H 0.57834 0.86981 0.45291 0.0
H1230 H 0.59811 0.86082 0.43353 0.0
H1231 H 0.58596 0.85663 0.42303 0.0
H1232 H 0.53198 0.86883 0.40049 0.0
H1233 H 0.54691 0.8624 0.40393 0.0
H1234 H 0.52156 0.8421 0.39554 0.0
H1235 H 0.53649 0.83566 0.39889 0.0
H1236 H 0.58157 0.80657 0.39878 0.0
H1237 H 0.60429 0.82399 0.39347 0.0
H1238 H 0.59653 0.83649 0.401 0.0
H1239 H 0.57373 0.81912 0.40637 0.0
C1240 C 0.89659 0.82478 0.18176 0.0
C1241 C 0.90149 0.8329 0.18203 0.0
C1242 C 0.89144 0.83878 0.19361 0.0
C1243 C 0.89894 0.83984 0.18792 0.0
C1244 C 0.88656 0.83064 0.19339 0.0
C1245 C 0.88912 0.82368 0.18749 0.0
U1246 U 0.91195 0.81671 0.16311 0.0
O1247 O 0.91852 0.80359 0.1605 0.0
O1248 O 0.90928 0.80939 0.15047 0.0
C1249 C 0.91425 0.80241 0.1528 0.0
C1250 C 0.8992 0.81756 0.17542 0.0
C1251 C 0.91022 0.79341 0.1513 0.0
C1252 C 0.89749 0.783 0.1518 0.0
C1253 C 0.90126 0.79147 0.15378 0.0
C1254 C 0.91161 0.77827 0.14503 0.0
C1255 C 0.90262 0.77637 0.14734 0.0
C1256 C 0.91537 0.78672 0.14698 0.0
C1257 C 0.92984 0.83497 0.15636 0.0
C1258 C 0.94191 0.83416 0.14523 0.0
C1259 C 0.939 0.84818 0.15316 0.0
C1260 C 0.932 0.84405 0.15792 0.0
C1261 C 0.94397 0.84331 0.14675 0.0
C1262 C 0.93484 0.83 0.15001 0.0
C1263 C 0.92228 0.83107 0.16148 0.0
O1264 O 0.89781 0.81941 0.16685 0.0
O1265 O 0.90715 0.8139 0.17691 0.0
O1266 O 0.92415 0.82433 0.16694 0.0
O1267 O 0.91464 0.83003 0.15709 0.0
H1268 H 0.90727 0.83388 0.17765 0.0
H1269 H 0.90277 0.84607 0.18799 0.0
H1270 H 0.88076 0.8297 0.19774 0.0
H1271 H 0.88526 0.81748 0.18737 0.0
H1272 H 0.89054 0.78165 0.15366 0.0
H1273 H 0.89717 0.79653 0.15712 0.0
H1274 H 0.91568 0.77324 0.14161 0.0
H1275 H 0.92228 0.78808 0.14501 0.0
H1276 H 0.9457 0.8303 0.1403 0.0
H1277 H 0.9405 0.85523 0.15443 0.0
H1278 H 0.92822 0.84798 0.1628 0.0
H1279 H 0.93325 0.82298 0.14873 0.0
C1280 C 0.57539 0.93277 0.86092 0.0
C1281 C 0.56692 0.93491 0.8646 0.0
C1282 C 0.56315 0.91894 0.86562 0.0
C1283 C 0.56082 0.92805 0.86692 0.0
C1284 C 0.57161 0.9168 0.86192 0.0
C1285 C 0.57766 0.92366 0.85954 0.0
U1286 U 0.59469 0.94096 0.84629 0.0
O1287 O 0.59736 0.95394 0.83957 0.0
O1288 O 0.60701 0.94869 0.84953 0.0
C1289 C 0.60481 0.95542 0.84417 0.0
C1290 C 0.58174 0.94004 0.85837 0.0
C1291 C 0.60605 0.96463 0.84783 0.0
C1292 C 0.60044 0.97818 0.85522 0.0
C1293 C 0.59916 0.96924 0.85235 0.0
C1294 C 0.61568 0.9778 0.8496 0.0
C1295 C 0.60851 0.983 0.85322 0.0
C1296 C 0.6144 0.96889 0.84674 0.0
C1297 C 0.60297 0.9228 0.82889 0.0
C1298 C 0.60811 0.92263 0.81324 0.0
C1299 C 0.61088 0.90971 0.82289 0.0
C1300 C 0.60667 0.91415 0.83007 0.0
C1301 C 0.61144 0.91382 0.81438 0.0
C1302 C 0.60387 0.92709 0.82045 0.0
C1303 C 0.59734 0.92656 0.83623 0.0
O1304 O 0.59028 0.9385 0.86026 0.0
O1305 O 0.58055 0.94347 0.85027 0.0
O1306 O 0.59161 0.93301 0.83413 0.0
O1307 O 0.60125 0.92776 0.84411 0.0
H1308 H 0.56501 0.9419 0.86566 0.0
H1309 H 0.55431 0.92982 0.86974 0.0
H1310 H 0.57349 0.90981 0.86083 0.0
H1311 H 0.58412 0.92184 0.85662 0.0
H1312 H 0.59508 0.98107 0.85918 0.0
H1313 H 0.59278 0.96591 0.85371 0.0
H1314 H 0.62246 0.98042 0.84905 0.0
H1315 H 0.62 0.96529 0.84368 0.0
H1316 H 0.60851 0.9259 0.80671 0.0
H1317 H 0.61342 0.90292 0.82389 0.0
H1318 H 0.60601 0.91068 0.83647 0.0
H1319 H 0.60105 0.93375 0.81934 0.0
C1320 C 0.8243 0.8267 0.61055 0.0
C1321 C 0.83234 0.82624 0.60554 0.0
C1322 C 0.8383 0.81492 0.61583 0.0
C1323 C 0.83928 0.82039 0.60816 0.0
C1324 C 0.83025 0.81535 0.62084 0.0
C1325 C 0.82329 0.82121 0.61821 0.0
U1326 U 0.81622 0.84503 0.59485 0.0
O1327 O 0.80311 0.84746 0.58819 0.0
O1328 O 0.80885 0.8577 0.59724 0.0
C1329 C 0.80187 0.85521 0.59233 0.0
C1330 C 0.81706 0.83298 0.60784 0.0
C1331 C 0.79286 0.8567 0.59636 0.0
C1332 C 0.78265 0.85682 0.60926 0.0
C1333 C 0.79113 0.85485 0.60551 0.0
C1334 C 0.77748 0.8623 0.59474 0.0
C1335 C 0.77579 0.86063 0.60392 0.0
C1336 C 0.78595 0.86036 0.59101 0.0
C1337 C 0.83464 0.85138 0.57693 0.0
C1338 C 0.83429 0.86278 0.5651 0.0
C1339 C 0.84784 0.85391 0.56755 0.0
C1340 C 0.84355 0.84928 0.57453 0.0
C1341 C 0.8433 0.86074 0.56283 0.0
C1342 C 0.82998 0.85813 0.57216 0.0
C1343 C 0.83063 0.84646 0.58457 0.0
O1344 O 0.8189 0.84158 0.60907 0.0
O1345 O 0.81341 0.83133 0.59992 0.0
O1346 O 0.8239 0.84097 0.58277 0.0
O1347 O 0.82953 0.85103 0.59209 0.0
H1348 H 0.83326 0.83044 0.59962 0.0
H1349 H 0.84545 0.82015 0.60422 0.0
H1350 H 0.82938 0.81117 0.62677 0.0
H1351 H 0.81714 0.82149 0.62217 0.0
H1352 H 0.78147 0.85546 0.61635 0.0
H1353 H 0.79635 0.852 0.60977 0.0
H1354 H 0.77227 0.8652 0.59051 0.0
H1355 H 0.78714 0.86183 0.58394 0.0
H1356 H 0.83069 0.86803 0.5615 0.0
H1357 H 0.85477 0.85224 0.56589 0.0
H1358 H 0.84724 0.84409 0.57814 0.0
H1359 H 0.82309 0.85983 0.57393 0.0
C1360 C 0.9306 0.07532 0.36094 0.0
C1361 C 0.93081 0.08335 0.3559 0.0
C1362 C 0.94232 0.08949 0.36588 0.0
C1363 C 0.93663 0.09038 0.35835 0.0
C1364 C 0.94215 0.08144 0.3709 0.0
C1365 C 0.93632 0.07439 0.36844 0.0
U1366 U 0.91213 0.06681 0.34561 0.0
O1367 O 0.90967 0.05354 0.3393 0.0
O1368 O 0.89951 0.05946 0.34832 0.0
C1369 C 0.90203 0.05231 0.34368 0.0
C1370 C 0.92433 0.068 0.35843 0.0
C1371 C 0.90065 0.04332 0.34798 0.0
C1372 C 0.90188 0.02689 0.34724 0.0
C1373 C 0.90372 0.03544 0.34363 0.0
C1374 C 0.89383 0.03386 0.35964 0.0
C1375 C 0.89689 0.02604 0.35525 0.0
C1376 C 0.89568 0.04242 0.35604 0.0
C1377 C 0.90556 0.08496 0.32742 0.0
C1378 C 0.89401 0.08461 0.31573 0.0
C1379 C 0.90302 0.09809 0.31796 0.0
C1380 C 0.90771 0.09382 0.32491 0.0
C1381 C 0.89609 0.09357 0.31336 0.0
C1382 C 0.89872 0.08031 0.32277 0.0
C1383 C 0.91053 0.081 0.33505 0.0
O1384 O 0.91574 0.06981 0.35972 0.0
O1385 O 0.92591 0.0642 0.35056 0.0
O1386 O 0.91599 0.07423 0.33329 0.0
O1387 O 0.90604 0.08003 0.34264 0.0
H1388 H 0.92643 0.0842 0.3501 0.0
H1389 H 0.93666 0.09655 0.35441 0.0
H1390 H 0.9465 0.08063 0.37672 0.0
H1391 H 0.93624 0.06825 0.37241 0.0
H1392 H 0.90428 0.02092 0.34375 0.0
H1393 H 0.90743 0.03589 0.33734 0.0
H1394 H 0.88995 0.03334 0.36582 0.0
H1395 H 0.89309 0.0483 0.35953 0.0
H1396 H 0.88868 0.08102 0.31223 0.0
H1397 H 0.90472 0.10499 0.31622 0.0
H1398 H 0.91297 0.0975 0.32843 0.0
H1399 H 0.89698 0.07346 0.32463 0.0
C1400 C 0.68201 0.17986 0.1112 0.0
C1401 C 0.6841 0.18817 0.11526 0.0
C1402 C 0.66814 0.19204 0.11592 0.0
C1403 C 0.67722 0.19423 0.11759 0.0
C1404 C 0.66604 0.18374 0.11186 0.0
C1405 C 0.67292 0.17771 0.10947 0.0
U1406 U 0.69034 0.16082 0.09632 0.0
O1407 O 0.70352 0.15831 0.08979 0.0
O1408 O 0.69794 0.14844 0.09933 0.0
C1409 C 0.70487 0.15078 0.09429 0.0
C1410 C 0.6893 0.17355 0.10861 0.0
C1411 C 0.71393 0.14949 0.09831 0.0
C1412 C 0.72399 0.14877 0.11131 0.0
C1413 C 0.71553 0.15083 0.10757 0.0
C1414 C 0.72943 0.14425 0.09656 0.0
C1415 C 0.73097 0.14537 0.10585 0.0
C1416 C 0.72098 0.14629 0.09283 0.0
C1417 C 0.67222 0.15278 0.07874 0.0
C1418 C 0.67203 0.14766 0.06308 0.0
C1419 C 0.65906 0.14503 0.07269 0.0
C1420 C 0.66353 0.14917 0.07988 0.0
C1421 C 0.66318 0.14444 0.06419 0.0
C1422 C 0.67653 0.15185 0.07031 0.0
C1423 C 0.67602 0.15832 0.08612 0.0
O1424 O 0.68774 0.16498 0.11034 0.0
O1425 O 0.6928 0.17488 0.10057 0.0
O1426 O 0.68253 0.16402 0.08409 0.0
O1427 O 0.67715 0.15434 0.09397 0.0
H1428 H 0.69107 0.18997 0.11659 0.0
H1429 H 0.67895 0.20062 0.12069 0.0
H1430 H 0.65908 0.18196 0.11049 0.0
H1431 H 0.67114 0.17138 0.10627 0.0
H1432 H 0.72504 0.14966 0.11849 0.0
H1433 H 0.7102 0.15329 0.11194 0.0
H1434 H 0.73472 0.14162 0.09225 0.0
H1435 H 0.71989 0.14518 0.08568 0.0
H1436 H 0.67531 0.14724 0.05656 0.0
H1437 H 0.65223 0.14257 0.07367 0.0
H1438 H 0.66005 0.14987 0.08628 0.0
H1439 H 0.68322 0.15459 0.06922 0.0
C1440 C 0.57685 0.07523 0.64547 0.0
C1441 C 0.5788 0.08425 0.64773 0.0
C1442 C 0.56489 0.08923 0.64055 0.0
C1443 C 0.57288 0.09119 0.64525 0.0
C1444 C 0.56289 0.08022 0.63835 0.0
C1445 C 0.56885 0.07327 0.64077 0.0
U1446 U 0.59518 0.06687 0.66106 0.0
O1447 O 0.5975 0.05368 0.66762 0.0
O1448 O 0.60777 0.0594 0.6586 0.0
C1449 C 0.60523 0.0524 0.66343 0.0
C1450 C 0.58303 0.0679 0.64819 0.0
C1451 C 0.60662 0.04342 0.65929 0.0
C1452 C 0.60732 0.03352 0.64617 0.0
C1453 C 0.60533 0.04195 0.65 0.0
C1454 C 0.6117 0.02785 0.66087 0.0
C1455 C 0.61059 0.02644 0.65157 0.0
C1456 C 0.60973 0.03627 0.66469 0.0
C1457 C 0.6018 0.08522 0.67898 0.0
C1458 C 0.61315 0.08477 0.69086 0.0
C1459 C 0.60445 0.09841 0.68835 0.0
C1460 C 0.5998 0.09416 0.68135 0.0
C1461 C 0.6112 0.0938 0.69311 0.0
C1462 C 0.60848 0.0805 0.68379 0.0
C1463 C 0.59683 0.08124 0.67136 0.0
O1464 O 0.59167 0.06951 0.64687 0.0
O1465 O 0.58136 0.06429 0.65612 0.0
O1466 O 0.5913 0.07455 0.67319 0.0
O1467 O 0.60135 0.08011 0.66381 0.0
H1468 H 0.58488 0.08592 0.65143 0.0
H1469 H 0.57451 0.09809 0.64704 0.0
H1470 H 0.55674 0.07859 0.63474 0.0
H1471 H 0.5672 0.06636 0.63902 0.0
H1472 H 0.60643 0.03256 0.63897 0.0
H1473 H 0.60292 0.04735 0.6457 0.0
H1474 H 0.61423 0.02247 0.66514 0.0
H1475 H 0.61079 0.03726 0.67187 0.0
H1476 H 0.61834 0.08111 0.69449 0.0
H1477 H 0.60284 0.10535 0.68999 0.0
H1478 H 0.59466 0.0979 0.67771 0.0
H1479 H 0.61011 0.07358 0.68204 0.0
C1480 C 0.68206 0.82756 0.39574 0.0
C1481 C 0.67405 0.82713 0.4008 0.0
C1482 C 0.66807 0.81569 0.39066 0.0
C1483 C 0.66711 0.82124 0.39829 0.0
C1484 C 0.67608 0.81609 0.3856 0.0
C1485 C 0.68304 0.822 0.38813 0.0
U1486 U 0.69031 0.84583 0.41142 0.0
O1487 O 0.70351 0.84822 0.41791 0.0
O1488 O 0.69766 0.85851 0.409 0.0
C1489 C 0.70471 0.85599 0.41378 0.0
C1490 C 0.68932 0.83385 0.39837 0.0
C1491 C 0.71365 0.85744 0.40959 0.0
C1492 C 0.72365 0.85744 0.39652 0.0
C1493 C 0.71521 0.85557 0.40041 0.0
C1494 C 0.72912 0.86287 0.41095 0.0
C1495 C 0.73064 0.86118 0.40175 0.0
C1496 C 0.72069 0.86104 0.41483 0.0
C1497 C 0.67207 0.85191 0.42966 0.0
C1498 C 0.67219 0.86354 0.44128 0.0
C1499 C 0.6591 0.85386 0.43948 0.0
C1500 C 0.6634 0.84935 0.43242 0.0
C1501 C 0.6634 0.86104 0.44391 0.0
C1502 C 0.67651 0.85901 0.43415 0.0
C1503 C 0.67605 0.84713 0.42191 0.0
O1504 O 0.68743 0.84245 0.39722 0.0
O1505 O 0.6931 0.83217 0.40623 0.0
O1506 O 0.68282 0.84165 0.42358 0.0
O1507 O 0.67705 0.8518 0.41443 0.0
H1508 H 0.67317 0.83138 0.4067 0.0
H1509 H 0.66098 0.82102 0.40227 0.0
H1510 H 0.67693 0.81185 0.3797 0.0
H1511 H 0.68917 0.82225 0.38413 0.0
H1512 H 0.7247 0.85605 0.38942 0.0
H1513 H 0.70989 0.85277 0.39624 0.0
H1514 H 0.73443 0.86572 0.4151 0.0
H1515 H 0.71962 0.86252 0.42191 0.0
H1516 H 0.67561 0.86905 0.44466 0.0
H1517 H 0.65234 0.85183 0.44142 0.0
H1518 H 0.65988 0.8439 0.42904 0.0
H1519 H 0.68321 0.86107 0.43208 0.0
C1520 C 0.93023 0.93095 0.14484 0.0
C1521 C 0.93084 0.92305 0.15006 0.0
C1522 C 0.94217 0.91698 0.13983 0.0
C1523 C 0.93677 0.91612 0.14758 0.0
C1524 C 0.94159 0.92489 0.13463 0.0
C1525 C 0.93565 0.93183 0.13712 0.0
U1526 U 0.91175 0.93935 0.16029 0.0
O1527 O 0.90922 0.95265 0.1665 0.0
O1528 O 0.89906 0.94659 0.1576 0.0
C1529 C 0.90155 0.95379 0.16216 0.0
C1530 C 0.92387 0.93818 0.14738 0.0
C1531 C 0.90006 0.96274 0.15781 0.0
C1532 C 0.90138 0.97918 0.15829 0.0
C1533 C 0.90332 0.97066 0.16194 0.0
C1534 C 0.89282 0.97209 0.1463 0.0
C1535 C 0.89608 0.97995 0.15047 0.0
C1536 C 0.89477 0.96357 0.14994 0.0
C1537 C 0.90545 0.92143 0.17877 0.0
C1538 C 0.89372 0.92176 0.19029 0.0
C1539 C 0.90329 0.90857 0.1887 0.0
C1540 C 0.9079 0.91275 0.18164 0.0
C1541 C 0.89611 0.91298 0.19302 0.0
C1542 C 0.89836 0.92596 0.18315 0.0
C1543 C 0.91034 0.92528 0.17103 0.0
O1544 O 0.91529 0.93623 0.14619 0.0
O1545 O 0.92547 0.94206 0.15521 0.0
O1546 O 0.91578 0.9321 0.17265 0.0
O1547 O 0.90578 0.92613 0.16346 0.0
H1548 H 0.92669 0.92224 0.15603 0.0
H1549 H 0.93713 0.91007 0.15167 0.0
H1550 H 0.94571 0.92567 0.12863 0.0
H1551 H 0.93527 0.93787 0.133 0.0
H1552 H 0.90393 0.98517 0.16161 0.0
H1553 H 0.90727 0.97028 0.16808 0.0
H1554 H 0.88871 0.97255 0.14027 0.0
H1555 H 0.89202 0.95765 0.14663 0.0
H1556 H 0.88821 0.92527 0.19357 0.0
H1557 H 0.90524 0.90181 0.19072 0.0
H1558 H 0.91336 0.90915 0.17834 0.0
H1559 H 0.89638 0.93267 0.181 0.0
C1560 C 0.82485 0.17993 0.89542 0.0
C1561 C 0.83282 0.18039 0.90055 0.0
C1562 C 0.83884 0.19187 0.89046 0.0
C1563 C 0.83975 0.18632 0.89809 0.0
C1564 C 0.83086 0.19143 0.88533 0.0
C1565 C 0.82391 0.18549 0.8878 0.0
U1566 U 0.81657 0.16103 0.91042 0.0
O1567 O 0.80342 0.15853 0.91698 0.0
O1568 O 0.80898 0.14861 0.90747 0.0
C1569 C 0.80207 0.15096 0.91254 0.0
C1570 C 0.81759 0.1736 0.89796 0.0
C1571 C 0.79301 0.1497 0.90855 0.0
C1572 C 0.78263 0.15015 0.89579 0.0
C1573 C 0.79116 0.15196 0.89952 0.0
C1574 C 0.77765 0.14401 0.91011 0.0
C1575 C 0.77585 0.14608 0.90104 0.0
C1576 C 0.78617 0.14579 0.91382 0.0
C1577 C 0.83462 0.15326 0.92819 0.0
C1578 C 0.83467 0.14824 0.94387 0.0
C1579 C 0.84776 0.14561 0.93441 0.0
C1580 C 0.84334 0.14969 0.92715 0.0
C1581 C 0.84355 0.14504 0.94287 0.0
C1582 C 0.83023 0.15236 0.93657 0.0
C1583 C 0.83085 0.15871 0.92072 0.0
O1584 O 0.81933 0.16505 0.89637 0.0
O1585 O 0.81399 0.17497 0.90596 0.0
O1586 O 0.82433 0.16442 0.92264 0.0
O1587 O 0.82977 0.15461 0.91292 0.0
H1588 H 0.83368 0.17614 0.90644 0.0
H1589 H 0.84586 0.18657 0.90212 0.0
H1590 H 0.83005 0.19566 0.87942 0.0
H1591 H 0.81782 0.18522 0.88375 0.0
H1592 H 0.78135 0.15183 0.88879 0.0
H1593 H 0.79633 0.155 0.89533 0.0
H1594 H 0.77251 0.1409 0.91427 0.0
H1595 H 0.78746 0.14399 0.92079 0.0
H1596 H 0.83132 0.14783 0.95036 0.0
H1597 H 0.8546 0.14317 0.93351 0.0
H1598 H 0.84689 0.15036 0.92078 0.0
H1599 H 0.82352 0.15507 0.93757 0.0
C1600 C 0.86172 0.57623 0.93227 0.0
C1601 C 0.86607 0.56806 0.93433 0.0
C1602 C 0.86659 0.56415 0.91837 0.0
C1603 C 0.86847 0.56204 0.92742 0.0
C1604 C 0.86226 0.57231 0.91631 0.0
C1605 C 0.8598 0.57829 0.92321 0.0
U1606 U 0.84613 0.59462 0.94057 0.0
O1607 O 0.83954 0.59695 0.95375 0.0
O1608 O 0.8486 0.60721 0.94804 0.0
C1609 C 0.84372 0.60468 0.95502 0.0
C1610 C 0.85898 0.58245 0.93958 0.0
C1611 C 0.84782 0.60611 0.96402 0.0
C1612 C 0.86087 0.60667 0.97403 0.0
C1613 C 0.85706 0.60464 0.96559 0.0
C1614 C 0.84621 0.61144 0.9795 0.0
C1615 C 0.85547 0.61016 0.98102 0.0
C1616 C 0.84242 0.60944 0.97107 0.0
C1617 C 0.8282 0.60132 0.9223 0.0
C1618 C 0.81614 0.61248 0.92301 0.0
C1619 C 0.81883 0.60417 0.90916 0.0
C1620 C 0.82589 0.59953 0.9133 0.0
C1621 C 0.81393 0.61071 0.91394 0.0
C1622 C 0.82328 0.6078 0.92718 0.0
C1623 C 0.83582 0.5963 0.92621 0.0
O1624 O 0.86031 0.59108 0.93795 0.0
O1625 O 0.85104 0.5808 0.94317 0.0
O1626 O 0.83399 0.59075 0.93289 0.0
O1627 O 0.84339 0.60079 0.92733 0.0
H1628 H 0.86755 0.56631 0.94128 0.0
H1629 H 0.87179 0.55575 0.92913 0.0
H1630 H 0.86072 0.57402 0.90936 0.0
H1631 H 0.85636 0.58451 0.92146 0.0
H1632 H 0.86803 0.60565 0.97507 0.0
H1633 H 0.86136 0.60207 0.96026 0.0
H1634 H 0.84195 0.61414 0.9848 0.0
H1635 H 0.83528 0.61064 0.97 0.0
H1636 H 0.81241 0.6175 0.9268 0.0
H1637 H 0.81722 0.60272 0.90217 0.0
H1638 H 0.82961 0.59454 0.90944 0.0
H1639 H 0.82498 0.60926 0.93414 0.0
C1640 C 0.36198 0.93023 0.07507 0.0
C1641 C 0.35694 0.9308 0.08309 0.0
C1642 C 0.36706 0.9424 0.08882 0.0
C1643 C 0.35945 0.93685 0.0899 0.0
C1644 C 0.3721 0.94185 0.0808 0.0
C1645 C 0.36957 0.9358 0.07396 0.0
U1646 U 0.34654 0.91155 0.06722 0.0
O1647 O 0.33991 0.90893 0.05412 0.0
O1648 O 0.34911 0.89886 0.05994 0.0
C1649 C 0.34418 0.90124 0.05294 0.0
C1650 C 0.35935 0.9238 0.06794 0.0
C1651 C 0.34825 0.89975 0.04393 0.0
C1652 C 0.36126 0.89904 0.03388 0.0
C1653 C 0.35752 0.90105 0.04235 0.0
C1654 C 0.34649 0.89463 0.02838 0.0
C1655 C 0.35578 0.89576 0.02685 0.0
C1656 C 0.34277 0.89661 0.03685 0.0
C1657 C 0.32866 0.90524 0.08576 0.0
C1658 C 0.31737 0.89328 0.08598 0.0
C1659 C 0.31891 0.90334 0.0988 0.0
C1660 C 0.32583 0.90794 0.09437 0.0
C1661 C 0.31467 0.89594 0.0947 0.0
C1662 C 0.32437 0.89791 0.08152 0.0
C1663 C 0.33626 0.91013 0.08164 0.0
O1664 O 0.36069 0.91525 0.0699 0.0
O1665 O 0.3514 0.92528 0.06426 0.0
O1666 O 0.33439 0.91554 0.07485 0.0
O1667 O 0.34381 0.90561 0.08056 0.0
H1668 H 0.35106 0.92655 0.08407 0.0
H1669 H 0.35549 0.93718 0.09604 0.0
H1670 H 0.37799 0.94609 0.07985 0.0
H1671 H 0.37355 0.93545 0.06783 0.0
H1672 H 0.36844 0.89995 0.03282 0.0
H1673 H 0.36189 0.90348 0.04769 0.0
H1674 H 0.34216 0.8921 0.02306 0.0
H1675 H 0.33561 0.89555 0.03792 0.0
H1676 H 0.31414 0.8876 0.0827 0.0
H1677 H 0.31692 0.9055 0.1055 0.0
H1678 H 0.32907 0.91358 0.09774 0.0
H1679 H 0.32647 0.89573 0.07487 0.0
C1680 C 0.8268 0.61097 0.82579 0.0
C1681 C 0.82659 0.6059 0.83381 0.0
C1682 C 0.81499 0.61579 0.83992 0.0
C1683 C 0.82072 0.6083 0.84082 0.0
C1684 C 0.81516 0.62083 0.83189 0.0
C1685 C 0.82103 0.61843 0.82486 0.0
U1686 U 0.84568 0.59612 0.81706 0.0
O1687 O 0.8482 0.59004 0.80369 0.0
O1688 O 0.85812 0.59931 0.8096 0.0
C1689 C 0.8557 0.59464 0.80244 0.0
C1690 C 0.83311 0.60856 0.81847 0.0
C1691 C 0.85694 0.59901 0.79347 0.0
C1692 C 0.85615 0.59805 0.77702 0.0
C1693 C 0.85431 0.59442 0.78557 0.0
C1694 C 0.86327 0.61097 0.78406 0.0
C1695 C 0.8607 0.60632 0.77621 0.0
C1696 C 0.86143 0.60735 0.7926 0.0
C1697 C 0.85349 0.57788 0.83471 0.0
C1698 C 0.85763 0.56194 0.83523 0.0
C1699 C 0.86178 0.57186 0.84755 0.0
C1700 C 0.85778 0.57912 0.84307 0.0
C1701 C 0.86155 0.56318 0.84378 0.0
C1702 C 0.85359 0.56924 0.83072 0.0
C1703 C 0.84804 0.58541 0.83103 0.0
O1704 O 0.84167 0.61008 0.82024 0.0
O1705 O 0.83171 0.60065 0.81469 0.0
O1706 O 0.84237 0.58363 0.82442 0.0
O1707 O 0.85208 0.59326 0.83019 0.0
H1708 H 0.83101 0.60013 0.83465 0.0
H1709 H 0.82068 0.60434 0.84697 0.0
H1710 H 0.81078 0.62663 0.83108 0.0
H1711 H 0.82111 0.62242 0.81873 0.0
H1712 H 0.85412 0.59436 0.77104 0.0
H1713 H 0.85098 0.58792 0.78599 0.0
H1714 H 0.8668 0.61736 0.78356 0.0
H1715 H 0.86366 0.61104 0.79851 0.0
H1716 H 0.85741 0.55528 0.83221 0.0
H1717 H 0.86478 0.57295 0.85414 0.0
H1718 H 0.85772 0.58568 0.84633 0.0
H1719 H 0.85029 0.56805 0.82431 0.0
C1720 C 0.14564 0.07619 0.57452 0.0
C1721 C 0.15073 0.07566 0.58251 0.0
C1722 C 0.14044 0.06435 0.5885 0.0
C1723 C 0.14815 0.06978 0.58944 0.0
C1724 C 0.13536 0.06485 0.5805 0.0
C1725 C 0.13794 0.07074 0.57355 0.0
U1726 U 0.16138 0.09445 0.56636 0.0
O1727 O 0.1679 0.09689 0.55318 0.0
O1728 O 0.159 0.10717 0.55908 0.0
C1729 C 0.16381 0.10469 0.55204 0.0
C1730 C 0.14832 0.08249 0.56729 0.0
C1731 C 0.15968 0.10626 0.54309 0.0
C1732 C 0.14666 0.10654 0.53303 0.0
C1733 C 0.1505 0.10446 0.54144 0.0
C1734 C 0.16114 0.11206 0.52776 0.0
C1735 C 0.15194 0.11042 0.52616 0.0
C1736 C 0.16497 0.11 0.53616 0.0
C1737 C 0.17957 0.10066 0.58454 0.0
C1738 C 0.19109 0.11239 0.58422 0.0
C1739 C 0.18929 0.10302 0.59753 0.0
C1740 C 0.18231 0.09832 0.59329 0.0
C1741 C 0.19367 0.11014 0.59309 0.0
C1742 C 0.18403 0.10768 0.57997 0.0
C1743 C 0.17186 0.09576 0.58064 0.0
O1744 O 0.14718 0.09108 0.56918 0.0
O1745 O 0.15619 0.0808 0.56354 0.0
O1746 O 0.17354 0.09028 0.57387 0.0
O1747 O 0.16434 0.10037 0.57966 0.0
H1748 H 0.15668 0.07982 0.58339 0.0
H1749 H 0.15215 0.06949 0.59557 0.0
H1750 H 0.12939 0.06071 0.57966 0.0
H1751 H 0.13393 0.07107 0.56745 0.0
H1752 H 0.13955 0.10524 0.53191 0.0
H1753 H 0.1463 0.10157 0.54668 0.0
H1754 H 0.16531 0.11506 0.52256 0.0
H1755 H 0.17205 0.11145 0.5373 0.0
H1756 H 0.19441 0.11786 0.5807 0.0
H1757 H 0.19119 0.10118 0.60435 0.0
H1758 H 0.17895 0.09293 0.59691 0.0
H1759 H 0.18198 0.10957 0.5732 0.0
C1760 C 0.17987 0.89519 0.82524 0.0
C1761 C 0.17806 0.89751 0.83427 0.0
C1762 C 0.19186 0.89006 0.83913 0.0
C1763 C 0.18399 0.89493 0.84116 0.0
C1764 C 0.19372 0.8878 0.83011 0.0
C1765 C 0.18775 0.89033 0.82321 0.0
U1766 U 0.16163 0.91099 0.81698 0.0
O1767 O 0.1593 0.91755 0.8038 0.0
O1768 O 0.14898 0.90861 0.80956 0.0
C1769 C 0.15151 0.91347 0.80257 0.0
C1770 C 0.17366 0.898 0.81796 0.0
C1771 C 0.15001 0.90936 0.7936 0.0
C1772 C 0.1506 0.89654 0.78331 0.0
C1773 C 0.15263 0.90043 0.79171 0.0
C1774 C 0.1435 0.91048 0.77853 0.0
C1775 C 0.14596 0.90152 0.77669 0.0
C1776 C 0.14551 0.91436 0.78692 0.0
C1777 C 0.15521 0.92902 0.83527 0.0
C1778 C 0.1441 0.94113 0.83467 0.0
C1779 C 0.15254 0.93842 0.84843 0.0
C1780 C 0.15711 0.93133 0.84424 0.0
C1781 C 0.14596 0.94333 0.84372 0.0
C1782 C 0.14869 0.93397 0.83045 0.0
C1783 C 0.16012 0.92134 0.83133 0.0
O1784 O 0.16502 0.89677 0.81963 0.0
O1785 O 0.17539 0.90591 0.81434 0.0
O1786 O 0.16566 0.9231 0.82462 0.0
O1787 O 0.15554 0.91382 0.83023 0.0
H1788 H 0.17206 0.90134 0.83598 0.0
H1789 H 0.18247 0.89677 0.84808 0.0
H1790 H 0.19978 0.88406 0.82843 0.0
H1791 H 0.18929 0.88852 0.81629 0.0
H1792 H 0.15254 0.8896 0.78201 0.0
H1793 H 0.15611 0.89645 0.79676 0.0
H1794 H 0.13989 0.91441 0.77353 0.0
H1795 H 0.14342 0.92124 0.78825 0.0
H1796 H 0.13904 0.94487 0.83093 0.0
H1797 H 0.15408 0.94003 0.8554 0.0
H1798 H 0.16212 0.92759 0.84805 0.0
H1799 H 0.14715 0.93226 0.82351 0.0
C1800 C 0.64568 0.42999 0.43202 0.0
C1801 C 0.65079 0.43051 0.42404 0.0
C1802 C 0.64045 0.44173 0.41797 0.0
C1803 C 0.6482 0.43635 0.41707 0.0
C1804 C 0.63535 0.44123 0.42595 0.0
C1805 C 0.63795 0.43539 0.43294 0.0
U1806 U 0.66134 0.41166 0.4402 0.0
O1807 O 0.6679 0.40922 0.45336 0.0
O1808 O 0.65887 0.399 0.44757 0.0
C1809 C 0.66376 0.40146 0.45456 0.0
C1810 C 0.64836 0.42371 0.43927 0.0
C1811 C 0.65967 0.39998 0.46354 0.0
C1812 C 0.64689 0.40061 0.47389 0.0
C1813 C 0.65072 0.40252 0.46543 0.0
C1814 C 0.66095 0.39376 0.47872 0.0
C1815 C 0.65196 0.39614 0.48056 0.0
C1816 C 0.66476 0.39565 0.47027 0.0
C1817 C 0.67938 0.40529 0.4219 0.0
C1818 C 0.6911 0.39377 0.42225 0.0
C1819 C 0.68885 0.40277 0.40876 0.0
C1820 C 0.68188 0.40744 0.41304 0.0
C1821 C 0.69346 0.39585 0.41328 0.0
C1822 C 0.68406 0.39846 0.42654 0.0
C1823 C 0.67172 0.41021 0.42587 0.0
O1824 O 0.64714 0.41512 0.43743 0.0
O1825 O 0.65626 0.42536 0.44298 0.0
O1826 O 0.67349 0.4157 0.43262 0.0
O1827 O 0.66419 0.40565 0.42692 0.0
H1828 H 0.65677 0.42638 0.4232 0.0
H1829 H 0.65221 0.43663 0.41096 0.0
H1830 H 0.62935 0.44534 0.42675 0.0
H1831 H 0.63392 0.43506 0.43903 0.0
H1832 H 0.63996 0.40252 0.4752 0.0
H1833 H 0.64668 0.40588 0.46034 0.0
H1834 H 0.66497 0.39034 0.48378 0.0
H1835 H 0.67167 0.39364 0.46895 0.0
H1836 H 0.69461 0.38845 0.42584 0.0
H1837 H 0.69058 0.40448 0.40186 0.0
H1838 H 0.67835 0.4127 0.40936 0.0
H1839 H 0.6822 0.39672 0.4334 0.0
C1840 C 0.82701 0.39453 0.68156 0.0
C1841 C 0.82877 0.39686 0.67253 0.0
C1842 C 0.81487 0.38954 0.66775 0.0
C1843 C 0.82277 0.39435 0.66567 0.0
C1844 C 0.81305 0.38726 0.67677 0.0
C1845 C 0.8191 0.38972 0.68364 0.0
U1846 U 0.84537 0.41021 0.68973 0.0
O1847 O 0.84781 0.41677 0.70289 0.0
O1848 O 0.85805 0.40777 0.69707 0.0
C1849 C 0.85558 0.41263 0.70408 0.0
C1850 C 0.83328 0.39729 0.68881 0.0
C1851 C 0.85707 0.40849 0.71304 0.0
C1852 C 0.85625 0.39569 0.72333 0.0
C1853 C 0.85426 0.39963 0.71495 0.0
C1854 C 0.8637 0.40947 0.72806 0.0
C1855 C 0.86104 0.40057 0.72992 0.0
C1856 C 0.86173 0.41339 0.71968 0.0
C1857 C 0.85177 0.42822 0.67139 0.0
C1858 C 0.86274 0.44045 0.672 0.0
C1859 C 0.85448 0.43752 0.65817 0.0
C1860 C 0.84994 0.43042 0.66237 0.0
C1861 C 0.86094 0.44256 0.66291 0.0
C1862 C 0.85817 0.43328 0.67623 0.0
C1863 C 0.84685 0.42056 0.67537 0.0
O1864 O 0.84189 0.39602 0.68708 0.0
O1865 O 0.83161 0.40521 0.69245 0.0
O1866 O 0.84136 0.42235 0.68212 0.0
O1867 O 0.8514 0.41302 0.67643 0.0
H1868 H 0.83478 0.40064 0.67078 0.0
H1869 H 0.82425 0.3962 0.65875 0.0
H1870 H 0.80697 0.38358 0.67849 0.0
H1871 H 0.81759 0.38791 0.69056 0.0
H1872 H 0.85417 0.38881 0.72465 0.0
H1873 H 0.85066 0.39572 0.70991 0.0
H1874 H 0.86742 0.41333 0.73304 0.0
H1875 H 0.86397 0.42023 0.71833 0.0
H1876 H 0.8677 0.44429 0.67575 0.0
H1877 H 0.853 0.43904 0.65117 0.0
H1878 H 0.84501 0.42659 0.65854 0.0
H1879 H 0.85966 0.43167 0.68321 0.0
C1880 C 0.68034 0.6105 0.18098 0.0
C1881 C 0.67828 0.60843 0.17194 0.0
C1882 C 0.6924 0.61522 0.16701 0.0
C1883 C 0.68425 0.61082 0.16501 0.0
C1884 C 0.69451 0.61721 0.17605 0.0
C1885 C 0.6885 0.61488 0.18298 0.0
U1886 U 0.66133 0.59574 0.1897 0.0
O1887 O 0.65884 0.58959 0.20304 0.0
O1888 O 0.64896 0.59899 0.19725 0.0
C1889 C 0.65139 0.59425 0.20436 0.0
C1890 C 0.67405 0.60802 0.18832 0.0
C1891 C 0.65022 0.59857 0.21336 0.0
C1892 C 0.65101 0.5975 0.2298 0.0
C1893 C 0.6528 0.5939 0.22123 0.0
C1894 C 0.64404 0.61055 0.22286 0.0
C1895 C 0.64656 0.60582 0.23067 0.0
C1896 C 0.64584 0.60697 0.21429 0.0
C1897 C 0.65315 0.57775 0.172 0.0
C1898 C 0.64861 0.56192 0.17162 0.0
C1899 C 0.64479 0.57181 0.15917 0.0
C1900 C 0.64894 0.57902 0.16361 0.0
C1901 C 0.64478 0.56317 0.16302 0.0
C1902 C 0.65281 0.56916 0.17607 0.0
C1903 C 0.65874 0.58519 0.17566 0.0
O1904 O 0.66548 0.60969 0.18673 0.0
O1905 O 0.67541 0.60004 0.19197 0.0
O1906 O 0.66444 0.5833 0.1822 0.0
O1907 O 0.6548 0.59309 0.17659 0.0
H1908 H 0.67205 0.60498 0.17025 0.0
H1909 H 0.68253 0.60921 0.15809 0.0
H1910 H 0.70078 0.62059 0.17771 0.0
H1911 H 0.69023 0.61648 0.18991 0.0
H1912 H 0.65299 0.59375 0.23576 0.0
H1913 H 0.65605 0.58736 0.22076 0.0
H1914 H 0.64058 0.61697 0.2234 0.0
H1915 H 0.64365 0.61072 0.20841 0.0
H1916 H 0.64865 0.55529 0.17469 0.0
H1917 H 0.64186 0.57291 0.15255 0.0
H1918 H 0.64918 0.58554 0.16029 0.0
H1919 H 0.65603 0.56796 0.18252 0.0
C1920 C 0.57494 0.64493 0.92941 0.0
C1921 C 0.58398 0.64722 0.9276 0.0
C1922 C 0.58884 0.63962 0.94132 0.0
C1923 C 0.59087 0.64455 0.93349 0.0
C1924 C 0.57981 0.63737 0.94318 0.0
C1925 C 0.57291 0.64 0.93725 0.0
U1926 U 0.56683 0.66097 0.91137 0.0
O1927 O 0.55937 0.65883 0.89871 0.0
O1928 O 0.55376 0.66775 0.90912 0.0
C1929 C 0.55246 0.66377 0.90129 0.0
C1930 C 0.56766 0.64786 0.92326 0.0
C1931 C 0.54343 0.6598 0.89977 0.0
C1932 C 0.53285 0.64726 0.90071 0.0
C1933 C 0.5413 0.65104 0.90271 0.0
C1934 C 0.5285 0.661 0.89298 0.0
C1935 C 0.52642 0.65219 0.89578 0.0
C1936 C 0.53695 0.66477 0.89497 0.0
C1937 C 0.58525 0.67882 0.90499 0.0
C1938 C 0.58457 0.69099 0.89396 0.0
C1939 C 0.59844 0.68812 0.90216 0.0
C1940 C 0.59427 0.68104 0.90676 0.0
C1941 C 0.59367 0.6931 0.89568 0.0
C1942 C 0.58037 0.68384 0.89858 0.0
C1943 C 0.58131 0.67115 0.90991 0.0
O1944 O 0.56415 0.65581 0.92507 0.0
O1945 O 0.56929 0.64669 0.91461 0.0
O1946 O 0.58012 0.66367 0.90528 0.0
O1947 O 0.57465 0.67293 0.91549 0.0
H1948 H 0.5857 0.6511 0.92164 0.0
H1949 H 0.59779 0.64637 0.93197 0.0
H1950 H 0.57813 0.6336 0.94921 0.0
H1951 H 0.56598 0.63821 0.93879 0.0
H1952 H 0.53136 0.64044 0.9029 0.0
H1953 H 0.54622 0.64709 0.90643 0.0
H1954 H 0.52365 0.6649 0.88914 0.0
H1955 H 0.53847 0.67153 0.89263 0.0
H1956 H 0.58078 0.69478 0.88898 0.0
H1957 H 0.60546 0.68966 0.90358 0.0
H1958 H 0.59813 0.67725 0.91168 0.0
H1959 H 0.57339 0.6822 0.89714 0.0
C1960 C 0.61244 0.32507 0.17977 0.0
C1961 C 0.60728 0.33301 0.18041 0.0
C1962 C 0.61759 0.33899 0.19172 0.0
C1963 C 0.60983 0.33991 0.18634 0.0
C1964 C 0.62274 0.33104 0.1911 0.0
C1965 C 0.62018 0.32413 0.18516 0.0
U1966 U 0.59686 0.31696 0.16131 0.0
O1967 O 0.5994 0.30967 0.14862 0.0
O1968 O 0.59035 0.30379 0.15878 0.0
C1969 C 0.59453 0.30264 0.15103 0.0
C1970 C 0.6098 0.31787 0.17342 0.0
C1971 C 0.59864 0.29367 0.14949 0.0
C1972 C 0.61157 0.28351 0.1494 0.0
C1973 C 0.60778 0.29196 0.1514 0.0
C1974 C 0.59712 0.27833 0.14374 0.0
C1975 C 0.60629 0.27666 0.14548 0.0
C1976 C 0.59334 0.28677 0.14571 0.0
C1977 C 0.5787 0.33509 0.15492 0.0
C1978 C 0.56624 0.33414 0.14422 0.0
C1979 C 0.56946 0.34827 0.15183 0.0
C1980 C 0.57662 0.3442 0.15639 0.0
C1981 C 0.56425 0.34331 0.14568 0.0
C1982 C 0.57347 0.33004 0.14881 0.0
C1983 C 0.58638 0.33123 0.15988 0.0
O1984 O 0.60191 0.31413 0.17501 0.0
O1985 O 0.61103 0.31979 0.16484 0.0
O1986 O 0.59395 0.33026 0.15536 0.0
O1987 O 0.58467 0.32445 0.16535 0.0
H1988 H 0.6013 0.33388 0.17628 0.0
H1989 H 0.60578 0.34599 0.18672 0.0
H1990 H 0.62874 0.33022 0.19521 0.0
H1991 H 0.62425 0.31806 0.18475 0.0
H1992 H 0.61865 0.28234 0.15083 0.0
H1993 H 0.61199 0.29718 0.15433 0.0
H1994 H 0.59293 0.27313 0.14075 0.0
H1995 H 0.58628 0.28796 0.14418 0.0
H1996 H 0.56227 0.33022 0.13949 0.0
H1997 H 0.56801 0.35534 0.15305 0.0
H1998 H 0.58057 0.34819 0.16108 0.0
H1999 H 0.57499 0.32299 0.1476 0.0
C2000 C 0.93124 0.36206 0.42906 0.0
C2001 C 0.9222 0.35996 0.42705 0.0
C2002 C 0.91728 0.3671 0.441 0.0
C2003 C 0.91527 0.3625 0.43296 0.0
C2004 C 0.92631 0.36914 0.44305 0.0
C2005 C 0.93325 0.36666 0.4371 0.0
U2006 U 0.93972 0.3468 0.41039 0.0
O2007 O 0.94746 0.34958 0.39803 0.0
O2008 O 0.95292 0.34021 0.40814 0.0
C2009 C 0.95435 0.34457 0.40054 0.0
C2010 C 0.93858 0.35934 0.42287 0.0
C2011 C 0.96342 0.34858 0.39932 0.0
C2012 C 0.97354 0.36154 0.39887 0.0
C2013 C 0.96506 0.35781 0.40081 0.0
C2014 C 0.97895 0.34683 0.39415 0.0
C2015 C 0.98052 0.35609 0.39544 0.0
C2016 C 0.97047 0.34312 0.39607 0.0
C2017 C 0.9217 0.32906 0.40247 0.0
C2018 C 0.92156 0.3133 0.39769 0.0
C2019 C 0.90868 0.3229 0.39457 0.0
C2020 C 0.91309 0.33016 0.39866 0.0
C2021 C 0.91278 0.31438 0.39424 0.0
C2022 C 0.92599 0.3206 0.40181 0.0
C2023 C 0.92543 0.33655 0.40793 0.0
O2024 O 0.94205 0.35132 0.42439 0.0
O2025 O 0.93708 0.36089 0.41426 0.0
O2026 O 0.92659 0.34433 0.40381 0.0
O2027 O 0.93187 0.33464 0.41374 0.0
H2028 H 0.92051 0.35635 0.42092 0.0
H2029 H 0.90835 0.36083 0.43129 0.0
H2030 H 0.92798 0.37267 0.44924 0.0
H2031 H 0.94017 0.36829 0.43879 0.0
H2032 H 0.97463 0.3687 0.39989 0.0
H2033 H 0.95973 0.36216 0.40331 0.0
H2034 H 0.98423 0.34253 0.39149 0.0
H2035 H 0.96935 0.33599 0.39484 0.0
H2036 H 0.92483 0.30676 0.39747 0.0
H2037 H 0.90192 0.32385 0.39194 0.0
H2038 H 0.90962 0.33659 0.39914 0.0
H2039 H 0.93262 0.31954 0.40472 0.0
C2040 C 0.8955 0.68195 0.67987 0.0
C2041 C 0.9005 0.67388 0.68008 0.0
C2042 C 0.8906 0.66788 0.69173 0.0
C2043 C 0.89807 0.66691 0.68598 0.0
C2044 C 0.88561 0.67595 0.69154 0.0
C2045 C 0.88805 0.68294 0.68564 0.0
U2046 U 0.91042 0.69036 0.66096 0.0
O2047 O 0.9074 0.69792 0.64855 0.0
O2048 O 0.91686 0.70358 0.65846 0.0
C2049 C 0.91237 0.70489 0.65091 0.0
C2050 C 0.89799 0.68924 0.67356 0.0
C2051 C 0.90827 0.71391 0.64966 0.0
C2052 C 0.89524 0.72394 0.64932 0.0
C2053 C 0.89903 0.71546 0.65118 0.0
C2054 C 0.90989 0.72948 0.64462 0.0
C2055 C 0.90062 0.73098 0.64593 0.0
C2056 C 0.91367 0.72101 0.64645 0.0
C2057 C 0.92828 0.67245 0.65309 0.0
C2058 C 0.944 0.67234 0.64818 0.0
C2059 C 0.9344 0.65944 0.64515 0.0
C2060 C 0.92717 0.66383 0.6493 0.0
C2061 C 0.94291 0.66356 0.64474 0.0
C2062 C 0.93673 0.67675 0.65237 0.0
C2063 C 0.92082 0.67616 0.65859 0.0
O2064 O 0.90597 0.69287 0.67493 0.0
O2065 O 0.8964 0.68751 0.665 0.0
O2066 O 0.91298 0.67718 0.65454 0.0
O2067 O 0.92272 0.6827 0.66429 0.0
H2068 H 0.90626 0.67299 0.67566 0.0
H2069 H 0.90199 0.66073 0.68603 0.0
H2070 H 0.87983 0.67681 0.69594 0.0
H2071 H 0.88411 0.6891 0.68556 0.0
H2072 H 0.88808 0.72498 0.65041 0.0
H2073 H 0.89473 0.71009 0.65368 0.0
H2074 H 0.91416 0.73484 0.64204 0.0
H2075 H 0.92081 0.71996 0.64522 0.0
H2076 H 0.95053 0.67562 0.64789 0.0
H2077 H 0.93344 0.65268 0.64253 0.0
H2078 H 0.92075 0.66034 0.64984 0.0
H2079 H 0.93779 0.68338 0.65526 0.0
C2080 C 0.57539 0.36191 0.57661 0.0
C2081 C 0.58342 0.35688 0.57616 0.0
C2082 C 0.58937 0.36711 0.56476 0.0
C2083 C 0.59035 0.35946 0.57027 0.0
C2084 C 0.58132 0.37213 0.56519 0.0
C2085 C 0.57438 0.36954 0.57109 0.0
U2086 U 0.56724 0.34634 0.59506 0.0
O2087 O 0.55987 0.34886 0.6077 0.0
O2088 O 0.5541 0.33976 0.59752 0.0
C2089 C 0.55288 0.34395 0.60526 0.0
C2090 C 0.56816 0.35925 0.58292 0.0
C2091 C 0.54387 0.34799 0.60676 0.0
C2092 C 0.53365 0.36087 0.60693 0.0
C2093 C 0.54213 0.35714 0.60495 0.0
C2094 C 0.52849 0.34633 0.61236 0.0
C2095 C 0.52679 0.35551 0.61072 0.0
C2096 C 0.53697 0.34261 0.6104 0.0
C2097 C 0.58544 0.3283 0.60161 0.0
C2098 C 0.58469 0.31631 0.61282 0.0
C2099 C 0.59855 0.3189 0.6045 0.0
C2100 C 0.59442 0.32595 0.59981 0.0
C2101 C 0.59375 0.31406 0.61107 0.0
C2102 C 0.58054 0.32343 0.60812 0.0
C2103 C 0.58157 0.33595 0.59659 0.0
O2104 O 0.56447 0.35133 0.58133 0.0
O2105 O 0.57001 0.36052 0.59151 0.0
O2106 O 0.58052 0.34352 0.6011 0.0
O2107 O 0.57484 0.33418 0.59108 0.0
H2108 H 0.58434 0.35098 0.58038 0.0
H2109 H 0.59651 0.35551 0.57003 0.0
H2110 H 0.58045 0.37805 0.56098 0.0
H2111 H 0.56823 0.37351 0.57135 0.0
H2112 H 0.53245 0.36796 0.60559 0.0
H2113 H 0.54735 0.36141 0.60212 0.0
H2114 H 0.52329 0.34208 0.61525 0.0
H2115 H 0.53817 0.33554 0.61185 0.0
H2116 H 0.58089 0.31263 0.61787 0.0
H2117 H 0.60553 0.31725 0.60305 0.0
H2118 H 0.5983 0.32963 0.59481 0.0
H2119 H 0.57359 0.32517 0.60958 0.0
C2120 C 0.89407 0.32506 0.82743 0.0
C2121 C 0.89913 0.33306 0.82679 0.0
C2122 C 0.88895 0.33877 0.81523 0.0
C2123 C 0.8966 0.33985 0.82073 0.0
C2124 C 0.8839 0.33076 0.81584 0.0
C2125 C 0.88644 0.32395 0.82191 0.0
U2126 U 0.90936 0.31747 0.84633 0.0
O2127 O 0.90667 0.3103 0.85906 0.0
O2128 O 0.91603 0.30445 0.84918 0.0
C2129 C 0.91171 0.30333 0.85685 0.0
C2130 C 0.89669 0.31798 0.83393 0.0
C2131 C 0.90769 0.29433 0.8584 0.0
C2132 C 0.89517 0.28373 0.85733 0.0
C2133 C 0.89898 0.29217 0.85532 0.0
C2134 C 0.90878 0.27946 0.86533 0.0
C2135 C 0.90002 0.27734 0.8624 0.0
C2136 C 0.91258 0.28789 0.86334 0.0
C2137 C 0.92701 0.3361 0.85284 0.0
C2138 C 0.93954 0.33553 0.86348 0.0
C2139 C 0.9358 0.34958 0.85595 0.0
C2140 C 0.92875 0.34529 0.85142 0.0
C2141 C 0.94124 0.34477 0.86201 0.0
C2142 C 0.93243 0.33121 0.8589 0.0
C2143 C 0.91951 0.33197 0.8478 0.0
O2144 O 0.90468 0.31436 0.83256 0.0
O2145 O 0.89522 0.31998 0.84245 0.0
O2146 O 0.91187 0.3309 0.85218 0.0
O2147 O 0.92149 0.32515 0.84247 0.0
H2148 H 0.90503 0.33406 0.83101 0.0
H2149 H 0.90058 0.34598 0.82035 0.0
H2150 H 0.87798 0.32981 0.81165 0.0
H2151 H 0.88244 0.31784 0.82233 0.0
H2152 H 0.88839 0.28222 0.85503 0.0
H2153 H 0.89509 0.29705 0.8515 0.0
H2154 H 0.91261 0.27463 0.86928 0.0
H2155 H 0.9193 0.28943 0.86579 0.0
H2156 H 0.94369 0.33172 0.86813 0.0
H2157 H 0.93702 0.3567 0.85474 0.0
H2158 H 0.92464 0.34916 0.84676 0.0
H2159 H 0.93118 0.3241 0.86008 0.0
C2160 C 0.9318 0.64488 0.07695 0.0
C2161 C 0.92379 0.64994 0.07643 0.0
C2162 C 0.91777 0.63956 0.06521 0.0
C2163 C 0.91684 0.64731 0.0706 0.0
C2164 C 0.92579 0.63451 0.06571 0.0
C2165 C 0.93276 0.63715 0.07155 0.0
U2166 U 0.9401 0.66069 0.09513 0.0
O2167 O 0.94752 0.65832 0.10778 0.0
O2168 O 0.95331 0.66721 0.09744 0.0
C2169 C 0.95454 0.66312 0.10522 0.0
C2170 C 0.93906 0.64761 0.0832 0.0
C2171 C 0.96351 0.659 0.10669 0.0
C2172 C 0.97354 0.64596 0.10712 0.0
C2173 C 0.96508 0.64976 0.10518 0.0
C2174 C 0.97904 0.66061 0.1119 0.0
C2175 C 0.98056 0.65135 0.11057 0.0
C2176 C 0.97058 0.66439 0.11 0.0
C2177 C 0.92207 0.67895 0.10149 0.0
C2178 C 0.9228 0.6908 0.11287 0.0
C2179 C 0.9091 0.68861 0.10418 0.0
C2180 C 0.91319 0.68154 0.0995 0.0
C2181 C 0.91382 0.69325 0.11095 0.0
C2182 C 0.92691 0.68364 0.10818 0.0
C2183 C 0.92586 0.67121 0.09657 0.0
O2184 O 0.94279 0.65548 0.08146 0.0
O2185 O 0.93723 0.64649 0.09181 0.0
O2186 O 0.92687 0.66369 0.10118 0.0
O2187 O 0.93258 0.67285 0.09101 0.0
H2188 H 0.92292 0.65592 0.08056 0.0
H2189 H 0.9107 0.65128 0.07031 0.0
H2190 H 0.92663 0.62852 0.06159 0.0
H2191 H 0.93888 0.63316 0.07187 0.0
H2192 H 0.9746 0.63881 0.10601 0.0
H2193 H 0.95974 0.64547 0.10261 0.0
H2194 H 0.98437 0.66488 0.11452 0.0
H2195 H 0.96952 0.67153 0.11121 0.0
H2196 H 0.92655 0.69432 0.11808 0.0
H2197 H 0.90219 0.69041 0.10259 0.0
H2198 H 0.90936 0.678 0.09436 0.0
H2199 H 0.93378 0.68172 0.1098 0.0
C2200 C 0.61191 0.68135 0.32712 0.0
C2201 C 0.60684 0.67334 0.32685 0.0
C2202 C 0.6167 0.66732 0.31518 0.0
C2203 C 0.60921 0.66637 0.32092 0.0
C2204 C 0.62175 0.67534 0.31542 0.0
C2205 C 0.61937 0.68232 0.32136 0.0
U2206 U 0.59726 0.68978 0.34628 0.0
O2207 O 0.60055 0.69726 0.35868 0.0
O2208 O 0.591 0.70303 0.34894 0.0
C2209 C 0.59572 0.70434 0.35636 0.0
C2210 C 0.60951 0.68862 0.33349 0.0
C2211 C 0.59998 0.71338 0.35753 0.0
C2212 C 0.59905 0.7298 0.3562 0.0
C2213 C 0.59551 0.72119 0.35445 0.0
C2214 C 0.6116 0.72302 0.36417 0.0
C2215 C 0.60709 0.73077 0.36112 0.0
C2216 C 0.60808 0.71441 0.36242 0.0
C2217 C 0.57941 0.67188 0.35437 0.0
C2218 C 0.56344 0.67068 0.35823 0.0
C2219 C 0.57395 0.65924 0.36335 0.0
C2220 C 0.58103 0.66389 0.35921 0.0
C2221 C 0.56507 0.66248 0.3627 0.0
C2222 C 0.57055 0.67534 0.35405 0.0
C2223 C 0.5868 0.67564 0.34878 0.0
O2224 O 0.60152 0.69228 0.33225 0.0
O2225 O 0.6112 0.68684 0.34202 0.0
O2226 O 0.59472 0.6766 0.35268 0.0
O2227 O 0.58485 0.68222 0.34313 0.0
H2228 H 0.60107 0.67246 0.33127 0.0
H2229 H 0.60525 0.66023 0.32083 0.0
H2230 H 0.62755 0.67618 0.31104 0.0
H2231 H 0.62336 0.68845 0.32148 0.0
H2232 H 0.59547 0.73571 0.35381 0.0
H2233 H 0.58919 0.72066 0.35081 0.0
H2234 H 0.61781 0.72364 0.36799 0.0
H2235 H 0.61165 0.70858 0.36502 0.0
H2236 H 0.55662 0.67327 0.35767 0.0
H2237 H 0.57533 0.65292 0.36676 0.0
H2238 H 0.58776 0.661 0.35947 0.0
H2239 H 0.56906 0.68145 0.35032 0.0
C2240 C 0.93031 0.57512 0.64495 0.0
C2241 C 0.9306 0.58317 0.64996 0.0
C2242 C 0.94219 0.58916 0.63997 0.0
C2243 C 0.9365 0.59013 0.64749 0.0
C2244 C 0.94193 0.5811 0.63497 0.0
C2245 C 0.93602 0.57412 0.63744 0.0
U2246 U 0.91143 0.56673 0.65994 0.0
O2247 O 0.89904 0.55911 0.65697 0.0
O2248 O 0.90898 0.55353 0.66644 0.0
C2249 C 0.90142 0.55217 0.66198 0.0
C2250 C 0.92401 0.56783 0.64748 0.0
C2251 C 0.90017 0.54311 0.65796 0.0
C2252 C 0.89937 0.53303 0.64499 0.0
C2253 C 0.90127 0.54155 0.64866 0.0
C2254 C 0.89546 0.52746 0.65986 0.0
C2255 C 0.89635 0.52595 0.65055 0.0
C2256 C 0.89733 0.53597 0.66352 0.0
C2257 C 0.90354 0.58466 0.67775 0.0
C2258 C 0.89851 0.58467 0.69343 0.0
C2259 C 0.89568 0.59768 0.68394 0.0
C2260 C 0.89984 0.59332 0.67669 0.0
C2261 C 0.89516 0.59349 0.6924 0.0
C2262 C 0.90271 0.58028 0.68615 0.0
C2263 C 0.90904 0.58095 0.67028 0.0
O2264 O 0.9254 0.56423 0.65547 0.0
O2265 O 0.91545 0.56954 0.6459 0.0
O2266 O 0.90497 0.57989 0.66247 0.0
O2267 O 0.91477 0.57444 0.67219 0.0
H2268 H 0.92623 0.58407 0.65576 0.0
H2269 H 0.93661 0.5963 0.65142 0.0
H2270 H 0.94627 0.58023 0.62915 0.0
H2271 H 0.93589 0.56797 0.63349 0.0
H2272 H 0.90014 0.53198 0.63779 0.0
H2273 H 0.90347 0.54694 0.64423 0.0
H2274 H 0.89318 0.52208 0.66426 0.0
H2275 H 0.89642 0.53703 0.67071 0.0
H2276 H 0.89815 0.58133 0.69993 0.0
H2277 H 0.89312 0.60448 0.68302 0.0
H2278 H 0.90045 0.59686 0.67032 0.0
H2279 H 0.90553 0.57361 0.68717 0.0
C2280 C 0.68126 0.67995 0.89453 0.0
C2281 C 0.67223 0.67817 0.89689 0.0
C2282 C 0.6674 0.692 0.88948 0.0
C2283 C 0.66535 0.68413 0.89434 0.0
C2284 C 0.67642 0.69383 0.88718 0.0
C2285 C 0.6833 0.68783 0.88968 0.0
U2286 U 0.68954 0.66153 0.91013 0.0
O2287 O 0.69691 0.64889 0.90757 0.0
O2288 O 0.70275 0.65908 0.91658 0.0
C2289 C 0.70402 0.65142 0.91226 0.0
C2290 C 0.68853 0.6737 0.89727 0.0
C2291 C 0.71304 0.64999 0.90804 0.0
C2292 C 0.72945 0.65153 0.90869 0.0
C2293 C 0.72087 0.65341 0.91222 0.0
C2294 C 0.72261 0.64273 0.89675 0.0
C2295 C 0.73038 0.64614 0.90095 0.0
C2296 C 0.71403 0.64461 0.90025 0.0
C2297 C 0.67129 0.65494 0.92815 0.0
C2298 C 0.67184 0.64365 0.94008 0.0
C2299 C 0.65812 0.6522 0.93751 0.0
C2300 C 0.66233 0.65686 0.9305 0.0
C2301 C 0.6628 0.64552 0.94232 0.0
C2302 C 0.67608 0.64833 0.933 0.0
C2303 C 0.67524 0.65993 0.92053 0.0
O2304 O 0.69217 0.67534 0.90519 0.0
O2305 O 0.68682 0.66508 0.89597 0.0
O2306 O 0.67629 0.65544 0.91295 0.0
O2307 O 0.68198 0.66542 0.92233 0.0
H2308 H 0.67051 0.67217 0.9007 0.0
H2309 H 0.65844 0.68263 0.89619 0.0
H2310 H 0.67811 0.69989 0.88346 0.0
H2311 H 0.69022 0.68935 0.88785 0.0
H2312 H 0.73538 0.6542 0.91204 0.0
H2313 H 0.72037 0.65744 0.9183 0.0
H2314 H 0.72319 0.63854 0.89078 0.0
H2315 H 0.70818 0.64174 0.89692 0.0
H2316 H 0.67555 0.63851 0.94374 0.0
H2317 H 0.65115 0.65374 0.93914 0.0
H2318 H 0.65854 0.66194 0.92684 0.0
H2319 H 0.68301 0.64678 0.93126 0.0
C2320 C 0.57671 0.43101 0.14505 0.0
C2321 C 0.57635 0.42299 0.1501 0.0
C2322 C 0.56487 0.41696 0.14001 0.0
C2323 C 0.57047 0.41602 0.1476 0.0
C2324 C 0.5652 0.425 0.13497 0.0
C2325 C 0.57109 0.43197 0.13748 0.0
U2326 U 0.59552 0.43946 0.16014 0.0
O2327 O 0.60798 0.44695 0.15715 0.0
O2328 O 0.59801 0.45272 0.16647 0.0
C2329 C 0.60563 0.45395 0.16209 0.0
C2330 C 0.58303 0.43828 0.14759 0.0
C2331 C 0.607 0.46292 0.15794 0.0
C2332 C 0.60615 0.4732 0.14513 0.0
C2333 C 0.6042 0.4648 0.14907 0.0
C2334 C 0.61352 0.47799 0.15894 0.0
C2335 C 0.61089 0.47982 0.15002 0.0
C2336 C 0.61158 0.4696 0.16286 0.0
C2337 C 0.60329 0.42172 0.17819 0.0
C2338 C 0.60803 0.42167 0.19396 0.0
C2339 C 0.61151 0.4089 0.18435 0.0
C2340 C 0.60732 0.41321 0.17709 0.0
C2341 C 0.61172 0.413 0.19288 0.0
C2342 C 0.6038 0.426 0.18667 0.0
C2343 C 0.5978 0.42534 0.17067 0.0
O2344 O 0.58159 0.44196 0.15554 0.0
O2345 O 0.59159 0.43652 0.1461 0.0
O2346 O 0.60187 0.42628 0.16284 0.0
O2347 O 0.59209 0.4319 0.17247 0.0
H2348 H 0.58066 0.42211 0.15595 0.0
H2349 H 0.57031 0.40987 0.15156 0.0
H2350 H 0.56093 0.42584 0.1291 0.0
H2351 H 0.57128 0.4381 0.13349 0.0
H2352 H 0.60409 0.47449 0.13824 0.0
H2353 H 0.60066 0.45974 0.14516 0.0
H2354 H 0.61721 0.48299 0.1628 0.0
H2355 H 0.61382 0.46828 0.1697 0.0
H2356 H 0.60815 0.42494 0.20051 0.0
H2357 H 0.61433 0.40222 0.18339 0.0
H2358 H 0.60695 0.40974 0.17066 0.0
H2359 H 0.60072 0.43255 0.18773 0.0
C2360 C 0.82475 0.32598 0.3946 0.0
C2361 C 0.83383 0.32789 0.3966 0.0
C2362 C 0.83852 0.31378 0.38964 0.0
C2363 C 0.84066 0.32186 0.3941 0.0
C2364 C 0.82945 0.31181 0.3877 0.0
C2365 C 0.8226 0.31789 0.39014 0.0
U2366 U 0.81675 0.34458 0.4101 0.0
O2367 O 0.80941 0.35723 0.40755 0.0
O2368 O 0.80366 0.34714 0.41674 0.0
C2369 C 0.80245 0.35487 0.41254 0.0
C2370 C 0.81752 0.33229 0.39734 0.0
C2371 C 0.79346 0.35639 0.40851 0.0
C2372 C 0.7829 0.35534 0.39595 0.0
C2373 C 0.79132 0.35331 0.39979 0.0
C2374 C 0.7786 0.36337 0.40954 0.0
C2375 C 0.77651 0.36044 0.40077 0.0
C2376 C 0.78701 0.36135 0.41337 0.0
C2377 C 0.83515 0.3513 0.42786 0.0
C2378 C 0.83441 0.36237 0.43998 0.0
C2379 C 0.84839 0.3544 0.437 0.0
C2380 C 0.84423 0.3497 0.42999 0.0
C2381 C 0.84355 0.36079 0.44203 0.0
C2382 C 0.83022 0.35765 0.4329 0.0
C2383 C 0.83119 0.3462 0.4203 0.0
O2384 O 0.81396 0.33074 0.40533 0.0
O2385 O 0.81923 0.34089 0.39593 0.0
O2386 O 0.83008 0.35062 0.41269 0.0
O2387 O 0.82447 0.34073 0.42221 0.0
H2388 H 0.83564 0.33405 0.40012 0.0
H2389 H 0.84762 0.32346 0.39569 0.0
H2390 H 0.82768 0.30559 0.38429 0.0
H2391 H 0.81564 0.31626 0.38859 0.0
H2392 H 0.78141 0.35305 0.38916 0.0
H2393 H 0.7962 0.34947 0.39592 0.0
H2394 H 0.77378 0.36734 0.41335 0.0
H2395 H 0.78853 0.3638 0.42009 0.0
H2396 H 0.83058 0.36729 0.44381 0.0
H2397 H 0.85544 0.35309 0.43849 0.0
H2398 H 0.84813 0.34482 0.42617 0.0
H2399 H 0.82319 0.35895 0.43134 0.0
C2400 C 0.93003 0.43126 0.8618 0.0
C2401 C 0.93424 0.42572 0.8554 0.0
C2402 C 0.94399 0.41902 0.8671 0.0
C2403 C 0.94094 0.41957 0.85803 0.0
C2404 C 0.9388 0.42385 0.87355 0.0
C2405 C 0.93216 0.43005 0.87092 0.0
U2406 U 0.9107 0.43894 0.8466 0.0
O2407 O 0.89811 0.44619 0.84967 0.0
O2408 O 0.90789 0.45213 0.84026 0.0
C2409 C 0.90033 0.45325 0.84477 0.0
C2410 C 0.92323 0.43808 0.85913 0.0
C2411 C 0.89892 0.46224 0.84893 0.0
C2412 C 0.89766 0.47207 0.86206 0.0
C2413 C 0.89964 0.46361 0.8583 0.0
C2414 C 0.89443 0.47797 0.84715 0.0
C2415 C 0.89498 0.4793 0.85652 0.0
C2416 C 0.89638 0.46951 0.8434 0.0
C2417 C 0.90333 0.42121 0.82841 0.0
C2418 C 0.89862 0.42119 0.81262 0.0
C2419 C 0.89516 0.40838 0.82219 0.0
C2420 C 0.89933 0.41269 0.82947 0.0
C2421 C 0.89495 0.41251 0.81368 0.0
C2422 C 0.90282 0.42552 0.81994 0.0
C2423 C 0.90876 0.42486 0.83596 0.0
O2424 O 0.92449 0.44193 0.85123 0.0
O2425 O 0.91476 0.43588 0.86061 0.0
O2426 O 0.90466 0.42564 0.8438 0.0
O2427 O 0.91434 0.43155 0.83423 0.0
H2428 H 0.93233 0.42609 0.84835 0.0
H2429 H 0.94356 0.41518 0.85283 0.0
H2430 H 0.93952 0.42284 0.8807 0.0
H2431 H 0.9286 0.43386 0.87605 0.0
H2432 H 0.89812 0.47297 0.8693 0.0
H2433 H 0.9016 0.45812 0.86271 0.0
H2434 H 0.89236 0.48346 0.84277 0.0
H2435 H 0.89575 0.46861 0.83616 0.0
H2436 H 0.89849 0.42447 0.80609 0.0
H2437 H 0.89236 0.40169 0.82313 0.0
H2438 H 0.89969 0.40919 0.8359 0.0
H2439 H 0.90587 0.43208 0.81891 0.0
C2440 C 0.8263 0.68034 0.11242 0.0
C2441 C 0.83532 0.67853 0.11004 0.0
C2442 C 0.84021 0.69238 0.11739 0.0
C2443 C 0.84222 0.68449 0.11254 0.0
C2444 C 0.8312 0.69425 0.1197 0.0
C2445 C 0.82429 0.68825 0.11724 0.0
U2446 U 0.81788 0.66179 0.09702 0.0
O2447 O 0.8105 0.64919 0.09974 0.0
O2448 O 0.80462 0.65932 0.09066 0.0
C2449 C 0.80338 0.65169 0.09504 0.0
C2450 C 0.81901 0.67407 0.10976 0.0
C2451 C 0.79436 0.65026 0.09927 0.0
C2452 C 0.77792 0.65147 0.09843 0.0
C2453 C 0.7865 0.65341 0.09493 0.0
C2454 C 0.78482 0.64316 0.11069 0.0
C2455 C 0.77702 0.64629 0.10632 0.0
C2456 C 0.7934 0.6451 0.10721 0.0
C2457 C 0.83592 0.65492 0.07892 0.0
C2458 C 0.83494 0.64397 0.06669 0.0
C2459 C 0.84906 0.65171 0.06966 0.0
C2460 C 0.84501 0.6564 0.07675 0.0
C2461 C 0.84409 0.64543 0.06461 0.0
C2462 C 0.83086 0.6487 0.07385 0.0
C2463 C 0.83209 0.66003 0.08653 0.0
O2464 O 0.81533 0.67565 0.10184 0.0
O2465 O 0.82071 0.66547 0.11113 0.0
O2466 O 0.8311 0.65563 0.09417 0.0
O2467 O 0.82537 0.66553 0.08473 0.0
H2468 H 0.83701 0.67251 0.10624 0.0
H2469 H 0.84912 0.68297 0.11067 0.0
H2470 H 0.82953 0.70032 0.12341 0.0
H2471 H 0.81738 0.68978 0.1191 0.0
H2472 H 0.77198 0.65394 0.09495 0.0
H2473 H 0.78698 0.65727 0.08873 0.0
H2474 H 0.78426 0.63913 0.11678 0.0
H2475 H 0.79926 0.64244 0.11067 0.0
H2476 H 0.83101 0.63915 0.06284 0.0
H2477 H 0.85611 0.65293 0.06815 0.0
H2478 H 0.84901 0.66119 0.08058 0.0
H2479 H 0.82382 0.64748 0.07544 0.0
C2480 C 0.57789 0.57504 0.36366 0.0
C2481 C 0.57517 0.58214 0.35798 0.0
C2482 C 0.56661 0.58891 0.37028 0.0
C2483 C 0.56953 0.58901 0.36125 0.0
C2484 C 0.56934 0.5818 0.37594 0.0
C2485 C 0.57492 0.57492 0.37265 0.0
U2486 U 0.59594 0.56689 0.3473 0.0
O2487 O 0.60842 0.55918 0.34959 0.0
O2488 O 0.59797 0.55371 0.34062 0.0
C2489 C 0.60573 0.55227 0.3447 0.0
C2490 C 0.58405 0.5679 0.36042 0.0
C2491 C 0.60706 0.54322 0.34871 0.0
C2492 C 0.60803 0.53318 0.36171 0.0
C2493 C 0.60603 0.54168 0.35802 0.0
C2494 C 0.61186 0.52759 0.34682 0.0
C2495 C 0.61103 0.52611 0.35614 0.0
C2496 C 0.6099 0.53608 0.34314 0.0
C2497 C 0.60333 0.58485 0.32938 0.0
C2498 C 0.60839 0.58448 0.31372 0.0
C2499 C 0.61104 0.59779 0.32286 0.0
C2500 C 0.6069 0.59358 0.33021 0.0
C2501 C 0.61165 0.59336 0.31452 0.0
C2502 C 0.60422 0.58025 0.3211 0.0
C2503 C 0.59803 0.5812 0.33701 0.0
O2504 O 0.5822 0.5645 0.35242 0.0
O2505 O 0.59269 0.56954 0.36157 0.0
O2506 O 0.60239 0.58003 0.34466 0.0
O2507 O 0.59216 0.57477 0.33528 0.0
H2508 H 0.57745 0.58241 0.35103 0.0
H2509 H 0.56753 0.59446 0.3568 0.0
H2510 H 0.56718 0.58163 0.38293 0.0
H2511 H 0.57698 0.56953 0.37716 0.0
H2512 H 0.60736 0.53216 0.36892 0.0
H2513 H 0.60385 0.54707 0.36245 0.0
H2514 H 0.61419 0.52223 0.34243 0.0
H2515 H 0.61076 0.53713 0.33595 0.0
H2516 H 0.60883 0.58096 0.30732 0.0
H2517 H 0.61353 0.60463 0.32361 0.0
H2518 H 0.60625 0.59727 0.33649 0.0
H2519 H 0.60151 0.57351 0.32028 0.0
C2520 C 0.6815 0.32681 0.61202 0.0
C2521 C 0.67348 0.32633 0.60697 0.0
C2522 C 0.66753 0.31493 0.61719 0.0
C2523 C 0.66655 0.32043 0.60953 0.0
C2524 C 0.67556 0.31538 0.62222 0.0
C2525 C 0.6825 0.32129 0.61966 0.0
U2526 U 0.68963 0.34525 0.59645 0.0
O2527 O 0.69691 0.35794 0.59898 0.0
O2528 O 0.7028 0.34777 0.58995 0.0
C2529 C 0.70394 0.35553 0.59412 0.0
C2530 C 0.68871 0.33314 0.60938 0.0
C2531 C 0.7129 0.35707 0.59825 0.0
C2532 C 0.72314 0.35663 0.61111 0.0
C2533 C 0.71473 0.35462 0.60724 0.0
C2534 C 0.72803 0.3634 0.59705 0.0
C2535 C 0.72983 0.36109 0.60606 0.0
C2536 C 0.71963 0.3614 0.59318 0.0
C2537 C 0.67148 0.35167 0.57831 0.0
C2538 C 0.67222 0.36291 0.56633 0.0
C2539 C 0.6584 0.3545 0.56886 0.0
C2540 C 0.66252 0.34984 0.57592 0.0
C2541 C 0.66317 0.36111 0.56405 0.0
C2542 C 0.67636 0.35822 0.57347 0.0
C2543 C 0.67535 0.34669 0.58598 0.0
O2544 O 0.69245 0.33154 0.60148 0.0
O2545 O 0.68682 0.34172 0.61061 0.0
O2546 O 0.67633 0.3512 0.59356 0.0
O2547 O 0.68212 0.34122 0.58425 0.0
H2548 H 0.67257 0.33055 0.60106 0.0
H2549 H 0.66041 0.32018 0.60556 0.0
H2550 H 0.67643 0.31118 0.62815 0.0
H2551 H 0.68863 0.32158 0.62364 0.0
H2552 H 0.7244 0.35482 0.61809 0.0
H2553 H 0.70963 0.35127 0.61127 0.0
H2554 H 0.73309 0.36686 0.59305 0.0
H2555 H 0.71835 0.36336 0.58625 0.0
H2556 H 0.676 0.36798 0.56267 0.0
H2557 H 0.65142 0.35302 0.56719 0.0
H2558 H 0.65866 0.34481 0.57959 0.0
H2559 H 0.6833 0.35971 0.57524 0.0
C2560 C 0.64425 0.92974 0.57539 0.0
C2561 C 0.64923 0.93026 0.58345 0.0
C2562 C 0.63909 0.94183 0.58916 0.0
C2563 C 0.64668 0.93627 0.59027 0.0
C2564 C 0.63411 0.94135 0.5811 0.0
C2565 C 0.63668 0.93533 0.57425 0.0
U2566 U 0.65932 0.91063 0.56794 0.0
O2567 O 0.65649 0.89806 0.56046 0.0
O2568 O 0.66638 0.90777 0.55519 0.0
C2569 C 0.66191 0.90022 0.55377 0.0
C2570 C 0.64688 0.92328 0.56828 0.0
C2571 C 0.65837 0.89886 0.54453 0.0
C2572 C 0.65097 0.90429 0.53091 0.0
C2573 C 0.65371 0.90564 0.53989 0.0
C2574 C 0.65698 0.88921 0.53133 0.0
C2575 C 0.65324 0.89631 0.52609 0.0
C2576 C 0.65972 0.89055 0.54027 0.0
C2577 C 0.67651 0.90367 0.58681 0.0
C2578 C 0.68958 0.89372 0.58609 0.0
C2579 C 0.68491 0.90008 0.60043 0.0
C2580 C 0.67779 0.90453 0.59615 0.0
C2581 C 0.69087 0.89468 0.59545 0.0
C2582 C 0.68242 0.89821 0.58177 0.0
C2583 C 0.66911 0.90884 0.58265 0.0
O2584 O 0.65498 0.92452 0.56485 0.0
O2585 O 0.6452 0.91477 0.57015 0.0
O2586 O 0.66145 0.90455 0.58135 0.0
O2587 O 0.67127 0.91428 0.57598 0.0
H2588 H 0.65508 0.92598 0.58446 0.0
H2589 H 0.65059 0.93655 0.59645 0.0
H2590 H 0.62824 0.9456 0.58013 0.0
H2591 H 0.63275 0.93501 0.56809 0.0
H2592 H 0.6469 0.90956 0.52798 0.0
H2593 H 0.65215 0.91197 0.54321 0.0
H2594 H 0.65773 0.88246 0.5287 0.0
H2595 H 0.66289 0.88503 0.54389 0.0
H2596 H 0.69414 0.88957 0.58215 0.0
H2597 H 0.6858 0.9009 0.60765 0.0
H2598 H 0.67331 0.90873 0.60014 0.0
H2599 H 0.68153 0.89749 0.57455 0.0
C2600 C 0.1448 0.57715 0.43143 0.0
C2601 C 0.14983 0.57678 0.42339 0.0
C2602 C 0.13961 0.56544 0.41733 0.0
C2603 C 0.14726 0.57096 0.4164 0.0
C2604 C 0.13459 0.56578 0.42537 0.0
C2605 C 0.13717 0.57161 0.43238 0.0
U2606 U 0.16006 0.5958 0.43987 0.0
O2607 O 0.15723 0.6082 0.44753 0.0
O2608 O 0.16659 0.59813 0.45307 0.0
C2609 C 0.16221 0.60573 0.45446 0.0
C2610 C 0.14744 0.58338 0.43873 0.0
C2611 C 0.15816 0.60696 0.4635 0.0
C2612 C 0.1452 0.60725 0.47362 0.0
C2613 C 0.14893 0.60542 0.46511 0.0
C2614 C 0.15988 0.61195 0.47909 0.0
C2615 C 0.15063 0.61061 0.48064 0.0
C2616 C 0.16361 0.61015 0.47058 0.0
C2617 C 0.17792 0.60359 0.42193 0.0
C2618 C 0.19369 0.60833 0.42177 0.0
C2619 C 0.18404 0.61165 0.40899 0.0
C2620 C 0.17679 0.60751 0.41337 0.0
C2621 C 0.19258 0.61191 0.41306 0.0
C2622 C 0.18641 0.60415 0.42618 0.0
C2623 C 0.17041 0.59814 0.42563 0.0
O2624 O 0.15543 0.58189 0.4423 0.0
O2625 O 0.14596 0.59197 0.43706 0.0
O2626 O 0.16263 0.60227 0.42672 0.0
O2627 O 0.17227 0.59237 0.43212 0.0
H2628 H 0.15573 0.58102 0.42252 0.0
H2629 H 0.15121 0.57078 0.41024 0.0
H2630 H 0.12867 0.56157 0.4262 0.0
H2631 H 0.1332 0.57181 0.43852 0.0
H2632 H 0.13804 0.60614 0.4747 0.0
H2633 H 0.1446 0.60294 0.45976 0.0
H2634 H 0.16418 0.6145 0.48442 0.0
H2635 H 0.17074 0.61139 0.46949 0.0
H2636 H 0.20025 0.6085 0.42502 0.0
H2637 H 0.18305 0.61439 0.40228 0.0
H2638 H 0.17034 0.6071 0.40993 0.0
H2639 H 0.18749 0.60116 0.43276 0.0
C2640 C 0.68048 0.89505 0.68195 0.0
C2641 C 0.68456 0.90148 0.67634 0.0
C2642 C 0.69443 0.88988 0.66965 0.0
C2643 C 0.69125 0.89891 0.67017 0.0
C2644 C 0.68936 0.88339 0.67455 0.0
C2645 C 0.68273 0.88596 0.68079 0.0
U2646 U 0.66106 0.9101 0.68964 0.0
O2647 O 0.64851 0.90699 0.69695 0.0
O2648 O 0.65824 0.91651 0.7028 0.0
C2649 C 0.65072 0.91195 0.70397 0.0
C2650 C 0.67369 0.89768 0.68879 0.0
C2651 C 0.64933 0.90789 0.71301 0.0
C2652 C 0.64729 0.89488 0.72288 0.0
C2653 C 0.64931 0.89849 0.71436 0.0
C2654 C 0.6455 0.90998 0.72889 0.0
C2655 C 0.6453 0.9006 0.73018 0.0
C2656 C 0.64748 0.91359 0.72038 0.0
C2657 C 0.6535 0.92814 0.67183 0.0
C2658 C 0.64859 0.94386 0.67182 0.0
C2659 C 0.64537 0.93428 0.65895 0.0
C2660 C 0.64959 0.92704 0.66327 0.0
C2661 C 0.64501 0.94278 0.6631 0.0
C2662 C 0.65285 0.93658 0.67616 0.0
C2663 C 0.659 0.92064 0.6755 0.0
O2664 O 0.67489 0.9056 0.69262 0.0
O2665 O 0.66522 0.89611 0.68664 0.0
O2666 O 0.65495 0.91278 0.67634 0.0
O2667 O 0.66458 0.92245 0.68216 0.0
H2668 H 0.68256 0.9085 0.67669 0.0
H2669 H 0.69377 0.90412 0.66573 0.0
H2670 H 0.69018 0.87624 0.67357 0.0
H2671 H 0.67926 0.8808 0.68465 0.0
H2672 H 0.64716 0.88762 0.72376 0.0
H2673 H 0.65071 0.89393 0.70881 0.0
H2674 H 0.64398 0.9145 0.73444 0.0
H2675 H 0.64743 0.92085 0.7195 0.0
H2676 H 0.64835 0.95038 0.67512 0.0
H2677 H 0.64263 0.93333 0.65223 0.0
H2678 H 0.65006 0.92064 0.65976 0.0
H2679 H 0.65583 0.93763 0.68275 0.0
C2680 C 0.36216 0.43128 0.93184 0.0
C2681 C 0.35667 0.43237 0.92418 0.0
C2682 C 0.36717 0.44341 0.91803 0.0
C2683 C 0.35915 0.43839 0.91733 0.0
C2684 C 0.37268 0.44229 0.92568 0.0
C2685 C 0.37018 0.43627 0.93255 0.0
U2686 U 0.34683 0.41252 0.93974 0.0
O2687 O 0.34949 0.39983 0.94697 0.0
O2688 O 0.34024 0.40982 0.95283 0.0
C2689 C 0.34453 0.40213 0.95397 0.0
C2690 C 0.35958 0.42483 0.93899 0.0
C2691 C 0.34854 0.40056 0.96299 0.0
C2692 C 0.36146 0.39984 0.97315 0.0
C2693 C 0.35778 0.40192 0.96467 0.0
C2694 C 0.34668 0.39525 0.97845 0.0
C2695 C 0.35594 0.39642 0.98008 0.0
C2696 C 0.34302 0.39729 0.96997 0.0
C2697 C 0.32892 0.40594 0.92142 0.0
C2698 C 0.31613 0.39564 0.9224 0.0
C2699 C 0.32019 0.40235 0.90803 0.0
C2700 C 0.3273 0.40693 0.91216 0.0
C2701 C 0.31456 0.39666 0.91309 0.0
C2702 C 0.32331 0.40027 0.92656 0.0
C2703 C 0.33649 0.41101 0.92537 0.0
O2704 O 0.35165 0.42627 0.94271 0.0
O2705 O 0.36096 0.41629 0.93702 0.0
O2706 O 0.34413 0.40661 0.92637 0.0
O2707 O 0.33464 0.41642 0.93216 0.0
H2708 H 0.35048 0.42853 0.92348 0.0
H2709 H 0.35484 0.43911 0.91147 0.0
H2710 H 0.3789 0.44609 0.92633 0.0
H2711 H 0.37451 0.43549 0.93839 0.0
H2712 H 0.36862 0.40082 0.97429 0.0
H2713 H 0.36217 0.40446 0.9594 0.0
H2714 H 0.34231 0.39265 0.98371 0.0
H2715 H 0.33587 0.3962 0.96882 0.0
H2716 H 0.31184 0.39128 0.9264 0.0
H2717 H 0.31907 0.40321 0.90084 0.0
H2718 H 0.33155 0.41129 0.90809 0.0
H2719 H 0.32447 0.39943 0.93374 0.0
C2720 C 0.32777 0.61193 0.68164 0.0
C2721 C 0.32965 0.60971 0.67261 0.0
C2722 C 0.31576 0.61701 0.66775 0.0
C2723 C 0.32371 0.61227 0.66571 0.0
C2724 C 0.31383 0.61917 0.67678 0.0
C2725 C 0.31981 0.61666 0.68368 0.0
U2726 U 0.34639 0.59656 0.69004 0.0
O2727 O 0.35885 0.5993 0.69763 0.0
O2728 O 0.34872 0.59005 0.70325 0.0
C2729 C 0.35637 0.59436 0.70458 0.0
C2730 C 0.33399 0.6092 0.68894 0.0
C2731 C 0.35771 0.59844 0.7136 0.0
C2732 C 0.35843 0.61149 0.72358 0.0
C2733 C 0.35636 0.60771 0.71515 0.0
C2734 C 0.36297 0.59678 0.72911 0.0
C2735 C 0.36183 0.60607 0.73059 0.0
C2736 C 0.36093 0.593 0.72068 0.0
C2737 C 0.35407 0.5787 0.67205 0.0
C2738 C 0.35871 0.5629 0.67184 0.0
C2739 C 0.36212 0.57258 0.65911 0.0
C2740 C 0.35803 0.57984 0.66352 0.0
C2741 C 0.36232 0.56402 0.66314 0.0
C2742 C 0.35458 0.57019 0.67627 0.0
C2743 C 0.34866 0.58622 0.67578 0.0
O2744 O 0.33244 0.6012 0.69246 0.0
O2745 O 0.34261 0.61067 0.68736 0.0
O2746 O 0.35281 0.59399 0.67686 0.0
O2747 O 0.3429 0.58437 0.68229 0.0
H2748 H 0.33572 0.606 0.67089 0.0
H2749 H 0.32529 0.61051 0.65879 0.0
H2750 H 0.30771 0.6228 0.67847 0.0
H2751 H 0.31821 0.61839 0.69061 0.0
H2752 H 0.35752 0.61868 0.72461 0.0
H2753 H 0.35388 0.61204 0.7098 0.0
H2754 H 0.3656 0.5925 0.73442 0.0
H2755 H 0.36204 0.58585 0.71962 0.0
H2756 H 0.35883 0.55633 0.67505 0.0
H2757 H 0.36488 0.57358 0.65241 0.0
H2758 H 0.35766 0.5863 0.6601 0.0
H2759 H 0.35156 0.5691 0.68284 0.0
C2760 C 0.86157 0.07654 0.07477 0.0
C2761 C 0.85663 0.0763 0.08286 0.0
C2762 C 0.86643 0.06447 0.08867 0.0
C2763 C 0.85903 0.0703 0.08975 0.0
C2764 C 0.87135 0.06468 0.08056 0.0
C2765 C 0.86894 0.07069 0.07365 0.0
U2766 U 0.84704 0.096 0.06717 0.0
O2767 O 0.85026 0.10852 0.05976 0.0
O2768 O 0.84019 0.09908 0.05436 0.0
C2769 C 0.84484 0.10653 0.05302 0.0
C2770 C 0.85914 0.08304 0.06762 0.0
C2771 C 0.84844 0.10792 0.04381 0.0
C2772 C 0.85563 0.10248 0.03008 0.0
C2773 C 0.85284 0.10106 0.03904 0.0
C2774 C 0.85019 0.11777 0.03079 0.0
C2775 C 0.85366 0.11064 0.02542 0.0
C2776 C 0.84741 0.11636 0.03972 0.0
C2777 C 0.82996 0.10356 0.08592 0.0
C2778 C 0.81574 0.11181 0.08526 0.0
C2779 C 0.82287 0.10893 0.09971 0.0
C2780 C 0.82994 0.10449 0.09534 0.0
C2781 C 0.81568 0.11254 0.09472 0.0
C2782 C 0.82285 0.10732 0.08087 0.0
C2783 C 0.8372 0.09812 0.0818 0.0
O2784 O 0.85103 0.082 0.06414 0.0
O2785 O 0.86103 0.09151 0.06946 0.0
O2786 O 0.84503 0.10213 0.08059 0.0
O2787 O 0.83494 0.09273 0.07512 0.0
H2788 H 0.85094 0.08079 0.08386 0.0
H2789 H 0.85517 0.07023 0.09596 0.0
H2790 H 0.87708 0.06023 0.07962 0.0
H2791 H 0.87284 0.0708 0.06747 0.0
H2792 H 0.8595 0.09712 0.02706 0.0
H2793 H 0.85416 0.09462 0.04223 0.0
H2794 H 0.84969 0.12459 0.0283 0.0
H2795 H 0.84444 0.12192 0.04344 0.0
H2796 H 0.81023 0.11458 0.08132 0.0
H2797 H 0.82294 0.10944 0.10701 0.0
H2798 H 0.83534 0.1016 0.09936 0.0
H2799 H 0.82273 0.10666 0.07358 0.0
C2800 C 0.67923 0.11228 0.82508 0.0
C2801 C 0.67729 0.11018 0.83414 0.0
C2802 C 0.69132 0.11725 0.83894 0.0
C2803 C 0.68327 0.11269 0.84101 0.0
C2804 C 0.6933 0.11929 0.82989 0.0
C2805 C 0.68728 0.11684 0.82301 0.0
U2806 U 0.66078 0.09667 0.81695 0.0
O2807 O 0.64823 0.09911 0.8094 0.0
O2808 O 0.65846 0.08992 0.80386 0.0
C2809 C 0.65076 0.09413 0.80249 0.0
C2810 C 0.673 0.10949 0.81781 0.0
C2811 C 0.64946 0.09815 0.79345 0.0
C2812 C 0.64953 0.11104 0.78323 0.0
C2813 C 0.65135 0.1073 0.79174 0.0
C2814 C 0.64412 0.09653 0.77797 0.0
C2815 C 0.64582 0.1057 0.77631 0.0
C2816 C 0.64591 0.09279 0.78648 0.0
C2817 C 0.65401 0.07895 0.83539 0.0
C2818 C 0.64253 0.06719 0.83491 0.0
C2819 C 0.65141 0.06944 0.84848 0.0
C2820 C 0.65608 0.07645 0.84427 0.0
C2821 C 0.64457 0.0648 0.84387 0.0
C2822 C 0.64723 0.07427 0.83068 0.0
C2823 C 0.65905 0.08653 0.83142 0.0
O2824 O 0.67462 0.1015 0.8143 0.0
O2825 O 0.66438 0.11087 0.81943 0.0
O2826 O 0.65456 0.09409 0.83019 0.0
O2827 O 0.66463 0.08463 0.82479 0.0
H2828 H 0.67117 0.10658 0.83589 0.0
H2829 H 0.68167 0.11102 0.84795 0.0
H2830 H 0.69949 0.12278 0.82818 0.0
H2831 H 0.68892 0.11846 0.81606 0.0
H2832 H 0.65092 0.11813 0.78207 0.0
H2833 H 0.65411 0.11155 0.79701 0.0
H2834 H 0.6413 0.09229 0.77272 0.0
H2835 H 0.6444 0.08573 0.78765 0.0
H2836 H 0.63727 0.06366 0.83126 0.0
H2837 H 0.65309 0.06768 0.85538 0.0
H2838 H 0.6613 0.07998 0.848 0.0
H2839 H 0.64555 0.07612 0.8238 0.0
C2840 C 0.82699 0.89449 0.32502 0.0
C2841 C 0.8266 0.89951 0.33306 0.0
C2842 C 0.81505 0.88944 0.33899 0.0
C2843 C 0.82067 0.89701 0.33999 0.0
C2844 C 0.81541 0.88443 0.33094 0.0
C2845 C 0.82135 0.88694 0.324 0.0
U2846 U 0.84578 0.9097 0.31707 0.0
O2847 O 0.85837 0.90692 0.30959 0.0
O2848 O 0.84845 0.91649 0.30414 0.0
C2849 C 0.85608 0.91215 0.30279 0.0
C2850 C 0.83336 0.89706 0.31781 0.0
C2851 C 0.85754 0.90848 0.29362 0.0
C2852 C 0.85217 0.90126 0.27988 0.0
C2853 C 0.85072 0.90403 0.28883 0.0
C2854 C 0.86742 0.90679 0.28062 0.0
C2855 C 0.86031 0.9033 0.27523 0.0
C2856 C 0.86598 0.90956 0.28954 0.0
C2857 C 0.85262 0.92747 0.3354 0.0
C2858 C 0.86345 0.93981 0.33444 0.0
C2859 C 0.85577 0.93672 0.34856 0.0
C2860 C 0.85115 0.92958 0.3445 0.0
C2861 C 0.86196 0.94187 0.34359 0.0
C2862 C 0.85879 0.93261 0.33035 0.0
C2863 C 0.8475 0.9199 0.33151 0.0
O2864 O 0.83195 0.90505 0.31419 0.0
O2865 O 0.84191 0.89558 0.31966 0.0
O2866 O 0.8519 0.91228 0.33038 0.0
O2867 O 0.84198 0.9218 0.32483 0.0
H2868 H 0.83091 0.90535 0.33399 0.0
H2869 H 0.82049 0.90096 0.34615 0.0
H2870 H 0.81112 0.87857 0.33006 0.0
H2871 H 0.82157 0.88297 0.31786 0.0
H2872 H 0.84684 0.89735 0.27683 0.0
H2873 H 0.84427 0.90267 0.29201 0.0
H2874 H 0.87424 0.90733 0.27813 0.0
H2875 H 0.87151 0.91257 0.29327 0.0
H2876 H 0.8682 0.94373 0.33051 0.0
H2877 H 0.85454 0.93821 0.35562 0.0
H2878 H 0.8464 0.9257 0.34849 0.0
H2879 H 0.86 0.93107 0.3233 0.0
C2880 C 0.43185 0.36088 0.0761 0.0
C2881 C 0.42379 0.35588 0.07573 0.0
C2882 C 0.41788 0.36596 0.06419 0.0
C2883 C 0.41687 0.35839 0.06981 0.0
C2884 C 0.42595 0.37094 0.06452 0.0
C2885 C 0.43289 0.36841 0.07045 0.0
U2886 U 0.43975 0.34583 0.09507 0.0
O2887 O 0.45283 0.3392 0.09782 0.0
O2888 O 0.44709 0.34869 0.10766 0.0
C2889 C 0.45406 0.34366 0.1054 0.0
C2890 C 0.43905 0.35831 0.08249 0.0
C2891 C 0.4631 0.34768 0.1068 0.0
C2892 C 0.47317 0.36067 0.10764 0.0
C2893 C 0.46469 0.35696 0.1056 0.0
C2894 C 0.47865 0.34585 0.11189 0.0
C2895 C 0.48019 0.35515 0.11087 0.0
C2896 C 0.47018 0.34216 0.10987 0.0
C2897 C 0.42111 0.32839 0.10219 0.0
C2898 C 0.42188 0.3149 0.11158 0.0
C2899 C 0.40737 0.32061 0.10661 0.0
C2900 C 0.41168 0.32765 0.10208 0.0
C2901 C 0.41241 0.31418 0.11136 0.0
C2902 C 0.42623 0.32199 0.107 0.0
C2903 C 0.42525 0.33576 0.09695 0.0
O2904 O 0.43722 0.35992 0.09103 0.0
O2905 O 0.4426 0.35029 0.08118 0.0
O2906 O 0.43198 0.33365 0.09156 0.0
O2907 O 0.42638 0.34348 0.10116 0.0
H2908 H 0.42285 0.35005 0.08005 0.0
H2909 H 0.41069 0.35448 0.06964 0.0
H2910 H 0.42685 0.37679 0.06024 0.0
H2911 H 0.43905 0.37236 0.07066 0.0
H2912 H 0.47423 0.36786 0.10682 0.0
H2913 H 0.45935 0.36136 0.10323 0.0
H2914 H 0.48397 0.3415 0.11439 0.0
H2915 H 0.4691 0.33499 0.11087 0.0
H2916 H 0.42587 0.30997 0.11522 0.0
H2917 H 0.40007 0.32016 0.10637 0.0
H2918 H 0.40763 0.3325 0.09838 0.0
H2919 H 0.43353 0.32245 0.10716 0.0
C2920 C 0.39329 0.6815 0.82811 0.0
C2921 C 0.39891 0.67444 0.82515 0.0
C2922 C 0.38639 0.66776 0.81685 0.0
C2923 C 0.39549 0.66763 0.81953 0.0
C2924 C 0.38079 0.67482 0.81981 0.0
C2925 C 0.38422 0.68165 0.82538 0.0
U2926 U 0.41033 0.68936 0.8456 0.0
O2927 O 0.41715 0.70248 0.84753 0.0
O2928 O 0.40862 0.6969 0.85828 0.0
C2929 C 0.41337 0.70385 0.85545 0.0
C2930 C 0.39672 0.68857 0.83426 0.0
C2931 C 0.40936 0.71288 0.85696 0.0
C2932 C 0.39636 0.72288 0.85829 0.0
C2933 C 0.40001 0.71438 0.85626 0.0
C2934 C 0.41135 0.72857 0.86154 0.0
C2935 C 0.402 0.73002 0.861 0.0
C2936 C 0.41499 0.72007 0.85954 0.0
C2937 C 0.42842 0.67092 0.8514 0.0
C2938 C 0.43948 0.6705 0.86356 0.0
C2939 C 0.4385 0.65808 0.85294 0.0
C2940 C 0.43157 0.66253 0.84837 0.0
C2941 C 0.44242 0.66195 0.86064 0.0
C2942 C 0.43246 0.67496 0.85898 0.0
C2943 C 0.42059 0.6749 0.84675 0.0
O2944 O 0.39593 0.68676 0.84291 0.0
O2945 O 0.40461 0.69205 0.83214 0.0
O2946 O 0.42218 0.68154 0.84107 0.0
O2947 O 0.41328 0.67612 0.85163 0.0
H2948 H 0.40592 0.67415 0.82725 0.0
H2949 H 0.3999 0.66221 0.81735 0.0
H2950 H 0.37375 0.67501 0.81785 0.0
H2951 H 0.37977 0.687 0.82763 0.0
H2952 H 0.38913 0.72388 0.85784 0.0
H2953 H 0.39552 0.70896 0.85427 0.0
H2954 H 0.4158 0.73398 0.86363 0.0
H2955 H 0.42222 0.71906 0.86014 0.0
H2956 H 0.44245 0.67359 0.86948 0.0
H2957 H 0.44069 0.65151 0.85057 0.0
H2958 H 0.42852 0.65931 0.84254 0.0
H2959 H 0.43009 0.68143 0.86142 0.0
C2960 C 0.0748 0.64556 0.57687 0.0
C2961 C 0.08282 0.6506 0.57637 0.0
C2962 C 0.08874 0.64034 0.56501 0.0
C2963 C 0.08973 0.64802 0.57048 0.0
C2964 C 0.08071 0.6353 0.56548 0.0
C2965 C 0.07378 0.6379 0.57139 0.0
U2966 U 0.06671 0.66126 0.59521 0.0
O2967 O 0.05354 0.66779 0.5977 0.0
O2968 O 0.05943 0.65883 0.60792 0.0
C2969 C 0.05239 0.66366 0.60547 0.0
C2970 C 0.06758 0.64824 0.5832 0.0
C2971 C 0.04344 0.6595 0.60698 0.0
C2972 C 0.03334 0.64652 0.60689 0.0
C2973 C 0.04177 0.65038 0.60495 0.0
C2974 C 0.02809 0.66086 0.61275 0.0
C2975 C 0.02646 0.65171 0.61088 0.0
C2976 C 0.03652 0.66471 0.61083 0.0
C2977 C 0.08502 0.67939 0.60134 0.0
C2978 C 0.08485 0.69105 0.61293 0.0
C2979 C 0.09813 0.68897 0.60359 0.0
C2980 C 0.09381 0.68199 0.59898 0.0
C2981 C 0.09375 0.6935 0.61065 0.0
C2982 C 0.08051 0.68399 0.6083 0.0
C2983 C 0.08102 0.6717 0.5965 0.0
O2984 O 0.0695 0.64707 0.59178 0.0
O2985 O 0.06385 0.65612 0.58154 0.0
O2986 O 0.07422 0.67342 0.59106 0.0
O2987 O 0.08002 0.66419 0.60111 0.0
H2988 H 0.08373 0.65653 0.58057 0.0
H2989 H 0.09588 0.65197 0.57021 0.0
H2990 H 0.07984 0.62936 0.56131 0.0
H2991 H 0.06765 0.63392 0.57169 0.0
H2992 H 0.0322 0.63945 0.60538 0.0
H2993 H 0.047 0.64623 0.60196 0.0
H2994 H 0.02287 0.66499 0.61579 0.0
H2995 H 0.03767 0.67175 0.61245 0.0
H2996 H 0.08136 0.6945 0.61835 0.0
H2997 H 0.10498 0.69076 0.60173 0.0
H2998 H 0.09739 0.67851 0.59363 0.0
H2999 H 0.07371 0.68206 0.61021 0.0
C3000 C 0.11159 0.32495 0.32598 0.0
C3001 C 0.10648 0.33293 0.32546 0.0
C3002 C 0.11672 0.33895 0.31412 0.0
C3003 C 0.10902 0.33987 0.31958 0.0
C3004 C 0.12183 0.33096 0.31461 0.0
C3005 C 0.11928 0.32401 0.32051 0.0
U3006 U 0.096 0.31675 0.34436 0.0
O3007 O 0.0895 0.30356 0.34681 0.0
O3008 O 0.09849 0.30942 0.35703 0.0
C3009 C 0.09368 0.30237 0.35455 0.0
C3010 C 0.10895 0.31771 0.33228 0.0
C3011 C 0.09782 0.2934 0.35605 0.0
C3012 C 0.11095 0.28356 0.35731 0.0
C3013 C 0.10718 0.292 0.35526 0.0
C3014 C 0.09606 0.27773 0.36075 0.0
C3015 C 0.10542 0.27638 0.36014 0.0
C3016 C 0.0923 0.28617 0.35873 0.0
C3017 C 0.07788 0.33497 0.35074 0.0
C3018 C 0.06617 0.33456 0.36227 0.0
C3019 C 0.06835 0.34806 0.35326 0.0
C3020 C 0.07534 0.34382 0.34859 0.0
C3021 C 0.06377 0.34352 0.36019 0.0
C3022 C 0.07324 0.3303 0.35758 0.0
C3023 C 0.08555 0.33103 0.3458 0.0
O3024 O 0.11018 0.31958 0.34087 0.0
O3025 O 0.10107 0.31397 0.33066 0.0
O3026 O 0.08381 0.32427 0.34033 0.0
O3027 O 0.0931 0.33002 0.35036 0.0
H3028 H 0.10054 0.33379 0.32965 0.0
H3029 H 0.10501 0.34598 0.31929 0.0
H3030 H 0.12779 0.33014 0.31045 0.0
H3031 H 0.12331 0.31791 0.32083 0.0
H3032 H 0.11819 0.28264 0.3568 0.0
H3033 H 0.11158 0.29746 0.35319 0.0
H3034 H 0.09169 0.27228 0.36293 0.0
H3035 H 0.08507 0.28709 0.3594 0.0
H3036 H 0.06269 0.33096 0.36759 0.0
H3037 H 0.06658 0.35495 0.35156 0.0
H3038 H 0.07884 0.34752 0.34333 0.0
H3039 H 0.07513 0.32346 0.35932 0.0
C3040 C 0.43217 0.64595 0.42962 0.0
C3041 C 0.42411 0.65095 0.42998 0.0
C3042 C 0.41818 0.64086 0.4415 0.0
C3043 C 0.41718 0.64843 0.43588 0.0
C3044 C 0.42625 0.63587 0.44117 0.0
C3045 C 0.4332 0.63841 0.43526 0.0
U3046 U 0.44044 0.66111 0.41082 0.0
O3047 O 0.45366 0.66755 0.40829 0.0
O3048 O 0.4479 0.65822 0.39832 0.0
C3049 C 0.4549 0.66315 0.40068 0.0
C3050 C 0.43941 0.64853 0.42329 0.0
C3051 C 0.4639 0.65903 0.39933 0.0
C3052 C 0.4739 0.64597 0.39883 0.0
C3053 C 0.46545 0.64978 0.4008 0.0
C3054 C 0.47943 0.66063 0.39411 0.0
C3055 C 0.48092 0.65135 0.39537 0.0
C3056 C 0.47099 0.66442 0.39606 0.0
C3057 C 0.42244 0.67904 0.40328 0.0
C3058 C 0.42213 0.69485 0.39868 0.0
C3059 C 0.40941 0.68512 0.39534 0.0
C3060 C 0.41388 0.67787 0.39938 0.0
C3061 C 0.4134 0.6937 0.39514 0.0
C3062 C 0.42662 0.68757 0.40276 0.0
C3063 C 0.42623 0.67153 0.40867 0.0
O3064 O 0.43762 0.64704 0.41472 0.0
O3065 O 0.44305 0.6565 0.42472 0.0
O3066 O 0.43282 0.67337 0.41433 0.0
O3067 O 0.42721 0.66374 0.40454 0.0
H3068 H 0.42318 0.65679 0.42566 0.0
H3069 H 0.411 0.65234 0.43604 0.0
H3070 H 0.42714 0.63002 0.44545 0.0
H3071 H 0.43936 0.63446 0.43506 0.0
H3072 H 0.47493 0.63881 0.39987 0.0
H3073 H 0.4601 0.64549 0.40334 0.0
H3074 H 0.48476 0.66489 0.39149 0.0
H3075 H 0.46994 0.67157 0.39487 0.0
H3076 H 0.42531 0.70144 0.39855 0.0
H3077 H 0.40269 0.68411 0.39263 0.0
H3078 H 0.41048 0.6714 0.39976 0.0
H3079 H 0.43321 0.68868 0.40574 0.0
C3080 C 0.11137 0.68169 0.18025 0.0
C3081 C 0.10627 0.6737 0.18074 0.0
C3082 C 0.11661 0.6676 0.19194 0.0
C3083 C 0.10887 0.66672 0.18655 0.0
C3084 C 0.1217 0.6756 0.19148 0.0
C3085 C 0.11909 0.6826 0.18567 0.0
U3086 U 0.09557 0.69 0.1621 0.0
O3087 O 0.08907 0.7032 0.15975 0.0
O3088 O 0.09792 0.69734 0.14941 0.0
C3089 C 0.09313 0.70438 0.15194 0.0
C3090 C 0.10868 0.68897 0.17401 0.0
C3091 C 0.09727 0.71333 0.1504 0.0
C3092 C 0.11025 0.72343 0.15038 0.0
C3093 C 0.10639 0.71503 0.15242 0.0
C3094 C 0.0959 0.72861 0.14447 0.0
C3095 C 0.10505 0.73026 0.14633 0.0
C3096 C 0.09206 0.72021 0.14649 0.0
C3097 C 0.07735 0.67179 0.15594 0.0
C3098 C 0.06587 0.67195 0.14417 0.0
C3099 C 0.06759 0.6588 0.15377 0.0
C3100 C 0.07457 0.6631 0.15841 0.0
C3101 C 0.06326 0.66312 0.14655 0.0
C3102 C 0.07293 0.67626 0.14883 0.0
C3103 C 0.08508 0.67573 0.16077 0.0
O3104 O 0.10979 0.68713 0.1654 0.0
O3105 O 0.10082 0.69273 0.17575 0.0
O3106 O 0.08341 0.68249 0.16628 0.0
O3107 O 0.09257 0.67674 0.15613 0.0
H3108 H 0.10029 0.67287 0.1766 0.0
H3109 H 0.10487 0.6606 0.18681 0.0
H3110 H 0.12769 0.67639 0.1956 0.0
H3111 H 0.12312 0.6887 0.18537 0.0
H3112 H 0.11733 0.72458 0.15185 0.0
H3113 H 0.11054 0.70982 0.15545 0.0
H3114 H 0.09179 0.73378 0.14132 0.0
H3115 H 0.08502 0.71904 0.14486 0.0
H3116 H 0.06257 0.67539 0.13862 0.0
H3117 H 0.06567 0.65201 0.15571 0.0
H3118 H 0.0779 0.65955 0.16388 0.0
H3119 H 0.075 0.68298 0.14683 0.0
C3120 C 0.0748 0.36027 0.93145 0.0
C3121 C 0.08389 0.35858 0.92929 0.0
C3122 C 0.0887 0.36523 0.94351 0.0
C3123 C 0.09078 0.36108 0.93525 0.0
C3124 C 0.07962 0.36686 0.94573 0.0
C3125 C 0.07272 0.36441 0.93973 0.0
U3126 U 0.06652 0.34532 0.91244 0.0
O3127 O 0.05343 0.3386 0.91001 0.0
O3128 O 0.05877 0.34827 0.90013 0.0
C3129 C 0.05195 0.34309 0.9025 0.0
C3130 C 0.06749 0.3576 0.9252 0.0
C3131 C 0.04282 0.34695 0.90129 0.0
C3132 C 0.03244 0.35972 0.90105 0.0
C3133 C 0.04099 0.35612 0.90297 0.0
C3134 C 0.02736 0.34501 0.89599 0.0
C3135 C 0.0256 0.35421 0.89744 0.0
C3136 C 0.0359 0.34143 0.89788 0.0
C3137 C 0.08476 0.328 0.90416 0.0
C3138 C 0.08498 0.3124 0.89889 0.0
C3139 C 0.09785 0.32213 0.89618 0.0
C3140 C 0.09339 0.32924 0.90046 0.0
C3141 C 0.09378 0.3136 0.89555 0.0
C3142 C 0.0805 0.31955 0.90321 0.0
C3143 C 0.08095 0.33532 0.90979 0.0
O3144 O 0.06896 0.35936 0.91663 0.0
O3145 O 0.06412 0.34949 0.92654 0.0
O3146 O 0.07453 0.3332 0.91554 0.0
O3147 O 0.07969 0.34317 0.90584 0.0
H3148 H 0.08565 0.35531 0.92298 0.0
H3149 H 0.09775 0.35974 0.93345 0.0
H3150 H 0.0779 0.37003 0.95209 0.0
H3151 H 0.06576 0.36573 0.94155 0.0
H3152 H 0.0312 0.36682 0.90224 0.0
H3153 H 0.04622 0.36051 0.90561 0.0
H3154 H 0.02217 0.34066 0.89324 0.0
H3155 H 0.03717 0.33435 0.89652 0.0
H3156 H 0.08173 0.30586 0.89844 0.0
H3157 H 0.10463 0.32318 0.89363 0.0
H3158 H 0.09684 0.33566 0.90116 0.0
H3159 H 0.07385 0.31839 0.90603 0.0
C3160 C 0.39544 0.32484 0.68013 0.0
C3161 C 0.40057 0.33279 0.68078 0.0
C3162 C 0.39011 0.33881 0.69192 0.0
C3163 C 0.39793 0.33972 0.68664 0.0
C3164 C 0.38498 0.33085 0.69129 0.0
C3165 C 0.38763 0.32391 0.68542 0.0
U3166 U 0.41137 0.3166 0.66204 0.0
O3167 O 0.41786 0.30338 0.65972 0.0
O3168 O 0.40909 0.30928 0.64932 0.0
C3169 C 0.4138 0.30221 0.6519 0.0
C3170 C 0.39818 0.3176 0.67386 0.0
C3171 C 0.40962 0.29327 0.65036 0.0
C3172 C 0.39644 0.28352 0.649 0.0
C3173 C 0.40024 0.29194 0.65106 0.0
C3174 C 0.41132 0.27757 0.64573 0.0
C3175 C 0.40194 0.27629 0.64625 0.0
C3176 C 0.41512 0.28599 0.64776 0.0
C3177 C 0.42968 0.33474 0.65601 0.0
C3178 C 0.44127 0.3345 0.64435 0.0
C3179 C 0.43947 0.34771 0.65385 0.0
C3180 C 0.43245 0.34345 0.65846 0.0
C3181 C 0.44387 0.34334 0.6467 0.0
C3182 C 0.43416 0.33023 0.64897 0.0
C3183 C 0.4219 0.33084 0.6608 0.0
O3184 O 0.39714 0.3195 0.66525 0.0
O3185 O 0.40603 0.31384 0.67564 0.0
O3186 O 0.42351 0.32408 0.66631 0.0
O3187 O 0.41444 0.32987 0.65611 0.0
H3188 H 0.40661 0.33364 0.67674 0.0
H3189 H 0.40197 0.34581 0.68704 0.0
H3190 H 0.37893 0.33004 0.69532 0.0
H3191 H 0.38358 0.31783 0.685 0.0
H3192 H 0.38919 0.28265 0.64944 0.0
H3193 H 0.39586 0.29744 0.65307 0.0
H3194 H 0.41567 0.27208 0.64361 0.0
H3195 H 0.42236 0.28686 0.64716 0.0
H3196 H 0.44461 0.33102 0.63885 0.0
H3197 H 0.44139 0.35451 0.65577 0.0
H3198 H 0.42907 0.34704 0.66387 0.0
H3199 H 0.43209 0.32349 0.64699 0.0
C3200 C 0.07667 0.4319 0.36079 0.0
C3201 C 0.0763 0.42389 0.35571 0.0
C3202 C 0.06497 0.41778 0.3659 0.0
C3203 C 0.07048 0.41689 0.35825 0.0
C3204 C 0.06531 0.42579 0.37097 0.0
C3205 C 0.07113 0.43281 0.36842 0.0
U3206 U 0.0954 0.44036 0.34564 0.0
O3207 O 0.09779 0.45358 0.33919 0.0
O3208 O 0.10782 0.44796 0.34855 0.0
C3209 C 0.10539 0.45492 0.34358 0.0
C3210 C 0.08292 0.43921 0.3582 0.0
C3211 C 0.10666 0.46393 0.34768 0.0
C3212 C 0.10641 0.47407 0.36062 0.0
C3213 C 0.1045 0.46563 0.35677 0.0
C3214 C 0.11243 0.47927 0.34633 0.0
C3215 C 0.11046 0.48092 0.35545 0.0
C3216 C 0.11054 0.47084 0.34248 0.0
C3217 C 0.10322 0.42242 0.32779 0.0
C3218 C 0.10784 0.4221 0.31198 0.0
C3219 C 0.1114 0.4095 0.32178 0.0
C3220 C 0.10728 0.41394 0.329 0.0
C3221 C 0.11154 0.41344 0.31318 0.0
C3222 C 0.10367 0.42655 0.31923 0.0
C3223 C 0.09775 0.42614 0.33527 0.0
O3224 O 0.0915 0.43753 0.35971 0.0
O3225 O 0.08146 0.44281 0.35022 0.0
O3226 O 0.09201 0.43266 0.33339 0.0
O3227 O 0.10184 0.4272 0.34308 0.0
H3228 H 0.08055 0.42305 0.34981 0.0
H3229 H 0.07031 0.41075 0.35427 0.0
H3230 H 0.0611 0.42659 0.37689 0.0
H3231 H 0.07134 0.43893 0.37243 0.0
H3232 H 0.10486 0.47523 0.36768 0.0
H3233 H 0.1015 0.4604 0.3609 0.0
H3234 H 0.11558 0.48446 0.34224 0.0
H3235 H 0.11228 0.46966 0.33547 0.0
H3236 H 0.1079 0.42524 0.30537 0.0
H3237 H 0.11423 0.40283 0.32284 0.0
H3238 H 0.10696 0.41057 0.3355 0.0
H3239 H 0.10057 0.43307 0.31808 0.0
C3240 C 0.32587 0.32703 0.11294 0.0
C3241 C 0.33297 0.32424 0.10728 0.0
C3242 C 0.33969 0.31573 0.11963 0.0
C3243 C 0.33982 0.3186 0.11059 0.0
C3244 C 0.33259 0.31851 0.12527 0.0
C3245 C 0.32573 0.3241 0.12194 0.0
U3246 U 0.31779 0.34469 0.09615 0.0
O3247 O 0.30459 0.3467 0.08952 0.0
O3248 O 0.31026 0.35734 0.09813 0.0
C3249 C 0.30328 0.3546 0.09337 0.0
C3250 C 0.31877 0.3332 0.10964 0.0
C3251 C 0.29429 0.35612 0.09743 0.0
C3252 C 0.28409 0.35627 0.11034 0.0
C3253 C 0.29257 0.35431 0.10658 0.0
C3254 C 0.27889 0.3617 0.09581 0.0
C3255 C 0.27721 0.36005 0.10499 0.0
C3256 C 0.28736 0.35976 0.09207 0.0
C3257 C 0.33585 0.3508 0.07786 0.0
C3258 C 0.33517 0.3622 0.06603 0.0
C3259 C 0.34874 0.35326 0.06804 0.0
C3260 C 0.34465 0.34865 0.07516 0.0
C3261 C 0.34409 0.36014 0.06348 0.0
C3262 C 0.33107 0.35757 0.07323 0.0
C3263 C 0.33209 0.346 0.08571 0.0
O3264 O 0.32057 0.34185 0.11049 0.0
O3265 O 0.31521 0.33117 0.10176 0.0
O3266 O 0.32545 0.34032 0.08417 0.0
O3267 O 0.33099 0.35078 0.0931 0.0
H3268 H 0.33326 0.32649 0.10032 0.0
H3269 H 0.34526 0.31655 0.10615 0.0
H3270 H 0.3324 0.3164 0.13227 0.0
H3271 H 0.32035 0.32622 0.12643 0.0
H3272 H 0.28291 0.35492 0.11743 0.0
H3273 H 0.2978 0.35148 0.11084 0.0
H3274 H 0.27367 0.36458 0.09157 0.0
H3275 H 0.28854 0.36121 0.085 0.0
H3276 H 0.33148 0.36748 0.06257 0.0
H3277 H 0.3556 0.35156 0.06616 0.0
H3278 H 0.34844 0.34345 0.07865 0.0
H3279 H 0.32426 0.35932 0.07525 0.0
C3280 C 0.43088 0.57482 0.86171 0.0
C3281 C 0.43537 0.58023 0.85539 0.0
C3282 C 0.44479 0.58699 0.86732 0.0
C3283 C 0.44205 0.58633 0.85816 0.0
C3284 C 0.43936 0.58226 0.87365 0.0
C3285 C 0.43274 0.57609 0.87088 0.0
U3286 U 0.41151 0.56795 0.8463 0.0
O3287 O 0.40837 0.55504 0.83957 0.0
O3288 O 0.3987 0.56095 0.84911 0.0
C3289 C 0.40076 0.55398 0.84401 0.0
C3290 C 0.42398 0.56816 0.8589 0.0
C3291 C 0.39922 0.54496 0.84801 0.0
C3292 C 0.39988 0.53444 0.86063 0.0
C3293 C 0.40178 0.54295 0.85692 0.0
C3294 C 0.39302 0.52979 0.84653 0.0
C3295 C 0.39543 0.52782 0.85548 0.0
C3296 C 0.39489 0.53829 0.84283 0.0
C3297 C 0.40506 0.58663 0.82875 0.0
C3298 C 0.39514 0.58592 0.81565 0.0
C3299 C 0.40104 0.60034 0.8207 0.0
C3300 C 0.40564 0.59602 0.82769 0.0
C3301 C 0.39576 0.59535 0.81463 0.0
C3302 C 0.39977 0.58157 0.8227 0.0
C3303 C 0.41019 0.58248 0.83618 0.0
O3304 O 0.41555 0.57047 0.86042 0.0
O3305 O 0.42518 0.56445 0.85091 0.0
O3306 O 0.41541 0.57559 0.83416 0.0
O3307 O 0.40589 0.5815 0.84388 0.0
H3308 H 0.43368 0.57981 0.84828 0.0
H3309 H 0.4449 0.59062 0.85299 0.0
H3310 H 0.43986 0.58334 0.88081 0.0
H3311 H 0.42897 0.57239 0.87594 0.0
H3312 H 0.40182 0.53303 0.86754 0.0
H3313 H 0.40515 0.54797 0.86103 0.0
H3314 H 0.38961 0.52477 0.84244 0.0
H3315 H 0.39287 0.5397 0.83594 0.0
H3316 H 0.39109 0.58198 0.81101 0.0
H3317 H 0.4016 0.6076 0.82001 0.0
H3318 H 0.4097 0.60002 0.83228 0.0
H3319 H 0.39925 0.57431 0.82342 0.0
C3320 C 0.18201 0.67995 0.61122 0.0
C3321 C 0.17297 0.67792 0.60914 0.0
C3322 C 0.16803 0.69194 0.61611 0.0
C3323 C 0.16604 0.68385 0.6116 0.0
C3324 C 0.17706 0.69403 0.61813 0.0
C3325 C 0.18401 0.68806 0.61571 0.0
U3326 U 0.19045 0.66106 0.59624 0.0
O3327 O 0.20364 0.65863 0.58972 0.0
O3328 O 0.19811 0.6487 0.59923 0.0
C3329 C 0.20502 0.65107 0.59417 0.0
C3330 C 0.18934 0.67372 0.60861 0.0
C3331 C 0.21405 0.64986 0.59823 0.0
C3332 C 0.22441 0.65079 0.61097 0.0
C3333 C 0.21596 0.65265 0.60709 0.0
C3334 C 0.2292 0.64353 0.59712 0.0
C3335 C 0.23105 0.64614 0.60603 0.0
C3336 C 0.22076 0.64537 0.59325 0.0
C3337 C 0.17236 0.65299 0.57863 0.0
C3338 C 0.17209 0.64802 0.56293 0.0
C3339 C 0.15928 0.64505 0.57265 0.0
C3340 C 0.16375 0.64921 0.57984 0.0
C3341 C 0.16332 0.64461 0.56411 0.0
C3342 C 0.17659 0.65222 0.57015 0.0
C3343 C 0.17615 0.65853 0.58603 0.0
O3344 O 0.18783 0.66513 0.61028 0.0
O3345 O 0.19283 0.67511 0.60056 0.0
O3346 O 0.18263 0.66426 0.58402 0.0
O3347 O 0.17728 0.65453 0.59387 0.0
H3348 H 0.17128 0.67174 0.6056 0.0
H3349 H 0.15911 0.68215 0.60996 0.0
H3350 H 0.17872 0.70026 0.62158 0.0
H3351 H 0.19093 0.68977 0.61734 0.0
H3352 H 0.22572 0.65284 0.61787 0.0
H3353 H 0.21088 0.65611 0.61106 0.0
H3354 H 0.23422 0.63991 0.59321 0.0
H3355 H 0.21942 0.64314 0.58642 0.0
H3356 H 0.17531 0.64771 0.55637 0.0
H3357 H 0.15252 0.64245 0.57369 0.0
H3358 H 0.16032 0.64978 0.58628 0.0
H3359 H 0.18321 0.65511 0.56901 0.0
C3360 C 0.07634 0.57472 0.14519 0.0
C3361 C 0.07829 0.58372 0.1475 0.0
C3362 C 0.06442 0.58875 0.14029 0.0
C3363 C 0.07239 0.59068 0.14502 0.0
C3364 C 0.06242 0.57975 0.13804 0.0
C3365 C 0.06835 0.57278 0.14046 0.0
U3366 U 0.09472 0.56631 0.16071 0.0
O3367 O 0.09701 0.55316 0.16734 0.0
O3368 O 0.10725 0.55874 0.1582 0.0
C3369 C 0.10471 0.55181 0.16313 0.0
C3370 C 0.08251 0.56736 0.1479 0.0
C3371 C 0.10607 0.54277 0.1591 0.0
C3372 C 0.10634 0.53261 0.14616 0.0
C3373 C 0.10443 0.5411 0.14989 0.0
C3374 C 0.11133 0.52727 0.16079 0.0
C3375 C 0.10989 0.52565 0.15156 0.0
C3376 C 0.10945 0.53576 0.16451 0.0
C3377 C 0.10151 0.58471 0.17854 0.0
C3378 C 0.1129 0.58426 0.19039 0.0
C3379 C 0.10418 0.59789 0.1879 0.0
C3380 C 0.09951 0.59364 0.18091 0.0
C3381 C 0.11094 0.59329 0.19265 0.0
C3382 C 0.1082 0.57999 0.18333 0.0
C3383 C 0.0965 0.58071 0.17095 0.0
O3384 O 0.09114 0.56893 0.14653 0.0
O3385 O 0.08087 0.56379 0.15586 0.0
O3386 O 0.09093 0.57406 0.17283 0.0
O3387 O 0.10099 0.57952 0.16339 0.0
H3388 H 0.08436 0.58536 0.15123 0.0
H3389 H 0.07402 0.59758 0.14685 0.0
H3390 H 0.05627 0.57814 0.1344 0.0
H3391 H 0.0667 0.56588 0.13867 0.0
H3392 H 0.10515 0.53148 0.13903 0.0
H3393 H 0.10181 0.5464 0.14558 0.0
H3394 H 0.11403 0.52199 0.16508 0.0
H3395 H 0.11077 0.5369 0.17162 0.0
H3396 H 0.11809 0.58061 0.19401 0.0
H3397 H 0.10257 0.60484 0.18955 0.0
H3398 H 0.09436 0.59738 0.17729 0.0
H3399 H 0.10982 0.57307 0.18158 0.0
C3400 C 0.18219 0.3269 0.89562 0.0
C3401 C 0.17414 0.32654 0.90063 0.0
C3402 C 0.16822 0.31498 0.89058 0.0
C3403 C 0.16721 0.32062 0.89813 0.0
C3404 C 0.17628 0.31531 0.88558 0.0
C3405 C 0.18322 0.32124 0.88809 0.0
U3406 U 0.19044 0.34579 0.91067 0.0
O3407 O 0.20363 0.3483 0.91718 0.0
O3408 O 0.19798 0.35824 0.90774 0.0
C3409 C 0.20494 0.35587 0.91271 0.0
C3410 C 0.18944 0.33323 0.89818 0.0
C3411 C 0.21399 0.35715 0.90865 0.0
C3412 C 0.22393 0.35829 0.89559 0.0
C3413 C 0.21544 0.35632 0.8993 0.0
C3414 C 0.2297 0.36169 0.91051 0.0
C3415 C 0.23109 0.36106 0.90116 0.0
C3416 C 0.22121 0.35976 0.91422 0.0
C3417 C 0.17235 0.3535 0.92844 0.0
C3418 C 0.17209 0.35835 0.94417 0.0
C3419 C 0.1592 0.36124 0.93452 0.0
C3420 C 0.16369 0.35719 0.92729 0.0
C3421 C 0.16327 0.36167 0.94305 0.0
C3422 C 0.1766 0.35426 0.93691 0.0
C3423 C 0.17617 0.34807 0.92098 0.0
O3424 O 0.18768 0.34179 0.89661 0.0
O3425 O 0.19303 0.33185 0.90618 0.0
O3426 O 0.18273 0.34239 0.9229 0.0
O3427 O 0.17723 0.35215 0.91317 0.0
H3428 H 0.17322 0.33088 0.90645 0.0
H3429 H 0.16104 0.32046 0.90206 0.0
H3430 H 0.17716 0.311 0.87973 0.0
H3431 H 0.18937 0.32143 0.88413 0.0
H3432 H 0.22488 0.35777 0.88835 0.0
H3433 H 0.20998 0.35431 0.89486 0.0
H3434 H 0.23513 0.36384 0.91491 0.0
H3435 H 0.22024 0.36047 0.92143 0.0
H3436 H 0.17533 0.35865 0.95072 0.0
H3437 H 0.15241 0.36378 0.93353 0.0
H3438 H 0.16024 0.35663 0.92086 0.0
H3439 H 0.18326 0.35144 0.938 0.0
C3440 C 0.4307 0.43151 0.64584 0.0
C3441 C 0.42871 0.42249 0.64805 0.0
C3442 C 0.44268 0.41751 0.64099 0.0
C3443 C 0.43463 0.41554 0.6456 0.0
C3444 C 0.44472 0.42652 0.63886 0.0
C3445 C 0.43876 0.43347 0.64125 0.0
U3446 U 0.41181 0.44006 0.66079 0.0
O3447 O 0.4094 0.4533 0.66722 0.0
O3448 O 0.39946 0.4477 0.65776 0.0
C3449 C 0.40184 0.45464 0.66275 0.0
C3450 C 0.42447 0.43886 0.64842 0.0
C3451 C 0.40061 0.46366 0.65865 0.0
C3452 C 0.40096 0.47381 0.64572 0.0
C3453 C 0.40289 0.46539 0.64961 0.0
C3454 C 0.39468 0.47895 0.65992 0.0
C3455 C 0.39677 0.48063 0.65083 0.0
C3456 C 0.39658 0.47054 0.66379 0.0
C3457 C 0.40369 0.42214 0.67853 0.0
C3458 C 0.39887 0.42188 0.69428 0.0
C3459 C 0.39548 0.40922 0.68448 0.0
C3460 C 0.39968 0.41364 0.6773 0.0
C3461 C 0.39522 0.4132 0.69307 0.0
C3462 C 0.40312 0.42631 0.68705 0.0
C3463 C 0.40926 0.42584 0.67111 0.0
O3464 O 0.41588 0.43733 0.64677 0.0
O3465 O 0.42587 0.44239 0.65645 0.0
O3466 O 0.41501 0.43232 0.67307 0.0
O3467 O 0.40527 0.42692 0.66325 0.0
H3468 H 0.42257 0.42083 0.65166 0.0
H3469 H 0.43297 0.40863 0.64733 0.0
H3470 H 0.45091 0.42815 0.63532 0.0
H3471 H 0.44044 0.44038 0.63954 0.0
H3472 H 0.40261 0.47498 0.63869 0.0
H3473 H 0.40599 0.46018 0.64551 0.0
H3474 H 0.39142 0.48411 0.66396 0.0
H3475 H 0.39475 0.46934 0.67077 0.0
H3476 H 0.39872 0.42505 0.70086 0.0
H3477 H 0.39269 0.40254 0.68343 0.0
H3478 H 0.4001 0.41024 0.67082 0.0
H3479 H 0.40618 0.43285 0.68822 0.0
C3480 C 0.32505 0.6806 0.39544 0.0
C3481 C 0.3341 0.6786 0.3975 0.0
C3482 C 0.33897 0.69267 0.39057 0.0
C3483 C 0.34101 0.68457 0.39505 0.0
C3484 C 0.32993 0.69472 0.38857 0.0
C3485 C 0.32302 0.68871 0.39097 0.0
U3486 U 0.3167 0.66165 0.41041 0.0
O3487 O 0.30354 0.65923 0.41701 0.0
O3488 O 0.30899 0.64931 0.40744 0.0
C3489 C 0.30211 0.6517 0.41252 0.0
C3490 C 0.31774 0.67434 0.39807 0.0
C3491 C 0.29304 0.65053 0.40853 0.0
C3492 C 0.28282 0.65049 0.39563 0.0
C3493 C 0.29134 0.65231 0.39936 0.0
C3494 C 0.27752 0.64533 0.41023 0.0
C3495 C 0.27588 0.64689 0.40102 0.0
C3496 C 0.28603 0.64712 0.41393 0.0
C3497 C 0.3348 0.65353 0.42795 0.0
C3498 C 0.33492 0.64837 0.44359 0.0
C3499 C 0.34789 0.64566 0.43399 0.0
C3500 C 0.34346 0.64987 0.42681 0.0
C3501 C 0.34375 0.64507 0.44248 0.0
C3502 C 0.33047 0.65261 0.43637 0.0
C3503 C 0.33103 0.65909 0.42056 0.0
O3504 O 0.31927 0.66576 0.39637 0.0
O3505 O 0.31429 0.67571 0.40613 0.0
O3506 O 0.32457 0.66484 0.42259 0.0
O3507 O 0.32986 0.6551 0.41273 0.0
H3508 H 0.33582 0.67242 0.40102 0.0
H3509 H 0.34794 0.6829 0.39668 0.0
H3510 H 0.32824 0.70095 0.38514 0.0
H3511 H 0.31608 0.6904 0.38936 0.0
H3512 H 0.28166 0.65177 0.38853 0.0
H3513 H 0.29663 0.65495 0.39505 0.0
H3514 H 0.27225 0.64259 0.4145 0.0
H3515 H 0.2872 0.64569 0.42102 0.0
H3516 H 0.33162 0.64794 0.4501 0.0
H3517 H 0.35469 0.64314 0.43301 0.0
H3518 H 0.34696 0.65055 0.42041 0.0
H3519 H 0.3238 0.6554 0.43745 0.0
C3520 C 0.36148 0.07675 0.43118 0.0
C3521 C 0.35642 0.07632 0.42317 0.0
C3522 C 0.36665 0.06498 0.41713 0.0
C3523 C 0.35897 0.07047 0.4162 0.0
C3524 C 0.3717 0.06538 0.42515 0.0
C3525 C 0.36913 0.07123 0.43213 0.0
U3526 U 0.34626 0.09546 0.43957 0.0
O3527 O 0.33977 0.09784 0.45278 0.0
O3528 O 0.34912 0.10788 0.44718 0.0
C3529 C 0.34416 0.10544 0.45413 0.0
C3530 C 0.35886 0.08301 0.43847 0.0
C3531 C 0.34824 0.1067 0.46316 0.0
C3532 C 0.36126 0.10707 0.47321 0.0
C3533 C 0.35747 0.10517 0.46473 0.0
C3534 C 0.3466 0.11183 0.4787 0.0
C3535 C 0.35586 0.11049 0.48022 0.0
C3536 C 0.34283 0.10995 0.47023 0.0
C3537 C 0.3284 0.10321 0.42161 0.0
C3538 C 0.31262 0.10796 0.42144 0.0
C3539 C 0.32228 0.11121 0.40864 0.0
C3540 C 0.32953 0.1071 0.41304 0.0
C3541 C 0.31373 0.11149 0.4127 0.0
C3542 C 0.31991 0.10381 0.42586 0.0
C3543 C 0.3359 0.09777 0.42534 0.0
O3544 O 0.36035 0.09159 0.43676 0.0
O3545 O 0.35087 0.08154 0.44205 0.0
O3546 O 0.33403 0.09203 0.43186 0.0
O3547 O 0.34369 0.10189 0.4264 0.0
H3548 H 0.3505 0.08054 0.4223 0.0
H3549 H 0.355 0.07025 0.41006 0.0
H3550 H 0.37764 0.06118 0.42598 0.0
H3551 H 0.37313 0.07148 0.43825 0.0
H3552 H 0.36842 0.10601 0.47426 0.0
H3553 H 0.36178 0.10265 0.45938 0.0
H3554 H 0.34234 0.11448 0.48402 0.0
H3555 H 0.3357 0.1112 0.46916 0.0
H3556 H 0.30607 0.10814 0.42467 0.0
H3557 H 0.32326 0.11391 0.40191 0.0
H3558 H 0.33597 0.10666 0.4096 0.0
H3559 H 0.31883 0.10084 0.43246 0.0
C3560 C 0.86066 0.42999 0.57482 0.0
C3561 C 0.86476 0.43831 0.57285 0.0
C3562 C 0.8656 0.44186 0.58888 0.0
C3563 C 0.86719 0.44422 0.57983 0.0
C3564 C 0.86149 0.43355 0.59085 0.0
C3565 C 0.859 0.42768 0.58388 0.0
U3566 U 0.84551 0.41131 0.56611 0.0
O3567 O 0.83905 0.4091 0.55285 0.0
O3568 O 0.84841 0.39901 0.55834 0.0
C3569 C 0.84348 0.40154 0.5514 0.0
C3570 C 0.85799 0.42384 0.56742 0.0
C3571 C 0.84759 0.4004 0.54236 0.0
C3572 C 0.86071 0.39928 0.53249 0.0
C3573 C 0.85695 0.40118 0.54098 0.0
C3574 C 0.8458 0.39606 0.52658 0.0
C3575 C 0.85516 0.39662 0.52526 0.0
C3576 C 0.84205 0.39792 0.53506 0.0
C3577 C 0.82773 0.40324 0.58407 0.0
C3578 C 0.82189 0.39483 0.59691 0.0
C3579 C 0.81182 0.39901 0.58473 0.0
C3580 C 0.81905 0.40312 0.58017 0.0
C3581 C 0.81317 0.39504 0.59324 0.0
C3582 C 0.82909 0.3989 0.59238 0.0
C3583 C 0.83519 0.40874 0.58033 0.0
O3584 O 0.85958 0.41522 0.56885 0.0
O3585 O 0.84998 0.42535 0.56392 0.0
O3586 O 0.83327 0.41455 0.57389 0.0
O3587 O 0.843 0.40467 0.57919 0.0
H3588 H 0.86605 0.44024 0.56591 0.0
H3589 H 0.87034 0.45062 0.5782 0.0
H3590 H 0.86018 0.43165 0.59779 0.0
H3591 H 0.85576 0.42134 0.58556 0.0
H3592 H 0.86795 0.39975 0.53159 0.0
H3593 H 0.86137 0.40308 0.54649 0.0
H3594 H 0.84142 0.39401 0.52109 0.0
H3595 H 0.83482 0.39725 0.53598 0.0
H3596 H 0.82307 0.39179 0.60347 0.0
H3597 H 0.80512 0.39921 0.58179 0.0
H3598 H 0.81777 0.40645 0.57379 0.0
H3599 H 0.83568 0.39897 0.59557 0.0
C3600 C 0.32616 0.11102 0.32426 0.0
C3601 C 0.32574 0.10599 0.33229 0.0
C3602 C 0.31424 0.11611 0.33822 0.0
C3603 C 0.31982 0.10851 0.33921 0.0
C3604 C 0.31462 0.12112 0.33017 0.0
C3605 C 0.32056 0.11859 0.32323 0.0
U3606 U 0.34503 0.09585 0.31642 0.0
O3607 O 0.34781 0.08907 0.3035 0.0
O3608 O 0.35766 0.09868 0.30901 0.0
C3609 C 0.35542 0.09345 0.30219 0.0
C3610 C 0.33256 0.10844 0.31707 0.0
C3611 C 0.35689 0.09717 0.29304 0.0
C3612 C 0.35157 0.10469 0.27944 0.0
C3613 C 0.35012 0.10181 0.28836 0.0
C3614 C 0.36673 0.09888 0.28001 0.0
C3615 C 0.35966 0.10259 0.27472 0.0
C3616 C 0.36528 0.096 0.2889 0.0
C3617 C 0.35181 0.07818 0.3349 0.0
C3618 C 0.36253 0.06574 0.3341 0.0
C3619 C 0.35504 0.06922 0.34823 0.0
C3620 C 0.35043 0.07629 0.34406 0.0
C3621 C 0.36113 0.06391 0.34332 0.0
C3622 C 0.35789 0.07287 0.3299 0.0
C3623 C 0.3467 0.0857 0.33089 0.0
O3624 O 0.3411 0.10996 0.31895 0.0
O3625 O 0.33119 0.10045 0.31346 0.0
O3626 O 0.34126 0.08374 0.32417 0.0
O3627 O 0.35107 0.09334 0.32977 0.0
H3628 H 0.33003 0.10013 0.33322 0.0
H3629 H 0.31962 0.10457 0.34537 0.0
H3630 H 0.31037 0.127 0.32929 0.0
H3631 H 0.3208 0.12256 0.31709 0.0
H3632 H 0.34629 0.10873 0.27649 0.0
H3633 H 0.34372 0.10324 0.2916 0.0
H3634 H 0.37353 0.09826 0.27749 0.0
H3635 H 0.37078 0.09284 0.29256 0.0
H3636 H 0.36722 0.06169 0.33021 0.0
H3637 H 0.35387 0.0679 0.35534 0.0
H3638 H 0.34575 0.0803 0.34801 0.0
H3639 H 0.35902 0.07424 0.3228 0.0
C3640 C 0.64529 0.57651 0.07455 0.0
C3641 C 0.65036 0.57604 0.08255 0.0
C3642 C 0.64011 0.56469 0.08855 0.0
C3643 C 0.64779 0.57016 0.0895 0.0
C3644 C 0.63504 0.56515 0.08054 0.0
C3645 C 0.63762 0.57103 0.07358 0.0
U3646 U 0.6606 0.59516 0.06616 0.0
O3647 O 0.66706 0.59751 0.05293 0.0
O3648 O 0.65779 0.6076 0.05858 0.0
C3649 C 0.6627 0.60513 0.0516 0.0
C3650 C 0.64793 0.58279 0.06728 0.0
C3651 C 0.65859 0.60639 0.04259 0.0
C3652 C 0.64548 0.60718 0.03266 0.0
C3653 C 0.64927 0.60527 0.04113 0.0
C3654 C 0.66029 0.61112 0.02692 0.0
C3655 C 0.65096 0.61019 0.02552 0.0
C3656 C 0.66406 0.60925 0.03539 0.0
C3657 C 0.67858 0.60277 0.08405 0.0
C3658 C 0.69431 0.60765 0.08401 0.0
C3659 C 0.68489 0.61056 0.09707 0.0
C3660 C 0.67758 0.60647 0.09272 0.0
C3661 C 0.69334 0.611 0.09284 0.0
C3662 C 0.68697 0.60352 0.07965 0.0
C3663 C 0.67103 0.59738 0.08035 0.0
O3664 O 0.6465 0.59137 0.06901 0.0
O3665 O 0.65589 0.58127 0.06367 0.0
O3666 O 0.67283 0.59164 0.07382 0.0
O3667 O 0.66326 0.60155 0.07933 0.0
H3668 H 0.65629 0.58023 0.08343 0.0
H3669 H 0.65178 0.5699 0.09563 0.0
H3670 H 0.62909 0.56097 0.0797 0.0
H3671 H 0.63362 0.57132 0.06747 0.0
H3672 H 0.63827 0.60643 0.0317 0.0
H3673 H 0.6449 0.60307 0.04658 0.0
H3674 H 0.66461 0.61345 0.0215 0.0
H3675 H 0.67125 0.61018 0.03636 0.0
H3676 H 0.7008 0.60796 0.08065 0.0
H3677 H 0.68401 0.61312 0.10386 0.0
H3678 H 0.67121 0.60592 0.09628 0.0
H3679 H 0.68794 0.6007 0.07297 0.0
C3680 C 0.68016 0.39487 0.32497 0.0
C3681 C 0.6808 0.40007 0.33288 0.0
C3682 C 0.69193 0.38966 0.33901 0.0
C3683 C 0.68665 0.39749 0.33984 0.0
C3684 C 0.69132 0.38447 0.33109 0.0
C3685 C 0.68546 0.38706 0.32411 0.0
U3686 U 0.66184 0.41054 0.31679 0.0
O3687 O 0.65933 0.41703 0.30362 0.0
O3688 O 0.64911 0.40808 0.30953 0.0
C3689 C 0.65154 0.41293 0.30249 0.0
C3690 C 0.67385 0.39753 0.31773 0.0
C3691 C 0.64996 0.40878 0.29356 0.0
C3692 C 0.65102 0.39613 0.28311 0.0
C3693 C 0.65304 0.40005 0.2915 0.0
C3694 C 0.643 0.40968 0.27868 0.0
C3695 C 0.64593 0.4009 0.27666 0.0
C3696 C 0.645 0.41358 0.28706 0.0
C3697 C 0.65562 0.42868 0.33505 0.0
C3698 C 0.64411 0.44042 0.33471 0.0
C3699 C 0.65317 0.4382 0.34816 0.0
C3700 C 0.65781 0.4312 0.3439 0.0
C3701 C 0.64623 0.4428 0.34366 0.0
C3702 C 0.64877 0.43334 0.33042 0.0
C3703 C 0.6605 0.42099 0.33109 0.0
O3704 O 0.66526 0.39635 0.31962 0.0
O3705 O 0.67551 0.4054 0.31397 0.0
O3706 O 0.66595 0.42271 0.3243 0.0
O3707 O 0.65592 0.41346 0.3301 0.0
H3708 H 0.67675 0.40611 0.33368 0.0
H3709 H 0.68704 0.40157 0.3459 0.0
H3710 H 0.69534 0.37841 0.33034 0.0
H3711 H 0.68503 0.38296 0.31807 0.0
H3712 H 0.65332 0.38933 0.28168 0.0
H3713 H 0.65688 0.39623 0.29642 0.0
H3714 H 0.63904 0.41345 0.27382 0.0
H3715 H 0.64256 0.42033 0.28852 0.0
H3716 H 0.63878 0.44392 0.33113 0.0
H3717 H 0.65491 0.43995 0.35505 0.0
H3718 H 0.66307 0.42768 0.34757 0.0
H3719 H 0.64699 0.43147 0.32358 0.0
C3720 C 0.14543 0.9306 0.93157 0.0
C3721 C 0.14109 0.93878 0.93361 0.0
C3722 C 0.14044 0.94259 0.91762 0.0
C3723 C 0.13863 0.94475 0.92668 0.0
C3724 C 0.14478 0.93442 0.91558 0.0
C3725 C 0.1473 0.92849 0.9225 0.0
U3726 U 0.16109 0.91227 0.93991 0.0
O3727 O 0.16768 0.90999 0.95309 0.0
O3728 O 0.15864 0.8997 0.94742 0.0
C3729 C 0.16351 0.90226 0.9544 0.0
C3730 C 0.14821 0.92441 0.93889 0.0
C3731 C 0.15943 0.90085 0.9634 0.0
C3732 C 0.14638 0.90027 0.97341 0.0
C3733 C 0.15017 0.90228 0.96496 0.0
C3734 C 0.16107 0.89562 0.97892 0.0
C3735 C 0.1518 0.89686 0.98042 0.0
C3736 C 0.16484 0.8976 0.97047 0.0
C3737 C 0.179 0.90559 0.92158 0.0
C3738 C 0.19085 0.89421 0.92208 0.0
C3739 C 0.18839 0.90289 0.90842 0.0
C3740 C 0.18139 0.90757 0.91265 0.0
C3741 C 0.19313 0.89614 0.91306 0.0
C3742 C 0.18378 0.89891 0.92633 0.0
C3743 C 0.17138 0.91059 0.92554 0.0
O3744 O 0.14689 0.91578 0.93729 0.0
O3745 O 0.15615 0.92609 0.94247 0.0
O3746 O 0.17321 0.91614 0.93221 0.0
O3747 O 0.16382 0.90607 0.92669 0.0
H3748 H 0.13965 0.94056 0.94055 0.0
H3749 H 0.13531 0.95105 0.92837 0.0
H3750 H 0.14627 0.93267 0.90864 0.0
H3751 H 0.15073 0.92227 0.92076 0.0
H3752 H 0.13921 0.90126 0.97445 0.0
H3753 H 0.14585 0.90479 0.95962 0.0
H3754 H 0.16535 0.89298 0.98423 0.0
H3755 H 0.17199 0.89643 0.96941 0.0
H3756 H 0.19446 0.88902 0.92576 0.0
H3757 H 0.19005 0.90448 0.90147 0.0
H3758 H 0.17778 0.91271 0.90889 0.0
H3759 H 0.18201 0.89731 0.93324 0.0
C3760 C 0.32619 0.89639 0.18194 0.0
C3761 C 0.32221 0.90282 0.17625 0.0
C3762 C 0.31226 0.89128 0.16958 0.0
C3763 C 0.31553 0.90028 0.17006 0.0
C3764 C 0.31723 0.88477 0.17456 0.0
C3765 C 0.32385 0.88732 0.18082 0.0
U3766 U 0.34564 0.9114 0.18957 0.0
O3767 O 0.34852 0.91784 0.20269 0.0
O3768 O 0.3582 0.90826 0.19686 0.0
C3769 C 0.35606 0.91331 0.20385 0.0
C3770 C 0.33299 0.89899 0.18878 0.0
C3771 C 0.35745 0.90925 0.21286 0.0
C3772 C 0.3568 0.89652 0.22326 0.0
C3773 C 0.35497 0.90029 0.21476 0.0
C3774 C 0.36345 0.91066 0.22811 0.0
C3775 C 0.36113 0.90167 0.22997 0.0
C3776 C 0.36164 0.91441 0.21963 0.0
C3777 C 0.35311 0.92938 0.17166 0.0
C3778 C 0.35794 0.94513 0.17152 0.0
C3779 C 0.36115 0.93548 0.15871 0.0
C3780 C 0.357 0.92825 0.16309 0.0
C3781 C 0.36148 0.94401 0.16279 0.0
C3782 C 0.35375 0.93786 0.17593 0.0
C3783 C 0.34765 0.92189 0.17539 0.0
O3784 O 0.34145 0.8974 0.18662 0.0
O3785 O 0.33181 0.90692 0.1926 0.0
O3786 O 0.34209 0.92373 0.18207 0.0
O3787 O 0.3517 0.91404 0.17625 0.0
H3788 H 0.3243 0.90983 0.17656 0.0
H3789 H 0.3131 0.90548 0.16556 0.0
H3790 H 0.31634 0.87762 0.17363 0.0
H3791 H 0.32724 0.88214 0.18474 0.0
H3792 H 0.35494 0.88958 0.22459 0.0
H3793 H 0.35171 0.89619 0.20966 0.0
H3794 H 0.36677 0.91474 0.2332 0.0
H3795 H 0.36361 0.92133 0.2183 0.0
H3796 H 0.35815 0.95167 0.17478 0.0
H3797 H 0.36385 0.9345 0.15198 0.0
H3798 H 0.35653 0.92182 0.15963 0.0
H3799 H 0.35078 0.93894 0.18253 0.0
C3800 C 0.18048 0.11089 0.6813 0.0
C3801 C 0.17847 0.10863 0.6723 0.0
C3802 C 0.19237 0.11577 0.66725 0.0
C3803 C 0.18436 0.11109 0.66533 0.0
C3804 C 0.19444 0.11795 0.67625 0.0
C3805 C 0.18851 0.11553 0.68323 0.0
U3806 U 0.1616 0.09601 0.69007 0.0
O3807 O 0.1592 0.08978 0.7034 0.0
O3808 O 0.14926 0.09917 0.6977 0.0
C3809 C 0.15174 0.09441 0.70478 0.0
C3810 C 0.17426 0.10835 0.68868 0.0
C3811 C 0.1506 0.09871 0.71381 0.0
C3812 C 0.1524 0.09807 0.7302 0.0
C3813 C 0.15411 0.09451 0.72159 0.0
C3814 C 0.14362 0.1101 0.72347 0.0
C3815 C 0.1471 0.10587 0.7312 0.0
C3816 C 0.14533 0.10656 0.71487 0.0
C3817 C 0.15344 0.07806 0.6723 0.0
C3818 C 0.14906 0.06219 0.67179 0.0
C3819 C 0.1451 0.07216 0.65944 0.0
C3820 C 0.14919 0.07937 0.66393 0.0
C3821 C 0.14519 0.06348 0.66322 0.0
C3822 C 0.1532 0.06944 0.6763 0.0
C3823 C 0.159 0.08551 0.67599 0.0
O3824 O 0.16567 0.10998 0.68714 0.0
O3825 O 0.17567 0.10037 0.69228 0.0
O3826 O 0.16474 0.08361 0.6825 0.0
O3827 O 0.15502 0.09338 0.67699 0.0
H3828 H 0.17234 0.10498 0.67067 0.0
H3829 H 0.18268 0.10933 0.65843 0.0
H3830 H 0.2006 0.12154 0.67785 0.0
H3831 H 0.1902 0.1173 0.69013 0.0
H3832 H 0.15513 0.0947 0.73609 0.0
H3833 H 0.15805 0.08838 0.72105 0.0
H3834 H 0.1395 0.11611 0.72411 0.0
H3835 H 0.14239 0.1099 0.70907 0.0
H3836 H 0.14917 0.05553 0.67481 0.0
H3837 H 0.14214 0.07328 0.65284 0.0
H3838 H 0.14936 0.08592 0.66066 0.0
H3839 H 0.15646 0.06821 0.68273 0.0
H3840 H 0.12824 0.2049 0.38632 0.0
H3841 H 0.11504 0.22851 0.37562 0.0
H3842 H 0.14405 0.22601 0.37429 0.0
C3843 C 0.12863 0.21145 0.38305 0.0
C3844 C 0.13705 0.21491 0.38057 0.0
C3845 C 0.12068 0.21629 0.38126 0.0
C3846 C 0.12119 0.2248 0.37702 0.0
C3847 C 0.12967 0.22836 0.37453 0.0
C3848 C 0.13753 0.22333 0.37625 0.0
N3849 N 0.13065 0.23686 0.37016 0.0
C3850 C 0.12392 0.24333 0.36902 0.0
H3851 H 0.05224 0.87828 0.63647 0.0
H3852 H 0.02836 0.86531 0.6261 0.0
H3853 H 0.03116 0.89428 0.62463 0.0
C3854 C 0.04568 0.87873 0.63323 0.0
C3855 C 0.04228 0.88718 0.63077 0.0
C3856 C 0.04072 0.87084 0.63155 0.0
C3857 C 0.03218 0.87142 0.62738 0.0
C3858 C 0.0287 0.87993 0.62486 0.0
C3859 C 0.03381 0.88774 0.62656 0.0
N3860 N 0.02016 0.88101 0.62058 0.0
C3861 C 0.01386 0.87422 0.61893 0.0
H3862 H 0.37942 0.80206 0.88636 0.0
H3863 H 0.39268 0.77833 0.87601 0.0
H3864 H 0.36365 0.78059 0.87493 0.0
C3865 C 0.37905 0.79545 0.88322 0.0
C3866 C 0.37062 0.79187 0.88092 0.0
C3867 C 0.38701 0.79064 0.88143 0.0
C3868 C 0.38653 0.78203 0.87739 0.0
C3869 C 0.37805 0.77836 0.87505 0.0
C3870 C 0.37017 0.78337 0.87677 0.0
N3871 N 0.37708 0.76977 0.87085 0.0
C3872 C 0.38383 0.76331 0.86974 0.0
H3873 H 0.45295 0.12847 0.13212 0.0
H3874 H 0.47833 0.14138 0.12719 0.0
H3875 H 0.47585 0.11303 0.12292 0.0
C3876 C 0.45976 0.12796 0.12951 0.0
C3877 C 0.46304 0.11965 0.12612 0.0
C3878 C 0.46515 0.13575 0.1298 0.0
C3879 C 0.47419 0.13535 0.12701 0.0
C3880 C 0.47791 0.12702 0.12439 0.0
C3881 C 0.47243 0.11927 0.12428 0.0
N3882 N 0.48715 0.12599 0.12196 0.0
C3883 C 0.49343 0.13288 0.12073 0.0
H3884 H 0.12789 0.80173 0.12022 0.0
H3885 H 0.1147 0.7782 0.1311 0.0
H3886 H 0.14369 0.78076 0.13251 0.0
C3887 C 0.12828 0.79522 0.12355 0.0
C3888 C 0.1367 0.79179 0.12608 0.0
C3889 C 0.12033 0.79039 0.12537 0.0
C3890 C 0.12084 0.78191 0.12967 0.0
C3891 C 0.12932 0.77839 0.13223 0.0
C3892 C 0.13718 0.78342 0.13049 0.0
N3893 N 0.1303 0.76995 0.13671 0.0
C3894 C 0.12366 0.76335 0.13766 0.0
H3895 H 0.45428 0.87823 0.37082 0.0
H3896 H 0.47785 0.86515 0.38172 0.0
H3897 H 0.47511 0.89412 0.38323 0.0
C3898 C 0.46077 0.87865 0.37418 0.0
C3899 C 0.46415 0.88708 0.37675 0.0
C3900 C 0.46565 0.87073 0.37599 0.0
C3901 C 0.47411 0.87127 0.38033 0.0
C3902 C 0.47756 0.87976 0.38294 0.0
C3903 C 0.4725 0.88759 0.38119 0.0
N3904 N 0.48599 0.88078 0.38744 0.0
C3905 C 0.4925 0.87409 0.38865 0.0
H3906 H 0.37905 0.20484 0.62017 0.0
H3907 H 0.39218 0.22846 0.6309 0.0
H3908 H 0.36315 0.22608 0.63184 0.0
C3909 C 0.37865 0.2114 0.6234 0.0
C3910 C 0.3702 0.21491 0.62574 0.0
C3911 C 0.38658 0.21623 0.62527 0.0
C3912 C 0.38605 0.22476 0.62945 0.0
C3913 C 0.37754 0.22837 0.6318 0.0
C3914 C 0.36969 0.22336 0.62999 0.0
N3915 N 0.37653 0.2369 0.6361 0.0
C3916 C 0.38329 0.24334 0.63731 0.0
H3917 H 0.0534 0.12751 0.87468 0.0
H3918 H 0.0283 0.14076 0.88004 0.0
H3919 H 0.03035 0.11234 0.88396 0.0
C3920 C 0.04661 0.12707 0.87735 0.0
C3921 C 0.04323 0.11878 0.88069 0.0
C3922 C 0.04135 0.13495 0.87722 0.0
C3923 C 0.03234 0.13467 0.88013 0.0
C3924 C 0.02852 0.12637 0.88269 0.0
C3925 C 0.03386 0.11853 0.88262 0.0
N3926 N 0.01928 0.12547 0.88517 0.0
C3927 C 0.01326 0.13247 0.887 0.0
H3928 H 0.38651 0.12834 0.20519 0.0
H3929 H 0.37661 0.11455 0.22878 0.0
H3930 H 0.37638 0.14367 0.22762 0.0
C3931 C 0.38359 0.12857 0.21191 0.0
C3932 C 0.38163 0.13693 0.21584 0.0
C3933 C 0.38184 0.1205 0.21654 0.0
C3934 C 0.378 0.1208 0.22524 0.0
C3935 C 0.37606 0.1292 0.22931 0.0
C3936 C 0.37789 0.13721 0.22454 0.0
N3937 N 0.37233 0.12996 0.23814 0.0
C3938 C 0.36974 0.12278 0.24365 0.0
H3939 H 0.12937 0.13589 0.45435 0.0
H3940 H 0.14236 0.12562 0.47826 0.0
H3941 H 0.11336 0.12448 0.47565 0.0
C3942 C 0.12892 0.13274 0.46095 0.0
C3943 C 0.12045 0.13044 0.46444 0.0
C3944 C 0.13682 0.13102 0.46589 0.0
C3945 C 0.13624 0.12697 0.47448 0.0
C3946 C 0.12772 0.1246 0.47804 0.0
C3947 C 0.1199 0.12631 0.47295 0.0
N3948 N 0.12666 0.12039 0.48661 0.0
C3949 C 0.13333 0.11933 0.49315 0.0
H3950 H 0.1208 0.87927 0.7047 0.0
H3951 H 0.13084 0.892 0.72885 0.0
H3952 H 0.13218 0.86304 0.72586 0.0
C3953 C 0.12392 0.87876 0.71131 0.0
C3954 C 0.12624 0.87025 0.71471 0.0
C3955 C 0.12556 0.8866 0.71637 0.0
C3956 C 0.12956 0.88593 0.72498 0.0
C3957 C 0.13197 0.87738 0.72844 0.0
C3958 C 0.13032 0.86962 0.72323 0.0
N3959 N 0.13616 0.87623 0.73701 0.0
C3960 C 0.13716 0.88282 0.74365 0.0
H3961 H 0.37857 0.86988 0.95519 0.0
H3962 H 0.36527 0.88028 0.97887 0.0
H3963 H 0.39419 0.88255 0.97607 0.0
C3964 C 0.37891 0.87322 0.9617 0.0
C3965 C 0.38729 0.87597 0.96507 0.0
C3966 C 0.37096 0.87481 0.9666 0.0
C3967 C 0.37142 0.87908 0.97509 0.0
C3968 C 0.37985 0.88188 0.97855 0.0
C3969 C 0.38771 0.88037 0.97345 0.0
N3970 N 0.38078 0.88634 0.98701 0.0
C3971 C 0.3741 0.88726 0.99358 0.0
H3972 H 0.38598 0.87907 0.30203 0.0
H3973 H 0.37591 0.89209 0.27805 0.0
H3974 H 0.375 0.86307 0.28048 0.0
C3975 C 0.38292 0.87863 0.29538 0.0
C3976 C 0.38072 0.87016 0.29183 0.0
C3977 C 0.38121 0.88654 0.29046 0.0
C3978 C 0.37725 0.88597 0.28183 0.0
C3979 C 0.37501 0.87745 0.27818 0.0
C3980 C 0.37674 0.86962 0.28325 0.0
N3981 N 0.37095 0.87639 0.26954 0.0
C3982 C 0.36947 0.88319 0.2632 0.0
H3983 H 0.37848 0.13688 0.55158 0.0
H3984 H 0.36532 0.12599 0.52804 0.0
H3985 H 0.39423 0.12386 0.53102 0.0
C3986 C 0.37886 0.13342 0.54513 0.0
C3987 C 0.38726 0.13063 0.54185 0.0
C3988 C 0.37094 0.13171 0.54022 0.0
C3989 C 0.37145 0.12728 0.53182 0.0
C3990 C 0.3799 0.12444 0.52845 0.0
C3991 C 0.38773 0.12607 0.53356 0.0
N3992 N 0.38088 0.11982 0.52009 0.0
C3993 C 0.37427 0.1189 0.51346 0.0
H3994 H 0.12 0.12783 0.80259 0.0
H3995 H 0.13106 0.11485 0.77903 0.0
H3996 H 0.13184 0.14387 0.78156 0.0
C3997 C 0.12329 0.12828 0.79606 0.0
C3998 C 0.12566 0.13675 0.79263 0.0
C3999 C 0.12524 0.12037 0.79121 0.0
C4000 C 0.12954 0.12097 0.78274 0.0
C4001 C 0.13189 0.1295 0.7792 0.0
C4002 C 0.12998 0.13731 0.78423 0.0
N4003 N 0.13625 0.1306 0.77071 0.0
C4004 C 0.13816 0.1238 0.76449 0.0
H4005 H 0.12895 0.87064 0.05188 0.0
H4006 H 0.14218 0.88152 0.02837 0.0
H4007 H 0.11318 0.88288 0.03086 0.0
C4008 C 0.12857 0.87397 0.04536 0.0
C4009 C 0.12015 0.87649 0.04191 0.0
C4010 C 0.13652 0.87579 0.04054 0.0
C4011 C 0.13603 0.88009 0.03206 0.0
C4012 C 0.12755 0.88263 0.02852 0.0
C4013 C 0.11969 0.88088 0.03353 0.0
N4014 N 0.12658 0.88708 0.02006 0.0
C4015 C 0.13327 0.88811 0.01352 0.0
H4016 H 0.20581 0.38648 0.12812 0.0
H4017 H 0.22943 0.37596 0.1148 0.0
H4018 H 0.22703 0.37448 0.1438 0.0
C4019 C 0.21236 0.38322 0.12847 0.0
C4020 C 0.21587 0.38072 0.13687 0.0
C4021 C 0.21718 0.38147 0.1205 0.0
C4022 C 0.22571 0.37727 0.12095 0.0
C4023 C 0.22931 0.37474 0.12941 0.0
C4024 C 0.22431 0.37644 0.1373 0.0
N4025 N 0.23785 0.37043 0.13037 0.0
C4026 C 0.24412 0.36886 0.12353 0.0
H4027 H 0.70442 0.11984 0.87826 0.0
H4028 H 0.72806 0.13049 0.89145 0.0
H4029 H 0.72529 0.13234 0.8625 0.0
C4030 C 0.71092 0.12319 0.87788 0.0
C4031 C 0.7143 0.12585 0.86947 0.0
C4032 C 0.71581 0.1249 0.88581 0.0
C4033 C 0.72428 0.12921 0.88531 0.0
C4034 C 0.72775 0.1319 0.87685 0.0
C4035 C 0.72267 0.13025 0.869 0.0
N4036 N 0.7362 0.13635 0.87586 0.0
C4037 C 0.74258 0.13777 0.88263 0.0
H4038 H 0.13663 0.45439 0.12878 0.0
H4039 H 0.12576 0.47798 0.14186 0.0
H4040 H 0.12479 0.47551 0.11284 0.0
C4041 C 0.13335 0.46093 0.12836 0.0
C4042 C 0.13097 0.4644 0.1199 0.0
C4043 C 0.13147 0.46577 0.13628 0.0
C4044 C 0.12722 0.47427 0.13573 0.0
C4045 C 0.12482 0.47783 0.12722 0.0
C4046 C 0.12667 0.47282 0.11938 0.0
N4047 N 0.12048 0.48634 0.12618 0.0
C4048 C 0.11879 0.49261 0.133 0.0
H4049 H 0.80238 0.88598 0.37855 0.0
H4050 H 0.77825 0.87627 0.39154 0.0
H4051 H 0.78082 0.87504 0.36254 0.0
C4052 C 0.79572 0.88296 0.3781 0.0
C4053 C 0.79218 0.88072 0.36963 0.0
C4054 C 0.79074 0.88138 0.386 0.0
C4055 C 0.78207 0.87749 0.38542 0.0
C4056 C 0.77846 0.87518 0.37691 0.0
C4057 C 0.78357 0.87681 0.36909 0.0
N4058 N 0.76977 0.87121 0.37585 0.0
C4059 C 0.76351 0.86962 0.38269 0.0
H4060 H 0.86972 0.0517 0.12821 0.0
H4061 H 0.87954 0.02759 0.14118 0.0
H4062 H 0.88065 0.03016 0.11218 0.0
C4063 C 0.87276 0.04505 0.12776 0.0
C4064 C 0.87499 0.04152 0.11929 0.0
C4065 C 0.87438 0.04008 0.13565 0.0
C4066 C 0.87831 0.03142 0.13507 0.0
C4067 C 0.88058 0.02781 0.12655 0.0
C4068 C 0.87891 0.03292 0.11873 0.0
N4069 N 0.88453 0.01912 0.12545 0.0
C4070 C 0.88655 0.01298 0.13229 0.0
H4071 H 0.30244 0.61983 0.62846 0.0
H4072 H 0.27885 0.63086 0.6155 0.0
H4073 H 0.28201 0.63284 0.64439 0.0
C4074 C 0.296 0.62331 0.6289 0.0
C4075 C 0.29277 0.62606 0.63733 0.0
C4076 C 0.29106 0.62508 0.62101 0.0
C4077 C 0.28266 0.62951 0.62159 0.0
C4078 C 0.27936 0.63233 0.63008 0.0
C4079 C 0.2845 0.63065 0.63787 0.0
N4080 N 0.27102 0.63699 0.63112 0.0
C4081 C 0.26428 0.63782 0.62461 0.0
H4082 H 0.1358 0.55278 0.3777 0.0
H4083 H 0.12527 0.52888 0.36489 0.0
H4084 H 0.12427 0.53167 0.39388 0.0
C4085 C 0.13261 0.5462 0.3782 0.0
C4086 C 0.1303 0.54279 0.38669 0.0
C4087 C 0.13081 0.54124 0.37033 0.0
C4088 C 0.12669 0.53268 0.37098 0.0
C4089 C 0.12433 0.52919 0.37953 0.0
C4090 C 0.12611 0.53432 0.38731 0.0
N4091 N 0.12004 0.52067 0.38065 0.0
C4092 C 0.11904 0.51404 0.37405 0.0
H4093 H 0.3705 0.45587 0.87849 0.0
H4094 H 0.38041 0.47979 0.86524 0.0
H4095 H 0.38189 0.47739 0.89424 0.0
C4096 C 0.37362 0.46249 0.87886 0.0
C4097 C 0.37599 0.46606 0.88728 0.0
C4098 C 0.37521 0.46739 0.87091 0.0
C4099 C 0.3792 0.47601 0.87139 0.0
C4100 C 0.38164 0.47966 0.87986 0.0
C4101 C 0.38003 0.47461 0.88773 0.0
N4102 N 0.38574 0.48829 0.88083 0.0
C4103 C 0.38715 0.4946 0.87399 0.0
H4104 H 0.87789 0.80223 0.61941 0.0
H4105 H 0.8908 0.77838 0.62991 0.0
H4106 H 0.86182 0.78115 0.63116 0.0
C4107 C 0.87742 0.79568 0.62265 0.0
C4108 C 0.86895 0.79227 0.62506 0.0
C4109 C 0.8853 0.79072 0.62441 0.0
C4110 C 0.8847 0.7822 0.62858 0.0
C4111 C 0.87618 0.77871 0.63104 0.0
C4112 C 0.86837 0.78381 0.62927 0.0
N4113 N 0.87508 0.77018 0.63532 0.0
C4114 C 0.88188 0.7639 0.63703 0.0
H4115 H 0.95453 0.12937 0.37032 0.0
H4116 H 0.97874 0.14202 0.38033 0.0
H4117 H 0.97647 0.11298 0.37982 0.0
C4118 C 0.96126 0.12882 0.37316 0.0
C4119 C 0.9649 0.12028 0.37489 0.0
C4120 C 0.96622 0.13667 0.37507 0.0
C4121 C 0.97495 0.13596 0.3788 0.0
C4122 C 0.97871 0.12736 0.38045 0.0
C4123 C 0.97362 0.1196 0.37851 0.0
N4124 N 0.98755 0.12609 0.384 0.0
C4125 C 0.99376 0.13278 0.38629 0.0
H4126 H 0.62883 0.20542 0.11864 0.0
H4127 H 0.61594 0.22924 0.12923 0.0
H4128 H 0.64489 0.22628 0.13079 0.0
C4129 C 0.62929 0.21194 0.12195 0.0
C4130 C 0.63776 0.21527 0.12449 0.0
C4131 C 0.62142 0.21691 0.12368 0.0
C4132 C 0.62203 0.22541 0.12793 0.0
C4133 C 0.63054 0.22883 0.1305 0.0
C4134 C 0.63834 0.22369 0.1288 0.0
N4135 N 0.63164 0.23732 0.13486 0.0
C4136 C 0.62488 0.24366 0.13649 0.0
H4137 H 0.55063 0.87966 0.86889 0.0
H4138 H 0.52704 0.86608 0.87907 0.0
H4139 H 0.52874 0.89517 0.8799 0.0
C4140 C 0.544 0.87994 0.872 0.0
C4141 C 0.54026 0.88833 0.87422 0.0
C4142 C 0.53928 0.87193 0.87375 0.0
C4143 C 0.53067 0.8723 0.87777 0.0
C4144 C 0.5268 0.88072 0.87998 0.0
C4145 C 0.53167 0.88868 0.8782 0.0
N4146 N 0.51807 0.88155 0.88392 0.0
C4147 C 0.51248 0.8744 0.88642 0.0
H4148 H 0.87827 0.20527 0.88775 0.0
H4149 H 0.89097 0.22937 0.87758 0.0
H4150 H 0.86211 0.22596 0.87546 0.0
C4151 C 0.87776 0.2118 0.88448 0.0
C4152 C 0.86928 0.21503 0.88184 0.0
C4153 C 0.88558 0.21691 0.88293 0.0
C4154 C 0.88492 0.22544 0.87876 0.0
C4155 C 0.8764 0.22873 0.87604 0.0
C4156 C 0.86866 0.22346 0.87756 0.0
N4157 N 0.87526 0.2372 0.87164 0.0
C4158 C 0.88173 0.24398 0.87082 0.0
H4159 H 0.55212 0.12881 0.63719 0.0
H4160 H 0.52841 0.14171 0.62635 0.0
H4161 H 0.53092 0.11269 0.62575 0.0
C4162 C 0.54555 0.12834 0.63399 0.0
C4163 C 0.54209 0.11985 0.63172 0.0
C4164 C 0.54068 0.13623 0.63205 0.0
C4165 C 0.53215 0.13561 0.62786 0.0
C4166 C 0.52857 0.12706 0.62563 0.0
C4167 C 0.53362 0.11926 0.62752 0.0
N4168 N 0.52001 0.12593 0.62143 0.0
C4169 C 0.5138 0.13272 0.61948 0.0
H4170 H 0.62849 0.80268 0.38739 0.0
H4171 H 0.6158 0.77858 0.3772 0.0
H4172 H 0.64475 0.78161 0.37589 0.0
C4173 C 0.62902 0.7961 0.38422 0.0
C4174 C 0.63752 0.79274 0.38184 0.0
C4175 C 0.62118 0.79104 0.38255 0.0
C4176 C 0.62186 0.78248 0.37846 0.0
C4177 C 0.63041 0.77904 0.37604 0.0
C4178 C 0.63817 0.78423 0.37774 0.0
N4179 N 0.6316 0.77045 0.3719 0.0
C4180 C 0.62486 0.76416 0.37005 0.0
H4181 H 0.95527 0.8775 0.13666 0.0
H4182 H 0.97926 0.86471 0.12632 0.0
H4183 H 0.97625 0.89365 0.12485 0.0
C4184 C 0.96184 0.87799 0.13345 0.0
C4185 C 0.96518 0.88648 0.131 0.0
C4186 C 0.96686 0.87014 0.13178 0.0
C4187 C 0.97541 0.87078 0.12764 0.0
C4188 C 0.97883 0.87932 0.12514 0.0
C4189 C 0.97365 0.88709 0.1268 0.0
N4190 N 0.98735 0.88045 0.12083 0.0
C4191 C 0.99397 0.87385 0.11977 0.0
H4192 H 0.61939 0.87894 0.80225 0.0
H4193 H 0.6296 0.89182 0.77826 0.0
H4194 H 0.63096 0.86285 0.78109 0.0
C4195 C 0.62256 0.87847 0.79566 0.0
C4196 C 0.62495 0.86999 0.79225 0.0
C4197 C 0.62424 0.88634 0.79068 0.0
C4198 C 0.62832 0.88573 0.7821 0.0
C4199 C 0.63076 0.8772 0.7786 0.0
C4200 C 0.62908 0.86941 0.78375 0.0
N4201 N 0.63497 0.87609 0.77004 0.0
C4202 C 0.63624 0.88277 0.76355 0.0
H4203 H 0.87795 0.87004 0.55154 0.0
H4204 H 0.8652 0.88043 0.52755 0.0
H4205 H 0.89421 0.88103 0.53021 0.0
C4206 C 0.87846 0.87314 0.54492 0.0
C4207 C 0.88698 0.8753 0.54145 0.0
C4208 C 0.8706 0.87496 0.53995 0.0
C4209 C 0.87128 0.879 0.53136 0.0
C4210 C 0.87985 0.88118 0.5278 0.0
C4211 C 0.88762 0.87933 0.53291 0.0
N4212 N 0.88101 0.88529 0.51919 0.0
C4213 C 0.87422 0.88707 0.51292 0.0
H4214 H 0.88645 0.12826 0.30216 0.0
H4215 H 0.87619 0.11538 0.27819 0.0
H4216 H 0.8751 0.14437 0.28089 0.0
C4217 C 0.88332 0.12874 0.29555 0.0
C4218 C 0.88101 0.13722 0.2921 0.0
C4219 C 0.88161 0.12085 0.29058 0.0
C4220 C 0.87755 0.12148 0.28199 0.0
C4221 C 0.87522 0.13001 0.27845 0.0
C4222 C 0.87693 0.13781 0.28358 0.0
N4223 N 0.87105 0.13111 0.26986 0.0
C4224 C 0.8699 0.12441 0.26335 0.0
H4225 H 0.62807 0.1369 0.05163 0.0
H4226 H 0.6414 0.12687 0.02784 0.0
H4227 H 0.61231 0.12639 0.02966 0.0
C4228 C 0.62771 0.13389 0.04497 0.0
C4229 C 0.61928 0.13183 0.04124 0.0
C4230 C 0.63568 0.13212 0.04017 0.0
C4231 C 0.63522 0.12821 0.03152 0.0
C4232 C 0.62674 0.12614 0.02767 0.0
C4233 C 0.61883 0.12798 0.03259 0.0
N4234 N 0.62583 0.1223 0.0189 0.0
C4235 C 0.63291 0.11975 0.01326 0.0
H4236 H 0.62056 0.12839 0.70459 0.0
H4237 H 0.63086 0.11547 0.72852 0.0
H4238 H 0.63164 0.14449 0.72601 0.0
C4239 C 0.62366 0.12886 0.71121 0.0
C4240 C 0.62586 0.13735 0.71473 0.0
C4241 C 0.62544 0.12097 0.71614 0.0
C4242 C 0.62947 0.12158 0.72474 0.0
C4243 C 0.63169 0.13012 0.72835 0.0
C4244 C 0.6299 0.13793 0.72327 0.0
N4245 N 0.6358 0.13121 0.73697 0.0
C4246 C 0.6374 0.1244 0.74325 0.0
H4247 H 0.62857 0.86956 0.45617 0.0
H4248 H 0.64199 0.87983 0.47982 0.0
H4249 H 0.61288 0.87967 0.47836 0.0
C4250 C 0.62824 0.87251 0.46286 0.0
C4251 C 0.61982 0.87441 0.46669 0.0
C4252 C 0.63624 0.87444 0.46756 0.0
C4253 C 0.6358 0.87833 0.47623 0.0
C4254 C 0.62733 0.88017 0.4802 0.0
C4255 C 0.6194 0.87822 0.47536 0.0
N4256 N 0.62643 0.88393 0.489 0.0
C4257 C 0.63352 0.8865 0.49464 0.0
H4258 H 0.8871 0.87839 0.20536 0.0
H4259 H 0.87701 0.89193 0.22902 0.0
H4260 H 0.87704 0.86281 0.22765 0.0
C4261 C 0.88416 0.87809 0.21207 0.0
C4262 C 0.88226 0.86968 0.21594 0.0
C4263 C 0.88232 0.88611 0.21675 0.0
C4264 C 0.87846 0.88572 0.22544 0.0
C4265 C 0.87659 0.87727 0.22944 0.0
C4266 C 0.8785 0.86931 0.22462 0.0
N4267 N 0.87284 0.87641 0.23825 0.0
C4268 C 0.87028 0.88353 0.24385 0.0
H4269 H 0.87853 0.13756 0.95566 0.0
H4270 H 0.86511 0.12769 0.97947 0.0
H4271 H 0.89421 0.12719 0.97774 0.0
C4272 C 0.87886 0.13459 0.96235 0.0
C4273 C 0.88728 0.13255 0.96612 0.0
C4274 C 0.87088 0.13285 0.96712 0.0
C4275 C 0.8713 0.12899 0.9758 0.0
C4276 C 0.87977 0.12695 0.97969 0.0
C4277 C 0.8877 0.12875 0.97479 0.0
N4278 N 0.88065 0.12317 0.98849 0.0
C4279 C 0.87355 0.12062 0.99411 0.0
H4280 H 0.80234 0.61979 0.87965 0.0
H4281 H 0.77823 0.63007 0.89226 0.0
H4282 H 0.78087 0.63029 0.86324 0.0
C4283 C 0.79568 0.62281 0.87909 0.0
C4284 C 0.79219 0.62481 0.87055 0.0
C4285 C 0.79069 0.62467 0.88693 0.0
C4286 C 0.78205 0.62861 0.8862 0.0
C4287 C 0.77846 0.63062 0.8776 0.0
C4288 C 0.78359 0.62872 0.86985 0.0
N4289 N 0.76979 0.63457 0.87637 0.0
C4290 C 0.7636 0.63668 0.88313 0.0
H4291 H 0.30188 0.88709 0.12988 0.0
H4292 H 0.27884 0.87665 0.11544 0.0
H4293 H 0.27902 0.87695 0.14454 0.0
C4294 C 0.29522 0.88405 0.12991 0.0
C4295 C 0.29098 0.88221 0.13816 0.0
C4296 C 0.29085 0.88212 0.1217 0.0
C4297 C 0.28218 0.87817 0.12177 0.0
C4298 C 0.27789 0.87629 0.13006 0.0
C4299 C 0.28234 0.87835 0.13816 0.0
N4300 N 0.26913 0.87239 0.13068 0.0
C4301 C 0.26341 0.87012 0.12357 0.0
H4302 H 0.86921 0.55104 0.87898 0.0
H4303 H 0.87955 0.5272 0.86592 0.0
H4304 H 0.8814 0.53006 0.89485 0.0
C4305 C 0.87249 0.5445 0.87939 0.0
C4306 C 0.87507 0.54112 0.88782 0.0
C4307 C 0.87414 0.53955 0.87148 0.0
C4308 C 0.87831 0.53102 0.87203 0.0
C4309 C 0.88095 0.52756 0.88051 0.0
C4310 C 0.87936 0.53269 0.88833 0.0
N4311 N 0.88529 0.51905 0.88154 0.0
C4312 C 0.88636 0.51251 0.87485 0.0
H4313 H 0.20516 0.11931 0.6277 0.0
H4314 H 0.2286 0.13071 0.6148 0.0
H4315 H 0.22602 0.13139 0.64382 0.0
C4316 C 0.21165 0.12268 0.62818 0.0
C4317 C 0.21504 0.12506 0.63666 0.0
C4318 C 0.21648 0.12472 0.62028 0.0
C4319 C 0.2249 0.12911 0.6209 0.0
C4320 C 0.2284 0.13149 0.62945 0.0
C4321 C 0.22338 0.1295 0.63725 0.0
N4322 N 0.23682 0.13598 0.63056 0.0
C4323 C 0.24311 0.13776 0.62379 0.0
H4324 H 0.13694 0.95528 0.87813 0.0
H4325 H 0.1263 0.97901 0.86509 0.0
H4326 H 0.12556 0.97662 0.89413 0.0
C4327 C 0.13376 0.96187 0.87857 0.0
C4328 C 0.1315 0.9654 0.88703 0.0
C4329 C 0.13188 0.96673 0.87065 0.0
C4330 C 0.12775 0.97528 0.87122 0.0
C4331 C 0.12549 0.9789 0.87974 0.0
C4332 C 0.12734 0.97388 0.88757 0.0
N4333 N 0.12129 0.98748 0.88081 0.0
C4334 C 0.11954 0.99372 0.87399 0.0
H4335 H 0.70469 0.38621 0.37866 0.0
H4336 H 0.7285 0.37554 0.39151 0.0
H4337 H 0.72561 0.37426 0.36254 0.0
C4338 C 0.71123 0.38295 0.37818 0.0
C4339 C 0.71459 0.38051 0.36969 0.0
C4340 C 0.71619 0.38117 0.38605 0.0
C4341 C 0.7247 0.37695 0.38542 0.0
C4342 C 0.72814 0.37447 0.37689 0.0
C4343 C 0.72301 0.37622 0.3691 0.0
N4344 N 0.73659 0.37003 0.37577 0.0
C4345 C 0.74331 0.36912 0.3823 0.0
H4346 H 0.86952 0.45448 0.62848 0.0
H4347 H 0.88042 0.47821 0.6413 0.0
H4348 H 0.88075 0.47573 0.61227 0.0
C4349 C 0.87272 0.46106 0.62798 0.0
C4350 C 0.87487 0.46455 0.61948 0.0
C4351 C 0.87472 0.46593 0.63586 0.0
C4352 C 0.87887 0.47447 0.63521 0.0
C4353 C 0.88104 0.47805 0.62664 0.0
C4354 C 0.87906 0.47301 0.61885 0.0
N4355 N 0.88527 0.4866 0.62549 0.0
C4356 C 0.88713 0.49286 0.63226 0.0
H4357 H 0.63679 0.55148 0.12801 0.0
H4358 H 0.62629 0.52749 0.14064 0.0
H4359 H 0.62458 0.53082 0.11175 0.0
C4360 C 0.63348 0.54497 0.12747 0.0
C4361 C 0.63093 0.54173 0.11898 0.0
C4362 C 0.63179 0.5399 0.13529 0.0
C4363 C 0.62757 0.5314 0.13459 0.0
C4364 C 0.62494 0.52809 0.12605 0.0
C4365 C 0.62661 0.53333 0.11832 0.0
N4366 N 0.62051 0.51965 0.12488 0.0
C4367 C 0.61955 0.51292 0.13138 0.0
H4368 H 0.62804 0.70492 0.8863 0.0
H4369 H 0.61492 0.72853 0.87551 0.0
H4370 H 0.64391 0.72592 0.87414 0.0
C4371 C 0.62845 0.71145 0.883 0.0
C4372 C 0.63688 0.71487 0.88049 0.0
C4373 C 0.62052 0.71631 0.88119 0.0
C4374 C 0.62105 0.7248 0.87693 0.0
C4375 C 0.62955 0.72832 0.8744 0.0
C4376 C 0.63739 0.72326 0.87613 0.0
N4377 N 0.63055 0.73679 0.86998 0.0
C4378 C 0.62386 0.74332 0.86896 0.0
H4379 H 0.55223 0.37739 0.13632 0.0
H4380 H 0.52824 0.36443 0.1262 0.0
H4381 H 0.53082 0.39344 0.12517 0.0
C4382 C 0.5456 0.37785 0.13324 0.0
C4383 C 0.5421 0.38632 0.13099 0.0
C4384 C 0.54065 0.36995 0.13153 0.0
C4385 C 0.53203 0.37054 0.12754 0.0
C4386 C 0.52844 0.37907 0.12525 0.0
C4387 C 0.53354 0.38689 0.12695 0.0
N4388 N 0.51983 0.38015 0.12111 0.0
C4389 C 0.51333 0.37344 0.11994 0.0
H4390 H 0.87777 0.30138 0.38651 0.0
H4391 H 0.89155 0.27788 0.37641 0.0
H4392 H 0.86247 0.27948 0.37523 0.0
C4393 C 0.87754 0.29476 0.38339 0.0
C4394 C 0.8692 0.291 0.38105 0.0
C4395 C 0.8856 0.29008 0.3817 0.0
C4396 C 0.88531 0.28147 0.37766 0.0
C4397 C 0.87692 0.27759 0.37534 0.0
C4398 C 0.86892 0.28242 0.37702 0.0
N4399 N 0.87616 0.26886 0.37136 0.0
C4400 C 0.88334 0.26323 0.36908 0.0
H4401 H 0.95503 0.62869 0.63671 0.0
H4402 H 0.97902 0.64164 0.6266 0.0
H4403 H 0.97628 0.61266 0.62521 0.0
C4404 C 0.96163 0.62823 0.63356 0.0
C4405 C 0.96507 0.61977 0.63118 0.0
C4406 C 0.96661 0.63612 0.63191 0.0
C4407 C 0.97519 0.63553 0.62785 0.0
C4408 C 0.97872 0.62702 0.62542 0.0
C4409 C 0.9736 0.61921 0.62708 0.0
N4410 N 0.98732 0.62595 0.62126 0.0
C4411 C 0.9936 0.63277 0.61964 0.0
H4412 H 0.62799 0.30232 0.62081 0.0
H4413 H 0.61495 0.27842 0.63102 0.0
H4414 H 0.64397 0.2809 0.63206 0.0
C4415 C 0.62843 0.29571 0.62392 0.0
C4416 C 0.63689 0.29218 0.6262 0.0
C4417 C 0.62051 0.29079 0.62563 0.0
C4418 C 0.62107 0.28219 0.62968 0.0
C4419 C 0.62959 0.27858 0.63199 0.0
C4420 C 0.63742 0.28364 0.63026 0.0
N4421 N 0.63064 0.26997 0.63612 0.0
C4422 C 0.62382 0.26367 0.63768 0.0
H4423 H 0.95448 0.37948 0.87105 0.0
H4424 H 0.97741 0.36487 0.88149 0.0
H4425 H 0.97711 0.39397 0.88195 0.0
C4426 C 0.96109 0.37947 0.8742 0.0
C4427 C 0.96528 0.38768 0.87629 0.0
C4428 C 0.96545 0.37124 0.87603 0.0
C4429 C 0.97407 0.37123 0.88007 0.0
C4430 C 0.97829 0.37948 0.88226 0.0
C4431 C 0.97385 0.38762 0.88033 0.0
N4432 N 0.98694 0.38001 0.88641 0.0
C4433 C 0.9928 0.37287 0.88814 0.0
H4434 H 0.87959 0.70521 0.12053 0.0
H4435 H 0.89283 0.72868 0.13149 0.0
H4436 H 0.86381 0.72625 0.13271 0.0
C4437 C 0.87922 0.71173 0.12386 0.0
C4438 C 0.87079 0.71519 0.12635 0.0
C4439 C 0.88717 0.71653 0.12572 0.0
C4440 C 0.88667 0.725 0.13004 0.0
C4441 C 0.87819 0.72856 0.13254 0.0
C4442 C 0.87033 0.72357 0.13074 0.0
N4443 N 0.87721 0.73702 0.13699 0.0
C4444 C 0.88402 0.74334 0.13851 0.0
H4445 H 0.55377 0.62754 0.37403 0.0
H4446 H 0.52857 0.64068 0.37918 0.0
H4447 H 0.53069 0.61225 0.383 0.0
C4448 C 0.54696 0.62707 0.37664 0.0
C4449 C 0.54358 0.61876 0.37993 0.0
C4450 C 0.54167 0.63493 0.37648 0.0
C4451 C 0.53263 0.6346 0.3793 0.0
C4452 C 0.52882 0.62628 0.38178 0.0
C4453 C 0.53419 0.61846 0.38175 0.0
N4454 N 0.51955 0.62534 0.38416 0.0
C4455 C 0.51351 0.63233 0.38594 0.0
H4456 H 0.88723 0.62827 0.70454 0.0
H4457 H 0.87707 0.61545 0.72858 0.0
H4458 H 0.87597 0.64443 0.72581 0.0
C4459 C 0.8841 0.62876 0.71115 0.0
C4460 C 0.88181 0.63725 0.71459 0.0
C4461 C 0.8824 0.6209 0.71614 0.0
C4462 C 0.87836 0.62153 0.72474 0.0
C4463 C 0.87603 0.63007 0.72826 0.0
C4464 C 0.87776 0.63786 0.72313 0.0
N4465 N 0.87193 0.63121 0.73688 0.0
C4466 C 0.87001 0.62441 0.74309 0.0
H4467 H 0.62828 0.63619 0.95404 0.0
H4468 H 0.64141 0.6252 0.97755 0.0
H4469 H 0.61241 0.62397 0.975 0.0
C4470 C 0.62787 0.63285 0.96055 0.0
C4471 C 0.61944 0.63036 0.96398 0.0
C4472 C 0.63581 0.63098 0.96538 0.0
C4473 C 0.63528 0.62667 0.97385 0.0
C4474 C 0.62679 0.62416 0.97737 0.0
C4475 C 0.61894 0.62595 0.97235 0.0
N4476 N 0.62578 0.61969 0.98582 0.0
C4477 C 0.63247 0.61865 0.99236 0.0
H4478 H 0.62036 0.37837 0.20491 0.0
H4479 H 0.63061 0.39133 0.22885 0.0
H4480 H 0.63283 0.36245 0.22569 0.0
C4481 C 0.62367 0.37793 0.21144 0.0
C4482 C 0.62636 0.3695 0.21473 0.0
C4483 C 0.62521 0.38581 0.21647 0.0
C4484 C 0.62943 0.38524 0.22498 0.0
C4485 C 0.6322 0.37676 0.22834 0.0
C4486 C 0.63069 0.36896 0.22314 0.0
N4487 N 0.63665 0.37571 0.23679 0.0
C4488 C 0.63747 0.38225 0.24351 0.0
H4489 H 0.87787 0.37034 0.45383 0.0
H4490 H 0.86473 0.38121 0.47739 0.0
H4491 H 0.89372 0.38254 0.47482 0.0
C4492 C 0.87827 0.37366 0.46035 0.0
C4493 C 0.8867 0.37617 0.46378 0.0
C4494 C 0.87034 0.37549 0.46519 0.0
C4495 C 0.87086 0.37979 0.47367 0.0
C4496 C 0.87935 0.38232 0.47719 0.0
C4497 C 0.8872 0.38055 0.47216 0.0
N4498 N 0.88035 0.38676 0.48565 0.0
C4499 C 0.87364 0.3879 0.49215 0.0
H4500 H 0.88624 0.37792 0.8017 0.0
H4501 H 0.87626 0.3908 0.77762 0.0
H4502 H 0.874 0.36193 0.78084 0.0
C4503 C 0.883 0.37746 0.79514 0.0
C4504 C 0.88034 0.36902 0.79185 0.0
C4505 C 0.88152 0.38532 0.79007 0.0
C4506 C 0.87738 0.38472 0.78152 0.0
C4507 C 0.87465 0.37624 0.77816 0.0
C4508 C 0.87611 0.36846 0.7834 0.0
N4509 N 0.87031 0.37517 0.76965 0.0
C4510 C 0.86947 0.38174 0.76297 0.0
H4511 H 0.87818 0.63579 0.05273 0.0
H4512 H 0.86513 0.62543 0.02889 0.0
H4513 H 0.89414 0.62429 0.03143 0.0
C4514 C 0.87861 0.63262 0.04614 0.0
C4515 C 0.88707 0.63029 0.04264 0.0
C4516 C 0.87069 0.63088 0.04122 0.0
C4517 C 0.87125 0.62679 0.03265 0.0
C4518 C 0.87976 0.62441 0.02907 0.0
C4519 C 0.8876 0.62614 0.03414 0.0
N4520 N 0.8808 0.62018 0.02051 0.0
C4521 C 0.87409 0.61908 0.01401 0.0
H4522 H 0.61984 0.62776 0.30222 0.0
H4523 H 0.6301 0.61493 0.27823 0.0
H4524 H 0.63137 0.64391 0.28108 0.0
C4525 C 0.62302 0.62825 0.29564 0.0
C4526 C 0.62539 0.63674 0.29224 0.0
C4527 C 0.62471 0.62039 0.29063 0.0
C4528 C 0.62882 0.62102 0.28208 0.0
C4529 C 0.63123 0.62956 0.27859 0.0
C4530 C 0.62951 0.63734 0.28373 0.0
N4531 N 0.63541 0.63069 0.27002 0.0
C4532 C 0.63732 0.62389 0.2638 0.0
H4533 H 0.62891 0.37079 0.55224 0.0
H4534 H 0.64201 0.381 0.52837 0.0
H4535 H 0.61299 0.38202 0.53076 0.0
C4536 C 0.62849 0.3739 0.54562 0.0
C4537 C 0.62004 0.37617 0.54207 0.0
C4538 C 0.63642 0.37562 0.54072 0.0
C4539 C 0.63588 0.37965 0.53212 0.0
C4540 C 0.62738 0.38196 0.52848 0.0
C4541 C 0.61953 0.38023 0.53353 0.0
N4542 N 0.62635 0.38608 0.51987 0.0
C4543 C 0.63318 0.38759 0.51357 0.0
H4544 H 0.70462 0.88597 0.63007 0.0
H4545 H 0.72759 0.87598 0.61523 0.0
H4546 H 0.72759 0.87549 0.64433 0.0
C4547 C 0.71128 0.88293 0.62999 0.0
C4548 C 0.71559 0.88093 0.63816 0.0
C4549 C 0.71559 0.88119 0.62172 0.0
C4550 C 0.72429 0.87732 0.62162 0.0
C4551 C 0.72863 0.87521 0.62983 0.0
C4552 C 0.72423 0.87704 0.63802 0.0
N4553 N 0.73737 0.87123 0.63027 0.0
C4554 C 0.74317 0.86959 0.62305 0.0
H4555 H 0.20483 0.61989 0.37818 0.0
H4556 H 0.22839 0.63079 0.39129 0.0
H4557 H 0.22559 0.63246 0.36233 0.0
C4558 C 0.2113 0.62329 0.37777 0.0
C4559 C 0.21465 0.62593 0.36935 0.0
C4560 C 0.21619 0.62507 0.38569 0.0
C4561 C 0.22463 0.62945 0.38516 0.0
C4562 C 0.22806 0.63212 0.37668 0.0
C4563 C 0.22299 0.63039 0.36885 0.0
N4564 N 0.23648 0.63663 0.37566 0.0
C4565 C 0.2428 0.63821 0.38245 0.0
H4566 H 0.63623 0.95491 0.62845 0.0
H4567 H 0.62619 0.97882 0.6416 0.0
H4568 H 0.62407 0.97598 0.61267 0.0
C4569 C 0.633 0.96147 0.62806 0.0
C4570 C 0.63037 0.96487 0.61965 0.0
C4571 C 0.63149 0.96644 0.63597 0.0
C4572 C 0.62734 0.97499 0.63547 0.0
C4573 C 0.62465 0.97847 0.62702 0.0
C4574 C 0.62615 0.97333 0.61918 0.0
N4575 N 0.62034 0.987 0.62604 0.0
C4576 C 0.6193 0.9935 0.63277 0.0
H4577 H 0.30271 0.38726 0.87892 0.0
H4578 H 0.27897 0.3766 0.89188 0.0
H4579 H 0.28179 0.37515 0.86292 0.0
C4580 C 0.29618 0.38397 0.87847 0.0
C4581 C 0.29281 0.38147 0.87002 0.0
C4582 C 0.29125 0.3822 0.88636 0.0
C4583 C 0.28275 0.37796 0.88578 0.0
C4584 C 0.27929 0.37542 0.87727 0.0
C4585 C 0.2844 0.37713 0.86946 0.0
N4586 N 0.27081 0.37102 0.87621 0.0
C4587 C 0.26428 0.36988 0.88288 0.0
H4588 H 0.37012 0.55183 0.62821 0.0
H4589 H 0.38114 0.52826 0.64121 0.0
H4590 H 0.38297 0.5313 0.61229 0.0
C4591 C 0.37357 0.54538 0.62778 0.0
C4592 C 0.37628 0.54212 0.61935 0.0
C4593 C 0.37536 0.54047 0.63567 0.0
C4594 C 0.37978 0.53205 0.6351 0.0
C4595 C 0.38253 0.52871 0.62662 0.0
C4596 C 0.38083 0.53383 0.61881 0.0
N4597 N 0.38715 0.52035 0.62558 0.0
C4598 C 0.3881 0.51368 0.63216 0.0
H4599 H 0.80438 0.12485 0.12864 0.0
H4600 H 0.77896 0.12982 0.11585 0.0
H4601 H 0.78144 0.13364 0.14426 0.0
C4602 C 0.79756 0.12742 0.12921 0.0
C4603 C 0.79427 0.13065 0.13757 0.0
C4604 C 0.79217 0.12723 0.12142 0.0
C4605 C 0.7831 0.12994 0.12188 0.0
C4606 C 0.77938 0.13239 0.13025 0.0
C4607 C 0.78487 0.13241 0.13799 0.0
N4608 N 0.77013 0.13476 0.13133 0.0
C4609 C 0.76379 0.13591 0.12447 0.0
H4610 H 0.63548 0.05257 0.87841 0.0
H4611 H 0.62526 0.02893 0.86493 0.0
H4612 H 0.62533 0.03035 0.89404 0.0
C4613 C 0.63251 0.04588 0.87873 0.0
C4614 C 0.6306 0.04204 0.88715 0.0
C4615 C 0.63064 0.04118 0.87072 0.0
C4616 C 0.62673 0.03252 0.87114 0.0
C4617 C 0.62485 0.02854 0.87959 0.0
C4618 C 0.6268 0.03336 0.88754 0.0
N4619 N 0.62106 0.01975 0.88046 0.0
C4620 C 0.61845 0.01417 0.87334 0.0
H4621 H 0.87109 0.95415 0.37762 0.0
H4622 H 0.88114 0.97812 0.36456 0.0
H4623 H 0.88158 0.97593 0.39361 0.0
C4624 C 0.87408 0.96083 0.37805 0.0
C4625 C 0.87611 0.96447 0.38652 0.0
C4626 C 0.87587 0.9657 0.37012 0.0
C4627 C 0.87976 0.97437 0.37069 0.0
C4628 C 0.88181 0.97811 0.37921 0.0
C4629 C 0.87999 0.97309 0.38706 0.0
N4630 N 0.88572 0.98682 0.38029 0.0
C4631 C 0.88771 0.99294 0.37343 0.0
H4632 H 0.37841 0.30289 0.12381 0.0
H4633 H 0.39143 0.27765 0.12909 0.0
H4634 H 0.36291 0.27977 0.13225 0.0
C4635 C 0.37789 0.29607 0.12638 0.0
C4636 C 0.36951 0.29269 0.12948 0.0
C4637 C 0.38575 0.29078 0.12632 0.0
C4638 C 0.38536 0.28172 0.12909 0.0
C4639 C 0.37698 0.27789 0.13136 0.0
C4640 C 0.36916 0.28328 0.13119 0.0
N4641 N 0.37597 0.26861 0.13363 0.0
C4642 C 0.38289 0.26256 0.13567 0.0
H4643 H 0.45518 0.62659 0.87028 0.0
H4644 H 0.47759 0.64157 0.8813 0.0
H4645 H 0.47728 0.61251 0.88269 0.0
C4646 C 0.46167 0.62672 0.87367 0.0
C4647 C 0.46575 0.61859 0.87622 0.0
C4648 C 0.4659 0.63502 0.87546 0.0
C4649 C 0.47437 0.63517 0.87985 0.0
C4650 C 0.47849 0.62699 0.88247 0.0
C4651 C 0.47411 0.61879 0.88066 0.0
N4652 N 0.48686 0.62663 0.88716 0.0
C4653 C 0.49328 0.63349 0.88768 0.0
H4654 H 0.12853 0.7049 0.61961 0.0
H4655 H 0.11572 0.72857 0.63064 0.0
H4656 H 0.14474 0.7259 0.63129 0.0
C4657 C 0.12903 0.71144 0.62287 0.0
C4658 C 0.13753 0.71484 0.62518 0.0
C4659 C 0.12115 0.71633 0.62484 0.0
C4660 C 0.12181 0.72482 0.6291 0.0
C4661 C 0.13037 0.72833 0.6314 0.0
C4662 C 0.13816 0.72326 0.62947 0.0
N4663 N 0.13152 0.73682 0.63574 0.0
C4664 C 0.12478 0.74315 0.63748 0.0
H4665 H 0.05239 0.37808 0.36963 0.0
H4666 H 0.02856 0.36524 0.38026 0.0
H4667 H 0.03125 0.39423 0.38117 0.0
C4668 C 0.04582 0.37857 0.37283 0.0
C4669 C 0.04239 0.38706 0.37513 0.0
C4670 C 0.04088 0.37069 0.37466 0.0
C4671 C 0.03233 0.37133 0.37881 0.0
C4672 C 0.02882 0.37987 0.38114 0.0
C4673 C 0.03392 0.38767 0.37933 0.0
N4674 N 0.0203 0.38099 0.38544 0.0
C4675 C 0.01372 0.37436 0.38655 0.0
H4676 H 0.37834 0.70586 0.38759 0.0
H4677 H 0.39126 0.72958 0.37684 0.0
H4678 H 0.3623 0.7267 0.37541 0.0
C4679 C 0.37788 0.71237 0.38427 0.0
C4680 C 0.36942 0.71571 0.38175 0.0
C4681 C 0.38577 0.7173 0.38247 0.0
C4682 C 0.38516 0.72578 0.37819 0.0
C4683 C 0.37665 0.72922 0.37564 0.0
C4684 C 0.36885 0.7241 0.37739 0.0
N4685 N 0.37556 0.73769 0.37125 0.0
C4686 C 0.38233 0.74402 0.36959 0.0
H4687 H 0.05174 0.62833 0.1372 0.0
H4688 H 0.02819 0.64147 0.1263 0.0
H4689 H 0.0306 0.61245 0.1253 0.0
C4690 C 0.0452 0.62793 0.13393 0.0
C4691 C 0.04172 0.61948 0.13152 0.0
C4692 C 0.04037 0.63587 0.13205 0.0
C4693 C 0.03188 0.63533 0.12777 0.0
C4694 C 0.0283 0.62683 0.12537 0.0
C4695 C 0.0333 0.61898 0.1272 0.0
N4696 N 0.01979 0.62581 0.12102 0.0
C4697 C 0.01354 0.63264 0.11935 0.0
H4698 H 0.12874 0.3019 0.88728 0.0
H4699 H 0.11597 0.27794 0.87685 0.0
H4700 H 0.14493 0.28093 0.87548 0.0
C4701 C 0.12925 0.29535 0.88404 0.0
C4702 C 0.13774 0.292 0.8816 0.0
C4703 C 0.1214 0.29033 0.88233 0.0
C4704 C 0.12205 0.2818 0.87815 0.0
C4705 C 0.13059 0.27838 0.87566 0.0
C4706 C 0.13836 0.28354 0.87739 0.0
N4707 N 0.13172 0.26985 0.87138 0.0
C4708 C 0.12496 0.26352 0.86971 0.0
H4709 H 0.4555 0.37801 0.63762 0.0
H4710 H 0.47908 0.36501 0.6266 0.0
H4711 H 0.47658 0.39403 0.62582 0.0
C4712 C 0.46204 0.37845 0.63434 0.0
C4713 C 0.46549 0.38692 0.63199 0.0
C4714 C 0.46688 0.37054 0.6324 0.0
C4715 C 0.47537 0.37113 0.62813 0.0
C4716 C 0.47892 0.37965 0.62578 0.0
C4717 C 0.4739 0.38748 0.62768 0.0
N4718 N 0.48742 0.38073 0.62142 0.0
C4719 C 0.49372 0.37394 0.61974 0.0
H4720 H 0.11977 0.37846 0.30123 0.0
H4721 H 0.13 0.39144 0.2773 0.0
H4722 H 0.13179 0.3625 0.28022 0.0
C4723 C 0.12302 0.37802 0.29468 0.0
C4724 C 0.12556 0.36957 0.2913 0.0
C4725 C 0.12462 0.38591 0.28969 0.0
C4726 C 0.12878 0.38533 0.28114 0.0
C4727 C 0.13138 0.37684 0.2777 0.0
C4728 C 0.12978 0.36903 0.28285 0.0
N4729 N 0.13569 0.37578 0.26917 0.0
C4730 C 0.13691 0.38249 0.26269 0.0
H4731 H 0.3783 0.36968 0.05163 0.0
H4732 H 0.3653 0.38007 0.02777 0.0
H4733 H 0.39433 0.3808 0.03019 0.0
C4734 C 0.37874 0.37279 0.04501 0.0
C4735 C 0.38722 0.375 0.04148 0.0
C4736 C 0.37083 0.37459 0.04011 0.0
C4737 C 0.37141 0.37866 0.03153 0.0
C4738 C 0.37994 0.38089 0.0279 0.0
C4739 C 0.38777 0.37906 0.03294 0.0
N4740 N 0.38104 0.38502 0.0193 0.0
C4741 C 0.37422 0.38688 0.01308 0.0
H4742 H 0.38258 0.62924 0.80378 0.0
H4743 H 0.37734 0.61634 0.77847 0.0
H4744 H 0.3733 0.64472 0.78095 0.0
C4745 C 0.37992 0.62976 0.79699 0.0
C4746 C 0.37654 0.63808 0.79374 0.0
C4747 C 0.38012 0.62196 0.79161 0.0
C4748 C 0.37725 0.62238 0.78259 0.0
C4749 C 0.37467 0.63072 0.77889 0.0
C4750 C 0.37465 0.63847 0.78436 0.0
N4751 N 0.37217 0.63176 0.76967 0.0
C4752 C 0.3711 0.62488 0.76334 0.0
H4753 H 0.12829 0.63676 0.55217 0.0
H4754 H 0.1411 0.62637 0.52823 0.0
H4755 H 0.11212 0.62515 0.53108 0.0
C4756 C 0.12779 0.63355 0.54561 0.0
C4757 C 0.1193 0.63118 0.54221 0.0
C4758 C 0.13565 0.63181 0.54062 0.0
C4759 C 0.13501 0.62768 0.53207 0.0
C4760 C 0.12647 0.62526 0.52859 0.0
C4761 C 0.11869 0.62701 0.53373 0.0
N4762 N 0.12534 0.62103 0.52004 0.0
C4763 C 0.13211 0.61935 0.51373 0.0
H4764 H 0.12037 0.62788 0.20424 0.0
H4765 H 0.13077 0.61482 0.22806 0.0
H4766 H 0.13171 0.64384 0.22563 0.0
C4767 C 0.12352 0.6283 0.21084 0.0
C4768 C 0.12579 0.63677 0.21437 0.0
C4769 C 0.12529 0.62038 0.21573 0.0
C4770 C 0.12937 0.62094 0.22431 0.0
C4771 C 0.13167 0.62945 0.22793 0.0
C4772 C 0.1299 0.63729 0.22289 0.0
N4773 N 0.13586 0.6305 0.23651 0.0
C4774 C 0.13711 0.62374 0.24294 0.0
H4775 H 0.12807 0.3689 0.95585 0.0
H4776 H 0.1416 0.37946 0.9793 0.0
H4777 H 0.1125 0.38007 0.97762 0.0
C4778 C 0.12777 0.37207 0.96244 0.0
C4779 C 0.11937 0.37429 0.96616 0.0
C4780 C 0.13578 0.37395 0.96713 0.0
C4781 C 0.13539 0.37805 0.9757 0.0
C4782 C 0.12695 0.38025 0.97955 0.0
C4783 C 0.119 0.37837 0.97471 0.0
N4784 N 0.1261 0.38429 0.98824 0.0
C4785 C 0.13323 0.38678 0.99386 0.0
H4786 H 0.38692 0.37828 0.70491 0.0
H4787 H 0.37642 0.39117 0.72877 0.0
H4788 H 0.37451 0.36226 0.72565 0.0
C4789 C 0.38359 0.37782 0.71142 0.0
C4790 C 0.38096 0.36936 0.71471 0.0
C4791 C 0.38194 0.38569 0.71643 0.0
C4792 C 0.37768 0.38508 0.72492 0.0
C4793 C 0.37498 0.37658 0.72827 0.0
C4794 C 0.3766 0.3688 0.7231 0.0
N4795 N 0.37051 0.37551 0.73671 0.0
C4796 C 0.36964 0.38206 0.74341 0.0
H4797 H 0.37866 0.63723 0.45443 0.0
H4798 H 0.36593 0.62672 0.47836 0.0
H4799 H 0.39491 0.62566 0.47548 0.0
C4800 C 0.37918 0.63401 0.46099 0.0
C4801 C 0.38769 0.63167 0.46437 0.0
C4802 C 0.37133 0.63222 0.46598 0.0
C4803 C 0.372 0.62808 0.47452 0.0
C4804 C 0.38056 0.62569 0.47798 0.0
C4805 C 0.38833 0.62749 0.47284 0.0
N4806 N 0.38171 0.62145 0.48652 0.0
C4807 C 0.37494 0.61967 0.49281 0.0
H4808 H 0.30155 0.11946 0.37778 0.0
H4809 H 0.27765 0.12971 0.3908 0.0
H4810 H 0.28031 0.13107 0.36181 0.0
C4811 C 0.29497 0.12265 0.37734 0.0
C4812 C 0.29151 0.12505 0.36889 0.0
C4813 C 0.29002 0.12433 0.38525 0.0
C4814 C 0.28146 0.12844 0.38468 0.0
C4815 C 0.27791 0.13089 0.37618 0.0
C4816 C 0.283 0.12919 0.36835 0.0
N4817 N 0.26934 0.13509 0.37513 0.0
C4818 C 0.26311 0.13684 0.38196 0.0
H4819 H 0.80139 0.38707 0.62849 0.0
H4820 H 0.77758 0.3765 0.61555 0.0
H4821 H 0.78081 0.3743 0.64442 0.0
C4822 C 0.79491 0.38369 0.62893 0.0
C4823 C 0.79166 0.38094 0.63736 0.0
C4824 C 0.78991 0.38205 0.62106 0.0
C4825 C 0.78144 0.37773 0.62164 0.0
C4826 C 0.77812 0.37493 0.63012 0.0
C4827 C 0.78332 0.37648 0.63791 0.0
N4828 N 0.76971 0.37041 0.63117 0.0
C4829 C 0.763 0.36956 0.62462 0.0
H4830 H 0.37041 0.0522 0.37754 0.0
H4831 H 0.38081 0.02822 0.36479 0.0
H4832 H 0.38189 0.0311 0.39376 0.0
C4833 C 0.37357 0.04561 0.37805 0.0
C4834 C 0.37588 0.04221 0.38655 0.0
C4835 C 0.37534 0.04062 0.3702 0.0
C4836 C 0.37942 0.03205 0.37086 0.0
C4837 C 0.38179 0.02857 0.37942 0.0
C4838 C 0.38005 0.03373 0.38719 0.0
N4839 N 0.38608 0.02005 0.38057 0.0
C4840 C 0.38703 0.01336 0.37402 0.0
H4841 H 0.70561 0.61845 0.12758 0.0
H4842 H 0.72941 0.62932 0.11488 0.0
H4843 H 0.72647 0.63031 0.14385 0.0
C4844 C 0.71214 0.62174 0.12811 0.0
C4845 C 0.71547 0.62413 0.13661 0.0
C4846 C 0.7171 0.62363 0.12026 0.0
C4847 C 0.72559 0.62789 0.12094 0.0
C4848 C 0.72901 0.6303 0.12951 0.0
C4849 C 0.72388 0.62843 0.13727 0.0
N4850 N 0.73751 0.63462 0.1307 0.0
C4851 C 0.74376 0.63663 0.12396 0.0
H4852 H 0.63676 0.45423 0.3783 0.0
H4853 H 0.62627 0.47806 0.36534 0.0
H4854 H 0.62527 0.47547 0.39434 0.0
C4855 C 0.63358 0.46082 0.37875 0.0
C4856 C 0.63127 0.46428 0.38723 0.0
C4857 C 0.6318 0.46574 0.37085 0.0
C4858 C 0.62768 0.4743 0.37145 0.0
C4859 C 0.62534 0.47785 0.37998 0.0
C4860 C 0.62711 0.47277 0.38779 0.0
N4861 N 0.62109 0.4864 0.38105 0.0
C4862 C 0.61994 0.49292 0.37437 0.0
H4863 H 0.20476 0.88675 0.87854 0.0
H4864 H 0.22832 0.87577 0.8916 0.0
H4865 H 0.22571 0.8746 0.8626 0.0
C4866 C 0.21128 0.88343 0.87811 0.0
C4867 C 0.21469 0.88095 0.86966 0.0
C4868 C 0.21613 0.88155 0.88603 0.0
C4869 C 0.2246 0.87724 0.88547 0.0
C4870 C 0.22811 0.87475 0.87697 0.0
C4871 C 0.22306 0.87656 0.86914 0.0
N4872 N 0.23656 0.8703 0.87593 0.0
C4873 C 0.24304 0.86904 0.88264 0.0
H4874 H 0.36996 0.95588 0.12801 0.0
H4875 H 0.37982 0.98004 0.14084 0.0
H4876 H 0.38177 0.97691 0.11193 0.0
C4877 C 0.37312 0.96247 0.12753 0.0
C4878 C 0.37565 0.9658 0.11907 0.0
C4879 C 0.37462 0.96755 0.13538 0.0
C4880 C 0.37867 0.97613 0.13476 0.0
C4881 C 0.38127 0.97955 0.12625 0.0
C4882 C 0.37977 0.97431 0.11848 0.0
N4883 N 0.38546 0.98812 0.12515 0.0
C4884 C 0.38653 0.99468 0.13182 0.0
H4885 H 0.13722 0.05157 0.62804 0.0
H4886 H 0.12712 0.02759 0.64101 0.0
H4887 H 0.12537 0.03046 0.61207 0.0
C4888 C 0.13401 0.045 0.6276 0.0
C4889 C 0.13152 0.04159 0.61914 0.0
C4890 C 0.13242 0.04 0.63548 0.0
C4891 C 0.12832 0.03143 0.63491 0.0
C4892 C 0.12576 0.02796 0.62641 0.0
C4893 C 0.12734 0.03311 0.6186 0.0
N4894 N 0.12151 0.0194 0.62536 0.0
C4895 C 0.12042 0.01289 0.63206 0.0
C4896 C 0.01244 0.15033 0.38706 0.0
C4897 C 0.01803 0.14656 0.3939 0.0
C4898 C 0.00651 0.13501 0.39687 0.0
C4899 C 1.00152 0.13806 0.38928 0.0
N4900 N 0.99999 0.14811 0.3766 0.0
N4901 N 0.02097 0.13456 0.40453 0.0
C4902 C 0.00453 0.14561 0.38424 0.0
C4903 C 0.01519 0.13873 0.39865 0.0
N4904 N 0.01459 0.15854 0.38343 0.0
N4905 N 1.0029 0.12858 0.40244 0.0
H4906 H 0.02741 0.137 0.40597 0.0
H4907 H 0.01969 0.12827 0.40739 0.0
H4908 H 0.99659 0.12565 0.40131 0.0
H4909 H 0.00577 0.12674 0.40859 0.0
H4910 H 0.01036 0.16209 0.37909 0.0
H4911 H 0.02029 0.1622 0.38539 0.0
H4912 H 1.00238 0.15291 0.37206 0.0
H4913 H 0.99406 0.14493 0.37449 0.0
C4914 C 0.11306 0.76136 0.65109 0.0
C4915 C 0.11046 0.76735 0.64406 0.0
C4916 C 0.1154 0.75621 0.63276 0.0
C4917 C 0.11903 0.75081 0.63976 0.0
N4918 N 0.12183 0.74825 0.65558 0.0
N4919 N 0.10987 0.77095 0.62818 0.0
C4920 C 0.11795 0.75335 0.64894 0.0
C4921 C 0.11175 0.76487 0.63488 0.0
N4922 N 0.11064 0.76324 0.65981 0.0
N4923 N 0.11539 0.75302 0.6241 0.0
H4924 H 0.1072 0.77734 0.62945 0.0
H4925 H 0.11159 0.76995 0.62144 0.0
H4926 H 0.11805 0.74673 0.62236 0.0
H4927 H 0.11205 0.75621 0.61879 0.0
H4928 H 0.11149 0.75873 0.66513 0.0
H4929 H 0.10709 0.76904 0.66162 0.0
H4930 H 0.12228 0.75028 0.6623 0.0
H4931 H 0.12509 0.74213 0.65428 0.0
C4932 C 0.49649 0.86135 0.90149 0.0
C4933 C 0.49129 0.85676 0.89486 0.0
C4934 C 0.50248 0.86118 0.88344 0.0
C4935 C 0.50598 0.86769 0.88951 0.0
N4936 N 0.5068 0.8736 0.90469 0.0
N4937 N 0.49461 0.84694 0.88234 0.0
C4938 C 0.50319 0.86763 0.89867 0.0
C4939 C 0.49575 0.85505 0.88653 0.0
N4940 N 0.49615 0.85859 0.91026 0.0
N4941 N 0.50542 0.86092 0.8747 0.0
H4942 H 0.4909 0.84174 0.88535 0.0
H4943 H 0.49829 0.84497 0.87667 0.0
H4944 H 0.51053 0.86511 0.87228 0.0
H4945 H 0.50236 0.8569 0.86979 0.0
H4946 H 0.50037 0.86116 0.91527 0.0
H4947 H 0.49264 0.85277 0.91213 0.0
H4948 H 0.50427 0.87441 0.91121 0.0
H4949 H 0.51197 0.87808 0.90299 0.0
C4950 C 0.39454 0.24491 0.15006 0.0
C4951 C 0.39731 0.23873 0.14326 0.0
C4952 C 0.39256 0.24951 0.13154 0.0
C4953 C 0.38873 0.25508 0.1383 0.0
N4954 N 0.38562 0.25811 0.15397 0.0
N4955 N 0.39828 0.23469 0.12751 0.0
C4956 C 0.38966 0.25282 0.14757 0.0
C4957 C 0.39622 0.24094 0.13398 0.0
N4958 N 0.39678 0.2433 0.15887 0.0
N4959 N 0.39274 0.25245 0.12279 0.0
H4960 H 0.40096 0.22835 0.12901 0.0
H4961 H 0.39672 0.23548 0.1207 0.0
H4962 H 0.39007 0.25867 0.12083 0.0
H4963 H 0.39621 0.24914 0.11765 0.0
H4964 H 0.3958 0.24795 0.16405 0.0
H4965 H 0.40033 0.23757 0.16092 0.0
H4966 H 0.38506 0.25629 0.16074 0.0
H4967 H 0.38237 0.26417 0.15243 0.0
C4968 C 0.01047 0.85836 0.108 0.0
C4969 C 0.0183 0.85963 0.11341 0.0
C4970 C 0.00981 0.86972 0.12348 0.0
C4971 C 1.00195 0.86829 0.11818 0.0
N4972 N 0.99419 0.86005 0.10654 0.0
N4973 N 0.02507 0.86501 0.1272 0.0
C4974 C 1.00209 0.86221 0.1108 0.0
C4975 C 0.01786 0.86487 0.12143 0.0
N4976 N 0.01114 0.85377 0.10002 0.0
N4977 N 0.00964 0.87594 0.13031 0.0
H4978 H 0.03109 0.8616 0.12589 0.0
H4979 H 0.02487 0.86788 0.13361 0.0
H4980 H 0.00377 0.8793 0.13228 0.0
H4981 H 0.01539 0.87815 0.1337 0.0
H4982 H 0.00596 0.85342 0.09528 0.0
H4983 H 0.01713 0.85078 0.09781 0.0
H4984 H 0.99364 0.85501 0.10168 0.0
H4985 H 0.98798 0.86281 0.10843 0.0
C4986 C 0.39455 0.76194 0.35604 0.0
C4987 C 0.39681 0.76812 0.36302 0.0
C4988 C 0.39143 0.75726 0.37438 0.0
C4989 C 0.38813 0.75165 0.36736 0.0
N4990 N 0.38602 0.74868 0.35151 0.0
N4991 N 0.39669 0.77213 0.37881 0.0
C4992 C 0.38959 0.75397 0.35818 0.0
C4993 C 0.39513 0.76587 0.3722 0.0
N4994 N 0.39734 0.7636 0.3474 0.0
N4995 N 0.39108 0.75429 0.38311 0.0
H4996 H 0.39939 0.7785 0.3775 0.0
H4997 H 0.39469 0.7713 0.3855 0.0
H4998 H 0.38836 0.74803 0.38489 0.0
H4999 H 0.39416 0.75762 0.38848 0.0
H5000 H 0.39674 0.75896 0.34215 0.0
H5001 H 0.40095 0.76937 0.34559 0.0
H5002 H 0.38586 0.75054 0.34473 0.0
H5003 H 0.38273 0.74259 0.35282 0.0
C5004 C 0.49394 0.14883 0.62091 0.0
C5005 C 0.48969 0.14698 0.61251 0.0
C5006 C 0.50258 0.13753 0.60805 0.0
C5007 C 0.5062 0.13842 0.61687 0.0
N5008 N 0.50539 0.14454 0.6319 0.0
N5009 N 0.48947 0.13897 0.59833 0.0
C5010 C 0.50194 0.14403 0.62335 0.0
C5011 C 0.49392 0.14123 0.6061 0.0
N5012 N 0.49043 0.15531 0.62647 0.0
N5013 N 0.50747 0.13321 0.60152 0.0
H5014 H 0.48316 0.14159 0.59662 0.0
H5015 H 0.4917 0.134 0.59388 0.0
H5016 H 0.51382 0.1304 0.60276 0.0
H5017 H 0.50565 0.1331 0.59473 0.0
H5018 H 0.49365 0.15764 0.63227 0.0
H5019 H 0.48458 0.15892 0.62489 0.0
H5020 H 0.50207 0.14765 0.63726 0.0
H5021 H 0.51143 0.14142 0.63376 0.0
C5022 C 0.11187 0.24186 0.87244 0.0
C5023 C 0.1104 0.23943 0.86327 0.0
C5024 C 0.1179 0.25339 0.85832 0.0
C5025 C 0.11915 0.25589 0.86749 0.0
N5026 N 0.11576 0.25364 0.88321 0.0
N5027 N 0.11033 0.2436 0.84754 0.0
C5028 C 0.11561 0.25048 0.87453 0.0
C5029 C 0.11291 0.24543 0.85622 0.0
N5030 N 0.11007 0.23576 0.87914 0.0
N5031 N 0.1217 0.2585 0.85163 0.0
H5032 H 0.1067 0.23783 0.84577 0.0
H5033 H 0.11113 0.24812 0.84221 0.0
H5034 H 0.12503 0.26458 0.8529 0.0
H5035 H 0.12201 0.25649 0.84491 0.0
H5036 H 0.11191 0.23672 0.88585 0.0
H5037 H 0.10734 0.22939 0.8779 0.0
H5038 H 0.11249 0.25045 0.88855 0.0
H5039 H 0.1185 0.2599 0.88492 0.0
C5040 C 0.39872 0.01143 0.14669 0.0
C5041 C 0.39273 0.01892 0.14625 0.0
C5042 C 0.38222 0.01008 0.13693 0.0
C5043 C 0.38813 1.00256 0.13751 0.0
N5044 N 0.40102 0.99535 0.14426 0.0
N5045 N 0.37807 0.02493 0.14252 0.0
C5046 C 0.39607 1.00301 0.14283 0.0
C5047 C 0.38425 0.0181 0.14184 0.0
N5048 N 0.40706 0.01248 0.1505 0.0
N5049 N 0.37479 0.00963 0.13145 0.0
H5050 H 0.37937 0.03094 0.14597 0.0
H5051 H 0.37142 0.02441 0.1403 0.0
H5052 H 0.37285 0.00374 0.12811 0.0
H5053 H 0.3708 0.01519 0.12982 0.0
H5054 H 0.41213 0.00763 0.15017 0.0
H5055 H 0.40917 0.0185 0.15349 0.0
H5056 H 0.4064 0.99496 0.14876 0.0
H5057 H 0.39924 0.98911 0.14148 0.0
C5058 C 0.24533 0.15058 0.39419 0.0
C5059 C 0.23917 0.14364 0.39661 0.0
C5060 C 0.24998 0.1322 0.39128 0.0
C5061 C 0.25555 0.13916 0.38783 0.0
N5062 N 0.25851 0.15498 0.38547 0.0
N5063 N 0.23516 0.12785 0.39676 0.0
C5064 C 0.25325 0.14836 0.38919 0.0
C5065 C 0.2414 0.13443 0.39504 0.0
N5066 N 0.24369 0.15927 0.39687 0.0
N5067 N 0.25294 0.12346 0.39103 0.0
H5068 H 0.22881 0.1292 0.3995 0.0
H5069 H 0.23596 0.12113 0.39484 0.0
H5070 H 0.25917 0.12164 0.38827 0.0
H5071 H 0.24964 0.11814 0.39423 0.0
H5072 H 0.24833 0.1645 0.39615 0.0
H5073 H 0.23796 0.16113 0.40051 0.0
H5074 H 0.25666 0.16176 0.38524 0.0
H5075 H 0.26458 0.15362 0.38215 0.0
C5076 C 0.12266 0.98954 0.64222 0.0
C5077 C 0.11416 0.98874 0.64659 0.0
C5078 C 0.11083 0.00463 0.64308 0.0
C5079 C 0.1188 0.00505 0.63779 0.0
N5080 N 0.13218 0.99796 0.63184 0.0
N5081 N 0.09982 0.9952 0.65076 0.0
C5082 C 0.12472 0.99754 0.63728 0.0
C5083 C 0.10818 0.99623 0.64697 0.0
N5084 N 0.12884 0.98271 0.64296 0.0
N5085 N 0.10588 0.0123 0.64444 0.0
H5086 H 0.0977 0.9892 0.65378 0.0
H5087 H 0.09474 1.00005 0.65039 0.0
H5088 H 0.10766 0.01852 0.64164 0.0
H5089 H 0.10047 0.01271 0.64891 0.0
H5090 H 0.1355 0.98322 0.64076 0.0
H5091 H 0.12752 0.97672 0.64642 0.0
H5092 H 0.13617 0.9924 0.63026 0.0
H5093 H 0.13412 0.00384 0.62848 0.0
C5094 C 0.26037 0.85606 0.89608 0.0
C5095 C 0.26737 0.86259 0.89679 0.0
C5096 C 0.25788 0.87373 0.88894 0.0
C5097 C 0.25087 0.86724 0.88834 0.0
N5098 N 0.24457 0.85295 0.89281 0.0
N5099 N 0.27227 0.87806 0.89554 0.0
C5100 C 0.25184 0.85863 0.8924 0.0
C5101 C 0.26596 0.87157 0.89371 0.0
N5102 N 0.262 0.84734 0.89862 0.0
N5103 N 0.25692 0.88188 0.88469 0.0
H5104 H 0.2783 0.87669 0.89891 0.0
H5105 H 0.27128 0.88491 0.89434 0.0
H5106 H 0.25095 0.88385 0.88152 0.0
H5107 H 0.26216 0.8865 0.88389 0.0
H5108 H 0.25758 0.84202 0.89736 0.0
H5109 H 0.2681 0.84526 0.90147 0.0
H5110 H 0.24453 0.84692 0.89642 0.0
H5111 H 0.23827 0.85466 0.89014 0.0
C5112 C 0.39801 0.99688 0.35791 0.0
C5113 C 0.39304 0.98889 0.35985 0.0
C5114 C 0.38366 0.99727 0.37069 0.0
C5115 C 0.38848 0.00528 0.36857 0.0
N5116 N 0.39901 0.01324 0.35911 0.0
N5117 N 0.38008 0.98179 0.36667 0.0
C5118 C 0.39527 0.00525 0.36183 0.0
C5119 C 0.38555 0.98919 0.36583 0.0
N5120 N 0.40555 0.99638 0.3526 0.0
N5121 N 0.37747 0.99733 0.37754 0.0
H5122 H 0.38129 0.97573 0.36329 0.0
H5123 H 0.37397 0.98183 0.37014 0.0
H5124 H 0.3756 1.0032 0.38097 0.0
H5125 H 0.37456 0.99152 0.38021 0.0
H5126 H 0.41003 1.00171 0.3517 0.0
H5127 H 0.40769 0.9904 0.34957 0.0
H5128 H 0.40336 0.01384 0.35362 0.0
H5129 H 0.39717 0.01944 0.36192 0.0
C5130 C 0.26482 0.1353 0.61073 0.0
C5131 C 0.26721 0.14451 0.6094 0.0
C5132 C 0.25318 0.14929 0.61688 0.0
C5133 C 0.25073 0.14009 0.61801 0.0
N5134 N 0.25308 0.12443 0.61442 0.0
N5135 N 0.26295 0.16021 0.60952 0.0
C5136 C 0.25619 0.13313 0.6144 0.0
C5137 C 0.26116 0.15149 0.61197 0.0
N5138 N 0.27096 0.12866 0.60887 0.0
N5139 N 0.24801 0.1559 0.62074 0.0
H5140 H 0.26873 0.16206 0.60594 0.0
H5141 H 0.2584 0.1655 0.61035 0.0
H5142 H 0.24192 0.15456 0.62402 0.0
H5143 H 0.24998 0.16263 0.62115 0.0
H5144 H 0.27003 0.12192 0.61061 0.0
H5145 H 0.27733 0.12997 0.60618 0.0
H5146 H 0.2563 0.11914 0.61111 0.0
H5147 H 0.24681 0.12265 0.61711 0.0
C5148 C 0.12208 0.01539 0.86087 0.0
C5149 C 0.11288 0.01782 0.85954 0.0
C5150 C 0.10806 0.00382 0.86704 0.0
C5151 C 0.11724 1.00133 0.86818 0.0
N5152 N 0.13291 0.00362 0.86459 0.0
N5153 N 0.09716 0.0136 0.85964 0.0
C5154 C 0.12423 0.00676 0.86456 0.0
C5155 C 0.10588 0.01179 0.86211 0.0
N5156 N 0.12874 0.0215 0.859 0.0
N5157 N 0.10142 0.99869 0.87092 0.0
H5158 H 0.09533 0.01937 0.85604 0.0
H5159 H 0.09186 0.00906 0.86048 0.0
H5160 H 0.10274 0.99259 0.8742 0.0
H5161 H 0.0947 1.00068 0.87132 0.0
H5162 H 0.13549 0.02055 0.86074 0.0
H5163 H 0.12746 0.02788 0.8563 0.0
H5164 H 0.13821 0.00682 0.86127 0.0
H5165 H 0.13466 0.99735 0.86729 0.0
C5166 C 0.24392 0.8707 0.10698 0.0
C5167 C 0.23961 0.86242 0.10922 0.0
C5168 C 0.25241 0.85841 0.11898 0.0
C5169 C 0.25604 0.86718 0.11773 0.0
N5170 N 0.25535 0.88186 0.11082 0.0
N5171 N 0.23931 0.84864 0.1179 0.0
C5172 C 0.25186 0.87337 0.11174 0.0
C5173 C 0.24378 0.85629 0.1153 0.0
N5174 N 0.24049 0.87592 0.10018 0.0
N5175 N 0.25727 0.8521 0.12365 0.0
H5176 H 0.23301 0.84681 0.11532 0.0
H5177 H 0.24149 0.84444 0.12309 0.0
H5178 H 0.2636 0.85346 0.12643 0.0
H5179 H 0.25544 0.84532 0.12406 0.0
H5180 H 0.24374 0.88159 0.0976 0.0
H5181 H 0.23469 0.87416 0.09658 0.0
H5182 H 0.25208 0.88707 0.10741 0.0
H5183 H 0.26137 0.88385 0.1139 0.0
C5184 C 0.15252 0.38685 0.01065 0.0
C5185 C 0.15075 0.39514 0.01518 0.0
C5186 C 0.1399 0.39899 1.00328 0.0
C5187 C 0.1399 0.38986 1.0004 0.0
N5188 N 0.14677 0.37509 1.00085 0.0
N5189 N 0.14886 0.41056 0.01043 0.0
C5190 C 0.14645 0.3838 0.00386 0.0
C5191 C 0.14614 0.40178 0.01003 0.0
N5192 N 0.16064 0.38268 0.01183 0.0
N5193 N 0.13389 0.40501 0.99971 0.0
H5194 H 0.15469 0.41243 0.01393 0.0
H5195 H 0.14627 0.4156 0.00625 0.0
H5196 H 0.12943 0.40332 0.99452 0.0
H5197 H 0.13304 0.4115 1.00231 0.0
H5198 H 0.16266 0.37706 0.00811 0.0
H5199 H 0.16578 0.38565 0.01564 0.0
H5200 H 0.15081 0.37017 0.00387 0.0
H5201 H 0.14261 0.37269 0.99569 0.0
C5202 C 0.65216 0.11954 0.99642 0.0
C5203 C 0.65034 0.11126 0.99192 0.0
C5204 C 0.6395 0.10748 0.00384 0.0
C5205 C 0.63956 0.11662 0.0067 0.0
N5206 N 0.6465 0.13135 0.00622 0.0
N5207 N 0.64841 0.09585 0.99672 0.0
C5208 C 0.64612 0.12264 1.00322 0.0
C5209 C 0.64572 0.10464 0.9971 0.0
N5210 N 0.6603 0.12368 0.9952 0.0
N5211 N 0.63348 0.1015 0.00745 0.0
H5212 H 0.65422 0.09396 0.99321 0.0
H5213 H 0.6458 0.09084 1.00092 0.0
H5214 H 0.62904 0.10322 0.01265 0.0
H5215 H 0.63259 0.09501 0.00487 0.0
H5216 H 0.66235 0.12931 0.99891 0.0
H5217 H 0.66541 0.12068 0.99139 0.0
H5218 H 0.65055 0.13625 1.00318 0.0
H5219 H 0.64237 0.13378 0.01139 0.0
C5220 C 0.14967 0.39685 0.24593 0.0
C5221 C 0.14356 0.39683 0.23853 0.0
C5222 C 0.13264 0.38806 0.24745 0.0
C5223 C 0.13869 0.3882 0.25487 0.0
N5224 N 0.15205 0.39412 0.26196 0.0
N5225 N 0.12862 0.39403 0.2327 0.0
C5226 C 0.14692 0.39306 0.25435 0.0
C5227 C 0.13485 0.39292 0.23944 0.0
N5228 N 0.1582 0.40019 0.2448 0.0
N5229 N 0.1249 0.38304 0.24796 0.0
H5230 H 0.13004 0.39745 0.22671 0.0
H5231 H 0.12186 0.39219 0.2333 0.0
H5232 H 0.12286 0.37976 0.25386 0.0
H5233 H 0.12074 0.38171 0.24246 0.0
H5234 H 0.16332 0.39952 0.24957 0.0
H5235 H 0.16039 0.40313 0.23878 0.0
H5236 H 0.1577 0.39829 0.26231 0.0
H5237 H 0.15021 0.39139 0.26819 0.0
C5238 C 0.86221 0.90074 0.49494 0.0
C5239 C 0.85971 0.89375 0.48886 0.0
C5240 C 0.86486 0.88238 0.49983 0.0
C5241 C 0.86841 0.88937 0.50531 0.0
N5242 N 0.87097 0.90519 0.50807 0.0
N5243 N 0.85937 0.87791 0.48505 0.0
C5244 C 0.86717 0.89856 0.50289 0.0
C5245 C 0.86115 0.88455 0.49121 0.0
N5246 N 0.85964 0.90944 0.49319 0.0
N5247 N 0.86499 0.87368 0.50291 0.0
H5248 H 0.85667 0.87921 0.47868 0.0
H5249 H 0.86119 0.87118 0.48595 0.0
H5250 H 0.8677 0.87191 0.50917 0.0
H5251 H 0.86172 0.86837 0.49967 0.0
H5252 H 0.86042 0.91472 0.49777 0.0
H5253 H 0.85602 0.91127 0.48743 0.0
H5254 H 0.8713 0.91194 0.50613 0.0
H5255 H 0.87428 0.90387 0.51415 0.0
C5256 C 0.85739 0.11034 0.24616 0.0
C5257 C 0.8638 0.11011 0.23902 0.0
C5258 C 0.87463 0.11858 0.24834 0.0
C5259 C 0.86826 0.1187 0.2555 0.0
N5260 N 0.85442 0.11329 0.26205 0.0
N5261 N 0.87904 0.11239 0.2338 0.0
C5262 C 0.8599 0.11411 0.25466 0.0
C5263 C 0.87259 0.11374 0.24027 0.0
N5264 N 0.84881 0.10726 0.24469 0.0
N5265 N 0.88251 0.12333 0.24916 0.0
H5266 H 0.87776 0.10899 0.22777 0.0
H5267 H 0.88583 0.114 0.23467 0.0
H5268 H 0.8844 0.12657 0.25512 0.0
H5269 H 0.88695 0.12447 0.24384 0.0
H5270 H 0.84352 0.10813 0.24924 0.0
H5271 H 0.84679 0.10433 0.23861 0.0
H5272 H 0.84863 0.10931 0.26219 0.0
H5273 H 0.85609 0.11601 0.26834 0.0
C5274 C 0.36178 0.62216 0.51446 0.0
C5275 C 0.36041 0.61295 0.51684 0.0
C5276 C 0.36797 0.60816 0.50286 0.0
C5277 C 0.36913 0.61735 0.50041 0.0
N5278 N 0.36558 0.63302 0.50275 0.0
N5279 N 0.36052 0.59725 0.51258 0.0
C5280 C 0.36551 0.62433 0.50586 0.0
C5281 C 0.36301 0.60596 0.51081 0.0
N5282 N 0.3599 0.6288 0.52059 0.0
N5283 N 0.37186 0.60154 0.49772 0.0
H5284 H 0.3569 0.59541 0.51834 0.0
H5285 H 0.36137 0.59196 0.50804 0.0
H5286 H 0.37517 0.60287 0.49165 0.0
H5287 H 0.37224 0.59481 0.49969 0.0
H5288 H 0.36167 0.63554 0.51967 0.0
H5289 H 0.35718 0.6275 0.52695 0.0
H5290 H 0.36225 0.63832 0.50596 0.0
H5291 H 0.36831 0.6348 0.4965 0.0
C5292 C 0.1499 0.60983 0.26003 0.0
C5293 C 0.14347 0.60933 0.26713 0.0
C5294 C 0.13245 0.61757 0.25784 0.0
C5295 C 0.13885 0.61797 0.25072 0.0
N5296 N 0.15288 0.61304 0.24419 0.0
N5297 N 0.12814 0.61112 0.27229 0.0
C5298 C 0.14733 0.61362 0.25155 0.0
C5299 C 0.13458 0.61272 0.26587 0.0
N5300 N 0.15856 0.60697 0.26151 0.0
N5301 N 0.12443 0.62209 0.25701 0.0
H5302 H 0.1295 0.60771 0.27831 0.0
H5303 H 0.12132 0.61255 0.27142 0.0
H5304 H 0.12247 0.62534 0.25107 0.0
H5305 H 0.11992 0.62304 0.26232 0.0
H5306 H 0.16385 0.60804 0.257 0.0
H5307 H 0.16063 0.60401 0.26756 0.0
H5308 H 0.15878 0.60923 0.24404 0.0
H5309 H 0.15116 0.61578 0.23793 0.0
C5310 C 0.37138 0.39054 0.76746 0.0
C5311 C 0.36383 0.39646 0.76778 0.0
C5312 C 0.36141 0.39427 0.75148 0.0
C5313 C 0.36825 0.38758 0.75144 0.0
N5314 N 0.37944 0.37879 0.75935 0.0
N5315 N 0.35116 0.4035 0.76037 0.0
C5316 C 0.37319 0.3856 0.75941 0.0
C5317 C 0.35874 0.39826 0.75984 0.0
N5318 N 0.37695 0.38984 0.77479 0.0
N5319 N 0.35755 0.39687 0.74351 0.0
H5320 H 0.34906 0.40659 0.76635 0.0
H5321 H 0.3466 0.40431 0.75509 0.0
H5322 H 0.35934 0.39402 0.73732 0.0
H5323 H 0.35315 0.40232 0.7429 0.0
H5324 H 0.38309 0.38642 0.7747 0.0
H5325 H 0.3758 0.39329 0.78082 0.0
H5326 H 0.38245 0.37622 0.76516 0.0
H5327 H 0.38125 0.37531 0.7535 0.0
C5328 C 0.99197 0.86149 0.62156 0.0
C5329 C 0.98971 0.85981 0.61238 0.0
C5330 C 0.00389 0.86695 0.60753 0.0
C5331 C 0.00621 0.86842 0.6167 0.0
N5332 N 0.00358 0.86551 0.63246 0.0
N5333 N 0.9942 0.85925 0.59675 0.0
C5334 C 1.0006 0.86516 0.62372 0.0
C5335 C 0.99589 0.86203 0.60539 0.0
N5336 N 0.98571 0.85996 0.62817 0.0
N5337 N 0.0092 0.87048 0.60085 0.0
H5338 H 0.9884 0.85567 0.59495 0.0
H5339 H 0.99884 0.85982 0.5915 0.0
H5340 H 0.01531 0.87374 0.60215 0.0
H5341 H 0.00734 0.87063 0.59407 0.0
H5342 H 0.98655 0.86196 0.63486 0.0
H5343 H 0.97933 0.85728 0.62687 0.0
H5344 H 1.00024 0.86245 0.63783 0.0
H5345 H 0.00985 0.8682 0.63423 0.0
C5346 C 0.89667 0.24706 0.35445 0.0
C5347 C 0.90098 0.24182 0.36123 0.0
C5348 C 0.89637 0.2531 0.37248 0.0
C5349 C 0.89008 0.25666 0.3662 0.0
N5350 N 0.88467 0.25753 0.35084 0.0
N5351 N 0.91047 0.24506 0.37404 0.0
C5352 C 0.8904 0.25385 0.35705 0.0
C5353 C 0.90249 0.24629 0.3696 0.0
N5354 N 0.8997 0.24665 0.34577 0.0
N5355 N 0.8964 0.25607 0.38121 0.0
H5356 H 0.91571 0.24129 0.37119 0.0
H5357 H 0.91231 0.24874 0.37975 0.0
H5358 H 0.89221 0.26126 0.38348 0.0
H5359 H 0.90023 0.25298 0.38625 0.0
H5360 H 0.89734 0.25089 0.34067 0.0
H5361 H 0.90551 0.24303 0.34408 0.0
H5362 H 0.88403 0.25498 0.3443 0.0
H5363 H 0.88021 0.26276 0.35239 0.0
C5364 C 0.51662 0.1435 0.12254 0.0
C5365 C 0.51739 0.14741 0.11381 0.0
C5366 C 0.50153 0.14359 0.11068 0.0
C5367 C 0.50116 0.13871 0.1189 0.0
N5368 N 0.50828 0.13358 0.13259 0.0
N5369 N 0.5109 0.15077 0.09928 0.0
C5370 C 0.50866 0.13861 0.12485 0.0
C5371 C 0.5099 0.14742 0.10782 0.0
N5372 N 0.52343 0.14465 0.12868 0.0
N5373 N 0.49385 0.14461 0.10566 0.0
H5374 H 0.51687 0.15374 0.09701 0.0
H5375 H 0.50605 0.1501 0.09423 0.0
H5376 H 0.48766 0.14186 0.1076 0.0
H5377 H 0.4934 0.14879 0.10003 0.0
H5378 H 0.52293 0.14282 0.13544 0.0
H5379 H 0.52938 0.14811 0.12719 0.0
H5380 H 0.51385 0.13227 0.13667 0.0
H5381 H 0.50242 0.13028 0.13471 0.0
C5382 C 0.60926 0.76034 0.85685 0.0
C5383 C 0.60939 0.7676 0.86312 0.0
C5384 C 0.61837 0.75846 0.87367 0.0
C5385 C 0.61812 0.75118 0.86745 0.0
N5386 N 0.61197 0.74438 0.85405 0.0
N5387 N 0.61248 0.77311 0.87812 0.0
C5388 C 0.61311 0.75187 0.85933 0.0
C5389 C 0.61346 0.76651 0.87173 0.0
N5390 N 0.60574 0.76166 0.84841 0.0
N5391 N 0.62353 0.75777 0.8813 0.0
H5392 H 0.60903 0.77913 0.8769 0.0
H5393 H 0.61444 0.77237 0.88483 0.0
H5394 H 0.62685 0.75184 0.88315 0.0
H5395 H 0.62493 0.76318 0.88556 0.0
H5396 H 0.60632 0.757 0.84318 0.0
H5397 H 0.60274 0.76771 0.84642 0.0
H5398 H 0.6077 0.74415 0.84847 0.0
H5399 H 0.61476 0.73811 0.85569 0.0
C5400 C 0.99169 0.14583 0.88496 0.0
C5401 C 0.98956 0.14729 0.89421 0.0
C5402 C 0.00364 0.13972 0.8987 0.0
C5403 C 0.00582 0.13844 0.88946 0.0
N5404 N 1.00309 0.14185 0.87383 0.0
N5405 N 0.99424 0.14732 0.9098 0.0
C5406 C 1.00021 0.14202 0.8826 0.0
C5407 C 0.99577 0.14474 0.90106 0.0
N5408 N 0.9854 0.14769 0.87846 0.0
N5409 N 0.00896 0.13591 0.90522 0.0
H5410 H 0.98853 0.15096 0.91176 0.0
H5411 H 0.99891 0.1465 0.91498 0.0
H5412 H 0.01499 0.13257 0.90375 0.0
H5413 H 0.00718 0.13561 0.91201 0.0
H5414 H 0.98613 0.14586 0.87172 0.0
H5415 H 0.9791 0.15048 0.87991 0.0
H5416 H 0.99976 0.14513 0.86858 0.0
H5417 H 0.00928 0.13907 0.87192 0.0
C5418 C 0.61086 0.24604 0.65094 0.0
C5419 C 0.60927 0.23956 0.64405 0.0
C5420 C 0.61535 0.25009 0.63274 0.0
C5421 C 0.61797 0.25603 0.63976 0.0
N5422 N 0.61874 0.25966 0.6556 0.0
N5423 N 0.61074 0.23495 0.6285 0.0
C5424 C 0.61582 0.25404 0.64888 0.0
C5425 C 0.61165 0.24149 0.63495 0.0
N5426 N 0.60743 0.24465 0.6594 0.0
N5427 N 0.61635 0.25273 0.62395 0.0
H5428 H 0.60806 0.22857 0.62984 0.0
H5429 H 0.61326 0.23556 0.62197 0.0
H5430 H 0.61907 0.25897 0.62214 0.0
H5431 H 0.61376 0.24912 0.61849 0.0
H5432 H 0.60752 0.24949 0.66449 0.0
H5433 H 0.6038 0.23887 0.66114 0.0
H5434 H 0.61838 0.25808 0.66243 0.0
H5435 H 0.62201 0.26577 0.6543 0.0
C5436 C 0.51561 0.86342 0.38627 0.0
C5437 C 0.51679 0.85988 0.39512 0.0
C5438 C 0.5011 0.86389 0.39882 0.0
C5439 C 0.50034 0.86839 0.39041 0.0
N5440 N 0.50681 0.8729 0.37619 0.0
N5441 N 0.51098 0.85719 0.41008 0.0
C5442 C 0.50756 0.86822 0.38412 0.0
C5443 C 0.50959 0.86017 0.40145 0.0
N5444 N 0.52214 0.862 0.37989 0.0
N5445 N 0.49366 0.8631 0.40423 0.0
H5446 H 0.51705 0.8543 0.41219 0.0
H5447 H 0.50638 0.8581 0.41531 0.0
H5448 H 0.48739 0.86579 0.40247 0.0
H5449 H 0.49347 0.85918 0.41006 0.0
H5450 H 0.52133 0.86354 0.37308 0.0
H5451 H 0.52816 0.85861 0.38126 0.0
H5452 H 0.51218 0.87401 0.37179 0.0
H5453 H 0.50086 0.87612 0.3742 0.0
C5454 C 0.89595 0.76566 0.13587 0.0
C5455 C 0.89851 0.76747 0.14495 0.0
C5456 C 0.8922 0.75286 0.14968 0.0
C5457 C 0.88986 0.751 0.14058 0.0
N5458 N 0.89109 0.75456 0.12479 0.0
N5459 N 0.90074 0.76216 0.16016 0.0
C5460 C 0.89226 0.75707 0.1336 0.0
C5461 C 0.89714 0.76086 0.15176 0.0
N5462 N 0.89666 0.77231 0.1295 0.0
N5463 N 0.88949 0.74709 0.15636 0.0
H5464 H 0.90436 0.76795 0.16192 0.0
H5465 H 0.90081 0.75723 0.16517 0.0
H5466 H 0.88625 0.74098 0.15504 0.0
H5467 H 0.88999 0.74857 0.16322 0.0
H5468 H 0.89399 0.77179 0.12302 0.0
H5469 H 0.89932 0.77869 0.13089 0.0
H5470 H 0.89352 0.75828 0.11934 0.0
H5471 H 0.88838 0.74832 0.12294 0.0
C5472 C 0.61805 0.9976 0.85387 0.0
C5473 C 0.60989 0.99294 0.85582 0.0
C5474 C 0.60617 0.00465 0.8669 0.0
C5475 C 0.61527 0.00766 0.86668 0.0
N5476 N 0.62983 0.00753 0.85938 0.0
N5477 N 0.59446 0.99745 0.85818 0.0
C5478 C 0.62119 0.00437 0.85992 0.0
C5479 C 0.6033 0.99794 0.86067 0.0
N5480 N 0.62202 0.99655 0.84562 0.0
N5481 N 0.60028 0.00808 0.87312 0.0
H5482 H 0.59248 0.99399 0.85236 0.0
H5483 H 0.58944 1.00153 0.86096 0.0
H5484 H 0.60202 0.01324 0.87758 0.0
H5485 H 0.59386 0.00537 0.87412 0.0
H5486 H 0.62753 1.00038 0.84348 0.0
H5487 H 0.61896 0.99274 0.84053 0.0
H5488 H 0.63468 0.00463 0.85517 0.0
H5489 H 0.63227 0.01268 0.86352 0.0
C5490 C 0.7606 0.85608 0.61011 0.0
C5491 C 0.76688 0.86302 0.60799 0.0
C5492 C 0.75621 0.8744 0.61371 0.0
C5493 C 0.75055 0.86739 0.61692 0.0
N5494 N 0.74731 0.85155 0.6186 0.0
N5495 N 0.77109 0.87875 0.6084 0.0
C5496 C 0.75269 0.85822 0.61517 0.0
C5497 C 0.76476 0.87219 0.60988 0.0
N5498 N 0.76212 0.84748 0.6071 0.0
N5499 N 0.75336 0.88316 0.61429 0.0
H5500 H 0.77742 0.87742 0.60561 0.0
H5501 H 0.77036 0.8854 0.61055 0.0
H5502 H 0.74714 0.88494 0.61709 0.0
H5503 H 0.75673 0.88855 0.6113 0.0
H5504 H 0.75741 0.84229 0.60761 0.0
H5505 H 0.76785 0.84569 0.60341 0.0
H5506 H 0.74904 0.84473 0.61855 0.0
H5507 H 0.74125 0.85288 0.62194 0.0
C5508 C 0.90141 0.01229 0.36421 0.0
C5509 C 0.89479 0.01695 0.35907 0.0
C5510 C 0.88363 0.00514 0.36258 0.0
C5511 C 0.89029 1.00047 0.36763 0.0
N5512 N 0.90589 0.99838 0.37169 0.0
N5513 N 0.88021 0.01708 0.35184 0.0
C5514 C 0.89931 0.00366 0.36792 0.0
C5515 C 0.88607 0.01313 0.35778 0.0
N5516 N 0.90957 0.01628 0.36587 0.0
N5517 N 0.87492 1.00207 0.3626 0.0
H5518 H 0.88177 0.02295 0.34827 0.0
H5519 H 0.8741 0.01419 0.34988 0.0
H5520 H 0.87302 0.99603 0.36569 0.0
H5521 H 0.8695 0.00568 0.35996 0.0
H5522 H 0.91429 0.01375 0.37042 0.0
H5523 H 0.9114 0.02252 0.36317 0.0
H5524 H 0.91275 0.99987 0.37135 0.0
H5525 H 0.90454 0.99205 0.37448 0.0
C5526 C 0.74036 0.13409 0.11439 0.0
C5527 C 0.73974 0.14256 0.10994 0.0
C5528 C 0.75574 0.14551 0.1133 0.0
C5529 C 0.75599 0.13761 0.11869 0.0
N5530 N 0.7486 0.12449 0.12484 0.0
N5531 N 0.74654 0.15667 0.10554 0.0
C5532 C 0.74834 0.13189 0.11931 0.0
C5533 C 0.74738 0.14834 0.10943 0.0
N5534 N 0.73339 0.12806 0.11374 0.0
N5535 N 0.76353 0.15025 0.11184 0.0
H5536 H 0.74057 0.1589 0.10253 0.0
H5537 H 0.75153 0.16162 0.1058 0.0
H5538 H 0.76972 0.14833 0.11462 0.0
H5539 H 0.76405 0.15559 0.1073 0.0
H5540 H 0.73376 0.12142 0.116 0.0
H5541 H 0.72742 0.12947 0.11028 0.0
H5542 H 0.74294 0.12067 0.12651 0.0
H5543 H 0.75445 0.12243 0.12819 0.0
C5544 C 0.60713 0.01019 0.64771 0.0
C5545 C 0.61318 0.01763 0.6474 0.0
C5546 C 0.62372 0.00879 0.6381 0.0
C5547 C 0.61773 1.00132 0.63854 0.0
N5548 N 0.60471 0.99415 0.64509 0.0
N5549 N 0.62793 0.02355 0.64387 0.0
C5550 C 0.60974 1.00179 0.64379 0.0
C5551 C 0.6217 0.01678 0.64307 0.0
N5552 N 0.59877 0.01127 0.65147 0.0
N5553 N 0.6312 0.00832 0.6327 0.0
H5554 H 0.62665 0.02954 0.64736 0.0
H5555 H 0.63459 0.023 0.64171 0.0
H5556 H 0.63311 1.00244 0.62932 0.0
H5557 H 0.63525 0.01386 0.63117 0.0
H5558 H 0.59366 0.00646 0.65105 0.0
H5559 H 0.59669 0.01727 0.65452 0.0
H5560 H 0.59928 0.99377 0.64953 0.0
H5561 H 0.60646 0.98793 0.64226 0.0
C5562 C 0.74564 0.85635 0.39531 0.0
C5563 C 0.73954 0.8634 0.39756 0.0
C5564 C 0.75042 0.87461 0.39188 0.0
C5565 C 0.75593 0.86751 0.38861 0.0
N5566 N 0.75877 0.85161 0.38668 0.0
N5567 N 0.73563 0.87922 0.39725 0.0
C5568 C 0.75357 0.85837 0.39023 0.0
C5569 C 0.74183 0.87254 0.39572 0.0
N5570 N 0.74396 0.84776 0.39824 0.0
N5571 N 0.75344 0.88332 0.39139 0.0
H5572 H 0.72928 0.87799 0.40003 0.0
H5573 H 0.73648 0.88587 0.39514 0.0
H5574 H 0.75968 0.88501 0.38858 0.0
H5575 H 0.75018 0.88874 0.39445 0.0
H5576 H 0.74857 0.84247 0.39766 0.0
H5577 H 0.73823 0.84604 0.40196 0.0
H5578 H 0.75686 0.84485 0.38664 0.0
H5579 H 0.76482 0.85284 0.38329 0.0
C5580 C 0.9004 0.99363 0.14128 0.0
C5581 C 0.89389 0.98901 0.1466 0.0
C5582 C 0.88267 1.0008 0.14324 0.0
C5583 C 0.88923 0.00544 0.13804 0.0
N5584 N 0.90475 0.00749 0.13366 0.0
N5585 N 0.87948 0.98896 0.15415 0.0
C5586 C 0.89824 1.00224 0.13758 0.0
C5587 C 0.88521 0.99284 0.14805 0.0
N5588 N 0.9085 0.9896 0.13944 0.0
N5589 N 0.87396 0.00386 0.14337 0.0
H5590 H 0.88112 0.98312 0.15774 0.0
H5591 H 0.87342 0.99186 0.15621 0.0
H5592 H 0.872 0.00988 0.14026 0.0
H5593 H 0.8686 1.00026 0.14614 0.0
H5594 H 0.91312 0.9921 0.13477 0.0
H5595 H 0.91038 0.98335 0.1421 0.0
H5596 H 0.91161 0.00598 0.13387 0.0
H5597 H 0.90336 0.01381 0.13086 0.0
C5598 C 0.76479 0.13476 0.89471 0.0
C5599 C 0.76688 0.14385 0.89699 0.0
C5600 C 0.75245 0.14887 0.89048 0.0
C5601 C 0.7503 0.13976 0.88842 0.0
N5602 N 0.75334 0.12391 0.89016 0.0
N5603 N 0.76207 0.1593 0.89872 0.0
C5604 C 0.75613 0.13266 0.89106 0.0
C5605 C 0.76051 0.15084 0.89537 0.0
N5606 N 0.77122 0.1282 0.89566 0.0
N5607 N 0.74693 0.15565 0.88753 0.0
H5608 H 0.76791 0.16098 0.90229 0.0
H5609 H 0.75731 0.16447 0.8986 0.0
H5610 H 0.74078 0.15443 0.8843 0.0
H5611 H 0.74863 0.16246 0.88781 0.0
H5612 H 0.77048 0.12166 0.8932 0.0
H5613 H 0.77762 0.12946 0.8983 0.0
H5614 H 0.75687 0.11841 0.89277 0.0
H5615 H 0.74705 0.12218 0.88747 0.0
C5616 C 0.85903 0.60695 0.99738 0.0
C5617 C 0.85961 0.61282 0.98981 0.0
C5618 C 0.86911 0.62327 0.99855 0.0
C5619 C 0.86839 0.61747 0.00614 0.0
N5620 N 0.86137 0.60482 0.01351 0.0
N5621 N 0.86364 0.62732 0.98362 0.0
C5622 C 0.86292 0.60963 0.00578 0.0
C5623 C 0.86419 0.62122 0.99053 0.0
N5624 N 0.85505 0.59867 0.99644 0.0
N5625 N 0.87472 0.6306 0.99891 0.0
H5626 H 0.86019 0.62601 0.97762 0.0
H5627 H 0.86599 0.63393 0.98406 0.0
H5628 H 0.87809 0.63255 0.00479 0.0
H5629 H 0.87645 0.63446 0.9933 0.0
H5630 H 0.85526 0.59366 1.00136 0.0
H5631 H 0.85203 0.59654 0.99044 0.0
H5632 H 0.85677 0.59953 0.01395 0.0
H5633 H 0.86417 0.60663 0.01972 0.0
C5634 C 0.36421 0.88473 0.01703 0.0
C5635 C 0.35983 0.89321 0.01798 0.0
C5636 C 0.36313 0.89671 1.00207 0.0
C5637 C 0.36844 0.88876 1.0015 0.0
N5638 N 0.3745 0.87533 0.00838 0.0
N5639 N 0.35555 0.90761 0.01171 0.0
C5640 C 0.36905 0.88277 0.00895 0.0
C5641 C 0.35934 0.89927 0.01055 0.0
N5642 N 0.36357 0.87849 0.02381 0.0
N5643 N 0.36166 0.90173 0.99447 0.0
H5644 H 0.35259 0.90966 0.01777 0.0
H5645 H 0.35584 0.91273 0.00691 0.0
H5646 H 0.36438 0.90002 0.9882 0.0
H5647 H 0.35716 0.90713 0.99417 0.0
H5648 H 0.36578 0.87185 0.0232 0.0
H5649 H 0.36018 0.87974 0.02985 0.0
H5650 H 0.37616 0.87128 0.01388 0.0
H5651 H 0.37779 0.87345 1.00243 0.0
C5652 C 0.87175 0.60917 0.76358 0.0
C5653 C 0.86288 0.61012 0.76713 0.0
C5654 C 0.85836 0.61858 0.75359 0.0
C5655 C 0.86747 0.61864 0.75065 0.0
N5656 N 0.88299 0.61433 0.75277 0.0
N5657 N 0.84784 0.61623 0.76594 0.0
C5658 C 0.87421 0.61396 0.75559 0.0
C5659 C 0.85618 0.61489 0.7622 0.0
N5660 N 0.87776 0.60356 0.76778 0.0
N5661 N 0.85178 0.62199 0.74808 0.0
H5662 H 0.84595 0.61352 0.77216 0.0
H5663 H 0.84299 0.62052 0.76321 0.0
H5664 H 0.85318 0.62476 0.74175 0.0
H5665 H 0.8449 0.62137 0.74938 0.0
H5666 H 0.88403 0.60184 0.7651 0.0
H5667 H 0.8762 0.60002 0.77367 0.0
H5668 H 0.88842 0.61199 0.75657 0.0
H5669 H 0.88493 0.61742 0.74673 0.0
C5670 C 0.14874 0.10748 0.50967 0.0
C5671 C 0.14776 0.11309 0.51739 0.0
C5672 C 0.13785 0.12329 0.50881 0.0
C5673 C 0.13898 0.11777 0.50107 0.0
N5674 N 0.14673 0.1057 0.49345 0.0
N5675 N 0.14291 0.12719 0.52392 0.0
C5676 C 0.14484 0.1102 0.50129 0.0
C5677 C 0.14276 0.12126 0.51684 0.0
N5678 N 0.1531 0.09938 0.51044 0.0
N5679 N 0.13186 0.13032 0.50858 0.0
H5680 H 0.14635 0.12589 0.52993 0.0
H5681 H 0.14023 0.13368 0.52363 0.0
H5682 H 0.12847 0.13226 0.50272 0.0
H5683 H 0.12985 0.13391 0.51428 0.0
H5684 H 0.15322 0.09451 0.50537 0.0
H5685 H 0.15613 0.09723 0.51643 0.0
H5686 H 0.15161 0.10067 0.49293 0.0
H5687 H 0.14393 0.10754 0.48725 0.0
C5688 C 0.1483 0.89899 0.75997 0.0
C5689 C 0.1433 0.8972 0.76797 0.0
C5690 C 0.1338 0.88639 0.75969 0.0
C5691 C 0.13866 0.88835 0.75167 0.0
N5692 N 0.14932 0.89758 0.74363 0.0
N5693 N 0.13024 0.89063 0.77512 0.0
C5694 C 0.14553 0.89501 0.75164 0.0
C5695 C 0.13573 0.89132 0.76773 0.0
N5696 N 0.1559 0.90421 0.76043 0.0
N5697 N 0.12752 0.87961 0.7597 0.0
H5698 H 0.13147 0.89408 0.78114 0.0
H5699 H 0.12408 0.88724 0.7751 0.0
H5700 H 0.12563 0.87614 0.75387 0.0
H5701 H 0.12456 0.87706 0.76554 0.0
H5702 H 0.16041 0.905 0.7551 0.0
H5703 H 0.15807 0.9073 0.76638 0.0
H5704 H 0.15374 0.90301 0.74298 0.0
H5705 H 0.14746 0.89473 0.73746 0.0
C5706 C 0.64519 0.38477 0.4913 0.0
C5707 C 0.6478 0.39382 0.48946 0.0
C5708 C 0.64144 0.39868 0.50401 0.0
C5709 C 0.63905 0.3896 0.50592 0.0
N5710 N 0.64024 0.37378 0.50245 0.0
N5711 N 0.65007 0.40907 0.49469 0.0
C5712 C 0.64146 0.38257 0.4999 0.0
C5713 C 0.64642 0.40069 0.49602 0.0
N5714 N 0.6459 0.37836 0.4847 0.0
N5715 N 0.63872 0.40541 0.50972 0.0
H5716 H 0.65372 0.41077 0.48891 0.0
H5717 H 0.65012 0.41411 0.49959 0.0
H5718 H 0.63544 0.40413 0.51582 0.0
H5719 H 0.63926 0.41225 0.5082 0.0
H5720 H 0.6432 0.37189 0.48525 0.0
H5721 H 0.64859 0.3797 0.47833 0.0
H5722 H 0.64267 0.3683 0.49878 0.0
H5723 H 0.63749 0.37198 0.50868 0.0
C5724 C 0.87105 0.39016 0.73888 0.0
C5725 C 0.86362 0.39622 0.73865 0.0
C5726 C 0.86137 0.39411 0.75498 0.0
C5727 C 0.86808 0.38729 0.75495 0.0
N5728 N 0.879 0.37828 0.74691 0.0
N5729 N 0.8512 0.40353 0.7462 0.0
C5730 C 0.87288 0.3852 0.74692 0.0
C5731 C 0.85868 0.39813 0.74665 0.0
N5732 N 0.87651 0.38933 0.73147 0.0
N5733 N 0.85766 0.39679 0.76299 0.0
H5734 H 0.84909 0.40665 0.74025 0.0
H5735 H 0.84672 0.40443 0.75154 0.0
H5736 H 0.85947 0.39391 0.76917 0.0
H5737 H 0.85338 0.40233 0.76365 0.0
H5738 H 0.88258 0.38579 0.73149 0.0
H5739 H 0.87534 0.39279 0.72545 0.0
H5740 H 0.88189 0.37564 0.74107 0.0
H5741 H 0.88082 0.37477 0.75275 0.0
C5742 C 0.63552 0.60866 0.24331 0.0
C5743 C 0.6444 0.60958 0.23977 0.0
C5744 C 0.64895 0.61801 0.25332 0.0
C5745 C 0.63984 0.6181 0.25624 0.0
N5746 N 0.6243 0.61385 0.25413 0.0
N5747 N 0.65948 0.61559 0.24098 0.0
C5748 C 0.63308 0.61345 0.25131 0.0
C5749 C 0.65112 0.61431 0.2447 0.0
N5750 N 0.62949 0.60308 0.2391 0.0
N5751 N 0.65555 0.62138 0.25884 0.0
H5752 H 0.66136 0.61287 0.23476 0.0
H5753 H 0.66435 0.61986 0.24372 0.0
H5754 H 0.65415 0.62416 0.26517 0.0
H5755 H 0.66242 0.62074 0.25754 0.0
H5756 H 0.62322 0.60138 0.24177 0.0
H5757 H 0.63105 0.59954 0.23321 0.0
H5758 H 0.61887 0.61153 0.25032 0.0
H5759 H 0.62238 0.61694 0.26016 0.0
C5760 C 0.50964 0.65007 0.89805 0.0
C5761 C 0.51763 0.64798 0.89317 0.0
C5762 C 0.50927 0.63693 0.88404 0.0
C5763 C 0.50127 0.63913 0.88882 0.0
N5764 N 0.49327 0.64887 0.89905 0.0
N5765 N 0.52477 0.64085 0.8804 0.0
C5766 C 0.50128 0.64607 0.89541 0.0
C5767 C 0.51736 0.64183 0.88582 0.0
N5768 N 0.51011 0.65562 0.90542 0.0
N5769 N 0.50922 0.62994 0.878 0.0
H5770 H 0.53083 0.64427 0.88154 0.0
H5771 H 0.52475 0.63724 0.87437 0.0
H5772 H 0.50334 0.62649 0.87618 0.0
H5773 H 0.51503 0.62722 0.87514 0.0
H5774 H 0.50476 0.65666 0.90986 0.0
H5775 H 0.51608 0.65874 0.90748 0.0
H5776 H 0.49265 0.65447 0.90326 0.0
H5777 H 0.48708 0.64601 0.89726 0.0
C5778 C 0.61241 0.26144 0.15003 0.0
C5779 C 0.61039 0.26776 0.1431 0.0
C5780 C 0.61603 0.25707 0.1317 0.0
C5781 C 0.61908 0.25131 0.1387 0.0
N5782 N 0.62071 0.24802 0.15455 0.0
N5783 N 0.611 0.27206 0.1274 0.0
C5784 C 0.61737 0.25347 0.14788 0.0
C5785 C 0.61233 0.26567 0.13393 0.0
N5786 N 0.60939 0.26296 0.15862 0.0
N5787 N 0.61662 0.25426 0.12293 0.0
H5788 H 0.60831 0.27843 0.12875 0.0
H5789 H 0.6132 0.27134 0.12076 0.0
H5790 H 0.61934 0.24802 0.12111 0.0
H5791 H 0.61372 0.25772 0.11754 0.0
H5792 H 0.60981 0.25822 0.16379 0.0
H5793 H 0.60577 0.26873 0.16043 0.0
H5794 H 0.62068 0.24976 0.16136 0.0
H5795 H 0.62399 0.24193 0.15322 0.0
C5796 C 0.99011 0.36478 0.38443 0.0
C5797 C 0.98936 0.36016 0.3928 0.0
C5798 C 0.00538 0.36323 0.39595 0.0
C5799 C 0.00578 0.36875 0.38815 0.0
N5800 N 0.99858 0.37529 0.37511 0.0
N5801 N 0.99597 0.35543 0.4069 0.0
C5802 C 0.99817 0.36962 0.38239 0.0
C5803 C 0.99694 0.35944 0.39864 0.0
N5804 N 0.98317 0.36436 0.37834 0.0
N5805 N 0.0131 0.36155 0.40073 0.0
H5806 H 0.98993 0.35248 0.40903 0.0
H5807 H 1.00091 0.35553 0.41189 0.0
H5808 H 0.01935 0.36428 0.39892 0.0
H5809 H 0.01351 0.3569 0.40598 0.0
H5810 H 0.98363 0.36675 0.37174 0.0
H5811 H 0.97714 0.36097 0.37963 0.0
H5812 H 0.99297 0.37713 0.37129 0.0
H5813 H 0.00449 0.3786 0.37317 0.0
C5814 C 0.894 0.74594 0.65063 0.0
C5815 C 0.89652 0.7399 0.64362 0.0
C5816 C 0.89127 0.75086 0.63229 0.0
C5817 C 0.88773 0.75631 0.6393 0.0
N5818 N 0.8852 0.75903 0.65513 0.0
N5819 N 0.89684 0.73612 0.62778 0.0
C5820 C 0.889 0.75388 0.64848 0.0
C5821 C 0.89503 0.74226 0.63443 0.0
N5822 N 0.8966 0.74419 0.65932 0.0
N5823 N 0.8911 0.75395 0.62359 0.0
H5824 H 0.89959 0.72976 0.62906 0.0
H5825 H 0.89499 0.73702 0.62105 0.0
H5826 H 0.88834 0.76019 0.62184 0.0
H5827 H 0.89436 0.75073 0.61826 0.0
H5828 H 0.89581 0.74875 0.66461 0.0
H5829 H 0.90024 0.73844 0.66113 0.0
H5830 H 0.8849 0.75708 0.66188 0.0
H5831 H 0.88186 0.7651 0.65383 0.0
C5832 C 0.51158 0.36165 0.60616 0.0
C5833 C 0.51785 0.35954 0.6131 0.0
C5834 C 0.50707 0.365 0.6245 0.0
C5835 C 0.50136 0.36815 0.6175 0.0
N5836 N 0.49818 0.36999 0.60165 0.0
N5837 N 0.52204 0.35993 0.62884 0.0
C5838 C 0.50359 0.36656 0.60832 0.0
C5839 C 0.51569 0.36134 0.62228 0.0
N5840 N 0.51317 0.35875 0.59754 0.0
N5841 N 0.50419 0.36545 0.63326 0.0
H5842 H 0.52842 0.35727 0.6275 0.0
H5843 H 0.52127 0.36203 0.63551 0.0
H5844 H 0.49793 0.36814 0.63506 0.0
H5845 H 0.50762 0.36248 0.63863 0.0
H5846 H 0.50846 0.35923 0.59234 0.0
H5847 H 0.51896 0.35516 0.59572 0.0
H5848 H 0.49996 0.37006 0.59485 0.0
H5849 H 0.49208 0.37324 0.60299 0.0
C5850 C 0.89807 0.26052 0.86026 0.0
C5851 C 0.89578 0.26856 0.86498 0.0
C5852 C 0.88465 0.26018 0.87401 0.0
C5853 C 0.88711 0.25212 0.86945 0.0
N5854 N 0.89716 0.24413 0.85951 0.0
N5855 N 0.88827 0.2758 0.87747 0.0
C5856 C 0.89416 0.25214 0.86298 0.0
C5857 C 0.88947 0.26831 0.8722 0.0
N5858 N 0.90371 0.26096 0.85297 0.0
N5859 N 0.87752 0.26013 0.87988 0.0
H5860 H 0.89161 0.28188 0.87631 0.0
H5861 H 0.88452 0.2758 0.88342 0.0
H5862 H 0.8741 0.25424 0.8817 0.0
H5863 H 0.87464 0.26595 0.88256 0.0
H5864 H 0.9049 0.25557 0.84862 0.0
H5865 H 0.90675 0.26695 0.85085 0.0
H5866 H 0.90285 0.24353 0.85543 0.0
H5867 H 0.89436 0.23792 0.86133 0.0
C5868 C 0.99553 0.64476 0.10583 0.0
C5869 C 0.9895 0.64726 0.11285 0.0
C5870 C 1.0005 0.64203 0.12415 0.0
C5871 C 0.00594 0.63849 0.11712 0.0
N5872 N 0.00861 0.63597 0.10127 0.0
N5873 N 0.98577 0.64757 0.12871 0.0
C5874 C 1.00348 0.63977 0.10795 0.0
C5875 C 0.99189 0.64578 0.12204 0.0
N5876 N 0.99375 0.64737 0.09715 0.0
N5877 N 0.00363 0.64185 0.13284 0.0
H5878 H 0.9794 0.65031 0.12745 0.0
H5879 H 0.9867 0.64572 0.13543 0.0
H5880 H 0.00989 0.63911 0.13457 0.0
H5881 H 1.00042 0.64511 0.13818 0.0
H5882 H 0.99829 0.6466 0.09184 0.0
H5883 H 0.98799 0.65102 0.09536 0.0
H5884 H 0.00662 0.63567 0.09454 0.0
H5885 H 0.01468 0.63264 0.10255 0.0
C5886 C 0.6096 0.7437 0.37191 0.0
C5887 C 0.61081 0.73991 0.36317 0.0
C5888 C 0.61937 0.75335 0.35853 0.0
C5889 C 0.61917 0.75652 0.36756 0.0
N5890 N 0.61444 0.7548 0.38301 0.0
N5891 N 0.61738 0.7407 0.34829 0.0
C5892 C 0.61432 0.75175 0.37429 0.0
C5893 C 0.61577 0.74466 0.35648 0.0
N5894 N 0.6038 0.73966 0.37785 0.0
N5895 N 0.62294 0.7587 0.3519 0.0
H5896 H 0.61476 0.73441 0.3465 0.0
H5897 H 0.62181 0.74332 0.34351 0.0
H5898 H 0.62565 0.76507 0.3532 0.0
H5899 H 0.6225 0.7572 0.34504 0.0
H5900 H 0.60191 0.7425 0.38399 0.0
H5901 H 0.6003 0.73374 0.37634 0.0
H5902 H 0.61196 0.75112 0.38846 0.0
H5903 H 0.61749 0.76088 0.38487 0.0
C5904 C 0.90098 0.51105 0.64374 0.0
C5905 C 0.894 0.51698 0.64658 0.0
C5906 C 0.88262 0.50581 0.64189 0.0
C5907 C 0.88954 0.50048 0.63802 0.0
N5908 N 0.90529 0.49803 0.63474 0.0
N5909 N 0.87812 0.52048 0.64766 0.0
C5910 C 0.89873 0.50307 0.63885 0.0
C5911 C 0.88479 0.51445 0.64554 0.0
N5912 N 0.90975 0.51295 0.64592 0.0
N5913 N 0.87397 0.50257 0.64213 0.0
H5914 H 0.87942 0.52686 0.65035 0.0
H5915 H 0.87133 0.51946 0.64615 0.0
H5916 H 0.8722 0.49629 0.63946 0.0
H5917 H 0.86875 0.5057 0.64564 0.0
H5918 H 0.91508 0.50849 0.64488 0.0
H5919 H 0.91164 0.51874 0.64947 0.0
H5920 H 0.91197 0.5001 0.63412 0.0
H5921 H 0.90393 0.49193 0.63147 0.0
C5922 C 0.74408 0.65048 0.89181 0.0
C5923 C 0.7395 0.64401 0.89722 0.0
C5924 C 0.75143 0.63286 0.89411 0.0
C5925 C 0.75602 0.63938 0.88881 0.0
N5926 N 0.75793 0.65483 0.88417 0.0
N5927 N 0.73956 0.62973 0.90501 0.0
C5928 C 0.75273 0.64834 0.88818 0.0
C5929 C 0.74342 0.6354 0.89883 0.0
N5930 N 0.73997 0.65851 0.88982 0.0
N5931 N 0.7546 0.62419 0.89441 0.0
H5932 H 0.73369 0.63137 0.90854 0.0
H5933 H 0.74252 0.62374 0.90719 0.0
H5934 H 0.76065 0.62224 0.89137 0.0
H5935 H 0.75104 0.61884 0.89726 0.0
H5936 H 0.74245 0.66307 0.88509 0.0
H5937 H 0.7337 0.66036 0.89244 0.0
H5938 H 0.75635 0.66168 0.88426 0.0
H5939 H 0.76427 0.65346 0.88142 0.0
C5940 C 0.6209 0.48874 0.13958 0.0
C5941 C 0.61349 0.48854 0.14566 0.0
C5942 C 0.61137 0.5049 0.14367 0.0
C5943 C 0.61807 0.50486 0.13684 0.0
N5944 N 0.62886 0.49678 0.12771 0.0
N5945 N 0.60113 0.49614 0.15304 0.0
C5946 C 0.62277 0.4968 0.13466 0.0
C5947 C 0.60861 0.49656 0.14764 0.0
N5948 N 0.62629 0.4813 0.13869 0.0
N5949 N 0.60774 0.51293 0.14643 0.0
H5950 H 0.59896 0.49018 0.1561 0.0
H5951 H 0.5967 0.50151 0.15398 0.0
H5952 H 0.6096 0.51911 0.14359 0.0
H5953 H 0.60348 0.51358 0.15198 0.0
H5954 H 0.63236 0.4813 0.13514 0.0
H5955 H 0.6251 0.47527 0.14212 0.0
H5956 H 0.63167 0.49093 0.12502 0.0
H5957 H 0.63072 0.50262 0.12424 0.0
C5958 C 0.76761 0.3703 0.39016 0.0
C5959 C 0.76777 0.36309 0.39648 0.0
C5960 C 0.75134 0.36122 0.39478 0.0
C5961 C 0.75141 0.36768 0.38772 0.0
N5962 N 0.75956 0.37802 0.37815 0.0
N5963 N 0.76003 0.35116 0.4044 0.0
C5964 C 0.75953 0.37216 0.38529 0.0
C5965 C 0.75968 0.35844 0.39874 0.0
N5966 N 0.77515 0.37551 0.38898 0.0
N5967 N 0.74328 0.35782 0.39774 0.0
H5968 H 0.76599 0.349 0.40748 0.0
H5969 H 0.7546 0.34687 0.40557 0.0
H5970 H 0.7371 0.35968 0.3949 0.0
H5971 H 0.74263 0.35376 0.40344 0.0
H5972 H 0.77522 0.38145 0.38523 0.0
H5973 H 0.78121 0.37431 0.39237 0.0
H5974 H 0.76542 0.38063 0.37529 0.0
H5975 H 0.75371 0.37988 0.37469 0.0
C5976 C 0.88372 0.48935 0.86434 0.0
C5977 C 0.89246 0.48818 0.86056 0.0
C5978 C 0.89626 0.50388 0.86443 0.0
C5979 C 0.88798 0.50465 0.86915 0.0
N5980 N 0.8739 0.49817 0.87408 0.0
N5981 N 0.90735 0.49399 0.85746 0.0
C5982 C 0.88169 0.49742 0.86918 0.0
C5983 C 0.8988 0.49538 0.86066 0.0
N5984 N 0.87731 0.48282 0.86312 0.0
N5985 N 0.90165 0.51132 0.86347 0.0
H5986 H 0.90939 0.48791 0.85454 0.0
H5987 H 0.9126 0.49859 0.85822 0.0
H5988 H 0.89996 0.5176 0.86619 0.0
H5989 H 0.90736 0.5115 0.85938 0.0
H5990 H 0.87055 0.48362 0.86485 0.0
H5991 H 0.87859 0.47678 0.85971 0.0
H5992 H 0.86954 0.4928 0.87533 0.0
H5993 H 0.872 0.50412 0.87734 0.0
C5994 C 0.76313 0.65058 0.11518 0.0
C5995 C 0.76791 0.64407 0.11001 0.0
C5996 C 0.75616 0.63277 0.11326 0.0
C5997 C 0.75137 0.63933 0.11831 0.0
N5998 N 0.7491 0.65487 0.12252 0.0
N5999 N 0.76823 0.62959 0.1026 0.0
C6000 C 0.75448 0.64837 0.11875 0.0
C6001 C 0.76418 0.63534 0.10858 0.0
N6002 N 0.76705 0.65874 0.11701 0.0
N6003 N 0.75318 0.62403 0.11316 0.0
H6004 H 0.77413 0.63125 0.09911 0.0
H6005 H 0.76542 0.62348 0.10054 0.0
H6006 H 0.74713 0.62204 0.11618 0.0
H6007 H 0.75688 0.61868 0.11051 0.0
H6008 H 0.76442 0.66338 0.12159 0.0
H6009 H 0.77332 0.66066 0.11443 0.0
H6010 H 0.75054 0.66174 0.12227 0.0
H6011 H 0.74274 0.65344 0.12522 0.0
C6012 C 0.60753 0.50986 0.35992 0.0
C6013 C 0.61366 0.51724 0.36013 0.0
C6014 C 0.62437 0.50819 0.36903 0.0
C6015 C 0.61829 0.5008 0.3687 0.0
N6016 N 0.60502 0.49382 0.36246 0.0
N6017 N 0.62856 0.52297 0.36328 0.0
C6018 C 0.61016 0.50139 0.36369 0.0
C6019 C 0.62229 0.51626 0.36421 0.0
N6020 N 0.59906 0.51106 0.35642 0.0
N6021 N 0.63201 0.5076 0.3742 0.0
H6022 H 0.62724 0.52901 0.35989 0.0
H6023 H 0.63528 0.52233 0.36524 0.0
H6024 H 0.63396 0.50167 0.37746 0.0
H6025 H 0.63616 0.51308 0.37566 0.0
H6026 H 0.59392 0.5063 0.35694 0.0
H6027 H 0.59696 0.51711 0.35349 0.0
H6028 H 0.59946 0.49353 0.35818 0.0
H6029 H 0.60679 0.48756 0.36517 0.0
C6030 C 0.74648 0.35847 0.60865 0.0
C6031 C 0.73859 0.36368 0.61032 0.0
C6032 C 0.74706 0.37324 0.62093 0.0
C6033 C 0.75497 0.36816 0.6191 0.0
N6034 N 0.7628 0.35715 0.61008 0.0
N6035 N 0.7317 0.37702 0.6166 0.0
C6036 C 0.75486 0.36116 0.61258 0.0
C6037 C 0.73899 0.37137 0.61603 0.0
N6038 N 0.74588 0.35077 0.6036 0.0
N6039 N 0.74718 0.37967 0.62756 0.0
H6040 H 0.72565 0.37583 0.61317 0.0
H6041 H 0.73184 0.38325 0.61985 0.0
H6042 H 0.75306 0.38152 0.63099 0.0
H6043 H 0.74141 0.38283 0.63003 0.0
H6044 H 0.75112 0.34613 0.60292 0.0
H6045 H 0.73989 0.34865 0.60055 0.0
H6046 H 0.76337 0.35261 0.60475 0.0
H6047 H 0.76901 0.35896 0.61289 0.0
C6048 C 0.65278 0.88677 0.51147 0.0
C6049 C 0.65078 0.89493 0.51612 0.0
C6050 C 0.6399 0.89872 0.50424 0.0
C6051 C 0.64012 0.88963 0.50122 0.0
N6052 N 0.64736 0.87504 0.50143 0.0
N6053 N 0.64852 0.91039 0.51165 0.0
C6054 C 0.6468 0.88368 0.50461 0.0
C6055 C 0.64604 0.90155 0.51106 0.0
N6056 N 0.66101 0.8828 0.51257 0.0
N6057 N 0.63377 0.90465 0.50073 0.0
H6058 H 0.65425 0.91234 0.51529 0.0
H6059 H 0.64584 0.91543 0.50754 0.0
H6060 H 0.62938 0.90295 0.49549 0.0
H6061 H 0.63275 0.91108 0.50343 0.0
H6062 H 0.66318 0.8773 0.50876 0.0
H6063 H 0.66608 0.88587 0.5164 0.0
H6064 H 0.65151 0.87017 0.50438 0.0
H6065 H 0.64329 0.87263 0.49621 0.0
C6066 C 0.14412 0.60584 0.49563 0.0
C6067 C 0.14658 0.61288 0.4896 0.0
C6068 C 0.1414 0.62416 0.50064 0.0
C6069 C 0.13791 0.61712 0.50609 0.0
N6070 N 0.13542 0.60127 0.50876 0.0
N6071 N 0.14685 0.62874 0.48588 0.0
C6072 C 0.13918 0.60796 0.50361 0.0
C6073 C 0.1451 0.62206 0.49201 0.0
N6074 N 0.14672 0.59717 0.49382 0.0
N6075 N 0.14123 0.63285 0.50377 0.0
H6076 H 0.14955 0.62749 0.4795 0.0
H6077 H 0.145 0.63546 0.48682 0.0
H6078 H 0.13852 0.63457 0.51004 0.0
H6079 H 0.14446 0.6382 0.50055 0.0
H6080 H 0.14597 0.59186 0.49836 0.0
H6081 H 0.15032 0.59539 0.48803 0.0
H6082 H 0.13512 0.59454 0.50678 0.0
H6083 H 0.13213 0.60255 0.51486 0.0
C6084 C 0.64927 0.89602 0.74612 0.0
C6085 C 0.64273 0.89675 0.73914 0.0
C6086 C 0.63155 0.88904 0.7487 0.0
C6087 C 0.63806 0.88843 0.75569 0.0
N6088 N 0.65241 0.89281 0.76192 0.0
N6089 N 0.62723 0.8956 0.73429 0.0
C6090 C 0.6467 0.89241 0.75467 0.0
C6091 C 0.63373 0.89376 0.74059 0.0
N6092 N 0.65802 0.89847 0.74444 0.0
N6093 N 0.62337 0.88487 0.7497 0.0
H6094 H 0.62861 0.89892 0.72823 0.0
H6095 H 0.62037 0.89447 0.73531 0.0
H6096 H 0.62139 0.88174 0.7557 0.0
H6097 H 0.61872 0.88407 0.74449 0.0
H6098 H 0.66334 0.89719 0.74886 0.0
H6099 H 0.6601 0.90127 0.73832 0.0
H6100 H 0.65847 0.89636 0.76192 0.0
H6101 H 0.6507 0.89019 0.76824 0.0
C6102 C 0.36244 0.40085 0.99518 0.0
C6103 C 0.3599 0.39395 0.98902 0.0
C6104 C 0.36485 0.38242 0.99992 0.0
C6105 C 0.36844 0.38932 0.00549 0.0
N6106 N 0.37116 0.40508 0.00842 0.0
N6107 N 0.35938 0.37815 0.98507 0.0
C6108 C 0.36732 0.39854 1.00315 0.0
C6109 C 0.36122 0.38471 0.9913 0.0
N6110 N 0.35999 0.40959 0.99349 0.0
N6111 N 0.36486 0.37369 1.00292 0.0
H6112 H 0.35673 0.37954 0.9787 0.0
H6113 H 0.36112 0.37139 0.98592 0.0
H6114 H 0.36751 0.37183 0.00918 0.0
H6115 H 0.36156 0.36844 0.99961 0.0
H6116 H 0.3608 0.41482 0.99812 0.0
H6117 H 0.35644 0.41152 0.98772 0.0
H6118 H 0.37158 0.41184 0.00653 0.0
H6119 H 0.3744 0.40366 0.01451 0.0
C6120 C 0.35877 0.60974 0.74696 0.0
C6121 C 0.3646 0.6102 0.73935 0.0
C6122 C 0.37523 0.61962 0.74796 0.0
C6123 C 0.36945 0.61905 0.75558 0.0
N6124 N 0.35676 0.61225 0.76308 0.0
N6125 N 0.37913 0.61397 0.73306 0.0
C6126 C 0.36155 0.61367 0.75531 0.0
C6127 C 0.37307 0.61466 0.74 0.0
N6128 N 0.35044 0.60585 0.74609 0.0
N6129 N 0.38263 0.62514 0.74824 0.0
H6130 H 0.37775 0.61047 0.7271 0.0
H6131 H 0.38578 0.61623 0.73346 0.0
H6132 H 0.38466 0.62852 0.75408 0.0
H6133 H 0.38649 0.62677 0.74259 0.0
H6134 H 0.34546 0.60615 0.75105 0.0
H6135 H 0.34824 0.60281 0.74013 0.0
H6136 H 0.35141 0.60772 0.76359 0.0
H6137 H 0.35864 0.61508 0.76926 0.0
C6138 C 0.86077 0.10552 0.01029 0.0
C6139 C 0.85616 0.11214 0.01548 0.0
C6140 C 0.86035 0.12352 0.00417 0.0
C6141 C 0.86691 0.11749 1.00067 0.0
N6142 N 0.87297 0.10237 0.9999 0.0
N6143 N 0.84619 0.12455 0.01219 0.0
C6144 C 0.86696 0.10835 0.00352 0.0
C6145 C 0.85433 0.12042 0.01098 0.0
N6146 N 0.85808 0.09673 0.01069 0.0
N6147 N 0.85997 0.13222 1.00116 0.0
H6148 H 0.84107 0.12153 0.016 0.0
H6149 H 0.84412 0.13017 0.00849 0.0
H6150 H 0.86408 0.13465 0.99598 0.0
H6151 H 0.85592 0.13712 0.00421 0.0
H6152 H 0.86068 0.09171 0.00648 0.0
H6153 H 0.8523 0.09483 0.01425 0.0
H6154 H 0.87386 0.09587 1.00248 0.0
H6155 H 0.87739 0.10408 0.99469 0.0
C6156 C 0.65066 0.11194 0.76123 0.0
C6157 C 0.64361 0.10977 0.76735 0.0
C6158 C 0.6324 0.11532 0.75641 0.0
C6159 C 0.63951 0.11853 0.75088 0.0
N6160 N 0.65541 0.12042 0.74802 0.0
N6161 N 0.62778 0.11012 0.77124 0.0
C6162 C 0.64865 0.11693 0.75325 0.0
C6163 C 0.63446 0.11158 0.76504 0.0
N6164 N 0.65925 0.10902 0.76295 0.0
N6165 N 0.6237 0.11578 0.75337 0.0
H6166 H 0.62901 0.1074 0.77763 0.0
H6167 H 0.62113 0.11222 0.77036 0.0
H6168 H 0.62201 0.11852 0.7471 0.0
H6169 H 0.61827 0.11276 0.75666 0.0
H6170 H 0.66454 0.10955 0.75835 0.0
H6171 H 0.66096 0.10536 0.76872 0.0
H6172 H 0.66217 0.12047 0.74992 0.0
H6173 H 0.65418 0.12374 0.74192 0.0
C6174 C 0.8701 0.90269 0.26078 0.0
C6175 C 0.86182 0.90084 0.26527 0.0
C6176 C 0.85801 0.89011 0.25326 0.0
C6177 C 0.86716 0.89016 0.25041 0.0
N6178 N 0.88189 0.8971 0.2509 0.0
N6179 N 0.8464 0.89896 0.26049 0.0
C6180 C 0.87319 0.8967 0.25393 0.0
C6181 C 0.85519 0.89627 0.26006 0.0
N6182 N 0.87424 0.91083 0.26202 0.0
N6183 N 0.85202 0.88413 0.24961 0.0
H6184 H 0.84451 0.90472 0.26409 0.0
H6185 H 0.84138 0.8964 0.25627 0.0
H6186 H 0.85373 0.87973 0.24437 0.0
H6187 H 0.84553 0.88323 0.25219 0.0
H6188 H 0.87986 0.9129 0.25833 0.0
H6189 H 0.87122 0.91593 0.26584 0.0
H6190 H 0.88679 0.90112 0.25396 0.0
H6191 H 0.88429 0.89303 0.24568 0.0
C6192 C 0.48989 0.36343 0.12211 0.0
C6193 C 0.48904 0.35918 0.11355 0.0
C6194 C 0.50496 0.3626 0.11024 0.0
C6195 C 0.50544 0.36778 0.11828 0.0
N6196 N 0.49843 0.3736 0.13174 0.0
N6197 N 0.49544 0.35513 0.09915 0.0
C6198 C 0.49794 0.36827 0.12422 0.0
C6199 C 0.49651 0.35881 0.10755 0.0
N6200 N 0.48307 0.36267 0.12828 0.0
N6201 N 0.51261 0.36124 0.10525 0.0
H6202 H 0.48941 0.35218 0.09701 0.0
H6203 H 0.50028 0.35552 0.09407 0.0
H6204 H 0.51885 0.36397 0.10707 0.0
H6205 H 0.51297 0.35684 0.09979 0.0
H6206 H 0.48361 0.36477 0.13497 0.0
H6207 H 0.47704 0.35928 0.12694 0.0
H6208 H 0.49288 0.37519 0.13577 0.0
H6209 H 0.50434 0.37689 0.13373 0.0
C6210 C 0.39437 0.74015 0.87234 0.0
C6211 C 0.39806 0.73895 0.86357 0.0
C6212 C 0.3942 0.75466 0.85978 0.0
C6213 C 0.38954 0.75545 0.8681 0.0
N6214 N 0.38474 0.74901 0.88224 0.0
N6215 N 0.40109 0.74474 0.84866 0.0
C6216 C 0.38956 0.74823 0.8744 0.0
C6217 C 0.39794 0.74615 0.85723 0.0
N6218 N 0.39561 0.73361 0.87874 0.0
N6219 N 0.39512 0.76208 0.85437 0.0
H6220 H 0.404 0.73866 0.84661 0.0
H6221 H 0.4003 0.74934 0.84341 0.0
H6222 H 0.39242 0.76837 0.85608 0.0
H6223 H 0.39915 0.76225 0.84862 0.0
H6224 H 0.39394 0.73443 0.88552 0.0
H6225 H 0.39898 0.72756 0.87744 0.0
H6226 H 0.38352 0.74366 0.88662 0.0
H6227 H 0.38152 0.75498 0.88416 0.0
C6228 C 0.01129 0.64553 0.60625 0.0
C6229 C 0.01758 0.64753 0.61321 0.0
C6230 C 0.00692 0.64169 0.62453 0.0
C6231 C 1.0012 0.63866 0.6175 0.0
N6232 N 0.99795 0.63716 0.60163 0.0
N6233 N 0.02187 0.64679 0.62891 0.0
C6234 C 1.00336 0.64048 0.60834 0.0
C6235 C 0.01549 0.64549 0.62236 0.0
N6236 N 0.01279 0.64865 0.5977 0.0
N6237 N 0.00411 0.641 0.6333 0.0
H6238 H 0.02822 0.64955 0.6276 0.0
H6239 H 0.02116 0.64453 0.63553 0.0
H6240 H 0.99788 0.63821 0.63508 0.0
H6241 H 0.00753 0.64389 0.63872 0.0
H6242 H 0.00806 0.64824 0.59251 0.0
H6243 H 0.01853 0.65234 0.59593 0.0
H6244 H 0.99969 0.63727 0.59482 0.0
H6245 H 0.99189 0.63381 0.60292 0.0
C6246 C 0.10958 0.26026 0.35647 0.0
C6247 C 0.10948 0.26753 0.36274 0.0
C6248 C 0.11818 0.25843 0.37357 0.0
C6249 C 0.11816 0.25115 0.36735 0.0
N6250 N 0.11247 0.24432 0.35376 0.0
N6251 N 0.11207 0.27305 0.37782 0.0
C6252 C 0.1134 0.25181 0.35907 0.0
C6253 C 0.11329 0.26646 0.37147 0.0
N6254 N 0.10633 0.26156 0.34793 0.0
N6255 N 0.1231 0.25777 0.38135 0.0
H6256 H 0.10864 0.27906 0.37649 0.0
H6257 H 0.11383 0.27233 0.38459 0.0
H6258 H 0.12639 0.25185 0.3833 0.0
H6259 H 0.12434 0.26319 0.38566 0.0
H6260 H 0.10709 0.25691 0.34272 0.0
H6261 H 0.10335 0.2676 0.34584 0.0
H6262 H 0.10836 0.24406 0.34806 0.0
H6263 H 0.11523 0.23807 0.3555 0.0
C6264 C 0.49593 0.64467 0.39983 0.0
C6265 C 0.48979 0.64722 0.39292 0.0
C6266 C 0.50053 0.64191 0.38141 0.0
C6267 C 0.50606 0.63831 0.38833 0.0
N6268 N 0.50904 0.63579 0.40412 0.0
N6269 N 0.48577 0.6476 0.37713 0.0
C6270 C 0.5038 0.63962 0.39755 0.0
C6271 C 0.49199 0.64574 0.38369 0.0
N6272 N 0.49433 0.64727 0.40854 0.0
N6273 N 0.50348 0.64171 0.37267 0.0
H6274 H 0.47945 0.6504 0.37852 0.0
H6275 H 0.48655 0.64576 0.37039 0.0
H6276 H 0.50968 0.63891 0.37082 0.0
H6277 H 0.50021 0.645 0.36738 0.0
H6278 H 0.49896 0.64645 0.41377 0.0
H6279 H 0.48863 0.65095 0.41044 0.0
H6280 H 0.5072 0.63551 0.4109 0.0
H6281 H 0.51507 0.63242 0.40271 0.0
C6282 C 0.11452 0.73955 0.1357 0.0
C6283 C 0.10927 0.73904 0.14371 0.0
C6284 C 0.11195 0.7552 0.14651 0.0
C6285 C 0.11805 0.75539 0.13914 0.0
N6286 N 0.12566 0.74779 0.12693 0.0
N6287 N 0.10342 0.74608 0.15717 0.0
C6288 C 0.11943 0.74759 0.13375 0.0
C6289 C 0.10804 0.74681 0.1492 0.0
N6290 N 0.11463 0.7324 0.12985 0.0
N6291 N 0.10983 0.76306 0.15086 0.0
H6292 H 0.10039 0.74009 0.15929 0.0
H6293 H 0.10311 0.75121 0.16197 0.0
H6294 H 0.11264 0.76927 0.14904 0.0
H6295 H 0.10479 0.76359 0.15572 0.0
H6296 H 0.11752 0.73265 0.12345 0.0
H6297 H 0.11119 0.72638 0.13109 0.0
H6298 H 0.12784 0.74207 0.12348 0.0
H6299 H 0.12906 0.75367 0.12503 0.0
C6300 C 0.01034 0.36033 0.90189 0.0
C6301 C 0.01664 0.35815 0.89499 0.0
C6302 C 0.00592 0.36355 0.8835 0.0
C6303 C 1.00023 0.36683 0.89045 0.0
N6304 N 0.99695 0.36875 0.90626 0.0
N6305 N 0.02085 0.3583 0.87925 0.0
C6306 C 1.00238 0.36526 0.89965 0.0
C6307 C 0.0145 0.35984 0.88578 0.0
N6308 N 0.0119 0.35751 0.91054 0.0
N6309 N 1.00307 0.36395 0.87473 0.0
H6310 H 0.0272 0.35559 0.88063 0.0
H6311 H 0.02011 0.36032 0.87256 0.0
H6312 H 0.99682 0.36666 0.8729 0.0
H6313 H 0.00647 0.3609 0.86939 0.0
H6314 H 0.00719 0.35806 0.91572 0.0
H6315 H 0.01767 0.35391 0.9124 0.0
H6316 H 0.99868 0.36884 0.91307 0.0
H6317 H 0.99086 0.372 0.90487 0.0
C6318 C 0.39757 0.26024 0.64997 0.0
C6319 C 0.39785 0.26746 0.64365 0.0
C6320 C 0.38923 0.25836 0.63275 0.0
C6321 C 0.38908 0.25112 0.63903 0.0
N6322 N 0.39448 0.24435 0.65276 0.0
N6323 N 0.39554 0.27289 0.62849 0.0
C6324 C 0.39371 0.25181 0.64737 0.0
C6325 C 0.39416 0.26636 0.63486 0.0
N6326 N 0.4007 0.26158 0.65855 0.0
N6327 N 0.38443 0.25768 0.62489 0.0
H6328 H 0.399 0.27888 0.62983 0.0
H6329 H 0.39388 0.27213 0.6217 0.0
H6330 H 0.38112 0.25178 0.62293 0.0
H6331 H 0.38332 0.26307 0.62052 0.0
H6332 H 0.39981 0.25697 0.66379 0.0
H6333 H 0.40371 0.2676 0.66064 0.0
H6334 H 0.39849 0.2441 0.65853 0.0
H6335 H 0.39169 0.23811 0.65102 0.0
C6336 C 0.10758 0.49748 0.35838 0.0
C6337 C 0.11304 0.4897 0.35969 0.0
C6338 C 0.1229 0.49824 0.36996 0.0
C6339 C 0.11756 0.50606 0.36847 0.0
N6340 N 0.10595 0.51374 0.36011 0.0
N6341 N 0.12683 0.48304 0.36523 0.0
C6342 C 0.11025 0.50587 0.3623 0.0
C6343 C 0.12099 0.4902 0.36504 0.0
N6344 N 0.09967 0.49676 0.35368 0.0
N6345 N 0.12964 0.49844 0.37627 0.0
H6346 H 0.12562 0.47702 0.36179 0.0
H6347 H 0.1332 0.48329 0.36819 0.0
H6348 H 0.13152 0.50431 0.37969 0.0
H6349 H 0.13304 0.49271 0.37851 0.0
H6350 H 0.09488 0.50189 0.35328 0.0
H6351 H 0.09756 0.49076 0.35064 0.0
H6352 H 0.10115 0.51427 0.35501 0.0
H6353 H 0.10775 0.51995 0.36292 0.0
C6354 C 0.26202 0.3554 0.11113 0.0
C6355 C 0.26826 0.36238 0.10904 0.0
C6356 C 0.25744 0.37371 0.11457 0.0
C6357 C 0.25176 0.36668 0.1177 0.0
N6358 N 0.24866 0.35081 0.11947 0.0
N6359 N 0.27237 0.37814 0.10948 0.0
C6360 C 0.25402 0.35751 0.11607 0.0
C6361 C 0.26606 0.37154 0.11088 0.0
N6362 N 0.26364 0.3468 0.1082 0.0
N6363 N 0.25453 0.38246 0.11508 0.0
H6364 H 0.27875 0.37683 0.10679 0.0
H6365 H 0.27158 0.38479 0.1116 0.0
H6366 H 0.24827 0.38423 0.11779 0.0
H6367 H 0.25792 0.38786 0.11212 0.0
H6368 H 0.25896 0.34158 0.10866 0.0
H6369 H 0.26943 0.34502 0.1046 0.0
H6370 H 0.25047 0.34402 0.11951 0.0
H6371 H 0.24255 0.35211 0.12274 0.0
C6372 C 0.38412 0.51688 0.86207 0.0
C6373 C 0.39317 0.51885 0.85951 0.0
C6374 C 0.39815 0.5043 0.86579 0.0
C6375 C 0.38909 0.50228 0.86814 0.0
N6376 N 0.37323 0.50557 0.86688 0.0
N6377 N 0.40847 0.51378 0.85725 0.0
C6378 C 0.382 0.50823 0.86573 0.0
C6379 C 0.4001 0.51235 0.86087 0.0
N6380 N 0.37764 0.52342 0.86138 0.0
N6381 N 0.40494 0.49865 0.8685 0.0
H6382 H 0.41012 0.5196 0.85363 0.0
H6383 H 0.41356 0.50894 0.85718 0.0
H6384 H 0.40372 0.49251 0.87173 0.0
H6385 H 0.41177 0.50025 0.868 0.0
H6386 H 0.37117 0.52277 0.86404 0.0
H6387 H 0.37892 0.52982 0.85874 0.0
H6388 H 0.36772 0.5092 0.86445 0.0
H6389 H 0.3715 0.4993 0.86958 0.0
C6390 C 0.24013 0.63616 0.61638 0.0
C6391 C 0.23981 0.64361 0.61034 0.0
C6392 C 0.25615 0.64593 0.61234 0.0
C6393 C 0.2562 0.6392 0.61914 0.0
N6394 N 0.24828 0.62823 0.62819 0.0
N6395 N 0.24726 0.6561 0.60303 0.0
C6396 C 0.24821 0.63437 0.62128 0.0
C6397 C 0.24778 0.6486 0.60839 0.0
N6398 N 0.23275 0.63066 0.61724 0.0
N6399 N 0.26413 0.64968 0.60961 0.0
H6400 H 0.24127 0.6582 0.59997 0.0
H6401 H 0.25257 0.6606 0.6021 0.0
H6402 H 0.27034 0.64788 0.61243 0.0
H6403 H 0.26472 0.65398 0.60408 0.0
H6404 H 0.23283 0.62458 0.62075 0.0
H6405 H 0.2267 0.6318 0.61381 0.0
H6406 H 0.24246 0.62532 0.63086 0.0
H6407 H 0.25414 0.62643 0.63165 0.0
C6408 C 0.12141 0.5144 0.14593 0.0
C6409 C 0.11222 0.51671 0.14752 0.0
C6410 C 0.10737 0.50261 0.14021 0.0
C6411 C 0.11655 0.50024 0.13882 0.0
N6412 N 0.13228 0.50275 0.14195 0.0
N6413 N 0.09656 0.51229 0.14787 0.0
C6414 C 0.12356 0.50578 0.14222 0.0
C6415 C 0.10522 0.51058 0.14516 0.0
N6416 N 0.12804 0.52061 0.14757 0.0
N6417 N 0.1007 0.49737 0.13655 0.0
H6418 H 0.09476 0.51806 0.15148 0.0
H6419 H 0.09129 0.50768 0.1472 0.0
H6420 H 0.10201 0.49127 0.13326 0.0
H6421 H 0.09394 0.49927 0.13633 0.0
H6422 H 0.13474 0.51974 0.14564 0.0
H6423 H 0.12674 0.52698 0.15028 0.0
H6424 H 0.13764 0.50604 0.14511 0.0
H6425 H 0.13405 0.49649 0.13924 0.0
C6426 C 0.24724 0.35737 0.89712 0.0
C6427 C 0.23997 0.36364 0.89715 0.0
C6428 C 0.24913 0.37444 0.88849 0.0
C6429 C 0.25642 0.36822 0.88857 0.0
N6430 N 0.26321 0.35465 0.89435 0.0
N6431 N 0.23447 0.37873 0.89448 0.0
C6432 C 0.25572 0.35996 0.89335 0.0
C6433 C 0.24107 0.37237 0.89332 0.0
N6434 N 0.24591 0.34884 0.90038 0.0
N6435 N 0.24982 0.38221 0.88354 0.0
H6436 H 0.22845 0.37741 0.89789 0.0
H6437 H 0.23522 0.38548 0.89271 0.0
H6438 H 0.25576 0.38415 0.88028 0.0
H6439 H 0.24441 0.38651 0.88225 0.0
H6440 H 0.25057 0.34363 0.89967 0.0
H6441 H 0.23985 0.34676 0.90331 0.0
H6442 H 0.26343 0.34896 0.89847 0.0
H6443 H 0.26948 0.35638 0.89163 0.0
C6444 C 0.38632 0.48977 0.64103 0.0
C6445 C 0.39416 0.48937 0.64655 0.0
C6446 C 0.39675 0.50559 0.64407 0.0
C6447 C 0.38958 0.5057 0.63772 0.0
N6448 N 0.37781 0.49792 0.62962 0.0
N6449 N 0.40729 0.49661 0.65287 0.0
C6450 C 0.3844 0.4978 0.63609 0.0
C6451 C 0.39947 0.49723 0.64801 0.0
N6452 N 0.3806 0.48253 0.64069 0.0
N6453 N 0.40088 0.51352 0.64638 0.0
H6454 H 0.40944 0.49064 0.65592 0.0
H6455 H 0.41198 0.50182 0.65339 0.0
H6456 H 0.39905 0.51972 0.64356 0.0
H6457 H 0.40555 0.51411 0.6516 0.0
H6458 H 0.37429 0.4827 0.63759 0.0
H6459 H 0.38181 0.47652 0.64415 0.0
H6460 H 0.37455 0.49214 0.62728 0.0
H6461 H 0.37593 0.50377 0.62618 0.0
C6462 C 0.26464 0.63545 0.39525 0.0
C6463 C 0.26692 0.64461 0.39698 0.0
C6464 C 0.25278 0.64954 0.38981 0.0
C6465 C 0.25044 0.64038 0.38828 0.0
N6466 N 0.25301 0.6246 0.39112 0.0
N6467 N 0.26247 0.66025 0.3976 0.0
C6468 C 0.25601 0.63333 0.39153 0.0
C6469 C 0.26077 0.65163 0.39477 0.0
N6470 N 0.27087 0.62881 0.39676 0.0
N6471 N 0.2475 0.65626 0.38629 0.0
H6472 H 0.26826 0.66201 0.40122 0.0
H6473 H 0.25785 0.66552 0.39704 0.0
H6474 H 0.2414 0.65499 0.383 0.0
H6475 H 0.24938 0.66303 0.38618 0.0
H6476 H 0.27002 0.62214 0.39472 0.0
H6477 H 0.27725 0.63007 0.39947 0.0
H6478 H 0.25633 0.61921 0.39417 0.0
H6479 H 0.24675 0.62287 0.3884 0.0
C6480 C 0.36463 0.12136 0.48991 0.0
C6481 C 0.35997 0.11301 0.48907 0.0
C6482 C 0.36308 0.10965 0.50504 0.0
C6483 C 0.36863 0.11743 0.50552 0.0
N6484 N 0.37519 0.13054 0.49847 0.0
N6485 N 0.35522 0.09885 0.49552 0.0
C6486 C 0.3695 0.12328 0.49799 0.0
C6487 C 0.35926 0.10708 0.49658 0.0
N6488 N 0.36421 0.12753 0.48305 0.0
N6489 N 0.36141 0.10479 0.51271 0.0
H6490 H 0.35225 0.0968 0.48947 0.0
H6491 H 0.35533 0.09379 0.5004 0.0
H6492 H 0.36415 0.10652 0.51897 0.0
H6493 H 0.35674 0.09955 0.51306 0.0
H6494 H 0.36662 0.13411 0.48358 0.0
H6495 H 0.36079 0.12632 0.47701 0.0
H6496 H 0.37702 0.13444 0.49291 0.0
H6497 H 0.37852 0.1324 0.50439 0.0
C6498 C 0.86299 0.38533 0.51525 0.0
C6499 C 0.85922 0.39408 0.51639 0.0
C6500 C 0.86319 0.39785 0.50071 0.0
C6501 C 0.8679 0.38955 0.49998 0.0
N6502 N 0.87276 0.37547 0.50651 0.0
N6503 N 0.85616 0.40895 0.51054 0.0
C6504 C 0.86788 0.38328 0.50722 0.0
C6505 C 0.85937 0.4004 0.50918 0.0
N6506 N 0.86172 0.37893 0.52179 0.0
N6507 N 0.86229 0.40322 0.49326 0.0
H6508 H 0.8532 0.41101 0.51659 0.0
H6509 H 0.85696 0.4142 0.50593 0.0
H6510 H 0.86504 0.40152 0.487 0.0
H6511 H 0.85822 0.40895 0.49304 0.0
H6512 H 0.86344 0.37216 0.521 0.0
H6513 H 0.85828 0.38023 0.5278 0.0
H6514 H 0.87397 0.37112 0.51189 0.0
H6515 H 0.87605 0.37355 0.50058 0.0
C6516 C 0.35457 0.10993 0.2597 0.0
C6517 C 0.36116 0.10519 0.2648 0.0
C6518 C 0.37254 0.10941 0.2535 0.0
C6519 C 0.36657 0.11607 0.25011 0.0
N6520 N 0.3515 0.12229 0.24947 0.0
N6521 N 0.37344 0.09513 0.26132 0.0
C6522 C 0.35743 0.11618 0.25299 0.0
C6523 C 0.36941 0.10333 0.26025 0.0
N6524 N 0.34575 0.10735 0.26012 0.0
N6525 N 0.38123 0.10897 0.25045 0.0
H6526 H 0.37037 0.08999 0.26504 0.0
H6527 H 0.37903 0.09305 0.25757 0.0
H6528 H 0.38367 0.11312 0.2453 0.0
H6529 H 0.38609 0.10484 0.25342 0.0
H6530 H 0.34074 0.11004 0.25596 0.0
H6531 H 0.34379 0.10156 0.26365 0.0
H6532 H 0.34502 0.12322 0.25208 0.0
H6533 H 0.35324 0.12676 0.2443 0.0
C6534 C 0.64708 0.6065 0.00934 0.0
C6535 C 0.64687 0.6127 0.01666 0.0
C6536 C 0.63783 0.62325 0.00758 0.0
C6537 C 0.63817 0.61711 1.00023 0.0
N6538 N 0.64447 0.60383 0.99334 0.0
N6539 N 0.64362 0.62762 0.02229 0.0
C6540 C 0.64325 0.60903 1.00087 0.0
C6541 C 0.64272 0.62128 0.01563 0.0
N6542 N 0.65065 0.59808 0.01059 0.0
N6543 N 0.63259 0.63084 0.00695 0.0
H6544 H 0.64706 0.62638 0.02832 0.0
H6545 H 0.6416 0.63431 0.0216 0.0
H6546 H 0.62928 0.63271 1.00102 0.0
H6547 H 0.63112 0.63503 0.0124 0.0
H6548 H 0.65014 0.59289 0.00588 0.0
H6549 H 0.65363 0.59605 0.01665 0.0
H6550 H 0.6488 0.5983 0.99307 0.0
H6551 H 0.64171 0.60552 0.98707 0.0
C6552 C 0.64802 0.39879 0.25986 0.0
C6553 C 0.64334 0.39656 0.26794 0.0
C6554 C 0.63435 0.38529 0.2597 0.0
C6555 C 0.63885 0.38771 0.25159 0.0
N6556 N 0.64869 0.39774 0.24347 0.0
N6557 N 0.63092 0.38903 0.27529 0.0
C6558 C 0.64528 0.39479 0.25152 0.0
C6559 C 0.63616 0.3902 0.26778 0.0
N6560 N 0.65528 0.40447 0.26022 0.0
N6561 N 0.62852 0.37812 0.25974 0.0
H6562 H 0.63208 0.39245 0.28134 0.0
H6563 H 0.62499 0.38526 0.27536 0.0
H6564 H 0.6267 0.37463 0.2539 0.0
H6565 H 0.62589 0.37528 0.26561 0.0
H6566 H 0.65959 0.40564 0.25479 0.0
H6567 H 0.65742 0.40758 0.26617 0.0
H6568 H 0.65273 0.40346 0.24281 0.0
H6569 H 0.64686 0.39488 0.23729 0.0
C6570 C 0.14826 0.90017 0.99678 0.0
C6571 C 0.14768 0.89425 0.98925 0.0
C6572 C 0.13824 0.88382 0.99808 0.0
C6573 C 0.13896 0.88967 0.00563 0.0
N6574 N 0.14595 0.9024 0.01289 0.0
N6575 N 0.14368 0.87969 0.98317 0.0
C6576 C 0.1444 0.89753 0.0052 0.0
C6577 C 0.14314 0.88583 0.99004 0.0
N6578 N 0.15219 0.90846 0.99576 0.0
N6579 N 0.13266 0.87648 0.99851 0.0
H6580 H 0.14712 0.88097 0.97715 0.0
H6581 H 0.14136 0.87307 0.98366 0.0
H6582 H 0.12931 0.87456 0.00441 0.0
H6583 H 0.13093 0.87256 0.99293 0.0
H6584 H 0.15198 0.9135 1.00065 0.0
H6585 H 0.15519 0.91056 0.98974 0.0
H6586 H 0.15054 0.90771 0.01329 0.0
H6587 H 0.14317 0.90063 0.01913 0.0
C6588 C 0.37244 0.89508 0.2409 0.0
C6589 C 0.36338 0.89758 0.23892 0.0
C6590 C 0.35842 0.89127 0.25346 0.0
C6591 C 0.3675 0.88899 0.25549 0.0
N6592 N 0.38335 0.89033 0.25221 0.0
N6593 N 0.34806 0.89972 0.24395 0.0
C6594 C 0.37458 0.89143 0.24954 0.0
C6595 C 0.35646 0.89617 0.2454 0.0
N6596 N 0.37893 0.8958 0.23436 0.0
N6597 N 0.35165 0.88853 0.25911 0.0
H6598 H 0.34638 0.90331 0.23812 0.0
H6599 H 0.34296 0.89977 0.24878 0.0
H6600 H 0.35288 0.88531 0.26525 0.0
H6601 H 0.34482 0.88898 0.2575 0.0
H6602 H 0.38541 0.89318 0.23502 0.0
H6603 H 0.37764 0.89843 0.22796 0.0
H6604 H 0.38885 0.89278 0.24859 0.0
H6605 H 0.3851 0.88764 0.25849 0.0
C6606 C 0.15168 0.11493 0.74487 0.0
C6607 C 0.14511 0.10961 0.74034 0.0
C6608 C 0.13409 0.11287 0.75236 0.0
C6609 C 0.14072 0.11808 0.7569 0.0
N6610 N 0.15626 0.1225 0.75869 0.0
N6611 N 0.13073 0.102 0.74052 0.0
C6612 C 0.14967 0.11858 0.75353 0.0
C6613 C 0.1365 0.10811 0.74433 0.0
N6614 N 0.15971 0.11681 0.7407 0.0
N6615 N 0.12544 0.1127 0.75558 0.0
H6616 H 0.13227 0.09844 0.73464 0.0
H6617 H 0.12473 0.09991 0.74353 0.0
H6618 H 0.12358 0.11578 0.76164 0.0
H6619 H 0.12002 0.10993 0.75206 0.0
H6620 H 0.16436 0.12148 0.74315 0.0
H6621 H 0.16148 0.11417 0.73442 0.0
H6622 H 0.1631 0.12231 0.75706 0.0
H6623 H 0.15498 0.12527 0.76504 0.0
C6624 C 0.10309 0.1297 0.44543 0.0
C6625 C 0.09726 0.13688 0.44796 0.0
C6626 C 0.10664 0.13988 0.46131 0.0
C6627 C 0.11216 0.13238 0.45906 0.0
N6628 N 0.11477 0.11914 0.44997 0.0
N6629 N 0.09243 0.14775 0.45907 0.0
C6630 C 0.11011 0.12698 0.45141 0.0
C6631 C 0.09872 0.14166 0.45614 0.0
N6632 N 0.10213 0.12572 0.43716 0.0
N6633 N 0.10915 0.14554 0.46817 0.0
H6634 H 0.08658 0.14925 0.45544 0.0
H6635 H 0.0926 0.15074 0.46543 0.0
H6636 H 0.11485 0.14443 0.47216 0.0
H6637 H 0.10601 0.15169 0.46947 0.0
H6638 H 0.10678 0.12118 0.43448 0.0
H6639 H 0.09703 0.12746 0.43263 0.0
H6640 H 0.113 0.11441 0.44508 0.0
H6641 H 0.11997 0.11695 0.45419 0.0
C6642 C 0.12718 0.85301 0.69559 0.0
C6643 C 0.11991 0.84722 0.69795 0.0
C6644 C 0.11674 0.85654 0.71131 0.0
C6645 C 0.12433 0.86202 0.70923 0.0
N6646 N 0.13773 0.86462 0.70037 0.0
N6647 N 0.10878 0.84243 0.70881 0.0
C6648 C 0.12984 0.85999 0.70165 0.0
C6649 C 0.11499 0.84868 0.70605 0.0
N6650 N 0.13133 0.85205 0.6874 0.0
N6651 N 0.11099 0.85905 0.71808 0.0
H6652 H 0.10728 0.83663 0.7051 0.0
H6653 H 0.10566 0.84258 0.71511 0.0
H6654 H 0.11209 0.8647 0.72215 0.0
H6655 H 0.10479 0.85596 0.71926 0.0
H6656 H 0.13596 0.85667 0.68482 0.0
H6657 H 0.12964 0.84696 0.68282 0.0
H6658 H 0.14253 0.86286 0.69555 0.0
H6659 H 0.13986 0.8698 0.70465 0.0
C6660 C 0.40768 0.86377 0.95509 0.0
C6661 C 0.41046 0.87005 0.94839 0.0
C6662 C 0.39825 0.88038 0.95284 0.0
C6663 C 0.39563 0.87422 0.9597 0.0
N6664 N 0.39845 0.86071 0.96832 0.0
N6665 N 0.40941 0.88481 0.94165 0.0
C6666 C 0.40055 0.86611 0.96113 0.0
C6667 C 0.40605 0.87852 0.94751 0.0
N6668 N 0.4117 0.85547 0.9555 0.0
N6669 N 0.39311 0.88789 0.95127 0.0
H6670 H 0.41494 0.88358 0.93746 0.0
H6671 H 0.40716 0.89146 0.94135 0.0
H6672 H 0.38759 0.88967 0.95527 0.0
H6673 H 0.39396 0.89212 0.94571 0.0
H6674 H 0.40934 0.85016 0.95946 0.0
H6675 H 0.41717 0.85365 0.95144 0.0
H6676 H 0.40234 0.85523 0.97036 0.0
H6677 H 0.39311 0.86208 0.9727 0.0
C6678 C 0.39301 0.15854 0.20743 0.0
C6679 C 0.38782 0.16032 0.19957 0.0
C6680 C 0.37766 0.14778 0.20341 0.0
C6681 C 0.38345 0.14537 0.21066 0.0
N6682 N 0.39719 0.14776 0.21905 0.0
N6683 N 0.37581 0.15609 0.18942 0.0
C6684 C 0.39126 0.1506 0.21257 0.0
C6685 C 0.38027 0.15482 0.19741 0.0
N6686 N 0.39951 0.16454 0.21008 0.0
N6687 N 0.36958 0.14343 0.20238 0.0
H6688 H 0.37745 0.16122 0.18488 0.0
H6689 H 0.37094 0.15167 0.18695 0.0
H6690 H 0.36747 0.13823 0.20663 0.0
H6691 H 0.36462 0.14547 0.19783 0.0
H6692 H 0.40289 0.16414 0.21623 0.0
H6693 H 0.401 0.17039 0.20645 0.0
H6694 H 0.40352 0.15066 0.22005 0.0
H6695 H 0.39609 0.14206 0.22304 0.0
C6696 C 0.09983 0.8639 0.05156 0.0
C6697 C 0.09697 0.87002 0.05837 0.0
C6698 C 0.10911 0.88054 0.05418 0.0
C6699 C 0.11182 0.87453 0.04721 0.0
N6700 N 0.10917 0.86116 0.03834 0.0
N6701 N 0.09787 0.88465 0.06541 0.0
C6702 C 0.10698 0.86641 0.04562 0.0
C6703 C 0.10131 0.8785 0.05944 0.0
N6704 N 0.09588 0.85557 0.05097 0.0
N6705 N 0.11417 0.88807 0.05592 0.0
H6706 H 0.09234 0.88329 0.06956 0.0
H6707 H 0.10006 0.89131 0.06586 0.0
H6708 H 0.11967 0.88999 0.05197 0.0
H6709 H 0.11326 0.89218 0.06156 0.0
H6710 H 0.0983 0.85036 0.04692 0.0
H6711 H 0.09041 0.85363 0.05496 0.0
H6712 H 0.10535 0.85568 0.03617 0.0
H6713 H 0.11455 0.86263 0.03403 0.0
C6714 C 0.3797 0.85272 0.31074 0.0
C6715 C 0.38701 0.84698 0.30838 0.0
C6716 C 0.39023 0.85642 0.29513 0.0
C6717 C 0.38261 0.86186 0.29721 0.0
N6718 N 0.36913 0.86432 0.30598 0.0
N6719 N 0.3982 0.84231 0.29754 0.0
C6720 C 0.37705 0.85974 0.30472 0.0
C6721 C 0.39196 0.84852 0.30032 0.0
N6722 N 0.37551 0.85169 0.31891 0.0
N6723 N 0.39601 0.85901 0.28841 0.0
H6724 H 0.39968 0.83647 0.3012 0.0
H6725 H 0.40136 0.84253 0.29126 0.0
H6726 H 0.39493 0.8647 0.2844 0.0
H6727 H 0.40223 0.85594 0.28725 0.0
H6728 H 0.37085 0.85628 0.32149 0.0
H6729 H 0.37719 0.84659 0.32346 0.0
H6730 H 0.3643 0.86248 0.31075 0.0
H6731 H 0.367 0.86952 0.30173 0.0
C6732 C 0.40596 0.12845 0.55951 0.0
C6733 C 0.41036 0.1369 0.55847 0.0
C6734 C 0.40048 0.14059 0.54565 0.0
C6735 C 0.39556 0.13251 0.54721 0.0
N6736 N 0.39303 0.119 0.55591 0.0
N6737 N 0.41161 0.15135 0.55109 0.0
C6738 C 0.39817 0.12648 0.5542 0.0
C6739 C 0.40759 0.14305 0.55165 0.0
N6740 N 0.40931 0.12227 0.5655 0.0
N6741 N 0.39839 0.14585 0.53835 0.0
H6742 H 0.41707 0.15325 0.55513 0.0
H6743 H 0.40926 0.15657 0.54703 0.0
H6744 H 0.39306 0.1444 0.53398 0.0
H6745 H 0.40227 0.1513 0.53622 0.0
H6746 H 0.40706 0.11563 0.56593 0.0
H6747 H 0.41482 0.12359 0.56968 0.0
H6748 H 0.39387 0.11488 0.56155 0.0
H6749 H 0.38752 0.11714 0.55193 0.0
C6750 C 0.11293 0.15681 0.80261 0.0
C6751 C 0.1192 0.15984 0.80922 0.0
C6752 C 0.12981 0.14786 0.8048 0.0
C6753 C 0.12367 0.14502 0.79801 0.0
N6754 N 0.11 0.14738 0.7895 0.0
N6755 N 0.13405 0.15924 0.81584 0.0
C6756 C 0.11541 0.1497 0.79662 0.0
C6757 C 0.12779 0.15565 0.81007 0.0
N6758 N 0.10451 0.16059 0.80226 0.0
N6759 N 0.13746 0.14293 0.80638 0.0
H6760 H 0.13271 0.16477 0.81999 0.0
H6761 H 0.14076 0.15717 0.8161 0.0
H6762 H 0.13936 0.13742 0.80242 0.0
H6763 H 0.14169 0.14393 0.8119 0.0
H6764 H 0.09924 0.15805 0.79837 0.0
H6765 H 0.10258 0.16603 0.8063 0.0
H6766 H 0.10439 0.15109 0.78748 0.0
H6767 H 0.11147 0.14204 0.78515 0.0
C6768 C 0.45475 0.09568 0.12995 0.0
C6769 C 0.44554 0.09737 0.13199 0.0
C6770 C 0.44719 0.11264 0.12574 0.0
C6771 C 0.45671 0.11148 0.12555 0.0
N6772 N 0.46657 0.09993 0.11973 0.0
N6773 N 0.43268 0.10737 0.13123 0.0
C6774 C 0.45988 0.10245 0.12552 0.0
C6775 C 0.44163 0.10581 0.12963 0.0
N6776 N 0.45867 0.08766 0.13223 0.0
N6777 N 0.44344 0.11975 0.12122 0.0
H6778 H 0.4283 0.10241 0.13364 0.0
H6779 H 0.42973 0.11373 0.13066 0.0
H6780 H 0.44738 0.12418 0.1174 0.0
H6781 H 0.43651 0.12061 0.12035 0.0
H6782 H 0.46558 0.08652 0.13151 0.0
H6783 H 0.45516 0.08247 0.13547 0.0
H6784 H 0.46869 0.09326 0.11901 0.0
H6785 H 0.46861 0.10419 0.11449 0.0
C6786 C 0.15591 0.19742 0.37835 0.0
C6787 C 0.16023 0.19837 0.38686 0.0
C6788 C 0.15019 0.21105 0.39064 0.0
C6789 C 0.14537 0.20958 0.38248 0.0
N6790 N 0.14307 0.20106 0.36881 0.0
N6791 N 0.16126 0.20554 0.40143 0.0
C6792 C 0.14811 0.2027 0.37637 0.0
C6793 C 0.15733 0.20508 0.39308 0.0
N6794 N 0.15938 0.19155 0.37212 0.0
N6795 N 0.14798 0.21825 0.39599 0.0
H6796 H 0.16673 0.20153 0.40332 0.0
H6797 H 0.15882 0.20951 0.40669 0.0
H6798 H 0.14261 0.22258 0.39456 0.0
H6799 H 0.15178 0.22033 0.40152 0.0
H6800 H 0.15721 0.1912 0.36544 0.0
H6801 H 0.16491 0.18739 0.37343 0.0
H6802 H 0.14399 0.19549 0.36462 0.0
H6803 H 0.13755 0.20503 0.36694 0.0
C6804 C 0.05079 0.90886 0.64193 0.0
C6805 C 0.05892 0.9103 0.63705 0.0
C6806 C 0.05529 0.89748 0.62716 0.0
C6807 C 0.0477 0.89546 0.63265 0.0
N6808 N 0.03874 0.89849 0.6459 0.0
N6809 N 0.06954 0.90543 0.62571 0.0
C6810 C 0.04556 0.90098 0.64019 0.0
C6811 C 0.06132 0.90448 0.62982 0.0
N6812 N 0.04798 0.91514 0.64809 0.0
N6813 N 0.05661 0.89281 0.6193 0.0
H6814 H 0.0741 0.91053 0.6274 0.0
H6815 H 0.07214 0.90079 0.62112 0.0
H6816 H 0.05236 0.88762 0.61718 0.0
H6817 H 0.06145 0.89457 0.61452 0.0
H6818 H 0.04167 0.91499 0.65117 0.0
H6819 H 0.05167 0.92096 0.64956 0.0
H6820 H 0.03752 0.90162 0.65208 0.0
H6821 H 0.03469 0.89283 0.64481 0.0
C6822 C 0.35051 0.80178 0.89363 0.0
C6823 C 0.34742 0.80832 0.88733 0.0
C6824 C 0.35936 0.80388 0.87669 0.0
C6825 C 0.36228 0.79716 0.88287 0.0
N6826 N 0.36004 0.78875 0.89661 0.0
N6827 N 0.3479 0.81484 0.87243 0.0
C6828 C 0.35765 0.79581 0.89116 0.0
C6829 C 0.35155 0.80913 0.87872 0.0
N6830 N 0.34677 0.80146 0.90207 0.0
N6831 N 0.36423 0.80541 0.86899 0.0
H6832 H 0.34236 0.81897 0.87378 0.0
H6833 H 0.34993 0.81506 0.86571 0.0
H6834 H 0.36974 0.80146 0.86709 0.0
H6835 H 0.36317 0.81089 0.86471 0.0
H6836 H 0.34936 0.79763 0.90735 0.0
H6837 H 0.34131 0.80547 0.90399 0.0
H6838 H 0.35637 0.78675 0.90226 0.0
H6839 H 0.36541 0.78443 0.89516 0.0
C6840 C 0.45442 0.90732 0.36411 0.0
C6841 C 0.44763 0.91021 0.37024 0.0
C6842 C 0.45185 0.89811 0.38079 0.0
C6843 C 0.4588 0.89538 0.37477 0.0
N6844 N 0.46764 0.89799 0.36137 0.0
N6845 N 0.44063 0.90936 0.3849 0.0
C6846 C 0.46038 0.90019 0.36663 0.0
C6847 C 0.44658 0.9059 0.37874 0.0
N6848 N 0.45498 0.91124 0.35576 0.0
N6849 N 0.45012 0.89307 0.38833 0.0
H6850 H 0.43648 0.91488 0.38353 0.0
H6851 H 0.4402 0.90719 0.39156 0.0
H6852 H 0.45407 0.88756 0.39025 0.0
H6853 H 0.4445 0.89398 0.39245 0.0
H6854 H 0.45901 0.9088 0.35055 0.0
H6855 H 0.45098 0.91671 0.35381 0.0
H6856 H 0.46979 0.9018 0.35587 0.0
H6857 H 0.47197 0.89263 0.36285 0.0
C6858 C 0.35016 0.20502 0.6129 0.0
C6859 C 0.34702 0.19848 0.61918 0.0
C6860 C 0.35892 0.20288 0.62988 0.0
C6861 C 0.36188 0.20961 0.62372 0.0
N6862 N 0.35972 0.21804 0.60997 0.0
N6863 N 0.34741 0.19197 0.63408 0.0
C6864 C 0.3573 0.21097 0.61541 0.0
C6865 C 0.3511 0.19766 0.62781 0.0
N6866 N 0.34647 0.20534 0.60444 0.0
N6867 N 0.36376 0.20133 0.6376 0.0
H6868 H 0.34186 0.18785 0.63271 0.0
H6869 H 0.34941 0.19174 0.64081 0.0
H6870 H 0.36929 0.20526 0.63951 0.0
H6871 H 0.36267 0.19585 0.64186 0.0
H6872 H 0.34909 0.20916 0.59916 0.0
H6873 H 0.34101 0.20133 0.60248 0.0
H6874 H 0.35608 0.22004 0.60431 0.0
H6875 H 0.36508 0.22235 0.61147 0.0
C6876 C 0.05131 0.09481 0.87641 0.0
C6877 C 0.06056 0.09644 0.87452 0.0
C6878 C 0.05901 0.11161 0.88104 0.0
C6879 C 0.04946 0.11054 0.88114 0.0
N6880 N 0.03944 0.09896 0.88661 0.0
N6881 N 0.07351 0.10628 0.87561 0.0
C6882 C 0.0462 0.10153 0.88093 0.0
C6883 C 0.06453 0.10479 0.87709 0.0
N6884 N 0.04733 0.08688 0.87391 0.0
N6885 N 0.06278 0.11863 0.88568 0.0
H6886 H 0.07787 0.10132 0.87316 0.0
H6887 H 0.07653 0.11259 0.87633 0.0
H6888 H 0.05884 0.12305 0.88952 0.0
H6889 H 0.0697 0.11942 0.88663 0.0
H6890 H 0.0404 0.08581 0.87452 0.0
H6891 H 0.05082 0.08173 0.87061 0.0
H6892 H 0.03722 0.0923 0.88715 0.0
H6893 H 0.03745 0.10308 0.89197 0.0
C6894 C 0.15551 0.80936 0.12808 0.0
C6895 C 0.15987 0.80827 0.11961 0.0
C6896 C 0.14988 0.7955 0.11601 0.0
C6897 C 0.14502 0.79711 0.12412 0.0
N6898 N 0.14264 0.80585 0.13764 0.0
N6899 N 0.16099 0.80084 0.10518 0.0
C6900 C 0.14771 0.80409 0.13012 0.0
C6901 C 0.15702 0.80144 0.1135 0.0
N6902 N 0.15893 0.81536 0.13422 0.0
N6903 N 0.1477 0.78821 0.11077 0.0
H6904 H 0.16646 0.80483 0.10324 0.0
H6905 H 0.15858 0.79677 0.09998 0.0
H6906 H 0.14233 0.78389 0.11224 0.0
H6907 H 0.15154 0.78603 0.1053 0.0
H6908 H 0.15672 0.81582 0.14087 0.0
H6909 H 0.16445 0.81951 0.13286 0.0
H6910 H 0.14352 0.81149 0.14172 0.0
H6911 H 0.13713 0.80189 0.13956 0.0
C6912 C 0.12888 0.447 0.10094 0.0
C6913 C 0.1375 0.44782 0.09681 0.0
C6914 C 0.14126 0.46041 0.10697 0.0
C6915 C 0.13297 0.45905 0.1116 0.0
N6916 N 0.11913 0.45073 0.1136 0.0
N6917 N 0.15221 0.45474 0.09615 0.0
C6918 C 0.12682 0.45228 0.10872 0.0
C6919 C 0.14376 0.45441 0.09987 0.0
N6920 N 0.12263 0.44125 0.09732 0.0
N6921 N 0.14667 0.46752 0.10932 0.0
H6922 H 0.15416 0.4507 0.09072 0.0
H6923 H 0.15748 0.45862 0.09872 0.0
H6924 H 0.14518 0.47188 0.11465 0.0
H6925 H 0.15231 0.46952 0.10565 0.0
H6926 H 0.1159 0.44101 0.09934 0.0
H6927 H 0.12399 0.43709 0.0918 0.0
H6928 H 0.11489 0.44523 0.11257 0.0
H6929 H 0.11722 0.4547 0.1191 0.0
C6930 C 0.64225 0.05041 0.90863 0.0
C6931 C 0.63712 0.05831 0.91046 0.0
C6932 C 0.62686 0.05457 0.89797 0.0
C6933 C 0.63256 0.04726 0.89553 0.0
N6934 N 0.64627 0.03877 0.89782 0.0
N6935 N 0.6252 0.06859 0.90629 0.0
C6936 C 0.6404 0.04529 0.9007 0.0
C6937 C 0.62957 0.06055 0.905 0.0
N6938 N 0.64876 0.04771 0.91459 0.0
N6939 N 0.61877 0.05569 0.89366 0.0
H6940 H 0.62692 0.07311 0.91141 0.0
H6941 H 0.62033 0.07111 0.90189 0.0
H6942 H 0.61659 0.05146 0.88847 0.0
H6943 H 0.61387 0.06029 0.89574 0.0
H6944 H 0.65208 0.04153 0.91416 0.0
H6945 H 0.65033 0.05132 0.92044 0.0
H6946 H 0.65261 0.03772 0.90067 0.0
H6947 H 0.64509 0.03481 0.89211 0.0
C6948 C 0.20576 0.39333 0.15693 0.0
C6949 C 0.19928 0.38696 0.16001 0.0
C6950 C 0.20392 0.37633 0.14813 0.0
C6951 C 0.21056 0.3826 0.14521 0.0
N6952 N 0.2188 0.39644 0.14745 0.0
N6953 N 0.193 0.37196 0.15958 0.0
C6954 C 0.21178 0.39092 0.14982 0.0
C6955 C 0.19862 0.37831 0.15592 0.0
N6956 N 0.20595 0.40179 0.16064 0.0
N6957 N 0.20251 0.3686 0.14328 0.0
H6958 H 0.18882 0.37327 0.1651 0.0
H6959 H 0.19288 0.36523 0.15758 0.0
H6960 H 0.20649 0.36675 0.13777 0.0
H6961 H 0.1971 0.36424 0.14434 0.0
H6962 H 0.20972 0.40712 0.15804 0.0
H6963 H 0.2019 0.40368 0.16609 0.0
H6964 H 0.2207 0.40213 0.15111 0.0
H6965 H 0.22318 0.395 0.14213 0.0
C6966 C 0.86467 0.95605 0.40808 0.0
C6967 C 0.86971 0.94807 0.40978 0.0
C6968 C 0.87978 0.95171 0.39711 0.0
C6969 C 0.87416 0.95913 0.39483 0.0
N6970 N 0.86062 0.96779 0.39741 0.0
N6971 N 0.88138 0.93762 0.40532 0.0
C6972 C 0.86645 0.96118 0.40015 0.0
C6973 C 0.87712 0.94573 0.40415 0.0
N6974 N 0.85833 0.95883 0.41419 0.0
N6975 N 0.88778 0.95049 0.39265 0.0
H6976 H 0.87968 0.9331 0.41044 0.0
H6977 H 0.88612 0.93505 0.40081 0.0
H6978 H 0.88993 0.95471 0.38743 0.0
H6979 H 0.89264 0.9458 0.3946 0.0
H6980 H 0.8551 0.96506 0.41386 0.0
H6981 H 0.85682 0.95522 0.42005 0.0
H6982 H 0.85435 0.96892 0.40039 0.0
H6983 H 0.86172 0.97175 0.39169 0.0
C6984 C 0.80249 0.12658 0.16153 0.0
C6985 C 0.81169 0.1245 0.15985 0.0
C6986 C 0.81012 0.13088 0.14463 0.0
C6987 C 0.80059 0.13111 0.14576 0.0
N6988 N 0.79073 0.1369 0.15732 0.0
N6989 N 0.82457 0.12525 0.14988 0.0
C6990 C 0.7974 0.13109 0.15479 0.0
C6991 C 0.81563 0.12689 0.15144 0.0
N6992 N 0.79854 0.12428 0.16954 0.0
N6993 N 0.81391 0.13547 0.13759 0.0
H6994 H 0.82893 0.12277 0.15483 0.0
H6995 H 0.82753 0.12585 0.14353 0.0
H6996 H 0.81001 0.13938 0.13321 0.0
H6997 H 0.82085 0.13632 0.13678 0.0
H6998 H 0.79163 0.12504 0.17067 0.0
H6999 H 0.80201 0.12098 0.1747 0.0
H7000 H 0.78861 0.13761 0.164 0.0
H7001 H 0.78869 0.14215 0.15307 0.0
C7002 C 0.36363 0.55202 0.5992 0.0
C7003 C 0.36982 0.55874 0.59629 0.0
C7004 C 0.38037 0.55441 0.60834 0.0
C7005 C 0.37431 0.5475 0.61107 0.0
N7006 N 0.36082 0.53878 0.60849 0.0
N7007 N 0.38456 0.56558 0.59708 0.0
C7008 C 0.36613 0.54601 0.60629 0.0
C7009 C 0.37835 0.5597 0.60056 0.0
N7010 N 0.35525 0.55156 0.59534 0.0
N7011 N 0.38795 0.55607 0.61337 0.0
H7012 H 0.38321 0.56975 0.59156 0.0
H7013 H 0.39124 0.56594 0.59922 0.0
H7014 H 0.38983 0.55211 0.61889 0.0
H7015 H 0.3921 0.56166 0.61245 0.0
H7016 H 0.35001 0.54758 0.5978 0.0
H7017 H 0.3533 0.55561 0.58991 0.0
H7018 H 0.35528 0.5367 0.6047 0.0
H7019 H 0.36231 0.53441 0.61381 0.0
C7020 C 0.20464 0.61329 0.34925 0.0
C7021 C 0.19812 0.61962 0.34618 0.0
C7022 C 0.2026 0.63021 0.35816 0.0
C7023 C 0.20931 0.624 0.36105 0.0
N7024 N 0.2177 0.61026 0.35873 0.0
N7025 N 0.19166 0.63454 0.34671 0.0
C7026 C 0.21063 0.61572 0.35639 0.0
C7027 C 0.19735 0.62823 0.35034 0.0
N7028 N 0.20493 0.60486 0.34549 0.0
N7029 N 0.20107 0.63788 0.36308 0.0
H7030 H 0.18753 0.63324 0.34116 0.0
H7031 H 0.19147 0.64126 0.34876 0.0
H7032 H 0.205 0.63972 0.36863 0.0
H7033 H 0.19561 0.64218 0.36203 0.0
H7034 H 0.20874 0.59955 0.34807 0.0
H7035 H 0.20091 0.60296 0.34002 0.0
H7036 H 0.21967 0.60461 0.35504 0.0
H7037 H 0.22205 0.6117 0.36408 0.0
C7038 C 0.3103 0.37928 0.85116 0.0
C7039 C 0.30943 0.38785 0.84693 0.0
C7040 C 0.29679 0.39164 0.85702 0.0
C7041 C 0.29819 0.38342 0.86174 0.0
N7042 N 0.30659 0.36966 0.86392 0.0
N7043 N 0.30242 0.40251 0.84608 0.0
C7044 C 0.30501 0.37728 0.85895 0.0
C7045 C 0.30279 0.39411 0.8499 0.0
N7046 N 0.3161 0.37303 0.84762 0.0
N7047 N 0.28964 0.39704 0.85928 0.0
H7048 H 0.30646 0.40442 0.84064 0.0
H7049 H 0.29851 0.40778 0.84859 0.0
H7050 H 0.28529 0.39559 0.86462 0.0
H7051 H 0.28762 0.40263 0.85553 0.0
H7052 H 0.31638 0.36633 0.84973 0.0
H7053 H 0.32026 0.37435 0.8421 0.0
H7054 H 0.31213 0.36544 0.86296 0.0
H7055 H 0.30263 0.36779 0.86943 0.0
C7056 C 0.90852 0.86393 0.55005 0.0
C7057 C 0.91008 0.86891 0.5581 0.0
C7058 C 0.89735 0.87889 0.55442 0.0
C7059 C 0.89522 0.87334 0.5469 0.0
N7060 N 0.89802 0.85991 0.53812 0.0
N7061 N 0.9054 0.88043 0.56861 0.0
C7062 C 0.90063 0.86569 0.54484 0.0
C7063 C 0.90436 0.87623 0.56045 0.0
N7064 N 0.9147 0.85765 0.54729 0.0
N7065 N 0.89279 0.88683 0.55567 0.0
H7066 H 0.9105 0.87874 0.57316 0.0
H7067 H 0.90083 0.8851 0.57118 0.0
H7068 H 0.8876 0.88896 0.55142 0.0
H7069 H 0.89464 0.89165 0.56044 0.0
H7070 H 0.91447 0.85447 0.54102 0.0
H7071 H 0.92052 0.85614 0.55097 0.0
H7072 H 0.90107 0.85368 0.53697 0.0
H7073 H 0.89235 0.86102 0.5341 0.0
C7074 C 0.89208 0.15897 0.30058 0.0
C7075 C 0.88723 0.16039 0.30872 0.0
C7076 C 0.87742 0.14748 0.30516 0.0
C7077 C 0.88289 0.14549 0.29754 0.0
N7078 N 0.89611 0.1486 0.28855 0.0
N7079 N 0.876 0.15543 0.31942 0.0
C7080 C 0.89039 0.15106 0.29537 0.0
C7081 C 0.88006 0.15451 0.31118 0.0
N7082 N 0.89817 0.1653 0.29773 0.0
N7083 N 0.8696 0.14277 0.30653 0.0
H7084 H 0.87767 0.16054 0.32397 0.0
H7085 H 0.87146 0.15075 0.32205 0.0
H7086 H 0.86748 0.13757 0.30228 0.0
H7087 H 0.86483 0.1445 0.31139 0.0
H7088 H 0.90122 0.16516 0.2914 0.0
H7089 H 0.89962 0.17114 0.3014 0.0
H7090 H 0.90225 0.15178 0.2873 0.0
H7091 H 0.89506 0.14291 0.28453 0.0
C7092 C 0.60159 0.13068 0.0599 0.0
C7093 C 0.59609 0.13823 0.05773 0.0
C7094 C 0.60572 0.14157 0.04463 0.0
C7095 C 0.61093 0.13374 0.04653 0.0
N7096 N 0.61291 0.11993 0.0549 0.0
N7097 N 0.59183 0.14989 0.04721 0.0
C7098 C 0.60857 0.12801 0.05385 0.0
C7099 C 0.59783 0.14338 0.04983 0.0
N7100 N 0.60038 0.12628 0.06793 0.0
N7101 N 0.60852 0.14745 0.03809 0.0
H7102 H 0.58602 0.15143 0.05088 0.0
H7103 H 0.59219 0.15323 0.04103 0.0
H7104 H 0.61418 0.1463 0.03406 0.0
H7105 H 0.60564 0.15379 0.03709 0.0
H7106 H 0.60481 0.12141 0.07039 0.0
H7107 H 0.5953 0.12798 0.0725 0.0
H7108 H 0.6109 0.11502 0.0595 0.0
H7109 H 0.61809 0.11779 0.05062 0.0
C7110 C 0.62595 0.85266 0.81125 0.0
C7111 C 0.61866 0.8469 0.8089 0.0
C7112 C 0.61545 0.85628 0.7956 0.0
C7113 C 0.62305 0.86173 0.79768 0.0
N7114 N 0.6365 0.86427 0.80649 0.0
N7115 N 0.60747 0.84217 0.79806 0.0
C7116 C 0.6286 0.85966 0.80522 0.0
C7117 C 0.6137 0.8484 0.80083 0.0
N7118 N 0.63014 0.85165 0.81943 0.0
N7119 N 0.60969 0.85882 0.78884 0.0
H7120 H 0.60598 0.83636 0.80175 0.0
H7121 H 0.60432 0.84236 0.79178 0.0
H7122 H 0.61079 0.86448 0.78479 0.0
H7123 H 0.60348 0.85574 0.78767 0.0
H7124 H 0.63479 0.85625 0.822 0.0
H7125 H 0.62846 0.84655 0.82399 0.0
H7126 H 0.64131 0.86248 0.81128 0.0
H7127 H 0.63861 0.86947 0.80223 0.0
C7128 C 0.90502 0.13126 0.94751 0.0
C7129 C 0.91053 0.13882 0.94965 0.0
C7130 C 0.90086 0.14225 0.9627 0.0
C7131 C 0.89565 0.13442 0.96083 0.0
N7132 N 0.89367 0.12056 0.95255 0.0
N7133 N 0.91477 0.15053 0.96011 0.0
C7134 C 0.89802 0.12864 0.95356 0.0
C7135 C 0.90877 0.14402 0.95751 0.0
N7136 N 0.90625 0.12681 0.93952 0.0
N7137 N 0.89805 0.14818 0.96919 0.0
H7138 H 0.9206 0.15204 0.95645 0.0
H7139 H 0.9144 0.15392 0.96627 0.0
H7140 H 0.89238 0.14706 0.97321 0.0
H7141 H 0.90093 0.15452 0.97016 0.0
H7142 H 0.90182 0.12192 0.93707 0.0
H7143 H 0.91135 0.12847 0.93494 0.0
H7144 H 0.89569 0.11561 0.94798 0.0
H7145 H 0.88848 0.11845 0.95683 0.0
C7146 C 0.61462 0.15904 0.70634 0.0
C7147 C 0.6195 0.16055 0.69823 0.0
C7148 C 0.62941 0.14773 0.70176 0.0
C7149 C 0.62393 0.14563 0.70933 0.0
N7150 N 0.61063 0.14854 0.71827 0.0
N7151 N 0.63083 0.15577 0.68755 0.0
C7152 C 0.61636 0.15111 0.7115 0.0
C7153 C 0.62673 0.15476 0.69577 0.0
N7154 N 0.60846 0.16528 0.70921 0.0
N7155 N 0.63729 0.14311 0.7004 0.0
H7156 H 0.62912 0.16089 0.68302 0.0
H7157 H 0.63542 0.15115 0.68491 0.0
H7158 H 0.63944 0.1379 0.70463 0.0
H7159 H 0.64207 0.14492 0.69557 0.0
H7160 H 0.60537 0.16507 0.71552 0.0
H7161 H 0.60698 0.17114 0.70558 0.0
H7162 H 0.60445 0.15165 0.71951 0.0
H7163 H 0.61171 0.14284 0.72226 0.0
C7164 C 0.60021 0.86143 0.45615 0.0
C7165 C 0.59654 0.8681 0.45031 0.0
C7166 C 0.60795 0.87901 0.45543 0.0
C7167 C 0.61144 0.87244 0.46147 0.0
N7168 N 0.61026 0.85789 0.46864 0.0
N7169 N 0.5959 0.88355 0.44525 0.0
C7170 C 0.60736 0.86379 0.46215 0.0
C7171 C 0.6001 0.877 0.45023 0.0
N7172 N 0.597 0.85277 0.45576 0.0
N7173 N 0.61233 0.88709 0.45447 0.0
H7174 H 0.59033 0.88225 0.44114 0.0
H7175 H 0.5975 0.89038 0.44564 0.0
H7176 H 0.61788 0.88894 0.45839 0.0
H7177 H 0.61084 0.89177 0.44944 0.0
H7178 H 0.60003 0.84733 0.45901 0.0
H7179 H 0.59155 0.85088 0.45172 0.0
H7180 H 0.607 0.85186 0.47018 0.0
H7181 H 0.61561 0.85932 0.473 0.0
C7182 C 0.88119 0.85182 0.19743 0.0
C7183 C 0.88867 0.84628 0.19973 0.0
C7184 C 0.89195 0.85603 0.21276 0.0
C7185 C 0.88418 0.86128 0.21073 0.0
N7186 N 0.87046 0.86325 0.20221 0.0
N7187 N 0.90016 0.84203 0.21044 0.0
C7188 C 0.87851 0.85888 0.20338 0.0
C7189 C 0.89375 0.84807 0.20767 0.0
N7190 N 0.87687 0.85057 0.18936 0.0
N7191 N 0.89782 0.85887 0.2193 0.0
H7192 H 0.90167 0.83616 0.20686 0.0
H7193 H 0.90344 0.84243 0.21665 0.0
H7194 H 0.89669 0.8646 0.22323 0.0
H7195 H 0.90411 0.85594 0.2204 0.0
H7196 H 0.87206 0.85502 0.1868 0.0
H7197 H 0.87857 0.84544 0.18485 0.0
H7198 H 0.86557 0.86122 0.19758 0.0
H7199 H 0.86829 0.86847 0.20643 0.0
C7200 C 0.55672 0.90802 0.87695 0.0
C7201 C 0.55672 0.91158 0.86805 0.0
C7202 C 0.54484 0.90082 0.86368 0.0
C7203 C 0.54547 0.89673 0.87232 0.0
N7204 N 0.55239 0.8958 0.88701 0.0
N7205 N 0.55133 0.91115 0.8527 0.0
C7206 C 0.55148 0.9002 0.87894 0.0
C7207 C 0.55089 0.90794 0.86135 0.0
N7208 N 0.56168 0.91221 0.88353 0.0
N7209 N 0.53835 0.89797 0.85775 0.0
H7210 H 0.5554 0.91659 0.85083 0.0
H7211 H 0.5481 0.90813 0.84724 0.0
H7212 H 0.53686 0.90123 0.85171 0.0
H7213 H 0.53395 0.89266 0.85917 0.0
H7214 H 0.56124 0.91061 0.89036 0.0
H7215 H 0.56581 0.91777 0.88226 0.0
H7216 H 0.55739 0.89728 0.89172 0.0
H7217 H 0.54846 0.89025 0.88882 0.0
C7218 C 0.84728 0.80064 0.61377 0.0
C7219 C 0.84578 0.80877 0.61861 0.0
C7220 C 0.85859 0.80526 0.62856 0.0
C7221 C 0.86067 0.79766 0.6231 0.0
N7222 N 0.85774 0.78864 0.60987 0.0
N7223 N 0.85055 0.81948 0.62992 0.0
C7224 C 0.85519 0.79546 0.61555 0.0
C7225 C 0.85156 0.81125 0.62586 0.0
N7226 N 0.84104 0.79777 0.60761 0.0
N7227 N 0.86322 0.80665 0.63642 0.0
H7228 H 0.84543 0.824 0.6282 0.0
H7229 H 0.85517 0.82213 0.63451 0.0
H7230 H 0.86844 0.80243 0.63858 0.0
H7231 H 0.86142 0.8115 0.64118 0.0
H7232 H 0.84124 0.79144 0.60454 0.0
H7233 H 0.8352 0.80141 0.6061 0.0
H7234 H 0.85464 0.78738 0.60369 0.0
H7235 H 0.86343 0.78464 0.61099 0.0
C7236 C 0.95632 0.0988 0.3634 0.0
C7237 C 0.94841 0.09707 0.36852 0.0
C7238 C 0.9521 0.10973 0.37857 0.0
C7239 C 0.95947 0.11204 0.37289 0.0
N7240 N 0.96794 0.10956 0.35921 0.0
N7241 N 0.93803 0.10151 0.38025 0.0
C7242 C 0.96143 0.10677 0.36512 0.0
C7243 C 0.94611 0.10269 0.37593 0.0
N7244 N 0.95907 0.09272 0.35702 0.0
N7245 N 0.95096 0.11415 0.3866 0.0
H7246 H 0.93349 0.09639 0.37857 0.0
H7247 H 0.93549 0.10602 0.38501 0.0
H7248 H 0.9552 0.11936 0.38874 0.0
H7249 H 0.94631 0.11216 0.39149 0.0
H7250 H 0.96528 0.09309 0.35373 0.0
H7251 H 0.95548 0.08684 0.35555 0.0
H7252 H 0.969 0.1066 0.35292 0.0
H7253 H 0.97186 0.11532 0.36026 0.0
C7254 C 0.65687 0.19812 0.1271 0.0
C7255 C 0.66077 0.19846 0.11835 0.0
C7256 C 0.65043 0.21075 0.11413 0.0
C7257 C 0.64601 0.20984 0.12259 0.0
N7258 N 0.64437 0.20227 0.13689 0.0
N7259 N 0.66099 0.2045 0.10324 0.0
C7260 C 0.64908 0.20344 0.12904 0.0
C7261 C 0.6575 0.20464 0.11179 0.0
N7262 N 0.66069 0.19278 0.1336 0.0
N7263 N 0.64794 0.21755 0.1084 0.0
H7264 H 0.6664 0.20038 0.10139 0.0
H7265 H 0.65824 0.20803 0.09783 0.0
H7266 H 0.64266 0.222 0.10981 0.0
H7267 H 0.65147 0.21924 0.10257 0.0
H7268 H 0.65884 0.19293 0.14037 0.0
H7269 H 0.66621 0.18859 0.13234 0.0
H7270 H 0.64555 0.19702 0.14142 0.0
H7271 H 0.63883 0.20625 0.13867 0.0
C7272 C 0.55948 0.10091 0.62947 0.0
C7273 C 0.5586 0.09666 0.63802 0.0
C7274 C 0.54608 0.10686 0.64191 0.0
C7275 C 0.54747 0.11158 0.63369 0.0
N7276 N 0.55582 0.11371 0.61988 0.0
N7277 N 0.55164 0.09582 0.65271 0.0
C7278 C 0.55424 0.10875 0.62751 0.0
C7279 C 0.55202 0.09968 0.64432 0.0
N7280 N 0.56524 0.09736 0.62319 0.0
N7281 N 0.53899 0.10919 0.64736 0.0
H7282 H 0.55563 0.09032 0.65458 0.0
H7283 H 0.54779 0.09834 0.65801 0.0
H7284 H 0.5347 0.1146 0.64596 0.0
H7285 H 0.53696 0.10545 0.65295 0.0
H7286 H 0.56551 0.09947 0.6165 0.0
H7287 H 0.56937 0.0918 0.62449 0.0
H7288 H 0.56132 0.11272 0.61563 0.0
H7289 H 0.55188 0.11925 0.61803 0.0
C7290 C 0.65915 0.8014 0.39296 0.0
C7291 C 0.6606 0.80948 0.388 0.0
C7292 C 0.64776 0.80578 0.37816 0.0
C7293 C 0.64575 0.79823 0.38371 0.0
N7294 N 0.64877 0.78941 0.39706 0.0
N7295 N 0.65572 0.82002 0.37658 0.0
C7296 C 0.65126 0.79617 0.39128 0.0
C7297 C 0.65477 0.81183 0.38076 0.0
N7298 N 0.66544 0.79864 0.39913 0.0
N7299 N 0.64309 0.80704 0.3703 0.0
H7300 H 0.66081 0.82459 0.37823 0.0
H7301 H 0.65106 0.82258 0.37198 0.0
H7302 H 0.63789 0.80277 0.36821 0.0
H7303 H 0.64484 0.81184 0.36547 0.0
H7304 H 0.66529 0.79236 0.40227 0.0
H7305 H 0.67127 0.80233 0.40056 0.0
H7306 H 0.65191 0.78825 0.40325 0.0
H7307 H 0.6431 0.78537 0.39602 0.0
C7308 C 0.94592 0.90355 0.13008 0.0
C7309 C 0.94838 0.90951 0.13717 0.0
C7310 C 0.96187 0.90037 0.14027 0.0
C7311 C 0.95969 0.89471 0.13284 0.0
N7312 N 0.9506 0.89178 0.11967 0.0
N7313 N 0.95943 0.91464 0.14796 0.0
C7314 C 0.95199 0.89657 0.12744 0.0
C7315 C 0.95659 0.90823 0.14195 0.0
N7316 N 0.93763 0.90434 0.12609 0.0
N7317 N 0.96878 0.89803 0.14594 0.0
H7318 H 0.95571 0.92045 0.1494 0.0
H7319 H 0.9658 0.9146 0.15095 0.0
H7320 H 0.97286 0.89238 0.14489 0.0
H7321 H 0.97005 0.90128 0.15205 0.0
H7322 H 0.935 0.89959 0.12162 0.0
H7323 H 0.93303 0.90941 0.12777 0.0
H7324 H 0.94567 0.89341 0.11493 0.0
H7325 H 0.95489 0.8866 0.11755 0.0
C7326 C 0.85226 0.19573 0.88074 0.0
C7327 C 0.84629 0.19812 0.88785 0.0
C7328 C 0.85539 0.21161 0.89106 0.0
C7329 C 0.86107 0.20949 0.88363 0.0
N7330 N 0.86408 0.2005 0.87041 0.0
N7331 N 0.84114 0.20905 0.89874 0.0
C7332 C 0.85924 0.20183 0.87816 0.0
C7333 C 0.84755 0.20629 0.8927 0.0
N7334 N 0.85147 0.18748 0.87666 0.0
N7335 N 0.85769 0.2185 0.89676 0.0
H7336 H 0.83535 0.2053 0.90015 0.0
H7337 H 0.84115 0.21539 0.90178 0.0
H7338 H 0.86332 0.22262 0.89574 0.0
H7339 H 0.85444 0.21973 0.90288 0.0
H7340 H 0.85622 0.1849 0.87217 0.0
H7341 H 0.84639 0.18288 0.87828 0.0
H7342 H 0.86248 0.1956 0.86563 0.0
H7343 H 0.86926 0.2048 0.86835 0.0
C7344 C 0.87771 0.55827 0.90693 0.0
C7345 C 0.86903 0.55776 0.91098 0.0
C7346 C 0.86486 0.54542 0.90068 0.0
C7347 C 0.87322 0.5465 0.89612 0.0
N7348 N 0.88737 0.55431 0.89427 0.0
N7349 N 0.85405 0.55142 0.91147 0.0
C7350 C 0.87961 0.553 0.8991 0.0
C7351 C 0.86254 0.55145 0.90781 0.0
N7352 N 0.88416 0.56374 0.91065 0.0
N7353 N 0.8592 0.53853 0.89826 0.0
H7354 H 0.85222 0.55547 0.91694 0.0
H7355 H 0.84866 0.54779 0.90881 0.0
H7356 H 0.86058 0.53414 0.89292 0.0
H7357 H 0.85346 0.53672 0.90188 0.0
H7358 H 0.8909 0.56373 0.90867 0.0
H7359 H 0.88292 0.5679 0.9162 0.0
H7360 H 0.89183 0.55962 0.8954 0.0
H7361 H 0.88914 0.55035 0.88871 0.0
C7362 C 0.37694 0.94652 0.10206 0.0
C7363 C 0.36972 0.94876 0.09615 0.0
C7364 C 0.36641 0.96227 0.10521 0.0
C7365 C 0.37392 0.96027 0.11083 0.0
N7366 N 0.38732 0.95151 0.11373 0.0
N7367 N 0.35865 0.95954 0.09104 0.0
C7368 C 0.37949 0.95269 0.10898 0.0
C7369 C 0.36478 0.95688 0.09741 0.0
N7370 N 0.38112 0.93832 0.10127 0.0
N7371 N 0.36063 0.96908 0.10754 0.0
H7372 H 0.35725 0.95574 0.08527 0.0
H7373 H 0.35552 0.96583 0.09105 0.0
H7374 H 0.36166 0.97324 0.11313 0.0
H7375 H 0.35447 0.9702 0.10433 0.0
H7376 H 0.3857 0.93584 0.10599 0.0
H7377 H 0.37952 0.93367 0.09624 0.0
H7378 H 0.39216 0.94667 0.1121 0.0
H7379 H 0.38937 0.95587 0.11887 0.0
C7380 C 0.81117 0.62578 0.85316 0.0
C7381 C 0.80886 0.6184 0.84748 0.0
C7382 C 0.79568 0.61511 0.857 0.0
C7383 C 0.79766 0.62282 0.86234 0.0
N7384 N 0.80631 0.63642 0.86465 0.0
N7385 N 0.79816 0.607 0.84297 0.0
C7386 C 0.80512 0.62844 0.86015 0.0
C7387 C 0.80088 0.61335 0.8491 0.0
N7388 N 0.81929 0.63004 0.85208 0.0
N7389 N 0.78904 0.60927 0.85967 0.0
H7390 H 0.80183 0.6055 0.83715 0.0
H7391 H 0.79193 0.60377 0.84324 0.0
H7392 H 0.78503 0.61037 0.86535 0.0
H7393 H 0.78795 0.60301 0.85667 0.0
H7394 H 0.82183 0.63476 0.85663 0.0
H7395 H 0.82386 0.62835 0.847 0.0
H7396 H 0.81102 0.64127 0.86275 0.0
H7397 H 0.80204 0.63856 0.86983 0.0
C7398 C 0.13053 0.06063 0.60184 0.0
C7399 C 0.13771 0.05817 0.59597 0.0
C7400 C 0.14085 0.04481 0.60528 0.0
C7401 C 0.13336 0.047 0.61086 0.0
N7402 N 0.12008 0.05599 0.61359 0.0
N7403 N 0.14863 0.04716 0.59105 0.0
C7404 C 0.1279 0.05462 0.60887 0.0
C7405 C 0.14254 0.05002 0.59738 0.0
N7406 N 0.12647 0.06887 0.60091 0.0
N7407 N 0.14656 0.03798 0.60774 0.0
H7408 H 0.15007 0.05082 0.5852 0.0
H7409 H 0.15167 0.04082 0.59118 0.0
H7410 H 0.1455 0.03395 0.61342 0.0
H7411 H 0.1527 0.03672 0.60456 0.0
H7412 H 0.12193 0.07151 0.60559 0.0
H7413 H 0.12814 0.07342 0.5958 0.0
H7414 H 0.11531 0.06086 0.61186 0.0
H7415 H 0.11798 0.05175 0.61881 0.0
C7416 C 0.20494 0.89358 0.84942 0.0
C7417 C 0.19818 0.88742 0.84652 0.0
C7418 C 0.20241 0.87689 0.85863 0.0
C7419 C 0.20934 0.88293 0.86137 0.0
N7420 N 0.21813 0.89637 0.85878 0.0
N7421 N 0.19121 0.87275 0.84737 0.0
C7422 C 0.21089 0.89108 0.85656 0.0
C7423 C 0.19714 0.87892 0.85083 0.0
N7424 N 0.20548 0.90192 0.84549 0.0
N7425 N 0.2007 0.86934 0.86367 0.0
H7426 H 0.18706 0.8741 0.84184 0.0
H7427 H 0.1908 0.86608 0.84953 0.0
H7428 H 0.20465 0.86743 0.86918 0.0
H7429 H 0.19508 0.86521 0.86275 0.0
H7430 H 0.2095 0.90715 0.84794 0.0
H7431 H 0.20149 0.90385 0.84002 0.0
H7432 H 0.22027 0.90188 0.85498 0.0
H7433 H 0.22245 0.8949 0.86415 0.0
C7434 C 0.64244 0.45603 0.409 0.0
C7435 C 0.63768 0.44784 0.41046 0.0
C7436 C 0.62782 0.45124 0.39755 0.0
C7437 C 0.63321 0.4589 0.39551 0.0
N7438 N 0.64634 0.46805 0.39857 0.0
N7439 N 0.62655 0.437 0.40555 0.0
C7440 C 0.64069 0.46118 0.40107 0.0
C7441 C 0.63053 0.44528 0.40459 0.0
N7442 N 0.6485 0.45897 0.41531 0.0
N7443 N 0.62001 0.44977 0.39285 0.0
H7444 H 0.62828 0.43249 0.41068 0.0
H7445 H 0.62204 0.4343 0.40088 0.0
H7446 H 0.61784 0.45398 0.38763 0.0
H7447 H 0.61529 0.44487 0.39461 0.0
H7448 H 0.65149 0.46534 0.41514 0.0
H7449 H 0.64999 0.45535 0.42117 0.0
H7450 H 0.65247 0.46937 0.40174 0.0
H7451 H 0.64525 0.47202 0.39286 0.0
C7452 C 0.80172 0.39327 0.65763 0.0
C7453 C 0.80845 0.38703 0.66041 0.0
C7454 C 0.80401 0.37665 0.64824 0.0
C7455 C 0.7971 0.38278 0.64563 0.0
N7456 N 0.78845 0.39626 0.64844 0.0
N7457 N 0.81526 0.37229 0.65937 0.0
C7458 C 0.79568 0.39089 0.65053 0.0
C7459 C 0.80936 0.37855 0.65601 0.0
N7460 N 0.8013 0.40159 0.66162 0.0
N7461 N 0.8056 0.36913 0.64311 0.0
H7462 H 0.81946 0.37355 0.66487 0.0
H7463 H 0.81558 0.36564 0.65713 0.0
H7464 H 0.80159 0.36733 0.6376 0.0
H7465 H 0.81117 0.36494 0.64395 0.0
H7466 H 0.79732 0.40688 0.65926 0.0
H7467 H 0.80537 0.40344 0.66707 0.0
H7468 H 0.78641 0.40175 0.65231 0.0
H7469 H 0.78406 0.39487 0.64311 0.0
C7470 C 0.69806 0.62639 0.15553 0.0
C7471 C 0.69872 0.61773 0.1596 0.0
C7472 C 0.7112 0.61378 0.14938 0.0
C7473 C 0.71002 0.62214 0.14483 0.0
N7474 N 0.70196 0.63614 0.14292 0.0
N7475 N 0.70532 0.60287 0.16013 0.0
C7476 C 0.70337 0.62839 0.14775 0.0
C7477 C 0.70516 0.61135 0.15647 0.0
N7478 N 0.69245 0.63274 0.1592 0.0
N7479 N 0.7182 0.60824 0.14699 0.0
H7480 H 0.70124 0.60096 0.16555 0.0
H7481 H 0.70907 0.59754 0.1575 0.0
H7482 H 0.72259 0.60969 0.14167 0.0
H7483 H 0.72008 0.60252 0.15061 0.0
H7484 H 0.69235 0.63948 0.15723 0.0
H7485 H 0.68825 0.63142 0.16471 0.0
H7486 H 0.69654 0.64048 0.14399 0.0
H7487 H 0.70594 0.638 0.13741 0.0
C7488 C 0.59913 0.64303 0.95441 0.0
C7489 C 0.59622 0.63693 0.94761 0.0
C7490 C 0.60837 0.62638 0.95171 0.0
C7491 C 0.61112 0.63237 0.95868 0.0
N7492 N 0.60854 0.64573 0.96759 0.0
N7493 N 0.59707 0.62231 0.94052 0.0
C7494 C 0.6063 0.64049 0.96032 0.0
C7495 C 0.60054 0.62844 0.94649 0.0
N7496 N 0.5952 0.65137 0.95504 0.0
N7497 N 0.6134 0.61884 0.94993 0.0
H7498 H 0.59152 0.62369 0.93641 0.0
H7499 H 0.59924 0.61565 0.94004 0.0
H7500 H 0.61893 0.61691 0.95385 0.0
H7501 H 0.61247 0.61475 0.94429 0.0
H7502 H 0.59765 0.65656 0.95908 0.0
H7503 H 0.58971 0.65332 0.95108 0.0
H7504 H 0.60473 0.65121 0.96979 0.0
H7505 H 0.61393 0.64424 0.97187 0.0
C7506 C 0.61554 0.34766 0.20619 0.0
C7507 C 0.62029 0.34642 0.19796 0.0
C7508 C 0.62997 0.35941 0.20155 0.0
C7509 C 0.62458 0.36123 0.20926 0.0
N7510 N 0.61156 0.35781 0.21842 0.0
N7511 N 0.63133 0.35164 0.18719 0.0
C7512 C 0.6172 0.35552 0.21148 0.0
C7513 C 0.62736 0.35241 0.19548 0.0
N7514 N 0.60957 0.34122 0.20904 0.0
N7515 N 0.6377 0.36426 0.20013 0.0
H7516 H 0.62968 0.34655 0.1826 0.0
H7517 H 0.63578 0.3564 0.18455 0.0
H7518 H 0.63979 0.36946 0.20441 0.0
H7519 H 0.64243 0.36267 0.19518 0.0
H7520 H 0.60661 0.34123 0.21541 0.0
H7521 H 0.60815 0.33541 0.20531 0.0
H7522 H 0.60548 0.35453 0.21972 0.0
H7523 H 0.61261 0.36344 0.22252 0.0
C7524 C 0.90566 0.37827 0.44638 0.0
C7525 C 0.90986 0.3697 0.44729 0.0
C7526 C 0.89972 0.36596 0.45989 0.0
C7527 C 0.89501 0.37419 0.45845 0.0
N7528 N 0.8929 0.38793 0.45 0.0
N7529 N 0.91065 0.35506 0.45433 0.0
C7530 C 0.89785 0.3803 0.45163 0.0
C7531 C 0.90685 0.36347 0.45392 0.0
N7532 N 0.90924 0.38451 0.44059 0.0
N7533 N 0.89742 0.36059 0.46705 0.0
H7534 H 0.9161 0.35311 0.45031 0.0
H7535 H 0.90811 0.3498 0.45824 0.0
H7536 H 0.89207 0.36207 0.47139 0.0
H7537 H 0.90115 0.35501 0.46911 0.0
H7538 H 0.90715 0.39121 0.44029 0.0
H7539 H 0.91478 0.38316 0.43646 0.0
H7540 H 0.8939 0.39213 0.44446 0.0
H7541 H 0.88737 0.38983 0.45394 0.0
C7542 C 0.89306 0.6588 0.70589 0.0
C7543 C 0.88799 0.66036 0.69791 0.0
C7544 C 0.87804 0.64763 0.70169 0.0
C7545 C 0.88369 0.6455 0.70914 0.0
N7546 N 0.8972 0.64831 0.71778 0.0
N7547 N 0.87634 0.6557 0.68753 0.0
C7548 C 0.89136 0.65091 0.71112 0.0
C7549 C 0.88063 0.65464 0.69563 0.0
N7550 N 0.89937 0.66498 0.70858 0.0
N7551 N 0.87011 0.64306 0.70051 0.0
H7552 H 0.87797 0.6608 0.68296 0.0
H7553 H 0.87163 0.65113 0.685 0.0
H7554 H 0.86803 0.63785 0.70478 0.0
H7555 H 0.86522 0.6449 0.6958 0.0
H7556 H 0.90262 0.66475 0.71481 0.0
H7557 H 0.90083 0.6708 0.70489 0.0
H7558 H 0.90345 0.65135 0.71886 0.0
H7559 H 0.89613 0.64264 0.72182 0.0
C7560 C 0.60262 0.37712 0.56101 0.0
C7561 C 0.59684 0.36986 0.55859 0.0
C7562 C 0.60624 0.36672 0.54529 0.0
C7563 C 0.61173 0.37428 0.54744 0.0
N7564 N 0.61426 0.38767 0.55633 0.0
N7565 N 0.59208 0.3588 0.54764 0.0
C7566 C 0.60964 0.37979 0.555 0.0
C7567 C 0.59833 0.36497 0.55048 0.0
N7568 N 0.60162 0.38123 0.56922 0.0
N7569 N 0.60879 0.36099 0.53851 0.0
H7570 H 0.58625 0.35732 0.5513 0.0
H7571 H 0.59228 0.3557 0.54133 0.0
H7572 H 0.61448 0.36208 0.5345 0.0
H7573 H 0.60568 0.3548 0.53729 0.0
H7574 H 0.60624 0.38584 0.57183 0.0
H7575 H 0.59651 0.37954 0.57376 0.0
H7576 H 0.61246 0.39246 0.56115 0.0
H7577 H 0.61946 0.38981 0.55209 0.0
C7578 C 0.87911 0.35205 0.81117 0.0
C7579 C 0.88626 0.34609 0.80886 0.0
C7580 C 0.8895 0.35509 0.79531 0.0
C7581 C 0.88205 0.36077 0.79737 0.0
N7582 N 0.86877 0.36379 0.80626 0.0
N7583 N 0.89719 0.34087 0.798 0.0
C7584 C 0.87655 0.35897 0.80501 0.0
C7585 C 0.89113 0.34729 0.80069 0.0
N7586 N 0.875 0.3513 0.8194 0.0
N7587 N 0.89522 0.35735 0.78842 0.0
H7588 H 0.89859 0.3351 0.8018 0.0
H7589 H 0.90025 0.34084 0.79167 0.0
H7590 H 0.89419 0.36293 0.78426 0.0
H7591 H 0.90134 0.3541 0.78724 0.0
H7592 H 0.87048 0.35605 0.82193 0.0
H7593 H 0.87661 0.34626 0.82405 0.0
H7594 H 0.86397 0.3622 0.81115 0.0
H7595 H 0.86672 0.36894 0.80191 0.0
C7596 C 0.90446 0.62957 0.06162 0.0
C7597 C 0.91028 0.63676 0.05909 0.0
C7598 C 0.90089 0.63974 0.04574 0.0
C7599 C 0.89537 0.63223 0.048 0.0
N7600 N 0.89278 0.61899 0.0571 0.0
N7601 N 0.91509 0.64763 0.04797 0.0
C7602 C 0.89743 0.62684 0.05565 0.0
C7603 C 0.90881 0.64153 0.0509 0.0
N7604 N 0.90544 0.62558 0.06989 0.0
N7605 N 0.89837 0.64539 0.03888 0.0
H7606 H 0.92093 0.64913 0.05161 0.0
H7607 H 0.91491 0.65062 0.04162 0.0
H7608 H 0.89267 0.64427 0.03489 0.0
H7609 H 0.9015 0.65154 0.03757 0.0
H7610 H 0.9008 0.62103 0.07258 0.0
H7611 H 0.91056 0.62732 0.07441 0.0
H7612 H 0.89456 0.61427 0.06199 0.0
H7613 H 0.88757 0.61681 0.05288 0.0
C7614 C 0.61425 0.65833 0.30097 0.0
C7615 C 0.61928 0.65981 0.30899 0.0
C7616 C 0.62916 0.64703 0.3052 0.0
C7617 C 0.62354 0.64498 0.29771 0.0
N7618 N 0.61011 0.64793 0.289 0.0
N7619 N 0.63084 0.65501 0.31941 0.0
C7620 C 0.61593 0.65045 0.29571 0.0
C7621 C 0.62658 0.65403 0.31128 0.0
N7622 N 0.60799 0.66456 0.29827 0.0
N7623 N 0.63706 0.64239 0.3064 0.0
H7624 H 0.62921 0.6601 0.324 0.0
H7625 H 0.63549 0.65039 0.32194 0.0
H7626 H 0.63912 0.63719 0.30212 0.0
H7627 H 0.64192 0.64418 0.31115 0.0
H7628 H 0.60478 0.66439 0.29202 0.0
H7629 H 0.60655 0.67037 0.30199 0.0
H7630 H 0.60389 0.65102 0.28788 0.0
H7631 H 0.61117 0.64228 0.28493 0.0
C7632 C 0.94608 0.60241 0.63003 0.0
C7633 C 0.94838 0.59665 0.63734 0.0
C7634 C 0.96167 0.60603 0.64063 0.0
C7635 C 0.95964 0.61149 0.63302 0.0
N7636 N 0.95091 0.61404 0.61953 0.0
N7637 N 0.95915 0.59192 0.64859 0.0
C7638 C 0.95213 0.60942 0.62743 0.0
C7639 C 0.95643 0.59815 0.64234 0.0
N7640 N 0.93793 0.60141 0.6258 0.0
N7641 N 0.96839 0.60857 0.64643 0.0
H7642 H 0.95545 0.5861 0.65005 0.0
H7643 H 0.96541 0.5921 0.65177 0.0
H7644 H 0.97245 0.61422 0.64536 0.0
H7645 H 0.96953 0.60548 0.65265 0.0
H7646 H 0.93538 0.60602 0.62114 0.0
H7647 H 0.93335 0.59631 0.62744 0.0
H7648 H 0.94615 0.61225 0.61468 0.0
H7649 H 0.95518 0.61924 0.61745 0.0
C7650 C 0.65569 0.69733 0.87837 0.0
C7651 C 0.66003 0.69833 0.88686 0.0
C7652 C 0.65003 0.71106 0.89056 0.0
C7653 C 0.64519 0.70953 0.88243 0.0
N7654 N 0.64284 0.70092 0.86882 0.0
N7655 N 0.66111 0.70562 0.90137 0.0
C7656 C 0.64789 0.7026 0.87637 0.0
C7657 C 0.65716 0.70509 0.89304 0.0
N7658 N 0.65913 0.69139 0.87218 0.0
N7659 N 0.64783 0.7183 0.89587 0.0
H7660 H 0.66659 0.70161 0.90328 0.0
H7661 H 0.65869 0.70963 0.90661 0.0
H7662 H 0.64247 0.72263 0.89443 0.0
H7663 H 0.65165 0.72042 0.90137 0.0
H7664 H 0.65694 0.691 0.86551 0.0
H7665 H 0.66465 0.68723 0.87351 0.0
H7666 H 0.64373 0.69532 0.86468 0.0
H7667 H 0.63733 0.70489 0.86693 0.0
C7668 C 0.56109 0.40369 0.13004 0.0
C7669 C 0.55871 0.40946 0.13732 0.0
C7670 C 0.5454 0.40006 0.14049 0.0
C7671 C 0.54751 0.3946 0.1329 0.0
N7672 N 0.55635 0.39208 0.11947 0.0
N7673 N 0.54783 0.41418 0.14846 0.0
C7674 C 0.55506 0.39669 0.12737 0.0
C7675 C 0.55062 0.40795 0.14224 0.0
N7676 N 0.56928 0.40469 0.12589 0.0
N7677 N 0.53864 0.39751 0.14624 0.0
H7678 H 0.5515 0.42001 0.14995 0.0
H7679 H 0.54153 0.41399 0.15158 0.0
H7680 H 0.53461 0.39184 0.14515 0.0
H7681 H 0.53746 0.4006 0.15245 0.0
H7682 H 0.57187 0.40008 0.12126 0.0
H7683 H 0.57384 0.40978 0.12759 0.0
H7684 H 0.56116 0.39389 0.11467 0.0
H7685 H 0.55209 0.38689 0.11733 0.0
C7686 C 0.84991 0.30795 0.37845 0.0
C7687 C 0.84585 0.30735 0.38712 0.0
C7688 C 0.85617 0.29499 0.3912 0.0
C7689 C 0.86076 0.29618 0.38286 0.0
N7690 N 0.86254 0.30404 0.36873 0.0
N7691 N 0.84529 0.30082 0.40201 0.0
C7692 C 0.85774 0.30269 0.37651 0.0
C7693 C 0.849 0.30097 0.39355 0.0
N7694 N 0.84619 0.31347 0.37205 0.0
N7695 N 0.85864 0.28808 0.39681 0.0
H7696 H 0.83979 0.30482 0.40385 0.0
H7697 H 0.84792 0.29713 0.40738 0.0
H7698 H 0.86402 0.28375 0.39541 0.0
H7699 H 0.85502 0.2862 0.40253 0.0
H7700 H 0.84816 0.31353 0.36531 0.0
H7701 H 0.84063 0.31761 0.37332 0.0
H7702 H 0.86141 0.30938 0.36431 0.0
H7703 H 0.86807 0.30007 0.36691 0.0
C7704 C 0.95717 0.40834 0.86311 0.0
C7705 C 0.95176 0.4127 0.86974 0.0
C7706 C 0.95723 0.40191 0.88102 0.0
C7707 C 0.96083 0.39643 0.87404 0.0
N7708 N 0.96476 0.39468 0.8583 0.0
N7709 N 0.95425 0.41732 0.88513 0.0
C7710 C 0.961 0.39973 0.86503 0.0
C7711 C 0.95382 0.4106 0.87886 0.0
N7712 N 0.9598 0.41303 0.85563 0.0
N7713 N 0.95695 0.39884 0.88971 0.0
H7714 H 0.95388 0.4241 0.88325 0.0
H7715 H 0.95645 0.41626 0.89174 0.0
H7716 H 0.95938 0.39251 0.89161 0.0
H7717 H 0.95364 0.40236 0.89483 0.0
H7718 H 0.96443 0.41056 0.85094 0.0
H7719 H 0.95828 0.41987 0.85485 0.0
H7720 H 0.96411 0.39633 0.85149 0.0
H7721 H 0.96805 0.38856 0.85947 0.0
C7722 C 0.85194 0.69769 0.12848 0.0
C7723 C 0.8476 0.6987 0.11999 0.0
C7724 C 0.85763 0.71141 0.11628 0.0
C7725 C 0.86247 0.70987 0.12442 0.0
N7726 N 0.8648 0.70125 0.13803 0.0
N7727 N 0.84653 0.70598 0.10548 0.0
C7728 C 0.85975 0.70295 0.13048 0.0
C7729 C 0.85048 0.70545 0.11381 0.0
N7730 N 0.84849 0.69177 0.13468 0.0
N7731 N 0.85984 0.71863 0.11097 0.0
H7732 H 0.84106 0.70198 0.10357 0.0
H7733 H 0.84896 0.70998 0.10024 0.0
H7734 H 0.86521 0.72296 0.11243 0.0
H7735 H 0.85603 0.72076 0.10547 0.0
H7736 H 0.85068 0.69137 0.14134 0.0
H7737 H 0.84296 0.68761 0.13334 0.0
H7738 H 0.8639 0.69565 0.14216 0.0
H7739 H 0.87032 0.70521 0.13992 0.0
C7740 C 0.55165 0.59474 0.37591 0.0
C7741 C 0.56089 0.59634 0.37395 0.0
C7742 C 0.55937 0.61159 0.3803 0.0
C7743 C 0.54982 0.61052 0.38043 0.0
N7744 N 0.53982 0.59902 0.3861 0.0
N7745 N 0.57385 0.6062 0.37487 0.0
C7746 C 0.54656 0.60152 0.38036 0.0
C7747 C 0.56487 0.60472 0.37639 0.0
N7748 N 0.54767 0.58677 0.37353 0.0
N7749 N 0.56316 0.61862 0.38489 0.0
H7750 H 0.5782 0.60121 0.37246 0.0
H7751 H 0.57686 0.61253 0.3755 0.0
H7752 H 0.55925 0.62305 0.38874 0.0
H7753 H 0.57009 0.6194 0.38582 0.0
H7754 H 0.54073 0.5857 0.37419 0.0
H7755 H 0.55114 0.58158 0.37027 0.0
H7756 H 0.53762 0.59236 0.38675 0.0
H7757 H 0.5378 0.60325 0.39136 0.0
C7758 C 0.65427 0.31116 0.62717 0.0
C7759 C 0.66007 0.30875 0.61992 0.0
C7760 C 0.65069 0.29543 0.61676 0.0
C7761 C 0.64519 0.29757 0.62432 0.0
N7762 N 0.64262 0.30646 0.6377 0.0
N7763 N 0.66485 0.29781 0.60887 0.0
C7764 C 0.64725 0.30514 0.62983 0.0
C7765 C 0.65859 0.30063 0.61503 0.0
N7766 N 0.65525 0.31937 0.63128 0.0
N7767 N 0.64816 0.28865 0.61102 0.0
H7768 H 0.67069 0.30147 0.6074 0.0
H7769 H 0.66468 0.2915 0.60577 0.0
H7770 H 0.64247 0.28463 0.61211 0.0
H7771 H 0.65128 0.28744 0.60484 0.0
H7772 H 0.65061 0.32198 0.63588 0.0
H7773 H 0.66035 0.32392 0.6296 0.0
H7774 H 0.64441 0.31129 0.64249 0.0
H7775 H 0.63742 0.30221 0.63984 0.0
C7776 C 0.64126 0.95626 0.59788 0.0
C7777 C 0.63636 0.94813 0.59654 0.0
C7778 C 0.62658 0.95186 0.60941 0.0
C7779 C 0.63211 0.95945 0.61134 0.0
N7780 N 0.64533 0.96839 0.60812 0.0
N7781 N 0.625 0.93758 0.60153 0.0
C7782 C 0.63959 0.96155 0.60574 0.0
C7783 C 0.62915 0.94578 0.60241 0.0
N7784 N 0.64738 0.95901 0.59153 0.0
N7785 N 0.61876 0.95058 0.61416 0.0
H7786 H 0.62662 0.933 0.59643 0.0
H7787 H 0.62043 0.93501 0.60621 0.0
H7788 H 0.6167 0.95487 0.61935 0.0
H7789 H 0.61395 0.94574 0.61248 0.0
H7790 H 0.65047 0.96532 0.59161 0.0
H7791 H 0.6488 0.95527 0.58573 0.0
H7792 H 0.65148 0.96958 0.60493 0.0
H7793 H 0.64428 0.97249 0.61375 0.0
C7794 C 0.12963 0.56183 0.40402 0.0
C7795 C 0.13685 0.55933 0.40981 0.0
C7796 C 0.13985 0.54599 0.40042 0.0
C7797 C 0.1323 0.5482 0.39495 0.0
N7798 N 0.11903 0.55727 0.39238 0.0
N7799 N 0.14783 0.54829 0.41455 0.0
C7800 C 0.12689 0.55585 0.39701 0.0
C7801 C 0.14166 0.55117 0.40831 0.0
N7802 N 0.1256 0.57008 0.40502 0.0
N7803 N 0.1455 0.53914 0.39788 0.0
H7804 H 0.14937 0.55195 0.42038 0.0
H7805 H 0.15086 0.54195 0.41437 0.0
H7806 H 0.14436 0.53513 0.3922 0.0
H7807 H 0.15168 0.53786 0.40098 0.0
H7808 H 0.12102 0.57275 0.40041 0.0
H7809 H 0.12735 0.57461 0.41013 0.0
H7810 H 0.1143 0.56215 0.39417 0.0
H7811 H 0.11684 0.55305 0.38718 0.0
C7812 C 0.70749 0.894 0.65888 0.0
C7813 C 0.70219 0.88732 0.66328 0.0
C7814 C 0.70772 0.8761 0.65246 0.0
C7815 C 0.7112 0.88312 0.64695 0.0
N7816 N 0.71492 0.8989 0.64517 0.0
N7817 N 0.70488 0.87196 0.66789 0.0
C7818 C 0.71128 0.89212 0.65025 0.0
C7819 C 0.70433 0.87822 0.66117 0.0
N7820 N 0.71005 0.90153 0.66355 0.0
N7821 N 0.70754 0.8674 0.6494 0.0
H7822 H 0.70456 0.87385 0.67467 0.0
H7823 H 0.70715 0.86538 0.66682 0.0
H7824 H 0.70996 0.86553 0.64305 0.0
H7825 H 0.70431 0.86224 0.65294 0.0
H7826 H 0.71461 0.90627 0.66105 0.0
H7827 H 0.70856 0.9023 0.67039 0.0
H7828 H 0.7142 0.90571 0.64682 0.0
H7829 H 0.71818 0.89777 0.63903 0.0
C7830 C 0.37727 0.44752 0.90511 0.0
C7831 C 0.36982 0.44974 0.91063 0.0
C7832 C 0.36641 0.46275 0.90095 0.0
C7833 C 0.37414 0.46075 0.89563 0.0
N7834 N 0.38783 0.45223 0.89343 0.0
N7835 N 0.35834 0.46037 0.91504 0.0
C7836 C 0.37987 0.45341 0.89795 0.0
C7837 C 0.36468 0.45763 0.90891 0.0
N7838 N 0.38145 0.43948 0.9067 0.0
N7839 N 0.36054 0.46934 0.89822 0.0
H7840 H 0.357 0.45681 0.92097 0.0
H7841 H 0.35499 0.46654 0.91467 0.0
H7842 H 0.36163 0.47331 0.89251 0.0
H7843 H 0.35427 0.47043 0.90121 0.0
H7844 H 0.38656 0.43676 0.9027 0.0
H7845 H 0.38656 0.43676 0.9027 0.0
H7846 H 0.3928 0.44766 0.89537 0.0
H7847 H 0.38984 0.45639 0.88811 0.0
C7848 C 0.31041 0.62813 0.65607 0.0
C7849 C 0.30943 0.61962 0.66037 0.0
C7850 C 0.29666 0.61595 0.65041 0.0
C7851 C 0.29817 0.6241 0.6456 0.0
N7852 N 0.30679 0.63769 0.64324 0.0
N7853 N 0.30219 0.60508 0.66139 0.0
C7854 C 0.30511 0.63015 0.64829 0.0
C7855 C 0.30267 0.61344 0.6575 0.0
N7856 N 0.31634 0.63432 0.65952 0.0
N7857 N 0.2894 0.61066 0.64825 0.0
H7858 H 0.30624 0.60314 0.66682 0.0
H7859 H 0.29818 0.59986 0.65895 0.0
H7860 H 0.28502 0.61215 0.64293 0.0
H7861 H 0.28731 0.60515 0.65206 0.0
H7862 H 0.31671 0.64099 0.65735 0.0
H7863 H 0.32051 0.63298 0.66503 0.0
H7864 H 0.3124 0.64183 0.64413 0.0
H7865 H 0.30283 0.63958 0.63772 0.0
C7866 C 0.87643 0.06039 0.10183 0.0
C7867 C 0.86903 0.05822 0.09613 0.0
C7868 C 0.86551 0.04506 0.1056 0.0
C7869 C 0.8732 0.04695 0.111 0.0
N7870 N 0.88691 0.05538 0.1134 0.0
N7871 N 0.85751 0.04769 0.09153 0.0
C7872 C 0.87895 0.05431 0.10884 0.0
C7873 C 0.86386 0.0503 0.0977 0.0
N7874 N 0.88084 0.06843 0.10075 0.0
N7875 N 0.85958 0.03848 0.10821 0.0
H7876 H 0.8561 0.05138 0.0857 0.0
H7877 H 0.85418 0.0415 0.09177 0.0
H7878 H 0.8606 0.03443 0.11389 0.0
H7879 H 0.85332 0.03747 0.10518 0.0
H7880 H 0.88559 0.0709 0.10532 0.0
H7881 H 0.87927 0.07302 0.09564 0.0
H7882 H 0.89186 0.06002 0.11154 0.0
H7883 H 0.88894 0.05109 0.11861 0.0
C7884 C 0.70424 0.11339 0.84929 0.0
C7885 C 0.69771 0.11975 0.8463 0.0
C7886 C 0.70224 0.13024 0.85834 0.0
C7887 C 0.70894 0.124 0.86116 0.0
N7888 N 0.71732 0.11027 0.85871 0.0
N7889 N 0.69127 0.13467 0.84696 0.0
C7890 C 0.71025 0.11576 0.85643 0.0
C7891 C 0.69696 0.12833 0.85052 0.0
N7892 N 0.7045 0.10499 0.84546 0.0
N7893 N 0.70074 0.13788 0.86331 0.0
H7894 H 0.68712 0.13341 0.84141 0.0
H7895 H 0.69109 0.14138 0.84906 0.0
H7896 H 0.7047 0.13968 0.86886 0.0
H7897 H 0.69528 0.14219 0.86232 0.0
H7898 H 0.70832 0.09966 0.84799 0.0
H7899 H 0.70047 0.10314 0.83999 0.0
H7900 H 0.71928 0.10466 0.85496 0.0
H7901 H 0.72169 0.11167 0.86405 0.0
C7902 C 0.81114 0.87949 0.35224 0.0
C7903 C 0.80884 0.88678 0.34646 0.0
C7904 C 0.79558 0.89013 0.35586 0.0
C7905 C 0.79761 0.88253 0.36134 0.0
N7906 N 0.8063 0.86902 0.36389 0.0
N7907 N 0.79806 0.89801 0.3417 0.0
C7908 C 0.80509 0.87692 0.35926 0.0
C7909 C 0.8008 0.89179 0.34795 0.0
N7910 N 0.81929 0.87525 0.35125 0.0
N7911 N 0.78889 0.89597 0.3584 0.0
H7912 H 0.80174 0.89943 0.33586 0.0
H7913 H 0.7918 0.9012 0.34189 0.0
H7914 H 0.78486 0.89495 0.36409 0.0
H7915 H 0.78777 0.90217 0.35529 0.0
H7916 H 0.82183 0.87061 0.35587 0.0
H7917 H 0.82386 0.87688 0.34614 0.0
H7918 H 0.81105 0.86416 0.36209 0.0
H7919 H 0.80202 0.86695 0.36909 0.0
C7920 C 0.40886 0.36373 0.04995 0.0
C7921 C 0.4104 0.36868 0.05802 0.0
C7922 C 0.39763 0.37863 0.05439 0.0
C7923 C 0.39551 0.37309 0.04687 0.0
N7924 N 0.39836 0.35972 0.03802 0.0
N7925 N 0.4057 0.38015 0.06858 0.0
C7926 C 0.40095 0.36548 0.04476 0.0
C7927 C 0.40466 0.37598 0.0604 0.0
N7928 N 0.41506 0.35749 0.04716 0.0
N7929 N 0.39305 0.38655 0.05568 0.0
H7930 H 0.41081 0.37847 0.07312 0.0
H7931 H 0.4011 0.38479 0.07117 0.0
H7932 H 0.38784 0.38868 0.05143 0.0
H7933 H 0.39489 0.39136 0.06046 0.0
H7934 H 0.41484 0.35434 0.04088 0.0
H7935 H 0.4209 0.356 0.05082 0.0
H7936 H 0.40143 0.35351 0.03684 0.0
H7937 H 0.39267 0.36082 0.03401 0.0
C7938 C 0.38028 0.65194 0.81509 0.0
C7939 C 0.38259 0.66038 0.81115 0.0
C7940 C 0.37595 0.65529 0.79689 0.0
C7941 C 0.37604 0.64625 0.80006 0.0
N7942 N 0.37184 0.63801 0.81339 0.0
N7943 N 0.38265 0.67009 0.79802 0.0
C7944 C 0.37633 0.6451 0.80959 0.0
C7945 C 0.38043 0.66206 0.80197 0.0
N7946 N 0.38199 0.65039 0.82402 0.0
N7947 N 0.37008 0.65778 0.79027 0.0
H7948 H 0.38592 0.67529 0.80149 0.0
H7949 H 0.38184 0.67123 0.79112 0.0
H7950 H 0.36485 0.6535 0.78827 0.0
H7951 H 0.36931 0.66445 0.78815 0.0
H7952 H 0.38146 0.64403 0.82698 0.0
H7953 H 0.38444 0.65536 0.82837 0.0
H7954 H 0.37105 0.63716 0.82033 0.0
H7955 H 0.36797 0.63358 0.8095 0.0
C7956 C 0.102 0.63034 0.56126 0.0
C7957 C 0.0962 0.63758 0.55883 0.0
C7958 C 0.10556 0.64068 0.54549 0.0
C7959 C 0.11105 0.63312 0.54764 0.0
N7960 N 0.11364 0.61978 0.55659 0.0
N7961 N 0.09141 0.6486 0.54787 0.0
C7962 C 0.109 0.62765 0.55524 0.0
C7963 C 0.09767 0.64244 0.5507 0.0
N7964 N 0.10103 0.62625 0.56949 0.0
N7965 N 0.10808 0.64638 0.53868 0.0
H7966 H 0.08558 0.65009 0.55154 0.0
H7967 H 0.09157 0.65168 0.54155 0.0
H7968 H 0.11374 0.64527 0.53465 0.0
H7969 H 0.10496 0.65256 0.53744 0.0
H7970 H 0.10567 0.62166 0.57211 0.0
H7971 H 0.09594 0.62797 0.57405 0.0
H7972 H 0.11186 0.61501 0.56143 0.0
H7973 H 0.11883 0.61763 0.55234 0.0
C7974 C 0.11458 0.3478 0.29978 0.0
C7975 C 0.11942 0.34642 0.30794 0.0
C7976 C 0.12919 0.35934 0.30436 0.0
C7977 C 0.12373 0.3613 0.29673 0.0
N7978 N 0.11056 0.35811 0.2877 0.0
N7979 N 0.13063 0.35142 0.31863 0.0
C7980 C 0.11626 0.35569 0.29455 0.0
C7981 C 0.12657 0.35232 0.31039 0.0
N7982 N 0.10851 0.34145 0.29693 0.0
N7983 N 0.13699 0.36409 0.30574 0.0
H7984 H 0.12897 0.34631 0.32319 0.0
H7985 H 0.13515 0.35612 0.32126 0.0
H7986 H 0.13908 0.36931 0.30149 0.0
H7987 H 0.14176 0.3624 0.31062 0.0
H7988 H 0.10547 0.34155 0.29059 0.0
H7989 H 0.10708 0.33561 0.30061 0.0
H7990 H 0.10443 0.35491 0.28644 0.0
H7991 H 0.11161 0.36378 0.28365 0.0
C7992 C 0.40498 0.63082 0.44531 0.0
C7993 C 0.41071 0.63814 0.44767 0.0
C7994 C 0.40134 0.64127 0.461 0.0
C7995 C 0.39592 0.63364 0.45891 0.0
N7996 N 0.39343 0.62021 0.45007 0.0
N7997 N 0.4154 0.64932 0.45852 0.0
C7998 C 0.398 0.62813 0.45135 0.0
C7999 C 0.4092 0.64306 0.45576 0.0
N8000 N 0.40598 0.62668 0.43712 0.0
N8001 N 0.39877 0.64699 0.46778 0.0
H8002 H 0.4212 0.65085 0.45483 0.0
H8003 H 0.4152 0.65246 0.46481 0.0
H8004 H 0.39313 0.64585 0.47183 0.0
H8005 H 0.40183 0.65322 0.46896 0.0
H8006 H 0.40139 0.62201 0.43454 0.0
H8007 H 0.41106 0.62839 0.43254 0.0
H8008 H 0.39524 0.61541 0.44526 0.0
H8009 H 0.38825 0.61805 0.45433 0.0
C8010 C 0.11459 0.65855 0.20618 0.0
C8011 C 0.11938 0.66007 0.19802 0.0
C8012 C 0.12927 0.64717 0.2014 0.0
C8013 C 0.12385 0.64508 0.20903 0.0
N8014 N 0.11067 0.64804 0.21812 0.0
N8015 N 0.13057 0.65526 0.18721 0.0
C8016 C 0.11634 0.6506 0.2113 0.0
C8017 C 0.12656 0.65424 0.19547 0.0
N8018 N 0.1085 0.66482 0.20914 0.0
N8019 N 0.13711 0.64251 0.19995 0.0
H8020 H 0.12885 0.6604 0.18272 0.0
H8021 H 0.13511 0.65062 0.18451 0.0
H8022 H 0.13927 0.63728 0.20414 0.0
H8023 H 0.14184 0.64432 0.19508 0.0
H8024 H 0.10548 0.66461 0.21549 0.0
H8025 H 0.10701 0.6707 0.20555 0.0
H8026 H 0.10452 0.65118 0.21943 0.0
H8027 H 0.11176 0.64231 0.22207 0.0
C8028 C 0.0999 0.3766 0.94937 0.0
C8029 C 0.09609 0.36781 0.94985 0.0
C8030 C 0.10665 0.36381 0.96203 0.0
C8031 C 0.11098 0.3723 0.96097 0.0
N8032 N 0.11232 0.38658 0.9533 0.0
N8033 N 0.09606 0.35278 0.95607 0.0
C8034 C 0.10773 0.37867 0.95458 0.0
C8035 C 0.0995 0.36135 0.95606 0.0
N8036 N 0.09594 0.383 0.94402 0.0
N8037 N 0.10933 0.35816 0.96883 0.0
H8038 H 0.0906 0.35084 0.95206 0.0
H8039 H 0.09889 0.34743 0.95963 0.0
H8040 H 0.11468 0.35965 0.97316 0.0
H8041 H 0.10589 0.3523 0.97063 0.0
H8042 H 0.09772 0.38979 0.94407 0.0
H8043 H 0.09038 0.38164 0.93991 0.0
H8044 H 0.11102 0.39105 0.94804 0.0
H8045 H 0.11786 0.38848 0.95722 0.0
C8046 C 0.39199 0.34757 0.70636 0.0
C8047 C 0.38732 0.34626 0.69809 0.0
C8048 C 0.37755 0.35922 0.70152 0.0
C8049 C 0.38286 0.3611 0.70928 0.0
N8050 N 0.39582 0.3578 0.71857 0.0
N8051 N 0.37637 0.35138 0.68718 0.0
C8052 C 0.39025 0.35545 0.71159 0.0
C8053 C 0.38026 0.35221 0.69552 0.0
N8054 N 0.39795 0.34116 0.70931 0.0
N8055 N 0.36981 0.36402 0.70001 0.0
H8056 H 0.37809 0.34628 0.68264 0.0
H8057 H 0.37193 0.35612 0.68448 0.0
H8058 H 0.36765 0.36923 0.70424 0.0
H8059 H 0.36513 0.36238 0.69502 0.0
H8060 H 0.40086 0.34122 0.71571 0.0
H8061 H 0.39943 0.33534 0.70563 0.0
H8062 H 0.4019 0.35455 0.71994 0.0
H8063 H 0.39472 0.36346 0.72262 0.0
C8064 C 0.05072 0.40873 0.36383 0.0
C8065 C 0.05888 0.41023 0.36863 0.0
C8066 C 0.05544 0.39739 0.37855 0.0
C8067 C 0.04779 0.39532 0.37315 0.0
N8068 N 0.0387 0.39828 0.35997 0.0
N8069 N 0.06966 0.40542 0.37985 0.0
C8070 C 0.04555 0.40082 0.36562 0.0
C8071 C 0.06141 0.40442 0.37583 0.0
N8072 N 0.04781 0.41499 0.35769 0.0
N8073 N 0.05688 0.39274 0.3864 0.0
H8074 H 0.07418 0.41054 0.37811 0.0
H8075 H 0.07235 0.40079 0.3844 0.0
H8076 H 0.05267 0.38752 0.38858 0.0
H8077 H 0.06176 0.39452 0.39113 0.0
H8078 H 0.04147 0.4148 0.35467 0.0
H8079 H 0.05145 0.42082 0.35617 0.0
H8080 H 0.0374 0.4014 0.3538 0.0
H8081 H 0.03471 0.39259 0.36109 0.0
C8082 C 0.34549 0.30077 0.12531 0.0
C8083 C 0.3471 0.31 0.12335 0.0
C8084 C 0.36232 0.30848 0.12977 0.0
C8085 C 0.36127 0.29893 0.12989 0.0
N8086 N 0.34975 0.28892 0.1355 0.0
N8087 N 0.35699 0.32294 0.12426 0.0
C8088 C 0.35226 0.29567 0.12979 0.0
C8089 C 0.35549 0.31397 0.12581 0.0
N8090 N 0.33752 0.29679 0.12293 0.0
N8091 N 0.3693 0.31228 0.13445 0.0
H8092 H 0.35202 0.32729 0.12181 0.0
H8093 H 0.36332 0.32594 0.12492 0.0
H8094 H 0.37368 0.30838 0.13835 0.0
H8095 H 0.37005 0.31921 0.13538 0.0
H8096 H 0.33644 0.28986 0.12359 0.0
H8097 H 0.33234 0.30027 0.11965 0.0
H8098 H 0.34308 0.28673 0.13614 0.0
H8099 H 0.35397 0.28686 0.14075 0.0
C8100 C 0.45822 0.59739 0.86357 0.0
C8101 C 0.45247 0.59334 0.8701 0.0
C8102 C 0.45738 0.60462 0.88115 0.0
C8103 C 0.46138 0.60977 0.87413 0.0
N8104 N 0.46615 0.61079 0.85856 0.0
N8105 N 0.45418 0.58942 0.88579 0.0
C8106 C 0.46201 0.60605 0.86531 0.0
C8107 C 0.45406 0.59585 0.87921 0.0
N8108 N 0.46112 0.59239 0.85639 0.0
N8109 N 0.45665 0.60808 0.88966 0.0
H8110 H 0.45398 0.58255 0.88418 0.0
H8111 H 0.45602 0.59078 0.89245 0.0
H8112 H 0.459 0.6145 0.8914 0.0
H8113 H 0.45305 0.60481 0.89475 0.0
H8114 H 0.46599 0.59462 0.85182 0.0
H8115 H 0.45952 0.58555 0.85578 0.0
H8116 H 0.46586 0.60885 0.85181 0.0
H8117 H 0.4694 0.61695 0.85964 0.0
C8118 C 0.15752 0.70478 0.61238 0.0
C8119 C 0.1606 0.69824 0.61868 0.0
C8120 C 0.14866 0.70269 0.62932 0.0
C8121 C 0.14578 0.70944 0.62315 0.0
N8122 N 0.14804 0.71785 0.60941 0.0
N8123 N 0.16009 0.6917 0.63357 0.0
C8124 C 0.1504 0.71077 0.61486 0.0
C8125 C 0.15646 0.69742 0.62729 0.0
N8126 N 0.16126 0.70509 0.60394 0.0
N8127 N 0.14377 0.70114 0.637 0.0
H8128 H 0.16563 0.68756 0.63223 0.0
H8129 H 0.15806 0.69148 0.64029 0.0
H8130 H 0.13825 0.70509 0.63889 0.0
H8131 H 0.14481 0.69565 0.64126 0.0
H8132 H 0.15867 0.70893 0.59865 0.0
H8133 H 0.1667 0.70106 0.602 0.0
H8134 H 0.15172 0.71984 0.60377 0.0
H8135 H 0.14269 0.72219 0.61088 0.0
C8136 C 0.0515 0.59917 0.14401 0.0
C8137 C 0.05815 0.59621 0.13776 0.0
C8138 C 0.05388 0.60838 0.12731 0.0
C8139 C 0.04705 0.61117 0.13344 0.0
N8140 N 0.03844 0.60865 0.147 0.0
N8141 N 0.06491 0.59702 0.12299 0.0
C8142 C 0.04558 0.60637 0.14161 0.0
C8143 C 0.0591 0.60053 0.12925 0.0
N8144 N 0.05105 0.59524 0.15237 0.0
N8145 N 0.05554 0.61342 0.11974 0.0
H8146 H 0.06903 0.59145 0.12427 0.0
H8147 H 0.06525 0.59919 0.11631 0.0
H8148 H 0.05162 0.61897 0.1179 0.0
H8149 H 0.06109 0.61245 0.11554 0.0
H8150 H 0.04714 0.59772 0.15765 0.0
H8151 H 0.05502 0.58973 0.15423 0.0
H8152 H 0.03635 0.60486 0.15254 0.0
H8153 H 0.03415 0.61406 0.1456 0.0
C8154 C 0.15497 0.31111 0.88062 0.0
C8155 C 0.16076 0.30877 0.8879 0.0
C8156 C 0.15145 0.29541 0.89109 0.0
C8157 C 0.14597 0.29748 0.8835 0.0
N8158 N 0.14335 0.30631 0.87009 0.0
N8159 N 0.16555 0.29794 0.89906 0.0
C8160 C 0.14799 0.30504 0.87797 0.0
C8161 C 0.15931 0.30068 0.89283 0.0
N8162 N 0.15593 0.3193 0.87646 0.0
N8163 N 0.14896 0.28862 0.89683 0.0
H8164 H 0.17135 0.30167 0.90055 0.0
H8165 H 0.16541 0.29165 0.90219 0.0
H8166 H 0.14333 0.28453 0.89572 0.0
H8167 H 0.15206 0.28745 0.90303 0.0
H8168 H 0.1513 0.32186 0.87182 0.0
H8169 H 0.161 0.32388 0.87813 0.0
H8170 H 0.14511 0.31112 0.86528 0.0
H8171 H 0.13817 0.30203 0.86797 0.0
C8172 C 0.44805 0.40583 0.62987 0.0
C8173 C 0.44895 0.41006 0.63842 0.0
C8174 C 0.46155 0.39992 0.64221 0.0
C8175 C 0.46013 0.3952 0.63398 0.0
N8176 N 0.45169 0.39306 0.62023 0.0
N8177 N 0.45599 0.41089 0.65307 0.0
C8178 C 0.4533 0.39802 0.62786 0.0
C8179 C 0.45558 0.40706 0.64468 0.0
N8180 N 0.44225 0.40939 0.62362 0.0
N8181 N 0.46869 0.39762 0.6476 0.0
H8182 H 0.45197 0.41635 0.65499 0.0
H8183 H 0.45989 0.40837 0.65834 0.0
H8184 H 0.47301 0.39225 0.64615 0.0
H8185 H 0.47074 0.40135 0.65318 0.0
H8186 H 0.44195 0.40729 0.61692 0.0
H8187 H 0.43811 0.41493 0.62495 0.0
H8188 H 0.44614 0.39404 0.61603 0.0
H8189 H 0.45563 0.38754 0.61834 0.0
C8190 C 0.35053 0.69827 0.37945 0.0
C8191 C 0.34636 0.69901 0.38805 0.0
C8192 C 0.35649 0.71159 0.39196 0.0
C8193 C 0.36115 0.7103 0.38368 0.0
N8194 N 0.36325 0.70209 0.3698 0.0
N8195 N 0.34563 0.7058 0.40282 0.0
C8196 C 0.35832 0.70357 0.37747 0.0
C8197 C 0.34939 0.70555 0.39439 0.0
N8198 N 0.34695 0.69256 0.37313 0.0
N8199 N 0.35879 0.71866 0.39744 0.0
H8200 H 0.3402 0.70174 0.40472 0.0
H8201 H 0.34818 0.70963 0.40813 0.0
H8202 H 0.36411 0.72304 0.396 0.0
H8203 H 0.35508 0.72061 0.40308 0.0
H8204 H 0.349 0.69238 0.36641 0.0
H8205 H 0.34143 0.68839 0.37443 0.0
H8206 H 0.36224 0.69661 0.36551 0.0
H8207 H 0.36876 0.70606 0.36795 0.0
C8208 C 0.36459 0.05066 0.40819 0.0
C8209 C 0.36939 0.05884 0.40963 0.0
C8210 C 0.37931 0.05532 0.39681 0.0
C8211 C 0.37391 0.04766 0.39479 0.0
N8212 N 0.36073 0.03858 0.39782 0.0
N8213 N 0.38059 0.06959 0.40474 0.0
C8214 C 0.36638 0.04545 0.40031 0.0
C8215 C 0.37658 0.06133 0.4038 0.0
N8216 N 0.35847 0.04779 0.41447 0.0
N8217 N 0.38715 0.05673 0.39215 0.0
H8218 H 0.37886 0.07414 0.40984 0.0
H8219 H 0.38515 0.07225 0.4001 0.0
H8220 H 0.38934 0.05248 0.38696 0.0
H8221 H 0.39188 0.06163 0.3939 0.0
H8222 H 0.35545 0.04144 0.41432 0.0
H8223 H 0.35694 0.05147 0.42028 0.0
H8224 H 0.35457 0.0373 0.40095 0.0
H8225 H 0.36185 0.03455 0.39215 0.0
C8226 C 0.86171 0.45426 0.59985 0.0
C8227 C 0.86818 0.4481 0.59635 0.0
C8228 C 0.8791 0.45281 0.60793 0.0
C8229 C 0.87275 0.4592 0.61122 0.0
N8230 N 0.85855 0.467 0.60971 0.0
N8231 N 0.88338 0.44231 0.59608 0.0
C8232 C 0.86421 0.46022 0.60698 0.0
C8233 C 0.87699 0.44763 0.6001 0.0
N8234 N 0.8531 0.45422 0.5965 0.0
N8235 N 0.88703 0.45152 0.61248 0.0
H8236 H 0.882 0.43821 0.59052 0.0
H8237 H 0.89019 0.44239 0.59782 0.0
H8238 H 0.88894 0.45541 0.61804 0.0
H8239 H 0.8915 0.44627 0.61113 0.0
H8240 H 0.84775 0.45773 0.59941 0.0
H8241 H 0.85112 0.45021 0.59105 0.0
H8242 H 0.85266 0.46877 0.60632 0.0
H8243 H 0.86006 0.47133 0.61505 0.0
C8244 C 0.31045 0.12609 0.35147 0.0
C8245 C 0.30806 0.11882 0.34569 0.0
C8246 C 0.29479 0.1156 0.35511 0.0
C8247 C 0.2969 0.12318 0.36059 0.0
N8248 N 0.30573 0.1366 0.36314 0.0
N8249 N 0.29719 0.10768 0.34096 0.0
C8250 C 0.30444 0.12872 0.3585 0.0
C8251 C 0.29999 0.11388 0.3472 0.0
N8252 N 0.31863 0.13026 0.35046 0.0
N8253 N 0.28804 0.10984 0.35766 0.0
H8254 H 0.30085 0.10622 0.33512 0.0
H8255 H 0.2909 0.10454 0.34116 0.0
H8256 H 0.28401 0.11092 0.36334 0.0
H8257 H 0.28684 0.10364 0.35456 0.0
H8258 H 0.32123 0.13488 0.35508 0.0
H8259 H 0.32317 0.12859 0.34535 0.0
H8260 H 0.31052 0.14142 0.36134 0.0
H8261 H 0.30149 0.13871 0.36836 0.0
C8262 C 0.63021 0.56098 0.10189 0.0
C8263 C 0.63737 0.55851 0.09601 0.0
C8264 C 0.64036 0.54503 0.1052 0.0
C8265 C 0.63288 0.54722 0.11077 0.0
N8266 N 0.6197 0.55634 0.11358 0.0
N8267 N 0.64824 0.54746 0.09103 0.0
C8268 C 0.6275 0.55493 0.10885 0.0
C8269 C 0.64214 0.5503 0.09736 0.0
N8270 N 0.62622 0.56926 0.10102 0.0
N8271 N 0.64599 0.5381 0.1076 0.0
H8272 H 0.64975 0.55118 0.08524 0.0
H8273 H 0.65122 0.5411 0.09111 0.0
H8274 H 0.64486 0.53402 0.11323 0.0
H8275 H 0.65213 0.53682 0.10443 0.0
H8276 H 0.6217 0.5719 0.10571 0.0
H8277 H 0.62795 0.57384 0.09595 0.0
H8278 H 0.61498 0.56128 0.1119 0.0
H8279 H 0.61754 0.55208 0.11875 0.0
C8280 C 0.69542 0.37987 0.35249 0.0
C8281 C 0.69805 0.3869 0.34652 0.0
C8282 C 0.71151 0.38982 0.35577 0.0
C8283 C 0.70916 0.38245 0.36143 0.0
N8284 N 0.69984 0.36943 0.36433 0.0
N8285 N 0.70931 0.3975 0.34146 0.0
C8286 C 0.70139 0.37716 0.35953 0.0
C8287 C 0.70632 0.39156 0.34786 0.0
N8288 N 0.68707 0.37602 0.35164 0.0
N8289 N 0.71848 0.39539 0.35815 0.0
H8290 H 0.70566 0.39897 0.33561 0.0
H8291 H 0.71572 0.40039 0.34154 0.0
H8292 H 0.72249 0.39431 0.36385 0.0
H8293 H 0.71988 0.40146 0.3549 0.0
H8294 H 0.68434 0.37161 0.35639 0.0
H8295 H 0.68255 0.37775 0.34653 0.0
H8296 H 0.69485 0.36477 0.36266 0.0
H8297 H 0.70405 0.36725 0.36954 0.0
C8298 C 0.12918 0.94835 0.90627 0.0
C8299 C 0.1379 0.94892 0.91021 0.0
C8300 C 0.14192 0.96119 0.89978 0.0
C8301 C 0.13349 0.96007 0.89533 0.0
N8302 N 0.11933 0.95222 0.89372 0.0
N8303 N 0.15287 0.95529 0.91048 0.0
C8304 C 0.12716 0.95357 0.89844 0.0
C8305 C 0.14434 0.95521 0.90692 0.0
N8306 N 0.12279 0.94289 0.91011 0.0
N8307 N 0.14753 0.96806 0.89722 0.0
H8308 H 0.15478 0.95129 0.91595 0.0
H8309 H 0.15823 0.95891 0.90773 0.0
H8310 H 0.14608 0.9724 0.89186 0.0
H8311 H 0.15332 0.96991 0.90075 0.0
H8312 H 0.11602 0.94288 0.90822 0.0
H8313 H 0.12411 0.93877 0.91566 0.0
H8314 H 0.11491 0.9469 0.89493 0.0
H8315 H 0.11747 0.95614 0.88817 0.0
C8316 C 0.30226 0.87966 0.16117 0.0
C8317 C 0.30451 0.88875 0.16319 0.0
C8318 C 0.29551 0.89352 0.15007 0.0
C8319 C 0.29548 0.88448 0.14688 0.0
N8320 N 0.29899 0.86875 0.1495 0.0
N8321 N 0.29682 0.90306 0.16326 0.0
C8322 C 0.29888 0.87748 0.15247 0.0
C8323 C 0.29931 0.89546 0.15869 0.0
N8324 N 0.3016 0.87348 0.16795 0.0
N8325 N 0.29196 0.90028 0.1449 0.0
H8326 H 0.29828 0.90389 0.17011 0.0
H8327 H 0.29233 0.90783 0.16069 0.0
H8328 H 0.2887 0.89912 0.13877 0.0
H8329 H 0.29276 0.9071 0.14647 0.0
H8330 H 0.29925 0.86692 0.16694 0.0
H8331 H 0.30192 0.87544 0.17472 0.0
H8332 H 0.30216 0.8636 0.15311 0.0
H8333 H 0.29659 0.86684 0.14316 0.0
C8334 C 0.20526 0.11221 0.65675 0.0
C8335 C 0.19859 0.1184 0.65978 0.0
C8336 C 0.2028 0.12903 0.64776 0.0
C8337 C 0.20969 0.12298 0.64492 0.0
N8338 N 0.21838 0.10944 0.64728 0.0
N8339 N 0.19173 0.13314 0.65915 0.0
C8340 C 0.2112 0.11476 0.64961 0.0
C8341 C 0.19759 0.12695 0.65557 0.0
N8342 N 0.20575 0.10381 0.66055 0.0
N8343 N 0.2011 0.13664 0.64281 0.0
H8344 H 0.18761 0.13176 0.66469 0.0
H8345 H 0.19137 0.13984 0.65707 0.0
H8346 H 0.20501 0.13858 0.63728 0.0
H8347 H 0.19552 0.14079 0.64381 0.0
H8348 H 0.2097 0.09858 0.65801 0.0
H8349 H 0.20175 0.10184 0.66601 0.0
H8350 H 0.22049 0.10386 0.65099 0.0
H8351 H 0.22269 0.11095 0.64191 0.0
C8352 C 0.10259 0.19842 0.38223 0.0
C8353 C 0.09871 0.20028 0.3908 0.0
C8354 C 0.10775 0.21411 0.39208 0.0
C8355 C 0.11191 0.21204 0.3837 0.0
N8356 N 0.11165 0.20387 0.36968 0.0
N8357 N 0.09563 0.2109 0.40268 0.0
C8358 C 0.10872 0.20475 0.37838 0.0
C8359 C 0.10063 0.20851 0.3953 0.0
N8360 N 0.10086 0.19038 0.37804 0.0
N8361 N 0.11096 0.2211 0.39717 0.0
H8362 H 0.09038 0.20689 0.40514 0.0
H8363 H 0.09613 0.21715 0.40586 0.0
H8364 H 0.11598 0.22548 0.39489 0.0
H8365 H 0.109 0.22231 0.40381 0.0
H8366 H 0.10432 0.18813 0.37236 0.0
H8367 H 0.09627 0.18567 0.38055 0.0
H8368 H 0.10903 0.19918 0.36514 0.0
H8369 H 0.11616 0.20842 0.36674 0.0
C8370 C 0.05065 0.8533 0.64705 0.0
C8371 C 0.05666 0.84882 0.64107 0.0
C8372 C 0.05049 0.85736 0.62828 0.0
C8373 C 0.04474 0.86206 0.63432 0.0
N8374 N 0.03751 0.86298 0.64882 0.0
N8375 N 0.06079 0.84479 0.62589 0.0
C8376 C 0.04418 0.85946 0.6435 0.0
C8377 C 0.05604 0.85025 0.63162 0.0
N8378 N 0.05149 0.85209 0.65617 0.0
N8379 N 0.05097 0.86001 0.61945 0.0
H8380 H 0.06489 0.83954 0.6282 0.0
H8381 H 0.06008 0.84492 0.6189 0.0
H8382 H 0.04674 0.86495 0.61673 0.0
H8383 H 0.0558 0.85764 0.61492 0.0
H8384 H 0.04809 0.85597 0.66094 0.0
H8385 H 0.05603 0.84753 0.65904 0.0
H8386 H 0.03618 0.86079 0.65536 0.0
H8387 H 0.03275 0.86756 0.64636 0.0
C8388 C 0.40659 0.79938 0.89553 0.0
C8389 C 0.4087 0.80724 0.89048 0.0
C8390 C 0.39914 0.80187 0.87807 0.0
C8391 C 0.39576 0.79498 0.88379 0.0
N8392 N 0.39628 0.78682 0.89783 0.0
N8393 N 0.4073 0.81605 0.87689 0.0
C8394 C 0.39963 0.79351 0.89242 0.0
C8395 C 0.40521 0.80842 0.88164 0.0
N8396 N 0.41123 0.79761 0.90331 0.0
N8397 N 0.39643 0.80216 0.86925 0.0
H8398 H 0.41195 0.82081 0.87919 0.0
H8399 H 0.40416 0.81789 0.87088 0.0
H8400 H 0.39196 0.79744 0.86652 0.0
H8401 H 0.39916 0.80653 0.86447 0.0
H8402 H 0.4106 0.79163 0.90695 0.0
H8403 H 0.41633 0.80184 0.9057 0.0
H8404 H 0.398 0.78605 0.9046 0.0
H8405 H 0.39142 0.78223 0.89562 0.0
C8406 C 0.45652 0.15375 0.14602 0.0
C8407 C 0.44938 0.15733 0.14074 0.0
C8408 C 0.45493 0.14902 0.12753 0.0
C8409 C 0.46102 0.14427 0.13319 0.0
N8410 N 0.46774 0.14194 0.14782 0.0
N8411 N 0.44167 0.15862 0.12648 0.0
C8412 C 0.46198 0.14671 0.14241 0.0
C8413 C 0.44864 0.15516 0.13144 0.0
N8414 N 0.45802 0.15708 0.15449 0.0
N8415 N 0.45519 0.14761 0.11841 0.0
H8416 H 0.43715 0.16337 0.12906 0.0
H8417 H 0.44006 0.15649 0.11998 0.0
H8418 H 0.45974 0.14314 0.11541 0.0
H8419 H 0.45149 0.15137 0.11377 0.0
H8420 H 0.46359 0.15538 0.15842 0.0
H8421 H 0.45406 0.1622 0.1573 0.0
H8422 H 0.46797 0.1426 0.15482 0.0
H8423 H 0.47202 0.13692 0.14536 0.0
C8424 C 0.10049 0.79832 0.11114 0.0
C8425 C 0.09849 0.80648 0.11574 0.0
C8426 C 0.10829 0.80183 0.12826 0.0
C8427 C 0.11156 0.79462 0.12288 0.0
N8428 N 0.11082 0.78572 0.1093 0.0
N8429 N 0.10036 0.81616 0.1287 0.0
C8430 C 0.10754 0.79267 0.11442 0.0
C8431 C 0.10221 0.8082 0.12441 0.0
N8432 N 0.09564 0.79606 0.10362 0.0
N8433 N 0.1111 0.8026 0.13701 0.0
H8434 H 0.09578 0.82089 0.12618 0.0
H8435 H 0.1037 0.81833 0.13449 0.0
H8436 H 0.11558 0.79801 0.13995 0.0
H8437 H 0.10842 0.80722 0.14158 0.0
H8438 H 0.09619 0.78986 0.10036 0.0
H8439 H 0.09044 0.80011 0.10113 0.0
H8440 H 0.10896 0.78458 0.10262 0.0
H8441 H 0.11577 0.78128 0.11164 0.0
C8442 C 0.45779 0.85112 0.3614 0.0
C8443 C 0.44982 0.84878 0.36615 0.0
C8444 C 0.45453 0.85836 0.37882 0.0
C8445 C 0.46153 0.86195 0.37337 0.0
N8446 N 0.47014 0.86177 0.35959 0.0
N8447 N 0.44048 0.84994 0.37943 0.0
C8448 C 0.46337 0.85821 0.36475 0.0
C8449 C 0.44824 0.85219 0.37497 0.0
N8450 N 0.45996 0.84658 0.35367 0.0
N8451 N 0.45389 0.86095 0.38766 0.0
H8452 H 0.43586 0.84525 0.37692 0.0
H8453 H 0.43836 0.85302 0.38538 0.0
H8454 H 0.45841 0.8655 0.39059 0.0
H8455 H 0.44944 0.85805 0.39226 0.0
H8456 H 0.46604 0.84739 0.35024 0.0
H8457 H 0.45595 0.84138 0.3511 0.0
H8458 H 0.47117 0.86014 0.35283 0.0
H8459 H 0.47454 0.86673 0.36198 0.0
C8460 C 0.40665 0.20823 0.61139 0.0
C8461 C 0.40858 0.20009 0.61605 0.0
C8462 C 0.39856 0.20477 0.62838 0.0
C8463 C 0.39537 0.21196 0.62293 0.0
N8464 N 0.39633 0.22081 0.60932 0.0
N8465 N 0.40652 0.19046 0.62901 0.0
C8466 C 0.39953 0.21389 0.61452 0.0
C8467 C 0.40472 0.1984 0.62466 0.0
N8468 N 0.41163 0.21048 0.60395 0.0
N8469 N 0.3956 0.20403 0.63709 0.0
H8470 H 0.41117 0.18575 0.62659 0.0
H8471 H 0.40309 0.1883 0.63475 0.0
H8472 H 0.39107 0.20862 0.63993 0.0
H8473 H 0.39821 0.19942 0.64171 0.0
H8474 H 0.41113 0.21667 0.60066 0.0
H8475 H 0.41687 0.20642 0.60156 0.0
H8476 H 0.3983 0.22192 0.60267 0.0
H8477 H 0.39132 0.22524 0.61155 0.0
C8478 C 0.05215 0.15121 0.86078 0.0
C8479 C 0.05729 0.15669 0.86676 0.0
C8480 C 0.05054 0.149 0.8798 0.0
C8481 C 0.04554 0.14343 0.87382 0.0
N8482 N 0.0398 0.14057 0.85889 0.0
N8483 N 0.0599 0.16235 0.88176 0.0
C8484 C 0.04573 0.14503 0.86438 0.0
C8485 C 0.05597 0.15609 0.87622 0.0
N8486 N 0.05378 0.15154 0.8517 0.0
N8487 N 0.05039 0.14725 0.88886 0.0
H8488 H 0.06391 0.1676 0.87929 0.0
H8489 H 0.0586 0.16283 0.88864 0.0
H8490 H 0.04619 0.14236 0.89171 0.0
H8491 H 0.0547 0.1503 0.8935 0.0
H8492 H 0.05108 0.14696 0.84709 0.0
H8493 H 0.05832 0.15605 0.84876 0.0
H8494 H 0.03896 0.14204 0.85207 0.0
H8495 H 0.03511 0.13592 0.86135 0.0
C8496 C 0.38255 0.10316 0.19793 0.0
C8497 C 0.39092 0.09887 0.19978 0.0
C8498 C 0.39227 0.1073 0.21399 0.0
C8499 C 0.38408 0.11183 0.21196 0.0
N8500 N 0.37019 0.11236 0.20357 0.0
N8501 N 0.40242 0.09487 0.21052 0.0
C8502 C 0.37878 0.10913 0.20446 0.0
C8503 C 0.39531 0.10026 0.20818 0.0
N8504 N 0.37848 0.10198 0.18973 0.0
N8505 N 0.39741 0.11007 0.22113 0.0
H8506 H 0.40474 0.08967 0.20636 0.0
H8507 H 0.40545 0.09497 0.21687 0.0
H8508 H 0.3953 0.11505 0.22565 0.0
H8509 H 0.40396 0.10781 0.22233 0.0
H8510 H 0.37298 0.10577 0.18754 0.0
H8511 H 0.38094 0.09755 0.18484 0.0
H8512 H 0.36566 0.11008 0.19871 0.0
H8513 H 0.36731 0.11675 0.20829 0.0
C8514 C 0.15518 0.13171 0.44829 0.0
C8515 C 0.15873 0.14048 0.4498 0.0
C8516 C 0.14953 0.14204 0.46349 0.0
C8517 C 0.14562 0.13348 0.4617 0.0
N8518 N 0.14632 0.11916 0.45409 0.0
N8519 N 0.1613 0.15292 0.45992 0.0
C8520 C 0.14904 0.12796 0.45467 0.0
C8521 C 0.15659 0.14526 0.45782 0.0
N8522 N 0.15725 0.12722 0.4405 0.0
N8523 N 0.14612 0.14728 0.47027 0.0
H8524 H 0.16649 0.15539 0.45584 0.0
H8525 H 0.16064 0.15635 0.46602 0.0
H8526 H 0.14115 0.145 0.47472 0.0
H8527 H 0.14787 0.15402 0.47126 0.0
H8528 H 0.15405 0.12131 0.43843 0.0
H8529 H 0.16191 0.12965 0.43581 0.0
H8530 H 0.14909 0.11451 0.44961 0.0
H8531 H 0.14181 0.1163 0.45869 0.0
C8532 C 0.11104 0.90609 0.70817 0.0
C8533 C 0.11612 0.90862 0.70046 0.0
C8534 C 0.12874 0.89922 0.70563 0.0
C8535 C 0.12303 0.89543 0.71231 0.0
N8536 N 0.10888 0.89527 0.72031 0.0
N8537 N 0.12987 0.90796 0.6918 0.0
C8538 C 0.11427 0.89901 0.71382 0.0
C8539 C 0.12508 0.90543 0.69927 0.0
N8540 N 0.10311 0.91044 0.71 0.0
N8541 N 0.13763 0.89676 0.70535 0.0
H8542 H 0.12749 0.91273 0.68718 0.0
H8543 H 0.13599 0.90507 0.68992 0.0
H8544 H 0.14042 0.89219 0.70993 0.0
H8545 H 0.14239 0.89978 0.70115 0.0
H8546 H 0.09941 0.90949 0.7159 0.0
H8547 H 0.10062 0.91562 0.70593 0.0
H8548 H 0.10206 0.89677 0.72106 0.0
H8549 H 0.11118 0.89031 0.72476 0.0
C8550 C 0.35375 0.85913 0.95633 0.0
C8551 C 0.34902 0.86517 0.95057 0.0
C8552 C 0.35733 0.87799 0.95698 0.0
C8553 C 0.36225 0.87191 0.96252 0.0
N8554 N 0.36362 0.85724 0.96931 0.0
N8555 N 0.34455 0.88035 0.94694 0.0
C8556 C 0.35989 0.86265 0.96283 0.0
C8557 C 0.35023 0.87463 0.95144 0.0
N8558 N 0.35279 0.85001 0.95522 0.0
N8559 N 0.35978 0.88688 0.95667 0.0
H8560 H 0.33931 0.87803 0.94285 0.0
H8561 H 0.34452 0.88732 0.94786 0.0
H8562 H 0.36474 0.88961 0.96087 0.0
H8563 H 0.35725 0.89147 0.95198 0.0
H8564 H 0.35685 0.84525 0.95843 0.0
H8565 H 0.34827 0.84715 0.95064 0.0
H8566 H 0.36161 0.85061 0.97047 0.0
H8567 H 0.36818 0.85969 0.9741 0.0
C8568 C 0.38184 0.90468 0.30829 0.0
C8569 C 0.39048 0.90849 0.30664 0.0
C8570 C 0.39201 0.89946 0.29283 0.0
C8571 C 0.38357 0.89534 0.29472 0.0
N8572 N 0.36937 0.89565 0.30258 0.0
N8573 N 0.40263 0.9115 0.29629 0.0
C8574 C 0.3781 0.89856 0.30189 0.0
C8575 C 0.39515 0.90656 0.29851 0.0
N8576 N 0.37747 0.9065 0.31621 0.0
N8577 N 0.39723 0.89623 0.28594 0.0
H8578 H 0.40503 0.91672 0.30037 0.0
H8579 H 0.40594 0.91099 0.29012 0.0
H8580 H 0.39501 0.89123 0.2815 0.0
H8581 H 0.40391 0.89816 0.28488 0.0
H8582 H 0.37169 0.9031 0.31834 0.0
H8583 H 0.37989 0.91111 0.32094 0.0
H8584 H 0.36474 0.89828 0.30717 0.0
H8585 H 0.36652 0.89115 0.29797 0.0
C8586 C 0.35018 0.13202 0.55533 0.0
C8587 C 0.34894 0.14149 0.55605 0.0
C8588 C 0.35979 0.14386 0.54375 0.0
C8589 C 0.3622 0.13462 0.54422 0.0
N8590 N 0.3598 0.11973 0.55029 0.0
N8591 N 0.35259 0.15659 0.55113 0.0
C8592 C 0.35731 0.1286 0.54985 0.0
C8593 C 0.35362 0.14746 0.55019 0.0
N8594 N 0.34454 0.12634 0.55992 0.0
N8595 N 0.3635 0.14919 0.53719 0.0
H8596 H 0.34803 0.15948 0.55565 0.0
H8597 H 0.35661 0.16132 0.54784 0.0
H8598 H 0.36807 0.14668 0.53244 0.0
H8599 H 0.36146 0.15579 0.53593 0.0
H8600 H 0.34454 0.11936 0.55911 0.0
H8601 H 0.33929 0.12871 0.56398 0.0
H8602 H 0.35728 0.11521 0.55504 0.0
H8603 H 0.36476 0.11696 0.54613 0.0
C8604 C 0.12413 0.10246 0.8092 0.0
C8605 C 0.11568 0.09841 0.80718 0.0
C8606 C 0.11462 0.10724 0.79319 0.0
C8607 C 0.12287 0.11156 0.79543 0.0
N8608 N 0.1367 0.1116 0.80393 0.0
N8609 N 0.10415 0.09497 0.79626 0.0
C8610 C 0.12805 0.10854 0.80288 0.0
C8611 C 0.11137 0.10013 0.79879 0.0
N8612 N 0.12812 0.10096 0.81739 0.0
N8613 N 0.10966 0.11028 0.78603 0.0
H8614 H 0.10169 0.08972 0.80027 0.0
H8615 H 0.10115 0.09532 0.78992 0.0
H8616 H 0.11197 0.11528 0.78164 0.0
H8617 H 0.10309 0.10818 0.78467 0.0
H8618 H 0.13369 0.10456 0.81972 0.0
H8619 H 0.12554 0.09644 0.82213 0.0
H8620 H 0.14115 0.1091 0.80875 0.0
H8621 H 0.13969 0.11608 0.79937 0.0
C8622 C 0.1565 0.86165 0.04834 0.0
C8623 C 0.15844 0.86616 0.05656 0.0
C8624 C 0.14851 0.87863 0.05207 0.0
C8625 C 0.14529 0.87331 0.04479 0.0
N8626 N 0.14616 0.85983 0.03573 0.0
N8627 N 0.1564 0.87895 0.06642 0.0
C8628 C 0.1494 0.86491 0.04273 0.0
C8629 C 0.15462 0.87475 0.0584 0.0
N8630 N 0.16144 0.85422 0.04597 0.0
N8631 N 0.14561 0.88734 0.05294 0.0
H8632 H 0.161 0.87643 0.07112 0.0
H8633 H 0.15299 0.88467 0.06867 0.0
H8634 H 0.14111 0.8903 0.04839 0.0
H8635 H 0.14825 0.89187 0.05762 0.0
H8636 H 0.16092 0.85103 0.03973 0.0
H8637 H 0.16667 0.85173 0.04999 0.0
H8638 H 0.14809 0.85318 0.03453 0.0
H8639 H 0.14117 0.86215 0.03134 0.0
C8640 C 0.20681 0.39676 0.10302 0.0
C8641 C 0.20074 0.3907 0.09872 0.0
C8642 C 0.20715 0.37802 0.10725 0.0
C8643 C 0.21297 0.38414 0.11178 0.0
N8644 N 0.22013 0.39869 0.11243 0.0
N8645 N 0.1966 0.37546 0.09493 0.0
C8646 C 0.21342 0.3933 0.10908 0.0
C8647 C 0.20143 0.38127 0.10023 0.0
N8648 N 0.2059 0.40586 0.10173 0.0
N8649 N 0.20676 0.36922 0.11 0.0
H8650 H 0.19237 0.3777 0.08976 0.0
H8651 H 0.19735 0.36847 0.09512 0.0
H8652 H 0.21111 0.36657 0.11488 0.0
H8653 H 0.20191 0.36465 0.10778 0.0
H8654 H 0.20936 0.41069 0.10548 0.0
H8655 H 0.20126 0.40865 0.09723 0.0
H8656 H 0.22137 0.40522 0.11016 0.0
H8657 H 0.225 0.39629 0.11693 0.0
C8658 C 0.70055 0.12482 0.90647 0.0
C8659 C 0.69985 0.11536 0.90784 0.0
C8660 C 0.71221 0.11287 0.89708 0.0
C8661 C 0.71175 0.12208 0.89456 0.0
N8662 N 0.70564 0.13699 0.89673 0.0
N8663 N 0.70481 0.10023 0.9044 0.0
C8664 C 0.70607 0.12815 0.89933 0.0
C8665 C 0.70575 0.10934 0.90326 0.0
N8666 N 0.69591 0.13056 0.912 0.0
N8667 N 0.7188 0.10751 0.89347 0.0
H8668 H 0.70027 0.09738 0.90896 0.0
H8669 H 0.70813 0.09545 0.90045 0.0
H8670 H 0.72357 0.10995 0.88889 0.0
H8671 H 0.72006 0.10093 0.89559 0.0
H8672 H 0.69671 0.13754 0.91192 0.0
H8673 H 0.69183 0.12826 0.91726 0.0
H8674 H 0.70086 0.14154 0.89916 0.0
H8675 H 0.70983 0.13971 0.89176 0.0
C8676 C 0.1324 0.44794 0.15439 0.0
C8677 C 0.14101 0.44973 0.1582 0.0
C8678 C 0.1423 0.46358 0.14919 0.0
C8679 C 0.13389 0.46154 0.14507 0.0
N8680 N 0.11983 0.45344 0.14537 0.0
N8681 N 0.153 0.46026 0.1612 0.0
C8682 C 0.12855 0.45428 0.14828 0.0
C8683 C 0.14555 0.45794 0.15627 0.0
N8684 N 0.12815 0.43994 0.1562 0.0
N8685 N 0.14738 0.47058 0.14599 0.0
H8686 H 0.15548 0.45621 0.16641 0.0
H8687 H 0.15621 0.46649 0.1607 0.0
H8688 H 0.14507 0.475 0.14102 0.0
H8689 H 0.15404 0.47177 0.14792 0.0
H8690 H 0.12241 0.43772 0.15281 0.0
H8691 H 0.13066 0.43525 0.16082 0.0
H8692 H 0.11528 0.44877 0.14799 0.0
H8693 H 0.11691 0.45801 0.14087 0.0
C8694 C 0.79886 0.89574 0.40566 0.0
C8695 C 0.80671 0.89079 0.40803 0.0
C8696 C 0.80174 0.87825 0.39841 0.0
C8697 C 0.79489 0.88388 0.3948 0.0
N8698 N 0.78662 0.89788 0.39496 0.0
N8699 N 0.8157 0.87728 0.40697 0.0
C8700 C 0.79324 0.89254 0.39855 0.0
C8701 C 0.80808 0.88194 0.40463 0.0
N8702 N 0.79688 0.90352 0.4102 0.0
N8703 N 0.80219 0.86942 0.39579 0.0
H8704 H 0.82031 0.87966 0.41173 0.0
H8705 H 0.81769 0.87127 0.40392 0.0
H8706 H 0.79761 0.86661 0.39122 0.0
H8707 H 0.80652 0.8647 0.39869 0.0
H8708 H 0.79088 0.9071 0.40938 0.0
H8709 H 0.80093 0.90599 0.41541 0.0
H8710 H 0.78576 0.90466 0.3966 0.0
H8711 H 0.7822 0.89562 0.38996 0.0
C8712 C 0.85924 0.05036 0.15331 0.0
C8713 C 0.86537 0.05635 0.15763 0.0
C8714 C 0.87797 0.04992 0.149 0.0
C8715 C 0.87179 0.0442 0.14443 0.0
N8716 N 0.85718 0.03716 0.14378 0.0
N8717 N 0.88065 0.06034 0.16141 0.0
C8718 C 0.86263 0.04379 0.14717 0.0
C8719 C 0.87479 0.0556 0.15609 0.0
N8720 N 0.85016 0.05132 0.15464 0.0
N8721 N 0.88677 0.05024 0.14624 0.0
H8722 H 0.87845 0.06453 0.16664 0.0
H8723 H 0.88763 0.05955 0.16119 0.0
H8724 H 0.88936 0.04591 0.14133 0.0
H8725 H 0.8914 0.05502 0.1485 0.0
H8726 H 0.84529 0.04793 0.15087 0.0
H8727 H 0.84741 0.05594 0.1592 0.0
H8728 H 0.85065 0.03593 0.14607 0.0
H8729 H 0.85952 0.03232 0.13922 0.0
C8730 C 0.30592 0.62497 0.60007 0.0
C8731 C 0.30676 0.61551 0.59881 0.0
C8732 C 0.29464 0.61297 0.60983 0.0
C8733 C 0.29501 0.62222 0.61223 0.0
N8734 N 0.30087 0.63719 0.60976 0.0
N8735 N 0.30211 0.60035 0.60255 0.0
C8736 C 0.3005 0.62831 0.60727 0.0
C8737 C 0.30104 0.60946 0.60358 0.0
N8738 N 0.31035 0.63071 0.59436 0.0
N8739 N 0.28819 0.60756 0.61361 0.0
H8740 H 0.30662 0.5975 0.59796 0.0
H8741 H 0.29894 0.59558 0.60663 0.0
H8742 H 0.28346 0.61 0.61823 0.0
H8743 H 0.28698 0.60094 0.61158 0.0
H8744 H 0.30944 0.63768 0.59436 0.0
H8745 H 0.31436 0.6284 0.58904 0.0
H8746 H 0.30554 0.64176 0.60718 0.0
H8747 H 0.29676 0.63991 0.6148 0.0
C8748 C 0.13167 0.55884 0.352 0.0
C8749 C 0.14027 0.55701 0.34818 0.0
C8750 C 0.14162 0.5433 0.35737 0.0
C8751 C 0.13322 0.54537 0.36149 0.0
N8752 N 0.11914 0.55343 0.36112 0.0
N8753 N 0.15224 0.54644 0.34525 0.0
C8754 C 0.12785 0.55258 0.3582 0.0
C8755 C 0.14482 0.54884 0.35019 0.0
N8756 N 0.12742 0.56682 0.35012 0.0
N8757 N 0.14675 0.53638 0.36067 0.0
H8758 H 0.15468 0.55042 0.33997 0.0
H8759 H 0.15545 0.54022 0.34582 0.0
H8760 H 0.14449 0.53204 0.36574 0.0
H8761 H 0.1534 0.53519 0.35873 0.0
H8762 H 0.12169 0.56907 0.35352 0.0
H8763 H 0.1299 0.57146 0.34544 0.0
H8764 H 0.11457 0.55806 0.35844 0.0
H8765 H 0.11623 0.54892 0.36568 0.0
C8766 C 0.3599 0.45704 0.85342 0.0
C8767 C 0.36601 0.45115 0.84894 0.0
C8768 C 0.37867 0.45757 0.85751 0.0
C8769 C 0.37251 0.46322 0.86218 0.0
N8770 N 0.35786 0.47016 0.86307 0.0
N8771 N 0.38128 0.4473 0.84496 0.0
C8772 C 0.36331 0.46359 0.85957 0.0
C8773 C 0.37545 0.45194 0.8504 0.0
N8774 N 0.3508 0.45601 0.85221 0.0
N8775 N 0.3875 0.45725 0.86018 0.0
H8776 H 0.37906 0.44315 0.83971 0.0
H8777 H 0.38826 0.44814 0.84511 0.0
H8778 H 0.39013 0.46154 0.86512 0.0
H8779 H 0.39212 0.4525 0.85784 0.0
H8780 H 0.34596 0.45932 0.85609 0.0
H8781 H 0.34803 0.4514 0.84767 0.0
H8782 H 0.35129 0.47135 0.86086 0.0
H8783 H 0.36021 0.47498 0.86765 0.0
C8784 C 0.90307 0.80052 0.60905 0.0
C8785 C 0.90758 0.80647 0.61508 0.0
C8786 C 0.89881 0.80044 0.62778 0.0
C8787 C 0.89411 0.79473 0.62169 0.0
N8788 N 0.89325 0.78751 0.60718 0.0
N8789 N 0.91149 0.81056 0.6303 0.0
C8790 C 0.89679 0.79414 0.61253 0.0
C8791 C 0.90603 0.80589 0.62451 0.0
N8792 N 0.90437 0.80136 0.59994 0.0
N8793 N 0.89606 0.80097 0.63657 0.0
H8794 H 0.91682 0.81458 0.62805 0.0
H8795 H 0.91127 0.80986 0.63729 0.0
H8796 H 0.89103 0.79682 0.63924 0.0
H8797 H 0.89843 0.80578 0.64112 0.0
H8798 H 0.90048 0.79801 0.59514 0.0
H8799 H 0.909 0.80584 0.59712 0.0
H8800 H 0.8955 0.78615 0.60067 0.0
H8801 H 0.88859 0.7828 0.60959 0.0
C8802 C 0.94819 0.1546 0.37493 0.0
C8803 C 0.94991 0.15878 0.36648 0.0
C8804 C 0.9639 0.15006 0.36484 0.0
C8805 C 0.96193 0.14555 0.37305 0.0
N8806 N 0.95384 0.14516 0.38712 0.0
N8807 N 0.96044 0.1625 0.3547 0.0
C8808 C 0.95463 0.14843 0.37852 0.0
C8809 C 0.95817 0.1572 0.3619 0.0
N8810 N 0.94016 0.15611 0.37923 0.0
N8811 N 0.97091 0.14715 0.35958 0.0
H8812 H 0.95632 0.16776 0.35245 0.0
H8813 H 0.9667 0.16226 0.35151 0.0
H8814 H 0.97538 0.14211 0.36162 0.0
H8815 H 0.97204 0.14939 0.35301 0.0
H8816 H 0.938 0.15244 0.38483 0.0
H8817 H 0.9354 0.16075 0.37692 0.0
H8818 H 0.94913 0.14752 0.39177 0.0
H8819 H 0.95851 0.14064 0.38986 0.0
C8820 C 0.60378 0.20696 0.10826 0.0
C8821 C 0.59911 0.2012 0.11435 0.0
C8822 C 0.60776 0.2074 0.12705 0.0
C8823 C 0.61261 0.21294 0.12092 0.0
N8824 N 0.61377 0.21983 0.10628 0.0
N8825 N 0.59492 0.19749 0.12959 0.0
C8826 C 0.61007 0.21335 0.11171 0.0
C8827 C 0.60052 0.20197 0.12379 0.0
N8828 N 0.60262 0.20594 0.09916 0.0
N8829 N 0.61038 0.207 0.13589 0.0
H8830 H 0.58957 0.19348 0.12734 0.0
H8831 H 0.59504 0.19835 0.13657 0.0
H8832 H 0.61544 0.21113 0.13855 0.0
H8833 H 0.60789 0.20231 0.14049 0.0
H8834 H 0.60662 0.20914 0.09435 0.0
H8835 H 0.59799 0.20144 0.09636 0.0
H8836 H 0.61163 0.22107 0.0997 0.0
H8837 H 0.61843 0.22455 0.10867 0.0
C8838 C 0.54982 0.85431 0.85867 0.0
C8839 C 0.55555 0.84978 0.8649 0.0
C8840 C 0.54912 0.85856 0.8774 0.0
C8841 C 0.54356 0.86322 0.87114 0.0
N8842 N 0.53682 0.86405 0.85639 0.0
N8843 N 0.55917 0.84589 0.88025 0.0
C8844 C 0.5433 0.86055 0.86196 0.0
C8845 C 0.55468 0.85134 0.87431 0.0
N8846 N 0.55098 0.85307 0.8496 0.0
N8847 N 0.54939 0.86133 0.8862 0.0
H8848 H 0.56327 0.84057 0.87813 0.0
H8849 H 0.55824 0.84612 0.88721 0.0
H8850 H 0.54517 0.86637 0.88873 0.0
H8851 H 0.55407 0.85897 0.89088 0.0
H8852 H 0.5478 0.85698 0.8447 0.0
H8853 H 0.5556 0.84848 0.8469 0.0
H8854 H 0.53568 0.86178 0.84984 0.0
H8855 H 0.532 0.86869 0.85864 0.0
C8856 C 0.90302 0.20703 0.89861 0.0
C8857 C 0.90787 0.20138 0.89257 0.0
C8858 C 0.89944 0.20762 0.87974 0.0
C8859 C 0.89439 0.21304 0.88583 0.0
N8860 N 0.89286 0.21978 0.90051 0.0
N8861 N 0.91243 0.19786 0.87738 0.0
C8862 C 0.89674 0.21339 0.89509 0.0
C8863 C 0.90666 0.20223 0.88311 0.0
N8864 N 0.90399 0.20593 0.90773 0.0
N8865 N 0.89702 0.20729 0.87084 0.0
H8866 H 0.91777 0.19388 0.87971 0.0
H8867 H 0.91246 0.19879 0.87042 0.0
H8868 H 0.89198 0.21141 0.86812 0.0
H8869 H 0.89966 0.20268 0.86625 0.0
H8870 H 0.89986 0.20904 0.91248 0.0
H8871 H 0.90861 0.20145 0.91059 0.0
H8872 H 0.89484 0.22098 0.90714 0.0
H8873 H 0.8882 0.22447 0.89807 0.0
C8874 C 0.55861 0.15425 0.63295 0.0
C8875 C 0.5565 0.15849 0.64128 0.0
C8876 C 0.54259 0.14955 0.64247 0.0
C8877 C 0.5449 0.14507 0.63432 0.0
N8878 N 0.55349 0.1448 0.62055 0.0
N8879 N 0.54548 0.1621 0.65265 0.0
C8880 C 0.55237 0.14803 0.62912 0.0
C8881 C 0.54811 0.15679 0.64558 0.0
N8882 N 0.56682 0.15573 0.62898 0.0
N8883 N 0.53545 0.14655 0.64749 0.0
H8884 H 0.54943 0.16744 0.65502 0.0
H8885 H 0.53912 0.16176 0.65562 0.0
H8886 H 0.53114 0.14143 0.64529 0.0
H8887 H 0.53406 0.14878 0.654 0.0
H8888 H 0.56922 0.15201 0.62352 0.0
H8889 H 0.5715 0.16035 0.63148 0.0
H8890 H 0.55832 0.14725 0.61608 0.0
H8891 H 0.54899 0.14023 0.61763 0.0
C8892 C 0.60342 0.80072 0.39797 0.0
C8893 C 0.59888 0.80667 0.39197 0.0
C8894 C 0.60761 0.80069 0.37922 0.0
C8895 C 0.61235 0.79498 0.38528 0.0
N8896 N 0.61328 0.78773 0.39977 0.0
N8897 N 0.5949 0.81079 0.37677 0.0
C8898 C 0.6097 0.79436 0.39445 0.0
C8899 C 0.60039 0.80611 0.38253 0.0
N8900 N 0.60216 0.80154 0.40708 0.0
N8901 N 0.61032 0.80123 0.37042 0.0
H8902 H 0.58957 0.8148 0.37905 0.0
H8903 H 0.5951 0.8101 0.36978 0.0
H8904 H 0.61534 0.79708 0.36773 0.0
H8905 H 0.60792 0.80603 0.36589 0.0
H8906 H 0.60608 0.79819 0.41187 0.0
H8907 H 0.59754 0.80602 0.40994 0.0
H8908 H 0.61105 0.78635 0.40629 0.0
H8909 H 0.61795 0.78304 0.39734 0.0
C8910 C 0.94937 0.85172 0.13299 0.0
C8911 C 0.95122 0.84808 0.14166 0.0
C8912 C 0.96489 0.85737 0.14283 0.0
C8913 C 0.9628 0.86131 0.13435 0.0
N8914 N 0.95473 0.86062 0.12029 0.0
N8915 N 0.96181 0.84545 0.15369 0.0
C8916 C 0.9556 0.85788 0.12905 0.0
C8917 C 0.95939 0.85023 0.14617 0.0
N8918 N 0.9414 0.84971 0.12878 0.0
N8919 N 0.9718 0.86081 0.14789 0.0
H8920 H 0.95787 0.84019 0.15624 0.0
H8921 H 0.96804 0.84611 0.15689 0.0
H8922 H 0.97611 0.86585 0.14552 0.0
H8923 H 0.973 0.85901 0.15458 0.0
H8924 H 0.93913 0.85299 0.12299 0.0
H8925 H 0.93678 0.84507 0.13136 0.0
H8926 H 0.95011 0.85783 0.11578 0.0
H8927 H 0.95922 0.86514 0.11729 0.0
C8928 C 0.62447 0.90696 0.80598 0.0
C8929 C 0.61504 0.9085 0.80663 0.0
C8930 C 0.61241 0.89783 0.79422 0.0
C8931 C 0.62158 0.89514 0.79472 0.0
N8932 N 0.6365 0.89705 0.80087 0.0
N8933 N 0.59987 0.90535 0.80158 0.0
C8934 C 0.6277 0.89979 0.80043 0.0
C8935 C 0.60896 0.90405 0.80068 0.0
N8936 N 0.63029 0.91236 0.81068 0.0
N8937 N 0.60701 0.89432 0.78761 0.0
H8938 H 0.59707 0.90995 0.80612 0.0
H8939 H 0.59503 0.90151 0.79822 0.0
H8940 H 0.60939 0.8897 0.78285 0.0
H8941 H 0.60048 0.89658 0.78631 0.0
H8942 H 0.63727 0.91215 0.80994 0.0
H8943 H 0.62806 0.91764 0.81478 0.0
H8944 H 0.64108 0.89937 0.80567 0.0
H8945 H 0.63914 0.89207 0.79664 0.0
C8946 C 0.85233 0.87418 0.55764 0.0
C8947 C 0.84827 0.86573 0.55565 0.0
C8948 C 0.85742 0.86439 0.5419 0.0
C8949 C 0.86174 0.87265 0.5441 0.0
N8950 N 0.8617 0.8866 0.55241 0.0
N8951 N 0.84501 0.85405 0.54485 0.0
C8952 C 0.8586 0.87796 0.55141 0.0
C8953 C 0.85016 0.86128 0.54738 0.0
N8954 N 0.85062 0.87831 0.56571 0.0
N8955 N 0.86061 0.85927 0.53491 0.0
H8956 H 0.83965 0.85168 0.54877 0.0
H8957 H 0.84549 0.85095 0.53856 0.0
H8958 H 0.86575 0.86145 0.53062 0.0
H8959 H 0.8585 0.85269 0.53363 0.0
H8960 H 0.8542 0.88389 0.56806 0.0
H8961 H 0.84593 0.87585 0.57035 0.0
H8962 H 0.85913 0.89114 0.55711 0.0
H8963 H 0.86631 0.88948 0.54792 0.0
C8964 C 0.88259 0.1026 0.30829 0.0
C8965 C 0.89103 0.09854 0.30623 0.0
C8966 C 0.89226 0.10773 0.29249 0.0
C8967 C 0.884 0.11202 0.29474 0.0
N8968 N 0.8701 0.11192 0.30314 0.0
N8969 N 0.90262 0.09531 0.29533 0.0
C8970 C 0.87874 0.10885 0.30209 0.0
C8971 C 0.89541 0.10045 0.29793 0.0
N8972 N 0.87853 0.10091 0.3164 0.0
N8973 N 0.89735 0.11095 0.2855 0.0
H8974 H 0.90502 0.08994 0.29922 0.0
H8975 H 0.90567 0.0958 0.28902 0.0
H8976 H 0.89514 0.11611 0.28125 0.0
H8977 H 0.90393 0.10886 0.28418 0.0
H8978 H 0.87297 0.10449 0.31879 0.0
H8979 H 0.88104 0.09624 0.32104 0.0
H8980 H 0.8656 0.10932 0.30787 0.0
H8981 H 0.86716 0.11651 0.29867 0.0
C8982 C 0.65605 0.13154 0.05582 0.0
C8983 C 0.65783 0.14093 0.05643 0.0
C8984 C 0.64734 0.14374 0.0439 0.0
C8985 C 0.64442 0.13464 0.04442 0.0
N8986 N 0.64589 0.11972 0.05069 0.0
N8987 N 0.65504 0.15614 0.05129 0.0
C8988 C 0.64886 0.12844 0.05023 0.0
C8989 C 0.65357 0.14707 0.05041 0.0
N8990 N 0.66127 0.12562 0.06061 0.0
N8991 N 0.64405 0.14918 0.03721 0.0
H8992 H 0.65964 0.15886 0.05588 0.0
H8993 H 0.65132 0.16104 0.04789 0.0
H8994 H 0.63941 0.14691 0.03242 0.0
H8995 H 0.6465 0.15564 0.0359 0.0
H8996 H 0.66088 0.11863 0.05991 0.0
H8997 H 0.66657 0.12774 0.06473 0.0
H8998 H 0.64805 0.11511 0.05554 0.0
H8999 H 0.64089 0.11717 0.04643 0.0
C9000 C 0.62466 0.10275 0.69838 0.0
C9001 C 0.61618 0.09871 0.70033 0.0
C9002 C 0.61482 0.10784 0.7141 0.0
C9003 C 0.62311 0.11214 0.71194 0.0
N9004 N 0.63708 0.11209 0.70367 0.0
N9005 N 0.60445 0.09547 0.71107 0.0
C9006 C 0.62843 0.109 0.70463 0.0
C9007 C 0.61171 0.1006 0.70858 0.0
N9008 N 0.62882 0.10104 0.69032 0.0
N9009 N 0.60969 0.11101 0.72108 0.0
H9010 H 0.60208 0.09014 0.70713 0.0
H9011 H 0.60133 0.09594 0.71735 0.0
H9012 H 0.61188 0.11614 0.72539 0.0
H9013 H 0.6031 0.10892 0.72234 0.0
H9014 H 0.63442 0.1046 0.688 0.0
H9015 H 0.62636 0.09636 0.68567 0.0
H9016 H 0.64163 0.10952 0.69897 0.0
H9017 H 0.63997 0.11668 0.70818 0.0
C9018 C 0.65695 0.86146 0.45954 0.0
C9019 C 0.6584 0.86589 0.45117 0.0
C9020 C 0.64769 0.87772 0.4556 0.0
C9021 C 0.645 0.87237 0.46307 0.0
N9022 N 0.64694 0.85911 0.47229 0.0
N9023 N 0.65513 0.8782 0.44102 0.0
C9024 C 0.64972 0.86431 0.46519 0.0
C9025 C 0.6539 0.87412 0.44921 0.0
N9026 N 0.6625 0.85452 0.46201 0.0
N9027 N 0.64423 0.88622 0.45462 0.0
H9028 H 0.65974 0.87587 0.43624 0.0
H9029 H 0.65123 0.88358 0.43874 0.0
H9030 H 0.63967 0.88899 0.45923 0.0
H9031 H 0.64647 0.8908 0.44979 0.0
H9032 H 0.66235 0.85149 0.46835 0.0
H9033 H 0.66784 0.85234 0.45796 0.0
H9034 H 0.64936 0.85263 0.47355 0.0
H9035 H 0.64181 0.86108 0.4767 0.0
C9036 C 0.89551 0.90667 0.2087 0.0
C9037 C 0.89116 0.90809 0.20029 0.0
C9038 C 0.87919 0.89753 0.20472 0.0
C9039 C 0.88447 0.89484 0.21224 0.0
N9040 N 0.8977 0.89673 0.22153 0.0
N9041 N 0.87888 0.90487 0.19008 0.0
C9042 C 0.89256 0.8995 0.21439 0.0
C9043 C 0.88289 0.90366 0.19831 0.0
N9044 N 0.90249 0.91218 0.21118 0.0
N9045 N 0.87067 0.89414 0.20371 0.0
H9046 H 0.88128 0.90942 0.18528 0.0
H9047 H 0.87347 0.901 0.18779 0.0
H9048 H 0.86783 0.88964 0.20834 0.0
H9049 H 0.86614 0.89639 0.19883 0.0
H9050 H 0.90546 0.91205 0.21755 0.0
H9051 H 0.90474 0.91747 0.20711 0.0
H9052 H 0.9042 0.8991 0.22281 0.0
H9053 H 0.89567 0.89164 0.22596 0.0
C9054 C 0.85061 0.13218 0.95135 0.0
C9055 C 0.84882 0.14156 0.9507 0.0
C9056 C 0.85922 0.14444 0.96329 0.0
C9057 C 0.86215 0.13534 0.96282 0.0
N9058 N 0.86074 0.12039 0.95661 0.0
N9059 N 0.85153 0.1568 0.95581 0.0
C9060 C 0.85776 0.12912 0.95701 0.0
C9061 C 0.85303 0.14774 0.95672 0.0
N9062 N 0.84543 0.12623 0.94655 0.0
N9063 N 0.86246 0.14991 0.96998 0.0
H9064 H 0.84696 0.1595 0.95118 0.0
H9065 H 0.85522 0.16172 0.95922 0.0
H9066 H 0.86706 0.14766 0.97481 0.0
H9067 H 0.85999 0.15637 0.97125 0.0
H9068 H 0.84582 0.11925 0.94728 0.0
H9069 H 0.84015 0.12833 0.94238 0.0
H9070 H 0.85861 0.11576 0.95177 0.0
H9071 H 0.86571 0.11787 0.96092 0.0
C9072 C 0.80841 0.62418 0.90516 0.0
C9073 C 0.8066 0.61565 0.90916 0.0
C9074 C 0.79279 0.61416 0.90012 0.0
C9075 C 0.79485 0.62246 0.89581 0.0
N9076 N 0.80293 0.63653 0.89584 0.0
N9077 N 0.79603 0.60378 0.91242 0.0
C9078 C 0.80209 0.62788 0.89894 0.0
C9079 C 0.79839 0.61109 0.90731 0.0
N9080 N 0.8164 0.62846 0.90691 0.0
N9081 N 0.78584 0.60897 0.89698 0.0
H9082 H 0.80005 0.60143 0.91772 0.0
H9083 H 0.78979 0.60057 0.91198 0.0
H9084 H 0.78146 0.61113 0.8919 0.0
H9085 H 0.78465 0.60236 0.89906 0.0
H9086 H 0.81863 0.63411 0.90339 0.0
H9087 H 0.82107 0.62606 0.9116 0.0
H9088 H 0.80759 0.64114 0.89838 0.0
H9089 H 0.79837 0.63935 0.89127 0.0
C9090 C 0.29905 0.8953 0.10116 0.0
C9091 C 0.30752 0.89104 0.09981 0.0
C9092 C 0.30324 0.8792 0.11058 0.0
C9093 C 0.2956 0.88437 0.11312 0.0
N9094 N 0.2862 0.89751 0.11107 0.0
N9095 N 0.31794 0.87903 0.10335 0.0
C9096 C 0.29339 0.8924 0.10837 0.0
C9097 C 0.30963 0.88291 0.10443 0.0
N9098 N 0.29647 0.90214 0.09553 0.0
N9099 N 0.30437 0.87074 0.11409 0.0
H9100 H 0.32273 0.88145 0.0988 0.0
H9101 H 0.3203 0.87375 0.10734 0.0
H9102 H 0.29977 0.86788 0.1186 0.0
H9103 H 0.30934 0.86626 0.11192 0.0
H9104 H 0.29005 0.90501 0.0956 0.0
H9105 H 0.3005 0.90437 0.0902 0.0
H9106 H 0.28488 0.90396 0.10861 0.0
H9107 H 0.28181 0.89554 0.11621 0.0
C9108 C 0.85874 0.54994 0.85408 0.0
C9109 C 0.86493 0.55542 0.84922 0.0
C9110 C 0.87758 0.54888 0.8577 0.0
C9111 C 0.87135 0.54359 0.86271 0.0
N9112 N 0.8565 0.5372 0.86418 0.0
N9113 N 0.88022 0.55853 0.84469 0.0
C9114 C 0.86209 0.54347 0.86035 0.0
C9115 C 0.87437 0.55433 0.85046 0.0
N9116 N 0.84965 0.55129 0.85313 0.0
N9117 N 0.88647 0.54904 0.86018 0.0
H9118 H 0.87801 0.56255 0.83934 0.0
H9119 H 0.88716 0.55742 0.84469 0.0
H9120 H 0.88908 0.5449 0.86525 0.0
H9121 H 0.89116 0.55356 0.85756 0.0
H9122 H 0.84482 0.54831 0.85727 0.0
H9123 H 0.84691 0.55588 0.84854 0.0
H9124 H 0.84985 0.53617 0.86217 0.0
H9125 H 0.85881 0.53243 0.86883 0.0
C9126 C 0.19857 0.1236 0.60226 0.0
C9127 C 0.20075 0.11527 0.59806 0.0
C9128 C 0.21467 0.11424 0.607 0.0
C9129 C 0.21229 0.12238 0.61145 0.0
N9130 N 0.20358 0.13608 0.61166 0.0
N9131 N 0.21186 0.10396 0.59451 0.0
C9132 C 0.20478 0.12751 0.60846 0.0
C9133 C 0.20918 0.11105 0.59978 0.0
N9134 N 0.19033 0.12749 0.60077 0.0
N9135 N 0.22187 0.10931 0.61002 0.0
H9136 H 0.20794 0.10154 0.58918 0.0
H9137 H 0.21825 0.10104 0.59487 0.0
H9138 H 0.22617 0.11158 0.61512 0.0
H9139 H 0.22333 0.1028 0.60782 0.0
H9140 H 0.18788 0.13294 0.60447 0.0
H9141 H 0.18566 0.12493 0.59617 0.0
H9142 H 0.19871 0.1405 0.60919 0.0
H9143 H 0.20806 0.13906 0.61623 0.0
C9144 C 0.13251 0.94887 0.85252 0.0
C9145 C 0.14106 0.95066 0.84856 0.0
C9146 C 0.14254 0.96447 0.85759 0.0
C9147 C 0.13419 0.96247 0.86184 0.0
N9148 N 0.12011 0.9544 0.86175 0.0
N9149 N 0.15301 0.96118 0.84538 0.0
C9150 C 0.12878 0.95522 0.85871 0.0
C9151 C 0.14565 0.95885 0.85044 0.0
N9152 N 0.12824 0.94088 0.8508 0.0
N9153 N 0.14772 0.97144 0.86075 0.0
H9154 H 0.15538 0.95715 0.84011 0.0
H9155 H 0.15624 0.96741 0.84584 0.0
H9156 H 0.14551 0.97584 0.86579 0.0
H9157 H 0.15434 0.9726 0.85871 0.0
H9158 H 0.12256 0.93867 0.85431 0.0
H9159 H 0.13065 0.93617 0.84616 0.0
H9160 H 0.11551 0.94975 0.85918 0.0
H9161 H 0.11726 0.95897 0.86629 0.0
C9162 C 0.69851 0.3823 0.40431 0.0
C9163 C 0.70058 0.39077 0.4083 0.0
C9164 C 0.71433 0.39191 0.39912 0.0
C9165 C 0.71207 0.38362 0.39489 0.0
N9166 N 0.70365 0.36974 0.39509 0.0
N9167 N 0.71149 0.40238 0.41144 0.0
C9168 C 0.70471 0.3784 0.39809 0.0
C9169 C 0.70888 0.39513 0.40636 0.0
N9170 N 0.69038 0.37827 0.40602 0.0
N9171 N 0.72136 0.39694 0.39587 0.0
H9172 H 0.7076 0.40483 0.41678 0.0
H9173 H 0.7178 0.40543 0.41092 0.0
H9174 H 0.72562 0.39466 0.39075 0.0
H9175 H 0.72269 0.40353 0.39791 0.0
H9176 H 0.688 0.37269 0.40248 0.0
H9177 H 0.68574 0.38083 0.41065 0.0
H9178 H 0.69891 0.36527 0.39772 0.0
H9179 H 0.70811 0.36676 0.39051 0.0
C9180 C 0.86111 0.45806 0.65617 0.0
C9181 C 0.86578 0.44991 0.65806 0.0
C9182 C 0.87798 0.45453 0.64785 0.0
C9183 C 0.8725 0.46172 0.64471 0.0
N9184 N 0.85893 0.47061 0.64584 0.0
N9185 N 0.87869 0.44025 0.65586 0.0
C9186 C 0.86416 0.46369 0.64899 0.0
C9187 C 0.87433 0.44819 0.65409 0.0
N9188 N 0.85374 0.46034 0.66123 0.0
N9189 N 0.88665 0.45376 0.64477 0.0
H9190 H 0.87634 0.43557 0.66056 0.0
H9191 H 0.88438 0.43807 0.65236 0.0
H9192 H 0.88943 0.45832 0.64018 0.0
H9193 H 0.8913 0.44915 0.64733 0.0
H9194 H 0.85045 0.46653 0.66075 0.0
H9195 H 0.85141 0.45631 0.66652 0.0
H9196 H 0.85231 0.47175 0.64789 0.0
H9197 H 0.8611 0.47502 0.64079 0.0
C9198 C 0.64734 0.54982 0.15281 0.0
C9199 C 0.64125 0.55545 0.15764 0.0
C9200 C 0.62849 0.54915 0.14914 0.0
C9201 C 0.63462 0.54376 0.14412 0.0
N9202 N 0.64932 0.53706 0.14268 0.0
N9203 N 0.62603 0.55888 0.16214 0.0
C9204 C 0.64387 0.54344 0.14652 0.0
C9205 C 0.6318 0.55455 0.15639 0.0
N9206 N 0.65645 0.55097 0.1538 0.0
N9207 N 0.6196 0.54946 0.14667 0.0
H9208 H 0.62831 0.56286 0.16749 0.0
H9209 H 0.61906 0.55792 0.16213 0.0
H9210 H 0.61691 0.54535 0.14161 0.0
H9211 H 0.61498 0.55406 0.1493 0.0
H9212 H 0.66123 0.54787 0.14968 0.0
H9213 H 0.65927 0.55547 0.15841 0.0
H9214 H 0.65595 0.53588 0.1447 0.0
H9215 H 0.64692 0.53235 0.13802 0.0
C9216 C 0.60228 0.6986 0.8821 0.0
C9217 C 0.59849 0.7004 0.89072 0.0
C9218 C 0.60766 0.71413 0.89208 0.0
C9219 C 0.61173 0.71211 0.88365 0.0
N9220 N 0.61132 0.70408 0.86955 0.0
N9221 N 0.59562 0.7109 0.90276 0.0
C9222 C 0.60845 0.7049 0.87828 0.0
C9223 C 0.60052 0.70856 0.89531 0.0
N9224 N 0.60042 0.69063 0.87784 0.0
N9225 N 0.61096 0.72106 0.89721 0.0
H9226 H 0.59036 0.70691 0.90523 0.0
H9227 H 0.59619 0.71711 0.90601 0.0
H9228 H 0.61599 0.72543 0.89491 0.0
H9229 H 0.60906 0.72223 0.90387 0.0
H9230 H 0.6038 0.6884 0.87209 0.0
H9231 H 0.59578 0.68595 0.88033 0.0
H9232 H 0.60863 0.69946 0.86498 0.0
H9233 H 0.61586 0.70861 0.86663 0.0
C9234 C 0.54875 0.35007 0.1456 0.0
C9235 C 0.55679 0.348 0.14083 0.0
C9236 C 0.55193 0.3578 0.12839 0.0
C9237 C 0.54486 0.36114 0.13392 0.0
N9238 N 0.53627 0.3605 0.14771 0.0
N9239 N 0.56616 0.3497 0.12764 0.0
C9240 C 0.54307 0.35716 0.14244 0.0
C9241 C 0.55833 0.35167 0.13211 0.0
N9242 N 0.54662 0.34526 0.15319 0.0
N9243 N 0.55252 0.36059 0.11962 0.0
H9244 H 0.57087 0.34506 0.13005 0.0
H9245 H 0.56822 0.35299 0.12178 0.0
H9246 H 0.5479 0.3651 0.11678 0.0
H9247 H 0.55702 0.35788 0.11496 0.0
H9248 H 0.5405 0.34587 0.1566 0.0
H9249 H 0.5507 0.34005 0.15561 0.0
H9250 H 0.53528 0.35868 0.15442 0.0
H9251 H 0.53182 0.36549 0.14547 0.0
C9252 C 0.90595 0.30578 0.38133 0.0
C9253 C 0.90749 0.30656 0.39075 0.0
C9254 C 0.89694 0.29409 0.39354 0.0
C9255 C 0.89426 0.29443 0.38436 0.0
N9256 N 0.89606 0.30046 0.36937 0.0
N9257 N 0.90432 0.30172 0.40599 0.0
C9258 C 0.89883 0.30013 0.37817 0.0
C9259 C 0.90308 0.30067 0.3969 0.0
N9260 N 0.91132 0.31044 0.37545 0.0
N9261 N 0.89353 0.28749 0.39902 0.0
H9262 H 0.90885 0.30637 0.40874 0.0
H9263 H 0.90048 0.29841 0.41085 0.0
H9264 H 0.88897 0.28264 0.39671 0.0
H9265 H 0.89581 0.28631 0.40556 0.0
H9266 H 0.9111 0.3096 0.36848 0.0
H9267 H 0.91657 0.31461 0.37762 0.0
H9268 H 0.89833 0.30524 0.36475 0.0
H9269 H 0.8911 0.29617 0.36678 0.0
C9270 C 0.95661 0.6538 0.64723 0.0
C9271 C 0.95069 0.65829 0.64115 0.0
C9272 C 0.95689 0.6496 0.62848 0.0
C9273 C 0.96256 0.6449 0.6346 0.0
N9274 N 0.96965 0.64403 0.64917 0.0
N9275 N 0.94671 0.66223 0.62591 0.0
C9276 C 0.96306 0.64757 0.64378 0.0
C9277 C 0.95137 0.65678 0.63172 0.0
N9278 N 0.95569 0.65507 0.65633 0.0
N9279 N 0.95645 0.64688 0.61967 0.0
H9280 H 0.94264 0.66753 0.62815 0.0
H9281 H 0.94748 0.66204 0.61893 0.0
H9282 H 0.96066 0.64189 0.61702 0.0
H9283 H 0.95168 0.64925 0.61509 0.0
H9284 H 0.95902 0.65119 0.66115 0.0
H9285 H 0.95116 0.65967 0.65913 0.0
H9286 H 0.97095 0.64627 0.65571 0.0
H9287 H 0.9744 0.6394 0.6468 0.0
C9288 C 0.60045 0.29854 0.61158 0.0
C9289 C 0.59852 0.30677 0.61609 0.0
C9290 C 0.6085 0.30228 0.62853 0.0
C9291 C 0.61171 0.29501 0.6232 0.0
N9292 N 0.61081 0.28598 0.6097 0.0
N9293 N 0.60061 0.31663 0.62888 0.0
C9294 C 0.60757 0.29295 0.61481 0.0
C9295 C 0.60238 0.3086 0.62468 0.0
N9296 N 0.59547 0.29616 0.60419 0.0
N9297 N 0.61143 0.30315 0.63724 0.0
H9298 H 0.596 0.32133 0.62637 0.0
H9299 H 0.60404 0.31887 0.63459 0.0
H9300 H 0.61593 0.29859 0.64017 0.0
H9301 H 0.6088 0.30783 0.64178 0.0
H9302 H 0.59597 0.28991 0.60101 0.0
H9303 H 0.59022 0.30017 0.60173 0.0
H9304 H 0.60885 0.28479 0.60305 0.0
H9305 H 0.61584 0.2816 0.61197 0.0
C9306 C 0.94717 0.35341 0.8754 0.0
C9307 C 0.94868 0.34963 0.86672 0.0
C9308 C 0.96245 0.35868 0.86498 0.0
C9309 C 0.96076 0.36271 0.87351 0.0
N9310 N 0.95306 0.36242 0.8878 0.0
N9311 N 0.95875 0.34677 0.85431 0.0
C9312 C 0.95363 0.35953 0.87906 0.0
C9313 C 0.9567 0.35163 0.86188 0.0
N9314 N 0.93934 0.35153 0.8799 0.0
N9315 N 0.96925 0.36194 0.85966 0.0
H9316 H 0.95462 0.34159 0.85191 0.0
H9317 H 0.96487 0.3473 0.85088 0.0
H9318 H 0.97376 0.3669 0.86183 0.0
H9319 H 0.97016 0.36009 0.85294 0.0
H9320 H 0.93729 0.35489 0.88573 0.0
H9321 H 0.9346 0.34689 0.87755 0.0
H9322 H 0.94852 0.35979 0.89248 0.0
H9323 H 0.9577 0.36692 0.89061 0.0
C9324 C 0.90722 0.70881 0.11164 0.0
C9325 C 0.90905 0.70049 0.11604 0.0
C9326 C 0.89905 0.70489 0.12848 0.0
C9327 C 0.89594 0.71227 0.12325 0.0
N9328 N 0.897 0.72151 0.10992 0.0
N9329 N 0.90675 0.69044 0.12863 0.0
C9330 C 0.90014 0.71442 0.11492 0.0
C9331 C 0.90512 0.69856 0.12456 0.0
N9332 N 0.91226 0.71126 0.10431 0.0
N9333 N 0.89609 0.70392 0.13717 0.0
H9334 H 0.91129 0.68571 0.12607 0.0
H9335 H 0.90324 0.68814 0.13428 0.0
H9336 H 0.89161 0.70847 0.14016 0.0
H9337 H 0.89866 0.69915 0.14165 0.0
H9338 H 0.91183 0.71756 0.10123 0.0
H9339 H 0.91749 0.70724 0.10182 0.0
H9340 H 0.899 0.72279 0.1033 0.0
H9341 H 0.89201 0.72591 0.11225 0.0
C9342 C 0.55255 0.65126 0.36017 0.0
C9343 C 0.55753 0.65682 0.3662 0.0
C9344 C 0.55071 0.64907 0.37916 0.0
C9345 C 0.54585 0.64343 0.37312 0.0
N9346 N 0.54034 0.6405 0.35812 0.0
N9347 N 0.55987 0.66253 0.38123 0.0
C9348 C 0.54615 0.64502 0.36369 0.0
C9349 C 0.5561 0.65622 0.37565 0.0
N9350 N 0.55432 0.65157 0.35111 0.0
N9351 N 0.55046 0.64731 0.38822 0.0
H9352 H 0.56384 0.66783 0.37881 0.0
H9353 H 0.55846 0.663 0.3881 0.0
H9354 H 0.54629 0.64238 0.39103 0.0
H9355 H 0.55467 0.65042 0.39291 0.0
H9356 H 0.55174 0.64694 0.34648 0.0
H9357 H 0.55886 0.65611 0.34823 0.0
H9358 H 0.53958 0.64196 0.35129 0.0
H9359 H 0.53566 0.63581 0.36052 0.0
C9360 C 0.88214 0.6003 0.70082 0.0
C9361 C 0.89156 0.59872 0.70021 0.0
C9362 C 0.89418 0.60934 0.71266 0.0
C9363 C 0.88503 0.61208 0.71211 0.0
N9364 N 0.87012 0.61026 0.7059 0.0
N9365 N 0.90672 0.60177 0.70535 0.0
C9366 C 0.87891 0.60747 0.70637 0.0
C9367 C 0.89763 0.60311 0.7062 0.0
N9368 N 0.87631 0.59493 0.69608 0.0
N9369 N 0.89956 0.61279 0.71932 0.0
H9370 H 0.90952 0.59716 0.70082 0.0
H9371 H 0.91156 0.60558 0.70874 0.0
H9372 H 0.89718 0.61742 0.72408 0.0
H9373 H 0.90607 0.61049 0.72065 0.0
H9374 H 0.86933 0.59518 0.69679 0.0
H9375 H 0.87854 0.58964 0.69199 0.0
H9376 H 0.86555 0.60796 0.70108 0.0
H9377 H 0.86749 0.61524 0.71013 0.0
C9378 C 0.65399 0.63198 0.9476 0.0
C9379 C 0.65792 0.6405 0.94953 0.0
C9380 C 0.6488 0.64176 0.96331 0.0
C9381 C 0.6446 0.63342 0.96117 0.0
N9382 N 0.6448 0.61945 0.9529 0.0
N9383 N 0.661 0.65231 0.96025 0.0
C9384 C 0.64779 0.62813 0.95386 0.0
C9385 C 0.65598 0.64497 0.95778 0.0
N9386 N 0.65575 0.62783 0.93954 0.0
N9387 N 0.64557 0.64682 0.97032 0.0
H9388 H 0.66629 0.65475 0.95629 0.0
H9389 H 0.66049 0.65545 0.96652 0.0
H9390 H 0.64051 0.64454 0.97466 0.0
H9391 H 0.64758 0.65344 0.97159 0.0
H9392 H 0.65226 0.62218 0.93723 0.0
H9393 H 0.66039 0.63034 0.93488 0.0
H9394 H 0.64743 0.61493 0.9482 0.0
H9395 H 0.64024 0.61651 0.9574 0.0
C9396 C 0.60942 0.40307 0.20649 0.0
C9397 C 0.6154 0.40781 0.20068 0.0
C9398 C 0.6283 0.39952 0.20696 0.0
C9399 C 0.62228 0.39457 0.21252 0.0
N9400 N 0.60767 0.39313 0.21944 0.0
N9401 N 0.63054 0.41232 0.19692 0.0
C9402 C 0.61301 0.39691 0.21293 0.0
C9403 C 0.62487 0.40663 0.20146 0.0
N9404 N 0.60029 0.40405 0.20549 0.0
N9405 N 0.6372 0.39711 0.2066 0.0
H9406 H 0.62817 0.41757 0.19286 0.0
H9407 H 0.63752 0.41237 0.19777 0.0
H9408 H 0.63998 0.39217 0.21079 0.0
H9409 H 0.64175 0.39968 0.2019 0.0
H9410 H 0.59556 0.39999 0.20873 0.0
H9411 H 0.59739 0.4086 0.20097 0.0
H9412 H 0.60104 0.39512 0.22067 0.0
H9413 H 0.61017 0.38856 0.22418 0.0
C9414 C 0.85039 0.36126 0.45748 0.0
C9415 C 0.84834 0.36581 0.44931 0.0
C9416 C 0.85824 0.37831 0.45377 0.0
C9417 C 0.86155 0.37298 0.461 0.0
N9418 N 0.86084 0.35946 0.47 0.0
N9419 N 0.85017 0.37868 0.43952 0.0
C9420 C 0.85752 0.36454 0.46305 0.0
C9421 C 0.85209 0.37444 0.44749 0.0
N9422 N 0.84553 0.35378 0.45985 0.0
N9423 N 0.86109 0.38705 0.45292 0.0
H9424 H 0.84553 0.37616 0.43487 0.0
H9425 H 0.85352 0.38444 0.43727 0.0
H9426 H 0.86562 0.39 0.45744 0.0
H9427 H 0.85839 0.39159 0.44828 0.0
H9428 H 0.84612 0.35056 0.46606 0.0
H9429 H 0.84029 0.35127 0.45586 0.0
H9430 H 0.85897 0.35279 0.47119 0.0
H9431 H 0.86585 0.36179 0.47437 0.0
C9432 C 0.88182 0.40616 0.80504 0.0
C9433 C 0.89129 0.40733 0.80586 0.0
C9434 C 0.89372 0.39641 0.79363 0.0
C9435 C 0.88445 0.39408 0.79401 0.0
N9436 N 0.8695 0.39666 0.79985 0.0
N9437 N 0.90642 0.40356 0.8011 0.0
C9438 C 0.87841 0.39906 0.79954 0.0
C9439 C 0.89729 0.40259 0.80007 0.0
N9440 N 0.87614 0.41186 0.80956 0.0
N9441 N 0.89908 0.39262 0.78715 0.0
H9442 H 0.9093 0.40813 0.80562 0.0
H9443 H 0.91116 0.3995 0.79788 0.0
H9444 H 0.8966 0.38804 0.78241 0.0
H9445 H 0.90572 0.39459 0.78594 0.0
H9446 H 0.86917 0.41192 0.80869 0.0
H9447 H 0.87851 0.41711 0.81363 0.0
H9448 H 0.86493 0.39925 0.80453 0.0
H9449 H 0.86674 0.39173 0.79565 0.0
C9450 C 0.85246 0.63177 0.05894 0.0
C9451 C 0.84876 0.64045 0.05723 0.0
C9452 C 0.85788 0.64182 0.04347 0.0
C9453 C 0.8619 0.63334 0.04542 0.0
N9454 N 0.86141 0.61919 0.05335 0.0
N9455 N 0.84595 0.65258 0.04683 0.0
C9456 C 0.85859 0.62795 0.0526 0.0
C9457 C 0.85079 0.64506 0.04909 0.0
N9458 N 0.85054 0.62745 0.06686 0.0
N9459 N 0.8612 0.64697 0.03657 0.0
H9460 H 0.84073 0.65506 0.05086 0.0
H9461 H 0.84652 0.65586 0.04064 0.0
H9462 H 0.86619 0.64467 0.03217 0.0
H9463 H 0.85934 0.65365 0.03546 0.0
H9464 H 0.85386 0.62165 0.06904 0.0
H9465 H 0.84591 0.62994 0.07154 0.0
H9466 H 0.85871 0.61461 0.05795 0.0
H9467 H 0.86591 0.61628 0.04878 0.0
C9468 C 0.62478 0.5999 0.30606 0.0
C9469 C 0.61534 0.59838 0.30663 0.0
C9470 C 0.61287 0.60887 0.29404 0.0
C9471 C 0.62202 0.61159 0.29465 0.0
N9472 N 0.63688 0.60972 0.30096 0.0
N9473 N 0.60024 0.60136 0.30127 0.0
C9474 C 0.62808 0.60699 0.30047 0.0
C9475 C 0.60935 0.60271 0.30051 0.0
N9476 N 0.63053 0.59456 0.31091 0.0
N9477 N 0.60756 0.61229 0.28731 0.0
H9478 H 0.59741 0.59678 0.30581 0.0
H9479 H 0.59544 0.60513 0.29779 0.0
H9480 H 0.61001 0.61687 0.28253 0.0
H9481 H 0.60105 0.61003 0.28594 0.0
H9482 H 0.63752 0.59476 0.31026 0.0
H9483 H 0.62824 0.58933 0.31505 0.0
H9484 H 0.64142 0.60744 0.30582 0.0
H9485 H 0.63957 0.61464 0.29669 0.0
C9486 C 0.6565 0.36161 0.54852 0.0
C9487 C 0.6584 0.36612 0.55675 0.0
C9488 C 0.64839 0.37853 0.55225 0.0
C9489 C 0.64521 0.3732 0.54497 0.0
N9490 N 0.64616 0.3597 0.53594 0.0
N9491 N 0.65625 0.37889 0.56662 0.0
C9492 C 0.64937 0.36482 0.54292 0.0
C9493 C 0.65451 0.37469 0.55859 0.0
N9494 N 0.6615 0.35423 0.54614 0.0
N9495 N 0.64545 0.38723 0.55311 0.0
H9496 H 0.66085 0.37639 0.57133 0.0
H9497 H 0.65279 0.38459 0.56886 0.0
H9498 H 0.64095 0.39016 0.54854 0.0
H9499 H 0.64806 0.39178 0.5578 0.0
H9500 H 0.66103 0.35106 0.53989 0.0
H9501 H 0.66675 0.35178 0.55016 0.0
H9502 H 0.64814 0.35306 0.53475 0.0
H9503 H 0.64114 0.36195 0.53155 0.0
C9504 C 0.70629 0.89532 0.60236 0.0
C9505 C 0.69847 0.8902 0.60026 0.0
C9506 C 0.70387 0.8779 0.60998 0.0
C9507 C 0.7108 0.88366 0.61324 0.0
N9508 N 0.7188 0.89781 0.61268 0.0
N9509 N 0.68968 0.87661 0.60184 0.0
C9510 C 0.71217 0.8923 0.60935 0.0
C9511 C 0.6973 0.88141 0.60388 0.0
N9512 N 0.70803 0.90307 0.59767 0.0
N9513 N 0.70359 0.86911 0.61276 0.0
H9514 H 0.68491 0.87885 0.59716 0.0
H9515 H 0.68784 0.87065 0.60506 0.0
H9516 H 0.70832 0.86642 0.61725 0.0
H9517 H 0.69922 0.8643 0.61009 0.0
H9518 H 0.71401 0.90673 0.59826 0.0
H9519 H 0.7038 0.90544 0.59256 0.0
H9520 H 0.71948 0.90458 0.61095 0.0
H9521 H 0.7234 0.89571 0.61758 0.0
C9522 C 0.20107 0.62499 0.40645 0.0
C9523 C 0.20035 0.61554 0.4078 0.0
C9524 C 0.21264 0.61304 0.39697 0.0
C9525 C 0.21217 0.62226 0.39446 0.0
N9526 N 0.20609 0.63717 0.39669 0.0
N9527 N 0.20526 0.6004 0.40429 0.0
C9528 C 0.20654 0.62833 0.39928 0.0
C9529 C 0.20621 0.60951 0.40318 0.0
N9530 N 0.19649 0.63073 0.41204 0.0
N9531 N 0.21921 0.60768 0.39332 0.0
H9532 H 0.20073 0.59755 0.40887 0.0
H9533 H 0.20854 0.59563 0.40031 0.0
H9534 H 0.22395 0.61012 0.38872 0.0
H9535 H 0.22048 0.6011 0.39543 0.0
H9536 H 0.19731 0.63772 0.41196 0.0
H9537 H 0.19245 0.62843 0.41733 0.0
H9538 H 0.20134 0.64172 0.39916 0.0
H9539 H 0.21025 0.63989 0.39169 0.0
C9540 C 0.64726 0.95645 0.65326 0.0
C9541 C 0.6413 0.95057 0.65792 0.0
C9542 C 0.6284 0.95679 0.64959 0.0
C9543 C 0.63441 0.96242 0.6447 0.0
N9544 N 0.64898 0.96945 0.64339 0.0
N9545 N 0.62616 0.94665 0.6623 0.0
C9546 C 0.64366 0.96289 0.6471 0.0
C9547 C 0.63183 0.95127 0.65668 0.0
N9548 N 0.65639 0.95552 0.65429 0.0
N9549 N 0.61951 0.95638 0.64712 0.0
H9550 H 0.62853 0.94257 0.66754 0.0
H9551 H 0.61917 0.94744 0.66231 0.0
H9552 H 0.61674 0.96059 0.64219 0.0
H9553 H 0.61498 0.95164 0.64963 0.0
H9554 H 0.66112 0.95882 0.65028 0.0
H9555 H 0.6593 0.951 0.65885 0.0
H9556 H 0.65559 0.97072 0.64542 0.0
H9557 H 0.64649 0.9742 0.63881 0.0
C9558 C 0.29923 0.39671 0.90597 0.0
C9559 C 0.30712 0.39183 0.90837 0.0
C9560 C 0.30225 0.37921 0.89881 0.0
C9561 C 0.29536 0.38476 0.89517 0.0
N9562 N 0.28695 0.39867 0.89526 0.0
N9563 N 0.31623 0.3784 0.90734 0.0
C9564 C 0.29363 0.39342 0.89888 0.0
C9565 C 0.30856 0.38298 0.90501 0.0
N9566 N 0.29717 0.4045 0.91047 0.0
N9567 N 0.30277 0.37036 0.89623 0.0
H9568 H 0.32084 0.38085 0.91207 0.0
H9569 H 0.31827 0.3724 0.90431 0.0
H9570 H 0.29823 0.36749 0.89167 0.0
H9571 H 0.30713 0.36569 0.89916 0.0
H9572 H 0.29115 0.40802 0.90962 0.0
H9573 H 0.3012 0.40702 0.91568 0.0
H9574 H 0.28602 0.40545 0.89687 0.0
H9575 H 0.28254 0.39633 0.89029 0.0
C9576 C 0.37534 0.55544 0.65654 0.0
C9577 C 0.36589 0.55625 0.65785 0.0
C9578 C 0.36332 0.54406 0.64692 0.0
C9579 C 0.37255 0.54445 0.64446 0.0
N9580 N 0.38752 0.55036 0.6468 0.0
N9581 N 0.35072 0.55151 0.65425 0.0
C9582 C 0.37865 0.54998 0.64935 0.0
C9583 C 0.35983 0.55048 0.65316 0.0
N9584 N 0.38111 0.55992 0.66218 0.0
N9585 N 0.3579 0.53757 0.64321 0.0
H9586 H 0.34789 0.55603 0.65885 0.0
H9587 H 0.34593 0.5483 0.65023 0.0
H9588 H 0.36033 0.53283 0.63859 0.0
H9589 H 0.3513 0.53635 0.64528 0.0
H9590 H 0.38808 0.55904 0.66214 0.0
H9591 H 0.37882 0.56396 0.66749 0.0
H9592 H 0.3921 0.55506 0.64932 0.0
H9593 H 0.39021 0.54623 0.64178 0.0
C9594 C 0.80117 0.11134 0.10333 0.0
C9595 C 0.80808 0.11687 0.09967 0.0
C9596 C 0.80215 0.12988 0.10803 0.0
C9597 C 0.79631 0.12401 0.11284 0.0
N9598 N 0.79008 0.10917 0.11521 0.0
N9599 N 0.81521 0.1314 0.09823 0.0
C9600 C 0.79564 0.11476 0.11041 0.0
C9601 C 0.80849 0.1262 0.10181 0.0
N9602 N 0.79998 0.10279 0.10005 0.0
N9603 N 0.80161 0.13898 0.10949 0.0
H9604 H 0.81973 0.12898 0.09339 0.0
H9605 H 0.8166 0.13797 0.1003 0.0
H9606 H 0.79702 0.14182 0.11402 0.0
H9607 H 0.8051 0.14376 0.1057 0.0
H9608 H 0.79458 0.09865 0.10182 0.0
H9609 H 0.80401 0.10009 0.09494 0.0
H9610 H 0.79008 0.10217 0.11457 0.0
H9611 H 0.78573 0.11151 0.12023 0.0
C9612 C 0.63125 0.05944 0.85298 0.0
C9613 C 0.63962 0.05751 0.84872 0.0
C9614 C 0.64103 0.04351 0.85746 0.0
C9615 C 0.63285 0.04563 0.86198 0.0
N9616 N 0.61897 0.05403 0.86243 0.0
N9617 N 0.65117 0.04674 0.84496 0.0
C9618 C 0.62754 0.05307 0.85914 0.0
C9619 C 0.64405 0.04917 0.8503 0.0
N9620 N 0.62713 0.06757 0.85153 0.0
N9621 N 0.64618 0.03642 0.86037 0.0
H9622 H 0.65348 0.0508 0.83968 0.0
H9623 H 0.65423 0.04042 0.8452 0.0
H9624 H 0.64409 0.03201 0.86544 0.0
H9625 H 0.65272 0.03518 0.85811 0.0
H9626 H 0.62162 0.06986 0.85526 0.0
H9627 H 0.62953 0.0723 0.84691 0.0
H9628 H 0.61442 0.05884 0.86008 0.0
H9629 H 0.61613 0.04943 0.86695 0.0
C9630 C 0.86209 0.95747 0.35009 0.0
C9631 C 0.86681 0.94935 0.34824 0.0
C9632 C 0.87911 0.95422 0.3582 0.0
C9633 C 0.8736 0.96139 0.36133 0.0
N9634 N 0.85992 0.97013 0.36028 0.0
N9635 N 0.87988 0.93988 0.35031 0.0
C9636 C 0.86518 0.96322 0.35714 0.0
C9637 C 0.87544 0.94777 0.35209 0.0
N9638 N 0.85462 0.9596 0.3451 0.0
N9639 N 0.88783 0.95358 0.36118 0.0
H9640 H 0.8775 0.93513 0.34567 0.0
H9641 H 0.88566 0.93779 0.35372 0.0
H9642 H 0.89063 0.95824 0.36566 0.0
H9643 H 0.89249 0.94898 0.35863 0.0
H9644 H 0.85128 0.96577 0.34554 0.0
H9645 H 0.85224 0.95546 0.33991 0.0
H9646 H 0.85325 0.97116 0.35831 0.0
H9647 H 0.8621 0.97462 0.36525 0.0
C9648 C 0.40486 0.30767 0.12512 0.0
C9649 C 0.40753 0.30669 0.11597 0.0
C9650 C 0.39726 0.29382 0.11416 0.0
C9651 C 0.39434 0.295 0.12322 0.0
N9652 N 0.39684 0.30133 0.13796 0.0
N9653 N 0.4082 0.2976 0.10253 0.0
C9654 C 0.39868 0.30136 0.12892 0.0
C9655 C 0.40438 0.29931 0.11076 0.0
N9656 N 0.40787 0.31489 0.13001 0.0
N9657 N 0.39286 0.28784 0.10867 0.0
H9658 H 0.4134 0.30156 0.09989 0.0
H9659 H 0.40683 0.29187 0.09871 0.0
H9660 H 0.38776 0.28357 0.11098 0.0
H9661 H 0.39389 0.28744 0.10173 0.0
H9662 H 0.40535 0.31665 0.13634 0.0
H9663 H 0.41263 0.31946 0.12753 0.0
H9664 H 0.40031 0.30524 0.14266 0.0
H9665 H 0.39234 0.29676 0.14088 0.0
C9666 C 0.45798 0.65531 0.86169 0.0
C9667 C 0.44938 0.6567 0.86568 0.0
C9668 C 0.45332 0.64606 0.87776 0.0
C9669 C 0.46113 0.64349 0.87286 0.0
N9670 N 0.4709 0.64538 0.85998 0.0
N9671 N 0.43854 0.65307 0.87731 0.0
C9672 C 0.46356 0.64814 0.86484 0.0
C9673 C 0.44701 0.65211 0.87376 0.0
N9674 N 0.46078 0.66088 0.85488 0.0
N9675 N 0.45195 0.64269 0.88624 0.0
H9676 H 0.43374 0.65747 0.87465 0.0
H9677 H 0.43605 0.64907 0.88253 0.0
H9678 H 0.45648 0.63825 0.88932 0.0
H9679 H 0.44685 0.64493 0.89052 0.0
H9680 H 0.46728 0.66077 0.85221 0.0
H9681 H 0.45682 0.66619 0.85248 0.0
H9682 H 0.47241 0.64776 0.85354 0.0
H9683 H 0.47523 0.64027 0.86216 0.0
C9684 C 0.103 0.69852 0.62401 0.0
C9685 C 0.09879 0.70062 0.61566 0.0
C9686 C 0.10785 0.71444 0.6144 0.0
C9687 C 0.1123 0.71215 0.62257 0.0
N9688 N 0.11249 0.70363 0.63639 0.0
N9689 N 0.09531 0.71158 0.6042 0.0
C9690 C 0.10927 0.70474 0.62781 0.0
C9691 C 0.10058 0.70896 0.61131 0.0
N9692 N 0.10145 0.69035 0.62802 0.0
N9693 N 0.11092 0.72154 0.60936 0.0
H9694 H 0.08994 0.70767 0.60184 0.0
H9695 H 0.09571 0.71792 0.60119 0.0
H9696 H 0.11606 0.72583 0.61155 0.0
H9697 H 0.10871 0.72291 0.60283 0.0
H9698 H 0.10514 0.68795 0.6335 0.0
H9699 H 0.0968 0.68569 0.62554 0.0
H9700 H 0.10999 0.69884 0.64089 0.0
H9701 H 0.1171 0.70811 0.63929 0.0
C9702 C 0.05865 0.35251 0.37369 0.0
C9703 C 0.05661 0.34845 0.36525 0.0
C9704 C 0.0428 0.35754 0.36404 0.0
C9705 C 0.04504 0.36185 0.3723 0.0
N9706 N 0.05345 0.3618 0.38618 0.0
N9707 N 0.04572 0.34516 0.35366 0.0
C9708 C 0.05241 0.35872 0.37754 0.0
C9709 C 0.04829 0.35031 0.36087 0.0
N9710 N 0.06678 0.35086 0.37774 0.0
N9711 N 0.03577 0.36071 0.35898 0.0
H9712 H 0.04964 0.33983 0.35125 0.0
H9713 H 0.0394 0.34562 0.35061 0.0
H9714 H 0.03147 0.36583 0.36121 0.0
H9715 H 0.03445 0.35862 0.3524 0.0
H9716 H 0.06914 0.35445 0.38331 0.0
H9717 H 0.07144 0.34623 0.37523 0.0
H9718 H 0.05821 0.35923 0.39068 0.0
H9719 H 0.04896 0.36637 0.38912 0.0
C9720 C 0.40659 0.70227 0.3822 0.0
C9721 C 0.40805 0.70147 0.39163 0.0
C9722 C 0.39717 0.71368 0.39436 0.0
C9723 C 0.39457 0.71328 0.38516 0.0
N9724 N 0.39668 0.70735 0.37017 0.0
N9725 N 0.40465 0.7062 0.40686 0.0
C9726 C 0.39936 0.70773 0.37899 0.0
C9727 C 0.40345 0.70724 0.39776 0.0
N9728 N 0.41215 0.69778 0.37636 0.0
N9729 N 0.39355 0.72017 0.39982 0.0
H9730 H 0.40927 0.70167 0.40962 0.0
H9731 H 0.40069 0.70941 0.4117 0.0
H9732 H 0.3889 0.72492 0.39747 0.0
H9733 H 0.39573 0.72139 0.40639 0.0
H9734 H 0.41199 0.69865 0.36939 0.0
H9735 H 0.41748 0.69374 0.37857 0.0
H9736 H 0.39912 0.70265 0.36555 0.0
H9737 H 0.39162 0.7115 0.36755 0.0
C9738 C 0.04776 0.65637 0.1457 0.0
C9739 C 0.05619 0.65808 0.14147 0.0
C9740 C 0.05215 0.64762 0.12928 0.0
C9741 C 0.04463 0.64466 0.13441 0.0
N9742 N 0.03511 0.64611 0.14752 0.0
N9743 N 0.06663 0.65526 0.12929 0.0
C9744 C 0.04227 0.64913 0.14255 0.0
C9745 C 0.05838 0.65382 0.13316 0.0
N9746 N 0.04507 0.66168 0.15275 0.0
N9747 N 0.05334 0.64441 0.12071 0.0
H9748 H 0.07132 0.65984 0.13184 0.0
H9749 H 0.06907 0.65152 0.12386 0.0
H9750 H 0.04886 0.63985 0.11773 0.0
H9751 H 0.05821 0.64687 0.11628 0.0
H9752 H 0.03868 0.66134 0.15566 0.0
H9753 H 0.04899 0.66704 0.15514 0.0
H9754 H 0.03368 0.64834 0.15403 0.0
H9755 H 0.03082 0.64098 0.1453 0.0
C9756 C 0.10066 0.30546 0.88238 0.0
C9757 C 0.09911 0.30593 0.89182 0.0
C9758 C 0.10989 0.29358 0.89423 0.0
C9759 C 0.11258 0.29427 0.88508 0.0
N9760 N 0.11061 0.30066 0.87026 0.0
N9761 N 0.1023 0.30064 0.9069 0.0
C9762 C 0.10787 0.30004 0.87905 0.0
C9763 C 0.10361 0.29992 0.89779 0.0
N9764 N 0.0952 0.31021 0.87665 0.0
N9765 N 0.11345 0.28689 0.89951 0.0
H9766 H 0.09766 0.30509 0.90977 0.0
H9767 H 0.10618 0.29724 0.91167 0.0
H9768 H 0.11812 0.28222 0.89705 0.0
H9769 H 0.1112 0.28546 0.90601 0.0
H9770 H 0.09542 0.30959 0.86965 0.0
H9771 H 0.08988 0.31421 0.87895 0.0
H9772 H 0.10824 0.30551 0.86577 0.0
H9773 H 0.11563 0.29652 0.86755 0.0
C9774 C 0.44889 0.35257 0.63333 0.0
C9775 C 0.451 0.34833 0.64166 0.0
C9776 C 0.46493 0.35725 0.64285 0.0
C9777 C 0.46263 0.36172 0.63469 0.0
N9778 N 0.45404 0.36198 0.62092 0.0
N9779 N 0.46201 0.34473 0.65305 0.0
C9780 C 0.45516 0.35877 0.62949 0.0
C9781 C 0.4594 0.35003 0.64596 0.0
N9782 N 0.44067 0.35114 0.62938 0.0
N9783 N 0.47207 0.36025 0.64786 0.0
H9784 H 0.45806 0.33939 0.65541 0.0
H9785 H 0.46838 0.34506 0.65602 0.0
H9786 H 0.4764 0.36536 0.64565 0.0
H9787 H 0.47346 0.35803 0.65438 0.0
H9788 H 0.43828 0.35486 0.62392 0.0
H9789 H 0.43596 0.34655 0.63189 0.0
H9790 H 0.4492 0.35953 0.61644 0.0
H9791 H 0.45855 0.36654 0.61798 0.0
C9792 C 0.12457 0.40681 0.30461 0.0
C9793 C 0.11511 0.4081 0.30544 0.0
C9794 C 0.11254 0.3971 0.29331 0.0
C9795 C 0.12178 0.39468 0.29367 0.0
N9796 N 0.13676 0.39711 0.29951 0.0
N9797 N 0.09993 0.40439 0.3008 0.0
C9798 C 0.12789 0.39962 0.29917 0.0
C9799 C 0.10905 0.40335 0.29972 0.0
N9800 N 0.13032 0.41249 0.30906 0.0
N9801 N 0.10711 0.39334 0.28686 0.0
H9802 H 0.0971 0.40898 0.30532 0.0
H9803 H 0.09515 0.40033 0.29763 0.0
H9804 H 0.10952 0.3887 0.28213 0.0
H9805 H 0.10049 0.39539 0.28566 0.0
H9806 H 0.1373 0.41246 0.30816 0.0
H9807 H 0.12803 0.4178 0.31308 0.0
H9808 H 0.14136 0.39966 0.30417 0.0
H9809 H 0.13946 0.39209 0.29536 0.0
C9810 C 0.35063 0.36075 0.04789 0.0
C9811 C 0.34887 0.36517 0.0562 0.0
C9812 C 0.35897 0.37752 0.05174 0.0
C9813 C 0.36202 0.37224 0.04436 0.0
N9814 N 0.36082 0.35886 0.03519 0.0
N9815 N 0.35135 0.37777 0.06623 0.0
C9816 C 0.35774 0.36394 0.04225 0.0
C9817 C 0.35289 0.37367 0.05811 0.0
N9818 N 0.34549 0.35348 0.04545 0.0
N9819 N 0.362 0.38619 0.05267 0.0
H9820 H 0.34683 0.37525 0.071 0.0
H9821 H 0.35493 0.38338 0.06849 0.0
H9822 H 0.36647 0.38912 0.04807 0.0
H9823 H 0.35948 0.3907 0.05743 0.0
H9824 H 0.34586 0.35039 0.03915 0.0
H9825 H 0.34024 0.35106 0.04949 0.0
H9826 H 0.35875 0.35226 0.03395 0.0
H9827 H 0.36583 0.36111 0.03079 0.0
C9828 C 0.39599 0.60343 0.79978 0.0
C9829 C 0.39096 0.60024 0.80727 0.0
C9830 C 0.37784 0.60899 0.80219 0.0
C9831 C 0.38339 0.61339 0.79575 0.0
N9832 N 0.3978 0.61503 0.78835 0.0
N9833 N 0.37711 0.59991 0.81581 0.0
C9834 C 0.39245 0.61056 0.7944 0.0
C9835 C 0.38182 0.60287 0.80845 0.0
N9836 N 0.40419 0.59963 0.79787 0.0
N9837 N 0.36878 0.61071 0.80231 0.0
H9838 H 0.37972 0.59524 0.82039 0.0
H9839 H 0.37082 0.60242 0.81768 0.0
H9840 H 0.36572 0.61517 0.79778 0.0
H9841 H 0.36419 0.60717 0.80628 0.0
H9842 H 0.40786 0.60104 0.79205 0.0
H9843 H 0.40692 0.59441 0.80174 0.0
H9844 H 0.40474 0.61404 0.78783 0.0
H9845 H 0.39539 0.62014 0.78416 0.0
C9846 C 0.15346 0.64709 0.55047 0.0
C9847 C 0.15796 0.64102 0.55638 0.0
C9848 C 0.14917 0.62836 0.5503 0.0
C9849 C 0.14447 0.63449 0.54461 0.0
N9850 N 0.14364 0.64903 0.53746 0.0
N9851 N 0.16185 0.62577 0.5604 0.0
C9852 C 0.14718 0.64364 0.54407 0.0
C9853 C 0.1564 0.63159 0.55575 0.0
N9854 N 0.15477 0.65619 0.55134 0.0
N9855 N 0.1464 0.61957 0.55079 0.0
H9856 H 0.16719 0.628 0.56443 0.0
H9857 H 0.16161 0.61879 0.55966 0.0
H9858 H 0.14136 0.61693 0.54663 0.0
H9859 H 0.14877 0.615 0.55557 0.0
H9860 H 0.15089 0.66101 0.54802 0.0
H9861 H 0.15941 0.65899 0.55585 0.0
H9862 H 0.1459 0.65555 0.53613 0.0
H9863 H 0.13897 0.64665 0.53275 0.0
C9864 C 0.12442 0.60223 0.19791 0.0
C9865 C 0.11594 0.5982 0.19986 0.0
C9866 C 0.11462 0.6073 0.21365 0.0
C9867 C 0.12292 0.61158 0.2115 0.0
N9868 N 0.13687 0.61151 0.20321 0.0
N9869 N 0.10421 0.59497 0.21061 0.0
C9870 C 0.12822 0.60844 0.20417 0.0
C9871 C 0.11148 0.60008 0.20812 0.0
N9872 N 0.12856 0.60053 0.18984 0.0
N9873 N 0.1095 0.61048 0.22064 0.0
H9874 H 0.10182 0.58965 0.20666 0.0
H9875 H 0.1011 0.59544 0.2169 0.0
H9876 H 0.1117 0.61559 0.22496 0.0
H9877 H 0.1029 0.60841 0.22189 0.0
H9878 H 0.13416 0.60408 0.18752 0.0
H9879 H 0.12608 0.59587 0.18517 0.0
H9880 H 0.14141 0.60894 0.19849 0.0
H9881 H 0.13978 0.61608 0.20772 0.0
C9882 C 0.15619 0.37453 0.95152 0.0
C9883 C 0.1579 0.36513 0.95083 0.0
C9884 C 0.14734 0.36227 0.96328 0.0
C9885 C 0.1445 0.3714 0.96284 0.0
N9886 N 0.14606 0.38636 0.95669 0.0
N9887 N 0.15498 0.34988 0.95578 0.0
C9888 C 0.14899 0.37762 0.9571 0.0
C9889 C 0.15357 0.35896 0.95676 0.0
N9890 N 0.16148 0.38047 0.94684 0.0
N9891 N 0.144 0.35679 0.96991 0.0
H9892 H 0.15956 0.34718 0.95118 0.0
H9893 H 0.1512 0.34499 0.95912 0.0
H9894 H 0.13938 0.35906 0.97472 0.0
H9895 H 0.1464 0.3503 0.97116 0.0
H9896 H 0.16114 0.38744 0.94762 0.0
H9897 H 0.16679 0.37835 0.94272 0.0
H9898 H 0.14828 0.39099 0.95188 0.0
H9899 H 0.14104 0.3889 0.96093 0.0
C9900 C 0.38211 0.40659 0.70152 0.0
C9901 C 0.39158 0.40789 0.70079 0.0
C9902 C 0.39404 0.39691 0.71296 0.0
C9903 C 0.3848 0.39447 0.7125 0.0
N9904 N 0.36987 0.39689 0.70652 0.0
N9905 N 0.40671 0.40422 0.70561 0.0
C9906 C 0.37875 0.3994 0.70694 0.0
C9907 C 0.39759 0.40316 0.70658 0.0
N9908 N 0.3764 0.41226 0.69701 0.0
N9909 N 0.3994 0.39315 0.71946 0.0
H9910 H 0.40958 0.40882 0.70112 0.0
H9911 H 0.41146 0.40017 0.70883 0.0
H9912 H 0.39694 0.38852 0.72417 0.0
H9913 H 0.406 0.39521 0.72074 0.0
H9914 H 0.36942 0.41222 0.69783 0.0
H9915 H 0.37873 0.41756 0.693 0.0
H9916 H 0.36532 0.39944 0.70181 0.0
H9917 H 0.36714 0.39188 0.71065 0.0
C9918 C 0.35066 0.63201 0.45076 0.0
C9919 C 0.34904 0.64143 0.45022 0.0
C9920 C 0.35972 0.64399 0.46263 0.0
C9921 C 0.3625 0.63487 0.462 0.0
N9922 N 0.3607 0.62 0.45568 0.0
N9923 N 0.35206 0.65656 0.45546 0.0
C9924 C 0.35788 0.62877 0.45623 0.0
C9925 C 0.35345 0.64747 0.45624 0.0
N9926 N 0.34528 0.6262 0.44601 0.0
N9927 N 0.36319 0.64933 0.46932 0.0
H9928 H 0.34742 0.65937 0.45097 0.0
H9929 H 0.35587 0.66138 0.45887 0.0
H9930 H 0.36785 0.64694 0.47403 0.0
H9931 H 0.36087 0.65582 0.47071 0.0
H9932 H 0.34556 0.61921 0.44666 0.0
H9933 H 0.33996 0.62844 0.44196 0.0
H9934 H 0.35839 0.61546 0.45083 0.0
H9935 H 0.36572 0.61735 0.45985 0.0
C9936 C 0.3001 0.10897 0.40285 0.0
C9937 C 0.30595 0.11505 0.40741 0.0
C9938 C 0.29969 0.12774 0.39878 0.0
C9939 C 0.29408 0.12161 0.39402 0.0
N9940 N 0.2871 0.10699 0.39303 0.0
N9941 N 0.30979 0.1303 0.41148 0.0
C9942 C 0.29365 0.11241 0.39662 0.0
C9943 C 0.3052 0.12449 0.40596 0.0
N9944 N 0.30109 0.09986 0.40404 0.0
N9945 N 0.30008 0.13657 0.39612 0.0
H9946 H 0.31385 0.12806 0.41678 0.0
H9947 H 0.30896 0.13728 0.41133 0.0
H9948 H 0.29589 0.13922 0.39112 0.0
H9949 H 0.30482 0.14116 0.39853 0.0
H9950 H 0.29782 0.09504 0.40011 0.0
H9951 H 0.30564 0.09706 0.40863 0.0
H9952 H 0.28585 0.10043 0.39522 0.0
H9953 H 0.28233 0.10937 0.38841 0.0
C9954 C 0.80004 0.39768 0.60372 0.0
C9955 C 0.80549 0.39157 0.59872 0.0
C9956 C 0.79909 0.3788 0.60713 0.0
C9957 C 0.79383 0.38495 0.61227 0.0
N9958 N 0.78741 0.39975 0.61399 0.0
N9959 N 0.8086 0.37635 0.59398 0.0
C9960 C 0.79366 0.39424 0.61002 0.0
C9961 C 0.80445 0.38212 0.59987 0.0
N9962 N 0.80135 0.40678 0.60285 0.0
N9963 N 0.79932 0.36989 0.60951 0.0
H9964 H 0.81256 0.37863 0.58861 0.0
H9965 H 0.80751 0.36941 0.59391 0.0
H9966 H 0.79526 0.36719 0.61459 0.0
H9967 H 0.80383 0.36524 0.60677 0.0
H9968 H 0.79839 0.41155 0.60708 0.0
H9969 H 0.80586 0.4096 0.59824 0.0
H9970 H 0.78633 0.40643 0.61207 0.0
H9971 H 0.78269 0.39736 0.61865 0.0
C9972 C 0.36125 0.04848 0.35023 0.0
C9973 C 0.366 0.05651 0.34809 0.0
C9974 C 0.37844 0.0518 0.35795 0.0
C9975 C 0.37294 0.04474 0.36135 0.0
N9976 N 0.35919 0.03608 0.36076 0.0
N9977 N 0.37916 0.06594 0.34971 0.0
C9978 C 0.36443 0.04287 0.35737 0.0
C9979 C 0.37471 0.05812 0.35175 0.0
N9980 N 0.35367 0.04629 0.34544 0.0
N9981 N 0.38721 0.05246 0.36077 0.0
H9982 H 0.37674 0.07059 0.34501 0.0
H9983 H 0.38501 0.06807 0.35297 0.0
H9984 H 0.39006 0.04789 0.36533 0.0
H9985 H 0.39186 0.05695 0.35802 0.0
H9986 H 0.35028 0.04016 0.34609 0.0
H9987 H 0.35123 0.05031 0.34019 0.0
H9988 H 0.35249 0.03503 0.35893 0.0
H9989 H 0.36145 0.03168 0.36578 0.0
C9990 C 0.70717 0.60848 0.10242 0.0
C9991 C 0.70119 0.61456 0.09804 0.0
C9992 C 0.70738 0.62718 0.10681 0.0
C9993 C 0.7131 0.62104 0.11142 0.0
N9994 N 0.72028 0.6065 0.1121 0.0
N9995 N 0.69714 0.62983 0.09425 0.0
C9996 C 0.71363 0.6119 0.10866 0.0
C9997 C 0.70184 0.62398 0.09962 0.0
N9998 N 0.70629 0.59939 0.10106 0.0
N9999 N 0.70692 0.63596 0.10961 0.0
H10000 H 0.69305 0.62762 0.08895 0.0
H10001 H 0.69788 0.63681 0.0945 0.0
H10002 H 0.71114 0.63858 0.11462 0.0
H10003 H 0.70212 0.64054 0.10731 0.0
H10004 H 0.70967 0.59454 0.10486 0.0
H10005 H 0.70175 0.59662 0.09645 0.0
H10006 H 0.72159 0.59999 0.1098 0.0
H10007 H 0.72505 0.60887 0.11672 0.0
C10008 C 0.63276 0.44794 0.35269 0.0
C10009 C 0.64121 0.44996 0.34863 0.0
C10010 C 0.64246 0.46375 0.35774 0.0
C10011 C 0.63418 0.46154 0.36203 0.0
N10012 N 0.62028 0.45316 0.36197 0.0
N10013 N 0.65283 0.46082 0.34536 0.0
C10014 C 0.62892 0.45418 0.3589 0.0
C10015 C 0.64561 0.45826 0.3505 0.0
N10016 N 0.62869 0.43982 0.35104 0.0
N10017 N 0.64754 0.47077 0.36092 0.0
H10018 H 0.65523 0.4569 0.34002 0.0
H10019 H 0.65589 0.46713 0.34582 0.0
H10020 H 0.64532 0.47506 0.36604 0.0
H10021 H 0.65412 0.47206 0.35883 0.0
H10022 H 0.62312 0.43747 0.35463 0.0
H10023 H 0.6312 0.43515 0.34641 0.0
H10024 H 0.61577 0.44842 0.35939 0.0
H10025 H 0.61734 0.45766 0.36654 0.0
C10026 C 0.2086 0.89552 0.90624 0.0
C10027 C 0.20032 0.89109 0.90816 0.0
C10028 C 0.20459 0.87872 0.898 0.0
C10029 C 0.21193 0.88398 0.89483 0.0
N10030 N 0.22115 0.89734 0.89585 0.0
N10031 N 0.19025 0.87849 0.90592 0.0
C10032 C 0.21412 0.8923 0.89906 0.0
C10033 C 0.19834 0.88259 0.9042 0.0
N10034 N 0.21111 0.90282 0.9113 0.0
N10035 N 0.20359 0.87006 0.89499 0.0
H10036 H 0.18559 0.88102 0.91056 0.0
H10037 H 0.18791 0.87287 0.90241 0.0
H10038 H 0.20808 0.86711 0.89044 0.0
H10039 H 0.19886 0.86556 0.8976 0.0
H10040 H 0.2174 0.90592 0.9108 0.0
H10041 H 0.20716 0.90527 0.91659 0.0
H10042 H 0.22245 0.90394 0.89788 0.0
H10043 H 0.22548 0.89505 0.89079 0.0
C10044 C 0.37455 0.95255 0.15621 0.0
C10045 C 0.3651 0.95178 0.15753 0.0
C10046 C 0.36257 0.96401 0.14664 0.0
C10047 C 0.3718 0.96359 0.14417 0.0
N10048 N 0.38676 0.95767 0.14652 0.0
N10049 N 0.34994 0.95661 0.15398 0.0
C10050 C 0.37789 0.95803 0.14905 0.0
C10051 C 0.35906 0.9576 0.15287 0.0
N10052 N 0.38029 0.948 0.16182 0.0
N10053 N 0.35717 0.97051 0.14292 0.0
H10054 H 0.3471 0.95211 0.15859 0.0
H10055 H 0.34516 0.95985 0.14998 0.0
H10056 H 0.3596 0.97524 0.13829 0.0
H10057 H 0.35057 0.97176 0.14499 0.0
H10058 H 0.38727 0.94883 0.16177 0.0
H10059 H 0.37799 0.94394 0.16711 0.0
H10060 H 0.39134 0.95297 0.14903 0.0
H10061 H 0.38946 0.96186 0.14155 0.0
C10062 C 0.14788 0.05022 0.65293 0.0
C10063 C 0.14173 0.05576 0.65777 0.0
C10064 C 0.12904 0.04935 0.64926 0.0
C10065 C 0.13522 0.044 0.64426 0.0
N10066 N 0.15001 0.03747 0.64281 0.0
N10067 N 0.12647 0.05905 0.66226 0.0
C10068 C 0.14448 0.04379 0.64665 0.0
C10069 C 0.13229 0.05478 0.65651 0.0
N10070 N 0.15698 0.05148 0.6539 0.0
N10071 N 0.12015 0.04957 0.64678 0.0
H10072 H 0.12871 0.06305 0.66761 0.0
H10073 H 0.11952 0.05801 0.66224 0.0
H10074 H 0.11751 0.04544 0.64172 0.0
H10075 H 0.11549 0.05413 0.6494 0.0
H10076 H 0.16179 0.04844 0.64977 0.0
H10077 H 0.15976 0.05602 0.6585 0.0
H10078 H 0.15665 0.03637 0.64484 0.0
H10079 H 0.14767 0.03273 0.63815 0.0
loop_
_geom_bond_atom_site_label_1
_geom_bond_atom_site_label_2
_geom_bond_distance
_geom_bond_site_symmetry_2
_ccdc_geom_bond_type
C0 C1 1.264 . S
C0 C5 1.479 . S
C0 C10 1.465 . S
C1 C0 1.264 . S
C1 C3 1.339 . S
C1 H28 0.931 . S
C2 C3 1.395 . S
C2 C4 1.320 . S
C3 C1 1.339 . S
C3 C2 1.395 . S
C3 H29 0.929 . S
C4 C2 1.320 . S
C4 C5 1.405 . S
C4 H30 0.930 . S
C5 C0 1.479 . S
C5 C4 1.405 . S
C5 H31 0.931 . S
U6 O7 2.454 . S
U6 O8 2.458 . S
U6 C9 2.984 . S
U6 C10 2.847 . S
U6 C23 2.882 . S
U6 O24 2.441 . S
U6 O25 2.420 . S
U6 O26 2.455 . S
U6 O27 2.449 . S
O7 U6 2.454 . S
O7 C9 1.353 . S
O8 U6 2.458 . S
O8 C9 1.286 . S
C9 U6 2.984 . S
C9 O7 1.353 . S
C9 O8 1.286 . S
C9 C11 1.363 . S
C10 C0 1.465 . S
C10 U6 2.847 . S
C10 O24 1.249 . S
C10 O25 1.202 . S
C11 C9 1.363 . S
C11 C13 1.408 . S
C11 C16 1.342 . S
C12 C13 1.310 . S
C12 C15 1.461 . S
C12 H32 0.932 . S
C13 C11 1.408 . S
C13 C12 1.310 . S
C13 H33 0.930 . S
C14 C15 1.474 . S
C14 C16 1.285 . S
C14 H34 0.929 . S
C15 C12 1.461 . S
C15 C14 1.474 . S
C16 C11 1.342 . S
C16 C14 1.285 . S
C16 H35 0.930 . S
C17 C20 1.424 . S
C17 C22 1.245 . S
C17 C23 1.428 . S
C18 C21 1.260 . S
C18 C22 1.477 . S
C18 H36 0.932 . S
C19 C20 1.384 . S
C19 C21 1.479 . S
C19 H37 0.929 . S
C20 C17 1.424 . S
C20 C19 1.384 . S
C20 H38 0.928 . S
C21 C18 1.260 . S
C21 C19 1.479 . S
C22 C17 1.245 . S
C22 C18 1.477 . S
C22 H39 0.932 . S
C23 U6 2.882 . S
C23 C17 1.428 . S
C23 O26 1.301 . S
C23 O27 1.282 . S
O24 U6 2.441 . S
O24 C10 1.249 . S
O25 U6 2.420 . S
O25 C10 1.202 . S
O26 U6 2.455 . S
O26 C23 1.301 . S
O27 U6 2.449 . S
O27 C23 1.282 . S
H28 C1 0.931 . S
H29 C3 0.929 . S
H30 C4 0.930 . S
H31 C5 0.931 . S
H32 C12 0.932 . S
H33 C13 0.930 . S
H34 C14 0.929 . S
H35 C16 0.930 . S
H36 C18 0.932 . S
H37 C19 0.929 . S
H38 C20 0.928 . S
H39 C22 0.932 . S
C40 C41 1.264 . S
C40 C45 1.479 . S
C40 C50 1.465 . S
C41 C40 1.264 . S
C41 C43 1.339 . S
C41 H68 0.931 . S
C42 C43 1.395 . S
C42 C44 1.320 . S
C43 C41 1.339 . S
C43 C42 1.395 . S
C43 H69 0.929 . S
C44 C42 1.320 . S
C44 C45 1.405 . S
C44 H70 0.930 . S
C45 C40 1.479 . S
C45 C44 1.405 . S
C45 H71 0.931 . S
U46 O47 2.454 . S
U46 O48 2.458 . S
U46 C49 2.984 . S
U46 C50 2.847 . S
U46 C63 2.882 . S
U46 O64 2.441 . S
U46 O65 2.420 . S
U46 O66 2.455 . S
U46 O67 2.449 . S
O47 U46 2.454 . S
O47 C49 1.353 . S
O48 U46 2.458 . S
O48 C49 1.286 . S
C49 U46 2.984 . S
C49 O47 1.353 . S
C49 O48 1.286 . S
C49 C51 1.363 . S
C50 C40 1.465 . S
C50 U46 2.847 . S
C50 O64 1.249 . S
C50 O65 1.202 . S
C51 C49 1.363 . S
C51 C53 1.408 . S
C51 C56 1.342 . S
C52 C53 1.310 . S
C52 C55 1.461 . S
C52 H72 0.932 . S
C53 C51 1.408 . S
C53 C52 1.310 . S
C53 H73 0.930 . S
C54 C55 1.474 . S
C54 C56 1.285 . S
C54 H74 0.929 . S
C55 C52 1.461 . S
C55 C54 1.474 . S
C56 C51 1.342 . S
C56 C54 1.285 . S
C56 H75 0.930 . S
C57 C60 1.424 . S
C57 C62 1.245 . S
C57 C63 1.428 . S
C58 C61 1.260 . S
C58 C62 1.477 . S
C58 H76 0.932 . S
C59 C60 1.384 . S
C59 C61 1.479 . S
C59 H77 0.929 . S
C60 C57 1.424 . S
C60 C59 1.384 . S
C60 H78 0.928 . S
C61 C58 1.260 . S
C61 C59 1.479 . S
C62 C57 1.245 . S
C62 C58 1.477 . S
C62 H79 0.932 . S
C63 U46 2.882 . S
C63 C57 1.428 . S
C63 O66 1.301 . S
C63 O67 1.282 . S
O64 U46 2.441 . S
O64 C50 1.249 . S
O65 U46 2.420 . S
O65 C50 1.202 . S
O66 U46 2.455 . S
O66 C63 1.301 . S
O67 U46 2.449 . S
O67 C63 1.282 . S
H68 C41 0.931 . S
H69 C43 0.929 . S
H70 C44 0.930 . S
H71 C45 0.931 . S
H72 C52 0.932 . S
H73 C53 0.930 . S
H74 C54 0.929 . S
H75 C56 0.930 . S
H76 C58 0.932 . S
H77 C59 0.929 . S
H78 C60 0.928 . S
H79 C62 0.932 . S
C80 C81 1.264 . S
C80 C85 1.479 . S
C80 C90 1.465 . S
C81 C80 1.264 . S
C81 C83 1.339 . S
C81 H108 0.931 . S
C82 C83 1.395 . S
C82 C84 1.320 . S
C83 C81 1.339 . S
C83 C82 1.395 . S
C83 H109 0.929 . S
C84 C82 1.320 . S
C84 C85 1.405 . S
C84 H110 0.930 . S
C85 C80 1.479 . S
C85 C84 1.405 . S
C85 H111 0.931 . S
U86 O87 2.454 . S
U86 O88 2.458 . S
U86 C89 2.984 . S
U86 C90 2.847 . S
U86 C103 2.882 . S
U86 O104 2.441 . S
U86 O105 2.420 . S
U86 O106 2.455 . S
U86 O107 2.449 . S
O87 U86 2.454 . S
O87 C89 1.353 . S
O88 U86 2.458 . S
O88 C89 1.286 . S
C89 U86 2.984 . S
C89 O87 1.353 . S
C89 O88 1.286 . S
C89 C91 1.363 . S
C90 C80 1.465 . S
C90 U86 2.847 . S
C90 O104 1.249 . S
C90 O105 1.202 . S
C91 C89 1.363 . S
C91 C93 1.408 . S
C91 C96 1.342 . S
C92 C93 1.310 . S
C92 C95 1.461 . S
C92 H112 0.932 . S
C93 C91 1.408 . S
C93 C92 1.310 . S
C93 H113 0.930 . S
C94 C95 1.474 . S
C94 C96 1.285 . S
C94 H114 0.929 . S
C95 C92 1.461 . S
C95 C94 1.474 . S
C96 C91 1.342 . S
C96 C94 1.285 . S
C96 H115 0.930 . S
C97 C100 1.424 . S
C97 C102 1.245 . S
C97 C103 1.428 . S
C98 C101 1.260 . S
C98 C102 1.477 . S
C98 H116 0.932 . S
C99 C100 1.384 . S
C99 C101 1.479 . S
C99 H117 0.929 . S
C100 C97 1.424 . S
C100 C99 1.384 . S
C100 H118 0.928 . S
C101 C98 1.260 . S
C101 C99 1.479 . S
C102 C97 1.245 . S
C102 C98 1.477 . S
C102 H119 0.932 . S
C103 U86 2.882 . S
C103 C97 1.428 . S
C103 O106 1.301 . S
C103 O107 1.282 . S
O104 U86 2.441 . S
O104 C90 1.249 . S
O105 U86 2.420 . S
O105 C90 1.202 . S
O106 U86 2.455 . S
O106 C103 1.301 . S
O107 U86 2.449 . S
O107 C103 1.282 . S
H108 C81 0.931 . S
H109 C83 0.929 . S
H110 C84 0.930 . S
H111 C85 0.931 . S
H112 C92 0.932 . S
H113 C93 0.930 . S
H114 C94 0.929 . S
H115 C96 0.930 . S
H116 C98 0.932 . S
H117 C99 0.929 . S
H118 C100 0.928 . S
H119 C102 0.932 . S
C120 C121 1.264 . S
C120 C125 1.479 . S
C120 C130 1.465 . S
C121 C120 1.264 . S
C121 C123 1.339 . S
C121 H148 0.931 . S
C122 C123 1.395 . S
C122 C124 1.320 . S
C123 C121 1.339 . S
C123 C122 1.395 . S
C123 H149 0.929 . S
C124 C122 1.320 . S
C124 C125 1.405 . S
C124 H150 0.930 . S
C125 C120 1.479 . S
C125 C124 1.405 . S
C125 H151 0.931 . S
U126 O127 2.454 . S
U126 O128 2.458 . S
U126 C129 2.984 . S
U126 C130 2.847 . S
U126 C143 2.882 . S
U126 O144 2.441 . S
U126 O145 2.420 . S
U126 O146 2.455 . S
U126 O147 2.449 . S
O127 U126 2.454 . S
O127 C129 1.353 . S
O128 U126 2.458 . S
O128 C129 1.286 . S
C129 U126 2.984 . S
C129 O127 1.353 . S
C129 O128 1.286 . S
C129 C131 1.363 . S
C130 C120 1.465 . S
C130 U126 2.847 . S
C130 O144 1.249 . S
C130 O145 1.202 . S
C131 C129 1.363 . S
C131 C133 1.408 . S
C131 C136 1.342 . S
C132 C133 1.310 . S
C132 C135 1.461 . S
C132 H152 0.932 . S
C133 C131 1.408 . S
C133 C132 1.310 . S
C133 H153 0.930 . S
C134 C135 1.474 . S
C134 C136 1.285 . S
C134 H154 0.929 . S
C135 C132 1.461 . S
C135 C134 1.474 . S
C136 C131 1.342 . S
C136 C134 1.285 . S
C136 H155 0.930 . S
C137 C140 1.424 . S
C137 C142 1.245 . S
C137 C143 1.428 . S
C138 C141 1.260 . S
C138 C142 1.477 . S
C138 H156 0.932 . S
C139 C140 1.384 . S
C139 C141 1.479 . S
C139 H157 0.929 . S
C140 C137 1.424 . S
C140 C139 1.384 . S
C140 H158 0.928 . S
C141 C138 1.260 . S
C141 C139 1.479 . S
C142 C137 1.245 . S
C142 C138 1.477 . S
C142 H159 0.932 . S
C143 U126 2.882 . S
C143 C137 1.428 . S
C143 O146 1.301 . S
C143 O147 1.282 . S
O144 U126 2.441 . S
O144 C130 1.249 . S
O145 U126 2.420 . S
O145 C130 1.202 . S
O146 U126 2.455 . S
O146 C143 1.301 . S
O147 U126 2.449 . S
O147 C143 1.282 . S
H148 C121 0.931 . S
H149 C123 0.929 . S
H150 C124 0.930 . S
H151 C125 0.931 . S
H152 C132 0.932 . S
H153 C133 0.930 . S
H154 C134 0.929 . S
H155 C136 0.930 . S
H156 C138 0.932 . S
H157 C139 0.929 . S
H158 C140 0.928 . S
H159 C142 0.932 . S
C160 C161 1.264 . S
C160 C165 1.479 . S
C160 C170 1.465 . S
C161 C160 1.264 . S
C161 C163 1.339 . S
C161 H188 0.931 . S
C162 C163 1.395 . S
C162 C164 1.320 . S
C163 C161 1.339 . S
C163 C162 1.395 . S
C163 H189 0.929 . S
C164 C162 1.320 . S
C164 C165 1.405 . S
C164 H190 0.930 . S
C165 C160 1.479 . S
C165 C164 1.405 . S
C165 H191 0.931 . S
U166 O167 2.454 . S
U166 O168 2.458 . S
U166 C169 2.984 . S
U166 C170 2.847 . S
U166 C183 2.882 . S
U166 O184 2.441 . S
U166 O185 2.420 . S
U166 O186 2.455 . S
U166 O187 2.449 . S
O167 U166 2.454 . S
O167 C169 1.353 . S
O168 U166 2.458 . S
O168 C169 1.286 . S
C169 U166 2.984 . S
C169 O167 1.353 . S
C169 O168 1.286 . S
C169 C171 1.363 . S
C170 C160 1.465 . S
C170 U166 2.847 . S
C170 O184 1.249 . S
C170 O185 1.202 . S
C171 C169 1.363 . S
C171 C173 1.408 . S
C171 C176 1.342 . S
C172 C173 1.310 . S
C172 C175 1.461 . S
C172 H192 0.932 . S
C173 C171 1.408 . S
C173 C172 1.310 . S
C173 H193 0.930 . S
C174 C175 1.474 . S
C174 C176 1.285 . S
C174 H194 0.929 . S
C175 C172 1.461 . S
C175 C174 1.474 . S
C176 C171 1.342 . S
C176 C174 1.285 . S
C176 H195 0.930 . S
C177 C180 1.424 . S
C177 C182 1.245 . S
C177 C183 1.428 . S
C178 C181 1.260 . S
C178 C182 1.477 . S
C178 H196 0.932 . S
C179 C180 1.384 . S
C179 C181 1.479 . S
C179 H197 0.929 . S
C180 C177 1.424 . S
C180 C179 1.384 . S
C180 H198 0.928 . S
C181 C178 1.260 . S
C181 C179 1.479 . S
C182 C177 1.245 . S
C182 C178 1.477 . S
C182 H199 0.932 . S
C183 U166 2.882 . S
C183 C177 1.428 . S
C183 O186 1.301 . S
C183 O187 1.282 . S
O184 U166 2.441 . S
O184 C170 1.249 . S
O185 U166 2.420 . S
O185 C170 1.202 . S
O186 U166 2.455 . S
O186 C183 1.301 . S
O187 U166 2.449 . S
O187 C183 1.282 . S
H188 C161 0.931 . S
H189 C163 0.929 . S
H190 C164 0.930 . S
H191 C165 0.931 . S
H192 C172 0.932 . S
H193 C173 0.930 . S
H194 C174 0.929 . S
H195 C176 0.930 . S
H196 C178 0.932 . S
H197 C179 0.929 . S
H198 C180 0.928 . S
H199 C182 0.932 . S
C200 C201 1.264 . S
C200 C205 1.479 . S
C200 C210 1.465 . S
C201 C200 1.264 . S
C201 C203 1.339 . S
C201 H228 0.931 . S
C202 C203 1.395 . S
C202 C204 1.320 . S
C203 C201 1.339 . S
C203 C202 1.395 . S
C203 H229 0.929 . S
C204 C202 1.320 . S
C204 C205 1.405 . S
C204 H230 0.930 . S
C205 C200 1.479 . S
C205 C204 1.405 . S
C205 H231 0.931 . S
U206 O207 2.454 . S
U206 O208 2.458 . S
U206 C209 2.984 . S
U206 C210 2.847 . S
U206 C223 2.882 . S
U206 O224 2.441 . S
U206 O225 2.420 . S
U206 O226 2.455 . S
U206 O227 2.449 . S
O207 U206 2.454 . S
O207 C209 1.353 . S
O208 U206 2.458 . S
O208 C209 1.286 . S
C209 U206 2.984 . S
C209 O207 1.353 . S
C209 O208 1.286 . S
C209 C211 1.363 . S
C210 C200 1.465 . S
C210 U206 2.847 . S
C210 O224 1.249 . S
C210 O225 1.202 . S
C211 C209 1.363 . S
C211 C213 1.408 . S
C211 C216 1.342 . S
C212 C213 1.310 . S
C212 C215 1.461 . S
C212 H232 0.932 . S
C213 C211 1.408 . S
C213 C212 1.310 . S
C213 H233 0.930 . S
C214 C215 1.474 . S
C214 C216 1.285 . S
C214 H234 0.929 . S
C215 C212 1.461 . S
C215 C214 1.474 . S
C216 C211 1.342 . S
C216 C214 1.285 . S
C216 H235 0.930 . S
C217 C220 1.424 . S
C217 C222 1.245 . S
C217 C223 1.428 . S
C218 C221 1.260 . S
C218 C222 1.477 . S
C218 H236 0.932 . S
C219 C220 1.384 . S
C219 C221 1.479 . S
C219 H237 0.929 . S
C220 C217 1.424 . S
C220 C219 1.384 . S
C220 H238 0.928 . S
C221 C218 1.260 . S
C221 C219 1.479 . S
C222 C217 1.245 . S
C222 C218 1.477 . S
C222 H239 0.932 . S
C223 U206 2.882 . S
C223 C217 1.428 . S
C223 O226 1.301 . S
C223 O227 1.282 . S
O224 U206 2.441 . S
O224 C210 1.249 . S
O225 U206 2.420 . S
O225 C210 1.202 . S
O226 U206 2.455 . S
O226 C223 1.301 . S
O227 U206 2.449 . S
O227 C223 1.282 . S
H228 C201 0.931 . S
H229 C203 0.929 . S
H230 C204 0.930 . S
H231 C205 0.931 . S
H232 C212 0.932 . S
H233 C213 0.930 . S
H234 C214 0.929 . S
H235 C216 0.930 . S
H236 C218 0.932 . S
H237 C219 0.929 . S
H238 C220 0.928 . S
H239 C222 0.932 . S
C240 C241 1.264 . S
C240 C245 1.479 . S
C240 C250 1.465 . S
C241 C240 1.264 . S
C241 C243 1.339 . S
C241 H268 0.931 . S
C242 C243 1.395 . S
C242 C244 1.320 . S
C243 C241 1.339 . S
C243 C242 1.395 . S
C243 H269 0.929 . S
C244 C242 1.320 . S
C244 C245 1.405 . S
C244 H270 0.930 . S
C245 C240 1.479 . S
C245 C244 1.405 . S
C245 H271 0.931 . S
U246 O247 2.454 . S
U246 O248 2.458 . S
U246 C249 2.984 . S
U246 C250 2.847 . S
U246 C263 2.882 . S
U246 O264 2.441 . S
U246 O265 2.420 . S
U246 O266 2.455 . S
U246 O267 2.449 . S
O247 U246 2.454 . S
O247 C249 1.353 . S
O248 U246 2.458 . S
O248 C249 1.286 . S
C249 U246 2.984 . S
C249 O247 1.353 . S
C249 O248 1.286 . S
C249 C251 1.363 . S
C250 C240 1.465 . S
C250 U246 2.847 . S
C250 O264 1.249 . S
C250 O265 1.202 . S
C251 C249 1.363 . S
C251 C253 1.408 . S
C251 C256 1.342 . S
C252 C253 1.310 . S
C252 C255 1.461 . S
C252 H272 0.932 . S
C253 C251 1.408 . S
C253 C252 1.310 . S
C253 H273 0.930 . S
C254 C255 1.474 . S
C254 C256 1.285 . S
C254 H274 0.929 . S
C255 C252 1.461 . S
C255 C254 1.474 . S
C256 C251 1.342 . S
C256 C254 1.285 . S
C256 H275 0.930 . S
C257 C260 1.424 . S
C257 C262 1.245 . S
C257 C263 1.428 . S
C258 C261 1.260 . S
C258 C262 1.477 . S
C258 H276 0.932 . S
C259 C260 1.384 . S
C259 C261 1.479 . S
C259 H277 0.929 . S
C260 C257 1.424 . S
C260 C259 1.384 . S
C260 H278 0.928 . S
C261 C258 1.260 . S
C261 C259 1.479 . S
C262 C257 1.245 . S
C262 C258 1.477 . S
C262 H279 0.932 . S
C263 U246 2.882 . S
C263 C257 1.428 . S
C263 O266 1.301 . S
C263 O267 1.282 . S
O264 U246 2.441 . S
O264 C250 1.249 . S
O265 U246 2.420 . S
O265 C250 1.202 . S
O266 U246 2.455 . S
O266 C263 1.301 . S
O267 U246 2.449 . S
O267 C263 1.282 . S
H268 C241 0.931 . S
H269 C243 0.929 . S
H270 C244 0.930 . S
H271 C245 0.931 . S
H272 C252 0.932 . S
H273 C253 0.930 . S
H274 C254 0.929 . S
H275 C256 0.930 . S
H276 C258 0.932 . S
H277 C259 0.929 . S
H278 C260 0.928 . S
H279 C262 0.932 . S
C280 C281 1.264 . S
C280 C285 1.479 . S
C280 C290 1.465 . S
C281 C280 1.264 . S
C281 C283 1.339 . S
C281 H308 0.931 . S
C282 C283 1.395 . S
C282 C284 1.320 . S
C283 C281 1.339 . S
C283 C282 1.395 . S
C283 H309 0.929 . S
C284 C282 1.320 . S
C284 C285 1.405 . S
C284 H310 0.930 . S
C285 C280 1.479 . S
C285 C284 1.405 . S
C285 H311 0.931 . S
U286 O287 2.454 . S
U286 O288 2.458 . S
U286 C289 2.984 . S
U286 C290 2.847 . S
U286 C303 2.882 . S
U286 O304 2.441 . S
U286 O305 2.420 . S
U286 O306 2.455 . S
U286 O307 2.449 . S
O287 U286 2.454 . S
O287 C289 1.353 . S
O288 U286 2.458 . S
O288 C289 1.286 . S
C289 U286 2.984 . S
C289 O287 1.353 . S
C289 O288 1.286 . S
C289 C291 1.363 . S
C290 C280 1.465 . S
C290 U286 2.847 . S
C290 O304 1.249 . S
C290 O305 1.202 . S
C291 C289 1.363 . S
C291 C293 1.408 . S
C291 C296 1.342 . S
C292 C293 1.310 . S
C292 C295 1.461 . S
C292 H312 0.932 . S
C293 C291 1.408 . S
C293 C292 1.310 . S
C293 H313 0.930 . S
C294 C295 1.474 . S
C294 C296 1.285 . S
C294 H314 0.929 . S
C295 C292 1.461 . S
C295 C294 1.474 . S
C296 C291 1.342 . S
C296 C294 1.285 . S
C296 H315 0.930 . S
C297 C300 1.424 . S
C297 C302 1.245 . S
C297 C303 1.428 . S
C298 C301 1.260 . S
C298 C302 1.477 . S
C298 H316 0.932 . S
C299 C300 1.384 . S
C299 C301 1.479 . S
C299 H317 0.929 . S
C300 C297 1.424 . S
C300 C299 1.384 . S
C300 H318 0.928 . S
C301 C298 1.260 . S
C301 C299 1.479 . S
C302 C297 1.245 . S
C302 C298 1.477 . S
C302 H319 0.932 . S
C303 U286 2.882 . S
C303 C297 1.428 . S
C303 O306 1.301 . S
C303 O307 1.282 . S
O304 U286 2.441 . S
O304 C290 1.249 . S
O305 U286 2.420 . S
O305 C290 1.202 . S
O306 U286 2.455 . S
O306 C303 1.301 . S
O307 U286 2.449 . S
O307 C303 1.282 . S
H308 C281 0.931 . S
H309 C283 0.929 . S
H310 C284 0.930 . S
H311 C285 0.931 . S
H312 C292 0.932 . S
H313 C293 0.930 . S
H314 C294 0.929 . S
H315 C296 0.930 . S
H316 C298 0.932 . S
H317 C299 0.929 . S
H318 C300 0.928 . S
H319 C302 0.932 . S
C320 C321 1.264 . S
C320 C325 1.479 . S
C320 C330 1.465 . S
C321 C320 1.264 . S
C321 C323 1.339 . S
C321 H348 0.931 . S
C322 C323 1.395 . S
C322 C324 1.320 . S
C323 C321 1.339 . S
C323 C322 1.395 . S
C323 H349 0.929 . S
C324 C322 1.320 . S
C324 C325 1.405 . S
C324 H350 0.930 . S
C325 C320 1.479 . S
C325 C324 1.405 . S
C325 H351 0.931 . S
U326 O327 2.454 . S
U326 O328 2.458 . S
U326 C329 2.984 . S
U326 C330 2.847 . S
U326 C343 2.882 . S
U326 O344 2.441 . S
U326 O345 2.420 . S
U326 O346 2.455 . S
U326 O347 2.449 . S
O327 U326 2.454 . S
O327 C329 1.353 . S
O328 U326 2.458 . S
O328 C329 1.286 . S
C329 U326 2.984 . S
C329 O327 1.353 . S
C329 O328 1.286 . S
C329 C331 1.363 . S
C330 C320 1.465 . S
C330 U326 2.847 . S
C330 O344 1.249 . S
C330 O345 1.202 . S
C331 C329 1.363 . S
C331 C333 1.408 . S
C331 C336 1.342 . S
C332 C333 1.310 . S
C332 C335 1.461 . S
C332 H352 0.932 . S
C333 C331 1.408 . S
C333 C332 1.310 . S
C333 H353 0.930 . S
C334 C335 1.474 . S
C334 C336 1.285 . S
C334 H354 0.929 . S
C335 C332 1.461 . S
C335 C334 1.474 . S
C336 C331 1.342 . S
C336 C334 1.285 . S
C336 H355 0.930 . S
C337 C340 1.424 . S
C337 C342 1.245 . S
C337 C343 1.428 . S
C338 C341 1.260 . S
C338 C342 1.477 . S
C338 H356 0.932 . S
C339 C340 1.384 . S
C339 C341 1.479 . S
C339 H357 0.929 . S
C340 C337 1.424 . S
C340 C339 1.384 . S
C340 H358 0.928 . S
C341 C338 1.260 . S
C341 C339 1.479 . S
C342 C337 1.245 . S
C342 C338 1.477 . S
C342 H359 0.932 . S
C343 U326 2.882 . S
C343 C337 1.428 . S
C343 O346 1.301 . S
C343 O347 1.282 . S
O344 U326 2.441 . S
O344 C330 1.249 . S
O345 U326 2.420 . S
O345 C330 1.202 . S
O346 U326 2.455 . S
O346 C343 1.301 . S
O347 U326 2.449 . S
O347 C343 1.282 . S
H348 C321 0.931 . S
H349 C323 0.929 . S
H350 C324 0.930 . S
H351 C325 0.931 . S
H352 C332 0.932 . S
H353 C333 0.930 . S
H354 C334 0.929 . S
H355 C336 0.930 . S
H356 C338 0.932 . S
H357 C339 0.929 . S
H358 C340 0.928 . S
H359 C342 0.932 . S
C360 C361 1.264 . S
C360 C365 1.479 . S
C360 C370 1.465 . S
C361 C360 1.264 . S
C361 C363 1.339 . S
C361 H388 0.931 . S
C362 C363 1.395 . S
C362 C364 1.320 . S
C363 C361 1.339 . S
C363 C362 1.395 . S
C363 H389 0.929 . S
C364 C362 1.320 . S
C364 C365 1.405 . S
C364 H390 0.930 . S
C365 C360 1.479 . S
C365 C364 1.405 . S
C365 H391 0.931 . S
U366 O367 2.454 . S
U366 O368 2.458 . S
U366 C369 2.984 . S
U366 C370 2.847 . S
U366 C383 2.882 . S
U366 O384 2.441 . S
U366 O385 2.420 . S
U366 O386 2.455 . S
U366 O387 2.449 . S
O367 U366 2.454 . S
O367 C369 1.353 . S
O368 U366 2.458 . S
O368 C369 1.286 . S
C369 U366 2.984 . S
C369 O367 1.353 . S
C369 O368 1.286 . S
C369 C371 1.363 . S
C370 C360 1.465 . S
C370 U366 2.847 . S
C370 O384 1.249 . S
C370 O385 1.202 . S
C371 C369 1.363 . S
C371 C373 1.408 . S
C371 C376 1.342 . S
C372 C373 1.310 . S
C372 C375 1.461 . S
C372 H392 0.932 . S
C373 C371 1.408 . S
C373 C372 1.310 . S
C373 H393 0.930 . S
C374 C375 1.474 . S
C374 C376 1.285 . S
C374 H394 0.929 . S
C375 C372 1.461 . S
C375 C374 1.474 . S
C376 C371 1.342 . S
C376 C374 1.285 . S
C376 H395 0.930 . S
C377 C380 1.424 . S
C377 C382 1.245 . S
C377 C383 1.428 . S
C378 C381 1.260 . S
C378 C382 1.477 . S
C378 H396 0.932 . S
C379 C380 1.384 . S
C379 C381 1.479 . S
C379 H397 0.929 . S
C380 C377 1.424 . S
C380 C379 1.384 . S
C380 H398 0.928 . S
C381 C378 1.260 . S
C381 C379 1.479 . S
C382 C377 1.245 . S
C382 C378 1.477 . S
C382 H399 0.932 . S
C383 U366 2.882 . S
C383 C377 1.428 . S
C383 O386 1.301 . S
C383 O387 1.282 . S
O384 U366 2.441 . S
O384 C370 1.249 . S
O385 U366 2.420 . S
O385 C370 1.202 . S
O386 U366 2.455 . S
O386 C383 1.301 . S
O387 U366 2.449 . S
O387 C383 1.282 . S
H388 C361 0.931 . S
H389 C363 0.929 . S
H390 C364 0.930 . S
H391 C365 0.931 . S
H392 C372 0.932 . S
H393 C373 0.930 . S
H394 C374 0.929 . S
H395 C376 0.930 . S
H396 C378 0.932 . S
H397 C379 0.929 . S
H398 C380 0.928 . S
H399 C382 0.932 . S
C400 C401 1.264 . S
C400 C405 1.479 . S
C400 C410 1.465 . S
C401 C400 1.264 . S
C401 C403 1.339 . S
C401 H428 0.931 . S
C402 C403 1.395 . S
C402 C404 1.320 . S
C403 C401 1.339 . S
C403 C402 1.395 . S
C403 H429 0.929 . S
C404 C402 1.320 . S
C404 C405 1.405 . S
C404 H430 0.930 . S
C405 C400 1.479 . S
C405 C404 1.405 . S
C405 H431 0.931 . S
U406 O407 2.454 . S
U406 O408 2.458 . S
U406 C409 2.984 . S
U406 C410 2.847 . S
U406 C423 2.882 . S
U406 O424 2.441 . S
U406 O425 2.420 . S
U406 O426 2.455 . S
U406 O427 2.449 . S
O407 U406 2.454 . S
O407 C409 1.353 . S
O408 U406 2.458 . S
O408 C409 1.286 . S
C409 U406 2.984 . S
C409 O407 1.353 . S
C409 O408 1.286 . S
C409 C411 1.363 . S
C410 C400 1.465 . S
C410 U406 2.847 . S
C410 O424 1.249 . S
C410 O425 1.202 . S
C411 C409 1.363 . S
C411 C413 1.408 . S
C411 C416 1.342 . S
C412 C413 1.310 . S
C412 C415 1.461 . S
C412 H432 0.932 . S
C413 C411 1.408 . S
C413 C412 1.310 . S
C413 H433 0.930 . S
C414 C415 1.474 . S
C414 C416 1.285 . S
C414 H434 0.929 . S
C415 C412 1.461 . S
C415 C414 1.474 . S
C416 C411 1.342 . S
C416 C414 1.285 . S
C416 H435 0.930 . S
C417 C420 1.424 . S
C417 C422 1.245 . S
C417 C423 1.428 . S
C418 C421 1.260 . S
C418 C422 1.477 . S
C418 H436 0.932 . S
C419 C420 1.384 . S
C419 C421 1.479 . S
C419 H437 0.929 . S
C420 C417 1.424 . S
C420 C419 1.384 . S
C420 H438 0.928 . S
C421 C418 1.260 . S
C421 C419 1.479 . S
C422 C417 1.245 . S
C422 C418 1.477 . S
C422 H439 0.932 . S
C423 U406 2.882 . S
C423 C417 1.428 . S
C423 O426 1.301 . S
C423 O427 1.282 . S
O424 U406 2.441 . S
O424 C410 1.249 . S
O425 U406 2.420 . S
O425 C410 1.202 . S
O426 U406 2.455 . S
O426 C423 1.301 . S
O427 U406 2.449 . S
O427 C423 1.282 . S
H428 C401 0.931 . S
H429 C403 0.929 . S
H430 C404 0.930 . S
H431 C405 0.931 . S
H432 C412 0.932 . S
H433 C413 0.930 . S
H434 C414 0.929 . S
H435 C416 0.930 . S
H436 C418 0.932 . S
H437 C419 0.929 . S
H438 C420 0.928 . S
H439 C422 0.932 . S
C440 C441 1.264 . S
C440 C445 1.479 . S
C440 C450 1.465 . S
C441 C440 1.264 . S
C441 C443 1.339 . S
C441 H468 0.931 . S
C442 C443 1.395 . S
C442 C444 1.320 . S
C443 C441 1.339 . S
C443 C442 1.395 . S
C443 H469 0.929 . S
C444 C442 1.320 . S
C444 C445 1.405 . S
C444 H470 0.930 . S
C445 C440 1.479 . S
C445 C444 1.405 . S
C445 H471 0.931 . S
U446 O447 2.454 . S
U446 O448 2.458 . S
U446 C449 2.984 . S
U446 C450 2.847 . S
U446 C463 2.882 . S
U446 O464 2.441 . S
U446 O465 2.420 . S
U446 O466 2.455 . S
U446 O467 2.449 . S
O447 U446 2.454 . S
O447 C449 1.353 . S
O448 U446 2.458 . S
O448 C449 1.286 . S
C449 U446 2.984 . S
C449 O447 1.353 . S
C449 O448 1.286 . S
C449 C451 1.363 . S
C450 C440 1.465 . S
C450 U446 2.847 . S
C450 O464 1.249 . S
C450 O465 1.202 . S
C451 C449 1.363 . S
C451 C453 1.408 . S
C451 C456 1.342 . S
C452 C453 1.310 . S
C452 C455 1.461 . S
C452 H472 0.932 . S
C453 C451 1.408 . S
C453 C452 1.310 . S
C453 H473 0.930 . S
C454 C455 1.474 . S
C454 C456 1.285 . S
C454 H474 0.929 . S
C455 C452 1.461 . S
C455 C454 1.474 . S
C456 C451 1.342 . S
C456 C454 1.285 . S
C456 H475 0.930 . S
C457 C460 1.424 . S
C457 C462 1.245 . S
C457 C463 1.428 . S
C458 C461 1.260 . S
C458 C462 1.477 . S
C458 H476 0.932 . S
C459 C460 1.384 . S
C459 C461 1.479 . S
C459 H477 0.929 . S
C460 C457 1.424 . S
C460 C459 1.384 . S
C460 H478 0.928 . S
C461 C458 1.260 . S
C461 C459 1.479 . S
C462 C457 1.245 . S
C462 C458 1.477 . S
C462 H479 0.932 . S
C463 U446 2.882 . S
C463 C457 1.428 . S
C463 O466 1.301 . S
C463 O467 1.282 . S
O464 U446 2.441 . S
O464 C450 1.249 . S
O465 U446 2.420 . S
O465 C450 1.202 . S
O466 U446 2.455 . S
O466 C463 1.301 . S
O467 U446 2.449 . S
O467 C463 1.282 . S
H468 C441 0.931 . S
H469 C443 0.929 . S
H470 C444 0.930 . S
H471 C445 0.931 . S
H472 C452 0.932 . S
H473 C453 0.930 . S
H474 C454 0.929 . S
H475 C456 0.930 . S
H476 C458 0.932 . S
H477 C459 0.929 . S
H478 C460 0.928 . S
H479 C462 0.932 . S
C480 C481 1.264 . S
C480 C485 1.479 . S
C480 C490 1.465 . S
C481 C480 1.264 . S
C481 C483 1.339 . S
C481 H508 0.931 . S
C482 C483 1.395 . S
C482 C484 1.320 . S
C483 C481 1.339 . S
C483 C482 1.395 . S
C483 H509 0.929 . S
C484 C482 1.320 . S
C484 C485 1.405 . S
C484 H510 0.930 . S
C485 C480 1.479 . S
C485 C484 1.405 . S
C485 H511 0.931 . S
U486 O487 2.454 . S
U486 O488 2.458 . S
U486 C489 2.984 . S
U486 C490 2.847 . S
U486 C503 2.882 . S
U486 O504 2.441 . S
U486 O505 2.420 . S
U486 O506 2.455 . S
U486 O507 2.449 . S
O487 U486 2.454 . S
O487 C489 1.353 . S
O488 U486 2.458 . S
O488 C489 1.286 . S
C489 U486 2.984 . S
C489 O487 1.353 . S
C489 O488 1.286 . S
C489 C491 1.363 . S
C490 C480 1.465 . S
C490 U486 2.847 . S
C490 O504 1.249 . S
C490 O505 1.202 . S
C491 C489 1.363 . S
C491 C493 1.408 . S
C491 C496 1.342 . S
C492 C493 1.310 . S
C492 C495 1.461 . S
C492 H512 0.932 . S
C493 C491 1.408 . S
C493 C492 1.310 . S
C493 H513 0.930 . S
C494 C495 1.474 . S
C494 C496 1.285 . S
C494 H514 0.929 . S
C495 C492 1.461 . S
C495 C494 1.474 . S
C496 C491 1.342 . S
C496 C494 1.285 . S
C496 H515 0.930 . S
C497 C500 1.424 . S
C497 C502 1.245 . S
C497 C503 1.428 . S
C498 C501 1.260 . S
C498 C502 1.477 . S
C498 H516 0.932 . S
C499 C500 1.384 . S
C499 C501 1.479 . S
C499 H517 0.929 . S
C500 C497 1.424 . S
C500 C499 1.384 . S
C500 H518 0.928 . S
C501 C498 1.260 . S
C501 C499 1.479 . S
C502 C497 1.245 . S
C502 C498 1.477 . S
C502 H519 0.932 . S
C503 U486 2.882 . S
C503 C497 1.428 . S
C503 O506 1.301 . S
C503 O507 1.282 . S
O504 U486 2.441 . S
O504 C490 1.249 . S
O505 U486 2.420 . S
O505 C490 1.202 . S
O506 U486 2.455 . S
O506 C503 1.301 . S
O507 U486 2.449 . S
O507 C503 1.282 . S
H508 C481 0.931 . S
H509 C483 0.929 . S
H510 C484 0.930 . S
H511 C485 0.931 . S
H512 C492 0.932 . S
H513 C493 0.930 . S
H514 C494 0.929 . S
H515 C496 0.930 . S
H516 C498 0.932 . S
H517 C499 0.929 . S
H518 C500 0.928 . S
H519 C502 0.932 . S
C520 C521 1.264 . S
C520 C525 1.479 . S
C520 C530 1.465 . S
C521 C520 1.264 . S
C521 C523 1.339 . S
C521 H548 0.931 . S
C522 C523 1.395 . S
C522 C524 1.320 . S
C523 C521 1.339 . S
C523 C522 1.395 . S
C523 H549 0.929 . S
C524 C522 1.320 . S
C524 C525 1.405 . S
C524 H550 0.930 . S
C525 C520 1.479 . S
C525 C524 1.405 . S
C525 H551 0.931 . S
U526 O527 2.454 . S
U526 O528 2.458 . S
U526 C529 2.984 . S
U526 C530 2.847 . S
U526 C543 2.882 . S
U526 O544 2.441 . S
U526 O545 2.420 . S
U526 O546 2.455 . S
U526 O547 2.449 . S
O527 U526 2.454 . S
O527 C529 1.353 . S
O528 U526 2.458 . S
O528 C529 1.286 . S
C529 U526 2.984 . S
C529 O527 1.353 . S
C529 O528 1.286 . S
C529 C531 1.363 . S
C530 C520 1.465 . S
C530 U526 2.847 . S
C530 O544 1.249 . S
C530 O545 1.202 . S
C531 C529 1.363 . S
C531 C533 1.408 . S
C531 C536 1.342 . S
C532 C533 1.310 . S
C532 C535 1.461 . S
C532 H552 0.932 . S
C533 C531 1.408 . S
C533 C532 1.310 . S
C533 H553 0.930 . S
C534 C535 1.474 . S
C534 C536 1.285 . S
C534 H554 0.929 . S
C535 C532 1.461 . S
C535 C534 1.474 . S
C536 C531 1.342 . S
C536 C534 1.285 . S
C536 H555 0.930 . S
C537 C540 1.424 . S
C537 C542 1.245 . S
C537 C543 1.428 . S
C538 C541 1.260 . S
C538 C542 1.477 . S
C538 H556 0.932 . S
C539 C540 1.384 . S
C539 C541 1.479 . S
C539 H557 0.929 . S
C540 C537 1.424 . S
C540 C539 1.384 . S
C540 H558 0.928 . S
C541 C538 1.260 . S
C541 C539 1.479 . S
C542 C537 1.245 . S
C542 C538 1.477 . S
C542 H559 0.932 . S
C543 U526 2.882 . S
C543 C537 1.428 . S
C543 O546 1.301 . S
C543 O547 1.282 . S
O544 U526 2.441 . S
O544 C530 1.249 . S
O545 U526 2.420 . S
O545 C530 1.202 . S
O546 U526 2.455 . S
O546 C543 1.301 . S
O547 U526 2.449 . S
O547 C543 1.282 . S
H548 C521 0.931 . S
H549 C523 0.929 . S
H550 C524 0.930 . S
H551 C525 0.931 . S
H552 C532 0.932 . S
H553 C533 0.930 . S
H554 C534 0.929 . S
H555 C536 0.930 . S
H556 C538 0.932 . S
H557 C539 0.929 . S
H558 C540 0.928 . S
H559 C542 0.932 . S
C560 C561 1.264 . S
C560 C565 1.479 . S
C560 C570 1.465 . S
C561 C560 1.264 . S
C561 C563 1.339 . S
C561 H588 0.931 . S
C562 C563 1.395 . S
C562 C564 1.320 . S
C563 C561 1.339 . S
C563 C562 1.395 . S
C563 H589 0.929 . S
C564 C562 1.320 . S
C564 C565 1.405 . S
C564 H590 0.930 . S
C565 C560 1.479 . S
C565 C564 1.405 . S
C565 H591 0.931 . S
U566 O567 2.454 . S
U566 O568 2.458 . S
U566 C569 2.984 . S
U566 C570 2.847 . S
U566 C583 2.882 . S
U566 O584 2.441 . S
U566 O585 2.420 . S
U566 O586 2.455 . S
U566 O587 2.449 . S
O567 U566 2.454 . S
O567 C569 1.353 . S
O568 U566 2.458 . S
O568 C569 1.286 . S
C569 U566 2.984 . S
C569 O567 1.353 . S
C569 O568 1.286 . S
C569 C571 1.363 . S
C570 C560 1.465 . S
C570 U566 2.847 . S
C570 O584 1.249 . S
C570 O585 1.202 . S
C571 C569 1.363 . S
C571 C573 1.408 . S
C571 C576 1.342 . S
C572 C573 1.310 . S
C572 C575 1.461 . S
C572 H592 0.932 . S
C573 C571 1.408 . S
C573 C572 1.310 . S
C573 H593 0.930 . S
C574 C575 1.474 . S
C574 C576 1.285 . S
C574 H594 0.929 . S
C575 C572 1.461 . S
C575 C574 1.474 . S
C576 C571 1.342 . S
C576 C574 1.285 . S
C576 H595 0.930 . S
C577 C580 1.424 . S
C577 C582 1.245 . S
C577 C583 1.428 . S
C578 C581 1.260 . S
C578 C582 1.477 . S
C578 H596 0.932 . S
C579 C580 1.384 . S
C579 C581 1.479 . S
C579 H597 0.929 . S
C580 C577 1.424 . S
C580 C579 1.384 . S
C580 H598 0.928 . S
C581 C578 1.260 . S
C581 C579 1.479 . S
C582 C577 1.245 . S
C582 C578 1.477 . S
C582 H599 0.932 . S
C583 U566 2.882 . S
C583 C577 1.428 . S
C583 O586 1.301 . S
C583 O587 1.282 . S
O584 U566 2.441 . S
O584 C570 1.249 . S
O585 U566 2.420 . S
O585 C570 1.202 . S
O586 U566 2.455 . S
O586 C583 1.301 . S
O587 U566 2.449 . S
O587 C583 1.282 . S
H588 C561 0.931 . S
H589 C563 0.929 . S
H590 C564 0.930 . S
H591 C565 0.931 . S
H592 C572 0.932 . S
H593 C573 0.930 . S
H594 C574 0.929 . S
H595 C576 0.930 . S
H596 C578 0.932 . S
H597 C579 0.929 . S
H598 C580 0.928 . S
H599 C582 0.932 . S
C600 C601 1.264 . S
C600 C605 1.479 . S
C600 C610 1.465 . S
C601 C600 1.264 . S
C601 C603 1.339 . S
C601 H628 0.931 . S
C602 C603 1.395 . S
C602 C604 1.320 . S
C603 C601 1.339 . S
C603 C602 1.395 . S
C603 H629 0.929 . S
C604 C602 1.320 . S
C604 C605 1.405 . S
C604 H630 0.930 . S
C605 C600 1.479 . S
C605 C604 1.405 . S
C605 H631 0.931 . S
U606 O607 2.454 . S
U606 O608 2.458 . S
U606 C609 2.984 . S
U606 C610 2.847 . S
U606 C623 2.882 . S
U606 O624 2.441 . S
U606 O625 2.420 . S
U606 O626 2.455 . S
U606 O627 2.449 . S
O607 U606 2.454 . S
O607 C609 1.353 . S
O608 U606 2.458 . S
O608 C609 1.286 . S
C609 U606 2.984 . S
C609 O607 1.353 . S
C609 O608 1.286 . S
C609 C611 1.363 . S
C610 C600 1.465 . S
C610 U606 2.847 . S
C610 O624 1.249 . S
C610 O625 1.202 . S
C611 C609 1.363 . S
C611 C613 1.408 . S
C611 C616 1.342 . S
C612 C613 1.310 . S
C612 C615 1.461 . S
C612 H632 0.932 . S
C613 C611 1.408 . S
C613 C612 1.310 . S
C613 H633 0.930 . S
C614 C615 1.474 . S
C614 C616 1.285 . S
C614 H634 0.929 . S
C615 C612 1.461 . S
C615 C614 1.474 . S
C616 C611 1.342 . S
C616 C614 1.285 . S
C616 H635 0.930 . S
C617 C620 1.424 . S
C617 C622 1.245 . S
C617 C623 1.428 . S
C618 C621 1.260 . S
C618 C622 1.477 . S
C618 H636 0.932 . S
C619 C620 1.384 . S
C619 C621 1.479 . S
C619 H637 0.929 . S
C620 C617 1.424 . S
C620 C619 1.384 . S
C620 H638 0.928 . S
C621 C618 1.260 . S
C621 C619 1.479 . S
C622 C617 1.245 . S
C622 C618 1.477 . S
C622 H639 0.932 . S
C623 U606 2.882 . S
C623 C617 1.428 . S
C623 O626 1.301 . S
C623 O627 1.282 . S
O624 U606 2.441 . S
O624 C610 1.249 . S
O625 U606 2.420 . S
O625 C610 1.202 . S
O626 U606 2.455 . S
O626 C623 1.301 . S
O627 U606 2.449 . S
O627 C623 1.282 . S
H628 C601 0.931 . S
H629 C603 0.929 . S
H630 C604 0.930 . S
H631 C605 0.931 . S
H632 C612 0.932 . S
H633 C613 0.930 . S
H634 C614 0.929 . S
H635 C616 0.930 . S
H636 C618 0.932 . S
H637 C619 0.929 . S
H638 C620 0.928 . S
H639 C622 0.932 . S
C640 C641 1.264 . S
C640 C645 1.479 . S
C640 C650 1.465 . S
C641 C640 1.264 . S
C641 C643 1.339 . S
C641 H668 0.931 . S
C642 C643 1.395 . S
C642 C644 1.320 . S
C643 C641 1.339 . S
C643 C642 1.395 . S
C643 H669 0.929 . S
C644 C642 1.320 . S
C644 C645 1.405 . S
C644 H670 0.930 . S
C645 C640 1.479 . S
C645 C644 1.405 . S
C645 H671 0.931 . S
U646 O647 2.454 . S
U646 O648 2.458 . S
U646 C649 2.984 . S
U646 C650 2.847 . S
U646 C663 2.882 . S
U646 O664 2.441 . S
U646 O665 2.420 . S
U646 O666 2.455 . S
U646 O667 2.449 . S
O647 U646 2.454 . S
O647 C649 1.353 . S
O648 U646 2.458 . S
O648 C649 1.286 . S
C649 U646 2.984 . S
C649 O647 1.353 . S
C649 O648 1.286 . S
C649 C651 1.363 . S
C650 C640 1.465 . S
C650 U646 2.847 . S
C650 O664 1.249 . S
C650 O665 1.202 . S
C651 C649 1.363 . S
C651 C653 1.408 . S
C651 C656 1.342 . S
C652 C653 1.310 . S
C652 C655 1.461 . S
C652 H672 0.932 . S
C653 C651 1.408 . S
C653 C652 1.310 . S
C653 H673 0.930 . S
C654 C655 1.474 . S
C654 C656 1.285 . S
C654 H674 0.929 . S
C655 C652 1.461 . S
C655 C654 1.474 . S
C656 C651 1.342 . S
C656 C654 1.285 . S
C656 H675 0.930 . S
C657 C660 1.424 . S
C657 C662 1.245 . S
C657 C663 1.428 . S
C658 C661 1.260 . S
C658 C662 1.477 . S
C658 H676 0.932 . S
C659 C660 1.384 . S
C659 C661 1.479 . S
C659 H677 0.929 . S
C660 C657 1.424 . S
C660 C659 1.384 . S
C660 H678 0.928 . S
C661 C658 1.260 . S
C661 C659 1.479 . S
C662 C657 1.245 . S
C662 C658 1.477 . S
C662 H679 0.932 . S
C663 U646 2.882 . S
C663 C657 1.428 . S
C663 O666 1.301 . S
C663 O667 1.282 . S
O664 U646 2.441 . S
O664 C650 1.249 . S
O665 U646 2.420 . S
O665 C650 1.202 . S
O666 U646 2.455 . S
O666 C663 1.301 . S
O667 U646 2.449 . S
O667 C663 1.282 . S
H668 C641 0.931 . S
H669 C643 0.929 . S
H670 C644 0.930 . S
H671 C645 0.931 . S
H672 C652 0.932 . S
H673 C653 0.930 . S
H674 C654 0.929 . S
H675 C656 0.930 . S
H676 C658 0.932 . S
H677 C659 0.929 . S
H678 C660 0.928 . S
H679 C662 0.932 . S
C680 C681 1.264 . S
C680 C685 1.479 . S
C680 C690 1.465 . S
C681 C680 1.264 . S
C681 C683 1.339 . S
C681 H708 0.931 . S
C682 C683 1.395 . S
C682 C684 1.320 . S
C683 C681 1.339 . S
C683 C682 1.395 . S
C683 H709 0.929 . S
C684 C682 1.320 . S
C684 C685 1.405 . S
C684 H710 0.930 . S
C685 C680 1.479 . S
C685 C684 1.405 . S
C685 H711 0.931 . S
U686 O687 2.454 . S
U686 O688 2.458 . S
U686 C689 2.984 . S
U686 C690 2.847 . S
U686 C703 2.882 . S
U686 O704 2.441 . S
U686 O705 2.420 . S
U686 O706 2.455 . S
U686 O707 2.449 . S
O687 U686 2.454 . S
O687 C689 1.353 . S
O688 U686 2.458 . S
O688 C689 1.286 . S
C689 U686 2.984 . S
C689 O687 1.353 . S
C689 O688 1.286 . S
C689 C691 1.363 . S
C690 C680 1.465 . S
C690 U686 2.847 . S
C690 O704 1.249 . S
C690 O705 1.202 . S
C691 C689 1.363 . S
C691 C693 1.408 . S
C691 C696 1.342 . S
C692 C693 1.310 . S
C692 C695 1.461 . S
C692 H712 0.932 . S
C693 C691 1.408 . S
C693 C692 1.310 . S
C693 H713 0.930 . S
C694 C695 1.474 . S
C694 C696 1.285 . S
C694 H714 0.929 . S
C695 C692 1.461 . S
C695 C694 1.474 . S
C696 C691 1.342 . S
C696 C694 1.285 . S
C696 H715 0.930 . S
C697 C700 1.424 . S
C697 C702 1.245 . S
C697 C703 1.428 . S
C698 C701 1.260 . S
C698 C702 1.477 . S
C698 H716 0.932 . S
C699 C700 1.384 . S
C699 C701 1.479 . S
C699 H717 0.929 . S
C700 C697 1.424 . S
C700 C699 1.384 . S
C700 H718 0.928 . S
C701 C698 1.260 . S
C701 C699 1.479 . S
C702 C697 1.245 . S
C702 C698 1.477 . S
C702 H719 0.932 . S
C703 U686 2.882 . S
C703 C697 1.428 . S
C703 O706 1.301 . S
C703 O707 1.282 . S
O704 U686 2.441 . S
O704 C690 1.249 . S
O705 U686 2.420 . S
O705 C690 1.202 . S
O706 U686 2.455 . S
O706 C703 1.301 . S
O707 U686 2.449 . S
O707 C703 1.282 . S
H708 C681 0.931 . S
H709 C683 0.929 . S
H710 C684 0.930 . S
H711 C685 0.931 . S
H712 C692 0.932 . S
H713 C693 0.930 . S
H714 C694 0.929 . S
H715 C696 0.930 . S
H716 C698 0.932 . S
H717 C699 0.929 . S
H718 C700 0.928 . S
H719 C702 0.932 . S
C720 C721 1.264 . S
C720 C725 1.479 . S
C720 C730 1.465 . S
C721 C720 1.264 . S
C721 C723 1.339 . S
C721 H748 0.931 . S
C722 C723 1.395 . S
C722 C724 1.320 . S
C723 C721 1.339 . S
C723 C722 1.395 . S
C723 H749 0.929 . S
C724 C722 1.320 . S
C724 C725 1.405 . S
C724 H750 0.930 . S
C725 C720 1.479 . S
C725 C724 1.405 . S
C725 H751 0.931 . S
U726 O727 2.454 . S
U726 O728 2.458 . S
U726 C729 2.984 . S
U726 C730 2.847 . S
U726 C743 2.882 . S
U726 O744 2.441 . S
U726 O745 2.420 . S
U726 O746 2.455 . S
U726 O747 2.449 . S
O727 U726 2.454 . S
O727 C729 1.353 . S
O728 U726 2.458 . S
O728 C729 1.286 . S
C729 U726 2.984 . S
C729 O727 1.353 . S
C729 O728 1.286 . S
C729 C731 1.363 . S
C730 C720 1.465 . S
C730 U726 2.847 . S
C730 O744 1.249 . S
C730 O745 1.202 . S
C731 C729 1.363 . S
C731 C733 1.408 . S
C731 C736 1.342 . S
C732 C733 1.310 . S
C732 C735 1.461 . S
C732 H752 0.932 . S
C733 C731 1.408 . S
C733 C732 1.310 . S
C733 H753 0.930 . S
C734 C735 1.474 . S
C734 C736 1.285 . S
C734 H754 0.929 . S
C735 C732 1.461 . S
C735 C734 1.474 . S
C736 C731 1.342 . S
C736 C734 1.285 . S
C736 H755 0.930 . S
C737 C740 1.424 . S
C737 C742 1.245 . S
C737 C743 1.428 . S
C738 C741 1.260 . S
C738 C742 1.477 . S
C738 H756 0.932 . S
C739 C740 1.384 . S
C739 C741 1.479 . S
C739 H757 0.929 . S
C740 C737 1.424 . S
C740 C739 1.384 . S
C740 H758 0.928 . S
C741 C738 1.260 . S
C741 C739 1.479 . S
C742 C737 1.245 . S
C742 C738 1.477 . S
C742 H759 0.932 . S
C743 U726 2.882 . S
C743 C737 1.428 . S
C743 O746 1.301 . S
C743 O747 1.282 . S
O744 U726 2.441 . S
O744 C730 1.249 . S
O745 U726 2.420 . S
O745 C730 1.202 . S
O746 U726 2.455 . S
O746 C743 1.301 . S
O747 U726 2.449 . S
O747 C743 1.282 . S
H748 C721 0.931 . S
H749 C723 0.929 . S
H750 C724 0.930 . S
H751 C725 0.931 . S
H752 C732 0.932 . S
H753 C733 0.930 . S
H754 C734 0.929 . S
H755 C736 0.930 . S
H756 C738 0.932 . S
H757 C739 0.929 . S
H758 C740 0.928 . S
H759 C742 0.932 . S
C760 C761 1.264 . S
C760 C765 1.479 . S
C760 C770 1.465 . S
C761 C760 1.264 . S
C761 C763 1.339 . S
C761 H788 0.931 . S
C762 C763 1.395 . S
C762 C764 1.320 . S
C763 C761 1.339 . S
C763 C762 1.395 . S
C763 H789 0.929 . S
C764 C762 1.320 . S
C764 C765 1.405 . S
C764 H790 0.930 . S
C765 C760 1.479 . S
C765 C764 1.405 . S
C765 H791 0.931 . S
U766 O767 2.454 . S
U766 O768 2.458 . S
U766 C769 2.984 . S
U766 C770 2.847 . S
U766 C783 2.882 . S
U766 O784 2.441 . S
U766 O785 2.420 . S
U766 O786 2.455 . S
U766 O787 2.449 . S
O767 U766 2.454 . S
O767 C769 1.353 . S
O768 U766 2.458 . S
O768 C769 1.286 . S
C769 U766 2.984 . S
C769 O767 1.353 . S
C769 O768 1.286 . S
C769 C771 1.363 . S
C770 C760 1.465 . S
C770 U766 2.847 . S
C770 O784 1.249 . S
C770 O785 1.202 . S
C771 C769 1.363 . S
C771 C773 1.408 . S
C771 C776 1.342 . S
C772 C773 1.310 . S
C772 C775 1.461 . S
C772 H792 0.932 . S
C773 C771 1.408 . S
C773 C772 1.310 . S
C773 H793 0.930 . S
C774 C775 1.474 . S
C774 C776 1.285 . S
C774 H794 0.929 . S
C775 C772 1.461 . S
C775 C774 1.474 . S
C776 C771 1.342 . S
C776 C774 1.285 . S
C776 H795 0.930 . S
C777 C780 1.424 . S
C777 C782 1.245 . S
C777 C783 1.428 . S
C778 C781 1.260 . S
C778 C782 1.477 . S
C778 H796 0.932 . S
C779 C780 1.384 . S
C779 C781 1.479 . S
C779 H797 0.929 . S
C780 C777 1.424 . S
C780 C779 1.384 . S
C780 H798 0.928 . S
C781 C778 1.260 . S
C781 C779 1.479 . S
C782 C777 1.245 . S
C782 C778 1.477 . S
C782 H799 0.932 . S
C783 U766 2.882 . S
C783 C777 1.428 . S
C783 O786 1.301 . S
C783 O787 1.282 . S
O784 U766 2.441 . S
O784 C770 1.249 . S
O785 U766 2.420 . S
O785 C770 1.202 . S
O786 U766 2.455 . S
O786 C783 1.301 . S
O787 U766 2.449 . S
O787 C783 1.282 . S
H788 C761 0.931 . S
H789 C763 0.929 . S
H790 C764 0.930 . S
H791 C765 0.931 . S
H792 C772 0.932 . S
H793 C773 0.930 . S
H794 C774 0.929 . S
H795 C776 0.930 . S
H796 C778 0.932 . S
H797 C779 0.929 . S
H798 C780 0.928 . S
H799 C782 0.932 . S
C800 C801 1.264 . S
C800 C805 1.479 . S
C800 C810 1.465 . S
C801 C800 1.264 . S
C801 C803 1.339 . S
C801 H828 0.931 . S
C802 C803 1.395 . S
C802 C804 1.320 . S
C803 C801 1.339 . S
C803 C802 1.395 . S
C803 H829 0.929 . S
C804 C802 1.320 . S
C804 C805 1.405 . S
C804 H830 0.930 . S
C805 C800 1.479 . S
C805 C804 1.405 . S
C805 H831 0.931 . S
U806 O807 2.454 . S
U806 O808 2.458 . S
U806 C809 2.984 . S
U806 C810 2.847 . S
U806 C823 2.882 . S
U806 O824 2.441 . S
U806 O825 2.420 . S
U806 O826 2.455 . S
U806 O827 2.449 . S
O807 U806 2.454 . S
O807 C809 1.353 . S
O808 U806 2.458 . S
O808 C809 1.286 . S
C809 U806 2.984 . S
C809 O807 1.353 . S
C809 O808 1.286 . S
C809 C811 1.363 . S
C810 C800 1.465 . S
C810 U806 2.847 . S
C810 O824 1.249 . S
C810 O825 1.202 . S
C811 C809 1.363 . S
C811 C813 1.408 . S
C811 C816 1.342 . S
C812 C813 1.310 . S
C812 C815 1.461 . S
C812 H832 0.932 . S
C813 C811 1.408 . S
C813 C812 1.310 . S
C813 H833 0.930 . S
C814 C815 1.474 . S
C814 C816 1.285 . S
C814 H834 0.929 . S
C815 C812 1.461 . S
C815 C814 1.474 . S
C816 C811 1.342 . S
C816 C814 1.285 . S
C816 H835 0.930 . S
C817 C820 1.424 . S
C817 C822 1.245 . S
C817 C823 1.428 . S
C818 C821 1.260 . S
C818 C822 1.477 . S
C818 H836 0.932 . S
C819 C820 1.384 . S
C819 C821 1.479 . S
C819 H837 0.929 . S
C820 C817 1.424 . S
C820 C819 1.384 . S
C820 H838 0.928 . S
C821 C818 1.260 . S
C821 C819 1.479 . S
C822 C817 1.245 . S
C822 C818 1.477 . S
C822 H839 0.932 . S
C823 U806 2.882 . S
C823 C817 1.428 . S
C823 O826 1.301 . S
C823 O827 1.282 . S
O824 U806 2.441 . S
O824 C810 1.249 . S
O825 U806 2.420 . S
O825 C810 1.202 . S
O826 U806 2.455 . S
O826 C823 1.301 . S
O827 U806 2.449 . S
O827 C823 1.282 . S
H828 C801 0.931 . S
H829 C803 0.929 . S
H830 C804 0.930 . S
H831 C805 0.931 . S
H832 C812 0.932 . S
H833 C813 0.930 . S
H834 C814 0.929 . S
H835 C816 0.930 . S
H836 C818 0.932 . S
H837 C819 0.929 . S
H838 C820 0.928 . S
H839 C822 0.932 . S
C840 C841 1.264 . S
C840 C845 1.479 . S
C840 C850 1.465 . S
C841 C840 1.264 . S
C841 C843 1.339 . S
C841 H868 0.931 . S
C842 C843 1.395 . S
C842 C844 1.320 . S
C843 C841 1.339 . S
C843 C842 1.395 . S
C843 H869 0.929 . S
C844 C842 1.320 . S
C844 C845 1.405 . S
C844 H870 0.930 . S
C845 C840 1.479 . S
C845 C844 1.405 . S
C845 H871 0.931 . S
U846 O847 2.454 . S
U846 O848 2.458 . S
U846 C849 2.984 . S
U846 C850 2.847 . S
U846 C863 2.882 . S
U846 O864 2.441 . S
U846 O865 2.420 . S
U846 O866 2.455 . S
U846 O867 2.449 . S
O847 U846 2.454 . S
O847 C849 1.353 . S
O848 U846 2.458 . S
O848 C849 1.286 . S
C849 U846 2.984 . S
C849 O847 1.353 . S
C849 O848 1.286 . S
C849 C851 1.363 . S
C850 C840 1.465 . S
C850 U846 2.847 . S
C850 O864 1.249 . S
C850 O865 1.202 . S
C851 C849 1.363 . S
C851 C853 1.408 . S
C851 C856 1.342 . S
C852 C853 1.310 . S
C852 C855 1.461 . S
C852 H872 0.932 . S
C853 C851 1.408 . S
C853 C852 1.310 . S
C853 H873 0.930 . S
C854 C855 1.474 . S
C854 C856 1.285 . S
C854 H874 0.929 . S
C855 C852 1.461 . S
C855 C854 1.474 . S
C856 C851 1.342 . S
C856 C854 1.285 . S
C856 H875 0.930 . S
C857 C860 1.424 . S
C857 C862 1.245 . S
C857 C863 1.428 . S
C858 C861 1.260 . S
C858 C862 1.477 . S
C858 H876 0.932 . S
C859 C860 1.384 . S
C859 C861 1.479 . S
C859 H877 0.929 . S
C860 C857 1.424 . S
C860 C859 1.384 . S
C860 H878 0.928 . S
C861 C858 1.260 . S
C861 C859 1.479 . S
C862 C857 1.245 . S
C862 C858 1.477 . S
C862 H879 0.932 . S
C863 U846 2.882 . S
C863 C857 1.428 . S
C863 O866 1.301 . S
C863 O867 1.282 . S
O864 U846 2.441 . S
O864 C850 1.249 . S
O865 U846 2.420 . S
O865 C850 1.202 . S
O866 U846 2.455 . S
O866 C863 1.301 . S
O867 U846 2.449 . S
O867 C863 1.282 . S
H868 C841 0.931 . S
H869 C843 0.929 . S
H870 C844 0.930 . S
H871 C845 0.931 . S
H872 C852 0.932 . S
H873 C853 0.930 . S
H874 C854 0.929 . S
H875 C856 0.930 . S
H876 C858 0.932 . S
H877 C859 0.929 . S
H878 C860 0.928 . S
H879 C862 0.932 . S
C880 C881 1.264 . S
C880 C885 1.479 . S
C880 C890 1.465 . S
C881 C880 1.264 . S
C881 C883 1.339 . S
C881 H908 0.931 . S
C882 C883 1.395 . S
C882 C884 1.320 . S
C883 C881 1.339 . S
C883 C882 1.395 . S
C883 H909 0.929 . S
C884 C882 1.320 . S
C884 C885 1.405 . S
C884 H910 0.930 . S
C885 C880 1.479 . S
C885 C884 1.405 . S
C885 H911 0.931 . S
U886 O887 2.454 . S
U886 O888 2.458 . S
U886 C889 2.984 . S
U886 C890 2.847 . S
U886 C903 2.882 . S
U886 O904 2.441 . S
U886 O905 2.420 . S
U886 O906 2.455 . S
U886 O907 2.449 . S
O887 U886 2.454 . S
O887 C889 1.353 . S
O888 U886 2.458 . S
O888 C889 1.286 . S
C889 U886 2.984 . S
C889 O887 1.353 . S
C889 O888 1.286 . S
C889 C891 1.363 . S
C890 C880 1.465 . S
C890 U886 2.847 . S
C890 O904 1.249 . S
C890 O905 1.202 . S
C891 C889 1.363 . S
C891 C893 1.408 . S
C891 C896 1.342 . S
C892 C893 1.310 . S
C892 C895 1.461 . S
C892 H912 0.932 . S
C893 C891 1.408 . S
C893 C892 1.310 . S
C893 H913 0.930 . S
C894 C895 1.474 . S
C894 C896 1.285 . S
C894 H914 0.929 . S
C895 C892 1.461 . S
C895 C894 1.474 . S
C896 C891 1.342 . S
C896 C894 1.285 . S
C896 H915 0.930 . S
C897 C900 1.424 . S
C897 C902 1.245 . S
C897 C903 1.428 . S
C898 C901 1.260 . S
C898 C902 1.477 . S
C898 H916 0.932 . S
C899 C900 1.384 . S
C899 C901 1.479 . S
C899 H917 0.929 . S
C900 C897 1.424 . S
C900 C899 1.384 . S
C900 H918 0.928 . S
C901 C898 1.260 . S
C901 C899 1.479 . S
C902 C897 1.245 . S
C902 C898 1.477 . S
C902 H919 0.932 . S
C903 U886 2.882 . S
C903 C897 1.428 . S
C903 O906 1.301 . S
C903 O907 1.282 . S
O904 U886 2.441 . S
O904 C890 1.249 . S
O905 U886 2.420 . S
O905 C890 1.202 . S
O906 U886 2.455 . S
O906 C903 1.301 . S
O907 U886 2.449 . S
O907 C903 1.282 . S
H908 C881 0.931 . S
H909 C883 0.929 . S
H910 C884 0.930 . S
H911 C885 0.931 . S
H912 C892 0.932 . S
H913 C893 0.930 . S
H914 C894 0.929 . S
H915 C896 0.930 . S
H916 C898 0.932 . S
H917 C899 0.929 . S
H918 C900 0.928 . S
H919 C902 0.932 . S
C920 C921 1.264 . S
C920 C925 1.479 . S
C920 C930 1.465 . S
C921 C920 1.264 . S
C921 C923 1.339 . S
C921 H948 0.931 . S
C922 C923 1.395 . S
C922 C924 1.320 . S
C923 C921 1.339 . S
C923 C922 1.395 . S
C923 H949 0.929 . S
C924 C922 1.320 . S
C924 C925 1.405 . S
C924 H950 0.930 . S
C925 C920 1.479 . S
C925 C924 1.405 . S
C925 H951 0.931 . S
U926 O927 2.454 . S
U926 O928 2.458 . S
U926 C929 2.984 . S
U926 C930 2.847 . S
U926 C943 2.882 . S
U926 O944 2.441 . S
U926 O945 2.420 . S
U926 O946 2.455 . S
U926 O947 2.449 . S
O927 U926 2.454 . S
O927 C929 1.353 . S
O928 U926 2.458 . S
O928 C929 1.286 . S
C929 U926 2.984 . S
C929 O927 1.353 . S
C929 O928 1.286 . S
C929 C931 1.363 . S
C930 C920 1.465 . S
C930 U926 2.847 . S
C930 O944 1.249 . S
C930 O945 1.202 . S
C931 C929 1.363 . S
C931 C933 1.408 . S
C931 C936 1.342 . S
C932 C933 1.310 . S
C932 C935 1.461 . S
C932 H952 0.932 . S
C933 C931 1.408 . S
C933 C932 1.310 . S
C933 H953 0.930 . S
C934 C935 1.474 . S
C934 C936 1.285 . S
C934 H954 0.929 . S
C935 C932 1.461 . S
C935 C934 1.474 . S
C936 C931 1.342 . S
C936 C934 1.285 . S
C936 H955 0.930 . S
C937 C940 1.424 . S
C937 C942 1.245 . S
C937 C943 1.428 . S
C938 C941 1.260 . S
C938 C942 1.477 . S
C938 H956 0.932 . S
C939 C940 1.384 . S
C939 C941 1.479 . S
C939 H957 0.929 . S
C940 C937 1.424 . S
C940 C939 1.384 . S
C940 H958 0.928 . S
C941 C938 1.260 . S
C941 C939 1.479 . S
C942 C937 1.245 . S
C942 C938 1.477 . S
C942 H959 0.932 . S
C943 U926 2.882 . S
C943 C937 1.428 . S
C943 O946 1.301 . S
C943 O947 1.282 . S
O944 U926 2.441 . S
O944 C930 1.249 . S
O945 U926 2.420 . S
O945 C930 1.202 . S
O946 U926 2.455 . S
O946 C943 1.301 . S
O947 U926 2.449 . S
O947 C943 1.282 . S
H948 C921 0.931 . S
H949 C923 0.929 . S
H950 C924 0.930 . S
H951 C925 0.931 . S
H952 C932 0.932 . S
H953 C933 0.930 . S
H954 C934 0.929 . S
H955 C936 0.930 . S
H956 C938 0.932 . S
H957 C939 0.929 . S
H958 C940 0.928 . S
H959 C942 0.932 . S
C960 C961 1.264 . S
C960 C965 1.479 . S
C960 C970 1.465 . S
C961 C960 1.264 . S
C961 C963 1.339 . S
C961 H988 0.931 . S
C962 C963 1.395 . S
C962 C964 1.320 . S
C963 C961 1.339 . S
C963 C962 1.395 . S
C963 H989 0.929 . S
C964 C962 1.320 . S
C964 C965 1.405 . S
C964 H990 0.930 . S
C965 C960 1.479 . S
C965 C964 1.405 . S
C965 H991 0.931 . S
U966 O967 2.454 . S
U966 O968 2.458 . S
U966 C969 2.984 . S
U966 C970 2.847 . S
U966 C983 2.882 . S
U966 O984 2.441 . S
U966 O985 2.420 . S
U966 O986 2.455 . S
U966 O987 2.449 . S
O967 U966 2.454 . S
O967 C969 1.353 . S
O968 U966 2.458 . S
O968 C969 1.286 . S
C969 U966 2.984 . S
C969 O967 1.353 . S
C969 O968 1.286 . S
C969 C971 1.363 . S
C970 C960 1.465 . S
C970 U966 2.847 . S
C970 O984 1.249 . S
C970 O985 1.202 . S
C971 C969 1.363 . S
C971 C973 1.408 . S
C971 C976 1.342 . S
C972 C973 1.310 . S
C972 C975 1.461 . S
C972 H992 0.932 . S
C973 C971 1.408 . S
C973 C972 1.310 . S
C973 H993 0.930 . S
C974 C975 1.474 . S
C974 C976 1.285 . S
C974 H994 0.929 . S
C975 C972 1.461 . S
C975 C974 1.474 . S
C976 C971 1.342 . S
C976 C974 1.285 . S
C976 H995 0.930 . S
C977 C980 1.424 . S
C977 C982 1.245 . S
C977 C983 1.428 . S
C978 C981 1.260 . S
C978 C982 1.477 . S
C978 H996 0.932 . S
C979 C980 1.384 . S
C979 C981 1.479 . S
C979 H997 0.929 . S
C980 C977 1.424 . S
C980 C979 1.384 . S
C980 H998 0.928 . S
C981 C978 1.260 . S
C981 C979 1.479 . S
C982 C977 1.245 . S
C982 C978 1.477 . S
C982 H999 0.932 . S
C983 U966 2.882 . S
C983 C977 1.428 . S
C983 O986 1.301 . S
C983 O987 1.282 . S
O984 U966 2.441 . S
O984 C970 1.249 . S
O985 U966 2.420 . S
O985 C970 1.202 . S
O986 U966 2.455 . S
O986 C983 1.301 . S
O987 U966 2.449 . S
O987 C983 1.282 . S
H988 C961 0.931 . S
H989 C963 0.929 . S
H990 C964 0.930 . S
H991 C965 0.931 . S
H992 C972 0.932 . S
H993 C973 0.930 . S
H994 C974 0.929 . S
H995 C976 0.930 . S
H996 C978 0.932 . S
H997 C979 0.929 . S
H998 C980 0.928 . S
H999 C982 0.932 . S
C1000 C1001 1.264 . S
C1000 C1005 1.479 . S
C1000 C1010 1.465 . S
C1001 C1000 1.264 . S
C1001 C1003 1.339 . S
C1001 H1028 0.931 . S
C1002 C1003 1.395 . S
C1002 C1004 1.320 . S
C1003 C1001 1.339 . S
C1003 C1002 1.395 . S
C1003 H1029 0.929 . S
C1004 C1002 1.320 . S
C1004 C1005 1.405 . S
C1004 H1030 0.930 . S
C1005 C1000 1.479 . S
C1005 C1004 1.405 . S
C1005 H1031 0.931 . S
U1006 O1007 2.454 . S
U1006 O1008 2.458 . S
U1006 C1009 2.984 . S
U1006 C1010 2.847 . S
U1006 C1023 2.882 . S
U1006 O1024 2.441 . S
U1006 O1025 2.420 . S
U1006 O1026 2.455 . S
U1006 O1027 2.449 . S
O1007 U1006 2.454 . S
O1007 C1009 1.353 . S
O1008 U1006 2.458 . S
O1008 C1009 1.286 . S
C1009 U1006 2.984 . S
C1009 O1007 1.353 . S
C1009 O1008 1.286 . S
C1009 C1011 1.363 . S
C1010 C1000 1.465 . S
C1010 U1006 2.847 . S
C1010 O1024 1.249 . S
C1010 O1025 1.202 . S
C1011 C1009 1.363 . S
C1011 C1013 1.408 . S
C1011 C1016 1.342 . S
C1012 C1013 1.310 . S
C1012 C1015 1.461 . S
C1012 H1032 0.932 . S
C1013 C1011 1.408 . S
C1013 C1012 1.310 . S
C1013 H1033 0.930 . S
C1014 C1015 1.474 . S
C1014 C1016 1.285 . S
C1014 H1034 0.929 . S
C1015 C1012 1.461 . S
C1015 C1014 1.474 . S
C1016 C1011 1.342 . S
C1016 C1014 1.285 . S
C1016 H1035 0.930 . S
C1017 C1020 1.424 . S
C1017 C1022 1.245 . S
C1017 C1023 1.428 . S
C1018 C1021 1.260 . S
C1018 C1022 1.477 . S
C1018 H1036 0.932 . S
C1019 C1020 1.384 . S
C1019 C1021 1.479 . S
C1019 H1037 0.929 . S
C1020 C1017 1.424 . S
C1020 C1019 1.384 . S
C1020 H1038 0.928 . S
C1021 C1018 1.260 . S
C1021 C1019 1.479 . S
C1022 C1017 1.245 . S
C1022 C1018 1.477 . S
C1022 H1039 0.932 . S
C1023 U1006 2.882 . S
C1023 C1017 1.428 . S
C1023 O1026 1.301 . S
C1023 O1027 1.282 . S
O1024 U1006 2.441 . S
O1024 C1010 1.249 . S
O1025 U1006 2.420 . S
O1025 C1010 1.202 . S
O1026 U1006 2.455 . S
O1026 C1023 1.301 . S
O1027 U1006 2.449 . S
O1027 C1023 1.282 . S
H1028 C1001 0.931 . S
H1029 C1003 0.929 . S
H1030 C1004 0.930 . S
H1031 C1005 0.931 . S
H1032 C1012 0.932 . S
H1033 C1013 0.930 . S
H1034 C1014 0.929 . S
H1035 C1016 0.930 . S
H1036 C1018 0.932 . S
H1037 C1019 0.929 . S
H1038 C1020 0.928 . S
H1039 C1022 0.932 . S
C1040 C1041 1.264 . S
C1040 C1045 1.479 . S
C1040 C1050 1.465 . S
C1041 C1040 1.264 . S
C1041 C1043 1.339 . S
C1041 H1068 0.931 . S
C1042 C1043 1.395 . S
C1042 C1044 1.320 . S
C1043 C1041 1.339 . S
C1043 C1042 1.395 . S
C1043 H1069 0.929 . S
C1044 C1042 1.320 . S
C1044 C1045 1.405 . S
C1044 H1070 0.930 . S
C1045 C1040 1.479 . S
C1045 C1044 1.405 . S
C1045 H1071 0.931 . S
U1046 O1047 2.454 . S
U1046 O1048 2.458 . S
U1046 C1049 2.984 . S
U1046 C1050 2.847 . S
U1046 C1063 2.882 . S
U1046 O1064 2.441 . S
U1046 O1065 2.420 . S
U1046 O1066 2.455 . S
U1046 O1067 2.449 . S
O1047 U1046 2.454 . S
O1047 C1049 1.353 . S
O1048 U1046 2.458 . S
O1048 C1049 1.286 . S
C1049 U1046 2.984 . S
C1049 O1047 1.353 . S
C1049 O1048 1.286 . S
C1049 C1051 1.363 . S
C1050 C1040 1.465 . S
C1050 U1046 2.847 . S
C1050 O1064 1.249 . S
C1050 O1065 1.202 . S
C1051 C1049 1.363 . S
C1051 C1053 1.408 . S
C1051 C1056 1.342 . S
C1052 C1053 1.310 . S
C1052 C1055 1.461 . S
C1052 H1072 0.932 . S
C1053 C1051 1.408 . S
C1053 C1052 1.310 . S
C1053 H1073 0.930 . S
C1054 C1055 1.474 . S
C1054 C1056 1.285 . S
C1054 H1074 0.929 . S
C1055 C1052 1.461 . S
C1055 C1054 1.474 . S
C1056 C1051 1.342 . S
C1056 C1054 1.285 . S
C1056 H1075 0.930 . S
C1057 C1060 1.424 . S
C1057 C1062 1.245 . S
C1057 C1063 1.428 . S
C1058 C1061 1.260 . S
C1058 C1062 1.477 . S
C1058 H1076 0.932 . S
C1059 C1060 1.384 . S
C1059 C1061 1.479 . S
C1059 H1077 0.929 . S
C1060 C1057 1.424 . S
C1060 C1059 1.384 . S
C1060 H1078 0.928 . S
C1061 C1058 1.260 . S
C1061 C1059 1.479 . S
C1062 C1057 1.245 . S
C1062 C1058 1.477 . S
C1062 H1079 0.932 . S
C1063 U1046 2.882 . S
C1063 C1057 1.428 . S
C1063 O1066 1.301 . S
C1063 O1067 1.282 . S
O1064 U1046 2.441 . S
O1064 C1050 1.249 . S
O1065 U1046 2.420 . S
O1065 C1050 1.202 . S
O1066 U1046 2.455 . S
O1066 C1063 1.301 . S
O1067 U1046 2.449 . S
O1067 C1063 1.282 . S
H1068 C1041 0.931 . S
H1069 C1043 0.929 . S
H1070 C1044 0.930 . S
H1071 C1045 0.931 . S
H1072 C1052 0.932 . S
H1073 C1053 0.930 . S
H1074 C1054 0.929 . S
H1075 C1056 0.930 . S
H1076 C1058 0.932 . S
H1077 C1059 0.929 . S
H1078 C1060 0.928 . S
H1079 C1062 0.932 . S
C1080 C1081 1.264 . S
C1080 C1085 1.479 . S
C1080 C1090 1.465 . S
C1081 C1080 1.264 . S
C1081 C1083 1.339 . S
C1081 H1108 0.931 . S
C1082 C1083 1.395 . S
C1082 C1084 1.320 . S
C1083 C1081 1.339 . S
C1083 C1082 1.395 . S
C1083 H1109 0.929 . S
C1084 C1082 1.320 . S
C1084 C1085 1.405 . S
C1084 H1110 0.930 . S
C1085 C1080 1.479 . S
C1085 C1084 1.405 . S
C1085 H1111 0.931 . S
U1086 O1087 2.454 . S
U1086 O1088 2.458 . S
U1086 C1089 2.984 . S
U1086 C1090 2.847 . S
U1086 C1103 2.882 . S
U1086 O1104 2.441 . S
U1086 O1105 2.420 . S
U1086 O1106 2.455 . S
U1086 O1107 2.449 . S
O1087 U1086 2.454 . S
O1087 C1089 1.353 . S
O1088 U1086 2.458 . S
O1088 C1089 1.286 . S
C1089 U1086 2.984 . S
C1089 O1087 1.353 . S
C1089 O1088 1.286 . S
C1089 C1091 1.363 . S
C1090 C1080 1.465 . S
C1090 U1086 2.847 . S
C1090 O1104 1.249 . S
C1090 O1105 1.202 . S
C1091 C1089 1.363 . S
C1091 C1093 1.408 . S
C1091 C1096 1.342 . S
C1092 C1093 1.310 . S
C1092 C1095 1.461 . S
C1092 H1112 0.932 . S
C1093 C1091 1.408 . S
C1093 C1092 1.310 . S
C1093 H1113 0.930 . S
C1094 C1095 1.474 . S
C1094 C1096 1.285 . S
C1094 H1114 0.929 . S
C1095 C1092 1.461 . S
C1095 C1094 1.474 . S
C1096 C1091 1.342 . S
C1096 C1094 1.285 . S
C1096 H1115 0.930 . S
C1097 C1100 1.424 . S
C1097 C1102 1.245 . S
C1097 C1103 1.428 . S
C1098 C1101 1.260 . S
C1098 C1102 1.477 . S
C1098 H1116 0.932 . S
C1099 C1100 1.384 . S
C1099 C1101 1.479 . S
C1099 H1117 0.929 . S
C1100 C1097 1.424 . S
C1100 C1099 1.384 . S
C1100 H1118 0.928 . S
C1101 C1098 1.260 . S
C1101 C1099 1.479 . S
C1102 C1097 1.245 . S
C1102 C1098 1.477 . S
C1102 H1119 0.932 . S
C1103 U1086 2.882 . S
C1103 C1097 1.428 . S
C1103 O1106 1.301 . S
C1103 O1107 1.282 . S
O1104 U1086 2.441 . S
O1104 C1090 1.249 . S
O1105 U1086 2.420 . S
O1105 C1090 1.202 . S
O1106 U1086 2.455 . S
O1106 C1103 1.301 . S
O1107 U1086 2.449 . S
O1107 C1103 1.282 . S
H1108 C1081 0.931 . S
H1109 C1083 0.929 . S
H1110 C1084 0.930 . S
H1111 C1085 0.931 . S
H1112 C1092 0.932 . S
H1113 C1093 0.930 . S
H1114 C1094 0.929 . S
H1115 C1096 0.930 . S
H1116 C1098 0.932 . S
H1117 C1099 0.929 . S
H1118 C1100 0.928 . S
H1119 C1102 0.932 . S
C1120 C1121 1.264 . S
C1120 C1125 1.479 . S
C1120 C1130 1.465 . S
C1121 C1120 1.264 . S
C1121 C1123 1.339 . S
C1121 H1148 0.931 . S
C1122 C1123 1.395 . S
C1122 C1124 1.320 . S
C1123 C1121 1.339 . S
C1123 C1122 1.395 . S
C1123 H1149 0.929 . S
C1124 C1122 1.320 . S
C1124 C1125 1.405 . S
C1124 H1150 0.930 . S
C1125 C1120 1.479 . S
C1125 C1124 1.405 . S
C1125 H1151 0.931 . S
U1126 O1127 2.454 . S
U1126 O1128 2.458 . S
U1126 C1129 2.984 . S
U1126 C1130 2.847 . S
U1126 C1143 2.882 . S
U1126 O1144 2.441 . S
U1126 O1145 2.420 . S
U1126 O1146 2.455 . S
U1126 O1147 2.449 . S
O1127 U1126 2.454 . S
O1127 C1129 1.353 . S
O1128 U1126 2.458 . S
O1128 C1129 1.286 . S
C1129 U1126 2.984 . S
C1129 O1127 1.353 . S
C1129 O1128 1.286 . S
C1129 C1131 1.363 . S
C1130 C1120 1.465 . S
C1130 U1126 2.847 . S
C1130 O1144 1.249 . S
C1130 O1145 1.202 . S
C1131 C1129 1.363 . S
C1131 C1133 1.408 . S
C1131 C1136 1.342 . S
C1132 C1133 1.310 . S
C1132 C1135 1.461 . S
C1132 H1152 0.932 . S
C1133 C1131 1.408 . S
C1133 C1132 1.310 . S
C1133 H1153 0.930 . S
C1134 C1135 1.474 . S
C1134 C1136 1.285 . S
C1134 H1154 0.929 . S
C1135 C1132 1.461 . S
C1135 C1134 1.474 . S
C1136 C1131 1.342 . S
C1136 C1134 1.285 . S
C1136 H1155 0.930 . S
C1137 C1140 1.424 . S
C1137 C1142 1.245 . S
C1137 C1143 1.428 . S
C1138 C1141 1.260 . S
C1138 C1142 1.477 . S
C1138 H1156 0.932 . S
C1139 C1140 1.384 . S
C1139 C1141 1.479 . S
C1139 H1157 0.929 . S
C1140 C1137 1.424 . S
C1140 C1139 1.384 . S
C1140 H1158 0.928 . S
C1141 C1138 1.260 . S
C1141 C1139 1.479 . S
C1142 C1137 1.245 . S
C1142 C1138 1.477 . S
C1142 H1159 0.932 . S
C1143 U1126 2.882 . S
C1143 C1137 1.428 . S
C1143 O1146 1.301 . S
C1143 O1147 1.282 . S
O1144 U1126 2.441 . S
O1144 C1130 1.249 . S
O1145 U1126 2.420 . S
O1145 C1130 1.202 . S
O1146 U1126 2.455 . S
O1146 C1143 1.301 . S
O1147 U1126 2.449 . S
O1147 C1143 1.282 . S
H1148 C1121 0.931 . S
H1149 C1123 0.929 . S
H1150 C1124 0.930 . S
H1151 C1125 0.931 . S
H1152 C1132 0.932 . S
H1153 C1133 0.930 . S
H1154 C1134 0.929 . S
H1155 C1136 0.930 . S
H1156 C1138 0.932 . S
H1157 C1139 0.929 . S
H1158 C1140 0.928 . S
H1159 C1142 0.932 . S
C1160 C1161 1.264 . S
C1160 C1165 1.479 . S
C1160 C1170 1.465 . S
C1161 C1160 1.264 . S
C1161 C1163 1.339 . S
C1161 H1188 0.931 . S
C1162 C1163 1.395 . S
C1162 C1164 1.320 . S
C1163 C1161 1.339 . S
C1163 C1162 1.395 . S
C1163 H1189 0.929 . S
C1164 C1162 1.320 . S
C1164 C1165 1.405 . S
C1164 H1190 0.930 . S
C1165 C1160 1.479 . S
C1165 C1164 1.405 . S
C1165 H1191 0.931 . S
U1166 O1167 2.454 . S
U1166 O1168 2.458 . S
U1166 C1169 2.984 . S
U1166 C1170 2.847 . S
U1166 C1183 2.882 . S
U1166 O1184 2.441 . S
U1166 O1185 2.420 . S
U1166 O1186 2.455 . S
U1166 O1187 2.449 . S
O1167 U1166 2.454 . S
O1167 C1169 1.353 . S
O1168 U1166 2.458 . S
O1168 C1169 1.286 . S
C1169 U1166 2.984 . S
C1169 O1167 1.353 . S
C1169 O1168 1.286 . S
C1169 C1171 1.363 . S
C1170 C1160 1.465 . S
C1170 U1166 2.847 . S
C1170 O1184 1.249 . S
C1170 O1185 1.202 . S
C1171 C1169 1.363 . S
C1171 C1173 1.408 . S
C1171 C1176 1.342 . S
C1172 C1173 1.310 . S
C1172 C1175 1.461 . S
C1172 H1192 0.932 . S
C1173 C1171 1.408 . S
C1173 C1172 1.310 . S
C1173 H1193 0.930 . S
C1174 C1175 1.474 . S
C1174 C1176 1.285 . S
C1174 H1194 0.929 . S
C1175 C1172 1.461 . S
C1175 C1174 1.474 . S
C1176 C1171 1.342 . S
C1176 C1174 1.285 . S
C1176 H1195 0.930 . S
C1177 C1180 1.424 . S
C1177 C1182 1.245 . S
C1177 C1183 1.428 . S
C1178 C1181 1.260 . S
C1178 C1182 1.477 . S
C1178 H1196 0.932 . S
C1179 C1180 1.384 . S
C1179 C1181 1.479 . S
C1179 H1197 0.929 . S
C1180 C1177 1.424 . S
C1180 C1179 1.384 . S
C1180 H1198 0.928 . S
C1181 C1178 1.260 . S
C1181 C1179 1.479 . S
C1182 C1177 1.245 . S
C1182 C1178 1.477 . S
C1182 H1199 0.932 . S
C1183 U1166 2.882 . S
C1183 C1177 1.428 . S
C1183 O1186 1.301 . S
C1183 O1187 1.282 . S
O1184 U1166 2.441 . S
O1184 C1170 1.249 . S
O1185 U1166 2.420 . S
O1185 C1170 1.202 . S
O1186 U1166 2.455 . S
O1186 C1183 1.301 . S
O1187 U1166 2.449 . S
O1187 C1183 1.282 . S
H1188 C1161 0.931 . S
H1189 C1163 0.929 . S
H1190 C1164 0.930 . S
H1191 C1165 0.931 . S
H1192 C1172 0.932 . S
H1193 C1173 0.930 . S
H1194 C1174 0.929 . S
H1195 C1176 0.930 . S
H1196 C1178 0.932 . S
H1197 C1179 0.929 . S
H1198 C1180 0.928 . S
H1199 C1182 0.932 . S
C1200 C1201 1.264 . S
C1200 C1205 1.479 . S
C1200 C1210 1.465 . S
C1201 C1200 1.264 . S
C1201 C1203 1.339 . S
C1201 H1228 0.931 . S
C1202 C1203 1.395 . S
C1202 C1204 1.320 . S
C1203 C1201 1.339 . S
C1203 C1202 1.395 . S
C1203 H1229 0.929 . S
C1204 C1202 1.320 . S
C1204 C1205 1.405 . S
C1204 H1230 0.930 . S
C1205 C1200 1.479 . S
C1205 C1204 1.405 . S
C1205 H1231 0.931 . S
U1206 O1207 2.454 . S
U1206 O1208 2.458 . S
U1206 C1209 2.984 . S
U1206 C1210 2.847 . S
U1206 C1223 2.882 . S
U1206 O1224 2.441 . S
U1206 O1225 2.420 . S
U1206 O1226 2.455 . S
U1206 O1227 2.449 . S
O1207 U1206 2.454 . S
O1207 C1209 1.353 . S
O1208 U1206 2.458 . S
O1208 C1209 1.286 . S
C1209 U1206 2.984 . S
C1209 O1207 1.353 . S
C1209 O1208 1.286 . S
C1209 C1211 1.363 . S
C1210 C1200 1.465 . S
C1210 U1206 2.847 . S
C1210 O1224 1.249 . S
C1210 O1225 1.202 . S
C1211 C1209 1.363 . S
C1211 C1213 1.408 . S
C1211 C1216 1.342 . S
C1212 C1213 1.310 . S
C1212 C1215 1.461 . S
C1212 H1232 0.932 . S
C1213 C1211 1.408 . S
C1213 C1212 1.310 . S
C1213 H1233 0.930 . S
C1214 C1215 1.474 . S
C1214 C1216 1.285 . S
C1214 H1234 0.929 . S
C1215 C1212 1.461 . S
C1215 C1214 1.474 . S
C1216 C1211 1.342 . S
C1216 C1214 1.285 . S
C1216 H1235 0.930 . S
C1217 C1220 1.424 . S
C1217 C1222 1.245 . S
C1217 C1223 1.428 . S
C1218 C1221 1.260 . S
C1218 C1222 1.477 . S
C1218 H1236 0.932 . S
C1219 C1220 1.384 . S
C1219 C1221 1.479 . S
C1219 H1237 0.929 . S
C1220 C1217 1.424 . S
C1220 C1219 1.384 . S
C1220 H1238 0.928 . S
C1221 C1218 1.260 . S
C1221 C1219 1.479 . S
C1222 C1217 1.245 . S
C1222 C1218 1.477 . S
C1222 H1239 0.932 . S
C1223 U1206 2.882 . S
C1223 C1217 1.428 . S
C1223 O1226 1.301 . S
C1223 O1227 1.282 . S
O1224 U1206 2.441 . S
O1224 C1210 1.249 . S
O1225 U1206 2.420 . S
O1225 C1210 1.202 . S
O1226 U1206 2.455 . S
O1226 C1223 1.301 . S
O1227 U1206 2.449 . S
O1227 C1223 1.282 . S
H1228 C1201 0.931 . S
H1229 C1203 0.929 . S
H1230 C1204 0.930 . S
H1231 C1205 0.931 . S
H1232 C1212 0.932 . S
H1233 C1213 0.930 . S
H1234 C1214 0.929 . S
H1235 C1216 0.930 . S
H1236 C1218 0.932 . S
H1237 C1219 0.929 . S
H1238 C1220 0.928 . S
H1239 C1222 0.932 . S
C1240 C1241 1.264 . S
C1240 C1245 1.479 . S
C1240 C1250 1.465 . S
C1241 C1240 1.264 . S
C1241 C1243 1.339 . S
C1241 H1268 0.931 . S
C1242 C1243 1.395 . S
C1242 C1244 1.320 . S
C1243 C1241 1.339 . S
C1243 C1242 1.395 . S
C1243 H1269 0.929 . S
C1244 C1242 1.320 . S
C1244 C1245 1.405 . S
C1244 H1270 0.930 . S
C1245 C1240 1.479 . S
C1245 C1244 1.405 . S
C1245 H1271 0.931 . S
U1246 O1247 2.454 . S
U1246 O1248 2.458 . S
U1246 C1249 2.984 . S
U1246 C1250 2.847 . S
U1246 C1263 2.882 . S
U1246 O1264 2.441 . S
U1246 O1265 2.420 . S
U1246 O1266 2.455 . S
U1246 O1267 2.449 . S
O1247 U1246 2.454 . S
O1247 C1249 1.353 . S
O1248 U1246 2.458 . S
O1248 C1249 1.286 . S
C1249 U1246 2.984 . S
C1249 O1247 1.353 . S
C1249 O1248 1.286 . S
C1249 C1251 1.363 . S
C1250 C1240 1.465 . S
C1250 U1246 2.847 . S
C1250 O1264 1.249 . S
C1250 O1265 1.202 . S
C1251 C1249 1.363 . S
C1251 C1253 1.408 . S
C1251 C1256 1.342 . S
C1252 C1253 1.310 . S
C1252 C1255 1.461 . S
C1252 H1272 0.932 . S
C1253 C1251 1.408 . S
C1253 C1252 1.310 . S
C1253 H1273 0.930 . S
C1254 C1255 1.474 . S
C1254 C1256 1.285 . S
C1254 H1274 0.929 . S
C1255 C1252 1.461 . S
C1255 C1254 1.474 . S
C1256 C1251 1.342 . S
C1256 C1254 1.285 . S
C1256 H1275 0.930 . S
C1257 C1260 1.424 . S
C1257 C1262 1.245 . S
C1257 C1263 1.428 . S
C1258 C1261 1.260 . S
C1258 C1262 1.477 . S
C1258 H1276 0.932 . S
C1259 C1260 1.384 . S
C1259 C1261 1.479 . S
C1259 H1277 0.929 . S
C1260 C1257 1.424 . S
C1260 C1259 1.384 . S
C1260 H1278 0.928 . S
C1261 C1258 1.260 . S
C1261 C1259 1.479 . S
C1262 C1257 1.245 . S
C1262 C1258 1.477 . S
C1262 H1279 0.932 . S
C1263 U1246 2.882 . S
C1263 C1257 1.428 . S
C1263 O1266 1.301 . S
C1263 O1267 1.282 . S
O1264 U1246 2.441 . S
O1264 C1250 1.249 . S
O1265 U1246 2.420 . S
O1265 C1250 1.202 . S
O1266 U1246 2.455 . S
O1266 C1263 1.301 . S
O1267 U1246 2.449 . S
O1267 C1263 1.282 . S
H1268 C1241 0.931 . S
H1269 C1243 0.929 . S
H1270 C1244 0.930 . S
H1271 C1245 0.931 . S
H1272 C1252 0.932 . S
H1273 C1253 0.930 . S
H1274 C1254 0.929 . S
H1275 C1256 0.930 . S
H1276 C1258 0.932 . S
H1277 C1259 0.929 . S
H1278 C1260 0.928 . S
H1279 C1262 0.932 . S
C1280 C1281 1.264 . S
C1280 C1285 1.479 . S
C1280 C1290 1.465 . S
C1281 C1280 1.264 . S
C1281 C1283 1.339 . S
C1281 H1308 0.931 . S
C1282 C1283 1.395 . S
C1282 C1284 1.320 . S
C1283 C1281 1.339 . S
C1283 C1282 1.395 . S
C1283 H1309 0.929 . S
C1284 C1282 1.320 . S
C1284 C1285 1.405 . S
C1284 H1310 0.930 . S
C1285 C1280 1.479 . S
C1285 C1284 1.405 . S
C1285 H1311 0.931 . S
U1286 O1287 2.454 . S
U1286 O1288 2.458 . S
U1286 C1289 2.984 . S
U1286 C1290 2.847 . S
U1286 C1303 2.882 . S
U1286 O1304 2.441 . S
U1286 O1305 2.420 . S
U1286 O1306 2.455 . S
U1286 O1307 2.449 . S
O1287 U1286 2.454 . S
O1287 C1289 1.353 . S
O1288 U1286 2.458 . S
O1288 C1289 1.286 . S
C1289 U1286 2.984 . S
C1289 O1287 1.353 . S
C1289 O1288 1.286 . S
C1289 C1291 1.363 . S
C1290 C1280 1.465 . S
C1290 U1286 2.847 . S
C1290 O1304 1.249 . S
C1290 O1305 1.202 . S
C1291 C1289 1.363 . S
C1291 C1293 1.408 . S
C1291 C1296 1.342 . S
C1292 C1293 1.310 . S
C1292 C1295 1.461 . S
C1292 H1312 0.932 . S
C1293 C1291 1.408 . S
C1293 C1292 1.310 . S
C1293 H1313 0.930 . S
C1294 C1295 1.474 . S
C1294 C1296 1.285 . S
C1294 H1314 0.929 . S
C1295 C1292 1.461 . S
C1295 C1294 1.474 . S
C1296 C1291 1.342 . S
C1296 C1294 1.285 . S
C1296 H1315 0.930 . S
C1297 C1300 1.424 . S
C1297 C1302 1.245 . S
C1297 C1303 1.428 . S
C1298 C1301 1.260 . S
C1298 C1302 1.477 . S
C1298 H1316 0.932 . S
C1299 C1300 1.384 . S
C1299 C1301 1.479 . S
C1299 H1317 0.929 . S
C1300 C1297 1.424 . S
C1300 C1299 1.384 . S
C1300 H1318 0.928 . S
C1301 C1298 1.260 . S
C1301 C1299 1.479 . S
C1302 C1297 1.245 . S
C1302 C1298 1.477 . S
C1302 H1319 0.932 . S
C1303 U1286 2.882 . S
C1303 C1297 1.428 . S
C1303 O1306 1.301 . S
C1303 O1307 1.282 . S
O1304 U1286 2.441 . S
O1304 C1290 1.249 . S
O1305 U1286 2.420 . S
O1305 C1290 1.202 . S
O1306 U1286 2.455 . S
O1306 C1303 1.301 . S
O1307 U1286 2.449 . S
O1307 C1303 1.282 . S
H1308 C1281 0.931 . S
H1309 C1283 0.929 . S
H1310 C1284 0.930 . S
H1311 C1285 0.931 . S
H1312 C1292 0.932 . S
H1313 C1293 0.930 . S
H1314 C1294 0.929 . S
H1315 C1296 0.930 . S
H1316 C1298 0.932 . S
H1317 C1299 0.929 . S
H1318 C1300 0.928 . S
H1319 C1302 0.932 . S
C1320 C1321 1.264 . S
C1320 C1325 1.479 . S
C1320 C1330 1.465 . S
C1321 C1320 1.264 . S
C1321 C1323 1.339 . S
C1321 H1348 0.931 . S
C1322 C1323 1.395 . S
C1322 C1324 1.320 . S
C1323 C1321 1.339 . S
C1323 C1322 1.395 . S
C1323 H1349 0.929 . S
C1324 C1322 1.320 . S
C1324 C1325 1.405 . S
C1324 H1350 0.930 . S
C1325 C1320 1.479 . S
C1325 C1324 1.405 . S
C1325 H1351 0.931 . S
U1326 O1327 2.454 . S
U1326 O1328 2.458 . S
U1326 C1329 2.984 . S
U1326 C1330 2.847 . S
U1326 C1343 2.882 . S
U1326 O1344 2.441 . S
U1326 O1345 2.420 . S
U1326 O1346 2.455 . S
U1326 O1347 2.449 . S
O1327 U1326 2.454 . S
O1327 C1329 1.353 . S
O1328 U1326 2.458 . S
O1328 C1329 1.286 . S
C1329 U1326 2.984 . S
C1329 O1327 1.353 . S
C1329 O1328 1.286 . S
C1329 C1331 1.363 . S
C1330 C1320 1.465 . S
C1330 U1326 2.847 . S
C1330 O1344 1.249 . S
C1330 O1345 1.202 . S
C1331 C1329 1.363 . S
C1331 C1333 1.408 . S
C1331 C1336 1.342 . S
C1332 C1333 1.310 . S
C1332 C1335 1.461 . S
C1332 H1352 0.932 . S
C1333 C1331 1.408 . S
C1333 C1332 1.310 . S
C1333 H1353 0.930 . S
C1334 C1335 1.474 . S
C1334 C1336 1.285 . S
C1334 H1354 0.929 . S
C1335 C1332 1.461 . S
C1335 C1334 1.474 . S
C1336 C1331 1.342 . S
C1336 C1334 1.285 . S
C1336 H1355 0.930 . S
C1337 C1340 1.424 . S
C1337 C1342 1.245 . S
C1337 C1343 1.428 . S
C1338 C1341 1.260 . S
C1338 C1342 1.477 . S
C1338 H1356 0.932 . S
C1339 C1340 1.384 . S
C1339 C1341 1.479 . S
C1339 H1357 0.929 . S
C1340 C1337 1.424 . S
C1340 C1339 1.384 . S
C1340 H1358 0.928 . S
C1341 C1338 1.260 . S
C1341 C1339 1.479 . S
C1342 C1337 1.245 . S
C1342 C1338 1.477 . S
C1342 H1359 0.932 . S
C1343 U1326 2.882 . S
C1343 C1337 1.428 . S
C1343 O1346 1.301 . S
C1343 O1347 1.282 . S
O1344 U1326 2.441 . S
O1344 C1330 1.249 . S
O1345 U1326 2.420 . S
O1345 C1330 1.202 . S
O1346 U1326 2.455 . S
O1346 C1343 1.301 . S
O1347 U1326 2.449 . S
O1347 C1343 1.282 . S
H1348 C1321 0.931 . S
H1349 C1323 0.929 . S
H1350 C1324 0.930 . S
H1351 C1325 0.931 . S
H1352 C1332 0.932 . S
H1353 C1333 0.930 . S
H1354 C1334 0.929 . S
H1355 C1336 0.930 . S
H1356 C1338 0.932 . S
H1357 C1339 0.929 . S
H1358 C1340 0.928 . S
H1359 C1342 0.932 . S
C1360 C1361 1.264 . S
C1360 C1365 1.479 . S
C1360 C1370 1.465 . S
C1361 C1360 1.264 . S
C1361 C1363 1.339 . S
C1361 H1388 0.931 . S
C1362 C1363 1.395 . S
C1362 C1364 1.320 . S
C1363 C1361 1.339 . S
C1363 C1362 1.395 . S
C1363 H1389 0.929 . S
C1364 C1362 1.320 . S
C1364 C1365 1.405 . S
C1364 H1390 0.930 . S
C1365 C1360 1.479 . S
C1365 C1364 1.405 . S
C1365 H1391 0.931 . S
U1366 O1367 2.454 . S
U1366 O1368 2.458 . S
U1366 C1369 2.984 . S
U1366 C1370 2.847 . S
U1366 C1383 2.882 . S
U1366 O1384 2.441 . S
U1366 O1385 2.420 . S
U1366 O1386 2.455 . S
U1366 O1387 2.449 . S
O1367 U1366 2.454 . S
O1367 C1369 1.353 . S
O1368 U1366 2.458 . S
O1368 C1369 1.286 . S
C1369 U1366 2.984 . S
C1369 O1367 1.353 . S
C1369 O1368 1.286 . S
C1369 C1371 1.363 . S
C1370 C1360 1.465 . S
C1370 U1366 2.847 . S
C1370 O1384 1.249 . S
C1370 O1385 1.202 . S
C1371 C1369 1.363 . S
C1371 C1373 1.408 . S
C1371 C1376 1.342 . S
C1372 C1373 1.310 . S
C1372 C1375 1.461 . S
C1372 H1392 0.932 . S
C1373 C1371 1.408 . S
C1373 C1372 1.310 . S
C1373 H1393 0.930 . S
C1374 C1375 1.474 . S
C1374 C1376 1.285 . S
C1374 H1394 0.929 . S
C1375 C1372 1.461 . S
C1375 C1374 1.474 . S
C1376 C1371 1.342 . S
C1376 C1374 1.285 . S
C1376 H1395 0.930 . S
C1377 C1380 1.424 . S
C1377 C1382 1.245 . S
C1377 C1383 1.428 . S
C1378 C1381 1.260 . S
C1378 C1382 1.477 . S
C1378 H1396 0.932 . S
C1379 C1380 1.384 . S
C1379 C1381 1.479 . S
C1379 H1397 0.929 . S
C1380 C1377 1.424 . S
C1380 C1379 1.384 . S
C1380 H1398 0.928 . S
C1381 C1378 1.260 . S
C1381 C1379 1.479 . S
C1382 C1377 1.245 . S
C1382 C1378 1.477 . S
C1382 H1399 0.932 . S
C1383 U1366 2.882 . S
C1383 C1377 1.428 . S
C1383 O1386 1.301 . S
C1383 O1387 1.282 . S
O1384 U1366 2.441 . S
O1384 C1370 1.249 . S
O1385 U1366 2.420 . S
O1385 C1370 1.202 . S
O1386 U1366 2.455 . S
O1386 C1383 1.301 . S
O1387 U1366 2.449 . S
O1387 C1383 1.282 . S
H1388 C1361 0.931 . S
H1389 C1363 0.929 . S
H1390 C1364 0.930 . S
H1391 C1365 0.931 . S
H1392 C1372 0.932 . S
H1393 C1373 0.930 . S
H1394 C1374 0.929 . S
H1395 C1376 0.930 . S
H1396 C1378 0.932 . S
H1397 C1379 0.929 . S
H1398 C1380 0.928 . S
H1399 C1382 0.932 . S
C1400 C1401 1.264 . S
C1400 C1405 1.479 . S
C1400 C1410 1.465 . S
C1401 C1400 1.264 . S
C1401 C1403 1.339 . S
C1401 H1428 0.931 . S
C1402 C1403 1.395 . S
C1402 C1404 1.320 . S
C1403 C1401 1.339 . S
C1403 C1402 1.395 . S
C1403 H1429 0.929 . S
C1404 C1402 1.320 . S
C1404 C1405 1.405 . S
C1404 H1430 0.930 . S
C1405 C1400 1.479 . S
C1405 C1404 1.405 . S
C1405 H1431 0.931 . S
U1406 O1407 2.454 . S
U1406 O1408 2.458 . S
U1406 C1409 2.984 . S
U1406 C1410 2.847 . S
U1406 C1423 2.882 . S
U1406 O1424 2.441 . S
U1406 O1425 2.420 . S
U1406 O1426 2.455 . S
U1406 O1427 2.449 . S
O1407 U1406 2.454 . S
O1407 C1409 1.353 . S
O1408 U1406 2.458 . S
O1408 C1409 1.286 . S
C1409 U1406 2.984 . S
C1409 O1407 1.353 . S
C1409 O1408 1.286 . S
C1409 C1411 1.363 . S
C1410 C1400 1.465 . S
C1410 U1406 2.847 . S
C1410 O1424 1.249 . S
C1410 O1425 1.202 . S
C1411 C1409 1.363 . S
C1411 C1413 1.408 . S
C1411 C1416 1.342 . S
C1412 C1413 1.310 . S
C1412 C1415 1.461 . S
C1412 H1432 0.932 . S
C1413 C1411 1.408 . S
C1413 C1412 1.310 . S
C1413 H1433 0.930 . S
C1414 C1415 1.474 . S
C1414 C1416 1.285 . S
C1414 H1434 0.929 . S
C1415 C1412 1.461 . S
C1415 C1414 1.474 . S
C1416 C1411 1.342 . S
C1416 C1414 1.285 . S
C1416 H1435 0.930 . S
C1417 C1420 1.424 . S
C1417 C1422 1.245 . S
C1417 C1423 1.428 . S
C1418 C1421 1.260 . S
C1418 C1422 1.477 . S
C1418 H1436 0.932 . S
C1419 C1420 1.384 . S
C1419 C1421 1.479 . S
C1419 H1437 0.929 . S
C1420 C1417 1.424 . S
C1420 C1419 1.384 . S
C1420 H1438 0.928 . S
C1421 C1418 1.260 . S
C1421 C1419 1.479 . S
C1422 C1417 1.245 . S
C1422 C1418 1.477 . S
C1422 H1439 0.932 . S
C1423 U1406 2.882 . S
C1423 C1417 1.428 . S
C1423 O1426 1.301 . S
C1423 O1427 1.282 . S
O1424 U1406 2.441 . S
O1424 C1410 1.249 . S
O1425 U1406 2.420 . S
O1425 C1410 1.202 . S
O1426 U1406 2.455 . S
O1426 C1423 1.301 . S
O1427 U1406 2.449 . S
O1427 C1423 1.282 . S
H1428 C1401 0.931 . S
H1429 C1403 0.929 . S
H1430 C1404 0.930 . S
H1431 C1405 0.931 . S
H1432 C1412 0.932 . S
H1433 C1413 0.930 . S
H1434 C1414 0.929 . S
H1435 C1416 0.930 . S
H1436 C1418 0.932 . S
H1437 C1419 0.929 . S
H1438 C1420 0.928 . S
H1439 C1422 0.932 . S
C1440 C1441 1.264 . S
C1440 C1445 1.479 . S
C1440 C1450 1.465 . S
C1441 C1440 1.264 . S
C1441 C1443 1.339 . S
C1441 H1468 0.931 . S
C1442 C1443 1.395 . S
C1442 C1444 1.320 . S
C1443 C1441 1.339 . S
C1443 C1442 1.395 . S
C1443 H1469 0.929 . S
C1444 C1442 1.320 . S
C1444 C1445 1.405 . S
C1444 H1470 0.930 . S
C1445 C1440 1.479 . S
C1445 C1444 1.405 . S
C1445 H1471 0.931 . S
U1446 O1447 2.454 . S
U1446 O1448 2.458 . S
U1446 C1449 2.984 . S
U1446 C1450 2.847 . S
U1446 C1463 2.882 . S
U1446 O1464 2.441 . S
U1446 O1465 2.420 . S
U1446 O1466 2.455 . S
U1446 O1467 2.449 . S
O1447 U1446 2.454 . S
O1447 C1449 1.353 . S
O1448 U1446 2.458 . S
O1448 C1449 1.286 . S
C1449 U1446 2.984 . S
C1449 O1447 1.353 . S
C1449 O1448 1.286 . S
C1449 C1451 1.363 . S
C1450 C1440 1.465 . S
C1450 U1446 2.847 . S
C1450 O1464 1.249 . S
C1450 O1465 1.202 . S
C1451 C1449 1.363 . S
C1451 C1453 1.408 . S
C1451 C1456 1.342 . S
C1452 C1453 1.310 . S
C1452 C1455 1.461 . S
C1452 H1472 0.932 . S
C1453 C1451 1.408 . S
C1453 C1452 1.310 . S
C1453 H1473 0.930 . S
C1454 C1455 1.474 . S
C1454 C1456 1.285 . S
C1454 H1474 0.929 . S
C1455 C1452 1.461 . S
C1455 C1454 1.474 . S
C1456 C1451 1.342 . S
C1456 C1454 1.285 . S
C1456 H1475 0.930 . S
C1457 C1460 1.424 . S
C1457 C1462 1.245 . S
C1457 C1463 1.428 . S
C1458 C1461 1.260 . S
C1458 C1462 1.477 . S
C1458 H1476 0.932 . S
C1459 C1460 1.384 . S
C1459 C1461 1.479 . S
C1459 H1477 0.929 . S
C1460 C1457 1.424 . S
C1460 C1459 1.384 . S
C1460 H1478 0.928 . S
C1461 C1458 1.260 . S
C1461 C1459 1.479 . S
C1462 C1457 1.245 . S
C1462 C1458 1.477 . S
C1462 H1479 0.932 . S
C1463 U1446 2.882 . S
C1463 C1457 1.428 . S
C1463 O1466 1.301 . S
C1463 O1467 1.282 . S
O1464 U1446 2.441 . S
O1464 C1450 1.249 . S
O1465 U1446 2.420 . S
O1465 C1450 1.202 . S
O1466 U1446 2.455 . S
O1466 C1463 1.301 . S
O1467 U1446 2.449 . S
O1467 C1463 1.282 . S
H1468 C1441 0.931 . S
H1469 C1443 0.929 . S
H1470 C1444 0.930 . S
H1471 C1445 0.931 . S
H1472 C1452 0.932 . S
H1473 C1453 0.930 . S
H1474 C1454 0.929 . S
H1475 C1456 0.930 . S
H1476 C1458 0.932 . S
H1477 C1459 0.929 . S
H1478 C1460 0.928 . S
H1479 C1462 0.932 . S
C1480 C1481 1.264 . S
C1480 C1485 1.479 . S
C1480 C1490 1.465 . S
C1481 C1480 1.264 . S
C1481 C1483 1.339 . S
C1481 H1508 0.931 . S
C1482 C1483 1.395 . S
C1482 C1484 1.320 . S
C1483 C1481 1.339 . S
C1483 C1482 1.395 . S
C1483 H1509 0.929 . S
C1484 C1482 1.320 . S
C1484 C1485 1.405 . S
C1484 H1510 0.930 . S
C1485 C1480 1.479 . S
C1485 C1484 1.405 . S
C1485 H1511 0.931 . S
U1486 O1487 2.454 . S
U1486 O1488 2.458 . S
U1486 C1489 2.984 . S
U1486 C1490 2.847 . S
U1486 C1503 2.882 . S
U1486 O1504 2.441 . S
U1486 O1505 2.420 . S
U1486 O1506 2.455 . S
U1486 O1507 2.449 . S
O1487 U1486 2.454 . S
O1487 C1489 1.353 . S
O1488 U1486 2.458 . S
O1488 C1489 1.286 . S
C1489 U1486 2.984 . S
C1489 O1487 1.353 . S
C1489 O1488 1.286 . S
C1489 C1491 1.363 . S
C1490 C1480 1.465 . S
C1490 U1486 2.847 . S
C1490 O1504 1.249 . S
C1490 O1505 1.202 . S
C1491 C1489 1.363 . S
C1491 C1493 1.408 . S
C1491 C1496 1.342 . S
C1492 C1493 1.310 . S
C1492 C1495 1.461 . S
C1492 H1512 0.932 . S
C1493 C1491 1.408 . S
C1493 C1492 1.310 . S
C1493 H1513 0.930 . S
C1494 C1495 1.474 . S
C1494 C1496 1.285 . S
C1494 H1514 0.929 . S
C1495 C1492 1.461 . S
C1495 C1494 1.474 . S
C1496 C1491 1.342 . S
C1496 C1494 1.285 . S
C1496 H1515 0.930 . S
C1497 C1500 1.424 . S
C1497 C1502 1.245 . S
C1497 C1503 1.428 . S
C1498 C1501 1.260 . S
C1498 C1502 1.477 . S
C1498 H1516 0.932 . S
C1499 C1500 1.384 . S
C1499 C1501 1.479 . S
C1499 H1517 0.929 . S
C1500 C1497 1.424 . S
C1500 C1499 1.384 . S
C1500 H1518 0.928 . S
C1501 C1498 1.260 . S
C1501 C1499 1.479 . S
C1502 C1497 1.245 . S
C1502 C1498 1.477 . S
C1502 H1519 0.932 . S
C1503 U1486 2.882 . S
C1503 C1497 1.428 . S
C1503 O1506 1.301 . S
C1503 O1507 1.282 . S
O1504 U1486 2.441 . S
O1504 C1490 1.249 . S
O1505 U1486 2.420 . S
O1505 C1490 1.202 . S
O1506 U1486 2.455 . S
O1506 C1503 1.301 . S
O1507 U1486 2.449 . S
O1507 C1503 1.282 . S
H1508 C1481 0.931 . S
H1509 C1483 0.929 . S
H1510 C1484 0.930 . S
H1511 C1485 0.931 . S
H1512 C1492 0.932 . S
H1513 C1493 0.930 . S
H1514 C1494 0.929 . S
H1515 C1496 0.930 . S
H1516 C1498 0.932 . S
H1517 C1499 0.929 . S
H1518 C1500 0.928 . S
H1519 C1502 0.932 . S
C1520 C1521 1.264 . S
C1520 C1525 1.479 . S
C1520 C1530 1.465 . S
C1521 C1520 1.264 . S
C1521 C1523 1.339 . S
C1521 H1548 0.931 . S
C1522 C1523 1.395 . S
C1522 C1524 1.320 . S
C1523 C1521 1.339 . S
C1523 C1522 1.395 . S
C1523 H1549 0.929 . S
C1524 C1522 1.320 . S
C1524 C1525 1.405 . S
C1524 H1550 0.930 . S
C1525 C1520 1.479 . S
C1525 C1524 1.405 . S
C1525 H1551 0.931 . S
U1526 O1527 2.454 . S
U1526 O1528 2.458 . S
U1526 C1529 2.984 . S
U1526 C1530 2.847 . S
U1526 C1543 2.882 . S
U1526 O1544 2.441 . S
U1526 O1545 2.420 . S
U1526 O1546 2.455 . S
U1526 O1547 2.449 . S
O1527 U1526 2.454 . S
O1527 C1529 1.353 . S
O1528 U1526 2.458 . S
O1528 C1529 1.286 . S
C1529 U1526 2.984 . S
C1529 O1527 1.353 . S
C1529 O1528 1.286 . S
C1529 C1531 1.363 . S
C1530 C1520 1.465 . S
C1530 U1526 2.847 . S
C1530 O1544 1.249 . S
C1530 O1545 1.202 . S
C1531 C1529 1.363 . S
C1531 C1533 1.408 . S
C1531 C1536 1.342 . S
C1532 C1533 1.310 . S
C1532 C1535 1.461 . S
C1532 H1552 0.932 . S
C1533 C1531 1.408 . S
C1533 C1532 1.310 . S
C1533 H1553 0.930 . S
C1534 C1535 1.474 . S
C1534 C1536 1.285 . S
C1534 H1554 0.929 . S
C1535 C1532 1.461 . S
C1535 C1534 1.474 . S
C1536 C1531 1.342 . S
C1536 C1534 1.285 . S
C1536 H1555 0.930 . S
C1537 C1540 1.424 . S
C1537 C1542 1.245 . S
C1537 C1543 1.428 . S
C1538 C1541 1.260 . S
C1538 C1542 1.477 . S
C1538 H1556 0.932 . S
C1539 C1540 1.384 . S
C1539 C1541 1.479 . S
C1539 H1557 0.929 . S
C1540 C1537 1.424 . S
C1540 C1539 1.384 . S
C1540 H1558 0.928 . S
C1541 C1538 1.260 . S
C1541 C1539 1.479 . S
C1542 C1537 1.245 . S
C1542 C1538 1.477 . S
C1542 H1559 0.932 . S
C1543 U1526 2.882 . S
C1543 C1537 1.428 . S
C1543 O1546 1.301 . S
C1543 O1547 1.282 . S
O1544 U1526 2.441 . S
O1544 C1530 1.249 . S
O1545 U1526 2.420 . S
O1545 C1530 1.202 . S
O1546 U1526 2.455 . S
O1546 C1543 1.301 . S
O1547 U1526 2.449 . S
O1547 C1543 1.282 . S
H1548 C1521 0.931 . S
H1549 C1523 0.929 . S
H1550 C1524 0.930 . S
H1551 C1525 0.931 . S
H1552 C1532 0.932 . S
H1553 C1533 0.930 . S
H1554 C1534 0.929 . S
H1555 C1536 0.930 . S
H1556 C1538 0.932 . S
H1557 C1539 0.929 . S
H1558 C1540 0.928 . S
H1559 C1542 0.932 . S
C1560 C1561 1.264 . S
C1560 C1565 1.479 . S
C1560 C1570 1.465 . S
C1561 C1560 1.264 . S
C1561 C1563 1.339 . S
C1561 H1588 0.931 . S
C1562 C1563 1.395 . S
C1562 C1564 1.320 . S
C1563 C1561 1.339 . S
C1563 C1562 1.395 . S
C1563 H1589 0.929 . S
C1564 C1562 1.320 . S
C1564 C1565 1.405 . S
C1564 H1590 0.930 . S
C1565 C1560 1.479 . S
C1565 C1564 1.405 . S
C1565 H1591 0.931 . S
U1566 O1567 2.454 . S
U1566 O1568 2.458 . S
U1566 C1569 2.984 . S
U1566 C1570 2.847 . S
U1566 C1583 2.882 . S
U1566 O1584 2.441 . S
U1566 O1585 2.420 . S
U1566 O1586 2.455 . S
U1566 O1587 2.449 . S
O1567 U1566 2.454 . S
O1567 C1569 1.353 . S
O1568 U1566 2.458 . S
O1568 C1569 1.286 . S
C1569 U1566 2.984 . S
C1569 O1567 1.353 . S
C1569 O1568 1.286 . S
C1569 C1571 1.363 . S
C1570 C1560 1.465 . S
C1570 U1566 2.847 . S
C1570 O1584 1.249 . S
C1570 O1585 1.202 . S
C1571 C1569 1.363 . S
C1571 C1573 1.408 . S
C1571 C1576 1.342 . S
C1572 C1573 1.310 . S
C1572 C1575 1.461 . S
C1572 H1592 0.932 . S
C1573 C1571 1.408 . S
C1573 C1572 1.310 . S
C1573 H1593 0.930 . S
C1574 C1575 1.474 . S
C1574 C1576 1.285 . S
C1574 H1594 0.929 . S
C1575 C1572 1.461 . S
C1575 C1574 1.474 . S
C1576 C1571 1.342 . S
C1576 C1574 1.285 . S
C1576 H1595 0.930 . S
C1577 C1580 1.424 . S
C1577 C1582 1.245 . S
C1577 C1583 1.428 . S
C1578 C1581 1.260 . S
C1578 C1582 1.477 . S
C1578 H1596 0.932 . S
C1579 C1580 1.384 . S
C1579 C1581 1.479 . S
C1579 H1597 0.929 . S
C1580 C1577 1.424 . S
C1580 C1579 1.384 . S
C1580 H1598 0.928 . S
C1581 C1578 1.260 . S
C1581 C1579 1.479 . S
C1582 C1577 1.245 . S
C1582 C1578 1.477 . S
C1582 H1599 0.932 . S
C1583 U1566 2.882 . S
C1583 C1577 1.428 . S
C1583 O1586 1.301 . S
C1583 O1587 1.282 . S
O1584 U1566 2.441 . S
O1584 C1570 1.249 . S
O1585 U1566 2.420 . S
O1585 C1570 1.202 . S
O1586 U1566 2.455 . S
O1586 C1583 1.301 . S
O1587 U1566 2.449 . S
O1587 C1583 1.282 . S
H1588 C1561 0.931 . S
H1589 C1563 0.929 . S
H1590 C1564 0.930 . S
H1591 C1565 0.931 . S
H1592 C1572 0.932 . S
H1593 C1573 0.930 . S
H1594 C1574 0.929 . S
H1595 C1576 0.930 . S
H1596 C1578 0.932 . S
H1597 C1579 0.929 . S
H1598 C1580 0.928 . S
H1599 C1582 0.932 . S
C1600 C1601 1.264 . S
C1600 C1605 1.479 . S
C1600 C1610 1.465 . S
C1601 C1600 1.264 . S
C1601 C1603 1.339 . S
C1601 H1628 0.931 . S
C1602 C1603 1.395 . S
C1602 C1604 1.320 . S
C1603 C1601 1.339 . S
C1603 C1602 1.395 . S
C1603 H1629 0.929 . S
C1604 C1602 1.320 . S
C1604 C1605 1.405 . S
C1604 H1630 0.930 . S
C1605 C1600 1.479 . S
C1605 C1604 1.405 . S
C1605 H1631 0.931 . S
U1606 O1607 2.454 . S
U1606 O1608 2.458 . S
U1606 C1609 2.984 . S
U1606 C1610 2.847 . S
U1606 C1623 2.882 . S
U1606 O1624 2.441 . S
U1606 O1625 2.420 . S
U1606 O1626 2.455 . S
U1606 O1627 2.449 . S
O1607 U1606 2.454 . S
O1607 C1609 1.353 . S
O1608 U1606 2.458 . S
O1608 C1609 1.286 . S
C1609 U1606 2.984 . S
C1609 O1607 1.353 . S
C1609 O1608 1.286 . S
C1609 C1611 1.363 . S
C1610 C1600 1.465 . S
C1610 U1606 2.847 . S
C1610 O1624 1.249 . S
C1610 O1625 1.202 . S
C1611 C1609 1.363 . S
C1611 C1613 1.408 . S
C1611 C1616 1.342 . S
C1612 C1613 1.310 . S
C1612 C1615 1.461 . S
C1612 H1632 0.932 . S
C1613 C1611 1.408 . S
C1613 C1612 1.310 . S
C1613 H1633 0.930 . S
C1614 C1615 1.474 . S
C1614 C1616 1.285 . S
C1614 H1634 0.929 . S
C1615 C1612 1.461 . S
C1615 C1614 1.474 . S
C1616 C1611 1.342 . S
C1616 C1614 1.285 . S
C1616 H1635 0.930 . S
C1617 C1620 1.424 . S
C1617 C1622 1.245 . S
C1617 C1623 1.428 . S
C1618 C1621 1.260 . S
C1618 C1622 1.477 . S
C1618 H1636 0.932 . S
C1619 C1620 1.384 . S
C1619 C1621 1.479 . S
C1619 H1637 0.929 . S
C1620 C1617 1.424 . S
C1620 C1619 1.384 . S
C1620 H1638 0.928 . S
C1621 C1618 1.260 . S
C1621 C1619 1.479 . S
C1622 C1617 1.245 . S
C1622 C1618 1.477 . S
C1622 H1639 0.932 . S
C1623 U1606 2.882 . S
C1623 C1617 1.428 . S
C1623 O1626 1.301 . S
C1623 O1627 1.282 . S
O1624 U1606 2.441 . S
O1624 C1610 1.249 . S
O1625 U1606 2.420 . S
O1625 C1610 1.202 . S
O1626 U1606 2.455 . S
O1626 C1623 1.301 . S
O1627 U1606 2.449 . S
O1627 C1623 1.282 . S
H1628 C1601 0.931 . S
H1629 C1603 0.929 . S
H1630 C1604 0.930 . S
H1631 C1605 0.931 . S
H1632 C1612 0.932 . S
H1633 C1613 0.930 . S
H1634 C1614 0.929 . S
H1635 C1616 0.930 . S
H1636 C1618 0.932 . S
H1637 C1619 0.929 . S
H1638 C1620 0.928 . S
H1639 C1622 0.932 . S
C1640 C1641 1.264 . S
C1640 C1645 1.479 . S
C1640 C1650 1.465 . S
C1641 C1640 1.264 . S
C1641 C1643 1.339 . S
C1641 H1668 0.931 . S
C1642 C1643 1.395 . S
C1642 C1644 1.320 . S
C1643 C1641 1.339 . S
C1643 C1642 1.395 . S
C1643 H1669 0.929 . S
C1644 C1642 1.320 . S
C1644 C1645 1.405 . S
C1644 H1670 0.930 . S
C1645 C1640 1.479 . S
C1645 C1644 1.405 . S
C1645 H1671 0.931 . S
U1646 O1647 2.454 . S
U1646 O1648 2.458 . S
U1646 C1649 2.984 . S
U1646 C1650 2.847 . S
U1646 C1663 2.882 . S
U1646 O1664 2.441 . S
U1646 O1665 2.420 . S
U1646 O1666 2.455 . S
U1646 O1667 2.449 . S
O1647 U1646 2.454 . S
O1647 C1649 1.353 . S
O1648 U1646 2.458 . S
O1648 C1649 1.286 . S
C1649 U1646 2.984 . S
C1649 O1647 1.353 . S
C1649 O1648 1.286 . S
C1649 C1651 1.363 . S
C1650 C1640 1.465 . S
C1650 U1646 2.847 . S
C1650 O1664 1.249 . S
C1650 O1665 1.202 . S
C1651 C1649 1.363 . S
C1651 C1653 1.408 . S
C1651 C1656 1.342 . S
C1652 C1653 1.310 . S
C1652 C1655 1.461 . S
C1652 H1672 0.932 . S
C1653 C1651 1.408 . S
C1653 C1652 1.310 . S
C1653 H1673 0.930 . S
C1654 C1655 1.474 . S
C1654 C1656 1.285 . S
C1654 H1674 0.929 . S
C1655 C1652 1.461 . S
C1655 C1654 1.474 . S
C1656 C1651 1.342 . S
C1656 C1654 1.285 . S
C1656 H1675 0.930 . S
C1657 C1660 1.424 . S
C1657 C1662 1.245 . S
C1657 C1663 1.428 . S
C1658 C1661 1.260 . S
C1658 C1662 1.477 . S
C1658 H1676 0.932 . S
C1659 C1660 1.384 . S
C1659 C1661 1.479 . S
C1659 H1677 0.929 . S
C1660 C1657 1.424 . S
C1660 C1659 1.384 . S
C1660 H1678 0.928 . S
C1661 C1658 1.260 . S
C1661 C1659 1.479 . S
C1662 C1657 1.245 . S
C1662 C1658 1.477 . S
C1662 H1679 0.932 . S
C1663 U1646 2.882 . S
C1663 C1657 1.428 . S
C1663 O1666 1.301 . S
C1663 O1667 1.282 . S
O1664 U1646 2.441 . S
O1664 C1650 1.249 . S
O1665 U1646 2.420 . S
O1665 C1650 1.202 . S
O1666 U1646 2.455 . S
O1666 C1663 1.301 . S
O1667 U1646 2.449 . S
O1667 C1663 1.282 . S
H1668 C1641 0.931 . S
H1669 C1643 0.929 . S
H1670 C1644 0.930 . S
H1671 C1645 0.931 . S
H1672 C1652 0.932 . S
H1673 C1653 0.930 . S
H1674 C1654 0.929 . S
H1675 C1656 0.930 . S
H1676 C1658 0.932 . S
H1677 C1659 0.929 . S
H1678 C1660 0.928 . S
H1679 C1662 0.932 . S
C1680 C1681 1.264 . S
C1680 C1685 1.479 . S
C1680 C1690 1.465 . S
C1681 C1680 1.264 . S
C1681 C1683 1.339 . S
C1681 H1708 0.931 . S
C1682 C1683 1.395 . S
C1682 C1684 1.320 . S
C1683 C1681 1.339 . S
C1683 C1682 1.395 . S
C1683 H1709 0.929 . S
C1684 C1682 1.320 . S
C1684 C1685 1.405 . S
C1684 H1710 0.930 . S
C1685 C1680 1.479 . S
C1685 C1684 1.405 . S
C1685 H1711 0.931 . S
U1686 O1687 2.454 . S
U1686 O1688 2.458 . S
U1686 C1689 2.984 . S
U1686 C1690 2.847 . S
U1686 C1703 2.882 . S
U1686 O1704 2.441 . S
U1686 O1705 2.420 . S
U1686 O1706 2.455 . S
U1686 O1707 2.449 . S
O1687 U1686 2.454 . S
O1687 C1689 1.353 . S
O1688 U1686 2.458 . S
O1688 C1689 1.286 . S
C1689 U1686 2.984 . S
C1689 O1687 1.353 . S
C1689 O1688 1.286 . S
C1689 C1691 1.363 . S
C1690 C1680 1.465 . S
C1690 U1686 2.847 . S
C1690 O1704 1.249 . S
C1690 O1705 1.202 . S
C1691 C1689 1.363 . S
C1691 C1693 1.408 . S
C1691 C1696 1.342 . S
C1692 C1693 1.310 . S
C1692 C1695 1.461 . S
C1692 H1712 0.932 . S
C1693 C1691 1.408 . S
C1693 C1692 1.310 . S
C1693 H1713 0.930 . S
C1694 C1695 1.474 . S
C1694 C1696 1.285 . S
C1694 H1714 0.929 . S
C1695 C1692 1.461 . S
C1695 C1694 1.474 . S
C1696 C1691 1.342 . S
C1696 C1694 1.285 . S
C1696 H1715 0.930 . S
C1697 C1700 1.424 . S
C1697 C1702 1.245 . S
C1697 C1703 1.428 . S
C1698 C1701 1.260 . S
C1698 C1702 1.477 . S
C1698 H1716 0.932 . S
C1699 C1700 1.384 . S
C1699 C1701 1.479 . S
C1699 H1717 0.929 . S
C1700 C1697 1.424 . S
C1700 C1699 1.384 . S
C1700 H1718 0.928 . S
C1701 C1698 1.260 . S
C1701 C1699 1.479 . S
C1702 C1697 1.245 . S
C1702 C1698 1.477 . S
C1702 H1719 0.932 . S
C1703 U1686 2.882 . S
C1703 C1697 1.428 . S
C1703 O1706 1.301 . S
C1703 O1707 1.282 . S
O1704 U1686 2.441 . S
O1704 C1690 1.249 . S
O1705 U1686 2.420 . S
O1705 C1690 1.202 . S
O1706 U1686 2.455 . S
O1706 C1703 1.301 . S
O1707 U1686 2.449 . S
O1707 C1703 1.282 . S
H1708 C1681 0.931 . S
H1709 C1683 0.929 . S
H1710 C1684 0.930 . S
H1711 C1685 0.931 . S
H1712 C1692 0.932 . S
H1713 C1693 0.930 . S
H1714 C1694 0.929 . S
H1715 C1696 0.930 . S
H1716 C1698 0.932 . S
H1717 C1699 0.929 . S
H1718 C1700 0.928 . S
H1719 C1702 0.932 . S
C1720 C1721 1.264 . S
C1720 C1725 1.479 . S
C1720 C1730 1.465 . S
C1721 C1720 1.264 . S
C1721 C1723 1.339 . S
C1721 H1748 0.931 . S
C1722 C1723 1.395 . S
C1722 C1724 1.320 . S
C1723 C1721 1.339 . S
C1723 C1722 1.395 . S
C1723 H1749 0.929 . S
C1724 C1722 1.320 . S
C1724 C1725 1.405 . S
C1724 H1750 0.930 . S
C1725 C1720 1.479 . S
C1725 C1724 1.405 . S
C1725 H1751 0.931 . S
U1726 O1727 2.454 . S
U1726 O1728 2.458 . S
U1726 C1729 2.984 . S
U1726 C1730 2.847 . S
U1726 C1743 2.882 . S
U1726 O1744 2.441 . S
U1726 O1745 2.420 . S
U1726 O1746 2.455 . S
U1726 O1747 2.449 . S
O1727 U1726 2.454 . S
O1727 C1729 1.353 . S
O1728 U1726 2.458 . S
O1728 C1729 1.286 . S
C1729 U1726 2.984 . S
C1729 O1727 1.353 . S
C1729 O1728 1.286 . S
C1729 C1731 1.363 . S
C1730 C1720 1.465 . S
C1730 U1726 2.847 . S
C1730 O1744 1.249 . S
C1730 O1745 1.202 . S
C1731 C1729 1.363 . S
C1731 C1733 1.408 . S
C1731 C1736 1.342 . S
C1732 C1733 1.310 . S
C1732 C1735 1.461 . S
C1732 H1752 0.932 . S
C1733 C1731 1.408 . S
C1733 C1732 1.310 . S
C1733 H1753 0.930 . S
C1734 C1735 1.474 . S
C1734 C1736 1.285 . S
C1734 H1754 0.929 . S
C1735 C1732 1.461 . S
C1735 C1734 1.474 . S
C1736 C1731 1.342 . S
C1736 C1734 1.285 . S
C1736 H1755 0.930 . S
C1737 C1740 1.424 . S
C1737 C1742 1.245 . S
C1737 C1743 1.428 . S
C1738 C1741 1.260 . S
C1738 C1742 1.477 . S
C1738 H1756 0.932 . S
C1739 C1740 1.384 . S
C1739 C1741 1.479 . S
C1739 H1757 0.929 . S
C1740 C1737 1.424 . S
C1740 C1739 1.384 . S
C1740 H1758 0.928 . S
C1741 C1738 1.260 . S
C1741 C1739 1.479 . S
C1742 C1737 1.245 . S
C1742 C1738 1.477 . S
C1742 H1759 0.932 . S
C1743 U1726 2.882 . S
C1743 C1737 1.428 . S
C1743 O1746 1.301 . S
C1743 O1747 1.282 . S
O1744 U1726 2.441 . S
O1744 C1730 1.249 . S
O1745 U1726 2.420 . S
O1745 C1730 1.202 . S
O1746 U1726 2.455 . S
O1746 C1743 1.301 . S
O1747 U1726 2.449 . S
O1747 C1743 1.282 . S
H1748 C1721 0.931 . S
H1749 C1723 0.929 . S
H1750 C1724 0.930 . S
H1751 C1725 0.931 . S
H1752 C1732 0.932 . S
H1753 C1733 0.930 . S
H1754 C1734 0.929 . S
H1755 C1736 0.930 . S
H1756 C1738 0.932 . S
H1757 C1739 0.929 . S
H1758 C1740 0.928 . S
H1759 C1742 0.932 . S
C1760 C1761 1.264 . S
C1760 C1765 1.479 . S
C1760 C1770 1.465 . S
C1761 C1760 1.264 . S
C1761 C1763 1.339 . S
C1761 H1788 0.931 . S
C1762 C1763 1.395 . S
C1762 C1764 1.320 . S
C1763 C1761 1.339 . S
C1763 C1762 1.395 . S
C1763 H1789 0.929 . S
C1764 C1762 1.320 . S
C1764 C1765 1.405 . S
C1764 H1790 0.930 . S
C1765 C1760 1.479 . S
C1765 C1764 1.405 . S
C1765 H1791 0.931 . S
U1766 O1767 2.454 . S
U1766 O1768 2.458 . S
U1766 C1769 2.984 . S
U1766 C1770 2.847 . S
U1766 C1783 2.882 . S
U1766 O1784 2.441 . S
U1766 O1785 2.420 . S
U1766 O1786 2.455 . S
U1766 O1787 2.449 . S
O1767 U1766 2.454 . S
O1767 C1769 1.353 . S
O1768 U1766 2.458 . S
O1768 C1769 1.286 . S
C1769 U1766 2.984 . S
C1769 O1767 1.353 . S
C1769 O1768 1.286 . S
C1769 C1771 1.363 . S
C1770 C1760 1.465 . S
C1770 U1766 2.847 . S
C1770 O1784 1.249 . S
C1770 O1785 1.202 . S
C1771 C1769 1.363 . S
C1771 C1773 1.408 . S
C1771 C1776 1.342 . S
C1772 C1773 1.310 . S
C1772 C1775 1.461 . S
C1772 H1792 0.932 . S
C1773 C1771 1.408 . S
C1773 C1772 1.310 . S
C1773 H1793 0.930 . S
C1774 C1775 1.474 . S
C1774 C1776 1.285 . S
C1774 H1794 0.929 . S
C1775 C1772 1.461 . S
C1775 C1774 1.474 . S
C1776 C1771 1.342 . S
C1776 C1774 1.285 . S
C1776 H1795 0.930 . S
C1777 C1780 1.424 . S
C1777 C1782 1.245 . S
C1777 C1783 1.428 . S
C1778 C1781 1.260 . S
C1778 C1782 1.477 . S
C1778 H1796 0.932 . S
C1779 C1780 1.384 . S
C1779 C1781 1.479 . S
C1779 H1797 0.929 . S
C1780 C1777 1.424 . S
C1780 C1779 1.384 . S
C1780 H1798 0.928 . S
C1781 C1778 1.260 . S
C1781 C1779 1.479 . S
C1782 C1777 1.245 . S
C1782 C1778 1.477 . S
C1782 H1799 0.932 . S
C1783 U1766 2.882 . S
C1783 C1777 1.428 . S
C1783 O1786 1.301 . S
C1783 O1787 1.282 . S
O1784 U1766 2.441 . S
O1784 C1770 1.249 . S
O1785 U1766 2.420 . S
O1785 C1770 1.202 . S
O1786 U1766 2.455 . S
O1786 C1783 1.301 . S
O1787 U1766 2.449 . S
O1787 C1783 1.282 . S
H1788 C1761 0.931 . S
H1789 C1763 0.929 . S
H1790 C1764 0.930 . S
H1791 C1765 0.931 . S
H1792 C1772 0.932 . S
H1793 C1773 0.930 . S
H1794 C1774 0.929 . S
H1795 C1776 0.930 . S
H1796 C1778 0.932 . S
H1797 C1779 0.929 . S
H1798 C1780 0.928 . S
H1799 C1782 0.932 . S
C1800 C1801 1.264 . S
C1800 C1805 1.479 . S
C1800 C1810 1.465 . S
C1801 C1800 1.264 . S
C1801 C1803 1.339 . S
C1801 H1828 0.931 . S
C1802 C1803 1.395 . S
C1802 C1804 1.320 . S
C1803 C1801 1.339 . S
C1803 C1802 1.395 . S
C1803 H1829 0.929 . S
C1804 C1802 1.320 . S
C1804 C1805 1.405 . S
C1804 H1830 0.930 . S
C1805 C1800 1.479 . S
C1805 C1804 1.405 . S
C1805 H1831 0.931 . S
U1806 O1807 2.454 . S
U1806 O1808 2.458 . S
U1806 C1809 2.984 . S
U1806 C1810 2.847 . S
U1806 C1823 2.882 . S
U1806 O1824 2.441 . S
U1806 O1825 2.420 . S
U1806 O1826 2.455 . S
U1806 O1827 2.449 . S
O1807 U1806 2.454 . S
O1807 C1809 1.353 . S
O1808 U1806 2.458 . S
O1808 C1809 1.286 . S
C1809 U1806 2.984 . S
C1809 O1807 1.353 . S
C1809 O1808 1.286 . S
C1809 C1811 1.363 . S
C1810 C1800 1.465 . S
C1810 U1806 2.847 . S
C1810 O1824 1.249 . S
C1810 O1825 1.202 . S
C1811 C1809 1.363 . S
C1811 C1813 1.408 . S
C1811 C1816 1.342 . S
C1812 C1813 1.310 . S
C1812 C1815 1.461 . S
C1812 H1832 0.932 . S
C1813 C1811 1.408 . S
C1813 C1812 1.310 . S
C1813 H1833 0.930 . S
C1814 C1815 1.474 . S
C1814 C1816 1.285 . S
C1814 H1834 0.929 . S
C1815 C1812 1.461 . S
C1815 C1814 1.474 . S
C1816 C1811 1.342 . S
C1816 C1814 1.285 . S
C1816 H1835 0.930 . S
C1817 C1820 1.424 . S
C1817 C1822 1.245 . S
C1817 C1823 1.428 . S
C1818 C1821 1.260 . S
C1818 C1822 1.477 . S
C1818 H1836 0.932 . S
C1819 C1820 1.384 . S
C1819 C1821 1.479 . S
C1819 H1837 0.929 . S
C1820 C1817 1.424 . S
C1820 C1819 1.384 . S
C1820 H1838 0.928 . S
C1821 C1818 1.260 . S
C1821 C1819 1.479 . S
C1822 C1817 1.245 . S
C1822 C1818 1.477 . S
C1822 H1839 0.932 . S
C1823 U1806 2.882 . S
C1823 C1817 1.428 . S
C1823 O1826 1.301 . S
C1823 O1827 1.282 . S
O1824 U1806 2.441 . S
O1824 C1810 1.249 . S
O1825 U1806 2.420 . S
O1825 C1810 1.202 . S
O1826 U1806 2.455 . S
O1826 C1823 1.301 . S
O1827 U1806 2.449 . S
O1827 C1823 1.282 . S
H1828 C1801 0.931 . S
H1829 C1803 0.929 . S
H1830 C1804 0.930 . S
H1831 C1805 0.931 . S
H1832 C1812 0.932 . S
H1833 C1813 0.930 . S
H1834 C1814 0.929 . S
H1835 C1816 0.930 . S
H1836 C1818 0.932 . S
H1837 C1819 0.929 . S
H1838 C1820 0.928 . S
H1839 C1822 0.932 . S
C1840 C1841 1.264 . S
C1840 C1845 1.479 . S
C1840 C1850 1.465 . S
C1841 C1840 1.264 . S
C1841 C1843 1.339 . S
C1841 H1868 0.931 . S
C1842 C1843 1.395 . S
C1842 C1844 1.320 . S
C1843 C1841 1.339 . S
C1843 C1842 1.395 . S
C1843 H1869 0.929 . S
C1844 C1842 1.320 . S
C1844 C1845 1.405 . S
C1844 H1870 0.930 . S
C1845 C1840 1.479 . S
C1845 C1844 1.405 . S
C1845 H1871 0.931 . S
U1846 O1847 2.454 . S
U1846 O1848 2.458 . S
U1846 C1849 2.984 . S
U1846 C1850 2.847 . S
U1846 C1863 2.882 . S
U1846 O1864 2.441 . S
U1846 O1865 2.420 . S
U1846 O1866 2.455 . S
U1846 O1867 2.449 . S
O1847 U1846 2.454 . S
O1847 C1849 1.353 . S
O1848 U1846 2.458 . S
O1848 C1849 1.286 . S
C1849 U1846 2.984 . S
C1849 O1847 1.353 . S
C1849 O1848 1.286 . S
C1849 C1851 1.363 . S
C1850 C1840 1.465 . S
C1850 U1846 2.847 . S
C1850 O1864 1.249 . S
C1850 O1865 1.202 . S
C1851 C1849 1.363 . S
C1851 C1853 1.408 . S
C1851 C1856 1.342 . S
C1852 C1853 1.310 . S
C1852 C1855 1.461 . S
C1852 H1872 0.932 . S
C1853 C1851 1.408 . S
C1853 C1852 1.310 . S
C1853 H1873 0.930 . S
C1854 C1855 1.474 . S
C1854 C1856 1.285 . S
C1854 H1874 0.929 . S
C1855 C1852 1.461 . S
C1855 C1854 1.474 . S
C1856 C1851 1.342 . S
C1856 C1854 1.285 . S
C1856 H1875 0.930 . S
C1857 C1860 1.424 . S
C1857 C1862 1.245 . S
C1857 C1863 1.428 . S
C1858 C1861 1.260 . S
C1858 C1862 1.477 . S
C1858 H1876 0.932 . S
C1859 C1860 1.384 . S
C1859 C1861 1.479 . S
C1859 H1877 0.929 . S
C1860 C1857 1.424 . S
C1860 C1859 1.384 . S
C1860 H1878 0.928 . S
C1861 C1858 1.260 . S
C1861 C1859 1.479 . S
C1862 C1857 1.245 . S
C1862 C1858 1.477 . S
C1862 H1879 0.932 . S
C1863 U1846 2.882 . S
C1863 C1857 1.428 . S
C1863 O1866 1.301 . S
C1863 O1867 1.282 . S
O1864 U1846 2.441 . S
O1864 C1850 1.249 . S
O1865 U1846 2.420 . S
O1865 C1850 1.202 . S
O1866 U1846 2.455 . S
O1866 C1863 1.301 . S
O1867 U1846 2.449 . S
O1867 C1863 1.282 . S
H1868 C1841 0.931 . S
H1869 C1843 0.929 . S
H1870 C1844 0.930 . S
H1871 C1845 0.931 . S
H1872 C1852 0.932 . S
H1873 C1853 0.930 . S
H1874 C1854 0.929 . S
H1875 C1856 0.930 . S
H1876 C1858 0.932 . S
H1877 C1859 0.929 . S
H1878 C1860 0.928 . S
H1879 C1862 0.932 . S
C1880 C1881 1.264 . S
C1880 C1885 1.479 . S
C1880 C1890 1.465 . S
C1881 C1880 1.264 . S
C1881 C1883 1.339 . S
C1881 H1908 0.931 . S
C1882 C1883 1.395 . S
C1882 C1884 1.320 . S
C1883 C1881 1.339 . S
C1883 C1882 1.395 . S
C1883 H1909 0.929 . S
C1884 C1882 1.320 . S
C1884 C1885 1.405 . S
C1884 H1910 0.930 . S
C1885 C1880 1.479 . S
C1885 C1884 1.405 . S
C1885 H1911 0.931 . S
U1886 O1887 2.454 . S
U1886 O1888 2.458 . S
U1886 C1889 2.984 . S
U1886 C1890 2.847 . S
U1886 C1903 2.882 . S
U1886 O1904 2.441 . S
U1886 O1905 2.420 . S
U1886 O1906 2.455 . S
U1886 O1907 2.449 . S
O1887 U1886 2.454 . S
O1887 C1889 1.353 . S
O1888 U1886 2.458 . S
O1888 C1889 1.286 . S
C1889 U1886 2.984 . S
C1889 O1887 1.353 . S
C1889 O1888 1.286 . S
C1889 C1891 1.363 . S
C1890 C1880 1.465 . S
C1890 U1886 2.847 . S
C1890 O1904 1.249 . S
C1890 O1905 1.202 . S
C1891 C1889 1.363 . S
C1891 C1893 1.408 . S
C1891 C1896 1.342 . S
C1892 C1893 1.310 . S
C1892 C1895 1.461 . S
C1892 H1912 0.932 . S
C1893 C1891 1.408 . S
C1893 C1892 1.310 . S
C1893 H1913 0.930 . S
C1894 C1895 1.474 . S
C1894 C1896 1.285 . S
C1894 H1914 0.929 . S
C1895 C1892 1.461 . S
C1895 C1894 1.474 . S
C1896 C1891 1.342 . S
C1896 C1894 1.285 . S
C1896 H1915 0.930 . S
C1897 C1900 1.424 . S
C1897 C1902 1.245 . S
C1897 C1903 1.428 . S
C1898 C1901 1.260 . S
C1898 C1902 1.477 . S
C1898 H1916 0.932 . S
C1899 C1900 1.384 . S
C1899 C1901 1.479 . S
C1899 H1917 0.929 . S
C1900 C1897 1.424 . S
C1900 C1899 1.384 . S
C1900 H1918 0.928 . S
C1901 C1898 1.260 . S
C1901 C1899 1.479 . S
C1902 C1897 1.245 . S
C1902 C1898 1.477 . S
C1902 H1919 0.932 . S
C1903 U1886 2.882 . S
C1903 C1897 1.428 . S
C1903 O1906 1.301 . S
C1903 O1907 1.282 . S
O1904 U1886 2.441 . S
O1904 C1890 1.249 . S
O1905 U1886 2.420 . S
O1905 C1890 1.202 . S
O1906 U1886 2.455 . S
O1906 C1903 1.301 . S
O1907 U1886 2.449 . S
O1907 C1903 1.282 . S
H1908 C1881 0.931 . S
H1909 C1883 0.929 . S
H1910 C1884 0.930 . S
H1911 C1885 0.931 . S
H1912 C1892 0.932 . S
H1913 C1893 0.930 . S
H1914 C1894 0.929 . S
H1915 C1896 0.930 . S
H1916 C1898 0.932 . S
H1917 C1899 0.929 . S
H1918 C1900 0.928 . S
H1919 C1902 0.932 . S
C1920 C1921 1.264 . S
C1920 C1925 1.479 . S
C1920 C1930 1.465 . S
C1921 C1920 1.264 . S
C1921 C1923 1.339 . S
C1921 H1948 0.931 . S
C1922 C1923 1.395 . S
C1922 C1924 1.320 . S
C1923 C1921 1.339 . S
C1923 C1922 1.395 . S
C1923 H1949 0.929 . S
C1924 C1922 1.320 . S
C1924 C1925 1.405 . S
C1924 H1950 0.930 . S
C1925 C1920 1.479 . S
C1925 C1924 1.405 . S
C1925 H1951 0.931 . S
U1926 O1927 2.454 . S
U1926 O1928 2.458 . S
U1926 C1929 2.984 . S
U1926 C1930 2.847 . S
U1926 C1943 2.882 . S
U1926 O1944 2.441 . S
U1926 O1945 2.420 . S
U1926 O1946 2.455 . S
U1926 O1947 2.449 . S
O1927 U1926 2.454 . S
O1927 C1929 1.353 . S
O1928 U1926 2.458 . S
O1928 C1929 1.286 . S
C1929 U1926 2.984 . S
C1929 O1927 1.353 . S
C1929 O1928 1.286 . S
C1929 C1931 1.363 . S
C1930 C1920 1.465 . S
C1930 U1926 2.847 . S
C1930 O1944 1.249 . S
C1930 O1945 1.202 . S
C1931 C1929 1.363 . S
C1931 C1933 1.408 . S
C1931 C1936 1.342 . S
C1932 C1933 1.310 . S
C1932 C1935 1.461 . S
C1932 H1952 0.932 . S
C1933 C1931 1.408 . S
C1933 C1932 1.310 . S
C1933 H1953 0.930 . S
C1934 C1935 1.474 . S
C1934 C1936 1.285 . S
C1934 H1954 0.929 . S
C1935 C1932 1.461 . S
C1935 C1934 1.474 . S
C1936 C1931 1.342 . S
C1936 C1934 1.285 . S
C1936 H1955 0.930 . S
C1937 C1940 1.424 . S
C1937 C1942 1.245 . S
C1937 C1943 1.428 . S
C1938 C1941 1.260 . S
C1938 C1942 1.477 . S
C1938 H1956 0.932 . S
C1939 C1940 1.384 . S
C1939 C1941 1.479 . S
C1939 H1957 0.929 . S
C1940 C1937 1.424 . S
C1940 C1939 1.384 . S
C1940 H1958 0.928 . S
C1941 C1938 1.260 . S
C1941 C1939 1.479 . S
C1942 C1937 1.245 . S
C1942 C1938 1.477 . S
C1942 H1959 0.932 . S
C1943 U1926 2.882 . S
C1943 C1937 1.428 . S
C1943 O1946 1.301 . S
C1943 O1947 1.282 . S
O1944 U1926 2.441 . S
O1944 C1930 1.249 . S
O1945 U1926 2.420 . S
O1945 C1930 1.202 . S
O1946 U1926 2.455 . S
O1946 C1943 1.301 . S
O1947 U1926 2.449 . S
O1947 C1943 1.282 . S
H1948 C1921 0.931 . S
H1949 C1923 0.929 . S
H1950 C1924 0.930 . S
H1951 C1925 0.931 . S
H1952 C1932 0.932 . S
H1953 C1933 0.930 . S
H1954 C1934 0.929 . S
H1955 C1936 0.930 . S
H1956 C1938 0.932 . S
H1957 C1939 0.929 . S
H1958 C1940 0.928 . S
H1959 C1942 0.932 . S
C1960 C1961 1.264 . S
C1960 C1965 1.479 . S
C1960 C1970 1.465 . S
C1961 C1960 1.264 . S
C1961 C1963 1.339 . S
C1961 H1988 0.931 . S
C1962 C1963 1.395 . S
C1962 C1964 1.320 . S
C1963 C1961 1.339 . S
C1963 C1962 1.395 . S
C1963 H1989 0.929 . S
C1964 C1962 1.320 . S
C1964 C1965 1.405 . S
C1964 H1990 0.930 . S
C1965 C1960 1.479 . S
C1965 C1964 1.405 . S
C1965 H1991 0.931 . S
U1966 O1967 2.454 . S
U1966 O1968 2.458 . S
U1966 C1969 2.984 . S
U1966 C1970 2.847 . S
U1966 C1983 2.882 . S
U1966 O1984 2.441 . S
U1966 O1985 2.420 . S
U1966 O1986 2.455 . S
U1966 O1987 2.449 . S
O1967 U1966 2.454 . S
O1967 C1969 1.353 . S
O1968 U1966 2.458 . S
O1968 C1969 1.286 . S
C1969 U1966 2.984 . S
C1969 O1967 1.353 . S
C1969 O1968 1.286 . S
C1969 C1971 1.363 . S
C1970 C1960 1.465 . S
C1970 U1966 2.847 . S
C1970 O1984 1.249 . S
C1970 O1985 1.202 . S
C1971 C1969 1.363 . S
C1971 C1973 1.408 . S
C1971 C1976 1.342 . S
C1972 C1973 1.310 . S
C1972 C1975 1.461 . S
C1972 H1992 0.932 . S
C1973 C1971 1.408 . S
C1973 C1972 1.310 . S
C1973 H1993 0.930 . S
C1974 C1975 1.474 . S
C1974 C1976 1.285 . S
C1974 H1994 0.929 . S
C1975 C1972 1.461 . S
C1975 C1974 1.474 . S
C1976 C1971 1.342 . S
C1976 C1974 1.285 . S
C1976 H1995 0.930 . S
C1977 C1980 1.424 . S
C1977 C1982 1.245 . S
C1977 C1983 1.428 . S
C1978 C1981 1.260 . S
C1978 C1982 1.477 . S
C1978 H1996 0.932 . S
C1979 C1980 1.384 . S
C1979 C1981 1.479 . S
C1979 H1997 0.929 . S
C1980 C1977 1.424 . S
C1980 C1979 1.384 . S
C1980 H1998 0.928 . S
C1981 C1978 1.260 . S
C1981 C1979 1.479 . S
C1982 C1977 1.245 . S
C1982 C1978 1.477 . S
C1982 H1999 0.932 . S
C1983 U1966 2.882 . S
C1983 C1977 1.428 . S
C1983 O1986 1.301 . S
C1983 O1987 1.282 . S
O1984 U1966 2.441 . S
O1984 C1970 1.249 . S
O1985 U1966 2.420 . S
O1985 C1970 1.202 . S
O1986 U1966 2.455 . S
O1986 C1983 1.301 . S
O1987 U1966 2.449 . S
O1987 C1983 1.282 . S
H1988 C1961 0.931 . S
H1989 C1963 0.929 . S
H1990 C1964 0.930 . S
H1991 C1965 0.931 . S
H1992 C1972 0.932 . S
H1993 C1973 0.930 . S
H1994 C1974 0.929 . S
H1995 C1976 0.930 . S
H1996 C1978 0.932 . S
H1997 C1979 0.929 . S
H1998 C1980 0.928 . S
H1999 C1982 0.932 . S
C2000 C2001 1.264 . S
C2000 C2005 1.479 . S
C2000 C2010 1.465 . S
C2001 C2000 1.264 . S
C2001 C2003 1.339 . S
C2001 H2028 0.931 . S
C2002 C2003 1.395 . S
C2002 C2004 1.320 . S
C2003 C2001 1.339 . S
C2003 C2002 1.395 . S
C2003 H2029 0.929 . S
C2004 C2002 1.320 . S
C2004 C2005 1.405 . S
C2004 H2030 0.930 . S
C2005 C2000 1.479 . S
C2005 C2004 1.405 . S
C2005 H2031 0.931 . S
U2006 O2007 2.454 . S
U2006 O2008 2.458 . S
U2006 C2009 2.984 . S
U2006 C2010 2.847 . S
U2006 C2023 2.882 . S
U2006 O2024 2.441 . S
U2006 O2025 2.420 . S
U2006 O2026 2.455 . S
U2006 O2027 2.449 . S
O2007 U2006 2.454 . S
O2007 C2009 1.353 . S
O2008 U2006 2.458 . S
O2008 C2009 1.286 . S
C2009 U2006 2.984 . S
C2009 O2007 1.353 . S
C2009 O2008 1.286 . S
C2009 C2011 1.363 . S
C2010 C2000 1.465 . S
C2010 U2006 2.847 . S
C2010 O2024 1.249 . S
C2010 O2025 1.202 . S
C2011 C2009 1.363 . S
C2011 C2013 1.408 . S
C2011 C2016 1.342 . S
C2012 C2013 1.310 . S
C2012 C2015 1.461 . S
C2012 H2032 0.932 . S
C2013 C2011 1.408 . S
C2013 C2012 1.310 . S
C2013 H2033 0.930 . S
C2014 C2015 1.474 . S
C2014 C2016 1.285 . S
C2014 H2034 0.929 . S
C2015 C2012 1.461 . S
C2015 C2014 1.474 . S
C2016 C2011 1.342 . S
C2016 C2014 1.285 . S
C2016 H2035 0.930 . S
C2017 C2020 1.424 . S
C2017 C2022 1.245 . S
C2017 C2023 1.428 . S
C2018 C2021 1.260 . S
C2018 C2022 1.477 . S
C2018 H2036 0.932 . S
C2019 C2020 1.384 . S
C2019 C2021 1.479 . S
C2019 H2037 0.929 . S
C2020 C2017 1.424 . S
C2020 C2019 1.384 . S
C2020 H2038 0.928 . S
C2021 C2018 1.260 . S
C2021 C2019 1.479 . S
C2022 C2017 1.245 . S
C2022 C2018 1.477 . S
C2022 H2039 0.932 . S
C2023 U2006 2.882 . S
C2023 C2017 1.428 . S
C2023 O2026 1.301 . S
C2023 O2027 1.282 . S
O2024 U2006 2.441 . S
O2024 C2010 1.249 . S
O2025 U2006 2.420 . S
O2025 C2010 1.202 . S
O2026 U2006 2.455 . S
O2026 C2023 1.301 . S
O2027 U2006 2.449 . S
O2027 C2023 1.282 . S
H2028 C2001 0.931 . S
H2029 C2003 0.929 . S
H2030 C2004 0.930 . S
H2031 C2005 0.931 . S
H2032 C2012 0.932 . S
H2033 C2013 0.930 . S
H2034 C2014 0.929 . S
H2035 C2016 0.930 . S
H2036 C2018 0.932 . S
H2037 C2019 0.929 . S
H2038 C2020 0.928 . S
H2039 C2022 0.932 . S
C2040 C2041 1.264 . S
C2040 C2045 1.479 . S
C2040 C2050 1.465 . S
C2041 C2040 1.264 . S
C2041 C2043 1.339 . S
C2041 H2068 0.931 . S
C2042 C2043 1.395 . S
C2042 C2044 1.320 . S
C2043 C2041 1.339 . S
C2043 C2042 1.395 . S
C2043 H2069 0.929 . S
C2044 C2042 1.320 . S
C2044 C2045 1.405 . S
C2044 H2070 0.930 . S
C2045 C2040 1.479 . S
C2045 C2044 1.405 . S
C2045 H2071 0.931 . S
U2046 O2047 2.454 . S
U2046 O2048 2.458 . S
U2046 C2049 2.984 . S
U2046 C2050 2.847 . S
U2046 C2063 2.882 . S
U2046 O2064 2.441 . S
U2046 O2065 2.420 . S
U2046 O2066 2.455 . S
U2046 O2067 2.449 . S
O2047 U2046 2.454 . S
O2047 C2049 1.353 . S
O2048 U2046 2.458 . S
O2048 C2049 1.286 . S
C2049 U2046 2.984 . S
C2049 O2047 1.353 . S
C2049 O2048 1.286 . S
C2049 C2051 1.363 . S
C2050 C2040 1.465 . S
C2050 U2046 2.847 . S
C2050 O2064 1.249 . S
C2050 O2065 1.202 . S
C2051 C2049 1.363 . S
C2051 C2053 1.408 . S
C2051 C2056 1.342 . S
C2052 C2053 1.310 . S
C2052 C2055 1.461 . S
C2052 H2072 0.932 . S
C2053 C2051 1.408 . S
C2053 C2052 1.310 . S
C2053 H2073 0.930 . S
C2054 C2055 1.474 . S
C2054 C2056 1.285 . S
C2054 H2074 0.929 . S
C2055 C2052 1.461 . S
C2055 C2054 1.474 . S
C2056 C2051 1.342 . S
C2056 C2054 1.285 . S
C2056 H2075 0.930 . S
C2057 C2060 1.424 . S
C2057 C2062 1.245 . S
C2057 C2063 1.428 . S
C2058 C2061 1.260 . S
C2058 C2062 1.477 . S
C2058 H2076 0.932 . S
C2059 C2060 1.384 . S
C2059 C2061 1.479 . S
C2059 H2077 0.929 . S
C2060 C2057 1.424 . S
C2060 C2059 1.384 . S
C2060 H2078 0.928 . S
C2061 C2058 1.260 . S
C2061 C2059 1.479 . S
C2062 C2057 1.245 . S
C2062 C2058 1.477 . S
C2062 H2079 0.932 . S
C2063 U2046 2.882 . S
C2063 C2057 1.428 . S
C2063 O2066 1.301 . S
C2063 O2067 1.282 . S
O2064 U2046 2.441 . S
O2064 C2050 1.249 . S
O2065 U2046 2.420 . S
O2065 C2050 1.202 . S
O2066 U2046 2.455 . S
O2066 C2063 1.301 . S
O2067 U2046 2.449 . S
O2067 C2063 1.282 . S
H2068 C2041 0.931 . S
H2069 C2043 0.929 . S
H2070 C2044 0.930 . S
H2071 C2045 0.931 . S
H2072 C2052 0.932 . S
H2073 C2053 0.930 . S
H2074 C2054 0.929 . S
H2075 C2056 0.930 . S
H2076 C2058 0.932 . S
H2077 C2059 0.929 . S
H2078 C2060 0.928 . S
H2079 C2062 0.932 . S
C2080 C2081 1.264 . S
C2080 C2085 1.479 . S
C2080 C2090 1.465 . S
C2081 C2080 1.264 . S
C2081 C2083 1.339 . S
C2081 H2108 0.931 . S
C2082 C2083 1.395 . S
C2082 C2084 1.320 . S
C2083 C2081 1.339 . S
C2083 C2082 1.395 . S
C2083 H2109 0.929 . S
C2084 C2082 1.320 . S
C2084 C2085 1.405 . S
C2084 H2110 0.930 . S
C2085 C2080 1.479 . S
C2085 C2084 1.405 . S
C2085 H2111 0.931 . S
U2086 O2087 2.454 . S
U2086 O2088 2.458 . S
U2086 C2089 2.984 . S
U2086 C2090 2.847 . S
U2086 C2103 2.882 . S
U2086 O2104 2.441 . S
U2086 O2105 2.420 . S
U2086 O2106 2.455 . S
U2086 O2107 2.449 . S
O2087 U2086 2.454 . S
O2087 C2089 1.353 . S
O2088 U2086 2.458 . S
O2088 C2089 1.286 . S
C2089 U2086 2.984 . S
C2089 O2087 1.353 . S
C2089 O2088 1.286 . S
C2089 C2091 1.363 . S
C2090 C2080 1.465 . S
C2090 U2086 2.847 . S
C2090 O2104 1.249 . S
C2090 O2105 1.202 . S
C2091 C2089 1.363 . S
C2091 C2093 1.408 . S
C2091 C2096 1.342 . S
C2092 C2093 1.310 . S
C2092 C2095 1.461 . S
C2092 H2112 0.932 . S
C2093 C2091 1.408 . S
C2093 C2092 1.310 . S
C2093 H2113 0.930 . S
C2094 C2095 1.474 . S
C2094 C2096 1.285 . S
C2094 H2114 0.929 . S
C2095 C2092 1.461 . S
C2095 C2094 1.474 . S
C2096 C2091 1.342 . S
C2096 C2094 1.285 . S
C2096 H2115 0.930 . S
C2097 C2100 1.424 . S
C2097 C2102 1.245 . S
C2097 C2103 1.428 . S
C2098 C2101 1.260 . S
C2098 C2102 1.477 . S
C2098 H2116 0.932 . S
C2099 C2100 1.384 . S
C2099 C2101 1.479 . S
C2099 H2117 0.929 . S
C2100 C2097 1.424 . S
C2100 C2099 1.384 . S
C2100 H2118 0.928 . S
C2101 C2098 1.260 . S
C2101 C2099 1.479 . S
C2102 C2097 1.245 . S
C2102 C2098 1.477 . S
C2102 H2119 0.932 . S
C2103 U2086 2.882 . S
C2103 C2097 1.428 . S
C2103 O2106 1.301 . S
C2103 O2107 1.282 . S
O2104 U2086 2.441 . S
O2104 C2090 1.249 . S
O2105 U2086 2.420 . S
O2105 C2090 1.202 . S
O2106 U2086 2.455 . S
O2106 C2103 1.301 . S
O2107 U2086 2.449 . S
O2107 C2103 1.282 . S
H2108 C2081 0.931 . S
H2109 C2083 0.929 . S
H2110 C2084 0.930 . S
H2111 C2085 0.931 . S
H2112 C2092 0.932 . S
H2113 C2093 0.930 . S
H2114 C2094 0.929 . S
H2115 C2096 0.930 . S
H2116 C2098 0.932 . S
H2117 C2099 0.929 . S
H2118 C2100 0.928 . S
H2119 C2102 0.932 . S
C2120 C2121 1.264 . S
C2120 C2125 1.479 . S
C2120 C2130 1.465 . S
C2121 C2120 1.264 . S
C2121 C2123 1.339 . S
C2121 H2148 0.931 . S
C2122 C2123 1.395 . S
C2122 C2124 1.320 . S
C2123 C2121 1.339 . S
C2123 C2122 1.395 . S
C2123 H2149 0.929 . S
C2124 C2122 1.320 . S
C2124 C2125 1.405 . S
C2124 H2150 0.930 . S
C2125 C2120 1.479 . S
C2125 C2124 1.405 . S
C2125 H2151 0.931 . S
U2126 O2127 2.454 . S
U2126 O2128 2.458 . S
U2126 C2129 2.984 . S
U2126 C2130 2.847 . S
U2126 C2143 2.882 . S
U2126 O2144 2.441 . S
U2126 O2145 2.420 . S
U2126 O2146 2.455 . S
U2126 O2147 2.449 . S
O2127 U2126 2.454 . S
O2127 C2129 1.353 . S
O2128 U2126 2.458 . S
O2128 C2129 1.286 . S
C2129 U2126 2.984 . S
C2129 O2127 1.353 . S
C2129 O2128 1.286 . S
C2129 C2131 1.363 . S
C2130 C2120 1.465 . S
C2130 U2126 2.847 . S
C2130 O2144 1.249 . S
C2130 O2145 1.202 . S
C2131 C2129 1.363 . S
C2131 C2133 1.408 . S
C2131 C2136 1.342 . S
C2132 C2133 1.310 . S
C2132 C2135 1.461 . S
C2132 H2152 0.932 . S
C2133 C2131 1.408 . S
C2133 C2132 1.310 . S
C2133 H2153 0.930 . S
C2134 C2135 1.474 . S
C2134 C2136 1.285 . S
C2134 H2154 0.929 . S
C2135 C2132 1.461 . S
C2135 C2134 1.474 . S
C2136 C2131 1.342 . S
C2136 C2134 1.285 . S
C2136 H2155 0.930 . S
C2137 C2140 1.424 . S
C2137 C2142 1.245 . S
C2137 C2143 1.428 . S
C2138 C2141 1.260 . S
C2138 C2142 1.477 . S
C2138 H2156 0.932 . S
C2139 C2140 1.384 . S
C2139 C2141 1.479 . S
C2139 H2157 0.929 . S
C2140 C2137 1.424 . S
C2140 C2139 1.384 . S
C2140 H2158 0.928 . S
C2141 C2138 1.260 . S
C2141 C2139 1.479 . S
C2142 C2137 1.245 . S
C2142 C2138 1.477 . S
C2142 H2159 0.932 . S
C2143 U2126 2.882 . S
C2143 C2137 1.428 . S
C2143 O2146 1.301 . S
C2143 O2147 1.282 . S
O2144 U2126 2.441 . S
O2144 C2130 1.249 . S
O2145 U2126 2.420 . S
O2145 C2130 1.202 . S
O2146 U2126 2.455 . S
O2146 C2143 1.301 . S
O2147 U2126 2.449 . S
O2147 C2143 1.282 . S
H2148 C2121 0.931 . S
H2149 C2123 0.929 . S
H2150 C2124 0.930 . S
H2151 C2125 0.931 . S
H2152 C2132 0.932 . S
H2153 C2133 0.930 . S
H2154 C2134 0.929 . S
H2155 C2136 0.930 . S
H2156 C2138 0.932 . S
H2157 C2139 0.929 . S
H2158 C2140 0.928 . S
H2159 C2142 0.932 . S
C2160 C2161 1.264 . S
C2160 C2165 1.479 . S
C2160 C2170 1.465 . S
C2161 C2160 1.264 . S
C2161 C2163 1.339 . S
C2161 H2188 0.931 . S
C2162 C2163 1.395 . S
C2162 C2164 1.320 . S
C2163 C2161 1.339 . S
C2163 C2162 1.395 . S
C2163 H2189 0.929 . S
C2164 C2162 1.320 . S
C2164 C2165 1.405 . S
C2164 H2190 0.930 . S
C2165 C2160 1.479 . S
C2165 C2164 1.405 . S
C2165 H2191 0.931 . S
U2166 O2167 2.454 . S
U2166 O2168 2.458 . S
U2166 C2169 2.984 . S
U2166 C2170 2.847 . S
U2166 C2183 2.882 . S
U2166 O2184 2.441 . S
U2166 O2185 2.420 . S
U2166 O2186 2.455 . S
U2166 O2187 2.449 . S
O2167 U2166 2.454 . S
O2167 C2169 1.353 . S
O2168 U2166 2.458 . S
O2168 C2169 1.286 . S
C2169 U2166 2.984 . S
C2169 O2167 1.353 . S
C2169 O2168 1.286 . S
C2169 C2171 1.363 . S
C2170 C2160 1.465 . S
C2170 U2166 2.847 . S
C2170 O2184 1.249 . S
C2170 O2185 1.202 . S
C2171 C2169 1.363 . S
C2171 C2173 1.408 . S
C2171 C2176 1.342 . S
C2172 C2173 1.310 . S
C2172 C2175 1.461 . S
C2172 H2192 0.932 . S
C2173 C2171 1.408 . S
C2173 C2172 1.310 . S
C2173 H2193 0.930 . S
C2174 C2175 1.474 . S
C2174 C2176 1.285 . S
C2174 H2194 0.929 . S
C2175 C2172 1.461 . S
C2175 C2174 1.474 . S
C2176 C2171 1.342 . S
C2176 C2174 1.285 . S
C2176 H2195 0.930 . S
C2177 C2180 1.424 . S
C2177 C2182 1.245 . S
C2177 C2183 1.428 . S
C2178 C2181 1.260 . S
C2178 C2182 1.477 . S
C2178 H2196 0.932 . S
C2179 C2180 1.384 . S
C2179 C2181 1.479 . S
C2179 H2197 0.929 . S
C2180 C2177 1.424 . S
C2180 C2179 1.384 . S
C2180 H2198 0.928 . S
C2181 C2178 1.260 . S
C2181 C2179 1.479 . S
C2182 C2177 1.245 . S
C2182 C2178 1.477 . S
C2182 H2199 0.932 . S
C2183 U2166 2.882 . S
C2183 C2177 1.428 . S
C2183 O2186 1.301 . S
C2183 O2187 1.282 . S
O2184 U2166 2.441 . S
O2184 C2170 1.249 . S
O2185 U2166 2.420 . S
O2185 C2170 1.202 . S
O2186 U2166 2.455 . S
O2186 C2183 1.301 . S
O2187 U2166 2.449 . S
O2187 C2183 1.282 . S
H2188 C2161 0.931 . S
H2189 C2163 0.929 . S
H2190 C2164 0.930 . S
H2191 C2165 0.931 . S
H2192 C2172 0.932 . S
H2193 C2173 0.930 . S
H2194 C2174 0.929 . S
H2195 C2176 0.930 . S
H2196 C2178 0.932 . S
H2197 C2179 0.929 . S
H2198 C2180 0.928 . S
H2199 C2182 0.932 . S
C2200 C2201 1.264 . S
C2200 C2205 1.479 . S
C2200 C2210 1.465 . S
C2201 C2200 1.264 . S
C2201 C2203 1.339 . S
C2201 H2228 0.931 . S
C2202 C2203 1.395 . S
C2202 C2204 1.320 . S
C2203 C2201 1.339 . S
C2203 C2202 1.395 . S
C2203 H2229 0.929 . S
C2204 C2202 1.320 . S
C2204 C2205 1.405 . S
C2204 H2230 0.930 . S
C2205 C2200 1.479 . S
C2205 C2204 1.405 . S
C2205 H2231 0.931 . S
U2206 O2207 2.454 . S
U2206 O2208 2.458 . S
U2206 C2209 2.984 . S
U2206 C2210 2.847 . S
U2206 C2223 2.882 . S
U2206 O2224 2.441 . S
U2206 O2225 2.420 . S
U2206 O2226 2.455 . S
U2206 O2227 2.449 . S
O2207 U2206 2.454 . S
O2207 C2209 1.353 . S
O2208 U2206 2.458 . S
O2208 C2209 1.286 . S
C2209 U2206 2.984 . S
C2209 O2207 1.353 . S
C2209 O2208 1.286 . S
C2209 C2211 1.363 . S
C2210 C2200 1.465 . S
C2210 U2206 2.847 . S
C2210 O2224 1.249 . S
C2210 O2225 1.202 . S
C2211 C2209 1.363 . S
C2211 C2213 1.408 . S
C2211 C2216 1.342 . S
C2212 C2213 1.310 . S
C2212 C2215 1.461 . S
C2212 H2232 0.932 . S
C2213 C2211 1.408 . S
C2213 C2212 1.310 . S
C2213 H2233 0.930 . S
C2214 C2215 1.474 . S
C2214 C2216 1.285 . S
C2214 H2234 0.929 . S
C2215 C2212 1.461 . S
C2215 C2214 1.474 . S
C2216 C2211 1.342 . S
C2216 C2214 1.285 . S
C2216 H2235 0.930 . S
C2217 C2220 1.424 . S
C2217 C2222 1.245 . S
C2217 C2223 1.428 . S
C2218 C2221 1.260 . S
C2218 C2222 1.477 . S
C2218 H2236 0.932 . S
C2219 C2220 1.384 . S
C2219 C2221 1.479 . S
C2219 H2237 0.929 . S
C2220 C2217 1.424 . S
C2220 C2219 1.384 . S
C2220 H2238 0.928 . S
C2221 C2218 1.260 . S
C2221 C2219 1.479 . S
C2222 C2217 1.245 . S
C2222 C2218 1.477 . S
C2222 H2239 0.932 . S
C2223 U2206 2.882 . S
C2223 C2217 1.428 . S
C2223 O2226 1.301 . S
C2223 O2227 1.282 . S
O2224 U2206 2.441 . S
O2224 C2210 1.249 . S
O2225 U2206 2.420 . S
O2225 C2210 1.202 . S
O2226 U2206 2.455 . S
O2226 C2223 1.301 . S
O2227 U2206 2.449 . S
O2227 C2223 1.282 . S
H2228 C2201 0.931 . S
H2229 C2203 0.929 . S
H2230 C2204 0.930 . S
H2231 C2205 0.931 . S
H2232 C2212 0.932 . S
H2233 C2213 0.930 . S
H2234 C2214 0.929 . S
H2235 C2216 0.930 . S
H2236 C2218 0.932 . S
H2237 C2219 0.929 . S
H2238 C2220 0.928 . S
H2239 C2222 0.932 . S
C2240 C2241 1.264 . S
C2240 C2245 1.479 . S
C2240 C2250 1.465 . S
C2241 C2240 1.264 . S
C2241 C2243 1.339 . S
C2241 H2268 0.931 . S
C2242 C2243 1.395 . S
C2242 C2244 1.320 . S
C2243 C2241 1.339 . S
C2243 C2242 1.395 . S
C2243 H2269 0.929 . S
C2244 C2242 1.320 . S
C2244 C2245 1.405 . S
C2244 H2270 0.930 . S
C2245 C2240 1.479 . S
C2245 C2244 1.405 . S
C2245 H2271 0.931 . S
U2246 O2247 2.454 . S
U2246 O2248 2.458 . S
U2246 C2249 2.984 . S
U2246 C2250 2.847 . S
U2246 C2263 2.882 . S
U2246 O2264 2.441 . S
U2246 O2265 2.420 . S
U2246 O2266 2.455 . S
U2246 O2267 2.449 . S
O2247 U2246 2.454 . S
O2247 C2249 1.353 . S
O2248 U2246 2.458 . S
O2248 C2249 1.286 . S
C2249 U2246 2.984 . S
C2249 O2247 1.353 . S
C2249 O2248 1.286 . S
C2249 C2251 1.363 . S
C2250 C2240 1.465 . S
C2250 U2246 2.847 . S
C2250 O2264 1.249 . S
C2250 O2265 1.202 . S
C2251 C2249 1.363 . S
C2251 C2253 1.408 . S
C2251 C2256 1.342 . S
C2252 C2253 1.310 . S
C2252 C2255 1.461 . S
C2252 H2272 0.932 . S
C2253 C2251 1.408 . S
C2253 C2252 1.310 . S
C2253 H2273 0.930 . S
C2254 C2255 1.474 . S
C2254 C2256 1.285 . S
C2254 H2274 0.929 . S
C2255 C2252 1.461 . S
C2255 C2254 1.474 . S
C2256 C2251 1.342 . S
C2256 C2254 1.285 . S
C2256 H2275 0.930 . S
C2257 C2260 1.424 . S
C2257 C2262 1.245 . S
C2257 C2263 1.428 . S
C2258 C2261 1.260 . S
C2258 C2262 1.477 . S
C2258 H2276 0.932 . S
C2259 C2260 1.384 . S
C2259 C2261 1.479 . S
C2259 H2277 0.929 . S
C2260 C2257 1.424 . S
C2260 C2259 1.384 . S
C2260 H2278 0.928 . S
C2261 C2258 1.260 . S
C2261 C2259 1.479 . S
C2262 C2257 1.245 . S
C2262 C2258 1.477 . S
C2262 H2279 0.932 . S
C2263 U2246 2.882 . S
C2263 C2257 1.428 . S
C2263 O2266 1.301 . S
C2263 O2267 1.282 . S
O2264 U2246 2.441 . S
O2264 C2250 1.249 . S
O2265 U2246 2.420 . S
O2265 C2250 1.202 . S
O2266 U2246 2.455 . S
O2266 C2263 1.301 . S
O2267 U2246 2.449 . S
O2267 C2263 1.282 . S
H2268 C2241 0.931 . S
H2269 C2243 0.929 . S
H2270 C2244 0.930 . S
H2271 C2245 0.931 . S
H2272 C2252 0.932 . S
H2273 C2253 0.930 . S
H2274 C2254 0.929 . S
H2275 C2256 0.930 . S
H2276 C2258 0.932 . S
H2277 C2259 0.929 . S
H2278 C2260 0.928 . S
H2279 C2262 0.932 . S
C2280 C2281 1.264 . S
C2280 C2285 1.479 . S
C2280 C2290 1.465 . S
C2281 C2280 1.264 . S
C2281 C2283 1.339 . S
C2281 H2308 0.931 . S
C2282 C2283 1.395 . S
C2282 C2284 1.320 . S
C2283 C2281 1.339 . S
C2283 C2282 1.395 . S
C2283 H2309 0.929 . S
C2284 C2282 1.320 . S
C2284 C2285 1.405 . S
C2284 H2310 0.930 . S
C2285 C2280 1.479 . S
C2285 C2284 1.405 . S
C2285 H2311 0.931 . S
U2286 O2287 2.454 . S
U2286 O2288 2.458 . S
U2286 C2289 2.984 . S
U2286 C2290 2.847 . S
U2286 C2303 2.882 . S
U2286 O2304 2.441 . S
U2286 O2305 2.420 . S
U2286 O2306 2.455 . S
U2286 O2307 2.449 . S
O2287 U2286 2.454 . S
O2287 C2289 1.353 . S
O2288 U2286 2.458 . S
O2288 C2289 1.286 . S
C2289 U2286 2.984 . S
C2289 O2287 1.353 . S
C2289 O2288 1.286 . S
C2289 C2291 1.363 . S
C2290 C2280 1.465 . S
C2290 U2286 2.847 . S
C2290 O2304 1.249 . S
C2290 O2305 1.202 . S
C2291 C2289 1.363 . S
C2291 C2293 1.408 . S
C2291 C2296 1.342 . S
C2292 C2293 1.310 . S
C2292 C2295 1.461 . S
C2292 H2312 0.932 . S
C2293 C2291 1.408 . S
C2293 C2292 1.310 . S
C2293 H2313 0.930 . S
C2294 C2295 1.474 . S
C2294 C2296 1.285 . S
C2294 H2314 0.929 . S
C2295 C2292 1.461 . S
C2295 C2294 1.474 . S
C2296 C2291 1.342 . S
C2296 C2294 1.285 . S
C2296 H2315 0.930 . S
C2297 C2300 1.424 . S
C2297 C2302 1.245 . S
C2297 C2303 1.428 . S
C2298 C2301 1.260 . S
C2298 C2302 1.477 . S
C2298 H2316 0.932 . S
C2299 C2300 1.384 . S
C2299 C2301 1.479 . S
C2299 H2317 0.929 . S
C2300 C2297 1.424 . S
C2300 C2299 1.384 . S
C2300 H2318 0.928 . S
C2301 C2298 1.260 . S
C2301 C2299 1.479 . S
C2302 C2297 1.245 . S
C2302 C2298 1.477 . S
C2302 H2319 0.932 . S
C2303 U2286 2.882 . S
C2303 C2297 1.428 . S
C2303 O2306 1.301 . S
C2303 O2307 1.282 . S
O2304 U2286 2.441 . S
O2304 C2290 1.249 . S
O2305 U2286 2.420 . S
O2305 C2290 1.202 . S
O2306 U2286 2.455 . S
O2306 C2303 1.301 . S
O2307 U2286 2.449 . S
O2307 C2303 1.282 . S
H2308 C2281 0.931 . S
H2309 C2283 0.929 . S
H2310 C2284 0.930 . S
H2311 C2285 0.931 . S
H2312 C2292 0.932 . S
H2313 C2293 0.930 . S
H2314 C2294 0.929 . S
H2315 C2296 0.930 . S
H2316 C2298 0.932 . S
H2317 C2299 0.929 . S
H2318 C2300 0.928 . S
H2319 C2302 0.932 . S
C2320 C2321 1.264 . S
C2320 C2325 1.479 . S
C2320 C2330 1.465 . S
C2321 C2320 1.264 . S
C2321 C2323 1.339 . S
C2321 H2348 0.931 . S
C2322 C2323 1.395 . S
C2322 C2324 1.320 . S
C2323 C2321 1.339 . S
C2323 C2322 1.395 . S
C2323 H2349 0.929 . S
C2324 C2322 1.320 . S
C2324 C2325 1.405 . S
C2324 H2350 0.930 . S
C2325 C2320 1.479 . S
C2325 C2324 1.405 . S
C2325 H2351 0.931 . S
U2326 O2327 2.454 . S
U2326 O2328 2.458 . S
U2326 C2329 2.984 . S
U2326 C2330 2.847 . S
U2326 C2343 2.882 . S
U2326 O2344 2.441 . S
U2326 O2345 2.420 . S
U2326 O2346 2.455 . S
U2326 O2347 2.449 . S
O2327 U2326 2.454 . S
O2327 C2329 1.353 . S
O2328 U2326 2.458 . S
O2328 C2329 1.286 . S
C2329 U2326 2.984 . S
C2329 O2327 1.353 . S
C2329 O2328 1.286 . S
C2329 C2331 1.363 . S
C2330 C2320 1.465 . S
C2330 U2326 2.847 . S
C2330 O2344 1.249 . S
C2330 O2345 1.202 . S
C2331 C2329 1.363 . S
C2331 C2333 1.408 . S
C2331 C2336 1.342 . S
C2332 C2333 1.310 . S
C2332 C2335 1.461 . S
C2332 H2352 0.932 . S
C2333 C2331 1.408 . S
C2333 C2332 1.310 . S
C2333 H2353 0.930 . S
C2334 C2335 1.474 . S
C2334 C2336 1.285 . S
C2334 H2354 0.929 . S
C2335 C2332 1.461 . S
C2335 C2334 1.474 . S
C2336 C2331 1.342 . S
C2336 C2334 1.285 . S
C2336 H2355 0.930 . S
C2337 C2340 1.424 . S
C2337 C2342 1.245 . S
C2337 C2343 1.428 . S
C2338 C2341 1.260 . S
C2338 C2342 1.477 . S
C2338 H2356 0.932 . S
C2339 C2340 1.384 . S
C2339 C2341 1.479 . S
C2339 H2357 0.929 . S
C2340 C2337 1.424 . S
C2340 C2339 1.384 . S
C2340 H2358 0.928 . S
C2341 C2338 1.260 . S
C2341 C2339 1.479 . S
C2342 C2337 1.245 . S
C2342 C2338 1.477 . S
C2342 H2359 0.932 . S
C2343 U2326 2.882 . S
C2343 C2337 1.428 . S
C2343 O2346 1.301 . S
C2343 O2347 1.282 . S
O2344 U2326 2.441 . S
O2344 C2330 1.249 . S
O2345 U2326 2.420 . S
O2345 C2330 1.202 . S
O2346 U2326 2.455 . S
O2346 C2343 1.301 . S
O2347 U2326 2.449 . S
O2347 C2343 1.282 . S
H2348 C2321 0.931 . S
H2349 C2323 0.929 . S
H2350 C2324 0.930 . S
H2351 C2325 0.931 . S
H2352 C2332 0.932 . S
H2353 C2333 0.930 . S
H2354 C2334 0.929 . S
H2355 C2336 0.930 . S
H2356 C2338 0.932 . S
H2357 C2339 0.929 . S
H2358 C2340 0.928 . S
H2359 C2342 0.932 . S
C2360 C2361 1.264 . S
C2360 C2365 1.479 . S
C2360 C2370 1.465 . S
C2361 C2360 1.264 . S
C2361 C2363 1.339 . S
C2361 H2388 0.931 . S
C2362 C2363 1.395 . S
C2362 C2364 1.320 . S
C2363 C2361 1.339 . S
C2363 C2362 1.395 . S
C2363 H2389 0.929 . S
C2364 C2362 1.320 . S
C2364 C2365 1.405 . S
C2364 H2390 0.930 . S
C2365 C2360 1.479 . S
C2365 C2364 1.405 . S
C2365 H2391 0.931 . S
U2366 O2367 2.454 . S
U2366 O2368 2.458 . S
U2366 C2369 2.984 . S
U2366 C2370 2.847 . S
U2366 C2383 2.882 . S
U2366 O2384 2.441 . S
U2366 O2385 2.420 . S
U2366 O2386 2.455 . S
U2366 O2387 2.449 . S
O2367 U2366 2.454 . S
O2367 C2369 1.353 . S
O2368 U2366 2.458 . S
O2368 C2369 1.286 . S
C2369 U2366 2.984 . S
C2369 O2367 1.353 . S
C2369 O2368 1.286 . S
C2369 C2371 1.363 . S
C2370 C2360 1.465 . S
C2370 U2366 2.847 . S
C2370 O2384 1.249 . S
C2370 O2385 1.202 . S
C2371 C2369 1.363 . S
C2371 C2373 1.408 . S
C2371 C2376 1.342 . S
C2372 C2373 1.310 . S
C2372 C2375 1.461 . S
C2372 H2392 0.932 . S
C2373 C2371 1.408 . S
C2373 C2372 1.310 . S
C2373 H2393 0.930 . S
C2374 C2375 1.474 . S
C2374 C2376 1.285 . S
C2374 H2394 0.929 . S
C2375 C2372 1.461 . S
C2375 C2374 1.474 . S
C2376 C2371 1.342 . S
C2376 C2374 1.285 . S
C2376 H2395 0.930 . S
C2377 C2380 1.424 . S
C2377 C2382 1.245 . S
C2377 C2383 1.428 . S
C2378 C2381 1.260 . S
C2378 C2382 1.477 . S
C2378 H2396 0.932 . S
C2379 C2380 1.384 . S
C2379 C2381 1.479 . S
C2379 H2397 0.929 . S
C2380 C2377 1.424 . S
C2380 C2379 1.384 . S
C2380 H2398 0.928 . S
C2381 C2378 1.260 . S
C2381 C2379 1.479 . S
C2382 C2377 1.245 . S
C2382 C2378 1.477 . S
C2382 H2399 0.932 . S
C2383 U2366 2.882 . S
C2383 C2377 1.428 . S
C2383 O2386 1.301 . S
C2383 O2387 1.282 . S
O2384 U2366 2.441 . S
O2384 C2370 1.249 . S
O2385 U2366 2.420 . S
O2385 C2370 1.202 . S
O2386 U2366 2.455 . S
O2386 C2383 1.301 . S
O2387 U2366 2.449 . S
O2387 C2383 1.282 . S
H2388 C2361 0.931 . S
H2389 C2363 0.929 . S
H2390 C2364 0.930 . S
H2391 C2365 0.931 . S
H2392 C2372 0.932 . S
H2393 C2373 0.930 . S
H2394 C2374 0.929 . S
H2395 C2376 0.930 . S
H2396 C2378 0.932 . S
H2397 C2379 0.929 . S
H2398 C2380 0.928 . S
H2399 C2382 0.932 . S
C2400 C2401 1.264 . S
C2400 C2405 1.479 . S
C2400 C2410 1.465 . S
C2401 C2400 1.264 . S
C2401 C2403 1.339 . S
C2401 H2428 0.931 . S
C2402 C2403 1.395 . S
C2402 C2404 1.320 . S
C2403 C2401 1.339 . S
C2403 C2402 1.395 . S
C2403 H2429 0.929 . S
C2404 C2402 1.320 . S
C2404 C2405 1.405 . S
C2404 H2430 0.930 . S
C2405 C2400 1.479 . S
C2405 C2404 1.405 . S
C2405 H2431 0.931 . S
U2406 O2407 2.454 . S
U2406 O2408 2.458 . S
U2406 C2409 2.984 . S
U2406 C2410 2.847 . S
U2406 C2423 2.882 . S
U2406 O2424 2.441 . S
U2406 O2425 2.420 . S
U2406 O2426 2.455 . S
U2406 O2427 2.449 . S
O2407 U2406 2.454 . S
O2407 C2409 1.353 . S
O2408 U2406 2.458 . S
O2408 C2409 1.286 . S
C2409 U2406 2.984 . S
C2409 O2407 1.353 . S
C2409 O2408 1.286 . S
C2409 C2411 1.363 . S
C2410 C2400 1.465 . S
C2410 U2406 2.847 . S
C2410 O2424 1.249 . S
C2410 O2425 1.202 . S
C2411 C2409 1.363 . S
C2411 C2413 1.408 . S
C2411 C2416 1.342 . S
C2412 C2413 1.310 . S
C2412 C2415 1.461 . S
C2412 H2432 0.932 . S
C2413 C2411 1.408 . S
C2413 C2412 1.310 . S
C2413 H2433 0.930 . S
C2414 C2415 1.474 . S
C2414 C2416 1.285 . S
C2414 H2434 0.929 . S
C2415 C2412 1.461 . S
C2415 C2414 1.474 . S
C2416 C2411 1.342 . S
C2416 C2414 1.285 . S
C2416 H2435 0.930 . S
C2417 C2420 1.424 . S
C2417 C2422 1.245 . S
C2417 C2423 1.428 . S
C2418 C2421 1.260 . S
C2418 C2422 1.477 . S
C2418 H2436 0.932 . S
C2419 C2420 1.384 . S
C2419 C2421 1.479 . S
C2419 H2437 0.929 . S
C2420 C2417 1.424 . S
C2420 C2419 1.384 . S
C2420 H2438 0.928 . S
C2421 C2418 1.260 . S
C2421 C2419 1.479 . S
C2422 C2417 1.245 . S
C2422 C2418 1.477 . S
C2422 H2439 0.932 . S
C2423 U2406 2.882 . S
C2423 C2417 1.428 . S
C2423 O2426 1.301 . S
C2423 O2427 1.282 . S
O2424 U2406 2.441 . S
O2424 C2410 1.249 . S
O2425 U2406 2.420 . S
O2425 C2410 1.202 . S
O2426 U2406 2.455 . S
O2426 C2423 1.301 . S
O2427 U2406 2.449 . S
O2427 C2423 1.282 . S
H2428 C2401 0.931 . S
H2429 C2403 0.929 . S
H2430 C2404 0.930 . S
H2431 C2405 0.931 . S
H2432 C2412 0.932 . S
H2433 C2413 0.930 . S
H2434 C2414 0.929 . S
H2435 C2416 0.930 . S
H2436 C2418 0.932 . S
H2437 C2419 0.929 . S
H2438 C2420 0.928 . S
H2439 C2422 0.932 . S
C2440 C2441 1.264 . S
C2440 C2445 1.479 . S
C2440 C2450 1.465 . S
C2441 C2440 1.264 . S
C2441 C2443 1.339 . S
C2441 H2468 0.931 . S
C2442 C2443 1.395 . S
C2442 C2444 1.320 . S
C2443 C2441 1.339 . S
C2443 C2442 1.395 . S
C2443 H2469 0.929 . S
C2444 C2442 1.320 . S
C2444 C2445 1.405 . S
C2444 H2470 0.930 . S
C2445 C2440 1.479 . S
C2445 C2444 1.405 . S
C2445 H2471 0.931 . S
U2446 O2447 2.454 . S
U2446 O2448 2.458 . S
U2446 C2449 2.984 . S
U2446 C2450 2.847 . S
U2446 C2463 2.882 . S
U2446 O2464 2.441 . S
U2446 O2465 2.420 . S
U2446 O2466 2.455 . S
U2446 O2467 2.449 . S
O2447 U2446 2.454 . S
O2447 C2449 1.353 . S
O2448 U2446 2.458 . S
O2448 C2449 1.286 . S
C2449 U2446 2.984 . S
C2449 O2447 1.353 . S
C2449 O2448 1.286 . S
C2449 C2451 1.363 . S
C2450 C2440 1.465 . S
C2450 U2446 2.847 . S
C2450 O2464 1.249 . S
C2450 O2465 1.202 . S
C2451 C2449 1.363 . S
C2451 C2453 1.408 . S
C2451 C2456 1.342 . S
C2452 C2453 1.310 . S
C2452 C2455 1.461 . S
C2452 H2472 0.932 . S
C2453 C2451 1.408 . S
C2453 C2452 1.310 . S
C2453 H2473 0.930 . S
C2454 C2455 1.474 . S
C2454 C2456 1.285 . S
C2454 H2474 0.929 . S
C2455 C2452 1.461 . S
C2455 C2454 1.474 . S
C2456 C2451 1.342 . S
C2456 C2454 1.285 . S
C2456 H2475 0.930 . S
C2457 C2460 1.424 . S
C2457 C2462 1.245 . S
C2457 C2463 1.428 . S
C2458 C2461 1.260 . S
C2458 C2462 1.477 . S
C2458 H2476 0.932 . S
C2459 C2460 1.384 . S
C2459 C2461 1.479 . S
C2459 H2477 0.929 . S
C2460 C2457 1.424 . S
C2460 C2459 1.384 . S
C2460 H2478 0.928 . S
C2461 C2458 1.260 . S
C2461 C2459 1.479 . S
C2462 C2457 1.245 . S
C2462 C2458 1.477 . S
C2462 H2479 0.932 . S
C2463 U2446 2.882 . S
C2463 C2457 1.428 . S
C2463 O2466 1.301 . S
C2463 O2467 1.282 . S
O2464 U2446 2.441 . S
O2464 C2450 1.249 . S
O2465 U2446 2.420 . S
O2465 C2450 1.202 . S
O2466 U2446 2.455 . S
O2466 C2463 1.301 . S
O2467 U2446 2.449 . S
O2467 C2463 1.282 . S
H2468 C2441 0.931 . S
H2469 C2443 0.929 . S
H2470 C2444 0.930 . S
H2471 C2445 0.931 . S
H2472 C2452 0.932 . S
H2473 C2453 0.930 . S
H2474 C2454 0.929 . S
H2475 C2456 0.930 . S
H2476 C2458 0.932 . S
H2477 C2459 0.929 . S
H2478 C2460 0.928 . S
H2479 C2462 0.932 . S
C2480 C2481 1.264 . S
C2480 C2485 1.479 . S
C2480 C2490 1.465 . S
C2481 C2480 1.264 . S
C2481 C2483 1.339 . S
C2481 H2508 0.931 . S
C2482 C2483 1.395 . S
C2482 C2484 1.320 . S
C2483 C2481 1.339 . S
C2483 C2482 1.395 . S
C2483 H2509 0.929 . S
C2484 C2482 1.320 . S
C2484 C2485 1.405 . S
C2484 H2510 0.930 . S
C2485 C2480 1.479 . S
C2485 C2484 1.405 . S
C2485 H2511 0.931 . S
U2486 O2487 2.454 . S
U2486 O2488 2.458 . S
U2486 C2489 2.984 . S
U2486 C2490 2.847 . S
U2486 C2503 2.882 . S
U2486 O2504 2.441 . S
U2486 O2505 2.420 . S
U2486 O2506 2.455 . S
U2486 O2507 2.449 . S
O2487 U2486 2.454 . S
O2487 C2489 1.353 . S
O2488 U2486 2.458 . S
O2488 C2489 1.286 . S
C2489 U2486 2.984 . S
C2489 O2487 1.353 . S
C2489 O2488 1.286 . S
C2489 C2491 1.363 . S
C2490 C2480 1.465 . S
C2490 U2486 2.847 . S
C2490 O2504 1.249 . S
C2490 O2505 1.202 . S
C2491 C2489 1.363 . S
C2491 C2493 1.408 . S
C2491 C2496 1.342 . S
C2492 C2493 1.310 . S
C2492 C2495 1.461 . S
C2492 H2512 0.932 . S
C2493 C2491 1.408 . S
C2493 C2492 1.310 . S
C2493 H2513 0.930 . S
C2494 C2495 1.474 . S
C2494 C2496 1.285 . S
C2494 H2514 0.929 . S
C2495 C2492 1.461 . S
C2495 C2494 1.474 . S
C2496 C2491 1.342 . S
C2496 C2494 1.285 . S
C2496 H2515 0.930 . S
C2497 C2500 1.424 . S
C2497 C2502 1.245 . S
C2497 C2503 1.428 . S
C2498 C2501 1.260 . S
C2498 C2502 1.477 . S
C2498 H2516 0.932 . S
C2499 C2500 1.384 . S
C2499 C2501 1.479 . S
C2499 H2517 0.929 . S
C2500 C2497 1.424 . S
C2500 C2499 1.384 . S
C2500 H2518 0.928 . S
C2501 C2498 1.260 . S
C2501 C2499 1.479 . S
C2502 C2497 1.245 . S
C2502 C2498 1.477 . S
C2502 H2519 0.932 . S
C2503 U2486 2.882 . S
C2503 C2497 1.428 . S
C2503 O2506 1.301 . S
C2503 O2507 1.282 . S
O2504 U2486 2.441 . S
O2504 C2490 1.249 . S
O2505 U2486 2.420 . S
O2505 C2490 1.202 . S
O2506 U2486 2.455 . S
O2506 C2503 1.301 . S
O2507 U2486 2.449 . S
O2507 C2503 1.282 . S
H2508 C2481 0.931 . S
H2509 C2483 0.929 . S
H2510 C2484 0.930 . S
H2511 C2485 0.931 . S
H2512 C2492 0.932 . S
H2513 C2493 0.930 . S
H2514 C2494 0.929 . S
H2515 C2496 0.930 . S
H2516 C2498 0.932 . S
H2517 C2499 0.929 . S
H2518 C2500 0.928 . S
H2519 C2502 0.932 . S
C2520 C2521 1.264 . S
C2520 C2525 1.479 . S
C2520 C2530 1.465 . S
C2521 C2520 1.264 . S
C2521 C2523 1.339 . S
C2521 H2548 0.931 . S
C2522 C2523 1.395 . S
C2522 C2524 1.320 . S
C2523 C2521 1.339 . S
C2523 C2522 1.395 . S
C2523 H2549 0.929 . S
C2524 C2522 1.320 . S
C2524 C2525 1.405 . S
C2524 H2550 0.930 . S
C2525 C2520 1.479 . S
C2525 C2524 1.405 . S
C2525 H2551 0.931 . S
U2526 O2527 2.454 . S
U2526 O2528 2.458 . S
U2526 C2529 2.984 . S
U2526 C2530 2.847 . S
U2526 C2543 2.882 . S
U2526 O2544 2.441 . S
U2526 O2545 2.420 . S
U2526 O2546 2.455 . S
U2526 O2547 2.449 . S
O2527 U2526 2.454 . S
O2527 C2529 1.353 . S
O2528 U2526 2.458 . S
O2528 C2529 1.286 . S
C2529 U2526 2.984 . S
C2529 O2527 1.353 . S
C2529 O2528 1.286 . S
C2529 C2531 1.363 . S
C2530 C2520 1.465 . S
C2530 U2526 2.847 . S
C2530 O2544 1.249 . S
C2530 O2545 1.202 . S
C2531 C2529 1.363 . S
C2531 C2533 1.408 . S
C2531 C2536 1.342 . S
C2532 C2533 1.310 . S
C2532 C2535 1.461 . S
C2532 H2552 0.932 . S
C2533 C2531 1.408 . S
C2533 C2532 1.310 . S
C2533 H2553 0.930 . S
C2534 C2535 1.474 . S
C2534 C2536 1.285 . S
C2534 H2554 0.929 . S
C2535 C2532 1.461 . S
C2535 C2534 1.474 . S
C2536 C2531 1.342 . S
C2536 C2534 1.285 . S
C2536 H2555 0.930 . S
C2537 C2540 1.424 . S
C2537 C2542 1.245 . S
C2537 C2543 1.428 . S
C2538 C2541 1.260 . S
C2538 C2542 1.477 . S
C2538 H2556 0.932 . S
C2539 C2540 1.384 . S
C2539 C2541 1.479 . S
C2539 H2557 0.929 . S
C2540 C2537 1.424 . S
C2540 C2539 1.384 . S
C2540 H2558 0.928 . S
C2541 C2538 1.260 . S
C2541 C2539 1.479 . S
C2542 C2537 1.245 . S
C2542 C2538 1.477 . S
C2542 H2559 0.932 . S
C2543 U2526 2.882 . S
C2543 C2537 1.428 . S
C2543 O2546 1.301 . S
C2543 O2547 1.282 . S
O2544 U2526 2.441 . S
O2544 C2530 1.249 . S
O2545 U2526 2.420 . S
O2545 C2530 1.202 . S
O2546 U2526 2.455 . S
O2546 C2543 1.301 . S
O2547 U2526 2.449 . S
O2547 C2543 1.282 . S
H2548 C2521 0.931 . S
H2549 C2523 0.929 . S
H2550 C2524 0.930 . S
H2551 C2525 0.931 . S
H2552 C2532 0.932 . S
H2553 C2533 0.930 . S
H2554 C2534 0.929 . S
H2555 C2536 0.930 . S
H2556 C2538 0.932 . S
H2557 C2539 0.929 . S
H2558 C2540 0.928 . S
H2559 C2542 0.932 . S
C2560 C2561 1.264 . S
C2560 C2565 1.479 . S
C2560 C2570 1.465 . S
C2561 C2560 1.264 . S
C2561 C2563 1.339 . S
C2561 H2588 0.931 . S
C2562 C2563 1.395 . S
C2562 C2564 1.320 . S
C2563 C2561 1.339 . S
C2563 C2562 1.395 . S
C2563 H2589 0.929 . S
C2564 C2562 1.320 . S
C2564 C2565 1.405 . S
C2564 H2590 0.930 . S
C2565 C2560 1.479 . S
C2565 C2564 1.405 . S
C2565 H2591 0.931 . S
U2566 O2567 2.454 . S
U2566 O2568 2.458 . S
U2566 C2569 2.984 . S
U2566 C2570 2.847 . S
U2566 C2583 2.882 . S
U2566 O2584 2.441 . S
U2566 O2585 2.420 . S
U2566 O2586 2.455 . S
U2566 O2587 2.449 . S
O2567 U2566 2.454 . S
O2567 C2569 1.353 . S
O2568 U2566 2.458 . S
O2568 C2569 1.286 . S
C2569 U2566 2.984 . S
C2569 O2567 1.353 . S
C2569 O2568 1.286 . S
C2569 C2571 1.363 . S
C2570 C2560 1.465 . S
C2570 U2566 2.847 . S
C2570 O2584 1.249 . S
C2570 O2585 1.202 . S
C2571 C2569 1.363 . S
C2571 C2573 1.408 . S
C2571 C2576 1.342 . S
C2572 C2573 1.310 . S
C2572 C2575 1.461 . S
C2572 H2592 0.932 . S
C2573 C2571 1.408 . S
C2573 C2572 1.310 . S
C2573 H2593 0.930 . S
C2574 C2575 1.474 . S
C2574 C2576 1.285 . S
C2574 H2594 0.929 . S
C2575 C2572 1.461 . S
C2575 C2574 1.474 . S
C2576 C2571 1.342 . S
C2576 C2574 1.285 . S
C2576 H2595 0.930 . S
C2577 C2580 1.424 . S
C2577 C2582 1.245 . S
C2577 C2583 1.428 . S
C2578 C2581 1.260 . S
C2578 C2582 1.477 . S
C2578 H2596 0.932 . S
C2579 C2580 1.384 . S
C2579 C2581 1.479 . S
C2579 H2597 0.929 . S
C2580 C2577 1.424 . S
C2580 C2579 1.384 . S
C2580 H2598 0.928 . S
C2581 C2578 1.260 . S
C2581 C2579 1.479 . S
C2582 C2577 1.245 . S
C2582 C2578 1.477 . S
C2582 H2599 0.932 . S
C2583 U2566 2.882 . S
C2583 C2577 1.428 . S
C2583 O2586 1.301 . S
C2583 O2587 1.282 . S
O2584 U2566 2.441 . S
O2584 C2570 1.249 . S
O2585 U2566 2.420 . S
O2585 C2570 1.202 . S
O2586 U2566 2.455 . S
O2586 C2583 1.301 . S
O2587 U2566 2.449 . S
O2587 C2583 1.282 . S
H2588 C2561 0.931 . S
H2589 C2563 0.929 . S
H2590 C2564 0.930 . S
H2591 C2565 0.931 . S
H2592 C2572 0.932 . S
H2593 C2573 0.930 . S
H2594 C2574 0.929 . S
H2595 C2576 0.930 . S
H2596 C2578 0.932 . S
H2597 C2579 0.929 . S
H2598 C2580 0.928 . S
H2599 C2582 0.932 . S
C2600 C2601 1.264 . S
C2600 C2605 1.479 . S
C2600 C2610 1.465 . S
C2601 C2600 1.264 . S
C2601 C2603 1.339 . S
C2601 H2628 0.931 . S
C2602 C2603 1.395 . S
C2602 C2604 1.320 . S
C2603 C2601 1.339 . S
C2603 C2602 1.395 . S
C2603 H2629 0.929 . S
C2604 C2602 1.320 . S
C2604 C2605 1.405 . S
C2604 H2630 0.930 . S
C2605 C2600 1.479 . S
C2605 C2604 1.405 . S
C2605 H2631 0.931 . S
U2606 O2607 2.454 . S
U2606 O2608 2.458 . S
U2606 C2609 2.984 . S
U2606 C2610 2.847 . S
U2606 C2623 2.882 . S
U2606 O2624 2.441 . S
U2606 O2625 2.420 . S
U2606 O2626 2.455 . S
U2606 O2627 2.449 . S
O2607 U2606 2.454 . S
O2607 C2609 1.353 . S
O2608 U2606 2.458 . S
O2608 C2609 1.286 . S
C2609 U2606 2.984 . S
C2609 O2607 1.353 . S
C2609 O2608 1.286 . S
C2609 C2611 1.363 . S
C2610 C2600 1.465 . S
C2610 U2606 2.847 . S
C2610 O2624 1.249 . S
C2610 O2625 1.202 . S
C2611 C2609 1.363 . S
C2611 C2613 1.408 . S
C2611 C2616 1.342 . S
C2612 C2613 1.310 . S
C2612 C2615 1.461 . S
C2612 H2632 0.932 . S
C2613 C2611 1.408 . S
C2613 C2612 1.310 . S
C2613 H2633 0.930 . S
C2614 C2615 1.474 . S
C2614 C2616 1.285 . S
C2614 H2634 0.929 . S
C2615 C2612 1.461 . S
C2615 C2614 1.474 . S
C2616 C2611 1.342 . S
C2616 C2614 1.285 . S
C2616 H2635 0.930 . S
C2617 C2620 1.424 . S
C2617 C2622 1.245 . S
C2617 C2623 1.428 . S
C2618 C2621 1.260 . S
C2618 C2622 1.477 . S
C2618 H2636 0.932 . S
C2619 C2620 1.384 . S
C2619 C2621 1.479 . S
C2619 H2637 0.929 . S
C2620 C2617 1.424 . S
C2620 C2619 1.384 . S
C2620 H2638 0.928 . S
C2621 C2618 1.260 . S
C2621 C2619 1.479 . S
C2622 C2617 1.245 . S
C2622 C2618 1.477 . S
C2622 H2639 0.932 . S
C2623 U2606 2.882 . S
C2623 C2617 1.428 . S
C2623 O2626 1.301 . S
C2623 O2627 1.282 . S
O2624 U2606 2.441 . S
O2624 C2610 1.249 . S
O2625 U2606 2.420 . S
O2625 C2610 1.202 . S
O2626 U2606 2.455 . S
O2626 C2623 1.301 . S
O2627 U2606 2.449 . S
O2627 C2623 1.282 . S
H2628 C2601 0.931 . S
H2629 C2603 0.929 . S
H2630 C2604 0.930 . S
H2631 C2605 0.931 . S
H2632 C2612 0.932 . S
H2633 C2613 0.930 . S
H2634 C2614 0.929 . S
H2635 C2616 0.930 . S
H2636 C2618 0.932 . S
H2637 C2619 0.929 . S
H2638 C2620 0.928 . S
H2639 C2622 0.932 . S
C2640 C2641 1.264 . S
C2640 C2645 1.479 . S
C2640 C2650 1.465 . S
C2641 C2640 1.264 . S
C2641 C2643 1.339 . S
C2641 H2668 0.931 . S
C2642 C2643 1.395 . S
C2642 C2644 1.320 . S
C2643 C2641 1.339 . S
C2643 C2642 1.395 . S
C2643 H2669 0.929 . S
C2644 C2642 1.320 . S
C2644 C2645 1.405 . S
C2644 H2670 0.930 . S
C2645 C2640 1.479 . S
C2645 C2644 1.405 . S
C2645 H2671 0.931 . S
U2646 O2647 2.454 . S
U2646 O2648 2.458 . S
U2646 C2649 2.984 . S
U2646 C2650 2.847 . S
U2646 C2663 2.882 . S
U2646 O2664 2.441 . S
U2646 O2665 2.420 . S
U2646 O2666 2.455 . S
U2646 O2667 2.449 . S
O2647 U2646 2.454 . S
O2647 C2649 1.353 . S
O2648 U2646 2.458 . S
O2648 C2649 1.286 . S
C2649 U2646 2.984 . S
C2649 O2647 1.353 . S
C2649 O2648 1.286 . S
C2649 C2651 1.363 . S
C2650 C2640 1.465 . S
C2650 U2646 2.847 . S
C2650 O2664 1.249 . S
C2650 O2665 1.202 . S
C2651 C2649 1.363 . S
C2651 C2653 1.408 . S
C2651 C2656 1.342 . S
C2652 C2653 1.310 . S
C2652 C2655 1.461 . S
C2652 H2672 0.932 . S
C2653 C2651 1.408 . S
C2653 C2652 1.310 . S
C2653 H2673 0.930 . S
C2654 C2655 1.474 . S
C2654 C2656 1.285 . S
C2654 H2674 0.929 . S
C2655 C2652 1.461 . S
C2655 C2654 1.474 . S
C2656 C2651 1.342 . S
C2656 C2654 1.285 . S
C2656 H2675 0.930 . S
C2657 C2660 1.424 . S
C2657 C2662 1.245 . S
C2657 C2663 1.428 . S
C2658 C2661 1.260 . S
C2658 C2662 1.477 . S
C2658 H2676 0.932 . S
C2659 C2660 1.384 . S
C2659 C2661 1.479 . S
C2659 H2677 0.929 . S
C2660 C2657 1.424 . S
C2660 C2659 1.384 . S
C2660 H2678 0.928 . S
C2661 C2658 1.260 . S
C2661 C2659 1.479 . S
C2662 C2657 1.245 . S
C2662 C2658 1.477 . S
C2662 H2679 0.932 . S
C2663 U2646 2.882 . S
C2663 C2657 1.428 . S
C2663 O2666 1.301 . S
C2663 O2667 1.282 . S
O2664 U2646 2.441 . S
O2664 C2650 1.249 . S
O2665 U2646 2.420 . S
O2665 C2650 1.202 . S
O2666 U2646 2.455 . S
O2666 C2663 1.301 . S
O2667 U2646 2.449 . S
O2667 C2663 1.282 . S
H2668 C2641 0.931 . S
H2669 C2643 0.929 . S
H2670 C2644 0.930 . S
H2671 C2645 0.931 . S
H2672 C2652 0.932 . S
H2673 C2653 0.930 . S
H2674 C2654 0.929 . S
H2675 C2656 0.930 . S
H2676 C2658 0.932 . S
H2677 C2659 0.929 . S
H2678 C2660 0.928 . S
H2679 C2662 0.932 . S
C2680 C2681 1.264 . S
C2680 C2685 1.479 . S
C2680 C2690 1.465 . S
C2681 C2680 1.264 . S
C2681 C2683 1.339 . S
C2681 H2708 0.931 . S
C2682 C2683 1.395 . S
C2682 C2684 1.320 . S
C2683 C2681 1.339 . S
C2683 C2682 1.395 . S
C2683 H2709 0.929 . S
C2684 C2682 1.320 . S
C2684 C2685 1.405 . S
C2684 H2710 0.930 . S
C2685 C2680 1.479 . S
C2685 C2684 1.405 . S
C2685 H2711 0.931 . S
U2686 O2687 2.454 . S
U2686 O2688 2.458 . S
U2686 C2689 2.984 . S
U2686 C2690 2.847 . S
U2686 C2703 2.882 . S
U2686 O2704 2.441 . S
U2686 O2705 2.420 . S
U2686 O2706 2.455 . S
U2686 O2707 2.449 . S
O2687 U2686 2.454 . S
O2687 C2689 1.353 . S
O2688 U2686 2.458 . S
O2688 C2689 1.286 . S
C2689 U2686 2.984 . S
C2689 O2687 1.353 . S
C2689 O2688 1.286 . S
C2689 C2691 1.363 . S
C2690 C2680 1.465 . S
C2690 U2686 2.847 . S
C2690 O2704 1.249 . S
C2690 O2705 1.202 . S
C2691 C2689 1.363 . S
C2691 C2693 1.408 . S
C2691 C2696 1.342 . S
C2692 C2693 1.310 . S
C2692 C2695 1.461 . S
C2692 H2712 0.932 . S
C2693 C2691 1.408 . S
C2693 C2692 1.310 . S
C2693 H2713 0.930 . S
C2694 C2695 1.474 . S
C2694 C2696 1.285 . S
C2694 H2714 0.929 . S
C2695 C2692 1.461 . S
C2695 C2694 1.474 . S
C2696 C2691 1.342 . S
C2696 C2694 1.285 . S
C2696 H2715 0.930 . S
C2697 C2700 1.424 . S
C2697 C2702 1.245 . S
C2697 C2703 1.428 . S
C2698 C2701 1.260 . S
C2698 C2702 1.477 . S
C2698 H2716 0.932 . S
C2699 C2700 1.384 . S
C2699 C2701 1.479 . S
C2699 H2717 0.929 . S
C2700 C2697 1.424 . S
C2700 C2699 1.384 . S
C2700 H2718 0.928 . S
C2701 C2698 1.260 . S
C2701 C2699 1.479 . S
C2702 C2697 1.245 . S
C2702 C2698 1.477 . S
C2702 H2719 0.932 . S
C2703 U2686 2.882 . S
C2703 C2697 1.428 . S
C2703 O2706 1.301 . S
C2703 O2707 1.282 . S
O2704 U2686 2.441 . S
O2704 C2690 1.249 . S
O2705 U2686 2.420 . S
O2705 C2690 1.202 . S
O2706 U2686 2.455 . S
O2706 C2703 1.301 . S
O2707 U2686 2.449 . S
O2707 C2703 1.282 . S
H2708 C2681 0.931 . S
H2709 C2683 0.929 . S
H2710 C2684 0.930 . S
H2711 C2685 0.931 . S
H2712 C2692 0.932 . S
H2713 C2693 0.930 . S
H2714 C2694 0.929 . S
H2715 C2696 0.930 . S
H2716 C2698 0.932 . S
H2717 C2699 0.929 . S
H2718 C2700 0.928 . S
H2719 C2702 0.932 . S
C2720 C2721 1.264 . S
C2720 C2725 1.479 . S
C2720 C2730 1.465 . S
C2721 C2720 1.264 . S
C2721 C2723 1.339 . S
C2721 H2748 0.931 . S
C2722 C2723 1.395 . S
C2722 C2724 1.320 . S
C2723 C2721 1.339 . S
C2723 C2722 1.395 . S
C2723 H2749 0.929 . S
C2724 C2722 1.320 . S
C2724 C2725 1.405 . S
C2724 H2750 0.930 . S
C2725 C2720 1.479 . S
C2725 C2724 1.405 . S
C2725 H2751 0.931 . S
U2726 O2727 2.454 . S
U2726 O2728 2.458 . S
U2726 C2729 2.984 . S
U2726 C2730 2.847 . S
U2726 C2743 2.882 . S
U2726 O2744 2.441 . S
U2726 O2745 2.420 . S
U2726 O2746 2.455 . S
U2726 O2747 2.449 . S
O2727 U2726 2.454 . S
O2727 C2729 1.353 . S
O2728 U2726 2.458 . S
O2728 C2729 1.286 . S
C2729 U2726 2.984 . S
C2729 O2727 1.353 . S
C2729 O2728 1.286 . S
C2729 C2731 1.363 . S
C2730 C2720 1.465 . S
C2730 U2726 2.847 . S
C2730 O2744 1.249 . S
C2730 O2745 1.202 . S
C2731 C2729 1.363 . S
C2731 C2733 1.408 . S
C2731 C2736 1.342 . S
C2732 C2733 1.310 . S
C2732 C2735 1.461 . S
C2732 H2752 0.932 . S
C2733 C2731 1.408 . S
C2733 C2732 1.310 . S
C2733 H2753 0.930 . S
C2734 C2735 1.474 . S
C2734 C2736 1.285 . S
C2734 H2754 0.929 . S
C2735 C2732 1.461 . S
C2735 C2734 1.474 . S
C2736 C2731 1.342 . S
C2736 C2734 1.285 . S
C2736 H2755 0.930 . S
C2737 C2740 1.424 . S
C2737 C2742 1.245 . S
C2737 C2743 1.428 . S
C2738 C2741 1.260 . S
C2738 C2742 1.477 . S
C2738 H2756 0.932 . S
C2739 C2740 1.384 . S
C2739 C2741 1.479 . S
C2739 H2757 0.929 . S
C2740 C2737 1.424 . S
C2740 C2739 1.384 . S
C2740 H2758 0.928 . S
C2741 C2738 1.260 . S
C2741 C2739 1.479 . S
C2742 C2737 1.245 . S
C2742 C2738 1.477 . S
C2742 H2759 0.932 . S
C2743 U2726 2.882 . S
C2743 C2737 1.428 . S
C2743 O2746 1.301 . S
C2743 O2747 1.282 . S
O2744 U2726 2.441 . S
O2744 C2730 1.249 . S
O2745 U2726 2.420 . S
O2745 C2730 1.202 . S
O2746 U2726 2.455 . S
O2746 C2743 1.301 . S
O2747 U2726 2.449 . S
O2747 C2743 1.282 . S
H2748 C2721 0.931 . S
H2749 C2723 0.929 . S
H2750 C2724 0.930 . S
H2751 C2725 0.931 . S
H2752 C2732 0.932 . S
H2753 C2733 0.930 . S
H2754 C2734 0.929 . S
H2755 C2736 0.930 . S
H2756 C2738 0.932 . S
H2757 C2739 0.929 . S
H2758 C2740 0.928 . S
H2759 C2742 0.932 . S
C2760 C2761 1.264 . S
C2760 C2765 1.479 . S
C2760 C2770 1.465 . S
C2761 C2760 1.264 . S
C2761 C2763 1.339 . S
C2761 H2788 0.931 . S
C2762 C2763 1.395 . S
C2762 C2764 1.320 . S
C2763 C2761 1.339 . S
C2763 C2762 1.395 . S
C2763 H2789 0.929 . S
C2764 C2762 1.320 . S
C2764 C2765 1.405 . S
C2764 H2790 0.930 . S
C2765 C2760 1.479 . S
C2765 C2764 1.405 . S
C2765 H2791 0.931 . S
U2766 O2767 2.454 . S
U2766 O2768 2.458 . S
U2766 C2769 2.984 . S
U2766 C2770 2.847 . S
U2766 C2783 2.882 . S
U2766 O2784 2.441 . S
U2766 O2785 2.420 . S
U2766 O2786 2.455 . S
U2766 O2787 2.449 . S
O2767 U2766 2.454 . S
O2767 C2769 1.353 . S
O2768 U2766 2.458 . S
O2768 C2769 1.286 . S
C2769 U2766 2.984 . S
C2769 O2767 1.353 . S
C2769 O2768 1.286 . S
C2769 C2771 1.363 . S
C2770 C2760 1.465 . S
C2770 U2766 2.847 . S
C2770 O2784 1.249 . S
C2770 O2785 1.202 . S
C2771 C2769 1.363 . S
C2771 C2773 1.408 . S
C2771 C2776 1.342 . S
C2772 C2773 1.310 . S
C2772 C2775 1.461 . S
C2772 H2792 0.932 . S
C2773 C2771 1.408 . S
C2773 C2772 1.310 . S
C2773 H2793 0.930 . S
C2774 C2775 1.474 . S
C2774 C2776 1.285 . S
C2774 H2794 0.929 . S
C2775 C2772 1.461 . S
C2775 C2774 1.474 . S
C2776 C2771 1.342 . S
C2776 C2774 1.285 . S
C2776 H2795 0.930 . S
C2777 C2780 1.424 . S
C2777 C2782 1.245 . S
C2777 C2783 1.428 . S
C2778 C2781 1.260 . S
C2778 C2782 1.477 . S
C2778 H2796 0.932 . S
C2779 C2780 1.384 . S
C2779 C2781 1.479 . S
C2779 H2797 0.929 . S
C2780 C2777 1.424 . S
C2780 C2779 1.384 . S
C2780 H2798 0.928 . S
C2781 C2778 1.260 . S
C2781 C2779 1.479 . S
C2782 C2777 1.245 . S
C2782 C2778 1.477 . S
C2782 H2799 0.932 . S
C2783 U2766 2.882 . S
C2783 C2777 1.428 . S
C2783 O2786 1.301 . S
C2783 O2787 1.282 . S
O2784 U2766 2.441 . S
O2784 C2770 1.249 . S
O2785 U2766 2.420 . S
O2785 C2770 1.202 . S
O2786 U2766 2.455 . S
O2786 C2783 1.301 . S
O2787 U2766 2.449 . S
O2787 C2783 1.282 . S
H2788 C2761 0.931 . S
H2789 C2763 0.929 . S
H2790 C2764 0.930 . S
H2791 C2765 0.931 . S
H2792 C2772 0.932 . S
H2793 C2773 0.930 . S
H2794 C2774 0.929 . S
H2795 C2776 0.930 . S
H2796 C2778 0.932 . S
H2797 C2779 0.929 . S
H2798 C2780 0.928 . S
H2799 C2782 0.932 . S
C2800 C2801 1.264 . S
C2800 C2805 1.479 . S
C2800 C2810 1.465 . S
C2801 C2800 1.264 . S
C2801 C2803 1.339 . S
C2801 H2828 0.931 . S
C2802 C2803 1.395 . S
C2802 C2804 1.320 . S
C2803 C2801 1.339 . S
C2803 C2802 1.395 . S
C2803 H2829 0.929 . S
C2804 C2802 1.320 . S
C2804 C2805 1.405 . S
C2804 H2830 0.930 . S
C2805 C2800 1.479 . S
C2805 C2804 1.405 . S
C2805 H2831 0.931 . S
U2806 O2807 2.454 . S
U2806 O2808 2.458 . S
U2806 C2809 2.984 . S
U2806 C2810 2.847 . S
U2806 C2823 2.882 . S
U2806 O2824 2.441 . S
U2806 O2825 2.420 . S
U2806 O2826 2.455 . S
U2806 O2827 2.449 . S
O2807 U2806 2.454 . S
O2807 C2809 1.353 . S
O2808 U2806 2.458 . S
O2808 C2809 1.286 . S
C2809 U2806 2.984 . S
C2809 O2807 1.353 . S
C2809 O2808 1.286 . S
C2809 C2811 1.363 . S
C2810 C2800 1.465 . S
C2810 U2806 2.847 . S
C2810 O2824 1.249 . S
C2810 O2825 1.202 . S
C2811 C2809 1.363 . S
C2811 C2813 1.408 . S
C2811 C2816 1.342 . S
C2812 C2813 1.310 . S
C2812 C2815 1.461 . S
C2812 H2832 0.932 . S
C2813 C2811 1.408 . S
C2813 C2812 1.310 . S
C2813 H2833 0.930 . S
C2814 C2815 1.474 . S
C2814 C2816 1.285 . S
C2814 H2834 0.929 . S
C2815 C2812 1.461 . S
C2815 C2814 1.474 . S
C2816 C2811 1.342 . S
C2816 C2814 1.285 . S
C2816 H2835 0.930 . S
C2817 C2820 1.424 . S
C2817 C2822 1.245 . S
C2817 C2823 1.428 . S
C2818 C2821 1.260 . S
C2818 C2822 1.477 . S
C2818 H2836 0.932 . S
C2819 C2820 1.384 . S
C2819 C2821 1.479 . S
C2819 H2837 0.929 . S
C2820 C2817 1.424 . S
C2820 C2819 1.384 . S
C2820 H2838 0.928 . S
C2821 C2818 1.260 . S
C2821 C2819 1.479 . S
C2822 C2817 1.245 . S
C2822 C2818 1.477 . S
C2822 H2839 0.932 . S
C2823 U2806 2.882 . S
C2823 C2817 1.428 . S
C2823 O2826 1.301 . S
C2823 O2827 1.282 . S
O2824 U2806 2.441 . S
O2824 C2810 1.249 . S
O2825 U2806 2.420 . S
O2825 C2810 1.202 . S
O2826 U2806 2.455 . S
O2826 C2823 1.301 . S
O2827 U2806 2.449 . S
O2827 C2823 1.282 . S
H2828 C2801 0.931 . S
H2829 C2803 0.929 . S
H2830 C2804 0.930 . S
H2831 C2805 0.931 . S
H2832 C2812 0.932 . S
H2833 C2813 0.930 . S
H2834 C2814 0.929 . S
H2835 C2816 0.930 . S
H2836 C2818 0.932 . S
H2837 C2819 0.929 . S
H2838 C2820 0.928 . S
H2839 C2822 0.932 . S
C2840 C2841 1.264 . S
C2840 C2845 1.479 . S
C2840 C2850 1.465 . S
C2841 C2840 1.264 . S
C2841 C2843 1.339 . S
C2841 H2868 0.931 . S
C2842 C2843 1.395 . S
C2842 C2844 1.320 . S
C2843 C2841 1.339 . S
C2843 C2842 1.395 . S
C2843 H2869 0.929 . S
C2844 C2842 1.320 . S
C2844 C2845 1.405 . S
C2844 H2870 0.930 . S
C2845 C2840 1.479 . S
C2845 C2844 1.405 . S
C2845 H2871 0.931 . S
U2846 O2847 2.454 . S
U2846 O2848 2.458 . S
U2846 C2849 2.984 . S
U2846 C2850 2.847 . S
U2846 C2863 2.882 . S
U2846 O2864 2.441 . S
U2846 O2865 2.420 . S
U2846 O2866 2.455 . S
U2846 O2867 2.449 . S
O2847 U2846 2.454 . S
O2847 C2849 1.353 . S
O2848 U2846 2.458 . S
O2848 C2849 1.286 . S
C2849 U2846 2.984 . S
C2849 O2847 1.353 . S
C2849 O2848 1.286 . S
C2849 C2851 1.363 . S
C2850 C2840 1.465 . S
C2850 U2846 2.847 . S
C2850 O2864 1.249 . S
C2850 O2865 1.202 . S
C2851 C2849 1.363 . S
C2851 C2853 1.408 . S
C2851 C2856 1.342 . S
C2852 C2853 1.310 . S
C2852 C2855 1.461 . S
C2852 H2872 0.932 . S
C2853 C2851 1.408 . S
C2853 C2852 1.310 . S
C2853 H2873 0.930 . S
C2854 C2855 1.474 . S
C2854 C2856 1.285 . S
C2854 H2874 0.929 . S
C2855 C2852 1.461 . S
C2855 C2854 1.474 . S
C2856 C2851 1.342 . S
C2856 C2854 1.285 . S
C2856 H2875 0.930 . S
C2857 C2860 1.424 . S
C2857 C2862 1.245 . S
C2857 C2863 1.428 . S
C2858 C2861 1.260 . S
C2858 C2862 1.477 . S
C2858 H2876 0.932 . S
C2859 C2860 1.384 . S
C2859 C2861 1.479 . S
C2859 H2877 0.929 . S
C2860 C2857 1.424 . S
C2860 C2859 1.384 . S
C2860 H2878 0.928 . S
C2861 C2858 1.260 . S
C2861 C2859 1.479 . S
C2862 C2857 1.245 . S
C2862 C2858 1.477 . S
C2862 H2879 0.932 . S
C2863 U2846 2.882 . S
C2863 C2857 1.428 . S
C2863 O2866 1.301 . S
C2863 O2867 1.282 . S
O2864 U2846 2.441 . S
O2864 C2850 1.249 . S
O2865 U2846 2.420 . S
O2865 C2850 1.202 . S
O2866 U2846 2.455 . S
O2866 C2863 1.301 . S
O2867 U2846 2.449 . S
O2867 C2863 1.282 . S
H2868 C2841 0.931 . S
H2869 C2843 0.929 . S
H2870 C2844 0.930 . S
H2871 C2845 0.931 . S
H2872 C2852 0.932 . S
H2873 C2853 0.930 . S
H2874 C2854 0.929 . S
H2875 C2856 0.930 . S
H2876 C2858 0.932 . S
H2877 C2859 0.929 . S
H2878 C2860 0.928 . S
H2879 C2862 0.932 . S
C2880 C2881 1.264 . S
C2880 C2885 1.479 . S
C2880 C2890 1.465 . S
C2881 C2880 1.264 . S
C2881 C2883 1.339 . S
C2881 H2908 0.931 . S
C2882 C2883 1.395 . S
C2882 C2884 1.320 . S
C2883 C2881 1.339 . S
C2883 C2882 1.395 . S
C2883 H2909 0.929 . S
C2884 C2882 1.320 . S
C2884 C2885 1.405 . S
C2884 H2910 0.930 . S
C2885 C2880 1.479 . S
C2885 C2884 1.405 . S
C2885 H2911 0.931 . S
U2886 O2887 2.454 . S
U2886 O2888 2.458 . S
U2886 C2889 2.984 . S
U2886 C2890 2.847 . S
U2886 C2903 2.882 . S
U2886 O2904 2.441 . S
U2886 O2905 2.420 . S
U2886 O2906 2.455 . S
U2886 O2907 2.449 . S
O2887 U2886 2.454 . S
O2887 C2889 1.353 . S
O2888 U2886 2.458 . S
O2888 C2889 1.286 . S
C2889 U2886 2.984 . S
C2889 O2887 1.353 . S
C2889 O2888 1.286 . S
C2889 C2891 1.363 . S
C2890 C2880 1.465 . S
C2890 U2886 2.847 . S
C2890 O2904 1.249 . S
C2890 O2905 1.202 . S
C2891 C2889 1.363 . S
C2891 C2893 1.408 . S
C2891 C2896 1.342 . S
C2892 C2893 1.310 . S
C2892 C2895 1.461 . S
C2892 H2912 0.932 . S
C2893 C2891 1.408 . S
C2893 C2892 1.310 . S
C2893 H2913 0.930 . S
C2894 C2895 1.474 . S
C2894 C2896 1.285 . S
C2894 H2914 0.929 . S
C2895 C2892 1.461 . S
C2895 C2894 1.474 . S
C2896 C2891 1.342 . S
C2896 C2894 1.285 . S
C2896 H2915 0.930 . S
C2897 C2900 1.424 . S
C2897 C2902 1.245 . S
C2897 C2903 1.428 . S
C2898 C2901 1.260 . S
C2898 C2902 1.477 . S
C2898 H2916 0.932 . S
C2899 C2900 1.384 . S
C2899 C2901 1.479 . S
C2899 H2917 0.929 . S
C2900 C2897 1.424 . S
C2900 C2899 1.384 . S
C2900 H2918 0.928 . S
C2901 C2898 1.260 . S
C2901 C2899 1.479 . S
C2902 C2897 1.245 . S
C2902 C2898 1.477 . S
C2902 H2919 0.932 . S
C2903 U2886 2.882 . S
C2903 C2897 1.428 . S
C2903 O2906 1.301 . S
C2903 O2907 1.282 . S
O2904 U2886 2.441 . S
O2904 C2890 1.249 . S
O2905 U2886 2.420 . S
O2905 C2890 1.202 . S
O2906 U2886 2.455 . S
O2906 C2903 1.301 . S
O2907 U2886 2.449 . S
O2907 C2903 1.282 . S
H2908 C2881 0.931 . S
H2909 C2883 0.929 . S
H2910 C2884 0.930 . S
H2911 C2885 0.931 . S
H2912 C2892 0.932 . S
H2913 C2893 0.930 . S
H2914 C2894 0.929 . S
H2915 C2896 0.930 . S
H2916 C2898 0.932 . S
H2917 C2899 0.929 . S
H2918 C2900 0.928 . S
H2919 C2902 0.932 . S
C2920 C2921 1.264 . S
C2920 C2925 1.479 . S
C2920 C2930 1.465 . S
C2921 C2920 1.264 . S
C2921 C2923 1.339 . S
C2921 H2948 0.931 . S
C2922 C2923 1.395 . S
C2922 C2924 1.320 . S
C2923 C2921 1.339 . S
C2923 C2922 1.395 . S
C2923 H2949 0.929 . S
C2924 C2922 1.320 . S
C2924 C2925 1.405 . S
C2924 H2950 0.930 . S
C2925 C2920 1.479 . S
C2925 C2924 1.405 . S
C2925 H2951 0.931 . S
U2926 O2927 2.454 . S
U2926 O2928 2.458 . S
U2926 C2929 2.984 . S
U2926 C2930 2.847 . S
U2926 C2943 2.882 . S
U2926 O2944 2.441 . S
U2926 O2945 2.420 . S
U2926 O2946 2.455 . S
U2926 O2947 2.449 . S
O2927 U2926 2.454 . S
O2927 C2929 1.353 . S
O2928 U2926 2.458 . S
O2928 C2929 1.286 . S
C2929 U2926 2.984 . S
C2929 O2927 1.353 . S
C2929 O2928 1.286 . S
C2929 C2931 1.363 . S
C2930 C2920 1.465 . S
C2930 U2926 2.847 . S
C2930 O2944 1.249 . S
C2930 O2945 1.202 . S
C2931 C2929 1.363 . S
C2931 C2933 1.408 . S
C2931 C2936 1.342 . S
C2932 C2933 1.310 . S
C2932 C2935 1.461 . S
C2932 H2952 0.932 . S
C2933 C2931 1.408 . S
C2933 C2932 1.310 . S
C2933 H2953 0.930 . S
C2934 C2935 1.474 . S
C2934 C2936 1.285 . S
C2934 H2954 0.929 . S
C2935 C2932 1.461 . S
C2935 C2934 1.474 . S
C2936 C2931 1.342 . S
C2936 C2934 1.285 . S
C2936 H2955 0.930 . S
C2937 C2940 1.424 . S
C2937 C2942 1.245 . S
C2937 C2943 1.428 . S
C2938 C2941 1.260 . S
C2938 C2942 1.477 . S
C2938 H2956 0.932 . S
C2939 C2940 1.384 . S
C2939 C2941 1.479 . S
C2939 H2957 0.929 . S
C2940 C2937 1.424 . S
C2940 C2939 1.384 . S
C2940 H2958 0.928 . S
C2941 C2938 1.260 . S
C2941 C2939 1.479 . S
C2942 C2937 1.245 . S
C2942 C2938 1.477 . S
C2942 H2959 0.932 . S
C2943 U2926 2.882 . S
C2943 C2937 1.428 . S
C2943 O2946 1.301 . S
C2943 O2947 1.282 . S
O2944 U2926 2.441 . S
O2944 C2930 1.249 . S
O2945 U2926 2.420 . S
O2945 C2930 1.202 . S
O2946 U2926 2.455 . S
O2946 C2943 1.301 . S
O2947 U2926 2.449 . S
O2947 C2943 1.282 . S
H2948 C2921 0.931 . S
H2949 C2923 0.929 . S
H2950 C2924 0.930 . S
H2951 C2925 0.931 . S
H2952 C2932 0.932 . S
H2953 C2933 0.930 . S
H2954 C2934 0.929 . S
H2955 C2936 0.930 . S
H2956 C2938 0.932 . S
H2957 C2939 0.929 . S
H2958 C2940 0.928 . S
H2959 C2942 0.932 . S
C2960 C2961 1.264 . S
C2960 C2965 1.479 . S
C2960 C2970 1.465 . S
C2961 C2960 1.264 . S
C2961 C2963 1.339 . S
C2961 H2988 0.931 . S
C2962 C2963 1.395 . S
C2962 C2964 1.320 . S
C2963 C2961 1.339 . S
C2963 C2962 1.395 . S
C2963 H2989 0.929 . S
C2964 C2962 1.320 . S
C2964 C2965 1.405 . S
C2964 H2990 0.930 . S
C2965 C2960 1.479 . S
C2965 C2964 1.405 . S
C2965 H2991 0.931 . S
U2966 O2967 2.454 . S
U2966 O2968 2.458 . S
U2966 C2969 2.984 . S
U2966 C2970 2.847 . S
U2966 C2983 2.882 . S
U2966 O2984 2.441 . S
U2966 O2985 2.420 . S
U2966 O2986 2.455 . S
U2966 O2987 2.449 . S
O2967 U2966 2.454 . S
O2967 C2969 1.353 . S
O2968 U2966 2.458 . S
O2968 C2969 1.286 . S
C2969 U2966 2.984 . S
C2969 O2967 1.353 . S
C2969 O2968 1.286 . S
C2969 C2971 1.363 . S
C2970 C2960 1.465 . S
C2970 U2966 2.847 . S
C2970 O2984 1.249 . S
C2970 O2985 1.202 . S
C2971 C2969 1.363 . S
C2971 C2973 1.408 . S
C2971 C2976 1.342 . S
C2972 C2973 1.310 . S
C2972 C2975 1.461 . S
C2972 H2992 0.932 . S
C2973 C2971 1.408 . S
C2973 C2972 1.310 . S
C2973 H2993 0.930 . S
C2974 C2975 1.474 . S
C2974 C2976 1.285 . S
C2974 H2994 0.929 . S
C2975 C2972 1.461 . S
C2975 C2974 1.474 . S
C2976 C2971 1.342 . S
C2976 C2974 1.285 . S
C2976 H2995 0.930 . S
C2977 C2980 1.424 . S
C2977 C2982 1.245 . S
C2977 C2983 1.428 . S
C2978 C2981 1.260 . S
C2978 C2982 1.477 . S
C2978 H2996 0.932 . S
C2979 C2980 1.384 . S
C2979 C2981 1.479 . S
C2979 H2997 0.929 . S
C2980 C2977 1.424 . S
C2980 C2979 1.384 . S
C2980 H2998 0.928 . S
C2981 C2978 1.260 . S
C2981 C2979 1.479 . S
C2982 C2977 1.245 . S
C2982 C2978 1.477 . S
C2982 H2999 0.932 . S
C2983 U2966 2.882 . S
C2983 C2977 1.428 . S
C2983 O2986 1.301 . S
C2983 O2987 1.282 . S
O2984 U2966 2.441 . S
O2984 C2970 1.249 . S
O2985 U2966 2.420 . S
O2985 C2970 1.202 . S
O2986 U2966 2.455 . S
O2986 C2983 1.301 . S
O2987 U2966 2.449 . S
O2987 C2983 1.282 . S
H2988 C2961 0.931 . S
H2989 C2963 0.929 . S
H2990 C2964 0.930 . S
H2991 C2965 0.931 . S
H2992 C2972 0.932 . S
H2993 C2973 0.930 . S
H2994 C2974 0.929 . S
H2995 C2976 0.930 . S
H2996 C2978 0.932 . S
H2997 C2979 0.929 . S
H2998 C2980 0.928 . S
H2999 C2982 0.932 . S
C3000 C3001 1.264 . S
C3000 C3005 1.479 . S
C3000 C3010 1.465 . S
C3001 C3000 1.264 . S
C3001 C3003 1.339 . S
C3001 H3028 0.931 . S
C3002 C3003 1.395 . S
C3002 C3004 1.320 . S
C3003 C3001 1.339 . S
C3003 C3002 1.395 . S
C3003 H3029 0.929 . S
C3004 C3002 1.320 . S
C3004 C3005 1.405 . S
C3004 H3030 0.930 . S
C3005 C3000 1.479 . S
C3005 C3004 1.405 . S
C3005 H3031 0.931 . S
U3006 O3007 2.454 . S
U3006 O3008 2.458 . S
U3006 C3009 2.984 . S
U3006 C3010 2.847 . S
U3006 C3023 2.882 . S
U3006 O3024 2.441 . S
U3006 O3025 2.420 . S
U3006 O3026 2.455 . S
U3006 O3027 2.449 . S
O3007 U3006 2.454 . S
O3007 C3009 1.353 . S
O3008 U3006 2.458 . S
O3008 C3009 1.286 . S
C3009 U3006 2.984 . S
C3009 O3007 1.353 . S
C3009 O3008 1.286 . S
C3009 C3011 1.363 . S
C3010 C3000 1.465 . S
C3010 U3006 2.847 . S
C3010 O3024 1.249 . S
C3010 O3025 1.202 . S
C3011 C3009 1.363 . S
C3011 C3013 1.408 . S
C3011 C3016 1.342 . S
C3012 C3013 1.310 . S
C3012 C3015 1.461 . S
C3012 H3032 0.932 . S
C3013 C3011 1.408 . S
C3013 C3012 1.310 . S
C3013 H3033 0.930 . S
C3014 C3015 1.474 . S
C3014 C3016 1.285 . S
C3014 H3034 0.929 . S
C3015 C3012 1.461 . S
C3015 C3014 1.474 . S
C3016 C3011 1.342 . S
C3016 C3014 1.285 . S
C3016 H3035 0.930 . S
C3017 C3020 1.424 . S
C3017 C3022 1.245 . S
C3017 C3023 1.428 . S
C3018 C3021 1.260 . S
C3018 C3022 1.477 . S
C3018 H3036 0.932 . S
C3019 C3020 1.384 . S
C3019 C3021 1.479 . S
C3019 H3037 0.929 . S
C3020 C3017 1.424 . S
C3020 C3019 1.384 . S
C3020 H3038 0.928 . S
C3021 C3018 1.260 . S
C3021 C3019 1.479 . S
C3022 C3017 1.245 . S
C3022 C3018 1.477 . S
C3022 H3039 0.932 . S
C3023 U3006 2.882 . S
C3023 C3017 1.428 . S
C3023 O3026 1.301 . S
C3023 O3027 1.282 . S
O3024 U3006 2.441 . S
O3024 C3010 1.249 . S
O3025 U3006 2.420 . S
O3025 C3010 1.202 . S
O3026 U3006 2.455 . S
O3026 C3023 1.301 . S
O3027 U3006 2.449 . S
O3027 C3023 1.282 . S
H3028 C3001 0.931 . S
H3029 C3003 0.929 . S
H3030 C3004 0.930 . S
H3031 C3005 0.931 . S
H3032 C3012 0.932 . S
H3033 C3013 0.930 . S
H3034 C3014 0.929 . S
H3035 C3016 0.930 . S
H3036 C3018 0.932 . S
H3037 C3019 0.929 . S
H3038 C3020 0.928 . S
H3039 C3022 0.932 . S
C3040 C3041 1.264 . S
C3040 C3045 1.479 . S
C3040 C3050 1.465 . S
C3041 C3040 1.264 . S
C3041 C3043 1.339 . S
C3041 H3068 0.931 . S
C3042 C3043 1.395 . S
C3042 C3044 1.320 . S
C3043 C3041 1.339 . S
C3043 C3042 1.395 . S
C3043 H3069 0.929 . S
C3044 C3042 1.320 . S
C3044 C3045 1.405 . S
C3044 H3070 0.930 . S
C3045 C3040 1.479 . S
C3045 C3044 1.405 . S
C3045 H3071 0.931 . S
U3046 O3047 2.454 . S
U3046 O3048 2.458 . S
U3046 C3049 2.984 . S
U3046 C3050 2.847 . S
U3046 C3063 2.882 . S
U3046 O3064 2.441 . S
U3046 O3065 2.420 . S
U3046 O3066 2.455 . S
U3046 O3067 2.449 . S
O3047 U3046 2.454 . S
O3047 C3049 1.353 . S
O3048 U3046 2.458 . S
O3048 C3049 1.286 . S
C3049 U3046 2.984 . S
C3049 O3047 1.353 . S
C3049 O3048 1.286 . S
C3049 C3051 1.363 . S
C3050 C3040 1.465 . S
C3050 U3046 2.847 . S
C3050 O3064 1.249 . S
C3050 O3065 1.202 . S
C3051 C3049 1.363 . S
C3051 C3053 1.408 . S
C3051 C3056 1.342 . S
C3052 C3053 1.310 . S
C3052 C3055 1.461 . S
C3052 H3072 0.932 . S
C3053 C3051 1.408 . S
C3053 C3052 1.310 . S
C3053 H3073 0.930 . S
C3054 C3055 1.474 . S
C3054 C3056 1.285 . S
C3054 H3074 0.929 . S
C3055 C3052 1.461 . S
C3055 C3054 1.474 . S
C3056 C3051 1.342 . S
C3056 C3054 1.285 . S
C3056 H3075 0.930 . S
C3057 C3060 1.424 . S
C3057 C3062 1.245 . S
C3057 C3063 1.428 . S
C3058 C3061 1.260 . S
C3058 C3062 1.477 . S
C3058 H3076 0.932 . S
C3059 C3060 1.384 . S
C3059 C3061 1.479 . S
C3059 H3077 0.929 . S
C3060 C3057 1.424 . S
C3060 C3059 1.384 . S
C3060 H3078 0.928 . S
C3061 C3058 1.260 . S
C3061 C3059 1.479 . S
C3062 C3057 1.245 . S
C3062 C3058 1.477 . S
C3062 H3079 0.932 . S
C3063 U3046 2.882 . S
C3063 C3057 1.428 . S
C3063 O3066 1.301 . S
C3063 O3067 1.282 . S
O3064 U3046 2.441 . S
O3064 C3050 1.249 . S
O3065 U3046 2.420 . S
O3065 C3050 1.202 . S
O3066 U3046 2.455 . S
O3066 C3063 1.301 . S
O3067 U3046 2.449 . S
O3067 C3063 1.282 . S
H3068 C3041 0.931 . S
H3069 C3043 0.929 . S
H3070 C3044 0.930 . S
H3071 C3045 0.931 . S
H3072 C3052 0.932 . S
H3073 C3053 0.930 . S
H3074 C3054 0.929 . S
H3075 C3056 0.930 . S
H3076 C3058 0.932 . S
H3077 C3059 0.929 . S
H3078 C3060 0.928 . S
H3079 C3062 0.932 . S
C3080 C3081 1.264 . S
C3080 C3085 1.479 . S
C3080 C3090 1.465 . S
C3081 C3080 1.264 . S
C3081 C3083 1.339 . S
C3081 H3108 0.931 . S
C3082 C3083 1.395 . S
C3082 C3084 1.320 . S
C3083 C3081 1.339 . S
C3083 C3082 1.395 . S
C3083 H3109 0.929 . S
C3084 C3082 1.320 . S
C3084 C3085 1.405 . S
C3084 H3110 0.930 . S
C3085 C3080 1.479 . S
C3085 C3084 1.405 . S
C3085 H3111 0.931 . S
U3086 O3087 2.454 . S
U3086 O3088 2.458 . S
U3086 C3089 2.984 . S
U3086 C3090 2.847 . S
U3086 C3103 2.882 . S
U3086 O3104 2.441 . S
U3086 O3105 2.420 . S
U3086 O3106 2.455 . S
U3086 O3107 2.449 . S
O3087 U3086 2.454 . S
O3087 C3089 1.353 . S
O3088 U3086 2.458 . S
O3088 C3089 1.286 . S
C3089 U3086 2.984 . S
C3089 O3087 1.353 . S
C3089 O3088 1.286 . S
C3089 C3091 1.363 . S
C3090 C3080 1.465 . S
C3090 U3086 2.847 . S
C3090 O3104 1.249 . S
C3090 O3105 1.202 . S
C3091 C3089 1.363 . S
C3091 C3093 1.408 . S
C3091 C3096 1.342 . S
C3092 C3093 1.310 . S
C3092 C3095 1.461 . S
C3092 H3112 0.932 . S
C3093 C3091 1.408 . S
C3093 C3092 1.310 . S
C3093 H3113 0.930 . S
C3094 C3095 1.474 . S
C3094 C3096 1.285 . S
C3094 H3114 0.929 . S
C3095 C3092 1.461 . S
C3095 C3094 1.474 . S
C3096 C3091 1.342 . S
C3096 C3094 1.285 . S
C3096 H3115 0.930 . S
C3097 C3100 1.424 . S
C3097 C3102 1.245 . S
C3097 C3103 1.428 . S
C3098 C3101 1.260 . S
C3098 C3102 1.477 . S
C3098 H3116 0.932 . S
C3099 C3100 1.384 . S
C3099 C3101 1.479 . S
C3099 H3117 0.929 . S
C3100 C3097 1.424 . S
C3100 C3099 1.384 . S
C3100 H3118 0.928 . S
C3101 C3098 1.260 . S
C3101 C3099 1.479 . S
C3102 C3097 1.245 . S
C3102 C3098 1.477 . S
C3102 H3119 0.932 . S
C3103 U3086 2.882 . S
C3103 C3097 1.428 . S
C3103 O3106 1.301 . S
C3103 O3107 1.282 . S
O3104 U3086 2.441 . S
O3104 C3090 1.249 . S
O3105 U3086 2.420 . S
O3105 C3090 1.202 . S
O3106 U3086 2.455 . S
O3106 C3103 1.301 . S
O3107 U3086 2.449 . S
O3107 C3103 1.282 . S
H3108 C3081 0.931 . S
H3109 C3083 0.929 . S
H3110 C3084 0.930 . S
H3111 C3085 0.931 . S
H3112 C3092 0.932 . S
H3113 C3093 0.930 . S
H3114 C3094 0.929 . S
H3115 C3096 0.930 . S
H3116 C3098 0.932 . S
H3117 C3099 0.929 . S
H3118 C3100 0.928 . S
H3119 C3102 0.932 . S
C3120 C3121 1.264 . S
C3120 C3125 1.479 . S
C3120 C3130 1.465 . S
C3121 C3120 1.264 . S
C3121 C3123 1.339 . S
C3121 H3148 0.931 . S
C3122 C3123 1.395 . S
C3122 C3124 1.320 . S
C3123 C3121 1.339 . S
C3123 C3122 1.395 . S
C3123 H3149 0.929 . S
C3124 C3122 1.320 . S
C3124 C3125 1.405 . S
C3124 H3150 0.930 . S
C3125 C3120 1.479 . S
C3125 C3124 1.405 . S
C3125 H3151 0.931 . S
U3126 O3127 2.454 . S
U3126 O3128 2.458 . S
U3126 C3129 2.984 . S
U3126 C3130 2.847 . S
U3126 C3143 2.882 . S
U3126 O3144 2.441 . S
U3126 O3145 2.420 . S
U3126 O3146 2.455 . S
U3126 O3147 2.449 . S
O3127 U3126 2.454 . S
O3127 C3129 1.353 . S
O3128 U3126 2.458 . S
O3128 C3129 1.286 . S
C3129 U3126 2.984 . S
C3129 O3127 1.353 . S
C3129 O3128 1.286 . S
C3129 C3131 1.363 . S
C3130 C3120 1.465 . S
C3130 U3126 2.847 . S
C3130 O3144 1.249 . S
C3130 O3145 1.202 . S
C3131 C3129 1.363 . S
C3131 C3133 1.408 . S
C3131 C3136 1.342 . S
C3132 C3133 1.310 . S
C3132 C3135 1.461 . S
C3132 H3152 0.932 . S
C3133 C3131 1.408 . S
C3133 C3132 1.310 . S
C3133 H3153 0.930 . S
C3134 C3135 1.474 . S
C3134 C3136 1.285 . S
C3134 H3154 0.929 . S
C3135 C3132 1.461 . S
C3135 C3134 1.474 . S
C3136 C3131 1.342 . S
C3136 C3134 1.285 . S
C3136 H3155 0.930 . S
C3137 C3140 1.424 . S
C3137 C3142 1.245 . S
C3137 C3143 1.428 . S
C3138 C3141 1.260 . S
C3138 C3142 1.477 . S
C3138 H3156 0.932 . S
C3139 C3140 1.384 . S
C3139 C3141 1.479 . S
C3139 H3157 0.929 . S
C3140 C3137 1.424 . S
C3140 C3139 1.384 . S
C3140 H3158 0.928 . S
C3141 C3138 1.260 . S
C3141 C3139 1.479 . S
C3142 C3137 1.245 . S
C3142 C3138 1.477 . S
C3142 H3159 0.932 . S
C3143 U3126 2.882 . S
C3143 C3137 1.428 . S
C3143 O3146 1.301 . S
C3143 O3147 1.282 . S
O3144 U3126 2.441 . S
O3144 C3130 1.249 . S
O3145 U3126 2.420 . S
O3145 C3130 1.202 . S
O3146 U3126 2.455 . S
O3146 C3143 1.301 . S
O3147 U3126 2.449 . S
O3147 C3143 1.282 . S
H3148 C3121 0.931 . S
H3149 C3123 0.929 . S
H3150 C3124 0.930 . S
H3151 C3125 0.931 . S
H3152 C3132 0.932 . S
H3153 C3133 0.930 . S
H3154 C3134 0.929 . S
H3155 C3136 0.930 . S
H3156 C3138 0.932 . S
H3157 C3139 0.929 . S
H3158 C3140 0.928 . S
H3159 C3142 0.932 . S
C3160 C3161 1.264 . S
C3160 C3165 1.479 . S
C3160 C3170 1.465 . S
C3161 C3160 1.264 . S
C3161 C3163 1.339 . S
C3161 H3188 0.931 . S
C3162 C3163 1.395 . S
C3162 C3164 1.320 . S
C3163 C3161 1.339 . S
C3163 C3162 1.395 . S
C3163 H3189 0.929 . S
C3164 C3162 1.320 . S
C3164 C3165 1.405 . S
C3164 H3190 0.930 . S
C3165 C3160 1.479 . S
C3165 C3164 1.405 . S
C3165 H3191 0.931 . S
U3166 O3167 2.454 . S
U3166 O3168 2.458 . S
U3166 C3169 2.984 . S
U3166 C3170 2.847 . S
U3166 C3183 2.882 . S
U3166 O3184 2.441 . S
U3166 O3185 2.420 . S
U3166 O3186 2.455 . S
U3166 O3187 2.449 . S
O3167 U3166 2.454 . S
O3167 C3169 1.353 . S
O3168 U3166 2.458 . S
O3168 C3169 1.286 . S
C3169 U3166 2.984 . S
C3169 O3167 1.353 . S
C3169 O3168 1.286 . S
C3169 C3171 1.363 . S
C3170 C3160 1.465 . S
C3170 U3166 2.847 . S
C3170 O3184 1.249 . S
C3170 O3185 1.202 . S
C3171 C3169 1.363 . S
C3171 C3173 1.408 . S
C3171 C3176 1.342 . S
C3172 C3173 1.310 . S
C3172 C3175 1.461 . S
C3172 H3192 0.932 . S
C3173 C3171 1.408 . S
C3173 C3172 1.310 . S
C3173 H3193 0.930 . S
C3174 C3175 1.474 . S
C3174 C3176 1.285 . S
C3174 H3194 0.929 . S
C3175 C3172 1.461 . S
C3175 C3174 1.474 . S
C3176 C3171 1.342 . S
C3176 C3174 1.285 . S
C3176 H3195 0.930 . S
C3177 C3180 1.424 . S
C3177 C3182 1.245 . S
C3177 C3183 1.428 . S
C3178 C3181 1.260 . S
C3178 C3182 1.477 . S
C3178 H3196 0.932 . S
C3179 C3180 1.384 . S
C3179 C3181 1.479 . S
C3179 H3197 0.929 . S
C3180 C3177 1.424 . S
C3180 C3179 1.384 . S
C3180 H3198 0.928 . S
C3181 C3178 1.260 . S
C3181 C3179 1.479 . S
C3182 C3177 1.245 . S
C3182 C3178 1.477 . S
C3182 H3199 0.932 . S
C3183 U3166 2.882 . S
C3183 C3177 1.428 . S
C3183 O3186 1.301 . S
C3183 O3187 1.282 . S
O3184 U3166 2.441 . S
O3184 C3170 1.249 . S
O3185 U3166 2.420 . S
O3185 C3170 1.202 . S
O3186 U3166 2.455 . S
O3186 C3183 1.301 . S
O3187 U3166 2.449 . S
O3187 C3183 1.282 . S
H3188 C3161 0.931 . S
H3189 C3163 0.929 . S
H3190 C3164 0.930 . S
H3191 C3165 0.931 . S
H3192 C3172 0.932 . S
H3193 C3173 0.930 . S
H3194 C3174 0.929 . S
H3195 C3176 0.930 . S
H3196 C3178 0.932 . S
H3197 C3179 0.929 . S
H3198 C3180 0.928 . S
H3199 C3182 0.932 . S
C3200 C3201 1.264 . S
C3200 C3205 1.479 . S
C3200 C3210 1.465 . S
C3201 C3200 1.264 . S
C3201 C3203 1.339 . S
C3201 H3228 0.931 . S
C3202 C3203 1.395 . S
C3202 C3204 1.320 . S
C3203 C3201 1.339 . S
C3203 C3202 1.395 . S
C3203 H3229 0.929 . S
C3204 C3202 1.320 . S
C3204 C3205 1.405 . S
C3204 H3230 0.930 . S
C3205 C3200 1.479 . S
C3205 C3204 1.405 . S
C3205 H3231 0.931 . S
U3206 O3207 2.454 . S
U3206 O3208 2.458 . S
U3206 C3209 2.984 . S
U3206 C3210 2.847 . S
U3206 C3223 2.882 . S
U3206 O3224 2.441 . S
U3206 O3225 2.420 . S
U3206 O3226 2.455 . S
U3206 O3227 2.449 . S
O3207 U3206 2.454 . S
O3207 C3209 1.353 . S
O3208 U3206 2.458 . S
O3208 C3209 1.286 . S
C3209 U3206 2.984 . S
C3209 O3207 1.353 . S
C3209 O3208 1.286 . S
C3209 C3211 1.363 . S
C3210 C3200 1.465 . S
C3210 U3206 2.847 . S
C3210 O3224 1.249 . S
C3210 O3225 1.202 . S
C3211 C3209 1.363 . S
C3211 C3213 1.408 . S
C3211 C3216 1.342 . S
C3212 C3213 1.310 . S
C3212 C3215 1.461 . S
C3212 H3232 0.932 . S
C3213 C3211 1.408 . S
C3213 C3212 1.310 . S
C3213 H3233 0.930 . S
C3214 C3215 1.474 . S
C3214 C3216 1.285 . S
C3214 H3234 0.929 . S
C3215 C3212 1.461 . S
C3215 C3214 1.474 . S
C3216 C3211 1.342 . S
C3216 C3214 1.285 . S
C3216 H3235 0.930 . S
C3217 C3220 1.424 . S
C3217 C3222 1.245 . S
C3217 C3223 1.428 . S
C3218 C3221 1.260 . S
C3218 C3222 1.477 . S
C3218 H3236 0.932 . S
C3219 C3220 1.384 . S
C3219 C3221 1.479 . S
C3219 H3237 0.929 . S
C3220 C3217 1.424 . S
C3220 C3219 1.384 . S
C3220 H3238 0.928 . S
C3221 C3218 1.260 . S
C3221 C3219 1.479 . S
C3222 C3217 1.245 . S
C3222 C3218 1.477 . S
C3222 H3239 0.932 . S
C3223 U3206 2.882 . S
C3223 C3217 1.428 . S
C3223 O3226 1.301 . S
C3223 O3227 1.282 . S
O3224 U3206 2.441 . S
O3224 C3210 1.249 . S
O3225 U3206 2.420 . S
O3225 C3210 1.202 . S
O3226 U3206 2.455 . S
O3226 C3223 1.301 . S
O3227 U3206 2.449 . S
O3227 C3223 1.282 . S
H3228 C3201 0.931 . S
H3229 C3203 0.929 . S
H3230 C3204 0.930 . S
H3231 C3205 0.931 . S
H3232 C3212 0.932 . S
H3233 C3213 0.930 . S
H3234 C3214 0.929 . S
H3235 C3216 0.930 . S
H3236 C3218 0.932 . S
H3237 C3219 0.929 . S
H3238 C3220 0.928 . S
H3239 C3222 0.932 . S
C3240 C3241 1.264 . S
C3240 C3245 1.479 . S
C3240 C3250 1.465 . S
C3241 C3240 1.264 . S
C3241 C3243 1.339 . S
C3241 H3268 0.931 . S
C3242 C3243 1.395 . S
C3242 C3244 1.320 . S
C3243 C3241 1.339 . S
C3243 C3242 1.395 . S
C3243 H3269 0.929 . S
C3244 C3242 1.320 . S
C3244 C3245 1.405 . S
C3244 H3270 0.930 . S
C3245 C3240 1.479 . S
C3245 C3244 1.405 . S
C3245 H3271 0.931 . S
U3246 O3247 2.454 . S
U3246 O3248 2.458 . S
U3246 C3249 2.984 . S
U3246 C3250 2.847 . S
U3246 C3263 2.882 . S
U3246 O3264 2.441 . S
U3246 O3265 2.420 . S
U3246 O3266 2.455 . S
U3246 O3267 2.449 . S
O3247 U3246 2.454 . S
O3247 C3249 1.353 . S
O3248 U3246 2.458 . S
O3248 C3249 1.286 . S
C3249 U3246 2.984 . S
C3249 O3247 1.353 . S
C3249 O3248 1.286 . S
C3249 C3251 1.363 . S
C3250 C3240 1.465 . S
C3250 U3246 2.847 . S
C3250 O3264 1.249 . S
C3250 O3265 1.202 . S
C3251 C3249 1.363 . S
C3251 C3253 1.408 . S
C3251 C3256 1.342 . S
C3252 C3253 1.310 . S
C3252 C3255 1.461 . S
C3252 H3272 0.932 . S
C3253 C3251 1.408 . S
C3253 C3252 1.310 . S
C3253 H3273 0.930 . S
C3254 C3255 1.474 . S
C3254 C3256 1.285 . S
C3254 H3274 0.929 . S
C3255 C3252 1.461 . S
C3255 C3254 1.474 . S
C3256 C3251 1.342 . S
C3256 C3254 1.285 . S
C3256 H3275 0.930 . S
C3257 C3260 1.424 . S
C3257 C3262 1.245 . S
C3257 C3263 1.428 . S
C3258 C3261 1.260 . S
C3258 C3262 1.477 . S
C3258 H3276 0.932 . S
C3259 C3260 1.384 . S
C3259 C3261 1.479 . S
C3259 H3277 0.929 . S
C3260 C3257 1.424 . S
C3260 C3259 1.384 . S
C3260 H3278 0.928 . S
C3261 C3258 1.260 . S
C3261 C3259 1.479 . S
C3262 C3257 1.245 . S
C3262 C3258 1.477 . S
C3262 H3279 0.932 . S
C3263 U3246 2.882 . S
C3263 C3257 1.428 . S
C3263 O3266 1.301 . S
C3263 O3267 1.282 . S
O3264 U3246 2.441 . S
O3264 C3250 1.249 . S
O3265 U3246 2.420 . S
O3265 C3250 1.202 . S
O3266 U3246 2.455 . S
O3266 C3263 1.301 . S
O3267 U3246 2.449 . S
O3267 C3263 1.282 . S
H3268 C3241 0.931 . S
H3269 C3243 0.929 . S
H3270 C3244 0.930 . S
H3271 C3245 0.931 . S
H3272 C3252 0.932 . S
H3273 C3253 0.930 . S
H3274 C3254 0.929 . S
H3275 C3256 0.930 . S
H3276 C3258 0.932 . S
H3277 C3259 0.929 . S
H3278 C3260 0.928 . S
H3279 C3262 0.932 . S
C3280 C3281 1.264 . S
C3280 C3285 1.479 . S
C3280 C3290 1.465 . S
C3281 C3280 1.264 . S
C3281 C3283 1.339 . S
C3281 H3308 0.931 . S
C3282 C3283 1.395 . S
C3282 C3284 1.320 . S
C3283 C3281 1.339 . S
C3283 C3282 1.395 . S
C3283 H3309 0.929 . S
C3284 C3282 1.320 . S
C3284 C3285 1.405 . S
C3284 H3310 0.930 . S
C3285 C3280 1.479 . S
C3285 C3284 1.405 . S
C3285 H3311 0.931 . S
U3286 O3287 2.454 . S
U3286 O3288 2.458 . S
U3286 C3289 2.984 . S
U3286 C3290 2.847 . S
U3286 C3303 2.882 . S
U3286 O3304 2.441 . S
U3286 O3305 2.420 . S
U3286 O3306 2.455 . S
U3286 O3307 2.449 . S
O3287 U3286 2.454 . S
O3287 C3289 1.353 . S
O3288 U3286 2.458 . S
O3288 C3289 1.286 . S
C3289 U3286 2.984 . S
C3289 O3287 1.353 . S
C3289 O3288 1.286 . S
C3289 C3291 1.363 . S
C3290 C3280 1.465 . S
C3290 U3286 2.847 . S
C3290 O3304 1.249 . S
C3290 O3305 1.202 . S
C3291 C3289 1.363 . S
C3291 C3293 1.408 . S
C3291 C3296 1.342 . S
C3292 C3293 1.310 . S
C3292 C3295 1.461 . S
C3292 H3312 0.932 . S
C3293 C3291 1.408 . S
C3293 C3292 1.310 . S
C3293 H3313 0.930 . S
C3294 C3295 1.474 . S
C3294 C3296 1.285 . S
C3294 H3314 0.929 . S
C3295 C3292 1.461 . S
C3295 C3294 1.474 . S
C3296 C3291 1.342 . S
C3296 C3294 1.285 . S
C3296 H3315 0.930 . S
C3297 C3300 1.424 . S
C3297 C3302 1.245 . S
C3297 C3303 1.428 . S
C3298 C3301 1.260 . S
C3298 C3302 1.477 . S
C3298 H3316 0.932 . S
C3299 C3300 1.384 . S
C3299 C3301 1.479 . S
C3299 H3317 0.929 . S
C3300 C3297 1.424 . S
C3300 C3299 1.384 . S
C3300 H3318 0.928 . S
C3301 C3298 1.260 . S
C3301 C3299 1.479 . S
C3302 C3297 1.245 . S
C3302 C3298 1.477 . S
C3302 H3319 0.932 . S
C3303 U3286 2.882 . S
C3303 C3297 1.428 . S
C3303 O3306 1.301 . S
C3303 O3307 1.282 . S
O3304 U3286 2.441 . S
O3304 C3290 1.249 . S
O3305 U3286 2.420 . S
O3305 C3290 1.202 . S
O3306 U3286 2.455 . S
O3306 C3303 1.301 . S
O3307 U3286 2.449 . S
O3307 C3303 1.282 . S
H3308 C3281 0.931 . S
H3309 C3283 0.929 . S
H3310 C3284 0.930 . S
H3311 C3285 0.931 . S
H3312 C3292 0.932 . S
H3313 C3293 0.930 . S
H3314 C3294 0.929 . S
H3315 C3296 0.930 . S
H3316 C3298 0.932 . S
H3317 C3299 0.929 . S
H3318 C3300 0.928 . S
H3319 C3302 0.932 . S
C3320 C3321 1.264 . S
C3320 C3325 1.479 . S
C3320 C3330 1.465 . S
C3321 C3320 1.264 . S
C3321 C3323 1.339 . S
C3321 H3348 0.931 . S
C3322 C3323 1.395 . S
C3322 C3324 1.320 . S
C3323 C3321 1.339 . S
C3323 C3322 1.395 . S
C3323 H3349 0.929 . S
C3324 C3322 1.320 . S
C3324 C3325 1.405 . S
C3324 H3350 0.930 . S
C3325 C3320 1.479 . S
C3325 C3324 1.405 . S
C3325 H3351 0.931 . S
U3326 O3327 2.454 . S
U3326 O3328 2.458 . S
U3326 C3329 2.984 . S
U3326 C3330 2.847 . S
U3326 C3343 2.882 . S
U3326 O3344 2.441 . S
U3326 O3345 2.420 . S
U3326 O3346 2.455 . S
U3326 O3347 2.449 . S
O3327 U3326 2.454 . S
O3327 C3329 1.353 . S
O3328 U3326 2.458 . S
O3328 C3329 1.286 . S
C3329 U3326 2.984 . S
C3329 O3327 1.353 . S
C3329 O3328 1.286 . S
C3329 C3331 1.363 . S
C3330 C3320 1.465 . S
C3330 U3326 2.847 . S
C3330 O3344 1.249 . S
C3330 O3345 1.202 . S
C3331 C3329 1.363 . S
C3331 C3333 1.408 . S
C3331 C3336 1.342 . S
C3332 C3333 1.310 . S
C3332 C3335 1.461 . S
C3332 H3352 0.932 . S
C3333 C3331 1.408 . S
C3333 C3332 1.310 . S
C3333 H3353 0.930 . S
C3334 C3335 1.474 . S
C3334 C3336 1.285 . S
C3334 H3354 0.929 . S
C3335 C3332 1.461 . S
C3335 C3334 1.474 . S
C3336 C3331 1.342 . S
C3336 C3334 1.285 . S
C3336 H3355 0.930 . S
C3337 C3340 1.424 . S
C3337 C3342 1.245 . S
C3337 C3343 1.428 . S
C3338 C3341 1.260 . S
C3338 C3342 1.477 . S
C3338 H3356 0.932 . S
C3339 C3340 1.384 . S
C3339 C3341 1.479 . S
C3339 H3357 0.929 . S
C3340 C3337 1.424 . S
C3340 C3339 1.384 . S
C3340 H3358 0.928 . S
C3341 C3338 1.260 . S
C3341 C3339 1.479 . S
C3342 C3337 1.245 . S
C3342 C3338 1.477 . S
C3342 H3359 0.932 . S
C3343 U3326 2.882 . S
C3343 C3337 1.428 . S
C3343 O3346 1.301 . S
C3343 O3347 1.282 . S
O3344 U3326 2.441 . S
O3344 C3330 1.249 . S
O3345 U3326 2.420 . S
O3345 C3330 1.202 . S
O3346 U3326 2.455 . S
O3346 C3343 1.301 . S
O3347 U3326 2.449 . S
O3347 C3343 1.282 . S
H3348 C3321 0.931 . S
H3349 C3323 0.929 . S
H3350 C3324 0.930 . S
H3351 C3325 0.931 . S
H3352 C3332 0.932 . S
H3353 C3333 0.930 . S
H3354 C3334 0.929 . S
H3355 C3336 0.930 . S
H3356 C3338 0.932 . S
H3357 C3339 0.929 . S
H3358 C3340 0.928 . S
H3359 C3342 0.932 . S
C3360 C3361 1.264 . S
C3360 C3365 1.479 . S
C3360 C3370 1.465 . S
C3361 C3360 1.264 . S
C3361 C3363 1.339 . S
C3361 H3388 0.931 . S
C3362 C3363 1.395 . S
C3362 C3364 1.320 . S
C3363 C3361 1.339 . S
C3363 C3362 1.395 . S
C3363 H3389 0.929 . S
C3364 C3362 1.320 . S
C3364 C3365 1.405 . S
C3364 H3390 0.930 . S
C3365 C3360 1.479 . S
C3365 C3364 1.405 . S
C3365 H3391 0.931 . S
U3366 O3367 2.454 . S
U3366 O3368 2.458 . S
U3366 C3369 2.984 . S
U3366 C3370 2.847 . S
U3366 C3383 2.882 . S
U3366 O3384 2.441 . S
U3366 O3385 2.420 . S
U3366 O3386 2.455 . S
U3366 O3387 2.449 . S
O3367 U3366 2.454 . S
O3367 C3369 1.353 . S
O3368 U3366 2.458 . S
O3368 C3369 1.286 . S
C3369 U3366 2.984 . S
C3369 O3367 1.353 . S
C3369 O3368 1.286 . S
C3369 C3371 1.363 . S
C3370 C3360 1.465 . S
C3370 U3366 2.847 . S
C3370 O3384 1.249 . S
C3370 O3385 1.202 . S
C3371 C3369 1.363 . S
C3371 C3373 1.408 . S
C3371 C3376 1.342 . S
C3372 C3373 1.310 . S
C3372 C3375 1.461 . S
C3372 H3392 0.932 . S
C3373 C3371 1.408 . S
C3373 C3372 1.310 . S
C3373 H3393 0.930 . S
C3374 C3375 1.474 . S
C3374 C3376 1.285 . S
C3374 H3394 0.929 . S
C3375 C3372 1.461 . S
C3375 C3374 1.474 . S
C3376 C3371 1.342 . S
C3376 C3374 1.285 . S
C3376 H3395 0.930 . S
C3377 C3380 1.424 . S
C3377 C3382 1.245 . S
C3377 C3383 1.428 . S
C3378 C3381 1.260 . S
C3378 C3382 1.477 . S
C3378 H3396 0.932 . S
C3379 C3380 1.384 . S
C3379 C3381 1.479 . S
C3379 H3397 0.929 . S
C3380 C3377 1.424 . S
C3380 C3379 1.384 . S
C3380 H3398 0.928 . S
C3381 C3378 1.260 . S
C3381 C3379 1.479 . S
C3382 C3377 1.245 . S
C3382 C3378 1.477 . S
C3382 H3399 0.932 . S
C3383 U3366 2.882 . S
C3383 C3377 1.428 . S
C3383 O3386 1.301 . S
C3383 O3387 1.282 . S
O3384 U3366 2.441 . S
O3384 C3370 1.249 . S
O3385 U3366 2.420 . S
O3385 C3370 1.202 . S
O3386 U3366 2.455 . S
O3386 C3383 1.301 . S
O3387 U3366 2.449 . S
O3387 C3383 1.282 . S
H3388 C3361 0.931 . S
H3389 C3363 0.929 . S
H3390 C3364 0.930 . S
H3391 C3365 0.931 . S
H3392 C3372 0.932 . S
H3393 C3373 0.930 . S
H3394 C3374 0.929 . S
H3395 C3376 0.930 . S
H3396 C3378 0.932 . S
H3397 C3379 0.929 . S
H3398 C3380 0.928 . S
H3399 C3382 0.932 . S
C3400 C3401 1.264 . S
C3400 C3405 1.479 . S
C3400 C3410 1.465 . S
C3401 C3400 1.264 . S
C3401 C3403 1.339 . S
C3401 H3428 0.931 . S
C3402 C3403 1.395 . S
C3402 C3404 1.320 . S
C3403 C3401 1.339 . S
C3403 C3402 1.395 . S
C3403 H3429 0.929 . S
C3404 C3402 1.320 . S
C3404 C3405 1.405 . S
C3404 H3430 0.930 . S
C3405 C3400 1.479 . S
C3405 C3404 1.405 . S
C3405 H3431 0.931 . S
U3406 O3407 2.454 . S
U3406 O3408 2.458 . S
U3406 C3409 2.984 . S
U3406 C3410 2.847 . S
U3406 C3423 2.882 . S
U3406 O3424 2.441 . S
U3406 O3425 2.420 . S
U3406 O3426 2.455 . S
U3406 O3427 2.449 . S
O3407 U3406 2.454 . S
O3407 C3409 1.353 . S
O3408 U3406 2.458 . S
O3408 C3409 1.286 . S
C3409 U3406 2.984 . S
C3409 O3407 1.353 . S
C3409 O3408 1.286 . S
C3409 C3411 1.363 . S
C3410 C3400 1.465 . S
C3410 U3406 2.847 . S
C3410 O3424 1.249 . S
C3410 O3425 1.202 . S
C3411 C3409 1.363 . S
C3411 C3413 1.408 . S
C3411 C3416 1.342 . S
C3412 C3413 1.310 . S
C3412 C3415 1.461 . S
C3412 H3432 0.932 . S
C3413 C3411 1.408 . S
C3413 C3412 1.310 . S
C3413 H3433 0.930 . S
C3414 C3415 1.474 . S
C3414 C3416 1.285 . S
C3414 H3434 0.929 . S
C3415 C3412 1.461 . S
C3415 C3414 1.474 . S
C3416 C3411 1.342 . S
C3416 C3414 1.285 . S
C3416 H3435 0.930 . S
C3417 C3420 1.424 . S
C3417 C3422 1.245 . S
C3417 C3423 1.428 . S
C3418 C3421 1.260 . S
C3418 C3422 1.477 . S
C3418 H3436 0.932 . S
C3419 C3420 1.384 . S
C3419 C3421 1.479 . S
C3419 H3437 0.929 . S
C3420 C3417 1.424 . S
C3420 C3419 1.384 . S
C3420 H3438 0.928 . S
C3421 C3418 1.260 . S
C3421 C3419 1.479 . S
C3422 C3417 1.245 . S
C3422 C3418 1.477 . S
C3422 H3439 0.932 . S
C3423 U3406 2.882 . S
C3423 C3417 1.428 . S
C3423 O3426 1.301 . S
C3423 O3427 1.282 . S
O3424 U3406 2.441 . S
O3424 C3410 1.249 . S
O3425 U3406 2.420 . S
O3425 C3410 1.202 . S
O3426 U3406 2.455 . S
O3426 C3423 1.301 . S
O3427 U3406 2.449 . S
O3427 C3423 1.282 . S
H3428 C3401 0.931 . S
H3429 C3403 0.929 . S
H3430 C3404 0.930 . S
H3431 C3405 0.931 . S
H3432 C3412 0.932 . S
H3433 C3413 0.930 . S
H3434 C3414 0.929 . S
H3435 C3416 0.930 . S
H3436 C3418 0.932 . S
H3437 C3419 0.929 . S
H3438 C3420 0.928 . S
H3439 C3422 0.932 . S
C3440 C3441 1.264 . S
C3440 C3445 1.479 . S
C3440 C3450 1.465 . S
C3441 C3440 1.264 . S
C3441 C3443 1.339 . S
C3441 H3468 0.931 . S
C3442 C3443 1.395 . S
C3442 C3444 1.320 . S
C3443 C3441 1.339 . S
C3443 C3442 1.395 . S
C3443 H3469 0.929 . S
C3444 C3442 1.320 . S
C3444 C3445 1.405 . S
C3444 H3470 0.930 . S
C3445 C3440 1.479 . S
C3445 C3444 1.405 . S
C3445 H3471 0.931 . S
U3446 O3447 2.454 . S
U3446 O3448 2.458 . S
U3446 C3449 2.984 . S
U3446 C3450 2.847 . S
U3446 C3463 2.882 . S
U3446 O3464 2.441 . S
U3446 O3465 2.420 . S
U3446 O3466 2.455 . S
U3446 O3467 2.449 . S
O3447 U3446 2.454 . S
O3447 C3449 1.353 . S
O3448 U3446 2.458 . S
O3448 C3449 1.286 . S
C3449 U3446 2.984 . S
C3449 O3447 1.353 . S
C3449 O3448 1.286 . S
C3449 C3451 1.363 . S
C3450 C3440 1.465 . S
C3450 U3446 2.847 . S
C3450 O3464 1.249 . S
C3450 O3465 1.202 . S
C3451 C3449 1.363 . S
C3451 C3453 1.408 . S
C3451 C3456 1.342 . S
C3452 C3453 1.310 . S
C3452 C3455 1.461 . S
C3452 H3472 0.932 . S
C3453 C3451 1.408 . S
C3453 C3452 1.310 . S
C3453 H3473 0.930 . S
C3454 C3455 1.474 . S
C3454 C3456 1.285 . S
C3454 H3474 0.929 . S
C3455 C3452 1.461 . S
C3455 C3454 1.474 . S
C3456 C3451 1.342 . S
C3456 C3454 1.285 . S
C3456 H3475 0.930 . S
C3457 C3460 1.424 . S
C3457 C3462 1.245 . S
C3457 C3463 1.428 . S
C3458 C3461 1.260 . S
C3458 C3462 1.477 . S
C3458 H3476 0.932 . S
C3459 C3460 1.384 . S
C3459 C3461 1.479 . S
C3459 H3477 0.929 . S
C3460 C3457 1.424 . S
C3460 C3459 1.384 . S
C3460 H3478 0.928 . S
C3461 C3458 1.260 . S
C3461 C3459 1.479 . S
C3462 C3457 1.245 . S
C3462 C3458 1.477 . S
C3462 H3479 0.932 . S
C3463 U3446 2.882 . S
C3463 C3457 1.428 . S
C3463 O3466 1.301 . S
C3463 O3467 1.282 . S
O3464 U3446 2.441 . S
O3464 C3450 1.249 . S
O3465 U3446 2.420 . S
O3465 C3450 1.202 . S
O3466 U3446 2.455 . S
O3466 C3463 1.301 . S
O3467 U3446 2.449 . S
O3467 C3463 1.282 . S
H3468 C3441 0.931 . S
H3469 C3443 0.929 . S
H3470 C3444 0.930 . S
H3471 C3445 0.931 . S
H3472 C3452 0.932 . S
H3473 C3453 0.930 . S
H3474 C3454 0.929 . S
H3475 C3456 0.930 . S
H3476 C3458 0.932 . S
H3477 C3459 0.929 . S
H3478 C3460 0.928 . S
H3479 C3462 0.932 . S
C3480 C3481 1.264 . S
C3480 C3485 1.479 . S
C3480 C3490 1.465 . S
C3481 C3480 1.264 . S
C3481 C3483 1.339 . S
C3481 H3508 0.931 . S
C3482 C3483 1.395 . S
C3482 C3484 1.320 . S
C3483 C3481 1.339 . S
C3483 C3482 1.395 . S
C3483 H3509 0.929 . S
C3484 C3482 1.320 . S
C3484 C3485 1.405 . S
C3484 H3510 0.930 . S
C3485 C3480 1.479 . S
C3485 C3484 1.405 . S
C3485 H3511 0.931 . S
U3486 O3487 2.454 . S
U3486 O3488 2.458 . S
U3486 C3489 2.984 . S
U3486 C3490 2.847 . S
U3486 C3503 2.882 . S
U3486 O3504 2.441 . S
U3486 O3505 2.420 . S
U3486 O3506 2.455 . S
U3486 O3507 2.449 . S
O3487 U3486 2.454 . S
O3487 C3489 1.353 . S
O3488 U3486 2.458 . S
O3488 C3489 1.286 . S
C3489 U3486 2.984 . S
C3489 O3487 1.353 . S
C3489 O3488 1.286 . S
C3489 C3491 1.363 . S
C3490 C3480 1.465 . S
C3490 U3486 2.847 . S
C3490 O3504 1.249 . S
C3490 O3505 1.202 . S
C3491 C3489 1.363 . S
C3491 C3493 1.408 . S
C3491 C3496 1.342 . S
C3492 C3493 1.310 . S
C3492 C3495 1.461 . S
C3492 H3512 0.932 . S
C3493 C3491 1.408 . S
C3493 C3492 1.310 . S
C3493 H3513 0.930 . S
C3494 C3495 1.474 . S
C3494 C3496 1.285 . S
C3494 H3514 0.929 . S
C3495 C3492 1.461 . S
C3495 C3494 1.474 . S
C3496 C3491 1.342 . S
C3496 C3494 1.285 . S
C3496 H3515 0.930 . S
C3497 C3500 1.424 . S
C3497 C3502 1.245 . S
C3497 C3503 1.428 . S
C3498 C3501 1.260 . S
C3498 C3502 1.477 . S
C3498 H3516 0.932 . S
C3499 C3500 1.384 . S
C3499 C3501 1.479 . S
C3499 H3517 0.929 . S
C3500 C3497 1.424 . S
C3500 C3499 1.384 . S
C3500 H3518 0.928 . S
C3501 C3498 1.260 . S
C3501 C3499 1.479 . S
C3502 C3497 1.245 . S
C3502 C3498 1.477 . S
C3502 H3519 0.932 . S
C3503 U3486 2.882 . S
C3503 C3497 1.428 . S
C3503 O3506 1.301 . S
C3503 O3507 1.282 . S
O3504 U3486 2.441 . S
O3504 C3490 1.249 . S
O3505 U3486 2.420 . S
O3505 C3490 1.202 . S
O3506 U3486 2.455 . S
O3506 C3503 1.301 . S
O3507 U3486 2.449 . S
O3507 C3503 1.282 . S
H3508 C3481 0.931 . S
H3509 C3483 0.929 . S
H3510 C3484 0.930 . S
H3511 C3485 0.931 . S
H3512 C3492 0.932 . S
H3513 C3493 0.930 . S
H3514 C3494 0.929 . S
H3515 C3496 0.930 . S
H3516 C3498 0.932 . S
H3517 C3499 0.929 . S
H3518 C3500 0.928 . S
H3519 C3502 0.932 . S
C3520 C3521 1.264 . S
C3520 C3525 1.479 . S
C3520 C3530 1.465 . S
C3521 C3520 1.264 . S
C3521 C3523 1.339 . S
C3521 H3548 0.931 . S
C3522 C3523 1.395 . S
C3522 C3524 1.320 . S
C3523 C3521 1.339 . S
C3523 C3522 1.395 . S
C3523 H3549 0.929 . S
C3524 C3522 1.320 . S
C3524 C3525 1.405 . S
C3524 H3550 0.930 . S
C3525 C3520 1.479 . S
C3525 C3524 1.405 . S
C3525 H3551 0.931 . S
U3526 O3527 2.454 . S
U3526 O3528 2.458 . S
U3526 C3529 2.984 . S
U3526 C3530 2.847 . S
U3526 C3543 2.882 . S
U3526 O3544 2.441 . S
U3526 O3545 2.420 . S
U3526 O3546 2.455 . S
U3526 O3547 2.449 . S
O3527 U3526 2.454 . S
O3527 C3529 1.353 . S
O3528 U3526 2.458 . S
O3528 C3529 1.286 . S
C3529 U3526 2.984 . S
C3529 O3527 1.353 . S
C3529 O3528 1.286 . S
C3529 C3531 1.363 . S
C3530 C3520 1.465 . S
C3530 U3526 2.847 . S
C3530 O3544 1.249 . S
C3530 O3545 1.202 . S
C3531 C3529 1.363 . S
C3531 C3533 1.408 . S
C3531 C3536 1.342 . S
C3532 C3533 1.310 . S
C3532 C3535 1.461 . S
C3532 H3552 0.932 . S
C3533 C3531 1.408 . S
C3533 C3532 1.310 . S
C3533 H3553 0.930 . S
C3534 C3535 1.474 . S
C3534 C3536 1.285 . S
C3534 H3554 0.929 . S
C3535 C3532 1.461 . S
C3535 C3534 1.474 . S
C3536 C3531 1.342 . S
C3536 C3534 1.285 . S
C3536 H3555 0.930 . S
C3537 C3540 1.424 . S
C3537 C3542 1.245 . S
C3537 C3543 1.428 . S
C3538 C3541 1.260 . S
C3538 C3542 1.477 . S
C3538 H3556 0.932 . S
C3539 C3540 1.384 . S
C3539 C3541 1.479 . S
C3539 H3557 0.929 . S
C3540 C3537 1.424 . S
C3540 C3539 1.384 . S
C3540 H3558 0.928 . S
C3541 C3538 1.260 . S
C3541 C3539 1.479 . S
C3542 C3537 1.245 . S
C3542 C3538 1.477 . S
C3542 H3559 0.932 . S
C3543 U3526 2.882 . S
C3543 C3537 1.428 . S
C3543 O3546 1.301 . S
C3543 O3547 1.282 . S
O3544 U3526 2.441 . S
O3544 C3530 1.249 . S
O3545 U3526 2.420 . S
O3545 C3530 1.202 . S
O3546 U3526 2.455 . S
O3546 C3543 1.301 . S
O3547 U3526 2.449 . S
O3547 C3543 1.282 . S
H3548 C3521 0.931 . S
H3549 C3523 0.929 . S
H3550 C3524 0.930 . S
H3551 C3525 0.931 . S
H3552 C3532 0.932 . S
H3553 C3533 0.930 . S
H3554 C3534 0.929 . S
H3555 C3536 0.930 . S
H3556 C3538 0.932 . S
H3557 C3539 0.929 . S
H3558 C3540 0.928 . S
H3559 C3542 0.932 . S
C3560 C3561 1.264 . S
C3560 C3565 1.479 . S
C3560 C3570 1.465 . S
C3561 C3560 1.264 . S
C3561 C3563 1.339 . S
C3561 H3588 0.931 . S
C3562 C3563 1.395 . S
C3562 C3564 1.320 . S
C3563 C3561 1.339 . S
C3563 C3562 1.395 . S
C3563 H3589 0.929 . S
C3564 C3562 1.320 . S
C3564 C3565 1.405 . S
C3564 H3590 0.930 . S
C3565 C3560 1.479 . S
C3565 C3564 1.405 . S
C3565 H3591 0.931 . S
U3566 O3567 2.454 . S
U3566 O3568 2.458 . S
U3566 C3569 2.984 . S
U3566 C3570 2.847 . S
U3566 C3583 2.882 . S
U3566 O3584 2.441 . S
U3566 O3585 2.420 . S
U3566 O3586 2.455 . S
U3566 O3587 2.449 . S
O3567 U3566 2.454 . S
O3567 C3569 1.353 . S
O3568 U3566 2.458 . S
O3568 C3569 1.286 . S
C3569 U3566 2.984 . S
C3569 O3567 1.353 . S
C3569 O3568 1.286 . S
C3569 C3571 1.363 . S
C3570 C3560 1.465 . S
C3570 U3566 2.847 . S
C3570 O3584 1.249 . S
C3570 O3585 1.202 . S
C3571 C3569 1.363 . S
C3571 C3573 1.408 . S
C3571 C3576 1.342 . S
C3572 C3573 1.310 . S
C3572 C3575 1.461 . S
C3572 H3592 0.932 . S
C3573 C3571 1.408 . S
C3573 C3572 1.310 . S
C3573 H3593 0.930 . S
C3574 C3575 1.474 . S
C3574 C3576 1.285 . S
C3574 H3594 0.929 . S
C3575 C3572 1.461 . S
C3575 C3574 1.474 . S
C3576 C3571 1.342 . S
C3576 C3574 1.285 . S
C3576 H3595 0.930 . S
C3577 C3580 1.424 . S
C3577 C3582 1.245 . S
C3577 C3583 1.428 . S
C3578 C3581 1.260 . S
C3578 C3582 1.477 . S
C3578 H3596 0.932 . S
C3579 C3580 1.384 . S
C3579 C3581 1.479 . S
C3579 H3597 0.929 . S
C3580 C3577 1.424 . S
C3580 C3579 1.384 . S
C3580 H3598 0.928 . S
C3581 C3578 1.260 . S
C3581 C3579 1.479 . S
C3582 C3577 1.245 . S
C3582 C3578 1.477 . S
C3582 H3599 0.932 . S
C3583 U3566 2.882 . S
C3583 C3577 1.428 . S
C3583 O3586 1.301 . S
C3583 O3587 1.282 . S
O3584 U3566 2.441 . S
O3584 C3570 1.249 . S
O3585 U3566 2.420 . S
O3585 C3570 1.202 . S
O3586 U3566 2.455 . S
O3586 C3583 1.301 . S
O3587 U3566 2.449 . S
O3587 C3583 1.282 . S
H3588 C3561 0.931 . S
H3589 C3563 0.929 . S
H3590 C3564 0.930 . S
H3591 C3565 0.931 . S
H3592 C3572 0.932 . S
H3593 C3573 0.930 . S
H3594 C3574 0.929 . S
H3595 C3576 0.930 . S
H3596 C3578 0.932 . S
H3597 C3579 0.929 . S
H3598 C3580 0.928 . S
H3599 C3582 0.932 . S
C3600 C3601 1.264 . S
C3600 C3605 1.479 . S
C3600 C3610 1.465 . S
C3601 C3600 1.264 . S
C3601 C3603 1.339 . S
C3601 H3628 0.931 . S
C3602 C3603 1.395 . S
C3602 C3604 1.320 . S
C3603 C3601 1.339 . S
C3603 C3602 1.395 . S
C3603 H3629 0.929 . S
C3604 C3602 1.320 . S
C3604 C3605 1.405 . S
C3604 H3630 0.930 . S
C3605 C3600 1.479 . S
C3605 C3604 1.405 . S
C3605 H3631 0.931 . S
U3606 O3607 2.454 . S
U3606 O3608 2.458 . S
U3606 C3609 2.984 . S
U3606 C3610 2.847 . S
U3606 C3623 2.882 . S
U3606 O3624 2.441 . S
U3606 O3625 2.420 . S
U3606 O3626 2.455 . S
U3606 O3627 2.449 . S
O3607 U3606 2.454 . S
O3607 C3609 1.353 . S
O3608 U3606 2.458 . S
O3608 C3609 1.286 . S
C3609 U3606 2.984 . S
C3609 O3607 1.353 . S
C3609 O3608 1.286 . S
C3609 C3611 1.363 . S
C3610 C3600 1.465 . S
C3610 U3606 2.847 . S
C3610 O3624 1.249 . S
C3610 O3625 1.202 . S
C3611 C3609 1.363 . S
C3611 C3613 1.408 . S
C3611 C3616 1.342 . S
C3612 C3613 1.310 . S
C3612 C3615 1.461 . S
C3612 H3632 0.932 . S
C3613 C3611 1.408 . S
C3613 C3612 1.310 . S
C3613 H3633 0.930 . S
C3614 C3615 1.474 . S
C3614 C3616 1.285 . S
C3614 H3634 0.929 . S
C3615 C3612 1.461 . S
C3615 C3614 1.474 . S
C3616 C3611 1.342 . S
C3616 C3614 1.285 . S
C3616 H3635 0.930 . S
C3617 C3620 1.424 . S
C3617 C3622 1.245 . S
C3617 C3623 1.428 . S
C3618 C3621 1.260 . S
C3618 C3622 1.477 . S
C3618 H3636 0.932 . S
C3619 C3620 1.384 . S
C3619 C3621 1.479 . S
C3619 H3637 0.929 . S
C3620 C3617 1.424 . S
C3620 C3619 1.384 . S
C3620 H3638 0.928 . S
C3621 C3618 1.260 . S
C3621 C3619 1.479 . S
C3622 C3617 1.245 . S
C3622 C3618 1.477 . S
C3622 H3639 0.932 . S
C3623 U3606 2.882 . S
C3623 C3617 1.428 . S
C3623 O3626 1.301 . S
C3623 O3627 1.282 . S
O3624 U3606 2.441 . S
O3624 C3610 1.249 . S
O3625 U3606 2.420 . S
O3625 C3610 1.202 . S
O3626 U3606 2.455 . S
O3626 C3623 1.301 . S
O3627 U3606 2.449 . S
O3627 C3623 1.282 . S
H3628 C3601 0.931 . S
H3629 C3603 0.929 . S
H3630 C3604 0.930 . S
H3631 C3605 0.931 . S
H3632 C3612 0.932 . S
H3633 C3613 0.930 . S
H3634 C3614 0.929 . S
H3635 C3616 0.930 . S
H3636 C3618 0.932 . S
H3637 C3619 0.929 . S
H3638 C3620 0.928 . S
H3639 C3622 0.932 . S
C3640 C3641 1.264 . S
C3640 C3645 1.479 . S
C3640 C3650 1.465 . S
C3641 C3640 1.264 . S
C3641 C3643 1.339 . S
C3641 H3668 0.931 . S
C3642 C3643 1.395 . S
C3642 C3644 1.320 . S
C3643 C3641 1.339 . S
C3643 C3642 1.395 . S
C3643 H3669 0.929 . S
C3644 C3642 1.320 . S
C3644 C3645 1.405 . S
C3644 H3670 0.930 . S
C3645 C3640 1.479 . S
C3645 C3644 1.405 . S
C3645 H3671 0.931 . S
U3646 O3647 2.454 . S
U3646 O3648 2.458 . S
U3646 C3649 2.984 . S
U3646 C3650 2.847 . S
U3646 C3663 2.882 . S
U3646 O3664 2.441 . S
U3646 O3665 2.420 . S
U3646 O3666 2.455 . S
U3646 O3667 2.449 . S
O3647 U3646 2.454 . S
O3647 C3649 1.353 . S
O3648 U3646 2.458 . S
O3648 C3649 1.286 . S
C3649 U3646 2.984 . S
C3649 O3647 1.353 . S
C3649 O3648 1.286 . S
C3649 C3651 1.363 . S
C3650 C3640 1.465 . S
C3650 U3646 2.847 . S
C3650 O3664 1.249 . S
C3650 O3665 1.202 . S
C3651 C3649 1.363 . S
C3651 C3653 1.408 . S
C3651 C3656 1.342 . S
C3652 C3653 1.310 . S
C3652 C3655 1.461 . S
C3652 H3672 0.932 . S
C3653 C3651 1.408 . S
C3653 C3652 1.310 . S
C3653 H3673 0.930 . S
C3654 C3655 1.474 . S
C3654 C3656 1.285 . S
C3654 H3674 0.929 . S
C3655 C3652 1.461 . S
C3655 C3654 1.474 . S
C3656 C3651 1.342 . S
C3656 C3654 1.285 . S
C3656 H3675 0.930 . S
C3657 C3660 1.424 . S
C3657 C3662 1.245 . S
C3657 C3663 1.428 . S
C3658 C3661 1.260 . S
C3658 C3662 1.477 . S
C3658 H3676 0.932 . S
C3659 C3660 1.384 . S
C3659 C3661 1.479 . S
C3659 H3677 0.929 . S
C3660 C3657 1.424 . S
C3660 C3659 1.384 . S
C3660 H3678 0.928 . S
C3661 C3658 1.260 . S
C3661 C3659 1.479 . S
C3662 C3657 1.245 . S
C3662 C3658 1.477 . S
C3662 H3679 0.932 . S
C3663 U3646 2.882 . S
C3663 C3657 1.428 . S
C3663 O3666 1.301 . S
C3663 O3667 1.282 . S
O3664 U3646 2.441 . S
O3664 C3650 1.249 . S
O3665 U3646 2.420 . S
O3665 C3650 1.202 . S
O3666 U3646 2.455 . S
O3666 C3663 1.301 . S
O3667 U3646 2.449 . S
O3667 C3663 1.282 . S
H3668 C3641 0.931 . S
H3669 C3643 0.929 . S
H3670 C3644 0.930 . S
H3671 C3645 0.931 . S
H3672 C3652 0.932 . S
H3673 C3653 0.930 . S
H3674 C3654 0.929 . S
H3675 C3656 0.930 . S
H3676 C3658 0.932 . S
H3677 C3659 0.929 . S
H3678 C3660 0.928 . S
H3679 C3662 0.932 . S
C3680 C3681 1.264 . S
C3680 C3685 1.479 . S
C3680 C3690 1.465 . S
C3681 C3680 1.264 . S
C3681 C3683 1.339 . S
C3681 H3708 0.931 . S
C3682 C3683 1.395 . S
C3682 C3684 1.320 . S
C3683 C3681 1.339 . S
C3683 C3682 1.395 . S
C3683 H3709 0.929 . S
C3684 C3682 1.320 . S
C3684 C3685 1.405 . S
C3684 H3710 0.930 . S
C3685 C3680 1.479 . S
C3685 C3684 1.405 . S
C3685 H3711 0.931 . S
U3686 O3687 2.454 . S
U3686 O3688 2.458 . S
U3686 C3689 2.984 . S
U3686 C3690 2.847 . S
U3686 C3703 2.882 . S
U3686 O3704 2.441 . S
U3686 O3705 2.420 . S
U3686 O3706 2.455 . S
U3686 O3707 2.449 . S
O3687 U3686 2.454 . S
O3687 C3689 1.353 . S
O3688 U3686 2.458 . S
O3688 C3689 1.286 . S
C3689 U3686 2.984 . S
C3689 O3687 1.353 . S
C3689 O3688 1.286 . S
C3689 C3691 1.363 . S
C3690 C3680 1.465 . S
C3690 U3686 2.847 . S
C3690 O3704 1.249 . S
C3690 O3705 1.202 . S
C3691 C3689 1.363 . S
C3691 C3693 1.408 . S
C3691 C3696 1.342 . S
C3692 C3693 1.310 . S
C3692 C3695 1.461 . S
C3692 H3712 0.932 . S
C3693 C3691 1.408 . S
C3693 C3692 1.310 . S
C3693 H3713 0.930 . S
C3694 C3695 1.474 . S
C3694 C3696 1.285 . S
C3694 H3714 0.929 . S
C3695 C3692 1.461 . S
C3695 C3694 1.474 . S
C3696 C3691 1.342 . S
C3696 C3694 1.285 . S
C3696 H3715 0.930 . S
C3697 C3700 1.424 . S
C3697 C3702 1.245 . S
C3697 C3703 1.428 . S
C3698 C3701 1.260 . S
C3698 C3702 1.477 . S
C3698 H3716 0.932 . S
C3699 C3700 1.384 . S
C3699 C3701 1.479 . S
C3699 H3717 0.929 . S
C3700 C3697 1.424 . S
C3700 C3699 1.384 . S
C3700 H3718 0.928 . S
C3701 C3698 1.260 . S
C3701 C3699 1.479 . S
C3702 C3697 1.245 . S
C3702 C3698 1.477 . S
C3702 H3719 0.932 . S
C3703 U3686 2.882 . S
C3703 C3697 1.428 . S
C3703 O3706 1.301 . S
C3703 O3707 1.282 . S
O3704 U3686 2.441 . S
O3704 C3690 1.249 . S
O3705 U3686 2.420 . S
O3705 C3690 1.202 . S
O3706 U3686 2.455 . S
O3706 C3703 1.301 . S
O3707 U3686 2.449 . S
O3707 C3703 1.282 . S
H3708 C3681 0.931 . S
H3709 C3683 0.929 . S
H3710 C3684 0.930 . S
H3711 C3685 0.931 . S
H3712 C3692 0.932 . S
H3713 C3693 0.930 . S
H3714 C3694 0.929 . S
H3715 C3696 0.930 . S
H3716 C3698 0.932 . S
H3717 C3699 0.929 . S
H3718 C3700 0.928 . S
H3719 C3702 0.932 . S
C3720 C3721 1.264 . S
C3720 C3725 1.479 . S
C3720 C3730 1.465 . S
C3721 C3720 1.264 . S
C3721 C3723 1.339 . S
C3721 H3748 0.931 . S
C3722 C3723 1.395 . S
C3722 C3724 1.320 . S
C3723 C3721 1.339 . S
C3723 C3722 1.395 . S
C3723 H3749 0.929 . S
C3724 C3722 1.320 . S
C3724 C3725 1.405 . S
C3724 H3750 0.930 . S
C3725 C3720 1.479 . S
C3725 C3724 1.405 . S
C3725 H3751 0.931 . S
U3726 O3727 2.454 . S
U3726 O3728 2.458 . S
U3726 C3729 2.984 . S
U3726 C3730 2.847 . S
U3726 C3743 2.882 . S
U3726 O3744 2.441 . S
U3726 O3745 2.420 . S
U3726 O3746 2.455 . S
U3726 O3747 2.449 . S
O3727 U3726 2.454 . S
O3727 C3729 1.353 . S
O3728 U3726 2.458 . S
O3728 C3729 1.286 . S
C3729 U3726 2.984 . S
C3729 O3727 1.353 . S
C3729 O3728 1.286 . S
C3729 C3731 1.363 . S
C3730 C3720 1.465 . S
C3730 U3726 2.847 . S
C3730 O3744 1.249 . S
C3730 O3745 1.202 . S
C3731 C3729 1.363 . S
C3731 C3733 1.408 . S
C3731 C3736 1.342 . S
C3732 C3733 1.310 . S
C3732 C3735 1.461 . S
C3732 H3752 0.932 . S
C3733 C3731 1.408 . S
C3733 C3732 1.310 . S
C3733 H3753 0.930 . S
C3734 C3735 1.474 . S
C3734 C3736 1.285 . S
C3734 H3754 0.929 . S
C3735 C3732 1.461 . S
C3735 C3734 1.474 . S
C3736 C3731 1.342 . S
C3736 C3734 1.285 . S
C3736 H3755 0.930 . S
C3737 C3740 1.424 . S
C3737 C3742 1.245 . S
C3737 C3743 1.428 . S
C3738 C3741 1.260 . S
C3738 C3742 1.477 . S
C3738 H3756 0.932 . S
C3739 C3740 1.384 . S
C3739 C3741 1.479 . S
C3739 H3757 0.929 . S
C3740 C3737 1.424 . S
C3740 C3739 1.384 . S
C3740 H3758 0.928 . S
C3741 C3738 1.260 . S
C3741 C3739 1.479 . S
C3742 C3737 1.245 . S
C3742 C3738 1.477 . S
C3742 H3759 0.932 . S
C3743 U3726 2.882 . S
C3743 C3737 1.428 . S
C3743 O3746 1.301 . S
C3743 O3747 1.282 . S
O3744 U3726 2.441 . S
O3744 C3730 1.249 . S
O3745 U3726 2.420 . S
O3745 C3730 1.202 . S
O3746 U3726 2.455 . S
O3746 C3743 1.301 . S
O3747 U3726 2.449 . S
O3747 C3743 1.282 . S
H3748 C3721 0.931 . S
H3749 C3723 0.929 . S
H3750 C3724 0.930 . S
H3751 C3725 0.931 . S
H3752 C3732 0.932 . S
H3753 C3733 0.930 . S
H3754 C3734 0.929 . S
H3755 C3736 0.930 . S
H3756 C3738 0.932 . S
H3757 C3739 0.929 . S
H3758 C3740 0.928 . S
H3759 C3742 0.932 . S
C3760 C3761 1.264 . S
C3760 C3765 1.479 . S
C3760 C3770 1.465 . S
C3761 C3760 1.264 . S
C3761 C3763 1.339 . S
C3761 H3788 0.931 . S
C3762 C3763 1.395 . S
C3762 C3764 1.320 . S
C3763 C3761 1.339 . S
C3763 C3762 1.395 . S
C3763 H3789 0.929 . S
C3764 C3762 1.320 . S
C3764 C3765 1.405 . S
C3764 H3790 0.930 . S
C3765 C3760 1.479 . S
C3765 C3764 1.405 . S
C3765 H3791 0.931 . S
U3766 O3767 2.454 . S
U3766 O3768 2.458 . S
U3766 C3769 2.984 . S
U3766 C3770 2.847 . S
U3766 C3783 2.882 . S
U3766 O3784 2.441 . S
U3766 O3785 2.420 . S
U3766 O3786 2.455 . S
U3766 O3787 2.449 . S
O3767 U3766 2.454 . S
O3767 C3769 1.353 . S
O3768 U3766 2.458 . S
O3768 C3769 1.286 . S
C3769 U3766 2.984 . S
C3769 O3767 1.353 . S
C3769 O3768 1.286 . S
C3769 C3771 1.363 . S
C3770 C3760 1.465 . S
C3770 U3766 2.847 . S
C3770 O3784 1.249 . S
C3770 O3785 1.202 . S
C3771 C3769 1.363 . S
C3771 C3773 1.408 . S
C3771 C3776 1.342 . S
C3772 C3773 1.310 . S
C3772 C3775 1.461 . S
C3772 H3792 0.932 . S
C3773 C3771 1.408 . S
C3773 C3772 1.310 . S
C3773 H3793 0.930 . S
C3774 C3775 1.474 . S
C3774 C3776 1.285 . S
C3774 H3794 0.929 . S
C3775 C3772 1.461 . S
C3775 C3774 1.474 . S
C3776 C3771 1.342 . S
C3776 C3774 1.285 . S
C3776 H3795 0.930 . S
C3777 C3780 1.424 . S
C3777 C3782 1.245 . S
C3777 C3783 1.428 . S
C3778 C3781 1.260 . S
C3778 C3782 1.477 . S
C3778 H3796 0.932 . S
C3779 C3780 1.384 . S
C3779 C3781 1.479 . S
C3779 H3797 0.929 . S
C3780 C3777 1.424 . S
C3780 C3779 1.384 . S
C3780 H3798 0.928 . S
C3781 C3778 1.260 . S
C3781 C3779 1.479 . S
C3782 C3777 1.245 . S
C3782 C3778 1.477 . S
C3782 H3799 0.932 . S
C3783 U3766 2.882 . S
C3783 C3777 1.428 . S
C3783 O3786 1.301 . S
C3783 O3787 1.282 . S
O3784 U3766 2.441 . S
O3784 C3770 1.249 . S
O3785 U3766 2.420 . S
O3785 C3770 1.202 . S
O3786 U3766 2.455 . S
O3786 C3783 1.301 . S
O3787 U3766 2.449 . S
O3787 C3783 1.282 . S
H3788 C3761 0.931 . S
H3789 C3763 0.929 . S
H3790 C3764 0.930 . S
H3791 C3765 0.931 . S
H3792 C3772 0.932 . S
H3793 C3773 0.930 . S
H3794 C3774 0.929 . S
H3795 C3776 0.930 . S
H3796 C3778 0.932 . S
H3797 C3779 0.929 . S
H3798 C3780 0.928 . S
H3799 C3782 0.932 . S
C3800 C3801 1.264 . S
C3800 C3805 1.479 . S
C3800 C3810 1.465 . S
C3801 C3800 1.264 . S
C3801 C3803 1.339 . S
C3801 H3828 0.931 . S
C3802 C3803 1.395 . S
C3802 C3804 1.320 . S
C3803 C3801 1.339 . S
C3803 C3802 1.395 . S
C3803 H3829 0.929 . S
C3804 C3802 1.320 . S
C3804 C3805 1.405 . S
C3804 H3830 0.930 . S
C3805 C3800 1.479 . S
C3805 C3804 1.405 . S
C3805 H3831 0.931 . S
U3806 O3807 2.454 . S
U3806 O3808 2.458 . S
U3806 C3809 2.984 . S
U3806 C3810 2.847 . S
U3806 C3823 2.882 . S
U3806 O3824 2.441 . S
U3806 O3825 2.420 . S
U3806 O3826 2.455 . S
U3806 O3827 2.449 . S
O3807 U3806 2.454 . S
O3807 C3809 1.353 . S
O3808 U3806 2.458 . S
O3808 C3809 1.286 . S
C3809 U3806 2.984 . S
C3809 O3807 1.353 . S
C3809 O3808 1.286 . S
C3809 C3811 1.363 . S
C3810 C3800 1.465 . S
C3810 U3806 2.847 . S
C3810 O3824 1.249 . S
C3810 O3825 1.202 . S
C3811 C3809 1.363 . S
C3811 C3813 1.408 . S
C3811 C3816 1.342 . S
C3812 C3813 1.310 . S
C3812 C3815 1.461 . S
C3812 H3832 0.932 . S
C3813 C3811 1.408 . S
C3813 C3812 1.310 . S
C3813 H3833 0.930 . S
C3814 C3815 1.474 . S
C3814 C3816 1.285 . S
C3814 H3834 0.929 . S
C3815 C3812 1.461 . S
C3815 C3814 1.474 . S
C3816 C3811 1.342 . S
C3816 C3814 1.285 . S
C3816 H3835 0.930 . S
C3817 C3820 1.424 . S
C3817 C3822 1.245 . S
C3817 C3823 1.428 . S
C3818 C3821 1.260 . S
C3818 C3822 1.477 . S
C3818 H3836 0.932 . S
C3819 C3820 1.384 . S
C3819 C3821 1.479 . S
C3819 H3837 0.929 . S
C3820 C3817 1.424 . S
C3820 C3819 1.384 . S
C3820 H3838 0.928 . S
C3821 C3818 1.260 . S
C3821 C3819 1.479 . S
C3822 C3817 1.245 . S
C3822 C3818 1.477 . S
C3822 H3839 0.932 . S
C3823 U3806 2.882 . S
C3823 C3817 1.428 . S
C3823 O3826 1.301 . S
C3823 O3827 1.282 . S
O3824 U3806 2.441 . S
O3824 C3810 1.249 . S
O3825 U3806 2.420 . S
O3825 C3810 1.202 . S
O3826 U3806 2.455 . S
O3826 C3823 1.301 . S
O3827 U3806 2.449 . S
O3827 C3823 1.282 . S
H3828 C3801 0.931 . S
H3829 C3803 0.929 . S
H3830 C3804 0.930 . S
H3831 C3805 0.931 . S
H3832 C3812 0.932 . S
H3833 C3813 0.930 . S
H3834 C3814 0.929 . S
H3835 C3816 0.930 . S
H3836 C3818 0.932 . S
H3837 C3819 0.929 . S
H3838 C3820 0.928 . S
H3839 C3822 0.932 . S
H3840 C3843 0.929 . S
H3841 C3846 0.929 . S
H3842 C3848 0.930 . S
C3843 H3840 0.929 . S
C3843 C3844 1.398 . S
C3843 C3845 1.396 . S
C3844 C3843 1.398 . S
C3844 C3848 1.407 . S
C3845 C3843 1.396 . S
C3845 C3846 1.394 . S
C3846 H3841 0.929 . S
C3846 C3845 1.394 . S
C3846 C3847 1.382 . S
C3847 C3846 1.382 . S
C3847 C3848 1.392 . S
C3847 N3849 1.420 . S
C3848 H3842 0.930 . S
C3848 C3844 1.407 . S
C3848 C3847 1.392 . S
N3849 C3847 1.420 . S
N3849 C3850 1.244 . S
C3850 N3849 1.244 . S
H3851 C3854 0.929 . S
H3852 C3857 0.929 . S
H3853 C3859 0.930 . S
C3854 H3851 0.929 . S
C3854 C3855 1.398 . S
C3854 C3856 1.396 . S
C3855 C3854 1.398 . S
C3855 C3859 1.407 . S
C3856 C3854 1.396 . S
C3856 C3857 1.394 . S
C3857 H3852 0.929 . S
C3857 C3856 1.394 . S
C3857 C3858 1.382 . S
C3858 C3857 1.382 . S
C3858 C3859 1.392 . S
C3858 N3860 1.420 . S
C3859 H3853 0.930 . S
C3859 C3855 1.407 . S
C3859 C3858 1.392 . S
N3860 C3858 1.420 . S
N3860 C3861 1.244 . S
C3861 N3860 1.244 . S
H3862 C3865 0.929 . S
H3863 C3868 0.929 . S
H3864 C3870 0.930 . S
C3865 H3862 0.929 . S
C3865 C3866 1.398 . S
C3865 C3867 1.396 . S
C3866 C3865 1.398 . S
C3866 C3870 1.407 . S
C3867 C3865 1.396 . S
C3867 C3868 1.394 . S
C3868 H3863 0.929 . S
C3868 C3867 1.394 . S
C3868 C3869 1.382 . S
C3869 C3868 1.382 . S
C3869 C3870 1.392 . S
C3869 N3871 1.420 . S
C3870 H3864 0.930 . S
C3870 C3866 1.407 . S
C3870 C3869 1.392 . S
N3871 C3869 1.420 . S
N3871 C3872 1.244 . S
C3872 N3871 1.244 . S
H3873 C3876 0.929 . S
H3874 C3879 0.929 . S
H3875 C3881 0.930 . S
C3876 H3873 0.929 . S
C3876 C3877 1.398 . S
C3876 C3878 1.396 . S
C3877 C3876 1.398 . S
C3877 C3881 1.407 . S
C3878 C3876 1.396 . S
C3878 C3879 1.394 . S
C3879 H3874 0.929 . S
C3879 C3878 1.394 . S
C3879 C3880 1.382 . S
C3880 C3879 1.382 . S
C3880 C3881 1.392 . S
C3880 N3882 1.420 . S
C3881 H3875 0.930 . S
C3881 C3877 1.407 . S
C3881 C3880 1.392 . S
N3882 C3880 1.420 . S
N3882 C3883 1.244 . S
C3883 N3882 1.244 . S
H3884 C3887 0.929 . S
H3885 C3890 0.929 . S
H3886 C3892 0.930 . S
C3887 H3884 0.929 . S
C3887 C3888 1.398 . S
C3887 C3889 1.396 . S
C3888 C3887 1.398 . S
C3888 C3892 1.407 . S
C3889 C3887 1.396 . S
C3889 C3890 1.394 . S
C3890 H3885 0.929 . S
C3890 C3889 1.394 . S
C3890 C3891 1.382 . S
C3891 C3890 1.382 . S
C3891 C3892 1.392 . S
C3891 N3893 1.420 . S
C3892 H3886 0.930 . S
C3892 C3888 1.407 . S
C3892 C3891 1.392 . S
N3893 C3891 1.420 . S
N3893 C3894 1.244 . S
C3894 N3893 1.244 . S
H3895 C3898 0.929 . S
H3896 C3901 0.929 . S
H3897 C3903 0.930 . S
C3898 H3895 0.929 . S
C3898 C3899 1.398 . S
C3898 C3900 1.396 . S
C3899 C3898 1.398 . S
C3899 C3903 1.407 . S
C3900 C3898 1.396 . S
C3900 C3901 1.394 . S
C3901 H3896 0.929 . S
C3901 C3900 1.394 . S
C3901 C3902 1.382 . S
C3902 C3901 1.382 . S
C3902 C3903 1.392 . S
C3902 N3904 1.420 . S
C3903 H3897 0.930 . S
C3903 C3899 1.407 . S
C3903 C3902 1.392 . S
N3904 C3902 1.420 . S
N3904 C3905 1.244 . S
C3905 N3904 1.244 . S
H3906 C3909 0.929 . S
H3907 C3912 0.929 . S
H3908 C3914 0.930 . S
C3909 H3906 0.929 . S
C3909 C3910 1.398 . S
C3909 C3911 1.396 . S
C3910 C3909 1.398 . S
C3910 C3914 1.407 . S
C3911 C3909 1.396 . S
C3911 C3912 1.394 . S
C3912 H3907 0.929 . S
C3912 C3911 1.394 . S
C3912 C3913 1.382 . S
C3913 C3912 1.382 . S
C3913 C3914 1.392 . S
C3913 N3915 1.420 . S
C3914 H3908 0.930 . S
C3914 C3910 1.407 . S
C3914 C3913 1.392 . S
N3915 C3913 1.420 . S
N3915 C3916 1.244 . S
C3916 N3915 1.244 . S
H3917 C3920 0.929 . S
H3918 C3923 0.929 . S
H3919 C3925 0.930 . S
C3920 H3917 0.929 . S
C3920 C3921 1.398 . S
C3920 C3922 1.396 . S
C3921 C3920 1.398 . S
C3921 C3925 1.407 . S
C3922 C3920 1.396 . S
C3922 C3923 1.394 . S
C3923 H3918 0.929 . S
C3923 C3922 1.394 . S
C3923 C3924 1.382 . S
C3924 C3923 1.382 . S
C3924 C3925 1.392 . S
C3924 N3926 1.420 . S
C3925 H3919 0.930 . S
C3925 C3921 1.407 . S
C3925 C3924 1.392 . S
N3926 C3924 1.420 . S
N3926 C3927 1.244 . S
C3927 N3926 1.244 . S
H3928 C3931 0.929 . S
H3929 C3934 0.929 . S
H3930 C3936 0.930 . S
C3931 H3928 0.929 . S
C3931 C3932 1.398 . S
C3931 C3933 1.396 . S
C3932 C3931 1.398 . S
C3932 C3936 1.407 . S
C3933 C3931 1.396 . S
C3933 C3934 1.394 . S
C3934 H3929 0.929 . S
C3934 C3933 1.394 . S
C3934 C3935 1.382 . S
C3935 C3934 1.382 . S
C3935 C3936 1.392 . S
C3935 N3937 1.420 . S
C3936 H3930 0.930 . S
C3936 C3932 1.407 . S
C3936 C3935 1.392 . S
N3937 C3935 1.420 . S
N3937 C3938 1.244 . S
C3938 N3937 1.244 . S
H3939 C3942 0.929 . S
H3940 C3945 0.929 . S
H3941 C3947 0.930 . S
C3942 H3939 0.929 . S
C3942 C3943 1.398 . S
C3942 C3944 1.396 . S
C3943 C3942 1.398 . S
C3943 C3947 1.407 . S
C3944 C3942 1.396 . S
C3944 C3945 1.394 . S
C3945 H3940 0.929 . S
C3945 C3944 1.394 . S
C3945 C3946 1.382 . S
C3946 C3945 1.382 . S
C3946 C3947 1.392 . S
C3946 N3948 1.420 . S
C3947 H3941 0.930 . S
C3947 C3943 1.407 . S
C3947 C3946 1.392 . S
N3948 C3946 1.420 . S
N3948 C3949 1.244 . S
C3949 N3948 1.244 . S
H3950 C3953 0.929 . S
H3951 C3956 0.929 . S
H3952 C3958 0.930 . S
C3953 H3950 0.929 . S
C3953 C3954 1.398 . S
C3953 C3955 1.396 . S
C3954 C3953 1.398 . S
C3954 C3958 1.407 . S
C3955 C3953 1.396 . S
C3955 C3956 1.394 . S
C3956 H3951 0.929 . S
C3956 C3955 1.394 . S
C3956 C3957 1.382 . S
C3957 C3956 1.382 . S
C3957 C3958 1.392 . S
C3957 N3959 1.420 . S
C3958 H3952 0.930 . S
C3958 C3954 1.407 . S
C3958 C3957 1.392 . S
N3959 C3957 1.420 . S
N3959 C3960 1.244 . S
C3960 N3959 1.244 . S
H3961 C3964 0.929 . S
H3962 C3967 0.929 . S
H3963 C3969 0.930 . S
C3964 H3961 0.929 . S
C3964 C3965 1.398 . S
C3964 C3966 1.396 . S
C3965 C3964 1.398 . S
C3965 C3969 1.407 . S
C3966 C3964 1.396 . S
C3966 C3967 1.394 . S
C3967 H3962 0.929 . S
C3967 C3966 1.394 . S
C3967 C3968 1.382 . S
C3968 C3967 1.382 . S
C3968 C3969 1.392 . S
C3968 N3970 1.420 . S
C3969 H3963 0.930 . S
C3969 C3965 1.407 . S
C3969 C3968 1.392 . S
N3970 C3968 1.420 . S
N3970 C3971 1.244 . S
C3971 N3970 1.244 . S
H3972 C3975 0.929 . S
H3973 C3978 0.929 . S
H3974 C3980 0.930 . S
C3975 H3972 0.929 . S
C3975 C3976 1.398 . S
C3975 C3977 1.396 . S
C3976 C3975 1.398 . S
C3976 C3980 1.407 . S
C3977 C3975 1.396 . S
C3977 C3978 1.394 . S
C3978 H3973 0.929 . S
C3978 C3977 1.394 . S
C3978 C3979 1.382 . S
C3979 C3978 1.382 . S
C3979 C3980 1.392 . S
C3979 N3981 1.420 . S
C3980 H3974 0.930 . S
C3980 C3976 1.407 . S
C3980 C3979 1.392 . S
N3981 C3979 1.420 . S
N3981 C3982 1.244 . S
C3982 N3981 1.244 . S
H3983 C3986 0.929 . S
H3984 C3989 0.929 . S
H3985 C3991 0.930 . S
C3986 H3983 0.929 . S
C3986 C3987 1.398 . S
C3986 C3988 1.396 . S
C3987 C3986 1.398 . S
C3987 C3991 1.407 . S
C3988 C3986 1.396 . S
C3988 C3989 1.394 . S
C3989 H3984 0.929 . S
C3989 C3988 1.394 . S
C3989 C3990 1.382 . S
C3990 C3989 1.382 . S
C3990 C3991 1.392 . S
C3990 N3992 1.420 . S
C3991 H3985 0.930 . S
C3991 C3987 1.407 . S
C3991 C3990 1.392 . S
N3992 C3990 1.420 . S
N3992 C3993 1.244 . S
C3993 N3992 1.244 . S
H3994 C3997 0.929 . S
H3995 C4000 0.929 . S
H3996 C4002 0.930 . S
C3997 H3994 0.929 . S
C3997 C3998 1.398 . S
C3997 C3999 1.396 . S
C3998 C3997 1.398 . S
C3998 C4002 1.407 . S
C3999 C3997 1.396 . S
C3999 C4000 1.394 . S
C4000 H3995 0.929 . S
C4000 C3999 1.394 . S
C4000 C4001 1.382 . S
C4001 C4000 1.382 . S
C4001 C4002 1.392 . S
C4001 N4003 1.420 . S
C4002 H3996 0.930 . S
C4002 C3998 1.407 . S
C4002 C4001 1.392 . S
N4003 C4001 1.420 . S
N4003 C4004 1.244 . S
C4004 N4003 1.244 . S
H4005 C4008 0.929 . S
H4006 C4011 0.929 . S
H4007 C4013 0.930 . S
C4008 H4005 0.929 . S
C4008 C4009 1.398 . S
C4008 C4010 1.396 . S
C4009 C4008 1.398 . S
C4009 C4013 1.407 . S
C4010 C4008 1.396 . S
C4010 C4011 1.394 . S
C4011 H4006 0.929 . S
C4011 C4010 1.394 . S
C4011 C4012 1.382 . S
C4012 C4011 1.382 . S
C4012 C4013 1.392 . S
C4012 N4014 1.420 . S
C4013 H4007 0.930 . S
C4013 C4009 1.407 . S
C4013 C4012 1.392 . S
N4014 C4012 1.420 . S
N4014 C4015 1.244 . S
C4015 N4014 1.244 . S
H4016 C4019 0.929 . S
H4017 C4022 0.929 . S
H4018 C4024 0.930 . S
C4019 H4016 0.929 . S
C4019 C4020 1.398 . S
C4019 C4021 1.396 . S
C4020 C4019 1.398 . S
C4020 C4024 1.407 . S
C4021 C4019 1.396 . S
C4021 C4022 1.394 . S
C4022 H4017 0.929 . S
C4022 C4021 1.394 . S
C4022 C4023 1.382 . S
C4023 C4022 1.382 . S
C4023 C4024 1.392 . S
C4023 N4025 1.420 . S
C4024 H4018 0.930 . S
C4024 C4020 1.407 . S
C4024 C4023 1.392 . S
N4025 C4023 1.420 . S
N4025 C4026 1.244 . S
C4026 N4025 1.244 . S
H4027 C4030 0.929 . S
H4028 C4033 0.929 . S
H4029 C4035 0.930 . S
C4030 H4027 0.929 . S
C4030 C4031 1.398 . S
C4030 C4032 1.396 . S
C4031 C4030 1.398 . S
C4031 C4035 1.407 . S
C4032 C4030 1.396 . S
C4032 C4033 1.394 . S
C4033 H4028 0.929 . S
C4033 C4032 1.394 . S
C4033 C4034 1.382 . S
C4034 C4033 1.382 . S
C4034 C4035 1.392 . S
C4034 N4036 1.420 . S
C4035 H4029 0.930 . S
C4035 C4031 1.407 . S
C4035 C4034 1.392 . S
N4036 C4034 1.420 . S
N4036 C4037 1.244 . S
C4037 N4036 1.244 . S
H4038 C4041 0.929 . S
H4039 C4044 0.929 . S
H4040 C4046 0.930 . S
C4041 H4038 0.929 . S
C4041 C4042 1.398 . S
C4041 C4043 1.396 . S
C4042 C4041 1.398 . S
C4042 C4046 1.407 . S
C4043 C4041 1.396 . S
C4043 C4044 1.394 . S
C4044 H4039 0.929 . S
C4044 C4043 1.394 . S
C4044 C4045 1.382 . S
C4045 C4044 1.382 . S
C4045 C4046 1.392 . S
C4045 N4047 1.420 . S
C4046 H4040 0.930 . S
C4046 C4042 1.407 . S
C4046 C4045 1.392 . S
N4047 C4045 1.420 . S
N4047 C4048 1.244 . S
C4048 N4047 1.244 . S
H4049 C4052 0.929 . S
H4050 C4055 0.929 . S
H4051 C4057 0.930 . S
C4052 H4049 0.929 . S
C4052 C4053 1.398 . S
C4052 C4054 1.396 . S
C4053 C4052 1.398 . S
C4053 C4057 1.407 . S
C4054 C4052 1.396 . S
C4054 C4055 1.394 . S
C4055 H4050 0.929 . S
C4055 C4054 1.394 . S
C4055 C4056 1.382 . S
C4056 C4055 1.382 . S
C4056 C4057 1.392 . S
C4056 N4058 1.420 . S
C4057 H4051 0.930 . S
C4057 C4053 1.407 . S
C4057 C4056 1.392 . S
N4058 C4056 1.420 . S
N4058 C4059 1.244 . S
C4059 N4058 1.244 . S
H4060 C4063 0.929 . S
H4061 C4066 0.929 . S
H4062 C4068 0.930 . S
C4063 H4060 0.929 . S
C4063 C4064 1.398 . S
C4063 C4065 1.396 . S
C4064 C4063 1.398 . S
C4064 C4068 1.407 . S
C4065 C4063 1.396 . S
C4065 C4066 1.394 . S
C4066 H4061 0.929 . S
C4066 C4065 1.394 . S
C4066 C4067 1.382 . S
C4067 C4066 1.382 . S
C4067 C4068 1.392 . S
C4067 N4069 1.420 . S
C4068 H4062 0.930 . S
C4068 C4064 1.407 . S
C4068 C4067 1.392 . S
N4069 C4067 1.420 . S
N4069 C4070 1.244 . S
C4070 N4069 1.244 . S
H4071 C4074 0.929 . S
H4072 C4077 0.929 . S
H4073 C4079 0.930 . S
C4074 H4071 0.929 . S
C4074 C4075 1.398 . S
C4074 C4076 1.396 . S
C4075 C4074 1.398 . S
C4075 C4079 1.407 . S
C4076 C4074 1.396 . S
C4076 C4077 1.394 . S
C4077 H4072 0.929 . S
C4077 C4076 1.394 . S
C4077 C4078 1.382 . S
C4078 C4077 1.382 . S
C4078 C4079 1.392 . S
C4078 N4080 1.420 . S
C4079 H4073 0.930 . S
C4079 C4075 1.407 . S
C4079 C4078 1.392 . S
N4080 C4078 1.420 . S
N4080 C4081 1.244 . S
C4081 N4080 1.244 . S
H4082 C4085 0.929 . S
H4083 C4088 0.929 . S
H4084 C4090 0.930 . S
C4085 H4082 0.929 . S
C4085 C4086 1.398 . S
C4085 C4087 1.396 . S
C4086 C4085 1.398 . S
C4086 C4090 1.407 . S
C4087 C4085 1.396 . S
C4087 C4088 1.394 . S
C4088 H4083 0.929 . S
C4088 C4087 1.394 . S
C4088 C4089 1.382 . S
C4089 C4088 1.382 . S
C4089 C4090 1.392 . S
C4089 N4091 1.420 . S
C4090 H4084 0.930 . S
C4090 C4086 1.407 . S
C4090 C4089 1.392 . S
N4091 C4089 1.420 . S
N4091 C4092 1.244 . S
C4092 N4091 1.244 . S
H4093 C4096 0.929 . S
H4094 C4099 0.929 . S
H4095 C4101 0.930 . S
C4096 H4093 0.929 . S
C4096 C4097 1.398 . S
C4096 C4098 1.396 . S
C4097 C4096 1.398 . S
C4097 C4101 1.407 . S
C4098 C4096 1.396 . S
C4098 C4099 1.394 . S
C4099 H4094 0.929 . S
C4099 C4098 1.394 . S
C4099 C4100 1.382 . S
C4100 C4099 1.382 . S
C4100 C4101 1.392 . S
C4100 N4102 1.420 . S
C4101 H4095 0.930 . S
C4101 C4097 1.407 . S
C4101 C4100 1.392 . S
N4102 C4100 1.420 . S
N4102 C4103 1.244 . S
C4103 N4102 1.244 . S
H4104 C4107 0.929 . S
H4105 C4110 0.929 . S
H4106 C4112 0.930 . S
C4107 H4104 0.929 . S
C4107 C4108 1.398 . S
C4107 C4109 1.396 . S
C4108 C4107 1.398 . S
C4108 C4112 1.407 . S
C4109 C4107 1.396 . S
C4109 C4110 1.394 . S
C4110 H4105 0.929 . S
C4110 C4109 1.394 . S
C4110 C4111 1.382 . S
C4111 C4110 1.382 . S
C4111 C4112 1.392 . S
C4111 N4113 1.420 . S
C4112 H4106 0.930 . S
C4112 C4108 1.407 . S
C4112 C4111 1.392 . S
N4113 C4111 1.420 . S
N4113 C4114 1.244 . S
C4114 N4113 1.244 . S
H4115 C4118 0.929 . S
H4116 C4121 0.929 . S
H4117 C4123 0.930 . S
C4118 H4115 0.929 . S
C4118 C4119 1.398 . S
C4118 C4120 1.396 . S
C4119 C4118 1.398 . S
C4119 C4123 1.407 . S
C4120 C4118 1.396 . S
C4120 C4121 1.394 . S
C4121 H4116 0.929 . S
C4121 C4120 1.394 . S
C4121 C4122 1.382 . S
C4122 C4121 1.382 . S
C4122 C4123 1.392 . S
C4122 N4124 1.420 . S
C4123 H4117 0.930 . S
C4123 C4119 1.407 . S
C4123 C4122 1.392 . S
N4124 C4122 1.420 . S
N4124 C4125 1.244 . S
C4125 N4124 1.244 . S
H4126 C4129 0.929 . S
H4127 C4132 0.929 . S
H4128 C4134 0.930 . S
C4129 H4126 0.929 . S
C4129 C4130 1.398 . S
C4129 C4131 1.396 . S
C4130 C4129 1.398 . S
C4130 C4134 1.407 . S
C4131 C4129 1.396 . S
C4131 C4132 1.394 . S
C4132 H4127 0.929 . S
C4132 C4131 1.394 . S
C4132 C4133 1.382 . S
C4133 C4132 1.382 . S
C4133 C4134 1.392 . S
C4133 N4135 1.420 . S
C4134 H4128 0.930 . S
C4134 C4130 1.407 . S
C4134 C4133 1.392 . S
N4135 C4133 1.420 . S
N4135 C4136 1.244 . S
C4136 N4135 1.244 . S
H4137 C4140 0.929 . S
H4138 C4143 0.929 . S
H4139 C4145 0.930 . S
C4140 H4137 0.929 . S
C4140 C4141 1.398 . S
C4140 C4142 1.396 . S
C4141 C4140 1.398 . S
C4141 C4145 1.407 . S
C4142 C4140 1.396 . S
C4142 C4143 1.394 . S
C4143 H4138 0.929 . S
C4143 C4142 1.394 . S
C4143 C4144 1.382 . S
C4144 C4143 1.382 . S
C4144 C4145 1.392 . S
C4144 N4146 1.420 . S
C4145 H4139 0.930 . S
C4145 C4141 1.407 . S
C4145 C4144 1.392 . S
N4146 C4144 1.420 . S
N4146 C4147 1.244 . S
C4147 N4146 1.244 . S
H4148 C4151 0.929 . S
H4149 C4154 0.929 . S
H4150 C4156 0.930 . S
C4151 H4148 0.929 . S
C4151 C4152 1.398 . S
C4151 C4153 1.396 . S
C4152 C4151 1.398 . S
C4152 C4156 1.407 . S
C4153 C4151 1.396 . S
C4153 C4154 1.394 . S
C4154 H4149 0.929 . S
C4154 C4153 1.394 . S
C4154 C4155 1.382 . S
C4155 C4154 1.382 . S
C4155 C4156 1.392 . S
C4155 N4157 1.420 . S
C4156 H4150 0.930 . S
C4156 C4152 1.407 . S
C4156 C4155 1.392 . S
N4157 C4155 1.420 . S
N4157 C4158 1.244 . S
C4158 N4157 1.244 . S
H4159 C4162 0.929 . S
H4160 C4165 0.929 . S
H4161 C4167 0.930 . S
C4162 H4159 0.929 . S
C4162 C4163 1.398 . S
C4162 C4164 1.396 . S
C4163 C4162 1.398 . S
C4163 C4167 1.407 . S
C4164 C4162 1.396 . S
C4164 C4165 1.394 . S
C4165 H4160 0.929 . S
C4165 C4164 1.394 . S
C4165 C4166 1.382 . S
C4166 C4165 1.382 . S
C4166 C4167 1.392 . S
C4166 N4168 1.420 . S
C4167 H4161 0.930 . S
C4167 C4163 1.407 . S
C4167 C4166 1.392 . S
N4168 C4166 1.420 . S
N4168 C4169 1.244 . S
C4169 N4168 1.244 . S
H4170 C4173 0.929 . S
H4171 C4176 0.929 . S
H4172 C4178 0.930 . S
C4173 H4170 0.929 . S
C4173 C4174 1.398 . S
C4173 C4175 1.396 . S
C4174 C4173 1.398 . S
C4174 C4178 1.407 . S
C4175 C4173 1.396 . S
C4175 C4176 1.394 . S
C4176 H4171 0.929 . S
C4176 C4175 1.394 . S
C4176 C4177 1.382 . S
C4177 C4176 1.382 . S
C4177 C4178 1.392 . S
C4177 N4179 1.420 . S
C4178 H4172 0.930 . S
C4178 C4174 1.407 . S
C4178 C4177 1.392 . S
N4179 C4177 1.420 . S
N4179 C4180 1.244 . S
C4180 N4179 1.244 . S
H4181 C4184 0.929 . S
H4182 C4187 0.929 . S
H4183 C4189 0.930 . S
C4184 H4181 0.929 . S
C4184 C4185 1.398 . S
C4184 C4186 1.396 . S
C4185 C4184 1.398 . S
C4185 C4189 1.407 . S
C4186 C4184 1.396 . S
C4186 C4187 1.394 . S
C4187 H4182 0.929 . S
C4187 C4186 1.394 . S
C4187 C4188 1.382 . S
C4188 C4187 1.382 . S
C4188 C4189 1.392 . S
C4188 N4190 1.420 . S
C4189 H4183 0.930 . S
C4189 C4185 1.407 . S
C4189 C4188 1.392 . S
N4190 C4188 1.420 . S
N4190 C4191 1.244 . S
C4191 N4190 1.244 . S
H4192 C4195 0.929 . S
H4193 C4198 0.929 . S
H4194 C4200 0.930 . S
C4195 H4192 0.929 . S
C4195 C4196 1.398 . S
C4195 C4197 1.396 . S
C4196 C4195 1.398 . S
C4196 C4200 1.407 . S
C4197 C4195 1.396 . S
C4197 C4198 1.394 . S
C4198 H4193 0.929 . S
C4198 C4197 1.394 . S
C4198 C4199 1.382 . S
C4199 C4198 1.382 . S
C4199 C4200 1.392 . S
C4199 N4201 1.420 . S
C4200 H4194 0.930 . S
C4200 C4196 1.407 . S
C4200 C4199 1.392 . S
N4201 C4199 1.420 . S
N4201 C4202 1.244 . S
C4202 N4201 1.244 . S
H4203 C4206 0.929 . S
H4204 C4209 0.929 . S
H4205 C4211 0.930 . S
C4206 H4203 0.929 . S
C4206 C4207 1.398 . S
C4206 C4208 1.396 . S
C4207 C4206 1.398 . S
C4207 C4211 1.407 . S
C4208 C4206 1.396 . S
C4208 C4209 1.394 . S
C4209 H4204 0.929 . S
C4209 C4208 1.394 . S
C4209 C4210 1.382 . S
C4210 C4209 1.382 . S
C4210 C4211 1.392 . S
C4210 N4212 1.420 . S
C4211 H4205 0.930 . S
C4211 C4207 1.407 . S
C4211 C4210 1.392 . S
N4212 C4210 1.420 . S
N4212 C4213 1.244 . S
C4213 N4212 1.244 . S
H4214 C4217 0.929 . S
H4215 C4220 0.929 . S
H4216 C4222 0.930 . S
C4217 H4214 0.929 . S
C4217 C4218 1.398 . S
C4217 C4219 1.396 . S
C4218 C4217 1.398 . S
C4218 C4222 1.407 . S
C4219 C4217 1.396 . S
C4219 C4220 1.394 . S
C4220 H4215 0.929 . S
C4220 C4219 1.394 . S
C4220 C4221 1.382 . S
C4221 C4220 1.382 . S
C4221 C4222 1.392 . S
C4221 N4223 1.420 . S
C4222 H4216 0.930 . S
C4222 C4218 1.407 . S
C4222 C4221 1.392 . S
N4223 C4221 1.420 . S
N4223 C4224 1.244 . S
C4224 N4223 1.244 . S
H4225 C4228 0.929 . S
H4226 C4231 0.929 . S
H4227 C4233 0.930 . S
C4228 H4225 0.929 . S
C4228 C4229 1.398 . S
C4228 C4230 1.396 . S
C4229 C4228 1.398 . S
C4229 C4233 1.407 . S
C4230 C4228 1.396 . S
C4230 C4231 1.394 . S
C4231 H4226 0.929 . S
C4231 C4230 1.394 . S
C4231 C4232 1.382 . S
C4232 C4231 1.382 . S
C4232 C4233 1.392 . S
C4232 N4234 1.420 . S
C4233 H4227 0.930 . S
C4233 C4229 1.407 . S
C4233 C4232 1.392 . S
N4234 C4232 1.420 . S
N4234 C4235 1.244 . S
C4235 N4234 1.244 . S
H4236 C4239 0.929 . S
H4237 C4242 0.929 . S
H4238 C4244 0.930 . S
C4239 H4236 0.929 . S
C4239 C4240 1.398 . S
C4239 C4241 1.396 . S
C4240 C4239 1.398 . S
C4240 C4244 1.407 . S
C4241 C4239 1.396 . S
C4241 C4242 1.394 . S
C4242 H4237 0.929 . S
C4242 C4241 1.394 . S
C4242 C4243 1.382 . S
C4243 C4242 1.382 . S
C4243 C4244 1.392 . S
C4243 N4245 1.420 . S
C4244 H4238 0.930 . S
C4244 C4240 1.407 . S
C4244 C4243 1.392 . S
N4245 C4243 1.420 . S
N4245 C4246 1.244 . S
C4246 N4245 1.244 . S
H4247 C4250 0.929 . S
H4248 C4253 0.929 . S
H4249 C4255 0.930 . S
C4250 H4247 0.929 . S
C4250 C4251 1.398 . S
C4250 C4252 1.396 . S
C4251 C4250 1.398 . S
C4251 C4255 1.407 . S
C4252 C4250 1.396 . S
C4252 C4253 1.394 . S
C4253 H4248 0.929 . S
C4253 C4252 1.394 . S
C4253 C4254 1.382 . S
C4254 C4253 1.382 . S
C4254 C4255 1.392 . S
C4254 N4256 1.420 . S
C4255 H4249 0.930 . S
C4255 C4251 1.407 . S
C4255 C4254 1.392 . S
N4256 C4254 1.420 . S
N4256 C4257 1.244 . S
C4257 N4256 1.244 . S
H4258 C4261 0.929 . S
H4259 C4264 0.929 . S
H4260 C4266 0.930 . S
C4261 H4258 0.929 . S
C4261 C4262 1.398 . S
C4261 C4263 1.396 . S
C4262 C4261 1.398 . S
C4262 C4266 1.407 . S
C4263 C4261 1.396 . S
C4263 C4264 1.394 . S
C4264 H4259 0.929 . S
C4264 C4263 1.394 . S
C4264 C4265 1.382 . S
C4265 C4264 1.382 . S
C4265 C4266 1.392 . S
C4265 N4267 1.420 . S
C4266 H4260 0.930 . S
C4266 C4262 1.407 . S
C4266 C4265 1.392 . S
N4267 C4265 1.420 . S
N4267 C4268 1.244 . S
C4268 N4267 1.244 . S
H4269 C4272 0.929 . S
H4270 C4275 0.929 . S
H4271 C4277 0.930 . S
C4272 H4269 0.929 . S
C4272 C4273 1.398 . S
C4272 C4274 1.396 . S
C4273 C4272 1.398 . S
C4273 C4277 1.407 . S
C4274 C4272 1.396 . S
C4274 C4275 1.394 . S
C4275 H4270 0.929 . S
C4275 C4274 1.394 . S
C4275 C4276 1.382 . S
C4276 C4275 1.382 . S
C4276 C4277 1.392 . S
C4276 N4278 1.420 . S
C4277 H4271 0.930 . S
C4277 C4273 1.407 . S
C4277 C4276 1.392 . S
N4278 C4276 1.420 . S
N4278 C4279 1.244 . S
C4279 N4278 1.244 . S
H4280 C4283 0.929 . S
H4281 C4286 0.929 . S
H4282 C4288 0.930 . S
C4283 H4280 0.929 . S
C4283 C4284 1.398 . S
C4283 C4285 1.396 . S
C4284 C4283 1.398 . S
C4284 C4288 1.407 . S
C4285 C4283 1.396 . S
C4285 C4286 1.394 . S
C4286 H4281 0.929 . S
C4286 C4285 1.394 . S
C4286 C4287 1.382 . S
C4287 C4286 1.382 . S
C4287 C4288 1.392 . S
C4287 N4289 1.420 . S
C4288 H4282 0.930 . S
C4288 C4284 1.407 . S
C4288 C4287 1.392 . S
N4289 C4287 1.420 . S
N4289 C4290 1.244 . S
C4290 N4289 1.244 . S
H4291 C4294 0.929 . S
H4292 C4297 0.929 . S
H4293 C4299 0.930 . S
C4294 H4291 0.929 . S
C4294 C4295 1.398 . S
C4294 C4296 1.396 . S
C4295 C4294 1.398 . S
C4295 C4299 1.407 . S
C4296 C4294 1.396 . S
C4296 C4297 1.394 . S
C4297 H4292 0.929 . S
C4297 C4296 1.394 . S
C4297 C4298 1.382 . S
C4298 C4297 1.382 . S
C4298 C4299 1.392 . S
C4298 N4300 1.420 . S
C4299 H4293 0.930 . S
C4299 C4295 1.407 . S
C4299 C4298 1.392 . S
N4300 C4298 1.420 . S
N4300 C4301 1.244 . S
C4301 N4300 1.244 . S
H4302 C4305 0.929 . S
H4303 C4308 0.929 . S
H4304 C4310 0.930 . S
C4305 H4302 0.929 . S
C4305 C4306 1.398 . S
C4305 C4307 1.396 . S
C4306 C4305 1.398 . S
C4306 C4310 1.407 . S
C4307 C4305 1.396 . S
C4307 C4308 1.394 . S
C4308 H4303 0.929 . S
C4308 C4307 1.394 . S
C4308 C4309 1.382 . S
C4309 C4308 1.382 . S
C4309 C4310 1.392 . S
C4309 N4311 1.420 . S
C4310 H4304 0.930 . S
C4310 C4306 1.407 . S
C4310 C4309 1.392 . S
N4311 C4309 1.420 . S
N4311 C4312 1.244 . S
C4312 N4311 1.244 . S
H4313 C4316 0.929 . S
H4314 C4319 0.929 . S
H4315 C4321 0.930 . S
C4316 H4313 0.929 . S
C4316 C4317 1.398 . S
C4316 C4318 1.396 . S
C4317 C4316 1.398 . S
C4317 C4321 1.407 . S
C4318 C4316 1.396 . S
C4318 C4319 1.394 . S
C4319 H4314 0.929 . S
C4319 C4318 1.394 . S
C4319 C4320 1.382 . S
C4320 C4319 1.382 . S
C4320 C4321 1.392 . S
C4320 N4322 1.420 . S
C4321 H4315 0.930 . S
C4321 C4317 1.407 . S
C4321 C4320 1.392 . S
N4322 C4320 1.420 . S
N4322 C4323 1.244 . S
C4323 N4322 1.244 . S
H4324 C4327 0.929 . S
H4325 C4330 0.929 . S
H4326 C4332 0.930 . S
C4327 H4324 0.929 . S
C4327 C4328 1.398 . S
C4327 C4329 1.396 . S
C4328 C4327 1.398 . S
C4328 C4332 1.407 . S
C4329 C4327 1.396 . S
C4329 C4330 1.394 . S
C4330 H4325 0.929 . S
C4330 C4329 1.394 . S
C4330 C4331 1.382 . S
C4331 C4330 1.382 . S
C4331 C4332 1.392 . S
C4331 N4333 1.420 . S
C4332 H4326 0.930 . S
C4332 C4328 1.407 . S
C4332 C4331 1.392 . S
N4333 C4331 1.420 . S
N4333 C4334 1.244 . S
C4334 N4333 1.244 . S
H4335 C4338 0.929 . S
H4336 C4341 0.929 . S
H4337 C4343 0.930 . S
C4338 H4335 0.929 . S
C4338 C4339 1.398 . S
C4338 C4340 1.396 . S
C4339 C4338 1.398 . S
C4339 C4343 1.407 . S
C4340 C4338 1.396 . S
C4340 C4341 1.394 . S
C4341 H4336 0.929 . S
C4341 C4340 1.394 . S
C4341 C4342 1.382 . S
C4342 C4341 1.382 . S
C4342 C4343 1.392 . S
C4342 N4344 1.420 . S
C4343 H4337 0.930 . S
C4343 C4339 1.407 . S
C4343 C4342 1.392 . S
N4344 C4342 1.420 . S
N4344 C4345 1.244 . S
C4345 N4344 1.244 . S
H4346 C4349 0.929 . S
H4347 C4352 0.929 . S
H4348 C4354 0.930 . S
C4349 H4346 0.929 . S
C4349 C4350 1.398 . S
C4349 C4351 1.396 . S
C4350 C4349 1.398 . S
C4350 C4354 1.407 . S
C4351 C4349 1.396 . S
C4351 C4352 1.394 . S
C4352 H4347 0.929 . S
C4352 C4351 1.394 . S
C4352 C4353 1.382 . S
C4353 C4352 1.382 . S
C4353 C4354 1.392 . S
C4353 N4355 1.420 . S
C4354 H4348 0.930 . S
C4354 C4350 1.407 . S
C4354 C4353 1.392 . S
N4355 C4353 1.420 . S
N4355 C4356 1.244 . S
C4356 N4355 1.244 . S
H4357 C4360 0.929 . S
H4358 C4363 0.929 . S
H4359 C4365 0.930 . S
C4360 H4357 0.929 . S
C4360 C4361 1.398 . S
C4360 C4362 1.396 . S
C4361 C4360 1.398 . S
C4361 C4365 1.407 . S
C4362 C4360 1.396 . S
C4362 C4363 1.394 . S
C4363 H4358 0.929 . S
C4363 C4362 1.394 . S
C4363 C4364 1.382 . S
C4364 C4363 1.382 . S
C4364 C4365 1.392 . S
C4364 N4366 1.420 . S
C4365 H4359 0.930 . S
C4365 C4361 1.407 . S
C4365 C4364 1.392 . S
N4366 C4364 1.420 . S
N4366 C4367 1.244 . S
C4367 N4366 1.244 . S
H4368 C4371 0.929 . S
H4369 C4374 0.929 . S
H4370 C4376 0.930 . S
C4371 H4368 0.929 . S
C4371 C4372 1.398 . S
C4371 C4373 1.396 . S
C4372 C4371 1.398 . S
C4372 C4376 1.407 . S
C4373 C4371 1.396 . S
C4373 C4374 1.394 . S
C4374 H4369 0.929 . S
C4374 C4373 1.394 . S
C4374 C4375 1.382 . S
C4375 C4374 1.382 . S
C4375 C4376 1.392 . S
C4375 N4377 1.420 . S
C4376 H4370 0.930 . S
C4376 C4372 1.407 . S
C4376 C4375 1.392 . S
N4377 C4375 1.420 . S
N4377 C4378 1.244 . S
C4378 N4377 1.244 . S
H4379 C4382 0.929 . S
H4380 C4385 0.929 . S
H4381 C4387 0.930 . S
C4382 H4379 0.929 . S
C4382 C4383 1.398 . S
C4382 C4384 1.396 . S
C4383 C4382 1.398 . S
C4383 C4387 1.407 . S
C4384 C4382 1.396 . S
C4384 C4385 1.394 . S
C4385 H4380 0.929 . S
C4385 C4384 1.394 . S
C4385 C4386 1.382 . S
C4386 C4385 1.382 . S
C4386 C4387 1.392 . S
C4386 N4388 1.420 . S
C4387 H4381 0.930 . S
C4387 C4383 1.407 . S
C4387 C4386 1.392 . S
N4388 C4386 1.420 . S
N4388 C4389 1.244 . S
C4389 N4388 1.244 . S
H4390 C4393 0.929 . S
H4391 C4396 0.929 . S
H4392 C4398 0.930 . S
C4393 H4390 0.929 . S
C4393 C4394 1.398 . S
C4393 C4395 1.396 . S
C4394 C4393 1.398 . S
C4394 C4398 1.407 . S
C4395 C4393 1.396 . S
C4395 C4396 1.394 . S
C4396 H4391 0.929 . S
C4396 C4395 1.394 . S
C4396 C4397 1.382 . S
C4397 C4396 1.382 . S
C4397 C4398 1.392 . S
C4397 N4399 1.420 . S
C4398 H4392 0.930 . S
C4398 C4394 1.407 . S
C4398 C4397 1.392 . S
N4399 C4397 1.420 . S
N4399 C4400 1.244 . S
C4400 N4399 1.244 . S
H4401 C4404 0.929 . S
H4402 C4407 0.929 . S
H4403 C4409 0.930 . S
C4404 H4401 0.929 . S
C4404 C4405 1.398 . S
C4404 C4406 1.396 . S
C4405 C4404 1.398 . S
C4405 C4409 1.407 . S
C4406 C4404 1.396 . S
C4406 C4407 1.394 . S
C4407 H4402 0.929 . S
C4407 C4406 1.394 . S
C4407 C4408 1.382 . S
C4408 C4407 1.382 . S
C4408 C4409 1.392 . S
C4408 N4410 1.420 . S
C4409 H4403 0.930 . S
C4409 C4405 1.407 . S
C4409 C4408 1.392 . S
N4410 C4408 1.420 . S
N4410 C4411 1.244 . S
C4411 N4410 1.244 . S
H4412 C4415 0.929 . S
H4413 C4418 0.929 . S
H4414 C4420 0.930 . S
C4415 H4412 0.929 . S
C4415 C4416 1.398 . S
C4415 C4417 1.396 . S
C4416 C4415 1.398 . S
C4416 C4420 1.407 . S
C4417 C4415 1.396 . S
C4417 C4418 1.394 . S
C4418 H4413 0.929 . S
C4418 C4417 1.394 . S
C4418 C4419 1.382 . S
C4419 C4418 1.382 . S
C4419 C4420 1.392 . S
C4419 N4421 1.420 . S
C4420 H4414 0.930 . S
C4420 C4416 1.407 . S
C4420 C4419 1.392 . S
N4421 C4419 1.420 . S
N4421 C4422 1.244 . S
C4422 N4421 1.244 . S
H4423 C4426 0.929 . S
H4424 C4429 0.929 . S
H4425 C4431 0.930 . S
C4426 H4423 0.929 . S
C4426 C4427 1.398 . S
C4426 C4428 1.396 . S
C4427 C4426 1.398 . S
C4427 C4431 1.407 . S
C4428 C4426 1.396 . S
C4428 C4429 1.394 . S
C4429 H4424 0.929 . S
C4429 C4428 1.394 . S
C4429 C4430 1.382 . S
C4430 C4429 1.382 . S
C4430 C4431 1.392 . S
C4430 N4432 1.420 . S
C4431 H4425 0.930 . S
C4431 C4427 1.407 . S
C4431 C4430 1.392 . S
N4432 C4430 1.420 . S
N4432 C4433 1.244 . S
C4433 N4432 1.244 . S
H4434 C4437 0.929 . S
H4435 C4440 0.929 . S
H4436 C4442 0.930 . S
C4437 H4434 0.929 . S
C4437 C4438 1.398 . S
C4437 C4439 1.396 . S
C4438 C4437 1.398 . S
C4438 C4442 1.407 . S
C4439 C4437 1.396 . S
C4439 C4440 1.394 . S
C4440 H4435 0.929 . S
C4440 C4439 1.394 . S
C4440 C4441 1.382 . S
C4441 C4440 1.382 . S
C4441 C4442 1.392 . S
C4441 N4443 1.420 . S
C4442 H4436 0.930 . S
C4442 C4438 1.407 . S
C4442 C4441 1.392 . S
N4443 C4441 1.420 . S
N4443 C4444 1.244 . S
C4444 N4443 1.244 . S
H4445 C4448 0.929 . S
H4446 C4451 0.929 . S
H4447 C4453 0.930 . S
C4448 H4445 0.929 . S
C4448 C4449 1.398 . S
C4448 C4450 1.396 . S
C4449 C4448 1.398 . S
C4449 C4453 1.407 . S
C4450 C4448 1.396 . S
C4450 C4451 1.394 . S
C4451 H4446 0.929 . S
C4451 C4450 1.394 . S
C4451 C4452 1.382 . S
C4452 C4451 1.382 . S
C4452 C4453 1.392 . S
C4452 N4454 1.420 . S
C4453 H4447 0.930 . S
C4453 C4449 1.407 . S
C4453 C4452 1.392 . S
N4454 C4452 1.420 . S
N4454 C4455 1.244 . S
C4455 N4454 1.244 . S
H4456 C4459 0.929 . S
H4457 C4462 0.929 . S
H4458 C4464 0.930 . S
C4459 H4456 0.929 . S
C4459 C4460 1.398 . S
C4459 C4461 1.396 . S
C4460 C4459 1.398 . S
C4460 C4464 1.407 . S
C4461 C4459 1.396 . S
C4461 C4462 1.394 . S
C4462 H4457 0.929 . S
C4462 C4461 1.394 . S
C4462 C4463 1.382 . S
C4463 C4462 1.382 . S
C4463 C4464 1.392 . S
C4463 N4465 1.420 . S
C4464 H4458 0.930 . S
C4464 C4460 1.407 . S
C4464 C4463 1.392 . S
N4465 C4463 1.420 . S
N4465 C4466 1.244 . S
C4466 N4465 1.244 . S
H4467 C4470 0.929 . S
H4468 C4473 0.929 . S
H4469 C4475 0.930 . S
C4470 H4467 0.929 . S
C4470 C4471 1.398 . S
C4470 C4472 1.396 . S
C4471 C4470 1.398 . S
C4471 C4475 1.407 . S
C4472 C4470 1.396 . S
C4472 C4473 1.394 . S
C4473 H4468 0.929 . S
C4473 C4472 1.394 . S
C4473 C4474 1.382 . S
C4474 C4473 1.382 . S
C4474 C4475 1.392 . S
C4474 N4476 1.420 . S
C4475 H4469 0.930 . S
C4475 C4471 1.407 . S
C4475 C4474 1.392 . S
N4476 C4474 1.420 . S
N4476 C4477 1.244 . S
C4477 N4476 1.244 . S
H4478 C4481 0.929 . S
H4479 C4484 0.929 . S
H4480 C4486 0.930 . S
C4481 H4478 0.929 . S
C4481 C4482 1.398 . S
C4481 C4483 1.396 . S
C4482 C4481 1.398 . S
C4482 C4486 1.407 . S
C4483 C4481 1.396 . S
C4483 C4484 1.394 . S
C4484 H4479 0.929 . S
C4484 C4483 1.394 . S
C4484 C4485 1.382 . S
C4485 C4484 1.382 . S
C4485 C4486 1.392 . S
C4485 N4487 1.420 . S
C4486 H4480 0.930 . S
C4486 C4482 1.407 . S
C4486 C4485 1.392 . S
N4487 C4485 1.420 . S
N4487 C4488 1.244 . S
C4488 N4487 1.244 . S
H4489 C4492 0.929 . S
H4490 C4495 0.929 . S
H4491 C4497 0.930 . S
C4492 H4489 0.929 . S
C4492 C4493 1.398 . S
C4492 C4494 1.396 . S
C4493 C4492 1.398 . S
C4493 C4497 1.407 . S
C4494 C4492 1.396 . S
C4494 C4495 1.394 . S
C4495 H4490 0.929 . S
C4495 C4494 1.394 . S
C4495 C4496 1.382 . S
C4496 C4495 1.382 . S
C4496 C4497 1.392 . S
C4496 N4498 1.420 . S
C4497 H4491 0.930 . S
C4497 C4493 1.407 . S
C4497 C4496 1.392 . S
N4498 C4496 1.420 . S
N4498 C4499 1.244 . S
C4499 N4498 1.244 . S
H4500 C4503 0.929 . S
H4501 C4506 0.929 . S
H4502 C4508 0.930 . S
C4503 H4500 0.929 . S
C4503 C4504 1.398 . S
C4503 C4505 1.396 . S
C4504 C4503 1.398 . S
C4504 C4508 1.407 . S
C4505 C4503 1.396 . S
C4505 C4506 1.394 . S
C4506 H4501 0.929 . S
C4506 C4505 1.394 . S
C4506 C4507 1.382 . S
C4507 C4506 1.382 . S
C4507 C4508 1.392 . S
C4507 N4509 1.420 . S
C4508 H4502 0.930 . S
C4508 C4504 1.407 . S
C4508 C4507 1.392 . S
N4509 C4507 1.420 . S
N4509 C4510 1.244 . S
C4510 N4509 1.244 . S
H4511 C4514 0.929 . S
H4512 C4517 0.929 . S
H4513 C4519 0.930 . S
C4514 H4511 0.929 . S
C4514 C4515 1.398 . S
C4514 C4516 1.396 . S
C4515 C4514 1.398 . S
C4515 C4519 1.407 . S
C4516 C4514 1.396 . S
C4516 C4517 1.394 . S
C4517 H4512 0.929 . S
C4517 C4516 1.394 . S
C4517 C4518 1.382 . S
C4518 C4517 1.382 . S
C4518 C4519 1.392 . S
C4518 N4520 1.420 . S
C4519 H4513 0.930 . S
C4519 C4515 1.407 . S
C4519 C4518 1.392 . S
N4520 C4518 1.420 . S
N4520 C4521 1.244 . S
C4521 N4520 1.244 . S
H4522 C4525 0.929 . S
H4523 C4528 0.929 . S
H4524 C4530 0.930 . S
C4525 H4522 0.929 . S
C4525 C4526 1.398 . S
C4525 C4527 1.396 . S
C4526 C4525 1.398 . S
C4526 C4530 1.407 . S
C4527 C4525 1.396 . S
C4527 C4528 1.394 . S
C4528 H4523 0.929 . S
C4528 C4527 1.394 . S
C4528 C4529 1.382 . S
C4529 C4528 1.382 . S
C4529 C4530 1.392 . S
C4529 N4531 1.420 . S
C4530 H4524 0.930 . S
C4530 C4526 1.407 . S
C4530 C4529 1.392 . S
N4531 C4529 1.420 . S
N4531 C4532 1.244 . S
C4532 N4531 1.244 . S
H4533 C4536 0.929 . S
H4534 C4539 0.929 . S
H4535 C4541 0.930 . S
C4536 H4533 0.929 . S
C4536 C4537 1.398 . S
C4536 C4538 1.396 . S
C4537 C4536 1.398 . S
C4537 C4541 1.407 . S
C4538 C4536 1.396 . S
C4538 C4539 1.394 . S
C4539 H4534 0.929 . S
C4539 C4538 1.394 . S
C4539 C4540 1.382 . S
C4540 C4539 1.382 . S
C4540 C4541 1.392 . S
C4540 N4542 1.420 . S
C4541 H4535 0.930 . S
C4541 C4537 1.407 . S
C4541 C4540 1.392 . S
N4542 C4540 1.420 . S
N4542 C4543 1.244 . S
C4543 N4542 1.244 . S
H4544 C4547 0.929 . S
H4545 C4550 0.929 . S
H4546 C4552 0.930 . S
C4547 H4544 0.929 . S
C4547 C4548 1.398 . S
C4547 C4549 1.396 . S
C4548 C4547 1.398 . S
C4548 C4552 1.407 . S
C4549 C4547 1.396 . S
C4549 C4550 1.394 . S
C4550 H4545 0.929 . S
C4550 C4549 1.394 . S
C4550 C4551 1.382 . S
C4551 C4550 1.382 . S
C4551 C4552 1.392 . S
C4551 N4553 1.420 . S
C4552 H4546 0.930 . S
C4552 C4548 1.407 . S
C4552 C4551 1.392 . S
N4553 C4551 1.420 . S
N4553 C4554 1.244 . S
C4554 N4553 1.244 . S
H4555 C4558 0.929 . S
H4556 C4561 0.929 . S
H4557 C4563 0.930 . S
C4558 H4555 0.929 . S
C4558 C4559 1.398 . S
C4558 C4560 1.396 . S
C4559 C4558 1.398 . S
C4559 C4563 1.407 . S
C4560 C4558 1.396 . S
C4560 C4561 1.394 . S
C4561 H4556 0.929 . S
C4561 C4560 1.394 . S
C4561 C4562 1.382 . S
C4562 C4561 1.382 . S
C4562 C4563 1.392 . S
C4562 N4564 1.420 . S
C4563 H4557 0.930 . S
C4563 C4559 1.407 . S
C4563 C4562 1.392 . S
N4564 C4562 1.420 . S
N4564 C4565 1.244 . S
C4565 N4564 1.244 . S
H4566 C4569 0.929 . S
H4567 C4572 0.929 . S
H4568 C4574 0.930 . S
C4569 H4566 0.929 . S
C4569 C4570 1.398 . S
C4569 C4571 1.396 . S
C4570 C4569 1.398 . S
C4570 C4574 1.407 . S
C4571 C4569 1.396 . S
C4571 C4572 1.394 . S
C4572 H4567 0.929 . S
C4572 C4571 1.394 . S
C4572 C4573 1.382 . S
C4573 C4572 1.382 . S
C4573 C4574 1.392 . S
C4573 N4575 1.420 . S
C4574 H4568 0.930 . S
C4574 C4570 1.407 . S
C4574 C4573 1.392 . S
N4575 C4573 1.420 . S
N4575 C4576 1.244 . S
C4576 N4575 1.244 . S
H4577 C4580 0.929 . S
H4578 C4583 0.929 . S
H4579 C4585 0.930 . S
C4580 H4577 0.929 . S
C4580 C4581 1.398 . S
C4580 C4582 1.396 . S
C4581 C4580 1.398 . S
C4581 C4585 1.407 . S
C4582 C4580 1.396 . S
C4582 C4583 1.394 . S
C4583 H4578 0.929 . S
C4583 C4582 1.394 . S
C4583 C4584 1.382 . S
C4584 C4583 1.382 . S
C4584 C4585 1.392 . S
C4584 N4586 1.420 . S
C4585 H4579 0.930 . S
C4585 C4581 1.407 . S
C4585 C4584 1.392 . S
N4586 C4584 1.420 . S
N4586 C4587 1.244 . S
C4587 N4586 1.244 . S
H4588 C4591 0.929 . S
H4589 C4594 0.929 . S
H4590 C4596 0.930 . S
C4591 H4588 0.929 . S
C4591 C4592 1.398 . S
C4591 C4593 1.396 . S
C4592 C4591 1.398 . S
C4592 C4596 1.407 . S
C4593 C4591 1.396 . S
C4593 C4594 1.394 . S
C4594 H4589 0.929 . S
C4594 C4593 1.394 . S
C4594 C4595 1.382 . S
C4595 C4594 1.382 . S
C4595 C4596 1.392 . S
C4595 N4597 1.420 . S
C4596 H4590 0.930 . S
C4596 C4592 1.407 . S
C4596 C4595 1.392 . S
N4597 C4595 1.420 . S
N4597 C4598 1.244 . S
C4598 N4597 1.244 . S
H4599 C4602 0.929 . S
H4600 C4605 0.929 . S
H4601 C4607 0.930 . S
C4602 H4599 0.929 . S
C4602 C4603 1.398 . S
C4602 C4604 1.396 . S
C4603 C4602 1.398 . S
C4603 C4607 1.407 . S
C4604 C4602 1.396 . S
C4604 C4605 1.394 . S
C4605 H4600 0.929 . S
C4605 C4604 1.394 . S
C4605 C4606 1.382 . S
C4606 C4605 1.382 . S
C4606 C4607 1.392 . S
C4606 N4608 1.420 . S
C4607 H4601 0.930 . S
C4607 C4603 1.407 . S
C4607 C4606 1.392 . S
N4608 C4606 1.420 . S
N4608 C4609 1.244 . S
C4609 N4608 1.244 . S
H4610 C4613 0.929 . S
H4611 C4616 0.929 . S
H4612 C4618 0.930 . S
C4613 H4610 0.929 . S
C4613 C4614 1.398 . S
C4613 C4615 1.396 . S
C4614 C4613 1.398 . S
C4614 C4618 1.407 . S
C4615 C4613 1.396 . S
C4615 C4616 1.394 . S
C4616 H4611 0.929 . S
C4616 C4615 1.394 . S
C4616 C4617 1.382 . S
C4617 C4616 1.382 . S
C4617 C4618 1.392 . S
C4617 N4619 1.420 . S
C4618 H4612 0.930 . S
C4618 C4614 1.407 . S
C4618 C4617 1.392 . S
N4619 C4617 1.420 . S
N4619 C4620 1.244 . S
C4620 N4619 1.244 . S
H4621 C4624 0.929 . S
H4622 C4627 0.929 . S
H4623 C4629 0.930 . S
C4624 H4621 0.929 . S
C4624 C4625 1.398 . S
C4624 C4626 1.396 . S
C4625 C4624 1.398 . S
C4625 C4629 1.407 . S
C4626 C4624 1.396 . S
C4626 C4627 1.394 . S
C4627 H4622 0.929 . S
C4627 C4626 1.394 . S
C4627 C4628 1.382 . S
C4628 C4627 1.382 . S
C4628 C4629 1.392 . S
C4628 N4630 1.420 . S
C4629 H4623 0.930 . S
C4629 C4625 1.407 . S
C4629 C4628 1.392 . S
N4630 C4628 1.420 . S
N4630 C4631 1.244 . S
C4631 N4630 1.244 . S
H4632 C4635 0.929 . S
H4633 C4638 0.929 . S
H4634 C4640 0.930 . S
C4635 H4632 0.929 . S
C4635 C4636 1.398 . S
C4635 C4637 1.396 . S
C4636 C4635 1.398 . S
C4636 C4640 1.407 . S
C4637 C4635 1.396 . S
C4637 C4638 1.394 . S
C4638 H4633 0.929 . S
C4638 C4637 1.394 . S
C4638 C4639 1.382 . S
C4639 C4638 1.382 . S
C4639 C4640 1.392 . S
C4639 N4641 1.420 . S
C4640 H4634 0.930 . S
C4640 C4636 1.407 . S
C4640 C4639 1.392 . S
N4641 C4639 1.420 . S
N4641 C4642 1.244 . S
C4642 N4641 1.244 . S
H4643 C4646 0.929 . S
H4644 C4649 0.929 . S
H4645 C4651 0.930 . S
C4646 H4643 0.929 . S
C4646 C4647 1.398 . S
C4646 C4648 1.396 . S
C4647 C4646 1.398 . S
C4647 C4651 1.407 . S
C4648 C4646 1.396 . S
C4648 C4649 1.394 . S
C4649 H4644 0.929 . S
C4649 C4648 1.394 . S
C4649 C4650 1.382 . S
C4650 C4649 1.382 . S
C4650 C4651 1.392 . S
C4650 N4652 1.420 . S
C4651 H4645 0.930 . S
C4651 C4647 1.407 . S
C4651 C4650 1.392 . S
N4652 C4650 1.420 . S
N4652 C4653 1.244 . S
C4653 N4652 1.244 . S
H4654 C4657 0.929 . S
H4655 C4660 0.929 . S
H4656 C4662 0.930 . S
C4657 H4654 0.929 . S
C4657 C4658 1.398 . S
C4657 C4659 1.396 . S
C4658 C4657 1.398 . S
C4658 C4662 1.407 . S
C4659 C4657 1.396 . S
C4659 C4660 1.394 . S
C4660 H4655 0.929 . S
C4660 C4659 1.394 . S
C4660 C4661 1.382 . S
C4661 C4660 1.382 . S
C4661 C4662 1.392 . S
C4661 N4663 1.420 . S
C4662 H4656 0.930 . S
C4662 C4658 1.407 . S
C4662 C4661 1.392 . S
N4663 C4661 1.420 . S
N4663 C4664 1.244 . S
C4664 N4663 1.244 . S
H4665 C4668 0.929 . S
H4666 C4671 0.929 . S
H4667 C4673 0.930 . S
C4668 H4665 0.929 . S
C4668 C4669 1.398 . S
C4668 C4670 1.396 . S
C4669 C4668 1.398 . S
C4669 C4673 1.407 . S
C4670 C4668 1.396 . S
C4670 C4671 1.394 . S
C4671 H4666 0.929 . S
C4671 C4670 1.394 . S
C4671 C4672 1.382 . S
C4672 C4671 1.382 . S
C4672 C4673 1.392 . S
C4672 N4674 1.420 . S
C4673 H4667 0.930 . S
C4673 C4669 1.407 . S
C4673 C4672 1.392 . S
N4674 C4672 1.420 . S
N4674 C4675 1.244 . S
C4675 N4674 1.244 . S
H4676 C4679 0.929 . S
H4677 C4682 0.929 . S
H4678 C4684 0.930 . S
C4679 H4676 0.929 . S
C4679 C4680 1.398 . S
C4679 C4681 1.396 . S
C4680 C4679 1.398 . S
C4680 C4684 1.407 . S
C4681 C4679 1.396 . S
C4681 C4682 1.394 . S
C4682 H4677 0.929 . S
C4682 C4681 1.394 . S
C4682 C4683 1.382 . S
C4683 C4682 1.382 . S
C4683 C4684 1.392 . S
C4683 N4685 1.420 . S
C4684 H4678 0.930 . S
C4684 C4680 1.407 . S
C4684 C4683 1.392 . S
N4685 C4683 1.420 . S
N4685 C4686 1.244 . S
C4686 N4685 1.244 . S
H4687 C4690 0.929 . S
H4688 C4693 0.929 . S
H4689 C4695 0.930 . S
C4690 H4687 0.929 . S
C4690 C4691 1.398 . S
C4690 C4692 1.396 . S
C4691 C4690 1.398 . S
C4691 C4695 1.407 . S
C4692 C4690 1.396 . S
C4692 C4693 1.394 . S
C4693 H4688 0.929 . S
C4693 C4692 1.394 . S
C4693 C4694 1.382 . S
C4694 C4693 1.382 . S
C4694 C4695 1.392 . S
C4694 N4696 1.420 . S
C4695 H4689 0.930 . S
C4695 C4691 1.407 . S
C4695 C4694 1.392 . S
N4696 C4694 1.420 . S
N4696 C4697 1.244 . S
C4697 N4696 1.244 . S
H4698 C4701 0.929 . S
H4699 C4704 0.929 . S
H4700 C4706 0.930 . S
C4701 H4698 0.929 . S
C4701 C4702 1.398 . S
C4701 C4703 1.396 . S
C4702 C4701 1.398 . S
C4702 C4706 1.407 . S
C4703 C4701 1.396 . S
C4703 C4704 1.394 . S
C4704 H4699 0.929 . S
C4704 C4703 1.394 . S
C4704 C4705 1.382 . S
C4705 C4704 1.382 . S
C4705 C4706 1.392 . S
C4705 N4707 1.420 . S
C4706 H4700 0.930 . S
C4706 C4702 1.407 . S
C4706 C4705 1.392 . S
N4707 C4705 1.420 . S
N4707 C4708 1.244 . S
C4708 N4707 1.244 . S
H4709 C4712 0.929 . S
H4710 C4715 0.929 . S
H4711 C4717 0.930 . S
C4712 H4709 0.929 . S
C4712 C4713 1.398 . S
C4712 C4714 1.396 . S
C4713 C4712 1.398 . S
C4713 C4717 1.407 . S
C4714 C4712 1.396 . S
C4714 C4715 1.394 . S
C4715 H4710 0.929 . S
C4715 C4714 1.394 . S
C4715 C4716 1.382 . S
C4716 C4715 1.382 . S
C4716 C4717 1.392 . S
C4716 N4718 1.420 . S
C4717 H4711 0.930 . S
C4717 C4713 1.407 . S
C4717 C4716 1.392 . S
N4718 C4716 1.420 . S
N4718 C4719 1.244 . S
C4719 N4718 1.244 . S
H4720 C4723 0.929 . S
H4721 C4726 0.929 . S
H4722 C4728 0.930 . S
C4723 H4720 0.929 . S
C4723 C4724 1.398 . S
C4723 C4725 1.396 . S
C4724 C4723 1.398 . S
C4724 C4728 1.407 . S
C4725 C4723 1.396 . S
C4725 C4726 1.394 . S
C4726 H4721 0.929 . S
C4726 C4725 1.394 . S
C4726 C4727 1.382 . S
C4727 C4726 1.382 . S
C4727 C4728 1.392 . S
C4727 N4729 1.420 . S
C4728 H4722 0.930 . S
C4728 C4724 1.407 . S
C4728 C4727 1.392 . S
N4729 C4727 1.420 . S
N4729 C4730 1.244 . S
C4730 N4729 1.244 . S
H4731 C4734 0.929 . S
H4732 C4737 0.929 . S
H4733 C4739 0.930 . S
C4734 H4731 0.929 . S
C4734 C4735 1.398 . S
C4734 C4736 1.396 . S
C4735 C4734 1.398 . S
C4735 C4739 1.407 . S
C4736 C4734 1.396 . S
C4736 C4737 1.394 . S
C4737 H4732 0.929 . S
C4737 C4736 1.394 . S
C4737 C4738 1.382 . S
C4738 C4737 1.382 . S
C4738 C4739 1.392 . S
C4738 N4740 1.420 . S
C4739 H4733 0.930 . S
C4739 C4735 1.407 . S
C4739 C4738 1.392 . S
N4740 C4738 1.420 . S
N4740 C4741 1.244 . S
C4741 N4740 1.244 . S
H4742 C4745 0.929 . S
H4743 C4748 0.929 . S
H4744 C4750 0.930 . S
C4745 H4742 0.929 . S
C4745 C4746 1.398 . S
C4745 C4747 1.396 . S
C4746 C4745 1.398 . S
C4746 C4750 1.407 . S
C4747 C4745 1.396 . S
C4747 C4748 1.394 . S
C4748 H4743 0.929 . S
C4748 C4747 1.394 . S
C4748 C4749 1.382 . S
C4749 C4748 1.382 . S
C4749 C4750 1.392 . S
C4749 N4751 1.420 . S
C4750 H4744 0.930 . S
C4750 C4746 1.407 . S
C4750 C4749 1.392 . S
N4751 C4749 1.420 . S
N4751 C4752 1.244 . S
C4752 N4751 1.244 . S
H4753 C4756 0.929 . S
H4754 C4759 0.929 . S
H4755 C4761 0.930 . S
C4756 H4753 0.929 . S
C4756 C4757 1.398 . S
C4756 C4758 1.396 . S
C4757 C4756 1.398 . S
C4757 C4761 1.407 . S
C4758 C4756 1.396 . S
C4758 C4759 1.394 . S
C4759 H4754 0.929 . S
C4759 C4758 1.394 . S
C4759 C4760 1.382 . S
C4760 C4759 1.382 . S
C4760 C4761 1.392 . S
C4760 N4762 1.420 . S
C4761 H4755 0.930 . S
C4761 C4757 1.407 . S
C4761 C4760 1.392 . S
N4762 C4760 1.420 . S
N4762 C4763 1.244 . S
C4763 N4762 1.244 . S
H4764 C4767 0.929 . S
H4765 C4770 0.929 . S
H4766 C4772 0.930 . S
C4767 H4764 0.929 . S
C4767 C4768 1.398 . S
C4767 C4769 1.396 . S
C4768 C4767 1.398 . S
C4768 C4772 1.407 . S
C4769 C4767 1.396 . S
C4769 C4770 1.394 . S
C4770 H4765 0.929 . S
C4770 C4769 1.394 . S
C4770 C4771 1.382 . S
C4771 C4770 1.382 . S
C4771 C4772 1.392 . S
C4771 N4773 1.420 . S
C4772 H4766 0.930 . S
C4772 C4768 1.407 . S
C4772 C4771 1.392 . S
N4773 C4771 1.420 . S
N4773 C4774 1.244 . S
C4774 N4773 1.244 . S
H4775 C4778 0.929 . S
H4776 C4781 0.929 . S
H4777 C4783 0.930 . S
C4778 H4775 0.929 . S
C4778 C4779 1.398 . S
C4778 C4780 1.396 . S
C4779 C4778 1.398 . S
C4779 C4783 1.407 . S
C4780 C4778 1.396 . S
C4780 C4781 1.394 . S
C4781 H4776 0.929 . S
C4781 C4780 1.394 . S
C4781 C4782 1.382 . S
C4782 C4781 1.382 . S
C4782 C4783 1.392 . S
C4782 N4784 1.420 . S
C4783 H4777 0.930 . S
C4783 C4779 1.407 . S
C4783 C4782 1.392 . S
N4784 C4782 1.420 . S
N4784 C4785 1.244 . S
C4785 N4784 1.244 . S
H4786 C4789 0.929 . S
H4787 C4792 0.929 . S
H4788 C4794 0.930 . S
C4789 H4786 0.929 . S
C4789 C4790 1.398 . S
C4789 C4791 1.396 . S
C4790 C4789 1.398 . S
C4790 C4794 1.407 . S
C4791 C4789 1.396 . S
C4791 C4792 1.394 . S
C4792 H4787 0.929 . S
C4792 C4791 1.394 . S
C4792 C4793 1.382 . S
C4793 C4792 1.382 . S
C4793 C4794 1.392 . S
C4793 N4795 1.420 . S
C4794 H4788 0.930 . S
C4794 C4790 1.407 . S
C4794 C4793 1.392 . S
N4795 C4793 1.420 . S
N4795 C4796 1.244 . S
C4796 N4795 1.244 . S
H4797 C4800 0.929 . S
H4798 C4803 0.929 . S
H4799 C4805 0.930 . S
C4800 H4797 0.929 . S
C4800 C4801 1.398 . S
C4800 C4802 1.396 . S
C4801 C4800 1.398 . S
C4801 C4805 1.407 . S
C4802 C4800 1.396 . S
C4802 C4803 1.394 . S
C4803 H4798 0.929 . S
C4803 C4802 1.394 . S
C4803 C4804 1.382 . S
C4804 C4803 1.382 . S
C4804 C4805 1.392 . S
C4804 N4806 1.420 . S
C4805 H4799 0.930 . S
C4805 C4801 1.407 . S
C4805 C4804 1.392 . S
N4806 C4804 1.420 . S
N4806 C4807 1.244 . S
C4807 N4806 1.244 . S
H4808 C4811 0.929 . S
H4809 C4814 0.929 . S
H4810 C4816 0.930 . S
C4811 H4808 0.929 . S
C4811 C4812 1.398 . S
C4811 C4813 1.396 . S
C4812 C4811 1.398 . S
C4812 C4816 1.407 . S
C4813 C4811 1.396 . S
C4813 C4814 1.394 . S
C4814 H4809 0.929 . S
C4814 C4813 1.394 . S
C4814 C4815 1.382 . S
C4815 C4814 1.382 . S
C4815 C4816 1.392 . S
C4815 N4817 1.420 . S
C4816 H4810 0.930 . S
C4816 C4812 1.407 . S
C4816 C4815 1.392 . S
N4817 C4815 1.420 . S
N4817 C4818 1.244 . S
C4818 N4817 1.244 . S
H4819 C4822 0.929 . S
H4820 C4825 0.929 . S
H4821 C4827 0.930 . S
C4822 H4819 0.929 . S
C4822 C4823 1.398 . S
C4822 C4824 1.396 . S
C4823 C4822 1.398 . S
C4823 C4827 1.407 . S
C4824 C4822 1.396 . S
C4824 C4825 1.394 . S
C4825 H4820 0.929 . S
C4825 C4824 1.394 . S
C4825 C4826 1.382 . S
C4826 C4825 1.382 . S
C4826 C4827 1.392 . S
C4826 N4828 1.420 . S
C4827 H4821 0.930 . S
C4827 C4823 1.407 . S
C4827 C4826 1.392 . S
N4828 C4826 1.420 . S
N4828 C4829 1.244 . S
C4829 N4828 1.244 . S
H4830 C4833 0.929 . S
H4831 C4836 0.929 . S
H4832 C4838 0.930 . S
C4833 H4830 0.929 . S
C4833 C4834 1.398 . S
C4833 C4835 1.396 . S
C4834 C4833 1.398 . S
C4834 C4838 1.407 . S
C4835 C4833 1.396 . S
C4835 C4836 1.394 . S
C4836 H4831 0.929 . S
C4836 C4835 1.394 . S
C4836 C4837 1.382 . S
C4837 C4836 1.382 . S
C4837 C4838 1.392 . S
C4837 N4839 1.420 . S
C4838 H4832 0.930 . S
C4838 C4834 1.407 . S
C4838 C4837 1.392 . S
N4839 C4837 1.420 . S
N4839 C4840 1.244 . S
C4840 N4839 1.244 . S
H4841 C4844 0.929 . S
H4842 C4847 0.929 . S
H4843 C4849 0.930 . S
C4844 H4841 0.929 . S
C4844 C4845 1.398 . S
C4844 C4846 1.396 . S
C4845 C4844 1.398 . S
C4845 C4849 1.407 . S
C4846 C4844 1.396 . S
C4846 C4847 1.394 . S
C4847 H4842 0.929 . S
C4847 C4846 1.394 . S
C4847 C4848 1.382 . S
C4848 C4847 1.382 . S
C4848 C4849 1.392 . S
C4848 N4850 1.420 . S
C4849 H4843 0.930 . S
C4849 C4845 1.407 . S
C4849 C4848 1.392 . S
N4850 C4848 1.420 . S
N4850 C4851 1.244 . S
C4851 N4850 1.244 . S
H4852 C4855 0.929 . S
H4853 C4858 0.929 . S
H4854 C4860 0.930 . S
C4855 H4852 0.929 . S
C4855 C4856 1.398 . S
C4855 C4857 1.396 . S
C4856 C4855 1.398 . S
C4856 C4860 1.407 . S
C4857 C4855 1.396 . S
C4857 C4858 1.394 . S
C4858 H4853 0.929 . S
C4858 C4857 1.394 . S
C4858 C4859 1.382 . S
C4859 C4858 1.382 . S
C4859 C4860 1.392 . S
C4859 N4861 1.420 . S
C4860 H4854 0.930 . S
C4860 C4856 1.407 . S
C4860 C4859 1.392 . S
N4861 C4859 1.420 . S
N4861 C4862 1.244 . S
C4862 N4861 1.244 . S
H4863 C4866 0.929 . S
H4864 C4869 0.929 . S
H4865 C4871 0.930 . S
C4866 H4863 0.929 . S
C4866 C4867 1.398 . S
C4866 C4868 1.396 . S
C4867 C4866 1.398 . S
C4867 C4871 1.407 . S
C4868 C4866 1.396 . S
C4868 C4869 1.394 . S
C4869 H4864 0.929 . S
C4869 C4868 1.394 . S
C4869 C4870 1.382 . S
C4870 C4869 1.382 . S
C4870 C4871 1.392 . S
C4870 N4872 1.420 . S
C4871 H4865 0.930 . S
C4871 C4867 1.407 . S
C4871 C4870 1.392 . S
N4872 C4870 1.420 . S
N4872 C4873 1.244 . S
C4873 N4872 1.244 . S
H4874 C4877 0.929 . S
H4875 C4880 0.929 . S
H4876 C4882 0.930 . S
C4877 H4874 0.929 . S
C4877 C4878 1.398 . S
C4877 C4879 1.396 . S
C4878 C4877 1.398 . S
C4878 C4882 1.407 . S
C4879 C4877 1.396 . S
C4879 C4880 1.394 . S
C4880 H4875 0.929 . S
C4880 C4879 1.394 . S
C4880 C4881 1.382 . S
C4881 C4880 1.382 . S
C4881 C4882 1.392 . S
C4881 N4883 1.420 . S
C4882 H4876 0.930 . S
C4882 C4878 1.407 . S
C4882 C4881 1.392 . S
N4883 C4881 1.420 . S
N4883 C4884 1.244 . S
C4884 N4883 1.244 . S
H4885 C4888 0.929 . S
H4886 C4891 0.929 . S
H4887 C4893 0.930 . S
C4888 H4885 0.929 . S
C4888 C4889 1.398 . S
C4888 C4890 1.396 . S
C4889 C4888 1.398 . S
C4889 C4893 1.407 . S
C4890 C4888 1.396 . S
C4890 C4891 1.394 . S
C4891 H4886 0.929 . S
C4891 C4890 1.394 . S
C4891 C4892 1.382 . S
C4892 C4891 1.382 . S
C4892 C4893 1.392 . S
C4892 N4894 1.420 . S
C4893 H4887 0.930 . S
C4893 C4889 1.407 . S
C4893 C4892 1.392 . S
N4894 C4892 1.420 . S
N4894 C4895 1.244 . S
C4895 N4894 1.244 . S
C4896 C4897 1.363 . S
C4896 C4902 1.379 1_455 S
C4896 N4904 1.356 . S
C4897 C4896 1.363 . S
C4897 C4903 1.363 . S
C4898 C4899 1.363 . S
C4898 C4903 1.379 1_655 S
C4898 N4905 1.356 . S
C4899 C4898 1.363 . S
C4899 C4902 1.363 . S
N4900 C4902 1.356 . S
N4900 H4912 0.984 . S
N4900 H4913 0.985 . S
N4901 C4903 1.356 . S
N4901 H4906 0.984 . S
N4901 H4907 0.985 . S
C4902 C4896 1.379 1_655 S
C4902 C4899 1.363 . S
C4902 N4900 1.356 . S
C4903 C4897 1.363 . S
C4903 C4898 1.379 1_455 S
C4903 N4901 1.356 . S
N4904 C4896 1.356 . S
N4904 H4910 0.984 . S
N4904 H4911 0.984 . S
N4905 C4898 1.356 . S
N4905 H4908 0.984 . S
N4905 H4909 0.985 . S
H4906 N4901 0.984 . S
H4907 N4901 0.985 . S
H4908 N4905 0.984 . S
H4909 N4905 0.985 . S
H4910 N4904 0.984 . S
H4911 N4904 0.984 . S
H4912 N4900 0.984 . S
H4913 N4900 0.985 . S
C4914 C4915 1.363 . S
C4914 C4920 1.379 . S
C4914 N4922 1.356 . S
C4915 C4914 1.363 . S
C4915 C4921 1.363 . S
C4916 C4917 1.363 . S
C4916 C4921 1.379 . S
C4916 N4923 1.356 . S
C4917 C4916 1.363 . S
C4917 C4920 1.363 . S
N4918 C4920 1.356 . S
N4918 H4930 0.984 . S
N4918 H4931 0.985 . S
N4919 C4921 1.356 . S
N4919 H4924 0.984 . S
N4919 H4925 0.985 . S
C4920 C4914 1.379 . S
C4920 C4917 1.363 . S
C4920 N4918 1.356 . S
C4921 C4915 1.363 . S
C4921 C4916 1.379 . S
C4921 N4919 1.356 . S
N4922 C4914 1.356 . S
N4922 H4928 0.984 . S
N4922 H4929 0.984 . S
N4923 C4916 1.356 . S
N4923 H4926 0.984 . S
N4923 H4927 0.985 . S
H4924 N4919 0.984 . S
H4925 N4919 0.985 . S
H4926 N4923 0.984 . S
H4927 N4923 0.985 . S
H4928 N4922 0.984 . S
H4929 N4922 0.984 . S
H4930 N4918 0.984 . S
H4931 N4918 0.985 . S
C4932 C4933 1.363 . S
C4932 C4938 1.379 . S
C4932 N4940 1.356 . S
C4933 C4932 1.363 . S
C4933 C4939 1.363 . S
C4934 C4935 1.363 . S
C4934 C4939 1.379 . S
C4934 N4941 1.356 . S
C4935 C4934 1.363 . S
C4935 C4938 1.363 . S
N4936 C4938 1.356 . S
N4936 H4948 0.984 . S
N4936 H4949 0.985 . S
N4937 C4939 1.356 . S
N4937 H4942 0.984 . S
N4937 H4943 0.985 . S
C4938 C4932 1.379 . S
C4938 C4935 1.363 . S
C4938 N4936 1.356 . S
C4939 C4933 1.363 . S
C4939 C4934 1.379 . S
C4939 N4937 1.356 . S
N4940 C4932 1.356 . S
N4940 H4946 0.984 . S
N4940 H4947 0.984 . S
N4941 C4934 1.356 . S
N4941 H4944 0.984 . S
N4941 H4945 0.985 . S
H4942 N4937 0.984 . S
H4943 N4937 0.985 . S
H4944 N4941 0.984 . S
H4945 N4941 0.985 . S
H4946 N4940 0.984 . S
H4947 N4940 0.984 . S
H4948 N4936 0.984 . S
H4949 N4936 0.985 . S
C4950 C4951 1.363 . S
C4950 C4956 1.379 . S
C4950 N4958 1.356 . S
C4951 C4950 1.363 . S
C4951 C4957 1.363 . S
C4952 C4953 1.363 . S
C4952 C4957 1.379 . S
C4952 N4959 1.356 . S
C4953 C4952 1.363 . S
C4953 C4956 1.363 . S
N4954 C4956 1.356 . S
N4954 H4966 0.984 . S
N4954 H4967 0.985 . S
N4955 C4957 1.356 . S
N4955 H4960 0.984 . S
N4955 H4961 0.985 . S
C4956 C4950 1.379 . S
C4956 C4953 1.363 . S
C4956 N4954 1.356 . S
C4957 C4951 1.363 . S
C4957 C4952 1.379 . S
C4957 N4955 1.356 . S
N4958 C4950 1.356 . S
N4958 H4964 0.984 . S
N4958 H4965 0.984 . S
N4959 C4952 1.356 . S
N4959 H4962 0.984 . S
N4959 H4963 0.985 . S
H4960 N4955 0.984 . S
H4961 N4955 0.985 . S
H4962 N4959 0.984 . S
H4963 N4959 0.985 . S
H4964 N4958 0.984 . S
H4965 N4958 0.984 . S
H4966 N4954 0.984 . S
H4967 N4954 0.985 . S
C4968 C4969 1.363 . S
C4968 C4974 1.379 1_455 S
C4968 N4976 1.356 . S
C4969 C4968 1.363 . S
C4969 C4975 1.363 . S
C4970 C4971 1.333 1_455 S
C4970 C4975 1.410 . S
C4970 N4977 1.345 1_455 S
C4971 C4970 1.333 1_655 S
C4971 C4974 1.363 . S
N4972 C4974 1.356 . S
N4972 H4984 0.984 . S
N4972 H4985 0.985 . S
N4973 C4975 1.356 . S
N4973 H4978 0.984 . S
N4973 H4979 0.985 . S
C4974 C4968 1.379 1_655 S
C4974 C4971 1.363 . S
C4974 N4972 1.356 . S
C4975 C4969 1.363 . S
C4975 C4970 1.410 . S
C4975 N4973 1.356 . S
N4976 C4968 1.356 . S
N4976 H4982 0.983 1_455 S
N4976 H4983 0.984 . S
N4977 C4970 1.345 1_655 S
N4977 H4980 0.984 . S
N4977 H4981 0.985 1_655 S
H4978 N4973 0.984 . S
H4979 N4973 0.985 . S
H4980 N4977 0.984 . S
H4981 N4977 0.985 1_455 S
H4982 N4976 0.983 1_655 S
H4983 N4976 0.984 . S
H4984 N4972 0.984 . S
H4985 N4972 0.985 . S
C4986 C4987 1.363 . S
C4986 C4992 1.379 . S
C4986 N4994 1.356 . S
C4987 C4986 1.363 . S
C4987 C4993 1.363 . S
C4988 C4989 1.363 . S
C4988 C4993 1.379 . S
C4988 N4995 1.356 . S
C4989 C4988 1.363 . S
C4989 C4992 1.363 . S
N4990 C4992 1.356 . S
N4990 H5002 0.984 . S
N4990 H5003 0.985 . S
N4991 C4993 1.356 . S
N4991 H4996 0.984 . S
N4991 H4997 0.985 . S
C4992 C4986 1.379 . S
C4992 C4989 1.363 . S
C4992 N4990 1.356 . S
C4993 C4987 1.363 . S
C4993 C4988 1.379 . S
C4993 N4991 1.356 . S
N4994 C4986 1.356 . S
N4994 H5000 0.984 . S
N4994 H5001 0.984 . S
N4995 C4988 1.356 . S
N4995 H4998 0.984 . S
N4995 H4999 0.985 . S
H4996 N4991 0.984 . S
H4997 N4991 0.985 . S
H4998 N4995 0.984 . S
H4999 N4995 0.985 . S
H5000 N4994 0.984 . S
H5001 N4994 0.984 . S
H5002 N4990 0.984 . S
H5003 N4990 0.985 . S
C5004 C5005 1.363 . S
C5004 C5010 1.379 . S
C5004 N5012 1.356 . S
C5005 C5004 1.363 . S
C5005 C5011 1.363 . S
C5006 C5007 1.363 . S
C5006 C5011 1.379 . S
C5006 N5013 1.356 . S
C5007 C5006 1.363 . S
C5007 C5010 1.363 . S
N5008 C5010 1.356 . S
N5008 H5020 0.984 . S
N5008 H5021 0.985 . S
N5009 C5011 1.356 . S
N5009 H5014 0.984 . S
N5009 H5015 0.985 . S
C5010 C5004 1.379 . S
C5010 C5007 1.363 . S
C5010 N5008 1.356 . S
C5011 C5005 1.363 . S
C5011 C5006 1.379 . S
C5011 N5009 1.356 . S
N5012 C5004 1.356 . S
N5012 H5018 0.984 . S
N5012 H5019 0.984 . S
N5013 C5006 1.356 . S
N5013 H5016 0.984 . S
N5013 H5017 0.985 . S
H5014 N5009 0.984 . S
H5015 N5009 0.985 . S
H5016 N5013 0.984 . S
H5017 N5013 0.985 . S
H5018 N5012 0.984 . S
H5019 N5012 0.984 . S
H5020 N5008 0.984 . S
H5021 N5008 0.985 . S
C5022 C5023 1.363 . S
C5022 C5028 1.379 . S
C5022 N5030 1.356 . S
C5023 C5022 1.363 . S
C5023 C5029 1.363 . S
C5024 C5025 1.363 . S
C5024 C5029 1.379 . S
C5024 N5031 1.356 . S
C5025 C5024 1.363 . S
C5025 C5028 1.363 . S
N5026 C5028 1.356 . S
N5026 H5038 0.984 . S
N5026 H5039 0.985 . S
N5027 C5029 1.356 . S
N5027 H5032 0.984 . S
N5027 H5033 0.985 . S
C5028 C5022 1.379 . S
C5028 C5025 1.363 . S
C5028 N5026 1.356 . S
C5029 C5023 1.363 . S
C5029 C5024 1.379 . S
C5029 N5027 1.356 . S
N5030 C5022 1.356 . S
N5030 H5036 0.984 . S
N5030 H5037 0.984 . S
N5031 C5024 1.356 . S
N5031 H5034 0.984 . S
N5031 H5035 0.985 . S
H5032 N5027 0.984 . S
H5033 N5027 0.985 . S
H5034 N5031 0.984 . S
H5035 N5031 0.985 . S
H5036 N5030 0.984 . S
H5037 N5030 0.984 . S
H5038 N5026 0.984 . S
H5039 N5026 0.985 . S
C5040 C5041 1.363 . S
C5040 C5046 1.379 1_545 S
C5040 N5048 1.356 . S
C5041 C5040 1.363 . S
C5041 C5047 1.363 . S
C5042 C5043 1.329 1_545 S
C5042 C5047 1.414 . S
C5042 N5049 1.344 1_545 S
C5043 C5042 1.329 1_565 S
C5043 C5046 1.363 . S
N5044 C5046 1.356 . S
N5044 H5056 0.984 . S
N5044 H5057 0.985 . S
N5045 C5047 1.356 . S
N5045 H5050 0.984 . S
N5045 H5051 0.985 . S
C5046 C5040 1.379 1_565 S
C5046 C5043 1.363 . S
C5046 N5044 1.356 . S
C5047 C5041 1.363 . S
C5047 C5042 1.414 . S
C5047 N5045 1.356 . S
N5048 C5040 1.356 . S
N5048 H5054 0.974 1_545 S
N5048 H5055 0.984 . S
N5049 C5042 1.344 1_565 S
N5049 H5052 0.984 . S
N5049 H5053 0.985 1_565 S
H5050 N5045 0.984 . S
H5051 N5045 0.985 . S
H5052 N5049 0.984 . S
H5053 N5049 0.985 1_545 S
H5054 N5048 0.974 1_565 S
H5055 N5048 0.984 . S
H5056 N5044 0.984 . S
H5057 N5044 0.985 . S
C5058 C5059 1.363 . S
C5058 C5064 1.379 . S
C5058 N5066 1.356 . S
C5059 C5058 1.363 . S
C5059 C5065 1.363 . S
C5060 C5061 1.363 . S
C5060 C5065 1.379 . S
C5060 N5067 1.356 . S
C5061 C5060 1.363 . S
C5061 C5064 1.363 . S
N5062 C5064 1.356 . S
N5062 H5074 0.984 . S
N5062 H5075 0.985 . S
N5063 C5065 1.356 . S
N5063 H5068 0.984 . S
N5063 H5069 0.985 . S
C5064 C5058 1.379 . S
C5064 C5061 1.363 . S
C5064 N5062 1.356 . S
C5065 C5059 1.363 . S
C5065 C5060 1.379 . S
C5065 N5063 1.356 . S
N5066 C5058 1.356 . S
N5066 H5072 0.984 . S
N5066 H5073 0.984 . S
N5067 C5060 1.356 . S
N5067 H5070 0.984 . S
N5067 H5071 0.985 . S
H5068 N5063 0.984 . S
H5069 N5063 0.985 . S
H5070 N5067 0.984 . S
H5071 N5067 0.985 . S
H5072 N5066 0.984 . S
H5073 N5066 0.984 . S
H5074 N5062 0.984 . S
H5075 N5062 0.985 . S
C5076 C5077 1.363 . S
C5076 C5082 1.408 . S
C5076 N5084 1.356 . S
C5077 C5076 1.363 . S
C5077 C5083 1.363 . S
C5078 C5079 1.363 . S
C5078 C5083 1.379 1_545 S
C5078 N5085 1.356 . S
C5079 C5078 1.363 . S
C5079 C5082 1.334 1_545 S
N5080 C5082 1.346 1_545 S
N5080 H5092 0.984 1_545 S
N5080 H5093 0.985 . S
N5081 C5083 1.356 . S
N5081 H5086 0.984 . S
N5081 H5087 0.986 1_565 S
C5082 C5076 1.408 . S
C5082 C5079 1.334 1_565 S
C5082 N5080 1.346 1_565 S
C5083 C5077 1.363 . S
C5083 C5078 1.379 1_565 S
C5083 N5081 1.356 . S
N5084 C5076 1.356 . S
N5084 H5090 0.984 . S
N5084 H5091 0.984 . S
N5085 C5078 1.356 . S
N5085 H5088 0.984 . S
N5085 H5089 0.985 . S
H5086 N5081 0.984 . S
H5087 N5081 0.986 1_545 S
H5088 N5085 0.984 . S
H5089 N5085 0.985 . S
H5090 N5084 0.984 . S
H5091 N5084 0.984 . S
H5092 N5080 0.984 1_565 S
H5093 N5080 0.985 . S
C5094 C5095 1.363 . S
C5094 C5100 1.379 . S
C5094 N5102 1.356 . S
C5095 C5094 1.363 . S
C5095 C5101 1.363 . S
C5096 C5097 1.363 . S
C5096 C5101 1.379 . S
C5096 N5103 1.356 . S
C5097 C5096 1.363 . S
C5097 C5100 1.363 . S
N5098 C5100 1.356 . S
N5098 H5110 0.984 . S
N5098 H5111 0.985 . S
N5099 C5101 1.356 . S
N5099 H5104 0.984 . S
N5099 H5105 0.985 . S
C5100 C5094 1.379 . S
C5100 C5097 1.363 . S
C5100 N5098 1.356 . S
C5101 C5095 1.363 . S
C5101 C5096 1.379 . S
C5101 N5099 1.356 . S
N5102 C5094 1.356 . S
N5102 H5108 0.984 . S
N5102 H5109 0.984 . S
N5103 C5096 1.356 . S
N5103 H5106 0.984 . S
N5103 H5107 0.985 . S
H5104 N5099 0.984 . S
H5105 N5099 0.985 . S
H5106 N5103 0.984 . S
H5107 N5103 0.985 . S
H5108 N5102 0.984 . S
H5109 N5102 0.984 . S
H5110 N5098 0.984 . S
H5111 N5098 0.985 . S
C5112 C5113 1.363 . S
C5112 C5118 1.379 1_565 S
C5112 N5120 1.356 . S
C5113 C5112 1.363 . S
C5113 C5119 1.363 . S
C5114 C5115 1.361 . S
C5114 C5119 1.381 1_545 S
C5114 N5121 1.355 . S
C5115 C5114 1.361 . S
C5115 C5118 1.363 . S
N5116 C5118 1.356 . S
N5116 H5128 0.984 . S
N5116 H5129 0.985 . S
N5117 C5119 1.356 . S
N5117 H5122 0.984 . S
N5117 H5123 0.985 . S
C5118 C5112 1.379 1_545 S
C5118 C5115 1.363 . S
C5118 N5116 1.356 . S
C5119 C5113 1.363 . S
C5119 C5114 1.381 1_565 S
C5119 N5117 1.356 . S
N5120 C5112 1.356 . S
N5120 H5126 1.067 . S
N5120 H5127 0.984 . S
N5121 C5114 1.355 . S
N5121 H5124 0.984 . S
N5121 H5125 0.949 1_545 S
H5122 N5117 0.984 . S
H5123 N5117 0.985 . S
H5124 N5121 0.984 . S
H5125 N5121 0.949 1_565 S
H5126 N5120 1.067 . S
H5127 N5120 0.984 . S
H5128 N5116 0.984 . S
H5129 N5116 0.985 . S
C5130 C5131 1.363 . S
C5130 C5136 1.379 . S
C5130 N5138 1.356 . S
C5131 C5130 1.363 . S
C5131 C5137 1.363 . S
C5132 C5133 1.363 . S
C5132 C5137 1.379 . S
C5132 N5139 1.356 . S
C5133 C5132 1.363 . S
C5133 C5136 1.363 . S
N5134 C5136 1.356 . S
N5134 H5146 0.984 . S
N5134 H5147 0.985 . S
N5135 C5137 1.356 . S
N5135 H5140 0.984 . S
N5135 H5141 0.985 . S
C5136 C5130 1.379 . S
C5136 C5133 1.363 . S
C5136 N5134 1.356 . S
C5137 C5131 1.363 . S
C5137 C5132 1.379 . S
C5137 N5135 1.356 . S
N5138 C5130 1.356 . S
N5138 H5144 0.984 . S
N5138 H5145 0.984 . S
N5139 C5132 1.356 . S
N5139 H5142 0.984 . S
N5139 H5143 0.985 . S
H5140 N5135 0.984 . S
H5141 N5135 0.985 . S
H5142 N5139 0.984 . S
H5143 N5139 0.985 . S
H5144 N5138 0.984 . S
H5145 N5138 0.984 . S
H5146 N5134 0.984 . S
H5147 N5134 0.985 . S
C5148 C5149 1.363 . S
C5148 C5154 1.379 1_545 S
C5148 N5156 1.356 . S
C5149 C5148 1.363 . S
C5149 C5155 1.363 . S
C5150 C5151 1.363 . S
C5150 C5155 1.379 1_565 S
C5150 N5157 1.356 . S
C5151 C5150 1.363 . S
C5151 C5154 1.363 . S
N5152 C5154 1.356 . S
N5152 H5164 0.984 . S
N5152 H5165 0.985 . S
N5153 C5155 1.356 . S
N5153 H5158 0.984 . S
N5153 H5159 0.985 . S
C5154 C5148 1.379 1_565 S
C5154 C5151 1.363 . S
C5154 N5152 1.356 . S
C5155 C5149 1.363 . S
C5155 C5150 1.379 1_545 S
C5155 N5153 1.356 . S
N5156 C5148 1.356 . S
N5156 H5162 0.984 . S
N5156 H5163 0.984 . S
N5157 C5150 1.356 . S
N5157 H5160 0.984 . S
N5157 H5161 0.985 . S
H5158 N5153 0.984 . S
H5159 N5153 0.985 . S
H5160 N5157 0.984 . S
H5161 N5157 0.985 . S
H5162 N5156 0.984 . S
H5163 N5156 0.984 . S
H5164 N5152 0.984 . S
H5165 N5152 0.985 . S
C5166 C5167 1.363 . S
C5166 C5172 1.379 . S
C5166 N5174 1.356 . S
C5167 C5166 1.363 . S
C5167 C5173 1.363 . S
C5168 C5169 1.363 . S
C5168 C5173 1.379 . S
C5168 N5175 1.356 . S
C5169 C5168 1.363 . S
C5169 C5172 1.363 . S
N5170 C5172 1.356 . S
N5170 H5182 0.984 . S
N5170 H5183 0.985 . S
N5171 C5173 1.356 . S
N5171 H5176 0.984 . S
N5171 H5177 0.985 . S
C5172 C5166 1.379 . S
C5172 C5169 1.363 . S
C5172 N5170 1.356 . S
C5173 C5167 1.363 . S
C5173 C5168 1.379 . S
C5173 N5171 1.356 . S
N5174 C5166 1.356 . S
N5174 H5180 0.984 . S
N5174 H5181 0.984 . S
N5175 C5168 1.356 . S
N5175 H5178 0.984 . S
N5175 H5179 0.985 . S
H5176 N5171 0.984 . S
H5177 N5171 0.985 . S
H5178 N5175 0.984 . S
H5179 N5175 0.985 . S
H5180 N5174 0.984 . S
H5181 N5174 0.984 . S
H5182 N5170 0.984 . S
H5183 N5170 0.985 . S
C5184 C5185 1.363 . S
C5184 C5190 1.379 1_554 S
C5184 N5192 1.356 . S
C5185 C5184 1.363 . S
C5185 C5191 1.363 . S
C5186 C5187 1.363 . S
C5186 C5191 1.379 1_556 S
C5186 N5193 1.356 . S
C5187 C5186 1.363 . S
C5187 C5190 1.363 . S
N5188 C5190 1.356 . S
N5188 H5200 0.984 . S
N5188 H5201 0.985 . S
N5189 C5191 1.356 . S
N5189 H5194 0.984 . S
N5189 H5195 0.985 . S
C5190 C5184 1.379 1_556 S
C5190 C5187 1.363 . S
C5190 N5188 1.356 . S
C5191 C5185 1.363 . S
C5191 C5186 1.379 1_554 S
C5191 N5189 1.356 . S
N5192 C5184 1.356 . S
N5192 H5198 0.984 . S
N5192 H5199 0.984 . S
N5193 C5186 1.356 . S
N5193 H5196 0.984 . S
N5193 H5197 0.985 . S
H5194 N5189 0.984 . S
H5195 N5189 0.985 . S
H5196 N5193 0.984 . S
H5197 N5193 0.985 . S
H5198 N5192 0.984 . S
H5199 N5192 0.984 . S
H5200 N5188 0.984 . S
H5201 N5188 0.985 . S
C5202 C5203 1.363 . S
C5202 C5208 1.379 1_556 S
C5202 N5210 1.356 . S
C5203 C5202 1.363 . S
C5203 C5209 1.363 . S
C5204 C5205 1.363 . S
C5204 C5209 1.379 1_554 S
C5204 N5211 1.356 . S
C5205 C5204 1.363 . S
C5205 C5208 1.363 . S
N5206 C5208 1.356 . S
N5206 H5218 0.984 . S
N5206 H5219 0.985 . S
N5207 C5209 1.356 . S
N5207 H5212 0.984 . S
N5207 H5213 0.985 . S
C5208 C5202 1.379 1_554 S
C5208 C5205 1.363 . S
C5208 N5206 1.356 . S
C5209 C5203 1.363 . S
C5209 C5204 1.379 1_556 S
C5209 N5207 1.356 . S
N5210 C5202 1.356 . S
N5210 H5216 0.984 . S
N5210 H5217 0.984 . S
N5211 C5204 1.356 . S
N5211 H5214 0.984 . S
N5211 H5215 0.985 . S
H5212 N5207 0.984 . S
H5213 N5207 0.985 . S
H5214 N5211 0.984 . S
H5215 N5211 0.985 . S
H5216 N5210 0.984 . S
H5217 N5210 0.984 . S
H5218 N5206 0.984 . S
H5219 N5206 0.985 . S
C5220 C5221 1.363 . S
C5220 C5226 1.379 . S
C5220 N5228 1.356 . S
C5221 C5220 1.363 . S
C5221 C5227 1.363 . S
C5222 C5223 1.363 . S
C5222 C5227 1.379 . S
C5222 N5229 1.356 . S
C5223 C5222 1.363 . S
C5223 C5226 1.363 . S
N5224 C5226 1.356 . S
N5224 H5236 0.984 . S
N5224 H5237 0.985 . S
N5225 C5227 1.356 . S
N5225 H5230 0.984 . S
N5225 H5231 0.985 . S
C5226 C5220 1.379 . S
C5226 C5223 1.363 . S
C5226 N5224 1.356 . S
C5227 C5221 1.363 . S
C5227 C5222 1.379 . S
C5227 N5225 1.356 . S
N5228 C5220 1.356 . S
N5228 H5234 0.984 . S
N5228 H5235 0.984 . S
N5229 C5222 1.356 . S
N5229 H5232 0.984 . S
N5229 H5233 0.985 . S
H5230 N5225 0.984 . S
H5231 N5225 0.985 . S
H5232 N5229 0.984 . S
H5233 N5229 0.985 . S
H5234 N5228 0.984 . S
H5235 N5228 0.984 . S
H5236 N5224 0.984 . S
H5237 N5224 0.985 . S
C5238 C5239 1.363 . S
C5238 C5244 1.379 . S
C5238 N5246 1.356 . S
C5239 C5238 1.363 . S
C5239 C5245 1.363 . S
C5240 C5241 1.363 . S
C5240 C5245 1.379 . S
C5240 N5247 1.356 . S
C5241 C5240 1.363 . S
C5241 C5244 1.363 . S
N5242 C5244 1.356 . S
N5242 H5254 0.984 . S
N5242 H5255 0.985 . S
N5243 C5245 1.356 . S
N5243 H5248 0.984 . S
N5243 H5249 0.985 . S
C5244 C5238 1.379 . S
C5244 C5241 1.363 . S
C5244 N5242 1.356 . S
C5245 C5239 1.363 . S
C5245 C5240 1.379 . S
C5245 N5243 1.356 . S
N5246 C5238 1.356 . S
N5246 H5252 0.984 . S
N5246 H5253 0.984 . S
N5247 C5240 1.356 . S
N5247 H5250 0.984 . S
N5247 H5251 0.985 . S
H5248 N5243 0.984 . S
H5249 N5243 0.985 . S
H5250 N5247 0.984 . S
H5251 N5247 0.985 . S
H5252 N5246 0.984 . S
H5253 N5246 0.984 . S
H5254 N5242 0.984 . S
H5255 N5242 0.985 . S
C5256 C5257 1.363 . S
C5256 C5262 1.379 . S
C5256 N5264 1.356 . S
C5257 C5256 1.363 . S
C5257 C5263 1.363 . S
C5258 C5259 1.363 . S
C5258 C5263 1.379 . S
C5258 N5265 1.356 . S
C5259 C5258 1.363 . S
C5259 C5262 1.363 . S
N5260 C5262 1.356 . S
N5260 H5272 0.984 . S
N5260 H5273 0.985 . S
N5261 C5263 1.356 . S
N5261 H5266 0.984 . S
N5261 H5267 0.985 . S
C5262 C5256 1.379 . S
C5262 C5259 1.363 . S
C5262 N5260 1.356 . S
C5263 C5257 1.363 . S
C5263 C5258 1.379 . S
C5263 N5261 1.356 . S
N5264 C5256 1.356 . S
N5264 H5270 0.984 . S
N5264 H5271 0.984 . S
N5265 C5258 1.356 . S
N5265 H5268 0.984 . S
N5265 H5269 0.985 . S
H5266 N5261 0.984 . S
H5267 N5261 0.985 . S
H5268 N5265 0.984 . S
H5269 N5265 0.985 . S
H5270 N5264 0.984 . S
H5271 N5264 0.984 . S
H5272 N5260 0.984 . S
H5273 N5260 0.985 . S
C5274 C5275 1.363 . S
C5274 C5280 1.379 . S
C5274 N5282 1.356 . S
C5275 C5274 1.363 . S
C5275 C5281 1.363 . S
C5276 C5277 1.363 . S
C5276 C5281 1.379 . S
C5276 N5283 1.356 . S
C5277 C5276 1.363 . S
C5277 C5280 1.363 . S
N5278 C5280 1.356 . S
N5278 H5290 0.984 . S
N5278 H5291 0.985 . S
N5279 C5281 1.356 . S
N5279 H5284 0.984 . S
N5279 H5285 0.985 . S
C5280 C5274 1.379 . S
C5280 C5277 1.363 . S
C5280 N5278 1.356 . S
C5281 C5275 1.363 . S
C5281 C5276 1.379 . S
C5281 N5279 1.356 . S
N5282 C5274 1.356 . S
N5282 H5288 0.984 . S
N5282 H5289 0.984 . S
N5283 C5276 1.356 . S
N5283 H5286 0.984 . S
N5283 H5287 0.985 . S
H5284 N5279 0.984 . S
H5285 N5279 0.985 . S
H5286 N5283 0.984 . S
H5287 N5283 0.985 . S
H5288 N5282 0.984 . S
H5289 N5282 0.984 . S
H5290 N5278 0.984 . S
H5291 N5278 0.985 . S
C5292 C5293 1.363 . S
C5292 C5298 1.379 . S
C5292 N5300 1.356 . S
C5293 C5292 1.363 . S
C5293 C5299 1.363 . S
C5294 C5295 1.363 . S
C5294 C5299 1.379 . S
C5294 N5301 1.356 . S
C5295 C5294 1.363 . S
C5295 C5298 1.363 . S
N5296 C5298 1.356 . S
N5296 H5308 0.984 . S
N5296 H5309 0.985 . S
N5297 C5299 1.356 . S
N5297 H5302 0.984 . S
N5297 H5303 0.985 . S
C5298 C5292 1.379 . S
C5298 C5295 1.363 . S
C5298 N5296 1.356 . S
C5299 C5293 1.363 . S
C5299 C5294 1.379 . S
C5299 N5297 1.356 . S
N5300 C5292 1.356 . S
N5300 H5306 0.984 . S
N5300 H5307 0.984 . S
N5301 C5294 1.356 . S
N5301 H5304 0.984 . S
N5301 H5305 0.985 . S
H5302 N5297 0.984 . S
H5303 N5297 0.985 . S
H5304 N5301 0.984 . S
H5305 N5301 0.985 . S
H5306 N5300 0.984 . S
H5307 N5300 0.984 . S
H5308 N5296 0.984 . S
H5309 N5296 0.985 . S
C5310 C5311 1.363 . S
C5310 C5316 1.379 . S
C5310 N5318 1.356 . S
C5311 C5310 1.363 . S
C5311 C5317 1.363 . S
C5312 C5313 1.363 . S
C5312 C5317 1.379 . S
C5312 N5319 1.356 . S
C5313 C5312 1.363 . S
C5313 C5316 1.363 . S
N5314 C5316 1.356 . S
N5314 H5326 0.984 . S
N5314 H5327 0.985 . S
N5315 C5317 1.356 . S
N5315 H5320 0.984 . S
N5315 H5321 0.985 . S
C5316 C5310 1.379 . S
C5316 C5313 1.363 . S
C5316 N5314 1.356 . S
C5317 C5311 1.363 . S
C5317 C5312 1.379 . S
C5317 N5315 1.356 . S
N5318 C5310 1.356 . S
N5318 H5324 0.984 . S
N5318 H5325 0.984 . S
N5319 C5312 1.356 . S
N5319 H5322 0.984 . S
N5319 H5323 0.985 . S
H5320 N5315 0.984 . S
H5321 N5315 0.985 . S
H5322 N5319 0.984 . S
H5323 N5319 0.985 . S
H5324 N5318 0.984 . S
H5325 N5318 0.984 . S
H5326 N5314 0.984 . S
H5327 N5314 0.985 . S
C5328 C5329 1.363 . S
C5328 C5334 1.379 1_655 S
C5328 N5336 1.356 . S
C5329 C5328 1.363 . S
C5329 C5335 1.363 . S
C5330 C5331 1.363 . S
C5330 C5335 1.379 1_455 S
C5330 N5337 1.356 . S
C5331 C5330 1.363 . S
C5331 C5334 1.363 . S
N5332 C5334 1.356 . S
N5332 H5344 0.984 . S
N5332 H5345 0.985 . S
N5333 C5335 1.356 . S
N5333 H5338 0.984 . S
N5333 H5339 0.985 . S
C5334 C5328 1.379 1_455 S
C5334 C5331 1.363 . S
C5334 N5332 1.356 . S
C5335 C5329 1.363 . S
C5335 C5330 1.379 1_655 S
C5335 N5333 1.356 . S
N5336 C5328 1.356 . S
N5336 H5342 0.984 . S
N5336 H5343 0.984 . S
N5337 C5330 1.356 . S
N5337 H5340 0.984 . S
N5337 H5341 0.985 . S
H5338 N5333 0.984 . S
H5339 N5333 0.985 . S
H5340 N5337 0.984 . S
H5341 N5337 0.985 . S
H5342 N5336 0.984 . S
H5343 N5336 0.984 . S
H5344 N5332 0.984 . S
H5345 N5332 0.985 . S
C5346 C5347 1.363 . S
C5346 C5352 1.379 . S
C5346 N5354 1.356 . S
C5347 C5346 1.363 . S
C5347 C5353 1.363 . S
C5348 C5349 1.363 . S
C5348 C5353 1.379 . S
C5348 N5355 1.356 . S
C5349 C5348 1.363 . S
C5349 C5352 1.363 . S
N5350 C5352 1.356 . S
N5350 H5362 0.984 . S
N5350 H5363 0.985 . S
N5351 C5353 1.356 . S
N5351 H5356 0.984 . S
N5351 H5357 0.985 . S
C5352 C5346 1.379 . S
C5352 C5349 1.363 . S
C5352 N5350 1.356 . S
C5353 C5347 1.363 . S
C5353 C5348 1.379 . S
C5353 N5351 1.356 . S
N5354 C5346 1.356 . S
N5354 H5360 0.984 . S
N5354 H5361 0.984 . S
N5355 C5348 1.356 . S
N5355 H5358 0.984 . S
N5355 H5359 0.985 . S
H5356 N5351 0.984 . S
H5357 N5351 0.985 . S
H5358 N5355 0.984 . S
H5359 N5355 0.985 . S
H5360 N5354 0.984 . S
H5361 N5354 0.984 . S
H5362 N5350 0.984 . S
H5363 N5350 0.985 . S
C5364 C5365 1.363 . S
C5364 C5370 1.379 . S
C5364 N5372 1.356 . S
C5365 C5364 1.363 . S
C5365 C5371 1.363 . S
C5366 C5367 1.363 . S
C5366 C5371 1.379 . S
C5366 N5373 1.356 . S
C5367 C5366 1.363 . S
C5367 C5370 1.363 . S
N5368 C5370 1.356 . S
N5368 H5380 0.984 . S
N5368 H5381 0.985 . S
N5369 C5371 1.356 . S
N5369 H5374 0.984 . S
N5369 H5375 0.985 . S
C5370 C5364 1.379 . S
C5370 C5367 1.363 . S
C5370 N5368 1.356 . S
C5371 C5365 1.363 . S
C5371 C5366 1.379 . S
C5371 N5369 1.356 . S
N5372 C5364 1.356 . S
N5372 H5378 0.984 . S
N5372 H5379 0.984 . S
N5373 C5366 1.356 . S
N5373 H5376 0.984 . S
N5373 H5377 0.985 . S
H5374 N5369 0.984 . S
H5375 N5369 0.985 . S
H5376 N5373 0.984 . S
H5377 N5373 0.985 . S
H5378 N5372 0.984 . S
H5379 N5372 0.984 . S
H5380 N5368 0.984 . S
H5381 N5368 0.985 . S
C5382 C5383 1.363 . S
C5382 C5388 1.379 . S
C5382 N5390 1.356 . S
C5383 C5382 1.363 . S
C5383 C5389 1.363 . S
C5384 C5385 1.363 . S
C5384 C5389 1.379 . S
C5384 N5391 1.356 . S
C5385 C5384 1.363 . S
C5385 C5388 1.363 . S
N5386 C5388 1.356 . S
N5386 H5398 0.984 . S
N5386 H5399 0.985 . S
N5387 C5389 1.356 . S
N5387 H5392 0.984 . S
N5387 H5393 0.985 . S
C5388 C5382 1.379 . S
C5388 C5385 1.363 . S
C5388 N5386 1.356 . S
C5389 C5383 1.363 . S
C5389 C5384 1.379 . S
C5389 N5387 1.356 . S
N5390 C5382 1.356 . S
N5390 H5396 0.984 . S
N5390 H5397 0.984 . S
N5391 C5384 1.356 . S
N5391 H5394 0.984 . S
N5391 H5395 0.985 . S
H5392 N5387 0.984 . S
H5393 N5387 0.985 . S
H5394 N5391 0.984 . S
H5395 N5391 0.985 . S
H5396 N5390 0.984 . S
H5397 N5390 0.984 . S
H5398 N5386 0.984 . S
H5399 N5386 0.985 . S
C5400 C5401 1.363 . S
C5400 C5406 1.379 1_655 S
C5400 N5408 1.356 . S
C5401 C5400 1.363 . S
C5401 C5407 1.363 . S
C5402 C5403 1.363 . S
C5402 C5407 1.379 1_455 S
C5402 N5409 1.356 . S
C5403 C5402 1.363 . S
C5403 C5406 1.363 . S
N5404 C5406 1.356 . S
N5404 H5416 0.984 . S
N5404 H5417 0.985 . S
N5405 C5407 1.356 . S
N5405 H5410 0.984 . S
N5405 H5411 0.985 . S
C5406 C5400 1.379 1_455 S
C5406 C5403 1.363 . S
C5406 N5404 1.356 . S
C5407 C5401 1.363 . S
C5407 C5402 1.379 1_655 S
C5407 N5405 1.356 . S
N5408 C5400 1.356 . S
N5408 H5414 0.984 . S
N5408 H5415 0.984 . S
N5409 C5402 1.356 . S
N5409 H5412 0.984 . S
N5409 H5413 0.985 . S
H5410 N5405 0.984 . S
H5411 N5405 0.985 . S
H5412 N5409 0.984 . S
H5413 N5409 0.985 . S
H5414 N5408 0.984 . S
H5415 N5408 0.984 . S
H5416 N5404 0.984 . S
H5417 N5404 0.985 . S
C5418 C5419 1.363 . S
C5418 C5424 1.379 . S
C5418 N5426 1.356 . S
C5419 C5418 1.363 . S
C5419 C5425 1.363 . S
C5420 C5421 1.363 . S
C5420 C5425 1.379 . S
C5420 N5427 1.356 . S
C5421 C5420 1.363 . S
C5421 C5424 1.363 . S
N5422 C5424 1.356 . S
N5422 H5434 0.984 . S
N5422 H5435 0.985 . S
N5423 C5425 1.356 . S
N5423 H5428 0.984 . S
N5423 H5429 0.985 . S
C5424 C5418 1.379 . S
C5424 C5421 1.363 . S
C5424 N5422 1.356 . S
C5425 C5419 1.363 . S
C5425 C5420 1.379 . S
C5425 N5423 1.356 . S
N5426 C5418 1.356 . S
N5426 H5432 0.984 . S
N5426 H5433 0.984 . S
N5427 C5420 1.356 . S
N5427 H5430 0.984 . S
N5427 H5431 0.985 . S
H5428 N5423 0.984 . S
H5429 N5423 0.985 . S
H5430 N5427 0.984 . S
H5431 N5427 0.985 . S
H5432 N5426 0.984 . S
H5433 N5426 0.984 . S
H5434 N5422 0.984 . S
H5435 N5422 0.985 . S
C5436 C5437 1.363 . S
C5436 C5442 1.379 . S
C5436 N5444 1.356 . S
C5437 C5436 1.363 . S
C5437 C5443 1.363 . S
C5438 C5439 1.363 . S
C5438 C5443 1.379 . S
C5438 N5445 1.356 . S
C5439 C5438 1.363 . S
C5439 C5442 1.363 . S
N5440 C5442 1.356 . S
N5440 H5452 0.984 . S
N5440 H5453 0.985 . S
N5441 C5443 1.356 . S
N5441 H5446 0.984 . S
N5441 H5447 0.985 . S
C5442 C5436 1.379 . S
C5442 C5439 1.363 . S
C5442 N5440 1.356 . S
C5443 C5437 1.363 . S
C5443 C5438 1.379 . S
C5443 N5441 1.356 . S
N5444 C5436 1.356 . S
N5444 H5450 0.984 . S
N5444 H5451 0.984 . S
N5445 C5438 1.356 . S
N5445 H5448 0.984 . S
N5445 H5449 0.985 . S
H5446 N5441 0.984 . S
H5447 N5441 0.985 . S
H5448 N5445 0.984 . S
H5449 N5445 0.985 . S
H5450 N5444 0.984 . S
H5451 N5444 0.984 . S
H5452 N5440 0.984 . S
H5453 N5440 0.985 . S
C5454 C5455 1.363 . S
C5454 C5460 1.379 . S
C5454 N5462 1.356 . S
C5455 C5454 1.363 . S
C5455 C5461 1.363 . S
C5456 C5457 1.363 . S
C5456 C5461 1.379 . S
C5456 N5463 1.356 . S
C5457 C5456 1.363 . S
C5457 C5460 1.363 . S
N5458 C5460 1.356 . S
N5458 H5470 0.984 . S
N5458 H5471 0.985 . S
N5459 C5461 1.356 . S
N5459 H5464 0.984 . S
N5459 H5465 0.985 . S
C5460 C5454 1.379 . S
C5460 C5457 1.363 . S
C5460 N5458 1.356 . S
C5461 C5455 1.363 . S
C5461 C5456 1.379 . S
C5461 N5459 1.356 . S
N5462 C5454 1.356 . S
N5462 H5468 0.984 . S
N5462 H5469 0.984 . S
N5463 C5456 1.356 . S
N5463 H5466 0.984 . S
N5463 H5467 0.985 . S
H5464 N5459 0.984 . S
H5465 N5459 0.985 . S
H5466 N5463 0.984 . S
H5467 N5463 0.985 . S
H5468 N5462 0.984 . S
H5469 N5462 0.984 . S
H5470 N5458 0.984 . S
H5471 N5458 0.985 . S
C5472 C5473 1.363 . S
C5472 C5478 1.379 1_565 S
C5472 N5480 1.356 . S
C5473 C5472 1.363 . S
C5473 C5479 1.363 . S
C5474 C5475 1.363 . S
C5474 C5479 1.379 1_545 S
C5474 N5481 1.356 . S
C5475 C5474 1.363 . S
C5475 C5478 1.363 . S
N5476 C5478 1.356 . S
N5476 H5488 0.984 . S
N5476 H5489 0.985 . S
N5477 C5479 1.356 . S
N5477 H5482 0.984 . S
N5477 H5483 0.985 . S
C5478 C5472 1.379 1_545 S
C5478 C5475 1.363 . S
C5478 N5476 1.356 . S
C5479 C5473 1.363 . S
C5479 C5474 1.379 1_565 S
C5479 N5477 1.356 . S
N5480 C5472 1.356 . S
N5480 H5486 0.984 . S
N5480 H5487 0.984 . S
N5481 C5474 1.356 . S
N5481 H5484 0.984 . S
N5481 H5485 0.985 . S
H5482 N5477 0.984 . S
H5483 N5477 0.985 . S
H5484 N5481 0.984 . S
H5485 N5481 0.985 . S
H5486 N5480 0.984 . S
H5487 N5480 0.984 . S
H5488 N5476 0.984 . S
H5489 N5476 0.985 . S
C5490 C5491 1.363 . S
C5490 C5496 1.379 . S
C5490 N5498 1.356 . S
C5491 C5490 1.363 . S
C5491 C5497 1.363 . S
C5492 C5493 1.363 . S
C5492 C5497 1.379 . S
C5492 N5499 1.356 . S
C5493 C5492 1.363 . S
C5493 C5496 1.363 . S
N5494 C5496 1.356 . S
N5494 H5506 0.984 . S
N5494 H5507 0.985 . S
N5495 C5497 1.356 . S
N5495 H5500 0.984 . S
N5495 H5501 0.985 . S
C5496 C5490 1.379 . S
C5496 C5493 1.363 . S
C5496 N5494 1.356 . S
C5497 C5491 1.363 . S
C5497 C5492 1.379 . S
C5497 N5495 1.356 . S
N5498 C5490 1.356 . S
N5498 H5504 0.984 . S
N5498 H5505 0.984 . S
N5499 C5492 1.356 . S
N5499 H5502 0.984 . S
N5499 H5503 0.985 . S
H5500 N5495 0.984 . S
H5501 N5495 0.985 . S
H5502 N5499 0.984 . S
H5503 N5499 0.985 . S
H5504 N5498 0.984 . S
H5505 N5498 0.984 . S
H5506 N5494 0.984 . S
H5507 N5494 0.985 . S
C5508 C5509 1.363 . S
C5508 C5514 1.379 1_545 S
C5508 N5516 1.356 . S
C5509 C5508 1.363 . S
C5509 C5515 1.363 . S
C5510 C5511 1.363 . S
C5510 C5515 1.379 1_565 S
C5510 N5517 1.356 . S
C5511 C5510 1.363 . S
C5511 C5514 1.363 . S
N5512 C5514 1.356 . S
N5512 H5524 0.984 . S
N5512 H5525 0.985 . S
N5513 C5515 1.356 . S
N5513 H5518 0.984 . S
N5513 H5519 0.985 . S
C5514 C5508 1.379 1_565 S
C5514 C5511 1.363 . S
C5514 N5512 1.356 . S
C5515 C5509 1.363 . S
C5515 C5510 1.379 1_545 S
C5515 N5513 1.356 . S
N5516 C5508 1.356 . S
N5516 H5522 0.984 . S
N5516 H5523 0.984 . S
N5517 C5510 1.356 . S
N5517 H5520 0.984 . S
N5517 H5521 0.985 . S
H5518 N5513 0.984 . S
H5519 N5513 0.985 . S
H5520 N5517 0.984 . S
H5521 N5517 0.985 . S
H5522 N5516 0.984 . S
H5523 N5516 0.984 . S
H5524 N5512 0.984 . S
H5525 N5512 0.985 . S
C5526 C5527 1.363 . S
C5526 C5532 1.379 . S
C5526 N5534 1.356 . S
C5527 C5526 1.363 . S
C5527 C5533 1.363 . S
C5528 C5529 1.363 . S
C5528 C5533 1.379 . S
C5528 N5535 1.356 . S
C5529 C5528 1.363 . S
C5529 C5532 1.363 . S
N5530 C5532 1.356 . S
N5530 H5542 0.984 . S
N5530 H5543 0.985 . S
N5531 C5533 1.356 . S
N5531 H5536 0.984 . S
N5531 H5537 0.985 . S
C5532 C5526 1.379 . S
C5532 C5529 1.363 . S
C5532 N5530 1.356 . S
C5533 C5527 1.363 . S
C5533 C5528 1.379 . S
C5533 N5531 1.356 . S
N5534 C5526 1.356 . S
N5534 H5540 0.984 . S
N5534 H5541 0.984 . S
N5535 C5528 1.356 . S
N5535 H5538 0.984 . S
N5535 H5539 0.985 . S
H5536 N5531 0.984 . S
H5537 N5531 0.985 . S
H5538 N5535 0.984 . S
H5539 N5535 0.985 . S
H5540 N5534 0.984 . S
H5541 N5534 0.984 . S
H5542 N5530 0.984 . S
H5543 N5530 0.985 . S
C5544 C5545 1.363 . S
C5544 C5550 1.379 1_545 S
C5544 N5552 1.356 . S
C5545 C5544 1.363 . S
C5545 C5551 1.363 . S
C5546 C5547 1.343 1_545 S
C5546 C5551 1.400 . S
C5546 N5553 1.348 1_545 S
C5547 C5546 1.343 1_565 S
C5547 C5550 1.363 . S
N5548 C5550 1.356 . S
N5548 H5560 0.984 . S
N5548 H5561 0.985 . S
N5549 C5551 1.356 . S
N5549 H5554 0.984 . S
N5549 H5555 0.985 . S
C5550 C5544 1.379 1_565 S
C5550 C5547 1.363 . S
C5550 N5548 1.356 . S
C5551 C5545 1.363 . S
C5551 C5546 1.400 . S
C5551 N5549 1.356 . S
N5552 C5544 1.356 . S
N5552 H5558 0.982 . S
N5552 H5559 0.984 . S
N5553 C5546 1.348 1_565 S
N5553 H5556 0.984 . S
N5553 H5557 0.985 1_565 S
H5554 N5549 0.984 . S
H5555 N5549 0.985 . S
H5556 N5553 0.984 . S
H5557 N5553 0.985 1_545 S
H5558 N5552 0.982 . S
H5559 N5552 0.984 . S
H5560 N5548 0.984 . S
H5561 N5548 0.985 . S
C5562 C5563 1.363 . S
C5562 C5568 1.379 . S
C5562 N5570 1.356 . S
C5563 C5562 1.363 . S
C5563 C5569 1.363 . S
C5564 C5565 1.363 . S
C5564 C5569 1.379 . S
C5564 N5571 1.356 . S
C5565 C5564 1.363 . S
C5565 C5568 1.363 . S
N5566 C5568 1.356 . S
N5566 H5578 0.984 . S
N5566 H5579 0.985 . S
N5567 C5569 1.356 . S
N5567 H5572 0.984 . S
N5567 H5573 0.985 . S
C5568 C5562 1.379 . S
C5568 C5565 1.363 . S
C5568 N5566 1.356 . S
C5569 C5563 1.363 . S
C5569 C5564 1.379 . S
C5569 N5567 1.356 . S
N5570 C5562 1.356 . S
N5570 H5576 0.984 . S
N5570 H5577 0.984 . S
N5571 C5564 1.356 . S
N5571 H5574 0.984 . S
N5571 H5575 0.985 . S
H5572 N5567 0.984 . S
H5573 N5567 0.985 . S
H5574 N5571 0.984 . S
H5575 N5571 0.985 . S
H5576 N5570 0.984 . S
H5577 N5570 0.984 . S
H5578 N5566 0.984 . S
H5579 N5566 0.985 . S
C5580 C5581 1.363 . S
C5580 C5586 1.379 1_565 S
C5580 N5588 1.356 . S
C5581 C5580 1.363 . S
C5581 C5587 1.363 . S
C5582 C5583 1.363 . S
C5582 C5587 1.379 1_545 S
C5582 N5589 1.356 . S
C5583 C5582 1.363 . S
C5583 C5586 1.363 . S
N5584 C5586 1.356 . S
N5584 H5596 0.984 . S
N5584 H5597 0.985 . S
N5585 C5587 1.356 . S
N5585 H5590 0.984 . S
N5585 H5591 0.985 . S
C5586 C5580 1.379 1_545 S
C5586 C5583 1.363 . S
C5586 N5584 1.356 . S
C5587 C5581 1.363 . S
C5587 C5582 1.379 1_565 S
C5587 N5585 1.356 . S
N5588 C5580 1.356 . S
N5588 H5594 0.984 . S
N5588 H5595 0.984 . S
N5589 C5582 1.356 . S
N5589 H5592 0.984 . S
N5589 H5593 0.985 . S
H5590 N5585 0.984 . S
H5591 N5585 0.985 . S
H5592 N5589 0.984 . S
H5593 N5589 0.985 . S
H5594 N5588 0.984 . S
H5595 N5588 0.984 . S
H5596 N5584 0.984 . S
H5597 N5584 0.985 . S
C5598 C5599 1.363 . S
C5598 C5604 1.379 . S
C5598 N5606 1.356 . S
C5599 C5598 1.363 . S
C5599 C5605 1.363 . S
C5600 C5601 1.363 . S
C5600 C5605 1.379 . S
C5600 N5607 1.356 . S
C5601 C5600 1.363 . S
C5601 C5604 1.363 . S
N5602 C5604 1.356 . S
N5602 H5614 0.984 . S
N5602 H5615 0.985 . S
N5603 C5605 1.356 . S
N5603 H5608 0.984 . S
N5603 H5609 0.985 . S
C5604 C5598 1.379 . S
C5604 C5601 1.363 . S
C5604 N5602 1.356 . S
C5605 C5599 1.363 . S
C5605 C5600 1.379 . S
C5605 N5603 1.356 . S
N5606 C5598 1.356 . S
N5606 H5612 0.984 . S
N5606 H5613 0.984 . S
N5607 C5600 1.356 . S
N5607 H5610 0.984 . S
N5607 H5611 0.985 . S
H5608 N5603 0.984 . S
H5609 N5603 0.985 . S
H5610 N5607 0.984 . S
H5611 N5607 0.985 . S
H5612 N5606 0.984 . S
H5613 N5606 0.984 . S
H5614 N5602 0.984 . S
H5615 N5602 0.985 . S
C5616 C5617 1.363 . S
C5616 C5622 1.379 1_556 S
C5616 N5624 1.356 . S
C5617 C5616 1.363 . S
C5617 C5623 1.363 . S
C5618 C5619 1.322 1_556 S
C5618 C5623 1.421 . S
C5618 N5625 1.342 1_556 S
C5619 C5618 1.322 1_554 S
C5619 C5622 1.363 . S
N5620 C5622 1.356 . S
N5620 H5632 0.984 . S
N5620 H5633 0.985 . S
N5621 C5623 1.356 . S
N5621 H5626 0.984 . S
N5621 H5627 0.985 . S
C5622 C5616 1.379 1_554 S
C5622 C5619 1.363 . S
C5622 N5620 1.356 . S
C5623 C5617 1.363 . S
C5623 C5618 1.421 . S
C5623 N5621 1.356 . S
N5624 C5616 1.356 . S
N5624 H5630 0.961 1_556 S
N5624 H5631 0.984 . S
N5625 C5618 1.342 1_554 S
N5625 H5628 0.984 . S
N5625 H5629 0.985 1_554 S
H5626 N5621 0.984 . S
H5627 N5621 0.985 . S
H5628 N5625 0.984 . S
H5629 N5625 0.985 1_556 S
H5630 N5624 0.961 1_554 S
H5631 N5624 0.984 . S
H5632 N5620 0.984 . S
H5633 N5620 0.985 . S
C5634 C5635 1.363 . S
C5634 C5640 1.409 . S
C5634 N5642 1.356 . S
C5635 C5634 1.363 . S
C5635 C5641 1.363 . S
C5636 C5637 1.363 . S
C5636 C5641 1.379 1_556 S
C5636 N5643 1.356 . S
C5637 C5636 1.363 . S
C5637 C5640 1.334 1_556 S
N5638 C5640 1.345 1_556 S
N5638 H5650 0.984 1_556 S
N5638 H5651 0.985 . S
N5639 C5641 1.356 . S
N5639 H5644 0.984 . S
N5639 H5645 0.984 1_554 S
C5640 C5634 1.409 . S
C5640 C5637 1.334 1_554 S
C5640 N5638 1.345 1_554 S
C5641 C5635 1.363 . S
C5641 C5636 1.379 1_554 S
C5641 N5639 1.356 . S
N5642 C5634 1.356 . S
N5642 H5648 0.984 . S
N5642 H5649 0.984 . S
N5643 C5636 1.356 . S
N5643 H5646 0.984 . S
N5643 H5647 0.985 . S
H5644 N5639 0.984 . S
H5645 N5639 0.984 1_556 S
H5646 N5643 0.984 . S
H5647 N5643 0.985 . S
H5648 N5642 0.984 . S
H5649 N5642 0.984 . S
H5650 N5638 0.984 1_554 S
H5651 N5638 0.985 . S
C5652 C5653 1.363 . S
C5652 C5658 1.379 . S
C5652 N5660 1.356 . S
C5653 C5652 1.363 . S
C5653 C5659 1.363 . S
C5654 C5655 1.363 . S
C5654 C5659 1.379 . S
C5654 N5661 1.356 . S
C5655 C5654 1.363 . S
C5655 C5658 1.363 . S
N5656 C5658 1.356 . S
N5656 H5668 0.984 . S
N5656 H5669 0.985 . S
N5657 C5659 1.356 . S
N5657 H5662 0.984 . S
N5657 H5663 0.985 . S
C5658 C5652 1.379 . S
C5658 C5655 1.363 . S
C5658 N5656 1.356 . S
C5659 C5653 1.363 . S
C5659 C5654 1.379 . S
C5659 N5657 1.356 . S
N5660 C5652 1.356 . S
N5660 H5666 0.984 . S
N5660 H5667 0.984 . S
N5661 C5654 1.356 . S
N5661 H5664 0.984 . S
N5661 H5665 0.985 . S
H5662 N5657 0.984 . S
H5663 N5657 0.985 . S
H5664 N5661 0.984 . S
H5665 N5661 0.985 . S
H5666 N5660 0.984 . S
H5667 N5660 0.984 . S
H5668 N5656 0.984 . S
H5669 N5656 0.985 . S
C5670 C5671 1.363 . S
C5670 C5676 1.379 . S
C5670 N5678 1.356 . S
C5671 C5670 1.363 . S
C5671 C5677 1.363 . S
C5672 C5673 1.363 . S
C5672 C5677 1.379 . S
C5672 N5679 1.356 . S
C5673 C5672 1.363 . S
C5673 C5676 1.363 . S
N5674 C5676 1.356 . S
N5674 H5686 0.984 . S
N5674 H5687 0.985 . S
N5675 C5677 1.356 . S
N5675 H5680 0.984 . S
N5675 H5681 0.985 . S
C5676 C5670 1.379 . S
C5676 C5673 1.363 . S
C5676 N5674 1.356 . S
C5677 C5671 1.363 . S
C5677 C5672 1.379 . S
C5677 N5675 1.356 . S
N5678 C5670 1.356 . S
N5678 H5684 0.984 . S
N5678 H5685 0.984 . S
N5679 C5672 1.356 . S
N5679 H5682 0.984 . S
N5679 H5683 0.985 . S
H5680 N5675 0.984 . S
H5681 N5675 0.985 . S
H5682 N5679 0.984 . S
H5683 N5679 0.985 . S
H5684 N5678 0.984 . S
H5685 N5678 0.984 . S
H5686 N5674 0.984 . S
H5687 N5674 0.985 . S
C5688 C5689 1.363 . S
C5688 C5694 1.379 . S
C5688 N5696 1.356 . S
C5689 C5688 1.363 . S
C5689 C5695 1.363 . S
C5690 C5691 1.363 . S
C5690 C5695 1.379 . S
C5690 N5697 1.356 . S
C5691 C5690 1.363 . S
C5691 C5694 1.363 . S
N5692 C5694 1.356 . S
N5692 H5704 0.984 . S
N5692 H5705 0.985 . S
N5693 C5695 1.356 . S
N5693 H5698 0.984 . S
N5693 H5699 0.985 . S
C5694 C5688 1.379 . S
C5694 C5691 1.363 . S
C5694 N5692 1.356 . S
C5695 C5689 1.363 . S
C5695 C5690 1.379 . S
C5695 N5693 1.356 . S
N5696 C5688 1.356 . S
N5696 H5702 0.984 . S
N5696 H5703 0.984 . S
N5697 C5690 1.356 . S
N5697 H5700 0.984 . S
N5697 H5701 0.985 . S
H5698 N5693 0.984 . S
H5699 N5693 0.985 . S
H5700 N5697 0.984 . S
H5701 N5697 0.985 . S
H5702 N5696 0.984 . S
H5703 N5696 0.984 . S
H5704 N5692 0.984 . S
H5705 N5692 0.985 . S
C5706 C5707 1.363 . S
C5706 C5712 1.379 . S
C5706 N5714 1.356 . S
C5707 C5706 1.363 . S
C5707 C5713 1.363 . S
C5708 C5709 1.363 . S
C5708 C5713 1.379 . S
C5708 N5715 1.356 . S
C5709 C5708 1.363 . S
C5709 C5712 1.363 . S
N5710 C5712 1.356 . S
N5710 H5722 0.984 . S
N5710 H5723 0.985 . S
N5711 C5713 1.356 . S
N5711 H5716 0.984 . S
N5711 H5717 0.985 . S
C5712 C5706 1.379 . S
C5712 C5709 1.363 . S
C5712 N5710 1.356 . S
C5713 C5707 1.363 . S
C5713 C5708 1.379 . S
C5713 N5711 1.356 . S
N5714 C5706 1.356 . S
N5714 H5720 0.984 . S
N5714 H5721 0.984 . S
N5715 C5708 1.356 . S
N5715 H5718 0.984 . S
N5715 H5719 0.985 . S
H5716 N5711 0.984 . S
H5717 N5711 0.985 . S
H5718 N5715 0.984 . S
H5719 N5715 0.985 . S
H5720 N5714 0.984 . S
H5721 N5714 0.984 . S
H5722 N5710 0.984 . S
H5723 N5710 0.985 . S
C5724 C5725 1.363 . S
C5724 C5730 1.379 . S
C5724 N5732 1.356 . S
C5725 C5724 1.363 . S
C5725 C5731 1.363 . S
C5726 C5727 1.363 . S
C5726 C5731 1.379 . S
C5726 N5733 1.356 . S
C5727 C5726 1.363 . S
C5727 C5730 1.363 . S
N5728 C5730 1.356 . S
N5728 H5740 0.984 . S
N5728 H5741 0.985 . S
N5729 C5731 1.356 . S
N5729 H5734 0.984 . S
N5729 H5735 0.985 . S
C5730 C5724 1.379 . S
C5730 C5727 1.363 . S
C5730 N5728 1.356 . S
C5731 C5725 1.363 . S
C5731 C5726 1.379 . S
C5731 N5729 1.356 . S
N5732 C5724 1.356 . S
N5732 H5738 0.984 . S
N5732 H5739 0.984 . S
N5733 C5726 1.356 . S
N5733 H5736 0.984 . S
N5733 H5737 0.985 . S
H5734 N5729 0.984 . S
H5735 N5729 0.985 . S
H5736 N5733 0.984 . S
H5737 N5733 0.985 . S
H5738 N5732 0.984 . S
H5739 N5732 0.984 . S
H5740 N5728 0.984 . S
H5741 N5728 0.985 . S
C5742 C5743 1.363 . S
C5742 C5748 1.379 . S
C5742 N5750 1.356 . S
C5743 C5742 1.363 . S
C5743 C5749 1.363 . S
C5744 C5745 1.363 . S
C5744 C5749 1.379 . S
C5744 N5751 1.356 . S
C5745 C5744 1.363 . S
C5745 C5748 1.363 . S
N5746 C5748 1.356 . S
N5746 H5758 0.984 . S
N5746 H5759 0.985 . S
N5747 C5749 1.356 . S
N5747 H5752 0.984 . S
N5747 H5753 0.985 . S
C5748 C5742 1.379 . S
C5748 C5745 1.363 . S
C5748 N5746 1.356 . S
C5749 C5743 1.363 . S
C5749 C5744 1.379 . S
C5749 N5747 1.356 . S
N5750 C5742 1.356 . S
N5750 H5756 0.984 . S
N5750 H5757 0.984 . S
N5751 C5744 1.356 . S
N5751 H5754 0.984 . S
N5751 H5755 0.985 . S
H5752 N5747 0.984 . S
H5753 N5747 0.985 . S
H5754 N5751 0.984 . S
H5755 N5751 0.985 . S
H5756 N5750 0.984 . S
H5757 N5750 0.984 . S
H5758 N5746 0.984 . S
H5759 N5746 0.985 . S
C5760 C5761 1.363 . S
C5760 C5766 1.379 . S
C5760 N5768 1.356 . S
C5761 C5760 1.363 . S
C5761 C5767 1.363 . S
C5762 C5763 1.363 . S
C5762 C5767 1.379 . S
C5762 N5769 1.356 . S
C5763 C5762 1.363 . S
C5763 C5766 1.363 . S
N5764 C5766 1.356 . S
N5764 H5776 0.984 . S
N5764 H5777 0.985 . S
N5765 C5767 1.356 . S
N5765 H5770 0.984 . S
N5765 H5771 0.985 . S
C5766 C5760 1.379 . S
C5766 C5763 1.363 . S
C5766 N5764 1.356 . S
C5767 C5761 1.363 . S
C5767 C5762 1.379 . S
C5767 N5765 1.356 . S
N5768 C5760 1.356 . S
N5768 H5774 0.984 . S
N5768 H5775 0.984 . S
N5769 C5762 1.356 . S
N5769 H5772 0.984 . S
N5769 H5773 0.985 . S
H5770 N5765 0.984 . S
H5771 N5765 0.985 . S
H5772 N5769 0.984 . S
H5773 N5769 0.985 . S
H5774 N5768 0.984 . S
H5775 N5768 0.984 . S
H5776 N5764 0.984 . S
H5777 N5764 0.985 . S
C5778 C5779 1.363 . S
C5778 C5784 1.379 . S
C5778 N5786 1.356 . S
C5779 C5778 1.363 . S
C5779 C5785 1.363 . S
C5780 C5781 1.363 . S
C5780 C5785 1.379 . S
C5780 N5787 1.356 . S
C5781 C5780 1.363 . S
C5781 C5784 1.363 . S
N5782 C5784 1.356 . S
N5782 H5794 0.984 . S
N5782 H5795 0.985 . S
N5783 C5785 1.356 . S
N5783 H5788 0.984 . S
N5783 H5789 0.985 . S
C5784 C5778 1.379 . S
C5784 C5781 1.363 . S
C5784 N5782 1.356 . S
C5785 C5779 1.363 . S
C5785 C5780 1.379 . S
C5785 N5783 1.356 . S
N5786 C5778 1.356 . S
N5786 H5792 0.984 . S
N5786 H5793 0.984 . S
N5787 C5780 1.356 . S
N5787 H5790 0.984 . S
N5787 H5791 0.985 . S
H5788 N5783 0.984 . S
H5789 N5783 0.985 . S
H5790 N5787 0.984 . S
H5791 N5787 0.985 . S
H5792 N5786 0.984 . S
H5793 N5786 0.984 . S
H5794 N5782 0.984 . S
H5795 N5782 0.985 . S
C5796 C5797 1.363 . S
C5796 C5802 1.420 . S
C5796 N5804 1.356 . S
C5797 C5796 1.363 . S
C5797 C5803 1.363 . S
C5798 C5799 1.363 . S
C5798 C5803 1.379 1_455 S
C5798 N5805 1.356 . S
C5799 C5798 1.363 . S
C5799 C5802 1.322 1_455 S
N5800 C5802 1.342 1_455 S
N5800 H5812 0.984 1_455 S
N5800 H5813 0.985 . S
N5801 C5803 1.356 . S
N5801 H5806 0.984 . S
N5801 H5807 0.962 1_655 S
C5802 C5796 1.420 . S
C5802 C5799 1.322 1_655 S
C5802 N5800 1.342 1_655 S
C5803 C5797 1.363 . S
C5803 C5798 1.379 1_655 S
C5803 N5801 1.356 . S
N5804 C5796 1.356 . S
N5804 H5810 0.984 . S
N5804 H5811 0.984 . S
N5805 C5798 1.356 . S
N5805 H5808 0.984 . S
N5805 H5809 0.985 . S
H5806 N5801 0.984 . S
H5807 N5801 0.962 1_455 S
H5808 N5805 0.984 . S
H5809 N5805 0.985 . S
H5810 N5804 0.984 . S
H5811 N5804 0.984 . S
H5812 N5800 0.984 1_655 S
H5813 N5800 0.985 . S
C5814 C5815 1.363 . S
C5814 C5820 1.379 . S
C5814 N5822 1.356 . S
C5815 C5814 1.363 . S
C5815 C5821 1.363 . S
C5816 C5817 1.363 . S
C5816 C5821 1.379 . S
C5816 N5823 1.356 . S
C5817 C5816 1.363 . S
C5817 C5820 1.363 . S
N5818 C5820 1.356 . S
N5818 H5830 0.984 . S
N5818 H5831 0.985 . S
N5819 C5821 1.356 . S
N5819 H5824 0.984 . S
N5819 H5825 0.985 . S
C5820 C5814 1.379 . S
C5820 C5817 1.363 . S
C5820 N5818 1.356 . S
C5821 C5815 1.363 . S
C5821 C5816 1.379 . S
C5821 N5819 1.356 . S
N5822 C5814 1.356 . S
N5822 H5828 0.984 . S
N5822 H5829 0.984 . S
N5823 C5816 1.356 . S
N5823 H5826 0.984 . S
N5823 H5827 0.985 . S
H5824 N5819 0.984 . S
H5825 N5819 0.985 . S
H5826 N5823 0.984 . S
H5827 N5823 0.985 . S
H5828 N5822 0.984 . S
H5829 N5822 0.984 . S
H5830 N5818 0.984 . S
H5831 N5818 0.985 . S
C5832 C5833 1.363 . S
C5832 C5838 1.379 . S
C5832 N5840 1.356 . S
C5833 C5832 1.363 . S
C5833 C5839 1.363 . S
C5834 C5835 1.363 . S
C5834 C5839 1.379 . S
C5834 N5841 1.356 . S
C5835 C5834 1.363 . S
C5835 C5838 1.363 . S
N5836 C5838 1.356 . S
N5836 H5848 0.984 . S
N5836 H5849 0.985 . S
N5837 C5839 1.356 . S
N5837 H5842 0.984 . S
N5837 H5843 0.985 . S
C5838 C5832 1.379 . S
C5838 C5835 1.363 . S
C5838 N5836 1.356 . S
C5839 C5833 1.363 . S
C5839 C5834 1.379 . S
C5839 N5837 1.356 . S
N5840 C5832 1.356 . S
N5840 H5846 0.984 . S
N5840 H5847 0.984 . S
N5841 C5834 1.356 . S
N5841 H5844 0.984 . S
N5841 H5845 0.985 . S
H5842 N5837 0.984 . S
H5843 N5837 0.985 . S
H5844 N5841 0.984 . S
H5845 N5841 0.985 . S
H5846 N5840 0.984 . S
H5847 N5840 0.984 . S
H5848 N5836 0.984 . S
H5849 N5836 0.985 . S
C5850 C5851 1.363 . S
C5850 C5856 1.379 . S
C5850 N5858 1.356 . S
C5851 C5850 1.363 . S
C5851 C5857 1.363 . S
C5852 C5853 1.363 . S
C5852 C5857 1.379 . S
C5852 N5859 1.356 . S
C5853 C5852 1.363 . S
C5853 C5856 1.363 . S
N5854 C5856 1.356 . S
N5854 H5866 0.984 . S
N5854 H5867 0.985 . S
N5855 C5857 1.356 . S
N5855 H5860 0.984 . S
N5855 H5861 0.985 . S
C5856 C5850 1.379 . S
C5856 C5853 1.363 . S
C5856 N5854 1.356 . S
C5857 C5851 1.363 . S
C5857 C5852 1.379 . S
C5857 N5855 1.356 . S
N5858 C5850 1.356 . S
N5858 H5864 0.984 . S
N5858 H5865 0.984 . S
N5859 C5852 1.356 . S
N5859 H5862 0.984 . S
N5859 H5863 0.985 . S
H5860 N5855 0.984 . S
H5861 N5855 0.985 . S
H5862 N5859 0.984 . S
H5863 N5859 0.985 . S
H5864 N5858 0.984 . S
H5865 N5858 0.984 . S
H5866 N5854 0.984 . S
H5867 N5854 0.985 . S
C5868 C5869 1.363 . S
C5868 C5874 1.379 1_655 S
C5868 N5876 1.356 . S
C5869 C5868 1.363 . S
C5869 C5875 1.363 . S
C5870 C5871 1.363 . S
C5870 C5875 1.379 1_455 S
C5870 N5877 1.356 . S
C5871 C5870 1.363 . S
C5871 C5874 1.363 . S
N5872 C5874 1.356 . S
N5872 H5884 0.984 . S
N5872 H5885 0.985 . S
N5873 C5875 1.356 . S
N5873 H5878 0.984 . S
N5873 H5879 0.985 . S
C5874 C5868 1.379 1_455 S
C5874 C5871 1.363 . S
C5874 N5872 1.356 . S
C5875 C5869 1.363 . S
C5875 C5870 1.379 1_655 S
C5875 N5873 1.356 . S
N5876 C5868 1.356 . S
N5876 H5882 0.984 . S
N5876 H5883 0.984 . S
N5877 C5870 1.356 . S
N5877 H5880 0.984 . S
N5877 H5881 0.985 . S
H5878 N5873 0.984 . S
H5879 N5873 0.985 . S
H5880 N5877 0.984 . S
H5881 N5877 0.985 . S
H5882 N5876 0.984 . S
H5883 N5876 0.984 . S
H5884 N5872 0.984 . S
H5885 N5872 0.985 . S
C5886 C5887 1.363 . S
C5886 C5892 1.379 . S
C5886 N5894 1.356 . S
C5887 C5886 1.363 . S
C5887 C5893 1.363 . S
C5888 C5889 1.363 . S
C5888 C5893 1.379 . S
C5888 N5895 1.356 . S
C5889 C5888 1.363 . S
C5889 C5892 1.363 . S
N5890 C5892 1.356 . S
N5890 H5902 0.984 . S
N5890 H5903 0.985 . S
N5891 C5893 1.356 . S
N5891 H5896 0.984 . S
N5891 H5897 0.985 . S
C5892 C5886 1.379 . S
C5892 C5889 1.363 . S
C5892 N5890 1.356 . S
C5893 C5887 1.363 . S
C5893 C5888 1.379 . S
C5893 N5891 1.356 . S
N5894 C5886 1.356 . S
N5894 H5900 0.984 . S
N5894 H5901 0.984 . S
N5895 C5888 1.356 . S
N5895 H5898 0.984 . S
N5895 H5899 0.985 . S
H5896 N5891 0.984 . S
H5897 N5891 0.985 . S
H5898 N5895 0.984 . S
H5899 N5895 0.985 . S
H5900 N5894 0.984 . S
H5901 N5894 0.984 . S
H5902 N5890 0.984 . S
H5903 N5890 0.985 . S
C5904 C5905 1.363 . S
C5904 C5910 1.379 . S
C5904 N5912 1.356 . S
C5905 C5904 1.363 . S
C5905 C5911 1.363 . S
C5906 C5907 1.363 . S
C5906 C5911 1.379 . S
C5906 N5913 1.356 . S
C5907 C5906 1.363 . S
C5907 C5910 1.363 . S
N5908 C5910 1.356 . S
N5908 H5920 0.984 . S
N5908 H5921 0.985 . S
N5909 C5911 1.356 . S
N5909 H5914 0.984 . S
N5909 H5915 0.985 . S
C5910 C5904 1.379 . S
C5910 C5907 1.363 . S
C5910 N5908 1.356 . S
C5911 C5905 1.363 . S
C5911 C5906 1.379 . S
C5911 N5909 1.356 . S
N5912 C5904 1.356 . S
N5912 H5918 0.984 . S
N5912 H5919 0.984 . S
N5913 C5906 1.356 . S
N5913 H5916 0.984 . S
N5913 H5917 0.985 . S
H5914 N5909 0.984 . S
H5915 N5909 0.985 . S
H5916 N5913 0.984 . S
H5917 N5913 0.985 . S
H5918 N5912 0.984 . S
H5919 N5912 0.984 . S
H5920 N5908 0.984 . S
H5921 N5908 0.985 . S
C5922 C5923 1.363 . S
C5922 C5928 1.379 . S
C5922 N5930 1.356 . S
C5923 C5922 1.363 . S
C5923 C5929 1.363 . S
C5924 C5925 1.363 . S
C5924 C5929 1.379 . S
C5924 N5931 1.356 . S
C5925 C5924 1.363 . S
C5925 C5928 1.363 . S
N5926 C5928 1.356 . S
N5926 H5938 0.984 . S
N5926 H5939 0.985 . S
N5927 C5929 1.356 . S
N5927 H5932 0.984 . S
N5927 H5933 0.985 . S
C5928 C5922 1.379 . S
C5928 C5925 1.363 . S
C5928 N5926 1.356 . S
C5929 C5923 1.363 . S
C5929 C5924 1.379 . S
C5929 N5927 1.356 . S
N5930 C5922 1.356 . S
N5930 H5936 0.984 . S
N5930 H5937 0.984 . S
N5931 C5924 1.356 . S
N5931 H5934 0.984 . S
N5931 H5935 0.985 . S
H5932 N5927 0.984 . S
H5933 N5927 0.985 . S
H5934 N5931 0.984 . S
H5935 N5931 0.985 . S
H5936 N5930 0.984 . S
H5937 N5930 0.984 . S
H5938 N5926 0.984 . S
H5939 N5926 0.985 . S
C5940 C5941 1.363 . S
C5940 C5946 1.379 . S
C5940 N5948 1.356 . S
C5941 C5940 1.363 . S
C5941 C5947 1.363 . S
C5942 C5943 1.363 . S
C5942 C5947 1.379 . S
C5942 N5949 1.356 . S
C5943 C5942 1.363 . S
C5943 C5946 1.363 . S
N5944 C5946 1.356 . S
N5944 H5956 0.984 . S
N5944 H5957 0.985 . S
N5945 C5947 1.356 . S
N5945 H5950 0.984 . S
N5945 H5951 0.985 . S
C5946 C5940 1.379 . S
C5946 C5943 1.363 . S
C5946 N5944 1.356 . S
C5947 C5941 1.363 . S
C5947 C5942 1.379 . S
C5947 N5945 1.356 . S
N5948 C5940 1.356 . S
N5948 H5954 0.984 . S
N5948 H5955 0.984 . S
N5949 C5942 1.356 . S
N5949 H5952 0.984 . S
N5949 H5953 0.985 . S
H5950 N5945 0.984 . S
H5951 N5945 0.985 . S
H5952 N5949 0.984 . S
H5953 N5949 0.985 . S
H5954 N5948 0.984 . S
H5955 N5948 0.984 . S
H5956 N5944 0.984 . S
H5957 N5944 0.985 . S
C5958 C5959 1.363 . S
C5958 C5964 1.379 . S
C5958 N5966 1.356 . S
C5959 C5958 1.363 . S
C5959 C5965 1.363 . S
C5960 C5961 1.363 . S
C5960 C5965 1.379 . S
C5960 N5967 1.356 . S
C5961 C5960 1.363 . S
C5961 C5964 1.363 . S
N5962 C5964 1.356 . S
N5962 H5974 0.984 . S
N5962 H5975 0.985 . S
N5963 C5965 1.356 . S
N5963 H5968 0.984 . S
N5963 H5969 0.985 . S
C5964 C5958 1.379 . S
C5964 C5961 1.363 . S
C5964 N5962 1.356 . S
C5965 C5959 1.363 . S
C5965 C5960 1.379 . S
C5965 N5963 1.356 . S
N5966 C5958 1.356 . S
N5966 H5972 0.984 . S
N5966 H5973 0.984 . S
N5967 C5960 1.356 . S
N5967 H5970 0.984 . S
N5967 H5971 0.985 . S
H5968 N5963 0.984 . S
H5969 N5963 0.985 . S
H5970 N5967 0.984 . S
H5971 N5967 0.985 . S
H5972 N5966 0.984 . S
H5973 N5966 0.984 . S
H5974 N5962 0.984 . S
H5975 N5962 0.985 . S
C5976 C5977 1.363 . S
C5976 C5982 1.379 . S
C5976 N5984 1.356 . S
C5977 C5976 1.363 . S
C5977 C5983 1.363 . S
C5978 C5979 1.363 . S
C5978 C5983 1.379 . S
C5978 N5985 1.356 . S
C5979 C5978 1.363 . S
C5979 C5982 1.363 . S
N5980 C5982 1.356 . S
N5980 H5992 0.984 . S
N5980 H5993 0.985 . S
N5981 C5983 1.356 . S
N5981 H5986 0.984 . S
N5981 H5987 0.985 . S
C5982 C5976 1.379 . S
C5982 C5979 1.363 . S
C5982 N5980 1.356 . S
C5983 C5977 1.363 . S
C5983 C5978 1.379 . S
C5983 N5981 1.356 . S
N5984 C5976 1.356 . S
N5984 H5990 0.984 . S
N5984 H5991 0.984 . S
N5985 C5978 1.356 . S
N5985 H5988 0.984 . S
N5985 H5989 0.985 . S
H5986 N5981 0.984 . S
H5987 N5981 0.985 . S
H5988 N5985 0.984 . S
H5989 N5985 0.985 . S
H5990 N5984 0.984 . S
H5991 N5984 0.984 . S
H5992 N5980 0.984 . S
H5993 N5980 0.985 . S
C5994 C5995 1.363 . S
C5994 C6000 1.379 . S
C5994 N6002 1.356 . S
C5995 C5994 1.363 . S
C5995 C6001 1.363 . S
C5996 C5997 1.363 . S
C5996 C6001 1.379 . S
C5996 N6003 1.356 . S
C5997 C5996 1.363 . S
C5997 C6000 1.363 . S
N5998 C6000 1.356 . S
N5998 H6010 0.984 . S
N5998 H6011 0.985 . S
N5999 C6001 1.356 . S
N5999 H6004 0.984 . S
N5999 H6005 0.985 . S
C6000 C5994 1.379 . S
C6000 C5997 1.363 . S
C6000 N5998 1.356 . S
C6001 C5995 1.363 . S
C6001 C5996 1.379 . S
C6001 N5999 1.356 . S
N6002 C5994 1.356 . S
N6002 H6008 0.984 . S
N6002 H6009 0.984 . S
N6003 C5996 1.356 . S
N6003 H6006 0.984 . S
N6003 H6007 0.985 . S
H6004 N5999 0.984 . S
H6005 N5999 0.985 . S
H6006 N6003 0.984 . S
H6007 N6003 0.985 . S
H6008 N6002 0.984 . S
H6009 N6002 0.984 . S
H6010 N5998 0.984 . S
H6011 N5998 0.985 . S
C6012 C6013 1.363 . S
C6012 C6018 1.379 . S
C6012 N6020 1.356 . S
C6013 C6012 1.363 . S
C6013 C6019 1.363 . S
C6014 C6015 1.363 . S
C6014 C6019 1.379 . S
C6014 N6021 1.356 . S
C6015 C6014 1.363 . S
C6015 C6018 1.363 . S
N6016 C6018 1.356 . S
N6016 H6028 0.984 . S
N6016 H6029 0.985 . S
N6017 C6019 1.356 . S
N6017 H6022 0.984 . S
N6017 H6023 0.985 . S
C6018 C6012 1.379 . S
C6018 C6015 1.363 . S
C6018 N6016 1.356 . S
C6019 C6013 1.363 . S
C6019 C6014 1.379 . S
C6019 N6017 1.356 . S
N6020 C6012 1.356 . S
N6020 H6026 0.984 . S
N6020 H6027 0.984 . S
N6021 C6014 1.356 . S
N6021 H6024 0.984 . S
N6021 H6025 0.985 . S
H6022 N6017 0.984 . S
H6023 N6017 0.985 . S
H6024 N6021 0.984 . S
H6025 N6021 0.985 . S
H6026 N6020 0.984 . S
H6027 N6020 0.984 . S
H6028 N6016 0.984 . S
H6029 N6016 0.985 . S
C6030 C6031 1.363 . S
C6030 C6036 1.379 . S
C6030 N6038 1.356 . S
C6031 C6030 1.363 . S
C6031 C6037 1.363 . S
C6032 C6033 1.363 . S
C6032 C6037 1.379 . S
C6032 N6039 1.356 . S
C6033 C6032 1.363 . S
C6033 C6036 1.363 . S
N6034 C6036 1.356 . S
N6034 H6046 0.984 . S
N6034 H6047 0.985 . S
N6035 C6037 1.356 . S
N6035 H6040 0.984 . S
N6035 H6041 0.985 . S
C6036 C6030 1.379 . S
C6036 C6033 1.363 . S
C6036 N6034 1.356 . S
C6037 C6031 1.363 . S
C6037 C6032 1.379 . S
C6037 N6035 1.356 . S
N6038 C6030 1.356 . S
N6038 H6044 0.984 . S
N6038 H6045 0.984 . S
N6039 C6032 1.356 . S
N6039 H6042 0.984 . S
N6039 H6043 0.985 . S
H6040 N6035 0.984 . S
H6041 N6035 0.985 . S
H6042 N6039 0.984 . S
H6043 N6039 0.985 . S
H6044 N6038 0.984 . S
H6045 N6038 0.984 . S
H6046 N6034 0.984 . S
H6047 N6034 0.985 . S
C6048 C6049 1.363 . S
C6048 C6054 1.379 . S
C6048 N6056 1.356 . S
C6049 C6048 1.363 . S
C6049 C6055 1.363 . S
C6050 C6051 1.363 . S
C6050 C6055 1.379 . S
C6050 N6057 1.356 . S
C6051 C6050 1.363 . S
C6051 C6054 1.363 . S
N6052 C6054 1.356 . S
N6052 H6064 0.984 . S
N6052 H6065 0.985 . S
N6053 C6055 1.356 . S
N6053 H6058 0.984 . S
N6053 H6059 0.985 . S
C6054 C6048 1.379 . S
C6054 C6051 1.363 . S
C6054 N6052 1.356 . S
C6055 C6049 1.363 . S
C6055 C6050 1.379 . S
C6055 N6053 1.356 . S
N6056 C6048 1.356 . S
N6056 H6062 0.984 . S
N6056 H6063 0.984 . S
N6057 C6050 1.356 . S
N6057 H6060 0.984 . S
N6057 H6061 0.985 . S
H6058 N6053 0.984 . S
H6059 N6053 0.985 . S
H6060 N6057 0.984 . S
H6061 N6057 0.985 . S
H6062 N6056 0.984 . S
H6063 N6056 0.984 . S
H6064 N6052 0.984 . S
H6065 N6052 0.985 . S
C6066 C6067 1.363 . S
C6066 C6072 1.379 . S
C6066 N6074 1.356 . S
C6067 C6066 1.363 . S
C6067 C6073 1.363 . S
C6068 C6069 1.363 . S
C6068 C6073 1.379 . S
C6068 N6075 1.356 . S
C6069 C6068 1.363 . S
C6069 C6072 1.363 . S
N6070 C6072 1.356 . S
N6070 H6082 0.984 . S
N6070 H6083 0.985 . S
N6071 C6073 1.356 . S
N6071 H6076 0.984 . S
N6071 H6077 0.985 . S
C6072 C6066 1.379 . S
C6072 C6069 1.363 . S
C6072 N6070 1.356 . S
C6073 C6067 1.363 . S
C6073 C6068 1.379 . S
C6073 N6071 1.356 . S
N6074 C6066 1.356 . S
N6074 H6080 0.984 . S
N6074 H6081 0.984 . S
N6075 C6068 1.356 . S
N6075 H6078 0.984 . S
N6075 H6079 0.985 . S
H6076 N6071 0.984 . S
H6077 N6071 0.985 . S
H6078 N6075 0.984 . S
H6079 N6075 0.985 . S
H6080 N6074 0.984 . S
H6081 N6074 0.984 . S
H6082 N6070 0.984 . S
H6083 N6070 0.985 . S
C6084 C6085 1.363 . S
C6084 C6090 1.379 . S
C6084 N6092 1.356 . S
C6085 C6084 1.363 . S
C6085 C6091 1.363 . S
C6086 C6087 1.363 . S
C6086 C6091 1.379 . S
C6086 N6093 1.356 . S
C6087 C6086 1.363 . S
C6087 C6090 1.363 . S
N6088 C6090 1.356 . S
N6088 H6100 0.984 . S
N6088 H6101 0.985 . S
N6089 C6091 1.356 . S
N6089 H6094 0.984 . S
N6089 H6095 0.985 . S
C6090 C6084 1.379 . S
C6090 C6087 1.363 . S
C6090 N6088 1.356 . S
C6091 C6085 1.363 . S
C6091 C6086 1.379 . S
C6091 N6089 1.356 . S
N6092 C6084 1.356 . S
N6092 H6098 0.984 . S
N6092 H6099 0.984 . S
N6093 C6086 1.356 . S
N6093 H6096 0.984 . S
N6093 H6097 0.985 . S
H6094 N6089 0.984 . S
H6095 N6089 0.985 . S
H6096 N6093 0.984 . S
H6097 N6093 0.985 . S
H6098 N6092 0.984 . S
H6099 N6092 0.984 . S
H6100 N6088 0.984 . S
H6101 N6088 0.985 . S
C6102 C6103 1.363 . S
C6102 C6108 1.379 1_556 S
C6102 N6110 1.356 . S
C6103 C6102 1.363 . S
C6103 C6109 1.363 . S
C6104 C6105 1.363 . S
C6104 C6109 1.379 1_554 S
C6104 N6111 1.356 . S
C6105 C6104 1.363 . S
C6105 C6108 1.363 . S
N6106 C6108 1.356 . S
N6106 H6118 0.984 . S
N6106 H6119 0.985 . S
N6107 C6109 1.356 . S
N6107 H6112 0.984 . S
N6107 H6113 0.985 . S
C6108 C6102 1.379 1_554 S
C6108 C6105 1.363 . S
C6108 N6106 1.356 . S
C6109 C6103 1.363 . S
C6109 C6104 1.379 1_556 S
C6109 N6107 1.356 . S
N6110 C6102 1.356 . S
N6110 H6116 0.984 . S
N6110 H6117 0.984 . S
N6111 C6104 1.356 . S
N6111 H6114 0.984 . S
N6111 H6115 0.985 . S
H6112 N6107 0.984 . S
H6113 N6107 0.985 . S
H6114 N6111 0.984 . S
H6115 N6111 0.985 . S
H6116 N6110 0.984 . S
H6117 N6110 0.984 . S
H6118 N6106 0.984 . S
H6119 N6106 0.985 . S
C6120 C6121 1.363 . S
C6120 C6126 1.379 . S
C6120 N6128 1.356 . S
C6121 C6120 1.363 . S
C6121 C6127 1.363 . S
C6122 C6123 1.363 . S
C6122 C6127 1.379 . S
C6122 N6129 1.356 . S
C6123 C6122 1.363 . S
C6123 C6126 1.363 . S
N6124 C6126 1.356 . S
N6124 H6136 0.984 . S
N6124 H6137 0.985 . S
N6125 C6127 1.356 . S
N6125 H6130 0.984 . S
N6125 H6131 0.985 . S
C6126 C6120 1.379 . S
C6126 C6123 1.363 . S
C6126 N6124 1.356 . S
C6127 C6121 1.363 . S
C6127 C6122 1.379 . S
C6127 N6125 1.356 . S
N6128 C6120 1.356 . S
N6128 H6134 0.984 . S
N6128 H6135 0.984 . S
N6129 C6122 1.356 . S
N6129 H6132 0.984 . S
N6129 H6133 0.985 . S
H6130 N6125 0.984 . S
H6131 N6125 0.985 . S
H6132 N6129 0.984 . S
H6133 N6129 0.985 . S
H6134 N6128 0.984 . S
H6135 N6128 0.984 . S
H6136 N6124 0.984 . S
H6137 N6124 0.985 . S
C6138 C6139 1.363 . S
C6138 C6144 1.379 1_554 S
C6138 N6146 1.356 . S
C6139 C6138 1.363 . S
C6139 C6145 1.363 . S
C6140 C6141 1.363 . S
C6140 C6145 1.379 1_556 S
C6140 N6147 1.356 . S
C6141 C6140 1.363 . S
C6141 C6144 1.363 . S
N6142 C6144 1.356 . S
N6142 H6154 0.984 . S
N6142 H6155 0.985 . S
N6143 C6145 1.356 . S
N6143 H6148 0.984 . S
N6143 H6149 0.985 . S
C6144 C6138 1.379 1_556 S
C6144 C6141 1.363 . S
C6144 N6142 1.356 . S
C6145 C6139 1.363 . S
C6145 C6140 1.379 1_554 S
C6145 N6143 1.356 . S
N6146 C6138 1.356 . S
N6146 H6152 0.984 . S
N6146 H6153 0.984 . S
N6147 C6140 1.356 . S
N6147 H6150 0.984 . S
N6147 H6151 0.985 . S
H6148 N6143 0.984 . S
H6149 N6143 0.985 . S
H6150 N6147 0.984 . S
H6151 N6147 0.985 . S
H6152 N6146 0.984 . S
H6153 N6146 0.984 . S
H6154 N6142 0.984 . S
H6155 N6142 0.985 . S
C6156 C6157 1.363 . S
C6156 C6162 1.379 . S
C6156 N6164 1.356 . S
C6157 C6156 1.363 . S
C6157 C6163 1.363 . S
C6158 C6159 1.363 . S
C6158 C6163 1.379 . S
C6158 N6165 1.356 . S
C6159 C6158 1.363 . S
C6159 C6162 1.363 . S
N6160 C6162 1.356 . S
N6160 H6172 0.984 . S
N6160 H6173 0.985 . S
N6161 C6163 1.356 . S
N6161 H6166 0.984 . S
N6161 H6167 0.985 . S
C6162 C6156 1.379 . S
C6162 C6159 1.363 . S
C6162 N6160 1.356 . S
C6163 C6157 1.363 . S
C6163 C6158 1.379 . S
C6163 N6161 1.356 . S
N6164 C6156 1.356 . S
N6164 H6170 0.984 . S
N6164 H6171 0.984 . S
N6165 C6158 1.356 . S
N6165 H6168 0.984 . S
N6165 H6169 0.985 . S
H6166 N6161 0.984 . S
H6167 N6161 0.985 . S
H6168 N6165 0.984 . S
H6169 N6165 0.985 . S
H6170 N6164 0.984 . S
H6171 N6164 0.984 . S
H6172 N6160 0.984 . S
H6173 N6160 0.985 . S
C6174 C6175 1.363 . S
C6174 C6180 1.379 . S
C6174 N6182 1.356 . S
C6175 C6174 1.363 . S
C6175 C6181 1.363 . S
C6176 C6177 1.363 . S
C6176 C6181 1.379 . S
C6176 N6183 1.356 . S
C6177 C6176 1.363 . S
C6177 C6180 1.363 . S
N6178 C6180 1.356 . S
N6178 H6190 0.984 . S
N6178 H6191 0.985 . S
N6179 C6181 1.356 . S
N6179 H6184 0.984 . S
N6179 H6185 0.985 . S
C6180 C6174 1.379 . S
C6180 C6177 1.363 . S
C6180 N6178 1.356 . S
C6181 C6175 1.363 . S
C6181 C6176 1.379 . S
C6181 N6179 1.356 . S
N6182 C6174 1.356 . S
N6182 H6188 0.984 . S
N6182 H6189 0.984 . S
N6183 C6176 1.356 . S
N6183 H6186 0.984 . S
N6183 H6187 0.985 . S
H6184 N6179 0.984 . S
H6185 N6179 0.985 . S
H6186 N6183 0.984 . S
H6187 N6183 0.985 . S
H6188 N6182 0.984 . S
H6189 N6182 0.984 . S
H6190 N6178 0.984 . S
H6191 N6178 0.985 . S
C6192 C6193 1.363 . S
C6192 C6198 1.379 . S
C6192 N6200 1.356 . S
C6193 C6192 1.363 . S
C6193 C6199 1.363 . S
C6194 C6195 1.363 . S
C6194 C6199 1.379 . S
C6194 N6201 1.356 . S
C6195 C6194 1.363 . S
C6195 C6198 1.363 . S
N6196 C6198 1.356 . S
N6196 H6208 0.984 . S
N6196 H6209 0.985 . S
N6197 C6199 1.356 . S
N6197 H6202 0.984 . S
N6197 H6203 0.985 . S
C6198 C6192 1.379 . S
C6198 C6195 1.363 . S
C6198 N6196 1.356 . S
C6199 C6193 1.363 . S
C6199 C6194 1.379 . S
C6199 N6197 1.356 . S
N6200 C6192 1.356 . S
N6200 H6206 0.984 . S
N6200 H6207 0.984 . S
N6201 C6194 1.356 . S
N6201 H6204 0.984 . S
N6201 H6205 0.985 . S
H6202 N6197 0.984 . S
H6203 N6197 0.985 . S
H6204 N6201 0.984 . S
H6205 N6201 0.985 . S
H6206 N6200 0.984 . S
H6207 N6200 0.984 . S
H6208 N6196 0.984 . S
H6209 N6196 0.985 . S
C6210 C6211 1.363 . S
C6210 C6216 1.379 . S
C6210 N6218 1.356 . S
C6211 C6210 1.363 . S
C6211 C6217 1.363 . S
C6212 C6213 1.363 . S
C6212 C6217 1.379 . S
C6212 N6219 1.356 . S
C6213 C6212 1.363 . S
C6213 C6216 1.363 . S
N6214 C6216 1.356 . S
N6214 H6226 0.984 . S
N6214 H6227 0.985 . S
N6215 C6217 1.356 . S
N6215 H6220 0.984 . S
N6215 H6221 0.985 . S
C6216 C6210 1.379 . S
C6216 C6213 1.363 . S
C6216 N6214 1.356 . S
C6217 C6211 1.363 . S
C6217 C6212 1.379 . S
C6217 N6215 1.356 . S
N6218 C6210 1.356 . S
N6218 H6224 0.984 . S
N6218 H6225 0.984 . S
N6219 C6212 1.356 . S
N6219 H6222 0.984 . S
N6219 H6223 0.985 . S
H6220 N6215 0.984 . S
H6221 N6215 0.985 . S
H6222 N6219 0.984 . S
H6223 N6219 0.985 . S
H6224 N6218 0.984 . S
H6225 N6218 0.984 . S
H6226 N6214 0.984 . S
H6227 N6214 0.985 . S
C6228 C6229 1.363 . S
C6228 C6234 1.379 1_455 S
C6228 N6236 1.356 . S
C6229 C6228 1.363 . S
C6229 C6235 1.363 . S
C6230 C6231 1.457 . S
C6230 C6235 1.269 1_655 S
C6230 N6237 1.417 . S
C6231 C6230 1.457 . S
C6231 C6234 1.363 . S
N6232 C6234 1.356 . S
N6232 H6244 0.984 . S
N6232 H6245 0.985 . S
N6233 C6235 1.356 . S
N6233 H6238 0.984 . S
N6233 H6239 0.985 . S
C6234 C6228 1.379 1_655 S
C6234 C6231 1.363 . S
C6234 N6232 1.356 . S
C6235 C6229 1.363 . S
C6235 C6230 1.269 1_455 S
C6235 N6233 1.356 . S
N6236 C6228 1.356 . S
N6236 H6242 0.984 . S
N6236 H6243 0.984 . S
N6237 C6230 1.417 . S
N6237 H6240 0.984 . S
N6237 H6241 0.985 . S
H6238 N6233 0.984 . S
H6239 N6233 0.985 . S
H6240 N6237 0.984 . S
H6241 N6237 0.985 . S
H6242 N6236 0.984 . S
H6243 N6236 0.984 . S
H6244 N6232 0.984 . S
H6245 N6232 0.985 . S
C6246 C6247 1.363 . S
C6246 C6252 1.379 . S
C6246 N6254 1.356 . S
C6247 C6246 1.363 . S
C6247 C6253 1.363 . S
C6248 C6249 1.363 . S
C6248 C6253 1.379 . S
C6248 N6255 1.356 . S
C6249 C6248 1.363 . S
C6249 C6252 1.363 . S
N6250 C6252 1.356 . S
N6250 H6262 0.984 . S
N6250 H6263 0.985 . S
N6251 C6253 1.356 . S
N6251 H6256 0.984 . S
N6251 H6257 0.985 . S
C6252 C6246 1.379 . S
C6252 C6249 1.363 . S
C6252 N6250 1.356 . S
C6253 C6247 1.363 . S
C6253 C6248 1.379 . S
C6253 N6251 1.356 . S
N6254 C6246 1.356 . S
N6254 H6260 0.984 . S
N6254 H6261 0.984 . S
N6255 C6248 1.356 . S
N6255 H6258 0.984 . S
N6255 H6259 0.985 . S
H6256 N6251 0.984 . S
H6257 N6251 0.985 . S
H6258 N6255 0.984 . S
H6259 N6255 0.985 . S
H6260 N6254 0.984 . S
H6261 N6254 0.984 . S
H6262 N6250 0.984 . S
H6263 N6250 0.985 . S
C6264 C6265 1.363 . S
C6264 C6270 1.379 . S
C6264 N6272 1.356 . S
C6265 C6264 1.363 . S
C6265 C6271 1.363 . S
C6266 C6267 1.363 . S
C6266 C6271 1.379 . S
C6266 N6273 1.356 . S
C6267 C6266 1.363 . S
C6267 C6270 1.363 . S
N6268 C6270 1.356 . S
N6268 H6280 0.984 . S
N6268 H6281 0.985 . S
N6269 C6271 1.356 . S
N6269 H6274 0.984 . S
N6269 H6275 0.985 . S
C6270 C6264 1.379 . S
C6270 C6267 1.363 . S
C6270 N6268 1.356 . S
C6271 C6265 1.363 . S
C6271 C6266 1.379 . S
C6271 N6269 1.356 . S
N6272 C6264 1.356 . S
N6272 H6278 0.984 . S
N6272 H6279 0.984 . S
N6273 C6266 1.356 . S
N6273 H6276 0.984 . S
N6273 H6277 0.985 . S
H6274 N6269 0.984 . S
H6275 N6269 0.985 . S
H6276 N6273 0.984 . S
H6277 N6273 0.985 . S
H6278 N6272 0.984 . S
H6279 N6272 0.984 . S
H6280 N6268 0.984 . S
H6281 N6268 0.985 . S
C6282 C6283 1.363 . S
C6282 C6288 1.379 . S
C6282 N6290 1.356 . S
C6283 C6282 1.363 . S
C6283 C6289 1.363 . S
C6284 C6285 1.363 . S
C6284 C6289 1.379 . S
C6284 N6291 1.356 . S
C6285 C6284 1.363 . S
C6285 C6288 1.363 . S
N6286 C6288 1.356 . S
N6286 H6298 0.984 . S
N6286 H6299 0.985 . S
N6287 C6289 1.356 . S
N6287 H6292 0.984 . S
N6287 H6293 0.985 . S
C6288 C6282 1.379 . S
C6288 C6285 1.363 . S
C6288 N6286 1.356 . S
C6289 C6283 1.363 . S
C6289 C6284 1.379 . S
C6289 N6287 1.356 . S
N6290 C6282 1.356 . S
N6290 H6296 0.984 . S
N6290 H6297 0.984 . S
N6291 C6284 1.356 . S
N6291 H6294 0.984 . S
N6291 H6295 0.985 . S
H6292 N6287 0.984 . S
H6293 N6287 0.985 . S
H6294 N6291 0.984 . S
H6295 N6291 0.985 . S
H6296 N6290 0.984 . S
H6297 N6290 0.984 . S
H6298 N6286 0.984 . S
H6299 N6286 0.985 . S
C6300 C6301 1.363 . S
C6300 C6306 1.379 1_455 S
C6300 N6308 1.356 . S
C6301 C6300 1.363 . S
C6301 C6307 1.363 . S
C6302 C6303 1.445 . S
C6302 C6307 1.284 1_655 S
C6302 N6309 1.407 . S
C6303 C6302 1.445 . S
C6303 C6306 1.363 . S
N6304 C6306 1.356 . S
N6304 H6316 0.984 . S
N6304 H6317 0.985 . S
N6305 C6307 1.356 . S
N6305 H6310 0.984 . S
N6305 H6311 0.985 . S
C6306 C6300 1.379 1_655 S
C6306 C6303 1.363 . S
C6306 N6304 1.356 . S
C6307 C6301 1.363 . S
C6307 C6302 1.284 1_455 S
C6307 N6305 1.356 . S
N6308 C6300 1.356 . S
N6308 H6314 0.984 . S
N6308 H6315 0.984 . S
N6309 C6302 1.407 . S
N6309 H6312 0.984 . S
N6309 H6313 0.985 . S
H6310 N6305 0.984 . S
H6311 N6305 0.985 . S
H6312 N6309 0.984 . S
H6313 N6309 0.985 . S
H6314 N6308 0.984 . S
H6315 N6308 0.984 . S
H6316 N6304 0.984 . S
H6317 N6304 0.985 . S
C6318 C6319 1.363 . S
C6318 C6324 1.379 . S
C6318 N6326 1.356 . S
C6319 C6318 1.363 . S
C6319 C6325 1.363 . S
C6320 C6321 1.363 . S
C6320 C6325 1.379 . S
C6320 N6327 1.356 . S
C6321 C6320 1.363 . S
C6321 C6324 1.363 . S
N6322 C6324 1.356 . S
N6322 H6334 0.984 . S
N6322 H6335 0.985 . S
N6323 C6325 1.356 . S
N6323 H6328 0.984 . S
N6323 H6329 0.985 . S
C6324 C6318 1.379 . S
C6324 C6321 1.363 . S
C6324 N6322 1.356 . S
C6325 C6319 1.363 . S
C6325 C6320 1.379 . S
C6325 N6323 1.356 . S
N6326 C6318 1.356 . S
N6326 H6332 0.984 . S
N6326 H6333 0.984 . S
N6327 C6320 1.356 . S
N6327 H6330 0.984 . S
N6327 H6331 0.985 . S
H6328 N6323 0.984 . S
H6329 N6323 0.985 . S
H6330 N6327 0.984 . S
H6331 N6327 0.985 . S
H6332 N6326 0.984 . S
H6333 N6326 0.984 . S
H6334 N6322 0.984 . S
H6335 N6322 0.985 . S
C6336 C6337 1.363 . S
C6336 C6342 1.379 . S
C6336 N6344 1.356 . S
C6337 C6336 1.363 . S
C6337 C6343 1.363 . S
C6338 C6339 1.363 . S
C6338 C6343 1.379 . S
C6338 N6345 1.356 . S
C6339 C6338 1.363 . S
C6339 C6342 1.363 . S
N6340 C6342 1.356 . S
N6340 H6352 0.984 . S
N6340 H6353 0.985 . S
N6341 C6343 1.356 . S
N6341 H6346 0.984 . S
N6341 H6347 0.985 . S
C6342 C6336 1.379 . S
C6342 C6339 1.363 . S
C6342 N6340 1.356 . S
C6343 C6337 1.363 . S
C6343 C6338 1.379 . S
C6343 N6341 1.356 . S
N6344 C6336 1.356 . S
N6344 H6350 0.984 . S
N6344 H6351 0.984 . S
N6345 C6338 1.356 . S
N6345 H6348 0.984 . S
N6345 H6349 0.985 . S
H6346 N6341 0.984 . S
H6347 N6341 0.985 . S
H6348 N6345 0.984 . S
H6349 N6345 0.985 . S
H6350 N6344 0.984 . S
H6351 N6344 0.984 . S
H6352 N6340 0.984 . S
H6353 N6340 0.985 . S
C6354 C6355 1.363 . S
C6354 C6360 1.379 . S
C6354 N6362 1.356 . S
C6355 C6354 1.363 . S
C6355 C6361 1.363 . S
C6356 C6357 1.363 . S
C6356 C6361 1.379 . S
C6356 N6363 1.356 . S
C6357 C6356 1.363 . S
C6357 C6360 1.363 . S
N6358 C6360 1.356 . S
N6358 H6370 0.984 . S
N6358 H6371 0.985 . S
N6359 C6361 1.356 . S
N6359 H6364 0.984 . S
N6359 H6365 0.985 . S
C6360 C6354 1.379 . S
C6360 C6357 1.363 . S
C6360 N6358 1.356 . S
C6361 C6355 1.363 . S
C6361 C6356 1.379 . S
C6361 N6359 1.356 . S
N6362 C6354 1.356 . S
N6362 H6368 0.984 . S
N6362 H6369 0.984 . S
N6363 C6356 1.356 . S
N6363 H6366 0.984 . S
N6363 H6367 0.985 . S
H6364 N6359 0.984 . S
H6365 N6359 0.985 . S
H6366 N6363 0.984 . S
H6367 N6363 0.985 . S
H6368 N6362 0.984 . S
H6369 N6362 0.984 . S
H6370 N6358 0.984 . S
H6371 N6358 0.985 . S
C6372 C6373 1.363 . S
C6372 C6378 1.379 . S
C6372 N6380 1.356 . S
C6373 C6372 1.363 . S
C6373 C6379 1.363 . S
C6374 C6375 1.363 . S
C6374 C6379 1.379 . S
C6374 N6381 1.356 . S
C6375 C6374 1.363 . S
C6375 C6378 1.363 . S
N6376 C6378 1.356 . S
N6376 H6388 0.984 . S
N6376 H6389 0.985 . S
N6377 C6379 1.356 . S
N6377 H6382 0.984 . S
N6377 H6383 0.985 . S
C6378 C6372 1.379 . S
C6378 C6375 1.363 . S
C6378 N6376 1.356 . S
C6379 C6373 1.363 . S
C6379 C6374 1.379 . S
C6379 N6377 1.356 . S
N6380 C6372 1.356 . S
N6380 H6386 0.984 . S
N6380 H6387 0.984 . S
N6381 C6374 1.356 . S
N6381 H6384 0.984 . S
N6381 H6385 0.985 . S
H6382 N6377 0.984 . S
H6383 N6377 0.985 . S
H6384 N6381 0.984 . S
H6385 N6381 0.985 . S
H6386 N6380 0.984 . S
H6387 N6380 0.984 . S
H6388 N6376 0.984 . S
H6389 N6376 0.985 . S
C6390 C6391 1.363 . S
C6390 C6396 1.379 . S
C6390 N6398 1.356 . S
C6391 C6390 1.363 . S
C6391 C6397 1.363 . S
C6392 C6393 1.363 . S
C6392 C6397 1.379 . S
C6392 N6399 1.356 . S
C6393 C6392 1.363 . S
C6393 C6396 1.363 . S
N6394 C6396 1.356 . S
N6394 H6406 0.984 . S
N6394 H6407 0.985 . S
N6395 C6397 1.356 . S
N6395 H6400 0.984 . S
N6395 H6401 0.985 . S
C6396 C6390 1.379 . S
C6396 C6393 1.363 . S
C6396 N6394 1.356 . S
C6397 C6391 1.363 . S
C6397 C6392 1.379 . S
C6397 N6395 1.356 . S
N6398 C6390 1.356 . S
N6398 H6404 0.984 . S
N6398 H6405 0.984 . S
N6399 C6392 1.356 . S
N6399 H6402 0.984 . S
N6399 H6403 0.985 . S
H6400 N6395 0.984 . S
H6401 N6395 0.985 . S
H6402 N6399 0.984 . S
H6403 N6399 0.985 . S
H6404 N6398 0.984 . S
H6405 N6398 0.984 . S
H6406 N6394 0.984 . S
H6407 N6394 0.985 . S
C6408 C6409 1.363 . S
C6408 C6414 1.379 . S
C6408 N6416 1.356 . S
C6409 C6408 1.363 . S
C6409 C6415 1.363 . S
C6410 C6411 1.363 . S
C6410 C6415 1.379 . S
C6410 N6417 1.356 . S
C6411 C6410 1.363 . S
C6411 C6414 1.363 . S
N6412 C6414 1.356 . S
N6412 H6424 0.984 . S
N6412 H6425 0.985 . S
N6413 C6415 1.356 . S
N6413 H6418 0.984 . S
N6413 H6419 0.985 . S
C6414 C6408 1.379 . S
C6414 C6411 1.363 . S
C6414 N6412 1.356 . S
C6415 C6409 1.363 . S
C6415 C6410 1.379 . S
C6415 N6413 1.356 . S
N6416 C6408 1.356 . S
N6416 H6422 0.984 . S
N6416 H6423 0.984 . S
N6417 C6410 1.356 . S
N6417 H6420 0.984 . S
N6417 H6421 0.985 . S
H6418 N6413 0.984 . S
H6419 N6413 0.985 . S
H6420 N6417 0.984 . S
H6421 N6417 0.985 . S
H6422 N6416 0.984 . S
H6423 N6416 0.984 . S
H6424 N6412 0.984 . S
H6425 N6412 0.985 . S
C6426 C6427 1.363 . S
C6426 C6432 1.379 . S
C6426 N6434 1.356 . S
C6427 C6426 1.363 . S
C6427 C6433 1.363 . S
C6428 C6429 1.363 . S
C6428 C6433 1.379 . S
C6428 N6435 1.356 . S
C6429 C6428 1.363 . S
C6429 C6432 1.363 . S
N6430 C6432 1.356 . S
N6430 H6442 0.984 . S
N6430 H6443 0.985 . S
N6431 C6433 1.356 . S
N6431 H6436 0.984 . S
N6431 H6437 0.985 . S
C6432 C6426 1.379 . S
C6432 C6429 1.363 . S
C6432 N6430 1.356 . S
C6433 C6427 1.363 . S
C6433 C6428 1.379 . S
C6433 N6431 1.356 . S
N6434 C6426 1.356 . S
N6434 H6440 0.984 . S
N6434 H6441 0.984 . S
N6435 C6428 1.356 . S
N6435 H6438 0.984 . S
N6435 H6439 0.985 . S
H6436 N6431 0.984 . S
H6437 N6431 0.985 . S
H6438 N6435 0.984 . S
H6439 N6435 0.985 . S
H6440 N6434 0.984 . S
H6441 N6434 0.984 . S
H6442 N6430 0.984 . S
H6443 N6430 0.985 . S
C6444 C6445 1.363 . S
C6444 C6450 1.379 . S
C6444 N6452 1.356 . S
C6445 C6444 1.363 . S
C6445 C6451 1.363 . S
C6446 C6447 1.363 . S
C6446 C6451 1.379 . S
C6446 N6453 1.356 . S
C6447 C6446 1.363 . S
C6447 C6450 1.363 . S
N6448 C6450 1.356 . S
N6448 H6460 0.984 . S
N6448 H6461 0.985 . S
N6449 C6451 1.356 . S
N6449 H6454 0.984 . S
N6449 H6455 0.985 . S
C6450 C6444 1.379 . S
C6450 C6447 1.363 . S
C6450 N6448 1.356 . S
C6451 C6445 1.363 . S
C6451 C6446 1.379 . S
C6451 N6449 1.356 . S
N6452 C6444 1.356 . S
N6452 H6458 0.984 . S
N6452 H6459 0.984 . S
N6453 C6446 1.356 . S
N6453 H6456 0.984 . S
N6453 H6457 0.985 . S
H6454 N6449 0.984 . S
H6455 N6449 0.985 . S
H6456 N6453 0.984 . S
H6457 N6453 0.985 . S
H6458 N6452 0.984 . S
H6459 N6452 0.984 . S
H6460 N6448 0.984 . S
H6461 N6448 0.985 . S
C6462 C6463 1.363 . S
C6462 C6468 1.379 . S
C6462 N6470 1.356 . S
C6463 C6462 1.363 . S
C6463 C6469 1.363 . S
C6464 C6465 1.363 . S
C6464 C6469 1.379 . S
C6464 N6471 1.356 . S
C6465 C6464 1.363 . S
C6465 C6468 1.363 . S
N6466 C6468 1.356 . S
N6466 H6478 0.984 . S
N6466 H6479 0.985 . S
N6467 C6469 1.356 . S
N6467 H6472 0.984 . S
N6467 H6473 0.985 . S
C6468 C6462 1.379 . S
C6468 C6465 1.363 . S
C6468 N6466 1.356 . S
C6469 C6463 1.363 . S
C6469 C6464 1.379 . S
C6469 N6467 1.356 . S
N6470 C6462 1.356 . S
N6470 H6476 0.984 . S
N6470 H6477 0.984 . S
N6471 C6464 1.356 . S
N6471 H6474 0.984 . S
N6471 H6475 0.985 . S
H6472 N6467 0.984 . S
H6473 N6467 0.985 . S
H6474 N6471 0.984 . S
H6475 N6471 0.985 . S
H6476 N6470 0.984 . S
H6477 N6470 0.984 . S
H6478 N6466 0.984 . S
H6479 N6466 0.985 . S
C6480 C6481 1.363 . S
C6480 C6486 1.379 . S
C6480 N6488 1.356 . S
C6481 C6480 1.363 . S
C6481 C6487 1.363 . S
C6482 C6483 1.363 . S
C6482 C6487 1.379 . S
C6482 N6489 1.356 . S
C6483 C6482 1.363 . S
C6483 C6486 1.363 . S
N6484 C6486 1.356 . S
N6484 H6496 0.984 . S
N6484 H6497 0.985 . S
N6485 C6487 1.356 . S
N6485 H6490 0.984 . S
N6485 H6491 0.985 . S
C6486 C6480 1.379 . S
C6486 C6483 1.363 . S
C6486 N6484 1.356 . S
C6487 C6481 1.363 . S
C6487 C6482 1.379 . S
C6487 N6485 1.356 . S
N6488 C6480 1.356 . S
N6488 H6494 0.984 . S
N6488 H6495 0.984 . S
N6489 C6482 1.356 . S
N6489 H6492 0.984 . S
N6489 H6493 0.985 . S
H6490 N6485 0.984 . S
H6491 N6485 0.985 . S
H6492 N6489 0.984 . S
H6493 N6489 0.985 . S
H6494 N6488 0.984 . S
H6495 N6488 0.984 . S
H6496 N6484 0.984 . S
H6497 N6484 0.985 . S
C6498 C6499 1.363 . S
C6498 C6504 1.379 . S
C6498 N6506 1.356 . S
C6499 C6498 1.363 . S
C6499 C6505 1.363 . S
C6500 C6501 1.363 . S
C6500 C6505 1.379 . S
C6500 N6507 1.356 . S
C6501 C6500 1.363 . S
C6501 C6504 1.363 . S
N6502 C6504 1.356 . S
N6502 H6514 0.984 . S
N6502 H6515 0.985 . S
N6503 C6505 1.356 . S
N6503 H6508 0.984 . S
N6503 H6509 0.985 . S
C6504 C6498 1.379 . S
C6504 C6501 1.363 . S
C6504 N6502 1.356 . S
C6505 C6499 1.363 . S
C6505 C6500 1.379 . S
C6505 N6503 1.356 . S
N6506 C6498 1.356 . S
N6506 H6512 0.984 . S
N6506 H6513 0.984 . S
N6507 C6500 1.356 . S
N6507 H6510 0.984 . S
N6507 H6511 0.985 . S
H6508 N6503 0.984 . S
H6509 N6503 0.985 . S
H6510 N6507 0.984 . S
H6511 N6507 0.985 . S
H6512 N6506 0.984 . S
H6513 N6506 0.984 . S
H6514 N6502 0.984 . S
H6515 N6502 0.985 . S
C6516 C6517 1.363 . S
C6516 C6522 1.379 . S
C6516 N6524 1.356 . S
C6517 C6516 1.363 . S
C6517 C6523 1.363 . S
C6518 C6519 1.363 . S
C6518 C6523 1.379 . S
C6518 N6525 1.356 . S
C6519 C6518 1.363 . S
C6519 C6522 1.363 . S
N6520 C6522 1.356 . S
N6520 H6532 0.984 . S
N6520 H6533 0.985 . S
N6521 C6523 1.356 . S
N6521 H6526 0.984 . S
N6521 H6527 0.985 . S
C6522 C6516 1.379 . S
C6522 C6519 1.363 . S
C6522 N6520 1.356 . S
C6523 C6517 1.363 . S
C6523 C6518 1.379 . S
C6523 N6521 1.356 . S
N6524 C6516 1.356 . S
N6524 H6530 0.984 . S
N6524 H6531 0.984 . S
N6525 C6518 1.356 . S
N6525 H6528 0.984 . S
N6525 H6529 0.985 . S
H6526 N6521 0.984 . S
H6527 N6521 0.985 . S
H6528 N6525 0.984 . S
H6529 N6525 0.985 . S
H6530 N6524 0.984 . S
H6531 N6524 0.984 . S
H6532 N6520 0.984 . S
H6533 N6520 0.985 . S
C6534 C6535 1.363 . S
C6534 C6540 1.379 1_554 S
C6534 N6542 1.356 . S
C6535 C6534 1.363 . S
C6535 C6541 1.363 . S
C6536 C6537 1.332 1_554 S
C6536 C6541 1.410 . S
C6536 N6543 1.345 1_554 S
C6537 C6536 1.332 1_556 S
C6537 C6540 1.363 . S
N6538 C6540 1.356 . S
N6538 H6550 0.984 . S
N6538 H6551 0.985 . S
N6539 C6541 1.356 . S
N6539 H6544 0.984 . S
N6539 H6545 0.985 . S
C6540 C6534 1.379 1_556 S
C6540 C6537 1.363 . S
C6540 N6538 1.356 . S
C6541 C6535 1.363 . S
C6541 C6536 1.410 . S
C6541 N6539 1.356 . S
N6542 C6534 1.356 . S
N6542 H6548 0.981 1_554 S
N6542 H6549 0.984 . S
N6543 C6536 1.345 1_556 S
N6543 H6546 0.984 . S
N6543 H6547 0.985 1_556 S
H6544 N6539 0.984 . S
H6545 N6539 0.985 . S
H6546 N6543 0.984 . S
H6547 N6543 0.985 1_554 S
H6548 N6542 0.981 1_556 S
H6549 N6542 0.984 . S
H6550 N6538 0.984 . S
H6551 N6538 0.985 . S
C6552 C6553 1.363 . S
C6552 C6558 1.379 . S
C6552 N6560 1.356 . S
C6553 C6552 1.363 . S
C6553 C6559 1.363 . S
C6554 C6555 1.363 . S
C6554 C6559 1.379 . S
C6554 N6561 1.356 . S
C6555 C6554 1.363 . S
C6555 C6558 1.363 . S
N6556 C6558 1.356 . S
N6556 H6568 0.984 . S
N6556 H6569 0.985 . S
N6557 C6559 1.356 . S
N6557 H6562 0.984 . S
N6557 H6563 0.985 . S
C6558 C6552 1.379 . S
C6558 C6555 1.363 . S
C6558 N6556 1.356 . S
C6559 C6553 1.363 . S
C6559 C6554 1.379 . S
C6559 N6557 1.356 . S
N6560 C6552 1.356 . S
N6560 H6566 0.984 . S
N6560 H6567 0.984 . S
N6561 C6554 1.356 . S
N6561 H6564 0.984 . S
N6561 H6565 0.985 . S
H6562 N6557 0.984 . S
H6563 N6557 0.985 . S
H6564 N6561 0.984 . S
H6565 N6561 0.985 . S
H6566 N6560 0.984 . S
H6567 N6560 0.984 . S
H6568 N6556 0.984 . S
H6569 N6556 0.985 . S
C6570 C6571 1.363 . S
C6570 C6576 1.379 1_556 S
C6570 N6578 1.356 . S
C6571 C6570 1.363 . S
C6571 C6577 1.363 . S
C6572 C6573 1.322 1_556 S
C6572 C6577 1.420 . S
C6572 N6579 1.342 1_556 S
C6573 C6572 1.322 1_554 S
C6573 C6576 1.363 . S
N6574 C6576 1.356 . S
N6574 H6586 0.984 . S
N6574 H6587 0.985 . S
N6575 C6577 1.356 . S
N6575 H6580 0.984 . S
N6575 H6581 0.985 . S
C6576 C6570 1.379 1_554 S
C6576 C6573 1.363 . S
C6576 N6574 1.356 . S
C6577 C6571 1.363 . S
C6577 C6572 1.420 . S
C6577 N6575 1.356 . S
N6578 C6570 1.356 . S
N6578 H6584 0.963 1_556 S
N6578 H6585 0.984 . S
N6579 C6572 1.342 1_554 S
N6579 H6582 0.984 . S
N6579 H6583 0.985 1_554 S
H6580 N6575 0.984 . S
H6581 N6575 0.985 . S
H6582 N6579 0.984 . S
H6583 N6579 0.985 1_556 S
H6584 N6578 0.963 1_554 S
H6585 N6578 0.984 . S
H6586 N6574 0.984 . S
H6587 N6574 0.985 . S
C6588 C6589 1.363 . S
C6588 C6594 1.379 . S
C6588 N6596 1.356 . S
C6589 C6588 1.363 . S
C6589 C6595 1.363 . S
C6590 C6591 1.363 . S
C6590 C6595 1.379 . S
C6590 N6597 1.356 . S
C6591 C6590 1.363 . S
C6591 C6594 1.363 . S
N6592 C6594 1.356 . S
N6592 H6604 0.984 . S
N6592 H6605 0.985 . S
N6593 C6595 1.356 . S
N6593 H6598 0.984 . S
N6593 H6599 0.985 . S
C6594 C6588 1.379 . S
C6594 C6591 1.363 . S
C6594 N6592 1.356 . S
C6595 C6589 1.363 . S
C6595 C6590 1.379 . S
C6595 N6593 1.356 . S
N6596 C6588 1.356 . S
N6596 H6602 0.984 . S
N6596 H6603 0.984 . S
N6597 C6590 1.356 . S
N6597 H6600 0.984 . S
N6597 H6601 0.985 . S
H6598 N6593 0.984 . S
H6599 N6593 0.985 . S
H6600 N6597 0.984 . S
H6601 N6597 0.985 . S
H6602 N6596 0.984 . S
H6603 N6596 0.984 . S
H6604 N6592 0.984 . S
H6605 N6592 0.985 . S
C6606 C6607 1.363 . S
C6606 C6612 1.379 . S
C6606 N6614 1.356 . S
C6607 C6606 1.363 . S
C6607 C6613 1.363 . S
C6608 C6609 1.363 . S
C6608 C6613 1.379 . S
C6608 N6615 1.356 . S
C6609 C6608 1.363 . S
C6609 C6612 1.363 . S
N6610 C6612 1.356 . S
N6610 H6622 0.984 . S
N6610 H6623 0.985 . S
N6611 C6613 1.356 . S
N6611 H6616 0.984 . S
N6611 H6617 0.985 . S
C6612 C6606 1.379 . S
C6612 C6609 1.363 . S
C6612 N6610 1.356 . S
C6613 C6607 1.363 . S
C6613 C6608 1.379 . S
C6613 N6611 1.356 . S
N6614 C6606 1.356 . S
N6614 H6620 0.984 . S
N6614 H6621 0.984 . S
N6615 C6608 1.356 . S
N6615 H6618 0.984 . S
N6615 H6619 0.985 . S
H6616 N6611 0.984 . S
H6617 N6611 0.985 . S
H6618 N6615 0.984 . S
H6619 N6615 0.985 . S
H6620 N6614 0.984 . S
H6621 N6614 0.984 . S
H6622 N6610 0.984 . S
H6623 N6610 0.985 . S
C6624 C6625 1.363 . S
C6624 C6630 1.379 . S
C6624 N6632 1.356 . S
C6625 C6624 1.363 . S
C6625 C6631 1.363 . S
C6626 C6627 1.363 . S
C6626 C6631 1.379 . S
C6626 N6633 1.356 . S
C6627 C6626 1.363 . S
C6627 C6630 1.363 . S
N6628 C6630 1.356 . S
N6628 H6640 0.984 . S
N6628 H6641 0.985 . S
N6629 C6631 1.356 . S
N6629 H6634 0.984 . S
N6629 H6635 0.985 . S
C6630 C6624 1.379 . S
C6630 C6627 1.363 . S
C6630 N6628 1.356 . S
C6631 C6625 1.363 . S
C6631 C6626 1.379 . S
C6631 N6629 1.356 . S
N6632 C6624 1.356 . S
N6632 H6638 0.984 . S
N6632 H6639 0.984 . S
N6633 C6626 1.356 . S
N6633 H6636 0.984 . S
N6633 H6637 0.985 . S
H6634 N6629 0.984 . S
H6635 N6629 0.985 . S
H6636 N6633 0.984 . S
H6637 N6633 0.985 . S
H6638 N6632 0.984 . S
H6639 N6632 0.984 . S
H6640 N6628 0.984 . S
H6641 N6628 0.985 . S
C6642 C6643 1.363 . S
C6642 C6648 1.379 . S
C6642 N6650 1.356 . S
C6643 C6642 1.363 . S
C6643 C6649 1.363 . S
C6644 C6645 1.363 . S
C6644 C6649 1.379 . S
C6644 N6651 1.356 . S
C6645 C6644 1.363 . S
C6645 C6648 1.363 . S
N6646 C6648 1.356 . S
N6646 H6658 0.984 . S
N6646 H6659 0.985 . S
N6647 C6649 1.356 . S
N6647 H6652 0.984 . S
N6647 H6653 0.985 . S
C6648 C6642 1.379 . S
C6648 C6645 1.363 . S
C6648 N6646 1.356 . S
C6649 C6643 1.363 . S
C6649 C6644 1.379 . S
C6649 N6647 1.356 . S
N6650 C6642 1.356 . S
N6650 H6656 0.984 . S
N6650 H6657 0.984 . S
N6651 C6644 1.356 . S
N6651 H6654 0.984 . S
N6651 H6655 0.985 . S
H6652 N6647 0.984 . S
H6653 N6647 0.985 . S
H6654 N6651 0.984 . S
H6655 N6651 0.985 . S
H6656 N6650 0.984 . S
H6657 N6650 0.984 . S
H6658 N6646 0.984 . S
H6659 N6646 0.985 . S
C6660 C6661 1.363 . S
C6660 C6666 1.379 . S
C6660 N6668 1.356 . S
C6661 C6660 1.363 . S
C6661 C6667 1.363 . S
C6662 C6663 1.363 . S
C6662 C6667 1.379 . S
C6662 N6669 1.356 . S
C6663 C6662 1.363 . S
C6663 C6666 1.363 . S
N6664 C6666 1.356 . S
N6664 H6676 0.984 . S
N6664 H6677 0.985 . S
N6665 C6667 1.356 . S
N6665 H6670 0.984 . S
N6665 H6671 0.985 . S
C6666 C6660 1.379 . S
C6666 C6663 1.363 . S
C6666 N6664 1.356 . S
C6667 C6661 1.363 . S
C6667 C6662 1.379 . S
C6667 N6665 1.356 . S
N6668 C6660 1.356 . S
N6668 H6674 0.984 . S
N6668 H6675 0.984 . S
N6669 C6662 1.356 . S
N6669 H6672 0.984 . S
N6669 H6673 0.985 . S
H6670 N6665 0.984 . S
H6671 N6665 0.985 . S
H6672 N6669 0.984 . S
H6673 N6669 0.985 . S
H6674 N6668 0.984 . S
H6675 N6668 0.984 . S
H6676 N6664 0.984 . S
H6677 N6664 0.985 . S
C6678 C6679 1.363 . S
C6678 C6684 1.379 . S
C6678 N6686 1.356 . S
C6679 C6678 1.363 . S
C6679 C6685 1.363 . S
C6680 C6681 1.363 . S
C6680 C6685 1.379 . S
C6680 N6687 1.356 . S
C6681 C6680 1.363 . S
C6681 C6684 1.363 . S
N6682 C6684 1.356 . S
N6682 H6694 0.984 . S
N6682 H6695 0.985 . S
N6683 C6685 1.356 . S
N6683 H6688 0.984 . S
N6683 H6689 0.985 . S
C6684 C6678 1.379 . S
C6684 C6681 1.363 . S
C6684 N6682 1.356 . S
C6685 C6679 1.363 . S
C6685 C6680 1.379 . S
C6685 N6683 1.356 . S
N6686 C6678 1.356 . S
N6686 H6692 0.984 . S
N6686 H6693 0.984 . S
N6687 C6680 1.356 . S
N6687 H6690 0.984 . S
N6687 H6691 0.985 . S
H6688 N6683 0.984 . S
H6689 N6683 0.985 . S
H6690 N6687 0.984 . S
H6691 N6687 0.985 . S
H6692 N6686 0.984 . S
H6693 N6686 0.984 . S
H6694 N6682 0.984 . S
H6695 N6682 0.985 . S
C6696 C6697 1.363 . S
C6696 C6702 1.379 . S
C6696 N6704 1.356 . S
C6697 C6696 1.363 . S
C6697 C6703 1.363 . S
C6698 C6699 1.363 . S
C6698 C6703 1.379 . S
C6698 N6705 1.356 . S
C6699 C6698 1.363 . S
C6699 C6702 1.363 . S
N6700 C6702 1.356 . S
N6700 H6712 0.984 . S
N6700 H6713 0.985 . S
N6701 C6703 1.356 . S
N6701 H6706 0.984 . S
N6701 H6707 0.985 . S
C6702 C6696 1.379 . S
C6702 C6699 1.363 . S
C6702 N6700 1.356 . S
C6703 C6697 1.363 . S
C6703 C6698 1.379 . S
C6703 N6701 1.356 . S
N6704 C6696 1.356 . S
N6704 H6710 0.984 . S
N6704 H6711 0.984 . S
N6705 C6698 1.356 . S
N6705 H6708 0.984 . S
N6705 H6709 0.985 . S
H6706 N6701 0.984 . S
H6707 N6701 0.985 . S
H6708 N6705 0.984 . S
H6709 N6705 0.985 . S
H6710 N6704 0.984 . S
H6711 N6704 0.984 . S
H6712 N6700 0.984 . S
H6713 N6700 0.985 . S
C6714 C6715 1.363 . S
C6714 C6720 1.379 . S
C6714 N6722 1.356 . S
C6715 C6714 1.363 . S
C6715 C6721 1.363 . S
C6716 C6717 1.363 . S
C6716 C6721 1.379 . S
C6716 N6723 1.356 . S
C6717 C6716 1.363 . S
C6717 C6720 1.363 . S
N6718 C6720 1.356 . S
N6718 H6730 0.984 . S
N6718 H6731 0.985 . S
N6719 C6721 1.356 . S
N6719 H6724 0.984 . S
N6719 H6725 0.985 . S
C6720 C6714 1.379 . S
C6720 C6717 1.363 . S
C6720 N6718 1.356 . S
C6721 C6715 1.363 . S
C6721 C6716 1.379 . S
C6721 N6719 1.356 . S
N6722 C6714 1.356 . S
N6722 H6728 0.984 . S
N6722 H6729 0.984 . S
N6723 C6716 1.356 . S
N6723 H6726 0.984 . S
N6723 H6727 0.985 . S
H6724 N6719 0.984 . S
H6725 N6719 0.985 . S
H6726 N6723 0.984 . S
H6727 N6723 0.985 . S
H6728 N6722 0.984 . S
H6729 N6722 0.984 . S
H6730 N6718 0.984 . S
H6731 N6718 0.985 . S
C6732 C6733 1.363 . S
C6732 C6738 1.379 . S
C6732 N6740 1.356 . S
C6733 C6732 1.363 . S
C6733 C6739 1.363 . S
C6734 C6735 1.363 . S
C6734 C6739 1.379 . S
C6734 N6741 1.356 . S
C6735 C6734 1.363 . S
C6735 C6738 1.363 . S
N6736 C6738 1.356 . S
N6736 H6748 0.984 . S
N6736 H6749 0.985 . S
N6737 C6739 1.356 . S
N6737 H6742 0.984 . S
N6737 H6743 0.985 . S
C6738 C6732 1.379 . S
C6738 C6735 1.363 . S
C6738 N6736 1.356 . S
C6739 C6733 1.363 . S
C6739 C6734 1.379 . S
C6739 N6737 1.356 . S
N6740 C6732 1.356 . S
N6740 H6746 0.984 . S
N6740 H6747 0.984 . S
N6741 C6734 1.356 . S
N6741 H6744 0.984 . S
N6741 H6745 0.985 . S
H6742 N6737 0.984 . S
H6743 N6737 0.985 . S
H6744 N6741 0.984 . S
H6745 N6741 0.985 . S
H6746 N6740 0.984 . S
H6747 N6740 0.984 . S
H6748 N6736 0.984 . S
H6749 N6736 0.985 . S
C6750 C6751 1.363 . S
C6750 C6756 1.379 . S
C6750 N6758 1.356 . S
C6751 C6750 1.363 . S
C6751 C6757 1.363 . S
C6752 C6753 1.363 . S
C6752 C6757 1.379 . S
C6752 N6759 1.356 . S
C6753 C6752 1.363 . S
C6753 C6756 1.363 . S
N6754 C6756 1.356 . S
N6754 H6766 0.984 . S
N6754 H6767 0.985 . S
N6755 C6757 1.356 . S
N6755 H6760 0.984 . S
N6755 H6761 0.985 . S
C6756 C6750 1.379 . S
C6756 C6753 1.363 . S
C6756 N6754 1.356 . S
C6757 C6751 1.363 . S
C6757 C6752 1.379 . S
C6757 N6755 1.356 . S
N6758 C6750 1.356 . S
N6758 H6764 0.984 . S
N6758 H6765 0.984 . S
N6759 C6752 1.356 . S
N6759 H6762 0.984 . S
N6759 H6763 0.985 . S
H6760 N6755 0.984 . S
H6761 N6755 0.985 . S
H6762 N6759 0.984 . S
H6763 N6759 0.985 . S
H6764 N6758 0.984 . S
H6765 N6758 0.984 . S
H6766 N6754 0.984 . S
H6767 N6754 0.985 . S
C6768 C6769 1.363 . S
C6768 C6774 1.379 . S
C6768 N6776 1.356 . S
C6769 C6768 1.363 . S
C6769 C6775 1.363 . S
C6770 C6771 1.363 . S
C6770 C6775 1.379 . S
C6770 N6777 1.356 . S
C6771 C6770 1.363 . S
C6771 C6774 1.363 . S
N6772 C6774 1.356 . S
N6772 H6784 0.984 . S
N6772 H6785 0.985 . S
N6773 C6775 1.356 . S
N6773 H6778 0.984 . S
N6773 H6779 0.985 . S
C6774 C6768 1.379 . S
C6774 C6771 1.363 . S
C6774 N6772 1.356 . S
C6775 C6769 1.363 . S
C6775 C6770 1.379 . S
C6775 N6773 1.356 . S
N6776 C6768 1.356 . S
N6776 H6782 0.984 . S
N6776 H6783 0.984 . S
N6777 C6770 1.356 . S
N6777 H6780 0.984 . S
N6777 H6781 0.985 . S
H6778 N6773 0.984 . S
H6779 N6773 0.985 . S
H6780 N6777 0.984 . S
H6781 N6777 0.985 . S
H6782 N6776 0.984 . S
H6783 N6776 0.984 . S
H6784 N6772 0.984 . S
H6785 N6772 0.985 . S
C6786 C6787 1.363 . S
C6786 C6792 1.379 . S
C6786 N6794 1.356 . S
C6787 C6786 1.363 . S
C6787 C6793 1.363 . S
C6788 C6789 1.363 . S
C6788 C6793 1.379 . S
C6788 N6795 1.356 . S
C6789 C6788 1.363 . S
C6789 C6792 1.363 . S
N6790 C6792 1.356 . S
N6790 H6802 0.984 . S
N6790 H6803 0.985 . S
N6791 C6793 1.356 . S
N6791 H6796 0.984 . S
N6791 H6797 0.985 . S
C6792 C6786 1.379 . S
C6792 C6789 1.363 . S
C6792 N6790 1.356 . S
C6793 C6787 1.363 . S
C6793 C6788 1.379 . S
C6793 N6791 1.356 . S
N6794 C6786 1.356 . S
N6794 H6800 0.984 . S
N6794 H6801 0.984 . S
N6795 C6788 1.356 . S
N6795 H6798 0.984 . S
N6795 H6799 0.985 . S
H6796 N6791 0.984 . S
H6797 N6791 0.985 . S
H6798 N6795 0.984 . S
H6799 N6795 0.985 . S
H6800 N6794 0.984 . S
H6801 N6794 0.984 . S
H6802 N6790 0.984 . S
H6803 N6790 0.985 . S
C6804 C6805 1.363 . S
C6804 C6810 1.379 . S
C6804 N6812 1.356 . S
C6805 C6804 1.363 . S
C6805 C6811 1.363 . S
C6806 C6807 1.363 . S
C6806 C6811 1.379 . S
C6806 N6813 1.356 . S
C6807 C6806 1.363 . S
C6807 C6810 1.363 . S
N6808 C6810 1.356 . S
N6808 H6820 0.984 . S
N6808 H6821 0.985 . S
N6809 C6811 1.356 . S
N6809 H6814 0.984 . S
N6809 H6815 0.985 . S
C6810 C6804 1.379 . S
C6810 C6807 1.363 . S
C6810 N6808 1.356 . S
C6811 C6805 1.363 . S
C6811 C6806 1.379 . S
C6811 N6809 1.356 . S
N6812 C6804 1.356 . S
N6812 H6818 0.984 . S
N6812 H6819 0.984 . S
N6813 C6806 1.356 . S
N6813 H6816 0.984 . S
N6813 H6817 0.985 . S
H6814 N6809 0.984 . S
H6815 N6809 0.985 . S
H6816 N6813 0.984 . S
H6817 N6813 0.985 . S
H6818 N6812 0.984 . S
H6819 N6812 0.984 . S
H6820 N6808 0.984 . S
H6821 N6808 0.985 . S
C6822 C6823 1.363 . S
C6822 C6828 1.379 . S
C6822 N6830 1.356 . S
C6823 C6822 1.363 . S
C6823 C6829 1.363 . S
C6824 C6825 1.363 . S
C6824 C6829 1.379 . S
C6824 N6831 1.356 . S
C6825 C6824 1.363 . S
C6825 C6828 1.363 . S
N6826 C6828 1.356 . S
N6826 H6838 0.984 . S
N6826 H6839 0.985 . S
N6827 C6829 1.356 . S
N6827 H6832 0.984 . S
N6827 H6833 0.985 . S
C6828 C6822 1.379 . S
C6828 C6825 1.363 . S
C6828 N6826 1.356 . S
C6829 C6823 1.363 . S
C6829 C6824 1.379 . S
C6829 N6827 1.356 . S
N6830 C6822 1.356 . S
N6830 H6836 0.984 . S
N6830 H6837 0.984 . S
N6831 C6824 1.356 . S
N6831 H6834 0.984 . S
N6831 H6835 0.985 . S
H6832 N6827 0.984 . S
H6833 N6827 0.985 . S
H6834 N6831 0.984 . S
H6835 N6831 0.985 . S
H6836 N6830 0.984 . S
H6837 N6830 0.984 . S
H6838 N6826 0.984 . S
H6839 N6826 0.985 . S
C6840 C6841 1.363 . S
C6840 C6846 1.379 . S
C6840 N6848 1.356 . S
C6841 C6840 1.363 . S
C6841 C6847 1.363 . S
C6842 C6843 1.363 . S
C6842 C6847 1.379 . S
C6842 N6849 1.356 . S
C6843 C6842 1.363 . S
C6843 C6846 1.363 . S
N6844 C6846 1.356 . S
N6844 H6856 0.984 . S
N6844 H6857 0.985 . S
N6845 C6847 1.356 . S
N6845 H6850 0.984 . S
N6845 H6851 0.985 . S
C6846 C6840 1.379 . S
C6846 C6843 1.363 . S
C6846 N6844 1.356 . S
C6847 C6841 1.363 . S
C6847 C6842 1.379 . S
C6847 N6845 1.356 . S
N6848 C6840 1.356 . S
N6848 H6854 0.984 . S
N6848 H6855 0.984 . S
N6849 C6842 1.356 . S
N6849 H6852 0.984 . S
N6849 H6853 0.985 . S
H6850 N6845 0.984 . S
H6851 N6845 0.985 . S
H6852 N6849 0.984 . S
H6853 N6849 0.985 . S
H6854 N6848 0.984 . S
H6855 N6848 0.984 . S
H6856 N6844 0.984 . S
H6857 N6844 0.985 . S
C6858 C6859 1.363 . S
C6858 C6864 1.379 . S
C6858 N6866 1.356 . S
C6859 C6858 1.363 . S
C6859 C6865 1.363 . S
C6860 C6861 1.363 . S
C6860 C6865 1.379 . S
C6860 N6867 1.356 . S
C6861 C6860 1.363 . S
C6861 C6864 1.363 . S
N6862 C6864 1.356 . S
N6862 H6874 0.984 . S
N6862 H6875 0.985 . S
N6863 C6865 1.356 . S
N6863 H6868 0.984 . S
N6863 H6869 0.985 . S
C6864 C6858 1.379 . S
C6864 C6861 1.363 . S
C6864 N6862 1.356 . S
C6865 C6859 1.363 . S
C6865 C6860 1.379 . S
C6865 N6863 1.356 . S
N6866 C6858 1.356 . S
N6866 H6872 0.984 . S
N6866 H6873 0.984 . S
N6867 C6860 1.356 . S
N6867 H6870 0.984 . S
N6867 H6871 0.985 . S
H6868 N6863 0.984 . S
H6869 N6863 0.985 . S
H6870 N6867 0.984 . S
H6871 N6867 0.985 . S
H6872 N6866 0.984 . S
H6873 N6866 0.984 . S
H6874 N6862 0.984 . S
H6875 N6862 0.985 . S
C6876 C6877 1.363 . S
C6876 C6882 1.379 . S
C6876 N6884 1.356 . S
C6877 C6876 1.363 . S
C6877 C6883 1.363 . S
C6878 C6879 1.363 . S
C6878 C6883 1.379 . S
C6878 N6885 1.356 . S
C6879 C6878 1.363 . S
C6879 C6882 1.363 . S
N6880 C6882 1.356 . S
N6880 H6892 0.984 . S
N6880 H6893 0.985 . S
N6881 C6883 1.356 . S
N6881 H6886 0.984 . S
N6881 H6887 0.985 . S
C6882 C6876 1.379 . S
C6882 C6879 1.363 . S
C6882 N6880 1.356 . S
C6883 C6877 1.363 . S
C6883 C6878 1.379 . S
C6883 N6881 1.356 . S
N6884 C6876 1.356 . S
N6884 H6890 0.984 . S
N6884 H6891 0.984 . S
N6885 C6878 1.356 . S
N6885 H6888 0.984 . S
N6885 H6889 0.985 . S
H6886 N6881 0.984 . S
H6887 N6881 0.985 . S
H6888 N6885 0.984 . S
H6889 N6885 0.985 . S
H6890 N6884 0.984 . S
H6891 N6884 0.984 . S
H6892 N6880 0.984 . S
H6893 N6880 0.985 . S
C6894 C6895 1.363 . S
C6894 C6900 1.379 . S
C6894 N6902 1.356 . S
C6895 C6894 1.363 . S
C6895 C6901 1.363 . S
C6896 C6897 1.363 . S
C6896 C6901 1.379 . S
C6896 N6903 1.356 . S
C6897 C6896 1.363 . S
C6897 C6900 1.363 . S
N6898 C6900 1.356 . S
N6898 H6910 0.984 . S
N6898 H6911 0.985 . S
N6899 C6901 1.356 . S
N6899 H6904 0.984 . S
N6899 H6905 0.985 . S
C6900 C6894 1.379 . S
C6900 C6897 1.363 . S
C6900 N6898 1.356 . S
C6901 C6895 1.363 . S
C6901 C6896 1.379 . S
C6901 N6899 1.356 . S
N6902 C6894 1.356 . S
N6902 H6908 0.984 . S
N6902 H6909 0.984 . S
N6903 C6896 1.356 . S
N6903 H6906 0.984 . S
N6903 H6907 0.985 . S
H6904 N6899 0.984 . S
H6905 N6899 0.985 . S
H6906 N6903 0.984 . S
H6907 N6903 0.985 . S
H6908 N6902 0.984 . S
H6909 N6902 0.984 . S
H6910 N6898 0.984 . S
H6911 N6898 0.985 . S
C6912 C6913 1.363 . S
C6912 C6918 1.379 . S
C6912 N6920 1.356 . S
C6913 C6912 1.363 . S
C6913 C6919 1.363 . S
C6914 C6915 1.363 . S
C6914 C6919 1.379 . S
C6914 N6921 1.356 . S
C6915 C6914 1.363 . S
C6915 C6918 1.363 . S
N6916 C6918 1.356 . S
N6916 H6928 0.984 . S
N6916 H6929 0.985 . S
N6917 C6919 1.356 . S
N6917 H6922 0.984 . S
N6917 H6923 0.985 . S
C6918 C6912 1.379 . S
C6918 C6915 1.363 . S
C6918 N6916 1.356 . S
C6919 C6913 1.363 . S
C6919 C6914 1.379 . S
C6919 N6917 1.356 . S
N6920 C6912 1.356 . S
N6920 H6926 0.984 . S
N6920 H6927 0.984 . S
N6921 C6914 1.356 . S
N6921 H6924 0.984 . S
N6921 H6925 0.985 . S
H6922 N6917 0.984 . S
H6923 N6917 0.985 . S
H6924 N6921 0.984 . S
H6925 N6921 0.985 . S
H6926 N6920 0.984 . S
H6927 N6920 0.984 . S
H6928 N6916 0.984 . S
H6929 N6916 0.985 . S
C6930 C6931 1.363 . S
C6930 C6936 1.379 . S
C6930 N6938 1.356 . S
C6931 C6930 1.363 . S
C6931 C6937 1.363 . S
C6932 C6933 1.363 . S
C6932 C6937 1.379 . S
C6932 N6939 1.356 . S
C6933 C6932 1.363 . S
C6933 C6936 1.363 . S
N6934 C6936 1.356 . S
N6934 H6946 0.984 . S
N6934 H6947 0.985 . S
N6935 C6937 1.356 . S
N6935 H6940 0.984 . S
N6935 H6941 0.985 . S
C6936 C6930 1.379 . S
C6936 C6933 1.363 . S
C6936 N6934 1.356 . S
C6937 C6931 1.363 . S
C6937 C6932 1.379 . S
C6937 N6935 1.356 . S
N6938 C6930 1.356 . S
N6938 H6944 0.984 . S
N6938 H6945 0.984 . S
N6939 C6932 1.356 . S
N6939 H6942 0.984 . S
N6939 H6943 0.985 . S
H6940 N6935 0.984 . S
H6941 N6935 0.985 . S
H6942 N6939 0.984 . S
H6943 N6939 0.985 . S
H6944 N6938 0.984 . S
H6945 N6938 0.984 . S
H6946 N6934 0.984 . S
H6947 N6934 0.985 . S
C6948 C6949 1.363 . S
C6948 C6954 1.379 . S
C6948 N6956 1.356 . S
C6949 C6948 1.363 . S
C6949 C6955 1.363 . S
C6950 C6951 1.363 . S
C6950 C6955 1.379 . S
C6950 N6957 1.356 . S
C6951 C6950 1.363 . S
C6951 C6954 1.363 . S
N6952 C6954 1.356 . S
N6952 H6964 0.984 . S
N6952 H6965 0.985 . S
N6953 C6955 1.356 . S
N6953 H6958 0.984 . S
N6953 H6959 0.985 . S
C6954 C6948 1.379 . S
C6954 C6951 1.363 . S
C6954 N6952 1.356 . S
C6955 C6949 1.363 . S
C6955 C6950 1.379 . S
C6955 N6953 1.356 . S
N6956 C6948 1.356 . S
N6956 H6962 0.984 . S
N6956 H6963 0.984 . S
N6957 C6950 1.356 . S
N6957 H6960 0.984 . S
N6957 H6961 0.985 . S
H6958 N6953 0.984 . S
H6959 N6953 0.985 . S
H6960 N6957 0.984 . S
H6961 N6957 0.985 . S
H6962 N6956 0.984 . S
H6963 N6956 0.984 . S
H6964 N6952 0.984 . S
H6965 N6952 0.985 . S
C6966 C6967 1.363 . S
C6966 C6972 1.379 . S
C6966 N6974 1.356 . S
C6967 C6966 1.363 . S
C6967 C6973 1.363 . S
C6968 C6969 1.363 . S
C6968 C6973 1.379 . S
C6968 N6975 1.356 . S
C6969 C6968 1.363 . S
C6969 C6972 1.363 . S
N6970 C6972 1.356 . S
N6970 H6982 0.984 . S
N6970 H6983 0.985 . S
N6971 C6973 1.356 . S
N6971 H6976 0.984 . S
N6971 H6977 0.985 . S
C6972 C6966 1.379 . S
C6972 C6969 1.363 . S
C6972 N6970 1.356 . S
C6973 C6967 1.363 . S
C6973 C6968 1.379 . S
C6973 N6971 1.356 . S
N6974 C6966 1.356 . S
N6974 H6980 0.984 . S
N6974 H6981 0.984 . S
N6975 C6968 1.356 . S
N6975 H6978 0.984 . S
N6975 H6979 0.985 . S
H6976 N6971 0.984 . S
H6977 N6971 0.985 . S
H6978 N6975 0.984 . S
H6979 N6975 0.985 . S
H6980 N6974 0.984 . S
H6981 N6974 0.984 . S
H6982 N6970 0.984 . S
H6983 N6970 0.985 . S
C6984 C6985 1.363 . S
C6984 C6990 1.379 . S
C6984 N6992 1.356 . S
C6985 C6984 1.363 . S
C6985 C6991 1.363 . S
C6986 C6987 1.363 . S
C6986 C6991 1.379 . S
C6986 N6993 1.356 . S
C6987 C6986 1.363 . S
C6987 C6990 1.363 . S
N6988 C6990 1.356 . S
N6988 H7000 0.984 . S
N6988 H7001 0.985 . S
N6989 C6991 1.356 . S
N6989 H6994 0.984 . S
N6989 H6995 0.985 . S
C6990 C6984 1.379 . S
C6990 C6987 1.363 . S
C6990 N6988 1.356 . S
C6991 C6985 1.363 . S
C6991 C6986 1.379 . S
C6991 N6989 1.356 . S
N6992 C6984 1.356 . S
N6992 H6998 0.984 . S
N6992 H6999 0.984 . S
N6993 C6986 1.356 . S
N6993 H6996 0.984 . S
N6993 H6997 0.985 . S
H6994 N6989 0.984 . S
H6995 N6989 0.985 . S
H6996 N6993 0.984 . S
H6997 N6993 0.985 . S
H6998 N6992 0.984 . S
H6999 N6992 0.984 . S
H7000 N6988 0.984 . S
H7001 N6988 0.985 . S
C7002 C7003 1.363 . S
C7002 C7008 1.379 . S
C7002 N7010 1.356 . S
C7003 C7002 1.363 . S
C7003 C7009 1.363 . S
C7004 C7005 1.363 . S
C7004 C7009 1.379 . S
C7004 N7011 1.356 . S
C7005 C7004 1.363 . S
C7005 C7008 1.363 . S
N7006 C7008 1.356 . S
N7006 H7018 0.984 . S
N7006 H7019 0.985 . S
N7007 C7009 1.356 . S
N7007 H7012 0.984 . S
N7007 H7013 0.985 . S
C7008 C7002 1.379 . S
C7008 C7005 1.363 . S
C7008 N7006 1.356 . S
C7009 C7003 1.363 . S
C7009 C7004 1.379 . S
C7009 N7007 1.356 . S
N7010 C7002 1.356 . S
N7010 H7016 0.984 . S
N7010 H7017 0.984 . S
N7011 C7004 1.356 . S
N7011 H7014 0.984 . S
N7011 H7015 0.985 . S
H7012 N7007 0.984 . S
H7013 N7007 0.985 . S
H7014 N7011 0.984 . S
H7015 N7011 0.985 . S
H7016 N7010 0.984 . S
H7017 N7010 0.984 . S
H7018 N7006 0.984 . S
H7019 N7006 0.985 . S
C7020 C7021 1.363 . S
C7020 C7026 1.379 . S
C7020 N7028 1.356 . S
C7021 C7020 1.363 . S
C7021 C7027 1.363 . S
C7022 C7023 1.363 . S
C7022 C7027 1.379 . S
C7022 N7029 1.356 . S
C7023 C7022 1.363 . S
C7023 C7026 1.363 . S
N7024 C7026 1.356 . S
N7024 H7036 0.984 . S
N7024 H7037 0.985 . S
N7025 C7027 1.356 . S
N7025 H7030 0.984 . S
N7025 H7031 0.985 . S
C7026 C7020 1.379 . S
C7026 C7023 1.363 . S
C7026 N7024 1.356 . S
C7027 C7021 1.363 . S
C7027 C7022 1.379 . S
C7027 N7025 1.356 . S
N7028 C7020 1.356 . S
N7028 H7034 0.984 . S
N7028 H7035 0.984 . S
N7029 C7022 1.356 . S
N7029 H7032 0.984 . S
N7029 H7033 0.985 . S
H7030 N7025 0.984 . S
H7031 N7025 0.985 . S
H7032 N7029 0.984 . S
H7033 N7029 0.985 . S
H7034 N7028 0.984 . S
H7035 N7028 0.984 . S
H7036 N7024 0.984 . S
H7037 N7024 0.985 . S
C7038 C7039 1.363 . S
C7038 C7044 1.379 . S
C7038 N7046 1.356 . S
C7039 C7038 1.363 . S
C7039 C7045 1.363 . S
C7040 C7041 1.363 . S
C7040 C7045 1.379 . S
C7040 N7047 1.356 . S
C7041 C7040 1.363 . S
C7041 C7044 1.363 . S
N7042 C7044 1.356 . S
N7042 H7054 0.984 . S
N7042 H7055 0.985 . S
N7043 C7045 1.356 . S
N7043 H7048 0.984 . S
N7043 H7049 0.985 . S
C7044 C7038 1.379 . S
C7044 C7041 1.363 . S
C7044 N7042 1.356 . S
C7045 C7039 1.363 . S
C7045 C7040 1.379 . S
C7045 N7043 1.356 . S
N7046 C7038 1.356 . S
N7046 H7052 0.984 . S
N7046 H7053 0.984 . S
N7047 C7040 1.356 . S
N7047 H7050 0.984 . S
N7047 H7051 0.985 . S
H7048 N7043 0.984 . S
H7049 N7043 0.985 . S
H7050 N7047 0.984 . S
H7051 N7047 0.985 . S
H7052 N7046 0.984 . S
H7053 N7046 0.984 . S
H7054 N7042 0.984 . S
H7055 N7042 0.985 . S
C7056 C7057 1.363 . S
C7056 C7062 1.379 . S
C7056 N7064 1.356 . S
C7057 C7056 1.363 . S
C7057 C7063 1.363 . S
C7058 C7059 1.363 . S
C7058 C7063 1.379 . S
C7058 N7065 1.356 . S
C7059 C7058 1.363 . S
C7059 C7062 1.363 . S
N7060 C7062 1.356 . S
N7060 H7072 0.984 . S
N7060 H7073 0.985 . S
N7061 C7063 1.356 . S
N7061 H7066 0.984 . S
N7061 H7067 0.985 . S
C7062 C7056 1.379 . S
C7062 C7059 1.363 . S
C7062 N7060 1.356 . S
C7063 C7057 1.363 . S
C7063 C7058 1.379 . S
C7063 N7061 1.356 . S
N7064 C7056 1.356 . S
N7064 H7070 0.984 . S
N7064 H7071 0.984 . S
N7065 C7058 1.356 . S
N7065 H7068 0.984 . S
N7065 H7069 0.985 . S
H7066 N7061 0.984 . S
H7067 N7061 0.985 . S
H7068 N7065 0.984 . S
H7069 N7065 0.985 . S
H7070 N7064 0.984 . S
H7071 N7064 0.984 . S
H7072 N7060 0.984 . S
H7073 N7060 0.985 . S
C7074 C7075 1.363 . S
C7074 C7080 1.379 . S
C7074 N7082 1.356 . S
C7075 C7074 1.363 . S
C7075 C7081 1.363 . S
C7076 C7077 1.363 . S
C7076 C7081 1.379 . S
C7076 N7083 1.356 . S
C7077 C7076 1.363 . S
C7077 C7080 1.363 . S
N7078 C7080 1.356 . S
N7078 H7090 0.984 . S
N7078 H7091 0.985 . S
N7079 C7081 1.356 . S
N7079 H7084 0.984 . S
N7079 H7085 0.985 . S
C7080 C7074 1.379 . S
C7080 C7077 1.363 . S
C7080 N7078 1.356 . S
C7081 C7075 1.363 . S
C7081 C7076 1.379 . S
C7081 N7079 1.356 . S
N7082 C7074 1.356 . S
N7082 H7088 0.984 . S
N7082 H7089 0.984 . S
N7083 C7076 1.356 . S
N7083 H7086 0.984 . S
N7083 H7087 0.985 . S
H7084 N7079 0.984 . S
H7085 N7079 0.985 . S
H7086 N7083 0.984 . S
H7087 N7083 0.985 . S
H7088 N7082 0.984 . S
H7089 N7082 0.984 . S
H7090 N7078 0.984 . S
H7091 N7078 0.985 . S
C7092 C7093 1.363 . S
C7092 C7098 1.379 . S
C7092 N7100 1.356 . S
C7093 C7092 1.363 . S
C7093 C7099 1.363 . S
C7094 C7095 1.363 . S
C7094 C7099 1.379 . S
C7094 N7101 1.356 . S
C7095 C7094 1.363 . S
C7095 C7098 1.363 . S
N7096 C7098 1.356 . S
N7096 H7108 0.984 . S
N7096 H7109 0.985 . S
N7097 C7099 1.356 . S
N7097 H7102 0.984 . S
N7097 H7103 0.985 . S
C7098 C7092 1.379 . S
C7098 C7095 1.363 . S
C7098 N7096 1.356 . S
C7099 C7093 1.363 . S
C7099 C7094 1.379 . S
C7099 N7097 1.356 . S
N7100 C7092 1.356 . S
N7100 H7106 0.984 . S
N7100 H7107 0.984 . S
N7101 C7094 1.356 . S
N7101 H7104 0.984 . S
N7101 H7105 0.985 . S
H7102 N7097 0.984 . S
H7103 N7097 0.985 . S
H7104 N7101 0.984 . S
H7105 N7101 0.985 . S
H7106 N7100 0.984 . S
H7107 N7100 0.984 . S
H7108 N7096 0.984 . S
H7109 N7096 0.985 . S
C7110 C7111 1.363 . S
C7110 C7116 1.379 . S
C7110 N7118 1.356 . S
C7111 C7110 1.363 . S
C7111 C7117 1.363 . S
C7112 C7113 1.363 . S
C7112 C7117 1.379 . S
C7112 N7119 1.356 . S
C7113 C7112 1.363 . S
C7113 C7116 1.363 . S
N7114 C7116 1.356 . S
N7114 H7126 0.984 . S
N7114 H7127 0.985 . S
N7115 C7117 1.356 . S
N7115 H7120 0.984 . S
N7115 H7121 0.985 . S
C7116 C7110 1.379 . S
C7116 C7113 1.363 . S
C7116 N7114 1.356 . S
C7117 C7111 1.363 . S
C7117 C7112 1.379 . S
C7117 N7115 1.356 . S
N7118 C7110 1.356 . S
N7118 H7124 0.984 . S
N7118 H7125 0.984 . S
N7119 C7112 1.356 . S
N7119 H7122 0.984 . S
N7119 H7123 0.985 . S
H7120 N7115 0.984 . S
H7121 N7115 0.985 . S
H7122 N7119 0.984 . S
H7123 N7119 0.985 . S
H7124 N7118 0.984 . S
H7125 N7118 0.984 . S
H7126 N7114 0.984 . S
H7127 N7114 0.985 . S
C7128 C7129 1.363 . S
C7128 C7134 1.379 . S
C7128 N7136 1.356 . S
C7129 C7128 1.363 . S
C7129 C7135 1.363 . S
C7130 C7131 1.363 . S
C7130 C7135 1.379 . S
C7130 N7137 1.356 . S
C7131 C7130 1.363 . S
C7131 C7134 1.363 . S
N7132 C7134 1.356 . S
N7132 H7144 0.984 . S
N7132 H7145 0.985 . S
N7133 C7135 1.356 . S
N7133 H7138 0.984 . S
N7133 H7139 0.985 . S
C7134 C7128 1.379 . S
C7134 C7131 1.363 . S
C7134 N7132 1.356 . S
C7135 C7129 1.363 . S
C7135 C7130 1.379 . S
C7135 N7133 1.356 . S
N7136 C7128 1.356 . S
N7136 H7142 0.984 . S
N7136 H7143 0.984 . S
N7137 C7130 1.356 . S
N7137 H7140 0.984 . S
N7137 H7141 0.985 . S
H7138 N7133 0.984 . S
H7139 N7133 0.985 . S
H7140 N7137 0.984 . S
H7141 N7137 0.985 . S
H7142 N7136 0.984 . S
H7143 N7136 0.984 . S
H7144 N7132 0.984 . S
H7145 N7132 0.985 . S
C7146 C7147 1.363 . S
C7146 C7152 1.379 . S
C7146 N7154 1.356 . S
C7147 C7146 1.363 . S
C7147 C7153 1.363 . S
C7148 C7149 1.363 . S
C7148 C7153 1.379 . S
C7148 N7155 1.356 . S
C7149 C7148 1.363 . S
C7149 C7152 1.363 . S
N7150 C7152 1.356 . S
N7150 H7162 0.984 . S
N7150 H7163 0.985 . S
N7151 C7153 1.356 . S
N7151 H7156 0.984 . S
N7151 H7157 0.985 . S
C7152 C7146 1.379 . S
C7152 C7149 1.363 . S
C7152 N7150 1.356 . S
C7153 C7147 1.363 . S
C7153 C7148 1.379 . S
C7153 N7151 1.356 . S
N7154 C7146 1.356 . S
N7154 H7160 0.984 . S
N7154 H7161 0.984 . S
N7155 C7148 1.356 . S
N7155 H7158 0.984 . S
N7155 H7159 0.985 . S
H7156 N7151 0.984 . S
H7157 N7151 0.985 . S
H7158 N7155 0.984 . S
H7159 N7155 0.985 . S
H7160 N7154 0.984 . S
H7161 N7154 0.984 . S
H7162 N7150 0.984 . S
H7163 N7150 0.985 . S
C7164 C7165 1.363 . S
C7164 C7170 1.379 . S
C7164 N7172 1.356 . S
C7165 C7164 1.363 . S
C7165 C7171 1.363 . S
C7166 C7167 1.363 . S
C7166 C7171 1.379 . S
C7166 N7173 1.356 . S
C7167 C7166 1.363 . S
C7167 C7170 1.363 . S
N7168 C7170 1.356 . S
N7168 H7180 0.984 . S
N7168 H7181 0.985 . S
N7169 C7171 1.356 . S
N7169 H7174 0.984 . S
N7169 H7175 0.985 . S
C7170 C7164 1.379 . S
C7170 C7167 1.363 . S
C7170 N7168 1.356 . S
C7171 C7165 1.363 . S
C7171 C7166 1.379 . S
C7171 N7169 1.356 . S
N7172 C7164 1.356 . S
N7172 H7178 0.984 . S
N7172 H7179 0.984 . S
N7173 C7166 1.356 . S
N7173 H7176 0.984 . S
N7173 H7177 0.985 . S
H7174 N7169 0.984 . S
H7175 N7169 0.985 . S
H7176 N7173 0.984 . S
H7177 N7173 0.985 . S
H7178 N7172 0.984 . S
H7179 N7172 0.984 . S
H7180 N7168 0.984 . S
H7181 N7168 0.985 . S
C7182 C7183 1.363 . S
C7182 C7188 1.379 . S
C7182 N7190 1.356 . S
C7183 C7182 1.363 . S
C7183 C7189 1.363 . S
C7184 C7185 1.363 . S
C7184 C7189 1.379 . S
C7184 N7191 1.356 . S
C7185 C7184 1.363 . S
C7185 C7188 1.363 . S
N7186 C7188 1.356 . S
N7186 H7198 0.984 . S
N7186 H7199 0.985 . S
N7187 C7189 1.356 . S
N7187 H7192 0.984 . S
N7187 H7193 0.985 . S
C7188 C7182 1.379 . S
C7188 C7185 1.363 . S
C7188 N7186 1.356 . S
C7189 C7183 1.363 . S
C7189 C7184 1.379 . S
C7189 N7187 1.356 . S
N7190 C7182 1.356 . S
N7190 H7196 0.984 . S
N7190 H7197 0.984 . S
N7191 C7184 1.356 . S
N7191 H7194 0.984 . S
N7191 H7195 0.985 . S
H7192 N7187 0.984 . S
H7193 N7187 0.985 . S
H7194 N7191 0.984 . S
H7195 N7191 0.985 . S
H7196 N7190 0.984 . S
H7197 N7190 0.984 . S
H7198 N7186 0.984 . S
H7199 N7186 0.985 . S
C7200 C7201 1.363 . S
C7200 C7206 1.379 . S
C7200 N7208 1.356 . S
C7201 C7200 1.363 . S
C7201 C7207 1.363 . S
C7202 C7203 1.363 . S
C7202 C7207 1.379 . S
C7202 N7209 1.356 . S
C7203 C7202 1.363 . S
C7203 C7206 1.363 . S
N7204 C7206 1.356 . S
N7204 H7216 0.984 . S
N7204 H7217 0.985 . S
N7205 C7207 1.356 . S
N7205 H7210 0.984 . S
N7205 H7211 0.985 . S
C7206 C7200 1.379 . S
C7206 C7203 1.363 . S
C7206 N7204 1.356 . S
C7207 C7201 1.363 . S
C7207 C7202 1.379 . S
C7207 N7205 1.356 . S
N7208 C7200 1.356 . S
N7208 H7214 0.984 . S
N7208 H7215 0.984 . S
N7209 C7202 1.356 . S
N7209 H7212 0.984 . S
N7209 H7213 0.985 . S
H7210 N7205 0.984 . S
H7211 N7205 0.985 . S
H7212 N7209 0.984 . S
H7213 N7209 0.985 . S
H7214 N7208 0.984 . S
H7215 N7208 0.984 . S
H7216 N7204 0.984 . S
H7217 N7204 0.985 . S
C7218 C7219 1.363 . S
C7218 C7224 1.379 . S
C7218 N7226 1.356 . S
C7219 C7218 1.363 . S
C7219 C7225 1.363 . S
C7220 C7221 1.363 . S
C7220 C7225 1.379 . S
C7220 N7227 1.356 . S
C7221 C7220 1.363 . S
C7221 C7224 1.363 . S
N7222 C7224 1.356 . S
N7222 H7234 0.984 . S
N7222 H7235 0.985 . S
N7223 C7225 1.356 . S
N7223 H7228 0.984 . S
N7223 H7229 0.985 . S
C7224 C7218 1.379 . S
C7224 C7221 1.363 . S
C7224 N7222 1.356 . S
C7225 C7219 1.363 . S
C7225 C7220 1.379 . S
C7225 N7223 1.356 . S
N7226 C7218 1.356 . S
N7226 H7232 0.984 . S
N7226 H7233 0.984 . S
N7227 C7220 1.356 . S
N7227 H7230 0.984 . S
N7227 H7231 0.985 . S
H7228 N7223 0.984 . S
H7229 N7223 0.985 . S
H7230 N7227 0.984 . S
H7231 N7227 0.985 . S
H7232 N7226 0.984 . S
H7233 N7226 0.984 . S
H7234 N7222 0.984 . S
H7235 N7222 0.985 . S
C7236 C7237 1.363 . S
C7236 C7242 1.379 . S
C7236 N7244 1.356 . S
C7237 C7236 1.363 . S
C7237 C7243 1.363 . S
C7238 C7239 1.363 . S
C7238 C7243 1.379 . S
C7238 N7245 1.356 . S
C7239 C7238 1.363 . S
C7239 C7242 1.363 . S
N7240 C7242 1.356 . S
N7240 H7252 0.984 . S
N7240 H7253 0.985 . S
N7241 C7243 1.356 . S
N7241 H7246 0.984 . S
N7241 H7247 0.985 . S
C7242 C7236 1.379 . S
C7242 C7239 1.363 . S
C7242 N7240 1.356 . S
C7243 C7237 1.363 . S
C7243 C7238 1.379 . S
C7243 N7241 1.356 . S
N7244 C7236 1.356 . S
N7244 H7250 0.984 . S
N7244 H7251 0.984 . S
N7245 C7238 1.356 . S
N7245 H7248 0.984 . S
N7245 H7249 0.985 . S
H7246 N7241 0.984 . S
H7247 N7241 0.985 . S
H7248 N7245 0.984 . S
H7249 N7245 0.985 . S
H7250 N7244 0.984 . S
H7251 N7244 0.984 . S
H7252 N7240 0.984 . S
H7253 N7240 0.985 . S
C7254 C7255 1.363 . S
C7254 C7260 1.379 . S
C7254 N7262 1.356 . S
C7255 C7254 1.363 . S
C7255 C7261 1.363 . S
C7256 C7257 1.363 . S
C7256 C7261 1.379 . S
C7256 N7263 1.356 . S
C7257 C7256 1.363 . S
C7257 C7260 1.363 . S
N7258 C7260 1.356 . S
N7258 H7270 0.984 . S
N7258 H7271 0.985 . S
N7259 C7261 1.356 . S
N7259 H7264 0.984 . S
N7259 H7265 0.985 . S
C7260 C7254 1.379 . S
C7260 C7257 1.363 . S
C7260 N7258 1.356 . S
C7261 C7255 1.363 . S
C7261 C7256 1.379 . S
C7261 N7259 1.356 . S
N7262 C7254 1.356 . S
N7262 H7268 0.984 . S
N7262 H7269 0.984 . S
N7263 C7256 1.356 . S
N7263 H7266 0.984 . S
N7263 H7267 0.985 . S
H7264 N7259 0.984 . S
H7265 N7259 0.985 . S
H7266 N7263 0.984 . S
H7267 N7263 0.985 . S
H7268 N7262 0.984 . S
H7269 N7262 0.984 . S
H7270 N7258 0.984 . S
H7271 N7258 0.985 . S
C7272 C7273 1.363 . S
C7272 C7278 1.379 . S
C7272 N7280 1.356 . S
C7273 C7272 1.363 . S
C7273 C7279 1.363 . S
C7274 C7275 1.363 . S
C7274 C7279 1.379 . S
C7274 N7281 1.356 . S
C7275 C7274 1.363 . S
C7275 C7278 1.363 . S
N7276 C7278 1.356 . S
N7276 H7288 0.984 . S
N7276 H7289 0.985 . S
N7277 C7279 1.356 . S
N7277 H7282 0.984 . S
N7277 H7283 0.985 . S
C7278 C7272 1.379 . S
C7278 C7275 1.363 . S
C7278 N7276 1.356 . S
C7279 C7273 1.363 . S
C7279 C7274 1.379 . S
C7279 N7277 1.356 . S
N7280 C7272 1.356 . S
N7280 H7286 0.984 . S
N7280 H7287 0.984 . S
N7281 C7274 1.356 . S
N7281 H7284 0.984 . S
N7281 H7285 0.985 . S
H7282 N7277 0.984 . S
H7283 N7277 0.985 . S
H7284 N7281 0.984 . S
H7285 N7281 0.985 . S
H7286 N7280 0.984 . S
H7287 N7280 0.984 . S
H7288 N7276 0.984 . S
H7289 N7276 0.985 . S
C7290 C7291 1.363 . S
C7290 C7296 1.379 . S
C7290 N7298 1.356 . S
C7291 C7290 1.363 . S
C7291 C7297 1.363 . S
C7292 C7293 1.363 . S
C7292 C7297 1.379 . S
C7292 N7299 1.356 . S
C7293 C7292 1.363 . S
C7293 C7296 1.363 . S
N7294 C7296 1.356 . S
N7294 H7306 0.984 . S
N7294 H7307 0.985 . S
N7295 C7297 1.356 . S
N7295 H7300 0.984 . S
N7295 H7301 0.985 . S
C7296 C7290 1.379 . S
C7296 C7293 1.363 . S
C7296 N7294 1.356 . S
C7297 C7291 1.363 . S
C7297 C7292 1.379 . S
C7297 N7295 1.356 . S
N7298 C7290 1.356 . S
N7298 H7304 0.984 . S
N7298 H7305 0.984 . S
N7299 C7292 1.356 . S
N7299 H7302 0.984 . S
N7299 H7303 0.985 . S
H7300 N7295 0.984 . S
H7301 N7295 0.985 . S
H7302 N7299 0.984 . S
H7303 N7299 0.985 . S
H7304 N7298 0.984 . S
H7305 N7298 0.984 . S
H7306 N7294 0.984 . S
H7307 N7294 0.985 . S
C7308 C7309 1.363 . S
C7308 C7314 1.379 . S
C7308 N7316 1.356 . S
C7309 C7308 1.363 . S
C7309 C7315 1.363 . S
C7310 C7311 1.363 . S
C7310 C7315 1.379 . S
C7310 N7317 1.356 . S
C7311 C7310 1.363 . S
C7311 C7314 1.363 . S
N7312 C7314 1.356 . S
N7312 H7324 0.984 . S
N7312 H7325 0.985 . S
N7313 C7315 1.356 . S
N7313 H7318 0.984 . S
N7313 H7319 0.985 . S
C7314 C7308 1.379 . S
C7314 C7311 1.363 . S
C7314 N7312 1.356 . S
C7315 C7309 1.363 . S
C7315 C7310 1.379 . S
C7315 N7313 1.356 . S
N7316 C7308 1.356 . S
N7316 H7322 0.984 . S
N7316 H7323 0.984 . S
N7317 C7310 1.356 . S
N7317 H7320 0.984 . S
N7317 H7321 0.985 . S
H7318 N7313 0.984 . S
H7319 N7313 0.985 . S
H7320 N7317 0.984 . S
H7321 N7317 0.985 . S
H7322 N7316 0.984 . S
H7323 N7316 0.984 . S
H7324 N7312 0.984 . S
H7325 N7312 0.985 . S
C7326 C7327 1.363 . S
C7326 C7332 1.379 . S
C7326 N7334 1.356 . S
C7327 C7326 1.363 . S
C7327 C7333 1.363 . S
C7328 C7329 1.363 . S
C7328 C7333 1.379 . S
C7328 N7335 1.356 . S
C7329 C7328 1.363 . S
C7329 C7332 1.363 . S
N7330 C7332 1.356 . S
N7330 H7342 0.984 . S
N7330 H7343 0.985 . S
N7331 C7333 1.356 . S
N7331 H7336 0.984 . S
N7331 H7337 0.985 . S
C7332 C7326 1.379 . S
C7332 C7329 1.363 . S
C7332 N7330 1.356 . S
C7333 C7327 1.363 . S
C7333 C7328 1.379 . S
C7333 N7331 1.356 . S
N7334 C7326 1.356 . S
N7334 H7340 0.984 . S
N7334 H7341 0.984 . S
N7335 C7328 1.356 . S
N7335 H7338 0.984 . S
N7335 H7339 0.985 . S
H7336 N7331 0.984 . S
H7337 N7331 0.985 . S
H7338 N7335 0.984 . S
H7339 N7335 0.985 . S
H7340 N7334 0.984 . S
H7341 N7334 0.984 . S
H7342 N7330 0.984 . S
H7343 N7330 0.985 . S
C7344 C7345 1.363 . S
C7344 C7350 1.379 . S
C7344 N7352 1.356 . S
C7345 C7344 1.363 . S
C7345 C7351 1.363 . S
C7346 C7347 1.363 . S
C7346 C7351 1.379 . S
C7346 N7353 1.356 . S
C7347 C7346 1.363 . S
C7347 C7350 1.363 . S
N7348 C7350 1.356 . S
N7348 H7360 0.984 . S
N7348 H7361 0.985 . S
N7349 C7351 1.356 . S
N7349 H7354 0.984 . S
N7349 H7355 0.985 . S
C7350 C7344 1.379 . S
C7350 C7347 1.363 . S
C7350 N7348 1.356 . S
C7351 C7345 1.363 . S
C7351 C7346 1.379 . S
C7351 N7349 1.356 . S
N7352 C7344 1.356 . S
N7352 H7358 0.984 . S
N7352 H7359 0.984 . S
N7353 C7346 1.356 . S
N7353 H7356 0.984 . S
N7353 H7357 0.985 . S
H7354 N7349 0.984 . S
H7355 N7349 0.985 . S
H7356 N7353 0.984 . S
H7357 N7353 0.985 . S
H7358 N7352 0.984 . S
H7359 N7352 0.984 . S
H7360 N7348 0.984 . S
H7361 N7348 0.985 . S
C7362 C7363 1.363 . S
C7362 C7368 1.379 . S
C7362 N7370 1.356 . S
C7363 C7362 1.363 . S
C7363 C7369 1.363 . S
C7364 C7365 1.363 . S
C7364 C7369 1.379 . S
C7364 N7371 1.356 . S
C7365 C7364 1.363 . S
C7365 C7368 1.363 . S
N7366 C7368 1.356 . S
N7366 H7378 0.984 . S
N7366 H7379 0.985 . S
N7367 C7369 1.356 . S
N7367 H7372 0.984 . S
N7367 H7373 0.985 . S
C7368 C7362 1.379 . S
C7368 C7365 1.363 . S
C7368 N7366 1.356 . S
C7369 C7363 1.363 . S
C7369 C7364 1.379 . S
C7369 N7367 1.356 . S
N7370 C7362 1.356 . S
N7370 H7376 0.984 . S
N7370 H7377 0.984 . S
N7371 C7364 1.356 . S
N7371 H7374 0.984 . S
N7371 H7375 0.985 . S
H7372 N7367 0.984 . S
H7373 N7367 0.985 . S
H7374 N7371 0.984 . S
H7375 N7371 0.985 . S
H7376 N7370 0.984 . S
H7377 N7370 0.984 . S
H7378 N7366 0.984 . S
H7379 N7366 0.985 . S
C7380 C7381 1.363 . S
C7380 C7386 1.379 . S
C7380 N7388 1.356 . S
C7381 C7380 1.363 . S
C7381 C7387 1.363 . S
C7382 C7383 1.363 . S
C7382 C7387 1.379 . S
C7382 N7389 1.356 . S
C7383 C7382 1.363 . S
C7383 C7386 1.363 . S
N7384 C7386 1.356 . S
N7384 H7396 0.984 . S
N7384 H7397 0.985 . S
N7385 C7387 1.356 . S
N7385 H7390 0.984 . S
N7385 H7391 0.985 . S
C7386 C7380 1.379 . S
C7386 C7383 1.363 . S
C7386 N7384 1.356 . S
C7387 C7381 1.363 . S
C7387 C7382 1.379 . S
C7387 N7385 1.356 . S
N7388 C7380 1.356 . S
N7388 H7394 0.984 . S
N7388 H7395 0.984 . S
N7389 C7382 1.356 . S
N7389 H7392 0.984 . S
N7389 H7393 0.985 . S
H7390 N7385 0.984 . S
H7391 N7385 0.985 . S
H7392 N7389 0.984 . S
H7393 N7389 0.985 . S
H7394 N7388 0.984 . S
H7395 N7388 0.984 . S
H7396 N7384 0.984 . S
H7397 N7384 0.985 . S
C7398 C7399 1.363 . S
C7398 C7404 1.379 . S
C7398 N7406 1.356 . S
C7399 C7398 1.363 . S
C7399 C7405 1.363 . S
C7400 C7401 1.363 . S
C7400 C7405 1.379 . S
C7400 N7407 1.356 . S
C7401 C7400 1.363 . S
C7401 C7404 1.363 . S
N7402 C7404 1.356 . S
N7402 H7414 0.984 . S
N7402 H7415 0.985 . S
N7403 C7405 1.356 . S
N7403 H7408 0.984 . S
N7403 H7409 0.985 . S
C7404 C7398 1.379 . S
C7404 C7401 1.363 . S
C7404 N7402 1.356 . S
C7405 C7399 1.363 . S
C7405 C7400 1.379 . S
C7405 N7403 1.356 . S
N7406 C7398 1.356 . S
N7406 H7412 0.984 . S
N7406 H7413 0.984 . S
N7407 C7400 1.356 . S
N7407 H7410 0.984 . S
N7407 H7411 0.985 . S
H7408 N7403 0.984 . S
H7409 N7403 0.985 . S
H7410 N7407 0.984 . S
H7411 N7407 0.985 . S
H7412 N7406 0.984 . S
H7413 N7406 0.984 . S
H7414 N7402 0.984 . S
H7415 N7402 0.985 . S
C7416 C7417 1.363 . S
C7416 C7422 1.379 . S
C7416 N7424 1.356 . S
C7417 C7416 1.363 . S
C7417 C7423 1.363 . S
C7418 C7419 1.363 . S
C7418 C7423 1.379 . S
C7418 N7425 1.356 . S
C7419 C7418 1.363 . S
C7419 C7422 1.363 . S
N7420 C7422 1.356 . S
N7420 H7432 0.984 . S
N7420 H7433 0.985 . S
N7421 C7423 1.356 . S
N7421 H7426 0.984 . S
N7421 H7427 0.985 . S
C7422 C7416 1.379 . S
C7422 C7419 1.363 . S
C7422 N7420 1.356 . S
C7423 C7417 1.363 . S
C7423 C7418 1.379 . S
C7423 N7421 1.356 . S
N7424 C7416 1.356 . S
N7424 H7430 0.984 . S
N7424 H7431 0.984 . S
N7425 C7418 1.356 . S
N7425 H7428 0.984 . S
N7425 H7429 0.985 . S
H7426 N7421 0.984 . S
H7427 N7421 0.985 . S
H7428 N7425 0.984 . S
H7429 N7425 0.985 . S
H7430 N7424 0.984 . S
H7431 N7424 0.984 . S
H7432 N7420 0.984 . S
H7433 N7420 0.985 . S
C7434 C7435 1.363 . S
C7434 C7440 1.379 . S
C7434 N7442 1.356 . S
C7435 C7434 1.363 . S
C7435 C7441 1.363 . S
C7436 C7437 1.363 . S
C7436 C7441 1.379 . S
C7436 N7443 1.356 . S
C7437 C7436 1.363 . S
C7437 C7440 1.363 . S
N7438 C7440 1.356 . S
N7438 H7450 0.984 . S
N7438 H7451 0.985 . S
N7439 C7441 1.356 . S
N7439 H7444 0.984 . S
N7439 H7445 0.985 . S
C7440 C7434 1.379 . S
C7440 C7437 1.363 . S
C7440 N7438 1.356 . S
C7441 C7435 1.363 . S
C7441 C7436 1.379 . S
C7441 N7439 1.356 . S
N7442 C7434 1.356 . S
N7442 H7448 0.984 . S
N7442 H7449 0.984 . S
N7443 C7436 1.356 . S
N7443 H7446 0.984 . S
N7443 H7447 0.985 . S
H7444 N7439 0.984 . S
H7445 N7439 0.985 . S
H7446 N7443 0.984 . S
H7447 N7443 0.985 . S
H7448 N7442 0.984 . S
H7449 N7442 0.984 . S
H7450 N7438 0.984 . S
H7451 N7438 0.985 . S
C7452 C7453 1.363 . S
C7452 C7458 1.379 . S
C7452 N7460 1.356 . S
C7453 C7452 1.363 . S
C7453 C7459 1.363 . S
C7454 C7455 1.363 . S
C7454 C7459 1.379 . S
C7454 N7461 1.356 . S
C7455 C7454 1.363 . S
C7455 C7458 1.363 . S
N7456 C7458 1.356 . S
N7456 H7468 0.984 . S
N7456 H7469 0.985 . S
N7457 C7459 1.356 . S
N7457 H7462 0.984 . S
N7457 H7463 0.985 . S
C7458 C7452 1.379 . S
C7458 C7455 1.363 . S
C7458 N7456 1.356 . S
C7459 C7453 1.363 . S
C7459 C7454 1.379 . S
C7459 N7457 1.356 . S
N7460 C7452 1.356 . S
N7460 H7466 0.984 . S
N7460 H7467 0.984 . S
N7461 C7454 1.356 . S
N7461 H7464 0.984 . S
N7461 H7465 0.985 . S
H7462 N7457 0.984 . S
H7463 N7457 0.985 . S
H7464 N7461 0.984 . S
H7465 N7461 0.985 . S
H7466 N7460 0.984 . S
H7467 N7460 0.984 . S
H7468 N7456 0.984 . S
H7469 N7456 0.985 . S
C7470 C7471 1.363 . S
C7470 C7476 1.379 . S
C7470 N7478 1.356 . S
C7471 C7470 1.363 . S
C7471 C7477 1.363 . S
C7472 C7473 1.363 . S
C7472 C7477 1.379 . S
C7472 N7479 1.356 . S
C7473 C7472 1.363 . S
C7473 C7476 1.363 . S
N7474 C7476 1.356 . S
N7474 H7486 0.984 . S
N7474 H7487 0.985 . S
N7475 C7477 1.356 . S
N7475 H7480 0.984 . S
N7475 H7481 0.985 . S
C7476 C7470 1.379 . S
C7476 C7473 1.363 . S
C7476 N7474 1.356 . S
C7477 C7471 1.363 . S
C7477 C7472 1.379 . S
C7477 N7475 1.356 . S
N7478 C7470 1.356 . S
N7478 H7484 0.984 . S
N7478 H7485 0.984 . S
N7479 C7472 1.356 . S
N7479 H7482 0.984 . S
N7479 H7483 0.985 . S
H7480 N7475 0.984 . S
H7481 N7475 0.985 . S
H7482 N7479 0.984 . S
H7483 N7479 0.985 . S
H7484 N7478 0.984 . S
H7485 N7478 0.984 . S
H7486 N7474 0.984 . S
H7487 N7474 0.985 . S
C7488 C7489 1.363 . S
C7488 C7494 1.379 . S
C7488 N7496 1.356 . S
C7489 C7488 1.363 . S
C7489 C7495 1.363 . S
C7490 C7491 1.363 . S
C7490 C7495 1.379 . S
C7490 N7497 1.356 . S
C7491 C7490 1.363 . S
C7491 C7494 1.363 . S
N7492 C7494 1.356 . S
N7492 H7504 0.984 . S
N7492 H7505 0.985 . S
N7493 C7495 1.356 . S
N7493 H7498 0.984 . S
N7493 H7499 0.985 . S
C7494 C7488 1.379 . S
C7494 C7491 1.363 . S
C7494 N7492 1.356 . S
C7495 C7489 1.363 . S
C7495 C7490 1.379 . S
C7495 N7493 1.356 . S
N7496 C7488 1.356 . S
N7496 H7502 0.984 . S
N7496 H7503 0.984 . S
N7497 C7490 1.356 . S
N7497 H7500 0.984 . S
N7497 H7501 0.985 . S
H7498 N7493 0.984 . S
H7499 N7493 0.985 . S
H7500 N7497 0.984 . S
H7501 N7497 0.985 . S
H7502 N7496 0.984 . S
H7503 N7496 0.984 . S
H7504 N7492 0.984 . S
H7505 N7492 0.985 . S
C7506 C7507 1.363 . S
C7506 C7512 1.379 . S
C7506 N7514 1.356 . S
C7507 C7506 1.363 . S
C7507 C7513 1.363 . S
C7508 C7509 1.363 . S
C7508 C7513 1.379 . S
C7508 N7515 1.356 . S
C7509 C7508 1.363 . S
C7509 C7512 1.363 . S
N7510 C7512 1.356 . S
N7510 H7522 0.984 . S
N7510 H7523 0.985 . S
N7511 C7513 1.356 . S
N7511 H7516 0.984 . S
N7511 H7517 0.985 . S
C7512 C7506 1.379 . S
C7512 C7509 1.363 . S
C7512 N7510 1.356 . S
C7513 C7507 1.363 . S
C7513 C7508 1.379 . S
C7513 N7511 1.356 . S
N7514 C7506 1.356 . S
N7514 H7520 0.984 . S
N7514 H7521 0.984 . S
N7515 C7508 1.356 . S
N7515 H7518 0.984 . S
N7515 H7519 0.985 . S
H7516 N7511 0.984 . S
H7517 N7511 0.985 . S
H7518 N7515 0.984 . S
H7519 N7515 0.985 . S
H7520 N7514 0.984 . S
H7521 N7514 0.984 . S
H7522 N7510 0.984 . S
H7523 N7510 0.985 . S
C7524 C7525 1.363 . S
C7524 C7530 1.379 . S
C7524 N7532 1.356 . S
C7525 C7524 1.363 . S
C7525 C7531 1.363 . S
C7526 C7527 1.363 . S
C7526 C7531 1.379 . S
C7526 N7533 1.356 . S
C7527 C7526 1.363 . S
C7527 C7530 1.363 . S
N7528 C7530 1.356 . S
N7528 H7540 0.984 . S
N7528 H7541 0.985 . S
N7529 C7531 1.356 . S
N7529 H7534 0.984 . S
N7529 H7535 0.985 . S
C7530 C7524 1.379 . S
C7530 C7527 1.363 . S
C7530 N7528 1.356 . S
C7531 C7525 1.363 . S
C7531 C7526 1.379 . S
C7531 N7529 1.356 . S
N7532 C7524 1.356 . S
N7532 H7538 0.984 . S
N7532 H7539 0.984 . S
N7533 C7526 1.356 . S
N7533 H7536 0.984 . S
N7533 H7537 0.985 . S
H7534 N7529 0.984 . S
H7535 N7529 0.985 . S
H7536 N7533 0.984 . S
H7537 N7533 0.985 . S
H7538 N7532 0.984 . S
H7539 N7532 0.984 . S
H7540 N7528 0.984 . S
H7541 N7528 0.985 . S
C7542 C7543 1.363 . S
C7542 C7548 1.379 . S
C7542 N7550 1.356 . S
C7543 C7542 1.363 . S
C7543 C7549 1.363 . S
C7544 C7545 1.363 . S
C7544 C7549 1.379 . S
C7544 N7551 1.356 . S
C7545 C7544 1.363 . S
C7545 C7548 1.363 . S
N7546 C7548 1.356 . S
N7546 H7558 0.984 . S
N7546 H7559 0.985 . S
N7547 C7549 1.356 . S
N7547 H7552 0.984 . S
N7547 H7553 0.985 . S
C7548 C7542 1.379 . S
C7548 C7545 1.363 . S
C7548 N7546 1.356 . S
C7549 C7543 1.363 . S
C7549 C7544 1.379 . S
C7549 N7547 1.356 . S
N7550 C7542 1.356 . S
N7550 H7556 0.984 . S
N7550 H7557 0.984 . S
N7551 C7544 1.356 . S
N7551 H7554 0.984 . S
N7551 H7555 0.985 . S
H7552 N7547 0.984 . S
H7553 N7547 0.985 . S
H7554 N7551 0.984 . S
H7555 N7551 0.985 . S
H7556 N7550 0.984 . S
H7557 N7550 0.984 . S
H7558 N7546 0.984 . S
H7559 N7546 0.985 . S
C7560 C7561 1.363 . S
C7560 C7566 1.379 . S
C7560 N7568 1.356 . S
C7561 C7560 1.363 . S
C7561 C7567 1.363 . S
C7562 C7563 1.363 . S
C7562 C7567 1.379 . S
C7562 N7569 1.356 . S
C7563 C7562 1.363 . S
C7563 C7566 1.363 . S
N7564 C7566 1.356 . S
N7564 H7576 0.984 . S
N7564 H7577 0.985 . S
N7565 C7567 1.356 . S
N7565 H7570 0.984 . S
N7565 H7571 0.985 . S
C7566 C7560 1.379 . S
C7566 C7563 1.363 . S
C7566 N7564 1.356 . S
C7567 C7561 1.363 . S
C7567 C7562 1.379 . S
C7567 N7565 1.356 . S
N7568 C7560 1.356 . S
N7568 H7574 0.984 . S
N7568 H7575 0.984 . S
N7569 C7562 1.356 . S
N7569 H7572 0.984 . S
N7569 H7573 0.985 . S
H7570 N7565 0.984 . S
H7571 N7565 0.985 . S
H7572 N7569 0.984 . S
H7573 N7569 0.985 . S
H7574 N7568 0.984 . S
H7575 N7568 0.984 . S
H7576 N7564 0.984 . S
H7577 N7564 0.985 . S
C7578 C7579 1.363 . S
C7578 C7584 1.379 . S
C7578 N7586 1.356 . S
C7579 C7578 1.363 . S
C7579 C7585 1.363 . S
C7580 C7581 1.363 . S
C7580 C7585 1.379 . S
C7580 N7587 1.356 . S
C7581 C7580 1.363 . S
C7581 C7584 1.363 . S
N7582 C7584 1.356 . S
N7582 H7594 0.984 . S
N7582 H7595 0.985 . S
N7583 C7585 1.356 . S
N7583 H7588 0.984 . S
N7583 H7589 0.985 . S
C7584 C7578 1.379 . S
C7584 C7581 1.363 . S
C7584 N7582 1.356 . S
C7585 C7579 1.363 . S
C7585 C7580 1.379 . S
C7585 N7583 1.356 . S
N7586 C7578 1.356 . S
N7586 H7592 0.984 . S
N7586 H7593 0.984 . S
N7587 C7580 1.356 . S
N7587 H7590 0.984 . S
N7587 H7591 0.985 . S
H7588 N7583 0.984 . S
H7589 N7583 0.985 . S
H7590 N7587 0.984 . S
H7591 N7587 0.985 . S
H7592 N7586 0.984 . S
H7593 N7586 0.984 . S
H7594 N7582 0.984 . S
H7595 N7582 0.985 . S
C7596 C7597 1.363 . S
C7596 C7602 1.379 . S
C7596 N7604 1.356 . S
C7597 C7596 1.363 . S
C7597 C7603 1.363 . S
C7598 C7599 1.363 . S
C7598 C7603 1.379 . S
C7598 N7605 1.356 . S
C7599 C7598 1.363 . S
C7599 C7602 1.363 . S
N7600 C7602 1.356 . S
N7600 H7612 0.984 . S
N7600 H7613 0.985 . S
N7601 C7603 1.356 . S
N7601 H7606 0.984 . S
N7601 H7607 0.985 . S
C7602 C7596 1.379 . S
C7602 C7599 1.363 . S
C7602 N7600 1.356 . S
C7603 C7597 1.363 . S
C7603 C7598 1.379 . S
C7603 N7601 1.356 . S
N7604 C7596 1.356 . S
N7604 H7610 0.984 . S
N7604 H7611 0.984 . S
N7605 C7598 1.356 . S
N7605 H7608 0.984 . S
N7605 H7609 0.985 . S
H7606 N7601 0.984 . S
H7607 N7601 0.985 . S
H7608 N7605 0.984 . S
H7609 N7605 0.985 . S
H7610 N7604 0.984 . S
H7611 N7604 0.984 . S
H7612 N7600 0.984 . S
H7613 N7600 0.985 . S
C7614 C7615 1.363 . S
C7614 C7620 1.379 . S
C7614 N7622 1.356 . S
C7615 C7614 1.363 . S
C7615 C7621 1.363 . S
C7616 C7617 1.363 . S
C7616 C7621 1.379 . S
C7616 N7623 1.356 . S
C7617 C7616 1.363 . S
C7617 C7620 1.363 . S
N7618 C7620 1.356 . S
N7618 H7630 0.984 . S
N7618 H7631 0.985 . S
N7619 C7621 1.356 . S
N7619 H7624 0.984 . S
N7619 H7625 0.985 . S
C7620 C7614 1.379 . S
C7620 C7617 1.363 . S
C7620 N7618 1.356 . S
C7621 C7615 1.363 . S
C7621 C7616 1.379 . S
C7621 N7619 1.356 . S
N7622 C7614 1.356 . S
N7622 H7628 0.984 . S
N7622 H7629 0.984 . S
N7623 C7616 1.356 . S
N7623 H7626 0.984 . S
N7623 H7627 0.985 . S
H7624 N7619 0.984 . S
H7625 N7619 0.985 . S
H7626 N7623 0.984 . S
H7627 N7623 0.985 . S
H7628 N7622 0.984 . S
H7629 N7622 0.984 . S
H7630 N7618 0.984 . S
H7631 N7618 0.985 . S
C7632 C7633 1.363 . S
C7632 C7638 1.379 . S
C7632 N7640 1.356 . S
C7633 C7632 1.363 . S
C7633 C7639 1.363 . S
C7634 C7635 1.363 . S
C7634 C7639 1.379 . S
C7634 N7641 1.356 . S
C7635 C7634 1.363 . S
C7635 C7638 1.363 . S
N7636 C7638 1.356 . S
N7636 H7648 0.984 . S
N7636 H7649 0.985 . S
N7637 C7639 1.356 . S
N7637 H7642 0.984 . S
N7637 H7643 0.985 . S
C7638 C7632 1.379 . S
C7638 C7635 1.363 . S
C7638 N7636 1.356 . S
C7639 C7633 1.363 . S
C7639 C7634 1.379 . S
C7639 N7637 1.356 . S
N7640 C7632 1.356 . S
N7640 H7646 0.984 . S
N7640 H7647 0.984 . S
N7641 C7634 1.356 . S
N7641 H7644 0.984 . S
N7641 H7645 0.985 . S
H7642 N7637 0.984 . S
H7643 N7637 0.985 . S
H7644 N7641 0.984 . S
H7645 N7641 0.985 . S
H7646 N7640 0.984 . S
H7647 N7640 0.984 . S
H7648 N7636 0.984 . S
H7649 N7636 0.985 . S
C7650 C7651 1.363 . S
C7650 C7656 1.379 . S
C7650 N7658 1.356 . S
C7651 C7650 1.363 . S
C7651 C7657 1.363 . S
C7652 C7653 1.363 . S
C7652 C7657 1.379 . S
C7652 N7659 1.356 . S
C7653 C7652 1.363 . S
C7653 C7656 1.363 . S
N7654 C7656 1.356 . S
N7654 H7666 0.984 . S
N7654 H7667 0.985 . S
N7655 C7657 1.356 . S
N7655 H7660 0.984 . S
N7655 H7661 0.985 . S
C7656 C7650 1.379 . S
C7656 C7653 1.363 . S
C7656 N7654 1.356 . S
C7657 C7651 1.363 . S
C7657 C7652 1.379 . S
C7657 N7655 1.356 . S
N7658 C7650 1.356 . S
N7658 H7664 0.984 . S
N7658 H7665 0.984 . S
N7659 C7652 1.356 . S
N7659 H7662 0.984 . S
N7659 H7663 0.985 . S
H7660 N7655 0.984 . S
H7661 N7655 0.985 . S
H7662 N7659 0.984 . S
H7663 N7659 0.985 . S
H7664 N7658 0.984 . S
H7665 N7658 0.984 . S
H7666 N7654 0.984 . S
H7667 N7654 0.985 . S
C7668 C7669 1.363 . S
C7668 C7674 1.379 . S
C7668 N7676 1.356 . S
C7669 C7668 1.363 . S
C7669 C7675 1.363 . S
C7670 C7671 1.363 . S
C7670 C7675 1.379 . S
C7670 N7677 1.356 . S
C7671 C7670 1.363 . S
C7671 C7674 1.363 . S
N7672 C7674 1.356 . S
N7672 H7684 0.984 . S
N7672 H7685 0.985 . S
N7673 C7675 1.356 . S
N7673 H7678 0.984 . S
N7673 H7679 0.985 . S
C7674 C7668 1.379 . S
C7674 C7671 1.363 . S
C7674 N7672 1.356 . S
C7675 C7669 1.363 . S
C7675 C7670 1.379 . S
C7675 N7673 1.356 . S
N7676 C7668 1.356 . S
N7676 H7682 0.984 . S
N7676 H7683 0.984 . S
N7677 C7670 1.356 . S
N7677 H7680 0.984 . S
N7677 H7681 0.985 . S
H7678 N7673 0.984 . S
H7679 N7673 0.985 . S
H7680 N7677 0.984 . S
H7681 N7677 0.985 . S
H7682 N7676 0.984 . S
H7683 N7676 0.984 . S
H7684 N7672 0.984 . S
H7685 N7672 0.985 . S
C7686 C7687 1.363 . S
C7686 C7692 1.379 . S
C7686 N7694 1.356 . S
C7687 C7686 1.363 . S
C7687 C7693 1.363 . S
C7688 C7689 1.363 . S
C7688 C7693 1.379 . S
C7688 N7695 1.356 . S
C7689 C7688 1.363 . S
C7689 C7692 1.363 . S
N7690 C7692 1.356 . S
N7690 H7702 0.984 . S
N7690 H7703 0.985 . S
N7691 C7693 1.356 . S
N7691 H7696 0.984 . S
N7691 H7697 0.985 . S
C7692 C7686 1.379 . S
C7692 C7689 1.363 . S
C7692 N7690 1.356 . S
C7693 C7687 1.363 . S
C7693 C7688 1.379 . S
C7693 N7691 1.356 . S
N7694 C7686 1.356 . S
N7694 H7700 0.984 . S
N7694 H7701 0.984 . S
N7695 C7688 1.356 . S
N7695 H7698 0.984 . S
N7695 H7699 0.985 . S
H7696 N7691 0.984 . S
H7697 N7691 0.985 . S
H7698 N7695 0.984 . S
H7699 N7695 0.985 . S
H7700 N7694 0.984 . S
H7701 N7694 0.984 . S
H7702 N7690 0.984 . S
H7703 N7690 0.985 . S
C7704 C7705 1.363 . S
C7704 C7710 1.379 . S
C7704 N7712 1.356 . S
C7705 C7704 1.363 . S
C7705 C7711 1.363 . S
C7706 C7707 1.363 . S
C7706 C7711 1.379 . S
C7706 N7713 1.356 . S
C7707 C7706 1.363 . S
C7707 C7710 1.363 . S
N7708 C7710 1.356 . S
N7708 H7720 0.984 . S
N7708 H7721 0.985 . S
N7709 C7711 1.356 . S
N7709 H7714 0.984 . S
N7709 H7715 0.985 . S
C7710 C7704 1.379 . S
C7710 C7707 1.363 . S
C7710 N7708 1.356 . S
C7711 C7705 1.363 . S
C7711 C7706 1.379 . S
C7711 N7709 1.356 . S
N7712 C7704 1.356 . S
N7712 H7718 0.984 . S
N7712 H7719 0.984 . S
N7713 C7706 1.356 . S
N7713 H7716 0.984 . S
N7713 H7717 0.985 . S
H7714 N7709 0.984 . S
H7715 N7709 0.985 . S
H7716 N7713 0.984 . S
H7717 N7713 0.985 . S
H7718 N7712 0.984 . S
H7719 N7712 0.984 . S
H7720 N7708 0.984 . S
H7721 N7708 0.985 . S
C7722 C7723 1.363 . S
C7722 C7728 1.379 . S
C7722 N7730 1.356 . S
C7723 C7722 1.363 . S
C7723 C7729 1.363 . S
C7724 C7725 1.363 . S
C7724 C7729 1.379 . S
C7724 N7731 1.356 . S
C7725 C7724 1.363 . S
C7725 C7728 1.363 . S
N7726 C7728 1.356 . S
N7726 H7738 0.984 . S
N7726 H7739 0.985 . S
N7727 C7729 1.356 . S
N7727 H7732 0.984 . S
N7727 H7733 0.985 . S
C7728 C7722 1.379 . S
C7728 C7725 1.363 . S
C7728 N7726 1.356 . S
C7729 C7723 1.363 . S
C7729 C7724 1.379 . S
C7729 N7727 1.356 . S
N7730 C7722 1.356 . S
N7730 H7736 0.984 . S
N7730 H7737 0.984 . S
N7731 C7724 1.356 . S
N7731 H7734 0.984 . S
N7731 H7735 0.985 . S
H7732 N7727 0.984 . S
H7733 N7727 0.985 . S
H7734 N7731 0.984 . S
H7735 N7731 0.985 . S
H7736 N7730 0.984 . S
H7737 N7730 0.984 . S
H7738 N7726 0.984 . S
H7739 N7726 0.985 . S
C7740 C7741 1.363 . S
C7740 C7746 1.379 . S
C7740 N7748 1.356 . S
C7741 C7740 1.363 . S
C7741 C7747 1.363 . S
C7742 C7743 1.363 . S
C7742 C7747 1.379 . S
C7742 N7749 1.356 . S
C7743 C7742 1.363 . S
C7743 C7746 1.363 . S
N7744 C7746 1.356 . S
N7744 H7756 0.984 . S
N7744 H7757 0.985 . S
N7745 C7747 1.356 . S
N7745 H7750 0.984 . S
N7745 H7751 0.985 . S
C7746 C7740 1.379 . S
C7746 C7743 1.363 . S
C7746 N7744 1.356 . S
C7747 C7741 1.363 . S
C7747 C7742 1.379 . S
C7747 N7745 1.356 . S
N7748 C7740 1.356 . S
N7748 H7754 0.984 . S
N7748 H7755 0.984 . S
N7749 C7742 1.356 . S
N7749 H7752 0.984 . S
N7749 H7753 0.985 . S
H7750 N7745 0.984 . S
H7751 N7745 0.985 . S
H7752 N7749 0.984 . S
H7753 N7749 0.985 . S
H7754 N7748 0.984 . S
H7755 N7748 0.984 . S
H7756 N7744 0.984 . S
H7757 N7744 0.985 . S
C7758 C7759 1.363 . S
C7758 C7764 1.379 . S
C7758 N7766 1.356 . S
C7759 C7758 1.363 . S
C7759 C7765 1.363 . S
C7760 C7761 1.363 . S
C7760 C7765 1.379 . S
C7760 N7767 1.356 . S
C7761 C7760 1.363 . S
C7761 C7764 1.363 . S
N7762 C7764 1.356 . S
N7762 H7774 0.984 . S
N7762 H7775 0.985 . S
N7763 C7765 1.356 . S
N7763 H7768 0.984 . S
N7763 H7769 0.985 . S
C7764 C7758 1.379 . S
C7764 C7761 1.363 . S
C7764 N7762 1.356 . S
C7765 C7759 1.363 . S
C7765 C7760 1.379 . S
C7765 N7763 1.356 . S
N7766 C7758 1.356 . S
N7766 H7772 0.984 . S
N7766 H7773 0.984 . S
N7767 C7760 1.356 . S
N7767 H7770 0.984 . S
N7767 H7771 0.985 . S
H7768 N7763 0.984 . S
H7769 N7763 0.985 . S
H7770 N7767 0.984 . S
H7771 N7767 0.985 . S
H7772 N7766 0.984 . S
H7773 N7766 0.984 . S
H7774 N7762 0.984 . S
H7775 N7762 0.985 . S
C7776 C7777 1.363 . S
C7776 C7782 1.379 . S
C7776 N7784 1.356 . S
C7777 C7776 1.363 . S
C7777 C7783 1.363 . S
C7778 C7779 1.363 . S
C7778 C7783 1.379 . S
C7778 N7785 1.356 . S
C7779 C7778 1.363 . S
C7779 C7782 1.363 . S
N7780 C7782 1.356 . S
N7780 H7792 0.984 . S
N7780 H7793 0.985 . S
N7781 C7783 1.356 . S
N7781 H7786 0.984 . S
N7781 H7787 0.985 . S
C7782 C7776 1.379 . S
C7782 C7779 1.363 . S
C7782 N7780 1.356 . S
C7783 C7777 1.363 . S
C7783 C7778 1.379 . S
C7783 N7781 1.356 . S
N7784 C7776 1.356 . S
N7784 H7790 0.984 . S
N7784 H7791 0.984 . S
N7785 C7778 1.356 . S
N7785 H7788 0.984 . S
N7785 H7789 0.985 . S
H7786 N7781 0.984 . S
H7787 N7781 0.985 . S
H7788 N7785 0.984 . S
H7789 N7785 0.985 . S
H7790 N7784 0.984 . S
H7791 N7784 0.984 . S
H7792 N7780 0.984 . S
H7793 N7780 0.985 . S
C7794 C7795 1.363 . S
C7794 C7800 1.379 . S
C7794 N7802 1.356 . S
C7795 C7794 1.363 . S
C7795 C7801 1.363 . S
C7796 C7797 1.363 . S
C7796 C7801 1.379 . S
C7796 N7803 1.356 . S
C7797 C7796 1.363 . S
C7797 C7800 1.363 . S
N7798 C7800 1.356 . S
N7798 H7810 0.984 . S
N7798 H7811 0.985 . S
N7799 C7801 1.356 . S
N7799 H7804 0.984 . S
N7799 H7805 0.985 . S
C7800 C7794 1.379 . S
C7800 C7797 1.363 . S
C7800 N7798 1.356 . S
C7801 C7795 1.363 . S
C7801 C7796 1.379 . S
C7801 N7799 1.356 . S
N7802 C7794 1.356 . S
N7802 H7808 0.984 . S
N7802 H7809 0.984 . S
N7803 C7796 1.356 . S
N7803 H7806 0.984 . S
N7803 H7807 0.985 . S
H7804 N7799 0.984 . S
H7805 N7799 0.985 . S
H7806 N7803 0.984 . S
H7807 N7803 0.985 . S
H7808 N7802 0.984 . S
H7809 N7802 0.984 . S
H7810 N7798 0.984 . S
H7811 N7798 0.985 . S
C7812 C7813 1.363 . S
C7812 C7818 1.379 . S
C7812 N7820 1.356 . S
C7813 C7812 1.363 . S
C7813 C7819 1.363 . S
C7814 C7815 1.363 . S
C7814 C7819 1.379 . S
C7814 N7821 1.356 . S
C7815 C7814 1.363 . S
C7815 C7818 1.363 . S
N7816 C7818 1.356 . S
N7816 H7828 0.984 . S
N7816 H7829 0.985 . S
N7817 C7819 1.356 . S
N7817 H7822 0.984 . S
N7817 H7823 0.985 . S
C7818 C7812 1.379 . S
C7818 C7815 1.363 . S
C7818 N7816 1.356 . S
C7819 C7813 1.363 . S
C7819 C7814 1.379 . S
C7819 N7817 1.356 . S
N7820 C7812 1.356 . S
N7820 H7826 0.984 . S
N7820 H7827 0.984 . S
N7821 C7814 1.356 . S
N7821 H7824 0.984 . S
N7821 H7825 0.985 . S
H7822 N7817 0.984 . S
H7823 N7817 0.985 . S
H7824 N7821 0.984 . S
H7825 N7821 0.985 . S
H7826 N7820 0.984 . S
H7827 N7820 0.984 . S
H7828 N7816 0.984 . S
H7829 N7816 0.985 . S
C7830 C7831 1.363 . S
C7830 C7836 1.379 . S
C7830 N7838 1.356 . S
C7831 C7830 1.363 . S
C7831 C7837 1.363 . S
C7832 C7833 1.363 . S
C7832 C7837 1.379 . S
C7832 N7839 1.356 . S
C7833 C7832 1.363 . S
C7833 C7836 1.363 . S
N7834 C7836 1.356 . S
N7834 H7846 0.984 . S
N7834 H7847 0.985 . S
N7835 C7837 1.356 . S
N7835 H7840 0.984 . S
N7835 H7841 0.985 . S
C7836 C7830 1.379 . S
C7836 C7833 1.363 . S
C7836 N7834 1.356 . S
C7837 C7831 1.363 . S
C7837 C7832 1.379 . S
C7837 N7835 1.356 . S
N7838 C7830 1.356 . S
N7838 H7844 0.984 . S
N7838 H7845 0.984 . S
N7839 C7832 1.356 . S
N7839 H7842 0.984 . S
N7839 H7843 0.985 . S
H7840 N7835 0.984 . S
H7841 N7835 0.985 . S
H7842 N7839 0.984 . S
H7843 N7839 0.985 . S
H7844 N7838 0.984 . S
H7845 N7838 0.984 . S
H7846 N7834 0.984 . S
H7847 N7834 0.985 . S
C7848 C7849 1.363 . S
C7848 C7854 1.379 . S
C7848 N7856 1.356 . S
C7849 C7848 1.363 . S
C7849 C7855 1.363 . S
C7850 C7851 1.363 . S
C7850 C7855 1.379 . S
C7850 N7857 1.356 . S
C7851 C7850 1.363 . S
C7851 C7854 1.363 . S
N7852 C7854 1.356 . S
N7852 H7864 0.984 . S
N7852 H7865 0.985 . S
N7853 C7855 1.356 . S
N7853 H7858 0.984 . S
N7853 H7859 0.985 . S
C7854 C7848 1.379 . S
C7854 C7851 1.363 . S
C7854 N7852 1.356 . S
C7855 C7849 1.363 . S
C7855 C7850 1.379 . S
C7855 N7853 1.356 . S
N7856 C7848 1.356 . S
N7856 H7862 0.984 . S
N7856 H7863 0.984 . S
N7857 C7850 1.356 . S
N7857 H7860 0.984 . S
N7857 H7861 0.985 . S
H7858 N7853 0.984 . S
H7859 N7853 0.985 . S
H7860 N7857 0.984 . S
H7861 N7857 0.985 . S
H7862 N7856 0.984 . S
H7863 N7856 0.984 . S
H7864 N7852 0.984 . S
H7865 N7852 0.985 . S
C7866 C7867 1.363 . S
C7866 C7872 1.379 . S
C7866 N7874 1.356 . S
C7867 C7866 1.363 . S
C7867 C7873 1.363 . S
C7868 C7869 1.363 . S
C7868 C7873 1.379 . S
C7868 N7875 1.356 . S
C7869 C7868 1.363 . S
C7869 C7872 1.363 . S
N7870 C7872 1.356 . S
N7870 H7882 0.984 . S
N7870 H7883 0.985 . S
N7871 C7873 1.356 . S
N7871 H7876 0.984 . S
N7871 H7877 0.985 . S
C7872 C7866 1.379 . S
C7872 C7869 1.363 . S
C7872 N7870 1.356 . S
C7873 C7867 1.363 . S
C7873 C7868 1.379 . S
C7873 N7871 1.356 . S
N7874 C7866 1.356 . S
N7874 H7880 0.984 . S
N7874 H7881 0.984 . S
N7875 C7868 1.356 . S
N7875 H7878 0.984 . S
N7875 H7879 0.985 . S
H7876 N7871 0.984 . S
H7877 N7871 0.985 . S
H7878 N7875 0.984 . S
H7879 N7875 0.985 . S
H7880 N7874 0.984 . S
H7881 N7874 0.984 . S
H7882 N7870 0.984 . S
H7883 N7870 0.985 . S
C7884 C7885 1.363 . S
C7884 C7890 1.379 . S
C7884 N7892 1.356 . S
C7885 C7884 1.363 . S
C7885 C7891 1.363 . S
C7886 C7887 1.363 . S
C7886 C7891 1.379 . S
C7886 N7893 1.356 . S
C7887 C7886 1.363 . S
C7887 C7890 1.363 . S
N7888 C7890 1.356 . S
N7888 H7900 0.984 . S
N7888 H7901 0.985 . S
N7889 C7891 1.356 . S
N7889 H7894 0.984 . S
N7889 H7895 0.985 . S
C7890 C7884 1.379 . S
C7890 C7887 1.363 . S
C7890 N7888 1.356 . S
C7891 C7885 1.363 . S
C7891 C7886 1.379 . S
C7891 N7889 1.356 . S
N7892 C7884 1.356 . S
N7892 H7898 0.984 . S
N7892 H7899 0.984 . S
N7893 C7886 1.356 . S
N7893 H7896 0.984 . S
N7893 H7897 0.985 . S
H7894 N7889 0.984 . S
H7895 N7889 0.985 . S
H7896 N7893 0.984 . S
H7897 N7893 0.985 . S
H7898 N7892 0.984 . S
H7899 N7892 0.984 . S
H7900 N7888 0.984 . S
H7901 N7888 0.985 . S
C7902 C7903 1.363 . S
C7902 C7908 1.379 . S
C7902 N7910 1.356 . S
C7903 C7902 1.363 . S
C7903 C7909 1.363 . S
C7904 C7905 1.363 . S
C7904 C7909 1.379 . S
C7904 N7911 1.356 . S
C7905 C7904 1.363 . S
C7905 C7908 1.363 . S
N7906 C7908 1.356 . S
N7906 H7918 0.984 . S
N7906 H7919 0.985 . S
N7907 C7909 1.356 . S
N7907 H7912 0.984 . S
N7907 H7913 0.985 . S
C7908 C7902 1.379 . S
C7908 C7905 1.363 . S
C7908 N7906 1.356 . S
C7909 C7903 1.363 . S
C7909 C7904 1.379 . S
C7909 N7907 1.356 . S
N7910 C7902 1.356 . S
N7910 H7916 0.984 . S
N7910 H7917 0.984 . S
N7911 C7904 1.356 . S
N7911 H7914 0.984 . S
N7911 H7915 0.985 . S
H7912 N7907 0.984 . S
H7913 N7907 0.985 . S
H7914 N7911 0.984 . S
H7915 N7911 0.985 . S
H7916 N7910 0.984 . S
H7917 N7910 0.984 . S
H7918 N7906 0.984 . S
H7919 N7906 0.985 . S
C7920 C7921 1.363 . S
C7920 C7926 1.379 . S
C7920 N7928 1.356 . S
C7921 C7920 1.363 . S
C7921 C7927 1.363 . S
C7922 C7923 1.363 . S
C7922 C7927 1.379 . S
C7922 N7929 1.356 . S
C7923 C7922 1.363 . S
C7923 C7926 1.363 . S
N7924 C7926 1.356 . S
N7924 H7936 0.984 . S
N7924 H7937 0.985 . S
N7925 C7927 1.356 . S
N7925 H7930 0.984 . S
N7925 H7931 0.985 . S
C7926 C7920 1.379 . S
C7926 C7923 1.363 . S
C7926 N7924 1.356 . S
C7927 C7921 1.363 . S
C7927 C7922 1.379 . S
C7927 N7925 1.356 . S
N7928 C7920 1.356 . S
N7928 H7934 0.984 . S
N7928 H7935 0.984 . S
N7929 C7922 1.356 . S
N7929 H7932 0.984 . S
N7929 H7933 0.985 . S
H7930 N7925 0.984 . S
H7931 N7925 0.985 . S
H7932 N7929 0.984 . S
H7933 N7929 0.985 . S
H7934 N7928 0.984 . S
H7935 N7928 0.984 . S
H7936 N7924 0.984 . S
H7937 N7924 0.985 . S
C7938 C7939 1.363 . S
C7938 C7944 1.379 . S
C7938 N7946 1.356 . S
C7939 C7938 1.363 . S
C7939 C7945 1.363 . S
C7940 C7941 1.363 . S
C7940 C7945 1.379 . S
C7940 N7947 1.356 . S
C7941 C7940 1.363 . S
C7941 C7944 1.363 . S
N7942 C7944 1.356 . S
N7942 H7954 0.984 . S
N7942 H7955 0.985 . S
N7943 C7945 1.356 . S
N7943 H7948 0.984 . S
N7943 H7949 0.985 . S
C7944 C7938 1.379 . S
C7944 C7941 1.363 . S
C7944 N7942 1.356 . S
C7945 C7939 1.363 . S
C7945 C7940 1.379 . S
C7945 N7943 1.356 . S
N7946 C7938 1.356 . S
N7946 H7952 0.984 . S
N7946 H7953 0.984 . S
N7947 C7940 1.356 . S
N7947 H7950 0.984 . S
N7947 H7951 0.985 . S
H7948 N7943 0.984 . S
H7949 N7943 0.985 . S
H7950 N7947 0.984 . S
H7951 N7947 0.985 . S
H7952 N7946 0.984 . S
H7953 N7946 0.984 . S
H7954 N7942 0.984 . S
H7955 N7942 0.985 . S
C7956 C7957 1.363 . S
C7956 C7962 1.379 . S
C7956 N7964 1.356 . S
C7957 C7956 1.363 . S
C7957 C7963 1.363 . S
C7958 C7959 1.363 . S
C7958 C7963 1.379 . S
C7958 N7965 1.356 . S
C7959 C7958 1.363 . S
C7959 C7962 1.363 . S
N7960 C7962 1.356 . S
N7960 H7972 0.984 . S
N7960 H7973 0.985 . S
N7961 C7963 1.356 . S
N7961 H7966 0.984 . S
N7961 H7967 0.985 . S
C7962 C7956 1.379 . S
C7962 C7959 1.363 . S
C7962 N7960 1.356 . S
C7963 C7957 1.363 . S
C7963 C7958 1.379 . S
C7963 N7961 1.356 . S
N7964 C7956 1.356 . S
N7964 H7970 0.984 . S
N7964 H7971 0.984 . S
N7965 C7958 1.356 . S
N7965 H7968 0.984 . S
N7965 H7969 0.985 . S
H7966 N7961 0.984 . S
H7967 N7961 0.985 . S
H7968 N7965 0.984 . S
H7969 N7965 0.985 . S
H7970 N7964 0.984 . S
H7971 N7964 0.984 . S
H7972 N7960 0.984 . S
H7973 N7960 0.985 . S
C7974 C7975 1.363 . S
C7974 C7980 1.379 . S
C7974 N7982 1.356 . S
C7975 C7974 1.363 . S
C7975 C7981 1.363 . S
C7976 C7977 1.363 . S
C7976 C7981 1.379 . S
C7976 N7983 1.356 . S
C7977 C7976 1.363 . S
C7977 C7980 1.363 . S
N7978 C7980 1.356 . S
N7978 H7990 0.984 . S
N7978 H7991 0.985 . S
N7979 C7981 1.356 . S
N7979 H7984 0.984 . S
N7979 H7985 0.985 . S
C7980 C7974 1.379 . S
C7980 C7977 1.363 . S
C7980 N7978 1.356 . S
C7981 C7975 1.363 . S
C7981 C7976 1.379 . S
C7981 N7979 1.356 . S
N7982 C7974 1.356 . S
N7982 H7988 0.984 . S
N7982 H7989 0.984 . S
N7983 C7976 1.356 . S
N7983 H7986 0.984 . S
N7983 H7987 0.985 . S
H7984 N7979 0.984 . S
H7985 N7979 0.985 . S
H7986 N7983 0.984 . S
H7987 N7983 0.985 . S
H7988 N7982 0.984 . S
H7989 N7982 0.984 . S
H7990 N7978 0.984 . S
H7991 N7978 0.985 . S
C7992 C7993 1.363 . S
C7992 C7998 1.379 . S
C7992 N8000 1.356 . S
C7993 C7992 1.363 . S
C7993 C7999 1.363 . S
C7994 C7995 1.363 . S
C7994 C7999 1.379 . S
C7994 N8001 1.356 . S
C7995 C7994 1.363 . S
C7995 C7998 1.363 . S
N7996 C7998 1.356 . S
N7996 H8008 0.984 . S
N7996 H8009 0.985 . S
N7997 C7999 1.356 . S
N7997 H8002 0.984 . S
N7997 H8003 0.985 . S
C7998 C7992 1.379 . S
C7998 C7995 1.363 . S
C7998 N7996 1.356 . S
C7999 C7993 1.363 . S
C7999 C7994 1.379 . S
C7999 N7997 1.356 . S
N8000 C7992 1.356 . S
N8000 H8006 0.984 . S
N8000 H8007 0.984 . S
N8001 C7994 1.356 . S
N8001 H8004 0.984 . S
N8001 H8005 0.985 . S
H8002 N7997 0.984 . S
H8003 N7997 0.985 . S
H8004 N8001 0.984 . S
H8005 N8001 0.985 . S
H8006 N8000 0.984 . S
H8007 N8000 0.984 . S
H8008 N7996 0.984 . S
H8009 N7996 0.985 . S
C8010 C8011 1.363 . S
C8010 C8016 1.379 . S
C8010 N8018 1.356 . S
C8011 C8010 1.363 . S
C8011 C8017 1.363 . S
C8012 C8013 1.363 . S
C8012 C8017 1.379 . S
C8012 N8019 1.356 . S
C8013 C8012 1.363 . S
C8013 C8016 1.363 . S
N8014 C8016 1.356 . S
N8014 H8026 0.984 . S
N8014 H8027 0.985 . S
N8015 C8017 1.356 . S
N8015 H8020 0.984 . S
N8015 H8021 0.985 . S
C8016 C8010 1.379 . S
C8016 C8013 1.363 . S
C8016 N8014 1.356 . S
C8017 C8011 1.363 . S
C8017 C8012 1.379 . S
C8017 N8015 1.356 . S
N8018 C8010 1.356 . S
N8018 H8024 0.984 . S
N8018 H8025 0.984 . S
N8019 C8012 1.356 . S
N8019 H8022 0.984 . S
N8019 H8023 0.985 . S
H8020 N8015 0.984 . S
H8021 N8015 0.985 . S
H8022 N8019 0.984 . S
H8023 N8019 0.985 . S
H8024 N8018 0.984 . S
H8025 N8018 0.984 . S
H8026 N8014 0.984 . S
H8027 N8014 0.985 . S
C8028 C8029 1.363 . S
C8028 C8034 1.379 . S
C8028 N8036 1.356 . S
C8029 C8028 1.363 . S
C8029 C8035 1.363 . S
C8030 C8031 1.363 . S
C8030 C8035 1.379 . S
C8030 N8037 1.356 . S
C8031 C8030 1.363 . S
C8031 C8034 1.363 . S
N8032 C8034 1.356 . S
N8032 H8044 0.984 . S
N8032 H8045 0.985 . S
N8033 C8035 1.356 . S
N8033 H8038 0.984 . S
N8033 H8039 0.985 . S
C8034 C8028 1.379 . S
C8034 C8031 1.363 . S
C8034 N8032 1.356 . S
C8035 C8029 1.363 . S
C8035 C8030 1.379 . S
C8035 N8033 1.356 . S
N8036 C8028 1.356 . S
N8036 H8042 0.984 . S
N8036 H8043 0.984 . S
N8037 C8030 1.356 . S
N8037 H8040 0.984 . S
N8037 H8041 0.985 . S
H8038 N8033 0.984 . S
H8039 N8033 0.985 . S
H8040 N8037 0.984 . S
H8041 N8037 0.985 . S
H8042 N8036 0.984 . S
H8043 N8036 0.984 . S
H8044 N8032 0.984 . S
H8045 N8032 0.985 . S
C8046 C8047 1.363 . S
C8046 C8052 1.379 . S
C8046 N8054 1.356 . S
C8047 C8046 1.363 . S
C8047 C8053 1.363 . S
C8048 C8049 1.363 . S
C8048 C8053 1.379 . S
C8048 N8055 1.356 . S
C8049 C8048 1.363 . S
C8049 C8052 1.363 . S
N8050 C8052 1.356 . S
N8050 H8062 0.984 . S
N8050 H8063 0.985 . S
N8051 C8053 1.356 . S
N8051 H8056 0.984 . S
N8051 H8057 0.985 . S
C8052 C8046 1.379 . S
C8052 C8049 1.363 . S
C8052 N8050 1.356 . S
C8053 C8047 1.363 . S
C8053 C8048 1.379 . S
C8053 N8051 1.356 . S
N8054 C8046 1.356 . S
N8054 H8060 0.984 . S
N8054 H8061 0.984 . S
N8055 C8048 1.356 . S
N8055 H8058 0.984 . S
N8055 H8059 0.985 . S
H8056 N8051 0.984 . S
H8057 N8051 0.985 . S
H8058 N8055 0.984 . S
H8059 N8055 0.985 . S
H8060 N8054 0.984 . S
H8061 N8054 0.984 . S
H8062 N8050 0.984 . S
H8063 N8050 0.985 . S
C8064 C8065 1.363 . S
C8064 C8070 1.379 . S
C8064 N8072 1.356 . S
C8065 C8064 1.363 . S
C8065 C8071 1.363 . S
C8066 C8067 1.363 . S
C8066 C8071 1.379 . S
C8066 N8073 1.356 . S
C8067 C8066 1.363 . S
C8067 C8070 1.363 . S
N8068 C8070 1.356 . S
N8068 H8080 0.984 . S
N8068 H8081 0.985 . S
N8069 C8071 1.356 . S
N8069 H8074 0.984 . S
N8069 H8075 0.985 . S
C8070 C8064 1.379 . S
C8070 C8067 1.363 . S
C8070 N8068 1.356 . S
C8071 C8065 1.363 . S
C8071 C8066 1.379 . S
C8071 N8069 1.356 . S
N8072 C8064 1.356 . S
N8072 H8078 0.984 . S
N8072 H8079 0.984 . S
N8073 C8066 1.356 . S
N8073 H8076 0.984 . S
N8073 H8077 0.985 . S
H8074 N8069 0.984 . S
H8075 N8069 0.985 . S
H8076 N8073 0.984 . S
H8077 N8073 0.985 . S
H8078 N8072 0.984 . S
H8079 N8072 0.984 . S
H8080 N8068 0.984 . S
H8081 N8068 0.985 . S
C8082 C8083 1.363 . S
C8082 C8088 1.379 . S
C8082 N8090 1.356 . S
C8083 C8082 1.363 . S
C8083 C8089 1.363 . S
C8084 C8085 1.363 . S
C8084 C8089 1.379 . S
C8084 N8091 1.356 . S
C8085 C8084 1.363 . S
C8085 C8088 1.363 . S
N8086 C8088 1.356 . S
N8086 H8098 0.984 . S
N8086 H8099 0.985 . S
N8087 C8089 1.356 . S
N8087 H8092 0.984 . S
N8087 H8093 0.985 . S
C8088 C8082 1.379 . S
C8088 C8085 1.363 . S
C8088 N8086 1.356 . S
C8089 C8083 1.363 . S
C8089 C8084 1.379 . S
C8089 N8087 1.356 . S
N8090 C8082 1.356 . S
N8090 H8096 0.984 . S
N8090 H8097 0.984 . S
N8091 C8084 1.356 . S
N8091 H8094 0.984 . S
N8091 H8095 0.985 . S
H8092 N8087 0.984 . S
H8093 N8087 0.985 . S
H8094 N8091 0.984 . S
H8095 N8091 0.985 . S
H8096 N8090 0.984 . S
H8097 N8090 0.984 . S
H8098 N8086 0.984 . S
H8099 N8086 0.985 . S
C8100 C8101 1.363 . S
C8100 C8106 1.379 . S
C8100 N8108 1.356 . S
C8101 C8100 1.363 . S
C8101 C8107 1.363 . S
C8102 C8103 1.363 . S
C8102 C8107 1.379 . S
C8102 N8109 1.356 . S
C8103 C8102 1.363 . S
C8103 C8106 1.363 . S
N8104 C8106 1.356 . S
N8104 H8116 0.984 . S
N8104 H8117 0.985 . S
N8105 C8107 1.356 . S
N8105 H8110 0.984 . S
N8105 H8111 0.985 . S
C8106 C8100 1.379 . S
C8106 C8103 1.363 . S
C8106 N8104 1.356 . S
C8107 C8101 1.363 . S
C8107 C8102 1.379 . S
C8107 N8105 1.356 . S
N8108 C8100 1.356 . S
N8108 H8114 0.984 . S
N8108 H8115 0.984 . S
N8109 C8102 1.356 . S
N8109 H8112 0.984 . S
N8109 H8113 0.985 . S
H8110 N8105 0.984 . S
H8111 N8105 0.985 . S
H8112 N8109 0.984 . S
H8113 N8109 0.985 . S
H8114 N8108 0.984 . S
H8115 N8108 0.984 . S
H8116 N8104 0.984 . S
H8117 N8104 0.985 . S
C8118 C8119 1.363 . S
C8118 C8124 1.379 . S
C8118 N8126 1.356 . S
C8119 C8118 1.363 . S
C8119 C8125 1.363 . S
C8120 C8121 1.363 . S
C8120 C8125 1.379 . S
C8120 N8127 1.356 . S
C8121 C8120 1.363 . S
C8121 C8124 1.363 . S
N8122 C8124 1.356 . S
N8122 H8134 0.984 . S
N8122 H8135 0.985 . S
N8123 C8125 1.356 . S
N8123 H8128 0.984 . S
N8123 H8129 0.985 . S
C8124 C8118 1.379 . S
C8124 C8121 1.363 . S
C8124 N8122 1.356 . S
C8125 C8119 1.363 . S
C8125 C8120 1.379 . S
C8125 N8123 1.356 . S
N8126 C8118 1.356 . S
N8126 H8132 0.984 . S
N8126 H8133 0.984 . S
N8127 C8120 1.356 . S
N8127 H8130 0.984 . S
N8127 H8131 0.985 . S
H8128 N8123 0.984 . S
H8129 N8123 0.985 . S
H8130 N8127 0.984 . S
H8131 N8127 0.985 . S
H8132 N8126 0.984 . S
H8133 N8126 0.984 . S
H8134 N8122 0.984 . S
H8135 N8122 0.985 . S
C8136 C8137 1.363 . S
C8136 C8142 1.379 . S
C8136 N8144 1.356 . S
C8137 C8136 1.363 . S
C8137 C8143 1.363 . S
C8138 C8139 1.363 . S
C8138 C8143 1.379 . S
C8138 N8145 1.356 . S
C8139 C8138 1.363 . S
C8139 C8142 1.363 . S
N8140 C8142 1.356 . S
N8140 H8152 0.984 . S
N8140 H8153 0.985 . S
N8141 C8143 1.356 . S
N8141 H8146 0.984 . S
N8141 H8147 0.985 . S
C8142 C8136 1.379 . S
C8142 C8139 1.363 . S
C8142 N8140 1.356 . S
C8143 C8137 1.363 . S
C8143 C8138 1.379 . S
C8143 N8141 1.356 . S
N8144 C8136 1.356 . S
N8144 H8150 0.984 . S
N8144 H8151 0.984 . S
N8145 C8138 1.356 . S
N8145 H8148 0.984 . S
N8145 H8149 0.985 . S
H8146 N8141 0.984 . S
H8147 N8141 0.985 . S
H8148 N8145 0.984 . S
H8149 N8145 0.985 . S
H8150 N8144 0.984 . S
H8151 N8144 0.984 . S
H8152 N8140 0.984 . S
H8153 N8140 0.985 . S
C8154 C8155 1.363 . S
C8154 C8160 1.379 . S
C8154 N8162 1.356 . S
C8155 C8154 1.363 . S
C8155 C8161 1.363 . S
C8156 C8157 1.363 . S
C8156 C8161 1.379 . S
C8156 N8163 1.356 . S
C8157 C8156 1.363 . S
C8157 C8160 1.363 . S
N8158 C8160 1.356 . S
N8158 H8170 0.984 . S
N8158 H8171 0.985 . S
N8159 C8161 1.356 . S
N8159 H8164 0.984 . S
N8159 H8165 0.985 . S
C8160 C8154 1.379 . S
C8160 C8157 1.363 . S
C8160 N8158 1.356 . S
C8161 C8155 1.363 . S
C8161 C8156 1.379 . S
C8161 N8159 1.356 . S
N8162 C8154 1.356 . S
N8162 H8168 0.984 . S
N8162 H8169 0.984 . S
N8163 C8156 1.356 . S
N8163 H8166 0.984 . S
N8163 H8167 0.985 . S
H8164 N8159 0.984 . S
H8165 N8159 0.985 . S
H8166 N8163 0.984 . S
H8167 N8163 0.985 . S
H8168 N8162 0.984 . S
H8169 N8162 0.984 . S
H8170 N8158 0.984 . S
H8171 N8158 0.985 . S
C8172 C8173 1.363 . S
C8172 C8178 1.379 . S
C8172 N8180 1.356 . S
C8173 C8172 1.363 . S
C8173 C8179 1.363 . S
C8174 C8175 1.363 . S
C8174 C8179 1.379 . S
C8174 N8181 1.356 . S
C8175 C8174 1.363 . S
C8175 C8178 1.363 . S
N8176 C8178 1.356 . S
N8176 H8188 0.984 . S
N8176 H8189 0.985 . S
N8177 C8179 1.356 . S
N8177 H8182 0.984 . S
N8177 H8183 0.985 . S
C8178 C8172 1.379 . S
C8178 C8175 1.363 . S
C8178 N8176 1.356 . S
C8179 C8173 1.363 . S
C8179 C8174 1.379 . S
C8179 N8177 1.356 . S
N8180 C8172 1.356 . S
N8180 H8186 0.984 . S
N8180 H8187 0.984 . S
N8181 C8174 1.356 . S
N8181 H8184 0.984 . S
N8181 H8185 0.985 . S
H8182 N8177 0.984 . S
H8183 N8177 0.985 . S
H8184 N8181 0.984 . S
H8185 N8181 0.985 . S
H8186 N8180 0.984 . S
H8187 N8180 0.984 . S
H8188 N8176 0.984 . S
H8189 N8176 0.985 . S
C8190 C8191 1.363 . S
C8190 C8196 1.379 . S
C8190 N8198 1.356 . S
C8191 C8190 1.363 . S
C8191 C8197 1.363 . S
C8192 C8193 1.363 . S
C8192 C8197 1.379 . S
C8192 N8199 1.356 . S
C8193 C8192 1.363 . S
C8193 C8196 1.363 . S
N8194 C8196 1.356 . S
N8194 H8206 0.984 . S
N8194 H8207 0.985 . S
N8195 C8197 1.356 . S
N8195 H8200 0.984 . S
N8195 H8201 0.985 . S
C8196 C8190 1.379 . S
C8196 C8193 1.363 . S
C8196 N8194 1.356 . S
C8197 C8191 1.363 . S
C8197 C8192 1.379 . S
C8197 N8195 1.356 . S
N8198 C8190 1.356 . S
N8198 H8204 0.984 . S
N8198 H8205 0.984 . S
N8199 C8192 1.356 . S
N8199 H8202 0.984 . S
N8199 H8203 0.985 . S
H8200 N8195 0.984 . S
H8201 N8195 0.985 . S
H8202 N8199 0.984 . S
H8203 N8199 0.985 . S
H8204 N8198 0.984 . S
H8205 N8198 0.984 . S
H8206 N8194 0.984 . S
H8207 N8194 0.985 . S
C8208 C8209 1.363 . S
C8208 C8214 1.379 . S
C8208 N8216 1.356 . S
C8209 C8208 1.363 . S
C8209 C8215 1.363 . S
C8210 C8211 1.363 . S
C8210 C8215 1.379 . S
C8210 N8217 1.356 . S
C8211 C8210 1.363 . S
C8211 C8214 1.363 . S
N8212 C8214 1.356 . S
N8212 H8224 0.984 . S
N8212 H8225 0.985 . S
N8213 C8215 1.356 . S
N8213 H8218 0.984 . S
N8213 H8219 0.985 . S
C8214 C8208 1.379 . S
C8214 C8211 1.363 . S
C8214 N8212 1.356 . S
C8215 C8209 1.363 . S
C8215 C8210 1.379 . S
C8215 N8213 1.356 . S
N8216 C8208 1.356 . S
N8216 H8222 0.984 . S
N8216 H8223 0.984 . S
N8217 C8210 1.356 . S
N8217 H8220 0.984 . S
N8217 H8221 0.985 . S
H8218 N8213 0.984 . S
H8219 N8213 0.985 . S
H8220 N8217 0.984 . S
H8221 N8217 0.985 . S
H8222 N8216 0.984 . S
H8223 N8216 0.984 . S
H8224 N8212 0.984 . S
H8225 N8212 0.985 . S
C8226 C8227 1.363 . S
C8226 C8232 1.379 . S
C8226 N8234 1.356 . S
C8227 C8226 1.363 . S
C8227 C8233 1.363 . S
C8228 C8229 1.363 . S
C8228 C8233 1.379 . S
C8228 N8235 1.356 . S
C8229 C8228 1.363 . S
C8229 C8232 1.363 . S
N8230 C8232 1.356 . S
N8230 H8242 0.984 . S
N8230 H8243 0.985 . S
N8231 C8233 1.356 . S
N8231 H8236 0.984 . S
N8231 H8237 0.985 . S
C8232 C8226 1.379 . S
C8232 C8229 1.363 . S
C8232 N8230 1.356 . S
C8233 C8227 1.363 . S
C8233 C8228 1.379 . S
C8233 N8231 1.356 . S
N8234 C8226 1.356 . S
N8234 H8240 0.984 . S
N8234 H8241 0.984 . S
N8235 C8228 1.356 . S
N8235 H8238 0.984 . S
N8235 H8239 0.985 . S
H8236 N8231 0.984 . S
H8237 N8231 0.985 . S
H8238 N8235 0.984 . S
H8239 N8235 0.985 . S
H8240 N8234 0.984 . S
H8241 N8234 0.984 . S
H8242 N8230 0.984 . S
H8243 N8230 0.985 . S
C8244 C8245 1.363 . S
C8244 C8250 1.379 . S
C8244 N8252 1.356 . S
C8245 C8244 1.363 . S
C8245 C8251 1.363 . S
C8246 C8247 1.363 . S
C8246 C8251 1.379 . S
C8246 N8253 1.356 . S
C8247 C8246 1.363 . S
C8247 C8250 1.363 . S
N8248 C8250 1.356 . S
N8248 H8260 0.984 . S
N8248 H8261 0.985 . S
N8249 C8251 1.356 . S
N8249 H8254 0.984 . S
N8249 H8255 0.985 . S
C8250 C8244 1.379 . S
C8250 C8247 1.363 . S
C8250 N8248 1.356 . S
C8251 C8245 1.363 . S
C8251 C8246 1.379 . S
C8251 N8249 1.356 . S
N8252 C8244 1.356 . S
N8252 H8258 0.984 . S
N8252 H8259 0.984 . S
N8253 C8246 1.356 . S
N8253 H8256 0.984 . S
N8253 H8257 0.985 . S
H8254 N8249 0.984 . S
H8255 N8249 0.985 . S
H8256 N8253 0.984 . S
H8257 N8253 0.985 . S
H8258 N8252 0.984 . S
H8259 N8252 0.984 . S
H8260 N8248 0.984 . S
H8261 N8248 0.985 . S
C8262 C8263 1.363 . S
C8262 C8268 1.379 . S
C8262 N8270 1.356 . S
C8263 C8262 1.363 . S
C8263 C8269 1.363 . S
C8264 C8265 1.363 . S
C8264 C8269 1.379 . S
C8264 N8271 1.356 . S
C8265 C8264 1.363 . S
C8265 C8268 1.363 . S
N8266 C8268 1.356 . S
N8266 H8278 0.984 . S
N8266 H8279 0.985 . S
N8267 C8269 1.356 . S
N8267 H8272 0.984 . S
N8267 H8273 0.985 . S
C8268 C8262 1.379 . S
C8268 C8265 1.363 . S
C8268 N8266 1.356 . S
C8269 C8263 1.363 . S
C8269 C8264 1.379 . S
C8269 N8267 1.356 . S
N8270 C8262 1.356 . S
N8270 H8276 0.984 . S
N8270 H8277 0.984 . S
N8271 C8264 1.356 . S
N8271 H8274 0.984 . S
N8271 H8275 0.985 . S
H8272 N8267 0.984 . S
H8273 N8267 0.985 . S
H8274 N8271 0.984 . S
H8275 N8271 0.985 . S
H8276 N8270 0.984 . S
H8277 N8270 0.984 . S
H8278 N8266 0.984 . S
H8279 N8266 0.985 . S
C8280 C8281 1.363 . S
C8280 C8286 1.379 . S
C8280 N8288 1.356 . S
C8281 C8280 1.363 . S
C8281 C8287 1.363 . S
C8282 C8283 1.363 . S
C8282 C8287 1.379 . S
C8282 N8289 1.356 . S
C8283 C8282 1.363 . S
C8283 C8286 1.363 . S
N8284 C8286 1.356 . S
N8284 H8296 0.984 . S
N8284 H8297 0.985 . S
N8285 C8287 1.356 . S
N8285 H8290 0.984 . S
N8285 H8291 0.985 . S
C8286 C8280 1.379 . S
C8286 C8283 1.363 . S
C8286 N8284 1.356 . S
C8287 C8281 1.363 . S
C8287 C8282 1.379 . S
C8287 N8285 1.356 . S
N8288 C8280 1.356 . S
N8288 H8294 0.984 . S
N8288 H8295 0.984 . S
N8289 C8282 1.356 . S
N8289 H8292 0.984 . S
N8289 H8293 0.985 . S
H8290 N8285 0.984 . S
H8291 N8285 0.985 . S
H8292 N8289 0.984 . S
H8293 N8289 0.985 . S
H8294 N8288 0.984 . S
H8295 N8288 0.984 . S
H8296 N8284 0.984 . S
H8297 N8284 0.985 . S
C8298 C8299 1.363 . S
C8298 C8304 1.379 . S
C8298 N8306 1.356 . S
C8299 C8298 1.363 . S
C8299 C8305 1.363 . S
C8300 C8301 1.363 . S
C8300 C8305 1.379 . S
C8300 N8307 1.356 . S
C8301 C8300 1.363 . S
C8301 C8304 1.363 . S
N8302 C8304 1.356 . S
N8302 H8314 0.984 . S
N8302 H8315 0.985 . S
N8303 C8305 1.356 . S
N8303 H8308 0.984 . S
N8303 H8309 0.985 . S
C8304 C8298 1.379 . S
C8304 C8301 1.363 . S
C8304 N8302 1.356 . S
C8305 C8299 1.363 . S
C8305 C8300 1.379 . S
C8305 N8303 1.356 . S
N8306 C8298 1.356 . S
N8306 H8312 0.984 . S
N8306 H8313 0.984 . S
N8307 C8300 1.356 . S
N8307 H8310 0.984 . S
N8307 H8311 0.985 . S
H8308 N8303 0.984 . S
H8309 N8303 0.985 . S
H8310 N8307 0.984 . S
H8311 N8307 0.985 . S
H8312 N8306 0.984 . S
H8313 N8306 0.984 . S
H8314 N8302 0.984 . S
H8315 N8302 0.985 . S
C8316 C8317 1.363 . S
C8316 C8322 1.379 . S
C8316 N8324 1.356 . S
C8317 C8316 1.363 . S
C8317 C8323 1.363 . S
C8318 C8319 1.363 . S
C8318 C8323 1.379 . S
C8318 N8325 1.356 . S
C8319 C8318 1.363 . S
C8319 C8322 1.363 . S
N8320 C8322 1.356 . S
N8320 H8332 0.984 . S
N8320 H8333 0.985 . S
N8321 C8323 1.356 . S
N8321 H8326 0.984 . S
N8321 H8327 0.985 . S
C8322 C8316 1.379 . S
C8322 C8319 1.363 . S
C8322 N8320 1.356 . S
C8323 C8317 1.363 . S
C8323 C8318 1.379 . S
C8323 N8321 1.356 . S
N8324 C8316 1.356 . S
N8324 H8330 0.984 . S
N8324 H8331 0.984 . S
N8325 C8318 1.356 . S
N8325 H8328 0.984 . S
N8325 H8329 0.985 . S
H8326 N8321 0.984 . S
H8327 N8321 0.985 . S
H8328 N8325 0.984 . S
H8329 N8325 0.985 . S
H8330 N8324 0.984 . S
H8331 N8324 0.984 . S
H8332 N8320 0.984 . S
H8333 N8320 0.985 . S
C8334 C8335 1.363 . S
C8334 C8340 1.379 . S
C8334 N8342 1.356 . S
C8335 C8334 1.363 . S
C8335 C8341 1.363 . S
C8336 C8337 1.363 . S
C8336 C8341 1.379 . S
C8336 N8343 1.356 . S
C8337 C8336 1.363 . S
C8337 C8340 1.363 . S
N8338 C8340 1.356 . S
N8338 H8350 0.984 . S
N8338 H8351 0.985 . S
N8339 C8341 1.356 . S
N8339 H8344 0.984 . S
N8339 H8345 0.985 . S
C8340 C8334 1.379 . S
C8340 C8337 1.363 . S
C8340 N8338 1.356 . S
C8341 C8335 1.363 . S
C8341 C8336 1.379 . S
C8341 N8339 1.356 . S
N8342 C8334 1.356 . S
N8342 H8348 0.984 . S
N8342 H8349 0.984 . S
N8343 C8336 1.356 . S
N8343 H8346 0.984 . S
N8343 H8347 0.985 . S
H8344 N8339 0.984 . S
H8345 N8339 0.985 . S
H8346 N8343 0.984 . S
H8347 N8343 0.985 . S
H8348 N8342 0.984 . S
H8349 N8342 0.984 . S
H8350 N8338 0.984 . S
H8351 N8338 0.985 . S
C8352 C8353 1.363 . S
C8352 C8358 1.379 . S
C8352 N8360 1.356 . S
C8353 C8352 1.363 . S
C8353 C8359 1.363 . S
C8354 C8355 1.363 . S
C8354 C8359 1.379 . S
C8354 N8361 1.356 . S
C8355 C8354 1.363 . S
C8355 C8358 1.363 . S
N8356 C8358 1.356 . S
N8356 H8368 0.984 . S
N8356 H8369 0.985 . S
N8357 C8359 1.356 . S
N8357 H8362 0.984 . S
N8357 H8363 0.985 . S
C8358 C8352 1.379 . S
C8358 C8355 1.363 . S
C8358 N8356 1.356 . S
C8359 C8353 1.363 . S
C8359 C8354 1.379 . S
C8359 N8357 1.356 . S
N8360 C8352 1.356 . S
N8360 H8366 0.984 . S
N8360 H8367 0.984 . S
N8361 C8354 1.356 . S
N8361 H8364 0.984 . S
N8361 H8365 0.985 . S
H8362 N8357 0.984 . S
H8363 N8357 0.985 . S
H8364 N8361 0.984 . S
H8365 N8361 0.985 . S
H8366 N8360 0.984 . S
H8367 N8360 0.984 . S
H8368 N8356 0.984 . S
H8369 N8356 0.985 . S
C8370 C8371 1.363 . S
C8370 C8376 1.379 . S
C8370 N8378 1.356 . S
C8371 C8370 1.363 . S
C8371 C8377 1.363 . S
C8372 C8373 1.363 . S
C8372 C8377 1.379 . S
C8372 N8379 1.356 . S
C8373 C8372 1.363 . S
C8373 C8376 1.363 . S
N8374 C8376 1.356 . S
N8374 H8386 0.984 . S
N8374 H8387 0.985 . S
N8375 C8377 1.356 . S
N8375 H8380 0.984 . S
N8375 H8381 0.985 . S
C8376 C8370 1.379 . S
C8376 C8373 1.363 . S
C8376 N8374 1.356 . S
C8377 C8371 1.363 . S
C8377 C8372 1.379 . S
C8377 N8375 1.356 . S
N8378 C8370 1.356 . S
N8378 H8384 0.984 . S
N8378 H8385 0.984 . S
N8379 C8372 1.356 . S
N8379 H8382 0.984 . S
N8379 H8383 0.985 . S
H8380 N8375 0.984 . S
H8381 N8375 0.985 . S
H8382 N8379 0.984 . S
H8383 N8379 0.985 . S
H8384 N8378 0.984 . S
H8385 N8378 0.984 . S
H8386 N8374 0.984 . S
H8387 N8374 0.985 . S
C8388 C8389 1.363 . S
C8388 C8394 1.379 . S
C8388 N8396 1.356 . S
C8389 C8388 1.363 . S
C8389 C8395 1.363 . S
C8390 C8391 1.363 . S
C8390 C8395 1.379 . S
C8390 N8397 1.356 . S
C8391 C8390 1.363 . S
C8391 C8394 1.363 . S
N8392 C8394 1.356 . S
N8392 H8404 0.984 . S
N8392 H8405 0.985 . S
N8393 C8395 1.356 . S
N8393 H8398 0.984 . S
N8393 H8399 0.985 . S
C8394 C8388 1.379 . S
C8394 C8391 1.363 . S
C8394 N8392 1.356 . S
C8395 C8389 1.363 . S
C8395 C8390 1.379 . S
C8395 N8393 1.356 . S
N8396 C8388 1.356 . S
N8396 H8402 0.984 . S
N8396 H8403 0.984 . S
N8397 C8390 1.356 . S
N8397 H8400 0.984 . S
N8397 H8401 0.985 . S
H8398 N8393 0.984 . S
H8399 N8393 0.985 . S
H8400 N8397 0.984 . S
H8401 N8397 0.985 . S
H8402 N8396 0.984 . S
H8403 N8396 0.984 . S
H8404 N8392 0.984 . S
H8405 N8392 0.985 . S
C8406 C8407 1.363 . S
C8406 C8412 1.379 . S
C8406 N8414 1.356 . S
C8407 C8406 1.363 . S
C8407 C8413 1.363 . S
C8408 C8409 1.363 . S
C8408 C8413 1.379 . S
C8408 N8415 1.356 . S
C8409 C8408 1.363 . S
C8409 C8412 1.363 . S
N8410 C8412 1.356 . S
N8410 H8422 0.984 . S
N8410 H8423 0.985 . S
N8411 C8413 1.356 . S
N8411 H8416 0.984 . S
N8411 H8417 0.985 . S
C8412 C8406 1.379 . S
C8412 C8409 1.363 . S
C8412 N8410 1.356 . S
C8413 C8407 1.363 . S
C8413 C8408 1.379 . S
C8413 N8411 1.356 . S
N8414 C8406 1.356 . S
N8414 H8420 0.984 . S
N8414 H8421 0.984 . S
N8415 C8408 1.356 . S
N8415 H8418 0.984 . S
N8415 H8419 0.985 . S
H8416 N8411 0.984 . S
H8417 N8411 0.985 . S
H8418 N8415 0.984 . S
H8419 N8415 0.985 . S
H8420 N8414 0.984 . S
H8421 N8414 0.984 . S
H8422 N8410 0.984 . S
H8423 N8410 0.985 . S
C8424 C8425 1.363 . S
C8424 C8430 1.379 . S
C8424 N8432 1.356 . S
C8425 C8424 1.363 . S
C8425 C8431 1.363 . S
C8426 C8427 1.363 . S
C8426 C8431 1.379 . S
C8426 N8433 1.356 . S
C8427 C8426 1.363 . S
C8427 C8430 1.363 . S
N8428 C8430 1.356 . S
N8428 H8440 0.984 . S
N8428 H8441 0.985 . S
N8429 C8431 1.356 . S
N8429 H8434 0.984 . S
N8429 H8435 0.985 . S
C8430 C8424 1.379 . S
C8430 C8427 1.363 . S
C8430 N8428 1.356 . S
C8431 C8425 1.363 . S
C8431 C8426 1.379 . S
C8431 N8429 1.356 . S
N8432 C8424 1.356 . S
N8432 H8438 0.984 . S
N8432 H8439 0.984 . S
N8433 C8426 1.356 . S
N8433 H8436 0.984 . S
N8433 H8437 0.985 . S
H8434 N8429 0.984 . S
H8435 N8429 0.985 . S
H8436 N8433 0.984 . S
H8437 N8433 0.985 . S
H8438 N8432 0.984 . S
H8439 N8432 0.984 . S
H8440 N8428 0.984 . S
H8441 N8428 0.985 . S
C8442 C8443 1.363 . S
C8442 C8448 1.379 . S
C8442 N8450 1.356 . S
C8443 C8442 1.363 . S
C8443 C8449 1.363 . S
C8444 C8445 1.363 . S
C8444 C8449 1.379 . S
C8444 N8451 1.356 . S
C8445 C8444 1.363 . S
C8445 C8448 1.363 . S
N8446 C8448 1.356 . S
N8446 H8458 0.984 . S
N8446 H8459 0.985 . S
N8447 C8449 1.356 . S
N8447 H8452 0.984 . S
N8447 H8453 0.985 . S
C8448 C8442 1.379 . S
C8448 C8445 1.363 . S
C8448 N8446 1.356 . S
C8449 C8443 1.363 . S
C8449 C8444 1.379 . S
C8449 N8447 1.356 . S
N8450 C8442 1.356 . S
N8450 H8456 0.984 . S
N8450 H8457 0.984 . S
N8451 C8444 1.356 . S
N8451 H8454 0.984 . S
N8451 H8455 0.985 . S
H8452 N8447 0.984 . S
H8453 N8447 0.985 . S
H8454 N8451 0.984 . S
H8455 N8451 0.985 . S
H8456 N8450 0.984 . S
H8457 N8450 0.984 . S
H8458 N8446 0.984 . S
H8459 N8446 0.985 . S
C8460 C8461 1.363 . S
C8460 C8466 1.379 . S
C8460 N8468 1.356 . S
C8461 C8460 1.363 . S
C8461 C8467 1.363 . S
C8462 C8463 1.363 . S
C8462 C8467 1.379 . S
C8462 N8469 1.356 . S
C8463 C8462 1.363 . S
C8463 C8466 1.363 . S
N8464 C8466 1.356 . S
N8464 H8476 0.984 . S
N8464 H8477 0.985 . S
N8465 C8467 1.356 . S
N8465 H8470 0.984 . S
N8465 H8471 0.985 . S
C8466 C8460 1.379 . S
C8466 C8463 1.363 . S
C8466 N8464 1.356 . S
C8467 C8461 1.363 . S
C8467 C8462 1.379 . S
C8467 N8465 1.356 . S
N8468 C8460 1.356 . S
N8468 H8474 0.984 . S
N8468 H8475 0.984 . S
N8469 C8462 1.356 . S
N8469 H8472 0.984 . S
N8469 H8473 0.985 . S
H8470 N8465 0.984 . S
H8471 N8465 0.985 . S
H8472 N8469 0.984 . S
H8473 N8469 0.985 . S
H8474 N8468 0.984 . S
H8475 N8468 0.984 . S
H8476 N8464 0.984 . S
H8477 N8464 0.985 . S
C8478 C8479 1.363 . S
C8478 C8484 1.379 . S
C8478 N8486 1.356 . S
C8479 C8478 1.363 . S
C8479 C8485 1.363 . S
C8480 C8481 1.363 . S
C8480 C8485 1.379 . S
C8480 N8487 1.356 . S
C8481 C8480 1.363 . S
C8481 C8484 1.363 . S
N8482 C8484 1.356 . S
N8482 H8494 0.984 . S
N8482 H8495 0.985 . S
N8483 C8485 1.356 . S
N8483 H8488 0.984 . S
N8483 H8489 0.985 . S
C8484 C8478 1.379 . S
C8484 C8481 1.363 . S
C8484 N8482 1.356 . S
C8485 C8479 1.363 . S
C8485 C8480 1.379 . S
C8485 N8483 1.356 . S
N8486 C8478 1.356 . S
N8486 H8492 0.984 . S
N8486 H8493 0.984 . S
N8487 C8480 1.356 . S
N8487 H8490 0.984 . S
N8487 H8491 0.985 . S
H8488 N8483 0.984 . S
H8489 N8483 0.985 . S
H8490 N8487 0.984 . S
H8491 N8487 0.985 . S
H8492 N8486 0.984 . S
H8493 N8486 0.984 . S
H8494 N8482 0.984 . S
H8495 N8482 0.985 . S
C8496 C8497 1.363 . S
C8496 C8502 1.379 . S
C8496 N8504 1.356 . S
C8497 C8496 1.363 . S
C8497 C8503 1.363 . S
C8498 C8499 1.363 . S
C8498 C8503 1.379 . S
C8498 N8505 1.356 . S
C8499 C8498 1.363 . S
C8499 C8502 1.363 . S
N8500 C8502 1.356 . S
N8500 H8512 0.984 . S
N8500 H8513 0.985 . S
N8501 C8503 1.356 . S
N8501 H8506 0.984 . S
N8501 H8507 0.985 . S
C8502 C8496 1.379 . S
C8502 C8499 1.363 . S
C8502 N8500 1.356 . S
C8503 C8497 1.363 . S
C8503 C8498 1.379 . S
C8503 N8501 1.356 . S
N8504 C8496 1.356 . S
N8504 H8510 0.984 . S
N8504 H8511 0.984 . S
N8505 C8498 1.356 . S
N8505 H8508 0.984 . S
N8505 H8509 0.985 . S
H8506 N8501 0.984 . S
H8507 N8501 0.985 . S
H8508 N8505 0.984 . S
H8509 N8505 0.985 . S
H8510 N8504 0.984 . S
H8511 N8504 0.984 . S
H8512 N8500 0.984 . S
H8513 N8500 0.985 . S
C8514 C8515 1.363 . S
C8514 C8520 1.379 . S
C8514 N8522 1.356 . S
C8515 C8514 1.363 . S
C8515 C8521 1.363 . S
C8516 C8517 1.363 . S
C8516 C8521 1.379 . S
C8516 N8523 1.356 . S
C8517 C8516 1.363 . S
C8517 C8520 1.363 . S
N8518 C8520 1.356 . S
N8518 H8530 0.984 . S
N8518 H8531 0.985 . S
N8519 C8521 1.356 . S
N8519 H8524 0.984 . S
N8519 H8525 0.985 . S
C8520 C8514 1.379 . S
C8520 C8517 1.363 . S
C8520 N8518 1.356 . S
C8521 C8515 1.363 . S
C8521 C8516 1.379 . S
C8521 N8519 1.356 . S
N8522 C8514 1.356 . S
N8522 H8528 0.984 . S
N8522 H8529 0.984 . S
N8523 C8516 1.356 . S
N8523 H8526 0.984 . S
N8523 H8527 0.985 . S
H8524 N8519 0.984 . S
H8525 N8519 0.985 . S
H8526 N8523 0.984 . S
H8527 N8523 0.985 . S
H8528 N8522 0.984 . S
H8529 N8522 0.984 . S
H8530 N8518 0.984 . S
H8531 N8518 0.985 . S
C8532 C8533 1.363 . S
C8532 C8538 1.379 . S
C8532 N8540 1.356 . S
C8533 C8532 1.363 . S
C8533 C8539 1.363 . S
C8534 C8535 1.363 . S
C8534 C8539 1.379 . S
C8534 N8541 1.356 . S
C8535 C8534 1.363 . S
C8535 C8538 1.363 . S
N8536 C8538 1.356 . S
N8536 H8548 0.984 . S
N8536 H8549 0.985 . S
N8537 C8539 1.356 . S
N8537 H8542 0.984 . S
N8537 H8543 0.985 . S
C8538 C8532 1.379 . S
C8538 C8535 1.363 . S
C8538 N8536 1.356 . S
C8539 C8533 1.363 . S
C8539 C8534 1.379 . S
C8539 N8537 1.356 . S
N8540 C8532 1.356 . S
N8540 H8546 0.984 . S
N8540 H8547 0.984 . S
N8541 C8534 1.356 . S
N8541 H8544 0.984 . S
N8541 H8545 0.985 . S
H8542 N8537 0.984 . S
H8543 N8537 0.985 . S
H8544 N8541 0.984 . S
H8545 N8541 0.985 . S
H8546 N8540 0.984 . S
H8547 N8540 0.984 . S
H8548 N8536 0.984 . S
H8549 N8536 0.985 . S
C8550 C8551 1.363 . S
C8550 C8556 1.379 . S
C8550 N8558 1.356 . S
C8551 C8550 1.363 . S
C8551 C8557 1.363 . S
C8552 C8553 1.363 . S
C8552 C8557 1.379 . S
C8552 N8559 1.356 . S
C8553 C8552 1.363 . S
C8553 C8556 1.363 . S
N8554 C8556 1.356 . S
N8554 H8566 0.984 . S
N8554 H8567 0.985 . S
N8555 C8557 1.356 . S
N8555 H8560 0.984 . S
N8555 H8561 0.985 . S
C8556 C8550 1.379 . S
C8556 C8553 1.363 . S
C8556 N8554 1.356 . S
C8557 C8551 1.363 . S
C8557 C8552 1.379 . S
C8557 N8555 1.356 . S
N8558 C8550 1.356 . S
N8558 H8564 0.984 . S
N8558 H8565 0.984 . S
N8559 C8552 1.356 . S
N8559 H8562 0.984 . S
N8559 H8563 0.985 . S
H8560 N8555 0.984 . S
H8561 N8555 0.985 . S
H8562 N8559 0.984 . S
H8563 N8559 0.985 . S
H8564 N8558 0.984 . S
H8565 N8558 0.984 . S
H8566 N8554 0.984 . S
H8567 N8554 0.985 . S
C8568 C8569 1.363 . S
C8568 C8574 1.379 . S
C8568 N8576 1.356 . S
C8569 C8568 1.363 . S
C8569 C8575 1.363 . S
C8570 C8571 1.363 . S
C8570 C8575 1.379 . S
C8570 N8577 1.356 . S
C8571 C8570 1.363 . S
C8571 C8574 1.363 . S
N8572 C8574 1.356 . S
N8572 H8584 0.984 . S
N8572 H8585 0.985 . S
N8573 C8575 1.356 . S
N8573 H8578 0.984 . S
N8573 H8579 0.985 . S
C8574 C8568 1.379 . S
C8574 C8571 1.363 . S
C8574 N8572 1.356 . S
C8575 C8569 1.363 . S
C8575 C8570 1.379 . S
C8575 N8573 1.356 . S
N8576 C8568 1.356 . S
N8576 H8582 0.984 . S
N8576 H8583 0.984 . S
N8577 C8570 1.356 . S
N8577 H8580 0.984 . S
N8577 H8581 0.985 . S
H8578 N8573 0.984 . S
H8579 N8573 0.985 . S
H8580 N8577 0.984 . S
H8581 N8577 0.985 . S
H8582 N8576 0.984 . S
H8583 N8576 0.984 . S
H8584 N8572 0.984 . S
H8585 N8572 0.985 . S
C8586 C8587 1.363 . S
C8586 C8592 1.379 . S
C8586 N8594 1.356 . S
C8587 C8586 1.363 . S
C8587 C8593 1.363 . S
C8588 C8589 1.363 . S
C8588 C8593 1.379 . S
C8588 N8595 1.356 . S
C8589 C8588 1.363 . S
C8589 C8592 1.363 . S
N8590 C8592 1.356 . S
N8590 H8602 0.984 . S
N8590 H8603 0.985 . S
N8591 C8593 1.356 . S
N8591 H8596 0.984 . S
N8591 H8597 0.985 . S
C8592 C8586 1.379 . S
C8592 C8589 1.363 . S
C8592 N8590 1.356 . S
C8593 C8587 1.363 . S
C8593 C8588 1.379 . S
C8593 N8591 1.356 . S
N8594 C8586 1.356 . S
N8594 H8600 0.984 . S
N8594 H8601 0.984 . S
N8595 C8588 1.356 . S
N8595 H8598 0.984 . S
N8595 H8599 0.985 . S
H8596 N8591 0.984 . S
H8597 N8591 0.985 . S
H8598 N8595 0.984 . S
H8599 N8595 0.985 . S
H8600 N8594 0.984 . S
H8601 N8594 0.984 . S
H8602 N8590 0.984 . S
H8603 N8590 0.985 . S
C8604 C8605 1.363 . S
C8604 C8610 1.379 . S
C8604 N8612 1.356 . S
C8605 C8604 1.363 . S
C8605 C8611 1.363 . S
C8606 C8607 1.363 . S
C8606 C8611 1.379 . S
C8606 N8613 1.356 . S
C8607 C8606 1.363 . S
C8607 C8610 1.363 . S
N8608 C8610 1.356 . S
N8608 H8620 0.984 . S
N8608 H8621 0.985 . S
N8609 C8611 1.356 . S
N8609 H8614 0.984 . S
N8609 H8615 0.985 . S
C8610 C8604 1.379 . S
C8610 C8607 1.363 . S
C8610 N8608 1.356 . S
C8611 C8605 1.363 . S
C8611 C8606 1.379 . S
C8611 N8609 1.356 . S
N8612 C8604 1.356 . S
N8612 H8618 0.984 . S
N8612 H8619 0.984 . S
N8613 C8606 1.356 . S
N8613 H8616 0.984 . S
N8613 H8617 0.985 . S
H8614 N8609 0.984 . S
H8615 N8609 0.985 . S
H8616 N8613 0.984 . S
H8617 N8613 0.985 . S
H8618 N8612 0.984 . S
H8619 N8612 0.984 . S
H8620 N8608 0.984 . S
H8621 N8608 0.985 . S
C8622 C8623 1.363 . S
C8622 C8628 1.379 . S
C8622 N8630 1.356 . S
C8623 C8622 1.363 . S
C8623 C8629 1.363 . S
C8624 C8625 1.363 . S
C8624 C8629 1.379 . S
C8624 N8631 1.356 . S
C8625 C8624 1.363 . S
C8625 C8628 1.363 . S
N8626 C8628 1.356 . S
N8626 H8638 0.984 . S
N8626 H8639 0.985 . S
N8627 C8629 1.356 . S
N8627 H8632 0.984 . S
N8627 H8633 0.985 . S
C8628 C8622 1.379 . S
C8628 C8625 1.363 . S
C8628 N8626 1.356 . S
C8629 C8623 1.363 . S
C8629 C8624 1.379 . S
C8629 N8627 1.356 . S
N8630 C8622 1.356 . S
N8630 H8636 0.984 . S
N8630 H8637 0.984 . S
N8631 C8624 1.356 . S
N8631 H8634 0.984 . S
N8631 H8635 0.985 . S
H8632 N8627 0.984 . S
H8633 N8627 0.985 . S
H8634 N8631 0.984 . S
H8635 N8631 0.985 . S
H8636 N8630 0.984 . S
H8637 N8630 0.984 . S
H8638 N8626 0.984 . S
H8639 N8626 0.985 . S
C8640 C8641 1.363 . S
C8640 C8646 1.379 . S
C8640 N8648 1.356 . S
C8641 C8640 1.363 . S
C8641 C8647 1.363 . S
C8642 C8643 1.363 . S
C8642 C8647 1.379 . S
C8642 N8649 1.356 . S
C8643 C8642 1.363 . S
C8643 C8646 1.363 . S
N8644 C8646 1.356 . S
N8644 H8656 0.984 . S
N8644 H8657 0.985 . S
N8645 C8647 1.356 . S
N8645 H8650 0.984 . S
N8645 H8651 0.985 . S
C8646 C8640 1.379 . S
C8646 C8643 1.363 . S
C8646 N8644 1.356 . S
C8647 C8641 1.363 . S
C8647 C8642 1.379 . S
C8647 N8645 1.356 . S
N8648 C8640 1.356 . S
N8648 H8654 0.984 . S
N8648 H8655 0.984 . S
N8649 C8642 1.356 . S
N8649 H8652 0.984 . S
N8649 H8653 0.985 . S
H8650 N8645 0.984 . S
H8651 N8645 0.985 . S
H8652 N8649 0.984 . S
H8653 N8649 0.985 . S
H8654 N8648 0.984 . S
H8655 N8648 0.984 . S
H8656 N8644 0.984 . S
H8657 N8644 0.985 . S
C8658 C8659 1.363 . S
C8658 C8664 1.379 . S
C8658 N8666 1.356 . S
C8659 C8658 1.363 . S
C8659 C8665 1.363 . S
C8660 C8661 1.363 . S
C8660 C8665 1.379 . S
C8660 N8667 1.356 . S
C8661 C8660 1.363 . S
C8661 C8664 1.363 . S
N8662 C8664 1.356 . S
N8662 H8674 0.984 . S
N8662 H8675 0.985 . S
N8663 C8665 1.356 . S
N8663 H8668 0.984 . S
N8663 H8669 0.985 . S
C8664 C8658 1.379 . S
C8664 C8661 1.363 . S
C8664 N8662 1.356 . S
C8665 C8659 1.363 . S
C8665 C8660 1.379 . S
C8665 N8663 1.356 . S
N8666 C8658 1.356 . S
N8666 H8672 0.984 . S
N8666 H8673 0.984 . S
N8667 C8660 1.356 . S
N8667 H8670 0.984 . S
N8667 H8671 0.985 . S
H8668 N8663 0.984 . S
H8669 N8663 0.985 . S
H8670 N8667 0.984 . S
H8671 N8667 0.985 . S
H8672 N8666 0.984 . S
H8673 N8666 0.984 . S
H8674 N8662 0.984 . S
H8675 N8662 0.985 . S
C8676 C8677 1.363 . S
C8676 C8682 1.379 . S
C8676 N8684 1.356 . S
C8677 C8676 1.363 . S
C8677 C8683 1.363 . S
C8678 C8679 1.363 . S
C8678 C8683 1.379 . S
C8678 N8685 1.356 . S
C8679 C8678 1.363 . S
C8679 C8682 1.363 . S
N8680 C8682 1.356 . S
N8680 H8692 0.984 . S
N8680 H8693 0.985 . S
N8681 C8683 1.356 . S
N8681 H8686 0.984 . S
N8681 H8687 0.985 . S
C8682 C8676 1.379 . S
C8682 C8679 1.363 . S
C8682 N8680 1.356 . S
C8683 C8677 1.363 . S
C8683 C8678 1.379 . S
C8683 N8681 1.356 . S
N8684 C8676 1.356 . S
N8684 H8690 0.984 . S
N8684 H8691 0.984 . S
N8685 C8678 1.356 . S
N8685 H8688 0.984 . S
N8685 H8689 0.985 . S
H8686 N8681 0.984 . S
H8687 N8681 0.985 . S
H8688 N8685 0.984 . S
H8689 N8685 0.985 . S
H8690 N8684 0.984 . S
H8691 N8684 0.984 . S
H8692 N8680 0.984 . S
H8693 N8680 0.985 . S
C8694 C8695 1.363 . S
C8694 C8700 1.379 . S
C8694 N8702 1.356 . S
C8695 C8694 1.363 . S
C8695 C8701 1.363 . S
C8696 C8697 1.363 . S
C8696 C8701 1.379 . S
C8696 N8703 1.356 . S
C8697 C8696 1.363 . S
C8697 C8700 1.363 . S
N8698 C8700 1.356 . S
N8698 H8710 0.984 . S
N8698 H8711 0.985 . S
N8699 C8701 1.356 . S
N8699 H8704 0.984 . S
N8699 H8705 0.985 . S
C8700 C8694 1.379 . S
C8700 C8697 1.363 . S
C8700 N8698 1.356 . S
C8701 C8695 1.363 . S
C8701 C8696 1.379 . S
C8701 N8699 1.356 . S
N8702 C8694 1.356 . S
N8702 H8708 0.984 . S
N8702 H8709 0.984 . S
N8703 C8696 1.356 . S
N8703 H8706 0.984 . S
N8703 H8707 0.985 . S
H8704 N8699 0.984 . S
H8705 N8699 0.985 . S
H8706 N8703 0.984 . S
H8707 N8703 0.985 . S
H8708 N8702 0.984 . S
H8709 N8702 0.984 . S
H8710 N8698 0.984 . S
H8711 N8698 0.985 . S
C8712 C8713 1.363 . S
C8712 C8718 1.379 . S
C8712 N8720 1.356 . S
C8713 C8712 1.363 . S
C8713 C8719 1.363 . S
C8714 C8715 1.363 . S
C8714 C8719 1.379 . S
C8714 N8721 1.356 . S
C8715 C8714 1.363 . S
C8715 C8718 1.363 . S
N8716 C8718 1.356 . S
N8716 H8728 0.984 . S
N8716 H8729 0.985 . S
N8717 C8719 1.356 . S
N8717 H8722 0.984 . S
N8717 H8723 0.985 . S
C8718 C8712 1.379 . S
C8718 C8715 1.363 . S
C8718 N8716 1.356 . S
C8719 C8713 1.363 . S
C8719 C8714 1.379 . S
C8719 N8717 1.356 . S
N8720 C8712 1.356 . S
N8720 H8726 0.984 . S
N8720 H8727 0.984 . S
N8721 C8714 1.356 . S
N8721 H8724 0.984 . S
N8721 H8725 0.985 . S
H8722 N8717 0.984 . S
H8723 N8717 0.985 . S
H8724 N8721 0.984 . S
H8725 N8721 0.985 . S
H8726 N8720 0.984 . S
H8727 N8720 0.984 . S
H8728 N8716 0.984 . S
H8729 N8716 0.985 . S
C8730 C8731 1.363 . S
C8730 C8736 1.379 . S
C8730 N8738 1.356 . S
C8731 C8730 1.363 . S
C8731 C8737 1.363 . S
C8732 C8733 1.363 . S
C8732 C8737 1.379 . S
C8732 N8739 1.356 . S
C8733 C8732 1.363 . S
C8733 C8736 1.363 . S
N8734 C8736 1.356 . S
N8734 H8746 0.984 . S
N8734 H8747 0.985 . S
N8735 C8737 1.356 . S
N8735 H8740 0.984 . S
N8735 H8741 0.985 . S
C8736 C8730 1.379 . S
C8736 C8733 1.363 . S
C8736 N8734 1.356 . S
C8737 C8731 1.363 . S
C8737 C8732 1.379 . S
C8737 N8735 1.356 . S
N8738 C8730 1.356 . S
N8738 H8744 0.984 . S
N8738 H8745 0.984 . S
N8739 C8732 1.356 . S
N8739 H8742 0.984 . S
N8739 H8743 0.985 . S
H8740 N8735 0.984 . S
H8741 N8735 0.985 . S
H8742 N8739 0.984 . S
H8743 N8739 0.985 . S
H8744 N8738 0.984 . S
H8745 N8738 0.984 . S
H8746 N8734 0.984 . S
H8747 N8734 0.985 . S
C8748 C8749 1.363 . S
C8748 C8754 1.379 . S
C8748 N8756 1.356 . S
C8749 C8748 1.363 . S
C8749 C8755 1.363 . S
C8750 C8751 1.363 . S
C8750 C8755 1.379 . S
C8750 N8757 1.356 . S
C8751 C8750 1.363 . S
C8751 C8754 1.363 . S
N8752 C8754 1.356 . S
N8752 H8764 0.984 . S
N8752 H8765 0.985 . S
N8753 C8755 1.356 . S
N8753 H8758 0.984 . S
N8753 H8759 0.985 . S
C8754 C8748 1.379 . S
C8754 C8751 1.363 . S
C8754 N8752 1.356 . S
C8755 C8749 1.363 . S
C8755 C8750 1.379 . S
C8755 N8753 1.356 . S
N8756 C8748 1.356 . S
N8756 H8762 0.984 . S
N8756 H8763 0.984 . S
N8757 C8750 1.356 . S
N8757 H8760 0.984 . S
N8757 H8761 0.985 . S
H8758 N8753 0.984 . S
H8759 N8753 0.985 . S
H8760 N8757 0.984 . S
H8761 N8757 0.985 . S
H8762 N8756 0.984 . S
H8763 N8756 0.984 . S
H8764 N8752 0.984 . S
H8765 N8752 0.985 . S
C8766 C8767 1.363 . S
C8766 C8772 1.379 . S
C8766 N8774 1.356 . S
C8767 C8766 1.363 . S
C8767 C8773 1.363 . S
C8768 C8769 1.363 . S
C8768 C8773 1.379 . S
C8768 N8775 1.356 . S
C8769 C8768 1.363 . S
C8769 C8772 1.363 . S
N8770 C8772 1.356 . S
N8770 H8782 0.984 . S
N8770 H8783 0.985 . S
N8771 C8773 1.356 . S
N8771 H8776 0.984 . S
N8771 H8777 0.985 . S
C8772 C8766 1.379 . S
C8772 C8769 1.363 . S
C8772 N8770 1.356 . S
C8773 C8767 1.363 . S
C8773 C8768 1.379 . S
C8773 N8771 1.356 . S
N8774 C8766 1.356 . S
N8774 H8780 0.984 . S
N8774 H8781 0.984 . S
N8775 C8768 1.356 . S
N8775 H8778 0.984 . S
N8775 H8779 0.985 . S
H8776 N8771 0.984 . S
H8777 N8771 0.985 . S
H8778 N8775 0.984 . S
H8779 N8775 0.985 . S
H8780 N8774 0.984 . S
H8781 N8774 0.984 . S
H8782 N8770 0.984 . S
H8783 N8770 0.985 . S
C8784 C8785 1.363 . S
C8784 C8790 1.379 . S
C8784 N8792 1.356 . S
C8785 C8784 1.363 . S
C8785 C8791 1.363 . S
C8786 C8787 1.363 . S
C8786 C8791 1.379 . S
C8786 N8793 1.356 . S
C8787 C8786 1.363 . S
C8787 C8790 1.363 . S
N8788 C8790 1.356 . S
N8788 H8800 0.984 . S
N8788 H8801 0.985 . S
N8789 C8791 1.356 . S
N8789 H8794 0.984 . S
N8789 H8795 0.985 . S
C8790 C8784 1.379 . S
C8790 C8787 1.363 . S
C8790 N8788 1.356 . S
C8791 C8785 1.363 . S
C8791 C8786 1.379 . S
C8791 N8789 1.356 . S
N8792 C8784 1.356 . S
N8792 H8798 0.984 . S
N8792 H8799 0.984 . S
N8793 C8786 1.356 . S
N8793 H8796 0.984 . S
N8793 H8797 0.985 . S
H8794 N8789 0.984 . S
H8795 N8789 0.985 . S
H8796 N8793 0.984 . S
H8797 N8793 0.985 . S
H8798 N8792 0.984 . S
H8799 N8792 0.984 . S
H8800 N8788 0.984 . S
H8801 N8788 0.985 . S
C8802 C8803 1.363 . S
C8802 C8808 1.379 . S
C8802 N8810 1.356 . S
C8803 C8802 1.363 . S
C8803 C8809 1.363 . S
C8804 C8805 1.363 . S
C8804 C8809 1.379 . S
C8804 N8811 1.356 . S
C8805 C8804 1.363 . S
C8805 C8808 1.363 . S
N8806 C8808 1.356 . S
N8806 H8818 0.984 . S
N8806 H8819 0.985 . S
N8807 C8809 1.356 . S
N8807 H8812 0.984 . S
N8807 H8813 0.985 . S
C8808 C8802 1.379 . S
C8808 C8805 1.363 . S
C8808 N8806 1.356 . S
C8809 C8803 1.363 . S
C8809 C8804 1.379 . S
C8809 N8807 1.356 . S
N8810 C8802 1.356 . S
N8810 H8816 0.984 . S
N8810 H8817 0.984 . S
N8811 C8804 1.356 . S
N8811 H8814 0.984 . S
N8811 H8815 0.985 . S
H8812 N8807 0.984 . S
H8813 N8807 0.985 . S
H8814 N8811 0.984 . S
H8815 N8811 0.985 . S
H8816 N8810 0.984 . S
H8817 N8810 0.984 . S
H8818 N8806 0.984 . S
H8819 N8806 0.985 . S
C8820 C8821 1.363 . S
C8820 C8826 1.379 . S
C8820 N8828 1.356 . S
C8821 C8820 1.363 . S
C8821 C8827 1.363 . S
C8822 C8823 1.363 . S
C8822 C8827 1.379 . S
C8822 N8829 1.356 . S
C8823 C8822 1.363 . S
C8823 C8826 1.363 . S
N8824 C8826 1.356 . S
N8824 H8836 0.984 . S
N8824 H8837 0.985 . S
N8825 C8827 1.356 . S
N8825 H8830 0.984 . S
N8825 H8831 0.985 . S
C8826 C8820 1.379 . S
C8826 C8823 1.363 . S
C8826 N8824 1.356 . S
C8827 C8821 1.363 . S
C8827 C8822 1.379 . S
C8827 N8825 1.356 . S
N8828 C8820 1.356 . S
N8828 H8834 0.984 . S
N8828 H8835 0.984 . S
N8829 C8822 1.356 . S
N8829 H8832 0.984 . S
N8829 H8833 0.985 . S
H8830 N8825 0.984 . S
H8831 N8825 0.985 . S
H8832 N8829 0.984 . S
H8833 N8829 0.985 . S
H8834 N8828 0.984 . S
H8835 N8828 0.984 . S
H8836 N8824 0.984 . S
H8837 N8824 0.985 . S
C8838 C8839 1.363 . S
C8838 C8844 1.379 . S
C8838 N8846 1.356 . S
C8839 C8838 1.363 . S
C8839 C8845 1.363 . S
C8840 C8841 1.363 . S
C8840 C8845 1.379 . S
C8840 N8847 1.356 . S
C8841 C8840 1.363 . S
C8841 C8844 1.363 . S
N8842 C8844 1.356 . S
N8842 H8854 0.984 . S
N8842 H8855 0.985 . S
N8843 C8845 1.356 . S
N8843 H8848 0.984 . S
N8843 H8849 0.985 . S
C8844 C8838 1.379 . S
C8844 C8841 1.363 . S
C8844 N8842 1.356 . S
C8845 C8839 1.363 . S
C8845 C8840 1.379 . S
C8845 N8843 1.356 . S
N8846 C8838 1.356 . S
N8846 H8852 0.984 . S
N8846 H8853 0.984 . S
N8847 C8840 1.356 . S
N8847 H8850 0.984 . S
N8847 H8851 0.985 . S
H8848 N8843 0.984 . S
H8849 N8843 0.985 . S
H8850 N8847 0.984 . S
H8851 N8847 0.985 . S
H8852 N8846 0.984 . S
H8853 N8846 0.984 . S
H8854 N8842 0.984 . S
H8855 N8842 0.985 . S
C8856 C8857 1.363 . S
C8856 C8862 1.379 . S
C8856 N8864 1.356 . S
C8857 C8856 1.363 . S
C8857 C8863 1.363 . S
C8858 C8859 1.363 . S
C8858 C8863 1.379 . S
C8858 N8865 1.356 . S
C8859 C8858 1.363 . S
C8859 C8862 1.363 . S
N8860 C8862 1.356 . S
N8860 H8872 0.984 . S
N8860 H8873 0.985 . S
N8861 C8863 1.356 . S
N8861 H8866 0.984 . S
N8861 H8867 0.985 . S
C8862 C8856 1.379 . S
C8862 C8859 1.363 . S
C8862 N8860 1.356 . S
C8863 C8857 1.363 . S
C8863 C8858 1.379 . S
C8863 N8861 1.356 . S
N8864 C8856 1.356 . S
N8864 H8870 0.984 . S
N8864 H8871 0.984 . S
N8865 C8858 1.356 . S
N8865 H8868 0.984 . S
N8865 H8869 0.985 . S
H8866 N8861 0.984 . S
H8867 N8861 0.985 . S
H8868 N8865 0.984 . S
H8869 N8865 0.985 . S
H8870 N8864 0.984 . S
H8871 N8864 0.984 . S
H8872 N8860 0.984 . S
H8873 N8860 0.985 . S
C8874 C8875 1.363 . S
C8874 C8880 1.379 . S
C8874 N8882 1.356 . S
C8875 C8874 1.363 . S
C8875 C8881 1.363 . S
C8876 C8877 1.363 . S
C8876 C8881 1.379 . S
C8876 N8883 1.356 . S
C8877 C8876 1.363 . S
C8877 C8880 1.363 . S
N8878 C8880 1.356 . S
N8878 H8890 0.984 . S
N8878 H8891 0.985 . S
N8879 C8881 1.356 . S
N8879 H8884 0.984 . S
N8879 H8885 0.985 . S
C8880 C8874 1.379 . S
C8880 C8877 1.363 . S
C8880 N8878 1.356 . S
C8881 C8875 1.363 . S
C8881 C8876 1.379 . S
C8881 N8879 1.356 . S
N8882 C8874 1.356 . S
N8882 H8888 0.984 . S
N8882 H8889 0.984 . S
N8883 C8876 1.356 . S
N8883 H8886 0.984 . S
N8883 H8887 0.985 . S
H8884 N8879 0.984 . S
H8885 N8879 0.985 . S
H8886 N8883 0.984 . S
H8887 N8883 0.985 . S
H8888 N8882 0.984 . S
H8889 N8882 0.984 . S
H8890 N8878 0.984 . S
H8891 N8878 0.985 . S
C8892 C8893 1.363 . S
C8892 C8898 1.379 . S
C8892 N8900 1.356 . S
C8893 C8892 1.363 . S
C8893 C8899 1.363 . S
C8894 C8895 1.363 . S
C8894 C8899 1.379 . S
C8894 N8901 1.356 . S
C8895 C8894 1.363 . S
C8895 C8898 1.363 . S
N8896 C8898 1.356 . S
N8896 H8908 0.984 . S
N8896 H8909 0.985 . S
N8897 C8899 1.356 . S
N8897 H8902 0.984 . S
N8897 H8903 0.985 . S
C8898 C8892 1.379 . S
C8898 C8895 1.363 . S
C8898 N8896 1.356 . S
C8899 C8893 1.363 . S
C8899 C8894 1.379 . S
C8899 N8897 1.356 . S
N8900 C8892 1.356 . S
N8900 H8906 0.984 . S
N8900 H8907 0.984 . S
N8901 C8894 1.356 . S
N8901 H8904 0.984 . S
N8901 H8905 0.985 . S
H8902 N8897 0.984 . S
H8903 N8897 0.985 . S
H8904 N8901 0.984 . S
H8905 N8901 0.985 . S
H8906 N8900 0.984 . S
H8907 N8900 0.984 . S
H8908 N8896 0.984 . S
H8909 N8896 0.985 . S
C8910 C8911 1.363 . S
C8910 C8916 1.379 . S
C8910 N8918 1.356 . S
C8911 C8910 1.363 . S
C8911 C8917 1.363 . S
C8912 C8913 1.363 . S
C8912 C8917 1.379 . S
C8912 N8919 1.356 . S
C8913 C8912 1.363 . S
C8913 C8916 1.363 . S
N8914 C8916 1.356 . S
N8914 H8926 0.984 . S
N8914 H8927 0.985 . S
N8915 C8917 1.356 . S
N8915 H8920 0.984 . S
N8915 H8921 0.985 . S
C8916 C8910 1.379 . S
C8916 C8913 1.363 . S
C8916 N8914 1.356 . S
C8917 C8911 1.363 . S
C8917 C8912 1.379 . S
C8917 N8915 1.356 . S
N8918 C8910 1.356 . S
N8918 H8924 0.984 . S
N8918 H8925 0.984 . S
N8919 C8912 1.356 . S
N8919 H8922 0.984 . S
N8919 H8923 0.985 . S
H8920 N8915 0.984 . S
H8921 N8915 0.985 . S
H8922 N8919 0.984 . S
H8923 N8919 0.985 . S
H8924 N8918 0.984 . S
H8925 N8918 0.984 . S
H8926 N8914 0.984 . S
H8927 N8914 0.985 . S
C8928 C8929 1.363 . S
C8928 C8934 1.379 . S
C8928 N8936 1.356 . S
C8929 C8928 1.363 . S
C8929 C8935 1.363 . S
C8930 C8931 1.363 . S
C8930 C8935 1.379 . S
C8930 N8937 1.356 . S
C8931 C8930 1.363 . S
C8931 C8934 1.363 . S
N8932 C8934 1.356 . S
N8932 H8944 0.984 . S
N8932 H8945 0.985 . S
N8933 C8935 1.356 . S
N8933 H8938 0.984 . S
N8933 H8939 0.985 . S
C8934 C8928 1.379 . S
C8934 C8931 1.363 . S
C8934 N8932 1.356 . S
C8935 C8929 1.363 . S
C8935 C8930 1.379 . S
C8935 N8933 1.356 . S
N8936 C8928 1.356 . S
N8936 H8942 0.984 . S
N8936 H8943 0.984 . S
N8937 C8930 1.356 . S
N8937 H8940 0.984 . S
N8937 H8941 0.985 . S
H8938 N8933 0.984 . S
H8939 N8933 0.985 . S
H8940 N8937 0.984 . S
H8941 N8937 0.985 . S
H8942 N8936 0.984 . S
H8943 N8936 0.984 . S
H8944 N8932 0.984 . S
H8945 N8932 0.985 . S
C8946 C8947 1.363 . S
C8946 C8952 1.379 . S
C8946 N8954 1.356 . S
C8947 C8946 1.363 . S
C8947 C8953 1.363 . S
C8948 C8949 1.363 . S
C8948 C8953 1.379 . S
C8948 N8955 1.356 . S
C8949 C8948 1.363 . S
C8949 C8952 1.363 . S
N8950 C8952 1.356 . S
N8950 H8962 0.984 . S
N8950 H8963 0.985 . S
N8951 C8953 1.356 . S
N8951 H8956 0.984 . S
N8951 H8957 0.985 . S
C8952 C8946 1.379 . S
C8952 C8949 1.363 . S
C8952 N8950 1.356 . S
C8953 C8947 1.363 . S
C8953 C8948 1.379 . S
C8953 N8951 1.356 . S
N8954 C8946 1.356 . S
N8954 H8960 0.984 . S
N8954 H8961 0.984 . S
N8955 C8948 1.356 . S
N8955 H8958 0.984 . S
N8955 H8959 0.985 . S
H8956 N8951 0.984 . S
H8957 N8951 0.985 . S
H8958 N8955 0.984 . S
H8959 N8955 0.985 . S
H8960 N8954 0.984 . S
H8961 N8954 0.984 . S
H8962 N8950 0.984 . S
H8963 N8950 0.985 . S
C8964 C8965 1.363 . S
C8964 C8970 1.379 . S
C8964 N8972 1.356 . S
C8965 C8964 1.363 . S
C8965 C8971 1.363 . S
C8966 C8967 1.363 . S
C8966 C8971 1.379 . S
C8966 N8973 1.356 . S
C8967 C8966 1.363 . S
C8967 C8970 1.363 . S
N8968 C8970 1.356 . S
N8968 H8980 0.984 . S
N8968 H8981 0.985 . S
N8969 C8971 1.356 . S
N8969 H8974 0.984 . S
N8969 H8975 0.985 . S
C8970 C8964 1.379 . S
C8970 C8967 1.363 . S
C8970 N8968 1.356 . S
C8971 C8965 1.363 . S
C8971 C8966 1.379 . S
C8971 N8969 1.356 . S
N8972 C8964 1.356 . S
N8972 H8978 0.984 . S
N8972 H8979 0.984 . S
N8973 C8966 1.356 . S
N8973 H8976 0.984 . S
N8973 H8977 0.985 . S
H8974 N8969 0.984 . S
H8975 N8969 0.985 . S
H8976 N8973 0.984 . S
H8977 N8973 0.985 . S
H8978 N8972 0.984 . S
H8979 N8972 0.984 . S
H8980 N8968 0.984 . S
H8981 N8968 0.985 . S
C8982 C8983 1.363 . S
C8982 C8988 1.379 . S
C8982 N8990 1.356 . S
C8983 C8982 1.363 . S
C8983 C8989 1.363 . S
C8984 C8985 1.363 . S
C8984 C8989 1.379 . S
C8984 N8991 1.356 . S
C8985 C8984 1.363 . S
C8985 C8988 1.363 . S
N8986 C8988 1.356 . S
N8986 H8998 0.984 . S
N8986 H8999 0.985 . S
N8987 C8989 1.356 . S
N8987 H8992 0.984 . S
N8987 H8993 0.985 . S
C8988 C8982 1.379 . S
C8988 C8985 1.363 . S
C8988 N8986 1.356 . S
C8989 C8983 1.363 . S
C8989 C8984 1.379 . S
C8989 N8987 1.356 . S
N8990 C8982 1.356 . S
N8990 H8996 0.984 . S
N8990 H8997 0.984 . S
N8991 C8984 1.356 . S
N8991 H8994 0.984 . S
N8991 H8995 0.985 . S
H8992 N8987 0.984 . S
H8993 N8987 0.985 . S
H8994 N8991 0.984 . S
H8995 N8991 0.985 . S
H8996 N8990 0.984 . S
H8997 N8990 0.984 . S
H8998 N8986 0.984 . S
H8999 N8986 0.985 . S
C9000 C9001 1.363 . S
C9000 C9006 1.379 . S
C9000 N9008 1.356 . S
C9001 C9000 1.363 . S
C9001 C9007 1.363 . S
C9002 C9003 1.363 . S
C9002 C9007 1.379 . S
C9002 N9009 1.356 . S
C9003 C9002 1.363 . S
C9003 C9006 1.363 . S
N9004 C9006 1.356 . S
N9004 H9016 0.984 . S
N9004 H9017 0.985 . S
N9005 C9007 1.356 . S
N9005 H9010 0.984 . S
N9005 H9011 0.985 . S
C9006 C9000 1.379 . S
C9006 C9003 1.363 . S
C9006 N9004 1.356 . S
C9007 C9001 1.363 . S
C9007 C9002 1.379 . S
C9007 N9005 1.356 . S
N9008 C9000 1.356 . S
N9008 H9014 0.984 . S
N9008 H9015 0.984 . S
N9009 C9002 1.356 . S
N9009 H9012 0.984 . S
N9009 H9013 0.985 . S
H9010 N9005 0.984 . S
H9011 N9005 0.985 . S
H9012 N9009 0.984 . S
H9013 N9009 0.985 . S
H9014 N9008 0.984 . S
H9015 N9008 0.984 . S
H9016 N9004 0.984 . S
H9017 N9004 0.985 . S
C9018 C9019 1.363 . S
C9018 C9024 1.379 . S
C9018 N9026 1.356 . S
C9019 C9018 1.363 . S
C9019 C9025 1.363 . S
C9020 C9021 1.363 . S
C9020 C9025 1.379 . S
C9020 N9027 1.356 . S
C9021 C9020 1.363 . S
C9021 C9024 1.363 . S
N9022 C9024 1.356 . S
N9022 H9034 0.984 . S
N9022 H9035 0.985 . S
N9023 C9025 1.356 . S
N9023 H9028 0.984 . S
N9023 H9029 0.985 . S
C9024 C9018 1.379 . S
C9024 C9021 1.363 . S
C9024 N9022 1.356 . S
C9025 C9019 1.363 . S
C9025 C9020 1.379 . S
C9025 N9023 1.356 . S
N9026 C9018 1.356 . S
N9026 H9032 0.984 . S
N9026 H9033 0.984 . S
N9027 C9020 1.356 . S
N9027 H9030 0.984 . S
N9027 H9031 0.985 . S
H9028 N9023 0.984 . S
H9029 N9023 0.985 . S
H9030 N9027 0.984 . S
H9031 N9027 0.985 . S
H9032 N9026 0.984 . S
H9033 N9026 0.984 . S
H9034 N9022 0.984 . S
H9035 N9022 0.985 . S
C9036 C9037 1.363 . S
C9036 C9042 1.379 . S
C9036 N9044 1.356 . S
C9037 C9036 1.363 . S
C9037 C9043 1.363 . S
C9038 C9039 1.363 . S
C9038 C9043 1.379 . S
C9038 N9045 1.356 . S
C9039 C9038 1.363 . S
C9039 C9042 1.363 . S
N9040 C9042 1.356 . S
N9040 H9052 0.984 . S
N9040 H9053 0.985 . S
N9041 C9043 1.356 . S
N9041 H9046 0.984 . S
N9041 H9047 0.985 . S
C9042 C9036 1.379 . S
C9042 C9039 1.363 . S
C9042 N9040 1.356 . S
C9043 C9037 1.363 . S
C9043 C9038 1.379 . S
C9043 N9041 1.356 . S
N9044 C9036 1.356 . S
N9044 H9050 0.984 . S
N9044 H9051 0.984 . S
N9045 C9038 1.356 . S
N9045 H9048 0.984 . S
N9045 H9049 0.985 . S
H9046 N9041 0.984 . S
H9047 N9041 0.985 . S
H9048 N9045 0.984 . S
H9049 N9045 0.985 . S
H9050 N9044 0.984 . S
H9051 N9044 0.984 . S
H9052 N9040 0.984 . S
H9053 N9040 0.985 . S
C9054 C9055 1.363 . S
C9054 C9060 1.379 . S
C9054 N9062 1.356 . S
C9055 C9054 1.363 . S
C9055 C9061 1.363 . S
C9056 C9057 1.363 . S
C9056 C9061 1.379 . S
C9056 N9063 1.356 . S
C9057 C9056 1.363 . S
C9057 C9060 1.363 . S
N9058 C9060 1.356 . S
N9058 H9070 0.984 . S
N9058 H9071 0.985 . S
N9059 C9061 1.356 . S
N9059 H9064 0.984 . S
N9059 H9065 0.985 . S
C9060 C9054 1.379 . S
C9060 C9057 1.363 . S
C9060 N9058 1.356 . S
C9061 C9055 1.363 . S
C9061 C9056 1.379 . S
C9061 N9059 1.356 . S
N9062 C9054 1.356 . S
N9062 H9068 0.984 . S
N9062 H9069 0.984 . S
N9063 C9056 1.356 . S
N9063 H9066 0.984 . S
N9063 H9067 0.985 . S
H9064 N9059 0.984 . S
H9065 N9059 0.985 . S
H9066 N9063 0.984 . S
H9067 N9063 0.985 . S
H9068 N9062 0.984 . S
H9069 N9062 0.984 . S
H9070 N9058 0.984 . S
H9071 N9058 0.985 . S
C9072 C9073 1.363 . S
C9072 C9078 1.379 . S
C9072 N9080 1.356 . S
C9073 C9072 1.363 . S
C9073 C9079 1.363 . S
C9074 C9075 1.363 . S
C9074 C9079 1.379 . S
C9074 N9081 1.356 . S
C9075 C9074 1.363 . S
C9075 C9078 1.363 . S
N9076 C9078 1.356 . S
N9076 H9088 0.984 . S
N9076 H9089 0.985 . S
N9077 C9079 1.356 . S
N9077 H9082 0.984 . S
N9077 H9083 0.985 . S
C9078 C9072 1.379 . S
C9078 C9075 1.363 . S
C9078 N9076 1.356 . S
C9079 C9073 1.363 . S
C9079 C9074 1.379 . S
C9079 N9077 1.356 . S
N9080 C9072 1.356 . S
N9080 H9086 0.984 . S
N9080 H9087 0.984 . S
N9081 C9074 1.356 . S
N9081 H9084 0.984 . S
N9081 H9085 0.985 . S
H9082 N9077 0.984 . S
H9083 N9077 0.985 . S
H9084 N9081 0.984 . S
H9085 N9081 0.985 . S
H9086 N9080 0.984 . S
H9087 N9080 0.984 . S
H9088 N9076 0.984 . S
H9089 N9076 0.985 . S
C9090 C9091 1.363 . S
C9090 C9096 1.379 . S
C9090 N9098 1.356 . S
C9091 C9090 1.363 . S
C9091 C9097 1.363 . S
C9092 C9093 1.363 . S
C9092 C9097 1.379 . S
C9092 N9099 1.356 . S
C9093 C9092 1.363 . S
C9093 C9096 1.363 . S
N9094 C9096 1.356 . S
N9094 H9106 0.984 . S
N9094 H9107 0.985 . S
N9095 C9097 1.356 . S
N9095 H9100 0.984 . S
N9095 H9101 0.985 . S
C9096 C9090 1.379 . S
C9096 C9093 1.363 . S
C9096 N9094 1.356 . S
C9097 C9091 1.363 . S
C9097 C9092 1.379 . S
C9097 N9095 1.356 . S
N9098 C9090 1.356 . S
N9098 H9104 0.984 . S
N9098 H9105 0.984 . S
N9099 C9092 1.356 . S
N9099 H9102 0.984 . S
N9099 H9103 0.985 . S
H9100 N9095 0.984 . S
H9101 N9095 0.985 . S
H9102 N9099 0.984 . S
H9103 N9099 0.985 . S
H9104 N9098 0.984 . S
H9105 N9098 0.984 . S
H9106 N9094 0.984 . S
H9107 N9094 0.985 . S
C9108 C9109 1.363 . S
C9108 C9114 1.379 . S
C9108 N9116 1.356 . S
C9109 C9108 1.363 . S
C9109 C9115 1.363 . S
C9110 C9111 1.363 . S
C9110 C9115 1.379 . S
C9110 N9117 1.356 . S
C9111 C9110 1.363 . S
C9111 C9114 1.363 . S
N9112 C9114 1.356 . S
N9112 H9124 0.984 . S
N9112 H9125 0.985 . S
N9113 C9115 1.356 . S
N9113 H9118 0.984 . S
N9113 H9119 0.985 . S
C9114 C9108 1.379 . S
C9114 C9111 1.363 . S
C9114 N9112 1.356 . S
C9115 C9109 1.363 . S
C9115 C9110 1.379 . S
C9115 N9113 1.356 . S
N9116 C9108 1.356 . S
N9116 H9122 0.984 . S
N9116 H9123 0.984 . S
N9117 C9110 1.356 . S
N9117 H9120 0.984 . S
N9117 H9121 0.985 . S
H9118 N9113 0.984 . S
H9119 N9113 0.985 . S
H9120 N9117 0.984 . S
H9121 N9117 0.985 . S
H9122 N9116 0.984 . S
H9123 N9116 0.984 . S
H9124 N9112 0.984 . S
H9125 N9112 0.985 . S
C9126 C9127 1.363 . S
C9126 C9132 1.379 . S
C9126 N9134 1.356 . S
C9127 C9126 1.363 . S
C9127 C9133 1.363 . S
C9128 C9129 1.363 . S
C9128 C9133 1.379 . S
C9128 N9135 1.356 . S
C9129 C9128 1.363 . S
C9129 C9132 1.363 . S
N9130 C9132 1.356 . S
N9130 H9142 0.984 . S
N9130 H9143 0.985 . S
N9131 C9133 1.356 . S
N9131 H9136 0.984 . S
N9131 H9137 0.985 . S
C9132 C9126 1.379 . S
C9132 C9129 1.363 . S
C9132 N9130 1.356 . S
C9133 C9127 1.363 . S
C9133 C9128 1.379 . S
C9133 N9131 1.356 . S
N9134 C9126 1.356 . S
N9134 H9140 0.984 . S
N9134 H9141 0.984 . S
N9135 C9128 1.356 . S
N9135 H9138 0.984 . S
N9135 H9139 0.985 . S
H9136 N9131 0.984 . S
H9137 N9131 0.985 . S
H9138 N9135 0.984 . S
H9139 N9135 0.985 . S
H9140 N9134 0.984 . S
H9141 N9134 0.984 . S
H9142 N9130 0.984 . S
H9143 N9130 0.985 . S
C9144 C9145 1.363 . S
C9144 C9150 1.379 . S
C9144 N9152 1.356 . S
C9145 C9144 1.363 . S
C9145 C9151 1.363 . S
C9146 C9147 1.363 . S
C9146 C9151 1.379 . S
C9146 N9153 1.356 . S
C9147 C9146 1.363 . S
C9147 C9150 1.363 . S
N9148 C9150 1.356 . S
N9148 H9160 0.984 . S
N9148 H9161 0.985 . S
N9149 C9151 1.356 . S
N9149 H9154 0.984 . S
N9149 H9155 0.985 . S
C9150 C9144 1.379 . S
C9150 C9147 1.363 . S
C9150 N9148 1.356 . S
C9151 C9145 1.363 . S
C9151 C9146 1.379 . S
C9151 N9149 1.356 . S
N9152 C9144 1.356 . S
N9152 H9158 0.984 . S
N9152 H9159 0.984 . S
N9153 C9146 1.356 . S
N9153 H9156 0.984 . S
N9153 H9157 0.985 . S
H9154 N9149 0.984 . S
H9155 N9149 0.985 . S
H9156 N9153 0.984 . S
H9157 N9153 0.985 . S
H9158 N9152 0.984 . S
H9159 N9152 0.984 . S
H9160 N9148 0.984 . S
H9161 N9148 0.985 . S
C9162 C9163 1.363 . S
C9162 C9168 1.379 . S
C9162 N9170 1.356 . S
C9163 C9162 1.363 . S
C9163 C9169 1.363 . S
C9164 C9165 1.363 . S
C9164 C9169 1.379 . S
C9164 N9171 1.356 . S
C9165 C9164 1.363 . S
C9165 C9168 1.363 . S
N9166 C9168 1.356 . S
N9166 H9178 0.984 . S
N9166 H9179 0.985 . S
N9167 C9169 1.356 . S
N9167 H9172 0.984 . S
N9167 H9173 0.985 . S
C9168 C9162 1.379 . S
C9168 C9165 1.363 . S
C9168 N9166 1.356 . S
C9169 C9163 1.363 . S
C9169 C9164 1.379 . S
C9169 N9167 1.356 . S
N9170 C9162 1.356 . S
N9170 H9176 0.984 . S
N9170 H9177 0.984 . S
N9171 C9164 1.356 . S
N9171 H9174 0.984 . S
N9171 H9175 0.985 . S
H9172 N9167 0.984 . S
H9173 N9167 0.985 . S
H9174 N9171 0.984 . S
H9175 N9171 0.985 . S
H9176 N9170 0.984 . S
H9177 N9170 0.984 . S
H9178 N9166 0.984 . S
H9179 N9166 0.985 . S
C9180 C9181 1.363 . S
C9180 C9186 1.379 . S
C9180 N9188 1.356 . S
C9181 C9180 1.363 . S
C9181 C9187 1.363 . S
C9182 C9183 1.363 . S
C9182 C9187 1.379 . S
C9182 N9189 1.356 . S
C9183 C9182 1.363 . S
C9183 C9186 1.363 . S
N9184 C9186 1.356 . S
N9184 H9196 0.984 . S
N9184 H9197 0.985 . S
N9185 C9187 1.356 . S
N9185 H9190 0.984 . S
N9185 H9191 0.985 . S
C9186 C9180 1.379 . S
C9186 C9183 1.363 . S
C9186 N9184 1.356 . S
C9187 C9181 1.363 . S
C9187 C9182 1.379 . S
C9187 N9185 1.356 . S
N9188 C9180 1.356 . S
N9188 H9194 0.984 . S
N9188 H9195 0.984 . S
N9189 C9182 1.356 . S
N9189 H9192 0.984 . S
N9189 H9193 0.985 . S
H9190 N9185 0.984 . S
H9191 N9185 0.985 . S
H9192 N9189 0.984 . S
H9193 N9189 0.985 . S
H9194 N9188 0.984 . S
H9195 N9188 0.984 . S
H9196 N9184 0.984 . S
H9197 N9184 0.985 . S
C9198 C9199 1.363 . S
C9198 C9204 1.379 . S
C9198 N9206 1.356 . S
C9199 C9198 1.363 . S
C9199 C9205 1.363 . S
C9200 C9201 1.363 . S
C9200 C9205 1.379 . S
C9200 N9207 1.356 . S
C9201 C9200 1.363 . S
C9201 C9204 1.363 . S
N9202 C9204 1.356 . S
N9202 H9214 0.984 . S
N9202 H9215 0.985 . S
N9203 C9205 1.356 . S
N9203 H9208 0.984 . S
N9203 H9209 0.985 . S
C9204 C9198 1.379 . S
C9204 C9201 1.363 . S
C9204 N9202 1.356 . S
C9205 C9199 1.363 . S
C9205 C9200 1.379 . S
C9205 N9203 1.356 . S
N9206 C9198 1.356 . S
N9206 H9212 0.984 . S
N9206 H9213 0.984 . S
N9207 C9200 1.356 . S
N9207 H9210 0.984 . S
N9207 H9211 0.985 . S
H9208 N9203 0.984 . S
H9209 N9203 0.985 . S
H9210 N9207 0.984 . S
H9211 N9207 0.985 . S
H9212 N9206 0.984 . S
H9213 N9206 0.984 . S
H9214 N9202 0.984 . S
H9215 N9202 0.985 . S
C9216 C9217 1.363 . S
C9216 C9222 1.379 . S
C9216 N9224 1.356 . S
C9217 C9216 1.363 . S
C9217 C9223 1.363 . S
C9218 C9219 1.363 . S
C9218 C9223 1.379 . S
C9218 N9225 1.356 . S
C9219 C9218 1.363 . S
C9219 C9222 1.363 . S
N9220 C9222 1.356 . S
N9220 H9232 0.984 . S
N9220 H9233 0.985 . S
N9221 C9223 1.356 . S
N9221 H9226 0.984 . S
N9221 H9227 0.985 . S
C9222 C9216 1.379 . S
C9222 C9219 1.363 . S
C9222 N9220 1.356 . S
C9223 C9217 1.363 . S
C9223 C9218 1.379 . S
C9223 N9221 1.356 . S
N9224 C9216 1.356 . S
N9224 H9230 0.984 . S
N9224 H9231 0.984 . S
N9225 C9218 1.356 . S
N9225 H9228 0.984 . S
N9225 H9229 0.985 . S
H9226 N9221 0.984 . S
H9227 N9221 0.985 . S
H9228 N9225 0.984 . S
H9229 N9225 0.985 . S
H9230 N9224 0.984 . S
H9231 N9224 0.984 . S
H9232 N9220 0.984 . S
H9233 N9220 0.985 . S
C9234 C9235 1.363 . S
C9234 C9240 1.379 . S
C9234 N9242 1.356 . S
C9235 C9234 1.363 . S
C9235 C9241 1.363 . S
C9236 C9237 1.363 . S
C9236 C9241 1.379 . S
C9236 N9243 1.356 . S
C9237 C9236 1.363 . S
C9237 C9240 1.363 . S
N9238 C9240 1.356 . S
N9238 H9250 0.984 . S
N9238 H9251 0.985 . S
N9239 C9241 1.356 . S
N9239 H9244 0.984 . S
N9239 H9245 0.985 . S
C9240 C9234 1.379 . S
C9240 C9237 1.363 . S
C9240 N9238 1.356 . S
C9241 C9235 1.363 . S
C9241 C9236 1.379 . S
C9241 N9239 1.356 . S
N9242 C9234 1.356 . S
N9242 H9248 0.984 . S
N9242 H9249 0.984 . S
N9243 C9236 1.356 . S
N9243 H9246 0.984 . S
N9243 H9247 0.985 . S
H9244 N9239 0.984 . S
H9245 N9239 0.985 . S
H9246 N9243 0.984 . S
H9247 N9243 0.985 . S
H9248 N9242 0.984 . S
H9249 N9242 0.984 . S
H9250 N9238 0.984 . S
H9251 N9238 0.985 . S
C9252 C9253 1.363 . S
C9252 C9258 1.379 . S
C9252 N9260 1.356 . S
C9253 C9252 1.363 . S
C9253 C9259 1.363 . S
C9254 C9255 1.363 . S
C9254 C9259 1.379 . S
C9254 N9261 1.356 . S
C9255 C9254 1.363 . S
C9255 C9258 1.363 . S
N9256 C9258 1.356 . S
N9256 H9268 0.984 . S
N9256 H9269 0.985 . S
N9257 C9259 1.356 . S
N9257 H9262 0.984 . S
N9257 H9263 0.985 . S
C9258 C9252 1.379 . S
C9258 C9255 1.363 . S
C9258 N9256 1.356 . S
C9259 C9253 1.363 . S
C9259 C9254 1.379 . S
C9259 N9257 1.356 . S
N9260 C9252 1.356 . S
N9260 H9266 0.984 . S
N9260 H9267 0.984 . S
N9261 C9254 1.356 . S
N9261 H9264 0.984 . S
N9261 H9265 0.985 . S
H9262 N9257 0.984 . S
H9263 N9257 0.985 . S
H9264 N9261 0.984 . S
H9265 N9261 0.985 . S
H9266 N9260 0.984 . S
H9267 N9260 0.984 . S
H9268 N9256 0.984 . S
H9269 N9256 0.985 . S
C9270 C9271 1.363 . S
C9270 C9276 1.379 . S
C9270 N9278 1.356 . S
C9271 C9270 1.363 . S
C9271 C9277 1.363 . S
C9272 C9273 1.363 . S
C9272 C9277 1.379 . S
C9272 N9279 1.356 . S
C9273 C9272 1.363 . S
C9273 C9276 1.363 . S
N9274 C9276 1.356 . S
N9274 H9286 0.984 . S
N9274 H9287 0.985 . S
N9275 C9277 1.356 . S
N9275 H9280 0.984 . S
N9275 H9281 0.985 . S
C9276 C9270 1.379 . S
C9276 C9273 1.363 . S
C9276 N9274 1.356 . S
C9277 C9271 1.363 . S
C9277 C9272 1.379 . S
C9277 N9275 1.356 . S
N9278 C9270 1.356 . S
N9278 H9284 0.984 . S
N9278 H9285 0.984 . S
N9279 C9272 1.356 . S
N9279 H9282 0.984 . S
N9279 H9283 0.985 . S
H9280 N9275 0.984 . S
H9281 N9275 0.985 . S
H9282 N9279 0.984 . S
H9283 N9279 0.985 . S
H9284 N9278 0.984 . S
H9285 N9278 0.984 . S
H9286 N9274 0.984 . S
H9287 N9274 0.985 . S
C9288 C9289 1.363 . S
C9288 C9294 1.379 . S
C9288 N9296 1.356 . S
C9289 C9288 1.363 . S
C9289 C9295 1.363 . S
C9290 C9291 1.363 . S
C9290 C9295 1.379 . S
C9290 N9297 1.356 . S
C9291 C9290 1.363 . S
C9291 C9294 1.363 . S
N9292 C9294 1.356 . S
N9292 H9304 0.984 . S
N9292 H9305 0.985 . S
N9293 C9295 1.356 . S
N9293 H9298 0.984 . S
N9293 H9299 0.985 . S
C9294 C9288 1.379 . S
C9294 C9291 1.363 . S
C9294 N9292 1.356 . S
C9295 C9289 1.363 . S
C9295 C9290 1.379 . S
C9295 N9293 1.356 . S
N9296 C9288 1.356 . S
N9296 H9302 0.984 . S
N9296 H9303 0.984 . S
N9297 C9290 1.356 . S
N9297 H9300 0.984 . S
N9297 H9301 0.985 . S
H9298 N9293 0.984 . S
H9299 N9293 0.985 . S
H9300 N9297 0.984 . S
H9301 N9297 0.985 . S
H9302 N9296 0.984 . S
H9303 N9296 0.984 . S
H9304 N9292 0.984 . S
H9305 N9292 0.985 . S
C9306 C9307 1.363 . S
C9306 C9312 1.379 . S
C9306 N9314 1.356 . S
C9307 C9306 1.363 . S
C9307 C9313 1.363 . S
C9308 C9309 1.363 . S
C9308 C9313 1.379 . S
C9308 N9315 1.356 . S
C9309 C9308 1.363 . S
C9309 C9312 1.363 . S
N9310 C9312 1.356 . S
N9310 H9322 0.984 . S
N9310 H9323 0.985 . S
N9311 C9313 1.356 . S
N9311 H9316 0.984 . S
N9311 H9317 0.985 . S
C9312 C9306 1.379 . S
C9312 C9309 1.363 . S
C9312 N9310 1.356 . S
C9313 C9307 1.363 . S
C9313 C9308 1.379 . S
C9313 N9311 1.356 . S
N9314 C9306 1.356 . S
N9314 H9320 0.984 . S
N9314 H9321 0.984 . S
N9315 C9308 1.356 . S
N9315 H9318 0.984 . S
N9315 H9319 0.985 . S
H9316 N9311 0.984 . S
H9317 N9311 0.985 . S
H9318 N9315 0.984 . S
H9319 N9315 0.985 . S
H9320 N9314 0.984 . S
H9321 N9314 0.984 . S
H9322 N9310 0.984 . S
H9323 N9310 0.985 . S
C9324 C9325 1.363 . S
C9324 C9330 1.379 . S
C9324 N9332 1.356 . S
C9325 C9324 1.363 . S
C9325 C9331 1.363 . S
C9326 C9327 1.363 . S
C9326 C9331 1.379 . S
C9326 N9333 1.356 . S
C9327 C9326 1.363 . S
C9327 C9330 1.363 . S
N9328 C9330 1.356 . S
N9328 H9340 0.984 . S
N9328 H9341 0.985 . S
N9329 C9331 1.356 . S
N9329 H9334 0.984 . S
N9329 H9335 0.985 . S
C9330 C9324 1.379 . S
C9330 C9327 1.363 . S
C9330 N9328 1.356 . S
C9331 C9325 1.363 . S
C9331 C9326 1.379 . S
C9331 N9329 1.356 . S
N9332 C9324 1.356 . S
N9332 H9338 0.984 . S
N9332 H9339 0.984 . S
N9333 C9326 1.356 . S
N9333 H9336 0.984 . S
N9333 H9337 0.985 . S
H9334 N9329 0.984 . S
H9335 N9329 0.985 . S
H9336 N9333 0.984 . S
H9337 N9333 0.985 . S
H9338 N9332 0.984 . S
H9339 N9332 0.984 . S
H9340 N9328 0.984 . S
H9341 N9328 0.985 . S
C9342 C9343 1.363 . S
C9342 C9348 1.379 . S
C9342 N9350 1.356 . S
C9343 C9342 1.363 . S
C9343 C9349 1.363 . S
C9344 C9345 1.363 . S
C9344 C9349 1.379 . S
C9344 N9351 1.356 . S
C9345 C9344 1.363 . S
C9345 C9348 1.363 . S
N9346 C9348 1.356 . S
N9346 H9358 0.984 . S
N9346 H9359 0.985 . S
N9347 C9349 1.356 . S
N9347 H9352 0.984 . S
N9347 H9353 0.985 . S
C9348 C9342 1.379 . S
C9348 C9345 1.363 . S
C9348 N9346 1.356 . S
C9349 C9343 1.363 . S
C9349 C9344 1.379 . S
C9349 N9347 1.356 . S
N9350 C9342 1.356 . S
N9350 H9356 0.984 . S
N9350 H9357 0.984 . S
N9351 C9344 1.356 . S
N9351 H9354 0.984 . S
N9351 H9355 0.985 . S
H9352 N9347 0.984 . S
H9353 N9347 0.985 . S
H9354 N9351 0.984 . S
H9355 N9351 0.985 . S
H9356 N9350 0.984 . S
H9357 N9350 0.984 . S
H9358 N9346 0.984 . S
H9359 N9346 0.985 . S
C9360 C9361 1.363 . S
C9360 C9366 1.379 . S
C9360 N9368 1.356 . S
C9361 C9360 1.363 . S
C9361 C9367 1.363 . S
C9362 C9363 1.363 . S
C9362 C9367 1.379 . S
C9362 N9369 1.356 . S
C9363 C9362 1.363 . S
C9363 C9366 1.363 . S
N9364 C9366 1.356 . S
N9364 H9376 0.984 . S
N9364 H9377 0.985 . S
N9365 C9367 1.356 . S
N9365 H9370 0.984 . S
N9365 H9371 0.985 . S
C9366 C9360 1.379 . S
C9366 C9363 1.363 . S
C9366 N9364 1.356 . S
C9367 C9361 1.363 . S
C9367 C9362 1.379 . S
C9367 N9365 1.356 . S
N9368 C9360 1.356 . S
N9368 H9374 0.984 . S
N9368 H9375 0.984 . S
N9369 C9362 1.356 . S
N9369 H9372 0.984 . S
N9369 H9373 0.985 . S
H9370 N9365 0.984 . S
H9371 N9365 0.985 . S
H9372 N9369 0.984 . S
H9373 N9369 0.985 . S
H9374 N9368 0.984 . S
H9375 N9368 0.984 . S
H9376 N9364 0.984 . S
H9377 N9364 0.985 . S
C9378 C9379 1.363 . S
C9378 C9384 1.379 . S
C9378 N9386 1.356 . S
C9379 C9378 1.363 . S
C9379 C9385 1.363 . S
C9380 C9381 1.363 . S
C9380 C9385 1.379 . S
C9380 N9387 1.356 . S
C9381 C9380 1.363 . S
C9381 C9384 1.363 . S
N9382 C9384 1.356 . S
N9382 H9394 0.984 . S
N9382 H9395 0.985 . S
N9383 C9385 1.356 . S
N9383 H9388 0.984 . S
N9383 H9389 0.985 . S
C9384 C9378 1.379 . S
C9384 C9381 1.363 . S
C9384 N9382 1.356 . S
C9385 C9379 1.363 . S
C9385 C9380 1.379 . S
C9385 N9383 1.356 . S
N9386 C9378 1.356 . S
N9386 H9392 0.984 . S
N9386 H9393 0.984 . S
N9387 C9380 1.356 . S
N9387 H9390 0.984 . S
N9387 H9391 0.985 . S
H9388 N9383 0.984 . S
H9389 N9383 0.985 . S
H9390 N9387 0.984 . S
H9391 N9387 0.985 . S
H9392 N9386 0.984 . S
H9393 N9386 0.984 . S
H9394 N9382 0.984 . S
H9395 N9382 0.985 . S
C9396 C9397 1.363 . S
C9396 C9402 1.379 . S
C9396 N9404 1.356 . S
C9397 C9396 1.363 . S
C9397 C9403 1.363 . S
C9398 C9399 1.363 . S
C9398 C9403 1.379 . S
C9398 N9405 1.356 . S
C9399 C9398 1.363 . S
C9399 C9402 1.363 . S
N9400 C9402 1.356 . S
N9400 H9412 0.984 . S
N9400 H9413 0.985 . S
N9401 C9403 1.356 . S
N9401 H9406 0.984 . S
N9401 H9407 0.985 . S
C9402 C9396 1.379 . S
C9402 C9399 1.363 . S
C9402 N9400 1.356 . S
C9403 C9397 1.363 . S
C9403 C9398 1.379 . S
C9403 N9401 1.356 . S
N9404 C9396 1.356 . S
N9404 H9410 0.984 . S
N9404 H9411 0.984 . S
N9405 C9398 1.356 . S
N9405 H9408 0.984 . S
N9405 H9409 0.985 . S
H9406 N9401 0.984 . S
H9407 N9401 0.985 . S
H9408 N9405 0.984 . S
H9409 N9405 0.985 . S
H9410 N9404 0.984 . S
H9411 N9404 0.984 . S
H9412 N9400 0.984 . S
H9413 N9400 0.985 . S
C9414 C9415 1.363 . S
C9414 C9420 1.379 . S
C9414 N9422 1.356 . S
C9415 C9414 1.363 . S
C9415 C9421 1.363 . S
C9416 C9417 1.363 . S
C9416 C9421 1.379 . S
C9416 N9423 1.356 . S
C9417 C9416 1.363 . S
C9417 C9420 1.363 . S
N9418 C9420 1.356 . S
N9418 H9430 0.984 . S
N9418 H9431 0.985 . S
N9419 C9421 1.356 . S
N9419 H9424 0.984 . S
N9419 H9425 0.985 . S
C9420 C9414 1.379 . S
C9420 C9417 1.363 . S
C9420 N9418 1.356 . S
C9421 C9415 1.363 . S
C9421 C9416 1.379 . S
C9421 N9419 1.356 . S
N9422 C9414 1.356 . S
N9422 H9428 0.984 . S
N9422 H9429 0.984 . S
N9423 C9416 1.356 . S
N9423 H9426 0.984 . S
N9423 H9427 0.985 . S
H9424 N9419 0.984 . S
H9425 N9419 0.985 . S
H9426 N9423 0.984 . S
H9427 N9423 0.985 . S
H9428 N9422 0.984 . S
H9429 N9422 0.984 . S
H9430 N9418 0.984 . S
H9431 N9418 0.985 . S
C9432 C9433 1.363 . S
C9432 C9438 1.379 . S
C9432 N9440 1.356 . S
C9433 C9432 1.363 . S
C9433 C9439 1.363 . S
C9434 C9435 1.363 . S
C9434 C9439 1.379 . S
C9434 N9441 1.356 . S
C9435 C9434 1.363 . S
C9435 C9438 1.363 . S
N9436 C9438 1.356 . S
N9436 H9448 0.984 . S
N9436 H9449 0.985 . S
N9437 C9439 1.356 . S
N9437 H9442 0.984 . S
N9437 H9443 0.985 . S
C9438 C9432 1.379 . S
C9438 C9435 1.363 . S
C9438 N9436 1.356 . S
C9439 C9433 1.363 . S
C9439 C9434 1.379 . S
C9439 N9437 1.356 . S
N9440 C9432 1.356 . S
N9440 H9446 0.984 . S
N9440 H9447 0.984 . S
N9441 C9434 1.356 . S
N9441 H9444 0.984 . S
N9441 H9445 0.985 . S
H9442 N9437 0.984 . S
H9443 N9437 0.985 . S
H9444 N9441 0.984 . S
H9445 N9441 0.985 . S
H9446 N9440 0.984 . S
H9447 N9440 0.984 . S
H9448 N9436 0.984 . S
H9449 N9436 0.985 . S
C9450 C9451 1.363 . S
C9450 C9456 1.379 . S
C9450 N9458 1.356 . S
C9451 C9450 1.363 . S
C9451 C9457 1.363 . S
C9452 C9453 1.363 . S
C9452 C9457 1.379 . S
C9452 N9459 1.356 . S
C9453 C9452 1.363 . S
C9453 C9456 1.363 . S
N9454 C9456 1.356 . S
N9454 H9466 0.984 . S
N9454 H9467 0.985 . S
N9455 C9457 1.356 . S
N9455 H9460 0.984 . S
N9455 H9461 0.985 . S
C9456 C9450 1.379 . S
C9456 C9453 1.363 . S
C9456 N9454 1.356 . S
C9457 C9451 1.363 . S
C9457 C9452 1.379 . S
C9457 N9455 1.356 . S
N9458 C9450 1.356 . S
N9458 H9464 0.984 . S
N9458 H9465 0.984 . S
N9459 C9452 1.356 . S
N9459 H9462 0.984 . S
N9459 H9463 0.985 . S
H9460 N9455 0.984 . S
H9461 N9455 0.985 . S
H9462 N9459 0.984 . S
H9463 N9459 0.985 . S
H9464 N9458 0.984 . S
H9465 N9458 0.984 . S
H9466 N9454 0.984 . S
H9467 N9454 0.985 . S
C9468 C9469 1.363 . S
C9468 C9474 1.379 . S
C9468 N9476 1.356 . S
C9469 C9468 1.363 . S
C9469 C9475 1.363 . S
C9470 C9471 1.363 . S
C9470 C9475 1.379 . S
C9470 N9477 1.356 . S
C9471 C9470 1.363 . S
C9471 C9474 1.363 . S
N9472 C9474 1.356 . S
N9472 H9484 0.984 . S
N9472 H9485 0.985 . S
N9473 C9475 1.356 . S
N9473 H9478 0.984 . S
N9473 H9479 0.985 . S
C9474 C9468 1.379 . S
C9474 C9471 1.363 . S
C9474 N9472 1.356 . S
C9475 C9469 1.363 . S
C9475 C9470 1.379 . S
C9475 N9473 1.356 . S
N9476 C9468 1.356 . S
N9476 H9482 0.984 . S
N9476 H9483 0.984 . S
N9477 C9470 1.356 . S
N9477 H9480 0.984 . S
N9477 H9481 0.985 . S
H9478 N9473 0.984 . S
H9479 N9473 0.985 . S
H9480 N9477 0.984 . S
H9481 N9477 0.985 . S
H9482 N9476 0.984 . S
H9483 N9476 0.984 . S
H9484 N9472 0.984 . S
H9485 N9472 0.985 . S
C9486 C9487 1.363 . S
C9486 C9492 1.379 . S
C9486 N9494 1.356 . S
C9487 C9486 1.363 . S
C9487 C9493 1.363 . S
C9488 C9489 1.363 . S
C9488 C9493 1.379 . S
C9488 N9495 1.356 . S
C9489 C9488 1.363 . S
C9489 C9492 1.363 . S
N9490 C9492 1.356 . S
N9490 H9502 0.984 . S
N9490 H9503 0.985 . S
N9491 C9493 1.356 . S
N9491 H9496 0.984 . S
N9491 H9497 0.985 . S
C9492 C9486 1.379 . S
C9492 C9489 1.363 . S
C9492 N9490 1.356 . S
C9493 C9487 1.363 . S
C9493 C9488 1.379 . S
C9493 N9491 1.356 . S
N9494 C9486 1.356 . S
N9494 H9500 0.984 . S
N9494 H9501 0.984 . S
N9495 C9488 1.356 . S
N9495 H9498 0.984 . S
N9495 H9499 0.985 . S
H9496 N9491 0.984 . S
H9497 N9491 0.985 . S
H9498 N9495 0.984 . S
H9499 N9495 0.985 . S
H9500 N9494 0.984 . S
H9501 N9494 0.984 . S
H9502 N9490 0.984 . S
H9503 N9490 0.985 . S
C9504 C9505 1.363 . S
C9504 C9510 1.379 . S
C9504 N9512 1.356 . S
C9505 C9504 1.363 . S
C9505 C9511 1.363 . S
C9506 C9507 1.363 . S
C9506 C9511 1.379 . S
C9506 N9513 1.356 . S
C9507 C9506 1.363 . S
C9507 C9510 1.363 . S
N9508 C9510 1.356 . S
N9508 H9520 0.984 . S
N9508 H9521 0.985 . S
N9509 C9511 1.356 . S
N9509 H9514 0.984 . S
N9509 H9515 0.985 . S
C9510 C9504 1.379 . S
C9510 C9507 1.363 . S
C9510 N9508 1.356 . S
C9511 C9505 1.363 . S
C9511 C9506 1.379 . S
C9511 N9509 1.356 . S
N9512 C9504 1.356 . S
N9512 H9518 0.984 . S
N9512 H9519 0.984 . S
N9513 C9506 1.356 . S
N9513 H9516 0.984 . S
N9513 H9517 0.985 . S
H9514 N9509 0.984 . S
H9515 N9509 0.985 . S
H9516 N9513 0.984 . S
H9517 N9513 0.985 . S
H9518 N9512 0.984 . S
H9519 N9512 0.984 . S
H9520 N9508 0.984 . S
H9521 N9508 0.985 . S
C9522 C9523 1.363 . S
C9522 C9528 1.379 . S
C9522 N9530 1.356 . S
C9523 C9522 1.363 . S
C9523 C9529 1.363 . S
C9524 C9525 1.363 . S
C9524 C9529 1.379 . S
C9524 N9531 1.356 . S
C9525 C9524 1.363 . S
C9525 C9528 1.363 . S
N9526 C9528 1.356 . S
N9526 H9538 0.984 . S
N9526 H9539 0.985 . S
N9527 C9529 1.356 . S
N9527 H9532 0.984 . S
N9527 H9533 0.985 . S
C9528 C9522 1.379 . S
C9528 C9525 1.363 . S
C9528 N9526 1.356 . S
C9529 C9523 1.363 . S
C9529 C9524 1.379 . S
C9529 N9527 1.356 . S
N9530 C9522 1.356 . S
N9530 H9536 0.984 . S
N9530 H9537 0.984 . S
N9531 C9524 1.356 . S
N9531 H9534 0.984 . S
N9531 H9535 0.985 . S
H9532 N9527 0.984 . S
H9533 N9527 0.985 . S
H9534 N9531 0.984 . S
H9535 N9531 0.985 . S
H9536 N9530 0.984 . S
H9537 N9530 0.984 . S
H9538 N9526 0.984 . S
H9539 N9526 0.985 . S
C9540 C9541 1.363 . S
C9540 C9546 1.379 . S
C9540 N9548 1.356 . S
C9541 C9540 1.363 . S
C9541 C9547 1.363 . S
C9542 C9543 1.363 . S
C9542 C9547 1.379 . S
C9542 N9549 1.356 . S
C9543 C9542 1.363 . S
C9543 C9546 1.363 . S
N9544 C9546 1.356 . S
N9544 H9556 0.984 . S
N9544 H9557 0.985 . S
N9545 C9547 1.356 . S
N9545 H9550 0.984 . S
N9545 H9551 0.985 . S
C9546 C9540 1.379 . S
C9546 C9543 1.363 . S
C9546 N9544 1.356 . S
C9547 C9541 1.363 . S
C9547 C9542 1.379 . S
C9547 N9545 1.356 . S
N9548 C9540 1.356 . S
N9548 H9554 0.984 . S
N9548 H9555 0.984 . S
N9549 C9542 1.356 . S
N9549 H9552 0.984 . S
N9549 H9553 0.985 . S
H9550 N9545 0.984 . S
H9551 N9545 0.985 . S
H9552 N9549 0.984 . S
H9553 N9549 0.985 . S
H9554 N9548 0.984 . S
H9555 N9548 0.984 . S
H9556 N9544 0.984 . S
H9557 N9544 0.985 . S
C9558 C9559 1.363 . S
C9558 C9564 1.379 . S
C9558 N9566 1.356 . S
C9559 C9558 1.363 . S
C9559 C9565 1.363 . S
C9560 C9561 1.363 . S
C9560 C9565 1.379 . S
C9560 N9567 1.356 . S
C9561 C9560 1.363 . S
C9561 C9564 1.363 . S
N9562 C9564 1.356 . S
N9562 H9574 0.984 . S
N9562 H9575 0.985 . S
N9563 C9565 1.356 . S
N9563 H9568 0.984 . S
N9563 H9569 0.985 . S
C9564 C9558 1.379 . S
C9564 C9561 1.363 . S
C9564 N9562 1.356 . S
C9565 C9559 1.363 . S
C9565 C9560 1.379 . S
C9565 N9563 1.356 . S
N9566 C9558 1.356 . S
N9566 H9572 0.984 . S
N9566 H9573 0.984 . S
N9567 C9560 1.356 . S
N9567 H9570 0.984 . S
N9567 H9571 0.985 . S
H9568 N9563 0.984 . S
H9569 N9563 0.985 . S
H9570 N9567 0.984 . S
H9571 N9567 0.985 . S
H9572 N9566 0.984 . S
H9573 N9566 0.984 . S
H9574 N9562 0.984 . S
H9575 N9562 0.985 . S
C9576 C9577 1.363 . S
C9576 C9582 1.379 . S
C9576 N9584 1.356 . S
C9577 C9576 1.363 . S
C9577 C9583 1.363 . S
C9578 C9579 1.363 . S
C9578 C9583 1.379 . S
C9578 N9585 1.356 . S
C9579 C9578 1.363 . S
C9579 C9582 1.363 . S
N9580 C9582 1.356 . S
N9580 H9592 0.984 . S
N9580 H9593 0.985 . S
N9581 C9583 1.356 . S
N9581 H9586 0.984 . S
N9581 H9587 0.985 . S
C9582 C9576 1.379 . S
C9582 C9579 1.363 . S
C9582 N9580 1.356 . S
C9583 C9577 1.363 . S
C9583 C9578 1.379 . S
C9583 N9581 1.356 . S
N9584 C9576 1.356 . S
N9584 H9590 0.984 . S
N9584 H9591 0.984 . S
N9585 C9578 1.356 . S
N9585 H9588 0.984 . S
N9585 H9589 0.985 . S
H9586 N9581 0.984 . S
H9587 N9581 0.985 . S
H9588 N9585 0.984 . S
H9589 N9585 0.985 . S
H9590 N9584 0.984 . S
H9591 N9584 0.984 . S
H9592 N9580 0.984 . S
H9593 N9580 0.985 . S
C9594 C9595 1.363 . S
C9594 C9600 1.379 . S
C9594 N9602 1.356 . S
C9595 C9594 1.363 . S
C9595 C9601 1.363 . S
C9596 C9597 1.363 . S
C9596 C9601 1.379 . S
C9596 N9603 1.356 . S
C9597 C9596 1.363 . S
C9597 C9600 1.363 . S
N9598 C9600 1.356 . S
N9598 H9610 0.984 . S
N9598 H9611 0.985 . S
N9599 C9601 1.356 . S
N9599 H9604 0.984 . S
N9599 H9605 0.985 . S
C9600 C9594 1.379 . S
C9600 C9597 1.363 . S
C9600 N9598 1.356 . S
C9601 C9595 1.363 . S
C9601 C9596 1.379 . S
C9601 N9599 1.356 . S
N9602 C9594 1.356 . S
N9602 H9608 0.984 . S
N9602 H9609 0.984 . S
N9603 C9596 1.356 . S
N9603 H9606 0.984 . S
N9603 H9607 0.985 . S
H9604 N9599 0.984 . S
H9605 N9599 0.985 . S
H9606 N9603 0.984 . S
H9607 N9603 0.985 . S
H9608 N9602 0.984 . S
H9609 N9602 0.984 . S
H9610 N9598 0.984 . S
H9611 N9598 0.985 . S
C9612 C9613 1.363 . S
C9612 C9618 1.379 . S
C9612 N9620 1.356 . S
C9613 C9612 1.363 . S
C9613 C9619 1.363 . S
C9614 C9615 1.363 . S
C9614 C9619 1.379 . S
C9614 N9621 1.356 . S
C9615 C9614 1.363 . S
C9615 C9618 1.363 . S
N9616 C9618 1.356 . S
N9616 H9628 0.984 . S
N9616 H9629 0.985 . S
N9617 C9619 1.356 . S
N9617 H9622 0.984 . S
N9617 H9623 0.985 . S
C9618 C9612 1.379 . S
C9618 C9615 1.363 . S
C9618 N9616 1.356 . S
C9619 C9613 1.363 . S
C9619 C9614 1.379 . S
C9619 N9617 1.356 . S
N9620 C9612 1.356 . S
N9620 H9626 0.984 . S
N9620 H9627 0.984 . S
N9621 C9614 1.356 . S
N9621 H9624 0.984 . S
N9621 H9625 0.985 . S
H9622 N9617 0.984 . S
H9623 N9617 0.985 . S
H9624 N9621 0.984 . S
H9625 N9621 0.985 . S
H9626 N9620 0.984 . S
H9627 N9620 0.984 . S
H9628 N9616 0.984 . S
H9629 N9616 0.985 . S
C9630 C9631 1.363 . S
C9630 C9636 1.379 . S
C9630 N9638 1.356 . S
C9631 C9630 1.363 . S
C9631 C9637 1.363 . S
C9632 C9633 1.363 . S
C9632 C9637 1.379 . S
C9632 N9639 1.356 . S
C9633 C9632 1.363 . S
C9633 C9636 1.363 . S
N9634 C9636 1.356 . S
N9634 H9646 0.984 . S
N9634 H9647 0.985 . S
N9635 C9637 1.356 . S
N9635 H9640 0.984 . S
N9635 H9641 0.985 . S
C9636 C9630 1.379 . S
C9636 C9633 1.363 . S
C9636 N9634 1.356 . S
C9637 C9631 1.363 . S
C9637 C9632 1.379 . S
C9637 N9635 1.356 . S
N9638 C9630 1.356 . S
N9638 H9644 0.984 . S
N9638 H9645 0.984 . S
N9639 C9632 1.356 . S
N9639 H9642 0.984 . S
N9639 H9643 0.985 . S
H9640 N9635 0.984 . S
H9641 N9635 0.985 . S
H9642 N9639 0.984 . S
H9643 N9639 0.985 . S
H9644 N9638 0.984 . S
H9645 N9638 0.984 . S
H9646 N9634 0.984 . S
H9647 N9634 0.985 . S
C9648 C9649 1.363 . S
C9648 C9654 1.379 . S
C9648 N9656 1.356 . S
C9649 C9648 1.363 . S
C9649 C9655 1.363 . S
C9650 C9651 1.363 . S
C9650 C9655 1.379 . S
C9650 N9657 1.356 . S
C9651 C9650 1.363 . S
C9651 C9654 1.363 . S
N9652 C9654 1.356 . S
N9652 H9664 0.984 . S
N9652 H9665 0.985 . S
N9653 C9655 1.356 . S
N9653 H9658 0.984 . S
N9653 H9659 0.985 . S
C9654 C9648 1.379 . S
C9654 C9651 1.363 . S
C9654 N9652 1.356 . S
C9655 C9649 1.363 . S
C9655 C9650 1.379 . S
C9655 N9653 1.356 . S
N9656 C9648 1.356 . S
N9656 H9662 0.984 . S
N9656 H9663 0.984 . S
N9657 C9650 1.356 . S
N9657 H9660 0.984 . S
N9657 H9661 0.985 . S
H9658 N9653 0.984 . S
H9659 N9653 0.985 . S
H9660 N9657 0.984 . S
H9661 N9657 0.985 . S
H9662 N9656 0.984 . S
H9663 N9656 0.984 . S
H9664 N9652 0.984 . S
H9665 N9652 0.985 . S
C9666 C9667 1.363 . S
C9666 C9672 1.379 . S
C9666 N9674 1.356 . S
C9667 C9666 1.363 . S
C9667 C9673 1.363 . S
C9668 C9669 1.363 . S
C9668 C9673 1.379 . S
C9668 N9675 1.356 . S
C9669 C9668 1.363 . S
C9669 C9672 1.363 . S
N9670 C9672 1.356 . S
N9670 H9682 0.984 . S
N9670 H9683 0.985 . S
N9671 C9673 1.356 . S
N9671 H9676 0.984 . S
N9671 H9677 0.985 . S
C9672 C9666 1.379 . S
C9672 C9669 1.363 . S
C9672 N9670 1.356 . S
C9673 C9667 1.363 . S
C9673 C9668 1.379 . S
C9673 N9671 1.356 . S
N9674 C9666 1.356 . S
N9674 H9680 0.984 . S
N9674 H9681 0.984 . S
N9675 C9668 1.356 . S
N9675 H9678 0.984 . S
N9675 H9679 0.985 . S
H9676 N9671 0.984 . S
H9677 N9671 0.985 . S
H9678 N9675 0.984 . S
H9679 N9675 0.985 . S
H9680 N9674 0.984 . S
H9681 N9674 0.984 . S
H9682 N9670 0.984 . S
H9683 N9670 0.985 . S
C9684 C9685 1.363 . S
C9684 C9690 1.379 . S
C9684 N9692 1.356 . S
C9685 C9684 1.363 . S
C9685 C9691 1.363 . S
C9686 C9687 1.363 . S
C9686 C9691 1.379 . S
C9686 N9693 1.356 . S
C9687 C9686 1.363 . S
C9687 C9690 1.363 . S
N9688 C9690 1.356 . S
N9688 H9700 0.984 . S
N9688 H9701 0.985 . S
N9689 C9691 1.356 . S
N9689 H9694 0.984 . S
N9689 H9695 0.985 . S
C9690 C9684 1.379 . S
C9690 C9687 1.363 . S
C9690 N9688 1.356 . S
C9691 C9685 1.363 . S
C9691 C9686 1.379 . S
C9691 N9689 1.356 . S
N9692 C9684 1.356 . S
N9692 H9698 0.984 . S
N9692 H9699 0.984 . S
N9693 C9686 1.356 . S
N9693 H9696 0.984 . S
N9693 H9697 0.985 . S
H9694 N9689 0.984 . S
H9695 N9689 0.985 . S
H9696 N9693 0.984 . S
H9697 N9693 0.985 . S
H9698 N9692 0.984 . S
H9699 N9692 0.984 . S
H9700 N9688 0.984 . S
H9701 N9688 0.985 . S
C9702 C9703 1.363 . S
C9702 C9708 1.379 . S
C9702 N9710 1.356 . S
C9703 C9702 1.363 . S
C9703 C9709 1.363 . S
C9704 C9705 1.363 . S
C9704 C9709 1.379 . S
C9704 N9711 1.356 . S
C9705 C9704 1.363 . S
C9705 C9708 1.363 . S
N9706 C9708 1.356 . S
N9706 H9718 0.984 . S
N9706 H9719 0.985 . S
N9707 C9709 1.356 . S
N9707 H9712 0.984 . S
N9707 H9713 0.985 . S
C9708 C9702 1.379 . S
C9708 C9705 1.363 . S
C9708 N9706 1.356 . S
C9709 C9703 1.363 . S
C9709 C9704 1.379 . S
C9709 N9707 1.356 . S
N9710 C9702 1.356 . S
N9710 H9716 0.984 . S
N9710 H9717 0.984 . S
N9711 C9704 1.356 . S
N9711 H9714 0.984 . S
N9711 H9715 0.985 . S
H9712 N9707 0.984 . S
H9713 N9707 0.985 . S
H9714 N9711 0.984 . S
H9715 N9711 0.985 . S
H9716 N9710 0.984 . S
H9717 N9710 0.984 . S
H9718 N9706 0.984 . S
H9719 N9706 0.985 . S
C9720 C9721 1.363 . S
C9720 C9726 1.379 . S
C9720 N9728 1.356 . S
C9721 C9720 1.363 . S
C9721 C9727 1.363 . S
C9722 C9723 1.363 . S
C9722 C9727 1.379 . S
C9722 N9729 1.356 . S
C9723 C9722 1.363 . S
C9723 C9726 1.363 . S
N9724 C9726 1.356 . S
N9724 H9736 0.984 . S
N9724 H9737 0.985 . S
N9725 C9727 1.356 . S
N9725 H9730 0.984 . S
N9725 H9731 0.985 . S
C9726 C9720 1.379 . S
C9726 C9723 1.363 . S
C9726 N9724 1.356 . S
C9727 C9721 1.363 . S
C9727 C9722 1.379 . S
C9727 N9725 1.356 . S
N9728 C9720 1.356 . S
N9728 H9734 0.984 . S
N9728 H9735 0.984 . S
N9729 C9722 1.356 . S
N9729 H9732 0.984 . S
N9729 H9733 0.985 . S
H9730 N9725 0.984 . S
H9731 N9725 0.985 . S
H9732 N9729 0.984 . S
H9733 N9729 0.985 . S
H9734 N9728 0.984 . S
H9735 N9728 0.984 . S
H9736 N9724 0.984 . S
H9737 N9724 0.985 . S
C9738 C9739 1.363 . S
C9738 C9744 1.379 . S
C9738 N9746 1.356 . S
C9739 C9738 1.363 . S
C9739 C9745 1.363 . S
C9740 C9741 1.363 . S
C9740 C9745 1.379 . S
C9740 N9747 1.356 . S
C9741 C9740 1.363 . S
C9741 C9744 1.363 . S
N9742 C9744 1.356 . S
N9742 H9754 0.984 . S
N9742 H9755 0.985 . S
N9743 C9745 1.356 . S
N9743 H9748 0.984 . S
N9743 H9749 0.985 . S
C9744 C9738 1.379 . S
C9744 C9741 1.363 . S
C9744 N9742 1.356 . S
C9745 C9739 1.363 . S
C9745 C9740 1.379 . S
C9745 N9743 1.356 . S
N9746 C9738 1.356 . S
N9746 H9752 0.984 . S
N9746 H9753 0.984 . S
N9747 C9740 1.356 . S
N9747 H9750 0.984 . S
N9747 H9751 0.985 . S
H9748 N9743 0.984 . S
H9749 N9743 0.985 . S
H9750 N9747 0.984 . S
H9751 N9747 0.985 . S
H9752 N9746 0.984 . S
H9753 N9746 0.984 . S
H9754 N9742 0.984 . S
H9755 N9742 0.985 . S
C9756 C9757 1.363 . S
C9756 C9762 1.379 . S
C9756 N9764 1.356 . S
C9757 C9756 1.363 . S
C9757 C9763 1.363 . S
C9758 C9759 1.363 . S
C9758 C9763 1.379 . S
C9758 N9765 1.356 . S
C9759 C9758 1.363 . S
C9759 C9762 1.363 . S
N9760 C9762 1.356 . S
N9760 H9772 0.984 . S
N9760 H9773 0.985 . S
N9761 C9763 1.356 . S
N9761 H9766 0.984 . S
N9761 H9767 0.985 . S
C9762 C9756 1.379 . S
C9762 C9759 1.363 . S
C9762 N9760 1.356 . S
C9763 C9757 1.363 . S
C9763 C9758 1.379 . S
C9763 N9761 1.356 . S
N9764 C9756 1.356 . S
N9764 H9770 0.984 . S
N9764 H9771 0.984 . S
N9765 C9758 1.356 . S
N9765 H9768 0.984 . S
N9765 H9769 0.985 . S
H9766 N9761 0.984 . S
H9767 N9761 0.985 . S
H9768 N9765 0.984 . S
H9769 N9765 0.985 . S
H9770 N9764 0.984 . S
H9771 N9764 0.984 . S
H9772 N9760 0.984 . S
H9773 N9760 0.985 . S
C9774 C9775 1.363 . S
C9774 C9780 1.379 . S
C9774 N9782 1.356 . S
C9775 C9774 1.363 . S
C9775 C9781 1.363 . S
C9776 C9777 1.363 . S
C9776 C9781 1.379 . S
C9776 N9783 1.356 . S
C9777 C9776 1.363 . S
C9777 C9780 1.363 . S
N9778 C9780 1.356 . S
N9778 H9790 0.984 . S
N9778 H9791 0.985 . S
N9779 C9781 1.356 . S
N9779 H9784 0.984 . S
N9779 H9785 0.985 . S
C9780 C9774 1.379 . S
C9780 C9777 1.363 . S
C9780 N9778 1.356 . S
C9781 C9775 1.363 . S
C9781 C9776 1.379 . S
C9781 N9779 1.356 . S
N9782 C9774 1.356 . S
N9782 H9788 0.984 . S
N9782 H9789 0.984 . S
N9783 C9776 1.356 . S
N9783 H9786 0.984 . S
N9783 H9787 0.985 . S
H9784 N9779 0.984 . S
H9785 N9779 0.985 . S
H9786 N9783 0.984 . S
H9787 N9783 0.985 . S
H9788 N9782 0.984 . S
H9789 N9782 0.984 . S
H9790 N9778 0.984 . S
H9791 N9778 0.985 . S
C9792 C9793 1.363 . S
C9792 C9798 1.379 . S
C9792 N9800 1.356 . S
C9793 C9792 1.363 . S
C9793 C9799 1.363 . S
C9794 C9795 1.363 . S
C9794 C9799 1.379 . S
C9794 N9801 1.356 . S
C9795 C9794 1.363 . S
C9795 C9798 1.363 . S
N9796 C9798 1.356 . S
N9796 H9808 0.984 . S
N9796 H9809 0.985 . S
N9797 C9799 1.356 . S
N9797 H9802 0.984 . S
N9797 H9803 0.985 . S
C9798 C9792 1.379 . S
C9798 C9795 1.363 . S
C9798 N9796 1.356 . S
C9799 C9793 1.363 . S
C9799 C9794 1.379 . S
C9799 N9797 1.356 . S
N9800 C9792 1.356 . S
N9800 H9806 0.984 . S
N9800 H9807 0.984 . S
N9801 C9794 1.356 . S
N9801 H9804 0.984 . S
N9801 H9805 0.985 . S
H9802 N9797 0.984 . S
H9803 N9797 0.985 . S
H9804 N9801 0.984 . S
H9805 N9801 0.985 . S
H9806 N9800 0.984 . S
H9807 N9800 0.984 . S
H9808 N9796 0.984 . S
H9809 N9796 0.985 . S
C9810 C9811 1.363 . S
C9810 C9816 1.379 . S
C9810 N9818 1.356 . S
C9811 C9810 1.363 . S
C9811 C9817 1.363 . S
C9812 C9813 1.363 . S
C9812 C9817 1.379 . S
C9812 N9819 1.356 . S
C9813 C9812 1.363 . S
C9813 C9816 1.363 . S
N9814 C9816 1.356 . S
N9814 H9826 0.984 . S
N9814 H9827 0.985 . S
N9815 C9817 1.356 . S
N9815 H9820 0.984 . S
N9815 H9821 0.985 . S
C9816 C9810 1.379 . S
C9816 C9813 1.363 . S
C9816 N9814 1.356 . S
C9817 C9811 1.363 . S
C9817 C9812 1.379 . S
C9817 N9815 1.356 . S
N9818 C9810 1.356 . S
N9818 H9824 0.984 . S
N9818 H9825 0.984 . S
N9819 C9812 1.356 . S
N9819 H9822 0.984 . S
N9819 H9823 0.985 . S
H9820 N9815 0.984 . S
H9821 N9815 0.985 . S
H9822 N9819 0.984 . S
H9823 N9819 0.985 . S
H9824 N9818 0.984 . S
H9825 N9818 0.984 . S
H9826 N9814 0.984 . S
H9827 N9814 0.985 . S
C9828 C9829 1.363 . S
C9828 C9834 1.379 . S
C9828 N9836 1.356 . S
C9829 C9828 1.363 . S
C9829 C9835 1.363 . S
C9830 C9831 1.363 . S
C9830 C9835 1.379 . S
C9830 N9837 1.356 . S
C9831 C9830 1.363 . S
C9831 C9834 1.363 . S
N9832 C9834 1.356 . S
N9832 H9844 0.984 . S
N9832 H9845 0.985 . S
N9833 C9835 1.356 . S
N9833 H9838 0.984 . S
N9833 H9839 0.985 . S
C9834 C9828 1.379 . S
C9834 C9831 1.363 . S
C9834 N9832 1.356 . S
C9835 C9829 1.363 . S
C9835 C9830 1.379 . S
C9835 N9833 1.356 . S
N9836 C9828 1.356 . S
N9836 H9842 0.984 . S
N9836 H9843 0.984 . S
N9837 C9830 1.356 . S
N9837 H9840 0.984 . S
N9837 H9841 0.985 . S
H9838 N9833 0.984 . S
H9839 N9833 0.985 . S
H9840 N9837 0.984 . S
H9841 N9837 0.985 . S
H9842 N9836 0.984 . S
H9843 N9836 0.984 . S
H9844 N9832 0.984 . S
H9845 N9832 0.985 . S
C9846 C9847 1.363 . S
C9846 C9852 1.379 . S
C9846 N9854 1.356 . S
C9847 C9846 1.363 . S
C9847 C9853 1.363 . S
C9848 C9849 1.363 . S
C9848 C9853 1.379 . S
C9848 N9855 1.356 . S
C9849 C9848 1.363 . S
C9849 C9852 1.363 . S
N9850 C9852 1.356 . S
N9850 H9862 0.984 . S
N9850 H9863 0.985 . S
N9851 C9853 1.356 . S
N9851 H9856 0.984 . S
N9851 H9857 0.985 . S
C9852 C9846 1.379 . S
C9852 C9849 1.363 . S
C9852 N9850 1.356 . S
C9853 C9847 1.363 . S
C9853 C9848 1.379 . S
C9853 N9851 1.356 . S
N9854 C9846 1.356 . S
N9854 H9860 0.984 . S
N9854 H9861 0.984 . S
N9855 C9848 1.356 . S
N9855 H9858 0.984 . S
N9855 H9859 0.985 . S
H9856 N9851 0.984 . S
H9857 N9851 0.985 . S
H9858 N9855 0.984 . S
H9859 N9855 0.985 . S
H9860 N9854 0.984 . S
H9861 N9854 0.984 . S
H9862 N9850 0.984 . S
H9863 N9850 0.985 . S
C9864 C9865 1.363 . S
C9864 C9870 1.379 . S
C9864 N9872 1.356 . S
C9865 C9864 1.363 . S
C9865 C9871 1.363 . S
C9866 C9867 1.363 . S
C9866 C9871 1.379 . S
C9866 N9873 1.356 . S
C9867 C9866 1.363 . S
C9867 C9870 1.363 . S
N9868 C9870 1.356 . S
N9868 H9880 0.984 . S
N9868 H9881 0.985 . S
N9869 C9871 1.356 . S
N9869 H9874 0.984 . S
N9869 H9875 0.985 . S
C9870 C9864 1.379 . S
C9870 C9867 1.363 . S
C9870 N9868 1.356 . S
C9871 C9865 1.363 . S
C9871 C9866 1.379 . S
C9871 N9869 1.356 . S
N9872 C9864 1.356 . S
N9872 H9878 0.984 . S
N9872 H9879 0.984 . S
N9873 C9866 1.356 . S
N9873 H9876 0.984 . S
N9873 H9877 0.985 . S
H9874 N9869 0.984 . S
H9875 N9869 0.985 . S
H9876 N9873 0.984 . S
H9877 N9873 0.985 . S
H9878 N9872 0.984 . S
H9879 N9872 0.984 . S
H9880 N9868 0.984 . S
H9881 N9868 0.985 . S
C9882 C9883 1.363 . S
C9882 C9888 1.379 . S
C9882 N9890 1.356 . S
C9883 C9882 1.363 . S
C9883 C9889 1.363 . S
C9884 C9885 1.363 . S
C9884 C9889 1.379 . S
C9884 N9891 1.356 . S
C9885 C9884 1.363 . S
C9885 C9888 1.363 . S
N9886 C9888 1.356 . S
N9886 H9898 0.984 . S
N9886 H9899 0.985 . S
N9887 C9889 1.356 . S
N9887 H9892 0.984 . S
N9887 H9893 0.985 . S
C9888 C9882 1.379 . S
C9888 C9885 1.363 . S
C9888 N9886 1.356 . S
C9889 C9883 1.363 . S
C9889 C9884 1.379 . S
C9889 N9887 1.356 . S
N9890 C9882 1.356 . S
N9890 H9896 0.984 . S
N9890 H9897 0.984 . S
N9891 C9884 1.356 . S
N9891 H9894 0.984 . S
N9891 H9895 0.985 . S
H9892 N9887 0.984 . S
H9893 N9887 0.985 . S
H9894 N9891 0.984 . S
H9895 N9891 0.985 . S
H9896 N9890 0.984 . S
H9897 N9890 0.984 . S
H9898 N9886 0.984 . S
H9899 N9886 0.985 . S
C9900 C9901 1.363 . S
C9900 C9906 1.379 . S
C9900 N9908 1.356 . S
C9901 C9900 1.363 . S
C9901 C9907 1.363 . S
C9902 C9903 1.363 . S
C9902 C9907 1.379 . S
C9902 N9909 1.356 . S
C9903 C9902 1.363 . S
C9903 C9906 1.363 . S
N9904 C9906 1.356 . S
N9904 H9916 0.984 . S
N9904 H9917 0.985 . S
N9905 C9907 1.356 . S
N9905 H9910 0.984 . S
N9905 H9911 0.985 . S
C9906 C9900 1.379 . S
C9906 C9903 1.363 . S
C9906 N9904 1.356 . S
C9907 C9901 1.363 . S
C9907 C9902 1.379 . S
C9907 N9905 1.356 . S
N9908 C9900 1.356 . S
N9908 H9914 0.984 . S
N9908 H9915 0.984 . S
N9909 C9902 1.356 . S
N9909 H9912 0.984 . S
N9909 H9913 0.985 . S
H9910 N9905 0.984 . S
H9911 N9905 0.985 . S
H9912 N9909 0.984 . S
H9913 N9909 0.985 . S
H9914 N9908 0.984 . S
H9915 N9908 0.984 . S
H9916 N9904 0.984 . S
H9917 N9904 0.985 . S
C9918 C9919 1.363 . S
C9918 C9924 1.379 . S
C9918 N9926 1.356 . S
C9919 C9918 1.363 . S
C9919 C9925 1.363 . S
C9920 C9921 1.363 . S
C9920 C9925 1.379 . S
C9920 N9927 1.356 . S
C9921 C9920 1.363 . S
C9921 C9924 1.363 . S
N9922 C9924 1.356 . S
N9922 H9934 0.984 . S
N9922 H9935 0.985 . S
N9923 C9925 1.356 . S
N9923 H9928 0.984 . S
N9923 H9929 0.985 . S
C9924 C9918 1.379 . S
C9924 C9921 1.363 . S
C9924 N9922 1.356 . S
C9925 C9919 1.363 . S
C9925 C9920 1.379 . S
C9925 N9923 1.356 . S
N9926 C9918 1.356 . S
N9926 H9932 0.984 . S
N9926 H9933 0.984 . S
N9927 C9920 1.356 . S
N9927 H9930 0.984 . S
N9927 H9931 0.985 . S
H9928 N9923 0.984 . S
H9929 N9923 0.985 . S
H9930 N9927 0.984 . S
H9931 N9927 0.985 . S
H9932 N9926 0.984 . S
H9933 N9926 0.984 . S
H9934 N9922 0.984 . S
H9935 N9922 0.985 . S
C9936 C9937 1.363 . S
C9936 C9942 1.379 . S
C9936 N9944 1.356 . S
C9937 C9936 1.363 . S
C9937 C9943 1.363 . S
C9938 C9939 1.363 . S
C9938 C9943 1.379 . S
C9938 N9945 1.356 . S
C9939 C9938 1.363 . S
C9939 C9942 1.363 . S
N9940 C9942 1.356 . S
N9940 H9952 0.984 . S
N9940 H9953 0.985 . S
N9941 C9943 1.356 . S
N9941 H9946 0.984 . S
N9941 H9947 0.985 . S
C9942 C9936 1.379 . S
C9942 C9939 1.363 . S
C9942 N9940 1.356 . S
C9943 C9937 1.363 . S
C9943 C9938 1.379 . S
C9943 N9941 1.356 . S
N9944 C9936 1.356 . S
N9944 H9950 0.984 . S
N9944 H9951 0.984 . S
N9945 C9938 1.356 . S
N9945 H9948 0.984 . S
N9945 H9949 0.985 . S
H9946 N9941 0.984 . S
H9947 N9941 0.985 . S
H9948 N9945 0.984 . S
H9949 N9945 0.985 . S
H9950 N9944 0.984 . S
H9951 N9944 0.984 . S
H9952 N9940 0.984 . S
H9953 N9940 0.985 . S
C9954 C9955 1.363 . S
C9954 C9960 1.379 . S
C9954 N9962 1.356 . S
C9955 C9954 1.363 . S
C9955 C9961 1.363 . S
C9956 C9957 1.363 . S
C9956 C9961 1.379 . S
C9956 N9963 1.356 . S
C9957 C9956 1.363 . S
C9957 C9960 1.363 . S
N9958 C9960 1.356 . S
N9958 H9970 0.984 . S
N9958 H9971 0.985 . S
N9959 C9961 1.356 . S
N9959 H9964 0.984 . S
N9959 H9965 0.985 . S
C9960 C9954 1.379 . S
C9960 C9957 1.363 . S
C9960 N9958 1.356 . S
C9961 C9955 1.363 . S
C9961 C9956 1.379 . S
C9961 N9959 1.356 . S
N9962 C9954 1.356 . S
N9962 H9968 0.984 . S
N9962 H9969 0.984 . S
N9963 C9956 1.356 . S
N9963 H9966 0.984 . S
N9963 H9967 0.985 . S
H9964 N9959 0.984 . S
H9965 N9959 0.985 . S
H9966 N9963 0.984 . S
H9967 N9963 0.985 . S
H9968 N9962 0.984 . S
H9969 N9962 0.984 . S
H9970 N9958 0.984 . S
H9971 N9958 0.985 . S
C9972 C9973 1.363 . S
C9972 C9978 1.379 . S
C9972 N9980 1.356 . S
C9973 C9972 1.363 . S
C9973 C9979 1.363 . S
C9974 C9975 1.363 . S
C9974 C9979 1.379 . S
C9974 N9981 1.356 . S
C9975 C9974 1.363 . S
C9975 C9978 1.363 . S
N9976 C9978 1.356 . S
N9976 H9988 0.984 . S
N9976 H9989 0.985 . S
N9977 C9979 1.356 . S
N9977 H9982 0.984 . S
N9977 H9983 0.985 . S
C9978 C9972 1.379 . S
C9978 C9975 1.363 . S
C9978 N9976 1.356 . S
C9979 C9973 1.363 . S
C9979 C9974 1.379 . S
C9979 N9977 1.356 . S
N9980 C9972 1.356 . S
N9980 H9986 0.984 . S
N9980 H9987 0.984 . S
N9981 C9974 1.356 . S
N9981 H9984 0.984 . S
N9981 H9985 0.985 . S
H9982 N9977 0.984 . S
H9983 N9977 0.985 . S
H9984 N9981 0.984 . S
H9985 N9981 0.985 . S
H9986 N9980 0.984 . S
H9987 N9980 0.984 . S
H9988 N9976 0.984 . S
H9989 N9976 0.985 . S
C9990 C9991 1.363 . S
C9990 C9996 1.379 . S
C9990 N9998 1.356 . S
C9991 C9990 1.363 . S
C9991 C9997 1.363 . S
C9992 C9993 1.363 . S
C9992 C9997 1.379 . S
C9992 N9999 1.356 . S
C9993 C9992 1.363 . S
C9993 C9996 1.363 . S
N9994 C9996 1.356 . S
N9994 H10006 0.984 . S
N9994 H10007 0.985 . S
N9995 C9997 1.356 . S
N9995 H10000 0.984 . S
N9995 H10001 0.985 . S
C9996 C9990 1.379 . S
C9996 C9993 1.363 . S
C9996 N9994 1.356 . S
C9997 C9991 1.363 . S
C9997 C9992 1.379 . S
C9997 N9995 1.356 . S
N9998 C9990 1.356 . S
N9998 H10004 0.984 . S
N9998 H10005 0.984 . S
N9999 C9992 1.356 . S
N9999 H10002 0.984 . S
N9999 H10003 0.985 . S
H10000 N9995 0.984 . S
H10001 N9995 0.985 . S
H10002 N9999 0.984 . S
H10003 N9999 0.985 . S
H10004 N9998 0.984 . S
H10005 N9998 0.984 . S
H10006 N9994 0.984 . S
H10007 N9994 0.985 . S
C10008 C10009 1.363 . S
C10008 C10014 1.379 . S
C10008 N10016 1.356 . S
C10009 C10008 1.363 . S
C10009 C10015 1.363 . S
C10010 C10011 1.363 . S
C10010 C10015 1.379 . S
C10010 N10017 1.356 . S
C10011 C10010 1.363 . S
C10011 C10014 1.363 . S
N10012 C10014 1.356 . S
N10012 H10024 0.984 . S
N10012 H10025 0.985 . S
N10013 C10015 1.356 . S
N10013 H10018 0.984 . S
N10013 H10019 0.985 . S
C10014 C10008 1.379 . S
C10014 C10011 1.363 . S
C10014 N10012 1.356 . S
C10015 C10009 1.363 . S
C10015 C10010 1.379 . S
C10015 N10013 1.356 . S
N10016 C10008 1.356 . S
N10016 H10022 0.984 . S
N10016 H10023 0.984 . S
N10017 C10010 1.356 . S
N10017 H10020 0.984 . S
N10017 H10021 0.985 . S
H10018 N10013 0.984 . S
H10019 N10013 0.985 . S
H10020 N10017 0.984 . S
H10021 N10017 0.985 . S
H10022 N10016 0.984 . S
H10023 N10016 0.984 . S
H10024 N10012 0.984 . S
H10025 N10012 0.985 . S
C10026 C10027 1.363 . S
C10026 C10032 1.379 . S
C10026 N10034 1.356 . S
C10027 C10026 1.363 . S
C10027 C10033 1.363 . S
C10028 C10029 1.363 . S
C10028 C10033 1.379 . S
C10028 N10035 1.356 . S
C10029 C10028 1.363 . S
C10029 C10032 1.363 . S
N10030 C10032 1.356 . S
N10030 H10042 0.984 . S
N10030 H10043 0.985 . S
N10031 C10033 1.356 . S
N10031 H10036 0.984 . S
N10031 H10037 0.985 . S
C10032 C10026 1.379 . S
C10032 C10029 1.363 . S
C10032 N10030 1.356 . S
C10033 C10027 1.363 . S
C10033 C10028 1.379 . S
C10033 N10031 1.356 . S
N10034 C10026 1.356 . S
N10034 H10040 0.984 . S
N10034 H10041 0.984 . S
N10035 C10028 1.356 . S
N10035 H10038 0.984 . S
N10035 H10039 0.985 . S
H10036 N10031 0.984 . S
H10037 N10031 0.985 . S
H10038 N10035 0.984 . S
H10039 N10035 0.985 . S
H10040 N10034 0.984 . S
H10041 N10034 0.984 . S
H10042 N10030 0.984 . S
H10043 N10030 0.985 . S
C10044 C10045 1.363 . S
C10044 C10050 1.379 . S
C10044 N10052 1.356 . S
C10045 C10044 1.363 . S
C10045 C10051 1.363 . S
C10046 C10047 1.363 . S
C10046 C10051 1.379 . S
C10046 N10053 1.356 . S
C10047 C10046 1.363 . S
C10047 C10050 1.363 . S
N10048 C10050 1.356 . S
N10048 H10060 0.984 . S
N10048 H10061 0.985 . S
N10049 C10051 1.356 . S
N10049 H10054 0.984 . S
N10049 H10055 0.985 . S
C10050 C10044 1.379 . S
C10050 C10047 1.363 . S
C10050 N10048 1.356 . S
C10051 C10045 1.363 . S
C10051 C10046 1.379 . S
C10051 N10049 1.356 . S
N10052 C10044 1.356 . S
N10052 H10058 0.984 . S
N10052 H10059 0.984 . S
N10053 C10046 1.356 . S
N10053 H10056 0.984 . S
N10053 H10057 0.985 . S
H10054 N10049 0.984 . S
H10055 N10049 0.985 . S
H10056 N10053 0.984 . S
H10057 N10053 0.985 . S
H10058 N10052 0.984 . S
H10059 N10052 0.984 . S
H10060 N10048 0.984 . S
H10061 N10048 0.985 . S
C10062 C10063 1.363 . S
C10062 C10068 1.379 . S
C10062 N10070 1.356 . S
C10063 C10062 1.363 . S
C10063 C10069 1.363 . S
C10064 C10065 1.363 . S
C10064 C10069 1.379 . S
C10064 N10071 1.356 . S
C10065 C10064 1.363 . S
C10065 C10068 1.363 . S
N10066 C10068 1.356 . S
N10066 H10078 0.984 . S
N10066 H10079 0.985 . S
N10067 C10069 1.356 . S
N10067 H10072 0.984 . S
N10067 H10073 0.985 . S
C10068 C10062 1.379 . S
C10068 C10065 1.363 . S
C10068 N10066 1.356 . S
C10069 C10063 1.363 . S
C10069 C10064 1.379 . S
C10069 N10067 1.356 . S
N10070 C10062 1.356 . S
N10070 H10076 0.984 . S
N10070 H10077 0.984 . S
N10071 C10064 1.356 . S
N10071 H10074 0.984 . S
N10071 H10075 0.985 . S
H10072 N10067 0.984 . S
H10073 N10067 0.985 . S
H10074 N10071 0.984 . S
H10075 N10071 0.985 . S
H10076 N10070 0.984 . S
H10077 N10070 0.984 . S
H10078 N10066 0.984 . S
H10079 N10066 0.985 . S
C4899 C4125 1.548 . S
C4897 C15 1.566 . S
C4917 C4664 1.548 . S
C4915 C55 1.566 . S
C4935 C4147 1.548 . S
C4933 C95 1.566 . S
C4953 C4642 1.548 . S
C4951 C135 1.566 . S
C4971 C4191 1.548 . S
C4969 C175 1.566 . S
C4987 C215 1.566 . S
C4989 C4686 1.548 . S
C5007 C4169 1.548 . S
C5005 C255 1.566 . S
C5025 C4708 1.548 . S
C5023 C295 1.566 . S
C5043 C4884 1.548 . S
C5041 C335 1.566 . S
C5059 C375 1.566 . S
C5061 C4818 1.548 . S
C5079 C4895 1.548 . S
C5077 C415 1.566 . S
C5095 C455 1.566 . S
C5097 C4873 1.548 . S
C5115 C4840 1.548 . S
C5113 C495 1.566 . S
C5133 C4323 1.548 . S
C5131 C535 1.566 . S
C5151 C4334 1.548 . S
C5149 C575 1.566 . S
C5167 C615 1.566 . S
C5169 C4301 1.548 . S
C5185 C655 1.566 . S
C5187 C4785 1.548 . S
C5205 C4235 1.548 . S
C5203 C695 1.566 . S
C5223 C4730 1.548 . S
C5221 C735 1.566 . S
C5241 C4213 1.548 . S
C5239 C775 1.566 . S
C5257 C815 1.566 . S
C5259 C4224 1.548 . S
C5277 C4807 1.548 . S
C5275 C855 1.566 . S
C5295 C4774 1.548 . S
C5293 C895 1.566 . S
C5311 C935 1.566 . S
C5313 C4796 1.548 . S
C5329 C975 1.570 . S
C5331 C3861 1.553 . S
C5347 C1015 1.570 . S
C5349 C4400 1.553 . S
C5367 C3883 1.553 . S
C5365 C1055 1.570 . S
C5383 C1095 1.570 . S
C5385 C4378 1.553 . S
C5403 C3927 1.553 . S
C5401 C1135 1.570 . S
C5419 C1175 1.570 . S
C5421 C4422 1.553 . S
C5439 C3905 1.553 . S
C5437 C1215 1.570 . S
C5457 C4444 1.553 . S
C5455 C1255 1.570 . S
C5473 C1295 1.570 . S
C5475 C4620 1.553 . S
C5493 C4554 1.553 . S
C5491 C1335 1.570 . S
C5509 C1375 1.570 . S
C5511 C4631 1.553 . S
C5529 C4609 1.553 . S
C5527 C1415 1.570 . S
C5547 C4576 1.553 . S
C5545 C1455 1.570 . S
C5563 C1495 1.570 . S
C5565 C4059 1.553 . S
C5581 C1535 1.570 . S
C5583 C4070 1.553 . S
C5601 C4037 1.553 . S
C5599 C1575 1.570 . S
C5617 C1615 1.570 . S
C5619 C4521 1.553 . S
C5637 C3971 1.553 . S
C5635 C1655 1.570 . S
C5653 C1695 1.570 . S
C5655 C4466 1.553 . S
C5673 C3949 1.553 . S
C5671 C1735 1.570 . S
C5689 C1775 1.570 . S
C5691 C3960 1.553 . S
C5709 C4543 1.553 . S
C5707 C1815 1.570 . S
C5727 C4510 1.553 . S
C5725 C1855 1.570 . S
C5745 C4532 1.553 . S
C5743 C1895 1.570 . S
C5761 C1935 1.566 . S
C5763 C4653 1.548 . S
C5781 C4136 1.548 . S
C5779 C1975 1.566 . S
C5799 C4675 1.548 . S
C5797 C2015 1.566 . S
C5817 C4114 1.548 . S
C5815 C2055 1.566 . S
C5833 C2095 1.566 . S
C5835 C4719 1.548 . S
C5853 C4158 1.548 . S
C5851 C2135 1.566 . S
C5871 C4697 1.548 . S
C5869 C2175 1.566 . S
C5889 C4180 1.548 . S
C5887 C2215 1.566 . S
C5905 C2255 1.566 . S
C5907 C4356 1.548 . S
C5925 C4290 1.548 . S
C5923 C2295 1.566 . S
C5943 C4367 1.548 . S
C5941 C2335 1.566 . S
C5959 C2375 1.566 . S
C5961 C4345 1.548 . S
C5977 C2415 1.566 . S
C5979 C4312 1.548 . S
C5995 C2455 1.566 . S
C5997 C4851 1.548 . S
C6013 C2495 1.566 . S
C6015 C4862 1.548 . S
C6033 C4829 1.548 . S
C6031 C2535 1.566 . S
C6049 C2575 1.566 . S
C6051 C4257 1.548 . S
C6069 C4763 1.548 . S
C6067 C2615 1.566 . S
C6087 C4202 1.548 . S
C6085 C2655 1.566 . S
C6105 C4741 1.548 . S
C6103 C2695 1.566 . S
C6121 C2735 1.566 . S
C6123 C4752 1.548 . S
C6139 C2775 1.566 . S
C6141 C4279 1.548 . S
C6159 C4246 1.548 . S
C6157 C2815 1.566 . S
C6175 C2855 1.566 . S
C6177 C4268 1.548 . S
C6193 C2895 1.570 . S
C6195 C4389 1.553 . S
C6213 C3872 1.553 . S
C6211 C2935 1.570 . S
C6231 C4411 1.553 . S
C6229 C2975 1.570 . S
C6247 C3015 1.570 . S
C6249 C3850 1.553 . S
C6267 C4455 1.553 . S
C6265 C3055 1.570 . S
C6285 C3894 1.553 . S
C6283 C3095 1.570 . S
C6301 C3135 1.570 . S
C6303 C4433 1.553 . S
C6319 C3175 1.570 . S
C6321 C3916 1.553 . S
C6339 C4092 1.553 . S
C6337 C3215 1.570 . S
C6355 C3255 1.570 . S
C6357 C4026 1.553 . S
C6375 C4103 1.553 . S
C6373 C3295 1.570 . S
C6393 C4081 1.553 . S
C6391 C3335 1.570 . S
C6409 C3375 1.570 . S
C6411 C4048 1.553 . S
C6427 C3415 1.570 . S
C6429 C4587 1.553 . S
C6447 C4598 1.553 . S
C6445 C3455 1.570 . S
C6463 C3495 1.570 . S
C6465 C4565 1.553 . S
C6483 C3993 1.553 . S
C6481 C3535 1.570 . S
C6501 C4499 1.553 . S
C6499 C3575 1.570 . S
C6517 C3615 1.570 . S
C6519 C3938 1.553 . S
C6535 C3655 1.570 . S
C6537 C4477 1.553 . S
C6553 C3695 1.570 . S
C6555 C4488 1.553 . S
C6571 C3735 1.570 . S
C6573 C4015 1.553 . S
C6589 C3775 1.570 . S
C6591 C3982 1.553 . S
C6609 C4004 1.553 . S
C6607 C3815 1.570 . S
C6627 C3943 1.607 . S
C6625 C2 1.575 . S
C6645 C3954 1.607 . S
C6643 C42 1.575 . S
C6661 C82 1.575 . S
C6663 C3965 1.607 . S
C6679 C122 1.575 . S
C6681 C3932 1.607 . S
C6697 C162 1.575 . S
C6699 C4009 1.607 . S
C6717 C3976 1.607 . S
C6715 C202 1.575 . S
C6735 C3987 1.607 . S
C6733 C242 1.575 . S
C6751 C282 1.575 . S
C6753 C3998 1.607 . S
C6769 C322 1.575 . S
C6771 C3877 1.607 . S
C6787 C362 1.575 . S
C6789 C3844 1.607 . S
C6805 C402 1.575 . S
C6807 C3855 1.607 . S
C6825 C3866 1.607 . S
C6823 C442 1.575 . S
C6841 C482 1.575 . S
C6843 C3899 1.607 . S
C6859 C522 1.575 . S
C6861 C3910 1.607 . S
C6877 C562 1.575 . S
C6879 C3921 1.607 . S
C6895 C602 1.575 . S
C6897 C3888 1.607 . S
C6915 C4042 1.607 . S
C6913 C642 1.575 . S
C6931 C682 1.575 . S
C6933 C4614 1.607 . S
C6951 C4020 1.607 . S
C6949 C722 1.575 . S
C6969 C4625 1.607 . S
C6967 C762 1.575 . S
C6985 C802 1.575 . S
C6987 C4603 1.607 . S
C7003 C842 1.575 . S
C7005 C4592 1.607 . S
C7023 C4559 1.607 . S
C7021 C882 1.575 . S
C7041 C4581 1.607 . S
C7039 C922 1.575 . S
C7059 C4207 1.632 . S
C7057 C962 1.667 . S
C7077 C4218 1.632 . S
C7075 C1002 1.666 . S
C7095 C4229 1.632 . S
C7093 C1042 1.666 . S
C7111 C1082 1.666 . S
C7113 C4196 1.632 . S
C7129 C1122 1.666 . S
C7131 C4273 1.632 . S
C7149 C4240 1.632 . S
C7147 C1162 1.666 . S
C7165 C1202 1.666 . S
C7167 C4251 1.632 . S
C7185 C4262 1.632 . S
C7183 C1242 1.667 . S
C7201 C1282 1.666 . S
C7203 C4141 1.632 . S
C7221 C4108 1.632 . S
C7219 C1322 1.666 . S
C7237 C1362 1.666 . S
C7239 C4119 1.632 . S
C7257 C4130 1.632 . S
C7255 C1402 1.666 . S
C7275 C4163 1.632 . S
C7273 C1442 1.666 . S
C7291 C1482 1.666 . S
C7293 C4174 1.632 . S
C7311 C4185 1.632 . S
C7309 C1522 1.666 . S
C7329 C4152 1.632 . S
C7327 C1562 1.666 . S
C7347 C4306 1.632 . S
C7345 C1602 1.666 . S
C7365 C4878 1.632 . S
C7363 C1642 1.666 . S
C7383 C4284 1.632 . S
C7381 C1682 1.666 . S
C7399 C1722 1.666 . S
C7401 C4889 1.632 . S
C7417 C1762 1.666 . S
C7419 C4867 1.632 . S
C7437 C4856 1.632 . S
C7435 C1802 1.666 . S
C7455 C4823 1.632 . S
C7453 C1842 1.666 . S
C7473 C4845 1.632 . S
C7471 C1882 1.666 . S
C7489 C1922 1.575 . S
C7491 C4471 1.607 . S
C7509 C4482 1.607 . S
C7507 C1962 1.575 . S
C7525 C2002 1.575 . S
C7527 C4493 1.607 . S
C7545 C4460 1.607 . S
C7543 C2042 1.575 . S
C7561 C2082 1.575 . S
C7563 C4537 1.607 . S
C7579 C2122 1.575 . S
C7581 C4504 1.607 . S
C7597 C2162 1.575 . S
C7599 C4515 1.607 . S
C7615 C2202 1.575 . S
C7617 C4526 1.607 . S
C7633 C2242 1.575 . S
C7635 C4405 1.607 . S
C7653 C4372 1.607 . S
C7651 C2282 1.575 . S
C7671 C4383 1.607 . S
C7669 C2322 1.575 . S
C7687 C2362 1.575 . S
C7689 C4394 1.607 . S
C7705 C2402 1.575 . S
C7707 C4427 1.607 . S
C7723 C2442 1.575 . S
C7725 C4438 1.607 . S
C7741 C2482 1.575 . S
C7743 C4449 1.607 . S
C7759 C2522 1.575 . S
C7761 C4416 1.607 . S
C7779 C4570 1.607 . S
C7777 C2562 1.575 . S
C7797 C4086 1.607 . S
C7795 C2602 1.575 . S
C7815 C4548 1.607 . S
C7813 C2642 1.575 . S
C7833 C4097 1.607 . S
C7831 C2682 1.575 . S
C7851 C4075 1.607 . S
C7849 C2722 1.575 . S
C7869 C4064 1.607 . S
C7867 C2762 1.575 . S
C7885 C2802 1.575 . S
C7887 C4031 1.607 . S
C7905 C4053 1.607 . S
C7903 C2842 1.575 . S
C7921 C2882 1.667 . S
C7923 C4735 1.632 . S
C7939 C2922 1.666 . S
C7941 C4746 1.632 . S
C7959 C4757 1.632 . S
C7957 C2962 1.666 . S
C7975 C3002 1.666 . S
C7977 C4724 1.632 . S
C7995 C4801 1.632 . S
C7993 C3042 1.666 . S
C8011 C3082 1.666 . S
C8013 C4768 1.632 . S
C8029 C3122 1.666 . S
C8031 C4779 1.632 . S
C8049 C4790 1.632 . S
C8047 C3162 1.667 . S
C8067 C4669 1.632 . S
C8065 C3202 1.666 . S
C8085 C4636 1.632 . S
C8083 C3242 1.666 . S
C8103 C4647 1.632 . S
C8101 C3282 1.666 . S
C8121 C4658 1.632 . S
C8119 C3322 1.666 . S
C8137 C3362 1.666 . S
C8139 C4691 1.632 . S
C8157 C4702 1.632 . S
C8155 C3402 1.666 . S
C8173 C3442 1.666 . S
C8175 C4713 1.632 . S
C8191 C3482 1.666 . S
C8193 C4680 1.632 . S
C8209 C3522 1.666 . S
C8211 C4834 1.632 . S
C8227 C3562 1.666 . S
C8229 C4350 1.632 . S
C8245 C3602 1.666 . S
C8247 C4812 1.632 . S
C8265 C4361 1.632 . S
C8263 C3642 1.666 . S
C8281 C3682 1.666 . S
C8283 C4339 1.632 . S
C8299 C3722 1.666 . S
C8301 C4328 1.632 . S
C8317 C3762 1.666 . S
C8319 C4295 1.632 . S
C8337 C4317 1.632 . S
C8335 C3802 1.666 . S
C8353 C21 1.641 . S
C8355 C3845 1.684 . S
C8371 C61 1.641 . S
C8373 C3856 1.684 . S
C8389 C101 1.641 . S
C8391 C3867 1.684 . S
C8409 C3878 1.684 . S
C8407 C141 1.641 . S
C8427 C3889 1.684 . S
C8425 C181 1.641 . S
C8443 C221 1.641 . S
C8445 C3900 1.684 . S
C8461 C261 1.641 . S
C8463 C3911 1.684 . S
C8479 C301 1.641 . S
C8481 C3922 1.684 . S
C8499 C3933 1.684 . S
C8497 C341 1.641 . S
C8517 C3944 1.684 . S
C8515 C381 1.641 . S
C8533 C421 1.641 . S
C8535 C3955 1.684 . S
C8553 C3966 1.684 . S
C8551 C461 1.641 . S
C8569 C501 1.641 . S
C8571 C3977 1.684 . S
C8587 C541 1.641 . S
C8589 C3988 1.684 . S
C8605 C581 1.641 . S
C8607 C3999 1.684 . S
C8623 C621 1.641 . S
C8625 C4010 1.684 . S
C8641 C661 1.641 . S
C8643 C4021 1.684 . S
C8659 C701 1.641 . S
C8661 C4032 1.684 . S
C8679 C4043 1.684 . S
C8677 C741 1.641 . S
C8697 C4054 1.684 . S
C8695 C781 1.641 . S
C8715 C4065 1.684 . S
C8713 C821 1.641 . S
C8733 C4076 1.684 . S
C8731 C861 1.641 . S
C8749 C901 1.641 . S
C8751 C4087 1.684 . S
C8769 C4098 1.684 . S
C8767 C941 1.641 . S
C8785 C981 1.744 . S
C8787 C4109 1.700 . S
C8803 C1021 1.743 . S
C8805 C4120 1.700 . S
C8821 C1061 1.743 . S
C8823 C4131 1.700 . S
C8841 C4142 1.700 . S
C8839 C1101 1.743 . S
C8857 C1141 1.743 . S
C8859 C4153 1.700 . S
C8877 C4164 1.700 . S
C8875 C1181 1.743 . S
C8893 C1221 1.743 . S
C8895 C4175 1.700 . S
C8911 C1261 1.744 . S
C8913 C4186 1.700 . S
C8931 C4197 1.700 . S
C8929 C1301 1.744 . S
C8947 C1341 1.743 . S
C8949 C4208 1.700 . S
C8967 C4219 1.700 . S
C8965 C1381 1.743 . S
C8983 C1421 1.743 . S
C8985 C4230 1.700 . S
C9003 C4241 1.700 . S
C9001 C1461 1.743 . S
C9021 C4252 1.700 . S
C9019 C1501 1.743 . S
C9039 C4263 1.700 . S
C9037 C1541 1.743 . S
C9055 C1581 1.744 . S
C9057 C4274 1.700 . S
C9073 C1621 1.744 . S
C9075 C4285 1.700 . S
C9091 C1661 1.743 . S
C9093 C4296 1.700 . S
C9109 C1701 1.743 . S
C9111 C4307 1.700 . S
C9127 C1741 1.743 . S
C9129 C4318 1.700 . S
C9145 C1781 1.744 . S
C9147 C4329 1.700 . S
C9165 C4340 1.700 . S
C9163 C1821 1.743 . S
C9181 C1861 1.743 . S
C9183 C4351 1.700 . S
C9201 C4362 1.700 . S
C9199 C1901 1.743 . S
C9217 C1941 1.641 . S
C9219 C4373 1.684 . S
C9237 C4384 1.684 . S
C9235 C1981 1.641 . S
C9255 C4395 1.684 . S
C9253 C2021 1.641 . S
C9273 C4406 1.684 . S
C9271 C2061 1.641 . S
C9289 C2101 1.641 . S
C9291 C4417 1.684 . S
C9307 C2141 1.641 . S
C9309 C4428 1.684 . S
C9327 C4439 1.684 . S
C9325 C2181 1.641 . S
C9345 C4450 1.684 . S
C9343 C2221 1.641 . S
C9361 C2261 1.641 . S
C9363 C4461 1.684 . S
C9379 C2301 1.641 . S
C9381 C4472 1.684 . S
C9397 C2341 1.641 . S
C9399 C4483 1.684 . S
C9415 C2381 1.641 . S
C9417 C4494 1.684 . S
C9433 C2421 1.641 . S
C9435 C4505 1.684 . S
C9453 C4516 1.684 . S
C9451 C2461 1.641 . S
C9471 C4527 1.684 . S
C9469 C2501 1.641 . S
C9489 C4538 1.684 . S
C9487 C2541 1.641 . S
C9507 C4549 1.684 . S
C9505 C2581 1.641 . S
C9523 C2621 1.641 . S
C9525 C4560 1.684 . S
C9541 C2661 1.641 . S
C9543 C4571 1.684 . S
C9561 C4582 1.684 . S
C9559 C2701 1.641 . S
C9577 C2741 1.641 . S
C9579 C4593 1.684 . S
C9597 C4604 1.684 . S
C9595 C2781 1.641 . S
C9615 C4615 1.684 . S
C9613 C2821 1.641 . S
C9633 C4626 1.684 . S
C9631 C2861 1.641 . S
C9649 C2901 1.744 . S
C9651 C4637 1.700 . S
C9667 C2941 1.743 . S
C9669 C4648 1.700 . S
C9685 C2981 1.743 . S
C9687 C4659 1.700 . S
C9703 C3021 1.743 . S
C9705 C4670 1.700 . S
C9723 C4681 1.700 . S
C9721 C3061 1.743 . S
C9741 C4692 1.700 . S
C9739 C3101 1.743 . S
C9759 C4703 1.700 . S
C9757 C3141 1.743 . S
C9775 C3181 1.744 . S
C9777 C4714 1.700 . S
C9793 C3221 1.744 . S
C9795 C4725 1.700 . S
C9813 C4736 1.700 . S
C9811 C3261 1.743 . S
C9831 C4747 1.700 . S
C9829 C3301 1.743 . S
C9849 C4758 1.700 . S
C9847 C3341 1.743 . S
C9867 C4769 1.700 . S
C9865 C3381 1.743 . S
C9885 C4780 1.700 . S
C9883 C3421 1.743 . S
C9903 C4791 1.700 . S
C9901 C3461 1.743 . S
C9921 C4802 1.700 . S
C9919 C3501 1.744 . S
C9939 C4813 1.700 . S
C9937 C3541 1.744 . S
C9957 C4824 1.700 . S
C9955 C3581 1.743 . S
C9975 C4835 1.700 . S
C9973 C3621 1.743 . S
C9991 C3661 1.743 . S
C9993 C4846 1.700 . S
C10011 C4857 1.700 . S
C10009 C3701 1.744 . S
C10027 C3741 1.743 . S
C10029 C4868 1.700 . S
C10047 C4879 1.700 . S
C10045 C3781 1.743 . S
C10065 C4890 1.700 . S
C10063 C3821 1.743 . S
